# Generated by pormake.
# Topology ssb, (4,4)-cn, num edge types: 1
# Building blocks:
#     Node 0, Type 0, BuildingBlock: GIZVER_clean_linker_0, # of connection points: 4
#     Node 1, Type 0, BuildingBlock: GIZVER_clean_linker_0, # of connection points: 4
#     Node 2, Type 0, BuildingBlock: GIZVER_clean_linker_0, # of connection points: 4
#     Node 3, Type 0, BuildingBlock: GIZVER_clean_linker_0, # of connection points: 4
#     Node 4, Type 0, BuildingBlock: GIZVER_clean_linker_0, # of connection points: 4
#     Node 5, Type 0, BuildingBlock: GIZVER_clean_linker_0, # of connection points: 4
#     Node 6, Type 0, BuildingBlock: GIZVER_clean_linker_0, # of connection points: 4
#     Node 7, Type 0, BuildingBlock: GIZVER_clean_linker_0, # of connection points: 4
#     Node 8, Type 1, BuildingBlock: KOZSID_clean_sbu_0, # of connection points: 4
#     Node 9, Type 1, BuildingBlock: KOZSID_clean_sbu_0, # of connection points: 4
#     Node 10, Type 1, BuildingBlock: KOZSID_clean_sbu_0, # of connection points: 4
#     Node 11, Type 1, BuildingBlock: KOZSID_clean_sbu_0, # of connection points: 4
#     Node 12, Type 1, BuildingBlock: KOZSID_clean_sbu_0, # of connection points: 4
#     Node 13, Type 1, BuildingBlock: KOZSID_clean_sbu_0, # of connection points: 4
#     Node 14, Type 1, BuildingBlock: KOZSID_clean_sbu_0, # of connection points: 4
#     Node 15, Type 1, BuildingBlock: KOZSID_clean_sbu_0, # of connection points: 4
#     Edge 16, Type (0, 1), BuildingBlock: XUDNAN_clean_linker_2, # of connection points: 2
#     Edge 17, Type (0, 1), BuildingBlock: XUDNAN_clean_linker_2, # of connection points: 2
#     Edge 18, Type (0, 1), BuildingBlock: XUDNAN_clean_linker_2, # of connection points: 2
#     Edge 19, Type (0, 1), BuildingBlock: XUDNAN_clean_linker_2, # of connection points: 2
#     Edge 20, Type (0, 1), BuildingBlock: XUDNAN_clean_linker_2, # of connection points: 2
#     Edge 21, Type (0, 1), BuildingBlock: XUDNAN_clean_linker_2, # of connection points: 2
#     Edge 22, Type (0, 1), BuildingBlock: XUDNAN_clean_linker_2, # of connection points: 2
#     Edge 23, Type (0, 1), BuildingBlock: XUDNAN_clean_linker_2, # of connection points: 2
#     Edge 24, Type (0, 1), BuildingBlock: XUDNAN_clean_linker_2, # of connection points: 2
#     Edge 25, Type (0, 1), BuildingBlock: XUDNAN_clean_linker_2, # of connection points: 2
#     Edge 26, Type (0, 1), BuildingBlock: XUDNAN_clean_linker_2, # of connection points: 2
#     Edge 27, Type (0, 1), BuildingBlock: XUDNAN_clean_linker_2, # of connection points: 2
#     Edge 28, Type (0, 1), BuildingBlock: XUDNAN_clean_linker_2, # of connection points: 2
#     Edge 29, Type (0, 1), BuildingBlock: XUDNAN_clean_linker_2, # of connection points: 2
#     Edge 30, Type (0, 1), BuildingBlock: XUDNAN_clean_linker_2, # of connection points: 2
#     Edge 31, Type (0, 1), BuildingBlock: XUDNAN_clean_linker_2, # of connection points: 2
#     Edge 32, Type (0, 1), BuildingBlock: XUDNAN_clean_linker_2, # of connection points: 2
#     Edge 33, Type (0, 1), BuildingBlock: XUDNAN_clean_linker_2, # of connection points: 2
#     Edge 34, Type (0, 1), BuildingBlock: XUDNAN_clean_linker_2, # of connection points: 2
#     Edge 35, Type (0, 1), BuildingBlock: XUDNAN_clean_linker_2, # of connection points: 2
#     Edge 36, Type (0, 1), BuildingBlock: XUDNAN_clean_linker_2, # of connection points: 2
#     Edge 37, Type (0, 1), BuildingBlock: XUDNAN_clean_linker_2, # of connection points: 2
#     Edge 38, Type (0, 1), BuildingBlock: XUDNAN_clean_linker_2, # of connection points: 2
#     Edge 39, Type (0, 1), BuildingBlock: XUDNAN_clean_linker_2, # of connection points: 2
#     Edge 40, Type (0, 1), BuildingBlock: XUDNAN_clean_linker_2, # of connection points: 2
#     Edge 41, Type (0, 1), BuildingBlock: XUDNAN_clean_linker_2, # of connection points: 2
#     Edge 42, Type (0, 1), BuildingBlock: XUDNAN_clean_linker_2, # of connection points: 2
#     Edge 43, Type (0, 1), BuildingBlock: XUDNAN_clean_linker_2, # of connection points: 2
#     Edge 44, Type (0, 1), BuildingBlock: XUDNAN_clean_linker_2, # of connection points: 2
#     Edge 45, Type (0, 1), BuildingBlock: XUDNAN_clean_linker_2, # of connection points: 2
#     Edge 46, Type (0, 1), BuildingBlock: XUDNAN_clean_linker_2, # of connection points: 2
#     Edge 47, Type (0, 1), BuildingBlock: XUDNAN_clean_linker_2, # of connection points: 2
# Relax obj value: 0.003
# Max RMSD: 0.046
# Mean RMSD: 0.023
data_MOF--net-ssb--node1-KOZSID_clean_sbu_0--node2-GIZVER_clean_linker_0--edge1-XUDNAN_clean_linker_2
_symmetry_space_group_name_H-M    P1
_symmetry_Int_Tables_number       1
_symmetry_cell_setting            triclinic
loop_
_symmetry_equiv_pos_as_xyz
'x, y, z'
_cell_length_a     54.854853
_cell_length_b     54.536994
_cell_length_c     40.347202
_cell_angle_alpha  92.873969
_cell_angle_beta   95.064473
_cell_angle_gamma 90.019157
loop_
_atom_site_label
_atom_site_type_symbol
_atom_site_fract_x
_atom_site_fract_y
_atom_site_fract_z
_atom_type_partial_charge
H0 H 0.25463 0.18733 0.2993 0.0
H1 H 0.21577 0.2548 0.28381 0.0
H2 H 0.21844 0.22334 0.37881 0.0
H3 H 0.25165 0.20358 0.24551 0.0
H4 H 0.22605 0.22275 0.23705 0.0
H5 H 0.29226 0.21892 0.2437 0.0
H6 H 0.30174 0.29014 0.20575 0.0
H7 H 0.23121 0.26848 0.23303 0.0
C8 C 0.24482 0.20276 0.30945 0.0
C9 C 0.23671 0.20196 0.34181 0.0
C10 C 0.23865 0.22277 0.28899 0.0
C11 C 0.22293 0.24106 0.30051 0.0
C12 C 0.21471 0.24057 0.33244 0.0
C13 C 0.22376 0.22248 0.35365 0.0
C14 C 0.24384 0.22175 0.25246 0.0
C15 C 0.26037 0.24217 0.24242 0.0
C16 C 0.28509 0.23687 0.23794 0.0
C17 C 0.29987 0.25369 0.22333 0.0
C18 C 0.29007 0.27661 0.2153 0.0
C19 C 0.26528 0.28207 0.21764 0.0
C20 C 0.25054 0.26489 0.23194 0.0
H21 H 0.81192 0.2657 0.30027 0.0
H22 H 0.75624 0.20976 0.29052 0.0
H23 H 0.78937 0.23315 0.38757 0.0
H24 H 0.80052 0.24377 0.24653 0.0
H25 H 0.77849 0.21957 0.24322 0.0
H26 H 0.78778 0.28646 0.24295 0.0
H27 H 0.71721 0.29779 0.19034 0.0
H28 H 0.73468 0.22804 0.23107 0.0
C29 C 0.80003 0.25338 0.31172 0.0
C30 C 0.80237 0.25155 0.34651 0.0
C31 C 0.78295 0.23867 0.29155 0.0
C32 C 0.76835 0.22197 0.30634 0.0
C33 C 0.77074 0.21958 0.34096 0.0
C34 C 0.78726 0.235 0.36086 0.0
C35 C 0.78229 0.23848 0.2541 0.0
C36 C 0.76308 0.25567 0.23961 0.0
C37 C 0.7695 0.27998 0.23448 0.0
C38 C 0.75325 0.29529 0.21632 0.0
C39 C 0.72959 0.28658 0.20554 0.0
C40 C 0.7227 0.26243 0.21109 0.0
C41 C 0.73953 0.24703 0.22812 0.0
H42 H 0.76922 0.73143 0.32216 0.0
H43 H 0.71655 0.79004 0.32026 0.0
H44 H 0.78892 0.80187 0.36916 0.0
H45 H 0.72386 0.72348 0.31561 0.0
H46 H 0.70309 0.74795 0.308 0.0
H47 H 0.7423 0.70233 0.27047 0.0
H48 H 0.71738 0.72049 0.17005 0.0
H49 H 0.69807 0.76605 0.25296 0.0
C50 C 0.76466 0.75048 0.32751 0.0
C51 C 0.78194 0.76596 0.34585 0.0
C52 C 0.74111 0.7591 0.31755 0.0
C53 C 0.735 0.78361 0.32646 0.0
C54 C 0.75204 0.79917 0.34555 0.0
C55 C 0.77564 0.79023 0.35433 0.0
C56 C 0.72153 0.74104 0.30281 0.0
C57 C 0.72193 0.73579 0.26554 0.0
C58 C 0.73326 0.71443 0.2529 0.0
C59 C 0.73138 0.70797 0.21829 0.0
C60 C 0.71872 0.72419 0.19671 0.0
C61 C 0.70607 0.74454 0.20903 0.0
C62 C 0.70811 0.75051 0.24336 0.0
H63 H 0.19254 0.75739 0.23601 0.0
H64 H 0.25826 0.80091 0.24671 0.0
H65 H 0.21236 0.79885 0.32772 0.0
H66 H 0.21186 0.76766 0.18726 0.0
H67 H 0.234 0.79168 0.19071 0.0
H68 H 0.22443 0.72468 0.18919 0.0
H69 H 0.29821 0.70892 0.16673 0.0
H70 H 0.27838 0.78263 0.19569 0.0
C71 C 0.20535 0.76913 0.25144 0.0
C72 C 0.20025 0.77645 0.28412 0.0
C73 C 0.22622 0.77811 0.23782 0.0
C74 C 0.24235 0.79404 0.25744 0.0
C75 C 0.23745 0.80199 0.28988 0.0
C76 C 0.21652 0.79276 0.30295 0.0
C77 C 0.2294 0.7739 0.20108 0.0
C78 C 0.24928 0.75558 0.19424 0.0
C79 C 0.24315 0.73066 0.18778 0.0
C80 C 0.26057 0.71382 0.17717 0.0
C81 C 0.28462 0.72185 0.17472 0.0
C82 C 0.29122 0.74651 0.18167 0.0
C83 C 0.27348 0.76342 0.19123 0.0
H84 H 0.30149 0.75994 0.76305 0.0
H85 H 0.2458 0.70448 0.76099 0.0
H86 H 0.3028 0.70967 0.84163 0.0
H87 H 0.28345 0.73814 0.70933 0.0
H88 H 0.25617 0.72094 0.70952 0.0
H89 H 0.28256 0.78291 0.70609 0.0
H90 H 0.21244 0.8122 0.67238 0.0
H91 H 0.21682 0.74129 0.71429 0.0
C92 C 0.29307 0.74516 0.775 0.0
C93 C 0.3039 0.73699 0.80537 0.0
C94 C 0.27247 0.73319 0.75845 0.0
C95 C 0.26166 0.71364 0.77388 0.0
C96 C 0.27203 0.70514 0.80466 0.0
C97 C 0.29331 0.71701 0.81968 0.0
C98 C 0.26611 0.73728 0.72163 0.0
C99 C 0.25128 0.76017 0.71359 0.0
C100 C 0.26276 0.78166 0.70394 0.0
C101 C 0.24879 0.80084 0.68955 0.0
C102 C 0.22324 0.79815 0.68482 0.0
C103 C 0.21159 0.77669 0.6933 0.0
C104 C 0.22561 0.75825 0.70884 0.0
H105 H 0.27014 0.21562 0.87269 0.0
H106 H 0.22622 0.27862 0.84757 0.0
H107 H 0.30018 0.28832 0.89136 0.0
H108 H 0.2268 0.21044 0.85817 0.0
H109 H 0.20774 0.23699 0.85839 0.0
H110 H 0.24964 0.2007 0.80564 0.0
H111 H 0.20897 0.2162 0.71408 0.0
H112 H 0.18658 0.24697 0.80763 0.0
C113 C 0.2683 0.23532 0.87102 0.0
C114 C 0.28806 0.25079 0.88274 0.0
C115 C 0.24602 0.24525 0.85774 0.0
C116 C 0.24362 0.27087 0.85656 0.0
C117 C 0.26301 0.28649 0.869 0.0
C118 C 0.28526 0.27628 0.88139 0.0
C119 C 0.22409 0.22883 0.84769 0.0
C120 C 0.21939 0.22559 0.81024 0.0
C121 C 0.23469 0.21024 0.79249 0.0
C122 C 0.23035 0.20665 0.75797 0.0
C123 C 0.21099 0.21881 0.7409 0.0
C124 C 0.19418 0.23306 0.75809 0.0
C125 C 0.19898 0.23654 0.79311 0.0
H126 H 0.70333 0.25542 0.77931 0.0
H127 H 0.76106 0.30937 0.79319 0.0
H128 H 0.72144 0.29145 0.87582 0.0
H129 H 0.71774 0.27436 0.73204 0.0
H130 H 0.74032 0.2978 0.73734 0.0
H131 H 0.72996 0.2299 0.72951 0.0
H132 H 0.79796 0.21827 0.68568 0.0
H133 H 0.78274 0.28853 0.73253 0.0
C134 C 0.71499 0.26756 0.79586 0.0
C135 C 0.7098 0.27178 0.82927 0.0
C136 C 0.73385 0.28057 0.78271 0.0
C137 C 0.74753 0.29819 0.80347 0.0
C138 C 0.74302 0.3021 0.83713 0.0
C139 C 0.72477 0.28828 0.84988 0.0
C140 C 0.73586 0.27922 0.74537 0.0
C141 C 0.75464 0.26101 0.73359 0.0
C142 C 0.74793 0.2364 0.72476 0.0
C143 C 0.76349 0.22085 0.70729 0.0
C144 C 0.78622 0.22999 0.69976 0.0
C145 C 0.79345 0.25433 0.70868 0.0
C146 C 0.77766 0.26957 0.72612 0.0
H147 H 0.75598 0.70324 0.75324 0.0
H148 H 0.69763 0.75548 0.74059 0.0
H149 H 0.70171 0.70975 0.82414 0.0
H150 H 0.74211 0.71742 0.69736 0.0
H151 H 0.72013 0.74142 0.69296 0.0
H152 H 0.7849 0.7279 0.7016 0.0
H153 H 0.80619 0.80398 0.70934 0.0
H154 H 0.73155 0.78397 0.71916 0.0
C155 C 0.73984 0.71182 0.76221 0.0
C156 C 0.73072 0.70428 0.79161 0.0
C157 C 0.72779 0.72988 0.74336 0.0
C158 C 0.70703 0.74155 0.75504 0.0
C159 C 0.69819 0.73495 0.78506 0.0
C160 C 0.70986 0.71605 0.8026 0.0
C161 C 0.73586 0.73482 0.70942 0.0
C162 C 0.75612 0.75375 0.71154 0.0
C163 C 0.78038 0.74704 0.70619 0.0
C164 C 0.79866 0.76514 0.70591 0.0
C165 C 0.79247 0.7899 0.71116 0.0
C166 C 0.76832 0.79684 0.71564 0.0
C167 C 0.75032 0.77867 0.71627 0.0
C168 C 0.0467 0.29292 0.58784 0.0
C169 C 0.06047 0.31374 0.59843 0.0
C170 C 0.05407 0.33146 0.57647 0.0
C171 C 0.03697 0.32059 0.55356 0.0
N172 N 0.03196 0.29717 0.55994 0.0
Co173 Co 0.01047 0.27445 0.53051 0.0
N174 N 0.99414 0.30206 0.50736 0.0
C175 C 0.00281 0.32508 0.50696 0.0
C176 C 0.9872 0.34018 0.48899 0.0
C177 C 0.96752 0.32566 0.47733 0.0
C178 C 0.97229 0.30249 0.48897 0.0
N179 N 0.98935 0.25187 0.50036 0.0
C180 C 0.96813 0.25648 0.48204 0.0
C181 C 0.95874 0.23517 0.4653 0.0
C182 C 0.97493 0.21678 0.47318 0.0
C183 C 0.99313 0.22773 0.4944 0.0
N184 N 0.02645 0.24676 0.55401 0.0
C185 C 0.02524 0.22293 0.54343 0.0
C186 C 0.03636 0.20767 0.5661 0.0
C187 C 0.04549 0.22285 0.59232 0.0
C188 C 0.03994 0.24675 0.58387 0.0
N189 N 0.98549 0.27598 0.5624 0.0
C190 C 0.94545 0.27919 0.60138 0.0
C191 C 0.95293 0.25648 0.58787 0.0
C192 C 0.97301 0.25526 0.56877 0.0
C193 C 0.95934 0.30006 0.59613 0.0
C194 C 0.97913 0.29808 0.57657 0.0
N195 N 0.03534 0.27304 0.49826 0.0
C196 C 0.07727 0.26798 0.48562 0.0
C197 C 0.07102 0.2725 0.45191 0.0
C198 C 0.04626 0.27721 0.44225 0.0
C199 C 0.02881 0.2769 0.46546 0.0
C200 C 0.05935 0.26868 0.5083 0.0
H201 H 0.00997 0.28003 0.45678 0.0
H202 H 0.06502 0.26565 0.53401 0.0
H203 H 0.9779 0.23761 0.55819 0.0
H204 H 0.98886 0.3146 0.57209 0.0
C205 C 0.02333 0.33251 0.52815 0.0
C206 C 0.05003 0.2689 0.6028 0.0
C207 C 0.95688 0.28084 0.47984 0.0
C208 C 0.01035 0.21529 0.51484 0.0
H209 H 0.07424 0.31585 0.61927 0.0
H210 H 0.06092 0.35012 0.57733 0.0
H211 H 0.9894 0.35962 0.48578 0.0
H212 H 0.95162 0.33136 0.46183 0.0
H213 H 0.94179 0.23289 0.44961 0.0
H214 H 0.9728 0.19745 0.46603 0.0
H215 H 0.03696 0.18781 0.56437 0.0
H216 H 0.05538 0.21688 0.61486 0.0
H217 H 0.94283 0.2398 0.59086 0.0
H218 H 0.9548 0.31796 0.60664 0.0
H219 H 0.09581 0.26362 0.49473 0.0
H220 H 0.04014 0.2814 0.41696 0.0
C221 C 0.71285 0.04789 0.57549 0.0
C222 C 0.69061 0.05648 0.58527 0.0
C223 C 0.67288 0.04153 0.5694 0.0
C224 C 0.68515 0.02478 0.55073 0.0
N225 N 0.7097 0.0281 0.55363 0.0
Co226 Co 0.73422 0.00795 0.53004 0.0
N227 N 0.70789 0.98697 0.50497 0.0
C228 C 0.68348 0.98949 0.50646 0.0
C229 C 0.6698 0.97243 0.48686 0.0
C230 C 0.68642 0.95814 0.47178 0.0
C231 C 0.70943 0.96742 0.48294 0.0
N232 N 0.75884 0.98723 0.50737 0.0
C233 C 0.7557 0.96743 0.48551 0.0
C234 C 0.77797 0.9586 0.47613 0.0
C235 C 0.79576 0.97296 0.493 0.0
C236 C 0.78348 0.98977 0.51153 0.0
N237 N 0.76055 0.02946 0.55415 0.0
C238 C 0.7849 0.02774 0.55136 0.0
C239 C 0.79855 0.04512 0.57041 0.0
C240 C 0.78196 0.05901 0.58611 0.0
C241 C 0.75898 0.04936 0.57554 0.0
N242 N 0.7364 0.98526 0.56711 0.0
C243 C 0.73981 0.95244 0.61901 0.0
C244 C 0.7607 0.96343 0.60888 0.0
C245 C 0.75861 0.97959 0.58309 0.0
C246 C 0.71712 0.9584 0.60306 0.0
C247 C 0.71583 0.9748 0.57747 0.0
N248 N 0.73207 0.03087 0.49324 0.0
C249 C 0.75236 0.05629 0.45671 0.0
C250 C 0.73084 0.06934 0.44913 0.0
C251 C 0.70948 0.06144 0.4619 0.0
C252 C 0.71046 0.04211 0.48343 0.0
C253 C 0.75258 0.03735 0.47866 0.0
H254 H 0.69363 0.03712 0.49258 0.0
H255 H 0.76975 0.02871 0.48409 0.0
H256 H 0.77528 0.987 0.5763 0.0
H257 H 0.69801 0.97859 0.56634 0.0
C258 C 0.67403 0.00698 0.52826 0.0
C259 C 0.73631 0.05968 0.5868 0.0
C260 C 0.73214 0.95658 0.47251 0.0
C261 C 0.79448 0.00896 0.53168 0.0
H262 H 0.68742 0.07223 0.60167 0.0
H263 H 0.6533 0.04309 0.57061 0.0
H264 H 0.65009 0.97028 0.48441 0.0
H265 H 0.68203 0.94242 0.45487 0.0
H266 H 0.78112 0.94349 0.45865 0.0
H267 H 0.81533 0.97152 0.49157 0.0
H268 H 0.81825 0.04729 0.57282 0.0
H269 H 0.78638 0.07445 0.60351 0.0
H270 H 0.77875 0.95905 0.62009 0.0
H271 H 0.7004 0.95041 0.61023 0.0
H272 H 0.76923 0.061 0.44641 0.0
H273 H 0.69225 0.07074 0.45654 0.0
C274 C 0.04162 0.77531 0.55161 0.0
C275 C 0.05062 0.79849 0.56215 0.0
C276 C 0.03743 0.81493 0.54363 0.0
C277 C 0.02111 0.80099 0.52303 0.0
N278 N 0.02286 0.77662 0.52748 0.0
Co279 Co 0.00293 0.74996 0.50193 0.0
N280 N 0.98165 0.77438 0.47746 0.0
C281 C 0.98343 0.7991 0.4812 0.0
C282 C 0.96456 0.81122 0.46477 0.0
C283 C 0.94945 0.79317 0.45015 0.0
C284 C 0.96026 0.77091 0.45807 0.0
N285 N 0.98389 0.72337 0.47516 0.0
C286 C 0.96361 0.72474 0.45358 0.0
C287 C 0.95673 0.70181 0.43931 0.0
C288 C 0.97275 0.6853 0.45329 0.0
C289 C 0.9886 0.69906 0.47491 0.0
N290 N 0.02299 0.72551 0.52796 0.0
C291 C 0.02072 0.70078 0.52477 0.0
C292 C 0.03659 0.68867 0.54635 0.0
C293 C 0.04971 0.70672 0.56459 0.0
C294 C 0.04105 0.72894 0.55305 0.0
N295 N 0.97914 0.75019 0.53633 0.0
C296 C 0.94449 0.75083 0.58408 0.0
C297 C 0.95007 0.72901 0.56679 0.0
C298 C 0.96754 0.72903 0.54346 0.0
C299 C 0.95654 0.7723 0.57705 0.0
C300 C 0.97349 0.77162 0.5531 0.0
N301 N 0.0269 0.74968 0.4672 0.0
C302 C 0.05775 0.72863 0.43699 0.0
C303 C 0.0618 0.74937 0.41916 0.0
C304 C 0.04791 0.77027 0.42582 0.0
C305 C 0.0308 0.77005 0.44967 0.0
C306 C 0.0404 0.72914 0.46042 0.0
H307 H 0.02102 0.78667 0.45341 0.0
H308 H 0.0385 0.7126 0.47282 0.0
H309 H 0.97141 0.71173 0.53145 0.0
H310 H 0.98171 0.78871 0.54839 0.0
C311 C 0.00235 0.81035 0.50184 0.0
C312 C 0.05139 0.75271 0.56552 0.0
C313 C 0.94923 0.74692 0.4479 0.0
C314 C 0.00521 0.68953 0.49912 0.0
H315 H 0.06505 0.80313 0.5815 0.0
H316 H 0.03911 0.83474 0.54556 0.0
H317 H 0.96161 0.83084 0.46454 0.0
H318 H 0.93213 0.79636 0.43618 0.0
H319 H 0.94113 0.69739 0.42169 0.0
H320 H 0.97207 0.66551 0.44954 0.0
H321 H 0.03884 0.66904 0.54799 0.0
H322 H 0.06438 0.70377 0.58369 0.0
H323 H 0.94132 0.71191 0.57166 0.0
H324 H 0.95261 0.78968 0.58963 0.0
H325 H 0.06822 0.71203 0.43341 0.0
H326 H 0.04998 0.78678 0.41248 0.0
C327 C 0.29321 0.96883 0.57214 0.0
C328 C 0.31572 0.96541 0.58981 0.0
C329 C 0.33044 0.98452 0.58301 0.0
C330 C 0.31612 0.99857 0.56177 0.0
N331 N 0.29333 0.98955 0.55476 0.0
Co332 Co 0.26693 0.00433 0.52514 0.0
N333 N 0.29048 0.02586 0.50461 0.0
C334 C 0.3137 0.03057 0.51721 0.0
C335 C 0.32532 0.04757 0.50019 0.0
C336 C 0.30828 0.05454 0.4757 0.0
C337 C 0.28707 0.0413 0.47901 0.0
N338 N 0.24043 0.01852 0.49497 0.0
C339 C 0.24176 0.03216 0.46788 0.0
C340 C 0.21859 0.03582 0.45206 0.0
C341 C 0.20222 0.02543 0.47091 0.0
C342 C 0.21621 0.01557 0.49673 0.0
N343 N 0.24341 0.9833 0.54621 0.0
C344 C 0.2189 0.98588 0.54391 0.0
C345 C 0.20721 0.96788 0.55906 0.0
C346 C 0.22539 0.95299 0.57175 0.0
C347 C 0.24741 0.96299 0.56412 0.0
N348 N 0.26285 0.03057 0.55926 0.0
C349 C 0.26409 0.06939 0.60754 0.0
C350 C 0.26072 0.07379 0.57364 0.0
C351 C 0.26 0.05425 0.55009 0.0
C352 C 0.26529 0.045 0.61698 0.0
C353 C 0.26463 0.02583 0.5924 0.0
N354 N 0.27127 0.97815 0.49127 0.0
C355 C 0.25434 0.94536 0.45422 0.0
C356 C 0.27751 0.93999 0.44402 0.0
C357 C 0.29754 0.95408 0.45767 0.0
C358 C 0.29407 0.9729 0.48161 0.0
C359 C 0.25157 0.96466 0.47754 0.0
H360 H 0.30988 0.98307 0.49238 0.0
H361 H 0.23344 0.96853 0.48442 0.0
H362 H 0.25788 0.05856 0.52445 0.0
H363 H 0.26631 0.00724 0.60023 0.0
C364 C 0.32429 0.01789 0.5441 0.0
C365 C 0.27172 0.95305 0.57449 0.0
C366 C 0.26329 0.04662 0.46079 0.0
C367 C 0.20741 1.00129 0.52084 0.0
H368 H 0.32091 0.95074 0.60607 0.0
H369 H 0.34952 0.98735 0.59164 0.0
H370 H 0.34389 0.05434 0.50525 0.0
H371 H 0.31101 0.06853 0.45835 0.0
H372 H 0.21396 0.0463 0.43031 0.0
H373 H 0.18248 0.02503 0.46624 0.0
H374 H 0.18768 0.96483 0.55873 0.0
H375 H 0.22243 0.93631 0.5842 0.0
H376 H 0.25895 0.09232 0.56524 0.0
H377 H 0.26759 0.04082 0.64302 0.0
H378 H 0.2384 0.93495 0.44382 0.0
H379 H 0.31573 0.95036 0.45026 0.0
C380 C 0.54639 0.79688 0.05448 0.0
C381 C 0.5541 0.8198 0.06789 0.0
C382 C 0.53858 0.83654 0.05346 0.0
C383 C 0.52227 0.82293 0.03232 0.0
N384 N 0.52633 0.79851 0.0325 0.0
Co385 Co 0.5066 0.77215 0.00603 0.0
N386 N 0.48666 0.79693 0.98047 0.0
C387 C 0.48938 0.8216 0.98345 0.0
C388 C 0.47354 0.83393 0.96206 0.0
C389 C 0.45993 0.81604 0.94421 0.0
C390 C 0.46827 0.79376 0.95587 0.0
N391 N 0.48597 0.74579 0.98098 0.0
C392 C 0.46667 0.74747 0.95777 0.0
C393 C 0.45682 0.72452 0.94786 0.0
C394 C 0.47022 0.70779 0.96564 0.0
C395 C 0.48742 0.72139 0.98531 0.0
N396 N 0.5277 0.74738 0.03001 0.0
C397 C 0.5258 0.72266 0.02592 0.0
C398 C 0.54386 0.71034 0.04382 0.0
C399 C 0.55848 0.72824 0.05989 0.0
C400 C 0.54831 0.75056 0.05103 0.0
N401 N 0.48297 0.77273 0.04111 0.0
C402 C 0.44619 0.77155 0.08606 0.0
C403 C 0.46137 0.7514 0.08106 0.0
C404 C 0.47937 0.75233 0.05869 0.0
C405 C 0.4502 0.7926 0.06892 0.0
C406 C 0.46873 0.79292 0.04712 0.0
N407 N 0.52987 0.77146 0.97091 0.0
C408 C 0.55053 0.749 0.9284 0.0
C409 C 0.56259 0.77022 0.92083 0.0
C410 C 0.55819 0.7921 0.93868 0.0
C411 C 0.54165 0.79238 0.96327 0.0
C412 C 0.53454 0.74994 0.95356 0.0
H413 H 0.53861 0.80972 0.97575 0.0
H414 H 0.52619 0.73302 0.95857 0.0
H415 H 0.48981 0.73606 0.05578 0.0
H416 H 0.47093 0.80969 0.03523 0.0
C417 C 0.50545 0.83263 0.00857 0.0
C418 C 0.55922 0.77424 0.06251 0.0
C419 C 0.45736 0.7702 0.94392 0.0
C420 C 0.50646 0.71166 0.00577 0.0
H421 H 0.5697 0.82399 0.08562 0.0
H422 H 0.53973 0.85633 0.05688 0.0
H423 H 0.47168 0.85358 0.96026 0.0
H424 H 0.44517 0.81908 0.92524 0.0
H425 H 0.44167 0.72027 0.92942 0.0
H426 H 0.46803 0.68803 0.96391 0.0
H427 H 0.54623 0.69068 0.04483 0.0
H428 H 0.57489 0.72518 0.07604 0.0
H429 H 0.45895 0.73461 0.09367 0.0
H430 H 0.43917 0.80884 0.07244 0.0
H431 H 0.55363 0.73165 0.91515 0.0
H432 H 0.56723 0.80895 0.93339 0.0
C433 C 0.21421 0.53529 0.05765 0.0
C434 C 0.19078 0.54121 0.06581 0.0
C435 C 0.17551 0.5232 0.051 0.0
C436 C 0.19034 0.5075 0.03438 0.0
N437 N 0.21397 0.51452 0.03774 0.0
Co438 Co 0.24128 0.49804 0.01629 0.0
N439 N 0.21822 0.47917 0.98359 0.0
C440 C 0.19408 0.47608 0.98614 0.0
C441 C 0.18276 0.46147 0.96074 0.0
C442 C 0.20094 0.45448 0.94122 0.0
C443 C 0.22248 0.4653 0.95585 0.0
N444 N 0.26875 0.48179 0.99494 0.0
C445 C 0.26877 0.46833 0.96576 0.0
C446 C 0.29233 0.46086 0.96007 0.0
C447 C 0.30736 0.46913 0.98717 0.0
C448 C 0.2923 0.48138 0.00768 0.0
N449 N 0.26418 0.51665 0.04923 0.0
C450 C 0.28785 0.51136 0.05727 0.0
C451 C 0.29895 0.52742 0.08126 0.0
C452 C 0.28112 0.54384 0.08878 0.0
C453 C 0.26013 0.53688 0.06872 0.0
N454 N 0.24054 0.47106 0.04716 0.0
C455 C 0.23939 0.4322 0.09097 0.0
C456 C 0.23794 0.45687 0.10261 0.0
C457 C 0.23848 0.47589 0.08043 0.0
C458 C 0.24135 0.42765 0.05675 0.0
C459 C 0.24198 0.44715 0.03553 0.0
N460 N 0.24202 0.52499 0.98547 0.0
C461 C 0.26438 0.55585 0.95931 0.0
C462 C 0.24302 0.56302 0.94066 0.0
C463 C 0.22112 0.55093 0.9453 0.0
C464 C 0.22095 0.53229 0.96802 0.0
C465 C 0.26354 0.53668 0.98119 0.0
H466 H 0.2037 0.52372 0.9713 0.0
H467 H 0.28042 0.53124 0.99446 0.0
H468 H 0.23731 0.49456 0.0903 0.0
H469 H 0.24353 0.4427 0.00959 0.0
C470 C 0.18226 0.4891 0.0107 0.0
C471 C 0.23642 0.54903 0.07009 0.0
C472 C 0.24683 0.45871 0.94577 0.0
C473 C 0.29996 0.49454 0.03738 0.0
H474 H 0.18516 0.55696 0.08056 0.0
H475 H 0.15579 0.5224 0.05089 0.0
H476 H 0.16357 0.45656 0.95677 0.0
H477 H 0.19862 0.44209 0.91939 0.0
H478 H 0.29786 0.44966 0.93914 0.0
H479 H 0.32695 0.4666 0.99132 0.0
H480 H 0.31798 0.52786 0.09097 0.0
H481 H 0.28333 0.55921 0.10685 0.0
H482 H 0.23675 0.46159 0.12879 0.0
H483 H 0.24208 0.40907 0.04609 0.0
H484 H 0.28175 0.56455 0.95634 0.0
H485 H 0.20414 0.55596 0.9316 0.0
C486 C 0.46828 0.25289 0.99207 0.0
C487 C 0.45988 0.27525 0.98066 0.0
C488 C 0.4782 0.29204 0.98938 0.0
C489 C 0.49657 0.2792 0.00596 0.0
N490 N 0.49098 0.25537 0.00819 0.0
Co491 Co 0.51122 0.23078 0.03283 0.0
N492 N 0.53128 0.25682 0.05894 0.0
C493 C 0.53213 0.2806 0.05139 0.0
C494 C 0.54852 0.29431 0.07215 0.0
C495 C 0.55915 0.27815 0.09379 0.0
C496 C 0.54857 0.25526 0.08508 0.0
N497 N 0.53129 0.20595 0.0572 0.0
C498 C 0.54739 0.20866 0.08466 0.0
C499 C 0.55628 0.186 0.09434 0.0
C500 C 0.54643 0.16877 0.07116 0.0
C501 C 0.53179 0.18168 0.04899 0.0
N502 N 0.49118 0.20499 0.00673 0.0
C503 C 0.4971 0.1812 1.00239 0.0
C504 C 0.47937 0.16781 0.98321 0.0
C505 C 0.46113 0.18423 0.97513 0.0
C506 C 0.46876 0.20672 0.99007 0.0
N507 N 0.53442 0.23029 0.99834 0.0
C508 C 0.56792 0.23189 0.94987 0.0
C509 C 0.54277 0.22986 0.94053 0.0
C510 C 0.52628 0.22933 0.9652 0.0
C511 C 0.57596 0.23254 0.9837 0.0
C512 C 0.55904 0.23142 0.00737 0.0
N513 N 0.48799 0.23126 0.06712 0.0
C514 C 0.46211 0.2096 0.10124 0.0
C515 C 0.4519 0.23173 0.11224 0.0
C516 C 0.46056 0.25366 0.10084 0.0
C517 C 0.47876 0.25305 0.07863 0.0
C518 C 0.47996 0.20975 0.07854 0.0
H519 H 0.48499 0.27022 0.07027 0.0
H520 H 0.48682 0.19236 0.06971 0.0
H521 H 0.50695 0.22842 0.95747 0.0
H522 H 0.56605 0.23176 0.03302 0.0
C523 C 0.51623 0.28972 0.026 0.0
C524 C 0.4548 0.22951 0.98692 0.0
C525 C 0.55837 0.23214 0.0982 0.0
C526 C 0.51638 0.17138 0.02242 0.0
H527 H 0.44225 0.27939 0.96816 0.0
H528 H 0.47746 0.31161 0.98609 0.0
H529 H 0.55246 0.31372 0.07148 0.0
H530 H 0.5738 0.28275 0.11275 0.0
H531 H 0.56955 0.18249 0.11502 0.0
H532 H 0.5495 0.14915 0.07068 0.0
H533 H 0.47907 0.14822 0.97738 0.0
H534 H 0.44407 0.1801 0.96031 0.0
H535 H 0.53591 0.22935 0.9145 0.0
H536 H 0.5953 0.23387 0.99184 0.0
H537 H 0.45579 0.19222 0.10926 0.0
H538 H 0.45328 0.27119 0.10899 0.0
C539 C 0.73937 0.54161 0.07471 0.0
C540 C 0.71625 0.54803 0.08377 0.0
C541 C 0.69964 0.53769 0.05983 0.0
C542 C 0.71335 0.52511 0.03788 0.0
N543 N 0.73759 0.5265 0.04677 0.0
Co544 Co 0.7635 0.50919 0.02326 0.0
N545 N 0.73919 0.48736 0.99656 0.0
C546 C 0.7149 0.49111 0.99216 0.0
C547 C 0.70267 0.47263 0.97319 0.0
C548 C 0.72036 0.45625 0.965 0.0
C549 C 0.74253 0.46578 0.97932 0.0
N550 N 0.78929 0.4918 0.99973 0.0
C551 C 0.78844 0.46985 0.98229 0.0
C552 C 0.81065 0.46472 0.9695 0.0
C553 C 0.82588 0.48419 0.97932 0.0
C554 C 0.81214 0.50008 0.99742 0.0
N555 N 0.78792 0.53112 0.0496 0.0
C556 C 0.81094 0.53512 0.04178 0.0
C557 C 0.82333 0.5524 0.06263 0.0
C558 C 0.80704 0.56009 0.08473 0.0
C559 C 0.78548 0.5469 0.07627 0.0
N560 N 0.76685 0.48534 0.05781 0.0
C561 C 0.77241 0.44739 0.10215 0.0
C562 C 0.79268 0.46095 0.09428 0.0
C563 C 0.78955 0.47956 0.07185 0.0
C564 C 0.74913 0.4542 0.08846 0.0
C565 C 0.74675 0.47338 0.06677 0.0
N566 N 0.76032 0.53302 0.98851 0.0
C567 C 0.76028 0.57496 0.97281 0.0
C568 C 0.75956 0.56745 0.93893 0.0
C569 C 0.75862 0.54211 0.93061 0.0
C570 C 0.75939 0.5253 0.95567 0.0
C571 C 0.76009 0.55758 0.99694 0.0
H572 H 0.75946 0.50602 0.94839 0.0
H573 H 0.7603 0.56417 0.02254 0.0
H574 H 0.80562 0.48885 0.06524 0.0
H575 H 0.72866 0.47793 0.05641 0.0
C576 C 0.704 0.50917 0.01161 0.0
C577 C 0.76233 0.55234 0.09113 0.0
C578 C 0.76645 0.45452 0.97509 0.0
C579 C 0.82098 0.52068 0.01679 0.0
H580 H 0.71176 0.55933 0.10516 0.0
H581 H 0.67989 0.53863 0.05912 0.0
H582 H 0.68309 0.47061 0.96751 0.0
H583 H 0.71717 0.43916 0.95047 0.0
H584 H 0.81526 0.4487 0.9544 0.0
H585 H 0.84491 0.48611 0.97473 0.0
H586 H 0.842 0.55864 0.06195 0.0
H587 H 0.81052 0.57445 0.10403 0.0
H588 H 0.811 0.45699 0.10483 0.0
H589 H 0.73284 0.44429 0.09332 0.0
H590 H 0.76146 0.59413 0.98108 0.0
H591 H 0.7573 0.53509 0.90496 0.0
H592 H 0.20607 0.26442 0.39242 0.0
H593 H 0.17228 0.24575 0.29307 0.0
H594 H 0.13195 0.25658 0.31159 0.0
H595 H 0.1635 0.23781 0.43446 0.0
H596 H 0.16311 0.26042 0.46856 0.0
H597 H 0.19007 0.25674 0.44653 0.0
H598 H 0.18914 0.3027 0.43327 0.0
H599 H 0.16246 0.30676 0.45602 0.0
H600 H 0.16163 0.31552 0.41345 0.0
H601 H 0.09504 0.25974 0.34337 0.0
H602 H 0.06438 0.26124 0.38393 0.0
H603 H 0.12134 0.28122 0.46273 0.0
C604 C 0.1903 0.26358 0.37425 0.0
C605 C 0.19248 0.25438 0.34117 0.0
C606 C 0.1713 0.25323 0.31829 0.0
C607 C 0.14819 0.25912 0.3287 0.0
C608 C 0.14651 0.26657 0.36195 0.0
C609 C 0.16706 0.26952 0.38422 0.0
C610 C 0.15997 0.2758 0.41919 0.0
C611 C 0.16974 0.25654 0.4436 0.0
C612 C 0.16882 0.30174 0.43118 0.0
C613 C 0.13227 0.27468 0.41333 0.0
C614 C 0.12493 0.26941 0.38014 0.0
C615 C 0.1005 0.26483 0.36924 0.0
C616 C 0.08308 0.2659 0.39272 0.0
C617 C 0.08992 0.27189 0.42699 0.0
C618 C 0.11504 0.27653 0.43705 0.0
H619 H 0.7901 0.19055 0.3899 0.0
H620 H 0.72406 0.20116 0.32467 0.0
H621 H 0.70593 0.16403 0.34567 0.0
H622 H 0.79222 0.12693 0.38117 0.0
H623 H 0.80284 0.12247 0.424 0.0
H624 H 0.80998 0.15052 0.40519 0.0
H625 H 0.79027 0.17596 0.45178 0.0
H626 H 0.7834 0.14799 0.47107 0.0
H627 H 0.75927 0.16932 0.46018 0.0
H628 H 0.69634 0.12389 0.37181 0.0
H629 H 0.69543 0.08578 0.40249 0.0
H630 H 0.76699 0.10409 0.45239 0.0
C631 C 0.77154 0.18562 0.38062 0.0
C632 C 0.75847 0.19895 0.35574 0.0
C633 C 0.73452 0.19117 0.34358 0.0
C634 C 0.72403 0.17018 0.35545 0.0
C635 C 0.73766 0.15732 0.37966 0.0
C636 C 0.76078 0.16498 0.39235 0.0
C637 C 0.77198 0.14782 0.41764 0.0
C638 C 0.79565 0.13626 0.4063 0.0
C639 C 0.77648 0.16106 0.45222 0.0
C640 C 0.75172 0.12901 0.41687 0.0
C641 C 0.73204 0.1347 0.39488 0.0
C642 C 0.71155 0.11942 0.38938 0.0
C643 C 0.71117 0.09785 0.407 0.0
C644 C 0.73117 0.09182 0.42981 0.0
C645 C 0.75156 0.10782 0.43475 0.0
H646 H 0.82828 0.77897 0.33281 0.0
H647 H 0.78822 0.73206 0.39267 0.0
H648 H 0.82708 0.72024 0.42368 0.0
H649 H 0.88222 0.7376 0.3284 0.0
H650 H 0.90339 0.76301 0.33009 0.0
H651 H 0.87261 0.76628 0.31121 0.0
H652 H 0.86666 0.80423 0.35092 0.0
H653 H 0.89725 0.80088 0.37022 0.0
H654 H 0.87164 0.80131 0.39532 0.0
H655 H 0.8694 0.71828 0.45301 0.0
H656 H 0.91304 0.72218 0.47421 0.0
H657 H 0.92655 0.76621 0.39115 0.0
C658 C 0.82788 0.76575 0.3519 0.0
C659 C 0.80544 0.75619 0.36032 0.0
C660 C 0.80536 0.73923 0.38569 0.0
C661 C 0.82729 0.73254 0.40347 0.0
C662 C 0.84913 0.74263 0.39507 0.0
C663 C 0.84969 0.75842 0.36937 0.0
C664 C 0.8756 0.76691 0.36573 0.0
C665 C 0.88394 0.75791 0.33184 0.0
C666 C 0.87791 0.795 0.37086 0.0
C667 C 0.8894 0.75408 0.39405 0.0
C668 C 0.87376 0.74033 0.41085 0.0
C669 C 0.8819 0.72855 0.43962 0.0
C670 C 0.90666 0.73088 0.4515 0.0
C671 C 0.92305 0.74461 0.43444 0.0
C672 C 0.91434 0.75586 0.40493 0.0
H673 H 0.24702 0.80911 0.35822 0.0
H674 H 0.26103 0.84096 0.26502 0.0
H675 H 0.28004 0.87676 0.29632 0.0
H676 H 0.22458 0.86249 0.39157 0.0
H677 H 0.23607 0.8579 0.43405 0.0
H678 H 0.22971 0.83187 0.40551 0.0
H679 H 0.2742 0.81659 0.41763 0.0
H680 H 0.2807 0.84263 0.44637 0.0
H681 H 0.29945 0.83678 0.41235 0.0
H682 H 0.29226 0.91186 0.33684 0.0
H683 H 0.29362 0.94402 0.38262 0.0
H684 H 0.26664 0.89161 0.44797 0.0
C685 C 0.25427 0.82338 0.34417 0.0
C686 C 0.25246 0.82182 0.30889 0.0
C687 C 0.26263 0.84105 0.29194 0.0
C688 C 0.27341 0.86169 0.30956 0.0
C689 C 0.27373 0.86309 0.34415 0.0
C690 C 0.26432 0.84446 0.36127 0.0
C691 C 0.26328 0.85196 0.39776 0.0
C692 C 0.23685 0.85101 0.40778 0.0
C693 C 0.28044 0.83604 0.41983 0.0
C694 C 0.27266 0.87807 0.39822 0.0
C695 C 0.27934 0.88391 0.36731 0.0
C696 C 0.2874 0.9074 0.36125 0.0
C697 C 0.28814 0.92552 0.38729 0.0
C698 C 0.28032 0.92008 0.41857 0.0
C699 C 0.27289 0.89602 0.42423 0.0
H700 H 0.18992 0.78322 0.63093 0.0
H701 H 0.1747 0.75879 0.72766 0.0
H702 H 0.13174 0.74975 0.70577 0.0
H703 H 0.13179 0.81217 0.61023 0.0
H704 H 0.13079 0.80241 0.56679 0.0
H705 H 0.15983 0.80749 0.59065 0.0
H706 H 0.17302 0.76323 0.57407 0.0
H707 H 0.14398 0.75797 0.55032 0.0
H708 H 0.1541 0.73766 0.58259 0.0
H709 H 0.09 0.74396 0.67261 0.0
H710 H 0.05384 0.7409 0.63093 0.0
H711 H 0.09762 0.76759 0.556 0.0
C712 C 0.17746 0.77634 0.64771 0.0
C713 C 0.18551 0.77206 0.68117 0.0
C714 C 0.16884 0.76232 0.70201 0.0
C715 C 0.14445 0.75718 0.68979 0.0
C716 C 0.13714 0.76164 0.6566 0.0
C717 C 0.15326 0.77092 0.63587 0.0
C718 C 0.14124 0.77349 0.60099 0.0
C719 C 0.14089 0.80049 0.59163 0.0
C720 C 0.15384 0.7571 0.5755 0.0
C721 C 0.11577 0.76426 0.60519 0.0
C722 C 0.11364 0.75762 0.63746 0.0
C723 C 0.09155 0.749 0.64728 0.0
C724 C 0.07117 0.74726 0.62354 0.0
C725 C 0.07314 0.75391 0.59043 0.0
C726 C 0.09575 0.76234 0.5812 0.0
H727 H 0.22216 0.15771 0.75438 0.0
H728 H 0.26726 0.21403 0.71849 0.0
H729 H 0.28513 0.18299 0.68071 0.0
H730 H 0.26612 0.10532 0.7472 0.0
H731 H 0.2418 0.08404 0.73305 0.0
H732 H 0.23607 0.10962 0.76133 0.0
H733 H 0.20045 0.12348 0.72008 0.0
H734 H 0.20615 0.09813 0.69162 0.0
H735 H 0.20626 0.12906 0.6778 0.0
H736 H 0.29395 0.14735 0.64246 0.0
H737 H 0.29282 0.10992 0.60538 0.0
H738 H 0.24093 0.07668 0.66496 0.0
C739 C 0.23648 0.16318 0.7394 0.0
C740 C 0.24396 0.18793 0.73969 0.0
C741 C 0.26187 0.19495 0.71892 0.0
C742 C 0.27203 0.17747 0.69749 0.0
C743 C 0.26392 0.15318 0.69719 0.0
C744 C 0.24659 0.146 0.71769 0.0
C745 C 0.23893 0.11948 0.70988 0.0
C746 C 0.24617 0.10368 0.73964 0.0
C747 C 0.21132 0.11744 0.6992 0.0
C748 C 0.25403 0.11306 0.68104 0.0
C749 C 0.26859 0.13266 0.6745 0.0
C750 C 0.28289 0.13179 0.64763 0.0
C751 C 0.28201 0.11052 0.62661 0.0
C752 C 0.26678 0.09044 0.63234 0.0
C753 C 0.25303 0.09158 0.66035 0.0
H754 H 0.83839 0.2318 0.7055 0.0
H755 H 0.7997 0.29912 0.6824 0.0
H756 H 0.83546 0.31394 0.65616 0.0
H757 H 0.90004 0.25917 0.72138 0.0
H758 H 0.9145 0.23316 0.70204 0.0
H759 H 0.88686 0.22894 0.72217 0.0
H760 H 0.86624 0.20814 0.66767 0.0
H761 H 0.89372 0.21243 0.64732 0.0
H762 H 0.86505 0.22429 0.62966 0.0
H763 H 0.87368 0.31972 0.62738 0.0
H764 H 0.91201 0.31677 0.60007 0.0
H765 H 0.92656 0.24598 0.64245 0.0
C766 C 0.83751 0.24979 0.69528 0.0
C767 C 0.81617 0.26434 0.69635 0.0
C768 C 0.81591 0.28779 0.68264 0.0
C769 C 0.83611 0.29632 0.6674 0.0
C770 C 0.85657 0.28127 0.66613 0.0
C771 C 0.85752 0.25859 0.67994 0.0
C772 C 0.88125 0.24553 0.67378 0.0
C773 C 0.89657 0.24147 0.70681 0.0
C774 C 0.87626 0.22116 0.65339 0.0
C775 C 0.89325 0.26419 0.65371 0.0
C776 C 0.87875 0.28472 0.64974 0.0
C777 C 0.88539 0.30392 0.63084 0.0
C778 C 0.90738 0.30212 0.61558 0.0
C779 C 0.9227 0.28127 0.61927 0.0
C780 C 0.91541 0.26217 0.63888 0.0
H781 H 0.73232 0.81669 0.67506 0.0
H782 H 0.79045 0.83587 0.75175 0.0
H783 H 0.78435 0.87985 0.74128 0.0
H784 H 0.74957 0.85542 0.61931 0.0
H785 H 0.71942 0.86376 0.60219 0.0
H786 H 0.72407 0.83476 0.62091 0.0
H787 H 0.69101 0.84544 0.66134 0.0
H788 H 0.68603 0.8745 0.64245 0.0
H789 H 0.69353 0.87361 0.68678 0.0
H790 H 0.77701 0.9203 0.71593 0.0
H791 H 0.76906 0.95404 0.67785 0.0
H792 H 0.71635 0.90815 0.6168 0.0
C793 C 0.74295 0.83025 0.6907 0.0
C794 C 0.76156 0.82305 0.71458 0.0
C795 C 0.77592 0.84116 0.73359 0.0
C796 C 0.77251 0.86613 0.72788 0.0
C797 C 0.75462 0.87261 0.70316 0.0
C798 C 0.73992 0.85518 0.68506 0.0
C799 C 0.72448 0.86643 0.65683 0.0
C800 C 0.72972 0.85438 0.62283 0.0
C801 C 0.69714 0.86491 0.66219 0.0
C802 C 0.73364 0.89265 0.66083 0.0
C803 C 0.75065 0.89599 0.6881 0.0
C804 C 0.76336 0.91805 0.69494 0.0
C805 C 0.75887 0.93703 0.67304 0.0
C806 C 0.74199 0.93373 0.6445 0.0
C807 C 0.72887 0.91143 0.63888 0.0
H808 H 0.81218 0.73884 0.65066 0.0
H809 H 0.84164 0.7795 0.74033 0.0
H810 H 0.88308 0.77679 0.72095 0.0
H811 H 0.86697 0.69845 0.64078 0.0
H812 H 0.86362 0.69984 0.59606 0.0
H813 H 0.83699 0.70163 0.61927 0.0
H814 H 0.82504 0.74264 0.59261 0.0
H815 H 0.85172 0.74115 0.56968 0.0
H816 H 0.84668 0.76774 0.59655 0.0
H817 H 0.9199 0.77485 0.68877 0.0
H818 H 0.95037 0.77166 0.64717 0.0
H819 H 0.89771 0.7318 0.57811 0.0
C820 C 0.82754 0.7463 0.66673 0.0
C821 C 0.82381 0.7591 0.69722 0.0
C822 C 0.84419 0.76944 0.71706 0.0
C823 C 0.86777 0.768 0.70623 0.0
C824 C 0.87074 0.75606 0.67551 0.0
C825 C 0.85127 0.7451 0.65616 0.0
C826 C 0.85917 0.73519 0.62293 0.0
C827 C 0.85653 0.7071 0.61957 0.0
C828 C 0.8448 0.74742 0.59373 0.0
C829 C 0.8859 0.74293 0.62626 0.0
C830 C 0.8922 0.75481 0.65689 0.0
C831 C 0.91532 0.7652 0.66494 0.0
C832 C 0.93245 0.76345 0.6411 0.0
C833 C 0.92646 0.75135 0.60956 0.0
C834 C 0.90293 0.74073 0.60227 0.0
H835 H 0.23782 0.84993 0.69783 0.0
H836 H 0.28453 0.79978 0.64613 0.0
H837 H 0.2978 0.83383 0.61343 0.0
H838 H 0.21714 0.88349 0.63006 0.0
H839 H 0.21726 0.91299 0.65231 0.0
H840 H 0.2134 0.88544 0.67407 0.0
H841 H 0.25056 0.89742 0.71588 0.0
H842 H 0.25434 0.92523 0.69452 0.0
H843 H 0.27955 0.90424 0.70048 0.0
H844 H 0.30141 0.87253 0.5808 0.0
H845 H 0.29804 0.91303 0.55537 0.0
H846 H 0.25207 0.9389 0.63167 0.0
C847 C 0.25135 0.84628 0.68025 0.0
C848 C 0.26031 0.82217 0.67479 0.0
C849 C 0.27775 0.81811 0.65122 0.0
C850 C 0.28524 0.83735 0.63233 0.0
C851 C 0.2755 0.86073 0.63763 0.0
C852 C 0.25932 0.86536 0.66159 0.0
C853 C 0.25096 0.89192 0.6618 0.0
C854 C 0.22304 0.89354 0.6541 0.0
C855 C 0.25936 0.90551 0.69515 0.0
C856 C 0.26434 0.90136 0.6336 0.0
C857 C 0.27832 0.88309 0.61982 0.0
C858 C 0.29082 0.88703 0.59182 0.0
C859 C 0.2888 0.91007 0.57749 0.0
C860 C 0.27448 0.929 0.59113 0.0
C861 C 0.26275 0.92466 0.62019 0.0
H862 H 0.17175 0.21766 0.69543 0.0
H863 H 0.1631 0.27099 0.77771 0.0
H864 H 0.12448 0.28421 0.74887 0.0
H865 H 0.15257 0.26036 0.63244 0.0
H866 H 0.13887 0.23634 0.60455 0.0
H867 H 0.16475 0.22967 0.63326 0.0
H868 H 0.13972 0.19513 0.65656 0.0
H869 H 0.11359 0.202 0.6284 0.0
H870 H 0.11078 0.20236 0.67258 0.0
H871 H 0.08442 0.28966 0.71136 0.0
H872 H 0.05134 0.29149 0.66534 0.0
H873 H 0.09227 0.24176 0.60427 0.0
C874 C 0.16261 0.23259 0.70768 0.0
C875 C 0.17121 0.24278 0.73972 0.0
C876 C 0.15717 0.26189 0.75399 0.0
C877 C 0.13508 0.26985 0.73755 0.0
C878 C 0.12744 0.25923 0.70623 0.0
C879 C 0.14126 0.24153 0.69111 0.0
C880 C 0.13021 0.23418 0.65631 0.0
C881 C 0.14764 0.24053 0.6301 0.0
C882 C 0.12317 0.2068 0.65332 0.0
C883 C 0.10776 0.25026 0.65432 0.0
C884 C 0.10605 0.26417 0.6836 0.0
C885 C 0.08585 0.27913 0.68817 0.0
C886 C 0.06714 0.28002 0.66201 0.0
C887 C 0.06908 0.26655 0.63141 0.0
C888 C 0.08993 0.25185 0.62757 0.0
H889 H 0.76703 0.19961 0.64473 0.0
H890 H 0.74216 0.185 0.74094 0.0
H891 H 0.73147 0.14237 0.72042 0.0
H892 H 0.72055 0.16337 0.59467 0.0
H893 H 0.74126 0.15298 0.56469 0.0
H894 H 0.74613 0.18234 0.5868 0.0
H895 H 0.7901 0.16933 0.60735 0.0
H896 H 0.78532 0.13992 0.58538 0.0
H897 H 0.79456 0.14152 0.62943 0.0
H898 H 0.72601 0.10027 0.6899 0.0
H899 H 0.72401 0.06336 0.65117 0.0
H900 H 0.75114 0.10621 0.57461 0.0
C901 C 0.75935 0.18746 0.66155 0.0
C902 C 0.75561 0.19561 0.69461 0.0
C903 C 0.74511 0.17921 0.71553 0.0
C904 C 0.73909 0.15495 0.70411 0.0
C905 C 0.74342 0.14742 0.67154 0.0
C906 C 0.75309 0.16332 0.65049 0.0
C907 C 0.75608 0.1508 0.61666 0.0
C908 C 0.74004 0.16311 0.58908 0.0
C909 C 0.78312 0.15037 0.60929 0.0
C910 C 0.74682 0.12525 0.62198 0.0
C911 C 0.73967 0.12359 0.65383 0.0
C912 C 0.73131 0.10149 0.66482 0.0
C913 C 0.73021 0.08065 0.64273 0.0
C914 C 0.73721 0.08206 0.60993 0.0
C915 C 0.74553 0.10471 0.59951 0.0
H916 H 0.85085 0.25406 0.3356 0.0
H917 H 0.7993 0.27656 0.40661 0.0
H918 H 0.8336 0.2911 0.44666 0.0
H919 H 0.89347 0.22979 0.39186 0.0
H920 H 0.9202 0.23955 0.37301 0.0
H921 H 0.89172 0.23472 0.34785 0.0
H922 H 0.8934 0.27914 0.32813 0.0
H923 H 0.92211 0.28404 0.35298 0.0
H924 H 0.89685 0.30453 0.35857 0.0
H925 H 0.87359 0.29768 0.48174 0.0
H926 H 0.91616 0.29666 0.5082 0.0
H927 H 0.94162 0.27103 0.41404 0.0
C928 C 0.84674 0.26293 0.35905 0.0
C929 C 0.8224 0.26441 0.36788 0.0
C930 C 0.81782 0.27533 0.39933 0.0
C931 C 0.83718 0.28369 0.42218 0.0
C932 C 0.86104 0.28118 0.41316 0.0
C933 C 0.86587 0.27132 0.38218 0.0
C934 C 0.89316 0.26859 0.37974 0.0
C935 C 0.90002 0.24156 0.37271 0.0
C936 C 0.90189 0.28506 0.35328 0.0
C937 C 0.90288 0.27766 0.4145 0.0
C938 C 0.88409 0.28507 0.43335 0.0
C939 C 0.88846 0.29234 0.46704 0.0
C940 C 0.9126 0.29168 0.48188 0.0
C941 C 0.93189 0.28364 0.4631 0.0
C942 C 0.92704 0.27722 0.42883 0.0
H943 H 0.76153 0.81917 0.40919 0.0
H944 H 0.72654 0.83536 0.31218 0.0
H945 H 0.71666 0.87714 0.33416 0.0
H946 H 0.71885 0.85232 0.45813 0.0
H947 H 0.7422 0.86271 0.48998 0.0
H948 H 0.74591 0.83413 0.46663 0.0
H949 H 0.78751 0.8494 0.44949 0.0
H950 H 0.78391 0.87803 0.47274 0.0
H951 H 0.78888 0.878 0.42917 0.0
H952 H 0.71276 0.9183 0.36664 0.0
H953 H 0.71335 0.95408 0.40722 0.0
H954 H 0.74961 0.91016 0.48317 0.0
C955 C 0.75185 0.83151 0.39247 0.0
C956 C 0.74499 0.82402 0.35879 0.0
C957 C 0.73191 0.84063 0.33803 0.0
C958 C 0.72632 0.86442 0.3503 0.0
C959 C 0.73367 0.87128 0.38352 0.0
C960 C 0.74597 0.85517 0.40436 0.0
C961 C 0.75187 0.86689 0.43905 0.0
C962 C 0.73893 0.85319 0.46497 0.0
C963 C 0.77969 0.86815 0.44813 0.0
C964 C 0.74121 0.89225 0.43451 0.0
C965 C 0.73085 0.8945 0.40229 0.0
C966 C 0.7206 0.91659 0.39198 0.0
C967 C 0.72098 0.9368 0.41514 0.0
C968 C 0.73134 0.93478 0.44829 0.0
C969 C 0.74145 0.91213 0.45802 0.0
H970 H 0.17084 0.80315 0.32474 0.0
H971 H 0.17805 0.73083 0.27653 0.0
H972 H 0.14204 0.71664 0.30322 0.0
H973 H 0.15673 0.78177 0.40264 0.0
H974 H 0.13576 0.80634 0.4107 0.0
H975 H 0.1606 0.81125 0.38544 0.0
H976 H 0.12976 0.82489 0.33756 0.0
H977 H 0.10479 0.81996 0.36266 0.0
H978 H 0.10484 0.80473 0.32197 0.0
H979 H 0.10599 0.70998 0.33741 0.0
H980 H 0.07375 0.71112 0.37634 0.0
H981 H 0.09249 0.78704 0.40522 0.0
C982 C 0.16507 0.78424 0.31981 0.0
C983 C 0.17756 0.7681 0.2985 0.0
C984 C 0.16875 0.7437 0.29234 0.0
C985 C 0.14836 0.73542 0.30758 0.0
C986 C 0.13692 0.75171 0.32899 0.0
C987 C 0.14502 0.77562 0.3351 0.0
C988 C 0.13034 0.78921 0.36028 0.0
C989 C 0.14684 0.79763 0.39162 0.0
C990 C 0.11662 0.81098 0.34467 0.0
C991 C 0.11277 0.76918 0.36767 0.0
C992 C 0.11671 0.74774 0.34919 0.0
C993 C 0.10284 0.72667 0.35205 0.0
C994 C 0.08464 0.72746 0.37451 0.0
C995 C 0.0805 0.74912 0.39423 0.0
C996 C 0.0948 0.77026 0.39037 0.0
H997 H 0.26978 0.16164 0.34036 0.0
H998 H 0.20569 0.18779 0.38797 0.0
H999 H 0.20958 0.15454 0.42524 0.0
H1000 H 0.24884 0.09769 0.34051 0.0
H1001 H 0.27919 0.08508 0.34644 0.0
H1002 H 0.2743 0.11318 0.32517 0.0
H1003 H 0.30667 0.13499 0.36709 0.0
H1004 H 0.31146 0.107 0.38868 0.0
H1005 H 0.30318 0.13474 0.41109 0.0
H1006 H 0.22118 0.12092 0.461 0.0
H1007 H 0.2332 0.08166 0.48432 0.0
H1008 H 0.28314 0.06899 0.40751 0.0
C1009 C 0.25659 0.16058 0.35864 0.0
C1010 C 0.23865 0.17927 0.36231 0.0
C1011 C 0.22122 0.17582 0.38593 0.0
C1012 C 0.22287 0.15641 0.40721 0.0
C1013 C 0.24118 0.13923 0.4039 0.0
C1014 C 0.25714 0.14031 0.37943 0.0
C1015 C 0.273 0.11724 0.37926 0.0
C1016 C 0.26856 0.10242 0.34586 0.0
C1017 C 0.3002 0.1239 0.38699 0.0
C1018 C 0.26341 0.1035 0.40764 0.0
C1019 C 0.24555 0.11715 0.42188 0.0
C1020 C 0.2347 0.10968 0.44958 0.0
C1021 C 0.24167 0.08724 0.46265 0.0
C1022 C 0.25867 0.07174 0.44741 0.0
C1023 C 0.26995 0.08023 0.41963 0.0
H1024 H 0.69195 0.75142 0.84887 0.0
H1025 H 0.65369 0.74252 0.7503 0.0
H1026 H 0.61488 0.75435 0.77376 0.0
H1027 H 0.64757 0.72507 0.89147 0.0
H1028 H 0.65161 0.74554 0.92805 0.0
H1029 H 0.67672 0.73983 0.90294 0.0
H1030 H 0.68122 0.78649 0.89556 0.0
H1031 H 0.65623 0.7924 0.92096 0.0
H1032 H 0.65509 0.80373 0.87965 0.0
H1033 H 0.57946 0.76128 0.80948 0.0
H1034 H 0.55094 0.76587 0.85382 0.0
H1035 H 0.61251 0.77125 0.92874 0.0
C1036 C 0.67549 0.75252 0.8321 0.0
C1037 C 0.67583 0.74615 0.79772 0.0
C1038 C 0.65391 0.74767 0.7766 0.0
C1039 C 0.63178 0.75423 0.78977 0.0
C1040 C 0.63195 0.75954 0.82402 0.0
C1041 C 0.65335 0.75914 0.84481 0.0
C1042 C 0.64851 0.76414 0.88094 0.0
C1043 C 0.65658 0.74235 0.90207 0.0
C1044 C 0.661 0.78812 0.8951 0.0
C1045 C 0.62093 0.7667 0.87746 0.0
C1046 C 0.61169 0.76407 0.84442 0.0
C1047 C 0.58654 0.7639 0.83531 0.0
C1048 C 0.5705 0.76645 0.86055 0.0
C1049 C 0.57967 0.7693 0.8944 0.0
C1050 C 0.60517 0.76964 0.9029 0.0
H1051 H 0.27497 0.69364 0.87155 0.0
H1052 H 0.24795 0.66439 0.77283 0.0
H1053 H 0.23555 0.62644 0.79734 0.0
H1054 H 0.30262 0.63767 0.89676 0.0
H1055 H 0.29601 0.64212 0.93962 0.0
H1056 H 0.30001 0.66828 0.9151 0.0
H1057 H 0.25742 0.68452 0.92837 0.0
H1058 H 0.25329 0.65841 0.95298 0.0
H1059 H 0.23089 0.66501 0.91921 0.0
H1060 H 0.22704 0.59053 0.83272 0.0
H1061 H 0.22531 0.55946 0.87515 0.0
H1062 H 0.26218 0.61005 0.94946 0.0
C1063 C 0.2666 0.67936 0.85473 0.0
C1064 C 0.26251 0.68259 0.81987 0.0
C1065 C 0.25091 0.66316 0.79955 0.0
C1066 C 0.24396 0.64123 0.81326 0.0
C1067 C 0.24892 0.63859 0.84742 0.0
C1068 C 0.26014 0.6571 0.86784 0.0
C1069 C 0.26495 0.64909 0.90338 0.0
C1070 C 0.29254 0.6493 0.91435 0.0
C1071 C 0.25079 0.66522 0.9274 0.0
C1072 C 0.25482 0.62307 0.89978 0.0
C1073 C 0.24529 0.61751 0.86739 0.0
C1074 C 0.23452 0.59473 0.85809 0.0
C1075 C 0.23357 0.57719 0.88239 0.0
C1076 C 0.24368 0.58225 0.91558 0.0
C1077 C 0.25447 0.60556 0.92424 0.0
H1078 H 0.33505 0.25953 0.86842 0.0
H1079 H 0.29269 0.22087 0.93519 0.0
H1080 H 0.33096 0.20958 0.96812 0.0
H1081 H 0.38683 0.21577 0.87039 0.0
H1082 H 0.40906 0.23988 0.86844 0.0
H1083 H 0.37844 0.24321 0.8491 0.0
H1084 H 0.37422 0.28423 0.88336 0.0
H1085 H 0.40466 0.28085 0.90318 0.0
H1086 H 0.37914 0.28469 0.92817 0.0
H1087 H 0.37374 0.20679 0.99732 0.0
H1088 H 0.41784 0.20916 0.01712 0.0
H1089 H 0.43242 0.24638 0.92852 0.0
C1090 C 0.33393 0.24825 0.88959 0.0
C1091 C 0.31099 0.24092 0.89925 0.0
C1092 C 0.31013 0.22635 0.92718 0.0
C1093 C 0.33175 0.22 0.94611 0.0
C1094 C 0.35408 0.22801 0.93638 0.0
C1095 C 0.35533 0.24139 0.90836 0.0
C1096 C 0.38156 0.24809 0.90352 0.0
C1097 C 0.38944 0.23601 0.87093 0.0
C1098 C 0.38509 0.27613 0.90463 0.0
C1099 C 0.39482 0.23699 0.93366 0.0
C1100 C 0.37867 0.22561 0.95246 0.0
C1101 C 0.38656 0.21537 0.98254 0.0
C1102 C 0.41156 0.21684 0.99364 0.0
C1103 C 0.42835 0.22839 0.9747 0.0
C1104 C 0.41988 0.23804 0.94396 0.0
H1105 H 0.74048 0.35144 0.82768 0.0
H1106 H 0.77005 0.29845 0.89669 0.0
H1107 H 0.78238 0.33219 0.93813 0.0
H1108 H 0.78595 0.40177 0.8526 0.0
H1109 H 0.76287 0.42519 0.84823 0.0
H1110 H 0.75993 0.39725 0.82234 0.0
H1111 H 0.71708 0.38989 0.84241 0.0
H1112 H 0.72002 0.41756 0.8687 0.0
H1113 H 0.7139 0.38873 0.8864 0.0
H1114 H 0.78735 0.37135 0.97432 0.0
H1115 H 0.78522 0.41295 1.00179 0.0
H1116 H 0.75203 0.44061 0.90975 0.0
C1117 C 0.75044 0.34709 0.85102 0.0
C1118 C 0.75489 0.3224 0.85875 0.0
C1119 C 0.76696 0.31728 0.89011 0.0
C1120 C 0.77393 0.33633 0.9138 0.0
C1121 C 0.76861 0.36046 0.90587 0.0
C1122 C 0.7573 0.36593 0.87511 0.0
C1123 C 0.75173 0.39317 0.87392 0.0
C1124 C 0.76598 0.40505 0.84772 0.0
C1125 C 0.72404 0.39758 0.86748 0.0
C1126 C 0.76117 0.40206 0.90895 0.0
C1127 C 0.77102 0.38294 0.92692 0.0
C1128 C 0.77989 0.38647 0.96035 0.0
C1129 C 0.77857 0.41007 0.97579 0.0
C1130 C 0.76825 0.42976 0.95796 0.0
C1131 C 0.75983 0.42574 0.92397 0.0
H1132 H 0.67519 0.27405 0.2226 0.0
H1133 H 0.71889 0.2286 0.1597 0.0
H1134 H 0.68137 0.21458 0.12553 0.0
H1135 H 0.62341 0.22981 0.2202 0.0
H1136 H 0.6007 0.2537 0.22005 0.0
H1137 H 0.63088 0.25942 0.24046 0.0
H1138 H 0.63543 0.29701 0.20467 0.0
H1139 H 0.60538 0.29128 0.18396 0.0
H1140 H 0.63143 0.29302 0.15988 0.0
H1141 H 0.6404 0.21006 0.09417 0.0
H1142 H 0.5973 0.21043 0.07131 0.0
H1143 H 0.57835 0.25412 0.15807 0.0
C1144 C 0.67666 0.26079 0.20198 0.0
C1145 C 0.69978 0.2522 0.19373 0.0
C1146 C 0.70125 0.23509 0.16649 0.0
C1147 C 0.68009 0.22714 0.14692 0.0
C1148 C 0.65755 0.23613 0.15536 0.0
C1149 C 0.65557 0.25215 0.18262 0.0
C1150 C 0.62899 0.2589 0.186 0.0
C1151 C 0.6205 0.24991 0.21862 0.0
C1152 C 0.62509 0.2867 0.18347 0.0
C1153 C 0.61649 0.24467 0.1559 0.0
C1154 C 0.63343 0.23193 0.13843 0.0
C1155 C 0.62685 0.21933 0.10812 0.0
C1156 C 0.60228 0.2196 0.09538 0.0
C1157 C 0.58434 0.23182 0.11326 0.0
C1158 C 0.5916 0.24432 0.14413 0.0
H1159 H 0.71524 0.68163 0.15926 0.0
H1160 H 0.7683 0.67765 0.24571 0.0
H1161 H 0.78093 0.63699 0.22423 0.0
H1162 H 0.69876 0.61982 0.14741 0.0
H1163 H 0.69785 0.61931 0.10262 0.0
H1164 H 0.69182 0.64743 0.12573 0.0
H1165 H 0.72629 0.66953 0.09863 0.0
H1166 H 0.73216 0.6416 0.075 0.0
H1167 H 0.75664 0.6567 0.10106 0.0
H1168 H 0.78591 0.59456 0.1936 0.0
H1169 H 0.78647 0.55826 0.15386 0.0
H1170 H 0.73634 0.59509 0.08388 0.0
C1171 C 0.73005 0.67302 0.17372 0.0
C1172 C 0.74053 0.68362 0.20466 0.0
C1173 C 0.75926 0.67025 0.22246 0.0
C1174 C 0.76681 0.64703 0.21028 0.0
C1175 C 0.75603 0.63747 0.17973 0.0
C1176 C 0.73847 0.65044 0.1614 0.0
C1177 C 0.73054 0.63703 0.12841 0.0
C1178 C 0.70312 0.63052 0.12592 0.0
C1179 C 0.73679 0.65212 0.09904 0.0
C1180 C 0.74616 0.61426 0.13109 0.0
C1181 C 0.7604 0.61447 0.16112 0.0
C1182 C 0.77509 0.59447 0.16983 0.0
C1183 C 0.77529 0.57393 0.14718 0.0
C1184 C 0.76134 0.57375 0.11588 0.0
C1185 C 0.74694 0.59445 0.10777 0.0
H1186 H 0.30715 0.77239 0.1313 0.0
H1187 H 0.33223 0.73578 0.22071 0.0
H1188 H 0.37524 0.74205 0.20875 0.0
H1189 H 0.34921 0.74547 0.08143 0.0
H1190 H 0.35401 0.77194 0.05774 0.0
H1191 H 0.3255 0.76816 0.07582 0.0
H1192 H 0.33117 0.81081 0.10683 0.0
H1193 H 0.35966 0.81482 0.0886 0.0
H1194 H 0.35889 0.81744 0.13321 0.0
H1195 H 0.41493 0.74793 0.18388 0.0
H1196 H 0.44873 0.75351 0.14833 0.0
H1197 H 0.39822 0.78589 0.0742 0.0
C1198 C 0.32181 0.76655 0.14888 0.0
C1199 C 0.31659 0.75416 0.17737 0.0
C1200 C 0.33604 0.74576 0.19919 0.0
C1201 C 0.36045 0.74921 0.19252 0.0
C1202 C 0.36508 0.76099 0.16381 0.0
C1203 C 0.34633 0.76968 0.1424 0.0
C1204 C 0.35621 0.77969 0.11176 0.0
C1205 C 0.3456 0.76546 0.07981 0.0
C1206 C 0.35119 0.80734 0.11001 0.0
C1207 C 0.38335 0.77475 0.11892 0.0
C1208 C 0.38806 0.76414 0.14921 0.0
C1209 C 0.41149 0.75652 0.16032 0.0
C1210 C 0.43056 0.75963 0.13988 0.0
C1211 C 0.42617 0.77024 0.10858 0.0
C1212 C 0.40225 0.77818 0.09828 0.0
H1213 H 0.2759 0.30041 0.15848 0.0
H1214 H 0.23207 0.3156 0.24144 0.0
H1215 H 0.21933 0.35521 0.2175 0.0
H1216 H 0.29882 0.36066 0.1548 0.0
H1217 H 0.29853 0.35936 0.11004 0.0
H1218 H 0.30219 0.33163 0.13231 0.0
H1219 H 0.26483 0.31229 0.09664 0.0
H1220 H 0.26107 0.33995 0.07416 0.0
H1221 H 0.23593 0.32812 0.09457 0.0
H1222 H 0.2134 0.39478 0.18478 0.0
H1223 H 0.21387 0.42896 0.1469 0.0
H1224 H 0.26388 0.38787 0.08783 0.0
C1225 C 0.2636 0.31199 0.1718 0.0
C1226 C 0.25521 0.30488 0.2022 0.0
C1227 C 0.2387 0.32049 0.21815 0.0
C1228 C 0.23149 0.3431 0.20476 0.0
C1229 C 0.24084 0.34982 0.17531 0.0
C1230 C 0.25646 0.33453 0.15901 0.0
C1231 C 0.26478 0.34605 0.12845 0.0
C1232 C 0.29273 0.34964 0.13161 0.0
C1233 C 0.25613 0.33069 0.09657 0.0
C1234 C 0.25161 0.37043 0.13005 0.0
C1235 C 0.23777 0.3723 0.15708 0.0
C1236 C 0.22422 0.39338 0.1636 0.0
C1237 C 0.22478 0.41288 0.14199 0.0
C1238 C 0.23892 0.4114 0.11409 0.0
C1239 C 0.2525 0.38971 0.10839 0.0
H1240 H 0.31977 0.26602 0.16637 0.0
H1241 H 0.33582 0.22533 0.25546 0.0
H1242 H 0.37645 0.21453 0.23663 0.0
H1243 H 0.34974 0.22676 0.11007 0.0
H1244 H 0.36093 0.25163 0.08775 0.0
H1245 H 0.33302 0.25518 0.10784 0.0
H1246 H 0.35073 0.29407 0.14096 0.0
H1247 H 0.37869 0.29071 0.12094 0.0
H1248 H 0.37961 0.29229 0.16577 0.0
H1249 H 0.41565 0.20808 0.20679 0.0
H1250 H 0.44979 0.20795 0.17033 0.0
H1251 H 0.40814 0.25545 0.10368 0.0
C1252 C 0.33186 0.25519 0.18245 0.0
C1253 C 0.32453 0.24681 0.21276 0.0
C1254 C 0.34084 0.23192 0.23212 0.0
C1255 C 0.36402 0.22579 0.22167 0.0
C1256 C 0.37066 0.23477 0.19189 0.0
C1257 C 0.35501 0.24926 0.17272 0.0
C1258 C 0.36639 0.2571 0.14207 0.0
C1259 C 0.35164 0.24706 0.11005 0.0
C1260 C 0.36901 0.28521 0.14248 0.0
C1261 C 0.39104 0.24481 0.14686 0.0
C1262 C 0.39317 0.23178 0.17552 0.0
C1263 C 0.41418 0.21836 0.18445 0.0
C1264 C 0.43343 0.21833 0.16359 0.0
C1265 C 0.43166 0.23188 0.13442 0.0
C1266 C 0.41016 0.24527 0.12612 0.0
H1267 H 0.72927 0.33968 0.21114 0.0
H1268 H 0.79727 0.30305 0.19193 0.0
H1269 H 0.81108 0.3397 0.16582 0.0
H1270 H 0.72072 0.36742 0.13509 0.0
H1271 H 0.70852 0.39584 0.15119 0.0
H1272 H 0.705 0.36804 0.17253 0.0
H1273 H 0.72591 0.38873 0.22694 0.0
H1274 H 0.72935 0.41671 0.2058 0.0
H1275 H 0.75575 0.40256 0.22662 0.0
H1276 H 0.81537 0.37742 0.13534 0.0
H1277 H 0.8108 0.41498 0.10451 0.0
H1278 H 0.741 0.42898 0.1452 0.0
C1279 C 0.74724 0.33958 0.20197 0.0
C1280 C 0.76231 0.31857 0.20409 0.0
C1281 C 0.78562 0.31908 0.19148 0.0
C1282 C 0.79361 0.33979 0.17636 0.0
C1283 C 0.77817 0.35996 0.17415 0.0
C1284 C 0.75558 0.3602 0.18686 0.0
C1285 C 0.74202 0.38378 0.17931 0.0
C1286 C 0.71763 0.37844 0.15828 0.0
C1287 C 0.73803 0.39884 0.2116 0.0
C1288 C 0.76019 0.39628 0.1594 0.0
C1289 C 0.78095 0.38225 0.15695 0.0
C1290 C 0.7995 0.38893 0.13778 0.0
C1291 C 0.79677 0.41051 0.1205 0.0
C1292 C 0.77569 0.42541 0.12263 0.0
C1293 C 0.75734 0.41816 0.14281 0.0
H1294 H 0.65717 0.74866 0.21456 0.0
H1295 H 0.71364 0.76595 0.15076 0.0
H1296 H 0.68191 0.77932 0.10795 0.0
H1297 H 0.61736 0.72187 0.15207 0.0
H1298 H 0.58957 0.73276 0.16838 0.0
H1299 H 0.61657 0.72861 0.19617 0.0
H1300 H 0.61448 0.77391 0.21836 0.0
H1301 H 0.58723 0.77815 0.19089 0.0
H1302 H 0.61327 0.79811 0.18941 0.0
H1303 H 0.64383 0.78656 0.06988 0.0
H1304 H 0.60243 0.78694 0.03963 0.0
H1305 H 0.57089 0.76359 0.12757 0.0
C1306 C 0.66285 0.75619 0.1921 0.0
C1307 C 0.68783 0.75685 0.18617 0.0
C1308 C 0.69459 0.76573 0.1559 0.0
C1309 C 0.6767 0.77331 0.1315 0.0
C1310 C 0.65213 0.77175 0.1377 0.0
C1311 C 0.6452 0.76349 0.16735 0.0
C1312 C 0.61761 0.7612 0.16657 0.0
C1313 C 0.60984 0.73453 0.17105 0.0
C1314 C 0.60756 0.7789 0.19287 0.0
C1315 C 0.61009 0.76895 0.13163 0.0
C1316 C 0.63024 0.77525 0.11549 0.0
C1317 C 0.62793 0.78195 0.08243 0.0
C1318 C 0.60445 0.78207 0.06544 0.0
C1319 C 0.58374 0.77533 0.08144 0.0
C1320 C 0.58656 0.76894 0.115 0.0
H1321 H 0.27047 0.68877 0.11966 0.0
H1322 H 0.23426 0.68144 0.20998 0.0
H1323 H 0.22275 0.6386 0.19164 0.0
H1324 H 0.22652 0.65345 0.06487 0.0
H1325 H 0.24936 0.63987 0.04028 0.0
H1326 H 0.2545 0.66986 0.06049 0.0
H1327 H 0.29523 0.65488 0.0902 0.0
H1328 H 0.29024 0.6249 0.06998 0.0
H1329 H 0.29508 0.62816 0.11475 0.0
H1330 H 0.2175 0.59581 0.16471 0.0
H1331 H 0.21708 0.55701 0.12997 0.0
H1332 H 0.25482 0.59327 0.0561 0.0
C1333 C 0.26022 0.67809 0.13565 0.0
C1334 C 0.25339 0.68826 0.16636 0.0
C1335 C 0.2396 0.67393 0.18634 0.0
C1336 C 0.23305 0.64963 0.17616 0.0
C1337 C 0.2402 0.64012 0.14577 0.0
C1338 C 0.25333 0.65399 0.12571 0.0
C1339 C 0.25872 0.63955 0.09417 0.0
C1340 C 0.24654 0.65139 0.06312 0.0
C1341 C 0.28646 0.63671 0.09218 0.0
C1342 C 0.24676 0.61528 0.0997 0.0
C1343 C 0.23626 0.61592 0.12966 0.0
C1344 C 0.22521 0.59525 0.14091 0.0
C1345 C 0.22489 0.57339 0.12098 0.0
C1346 C 0.23513 0.57257 0.08996 0.0
C1347 C 0.24628 0.59374 0.07933 0.0
H1348 H 0.31924 0.74478 0.87202 0.0
H1349 H 0.34329 0.75146 0.77313 0.0
H1350 H 0.38421 0.76415 0.79815 0.0
H1351 H 0.35627 0.79509 0.91456 0.0
H1352 H 0.36283 0.77836 0.9517 0.0
H1353 H 0.3345 0.773 0.92616 0.0
H1354 H 0.34444 0.72657 0.92087 0.0
H1355 H 0.3728 0.73182 0.94622 0.0
H1356 H 0.37292 0.71695 0.90533 0.0
H1357 H 0.42371 0.77247 0.83368 0.0
H1358 H 0.45849 0.77594 0.87742 0.0
H1359 H 0.40929 0.76208 0.95266 0.0
C1360 C 0.333 0.74914 0.85555 0.0
C1361 C 0.3278 0.74729 0.8205 0.0
C1362 C 0.34646 0.75327 0.8 0.0
C1363 C 0.36989 0.76032 0.814 0.0
C1364 C 0.3745 0.76131 0.84855 0.0
C1365 C 0.35654 0.75595 0.86907 0.0
C1366 C 0.36665 0.75668 0.9053 0.0
C1367 C 0.35433 0.777 0.92562 0.0
C1368 C 0.36405 0.73151 0.9203 0.0
C1369 C 0.3932 0.76284 0.90191 0.0
C1370 C 0.39733 0.76567 0.86899 0.0
C1371 C 0.42064 0.77053 0.85955 0.0
C1372 C 0.44023 0.77244 0.8844 0.0
C1373 C 0.43633 0.76935 0.91809 0.0
C1374 C 0.41254 0.76466 0.92697 0.0
H1375 H 0.27263 0.31577 0.92504 0.0
H1376 H 0.24463 0.31759 0.82134 0.0
H1377 H 0.23873 0.36266 0.82846 0.0
H1378 H 0.23075 0.35917 0.9563 0.0
H1379 H 0.25281 0.37252 0.98784 0.0
H1380 H 0.25562 0.3409 0.97374 0.0
H1381 H 0.29978 0.34944 0.95888 0.0
H1382 H 0.29704 0.38113 0.97284 0.0
H1383 H 0.30506 0.37347 0.93121 0.0
H1384 H 0.23639 0.40814 0.84785 0.0
H1385 H 0.23514 0.44878 0.87861 0.0
H1386 H 0.26305 0.41542 0.96941 0.0
C1387 C 0.26553 0.32571 0.90371 0.0
C1388 C 0.2594 0.31338 0.87252 0.0
C1389 C 0.24953 0.32683 0.8454 0.0
C1390 C 0.24622 0.35237 0.84921 0.0
C1391 C 0.25263 0.36401 0.88039 0.0
C1392 C 0.26187 0.35098 0.9072 0.0
C1393 C 0.26639 0.36736 0.93847 0.0
C1394 C 0.25044 0.35952 0.96568 0.0
C1395 C 0.29369 0.36787 0.95108 0.0
C1396 C 0.25827 0.3917 0.92519 0.0
C1397 C 0.2506 0.3896 0.8916 0.0
C1398 C 0.24235 0.40994 0.87415 0.0
C1399 C 0.24174 0.43288 0.89167 0.0
C1400 C 0.2491 0.43508 0.92618 0.0
C1401 C 0.2575 0.41422 0.94295 0.0
H1402 H 0.6801 0.29342 0.87383 0.0
H1403 H 0.68814 0.22617 0.81344 0.0
H1404 H 0.6507 0.20962 0.83434 0.0
H1405 H 0.66267 0.26386 0.94512 0.0
H1406 H 0.64206 0.28803 0.95623 0.0
H1407 H 0.66823 0.29493 0.93435 0.0
H1408 H 0.63971 0.31428 0.88814 0.0
H1409 H 0.6134 0.3072 0.90971 0.0
H1410 H 0.61488 0.29633 0.86701 0.0
H1411 H 0.61188 0.20044 0.86308 0.0
H1412 H 0.57819 0.1983 0.90024 0.0
H1413 H 0.59875 0.27015 0.94442 0.0
C1414 C 0.67444 0.27502 0.86522 0.0
C1415 C 0.68743 0.26112 0.84199 0.0
C1416 C 0.67853 0.2374 0.83089 0.0
C1417 C 0.65728 0.22779 0.84273 0.0
C1418 C 0.64517 0.24201 0.86584 0.0
C1419 C 0.65367 0.26503 0.87716 0.0
C1420 C 0.6383 0.2763 0.90326 0.0
C1421 C 0.65374 0.28105 0.93672 0.0
C1422 C 0.62584 0.29992 0.8913 0.0
C1423 C 0.61983 0.25596 0.90518 0.0
C1424 C 0.62374 0.23645 0.88306 0.0
C1425 C 0.60873 0.21562 0.88048 0.0
C1426 C 0.58961 0.21458 0.90148 0.0
C1427 C 0.586 0.23406 0.92501 0.0
C1428 C 0.60118 0.25504 0.92657 0.0
H1429 H 0.73193 0.69619 0.85882 0.0
H1430 H 0.75333 0.6632 0.76539 0.0
H1431 H 0.76693 0.62636 0.79431 0.0
H1432 H 0.77722 0.66793 0.91621 0.0
H1433 H 0.75537 0.66286 0.94604 0.0
H1434 H 0.75174 0.6885 0.91959 0.0
H1435 H 0.70794 0.67348 0.89871 0.0
H1436 H 0.71144 0.64784 0.92505 0.0
H1437 H 0.70353 0.64264 0.88094 0.0
H1438 H 0.77614 0.5919 0.83311 0.0
H1439 H 0.77752 0.56203 0.87687 0.0
H1440 H 0.74235 0.6152 0.94096 0.0
C1441 C 0.73944 0.68135 0.84414 0.0
C1442 C 0.74153 0.68298 0.8096 0.0
C1443 C 0.75201 0.66301 0.79196 0.0
C1444 C 0.75964 0.64178 0.80814 0.0
C1445 C 0.75634 0.64055 0.84185 0.0
C1446 C 0.74627 0.65975 0.85953 0.0
C1447 C 0.74197 0.65288 0.8944 0.0
C1448 C 0.75751 0.669 0.9206 0.0
C1449 C 0.7146 0.65429 0.90009 0.0
C1450 C 0.75091 0.62666 0.89345 0.0
C1451 C 0.75967 0.62006 0.86325 0.0
C1452 C 0.76911 0.5968 0.85677 0.0
C1453 C 0.76947 0.5798 0.88179 0.0
C1454 C 0.75979 0.58585 0.91269 0.0
C1455 C 0.7504 0.60975 0.91822 0.0
loop_
_geom_bond_atom_site_label_1
_geom_bond_atom_site_label_2
_geom_bond_distance
_geom_bond_site_symmetry_2
_ccdc_geom_bond_type
H0 C8 0.930 . S
H1 C11 0.930 . S
H2 C13 0.930 . S
H3 C14 0.970 . S
H4 C14 0.970 . S
H5 C16 0.930 . S
H6 C18 0.930 . S
H7 C20 0.930 . S
C8 H0 0.930 . S
C8 C9 1.382 . S
C8 C10 1.426 . S
C9 C8 1.382 . S
C9 C13 1.389 . S
C10 C8 1.426 . S
C10 C11 1.375 . S
C10 C14 1.532 . S
C11 H1 0.930 . S
C11 C10 1.375 . S
C11 C12 1.416 . S
C12 C11 1.416 . S
C12 C13 1.371 . S
C13 H2 0.930 . S
C13 C9 1.389 . S
C13 C12 1.371 . S
C14 H3 0.970 . S
C14 H4 0.970 . S
C14 C10 1.532 . S
C14 C15 1.499 . S
C15 C14 1.499 . S
C15 C16 1.370 . S
C15 C20 1.415 . S
C16 H5 0.930 . S
C16 C15 1.370 . S
C16 C17 1.407 . S
C17 C16 1.407 . S
C17 C18 1.365 . S
C18 H6 0.930 . S
C18 C17 1.365 . S
C18 C19 1.393 . S
C19 C18 1.393 . S
C19 C20 1.387 . S
C20 H7 0.930 . S
C20 C15 1.415 . S
C20 C19 1.387 . S
H21 C29 0.930 . S
H22 C32 0.930 . S
H23 C34 0.930 . S
H24 C35 0.970 . S
H25 C35 0.970 . S
H26 C37 0.930 . S
H27 C39 0.930 . S
H28 C41 0.930 . S
C29 H21 0.930 . S
C29 C30 1.382 . S
C29 C31 1.426 . S
C30 C29 1.382 . S
C30 C34 1.389 . S
C31 C29 1.426 . S
C31 C32 1.375 . S
C31 C35 1.532 . S
C32 H22 0.930 . S
C32 C31 1.375 . S
C32 C33 1.416 . S
C33 C32 1.416 . S
C33 C34 1.371 . S
C34 H23 0.930 . S
C34 C30 1.389 . S
C34 C33 1.371 . S
C35 H24 0.970 . S
C35 H25 0.970 . S
C35 C31 1.532 . S
C35 C36 1.499 . S
C36 C35 1.499 . S
C36 C37 1.370 . S
C36 C41 1.415 . S
C37 H26 0.930 . S
C37 C36 1.370 . S
C37 C38 1.407 . S
C38 C37 1.407 . S
C38 C39 1.365 . S
C39 H27 0.930 . S
C39 C38 1.365 . S
C39 C40 1.393 . S
C40 C39 1.393 . S
C40 C41 1.387 . S
C41 H28 0.930 . S
C41 C36 1.415 . S
C41 C40 1.387 . S
H42 C50 0.930 . S
H43 C53 0.930 . S
H44 C55 0.930 . S
H45 C56 0.970 . S
H46 C56 0.970 . S
H47 C58 0.930 . S
H48 C60 0.930 . S
H49 C62 0.930 . S
C50 H42 0.930 . S
C50 C51 1.382 . S
C50 C52 1.426 . S
C51 C50 1.382 . S
C51 C55 1.389 . S
C52 C50 1.426 . S
C52 C53 1.375 . S
C52 C56 1.532 . S
C53 H43 0.930 . S
C53 C52 1.375 . S
C53 C54 1.416 . S
C54 C53 1.416 . S
C54 C55 1.371 . S
C55 H44 0.930 . S
C55 C51 1.389 . S
C55 C54 1.371 . S
C56 H45 0.970 . S
C56 H46 0.970 . S
C56 C52 1.532 . S
C56 C57 1.499 . S
C57 C56 1.499 . S
C57 C58 1.370 . S
C57 C62 1.415 . S
C58 H47 0.930 . S
C58 C57 1.370 . S
C58 C59 1.407 . S
C59 C58 1.407 . S
C59 C60 1.365 . S
C60 H48 0.930 . S
C60 C59 1.365 . S
C60 C61 1.393 . S
C61 C60 1.393 . S
C61 C62 1.387 . S
C62 H49 0.930 . S
C62 C57 1.415 . S
C62 C61 1.387 . S
H63 C71 0.930 . S
H64 C74 0.930 . S
H65 C76 0.930 . S
H66 C77 0.970 . S
H67 C77 0.970 . S
H68 C79 0.930 . S
H69 C81 0.930 . S
H70 C83 0.930 . S
C71 H63 0.930 . S
C71 C72 1.382 . S
C71 C73 1.426 . S
C72 C71 1.382 . S
C72 C76 1.389 . S
C73 C71 1.426 . S
C73 C74 1.375 . S
C73 C77 1.532 . S
C74 H64 0.930 . S
C74 C73 1.375 . S
C74 C75 1.416 . S
C75 C74 1.416 . S
C75 C76 1.371 . S
C76 H65 0.930 . S
C76 C72 1.389 . S
C76 C75 1.371 . S
C77 H66 0.970 . S
C77 H67 0.970 . S
C77 C73 1.532 . S
C77 C78 1.499 . S
C78 C77 1.499 . S
C78 C79 1.370 . S
C78 C83 1.415 . S
C79 H68 0.930 . S
C79 C78 1.370 . S
C79 C80 1.407 . S
C80 C79 1.407 . S
C80 C81 1.365 . S
C81 H69 0.930 . S
C81 C80 1.365 . S
C81 C82 1.393 . S
C82 C81 1.393 . S
C82 C83 1.387 . S
C83 H70 0.930 . S
C83 C78 1.415 . S
C83 C82 1.387 . S
H84 C92 0.930 . S
H85 C95 0.930 . S
H86 C97 0.930 . S
H87 C98 0.970 . S
H88 C98 0.970 . S
H89 C100 0.930 . S
H90 C102 0.930 . S
H91 C104 0.930 . S
C92 H84 0.930 . S
C92 C93 1.382 . S
C92 C94 1.426 . S
C93 C92 1.382 . S
C93 C97 1.389 . S
C94 C92 1.426 . S
C94 C95 1.375 . S
C94 C98 1.532 . S
C95 H85 0.930 . S
C95 C94 1.375 . S
C95 C96 1.416 . S
C96 C95 1.416 . S
C96 C97 1.371 . S
C97 H86 0.930 . S
C97 C93 1.389 . S
C97 C96 1.371 . S
C98 H87 0.970 . S
C98 H88 0.970 . S
C98 C94 1.532 . S
C98 C99 1.499 . S
C99 C98 1.499 . S
C99 C100 1.370 . S
C99 C104 1.415 . S
C100 H89 0.930 . S
C100 C99 1.370 . S
C100 C101 1.407 . S
C101 C100 1.407 . S
C101 C102 1.365 . S
C102 H90 0.930 . S
C102 C101 1.365 . S
C102 C103 1.393 . S
C103 C102 1.393 . S
C103 C104 1.387 . S
C104 H91 0.930 . S
C104 C99 1.415 . S
C104 C103 1.387 . S
H105 C113 0.930 . S
H106 C116 0.930 . S
H107 C118 0.930 . S
H108 C119 0.970 . S
H109 C119 0.970 . S
H110 C121 0.930 . S
H111 C123 0.930 . S
H112 C125 0.930 . S
C113 H105 0.930 . S
C113 C114 1.382 . S
C113 C115 1.426 . S
C114 C113 1.382 . S
C114 C118 1.389 . S
C115 C113 1.426 . S
C115 C116 1.375 . S
C115 C119 1.532 . S
C116 H106 0.930 . S
C116 C115 1.375 . S
C116 C117 1.416 . S
C117 C116 1.416 . S
C117 C118 1.371 . S
C118 H107 0.930 . S
C118 C114 1.389 . S
C118 C117 1.371 . S
C119 H108 0.970 . S
C119 H109 0.970 . S
C119 C115 1.532 . S
C119 C120 1.499 . S
C120 C119 1.499 . S
C120 C121 1.370 . S
C120 C125 1.415 . S
C121 H110 0.930 . S
C121 C120 1.370 . S
C121 C122 1.407 . S
C122 C121 1.407 . S
C122 C123 1.365 . S
C123 H111 0.930 . S
C123 C122 1.365 . S
C123 C124 1.393 . S
C124 C123 1.393 . S
C124 C125 1.387 . S
C125 H112 0.930 . S
C125 C120 1.415 . S
C125 C124 1.387 . S
H126 C134 0.930 . S
H127 C137 0.930 . S
H128 C139 0.930 . S
H129 C140 0.970 . S
H130 C140 0.970 . S
H131 C142 0.930 . S
H132 C144 0.930 . S
H133 C146 0.930 . S
C134 H126 0.930 . S
C134 C135 1.382 . S
C134 C136 1.426 . S
C135 C134 1.382 . S
C135 C139 1.389 . S
C136 C134 1.426 . S
C136 C137 1.375 . S
C136 C140 1.532 . S
C137 H127 0.930 . S
C137 C136 1.375 . S
C137 C138 1.416 . S
C138 C137 1.416 . S
C138 C139 1.371 . S
C139 H128 0.930 . S
C139 C135 1.389 . S
C139 C138 1.371 . S
C140 H129 0.970 . S
C140 H130 0.970 . S
C140 C136 1.532 . S
C140 C141 1.499 . S
C141 C140 1.499 . S
C141 C142 1.370 . S
C141 C146 1.415 . S
C142 H131 0.930 . S
C142 C141 1.370 . S
C142 C143 1.407 . S
C143 C142 1.407 . S
C143 C144 1.365 . S
C144 H132 0.930 . S
C144 C143 1.365 . S
C144 C145 1.393 . S
C145 C144 1.393 . S
C145 C146 1.387 . S
C146 H133 0.930 . S
C146 C141 1.415 . S
C146 C145 1.387 . S
H147 C155 0.930 . S
H148 C158 0.930 . S
H149 C160 0.930 . S
H150 C161 0.970 . S
H151 C161 0.970 . S
H152 C163 0.930 . S
H153 C165 0.930 . S
H154 C167 0.930 . S
C155 H147 0.930 . S
C155 C156 1.382 . S
C155 C157 1.426 . S
C156 C155 1.382 . S
C156 C160 1.389 . S
C157 C155 1.426 . S
C157 C158 1.375 . S
C157 C161 1.532 . S
C158 H148 0.930 . S
C158 C157 1.375 . S
C158 C159 1.416 . S
C159 C158 1.416 . S
C159 C160 1.371 . S
C160 H149 0.930 . S
C160 C156 1.389 . S
C160 C159 1.371 . S
C161 H150 0.970 . S
C161 H151 0.970 . S
C161 C157 1.532 . S
C161 C162 1.499 . S
C162 C161 1.499 . S
C162 C163 1.370 . S
C162 C167 1.415 . S
C163 H152 0.930 . S
C163 C162 1.370 . S
C163 C164 1.407 . S
C164 C163 1.407 . S
C164 C165 1.365 . S
C165 H153 0.930 . S
C165 C164 1.365 . S
C165 C166 1.393 . S
C166 C165 1.393 . S
C166 C167 1.387 . S
C167 H154 0.930 . S
C167 C162 1.415 . S
C167 C166 1.387 . S
C168 C169 1.443 . S
C168 N172 1.376 . S
C168 C206 1.389 . S
C169 C168 1.443 . S
C169 C170 1.340 . S
C169 H209 0.951 . S
C170 C169 1.340 . S
C170 C171 1.439 . S
C170 H210 0.950 . S
C171 C170 1.439 . S
C171 N172 1.374 . S
C171 C205 1.395 . S
N172 C168 1.376 . S
N172 C171 1.374 . S
N172 Co173 2.008 . S
Co173 N172 2.008 . S
Co173 N174 1.995 1_455 S
Co173 N179 2.008 1_455 S
Co173 N184 1.995 . S
Co173 N189 2.282 1_455 S
Co173 N195 2.282 . S
N174 Co173 1.995 1_655 S
N174 C175 1.376 . S
N174 C178 1.383 . S
C175 N174 1.376 . S
C175 C176 1.446 . S
C175 C205 1.391 1_655 S
C176 C175 1.446 . S
C176 C177 1.339 . S
C176 H211 0.949 . S
C177 C176 1.339 . S
C177 C178 1.439 . S
C177 H212 0.950 . S
C178 N174 1.383 . S
C178 C177 1.439 . S
C178 C207 1.392 . S
N179 Co173 2.008 1_655 S
N179 C180 1.376 . S
N179 C183 1.374 . S
C180 N179 1.376 . S
C180 C181 1.443 . S
C180 C207 1.389 . S
C181 C180 1.443 . S
C181 C182 1.340 . S
C181 H213 0.951 . S
C182 C181 1.340 . S
C182 C183 1.439 . S
C182 H214 0.950 . S
C183 N179 1.374 . S
C183 C182 1.439 . S
C183 C208 1.411 . S
N184 Co173 1.995 . S
N184 C185 1.376 . S
N184 C188 1.383 . S
C185 N184 1.376 . S
C185 C186 1.446 . S
C185 C208 1.375 1_455 S
C186 C185 1.446 . S
C186 C187 1.339 . S
C186 H215 0.949 . S
C187 C186 1.339 . S
C187 C188 1.439 . S
C187 H216 0.950 . S
C188 N184 1.383 . S
C188 C187 1.439 . S
C188 C206 1.392 . S
N189 Co173 2.282 1_655 S
N189 C192 1.332 . S
N189 C194 1.332 . S
C190 C191 1.386 . S
C190 C193 1.388 . S
C191 C190 1.386 . S
C191 C192 1.382 . S
C191 H217 0.950 . S
C192 N189 1.332 . S
C192 C191 1.382 . S
C192 H203 0.952 . S
C193 C190 1.388 . S
C193 C194 1.382 . S
C193 H218 0.950 . S
C194 N189 1.332 . S
C194 C193 1.382 . S
C194 H204 0.948 . S
N195 Co173 2.282 . S
N195 C199 1.332 . S
N195 C200 1.332 . S
C196 C197 1.388 . S
C196 C200 1.382 . S
C196 H219 0.950 . S
C197 C196 1.388 . S
C197 C198 1.386 . S
C198 C197 1.386 . S
C198 C199 1.382 . S
C198 H220 0.950 . S
C199 N195 1.332 . S
C199 C198 1.382 . S
C199 H201 0.952 . S
C200 N195 1.332 . S
C200 C196 1.382 . S
C200 H202 0.948 . S
H201 C199 0.952 . S
H202 C200 0.948 . S
H203 C192 0.952 . S
H204 C194 0.948 . S
C205 C171 1.395 . S
C205 C175 1.391 1_455 S
C206 C168 1.389 . S
C206 C188 1.392 . S
C207 C178 1.392 . S
C207 C180 1.389 . S
C208 C183 1.411 . S
C208 C185 1.375 1_655 S
H209 C169 0.951 . S
H210 C170 0.950 . S
H211 C176 0.949 . S
H212 C177 0.950 . S
H213 C181 0.951 . S
H214 C182 0.950 . S
H215 C186 0.949 . S
H216 C187 0.950 . S
H217 C191 0.950 . S
H218 C193 0.950 . S
H219 C196 0.950 . S
H220 C198 0.950 . S
C221 C222 1.443 . S
C221 N225 1.376 . S
C221 C259 1.389 . S
C222 C221 1.443 . S
C222 C223 1.340 . S
C222 H262 0.951 . S
C223 C222 1.340 . S
C223 C224 1.439 . S
C223 H263 0.950 . S
C224 C223 1.439 . S
C224 N225 1.374 . S
C224 C258 1.395 . S
N225 C221 1.376 . S
N225 C224 1.374 . S
N225 Co226 2.008 . S
Co226 N225 2.008 . S
Co226 N227 1.995 1_545 S
Co226 N232 2.008 1_545 S
Co226 N237 1.995 . S
Co226 N242 2.282 1_545 S
Co226 N248 2.282 . S
N227 Co226 1.995 1_565 S
N227 C228 1.376 . S
N227 C231 1.383 . S
C228 N227 1.376 . S
C228 C229 1.446 . S
C228 C258 1.391 1_565 S
C229 C228 1.446 . S
C229 C230 1.339 . S
C229 H264 0.949 . S
C230 C229 1.339 . S
C230 C231 1.439 . S
C230 H265 0.950 . S
C231 N227 1.383 . S
C231 C230 1.439 . S
C231 C260 1.392 . S
N232 Co226 2.008 1_565 S
N232 C233 1.376 . S
N232 C236 1.374 . S
C233 N232 1.376 . S
C233 C234 1.443 . S
C233 C260 1.389 . S
C234 C233 1.443 . S
C234 C235 1.340 . S
C234 H266 0.951 . S
C235 C234 1.340 . S
C235 C236 1.439 . S
C235 H267 0.950 . S
C236 N232 1.374 . S
C236 C235 1.439 . S
C236 C261 1.395 1_565 S
N237 Co226 1.995 . S
N237 C238 1.376 . S
N237 C241 1.383 . S
C238 N237 1.376 . S
C238 C239 1.446 . S
C238 C261 1.391 . S
C239 C238 1.446 . S
C239 C240 1.339 . S
C239 H268 0.949 . S
C240 C239 1.339 . S
C240 C241 1.439 . S
C240 H269 0.950 . S
C241 N237 1.383 . S
C241 C240 1.439 . S
C241 C259 1.392 . S
N242 Co226 2.282 1_565 S
N242 C245 1.332 . S
N242 C247 1.332 . S
C243 C244 1.386 . S
C243 C246 1.388 . S
C244 C243 1.386 . S
C244 C245 1.382 . S
C244 H270 0.950 . S
C245 N242 1.332 . S
C245 C244 1.382 . S
C245 H256 0.952 . S
C246 C243 1.388 . S
C246 C247 1.382 . S
C246 H271 0.950 . S
C247 N242 1.332 . S
C247 C246 1.382 . S
C247 H257 0.948 . S
N248 Co226 2.282 . S
N248 C252 1.332 . S
N248 C253 1.332 . S
C249 C250 1.388 . S
C249 C253 1.382 . S
C249 H272 0.950 . S
C250 C249 1.388 . S
C250 C251 1.386 . S
C251 C250 1.386 . S
C251 C252 1.382 . S
C251 H273 0.950 . S
C252 N248 1.332 . S
C252 C251 1.382 . S
C252 H254 0.952 . S
C253 N248 1.332 . S
C253 C249 1.382 . S
C253 H255 0.948 . S
H254 C252 0.952 . S
H255 C253 0.948 . S
H256 C245 0.952 . S
H257 C247 0.948 . S
C258 C224 1.395 . S
C258 C228 1.391 1_545 S
C259 C221 1.389 . S
C259 C241 1.392 . S
C260 C231 1.392 . S
C260 C233 1.389 . S
C261 C236 1.395 1_545 S
C261 C238 1.391 . S
H262 C222 0.951 . S
H263 C223 0.950 . S
H264 C229 0.949 . S
H265 C230 0.950 . S
H266 C234 0.951 . S
H267 C235 0.950 . S
H268 C239 0.949 . S
H269 C240 0.950 . S
H270 C244 0.950 . S
H271 C246 0.950 . S
H272 C249 0.950 . S
H273 C251 0.950 . S
C274 C275 1.443 . S
C274 N278 1.376 . S
C274 C312 1.389 . S
C275 C274 1.443 . S
C275 C276 1.340 . S
C275 H315 0.951 . S
C276 C275 1.340 . S
C276 C277 1.439 . S
C276 H316 0.950 . S
C277 C276 1.439 . S
C277 N278 1.374 . S
C277 C311 1.395 . S
N278 C274 1.376 . S
N278 C277 1.374 . S
N278 Co279 2.022 . S
Co279 N278 2.022 . S
Co279 N280 1.982 1_455 S
Co279 N285 1.994 1_455 S
Co279 N290 2.007 . S
Co279 N295 2.264 1_455 S
Co279 N301 2.301 . S
N280 Co279 1.982 1_655 S
N280 C281 1.376 . S
N280 C284 1.383 . S
C281 N280 1.376 . S
C281 C282 1.446 . S
C281 C311 1.391 1_655 S
C282 C281 1.446 . S
C282 C283 1.339 . S
C282 H317 0.949 . S
C283 C282 1.339 . S
C283 C284 1.439 . S
C283 H318 0.950 . S
C284 N280 1.383 . S
C284 C283 1.439 . S
C284 C313 1.392 . S
N285 Co279 1.994 1_655 S
N285 C286 1.376 . S
N285 C289 1.374 . S
C286 N285 1.376 . S
C286 C287 1.443 . S
C286 C313 1.389 . S
C287 C286 1.443 . S
C287 C288 1.340 . S
C287 H319 0.951 . S
C288 C287 1.340 . S
C288 C289 1.439 . S
C288 H320 0.950 . S
C289 N285 1.374 . S
C289 C288 1.439 . S
C289 C314 1.395 . S
N290 Co279 2.007 . S
N290 C291 1.376 . S
N290 C294 1.383 . S
C291 N290 1.376 . S
C291 C292 1.446 . S
C291 C314 1.391 1_455 S
C292 C291 1.446 . S
C292 C293 1.339 . S
C292 H321 0.949 . S
C293 C292 1.339 . S
C293 C294 1.439 . S
C293 H322 0.950 . S
C294 N290 1.383 . S
C294 C293 1.439 . S
C294 C312 1.392 . S
N295 Co279 2.264 1_655 S
N295 C298 1.332 . S
N295 C300 1.332 . S
C296 C297 1.386 . S
C296 C299 1.388 . S
C297 C296 1.386 . S
C297 C298 1.382 . S
C297 H323 0.950 . S
C298 N295 1.332 . S
C298 C297 1.382 . S
C298 H309 0.952 . S
C299 C296 1.388 . S
C299 C300 1.382 . S
C299 H324 0.950 . S
C300 N295 1.332 . S
C300 C299 1.382 . S
C300 H310 0.948 . S
N301 Co279 2.301 . S
N301 C305 1.332 . S
N301 C306 1.332 . S
C302 C303 1.388 . S
C302 C306 1.382 . S
C302 H325 0.950 . S
C303 C302 1.388 . S
C303 C304 1.386 . S
C304 C303 1.386 . S
C304 C305 1.382 . S
C304 H326 0.950 . S
C305 N301 1.332 . S
C305 C304 1.382 . S
C305 H307 0.952 . S
C306 N301 1.332 . S
C306 C302 1.382 . S
C306 H308 0.948 . S
H307 C305 0.952 . S
H308 C306 0.948 . S
H309 C298 0.952 . S
H310 C300 0.948 . S
C311 C277 1.395 . S
C311 C281 1.391 1_455 S
C312 C274 1.389 . S
C312 C294 1.392 . S
C313 C284 1.392 . S
C313 C286 1.389 . S
C314 C289 1.395 . S
C314 C291 1.391 1_655 S
H315 C275 0.951 . S
H316 C276 0.950 . S
H317 C282 0.949 . S
H318 C283 0.950 . S
H319 C287 0.951 . S
H320 C288 0.950 . S
H321 C292 0.949 . S
H322 C293 0.950 . S
H323 C297 0.950 . S
H324 C299 0.950 . S
H325 C302 0.950 . S
H326 C304 0.950 . S
C327 C328 1.443 . S
C327 N331 1.376 . S
C327 C365 1.389 . S
C328 C327 1.443 . S
C328 C329 1.340 . S
C328 H368 0.951 . S
C329 C328 1.340 . S
C329 C330 1.439 . S
C329 H369 0.950 . S
C330 C329 1.439 . S
C330 N331 1.374 . S
C330 C364 1.419 . S
N331 C327 1.376 . S
N331 C330 1.374 . S
N331 Co332 2.008 1_565 S
Co332 N331 2.008 1_545 S
Co332 N333 1.995 . S
Co332 N338 2.008 . S
Co332 N343 1.995 1_545 S
Co332 N348 2.282 . S
Co332 N354 2.282 1_545 S
N333 Co332 1.995 . S
N333 C334 1.376 . S
N333 C337 1.383 . S
C334 N333 1.376 . S
C334 C335 1.446 . S
C334 C364 1.366 1_545 S
C335 C334 1.446 . S
C335 C336 1.339 . S
C335 H370 0.949 . S
C336 C335 1.339 . S
C336 C337 1.439 . S
C336 H371 0.950 . S
C337 N333 1.383 . S
C337 C336 1.439 . S
C337 C366 1.392 . S
N338 Co332 2.008 . S
N338 C339 1.376 . S
N338 C342 1.374 . S
C339 N338 1.376 . S
C339 C340 1.443 . S
C339 C366 1.389 . S
C340 C339 1.443 . S
C340 C341 1.340 . S
C340 H372 0.951 . S
C341 C340 1.340 . S
C341 C342 1.439 . S
C341 H373 0.950 . S
C342 N338 1.374 . S
C342 C341 1.439 . S
C342 C367 1.395 . S
N343 Co332 1.995 1_565 S
N343 C344 1.376 . S
N343 C347 1.383 . S
C344 N343 1.376 . S
C344 C345 1.446 . S
C344 C367 1.391 1_565 S
C345 C344 1.446 . S
C345 C346 1.339 . S
C345 H374 0.949 . S
C346 C345 1.339 . S
C346 C347 1.439 . S
C346 H375 0.950 . S
C347 N343 1.383 . S
C347 C346 1.439 . S
C347 C365 1.392 . S
N348 Co332 2.282 . S
N348 C351 1.332 . S
N348 C353 1.332 . S
C349 C350 1.386 . S
C349 C352 1.388 . S
C350 C349 1.386 . S
C350 C351 1.382 . S
C350 H376 0.950 . S
C351 N348 1.332 . S
C351 C350 1.382 . S
C351 H362 0.952 . S
C352 C349 1.388 . S
C352 C353 1.382 . S
C352 H377 0.950 . S
C353 N348 1.332 . S
C353 C352 1.382 . S
C353 H363 0.948 . S
N354 Co332 2.282 1_565 S
N354 C358 1.332 . S
N354 C359 1.332 . S
C355 C356 1.388 . S
C355 C359 1.382 . S
C355 H378 0.950 . S
C356 C355 1.388 . S
C356 C357 1.386 . S
C357 C356 1.386 . S
C357 C358 1.382 . S
C357 H379 0.950 . S
C358 N354 1.332 . S
C358 C357 1.382 . S
C358 H360 0.952 . S
C359 N354 1.332 . S
C359 C355 1.382 . S
C359 H361 0.948 . S
H360 C358 0.952 . S
H361 C359 0.948 . S
H362 C351 0.952 . S
H363 C353 0.948 . S
C364 C330 1.419 . S
C364 C334 1.366 1_565 S
C365 C327 1.389 . S
C365 C347 1.392 . S
C366 C337 1.392 . S
C366 C339 1.389 . S
C367 C342 1.395 . S
C367 C344 1.391 1_545 S
H368 C328 0.951 . S
H369 C329 0.950 . S
H370 C335 0.949 . S
H371 C336 0.950 . S
H372 C340 0.951 . S
H373 C341 0.950 . S
H374 C345 0.949 . S
H375 C346 0.950 . S
H376 C350 0.950 . S
H377 C352 0.950 . S
H378 C355 0.950 . S
H379 C357 0.950 . S
C380 C381 1.443 . S
C380 N384 1.376 . S
C380 C418 1.389 . S
C381 C380 1.443 . S
C381 C382 1.340 . S
C381 H421 0.951 . S
C382 C381 1.340 . S
C382 C383 1.439 . S
C382 H422 0.950 . S
C383 C382 1.439 . S
C383 N384 1.374 . S
C383 C417 1.395 . S
N384 C380 1.376 . S
N384 C383 1.374 . S
N384 Co385 2.018 . S
Co385 N384 2.018 . S
Co385 N386 1.983 1_554 S
Co385 N391 1.998 1_554 S
Co385 N396 2.007 . S
Co385 N401 2.300 . S
Co385 N407 2.265 1_554 S
N386 Co385 1.983 1_556 S
N386 C387 1.376 . S
N386 C390 1.383 . S
C387 N386 1.376 . S
C387 C388 1.446 . S
C387 C417 1.391 1_556 S
C388 C387 1.446 . S
C388 C389 1.339 . S
C388 H423 0.949 . S
C389 C388 1.339 . S
C389 C390 1.439 . S
C389 H424 0.950 . S
C390 N386 1.383 . S
C390 C389 1.439 . S
C390 C419 1.392 . S
N391 Co385 1.998 1_556 S
N391 C392 1.376 . S
N391 C395 1.374 . S
C392 N391 1.376 . S
C392 C393 1.443 . S
C392 C419 1.389 . S
C393 C392 1.443 . S
C393 C394 1.340 . S
C393 H425 0.951 . S
C394 C393 1.340 . S
C394 C395 1.439 . S
C394 H426 0.950 . S
C395 N391 1.374 . S
C395 C394 1.439 . S
C395 C420 1.395 1_556 S
N396 Co385 2.007 . S
N396 C397 1.376 . S
N396 C400 1.383 . S
C397 N396 1.376 . S
C397 C398 1.446 . S
C397 C420 1.391 . S
C398 C397 1.446 . S
C398 C399 1.339 . S
C398 H427 0.949 . S
C399 C398 1.339 . S
C399 C400 1.439 . S
C399 H428 0.950 . S
C400 N396 1.383 . S
C400 C399 1.439 . S
C400 C418 1.392 . S
N401 Co385 2.300 . S
N401 C404 1.332 . S
N401 C406 1.332 . S
C402 C403 1.386 . S
C402 C405 1.388 . S
C403 C402 1.386 . S
C403 C404 1.382 . S
C403 H429 0.950 . S
C404 N401 1.332 . S
C404 C403 1.382 . S
C404 H415 0.952 . S
C405 C402 1.388 . S
C405 C406 1.382 . S
C405 H430 0.950 . S
C406 N401 1.332 . S
C406 C405 1.382 . S
C406 H416 0.948 . S
N407 Co385 2.265 1_556 S
N407 C411 1.332 . S
N407 C412 1.332 . S
C408 C409 1.388 . S
C408 C412 1.382 . S
C408 H431 0.950 . S
C409 C408 1.388 . S
C409 C410 1.386 . S
C410 C409 1.386 . S
C410 C411 1.382 . S
C410 H432 0.950 . S
C411 N407 1.332 . S
C411 C410 1.382 . S
C411 H413 0.952 . S
C412 N407 1.332 . S
C412 C408 1.382 . S
C412 H414 0.948 . S
H413 C411 0.952 . S
H414 C412 0.948 . S
H415 C404 0.952 . S
H416 C406 0.948 . S
C417 C383 1.395 . S
C417 C387 1.391 1_554 S
C418 C380 1.389 . S
C418 C400 1.392 . S
C419 C390 1.392 . S
C419 C392 1.389 . S
C420 C395 1.395 1_554 S
C420 C397 1.391 . S
H421 C381 0.951 . S
H422 C382 0.950 . S
H423 C388 0.949 . S
H424 C389 0.950 . S
H425 C393 0.951 . S
H426 C394 0.950 . S
H427 C398 0.949 . S
H428 C399 0.950 . S
H429 C403 0.950 . S
H430 C405 0.950 . S
H431 C408 0.950 . S
H432 C410 0.950 . S
C433 C434 1.443 . S
C433 N437 1.376 . S
C433 C471 1.389 . S
C434 C433 1.443 . S
C434 C435 1.340 . S
C434 H474 0.951 . S
C435 C434 1.340 . S
C435 C436 1.439 . S
C435 H475 0.950 . S
C436 C435 1.439 . S
C436 N437 1.374 . S
C436 C470 1.395 . S
N437 C433 1.376 . S
N437 C436 1.374 . S
N437 Co438 2.008 . S
Co438 N437 2.008 . S
Co438 N439 1.995 1_554 S
Co438 N444 2.008 . S
Co438 N449 1.995 . S
Co438 N454 2.282 . S
Co438 N460 2.282 1_554 S
N439 Co438 1.995 1_556 S
N439 C440 1.376 . S
N439 C443 1.383 . S
C440 N439 1.376 . S
C440 C441 1.446 . S
C440 C470 1.391 1_556 S
C441 C440 1.446 . S
C441 C442 1.339 . S
C441 H476 0.949 . S
C442 C441 1.339 . S
C442 C443 1.439 . S
C442 H477 0.950 . S
C443 N439 1.383 . S
C443 C442 1.439 . S
C443 C472 1.392 . S
N444 Co438 2.008 . S
N444 C445 1.376 1_554 S
N444 C448 1.374 . S
C445 N444 1.376 1_556 S
C445 C446 1.443 . S
C445 C472 1.389 . S
C446 C445 1.443 . S
C446 C447 1.340 1_556 S
C446 H478 0.951 . S
C447 C446 1.340 1_554 S
C447 C448 1.439 . S
C447 H479 0.950 . S
C448 N444 1.374 . S
C448 C447 1.439 . S
C448 C473 1.395 . S
N449 Co438 1.995 . S
N449 C450 1.376 . S
N449 C453 1.383 . S
C450 N449 1.376 . S
C450 C451 1.446 . S
C450 C473 1.391 . S
C451 C450 1.446 . S
C451 C452 1.339 . S
C451 H480 0.949 . S
C452 C451 1.339 . S
C452 C453 1.439 . S
C452 H481 0.950 . S
C453 N449 1.383 . S
C453 C452 1.439 . S
C453 C471 1.392 . S
N454 Co438 2.282 . S
N454 C457 1.332 . S
N454 C459 1.332 . S
C455 C456 1.386 . S
C455 C458 1.388 . S
C456 C455 1.386 . S
C456 C457 1.382 . S
C456 H482 0.950 . S
C457 N454 1.332 . S
C457 C456 1.382 . S
C457 H468 0.952 . S
C458 C455 1.388 . S
C458 C459 1.382 . S
C458 H483 0.950 . S
C459 N454 1.332 . S
C459 C458 1.382 . S
C459 H469 0.948 . S
N460 Co438 2.282 1_556 S
N460 C464 1.332 . S
N460 C465 1.332 . S
C461 C462 1.388 . S
C461 C465 1.382 . S
C461 H484 0.950 . S
C462 C461 1.388 . S
C462 C463 1.386 . S
C463 C462 1.386 . S
C463 C464 1.382 . S
C463 H485 0.950 . S
C464 N460 1.332 . S
C464 C463 1.382 . S
C464 H466 0.952 . S
C465 N460 1.332 . S
C465 C461 1.382 . S
C465 H467 0.948 . S
H466 C464 0.952 . S
H467 C465 0.948 . S
H468 C457 0.952 . S
H469 C459 0.948 . S
C470 C436 1.395 . S
C470 C440 1.391 1_554 S
C471 C433 1.389 . S
C471 C453 1.392 . S
C472 C443 1.392 . S
C472 C445 1.389 . S
C473 C448 1.395 . S
C473 C450 1.391 . S
H474 C434 0.951 . S
H475 C435 0.950 . S
H476 C441 0.949 . S
H477 C442 0.950 . S
H478 C446 0.951 . S
H479 C447 0.950 . S
H480 C451 0.949 . S
H481 C452 0.950 . S
H482 C456 0.950 . S
H483 C458 0.950 . S
H484 C461 0.950 . S
H485 C463 0.950 . S
C486 C487 1.448 . S
C486 N490 1.359 1_556 S
C486 C524 1.400 . S
C487 C486 1.448 . S
C487 C488 1.340 1_556 S
C487 H527 0.951 . S
C488 C487 1.340 1_554 S
C488 C489 1.439 . S
C488 H528 0.950 . S
C489 C488 1.439 . S
C489 N490 1.374 . S
C489 C523 1.395 . S
N490 C486 1.359 1_554 S
N490 C489 1.374 . S
N490 Co491 2.008 . S
Co491 N490 2.008 . S
Co491 N492 1.995 . S
Co491 N497 2.008 . S
Co491 N502 1.995 . S
Co491 N507 2.282 1_554 S
Co491 N513 2.282 . S
N492 Co491 1.995 . S
N492 C493 1.376 . S
N492 C496 1.383 . S
C493 N492 1.376 . S
C493 C494 1.446 . S
C493 C523 1.391 . S
C494 C493 1.446 . S
C494 C495 1.339 . S
C494 H529 0.949 . S
C495 C494 1.339 . S
C495 C496 1.439 . S
C495 H530 0.950 . S
C496 N492 1.383 . S
C496 C495 1.439 . S
C496 C525 1.392 . S
N497 Co491 2.008 . S
N497 C498 1.376 . S
N497 C501 1.374 . S
C498 N497 1.376 . S
C498 C499 1.443 . S
C498 C525 1.389 . S
C499 C498 1.443 . S
C499 C500 1.340 . S
C499 H531 0.951 . S
C500 C499 1.340 . S
C500 C501 1.439 . S
C500 H532 0.950 . S
C501 N497 1.374 . S
C501 C500 1.439 . S
C501 C526 1.395 . S
N502 Co491 1.995 . S
N502 C503 1.376 . S
N502 C506 1.383 1_554 S
C503 N502 1.376 . S
C503 C504 1.446 1_554 S
C503 C526 1.391 . S
C504 C503 1.446 1_556 S
C504 C505 1.339 . S
C504 H533 0.949 . S
C505 C504 1.339 . S
C505 C506 1.439 . S
C505 H534 0.950 . S
C506 N502 1.383 1_556 S
C506 C505 1.439 . S
C506 C524 1.392 . S
N507 Co491 2.282 1_556 S
N507 C510 1.332 . S
N507 C512 1.332 . S
C508 C509 1.386 . S
C508 C511 1.388 . S
C509 C508 1.386 . S
C509 C510 1.382 . S
C509 H535 0.950 . S
C510 N507 1.332 . S
C510 C509 1.382 . S
C510 H521 0.952 . S
C511 C508 1.388 . S
C511 C512 1.382 . S
C511 H536 0.950 . S
C512 N507 1.332 . S
C512 C511 1.382 . S
C512 H522 0.948 1_556 S
N513 Co491 2.282 . S
N513 C517 1.332 . S
N513 C518 1.332 . S
C514 C515 1.388 . S
C514 C518 1.382 . S
C514 H537 0.950 . S
C515 C514 1.388 . S
C515 C516 1.386 . S
C516 C515 1.386 . S
C516 C517 1.382 . S
C516 H538 0.950 . S
C517 N513 1.332 . S
C517 C516 1.382 . S
C517 H519 0.952 . S
C518 N513 1.332 . S
C518 C514 1.382 . S
C518 H520 0.948 . S
H519 C517 0.952 . S
H520 C518 0.948 . S
H521 C510 0.952 . S
H522 C512 0.948 1_554 S
C523 C489 1.395 . S
C523 C493 1.391 . S
C524 C486 1.400 . S
C524 C506 1.392 . S
C525 C496 1.392 . S
C525 C498 1.389 . S
C526 C501 1.395 . S
C526 C503 1.391 . S
H527 C487 0.951 . S
H528 C488 0.950 . S
H529 C494 0.949 . S
H530 C495 0.950 . S
H531 C499 0.951 . S
H532 C500 0.950 . S
H533 C504 0.949 . S
H534 C505 0.950 . S
H535 C509 0.950 . S
H536 C511 0.950 . S
H537 C514 0.950 . S
H538 C516 0.950 . S
C539 C540 1.443 . S
C539 N543 1.376 . S
C539 C577 1.389 . S
C540 C539 1.443 . S
C540 C541 1.340 . S
C540 H580 0.951 . S
C541 C540 1.340 . S
C541 C542 1.439 . S
C541 H581 0.950 . S
C542 C541 1.439 . S
C542 N543 1.374 . S
C542 C576 1.396 1_554 S
N543 C539 1.376 . S
N543 C542 1.374 . S
N543 Co544 2.008 . S
Co544 N543 2.008 . S
Co544 N545 1.995 1_554 S
Co544 N550 2.008 1_554 S
Co544 N555 1.995 . S
Co544 N560 2.282 . S
Co544 N566 2.282 1_554 S
N545 Co544 1.995 1_556 S
N545 C546 1.376 . S
N545 C549 1.383 . S
C546 N545 1.376 . S
C546 C547 1.446 . S
C546 C576 1.390 . S
C547 C546 1.446 . S
C547 C548 1.339 . S
C547 H582 0.949 . S
C548 C547 1.339 . S
C548 C549 1.439 . S
C548 H583 0.950 . S
C549 N545 1.383 . S
C549 C548 1.439 . S
C549 C578 1.392 . S
N550 Co544 2.008 1_556 S
N550 C551 1.376 . S
N550 C554 1.374 1_556 S
C551 N550 1.376 . S
C551 C552 1.443 . S
C551 C578 1.389 . S
C552 C551 1.443 . S
C552 C553 1.340 . S
C552 H584 0.951 . S
C553 C552 1.340 . S
C553 C554 1.439 1_556 S
C553 H585 0.950 . S
C554 N550 1.374 1_554 S
C554 C553 1.439 1_554 S
C554 C579 1.395 . S
N555 Co544 1.995 . S
N555 C556 1.376 . S
N555 C559 1.383 . S
C556 N555 1.376 . S
C556 C557 1.446 . S
C556 C579 1.391 . S
C557 C556 1.446 . S
C557 C558 1.339 . S
C557 H586 0.949 . S
C558 C557 1.339 . S
C558 C559 1.439 . S
C558 H587 0.950 . S
C559 N555 1.383 . S
C559 C558 1.439 . S
C559 C577 1.392 . S
N560 Co544 2.282 . S
N560 C563 1.332 . S
N560 C565 1.332 . S
C561 C562 1.386 . S
C561 C564 1.388 . S
C562 C561 1.386 . S
C562 C563 1.382 . S
C562 H588 0.950 . S
C563 N560 1.332 . S
C563 C562 1.382 . S
C563 H574 0.952 . S
C564 C561 1.388 . S
C564 C565 1.382 . S
C564 H589 0.950 . S
C565 N560 1.332 . S
C565 C564 1.382 . S
C565 H575 0.948 . S
N566 Co544 2.282 1_556 S
N566 C570 1.332 . S
N566 C571 1.332 . S
C567 C568 1.388 . S
C567 C571 1.382 . S
C567 H590 0.950 . S
C568 C567 1.388 . S
C568 C569 1.386 . S
C569 C568 1.386 . S
C569 C570 1.382 . S
C569 H591 0.950 . S
C570 N566 1.332 . S
C570 C569 1.382 . S
C570 H572 0.952 . S
C571 N566 1.332 . S
C571 C567 1.382 . S
C571 H573 0.948 . S
H572 C570 0.952 . S
H573 C571 0.948 . S
H574 C563 0.952 . S
H575 C565 0.948 . S
C576 C542 1.396 1_556 S
C576 C546 1.390 . S
C577 C539 1.389 . S
C577 C559 1.392 . S
C578 C549 1.392 . S
C578 C551 1.389 . S
C579 C554 1.395 . S
C579 C556 1.391 . S
H580 C540 0.951 . S
H581 C541 0.950 . S
H582 C547 0.949 . S
H583 C548 0.950 . S
H584 C552 0.951 . S
H585 C553 0.950 . S
H586 C557 0.949 . S
H587 C558 0.950 . S
H588 C562 0.950 . S
H589 C564 0.950 . S
H590 C567 0.950 . S
H591 C569 0.950 . S
H592 C604 0.930 . S
H593 C606 0.930 . S
H594 C607 0.930 . S
H595 C611 0.959 . S
H596 C611 0.959 . S
H597 C611 0.961 . S
H598 C612 0.960 . S
H599 C612 0.961 . S
H600 C612 0.959 . S
H601 C615 0.929 . S
H602 C616 0.931 . S
H603 C618 0.930 . S
C604 H592 0.930 . S
C604 C605 1.399 . S
C604 C609 1.399 . S
C605 C604 1.399 . S
C605 C606 1.376 . S
C606 H593 0.930 . S
C606 C605 1.376 . S
C606 C607 1.388 . S
C607 H594 0.930 . S
C607 C606 1.388 . S
C607 C608 1.390 . S
C608 C607 1.390 . S
C608 C609 1.394 . S
C608 C614 1.465 . S
C609 C604 1.399 . S
C609 C608 1.394 . S
C609 C610 1.516 . S
C610 C609 1.516 . S
C610 C611 1.502 . S
C610 C612 1.561 . S
C610 C613 1.526 . S
C611 H595 0.959 . S
C611 H596 0.959 . S
C611 H597 0.961 . S
C611 C610 1.502 . S
C612 H598 0.960 . S
C612 H599 0.961 . S
C612 H600 0.959 . S
C612 C610 1.561 . S
C613 C610 1.526 . S
C613 C614 1.396 . S
C613 C618 1.390 . S
C614 C608 1.465 . S
C614 C613 1.396 . S
C614 C615 1.399 . S
C615 H601 0.929 . S
C615 C614 1.399 . S
C615 C616 1.385 . S
C616 H602 0.931 . S
C616 C615 1.385 . S
C616 C617 1.389 . S
C617 C616 1.389 . S
C617 C618 1.387 . S
C618 H603 0.930 . S
C618 C613 1.390 . S
C618 C617 1.387 . S
H619 C631 0.930 . S
H620 C633 0.930 . S
H621 C634 0.930 . S
H622 C638 0.959 . S
H623 C638 0.959 . S
H624 C638 0.961 . S
H625 C639 0.960 . S
H626 C639 0.961 . S
H627 C639 0.959 . S
H628 C642 0.929 . S
H629 C643 0.931 . S
H630 C645 0.930 . S
C631 H619 0.930 . S
C631 C632 1.399 . S
C631 C636 1.399 . S
C632 C631 1.399 . S
C632 C633 1.376 . S
C633 H620 0.930 . S
C633 C632 1.376 . S
C633 C634 1.388 . S
C634 H621 0.930 . S
C634 C633 1.388 . S
C634 C635 1.390 . S
C635 C634 1.390 . S
C635 C636 1.394 . S
C635 C641 1.465 . S
C636 C631 1.399 . S
C636 C635 1.394 . S
C636 C637 1.516 . S
C637 C636 1.516 . S
C637 C638 1.502 . S
C637 C639 1.561 . S
C637 C640 1.526 . S
C638 H622 0.959 . S
C638 H623 0.959 . S
C638 H624 0.961 . S
C638 C637 1.502 . S
C639 H625 0.960 . S
C639 H626 0.961 . S
C639 H627 0.959 . S
C639 C637 1.561 . S
C640 C637 1.526 . S
C640 C641 1.396 . S
C640 C645 1.390 . S
C641 C635 1.465 . S
C641 C640 1.396 . S
C641 C642 1.399 . S
C642 H628 0.929 . S
C642 C641 1.399 . S
C642 C643 1.385 . S
C643 H629 0.931 . S
C643 C642 1.385 . S
C643 C644 1.389 . S
C644 C643 1.389 . S
C644 C645 1.387 . S
C645 H630 0.930 . S
C645 C640 1.390 . S
C645 C644 1.387 . S
H646 C658 0.930 . S
H647 C660 0.930 . S
H648 C661 0.930 . S
H649 C665 0.959 . S
H650 C665 0.959 . S
H651 C665 0.961 . S
H652 C666 0.960 . S
H653 C666 0.961 . S
H654 C666 0.959 . S
H655 C669 0.929 . S
H656 C670 0.931 . S
H657 C672 0.930 . S
C658 H646 0.930 . S
C658 C659 1.399 . S
C658 C663 1.399 . S
C659 C658 1.399 . S
C659 C660 1.376 . S
C660 H647 0.930 . S
C660 C659 1.376 . S
C660 C661 1.388 . S
C661 H648 0.930 . S
C661 C660 1.388 . S
C661 C662 1.390 . S
C662 C661 1.390 . S
C662 C663 1.394 . S
C662 C668 1.465 . S
C663 C658 1.399 . S
C663 C662 1.394 . S
C663 C664 1.516 . S
C664 C663 1.516 . S
C664 C665 1.502 . S
C664 C666 1.561 . S
C664 C667 1.526 . S
C665 H649 0.959 . S
C665 H650 0.959 . S
C665 H651 0.961 . S
C665 C664 1.502 . S
C666 H652 0.960 . S
C666 H653 0.961 . S
C666 H654 0.959 . S
C666 C664 1.561 . S
C667 C664 1.526 . S
C667 C668 1.396 . S
C667 C672 1.390 . S
C668 C662 1.465 . S
C668 C667 1.396 . S
C668 C669 1.399 . S
C669 H655 0.929 . S
C669 C668 1.399 . S
C669 C670 1.385 . S
C670 H656 0.931 . S
C670 C669 1.385 . S
C670 C671 1.389 . S
C671 C670 1.389 . S
C671 C672 1.387 . S
C672 H657 0.930 . S
C672 C667 1.390 . S
C672 C671 1.387 . S
H673 C685 0.930 . S
H674 C687 0.930 . S
H675 C688 0.930 . S
H676 C692 0.959 . S
H677 C692 0.959 . S
H678 C692 0.961 . S
H679 C693 0.960 . S
H680 C693 0.961 . S
H681 C693 0.959 . S
H682 C696 0.929 . S
H683 C697 0.931 . S
H684 C699 0.930 . S
C685 H673 0.930 . S
C685 C686 1.399 . S
C685 C690 1.399 . S
C686 C685 1.399 . S
C686 C687 1.376 . S
C687 H674 0.930 . S
C687 C686 1.376 . S
C687 C688 1.388 . S
C688 H675 0.930 . S
C688 C687 1.388 . S
C688 C689 1.390 . S
C689 C688 1.390 . S
C689 C690 1.394 . S
C689 C695 1.465 . S
C690 C685 1.399 . S
C690 C689 1.394 . S
C690 C691 1.516 . S
C691 C690 1.516 . S
C691 C692 1.502 . S
C691 C693 1.561 . S
C691 C694 1.526 . S
C692 H676 0.959 . S
C692 H677 0.959 . S
C692 H678 0.961 . S
C692 C691 1.502 . S
C693 H679 0.960 . S
C693 H680 0.961 . S
C693 H681 0.959 . S
C693 C691 1.561 . S
C694 C691 1.526 . S
C694 C695 1.396 . S
C694 C699 1.390 . S
C695 C689 1.465 . S
C695 C694 1.396 . S
C695 C696 1.399 . S
C696 H682 0.929 . S
C696 C695 1.399 . S
C696 C697 1.385 . S
C697 H683 0.931 . S
C697 C696 1.385 . S
C697 C698 1.389 . S
C698 C697 1.389 . S
C698 C699 1.387 . S
C699 H684 0.930 . S
C699 C694 1.390 . S
C699 C698 1.387 . S
H700 C712 0.930 . S
H701 C714 0.930 . S
H702 C715 0.930 . S
H703 C719 0.959 . S
H704 C719 0.959 . S
H705 C719 0.961 . S
H706 C720 0.960 . S
H707 C720 0.961 . S
H708 C720 0.959 . S
H709 C723 0.929 . S
H710 C724 0.931 . S
H711 C726 0.930 . S
C712 H700 0.930 . S
C712 C713 1.399 . S
C712 C717 1.399 . S
C713 C712 1.399 . S
C713 C714 1.376 . S
C714 H701 0.930 . S
C714 C713 1.376 . S
C714 C715 1.388 . S
C715 H702 0.930 . S
C715 C714 1.388 . S
C715 C716 1.390 . S
C716 C715 1.390 . S
C716 C717 1.394 . S
C716 C722 1.465 . S
C717 C712 1.399 . S
C717 C716 1.394 . S
C717 C718 1.516 . S
C718 C717 1.516 . S
C718 C719 1.502 . S
C718 C720 1.561 . S
C718 C721 1.526 . S
C719 H703 0.959 . S
C719 H704 0.959 . S
C719 H705 0.961 . S
C719 C718 1.502 . S
C720 H706 0.960 . S
C720 H707 0.961 . S
C720 H708 0.959 . S
C720 C718 1.561 . S
C721 C718 1.526 . S
C721 C722 1.396 . S
C721 C726 1.390 . S
C722 C716 1.465 . S
C722 C721 1.396 . S
C722 C723 1.399 . S
C723 H709 0.929 . S
C723 C722 1.399 . S
C723 C724 1.385 . S
C724 H710 0.931 . S
C724 C723 1.385 . S
C724 C725 1.389 . S
C725 C724 1.389 . S
C725 C726 1.387 . S
C726 H711 0.930 . S
C726 C721 1.390 . S
C726 C725 1.387 . S
H727 C739 0.930 . S
H728 C741 0.930 . S
H729 C742 0.930 . S
H730 C746 0.959 . S
H731 C746 0.959 . S
H732 C746 0.961 . S
H733 C747 0.960 . S
H734 C747 0.961 . S
H735 C747 0.959 . S
H736 C750 0.929 . S
H737 C751 0.931 . S
H738 C753 0.930 . S
C739 H727 0.930 . S
C739 C740 1.399 . S
C739 C744 1.399 . S
C740 C739 1.399 . S
C740 C741 1.376 . S
C741 H728 0.930 . S
C741 C740 1.376 . S
C741 C742 1.388 . S
C742 H729 0.930 . S
C742 C741 1.388 . S
C742 C743 1.390 . S
C743 C742 1.390 . S
C743 C744 1.394 . S
C743 C749 1.465 . S
C744 C739 1.399 . S
C744 C743 1.394 . S
C744 C745 1.516 . S
C745 C744 1.516 . S
C745 C746 1.502 . S
C745 C747 1.561 . S
C745 C748 1.526 . S
C746 H730 0.959 . S
C746 H731 0.959 . S
C746 H732 0.961 . S
C746 C745 1.502 . S
C747 H733 0.960 . S
C747 H734 0.961 . S
C747 H735 0.959 . S
C747 C745 1.561 . S
C748 C745 1.526 . S
C748 C749 1.396 . S
C748 C753 1.390 . S
C749 C743 1.465 . S
C749 C748 1.396 . S
C749 C750 1.399 . S
C750 H736 0.929 . S
C750 C749 1.399 . S
C750 C751 1.385 . S
C751 H737 0.931 . S
C751 C750 1.385 . S
C751 C752 1.389 . S
C752 C751 1.389 . S
C752 C753 1.387 . S
C753 H738 0.930 . S
C753 C748 1.390 . S
C753 C752 1.387 . S
H754 C766 0.930 . S
H755 C768 0.930 . S
H756 C769 0.930 . S
H757 C773 0.959 . S
H758 C773 0.959 . S
H759 C773 0.961 . S
H760 C774 0.960 . S
H761 C774 0.961 . S
H762 C774 0.959 . S
H763 C777 0.929 . S
H764 C778 0.931 . S
H765 C780 0.930 . S
C766 H754 0.930 . S
C766 C767 1.399 . S
C766 C771 1.399 . S
C767 C766 1.399 . S
C767 C768 1.376 . S
C768 H755 0.930 . S
C768 C767 1.376 . S
C768 C769 1.388 . S
C769 H756 0.930 . S
C769 C768 1.388 . S
C769 C770 1.390 . S
C770 C769 1.390 . S
C770 C771 1.394 . S
C770 C776 1.465 . S
C771 C766 1.399 . S
C771 C770 1.394 . S
C771 C772 1.516 . S
C772 C771 1.516 . S
C772 C773 1.502 . S
C772 C774 1.561 . S
C772 C775 1.526 . S
C773 H757 0.959 . S
C773 H758 0.959 . S
C773 H759 0.961 . S
C773 C772 1.502 . S
C774 H760 0.960 . S
C774 H761 0.961 . S
C774 H762 0.959 . S
C774 C772 1.561 . S
C775 C772 1.526 . S
C775 C776 1.396 . S
C775 C780 1.390 . S
C776 C770 1.465 . S
C776 C775 1.396 . S
C776 C777 1.399 . S
C777 H763 0.929 . S
C777 C776 1.399 . S
C777 C778 1.385 . S
C778 H764 0.931 . S
C778 C777 1.385 . S
C778 C779 1.389 . S
C779 C778 1.389 . S
C779 C780 1.387 . S
C780 H765 0.930 . S
C780 C775 1.390 . S
C780 C779 1.387 . S
H781 C793 0.930 . S
H782 C795 0.930 . S
H783 C796 0.930 . S
H784 C800 0.959 . S
H785 C800 0.959 . S
H786 C800 0.961 . S
H787 C801 0.960 . S
H788 C801 0.961 . S
H789 C801 0.959 . S
H790 C804 0.929 . S
H791 C805 0.931 . S
H792 C807 0.930 . S
C793 H781 0.930 . S
C793 C794 1.399 . S
C793 C798 1.399 . S
C794 C793 1.399 . S
C794 C795 1.376 . S
C795 H782 0.930 . S
C795 C794 1.376 . S
C795 C796 1.388 . S
C796 H783 0.930 . S
C796 C795 1.388 . S
C796 C797 1.390 . S
C797 C796 1.390 . S
C797 C798 1.394 . S
C797 C803 1.465 . S
C798 C793 1.399 . S
C798 C797 1.394 . S
C798 C799 1.516 . S
C799 C798 1.516 . S
C799 C800 1.502 . S
C799 C801 1.561 . S
C799 C802 1.526 . S
C800 H784 0.959 . S
C800 H785 0.959 . S
C800 H786 0.961 . S
C800 C799 1.502 . S
C801 H787 0.960 . S
C801 H788 0.961 . S
C801 H789 0.959 . S
C801 C799 1.561 . S
C802 C799 1.526 . S
C802 C803 1.396 . S
C802 C807 1.390 . S
C803 C797 1.465 . S
C803 C802 1.396 . S
C803 C804 1.399 . S
C804 H790 0.929 . S
C804 C803 1.399 . S
C804 C805 1.385 . S
C805 H791 0.931 . S
C805 C804 1.385 . S
C805 C806 1.389 . S
C806 C805 1.389 . S
C806 C807 1.387 . S
C807 H792 0.930 . S
C807 C802 1.390 . S
C807 C806 1.387 . S
H808 C820 0.930 . S
H809 C822 0.930 . S
H810 C823 0.930 . S
H811 C827 0.959 . S
H812 C827 0.959 . S
H813 C827 0.961 . S
H814 C828 0.960 . S
H815 C828 0.961 . S
H816 C828 0.959 . S
H817 C831 0.929 . S
H818 C832 0.931 . S
H819 C834 0.930 . S
C820 H808 0.930 . S
C820 C821 1.399 . S
C820 C825 1.399 . S
C821 C820 1.399 . S
C821 C822 1.376 . S
C822 H809 0.930 . S
C822 C821 1.376 . S
C822 C823 1.388 . S
C823 H810 0.930 . S
C823 C822 1.388 . S
C823 C824 1.390 . S
C824 C823 1.390 . S
C824 C825 1.394 . S
C824 C830 1.465 . S
C825 C820 1.399 . S
C825 C824 1.394 . S
C825 C826 1.516 . S
C826 C825 1.516 . S
C826 C827 1.502 . S
C826 C828 1.561 . S
C826 C829 1.526 . S
C827 H811 0.959 . S
C827 H812 0.959 . S
C827 H813 0.961 . S
C827 C826 1.502 . S
C828 H814 0.960 . S
C828 H815 0.961 . S
C828 H816 0.959 . S
C828 C826 1.561 . S
C829 C826 1.526 . S
C829 C830 1.396 . S
C829 C834 1.390 . S
C830 C824 1.465 . S
C830 C829 1.396 . S
C830 C831 1.399 . S
C831 H817 0.929 . S
C831 C830 1.399 . S
C831 C832 1.385 . S
C832 H818 0.931 . S
C832 C831 1.385 . S
C832 C833 1.389 . S
C833 C832 1.389 . S
C833 C834 1.387 . S
C834 H819 0.930 . S
C834 C829 1.390 . S
C834 C833 1.387 . S
H835 C847 0.930 . S
H836 C849 0.930 . S
H837 C850 0.930 . S
H838 C854 0.959 . S
H839 C854 0.959 . S
H840 C854 0.961 . S
H841 C855 0.960 . S
H842 C855 0.961 . S
H843 C855 0.959 . S
H844 C858 0.929 . S
H845 C859 0.931 . S
H846 C861 0.930 . S
C847 H835 0.930 . S
C847 C848 1.399 . S
C847 C852 1.399 . S
C848 C847 1.399 . S
C848 C849 1.376 . S
C849 H836 0.930 . S
C849 C848 1.376 . S
C849 C850 1.388 . S
C850 H837 0.930 . S
C850 C849 1.388 . S
C850 C851 1.390 . S
C851 C850 1.390 . S
C851 C852 1.394 . S
C851 C857 1.465 . S
C852 C847 1.399 . S
C852 C851 1.394 . S
C852 C853 1.516 . S
C853 C852 1.516 . S
C853 C854 1.502 . S
C853 C855 1.561 . S
C853 C856 1.526 . S
C854 H838 0.959 . S
C854 H839 0.959 . S
C854 H840 0.961 . S
C854 C853 1.502 . S
C855 H841 0.960 . S
C855 H842 0.961 . S
C855 H843 0.959 . S
C855 C853 1.561 . S
C856 C853 1.526 . S
C856 C857 1.396 . S
C856 C861 1.390 . S
C857 C851 1.465 . S
C857 C856 1.396 . S
C857 C858 1.399 . S
C858 H844 0.929 . S
C858 C857 1.399 . S
C858 C859 1.385 . S
C859 H845 0.931 . S
C859 C858 1.385 . S
C859 C860 1.389 . S
C860 C859 1.389 . S
C860 C861 1.387 . S
C861 H846 0.930 . S
C861 C856 1.390 . S
C861 C860 1.387 . S
H862 C874 0.930 . S
H863 C876 0.930 . S
H864 C877 0.930 . S
H865 C881 0.959 . S
H866 C881 0.959 . S
H867 C881 0.961 . S
H868 C882 0.960 . S
H869 C882 0.961 . S
H870 C882 0.959 . S
H871 C885 0.929 . S
H872 C886 0.931 . S
H873 C888 0.930 . S
C874 H862 0.930 . S
C874 C875 1.399 . S
C874 C879 1.399 . S
C875 C874 1.399 . S
C875 C876 1.376 . S
C876 H863 0.930 . S
C876 C875 1.376 . S
C876 C877 1.388 . S
C877 H864 0.930 . S
C877 C876 1.388 . S
C877 C878 1.390 . S
C878 C877 1.390 . S
C878 C879 1.394 . S
C878 C884 1.465 . S
C879 C874 1.399 . S
C879 C878 1.394 . S
C879 C880 1.516 . S
C880 C879 1.516 . S
C880 C881 1.502 . S
C880 C882 1.561 . S
C880 C883 1.526 . S
C881 H865 0.959 . S
C881 H866 0.959 . S
C881 H867 0.961 . S
C881 C880 1.502 . S
C882 H868 0.960 . S
C882 H869 0.961 . S
C882 H870 0.959 . S
C882 C880 1.561 . S
C883 C880 1.526 . S
C883 C884 1.396 . S
C883 C888 1.390 . S
C884 C878 1.465 . S
C884 C883 1.396 . S
C884 C885 1.399 . S
C885 H871 0.929 . S
C885 C884 1.399 . S
C885 C886 1.385 . S
C886 H872 0.931 . S
C886 C885 1.385 . S
C886 C887 1.389 . S
C887 C886 1.389 . S
C887 C888 1.387 . S
C888 H873 0.930 . S
C888 C883 1.390 . S
C888 C887 1.387 . S
H889 C901 0.930 . S
H890 C903 0.930 . S
H891 C904 0.930 . S
H892 C908 0.959 . S
H893 C908 0.959 . S
H894 C908 0.961 . S
H895 C909 0.960 . S
H896 C909 0.961 . S
H897 C909 0.959 . S
H898 C912 0.929 . S
H899 C913 0.931 . S
H900 C915 0.930 . S
C901 H889 0.930 . S
C901 C902 1.399 . S
C901 C906 1.399 . S
C902 C901 1.399 . S
C902 C903 1.376 . S
C903 H890 0.930 . S
C903 C902 1.376 . S
C903 C904 1.388 . S
C904 H891 0.930 . S
C904 C903 1.388 . S
C904 C905 1.390 . S
C905 C904 1.390 . S
C905 C906 1.394 . S
C905 C911 1.465 . S
C906 C901 1.399 . S
C906 C905 1.394 . S
C906 C907 1.516 . S
C907 C906 1.516 . S
C907 C908 1.502 . S
C907 C909 1.561 . S
C907 C910 1.526 . S
C908 H892 0.959 . S
C908 H893 0.959 . S
C908 H894 0.961 . S
C908 C907 1.502 . S
C909 H895 0.960 . S
C909 H896 0.961 . S
C909 H897 0.959 . S
C909 C907 1.561 . S
C910 C907 1.526 . S
C910 C911 1.396 . S
C910 C915 1.390 . S
C911 C905 1.465 . S
C911 C910 1.396 . S
C911 C912 1.399 . S
C912 H898 0.929 . S
C912 C911 1.399 . S
C912 C913 1.385 . S
C913 H899 0.931 . S
C913 C912 1.385 . S
C913 C914 1.389 . S
C914 C913 1.389 . S
C914 C915 1.387 . S
C915 H900 0.930 . S
C915 C910 1.390 . S
C915 C914 1.387 . S
H916 C928 0.930 . S
H917 C930 0.930 . S
H918 C931 0.930 . S
H919 C935 0.959 . S
H920 C935 0.959 . S
H921 C935 0.961 . S
H922 C936 0.960 . S
H923 C936 0.961 . S
H924 C936 0.959 . S
H925 C939 0.929 . S
H926 C940 0.931 . S
H927 C942 0.930 . S
C928 H916 0.930 . S
C928 C929 1.399 . S
C928 C933 1.399 . S
C929 C928 1.399 . S
C929 C930 1.376 . S
C930 H917 0.930 . S
C930 C929 1.376 . S
C930 C931 1.388 . S
C931 H918 0.930 . S
C931 C930 1.388 . S
C931 C932 1.390 . S
C932 C931 1.390 . S
C932 C933 1.394 . S
C932 C938 1.465 . S
C933 C928 1.399 . S
C933 C932 1.394 . S
C933 C934 1.516 . S
C934 C933 1.516 . S
C934 C935 1.502 . S
C934 C936 1.561 . S
C934 C937 1.526 . S
C935 H919 0.959 . S
C935 H920 0.959 . S
C935 H921 0.961 . S
C935 C934 1.502 . S
C936 H922 0.960 . S
C936 H923 0.961 . S
C936 H924 0.959 . S
C936 C934 1.561 . S
C937 C934 1.526 . S
C937 C938 1.396 . S
C937 C942 1.390 . S
C938 C932 1.465 . S
C938 C937 1.396 . S
C938 C939 1.399 . S
C939 H925 0.929 . S
C939 C938 1.399 . S
C939 C940 1.385 . S
C940 H926 0.931 . S
C940 C939 1.385 . S
C940 C941 1.389 . S
C941 C940 1.389 . S
C941 C942 1.387 . S
C942 H927 0.930 . S
C942 C937 1.390 . S
C942 C941 1.387 . S
H943 C955 0.930 . S
H944 C957 0.930 . S
H945 C958 0.930 . S
H946 C962 0.959 . S
H947 C962 0.959 . S
H948 C962 0.961 . S
H949 C963 0.960 . S
H950 C963 0.961 . S
H951 C963 0.959 . S
H952 C966 0.929 . S
H953 C967 0.931 . S
H954 C969 0.930 . S
C955 H943 0.930 . S
C955 C956 1.399 . S
C955 C960 1.399 . S
C956 C955 1.399 . S
C956 C957 1.376 . S
C957 H944 0.930 . S
C957 C956 1.376 . S
C957 C958 1.388 . S
C958 H945 0.930 . S
C958 C957 1.388 . S
C958 C959 1.390 . S
C959 C958 1.390 . S
C959 C960 1.394 . S
C959 C965 1.465 . S
C960 C955 1.399 . S
C960 C959 1.394 . S
C960 C961 1.516 . S
C961 C960 1.516 . S
C961 C962 1.502 . S
C961 C963 1.561 . S
C961 C964 1.526 . S
C962 H946 0.959 . S
C962 H947 0.959 . S
C962 H948 0.961 . S
C962 C961 1.502 . S
C963 H949 0.960 . S
C963 H950 0.961 . S
C963 H951 0.959 . S
C963 C961 1.561 . S
C964 C961 1.526 . S
C964 C965 1.396 . S
C964 C969 1.390 . S
C965 C959 1.465 . S
C965 C964 1.396 . S
C965 C966 1.399 . S
C966 H952 0.929 . S
C966 C965 1.399 . S
C966 C967 1.385 . S
C967 H953 0.931 . S
C967 C966 1.385 . S
C967 C968 1.389 . S
C968 C967 1.389 . S
C968 C969 1.387 . S
C969 H954 0.930 . S
C969 C964 1.390 . S
C969 C968 1.387 . S
H970 C982 0.930 . S
H971 C984 0.930 . S
H972 C985 0.930 . S
H973 C989 0.959 . S
H974 C989 0.959 . S
H975 C989 0.961 . S
H976 C990 0.960 . S
H977 C990 0.961 . S
H978 C990 0.959 . S
H979 C993 0.929 . S
H980 C994 0.931 . S
H981 C996 0.930 . S
C982 H970 0.930 . S
C982 C983 1.399 . S
C982 C987 1.399 . S
C983 C982 1.399 . S
C983 C984 1.376 . S
C984 H971 0.930 . S
C984 C983 1.376 . S
C984 C985 1.388 . S
C985 H972 0.930 . S
C985 C984 1.388 . S
C985 C986 1.390 . S
C986 C985 1.390 . S
C986 C987 1.394 . S
C986 C992 1.465 . S
C987 C982 1.399 . S
C987 C986 1.394 . S
C987 C988 1.516 . S
C988 C987 1.516 . S
C988 C989 1.502 . S
C988 C990 1.561 . S
C988 C991 1.526 . S
C989 H973 0.959 . S
C989 H974 0.959 . S
C989 H975 0.961 . S
C989 C988 1.502 . S
C990 H976 0.960 . S
C990 H977 0.961 . S
C990 H978 0.959 . S
C990 C988 1.561 . S
C991 C988 1.526 . S
C991 C992 1.396 . S
C991 C996 1.390 . S
C992 C986 1.465 . S
C992 C991 1.396 . S
C992 C993 1.399 . S
C993 H979 0.929 . S
C993 C992 1.399 . S
C993 C994 1.385 . S
C994 H980 0.931 . S
C994 C993 1.385 . S
C994 C995 1.389 . S
C995 C994 1.389 . S
C995 C996 1.387 . S
C996 H981 0.930 . S
C996 C991 1.390 . S
C996 C995 1.387 . S
H997 C1009 0.930 . S
H998 C1011 0.930 . S
H999 C1012 0.930 . S
H1000 C1016 0.959 . S
H1001 C1016 0.959 . S
H1002 C1016 0.961 . S
H1003 C1017 0.960 . S
H1004 C1017 0.961 . S
H1005 C1017 0.959 . S
H1006 C1020 0.929 . S
H1007 C1021 0.931 . S
H1008 C1023 0.930 . S
C1009 H997 0.930 . S
C1009 C1010 1.399 . S
C1009 C1014 1.399 . S
C1010 C1009 1.399 . S
C1010 C1011 1.376 . S
C1011 H998 0.930 . S
C1011 C1010 1.376 . S
C1011 C1012 1.388 . S
C1012 H999 0.930 . S
C1012 C1011 1.388 . S
C1012 C1013 1.390 . S
C1013 C1012 1.390 . S
C1013 C1014 1.394 . S
C1013 C1019 1.465 . S
C1014 C1009 1.399 . S
C1014 C1013 1.394 . S
C1014 C1015 1.516 . S
C1015 C1014 1.516 . S
C1015 C1016 1.502 . S
C1015 C1017 1.561 . S
C1015 C1018 1.526 . S
C1016 H1000 0.959 . S
C1016 H1001 0.959 . S
C1016 H1002 0.961 . S
C1016 C1015 1.502 . S
C1017 H1003 0.960 . S
C1017 H1004 0.961 . S
C1017 H1005 0.959 . S
C1017 C1015 1.561 . S
C1018 C1015 1.526 . S
C1018 C1019 1.396 . S
C1018 C1023 1.390 . S
C1019 C1013 1.465 . S
C1019 C1018 1.396 . S
C1019 C1020 1.399 . S
C1020 H1006 0.929 . S
C1020 C1019 1.399 . S
C1020 C1021 1.385 . S
C1021 H1007 0.931 . S
C1021 C1020 1.385 . S
C1021 C1022 1.389 . S
C1022 C1021 1.389 . S
C1022 C1023 1.387 . S
C1023 H1008 0.930 . S
C1023 C1018 1.390 . S
C1023 C1022 1.387 . S
H1024 C1036 0.930 . S
H1025 C1038 0.930 . S
H1026 C1039 0.930 . S
H1027 C1043 0.959 . S
H1028 C1043 0.959 . S
H1029 C1043 0.961 . S
H1030 C1044 0.960 . S
H1031 C1044 0.961 . S
H1032 C1044 0.959 . S
H1033 C1047 0.929 . S
H1034 C1048 0.931 . S
H1035 C1050 0.930 . S
C1036 H1024 0.930 . S
C1036 C1037 1.399 . S
C1036 C1041 1.399 . S
C1037 C1036 1.399 . S
C1037 C1038 1.376 . S
C1038 H1025 0.930 . S
C1038 C1037 1.376 . S
C1038 C1039 1.388 . S
C1039 H1026 0.930 . S
C1039 C1038 1.388 . S
C1039 C1040 1.390 . S
C1040 C1039 1.390 . S
C1040 C1041 1.394 . S
C1040 C1046 1.465 . S
C1041 C1036 1.399 . S
C1041 C1040 1.394 . S
C1041 C1042 1.516 . S
C1042 C1041 1.516 . S
C1042 C1043 1.502 . S
C1042 C1044 1.561 . S
C1042 C1045 1.526 . S
C1043 H1027 0.959 . S
C1043 H1028 0.959 . S
C1043 H1029 0.961 . S
C1043 C1042 1.502 . S
C1044 H1030 0.960 . S
C1044 H1031 0.961 . S
C1044 H1032 0.959 . S
C1044 C1042 1.561 . S
C1045 C1042 1.526 . S
C1045 C1046 1.396 . S
C1045 C1050 1.390 . S
C1046 C1040 1.465 . S
C1046 C1045 1.396 . S
C1046 C1047 1.399 . S
C1047 H1033 0.929 . S
C1047 C1046 1.399 . S
C1047 C1048 1.385 . S
C1048 H1034 0.931 . S
C1048 C1047 1.385 . S
C1048 C1049 1.389 . S
C1049 C1048 1.389 . S
C1049 C1050 1.387 . S
C1050 H1035 0.930 . S
C1050 C1045 1.390 . S
C1050 C1049 1.387 . S
H1051 C1063 0.930 . S
H1052 C1065 0.930 . S
H1053 C1066 0.930 . S
H1054 C1070 0.959 . S
H1055 C1070 0.959 . S
H1056 C1070 0.961 . S
H1057 C1071 0.960 . S
H1058 C1071 0.961 . S
H1059 C1071 0.959 . S
H1060 C1074 0.929 . S
H1061 C1075 0.931 . S
H1062 C1077 0.930 . S
C1063 H1051 0.930 . S
C1063 C1064 1.399 . S
C1063 C1068 1.399 . S
C1064 C1063 1.399 . S
C1064 C1065 1.376 . S
C1065 H1052 0.930 . S
C1065 C1064 1.376 . S
C1065 C1066 1.388 . S
C1066 H1053 0.930 . S
C1066 C1065 1.388 . S
C1066 C1067 1.390 . S
C1067 C1066 1.390 . S
C1067 C1068 1.394 . S
C1067 C1073 1.465 . S
C1068 C1063 1.399 . S
C1068 C1067 1.394 . S
C1068 C1069 1.516 . S
C1069 C1068 1.516 . S
C1069 C1070 1.502 . S
C1069 C1071 1.561 . S
C1069 C1072 1.526 . S
C1070 H1054 0.959 . S
C1070 H1055 0.959 . S
C1070 H1056 0.961 . S
C1070 C1069 1.502 . S
C1071 H1057 0.960 . S
C1071 H1058 0.961 . S
C1071 H1059 0.959 . S
C1071 C1069 1.561 . S
C1072 C1069 1.526 . S
C1072 C1073 1.396 . S
C1072 C1077 1.390 . S
C1073 C1067 1.465 . S
C1073 C1072 1.396 . S
C1073 C1074 1.399 . S
C1074 H1060 0.929 . S
C1074 C1073 1.399 . S
C1074 C1075 1.385 . S
C1075 H1061 0.931 . S
C1075 C1074 1.385 . S
C1075 C1076 1.389 . S
C1076 C1075 1.389 . S
C1076 C1077 1.387 . S
C1077 H1062 0.930 . S
C1077 C1072 1.390 . S
C1077 C1076 1.387 . S
H1078 C1090 0.930 . S
H1079 C1092 0.930 . S
H1080 C1093 0.930 . S
H1081 C1097 0.959 . S
H1082 C1097 0.959 . S
H1083 C1097 0.961 . S
H1084 C1098 0.960 . S
H1085 C1098 0.961 . S
H1086 C1098 0.959 . S
H1087 C1101 0.929 . S
H1088 C1102 0.931 . S
H1089 C1104 0.930 . S
C1090 H1078 0.930 . S
C1090 C1091 1.399 . S
C1090 C1095 1.399 . S
C1091 C1090 1.399 . S
C1091 C1092 1.376 . S
C1092 H1079 0.930 . S
C1092 C1091 1.376 . S
C1092 C1093 1.388 . S
C1093 H1080 0.930 . S
C1093 C1092 1.388 . S
C1093 C1094 1.390 . S
C1094 C1093 1.390 . S
C1094 C1095 1.394 . S
C1094 C1100 1.465 . S
C1095 C1090 1.399 . S
C1095 C1094 1.394 . S
C1095 C1096 1.516 . S
C1096 C1095 1.516 . S
C1096 C1097 1.502 . S
C1096 C1098 1.561 . S
C1096 C1099 1.526 . S
C1097 H1081 0.959 . S
C1097 H1082 0.959 . S
C1097 H1083 0.961 . S
C1097 C1096 1.502 . S
C1098 H1084 0.960 . S
C1098 H1085 0.961 . S
C1098 H1086 0.959 . S
C1098 C1096 1.561 . S
C1099 C1096 1.526 . S
C1099 C1100 1.396 . S
C1099 C1104 1.390 . S
C1100 C1094 1.465 . S
C1100 C1099 1.396 . S
C1100 C1101 1.399 . S
C1101 H1087 0.929 . S
C1101 C1100 1.399 . S
C1101 C1102 1.385 . S
C1102 H1088 0.931 . S
C1102 C1101 1.385 . S
C1102 C1103 1.389 . S
C1103 C1102 1.389 . S
C1103 C1104 1.387 . S
C1104 H1089 0.930 . S
C1104 C1099 1.390 . S
C1104 C1103 1.387 . S
H1105 C1117 0.930 . S
H1106 C1119 0.930 . S
H1107 C1120 0.930 . S
H1108 C1124 0.959 . S
H1109 C1124 0.959 . S
H1110 C1124 0.961 . S
H1111 C1125 0.960 . S
H1112 C1125 0.961 . S
H1113 C1125 0.959 . S
H1114 C1128 0.929 . S
H1115 C1129 0.931 . S
H1116 C1131 0.930 . S
C1117 H1105 0.930 . S
C1117 C1118 1.399 . S
C1117 C1122 1.399 . S
C1118 C1117 1.399 . S
C1118 C1119 1.376 . S
C1119 H1106 0.930 . S
C1119 C1118 1.376 . S
C1119 C1120 1.388 . S
C1120 H1107 0.930 . S
C1120 C1119 1.388 . S
C1120 C1121 1.390 . S
C1121 C1120 1.390 . S
C1121 C1122 1.394 . S
C1121 C1127 1.465 . S
C1122 C1117 1.399 . S
C1122 C1121 1.394 . S
C1122 C1123 1.516 . S
C1123 C1122 1.516 . S
C1123 C1124 1.502 . S
C1123 C1125 1.561 . S
C1123 C1126 1.526 . S
C1124 H1108 0.959 . S
C1124 H1109 0.959 . S
C1124 H1110 0.961 . S
C1124 C1123 1.502 . S
C1125 H1111 0.960 . S
C1125 H1112 0.961 . S
C1125 H1113 0.959 . S
C1125 C1123 1.561 . S
C1126 C1123 1.526 . S
C1126 C1127 1.396 . S
C1126 C1131 1.390 . S
C1127 C1121 1.465 . S
C1127 C1126 1.396 . S
C1127 C1128 1.399 . S
C1128 H1114 0.929 . S
C1128 C1127 1.399 . S
C1128 C1129 1.385 . S
C1129 H1115 0.931 . S
C1129 C1128 1.385 . S
C1129 C1130 1.389 . S
C1130 C1129 1.389 . S
C1130 C1131 1.387 . S
C1131 H1116 0.930 . S
C1131 C1126 1.390 . S
C1131 C1130 1.387 . S
H1132 C1144 0.930 . S
H1133 C1146 0.930 . S
H1134 C1147 0.930 . S
H1135 C1151 0.959 . S
H1136 C1151 0.959 . S
H1137 C1151 0.961 . S
H1138 C1152 0.960 . S
H1139 C1152 0.961 . S
H1140 C1152 0.959 . S
H1141 C1155 0.929 . S
H1142 C1156 0.931 . S
H1143 C1158 0.930 . S
C1144 H1132 0.930 . S
C1144 C1145 1.399 . S
C1144 C1149 1.399 . S
C1145 C1144 1.399 . S
C1145 C1146 1.376 . S
C1146 H1133 0.930 . S
C1146 C1145 1.376 . S
C1146 C1147 1.388 . S
C1147 H1134 0.930 . S
C1147 C1146 1.388 . S
C1147 C1148 1.390 . S
C1148 C1147 1.390 . S
C1148 C1149 1.394 . S
C1148 C1154 1.465 . S
C1149 C1144 1.399 . S
C1149 C1148 1.394 . S
C1149 C1150 1.516 . S
C1150 C1149 1.516 . S
C1150 C1151 1.502 . S
C1150 C1152 1.561 . S
C1150 C1153 1.526 . S
C1151 H1135 0.959 . S
C1151 H1136 0.959 . S
C1151 H1137 0.961 . S
C1151 C1150 1.502 . S
C1152 H1138 0.960 . S
C1152 H1139 0.961 . S
C1152 H1140 0.959 . S
C1152 C1150 1.561 . S
C1153 C1150 1.526 . S
C1153 C1154 1.396 . S
C1153 C1158 1.390 . S
C1154 C1148 1.465 . S
C1154 C1153 1.396 . S
C1154 C1155 1.399 . S
C1155 H1141 0.929 . S
C1155 C1154 1.399 . S
C1155 C1156 1.385 . S
C1156 H1142 0.931 . S
C1156 C1155 1.385 . S
C1156 C1157 1.389 . S
C1157 C1156 1.389 . S
C1157 C1158 1.387 . S
C1158 H1143 0.930 . S
C1158 C1153 1.390 . S
C1158 C1157 1.387 . S
H1159 C1171 0.930 . S
H1160 C1173 0.930 . S
H1161 C1174 0.930 . S
H1162 C1178 0.959 . S
H1163 C1178 0.959 . S
H1164 C1178 0.961 . S
H1165 C1179 0.960 . S
H1166 C1179 0.961 . S
H1167 C1179 0.959 . S
H1168 C1182 0.929 . S
H1169 C1183 0.931 . S
H1170 C1185 0.930 . S
C1171 H1159 0.930 . S
C1171 C1172 1.399 . S
C1171 C1176 1.399 . S
C1172 C1171 1.399 . S
C1172 C1173 1.376 . S
C1173 H1160 0.930 . S
C1173 C1172 1.376 . S
C1173 C1174 1.388 . S
C1174 H1161 0.930 . S
C1174 C1173 1.388 . S
C1174 C1175 1.390 . S
C1175 C1174 1.390 . S
C1175 C1176 1.394 . S
C1175 C1181 1.465 . S
C1176 C1171 1.399 . S
C1176 C1175 1.394 . S
C1176 C1177 1.516 . S
C1177 C1176 1.516 . S
C1177 C1178 1.502 . S
C1177 C1179 1.561 . S
C1177 C1180 1.526 . S
C1178 H1162 0.959 . S
C1178 H1163 0.959 . S
C1178 H1164 0.961 . S
C1178 C1177 1.502 . S
C1179 H1165 0.960 . S
C1179 H1166 0.961 . S
C1179 H1167 0.959 . S
C1179 C1177 1.561 . S
C1180 C1177 1.526 . S
C1180 C1181 1.396 . S
C1180 C1185 1.390 . S
C1181 C1175 1.465 . S
C1181 C1180 1.396 . S
C1181 C1182 1.399 . S
C1182 H1168 0.929 . S
C1182 C1181 1.399 . S
C1182 C1183 1.385 . S
C1183 H1169 0.931 . S
C1183 C1182 1.385 . S
C1183 C1184 1.389 . S
C1184 C1183 1.389 . S
C1184 C1185 1.387 . S
C1185 H1170 0.930 . S
C1185 C1180 1.390 . S
C1185 C1184 1.387 . S
H1186 C1198 0.930 . S
H1187 C1200 0.930 . S
H1188 C1201 0.930 . S
H1189 C1205 0.959 . S
H1190 C1205 0.959 . S
H1191 C1205 0.961 . S
H1192 C1206 0.960 . S
H1193 C1206 0.961 . S
H1194 C1206 0.959 . S
H1195 C1209 0.929 . S
H1196 C1210 0.931 . S
H1197 C1212 0.930 . S
C1198 H1186 0.930 . S
C1198 C1199 1.399 . S
C1198 C1203 1.399 . S
C1199 C1198 1.399 . S
C1199 C1200 1.376 . S
C1200 H1187 0.930 . S
C1200 C1199 1.376 . S
C1200 C1201 1.388 . S
C1201 H1188 0.930 . S
C1201 C1200 1.388 . S
C1201 C1202 1.390 . S
C1202 C1201 1.390 . S
C1202 C1203 1.394 . S
C1202 C1208 1.465 . S
C1203 C1198 1.399 . S
C1203 C1202 1.394 . S
C1203 C1204 1.516 . S
C1204 C1203 1.516 . S
C1204 C1205 1.502 . S
C1204 C1206 1.561 . S
C1204 C1207 1.526 . S
C1205 H1189 0.959 . S
C1205 H1190 0.959 . S
C1205 H1191 0.961 . S
C1205 C1204 1.502 . S
C1206 H1192 0.960 . S
C1206 H1193 0.961 . S
C1206 H1194 0.959 . S
C1206 C1204 1.561 . S
C1207 C1204 1.526 . S
C1207 C1208 1.396 . S
C1207 C1212 1.390 . S
C1208 C1202 1.465 . S
C1208 C1207 1.396 . S
C1208 C1209 1.399 . S
C1209 H1195 0.929 . S
C1209 C1208 1.399 . S
C1209 C1210 1.385 . S
C1210 H1196 0.931 . S
C1210 C1209 1.385 . S
C1210 C1211 1.389 . S
C1211 C1210 1.389 . S
C1211 C1212 1.387 . S
C1212 H1197 0.930 . S
C1212 C1207 1.390 . S
C1212 C1211 1.387 . S
H1213 C1225 0.930 . S
H1214 C1227 0.930 . S
H1215 C1228 0.930 . S
H1216 C1232 0.959 . S
H1217 C1232 0.959 . S
H1218 C1232 0.961 . S
H1219 C1233 0.960 . S
H1220 C1233 0.961 . S
H1221 C1233 0.959 . S
H1222 C1236 0.929 . S
H1223 C1237 0.931 . S
H1224 C1239 0.930 . S
C1225 H1213 0.930 . S
C1225 C1226 1.399 . S
C1225 C1230 1.399 . S
C1226 C1225 1.399 . S
C1226 C1227 1.376 . S
C1227 H1214 0.930 . S
C1227 C1226 1.376 . S
C1227 C1228 1.388 . S
C1228 H1215 0.930 . S
C1228 C1227 1.388 . S
C1228 C1229 1.390 . S
C1229 C1228 1.390 . S
C1229 C1230 1.394 . S
C1229 C1235 1.465 . S
C1230 C1225 1.399 . S
C1230 C1229 1.394 . S
C1230 C1231 1.516 . S
C1231 C1230 1.516 . S
C1231 C1232 1.502 . S
C1231 C1233 1.561 . S
C1231 C1234 1.526 . S
C1232 H1216 0.959 . S
C1232 H1217 0.959 . S
C1232 H1218 0.961 . S
C1232 C1231 1.502 . S
C1233 H1219 0.960 . S
C1233 H1220 0.961 . S
C1233 H1221 0.959 . S
C1233 C1231 1.561 . S
C1234 C1231 1.526 . S
C1234 C1235 1.396 . S
C1234 C1239 1.390 . S
C1235 C1229 1.465 . S
C1235 C1234 1.396 . S
C1235 C1236 1.399 . S
C1236 H1222 0.929 . S
C1236 C1235 1.399 . S
C1236 C1237 1.385 . S
C1237 H1223 0.931 . S
C1237 C1236 1.385 . S
C1237 C1238 1.389 . S
C1238 C1237 1.389 . S
C1238 C1239 1.387 . S
C1239 H1224 0.930 . S
C1239 C1234 1.390 . S
C1239 C1238 1.387 . S
H1240 C1252 0.930 . S
H1241 C1254 0.930 . S
H1242 C1255 0.930 . S
H1243 C1259 0.959 . S
H1244 C1259 0.959 . S
H1245 C1259 0.961 . S
H1246 C1260 0.960 . S
H1247 C1260 0.961 . S
H1248 C1260 0.959 . S
H1249 C1263 0.929 . S
H1250 C1264 0.931 . S
H1251 C1266 0.930 . S
C1252 H1240 0.930 . S
C1252 C1253 1.399 . S
C1252 C1257 1.399 . S
C1253 C1252 1.399 . S
C1253 C1254 1.376 . S
C1254 H1241 0.930 . S
C1254 C1253 1.376 . S
C1254 C1255 1.388 . S
C1255 H1242 0.930 . S
C1255 C1254 1.388 . S
C1255 C1256 1.390 . S
C1256 C1255 1.390 . S
C1256 C1257 1.394 . S
C1256 C1262 1.465 . S
C1257 C1252 1.399 . S
C1257 C1256 1.394 . S
C1257 C1258 1.516 . S
C1258 C1257 1.516 . S
C1258 C1259 1.502 . S
C1258 C1260 1.561 . S
C1258 C1261 1.526 . S
C1259 H1243 0.959 . S
C1259 H1244 0.959 . S
C1259 H1245 0.961 . S
C1259 C1258 1.502 . S
C1260 H1246 0.960 . S
C1260 H1247 0.961 . S
C1260 H1248 0.959 . S
C1260 C1258 1.561 . S
C1261 C1258 1.526 . S
C1261 C1262 1.396 . S
C1261 C1266 1.390 . S
C1262 C1256 1.465 . S
C1262 C1261 1.396 . S
C1262 C1263 1.399 . S
C1263 H1249 0.929 . S
C1263 C1262 1.399 . S
C1263 C1264 1.385 . S
C1264 H1250 0.931 . S
C1264 C1263 1.385 . S
C1264 C1265 1.389 . S
C1265 C1264 1.389 . S
C1265 C1266 1.387 . S
C1266 H1251 0.930 . S
C1266 C1261 1.390 . S
C1266 C1265 1.387 . S
H1267 C1279 0.930 . S
H1268 C1281 0.930 . S
H1269 C1282 0.930 . S
H1270 C1286 0.959 . S
H1271 C1286 0.959 . S
H1272 C1286 0.961 . S
H1273 C1287 0.960 . S
H1274 C1287 0.961 . S
H1275 C1287 0.959 . S
H1276 C1290 0.929 . S
H1277 C1291 0.931 . S
H1278 C1293 0.930 . S
C1279 H1267 0.930 . S
C1279 C1280 1.399 . S
C1279 C1284 1.399 . S
C1280 C1279 1.399 . S
C1280 C1281 1.376 . S
C1281 H1268 0.930 . S
C1281 C1280 1.376 . S
C1281 C1282 1.388 . S
C1282 H1269 0.930 . S
C1282 C1281 1.388 . S
C1282 C1283 1.390 . S
C1283 C1282 1.390 . S
C1283 C1284 1.394 . S
C1283 C1289 1.465 . S
C1284 C1279 1.399 . S
C1284 C1283 1.394 . S
C1284 C1285 1.516 . S
C1285 C1284 1.516 . S
C1285 C1286 1.502 . S
C1285 C1287 1.561 . S
C1285 C1288 1.526 . S
C1286 H1270 0.959 . S
C1286 H1271 0.959 . S
C1286 H1272 0.961 . S
C1286 C1285 1.502 . S
C1287 H1273 0.960 . S
C1287 H1274 0.961 . S
C1287 H1275 0.959 . S
C1287 C1285 1.561 . S
C1288 C1285 1.526 . S
C1288 C1289 1.396 . S
C1288 C1293 1.390 . S
C1289 C1283 1.465 . S
C1289 C1288 1.396 . S
C1289 C1290 1.399 . S
C1290 H1276 0.929 . S
C1290 C1289 1.399 . S
C1290 C1291 1.385 . S
C1291 H1277 0.931 . S
C1291 C1290 1.385 . S
C1291 C1292 1.389 . S
C1292 C1291 1.389 . S
C1292 C1293 1.387 . S
C1293 H1278 0.930 . S
C1293 C1288 1.390 . S
C1293 C1292 1.387 . S
H1294 C1306 0.930 . S
H1295 C1308 0.930 . S
H1296 C1309 0.930 . S
H1297 C1313 0.959 . S
H1298 C1313 0.959 . S
H1299 C1313 0.961 . S
H1300 C1314 0.960 . S
H1301 C1314 0.961 . S
H1302 C1314 0.959 . S
H1303 C1317 0.929 . S
H1304 C1318 0.931 . S
H1305 C1320 0.930 . S
C1306 H1294 0.930 . S
C1306 C1307 1.399 . S
C1306 C1311 1.399 . S
C1307 C1306 1.399 . S
C1307 C1308 1.376 . S
C1308 H1295 0.930 . S
C1308 C1307 1.376 . S
C1308 C1309 1.388 . S
C1309 H1296 0.930 . S
C1309 C1308 1.388 . S
C1309 C1310 1.390 . S
C1310 C1309 1.390 . S
C1310 C1311 1.394 . S
C1310 C1316 1.465 . S
C1311 C1306 1.399 . S
C1311 C1310 1.394 . S
C1311 C1312 1.516 . S
C1312 C1311 1.516 . S
C1312 C1313 1.502 . S
C1312 C1314 1.561 . S
C1312 C1315 1.526 . S
C1313 H1297 0.959 . S
C1313 H1298 0.959 . S
C1313 H1299 0.961 . S
C1313 C1312 1.502 . S
C1314 H1300 0.960 . S
C1314 H1301 0.961 . S
C1314 H1302 0.959 . S
C1314 C1312 1.561 . S
C1315 C1312 1.526 . S
C1315 C1316 1.396 . S
C1315 C1320 1.390 . S
C1316 C1310 1.465 . S
C1316 C1315 1.396 . S
C1316 C1317 1.399 . S
C1317 H1303 0.929 . S
C1317 C1316 1.399 . S
C1317 C1318 1.385 . S
C1318 H1304 0.931 . S
C1318 C1317 1.385 . S
C1318 C1319 1.389 . S
C1319 C1318 1.389 . S
C1319 C1320 1.387 . S
C1320 H1305 0.930 . S
C1320 C1315 1.390 . S
C1320 C1319 1.387 . S
H1321 C1333 0.930 . S
H1322 C1335 0.930 . S
H1323 C1336 0.930 . S
H1324 C1340 0.959 . S
H1325 C1340 0.959 . S
H1326 C1340 0.961 . S
H1327 C1341 0.960 . S
H1328 C1341 0.961 . S
H1329 C1341 0.959 . S
H1330 C1344 0.929 . S
H1331 C1345 0.931 . S
H1332 C1347 0.930 . S
C1333 H1321 0.930 . S
C1333 C1334 1.399 . S
C1333 C1338 1.399 . S
C1334 C1333 1.399 . S
C1334 C1335 1.376 . S
C1335 H1322 0.930 . S
C1335 C1334 1.376 . S
C1335 C1336 1.388 . S
C1336 H1323 0.930 . S
C1336 C1335 1.388 . S
C1336 C1337 1.390 . S
C1337 C1336 1.390 . S
C1337 C1338 1.394 . S
C1337 C1343 1.465 . S
C1338 C1333 1.399 . S
C1338 C1337 1.394 . S
C1338 C1339 1.516 . S
C1339 C1338 1.516 . S
C1339 C1340 1.502 . S
C1339 C1341 1.561 . S
C1339 C1342 1.526 . S
C1340 H1324 0.959 . S
C1340 H1325 0.959 . S
C1340 H1326 0.961 . S
C1340 C1339 1.502 . S
C1341 H1327 0.960 . S
C1341 H1328 0.961 . S
C1341 H1329 0.959 . S
C1341 C1339 1.561 . S
C1342 C1339 1.526 . S
C1342 C1343 1.396 . S
C1342 C1347 1.390 . S
C1343 C1337 1.465 . S
C1343 C1342 1.396 . S
C1343 C1344 1.399 . S
C1344 H1330 0.929 . S
C1344 C1343 1.399 . S
C1344 C1345 1.385 . S
C1345 H1331 0.931 . S
C1345 C1344 1.385 . S
C1345 C1346 1.389 . S
C1346 C1345 1.389 . S
C1346 C1347 1.387 . S
C1347 H1332 0.930 . S
C1347 C1342 1.390 . S
C1347 C1346 1.387 . S
H1348 C1360 0.930 . S
H1349 C1362 0.930 . S
H1350 C1363 0.930 . S
H1351 C1367 0.959 . S
H1352 C1367 0.959 . S
H1353 C1367 0.961 . S
H1354 C1368 0.960 . S
H1355 C1368 0.961 . S
H1356 C1368 0.959 . S
H1357 C1371 0.929 . S
H1358 C1372 0.931 . S
H1359 C1374 0.930 . S
C1360 H1348 0.930 . S
C1360 C1361 1.399 . S
C1360 C1365 1.399 . S
C1361 C1360 1.399 . S
C1361 C1362 1.376 . S
C1362 H1349 0.930 . S
C1362 C1361 1.376 . S
C1362 C1363 1.388 . S
C1363 H1350 0.930 . S
C1363 C1362 1.388 . S
C1363 C1364 1.390 . S
C1364 C1363 1.390 . S
C1364 C1365 1.394 . S
C1364 C1370 1.465 . S
C1365 C1360 1.399 . S
C1365 C1364 1.394 . S
C1365 C1366 1.516 . S
C1366 C1365 1.516 . S
C1366 C1367 1.502 . S
C1366 C1368 1.561 . S
C1366 C1369 1.526 . S
C1367 H1351 0.959 . S
C1367 H1352 0.959 . S
C1367 H1353 0.961 . S
C1367 C1366 1.502 . S
C1368 H1354 0.960 . S
C1368 H1355 0.961 . S
C1368 H1356 0.959 . S
C1368 C1366 1.561 . S
C1369 C1366 1.526 . S
C1369 C1370 1.396 . S
C1369 C1374 1.390 . S
C1370 C1364 1.465 . S
C1370 C1369 1.396 . S
C1370 C1371 1.399 . S
C1371 H1357 0.929 . S
C1371 C1370 1.399 . S
C1371 C1372 1.385 . S
C1372 H1358 0.931 . S
C1372 C1371 1.385 . S
C1372 C1373 1.389 . S
C1373 C1372 1.389 . S
C1373 C1374 1.387 . S
C1374 H1359 0.930 . S
C1374 C1369 1.390 . S
C1374 C1373 1.387 . S
H1375 C1387 0.930 . S
H1376 C1389 0.930 . S
H1377 C1390 0.930 . S
H1378 C1394 0.959 . S
H1379 C1394 0.959 . S
H1380 C1394 0.961 . S
H1381 C1395 0.960 . S
H1382 C1395 0.961 . S
H1383 C1395 0.959 . S
H1384 C1398 0.929 . S
H1385 C1399 0.931 . S
H1386 C1401 0.930 . S
C1387 H1375 0.930 . S
C1387 C1388 1.399 . S
C1387 C1392 1.399 . S
C1388 C1387 1.399 . S
C1388 C1389 1.376 . S
C1389 H1376 0.930 . S
C1389 C1388 1.376 . S
C1389 C1390 1.388 . S
C1390 H1377 0.930 . S
C1390 C1389 1.388 . S
C1390 C1391 1.390 . S
C1391 C1390 1.390 . S
C1391 C1392 1.394 . S
C1391 C1397 1.465 . S
C1392 C1387 1.399 . S
C1392 C1391 1.394 . S
C1392 C1393 1.516 . S
C1393 C1392 1.516 . S
C1393 C1394 1.502 . S
C1393 C1395 1.561 . S
C1393 C1396 1.526 . S
C1394 H1378 0.959 . S
C1394 H1379 0.959 . S
C1394 H1380 0.961 . S
C1394 C1393 1.502 . S
C1395 H1381 0.960 . S
C1395 H1382 0.961 . S
C1395 H1383 0.959 . S
C1395 C1393 1.561 . S
C1396 C1393 1.526 . S
C1396 C1397 1.396 . S
C1396 C1401 1.390 . S
C1397 C1391 1.465 . S
C1397 C1396 1.396 . S
C1397 C1398 1.399 . S
C1398 H1384 0.929 . S
C1398 C1397 1.399 . S
C1398 C1399 1.385 . S
C1399 H1385 0.931 . S
C1399 C1398 1.385 . S
C1399 C1400 1.389 . S
C1400 C1399 1.389 . S
C1400 C1401 1.387 . S
C1401 H1386 0.930 . S
C1401 C1396 1.390 . S
C1401 C1400 1.387 . S
H1402 C1414 0.930 . S
H1403 C1416 0.930 . S
H1404 C1417 0.930 . S
H1405 C1421 0.959 . S
H1406 C1421 0.959 . S
H1407 C1421 0.961 . S
H1408 C1422 0.960 . S
H1409 C1422 0.961 . S
H1410 C1422 0.959 . S
H1411 C1425 0.929 . S
H1412 C1426 0.931 . S
H1413 C1428 0.930 . S
C1414 H1402 0.930 . S
C1414 C1415 1.399 . S
C1414 C1419 1.399 . S
C1415 C1414 1.399 . S
C1415 C1416 1.376 . S
C1416 H1403 0.930 . S
C1416 C1415 1.376 . S
C1416 C1417 1.388 . S
C1417 H1404 0.930 . S
C1417 C1416 1.388 . S
C1417 C1418 1.390 . S
C1418 C1417 1.390 . S
C1418 C1419 1.394 . S
C1418 C1424 1.465 . S
C1419 C1414 1.399 . S
C1419 C1418 1.394 . S
C1419 C1420 1.516 . S
C1420 C1419 1.516 . S
C1420 C1421 1.502 . S
C1420 C1422 1.561 . S
C1420 C1423 1.526 . S
C1421 H1405 0.959 . S
C1421 H1406 0.959 . S
C1421 H1407 0.961 . S
C1421 C1420 1.502 . S
C1422 H1408 0.960 . S
C1422 H1409 0.961 . S
C1422 H1410 0.959 . S
C1422 C1420 1.561 . S
C1423 C1420 1.526 . S
C1423 C1424 1.396 . S
C1423 C1428 1.390 . S
C1424 C1418 1.465 . S
C1424 C1423 1.396 . S
C1424 C1425 1.399 . S
C1425 H1411 0.929 . S
C1425 C1424 1.399 . S
C1425 C1426 1.385 . S
C1426 H1412 0.931 . S
C1426 C1425 1.385 . S
C1426 C1427 1.389 . S
C1427 C1426 1.389 . S
C1427 C1428 1.387 . S
C1428 H1413 0.930 . S
C1428 C1423 1.390 . S
C1428 C1427 1.387 . S
H1429 C1441 0.930 . S
H1430 C1443 0.930 . S
H1431 C1444 0.930 . S
H1432 C1448 0.959 . S
H1433 C1448 0.959 . S
H1434 C1448 0.961 . S
H1435 C1449 0.960 . S
H1436 C1449 0.961 . S
H1437 C1449 0.959 . S
H1438 C1452 0.929 . S
H1439 C1453 0.931 . S
H1440 C1455 0.930 . S
C1441 H1429 0.930 . S
C1441 C1442 1.399 . S
C1441 C1446 1.399 . S
C1442 C1441 1.399 . S
C1442 C1443 1.376 . S
C1443 H1430 0.930 . S
C1443 C1442 1.376 . S
C1443 C1444 1.388 . S
C1444 H1431 0.930 . S
C1444 C1443 1.388 . S
C1444 C1445 1.390 . S
C1445 C1444 1.390 . S
C1445 C1446 1.394 . S
C1445 C1451 1.465 . S
C1446 C1441 1.399 . S
C1446 C1445 1.394 . S
C1446 C1447 1.516 . S
C1447 C1446 1.516 . S
C1447 C1448 1.502 . S
C1447 C1449 1.561 . S
C1447 C1450 1.526 . S
C1448 H1432 0.959 . S
C1448 H1433 0.959 . S
C1448 H1434 0.961 . S
C1448 C1447 1.502 . S
C1449 H1435 0.960 . S
C1449 H1436 0.961 . S
C1449 H1437 0.959 . S
C1449 C1447 1.561 . S
C1450 C1447 1.526 . S
C1450 C1451 1.396 . S
C1450 C1455 1.390 . S
C1451 C1445 1.465 . S
C1451 C1450 1.396 . S
C1451 C1452 1.399 . S
C1452 H1438 0.929 . S
C1452 C1451 1.399 . S
C1452 C1453 1.385 . S
C1453 H1439 0.931 . S
C1453 C1452 1.385 . S
C1453 C1454 1.389 . S
C1454 C1453 1.389 . S
C1454 C1455 1.387 . S
C1455 H1440 0.930 . S
C1455 C1450 1.390 . S
C1455 C1454 1.387 . S
C617 C197 1.503 . S
C605 C12 1.316 . S
C644 C250 1.298 . S
C632 C33 1.257 . S
C671 C313 1.548 . S
C659 C51 1.442 . S
C698 C356 1.274 . S
C686 C75 1.253 . S
C713 C103 1.512 . S
C725 C312 1.530 . S
C752 C349 1.334 . S
C740 C122 1.187 . S
C779 C190 1.471 . S
C767 C145 1.398 . S
C806 C243 1.246 . S
C794 C166 1.237 . S
C833 C296 1.552 . S
C821 C164 1.361 . S
C860 C365 1.824 . S
C848 C101 1.695 . S
C887 C206 1.560 . S
C875 C124 1.531 . S
C914 C259 1.758 . S
C902 C143 1.644 . S
C941 C207 1.585 . S
C929 C30 1.462 . S
C968 C260 1.807 . S
C956 C54 1.708 . S
C995 C303 1.520 . S
C983 C72 1.476 . S
C1022 C366 1.779 . S
C1010 C9 1.611 . S
C1049 C409 1.487 . S
C1037 C159 1.300 . S
C1064 C96 1.520 . S
C1076 C462 1.698 . S
C1091 C114 1.488 . S
C1103 C524 1.545 . S
C1118 C138 1.572 . S
C1130 C578 1.683 . S
C1145 C40 1.412 . S
C1157 C525 1.507 . S
C1172 C59 1.669 . S
C1184 C577 1.730 . S
C1199 C82 1.432 . S
C1211 C402 1.509 . S
C1238 C455 1.630 . S
C1226 C19 1.583 . S
C1265 C515 1.500 . S
C1253 C17 1.447 . S
C1280 C38 1.280 . S
C1292 C561 1.383 . S
C1307 C61 1.523 . S
C1319 C418 1.599 . S
C1334 C80 1.293 . S
C1346 C471 1.362 . S
C1373 C419 1.541 . S
C1361 C93 1.483 . S
C1400 C472 1.411 . S
C1388 C117 1.364 . S
C1415 C135 1.493 . S
C1427 C508 1.538 . S
C1454 C568 1.336 . S
C1442 C156 1.197 . S
