# Generated by pormake.
# Topology ptr, (4,4)-cn, num edge types: 1
# Building blocks:
#     Node 0, Type 0, BuildingBlock: CEKHIL_clean_sbu_0, # of connection points: 4
#     Node 1, Type 0, BuildingBlock: CEKHIL_clean_sbu_0, # of connection points: 4
#     Node 2, Type 0, BuildingBlock: CEKHIL_clean_sbu_0, # of connection points: 4
#     Node 3, Type 0, BuildingBlock: CEKHIL_clean_sbu_0, # of connection points: 4
#     Node 4, Type 0, BuildingBlock: CEKHIL_clean_sbu_0, # of connection points: 4
#     Node 5, Type 0, BuildingBlock: CEKHIL_clean_sbu_0, # of connection points: 4
#     Node 6, Type 0, BuildingBlock: CEKHIL_clean_sbu_0, # of connection points: 4
#     Node 7, Type 0, BuildingBlock: CEKHIL_clean_sbu_0, # of connection points: 4
#     Node 8, Type 0, BuildingBlock: CEKHIL_clean_sbu_0, # of connection points: 4
#     Node 9, Type 0, BuildingBlock: CEKHIL_clean_sbu_0, # of connection points: 4
#     Node 10, Type 0, BuildingBlock: CEKHIL_clean_sbu_0, # of connection points: 4
#     Node 11, Type 0, BuildingBlock: CEKHIL_clean_sbu_0, # of connection points: 4
#     Node 12, Type 0, BuildingBlock: CEKHIL_clean_sbu_0, # of connection points: 4
#     Node 13, Type 0, BuildingBlock: CEKHIL_clean_sbu_0, # of connection points: 4
#     Node 14, Type 0, BuildingBlock: CEKHIL_clean_sbu_0, # of connection points: 4
#     Node 15, Type 0, BuildingBlock: CEKHIL_clean_sbu_0, # of connection points: 4
#     Node 16, Type 0, BuildingBlock: CEKHIL_clean_sbu_0, # of connection points: 4
#     Node 17, Type 0, BuildingBlock: CEKHIL_clean_sbu_0, # of connection points: 4
#     Node 18, Type 1, BuildingBlock: KUFVIS_clean_linker_0, # of connection points: 4
#     Node 19, Type 1, BuildingBlock: KUFVIS_clean_linker_0, # of connection points: 4
#     Node 20, Type 1, BuildingBlock: KUFVIS_clean_linker_0, # of connection points: 4
#     Node 21, Type 1, BuildingBlock: KUFVIS_clean_linker_0, # of connection points: 4
#     Node 22, Type 1, BuildingBlock: KUFVIS_clean_linker_0, # of connection points: 4
#     Node 23, Type 1, BuildingBlock: KUFVIS_clean_linker_0, # of connection points: 4
#     Node 24, Type 1, BuildingBlock: KUFVIS_clean_linker_0, # of connection points: 4
#     Node 25, Type 1, BuildingBlock: KUFVIS_clean_linker_0, # of connection points: 4
#     Node 26, Type 1, BuildingBlock: KUFVIS_clean_linker_0, # of connection points: 4
#     Node 27, Type 1, BuildingBlock: KUFVIS_clean_linker_0, # of connection points: 4
#     Node 28, Type 1, BuildingBlock: KUFVIS_clean_linker_0, # of connection points: 4
#     Node 29, Type 1, BuildingBlock: KUFVIS_clean_linker_0, # of connection points: 4
#     Node 30, Type 1, BuildingBlock: KUFVIS_clean_linker_0, # of connection points: 4
#     Node 31, Type 1, BuildingBlock: KUFVIS_clean_linker_0, # of connection points: 4
#     Node 32, Type 1, BuildingBlock: KUFVIS_clean_linker_0, # of connection points: 4
#     Node 33, Type 1, BuildingBlock: KUFVIS_clean_linker_0, # of connection points: 4
#     Node 34, Type 1, BuildingBlock: KUFVIS_clean_linker_0, # of connection points: 4
#     Node 35, Type 1, BuildingBlock: KUFVIS_clean_linker_0, # of connection points: 4
#     Edge 36, Type (0, 1), BuildingBlock: ZUJKAS_clean_linker_0, # of connection points: 2
#     Edge 37, Type (0, 1), BuildingBlock: ZUJKAS_clean_linker_0, # of connection points: 2
#     Edge 38, Type (0, 1), BuildingBlock: ZUJKAS_clean_linker_0, # of connection points: 2
#     Edge 39, Type (0, 1), BuildingBlock: ZUJKAS_clean_linker_0, # of connection points: 2
#     Edge 40, Type (0, 1), BuildingBlock: ZUJKAS_clean_linker_0, # of connection points: 2
#     Edge 41, Type (0, 1), BuildingBlock: ZUJKAS_clean_linker_0, # of connection points: 2
#     Edge 42, Type (0, 1), BuildingBlock: ZUJKAS_clean_linker_0, # of connection points: 2
#     Edge 43, Type (0, 1), BuildingBlock: ZUJKAS_clean_linker_0, # of connection points: 2
#     Edge 44, Type (0, 1), BuildingBlock: ZUJKAS_clean_linker_0, # of connection points: 2
#     Edge 45, Type (0, 1), BuildingBlock: ZUJKAS_clean_linker_0, # of connection points: 2
#     Edge 46, Type (0, 1), BuildingBlock: ZUJKAS_clean_linker_0, # of connection points: 2
#     Edge 47, Type (0, 1), BuildingBlock: ZUJKAS_clean_linker_0, # of connection points: 2
#     Edge 48, Type (0, 1), BuildingBlock: ZUJKAS_clean_linker_0, # of connection points: 2
#     Edge 49, Type (0, 1), BuildingBlock: ZUJKAS_clean_linker_0, # of connection points: 2
#     Edge 50, Type (0, 1), BuildingBlock: ZUJKAS_clean_linker_0, # of connection points: 2
#     Edge 51, Type (0, 1), BuildingBlock: ZUJKAS_clean_linker_0, # of connection points: 2
#     Edge 52, Type (0, 1), BuildingBlock: ZUJKAS_clean_linker_0, # of connection points: 2
#     Edge 53, Type (0, 1), BuildingBlock: ZUJKAS_clean_linker_0, # of connection points: 2
#     Edge 54, Type (0, 1), BuildingBlock: ZUJKAS_clean_linker_0, # of connection points: 2
#     Edge 55, Type (0, 1), BuildingBlock: ZUJKAS_clean_linker_0, # of connection points: 2
#     Edge 56, Type (0, 1), BuildingBlock: ZUJKAS_clean_linker_0, # of connection points: 2
#     Edge 57, Type (0, 1), BuildingBlock: ZUJKAS_clean_linker_0, # of connection points: 2
#     Edge 58, Type (0, 1), BuildingBlock: ZUJKAS_clean_linker_0, # of connection points: 2
#     Edge 59, Type (0, 1), BuildingBlock: ZUJKAS_clean_linker_0, # of connection points: 2
#     Edge 60, Type (0, 1), BuildingBlock: ZUJKAS_clean_linker_0, # of connection points: 2
#     Edge 61, Type (0, 1), BuildingBlock: ZUJKAS_clean_linker_0, # of connection points: 2
#     Edge 62, Type (0, 1), BuildingBlock: ZUJKAS_clean_linker_0, # of connection points: 2
#     Edge 63, Type (0, 1), BuildingBlock: ZUJKAS_clean_linker_0, # of connection points: 2
#     Edge 64, Type (0, 1), BuildingBlock: ZUJKAS_clean_linker_0, # of connection points: 2
#     Edge 65, Type (0, 1), BuildingBlock: ZUJKAS_clean_linker_0, # of connection points: 2
#     Edge 66, Type (0, 1), BuildingBlock: ZUJKAS_clean_linker_0, # of connection points: 2
#     Edge 67, Type (0, 1), BuildingBlock: ZUJKAS_clean_linker_0, # of connection points: 2
#     Edge 68, Type (0, 1), BuildingBlock: ZUJKAS_clean_linker_0, # of connection points: 2
#     Edge 69, Type (0, 1), BuildingBlock: ZUJKAS_clean_linker_0, # of connection points: 2
#     Edge 70, Type (0, 1), BuildingBlock: ZUJKAS_clean_linker_0, # of connection points: 2
#     Edge 71, Type (0, 1), BuildingBlock: ZUJKAS_clean_linker_0, # of connection points: 2
#     Edge 72, Type (0, 1), BuildingBlock: ZUJKAS_clean_linker_0, # of connection points: 2
#     Edge 73, Type (0, 1), BuildingBlock: ZUJKAS_clean_linker_0, # of connection points: 2
#     Edge 74, Type (0, 1), BuildingBlock: ZUJKAS_clean_linker_0, # of connection points: 2
#     Edge 75, Type (0, 1), BuildingBlock: ZUJKAS_clean_linker_0, # of connection points: 2
#     Edge 76, Type (0, 1), BuildingBlock: ZUJKAS_clean_linker_0, # of connection points: 2
#     Edge 77, Type (0, 1), BuildingBlock: ZUJKAS_clean_linker_0, # of connection points: 2
#     Edge 78, Type (0, 1), BuildingBlock: ZUJKAS_clean_linker_0, # of connection points: 2
#     Edge 79, Type (0, 1), BuildingBlock: ZUJKAS_clean_linker_0, # of connection points: 2
#     Edge 80, Type (0, 1), BuildingBlock: ZUJKAS_clean_linker_0, # of connection points: 2
#     Edge 81, Type (0, 1), BuildingBlock: ZUJKAS_clean_linker_0, # of connection points: 2
#     Edge 82, Type (0, 1), BuildingBlock: ZUJKAS_clean_linker_0, # of connection points: 2
#     Edge 83, Type (0, 1), BuildingBlock: ZUJKAS_clean_linker_0, # of connection points: 2
#     Edge 84, Type (0, 1), BuildingBlock: ZUJKAS_clean_linker_0, # of connection points: 2
#     Edge 85, Type (0, 1), BuildingBlock: ZUJKAS_clean_linker_0, # of connection points: 2
#     Edge 86, Type (0, 1), BuildingBlock: ZUJKAS_clean_linker_0, # of connection points: 2
#     Edge 87, Type (0, 1), BuildingBlock: ZUJKAS_clean_linker_0, # of connection points: 2
#     Edge 88, Type (0, 1), BuildingBlock: ZUJKAS_clean_linker_0, # of connection points: 2
#     Edge 89, Type (0, 1), BuildingBlock: ZUJKAS_clean_linker_0, # of connection points: 2
#     Edge 90, Type (0, 1), BuildingBlock: ZUJKAS_clean_linker_0, # of connection points: 2
#     Edge 91, Type (0, 1), BuildingBlock: ZUJKAS_clean_linker_0, # of connection points: 2
#     Edge 92, Type (0, 1), BuildingBlock: ZUJKAS_clean_linker_0, # of connection points: 2
#     Edge 93, Type (0, 1), BuildingBlock: ZUJKAS_clean_linker_0, # of connection points: 2
#     Edge 94, Type (0, 1), BuildingBlock: ZUJKAS_clean_linker_0, # of connection points: 2
#     Edge 95, Type (0, 1), BuildingBlock: ZUJKAS_clean_linker_0, # of connection points: 2
#     Edge 96, Type (0, 1), BuildingBlock: ZUJKAS_clean_linker_0, # of connection points: 2
#     Edge 97, Type (0, 1), BuildingBlock: ZUJKAS_clean_linker_0, # of connection points: 2
#     Edge 98, Type (0, 1), BuildingBlock: ZUJKAS_clean_linker_0, # of connection points: 2
#     Edge 99, Type (0, 1), BuildingBlock: ZUJKAS_clean_linker_0, # of connection points: 2
#     Edge 100, Type (0, 1), BuildingBlock: ZUJKAS_clean_linker_0, # of connection points: 2
#     Edge 101, Type (0, 1), BuildingBlock: ZUJKAS_clean_linker_0, # of connection points: 2
#     Edge 102, Type (0, 1), BuildingBlock: ZUJKAS_clean_linker_0, # of connection points: 2
#     Edge 103, Type (0, 1), BuildingBlock: ZUJKAS_clean_linker_0, # of connection points: 2
#     Edge 104, Type (0, 1), BuildingBlock: ZUJKAS_clean_linker_0, # of connection points: 2
#     Edge 105, Type (0, 1), BuildingBlock: ZUJKAS_clean_linker_0, # of connection points: 2
#     Edge 106, Type (0, 1), BuildingBlock: ZUJKAS_clean_linker_0, # of connection points: 2
#     Edge 107, Type (0, 1), BuildingBlock: ZUJKAS_clean_linker_0, # of connection points: 2
# Relax obj value: 0.047
# Max RMSD: 0.104
# Mean RMSD: 0.081
data_MOF--net-ptr--node1-CEKHIL_clean_sbu_0--node2-KUFVIS_clean_linker_0--edge1-ZUJKAS_clean_linker_0
_symmetry_space_group_name_H-M    P1
_symmetry_Int_Tables_number       1
_symmetry_cell_setting            triclinic
loop_
_symmetry_equiv_pos_as_xyz
'x, y, z'
_cell_length_a     101.77057
_cell_length_b     100.76702
_cell_length_c     63.759309
_cell_angle_alpha  90.686894
_cell_angle_beta   89.662511
_cell_angle_gamma 120.82996
loop_
_atom_site_label
_atom_site_type_symbol
_atom_site_fract_x
_atom_site_fract_y
_atom_site_fract_z
_atom_type_partial_charge
Co0 Co 0.01267 0.3557 0.00833 0.0
O1 O 0.0216 0.34776 0.02746 0.0
O2 O 0.03473 0.36617 0.00447 0.0
C3 C 0.99296 0.33233 0.99772 0.0
O4 O 1.00758 0.36676 0.98585 0.0
Co5 Co 0.97964 0.34948 0.01504 0.0
O6 O 0.98244 0.3585 0.98674 0.0
C7 C 1.00523 0.37344 0.04065 0.0
C8 C 0.03477 0.35741 0.01927 0.0
C9 C 0.99564 0.36643 0.97846 0.0
O10 O 0.015 0.37168 0.02987 0.0
O11 O 0.99073 0.36491 0.03815 0.0
O12 O 1.00642 0.33798 0.98928 0.0
O13 O 0.99221 0.3403 0.01316 0.0
Co14 Co 0.66314 0.65715 0.01104 0.0
O15 O 0.68061 0.66587 0.99254 0.0
O16 O 0.67465 0.64682 0.01458 0.0
C17 C 0.66659 0.68012 0.0225 0.0
O18 O 0.6465 0.64523 0.03285 0.0
Co19 Co 0.63613 0.66268 0.00475 0.0
O20 O 0.62799 0.65106 0.03118 0.0
C21 C 0.63876 0.64013 0.97758 0.0
C22 C 0.68389 0.65606 0.0003 0.0
C23 C 0.63387 0.64384 0.03945 0.0
O24 O 0.64999 0.64165 0.98869 0.0
O25 O 0.6327 0.64845 0.98042 0.0
O26 O 0.67412 0.67435 0.03102 0.0
O27 O 0.65811 0.67246 0.00672 0.0
Co28 Co 0.35939 0.00965 0.01124 0.0
O29 O 0.35027 0.01812 0.99335 0.0
O30 O 0.36973 0.03199 0.01468 0.0
C31 C 0.33689 0.98968 0.02344 0.0
O32 O 0.37167 0.00523 0.0325 0.0
Co33 Co 0.35355 0.97648 0.00392 0.0
O34 O 0.3652 0.98032 0.03034 0.0
C35 C 0.3757 1.00201 0.97703 0.0
C36 C 0.36014 0.03163 0.00095 0.0
C37 C 0.37279 0.99371 0.03875 0.0
O38 O 0.37428 0.0119 0.98834 0.0
O39 O 0.36749 0.98739 0.97968 0.0
O40 O 0.34277 1.00342 0.03174 0.0
O41 O 0.34408 0.98878 0.00728 0.0
Co42 Co 1.0074 0.65784 0.01036 0.0
O43 O 0.99982 0.66688 0.99088 0.0
O44 O 0.98515 0.64682 0.01082 0.0
C45 C 0.0257 0.68075 0.02449 0.0
O46 O 0.01089 0.6455 0.03268 0.0
Co47 Co 0.04103 0.66517 0.00827 0.0
O48 O 0.03585 0.65312 0.0345 0.0
C49 C 0.01822 0.64332 0.97766 0.0
C50 C 0.98613 0.65665 0.99693 0.0
C51 C 0.0221 0.64484 0.04091 0.0
O52 O 1.0073 0.6435 0.98776 0.0
O53 O 0.03239 0.65222 0.98221 0.0
O54 O 0.01163 0.67421 0.03099 0.0
O55 O 0.02798 0.67384 0.00899 0.0
Co56 Co 0.35333 0.35517 0.00675 0.0
O57 O 0.33603 0.34604 0.02553 0.0
O58 O 0.34188 0.36567 0.00464 0.0
C59 C 0.34947 0.33237 0.99373 0.0
O60 O 0.36977 0.36748 0.98482 0.0
Co61 Co 0.38017 0.34905 0.0111 0.0
O62 O 0.38789 0.36104 0.98489 0.0
C63 C 0.37812 0.37116 0.03998 0.0
C64 C 0.33262 0.35594 0.01849 0.0
C65 C 0.38218 0.36869 0.97752 0.0
O66 O 0.36687 0.37011 0.0294 0.0
O67 O 0.38393 0.36271 0.03624 0.0
O68 O 0.34188 0.33844 0.98632 0.0
O69 O 0.35823 0.33964 0.00947 0.0
Co70 Co 0.65749 1.00237 0.00845 0.0
O71 O 0.66601 0.99352 0.0267 0.0
O72 O 0.6471 0.98006 0.00441 0.0
C73 C 0.68038 0.02222 0.99714 0.0
O74 O 0.64582 0.0073 0.9868 0.0
Co75 Co 0.66363 0.03547 0.01641 0.0
O76 O 0.6526 0.03228 0.98956 0.0
C77 C 0.64087 0.00979 0.04246 0.0
C78 C 0.65625 0.98015 0.01865 0.0
C79 C 0.64505 0.01905 0.98067 0.0
O80 O 0.64226 0.99999 0.03089 0.0
O81 O 0.6493 0.02444 0.04028 0.0
O82 O 0.67437 0.0086 0.98845 0.0
O83 O 0.67306 0.02311 0.01316 0.0
Co84 Co 0.67796 0.68861 0.34211 0.0
O85 O 0.68672 0.68093 0.36196 0.0
O86 O 0.70012 0.69964 0.3395 0.0
C87 C 0.65905 0.66494 0.33103 0.0
O88 O 0.67326 0.69958 0.31902 0.0
Co89 Co 0.64427 0.68114 0.3454 0.0
O90 O 0.64799 0.69045 0.31722 0.0
C91 C 0.66871 0.70662 0.37102 0.0
C92 C 0.70003 0.69087 0.35437 0.0
C93 C 0.66156 0.69901 0.31035 0.0
O94 O 0.67911 0.70429 0.36333 0.0
O95 O 0.65448 0.69839 0.36644 0.0
O96 O 0.67271 0.67108 0.32308 0.0
O97 O 0.65753 0.67273 0.346 0.0
Co98 Co 0.32945 0.99027 0.34734 0.0
O99 O 0.34587 0.99902 0.32696 0.0
O100 O 0.34043 0.97926 0.34734 0.0
C101 C 0.33445 0.01334 0.361 0.0
O102 O 0.31416 0.97809 0.37056 0.0
Co103 Co 0.30282 0.99695 0.34853 0.0
O104 O 0.29688 0.98539 0.3752 0.0
C105 C 0.30253 0.97467 0.31727 0.0
C106 C 0.34919 0.98881 0.333 0.0
C107 C 0.30265 0.97727 0.38032 0.0
O108 O 0.31453 0.9756 0.32553 0.0
O109 O 0.29711 0.9831 0.32322 0.0
O110 O 0.34222 0.00712 0.36717 0.0
O111 O 0.32468 0.00596 0.34629 0.0
Co112 Co 0.02546 0.34237 0.34608 0.0
O113 O 0.01625 0.34972 0.32647 0.0
O114 O 0.03635 0.36483 0.34618 0.0
C115 C 1.00298 0.32411 0.36058 0.0
O116 O 0.03801 0.33931 0.36847 0.0
Co117 Co 0.01834 0.30846 0.34485 0.0
O118 O 0.03035 0.31415 0.37123 0.0
C119 C 0.03958 0.3309 0.31374 0.0
C120 C 0.02646 0.36364 0.33233 0.0
C121 C 0.03868 0.32818 0.37718 0.0
O122 O 0.03937 0.3421 0.32345 0.0
O123 O 0.03097 0.31669 0.31873 0.0
O124 O 0.00951 0.33844 0.36679 0.0
O125 O 0.00962 0.32154 0.34513 0.0
Co126 Co 0.67422 0.99156 0.34454 0.0
O127 O 0.66632 1.00031 0.32504 0.0
O128 O 0.65194 0.98033 0.34523 0.0
C129 C 0.69248 0.01456 0.3584 0.0
O130 O 0.67814 0.97956 0.36699 0.0
Co131 Co 0.70811 0.99943 0.34212 0.0
O132 O 0.70337 0.9884 0.36919 0.0
C133 C 0.68523 0.97725 0.3118 0.0
C134 C 0.6527 0.99002 0.33128 0.0
C135 C 0.68968 0.97975 0.37561 0.0
O136 O 0.67422 0.97719 0.32203 0.0
O137 O 0.69939 0.98637 0.3162 0.0
O138 O 0.67843 0.00805 0.36502 0.0
O139 O 0.69468 0.00763 0.3429 0.0
Co140 Co 0.02248 0.68725 0.3424 0.0
O141 O 1.00515 0.678 0.36107 0.0
O142 O 0.01056 0.69727 0.33973 0.0
C143 C 0.01941 0.66465 0.32998 0.0
O144 O 0.03903 0.69946 0.32052 0.0
Co145 Co 0.04973 0.6818 0.34838 0.0
O146 O 0.05671 0.69239 0.32105 0.0
C147 C 0.04704 0.70421 0.37578 0.0
C148 C 1.00145 0.68763 0.35379 0.0
C149 C 0.05118 0.70008 0.31321 0.0
O150 O 0.03568 0.70261 0.36486 0.0
O151 O 0.0532 0.696 0.37276 0.0
O152 O 0.01149 0.67023 0.32217 0.0
O153 O 0.02783 0.67215 0.34587 0.0
Co154 Co 0.32615 0.33739 0.34222 0.0
O155 O 0.33404 0.32841 0.36137 0.0
O156 O 0.31523 0.315 0.33891 0.0
C157 C 0.34936 0.35657 0.33071 0.0
O158 O 0.31504 0.34247 0.3198 0.0
Co159 Co 0.33341 0.37114 0.34866 0.0
O160 O 0.32283 0.36776 0.32141 0.0
C161 C 0.3099 0.34623 0.37507 0.0
C162 C 0.32414 0.31502 0.35349 0.0
C163 C 0.3149 0.35441 0.31298 0.0
O164 O 0.31094 0.33596 0.3641 0.0
O165 O 0.31876 0.36079 0.37244 0.0
O166 O 0.34314 0.34272 0.32275 0.0
O167 O 0.34204 0.35803 0.3463 0.0
Co168 Co 0.34422 0.02145 0.67542 0.0
O169 O 0.35267 0.01353 0.69536 0.0
O170 O 0.36637 0.03198 0.6727 0.0
C171 C 0.32496 0.99787 0.66471 0.0
O172 O 0.33977 0.03247 0.65211 0.0
Co173 Co 0.3108 0.01477 0.67876 0.0
O174 O 0.31456 0.02367 0.65031 0.0
C175 C 0.33568 0.04023 0.70391 0.0
C176 C 0.36603 0.02309 0.68759 0.0
C177 C 0.32813 0.03198 0.64334 0.0
O178 O 0.34584 0.03749 0.69635 0.0
O179 O 0.32141 0.03223 0.69942 0.0
O180 O 0.33856 1.00368 0.65668 0.0
O181 O 0.32367 0.00593 0.67953 0.0
Co182 Co 0.99477 0.32129 0.68094 0.0
O183 O 0.01111 0.32969 0.66041 0.0
O184 O 1.00671 0.31136 0.68295 0.0
C185 C 0.99855 0.34444 0.69246 0.0
O186 O 0.9797 0.3097 0.70462 0.0
Co187 Co 0.96697 0.32605 0.67933 0.0
O188 O 0.96137 0.31575 0.70696 0.0
C189 C 0.96812 0.30308 0.65093 0.0
C190 C 0.01507 0.3203 0.66784 0.0
C191 C 0.96781 0.30859 0.71357 0.0
O192 O 0.98036 0.3052 0.65999 0.0
O193 O 0.96193 0.31109 0.6554 0.0
O194 O 1.0069 0.33913 0.69958 0.0
O195 O 0.98901 0.3362 0.67787 0.0
Co196 Co 0.69244 0.67595 0.67861 0.0
O197 O 0.68358 0.68416 0.65973 0.0
O198 O 0.70367 0.69839 0.67992 0.0
C199 C 0.66977 0.65744 0.69247 0.0
O200 O 0.70466 0.67205 0.70053 0.0
Co201 Co 0.68497 0.64197 0.67556 0.0
O202 O 0.69681 0.64678 0.70202 0.0
C203 C 0.7065 0.66506 0.64531 0.0
C204 C 0.69395 0.69783 0.66626 0.0
C205 C 0.70516 0.66065 0.70863 0.0
O206 O 0.70639 0.67608 0.65566 0.0
O207 O 0.69774 0.65074 0.64967 0.0
O208 O 0.67641 0.67161 0.69941 0.0
O209 O 0.67642 0.6552 0.67671 0.0
Co210 Co 0.34134 0.32564 0.67763 0.0
O211 O 0.33317 0.33458 0.65898 0.0
O212 O 0.31905 0.3145 0.67913 0.0
C213 C 0.35995 0.34856 0.69124 0.0
O214 O 0.34574 0.3135 0.6993 0.0
Co215 Co 0.37514 0.33354 0.67296 0.0
O216 O 0.3709 0.32174 0.69929 0.0
C217 C 0.35146 0.31145 0.64349 0.0
C218 C 0.31964 0.3243 0.66547 0.0
C219 C 0.35744 0.31328 0.70661 0.0
O220 O 0.34076 0.31134 0.65457 0.0
O221 O 0.36573 0.32063 0.64711 0.0
O222 O 0.34609 0.34201 0.69858 0.0
O223 O 0.36173 0.34169 0.67528 0.0
Co224 Co 0.68902 0.02269 0.67624 0.0
O225 O 0.6724 0.01463 0.69619 0.0
O226 O 0.6782 0.03381 0.67447 0.0
C227 C 0.68404 0.99935 0.66383 0.0
O228 O 0.70478 0.03407 0.65321 0.0
Co229 Co 0.71535 0.01567 0.67888 0.0
O230 O 0.72231 0.02685 0.65197 0.0
C231 C 0.71562 0.03951 0.70689 0.0
C232 C 0.66928 0.02474 0.68911 0.0
C233 C 0.71669 0.0347 0.64502 0.0
O234 O 0.70362 0.03797 0.69776 0.0
O235 O 0.7212 0.03094 0.70261 0.0
O236 O 0.6765 0.00558 0.65681 0.0
O237 O 0.69343 0.00678 0.67895 0.0
Co238 Co 0.99243 0.67021 0.67536 0.0
O239 O 1.00017 0.66096 0.69428 0.0
O240 O 0.98143 0.64785 0.67162 0.0
C241 C 0.01577 0.68941 0.66436 0.0
O242 O 0.98146 0.67554 0.65308 0.0
Co243 Co 0.99977 0.70389 0.68188 0.0
O244 O 0.99003 0.70101 0.65404 0.0
C245 C 0.97565 0.67882 0.7076 0.0
C246 C 0.99022 0.64767 0.68622 0.0
C247 C 0.98181 0.68762 0.64583 0.0
O248 O 0.97716 0.66862 0.6972 0.0
O249 O 0.98432 0.69339 0.70479 0.0
O250 O 0.00945 0.67571 0.65586 0.0
O251 O 1.00842 0.69077 0.68 0.0
H252 H 0.22205 0.34198 0.14209 0.0
H253 H 0.18779 0.34585 0.1088 0.0
H254 H 0.19071 0.34987 0.17682 0.0
H255 H 0.16637 0.34075 0.17583 0.0
H256 H 0.13496 0.35048 0.14602 0.0
H257 H 0.17387 0.35668 0.11134 0.0
C258 C 0.21216 0.34339 0.14229 0.0
C259 C 0.20662 0.34522 0.16147 0.0
C260 C 0.20572 0.34409 0.12336 0.0
C261 C 0.19295 0.34601 0.12364 0.0
C262 C 0.18678 0.34763 0.1429 0.0
C263 C 0.19431 0.34782 0.16176 0.0
C264 C 0.17245 0.34871 0.14351 0.0
C265 C 0.16346 0.34484 0.16204 0.0
C266 C 0.15014 0.34567 0.1629 0.0
C267 C 0.1454 0.35007 0.14522 0.0
C268 C 0.15382 0.35395 0.1266 0.0
C269 C 0.16734 0.35329 0.12573 0.0
H270 H 0.66872 0.88224 0.14235 0.0
H271 H 0.65961 0.84093 0.10981 0.0
H272 H 0.67709 0.85017 0.17367 0.0
H273 H 0.66558 0.82555 0.17667 0.0
H274 H 0.66434 0.7875 0.14502 0.0
H275 H 0.66853 0.82492 0.10857 0.0
C276 C 0.66877 0.8715 0.14204 0.0
C277 C 0.67308 0.86692 0.16 0.0
C278 C 0.66406 0.8623 0.1239 0.0
C279 C 0.66381 0.84815 0.12372 0.0
C280 C 0.66826 0.8432 0.14178 0.0
C281 C 0.67312 0.85304 0.15972 0.0
C282 C 0.66736 0.82772 0.14245 0.0
C283 C 0.66621 0.82047 0.16197 0.0
C284 C 0.66532 0.80612 0.16283 0.0
C285 C 0.66504 0.7986 0.14427 0.0
C286 C 0.66584 0.80513 0.12476 0.0
C287 C 0.66741 0.81985 0.12381 0.0
H288 H 0.2281 0.88007 0.1412 0.0
H289 H 0.18907 0.84632 0.10663 0.0
H290 H 0.18728 0.85 0.17455 0.0
H291 H 0.16969 0.82649 0.17444 0.0
H292 H 0.12703 0.79753 0.14415 0.0
H293 H 0.16448 0.83139 0.10774 0.0
C294 C 0.2164 0.87038 0.14106 0.0
C295 C 0.20855 0.8651 0.15993 0.0
C296 C 0.20926 0.86397 0.12194 0.0
C297 C 0.19407 0.85137 0.12167 0.0
C298 C 0.18575 0.84548 0.14071 0.0
C299 C 0.19319 0.85313 0.15969 0.0
C300 C 0.1695 0.8317 0.14117 0.0
C301 C 0.16302 0.82375 0.16024 0.0
C302 C 0.14764 0.81191 0.16137 0.0
C303 C 0.13876 0.80712 0.14329 0.0
C304 C 0.14495 0.81377 0.12393 0.0
C305 C 0.1602 0.82618 0.12284 0.0
H306 H 0.3485 0.13073 0.87998 0.0
H307 H 0.35151 0.16946 0.91277 0.0
H308 H 0.3416 0.16284 0.84594 0.0
H309 H 0.35031 0.18726 0.8449 0.0
H310 H 0.33848 0.21761 0.87535 0.0
H311 H 0.34095 0.18366 0.91194 0.0
C312 C 0.34787 0.14116 0.87974 0.0
C313 C 0.34529 0.14625 0.86082 0.0
C314 C 0.34972 0.14925 0.89846 0.0
C315 C 0.34958 0.16317 0.89817 0.0
C316 C 0.34677 0.16862 0.87916 0.0
C317 C 0.34451 0.15975 0.86062 0.0
C318 C 0.34545 0.18295 0.87847 0.0
C319 C 0.34693 0.1906 0.85918 0.0
C320 C 0.34385 0.20267 0.85796 0.0
C321 C 0.34031 0.20792 0.8762 0.0
C322 C 0.33974 0.20141 0.89562 0.0
C323 C 0.34211 0.18885 0.8968 0.0
H324 H 0.78899 0.13456 0.87476 0.0
H325 H 0.82876 0.16121 0.91312 0.0
H326 H 0.83001 0.16935 0.84613 0.0
H327 H 0.85415 0.17808 0.84873 0.0
H328 H 0.89095 0.21409 0.88402 0.0
H329 H 0.84785 0.18596 0.91423 0.0
C330 C 0.8008 0.14386 0.87639 0.0
C331 C 0.80894 0.15148 0.85848 0.0
C332 C 0.80772 0.14746 0.89616 0.0
C333 C 0.82339 0.1589 0.89787 0.0
C334 C 0.8319 0.16721 0.87991 0.0
C335 C 0.82429 0.16326 0.86025 0.0
C336 C 0.84854 0.17992 0.8814 0.0
C337 C 0.85822 0.18423 0.86347 0.0
C338 C 0.87342 0.19665 0.86424 0.0
C339 C 0.87933 0.20428 0.88332 0.0
C340 C 0.87029 0.20027 0.90133 0.0
C341 C 0.85484 0.18834 0.90035 0.0
H342 H 0.79574 0.67006 0.87839 0.0
H343 H 0.8247 0.65688 0.90843 0.0
H344 H 0.83232 0.67127 0.84335 0.0
H345 H 0.84271 0.65686 0.84125 0.0
H346 H 0.87939 0.65592 0.87216 0.0
H347 H 0.84989 0.66596 0.90826 0.0
C348 C 0.80563 0.66868 0.87767 0.0
C349 C 0.81345 0.67099 0.85872 0.0
C350 C 0.8098 0.66385 0.89555 0.0
C351 C 0.82206 0.66119 0.89459 0.0
C352 C 0.83065 0.66394 0.87586 0.0
C353 C 0.82607 0.66884 0.85793 0.0
C354 C 0.84417 0.66158 0.87494 0.0
C355 C 0.84889 0.65821 0.85561 0.0
C356 C 0.86157 0.65621 0.85461 0.0
C357 C 0.86949 0.6573 0.87295 0.0
C358 C 0.86523 0.66064 0.89222 0.0
C359 C 0.85267 0.66288 0.89327 0.0
H360 H 0.89307 0.68296 0.47768 0.0
H361 H 0.85595 0.6797 0.44217 0.0
H362 H 0.85821 0.68663 0.50987 0.0
H363 H 0.8337 0.67594 0.50833 0.0
H364 H 0.80005 0.68047 0.47483 0.0
H365 H 0.84065 0.68912 0.44266 0.0
C366 C 0.88244 0.68302 0.47715 0.0
C367 C 0.87613 0.68458 0.49577 0.0
C368 C 0.87533 0.68149 0.45789 0.0
C369 C 0.86147 0.68143 0.45722 0.0
C370 C 0.85469 0.68305 0.47593 0.0
C371 C 0.86246 0.68483 0.4952 0.0
C372 C 0.83952 0.68255 0.47551 0.0
C373 C 0.83031 0.67878 0.49384 0.0
C374 C 0.81621 0.67818 0.49364 0.0
C375 C 0.81093 0.68089 0.47499 0.0
C376 C 0.81959 0.68462 0.45666 0.0
C377 C 0.83395 0.6857 0.45691 0.0
H378 H 0.33554 0.21554 0.47604 0.0
H379 H 0.32996 0.17566 0.44278 0.0
H380 H 0.34456 0.18408 0.50791 0.0
H381 H 0.33211 0.15869 0.50931 0.0
H382 H 0.3408 0.12595 0.47914 0.0
H383 H 0.34306 0.16267 0.44284 0.0
C384 C 0.33612 0.20508 0.47573 0.0
C385 C 0.34018 0.20054 0.49394 0.0
C386 C 0.33245 0.19626 0.45726 0.0
C387 C 0.33312 0.18259 0.45701 0.0
C388 C 0.33725 0.17769 0.4754 0.0
C389 C 0.34089 0.18703 0.49372 0.0
C390 C 0.3377 0.16295 0.47597 0.0
C391 C 0.33523 0.15493 0.49515 0.0
C392 C 0.33655 0.14178 0.49625 0.0
C393 C 0.33995 0.13624 0.4782 0.0
C394 C 0.34216 0.14359 0.45896 0.0
C395 C 0.34099 0.15691 0.45776 0.0
H396 H 0.89434 0.21379 0.47769 0.0
H397 H 0.85149 0.18736 0.44593 0.0
H398 H 0.85733 0.17536 0.50897 0.0
H399 H 0.83291 0.16738 0.51182 0.0
H400 H 0.7927 0.13346 0.47962 0.0
H401 H 0.83345 0.16173 0.44425 0.0
C402 C 0.88273 0.20396 0.47754 0.0
C403 C 0.87678 0.19493 0.49545 0.0
C404 C 0.87377 0.20112 0.45969 0.0
C405 C 0.85842 0.18898 0.45961 0.0
C406 C 0.85206 0.17941 0.47742 0.0
C407 C 0.86157 0.18252 0.4952 0.0
C408 C 0.8355 0.16662 0.47787 0.0
C409 C 0.82744 0.16184 0.49717 0.0
C410 C 0.81208 0.14985 0.49783 0.0
C411 C 0.80447 0.14298 0.47911 0.0
C412 C 0.81203 0.14731 0.45983 0.0
C413 C 0.8276 0.15892 0.45921 0.0
H414 H 0.02761 0.46985 0.2068 0.0
H415 H 0.01401 0.49795 0.24008 0.0
H416 H 0.02725 0.50665 0.17453 0.0
H417 H 0.01154 0.5155 0.17372 0.0
H418 H 1.008 0.55063 0.20705 0.0
H419 H 0.0218 0.52321 0.24034 0.0
C420 C 0.02585 0.4796 0.20698 0.0
C421 C 0.02787 0.48782 0.18857 0.0
C422 C 0.02108 0.48334 0.22552 0.0
C423 C 0.01821 0.49559 0.22574 0.0
C424 C 0.02023 0.50426 0.20731 0.0
C425 C 0.02522 0.50019 0.18882 0.0
C426 C 0.01688 0.51724 0.20717 0.0
C427 C 0.01265 0.52154 0.18834 0.0
C428 C 0.0095 0.53361 0.18821 0.0
C429 C 0.01014 0.54112 0.20704 0.0
C430 C 0.01436 0.53727 0.22575 0.0
C431 C 0.01799 0.52558 0.22581 0.0
H432 H 0.46026 0.46024 0.20718 0.0
H433 H 0.49887 0.49409 0.24284 0.0
H434 H 0.49469 0.50063 0.1765 0.0
H435 H 0.51957 0.51184 0.17656 0.0
H436 H 0.55507 0.55156 0.20803 0.0
H437 H 0.51476 0.52019 0.24243 0.0
C438 C 0.47105 0.47115 0.208 0.0
C439 C 0.47694 0.47978 0.18985 0.0
C440 C 0.47866 0.47639 0.22719 0.0
C441 C 0.4928 0.49047 0.22806 0.0
C442 C 0.49921 0.49938 0.20964 0.0
C443 C 0.49068 0.49401 0.19076 0.0
C444 C 0.51487 0.51384 0.20961 0.0
C445 C 0.52365 0.51863 0.19085 0.0
C446 C 0.53803 0.53222 0.1903 0.0
C447 C 0.54398 0.54097 0.20856 0.0
C448 C 0.5357 0.53671 0.22729 0.0
C449 C 0.52118 0.52312 0.22793 0.0
H450 H 0.46288 1.00368 0.20714 0.0
H451 H 0.49008 0.99023 0.24171 0.0
H452 H 0.49837 1.00085 0.17535 0.0
H453 H 0.50824 0.98627 0.17583 0.0
H454 H 0.54391 0.98525 0.20945 0.0
H455 H 0.5148 0.99742 0.24246 0.0
C456 C 0.47237 1.00164 0.20769 0.0
C457 C 0.4801 1.00243 0.18921 0.0
C458 C 0.47603 0.99748 0.22664 0.0
C459 C 0.48777 0.99397 0.22707 0.0
C460 C 0.49634 0.99526 0.20871 0.0
C461 C 0.49219 0.99951 0.18976 0.0
C462 C 0.50942 0.99214 0.20915 0.0
C463 C 0.51417 0.98792 0.19051 0.0
C464 C 0.52663 0.98553 0.19053 0.0
C465 C 0.53413 0.98685 0.20937 0.0
C466 C 0.52978 0.99089 0.22803 0.0
C467 C 0.51758 0.99371 0.22797 0.0
H468 H 0.55626 0.0115 0.80972 0.0
H469 H 0.52767 0.02432 0.77765 0.0
H470 H 0.51977 0.01149 0.84333 0.0
H471 H 0.50939 0.02594 0.84396 0.0
H472 H 0.47225 0.02514 0.8118 0.0
H473 H 0.50234 0.01504 0.77733 0.0
C474 C 0.54644 0.01302 0.80989 0.0
C475 C 0.53857 0.01124 0.82864 0.0
C476 C 0.54245 0.01757 0.79158 0.0
C477 C 0.53021 0.02028 0.79184 0.0
C478 C 0.52152 0.01796 0.81038 0.0
C479 C 0.52602 0.01349 0.82881 0.0
C480 C 0.50796 0.02028 0.81057 0.0
C481 C 0.50316 0.02409 0.8295 0.0
C482 C 0.49033 0.02584 0.82994 0.0
C483 C 0.4823 0.02401 0.81142 0.0
C484 C 0.48664 0.02027 0.7925 0.0
C485 C 0.49945 0.01841 0.79202 0.0
H486 H 1.00016 0.54713 0.80945 0.0
H487 H 0.99275 0.50678 0.77553 0.0
H488 H 1.00812 0.51461 0.84033 0.0
H489 H 0.9953 0.48931 0.84162 0.0
H490 H 1.00126 0.45519 0.81007 0.0
H491 H 1.00491 0.49293 0.77474 0.0
C492 C 1.00029 0.53643 0.80888 0.0
C493 C 1.00429 0.53158 0.82685 0.0
C494 C 0.99614 0.52763 0.79036 0.0
C495 C 0.99629 0.51368 0.78979 0.0
C496 C 1.00038 0.50847 0.80791 0.0
C497 C 1.00449 0.51779 0.82632 0.0
C498 C 1.00021 0.49338 0.8081 0.0
C499 C 0.99781 0.48529 0.82719 0.0
C500 C 0.99832 0.47165 0.82786 0.0
C501 C 1.00091 0.46577 0.80946 0.0
C502 C 1.0032 0.47329 0.79036 0.0
C503 C 1.00279 0.48705 0.78957 0.0
H504 H 0.56069 0.54802 0.81244 0.0
H505 H 0.51806 0.52203 0.77975 0.0
H506 H 0.5231 0.50979 0.84303 0.0
H507 H 0.49858 0.50201 0.84521 0.0
H508 H 0.45905 0.46758 0.8122 0.0
H509 H 0.50035 0.49601 0.77794 0.0
C510 C 0.54897 0.53837 0.812 0.0
C511 C 0.54277 0.52918 0.82969 0.0
C512 C 0.5402 0.5358 0.79402 0.0
C513 C 0.52485 0.52361 0.79358 0.0
C514 C 0.51825 0.51396 0.8113 0.0
C515 C 0.52753 0.51694 0.82927 0.0
C516 C 0.50171 0.50115 0.81142 0.0
C517 C 0.49335 0.49638 0.83049 0.0
C518 C 0.47802 0.48425 0.83082 0.0
C519 C 0.47078 0.47721 0.81196 0.0
C520 C 0.47871 0.48147 0.79295 0.0
C521 C 0.49421 0.49326 0.79267 0.0
H522 H 0.68031 0.79649 0.54842 0.0
H523 H 0.68523 0.83629 0.58055 0.0
H524 H 0.67429 0.82914 0.51407 0.0
H525 H 0.68528 0.85413 0.51284 0.0
H526 H 0.67727 0.88737 0.54297 0.0
H527 H 0.67422 0.85044 0.57933 0.0
C528 C 0.67998 0.80708 0.54804 0.0
C529 C 0.67737 0.81213 0.52908 0.0
C530 C 0.68244 0.81552 0.56659 0.0
C531 C 0.68279 0.82968 0.56613 0.0
C532 C 0.67997 0.83509 0.54712 0.0
C533 C 0.67712 0.82592 0.52874 0.0
C534 C 0.67969 0.84995 0.54624 0.0
C535 C 0.68225 0.85795 0.527 0.0
C536 C 0.68114 0.87126 0.52584 0.0
C537 C 0.67795 0.87698 0.5439 0.0
C538 C 0.67569 0.86966 0.56313 0.0
C539 C 0.67649 0.85615 0.56437 0.0
H540 H 0.12176 0.80117 0.54071 0.0
H541 H 0.16252 0.8286 0.57694 0.0
H542 H 0.16177 0.83629 0.51018 0.0
H543 H 0.18632 0.84439 0.51211 0.0
H544 H 0.22266 0.88285 0.5449 0.0
H545 H 0.18025 0.8544 0.5767 0.0
C546 C 0.13355 0.81061 0.5417 0.0
C547 C 0.14106 0.81827 0.52343 0.0
C548 C 0.14106 0.81439 0.56106 0.0
C549 C 0.15667 0.82603 0.56201 0.0
C550 C 0.16454 0.83428 0.54371 0.0
C551 C 0.15641 0.83016 0.52446 0.0
C552 C 0.181 0.84731 0.54447 0.0
C553 C 0.19045 0.8512 0.52638 0.0
C554 C 0.20545 0.86401 0.52647 0.0
C555 C 0.21121 0.87274 0.54484 0.0
C556 C 0.20226 0.86927 0.56289 0.0
C557 C 0.1872 0.85656 0.56281 0.0
H558 H 0.12759 0.3342 0.5417 0.0
H559 H 0.15603 0.32149 0.57464 0.0
H560 H 0.16743 0.33928 0.51127 0.0
H561 H 0.17715 0.32396 0.50957 0.0
H562 H 0.21337 0.32361 0.54277 0.0
H563 H 0.18202 0.33218 0.57687 0.0
C564 C 0.13776 0.33328 0.54218 0.0
C565 C 0.14714 0.33729 0.52452 0.0
C566 C 0.14086 0.32761 0.56019 0.0
C567 C 0.15396 0.32624 0.56077 0.0
C568 C 0.16383 0.3303 0.54312 0.0
C569 C 0.16016 0.33585 0.525 0.0
C570 C 0.17757 0.32831 0.54324 0.0
C571 C 0.18298 0.32528 0.52426 0.0
C572 C 0.19583 0.32355 0.52407 0.0
C573 C 0.20328 0.32468 0.5429 0.0
C574 C 0.19833 0.32766 0.56187 0.0
C575 C 0.18549 0.32949 0.56212 0.0
H576 H 0.03473 0.39759 0.04682 0.0
H577 H 0.04319 0.42002 0.0703 0.0
H578 H 0.99683 0.40147 0.09179 0.0
H579 H 0.98828 0.37912 0.06872 0.0
H580 H 0.03168 0.44157 0.07089 0.0
H581 H 0.02258 0.41084 0.14609 0.0
H582 H 0.02419 0.40295 0.12128 0.0
H583 H 1.00653 0.40178 0.12851 0.0
C584 C 0.02636 0.39819 0.05672 0.0
C585 C 0.01082 0.38649 0.05589 0.0
C586 C 0.03121 0.41106 0.07002 0.0
C587 C 0.02064 0.41232 0.08284 0.0
C588 C 1.0052 0.40061 0.08219 0.0
H589 H 0.01303 0.48119 0.15092 0.0
H590 H 0.01443 0.46531 0.12258 0.0
C591 C 1.00033 0.38784 0.06893 0.0
C592 C 0.02549 0.42592 0.09677 0.0
H593 H 0.02552 0.43586 0.14808 0.0
C594 C 0.03057 0.44042 0.0878 0.0
C595 C 0.02408 0.42436 0.11879 0.0
C596 C 0.01918 0.40918 0.1293 0.0
C597 C 0.03366 0.4533 0.10031 0.0
C598 C 0.03156 0.45154 0.12224 0.0
C599 C 0.02708 0.43718 0.13122 0.0
C600 C 0.03318 0.46409 0.13634 0.0
C601 C 0.039 0.46864 0.09003 0.0
C602 C 0.04359 0.46911 0.15306 0.0
C603 C 0.04283 0.47819 0.16918 0.0
C604 C 0.03153 0.48228 0.16897 0.0
C605 C 0.02194 0.47834 0.15137 0.0
C606 C 0.02273 0.46925 0.13518 0.0
H607 H 0.0436 0.46905 0.07405 0.0
H608 H 0.02919 0.47049 0.08864 0.0
H609 H 0.04796 0.47825 0.09964 0.0
H610 H 0.05172 0.46525 0.15425 0.0
H611 H 0.05041 0.48115 0.18252 0.0
H612 H 0.64226 0.62624 0.06201 0.0
H613 H 0.62633 0.60522 0.08614 0.0
H614 H 0.58935 0.6138 0.07781 0.0
H615 H 0.60509 0.63483 0.05386 0.0
H616 H 0.60971 0.60663 0.12473 0.0
H617 H 0.57173 0.56655 0.06226 0.0
H618 H 0.59066 0.58268 0.05688 0.0
H619 H 0.57514 0.58592 0.06182 0.0
C620 C 0.6308 0.62378 0.06545 0.0
C621 C 0.62498 0.63224 0.05587 0.0
C622 C 0.6217 0.61172 0.07919 0.0
C623 C 0.60659 0.6078 0.08343 0.0
C624 C 0.60091 0.6165 0.07446 0.0
H625 H 0.52959 0.54222 0.15645 0.0
H626 H 0.54667 0.55939 0.12906 0.0
C627 C 0.61 0.62861 0.06087 0.0
C628 C 0.59669 0.59465 0.09727 0.0
H629 H 0.56434 0.55886 0.09742 0.0
C630 C 0.59988 0.59611 0.11879 0.0
C631 C 0.58382 0.58102 0.08942 0.0
C632 C 0.58012 0.5788 0.06631 0.0
C633 C 0.59023 0.58448 0.13285 0.0
C634 C 0.5773 0.57079 0.12504 0.0
C635 C 0.57427 0.56927 0.1034 0.0
C636 C 0.56638 0.55835 0.13926 0.0
C637 C 0.59365 0.58733 0.15603 0.0
C638 C 0.5715 0.55133 0.15331 0.0
C639 C 0.5618 0.54164 0.16902 0.0
C640 C 0.54668 0.53848 0.17059 0.0
C641 C 0.54114 0.54433 0.15537 0.0
C642 C 0.55093 0.55422 0.13983 0.0
H643 H 0.60134 0.59981 0.15969 0.0
H644 H 0.58298 0.58303 0.16529 0.0
H645 H 0.59947 0.58116 0.16118 0.0
H646 H 0.58323 0.55395 0.15279 0.0
H647 H 0.56632 0.5373 0.18067 0.0
H648 H 0.3795 0.97259 0.05406 0.0
H649 H 0.40004 0.97712 0.07794 0.0
H650 H 0.41321 0.025 0.08414 0.0
H651 H 0.39262 0.02065 0.06004 0.0
H652 H 0.43294 1.00037 0.07135 0.0
H653 H 0.40881 0.00837 0.14582 0.0
H654 H 0.39695 0.99847 0.12331 0.0
H655 H 0.409 0.01911 0.12334 0.0
C656 C 0.38661 0.98409 0.0606 0.0
C657 C 0.38432 0.99626 0.05505 0.0
C658 C 0.39842 0.98665 0.07422 0.0
C659 C 0.40815 1.00137 0.08281 0.0
C660 C 0.40575 0.01351 0.07777 0.0
H661 H 0.47765 0.02732 0.17954 0.0
H662 H 0.46232 0.02893 0.15132 0.0
C663 C 0.39396 0.01099 0.064 0.0
C664 C 0.42096 1.00394 0.09666 0.0
H665 H 0.43271 0.01017 0.1477 0.0
C666 C 0.43297 1.00262 0.08804 0.0
C667 C 0.42101 0.00696 0.11836 0.0
C668 C 0.40824 0.00824 0.12842 0.0
C669 C 0.44501 1.00414 0.10058 0.0
C670 C 0.44482 0.00664 0.12246 0.0
C671 C 0.43292 0.00828 0.13095 0.0
C672 C 0.45636 0.00693 0.1371 0.0
C673 C 0.45788 1.00324 0.09017 0.0
C674 C 0.45864 0.9943 0.13814 0.0
C675 C 0.46769 0.99354 0.15403 0.0
C676 C 0.47439 0.00525 0.16938 0.0
C677 C 0.47274 0.01822 0.16774 0.0
C678 C 0.46387 0.01908 0.15172 0.0
H679 H 0.45915 0.00672 0.07346 0.0
H680 H 0.46894 0.01072 0.09831 0.0
H681 H 0.4553 0.99113 0.09054 0.0
H682 H 0.4527 0.98458 0.12745 0.0
H683 H 0.46849 0.98326 0.15524 0.0
H684 H 0.3792 0.98521 0.94595 0.0
H685 H 0.40125 0.99319 0.92315 0.0
H686 H 0.42287 0.03922 0.94955 0.0
H687 H 0.40078 0.03129 0.97275 0.0
H688 H 0.4145 0.01673 0.89322 0.0
H689 H 0.45492 0.02585 0.95781 0.0
H690 H 0.43442 0.01541 0.96141 0.0
H691 H 0.44481 0.03612 0.96012 0.0
C692 C 0.38856 0.99708 0.94687 0.0
C693 C 0.38823 0.00758 0.96133 0.0
C694 C 0.40118 1.00161 0.9338 0.0
C695 C 0.41381 0.0167 0.93493 0.0
C696 C 0.41334 0.02743 0.94872 0.0
H697 H 0.48438 0.04876 0.83852 0.0
H698 H 0.46764 0.04877 0.86627 0.0
C699 C 0.40064 0.02291 0.96181 0.0
C700 C 0.42741 0.02095 0.92163 0.0
H701 H 0.46478 0.03025 0.92334 0.0
C702 C 0.42553 0.01984 0.89979 0.0
C703 C 0.44172 0.02476 0.93029 0.0
C704 C 0.44416 0.02551 0.95369 0.0
C705 C 0.43752 0.02229 0.88634 0.0
C706 C 0.45188 0.0262 0.89496 0.0
C707 C 0.45381 0.02741 0.91681 0.0
C708 C 0.46465 0.02828 0.88131 0.0
C709 C 0.43454 0.02012 0.86302 0.0
C710 C 0.46934 0.01737 0.88146 0.0
C711 C 0.47907 0.01746 0.86574 0.0
C712 C 0.48418 0.02844 0.84969 0.0
C713 C 0.48055 0.04015 0.85071 0.0
C714 C 0.47093 0.04011 0.86645 0.0
H715 H 0.42212 0.01395 0.85934 0.0
H716 H 0.44003 0.0316 0.85545 0.0
H717 H 0.43951 0.01352 0.85598 0.0
H718 H 0.46465 0.00817 0.89285 0.0
H719 H 0.48158 0.00823 0.86518 0.0
H720 H 0.97355 0.36372 0.95167 0.0
H721 H 0.97524 0.38294 0.92711 0.0
H722 H 0.02291 0.41282 0.94271 0.0
H723 H 0.02142 0.39339 0.96687 0.0
H724 H 0.98109 0.4112 0.93685 0.0
H725 H 0.02491 0.41624 0.88008 0.0
H726 H 0.01599 0.40072 0.89869 0.0
H727 H 0.03134 0.41947 0.90679 0.0
C728 C 0.98449 0.37424 0.94956 0.0
C729 C 0.99737 0.37699 0.96121 0.0
C730 C 0.98542 0.38526 0.93556 0.0
C731 C 0.99921 0.39934 0.93292 0.0
C732 C 0.01222 0.40194 0.94407 0.0
H733 H 0.01878 0.48094 0.85993 0.0
H734 H 0.01922 0.46455 0.88793 0.0
C735 C 0.01135 0.39081 0.95792 0.0
C736 C 0.99955 0.41157 0.91959 0.0
H737 H 0.01703 0.43461 0.87726 0.0
C738 C 0.98896 0.41629 0.92381 0.0
C739 C 0.00987 0.41833 0.90262 0.0
C740 C 0.02108 0.41335 0.89661 0.0
C741 C 0.98829 0.42739 0.91148 0.0
C742 C 0.99847 0.43399 0.89444 0.0
C743 C 0.0093 0.42959 0.89045 0.0
C744 C 0.99733 0.44461 0.87961 0.0
C745 C 0.97668 0.432 0.91669 0.0
C746 C 0.98475 0.43892 0.866 0.0
C747 C 0.98452 0.44822 0.85007 0.0
C748 C 0.99679 0.46342 0.84761 0.0
C749 C 0.00904 0.46937 0.86186 0.0
C750 C 0.00936 0.45999 0.87768 0.0
H751 H 0.97206 0.42854 0.93282 0.0
H752 H 0.9818 0.44468 0.91519 0.0
H753 H 0.96699 0.42623 0.90548 0.0
H754 H 0.97546 0.42704 0.86703 0.0
H755 H 0.97513 0.4433 0.83897 0.0
H756 H 0.6183 0.63624 0.9472 0.0
H757 H 0.60399 0.61403 0.924 0.0
H758 H 0.62822 0.59291 0.94868 0.0
H759 H 0.64261 0.61517 0.97234 0.0
H760 H 0.61441 0.6014 0.89325 0.0
H761 H 0.58227 0.55982 0.95704 0.0
H762 H 0.59256 0.58048 0.96126 0.0
H763 H 0.60282 0.57042 0.95894 0.0
C764 C 0.62071 0.62695 0.94768 0.0
C765 C 0.63155 0.62746 0.96178 0.0
C766 C 0.6125 0.61425 0.93438 0.0
C767 C 0.61486 0.60172 0.93488 0.0
C768 C 0.62605 0.60236 0.94833 0.0
H769 H 0.57106 0.53297 0.83466 0.0
H770 H 0.58939 0.54806 0.86248 0.0
C771 C 0.63435 0.61515 0.96168 0.0
C772 C 0.60537 0.58807 0.9213 0.0
H773 H 0.57593 0.5505 0.92231 0.0
C774 C 0.60615 0.59019 0.89955 0.0
C775 C 0.59446 0.57355 0.92967 0.0
C776 C 0.59282 0.57085 0.95301 0.0
C777 C 0.59605 0.57835 0.88592 0.0
C778 C 0.58507 0.56383 0.89425 0.0
C779 C 0.58448 0.56157 0.91599 0.0
C780 C 0.57331 0.55148 0.88061 0.0
C781 C 0.59674 0.58175 0.86279 0.0
C782 C 0.55793 0.54741 0.88248 0.0
C783 C 0.54739 0.53858 0.86678 0.0
C784 C 0.55214 0.53379 0.84901 0.0
C785 C 0.56716 0.53659 0.84822 0.0
C786 C 0.57764 0.54528 0.864 0.0
H787 H 0.60366 0.59434 0.85961 0.0
H788 H 0.60206 0.57602 0.85427 0.0
H789 H 0.58507 0.57721 0.85633 0.0
H790 H 0.55436 0.55205 0.89524 0.0
H791 H 0.53591 0.53668 0.86764 0.0
H792 H 0.03612 0.64478 0.94486 0.0
H793 H 0.03215 0.62383 0.92123 0.0
H794 H 0.98859 0.59356 0.95048 0.0
H795 H 0.99232 0.6147 0.97386 0.0
H796 H 0.02991 0.59728 0.93324 0.0
H797 H 0.97754 0.58414 0.88928 0.0
H798 H 0.98826 0.60153 0.90484 0.0
H799 H 0.97542 0.58347 0.91728 0.0
C800 C 0.02554 0.63376 0.94598 0.0
C801 C 0.01452 0.6314 0.96122 0.0
C802 C 0.02331 0.62176 0.93251 0.0
C803 C 0.01007 0.6071 0.93402 0.0
C804 C 0.99877 0.60483 0.94873 0.0
H805 H 0.98835 0.52266 0.86351 0.0
H806 H 0.98975 0.53969 0.89249 0.0
C807 C 1.00092 0.61693 0.9621 0.0
C808 C 0.00875 0.59411 0.92107 0.0
H809 H 0.98728 0.56758 0.88319 0.0
C810 C 0.02055 0.59077 0.92235 0.0
C811 C 0.99649 0.58552 0.90696 0.0
C812 C 0.98376 0.5889 0.90431 0.0
C813 C 0.0206 0.57934 0.90959 0.0
C814 C 1.00854 0.57103 0.8952 0.0
C815 C 0.99647 0.57395 0.89438 0.0
C816 C 0.00895 0.5603 0.8795 0.0
C817 C 0.03362 0.57634 0.91137 0.0
C818 C 0.01948 0.56623 0.86293 0.0
C819 C 0.01864 0.5566 0.84643 0.0
C820 C 1.00734 0.54084 0.84632 0.0
C821 C 0.99732 0.53473 0.86346 0.0
C822 C 0.99803 0.54444 0.87988 0.0
H823 H 0.04012 0.58113 0.9262 0.0
H824 H 0.02931 0.56375 0.91056 0.0
H825 H 0.04162 0.5819 0.89806 0.0
H826 H 0.02787 0.57848 0.86226 0.0
H827 H 0.02636 0.56157 0.83324 0.0
H828 H 0.37481 0.38821 0.95782 0.0
H829 H 0.39078 0.40917 0.93365 0.0
H830 H 0.42592 0.39745 0.93736 0.0
H831 H 0.41003 0.37636 0.96092 0.0
H832 H 0.4189 0.43466 0.94034 0.0
H833 H 0.42256 0.40007 0.87498 0.0
H834 H 0.40891 0.39142 0.89602 0.0
H835 H 0.42838 0.39607 0.89943 0.0
C836 C 0.38583 0.38991 0.95321 0.0
C837 C 0.39104 0.38047 0.96127 0.0
C838 C 0.39498 0.40196 0.93947 0.0
C839 C 0.40949 0.40478 0.93345 0.0
C840 C 0.41464 0.3953 0.94134 0.0
H841 H 0.48719 0.47326 0.86285 0.0
H842 H 0.47078 0.45543 0.89021 0.0
C843 C 0.40551 0.38324 0.95493 0.0
C844 C 0.41955 0.41796 0.9196 0.0
H845 H 0.44085 0.42718 0.87472 0.0
C846 C 0.42358 0.43301 0.92589 0.0
C847 C 0.42565 0.41583 0.90069 0.0
C848 C 0.42103 0.39996 0.89226 0.0
C849 C 0.43385 0.44597 0.91407 0.0
C850 C 0.44026 0.44381 0.89558 0.0
C851 C 0.43609 0.4288 0.88913 0.0
C852 C 0.45093 0.45686 0.88213 0.0
C853 C 0.43803 0.46192 0.9215 0.0
C854 C 0.44533 0.46393 0.86903 0.0
C855 C 0.45465 0.47406 0.85339 0.0
C856 C 0.46976 0.47733 0.85067 0.0
C857 C 0.47568 0.47113 0.86482 0.0
C858 C 0.46629 0.46086 0.88032 0.0
H859 H 0.43365 0.46183 0.93753 0.0
H860 H 0.45066 0.46972 0.92143 0.0
H861 H 0.43313 0.46676 0.91058 0.0
H862 H 0.43348 0.46088 0.87004 0.0
H863 H 0.44979 0.4786 0.84258 0.0
H864 H 0.62508 0.99251 0.95867 0.0
H865 H 0.60561 0.98917 0.93317 0.0
H866 H 0.62004 0.03737 0.94001 0.0
H867 H 0.63962 0.04092 0.9649 0.0
H868 H 0.58123 0.99338 0.93835 0.0
H869 H 0.61965 0.03297 0.8772 0.0
H870 H 0.62658 0.02653 0.89844 0.0
H871 H 0.62329 0.04233 0.90236 0.0
C872 C 0.62428 1.00246 0.95449 0.0
C873 C 0.63406 0.01702 0.96381 0.0
C874 C 0.61307 1.0005 0.93998 0.0
C875 C 0.61147 0.01306 0.93441 0.0
C876 C 0.62125 0.02757 0.94362 0.0
H877 H 0.54792 0.02861 0.86456 0.0
H878 H 0.56417 0.02762 0.89215 0.0
C879 C 0.63245 0.02956 0.95799 0.0
C880 C 0.59928 0.01103 0.91958 0.0
H881 H 0.59331 0.02569 0.87493 0.0
C882 C 0.58389 1.00034 0.92437 0.0
C883 C 0.60271 0.02005 0.90126 0.0
C884 C 0.61896 0.03099 0.89438 0.0
C885 C 0.57189 0.99879 0.91168 0.0
C886 C 0.57536 0.00821 0.89386 0.0
C887 C 0.5907 0.01867 0.88884 0.0
C888 C 0.56332 0.00713 0.87971 0.0
C889 C 0.55554 0.98732 0.91744 0.0
C890 C 0.55713 0.99569 0.86401 0.0
C891 C 0.54791 0.99626 0.84826 0.0
C892 C 0.54467 0.00826 0.84801 0.0
C893 C 0.55003 0.01911 0.86457 0.0
C894 C 0.55939 0.01862 0.88022 0.0
H895 H 0.55465 0.98155 0.93256 0.0
H896 H 0.54887 0.99323 0.91855 0.0
H897 H 0.55026 0.97836 0.90492 0.0
H898 H 0.56011 0.9868 0.86327 0.0
H899 H 0.54402 0.98783 0.8356 0.0
H900 H 0.63767 0.02609 0.07458 0.0
H901 H 0.6158 0.01779 0.09789 0.0
H902 H 0.59333 0.97254 0.06898 0.0
H903 H 0.61528 0.98076 0.04538 0.0
H904 H 0.57494 0.98729 0.07285 0.0
H905 H 0.60247 0.98728 0.1477 0.0
H906 H 0.61324 1.00456 0.13263 0.0
H907 H 0.61013 0.98648 0.12239 0.0
C908 C 0.62818 0.0143 0.07326 0.0
C909 C 0.62828 1.00408 0.05808 0.0
C910 C 0.61569 0.00957 0.08667 0.0
C911 C 0.60299 0.99454 0.08524 0.0
C912 C 0.60306 0.98419 0.07035 0.0
H913 H 0.53338 0.96304 0.18262 0.0
H914 H 0.54978 0.96278 0.1546 0.0
C915 C 0.61565 0.98888 0.05699 0.0
C916 C 0.5895 0.98996 0.09891 0.0
H917 H 0.5789 0.98683 0.1503 0.0
C918 C 0.5757 0.98698 0.08978 0.0
C919 C 0.5905 0.98946 0.12095 0.0
C920 C 0.60483 0.99197 0.13155 0.0
C921 C 0.56305 0.98408 0.10222 0.0
C922 C 0.5643 0.9843 0.12433 0.0
C923 C 0.57793 0.98672 0.13336 0.0
C924 C 0.55194 0.98262 0.13862 0.0
C925 C 0.54849 0.98087 0.0916 0.0
C926 C 0.5472 0.99351 0.13854 0.0
C927 C 0.53772 0.9936 0.15451 0.0
C928 C 0.53297 0.98292 0.17092 0.0
C929 C 0.53689 0.97142 0.17016 0.0
C930 C 0.5463 0.97129 0.1542 0.0
H931 H 0.5478 0.97662 0.07525 0.0
H932 H 0.53826 0.9722 0.10039 0.0
H933 H 0.54822 0.99172 0.09099 0.0
H934 H 0.55162 1.00255 0.12694 0.0
H935 H 0.53506 1.00273 0.15487 0.0
H936 H 0.04285 0.64158 0.06396 0.0
H937 H 0.03799 0.62047 0.08713 0.0
H938 H 0.98942 0.59994 0.07788 0.0
H939 H 0.99417 0.62099 0.05428 0.0
H940 H 0.02154 0.61035 0.12402 0.0
H941 H 0.99652 0.56439 0.0625 0.0
H942 H 1.00676 0.58471 0.05633 0.0
H943 H 0.98738 0.57554 0.06565 0.0
C944 C 0.0311 0.63266 0.06689 0.0
C945 C 0.01891 0.63299 0.05707 0.0
C946 C 0.02835 0.62056 0.08017 0.0
C947 C 0.01337 0.60844 0.08392 0.0
C948 C 1.00111 0.60899 0.07484 0.0
H949 H 0.98633 0.53894 0.18011 0.0
H950 H 0.98599 0.55566 0.1528 0.0
C951 C 1.00384 0.62114 0.06152 0.0
C952 C 0.01078 0.59534 0.09739 0.0
H953 H 0.99718 0.55641 0.0971 0.0
C954 C 0.01617 0.59856 0.11813 0.0
C955 C 1.00389 0.57995 0.08964 0.0
C956 C 0.9984 0.57588 0.06726 0.0
C957 C 0.01482 0.58686 0.13132 0.0
C958 C 1.00788 0.57151 0.12361 0.0
C959 C 1.00245 0.56821 0.10292 0.0
C960 C 1.00631 0.55891 0.13716 0.0
C961 C 0.02093 0.59094 0.15342 0.0
C962 C 0.01747 0.55466 0.1368 0.0
C963 C 0.01768 0.54506 0.15239 0.0
C964 C 1.00676 0.53966 0.16858 0.0
C965 C 0.9949 0.54296 0.16783 0.0
C966 C 0.99469 0.55252 0.15229 0.0
H967 H 0.02705 0.60359 0.15653 0.0
H968 H 0.01132 0.58515 0.16471 0.0
H969 H 0.02889 0.58669 0.15638 0.0
H970 H 0.02656 0.55955 0.12526 0.0
H971 H 0.02705 0.54287 0.15271 0.0
H972 H 0.39834 0.37373 0.06989 0.0
H973 H 0.41426 0.39594 0.09238 0.0
H974 H 0.39202 0.41938 0.06872 0.0
H975 H 0.37586 0.39703 0.04598 0.0
H976 H 0.43423 0.4266 0.07488 0.0
H977 H 0.39307 0.42503 0.13435 0.0
H978 H 0.38923 0.40804 0.11946 0.0
H979 H 0.38799 0.42321 0.107 0.0
C980 C 0.39662 0.38348 0.06962 0.0
C981 C 0.38586 0.38361 0.05598 0.0
C982 C 0.40576 0.39618 0.0825 0.0
C983 C 0.40435 0.4093 0.08215 0.0
C984 C 0.39319 0.4093 0.06931 0.0
H985 H 0.46092 0.48905 0.1659 0.0
H986 H 0.44384 0.47464 0.13625 0.0
C987 C 0.38396 0.39651 0.05636 0.0
C988 C 0.41538 0.42319 0.0943 0.0
H989 H 0.41909 0.44359 0.13923 0.0
C990 C 0.4309 0.43049 0.08878 0.0
C991 C 0.41097 0.42833 0.11224 0.0
C992 C 0.39443 0.42077 0.1188 0.0
C993 C 0.44223 0.4423 0.10131 0.0
C994 C 0.43794 0.44675 0.12001 0.0
C995 C 0.42234 0.44013 0.12487 0.0
C996 C 0.44943 0.4566 0.13604 0.0
C997 C 0.45876 0.44959 0.09472 0.0
C998 C 0.45827 0.4513 0.14552 0.0
C999 C 0.4679 0.45943 0.16229 0.0
C1000 C 0.46889 0.47304 0.16987 0.0
C1001 C 0.46047 0.4787 0.16001 0.0
C1002 C 0.45069 0.47045 0.14324 0.0
H1003 H 0.4598 0.44882 0.07746 0.0
H1004 H 0.46549 0.46192 0.09967 0.0
H1005 H 0.46382 0.44334 0.10218 0.0
H1006 H 0.45724 0.44048 0.14054 0.0
H1007 H 0.47414 0.45477 0.16991 0.0
H1008 H 0.68458 0.7145 0.40816 0.0
H1009 H 0.68735 0.73468 0.43308 0.0
H1010 H 0.66578 0.74946 0.38856 0.0
H1011 H 0.66242 0.72902 0.36426 0.0
H1012 H 0.70046 0.76632 0.43299 0.0
H1013 H 0.63734 0.73792 0.43811 0.0
H1014 H 0.64666 0.72896 0.42517 0.0
H1015 H 0.64434 0.74329 0.41185 0.0
C1016 C 0.68068 0.72225 0.40369 0.0
C1017 C 0.67313 0.72018 0.38454 0.0
C1018 C 0.68223 0.73373 0.41787 0.0
C1019 C 0.67637 0.74328 0.41288 0.0
C1020 C 0.66995 0.74193 0.39301 0.0
H1021 H 0.69076 0.82241 0.49059 0.0
H1022 H 0.69037 0.80656 0.46077 0.0
C1023 C 0.66813 0.73034 0.3791 0.0
C1024 C 0.67604 0.75399 0.42876 0.0
H1025 H 0.65171 0.76243 0.45469 0.0
C1026 C 0.68982 0.76549 0.43777 0.0
C1027 C 0.66209 0.75273 0.43519 0.0
C1028 C 0.64676 0.73996 0.42725 0.0
C1029 C 0.69005 0.77582 0.45299 0.0
C1030 C 0.67614 0.77484 0.45893 0.0
C1031 C 0.66238 0.76333 0.44989 0.0
C1032 C 0.67537 0.7847 0.47581 0.0
C1033 C 0.7051 0.78733 0.46307 0.0
C1034 C 0.66634 0.77769 0.49357 0.0
C1035 C 0.66628 0.78667 0.51032 0.0
C1036 C 0.67533 0.80288 0.50975 0.0
C1037 C 0.68368 0.80995 0.49147 0.0
C1038 C 0.68366 0.80091 0.47458 0.0
H1039 H 0.71393 0.78411 0.4605 0.0
H1040 H 0.70937 0.79886 0.45609 0.0
H1041 H 0.70372 0.78828 0.48021 0.0
H1042 H 0.6597 0.76521 0.49479 0.0
H1043 H 0.65952 0.7809 0.52406 0.0
H1044 H 0.28079 0.97437 0.40827 0.0
H1045 H 0.26554 0.95289 0.43194 0.0
H1046 H 0.29069 0.9311 0.41246 0.0
H1047 H 0.30609 0.95257 0.38872 0.0
H1048 H 0.25698 0.91157 0.41108 0.0
H1049 H 0.27937 0.94176 0.48751 0.0
H1050 H 0.27404 0.95163 0.4692 0.0
H1051 H 0.28978 0.94892 0.46322 0.0
C1052 C 0.28326 0.96513 0.40919 0.0
C1053 C 0.29472 0.96525 0.39658 0.0
C1054 C 0.27452 0.95286 0.42275 0.0
C1055 C 0.27701 0.94043 0.42397 0.0
C1056 C 0.2886 0.9406 0.41175 0.0
H1057 H 0.235 0.87133 0.52122 0.0
H1058 H 0.25267 0.88787 0.49398 0.0
C1059 C 0.29746 0.95295 0.3983 0.0
C1060 C 0.26712 0.92703 0.43749 0.0
H1061 H 0.25681 0.91701 0.48847 0.0
C1062 C 0.25701 0.91269 0.42802 0.0
C1063 C 0.26727 0.9285 0.45956 0.0
C1064 C 0.27827 0.94349 0.47057 0.0
C1065 C 0.24672 0.89988 0.44006 0.0
C1066 C 0.24651 0.90151 0.4621 0.0
C1067 C 0.25694 0.91576 0.47156 0.0
C1068 C 0.23533 0.88887 0.47581 0.0
C1069 C 0.23618 0.88472 0.42914 0.0
C1070 C 0.21958 0.88337 0.47417 0.0
C1071 C 0.20943 0.87381 0.4897 0.0
C1072 C 0.21491 0.86974 0.50718 0.0
C1073 C 0.23048 0.87428 0.50789 0.0
C1074 C 0.24058 0.88379 0.4924 0.0
H1075 H 0.24046 0.88417 0.41327 0.0
H1076 H 0.23481 0.87484 0.43846 0.0
H1077 H 0.22474 0.88341 0.42734 0.0
H1078 H 0.21528 0.88732 0.46169 0.0
H1079 H 0.19755 0.87069 0.48892 0.0
H1080 H 0.06387 0.3564 0.38735 0.0
H1081 H 0.08488 0.36146 0.41107 0.0
H1082 H 0.06167 0.31318 0.42689 0.0
H1083 H 0.04066 0.30801 0.40343 0.0
H1084 H 0.07392 0.3336 0.46178 0.0
H1085 H 0.11689 0.3484 0.39838 0.0
H1086 H 0.10703 0.35897 0.39873 0.0
H1087 H 0.09658 0.33858 0.39325 0.0
C1088 C 0.06313 0.34689 0.39607 0.0
C1089 C 0.05056 0.33177 0.39337 0.0
C1090 C 0.07524 0.34978 0.40946 0.0
C1091 C 0.07498 0.33765 0.42045 0.0
C1092 C 0.06218 0.3227 0.41844 0.0
H1093 H 0.14016 0.32296 0.48617 0.0
H1094 H 0.12426 0.32514 0.45914 0.0
C1095 C 0.05015 0.31978 0.40501 0.0
C1096 C 0.08795 0.34033 0.43408 0.0
H1097 H 0.12537 0.34965 0.43317 0.0
C1098 C 0.0852 0.33723 0.45556 0.0
C1099 C 0.10261 0.34487 0.42587 0.0
C1100 C 0.10602 0.3478 0.40278 0.0
C1101 C 0.09666 0.33846 0.46904 0.0
C1102 C 0.11136 0.34312 0.46089 0.0
C1103 C 0.11415 0.34624 0.43941 0.0
C1104 C 0.12364 0.34408 0.47452 0.0
C1105 C 0.09277 0.33432 0.49183 0.0
C1106 C 0.12931 0.35458 0.49141 0.0
C1107 C 0.13838 0.35337 0.50676 0.0
C1108 C 0.14208 0.34172 0.5054 0.0
C1109 C 0.13763 0.33216 0.48746 0.0
C1110 C 0.12846 0.33333 0.47211 0.0
H1111 H 0.08022 0.32787 0.4946 0.0
H1112 H 0.09751 0.32721 0.49735 0.0
H1113 H 0.0979 0.34507 0.50146 0.0
H1114 H 0.12592 0.36311 0.49341 0.0
H1115 H 0.14163 0.36086 0.52047 0.0
H1116 H 0.06714 0.3577 0.30784 0.0
H1117 H 0.08747 0.3617 0.28314 0.0
H1118 H 0.05845 0.31585 0.25777 0.0
H1119 H 0.03822 0.3117 0.28231 0.0
H1120 H 0.09998 0.33988 0.28043 0.0
H1121 H 0.07557 0.34622 0.20608 0.0
H1122 H 0.07035 0.35023 0.2315 0.0
H1123 H 0.06254 0.33062 0.22267 0.0
C1124 C 0.065 0.34859 0.29672 0.0
C1125 C 0.05107 0.33438 0.29704 0.0
C1126 C 0.07665 0.35086 0.28275 0.0
C1127 C 0.07442 0.33906 0.26866 0.0
C1128 C 0.06035 0.32511 0.26845 0.0
H1129 H 0.12117 0.32206 0.16929 0.0
H1130 H 0.10374 0.32024 0.19726 0.0
C1131 C 0.04881 0.32277 0.28251 0.0
C1132 C 0.08691 0.34086 0.25472 0.0
H1133 H 0.09645 0.34213 0.20314 0.0
C1134 C 0.09936 0.34055 0.26353 0.0
C1135 C 0.08594 0.34161 0.23274 0.0
C1136 C 0.07295 0.34231 0.2226 0.0
C1137 C 0.11063 0.34041 0.2508 0.0
C1138 C 0.10953 0.34091 0.22873 0.0
C1139 C 0.09724 0.34161 0.22004 0.0
C1140 C 0.1208 0.34056 0.21414 0.0
C1141 C 0.12325 0.33913 0.26105 0.0
C1142 C 0.13633 0.35223 0.21474 0.0
C1143 C 0.14636 0.35308 0.19894 0.0
C1144 C 0.14094 0.34239 0.18224 0.0
C1145 C 0.12562 0.33029 0.18221 0.0
C1146 C 0.11566 0.32934 0.19807 0.0
H1147 H 0.12014 0.33459 0.27725 0.0
H1148 H 0.12601 0.33147 0.25179 0.0
H1149 H 0.1337 0.35076 0.26201 0.0
H1150 H 0.14051 0.3612 0.22669 0.0
H1151 H 0.15805 0.3627 0.19897 0.0
H1152 H 0.68809 0.72572 0.29971 0.0
H1153 H 0.69051 0.74628 0.27687 0.0
H1154 H 0.64276 0.71831 0.26059 0.0
H1155 H 0.64017 0.69789 0.2835 0.0
H1156 H 0.68488 0.74798 0.2345 0.0
H1157 H 0.64557 0.75747 0.28416 0.0
H1158 H 0.65354 0.74602 0.2926 0.0
H1159 H 0.63719 0.73777 0.27543 0.0
C1160 C 0.67816 0.72383 0.29099 0.0
C1161 C 0.66389 0.7102 0.29365 0.0
C1162 C 0.67955 0.73564 0.27803 0.0
C1163 C 0.66671 0.73403 0.26751 0.0
C1164 C 0.65272 0.72002 0.26905 0.0
H1165 H 0.64225 0.7788 0.17721 0.0
H1166 H 0.64375 0.76313 0.20513 0.0
C1167 C 0.6513 0.70829 0.28204 0.0
C1168 C 0.66769 0.74701 0.2553 0.0
H1169 H 0.65112 0.76897 0.25017 0.0
C1170 C 0.67768 0.75274 0.23809 0.0
C1171 C 0.65839 0.75334 0.26013 0.0
C1172 C 0.64818 0.74846 0.27922 0.0
C1173 C 0.67799 0.76402 0.22494 0.0
C1174 C 0.66818 0.76982 0.22926 0.0
C1175 C 0.6586 0.76449 0.24687 0.0
C1176 C 0.66673 0.78035 0.21459 0.0
C1177 C 0.68831 0.76916 0.20597 0.0
C1178 C 0.6789 0.79551 0.2113 0.0
C1179 C 0.67796 0.80457 0.19553 0.0
C1180 C 0.66485 0.79856 0.18283 0.0
C1181 C 0.65238 0.78374 0.18698 0.0
C1182 C 0.65328 0.77476 0.20281 0.0
H1183 H 0.69354 0.76196 0.20317 0.0
H1184 H 0.68182 0.76868 0.19174 0.0
H1185 H 0.69766 0.78133 0.20829 0.0
H1186 H 0.68933 0.80009 0.22038 0.0
H1187 H 0.68779 0.81587 0.19238 0.0
H1188 H 0.27586 0.96836 0.29867 0.0
H1189 H 0.26037 0.94798 0.27369 0.0
H1190 H 0.29356 0.93347 0.27308 0.0
H1191 H 0.30917 0.95382 0.29881 0.0
H1192 H 0.26693 0.94327 0.23442 0.0
H1193 H 0.25396 0.89303 0.28414 0.0
H1194 H 0.26241 0.91242 0.29461 0.0
H1195 H 0.27398 0.90664 0.28034 0.0
C1196 C 0.27999 0.96091 0.29331 0.0
C1197 C 0.29381 0.96275 0.3009 0.0
C1198 C 0.27105 0.9492 0.27898 0.0
C1199 C 0.27565 0.93903 0.27176 0.0
C1200 C 0.2896 0.94098 0.27883 0.0
H1201 H 0.23566 0.86935 0.17364 0.0
H1202 H 0.25146 0.88619 0.20245 0.0
C1203 C 0.29858 0.9527 0.29338 0.0
C1204 C 0.26581 0.9267 0.25649 0.0
H1205 H 0.24438 0.88751 0.24935 0.0
C1206 C 0.26201 0.93108 0.23772 0.0
C1207 C 0.25935 0.91079 0.26085 0.0
C1208 C 0.26249 0.90537 0.28114 0.0
C1209 C 0.25191 0.92003 0.22322 0.0
C1210 C 0.24539 0.90418 0.22763 0.0
C1211 C 0.24934 0.89972 0.24618 0.0
C1212 C 0.23483 0.89218 0.21263 0.0
C1213 C 0.24834 0.92537 0.20316 0.0
C1214 C 0.22005 0.88958 0.20938 0.0
C1215 C 0.21096 0.87988 0.19302 0.0
C1216 C 0.21662 0.87279 0.17965 0.0
C1217 C 0.23108 0.87475 0.18372 0.0
C1218 C 0.24009 0.88432 0.20015 0.0
H1219 H 0.2561 0.93796 0.20066 0.0
H1220 H 0.24927 0.91897 0.18948 0.0
H1221 H 0.23641 0.92293 0.20377 0.0
H1222 H 0.21583 0.89556 0.21895 0.0
H1223 H 0.19991 0.87864 0.19008 0.0
H1224 H 0.6596 0.94836 0.30791 0.0
H1225 H 0.6565 0.9273 0.28468 0.0
H1226 H 0.69991 0.95829 0.25566 0.0
H1227 H 0.70321 0.97917 0.27891 0.0
H1228 H 0.65624 0.92326 0.24142 0.0
H1229 H 0.70622 0.92396 0.2765 0.0
H1230 H 0.69755 0.93402 0.28826 0.0
H1231 H 0.71092 0.94256 0.26696 0.0
C1232 C 0.66833 0.95072 0.29631 0.0
C1233 C 0.68174 0.96536 0.29541 0.0
C1234 C 0.6666 0.93867 0.28316 0.0
C1235 C 0.67822 0.94112 0.26893 0.0
C1236 C 0.69105 0.95601 0.26701 0.0
H1237 H 0.69346 0.89768 0.16513 0.0
H1238 H 0.69448 0.91422 0.19435 0.0
C1239 C 0.69285 0.96797 0.28019 0.0
C1240 C 0.67724 0.92819 0.25627 0.0
H1241 H 0.69728 0.91046 0.24357 0.0
C1242 C 0.66506 0.92027 0.24212 0.0
C1243 C 0.6887 0.9242 0.25737 0.0
C1244 C 0.70149 0.93152 0.27325 0.0
C1245 C 0.66451 0.90906 0.22825 0.0
C1246 C 0.67639 0.90569 0.22864 0.0
C1247 C 0.68824 0.91315 0.2433 0.0
C1248 C 0.67726 0.89536 0.21275 0.0
C1249 C 0.65159 0.90129 0.21262 0.0
C1250 C 0.66768 0.87927 0.21393 0.0
C1251 C 0.66722 0.86978 0.19736 0.0
C1252 C 0.67623 0.87633 0.17939 0.0
C1253 C 0.68644 0.89238 0.17885 0.0
C1254 C 0.68699 0.90181 0.19546 0.0
H1255 H 0.6437 0.90584 0.21354 0.0
H1256 H 0.65627 0.90295 0.19646 0.0
H1257 H 0.64494 0.88868 0.21557 0.0
H1258 H 0.66013 0.87412 0.22723 0.0
H1259 H 0.65914 0.85746 0.19802 0.0
H1260 H 0.07548 0.70255 0.29119 0.0
H1261 H 0.09214 0.72275 0.2668 0.0
H1262 H 0.06422 0.7434 0.27277 0.0
H1263 H 0.04731 0.7231 0.2972 0.0
H1264 H 0.07328 0.74179 0.231 0.0
H1265 H 0.12291 0.76739 0.28532 0.0
H1266 H 0.11471 0.74706 0.28046 0.0
H1267 H 0.10365 0.75387 0.29385 0.0
C1268 C 0.07276 0.7113 0.28727 0.0
C1269 C 0.06009 0.71124 0.29637 0.0
C1270 C 0.08239 0.72292 0.2734 0.0
C1271 C 0.07965 0.7348 0.26839 0.0
C1272 C 0.06664 0.73442 0.27662 0.0
H1273 H 0.12535 0.81296 0.18335 0.0
H1274 H 0.10937 0.79536 0.21112 0.0
C1275 C 0.05694 0.72276 0.29052 0.0
C1276 C 0.09045 0.7476 0.25462 0.0
H1277 H 0.12777 0.77671 0.25038 0.0
C1278 C 0.08516 0.74952 0.23529 0.0
C1279 C 0.10596 0.75764 0.26024 0.0
C1280 C 0.11216 0.75652 0.28117 0.0
C1281 C 0.09507 0.7609 0.22113 0.0
C1282 C 0.11062 0.7709 0.2267 0.0
C1283 C 0.11587 0.76907 0.24614 0.0
C1284 C 0.12164 0.78307 0.2123 0.0
C1285 C 0.08887 0.76174 0.20005 0.0
C1286 C 0.13448 0.78272 0.20478 0.0
C1287 C 0.14383 0.79303 0.18926 0.0
C1288 C 0.14045 0.80381 0.1811 0.0
C1289 C 0.12819 0.80478 0.18954 0.0
C1290 C 0.11897 0.79461 0.20517 0.0
H1291 H 0.07807 0.75086 0.19611 0.0
H1292 H 0.08638 0.77125 0.20038 0.0
H1293 H 0.09732 0.76412 0.18739 0.0
H1294 H 0.13682 0.77397 0.21016 0.0
H1295 H 0.1531 0.79195 0.18274 0.0
H1296 H 0.31164 0.377 0.29477 0.0
H1297 H 0.29195 0.37395 0.27042 0.0
H1298 H 0.27373 0.32477 0.26784 0.0
H1299 H 0.29326 0.32765 0.29285 0.0
H1300 H 0.28504 0.36328 0.23101 0.0
H1301 H 0.23582 0.32623 0.2827 0.0
H1302 H 0.25534 0.33612 0.29191 0.0
H1303 H 0.24789 0.3185 0.27686 0.0
C1304 C 0.30353 0.36549 0.28903 0.0
C1305 C 0.30403 0.35255 0.29602 0.0
C1306 C 0.29223 0.36378 0.27505 0.0
C1307 C 0.2811 0.3491 0.26763 0.0
C1308 C 0.28192 0.33619 0.27379 0.0
H1309 H 0.2096 0.3214 0.17468 0.0
H1310 H 0.22677 0.32208 0.20205 0.0
C1311 C 0.29322 0.33787 0.28792 0.0
C1312 C 0.26877 0.34754 0.25344 0.0
H1313 H 0.22993 0.33065 0.24847 0.0
C1314 C 0.273 0.35618 0.2349 0.0
C1315 C 0.25302 0.33832 0.25851 0.0
C1316 C 0.2477 0.32937 0.27866 0.0
C1317 C 0.26199 0.35575 0.22127 0.0
C1318 C 0.24629 0.34654 0.22633 0.0
C1319 C 0.24199 0.33778 0.24472 0.0
C1320 C 0.23425 0.34546 0.21212 0.0
C1321 C 0.26718 0.36498 0.20132 0.0
C1322 C 0.23231 0.35818 0.20929 0.0
C1323 C 0.22235 0.35774 0.19381 0.0
C1324 C 0.21429 0.34461 0.18087 0.0
C1325 C 0.21564 0.33162 0.18454 0.0
C1326 C 0.22546 0.33201 0.2001 0.0
H1327 H 0.2795 0.36954 0.19807 0.0
H1328 H 0.26036 0.35776 0.18776 0.0
H1329 H 0.26535 0.3749 0.2027 0.0
H1330 H 0.23896 0.36864 0.2185 0.0
H1331 H 0.22164 0.36795 0.19112 0.0
H1332 H 0.28419 0.31739 0.37976 0.0
H1333 H 0.26236 0.31029 0.40314 0.0
H1334 H 0.28505 0.35671 0.42829 0.0
H1335 H 0.30684 0.36389 0.40529 0.0
H1336 H 0.272 0.33354 0.45891 0.0
H1337 H 0.23068 0.3243 0.39558 0.0
H1338 H 0.24052 0.31378 0.393 0.0
H1339 H 0.25111 0.33447 0.39134 0.0
C1340 C 0.2846 0.32605 0.39042 0.0
C1341 C 0.29727 0.34124 0.39053 0.0
C1342 C 0.27205 0.322 0.40362 0.0
C1343 C 0.27197 0.33305 0.41718 0.0
C1344 C 0.28481 0.34804 0.41783 0.0
H1345 H 0.20475 0.3417 0.48925 0.0
H1346 H 0.22175 0.34222 0.46132 0.0
C1347 C 0.29728 0.3521 0.40464 0.0
C1348 C 0.25866 0.3292 0.4309 0.0
H1349 H 0.22135 0.32016 0.43037 0.0
C1350 C 0.26089 0.33049 0.45268 0.0
C1351 C 0.24425 0.32546 0.4227 0.0
C1352 C 0.24143 0.32451 0.39938 0.0
C1353 C 0.24915 0.32822 0.46651 0.0
C1354 C 0.23468 0.32432 0.45835 0.0
C1355 C 0.2324 0.323 0.43656 0.0
C1356 C 0.22207 0.32218 0.47243 0.0
C1357 C 0.25249 0.33048 0.48974 0.0
C1358 C 0.216 0.31027 0.48719 0.0
C1359 C 0.20633 0.30997 0.50306 0.0
C1360 C 0.20246 0.3215 0.50436 0.0
C1361 C 0.20745 0.33262 0.4885 0.0
C1362 C 0.21722 0.33296 0.47263 0.0
H1363 H 0.26497 0.33669 0.49305 0.0
H1364 H 0.2476 0.33708 0.49702 0.0
H1365 H 0.24716 0.31903 0.49737 0.0
H1366 H 0.2194 0.30169 0.4871 0.0
H1367 H 0.20256 0.30122 0.51505 0.0
H1368 H 0.71065 0.98089 0.40323 0.0
H1369 H 0.7075 0.96093 0.42755 0.0
H1370 H 0.65998 0.93295 0.41021 0.0
H1371 H 0.66301 0.95294 0.38567 0.0
H1372 H 0.68604 0.94678 0.46214 0.0
H1373 H 0.67874 0.90486 0.39902 0.0
H1374 H 0.68677 0.92519 0.39403 0.0
H1375 H 0.66657 0.91294 0.3981 0.0
C1376 C 0.69946 0.97057 0.40468 0.0
C1377 C 0.6871 0.96851 0.39237 0.0
C1378 C 0.6977 0.95916 0.41861 0.0
C1379 C 0.68359 0.94535 0.42043 0.0
C1380 C 0.67104 0.94344 0.40879 0.0
H1381 H 0.65996 0.86359 0.49512 0.0
H1382 H 0.66021 0.881 0.46821 0.0
C1383 C 0.67276 0.95494 0.39493 0.0
C1384 C 0.68227 0.93298 0.43434 0.0
H1385 H 0.67846 0.89721 0.43389 0.0
C1386 C 0.68432 0.93591 0.45599 0.0
C1387 C 0.67995 0.91879 0.42627 0.0
C1388 C 0.67796 0.91518 0.40308 0.0
C1389 C 0.68419 0.92508 0.4698 0.0
C1390 C 0.68242 0.9111 0.46168 0.0
C1391 C 0.67998 0.90799 0.44007 0.0
C1392 C 0.68311 0.89967 0.47552 0.0
C1393 C 0.68576 0.92867 0.49303 0.0
C1394 C 0.69618 0.90403 0.48776 0.0
C1395 C 0.69604 0.89411 0.50303 0.0
C1396 C 0.68295 0.87951 0.50603 0.0
C1397 C 0.67029 0.87467 0.49276 0.0
C1398 C 0.67039 0.88466 0.47755 0.0
H1399 H 0.68259 0.93742 0.49708 0.0
H1400 H 0.67846 0.9181 0.50228 0.0
H1401 H 0.69784 0.93342 0.49777 0.0
H1402 H 0.70625 0.91542 0.48618 0.0
H1403 H 0.70583 0.89817 0.51333 0.0
H1404 H 0.04416 0.7298 0.37978 0.0
H1405 H 0.059 0.75229 0.4029 0.0
H1406 H 0.08149 0.73006 0.42978 0.0
H1407 H 0.06677 0.70763 0.407 0.0
H1408 H 0.07112 0.74434 0.45935 0.0
H1409 H 0.10597 0.78345 0.39466 0.0
H1410 H 0.08549 0.77338 0.39181 0.0
H1411 H 0.09514 0.76268 0.39158 0.0
C1412 C 0.0521 0.72962 0.39083 0.0
C1413 C 0.05434 0.71694 0.39144 0.0
C1414 C 0.06067 0.74253 0.40386 0.0
C1415 C 0.07152 0.74292 0.41775 0.0
C1416 C 0.07326 0.73003 0.41904 0.0
H1417 H 0.14917 0.808 0.48883 0.0
H1418 H 0.13189 0.79172 0.46063 0.0
C1419 C 0.06481 0.71721 0.40599 0.0
C1420 C 0.08129 0.75671 0.43092 0.0
H1421 H 0.11182 0.79369 0.42906 0.0
C1422 C 0.07989 0.7552 0.45276 0.0
C1423 C 0.09285 0.77076 0.42218 0.0
C1424 C 0.09511 0.77275 0.39878 0.0
C1425 C 0.0899 0.76728 0.46617 0.0
C1426 C 0.1015 0.78134 0.45748 0.0
C1427 C 0.10281 0.78295 0.43562 0.0
C1428 C 0.11287 0.794 0.47109 0.0
C1429 C 0.08837 0.76467 0.48956 0.0
C1430 C 0.10815 0.80136 0.48547 0.0
C1431 C 0.11796 0.8106 0.50153 0.0
C1432 C 0.13268 0.81272 0.50332 0.0
C1433 C 0.13792 0.80663 0.48767 0.0
C1434 C 0.12805 0.79728 0.47165 0.0
H1435 H 0.08084 0.75227 0.49345 0.0
H1436 H 0.09975 0.76894 0.49685 0.0
H1437 H 0.08334 0.77117 0.49668 0.0
H1438 H 0.09654 0.79912 0.48511 0.0
H1439 H 0.1137 0.81524 0.5134 0.0
H1440 H 0.32942 0.06257 0.69667 0.0
H1441 H 0.33365 0.08377 0.72001 0.0
H1442 H 0.35577 0.06966 0.76464 0.0
H1443 H 0.35214 0.04874 0.7406 0.0
H1444 H 0.32081 0.07981 0.75651 0.0
H1445 H 0.38354 0.11572 0.76753 0.0
H1446 H 0.37499 0.10126 0.74702 0.0
H1447 H 0.37623 0.09576 0.77336 0.0
C1448 C 0.33553 0.06426 0.71126 0.0
C1449 C 0.34047 0.05411 0.71694 0.0
C1450 C 0.33791 0.07634 0.72459 0.0
C1451 C 0.34507 0.07839 0.74408 0.0
C1452 C 0.35052 0.06855 0.7495 0.0
H1453 H 0.32758 0.11508 0.8553 0.0
H1454 H 0.32753 0.09969 0.82548 0.0
C1455 C 0.3484 0.05657 0.73586 0.0
C1456 C 0.3452 0.08969 0.7594 0.0
H1457 H 0.36803 0.11978 0.79225 0.0
C1458 C 0.3312 0.08865 0.76412 0.0
C1459 C 0.35873 0.10137 0.76917 0.0
C1460 C 0.37424 0.10373 0.76386 0.0
C1461 C 0.33028 0.09868 0.77867 0.0
C1462 C 0.34366 0.10979 0.7893 0.0
C1463 C 0.35775 0.11117 0.78418 0.0
C1464 C 0.34307 0.11936 0.8067 0.0
C1465 C 0.31496 0.09727 0.78247 0.0
C1466 C 0.35188 0.13558 0.80612 0.0
C1467 C 0.35202 0.14444 0.82331 0.0
C1468 C 0.34348 0.13719 0.8414 0.0
C1469 C 0.33434 0.12098 0.84162 0.0
C1470 C 0.33421 0.11217 0.82452 0.0
H1471 H 0.30729 0.0921 0.76867 0.0
H1472 H 0.3093 0.08957 0.79601 0.0
H1473 H 0.31625 0.10869 0.78603 0.0
H1474 H 0.35883 0.14134 0.79252 0.0
H1475 H 0.35928 0.1569 0.82281 0.0
H1476 H 0.9452 0.30561 0.74016 0.0
H1477 H 0.93048 0.28488 0.76509 0.0
H1478 H 0.95792 0.2647 0.75024 0.0
H1479 H 0.9728 0.28543 0.72528 0.0
H1480 H 0.92419 0.24383 0.74801 0.0
H1481 H 0.94456 0.27682 0.82303 0.0
H1482 H 0.93895 0.28547 0.80314 0.0
H1483 H 0.95531 0.28346 0.7989 0.0
C1484 C 0.94829 0.29692 0.74239 0.0
C1485 C 0.96023 0.29724 0.7307 0.0
C1486 C 0.93985 0.28507 0.75667 0.0
C1487 C 0.94313 0.27328 0.75951 0.0
C1488 C 0.95523 0.27371 0.74826 0.0
H1489 H 0.90345 0.20539 0.85865 0.0
H1490 H 0.92062 0.22232 0.8313 0.0
C1491 C 0.96378 0.28564 0.73411 0.0
C1492 C 0.9335 0.2602 0.77363 0.0
H1493 H 0.923 0.25144 0.82485 0.0
C1494 C 0.92399 0.24544 0.76483 0.0
C1495 C 0.93334 0.26233 0.79555 0.0
C1496 C 0.94366 0.27783 0.80583 0.0
C1497 C 0.91401 0.23282 0.77739 0.0
C1498 C 0.91354 0.23506 0.79925 0.0
C1499 C 0.92334 0.24974 0.80806 0.0
C1500 C 0.90276 0.22252 0.81337 0.0
C1501 C 0.90407 0.21718 0.76725 0.0
C1502 C 0.88692 0.21655 0.81196 0.0
C1503 C 0.87706 0.20687 0.82763 0.0
C1504 C 0.88291 0.20311 0.84503 0.0
C1505 C 0.89862 0.20818 0.84552 0.0
C1506 C 0.90845 0.21787 0.82993 0.0
H1507 H 0.90821 0.21655 0.75132 0.0
H1508 H 0.90366 0.20793 0.77702 0.0
H1509 H 0.89223 0.21492 0.76579 0.0
H1510 H 0.8823 0.22014 0.79946 0.0
H1511 H 0.86506 0.20332 0.82693 0.0
H1512 H 0.70711 0.63969 0.73337 0.0
H1513 H 0.7275 0.64443 0.75778 0.0
H1514 H 0.75028 0.69321 0.74524 0.0
H1515 H 0.72988 0.68862 0.72067 0.0
H1516 H 0.76949 0.67914 0.74274 0.0
H1517 H 0.73612 0.66578 0.81669 0.0
H1518 H 0.72723 0.65154 0.79615 0.0
H1519 H 0.73011 0.67052 0.79272 0.0
C1520 C 0.71635 0.65147 0.73592 0.0
C1521 C 0.71678 0.66377 0.72504 0.0
C1522 C 0.728 0.65415 0.74992 0.0
C1523 C 0.74038 0.66917 0.75339 0.0
C1524 C 0.74082 0.68153 0.7428 0.0
H1525 H 0.80547 0.69291 0.85492 0.0
H1526 H 0.78949 0.69431 0.82757 0.0
C1527 C 0.72908 0.67888 0.72887 0.0
C1528 C 0.75298 0.67182 0.76775 0.0
H1529 H 0.7605 0.66814 0.81877 0.0
C1530 C 0.76759 0.67685 0.7594 0.0
C1531 C 0.75048 0.66892 0.78948 0.0
C1532 C 0.73518 0.66401 0.7994 0.0
C1533 C 0.77966 0.67865 0.77217 0.0
C1534 C 0.77701 0.67529 0.79378 0.0
C1535 C 0.76251 0.67065 0.80217 0.0
C1536 C 0.78898 0.67632 0.80814 0.0
C1537 C 0.79515 0.6842 0.7625 0.0
C1538 C 0.79448 0.66611 0.80595 0.0
C1539 C 0.80365 0.66528 0.82163 0.0
C1540 C 0.80736 0.67457 0.83979 0.0
C1541 C 0.80272 0.68553 0.84117 0.0
C1542 C 0.79357 0.68633 0.82557 0.0
H1543 H 0.79628 0.68958 0.74699 0.0
H1544 H 0.8044 0.6927 0.77299 0.0
H1545 H 0.79682 0.67422 0.76025 0.0
H1546 H 0.79093 0.65813 0.79277 0.0
H1547 H 0.80689 0.65661 0.82025 0.0
H1548 H 0.73449 0.6916 0.64058 0.0
H1549 H 0.75481 0.69578 0.61573 0.0
H1550 H 0.72502 0.65096 0.58791 0.0
H1551 H 0.70481 0.64664 0.61258 0.0
H1552 H 0.76662 0.6737 0.61141 0.0
H1553 H 0.74317 0.68232 0.53777 0.0
H1554 H 0.73777 0.68573 0.56344 0.0
H1555 H 0.72976 0.66635 0.55352 0.0
C1556 C 0.73218 0.68278 0.62889 0.0
C1557 C 0.71803 0.66879 0.62855 0.0
C1558 C 0.74382 0.68514 0.61482 0.0
C1559 C 0.74138 0.67368 0.59999 0.0
C1560 C 0.72709 0.65998 0.59914 0.0
H1561 H 0.78669 0.65556 0.49999 0.0
H1562 H 0.76961 0.65456 0.52791 0.0
C1563 C 0.71556 0.65754 0.61329 0.0
C1564 C 0.75385 0.67549 0.58595 0.0
H1565 H 0.76342 0.67727 0.53428 0.0
C1566 C 0.76608 0.67469 0.59455 0.0
C1567 C 0.753 0.67666 0.56401 0.0
C1568 C 0.74029 0.67794 0.55406 0.0
C1569 C 0.77721 0.67438 0.58166 0.0
C1570 C 0.77619 0.67522 0.55962 0.0
C1571 C 0.76415 0.67649 0.55115 0.0
C1572 C 0.78718 0.67449 0.54484 0.0
C1573 C 0.78955 0.67252 0.59168 0.0
C1574 C 0.80287 0.68568 0.54545 0.0
C1575 C 0.81271 0.68609 0.52964 0.0
C1576 C 0.80694 0.67545 0.51286 0.0
C1577 C 0.79141 0.66382 0.51285 0.0
C1578 C 0.78165 0.66332 0.52871 0.0
H1579 H 0.78639 0.66793 0.60784 0.0
H1580 H 0.79191 0.66464 0.58223 0.0
H1581 H 0.80025 0.68396 0.59265 0.0
H1582 H 0.80738 0.69461 0.55747 0.0
H1583 H 0.82458 0.69534 0.52976 0.0
H1584 H 0.30695 0.03046 0.61575 0.0
H1585 H 0.30971 0.05052 0.59194 0.0
H1586 H 0.3572 0.07894 0.60938 0.0
H1587 H 0.35462 0.05874 0.63296 0.0
H1588 H 0.31671 0.07934 0.60363 0.0
H1589 H 0.35984 0.0833 0.54636 0.0
H1590 H 0.35003 0.06732 0.56413 0.0
H1591 H 0.36583 0.08544 0.57322 0.0
C1592 C 0.31809 0.04084 0.61421 0.0
C1593 C 0.33057 0.04295 0.62628 0.0
C1594 C 0.31963 0.05234 0.60063 0.0
C1595 C 0.33367 0.06625 0.59877 0.0
C1596 C 0.34632 0.06821 0.61022 0.0
H1597 H 0.35798 0.14927 0.52646 0.0
H1598 H 0.35751 0.13211 0.55396 0.0
C1599 C 0.34482 0.05662 0.62372 0.0
C1600 C 0.33464 0.079 0.58594 0.0
H1601 H 0.35282 0.10231 0.54413 0.0
C1602 C 0.32461 0.08434 0.59061 0.0
C1603 C 0.34503 0.08564 0.56905 0.0
C1604 C 0.35571 0.08006 0.56272 0.0
C1605 C 0.32458 0.09601 0.57879 0.0
C1606 C 0.33477 0.10246 0.56171 0.0
C1607 C 0.34505 0.09739 0.55731 0.0
C1608 C 0.33433 0.11376 0.54738 0.0
C1609 C 0.31368 0.1014 0.58472 0.0
C1610 C 0.32135 0.10928 0.5349 0.0
C1611 C 0.32162 0.11907 0.51931 0.0
C1612 C 0.33481 0.13354 0.51604 0.0
C1613 C 0.34755 0.13833 0.52912 0.0
C1614 C 0.34733 0.12848 0.54463 0.0
H1615 H 0.30968 0.09846 0.60118 0.0
H1616 H 0.31914 0.11408 0.58275 0.0
H1617 H 0.30351 0.09564 0.57431 0.0
H1618 H 0.31131 0.09788 0.53644 0.0
H1619 H 0.31184 0.11499 0.50899 0.0
H1620 H 0.97656 0.28265 0.63612 0.0
H1621 H 0.9627 0.26142 0.6107 0.0
H1622 H 0.92787 0.27344 0.60529 0.0
H1623 H 0.9415 0.29456 0.63022 0.0
H1624 H 0.93085 0.23552 0.61276 0.0
H1625 H 0.94178 0.2733 0.54426 0.0
H1626 H 0.95288 0.28023 0.56812 0.0
H1627 H 0.93426 0.27813 0.56671 0.0
C1628 C 0.966 0.28083 0.62942 0.0
C1629 C 0.96025 0.29044 0.63514 0.0
C1630 C 0.95807 0.26866 0.61498 0.0
C1631 C 0.94436 0.26599 0.60598 0.0
C1632 C 0.93856 0.27545 0.61181 0.0
H1633 H 0.86842 0.19837 0.53506 0.0
H1634 H 0.88577 0.21319 0.56396 0.0
C1635 C 0.94641 0.28755 0.62613 0.0
C1636 C 0.93593 0.2534 0.59041 0.0
H1637 H 0.92212 0.24687 0.54036 0.0
C1638 C 0.92909 0.23796 0.59684 0.0
C1639 C 0.9337 0.25664 0.56965 0.0
C1640 C 0.94115 0.27297 0.56167 0.0
C1641 C 0.91955 0.22569 0.58321 0.0
C1642 C 0.91687 0.22901 0.56277 0.0
C1643 C 0.92416 0.24439 0.55613 0.0
C1644 C 0.90617 0.21687 0.54801 0.0
C1645 C 0.91222 0.20927 0.59065 0.0
C1646 C 0.91186 0.21354 0.52991 0.0
C1647 C 0.90199 0.20497 0.51352 0.0
C1648 C 0.88627 0.19981 0.5148 0.0
C1649 C 0.88043 0.20206 0.53367 0.0
C1650 C 0.89033 0.21058 0.55016 0.0
H1651 H 0.91687 0.20849 0.60601 0.0
H1652 H 0.8997 0.20432 0.59228 0.0
H1653 H 0.914 0.20211 0.5789 0.0
H1654 H 0.92406 0.21835 0.52797 0.0
H1655 H 0.90679 0.20327 0.49924 0.0
H1656 H 0.32598 0.28237 0.64115 0.0
H1657 H 0.32257 0.261 0.61835 0.0
H1658 H 0.36472 0.29199 0.58649 0.0
H1659 H 0.36832 0.3132 0.60928 0.0
H1660 H 0.32132 0.25599 0.57472 0.0
H1661 H 0.37263 0.25887 0.60888 0.0
H1662 H 0.36369 0.2687 0.62054 0.0
H1663 H 0.3766 0.2771 0.59874 0.0
C1664 C 0.33433 0.28468 0.62899 0.0
C1665 C 0.34752 0.29942 0.62718 0.0
C1666 C 0.33243 0.27245 0.61608 0.0
C1667 C 0.34365 0.27483 0.60121 0.0
C1668 C 0.35617 0.2898 0.59832 0.0
H1669 H 0.36043 0.23118 0.49971 0.0
H1670 H 0.36084 0.24756 0.52872 0.0
C1671 C 0.35814 0.30194 0.61125 0.0
C1672 C 0.34272 0.26173 0.58906 0.0
H1673 H 0.36329 0.24453 0.57663 0.0
C1674 C 0.33034 0.25328 0.57538 0.0
C1675 C 0.35445 0.25812 0.59012 0.0
C1676 C 0.36751 0.26607 0.60553 0.0
C1677 C 0.32985 0.24192 0.56185 0.0
C1678 C 0.342 0.23893 0.56217 0.0
C1679 C 0.35404 0.24692 0.57643 0.0
C1680 C 0.34305 0.22864 0.54642 0.0
C1681 C 0.31675 0.23367 0.5466 0.0
C1682 C 0.33334 0.21254 0.54728 0.0
C1683 C 0.33324 0.20314 0.53084 0.0
C1684 C 0.34275 0.20978 0.51332 0.0
C1685 C 0.35304 0.22582 0.5131 0.0
C1686 C 0.35324 0.23516 0.52958 0.0
H1687 H 0.30885 0.23822 0.54717 0.0
H1688 H 0.3212 0.23481 0.53037 0.0
H1689 H 0.31014 0.22117 0.5503 0.0
H1690 H 0.32546 0.20733 0.56024 0.0
H1691 H 0.32509 0.19082 0.53121 0.0
H1692 H 0.74344 0.04099 0.62596 0.0
H1693 H 0.75947 0.06234 0.60272 0.0
H1694 H 0.72581 0.0762 0.60315 0.0
H1695 H 0.70976 0.05502 0.6269 0.0
H1696 H 0.75495 0.06987 0.56398 0.0
H1697 H 0.76407 0.11598 0.62091 0.0
H1698 H 0.75553 0.09599 0.6283 0.0
H1699 H 0.74433 0.10248 0.615 0.0
C1700 C 0.73932 0.04847 0.62104 0.0
C1701 C 0.72532 0.04631 0.62852 0.0
C1702 C 0.74856 0.06072 0.60775 0.0
C1703 C 0.74404 0.07112 0.60161 0.0
C1704 C 0.72974 0.06859 0.60817 0.0
H1705 H 0.78403 0.14433 0.51031 0.0
H1706 H 0.76795 0.1265 0.53783 0.0
C1707 C 0.7205 0.05635 0.62157 0.0
C1708 C 0.75439 0.08455 0.58835 0.0
H1709 H 0.77433 0.12408 0.58675 0.0
C1710 C 0.7592 0.08171 0.56901 0.0
C1711 C 0.76 0.10003 0.59496 0.0
C1712 C 0.75585 0.10386 0.616 0.0
C1713 C 0.76935 0.09388 0.55606 0.0
C1714 C 0.77491 0.1093 0.56264 0.0
C1715 C 0.77006 0.11221 0.58185 0.0
C1716 C 0.7855 0.1224 0.54927 0.0
C1717 C 0.77402 0.09022 0.53527 0.0
C1718 C 0.80089 0.12653 0.54733 0.0
C1719 C 0.81014 0.13682 0.53176 0.0
C1720 C 0.80405 0.14299 0.51782 0.0
C1721 C 0.78899 0.13975 0.5209 0.0
C1722 C 0.7798 0.12956 0.53654 0.0
H1723 H 0.76735 0.07768 0.53138 0.0
H1724 H 0.77246 0.09669 0.52251 0.0
H1725 H 0.78634 0.09393 0.53579 0.0
H1726 H 0.80546 0.12109 0.55706 0.0
H1727 H 0.82163 0.13897 0.52957 0.0
H1728 H 0.98309 0.71031 0.62127 0.0
H1729 H 0.96378 0.70824 0.59671 0.0
H1730 H 0.93673 0.65919 0.60732 0.0
H1731 H 0.95605 0.66113 0.63205 0.0
H1732 H 0.95108 0.6888 0.55929 0.0
H1733 H 0.90762 0.67619 0.62137 0.0
H1734 H 0.92768 0.68443 0.62729 0.0
H1735 H 0.91611 0.66431 0.62058 0.0
C1736 C 0.97313 0.69903 0.61827 0.0
C1737 C 0.97112 0.68589 0.62876 0.0
C1738 C 0.96208 0.69788 0.60421 0.0
C1739 C 0.9487 0.68362 0.60046 0.0
C1740 C 0.94688 0.67036 0.61024 0.0
H1741 H 0.86871 0.6617 0.52386 0.0
H1742 H 0.88579 0.66112 0.55049 0.0
C1743 C 0.95801 0.67147 0.62422 0.0
C1744 C 0.93665 0.68284 0.58653 0.0
H1745 H 0.90069 0.67766 0.58662 0.0
C1746 C 0.94005 0.68632 0.56524 0.0
C1747 C 0.92223 0.67952 0.59431 0.0
C1748 C 0.91812 0.67599 0.61715 0.0
C1749 C 0.92944 0.6866 0.55151 0.0
C1750 C 0.91519 0.68379 0.5594 0.0
C1751 C 0.91165 0.67997 0.58063 0.0
C1752 C 0.90391 0.68479 0.54575 0.0
C1753 C 0.93353 0.68966 0.52858 0.0
C1754 C 0.90805 0.69852 0.53506 0.0
C1755 C 0.89832 0.69884 0.51993 0.0
C1756 C 0.88413 0.68555 0.51554 0.0
C1757 C 0.87948 0.67217 0.52731 0.0
C1758 C 0.88928 0.6718 0.54236 0.0
H1759 H 0.94258 0.68709 0.52411 0.0
H1760 H 0.92338 0.68263 0.51845 0.0
H1761 H 0.93798 0.70205 0.52539 0.0
H1762 H 0.91911 0.70879 0.53775 0.0
H1763 H 0.90223 0.70921 0.51081 0.0
H1764 H 0.96872 0.697 0.73181 0.0
H1765 H 0.94636 0.68898 0.75399 0.0
H1766 H 0.93046 0.64122 0.73957 0.0
H1767 H 0.9529 0.64908 0.71703 0.0
H1768 H 0.9107 0.66261 0.73621 0.0
H1769 H 0.93442 0.65361 0.80971 0.0
H1770 H 0.9469 0.6683 0.79141 0.0
H1771 H 0.93855 0.64831 0.78441 0.0
C1772 C 0.96058 0.68476 0.73336 0.0
C1773 C 0.96267 0.67369 0.72253 0.0
C1774 C 0.94776 0.68022 0.74602 0.0
C1775 C 0.93677 0.66455 0.74825 0.0
C1776 C 0.93885 0.65339 0.73791 0.0
H1777 H 0.86558 0.6324 0.84348 0.0
H1778 H 0.88144 0.63201 0.81473 0.0
C1779 C 0.95171 0.65792 0.72514 0.0
C1780 C 0.92315 0.66008 0.76147 0.0
H1781 H 0.91086 0.65255 0.81213 0.0
C1782 C 0.91058 0.66019 0.75277 0.0
C1783 C 0.92309 0.65692 0.78297 0.0
C1784 C 0.93641 0.65672 0.79286 0.0
C1785 C 0.898 0.6575 0.7652 0.0
C1786 C 0.8982 0.655 0.78697 0.0
C1787 C 0.91064 0.65444 0.79546 0.0
C1788 C 0.88616 0.65373 0.8016 0.0
C1789 C 0.88465 0.65738 0.75485 0.0
C1790 C 0.88301 0.66577 0.80338 0.0
C1791 C 0.8737 0.66584 0.81959 0.0
C1792 C 0.8676 0.65401 0.83449 0.0
C1793 C 0.87005 0.64157 0.83205 0.0
C1794 C 0.87919 0.6414 0.81572 0.0
H1795 H 0.88379 0.65411 0.73799 0.0
H1796 H 0.87368 0.64923 0.76268 0.0
H1797 H 0.88633 0.66915 0.75578 0.0
H1798 H 0.88853 0.67561 0.79306 0.0
H1799 H 0.87223 0.67571 0.82142 0.0
H1800 H 0.37949 0.30997 0.72598 0.0
H1801 H 0.3761 0.28979 0.74982 0.0
H1802 H 0.32725 0.27044 0.74875 0.0
H1803 H 0.33049 0.2905 0.72428 0.0
H1804 H 0.36404 0.28213 0.7886 0.0
H1805 H 0.33037 0.2329 0.73389 0.0
H1806 H 0.34016 0.25274 0.72546 0.0
H1807 H 0.32213 0.24469 0.7389 0.0
C1808 C 0.36798 0.30149 0.73079 0.0
C1809 C 0.35524 0.30187 0.72298 0.0
C1810 C 0.36607 0.28991 0.74448 0.0
C1811 C 0.35141 0.27836 0.75077 0.0
C1812 C 0.33867 0.27898 0.74369 0.0
H1813 H 0.32058 0.20399 0.8397 0.0
H1814 H 0.3225 0.22152 0.81197 0.0
C1815 C 0.34055 0.29058 0.72987 0.0
C1816 C 0.34967 0.26584 0.76484 0.0
H1817 H 0.3336 0.22665 0.76852 0.0
C1818 C 0.35743 0.27001 0.78414 0.0
C1819 C 0.34108 0.25 0.75903 0.0
C1820 C 0.33306 0.24477 0.73812 0.0
C1821 C 0.35669 0.25884 0.79786 0.0
C1822 C 0.34813 0.24303 0.79205 0.0
C1823 C 0.34027 0.23879 0.77284 0.0
C1824 C 0.34662 0.23076 0.80633 0.0
C1825 C 0.36482 0.264 0.81872 0.0
C1826 C 0.35939 0.22962 0.81171 0.0
C1827 C 0.35827 0.21945 0.82743 0.0
C1828 C 0.34436 0.21034 0.838 0.0
C1829 C 0.3314 0.21083 0.83166 0.0
C1830 C 0.3325 0.22087 0.8159 0.0
H1831 H 0.36845 0.2762 0.8225 0.0
H1832 H 0.35734 0.25654 0.83153 0.0
H1833 H 0.37519 0.26301 0.81825 0.0
H1834 H 0.37036 0.23705 0.80435 0.0
H1835 H 0.36845 0.21942 0.83221 0.0
H1836 H 0.70794 0.06042 0.72205 0.0
H1837 H 0.72343 0.08289 0.745 0.0
H1838 H 0.75816 0.07061 0.74833 0.0
H1839 H 0.74292 0.04824 0.72577 0.0
H1840 H 0.73643 0.08199 0.78784 0.0
H1841 H 0.78007 0.11737 0.72803 0.0
H1842 H 0.76096 0.10207 0.72118 0.0
H1843 H 0.77496 0.09746 0.72955 0.0
C1844 C 0.71884 0.06245 0.72777 0.0
C1845 C 0.72417 0.05249 0.72198 0.0
C1846 C 0.72767 0.07531 0.74079 0.0
C1847 C 0.74202 0.0785 0.74799 0.0
C1848 C 0.74721 0.06845 0.74263 0.0
H1849 H 0.81673 0.13853 0.82689 0.0
H1850 H 0.80013 0.12264 0.79796 0.0
C1851 C 0.7384 0.05558 0.72981 0.0
C1852 C 0.75158 0.09207 0.7616 0.0
H1853 H 0.78613 0.12575 0.76354 0.0
C1854 C 0.74717 0.09172 0.78252 0.0
C1855 C 0.76564 0.10459 0.75454 0.0
C1856 C 0.77071 0.10554 0.73205 0.0
C1857 C 0.75682 0.10324 0.79692 0.0
C1858 C 0.77105 0.11571 0.78997 0.0
C1859 C 0.77522 0.11626 0.76883 0.0
C1860 C 0.78219 0.12758 0.80481 0.0
C1861 C 0.75202 0.10143 0.81967 0.0
C1862 C 0.77802 0.13634 0.81747 0.0
C1863 C 0.78742 0.14527 0.83407 0.0
C1864 C 0.8013 0.14589 0.83793 0.0
C1865 C 0.80615 0.13834 0.82406 0.0
C1866 C 0.79663 0.12921 0.80763 0.0
H1867 H 0.74276 0.08944 0.82317 0.0
H1868 H 0.76185 0.10447 0.83019 0.0
H1869 H 0.74766 0.10927 0.82336 0.0
H1870 H 0.76713 0.13561 0.81521 0.0
H1871 H 0.78347 0.151 0.84463 0.0
H1872 H 0.06305 0.37155 0.00032 0.0
H1873 H 0.08613 0.37183 0.01209 0.0
H1874 H 0.0619 0.34602 0.06692 0.0
H1875 H 0.03878 0.34516 0.05484 0.0
H1876 H 0.10394 0.38351 0.04477 0.0
H1877 H 0.07909 0.32044 0.0476 0.0
H1878 H 0.06916 0.32897 0.03565 0.0
H1879 H 0.0681 0.32594 0.06359 0.0
C1880 C 0.06265 0.36586 0.01482 0.0
C1881 C 0.04902 0.35819 0.02652 0.0
C1882 C 0.07585 0.36603 0.02155 0.0
C1883 C 0.07573 0.35859 0.04016 0.0
C1884 C 0.06223 0.35135 0.05213 0.0
H1885 H 0.14626 0.37613 0.12581 0.0
H1886 H 0.12938 0.3782 0.10094 0.0
C1887 C 0.04901 0.35099 0.04528 0.0
C1888 C 0.08976 0.35879 0.04755 0.0
H1889 H 0.10191 0.33578 0.06831 0.0
C1890 C 0.10353 0.37303 0.04961 0.0
C1891 C 0.08953 0.34512 0.05334 0.0
C1892 C 0.07571 0.32926 0.04969 0.0
C1893 C 0.11669 0.37406 0.05841 0.0
C1894 C 0.116 0.36055 0.06604 0.0
C1895 C 0.10251 0.34622 0.06281 0.0
C1896 C 0.12842 0.36108 0.07912 0.0
C1897 C 0.13118 0.38968 0.05945 0.0
C1898 C 0.13378 0.35084 0.07531 0.0
C1899 C 0.14337 0.3495 0.08983 0.0
C1900 C 0.14771 0.35832 0.10846 0.0
C1901 C 0.1432 0.36927 0.11151 0.0
C1902 C 0.13358 0.37052 0.09716 0.0
H1903 H 0.13184 0.39697 0.04608 0.0
H1904 H 0.13116 0.39575 0.07408 0.0
H1905 H 0.14154 0.38867 0.05929 0.0
H1906 H 0.12995 0.34336 0.06158 0.0
H1907 H 0.14647 0.3408 0.08723 0.0
H1908 H 0.67344 0.69285 0.06202 0.0
H1909 H 0.67379 0.71621 0.07428 0.0
H1910 H 0.66367 0.72392 0.0115 0.0
H1911 H 0.6623 0.70011 -0.00037 0.0
H1912 H 0.69016 0.74523 0.06643 0.0
H1913 H 0.63122 0.72672 0.04121 0.0
H1914 H 0.6386 0.71387 0.0403 0.0
H1915 H 0.64291 0.72754 0.01959 0.0
C1916 C 0.6712 0.69952 0.05092 0.0
C1917 C 0.66761 0.69457 0.02997 0.0
C1918 C 0.67144 0.71289 0.0579 0.0
C1919 C 0.66835 0.7217 0.04396 0.0
C1920 C 0.66548 0.71708 0.02279 0.0
H1921 H 0.68712 0.81239 0.09347 0.0
H1922 H 0.68826 0.79376 0.06931 0.0
C1923 C 0.66482 0.70352 0.01597 0.0
C1924 C 0.66815 0.73567 0.0516 0.0
H1925 H 0.6464 0.7526 0.05303 0.0
C1926 C 0.68057 0.74683 0.06352 0.0
C1927 C 0.6556 0.73777 0.04794 0.0
C1928 C 0.64128 0.72576 0.03676 0.0
C1929 C 0.68064 0.75973 0.07234 0.0
C1930 C 0.66823 0.76198 0.06833 0.0
C1931 C 0.65603 0.75106 0.05587 0.0
C1932 C 0.66659 0.77425 0.07926 0.0
C1933 C 0.69365 0.7703 0.08678 0.0
C1934 C 0.65344 0.76987 0.09136 0.0
C1935 C 0.65256 0.78057 0.10445 0.0
C1936 C 0.66487 0.79586 0.10597 0.0
C1937 C 0.67745 0.80068 0.09251 0.0
C1938 C 0.67823 0.78995 0.07906 0.0
H1939 H 0.70021 0.7649 0.09207 0.0
H1940 H 0.70169 0.78103 0.07833 0.0
H1941 H 0.68937 0.77349 0.10087 0.0
H1942 H 0.64421 0.75793 0.09174 0.0
H1943 H 0.64273 0.77657 0.11469 0.0
H1944 H 0.31952 0.98801 0.05756 0.0
H1945 H 0.29632 0.96516 0.07064 0.0
H1946 H 0.29948 0.93745 0.02108 0.0
H1947 H 0.32254 0.9602 0.00784 0.0
H1948 H 0.26958 0.93204 0.02677 0.0
H1949 H 0.29518 0.92919 0.10203 0.0
H1950 H 0.29682 0.94749 0.09704 0.0
H1951 H 0.30663 0.94084 0.08039 0.0
C1952 C 0.31529 0.97704 0.04949 0.0
C1953 C 0.32294 0.97592 0.03173 0.0
C1954 C 0.30205 0.96397 0.05701 0.0
C1955 C 0.29622 0.94953 0.04697 0.0
C1956 C 0.30375 0.94844 0.0291 0.0
H1957 H 0.23309 0.86238 0.10568 0.0
H1958 H 0.25351 0.88213 0.08391 0.0
C1959 C 0.31698 0.96147 0.02161 0.0
C1960 C 0.28238 0.93549 0.05514 0.0
H1961 H 0.26858 0.912 0.09777 0.0
C1962 C 0.26935 0.92762 0.04228 0.0
C1963 C 0.28214 0.92961 0.07526 0.0
C1964 C 0.29597 0.93711 0.08945 0.0
C1965 C 0.25604 0.91419 0.04914 0.0
C1966 C 0.25571 0.90851 0.06946 0.0
C1967 C 0.26881 0.91631 0.08218 0.0
C1968 C 0.24191 0.89471 0.07823 0.0
C1969 C 0.24255 0.90607 0.03449 0.0
C1970 C 0.22823 0.89472 0.08143 0.0
C1971 C 0.21642 0.88323 0.09358 0.0
C1972 C 0.21813 0.87162 0.10281 0.0
C1973 C 0.23132 0.87096 0.09828 0.0
C1974 C 0.24307 0.88238 0.08609 0.0
H1975 H 0.246 0.90921 0.01788 0.0
H1976 H 0.23683 0.89332 0.03597 0.0
H1977 H 0.2341 0.90953 0.03855 0.0
H1978 H 0.22713 0.90423 0.07593 0.0
H1979 H 0.2066 0.88428 0.09741 0.0
H1980 H 0.38198 0.06203 0.00875 0.0
H1981 H 0.38196 0.08521 0.99709 0.0
H1982 H 0.33847 0.05641 0.96672 0.0
H1983 H 0.33848 0.03328 0.97798 0.0
H1984 H 0.37732 0.09113 0.95036 0.0
H1985 H 0.33469 0.08906 0.00719 0.0
H1986 H 0.34624 0.08058 0.01256 0.0
H1987 H 0.33035 0.0711 0.99482 0.0
C1988 C 0.3724 0.06064 -0.00036 0.0
C1989 C 0.36024 0.04579 0.9943 0.0
C1990 C 0.37241 0.07389 0.993 0.0
C1991 C 0.36015 0.07253 0.98121 0.0
C1992 C 0.34798 0.05773 0.97597 0.0
H1993 H 0.32772 0.12326 0.91682 0.0
H1994 H 0.33168 0.10656 0.94014 0.0
C1995 C 0.34804 0.04452 0.98236 0.0
C1996 C 0.36017 0.08645 0.97363 0.0
H1997 H 0.34143 0.10638 0.97885 0.0
C1998 C 0.36967 0.09467 0.95676 0.0
C1999 C 0.35008 0.09092 0.98192 0.0
C2000 C 0.33979 0.08256 0.00022 0.0
C2001 C 0.36884 0.10677 0.94728 0.0
C2002 C 0.35855 0.11115 0.95535 0.0
C2003 C 0.34941 0.10319 0.97272 0.0
C2004 C 0.35589 0.12268 0.94457 0.0
C2005 C 0.37834 0.11409 0.92792 0.0
C2006 C 0.36796 0.13775 0.94022 0.0
C2007 C 0.36568 0.14736 0.92679 0.0
C2008 C 0.35123 0.14213 0.91785 0.0
C2009 C 0.33892 0.12765 0.92378 0.0
C2010 C 0.34121 0.11805 0.937 0.0
H2011 H 0.38284 0.10703 0.92102 0.0
H2012 H 0.37154 0.11571 0.91575 0.0
H2013 H 0.38826 0.12559 0.93212 0.0
H2014 H 0.37932 0.14179 0.94631 0.0
H2015 H 0.3754 0.15836 0.92221 0.0
H2016 H 0.9907 0.31386 0.96426 0.0
H2017 H 0.96773 0.29032 0.95173 0.0
H2018 H 0.94119 0.29509 0.001 0.0
H2019 H 0.96404 0.31849 0.01367 0.0
H2020 H 0.93569 0.26473 0.99634 0.0
H2021 H 0.93166 0.28875 0.92034 0.0
H2022 H 0.94988 0.29058 0.92527 0.0
H2023 H 0.94352 0.30082 0.94166 0.0
C2024 C 0.97997 0.30991 0.97239 0.0
C2025 C 0.97919 0.31809 0.98989 0.0
C2026 C 0.96684 0.29649 0.96517 0.0
C2027 C 0.95269 0.29104 0.97529 0.0
C2028 C 0.95195 0.29909 0.99291 0.0
H2029 H 0.86643 0.22328 0.91675 0.0
H2030 H 0.88502 0.24503 0.93858 0.0
C2031 C 0.96504 0.3125 9e-05 0.0
C2032 C 0.93865 0.27694 0.96757 0.0
H2033 H 0.91499 0.26183 0.92512 0.0
C2034 C 0.9311 0.2641 0.98081 0.0
C2035 C 0.93254 0.27622 0.94744 0.0
C2036 C 0.93971 0.28986 0.93288 0.0
C2037 C 0.91786 0.25042 0.97421 0.0
C2038 C 0.91207 0.24953 0.9538 0.0
C2039 C 0.91941 0.26251 0.94079 0.0
C2040 C 0.89899 0.23504 0.94499 0.0
C2041 C 0.91017 0.23707 0.98917 0.0
C2042 C 0.90028 0.22191 0.94211 0.0
C2043 C 0.88959 0.20947 0.92983 0.0
C2044 C 0.87743 0.20991 0.92025 0.0
C2045 C 0.87546 0.22249 0.92445 0.0
C2046 C 0.88619 0.23499 0.93668 0.0
H2047 H 0.91311 0.241 0.00573 0.0
H2048 H 0.89753 0.23082 0.98736 0.0
H2049 H 0.91409 0.22883 0.98575 0.0
H2050 H 0.91018 0.22178 0.94795 0.0
H2051 H 0.89158 0.20009 0.9263 0.0
H2052 H 0.69479 0.63793 0.01486 0.0
H2053 H 0.71711 0.63698 0.00206 0.0
H2054 H 0.72585 0.6718 0.95643 0.0
H2055 H 0.70367 0.67281 0.96902 0.0
H2056 H 0.72561 0.64506 0.94015 0.0
H2057 H 0.76337 0.67046 0.00996 0.0
H2058 H 0.74422 0.65468 0.01452 0.0
H2059 H 0.74717 0.67278 0.00539 0.0
C2060 C 0.70151 0.64543 0.00216 0.0
C2061 C 0.69745 0.65546 0.99297 0.0
C2062 C 0.7143 0.64492 0.99494 0.0
C2063 C 0.72323 0.65443 0.97842 0.0
C2064 C 0.71916 0.66441 0.96924 0.0
H2065 H 0.80915 0.68551 0.92027 0.0
H2066 H 0.78833 0.68138 0.94387 0.0
C2067 C 0.70646 0.66497 0.97648 0.0
C2068 C 0.73653 0.65374 0.97005 0.0
H2069 H 0.77318 0.66321 0.98129 0.0
C2070 C 0.73595 0.64885 0.94921 0.0
C2071 C 0.75005 0.65882 0.98188 0.0
C2072 C 0.7514 0.66459 0.00415 0.0
C2073 C 0.7486 0.64917 0.93971 0.0
C2074 C 0.76217 0.65434 0.95146 0.0
C2075 C 0.7627 0.65903 0.97243 0.0
C2076 C 0.77631 0.65644 0.94138 0.0
C2077 C 0.74757 0.64462 0.91686 0.0
C2078 C 0.7769 0.64377 0.93309 0.0
C2079 C 0.7889 0.64613 0.91976 0.0
C2080 C 0.80046 0.66119 0.91463 0.0
C2081 C 0.80049 0.6738 0.92431 0.0
C2082 C 0.78856 0.67144 0.93768 0.0
H2083 H 0.73725 0.64342 0.90915 0.0
H2084 H 0.75786 0.65331 0.9082 0.0
H2085 H 0.74702 0.63336 0.91555 0.0
H2086 H 0.7676 0.63209 0.93587 0.0
H2087 H 0.7885 0.63625 0.91215 0.0
H2088 H 0.98569 0.6773 0.97014 0.0
H2089 H 0.96356 0.6779 0.9569 0.0
H2090 H 0.93346 0.63662 0.99137 0.0
H2091 H 0.95569 0.63614 0.00512 0.0
H2092 H 0.94041 0.65689 0.93276 0.0
H2093 H 0.91686 0.66429 0.00783 0.0
H2094 H 0.93574 0.6669 0.00587 0.0
H2095 H 0.91917 0.64778 0.00686 0.0
C2096 C 0.97438 0.66835 0.97501 0.0
C2097 C 0.97248 0.65667 0.98874 0.0
C2098 C 0.96171 0.66873 0.96742 0.0
C2099 C 0.9468 0.65746 0.97335 0.0
C2100 C 0.94483 0.64567 0.98694 0.0
H2101 H 0.85954 0.63886 0.92147 0.0
H2102 H 0.8788 0.63828 0.94395 0.0
C2103 C 0.95755 0.64533 0.99464 0.0
C2104 C 0.93346 0.65781 0.96443 0.0
H2105 H 0.90212 0.66048 0.97717 0.0
C2106 C 0.93208 0.6577 0.94252 0.0
C2107 C 0.9225 0.65882 0.97712 0.0
C2108 C 0.92366 0.6596 0.00073 0.0
C2109 C 0.92016 0.65859 0.93297 0.0
C2110 C 0.90933 0.65978 0.94562 0.0
C2111 C 0.91048 0.65962 0.96753 0.0
C2112 C 0.89691 0.66133 0.936 0.0
C2113 C 0.91918 0.65818 0.90933 0.0
C2114 C 0.9005 0.67475 0.92495 0.0
C2115 C 0.88951 0.67513 0.91232 0.0
C2116 C 0.8747 0.66214 0.91064 0.0
C2117 C 0.87077 0.64914 0.92293 0.0
C2118 C 0.88179 0.64876 0.93561 0.0
H2119 H 0.92647 0.65415 0.90199 0.0
H2120 H 0.90718 0.65049 0.90404 0.0
H2121 H 0.92308 0.66999 0.90358 0.0
H2122 H 0.91209 0.68458 0.92507 0.0
H2123 H 0.89289 0.68514 0.90263 0.0
H2124 H 0.32932 0.31273 0.96403 0.0
H2125 H 0.32594 0.28802 0.95175 0.0
H2126 H 0.36274 0.29458 0.99206 0.0
H2127 H 0.36592 0.31903 0.00473 0.0
H2128 H 0.34564 0.2819 0.93154 0.0
H2129 H 0.32986 0.25129 0.00747 0.0
H2130 H 0.33034 0.26926 0.0037 0.0
H2131 H 0.34776 0.26926 0.00841 0.0
C2132 C 0.33667 0.30889 0.97029 0.0
C2133 C 0.34783 0.3178 0.98542 0.0
C2134 C 0.33471 0.29475 0.9633 0.0
C2135 C 0.34385 0.28924 0.97133 0.0
C2136 C 0.35524 0.29832 0.98609 0.0
H2137 H 0.36033 0.21768 0.92644 0.0
H2138 H 0.36033 0.23794 0.94828 0.0
C2139 C 0.35714 0.31239 0.99317 0.0
C2140 C 0.34191 0.27434 0.9636 0.0
H2141 H 0.33545 0.2391 0.9793 0.0
C2142 C 0.3433 0.27253 0.94199 0.0
C2143 C 0.33887 0.26207 0.97724 0.0
C2144 C 0.33647 0.26297 0.00047 0.0
C2145 C 0.342 0.25894 0.93371 0.0
C2146 C 0.33913 0.24677 0.94735 0.0
C2147 C 0.3377 0.24849 0.96894 0.0
C2148 C 0.33759 0.23225 0.93904 0.0
C2149 C 0.34384 0.25768 0.91038 0.0
C2150 C 0.32448 0.22184 0.92767 0.0
C2151 C 0.32443 0.21025 0.91537 0.0
C2152 C 0.33749 0.20889 0.91429 0.0
C2153 C 0.35003 0.21831 0.92733 0.0
C2154 C 0.35008 0.22996 0.93964 0.0
H2155 H 0.34812 0.2689 0.90236 0.0
H2156 H 0.35188 0.25352 0.90722 0.0
H2157 H 0.33261 0.24913 0.90344 0.0
H2158 H 0.31474 0.22344 0.92702 0.0
H2159 H 0.31473 0.20325 0.90521 0.0
H2160 H 0.69315 0.0271 0.95798 0.0
H2161 H 0.71692 0.04963 0.94589 0.0
H2162 H 0.7246 0.06991 0.00791 0.0
H2163 H 0.70033 0.0479 0.01957 0.0
H2164 H 0.73168 0.0912 0.98268 0.0
H2165 H 0.75957 0.06042 0.95192 0.0
H2166 H 0.7417 0.05355 0.93878 0.0
H2167 H 0.74199 0.05066 0.96663 0.0
C2168 C 0.69995 0.03637 0.96901 0.0
C2169 C 0.69489 0.03572 0.98973 0.0
C2170 C 0.71367 0.0492 0.96216 0.0
C2171 C 0.72294 0.06141 0.97607 0.0
C2172 C 0.71781 0.0607 0.9968 0.0
H2173 H 0.81321 0.13105 0.92561 0.0
H2174 H 0.79424 0.11152 0.94949 0.0
C2175 C 0.70391 0.04808 0.00349 0.0
C2176 C 0.73752 0.07526 0.96882 0.0
H2177 H 0.76967 0.0864 0.93938 0.0
C2178 C 0.74006 0.09008 0.97348 0.0
C2179 C 0.74887 0.07407 0.95732 0.0
C2180 C 0.74797 0.05881 0.95362 0.0
C2181 C 0.7531 0.10355 0.9662 0.0
C2182 C 0.76365 0.10226 0.95298 0.0
C2183 C 0.76154 0.08751 0.94919 0.0
C2184 C 0.77606 0.11578 0.94144 0.0
C2185 C 0.75539 0.11899 0.97297 0.0
C2186 C 0.77244 0.12506 0.92944 0.0
C2187 C 0.78332 0.13641 0.91634 0.0
C2188 C 0.79805 0.13854 0.91432 0.0
C2189 C 0.80203 0.12983 0.92704 0.0
C2190 C 0.79111 0.11853 0.94048 0.0
H2191 H 0.7507 0.11834 0.98896 0.0
H2192 H 0.76766 0.12819 0.97298 0.0
H2193 H 0.74907 0.1223 0.96214 0.0
H2194 H 0.7609 0.123 0.92924 0.0
H2195 H 0.77989 0.14289 0.90667 0.0
H2196 H 0.66943 0.97647 0.05344 0.0
H2197 H 0.66919 0.95336 0.06487 0.0
H2198 H 0.64231 0.92836 0.01068 0.0
H2199 H 0.64198 0.95145 -0.00042 0.0
H2200 H 0.63181 0.91053 0.04336 0.0
H2201 H 0.69438 0.93633 0.04389 0.0
H2202 H 0.68923 0.94744 0.06041 0.0
H2203 H 0.68545 0.94609 0.03262 0.0
C2204 C 0.66349 0.96608 0.04388 0.0
C2205 C 0.65581 0.96586 0.02549 0.0
C2206 C 0.66349 0.95286 0.05035 0.0
C2207 C 0.65614 0.93915 0.03836 0.0
C2208 C 0.64822 0.93881 0.02014 0.0
H2209 H 0.67617 0.86919 0.08418 0.0
H2210 H 0.67274 0.88527 0.0586 0.0
C2211 C 0.64803 0.95202 0.01379 0.0
C2212 C 0.65633 0.92513 0.04538 0.0
H2213 H 0.67998 0.91352 0.06503 0.0
C2214 C 0.64238 0.91114 0.04778 0.0
C2215 C 0.6701 0.92561 0.0506 0.0
C2216 C 0.68562 0.93964 0.0465 0.0
C2217 C 0.64177 0.89803 0.05643 0.0
C2218 C 0.65542 0.89902 0.06357 0.0
C2219 C 0.66943 0.91269 0.05993 0.0
C2220 C 0.65539 0.88675 0.07661 0.0
C2221 C 0.62643 0.8833 0.05786 0.0
C2222 C 0.64646 0.8817 0.0949 0.0
C2223 C 0.6482 0.87232 0.10919 0.0
C2224 C 0.65914 0.86794 0.10583 0.0
C2225 C 0.66748 0.87217 0.087 0.0
C2226 C 0.66563 0.88151 0.07252 0.0
H2227 H 0.61888 0.88235 0.04469 0.0
H2228 H 0.62759 0.87292 0.05761 0.0
H2229 H 0.6207 0.88343 0.07265 0.0
H2230 H 0.63881 0.88583 0.09891 0.0
H2231 H 0.64176 0.86939 0.12371 0.0
H2232 H 0.02368 0.7 0.05342 0.0
H2233 H 0.04443 0.72511 0.06619 0.0
H2234 H 0.07679 0.71974 0.02856 0.0
H2235 H 0.05613 0.69491 0.0154 0.0
H2236 H 0.06996 0.73252 0.088 0.0
H2237 H 0.08686 0.76235 0.01159 0.0
H2238 H 0.06936 0.74406 0.01502 0.0
H2239 H 0.08728 0.74477 0.01155 0.0
C2240 C 0.03522 0.70419 0.04787 0.0
C2241 C 0.03824 0.69551 0.03331 0.0
C2242 C 0.04707 0.71856 0.05513 0.0
C2243 C 0.06214 0.72453 0.04795 0.0
C2244 C 0.06521 0.71565 0.03384 0.0
H2245 H 0.14972 0.79815 0.09263 0.0
H2246 H 0.12951 0.77758 0.07095 0.0
C2247 C 0.05339 0.70136 0.02649 0.0
C2248 C 0.07475 0.73973 0.05583 0.0
H2249 H 0.10404 0.7751 0.04024 0.0
C2250 C 0.07731 0.74186 0.07754 0.0
C2251 C 0.08438 0.75196 0.04219 0.0
C2252 C 0.08176 0.75076 0.01881 0.0
C2253 C 0.08937 0.75568 0.08594 0.0
C2254 C 0.09911 0.76779 0.0723 0.0
C2255 C 0.09657 0.76577 0.05062 0.0
C2256 C 0.11203 0.78249 0.08067 0.0
C2257 C 0.09182 0.75718 0.10939 0.0
C2258 C 0.10909 0.79264 0.09219 0.0
C2259 C 0.12063 0.80444 0.10437 0.0
C2260 C 0.13528 0.80629 0.10521 0.0
C2261 C 0.13862 0.79716 0.09196 0.0
C2262 C 0.12704 0.78531 0.07975 0.0
H2263 H 0.08489 0.74593 0.11743 0.0
H2264 H 0.10409 0.7619 0.11316 0.0
H2265 H 0.08852 0.76535 0.11579 0.0
H2266 H 0.0976 0.79069 0.09302 0.0
H2267 H 0.11773 0.8112 0.11467 0.0
H2268 H 0.323 0.37606 0.00836 0.0
H2269 H 0.29936 0.37499 0.01961 0.0
H2270 H 0.28675 0.33409 0.05531 0.0
H2271 H 0.31025 0.33506 0.04423 0.0
H2272 H 0.26269 0.33278 0.0282 0.0
H2273 H 0.29065 0.38464 0.08067 0.0
H2274 H 0.29788 0.38663 0.05435 0.0
H2275 H 0.30021 0.37451 0.07247 0.0
C2276 C 0.31522 0.36687 0.01866 0.0
C2277 C 0.31855 0.35569 0.02547 0.0
C2278 C 0.30172 0.36629 0.02509 0.0
C2279 C 0.29134 0.3545 0.03837 0.0
C2280 C 0.2946 0.34328 0.04505 0.0
H2281 H 0.21121 0.3216 0.11055 0.0
H2282 H 0.23048 0.32437 0.08521 0.0
C2283 C 0.30809 0.3439 0.03876 0.0
C2284 C 0.27708 0.35377 0.04558 0.0
H2285 H 0.26385 0.37077 0.07945 0.0
C2286 C 0.26292 0.34117 0.03923 0.0
C2287 C 0.27739 0.3648 0.05981 0.0
C2288 C 0.29231 0.37839 0.0674 0.0
C2289 C 0.24906 0.3391 0.04715 0.0
C2290 C 0.24939 0.3497 0.06221 0.0
C2291 C 0.26355 0.36266 0.06786 0.0
C2292 C 0.23553 0.34674 0.07415 0.0
C2293 C 0.23423 0.32547 0.03941 0.0
C2294 C 0.23161 0.35822 0.07616 0.0
C2295 C 0.22054 0.35663 0.09076 0.0
C2296 C 0.21334 0.3436 0.1037 0.0
C2297 C 0.21646 0.33166 0.10058 0.0
C2298 C 0.22748 0.33324 0.08604 0.0
H2299 H 0.23543 0.32218 0.02313 0.0
H2300 H 0.23106 0.31539 0.04955 0.0
H2301 H 0.22479 0.32796 0.03981 0.0
H2302 H 0.23772 0.36878 0.06726 0.0
H2303 H 0.21852 0.36611 0.09311 0.0
H2304 H 0.70284 0.67515 0.38695 0.0
H2305 H 0.72602 0.67644 0.3999 0.0
H2306 H 0.75268 0.70989 0.35264 0.0
H2307 H 0.72942 0.70866 0.33949 0.0
H2308 H 0.7591 0.68504 0.35725 0.0
H2309 H 0.76069 0.71324 0.43323 0.0
H2310 H 0.74258 0.69623 0.42738 0.0
H2311 H 0.7495 0.713 0.41117 0.0
C2312 C 0.71362 0.68283 0.3793 0.0
C2313 C 0.71426 0.69187 0.36224 0.0
C2314 C 0.72689 0.68359 0.38679 0.0
C2315 C 0.74113 0.69339 0.37741 0.0
C2316 C 0.74182 0.70229 0.36018 0.0
H2317 H 0.82421 0.71218 0.44325 0.0
H2318 H 0.80703 0.71583 0.42034 0.0
C2319 C 0.72853 0.70161 0.35273 0.0
C2320 C 0.75521 0.69424 0.38571 0.0
H2321 H 0.77685 0.70269 0.43009 0.0
C2322 C 0.76309 0.68905 0.3731 0.0
C2323 C 0.76055 0.69964 0.4063 0.0
C2324 C 0.753 0.70598 0.42028 0.0
C2325 C 0.77579 0.68857 0.38082 0.0
C2326 C 0.78069 0.6933 0.40176 0.0
C2327 C 0.77313 0.69902 0.41406 0.0
C2328 C 0.79299 0.69165 0.41179 0.0
C2329 C 0.78382 0.68295 0.36652 0.0
C2330 C 0.7912 0.67695 0.41405 0.0
C2331 C 0.80112 0.67492 0.42695 0.0
C2332 C 0.81304 0.68753 0.4378 0.0
C2333 C 0.81541 0.70236 0.43455 0.0
C2334 C 0.80547 0.7044 0.42167 0.0
H2335 H 0.78193 0.68436 0.34975 0.0
H2336 H 0.79632 0.68923 0.36964 0.0
H2337 H 0.77919 0.67047 0.36925 0.0
H2338 H 0.78149 0.66686 0.40707 0.0
H2339 H 0.79876 0.66331 0.42977 0.0
H2340 H 0.31681 0.02584 0.35336 0.0
H2341 H 0.32021 0.05025 0.36642 0.0
H2342 H 0.35989 0.05859 0.40145 0.0
H2343 H 0.35653 0.03395 0.3884 0.0
H2344 H 0.32105 0.05907 0.40995 0.0
H2345 H 0.37434 0.09901 0.36666 0.0
H2346 H 0.36201 0.07904 0.35888 0.0
H2347 H 0.37436 0.08381 0.38119 0.0
C2348 C 0.32627 0.03281 0.36387 0.0
C2349 C 0.33642 0.02794 0.36985 0.0
C2350 C 0.32821 0.0468 0.37128 0.0
C2351 C 0.34041 0.05634 0.38465 0.0
C2352 C 0.35053 0.0515 0.39086 0.0
H2353 H 0.36668 0.14026 0.45291 0.0
H2354 H 0.36687 0.12006 0.4315 0.0
C2355 C 0.34853 0.03738 0.38354 0.0
C2356 C 0.34208 0.07105 0.39257 0.0
H2357 H 0.36479 0.11038 0.39025 0.0
C2358 C 0.33057 0.0703 0.40559 0.0
C2359 C 0.35454 0.08565 0.38687 0.0
C2360 C 0.36701 0.08705 0.37252 0.0
C2361 C 0.3313 0.08375 0.41342 0.0
C2362 C 0.34366 0.09841 0.40752 0.0
C2363 C 0.35521 0.09916 0.39449 0.0
C2364 C 0.3453 0.11297 0.4162 0.0
C2365 C 0.31909 0.08208 0.42857 0.0
C2366 C 0.3337 0.11648 0.41356 0.0
C2367 C 0.33361 0.12809 0.4258 0.0
C2368 C 0.34521 0.13642 0.44062 0.0
C2369 C 0.35768 0.13407 0.44143 0.0
C2370 C 0.35773 0.12245 0.42932 0.0
H2371 H 0.31262 0.07029 0.43528 0.0
H2372 H 0.32416 0.09058 0.44167 0.0
H2373 H 0.31083 0.08421 0.42019 0.0
H2374 H 0.32417 0.10953 0.40315 0.0
H2375 H 0.32379 0.12955 0.42507 0.0
H2376 H 0.98906 0.29319 0.35244 0.0
H2377 H 0.96478 0.2725 0.3662 0.0
H2378 H 0.9596 0.30584 0.40272 0.0
H2379 H 0.98418 0.32663 0.38935 0.0
H2380 H 0.9527 0.28069 0.42536 0.0
H2381 H 0.92225 0.26137 0.34937 0.0
H2382 H 0.93976 0.26116 0.34935 0.0
H2383 H 0.94031 0.27923 0.35227 0.0
C2384 C 0.98277 0.29614 0.36341 0.0
C2385 C 0.98853 0.31158 0.36973 0.0
C2386 C 0.96878 0.2843 0.37111 0.0
C2387 C 0.96011 0.28762 0.38508 0.0
C2388 C 0.96599 0.303 0.39178 0.0
H2389 H 0.87561 0.22861 0.45404 0.0
H2390 H 0.89529 0.25013 0.43342 0.0
C2391 C 0.98006 0.31487 0.38417 0.0
C2392 C 0.94522 0.27496 0.39329 0.0
H2393 H 0.91045 0.24432 0.37836 0.0
C2394 C 0.9434 0.27288 0.41508 0.0
C2395 C 0.93303 0.26471 0.37989 0.0
C2396 C 0.93385 0.26681 0.35644 0.0
C2397 C 0.93001 0.26059 0.42377 0.0
C2398 C 0.91799 0.25018 0.41035 0.0
C2399 C 0.91967 0.25233 0.38859 0.0
C2400 C 0.90396 0.23664 0.41885 0.0
C2401 C 0.92898 0.25856 0.44725 0.0
C2402 C 0.9017 0.22174 0.41646 0.0
C2403 C 0.89036 0.20942 0.42805 0.0
C2404 C 0.88101 0.21181 0.44199 0.0
C2405 C 0.88243 0.22642 0.44299 0.0
C2406 C 0.89379 0.23874 0.43145 0.0
H2407 H 0.94021 0.26591 0.45507 0.0
H2408 H 0.92081 0.26177 0.45369 0.0
H2409 H 0.92464 0.2463 0.45128 0.0
H2410 H 0.90945 0.21988 0.40686 0.0
H2411 H 0.88975 0.19837 0.42748 0.0
H2412 H 1.00622 0.36392 0.30466 0.0
H2413 H 1.00548 0.38624 0.29162 0.0
H2414 H 0.04535 0.41669 0.32848 0.0
H2415 H 0.04625 0.39436 0.34154 0.0
H2416 H 1.00269 0.40892 0.31452 0.0
H2417 H 0.05705 0.43497 0.26926 0.0
H2418 H 0.04755 0.41532 0.27848 0.0
H2419 H 0.05841 0.43112 0.29637 0.0
C2420 C 0.01491 0.37536 0.30994 0.0
C2421 C 0.02636 0.37734 0.32407 0.0
C2422 C 0.01442 0.38812 0.30251 0.0
C2423 C 0.02543 0.40317 0.3089 0.0
C2424 C 0.03687 0.40521 0.32307 0.0
H2425 H 0.04 0.49065 0.25922 0.0
H2426 H 0.04061 0.47218 0.28349 0.0
C2427 C 0.03735 0.39242 0.33056 0.0
C2428 C 0.02478 0.41662 0.30069 0.0
H2429 H 0.04376 0.44839 0.26959 0.0
C2430 C 0.01172 0.41761 0.30479 0.0
C2431 C 0.03657 0.42802 0.2881 0.0
C2432 C 0.05065 0.42733 0.28259 0.0
C2433 C 0.01006 0.42955 0.29647 0.0
C2434 C 0.02165 0.44068 0.28334 0.0
C2435 C 0.0349 0.43993 0.27973 0.0
C2436 C 0.01979 0.45238 0.27169 0.0
C2437 C 0.99591 0.43012 0.30185 0.0
C2438 C 1.00766 0.44754 0.25743 0.0
C2439 C 1.00725 0.45809 0.24377 0.0
C2440 C 0.01895 0.47371 0.24407 0.0
C2441 C 0.03063 0.47876 0.25909 0.0
C2442 C 0.03107 0.46817 0.27277 0.0
H2443 H 0.99099 0.42447 0.3171 0.0
H2444 H 0.99838 0.44221 0.30265 0.0
H2445 H 0.98711 0.4238 0.28959 0.0
H2446 H 0.99902 0.43542 0.25585 0.0
H2447 H 0.99837 0.45385 0.23193 0.0
H2448 H 0.65541 0.65096 0.2925 0.0
H2449 H 0.63241 0.62781 0.27907 0.0
H2450 H 0.61006 0.62269 0.33865 0.0
H2451 H 0.6326 0.64615 0.35165 0.0
H2452 H 0.61733 0.59863 0.2895 0.0
H2453 H 0.57839 0.62123 0.30123 0.0
H2454 H 0.59883 0.63325 0.30425 0.0
H2455 H 0.58726 0.6209 0.32525 0.0
C2456 C 0.64556 0.64488 0.30266 0.0
C2457 C 0.64572 0.65046 0.32301 0.0
C2458 C 0.63242 0.63165 0.29501 0.0
C2459 C 0.61929 0.62367 0.30765 0.0
C2460 C 0.61976 0.6289 0.32829 0.0
H2461 H 0.54627 0.53158 0.26391 0.0
H2462 H 0.56524 0.5518 0.28743 0.0
C2463 C 0.63273 0.64226 0.33577 0.0
C2464 C 0.60514 0.60989 0.29929 0.0
H2465 H 0.56671 0.59464 0.29231 0.0
C2466 C 0.60626 0.59777 0.2901 0.0
C2467 C 0.59067 0.60878 0.29986 0.0
C2468 C 0.58872 0.6218 0.30797 0.0
C2469 C 0.59345 0.58472 0.28127 0.0
C2470 C 0.57891 0.58342 0.28237 0.0
C2471 C 0.57776 0.59545 0.29181 0.0
C2472 C 0.56518 0.57067 0.27156 0.0
C2473 C 0.59584 0.57286 0.26998 0.0
C2474 C 0.5578 0.57435 0.25615 0.0
C2475 C 0.54667 0.56281 0.24328 0.0
C2476 C 0.54272 0.54734 0.24544 0.0
C2477 C 0.54902 0.54341 0.26208 0.0
C2478 C 0.56008 0.555 0.2752 0.0
H2479 H 0.60808 0.57745 0.26617 0.0
H2480 H 0.59196 0.56267 0.28017 0.0
H2481 H 0.58917 0.56897 0.25516 0.0
H2482 H 0.56137 0.58629 0.25308 0.0
H2483 H 0.54207 0.56614 0.23043 0.0
H2484 H 0.35687 0.96672 0.33894 0.0
H2485 H 0.37957 0.96667 0.32577 0.0
H2486 H 0.39473 0.01008 0.2952 0.0
H2487 H 0.37204 0.01016 0.30806 0.0
H2488 H 0.3896 0.9701 0.27975 0.0
H2489 H 0.43157 0.01563 0.33384 0.0
H2490 H 0.41138 1.00417 0.33979 0.0
H2491 H 0.41816 0.01955 0.32121 0.0
C2492 C 0.36502 0.97624 0.32938 0.0
C2493 C 0.36264 0.98845 0.32456 0.0
C2494 C 0.37798 0.97619 0.32188 0.0
C2495 C 0.3889 0.98846 0.30972 0.0
C2496 C 0.38651 1.00059 0.30476 0.0
H2497 H 0.47149 0.01985 0.24263 0.0
H2498 H 0.45085 0.01631 0.26591 0.0
C2499 C 0.37349 1.00057 0.31204 0.0
C2500 C 0.40269 0.98852 0.30178 0.0
H2501 H 0.44168 0.0081 0.30559 0.0
C2502 C 0.40099 0.97824 0.28555 0.0
C2503 C 0.4175 0.99918 0.30938 0.0
C2504 C 0.41987 0.01022 0.32713 0.0
C2505 C 0.41379 0.97886 0.27596 0.0
C2506 C 0.4287 0.98976 0.28328 0.0
C2507 C 0.4303 0.99968 0.30005 0.0
C2508 C 0.44274 0.99226 0.2722 0.0
C2509 C 0.41122 0.96844 0.2573 0.0
C2510 C 0.44569 0.98018 0.26886 0.0
C2511 C 0.45756 0.9822 0.25542 0.0
C2512 C 0.4667 0.99637 0.2453 0.0
C2513 C 0.46459 0.0088 0.25021 0.0
C2514 C 0.45275 0.00676 0.26348 0.0
H2515 H 0.39945 0.96327 0.25088 0.0
H2516 H 0.4195 0.97488 0.24458 0.0
H2517 H 0.41287 0.95885 0.26214 0.0
H2518 H 0.43839 0.969 0.27587 0.0
H2519 H 0.45889 0.97242 0.25183 0.0
H2520 H 0.65185 0.01081 0.30518 0.0
H2521 H 0.6295 0.01116 0.29231 0.0
H2522 H 0.59988 0.96915 0.3257 0.0
H2523 H 0.62233 0.96896 0.33914 0.0
H2524 H 0.60677 0.99091 0.26777 0.0
H2525 H 0.58215 0.99531 0.34357 0.0
H2526 H 0.60114 0.99821 0.34153 0.0
H2527 H 0.58469 0.97897 0.34168 0.0
C2528 C 0.64059 1.00165 0.30989 0.0
C2529 C 0.63891 0.98986 0.32325 0.0
C2530 C 0.62779 1.00188 0.30251 0.0
C2531 C 0.61294 0.99034 0.30826 0.0
C2532 C 0.61119 0.97843 0.32143 0.0
H2533 H 0.52513 0.96871 0.25594 0.0
H2534 H 0.54486 0.96898 0.27829 0.0
C2535 C 0.62404 0.97824 0.32896 0.0
C2536 C 0.59942 0.99056 0.2996 0.0
H2537 H 0.56718 0.99138 0.31305 0.0
C2538 C 0.59817 0.99107 0.27773 0.0
C2539 C 0.58812 0.99075 0.31253 0.0
C2540 C 0.58912 0.99093 0.33613 0.0
C2541 C 0.58601 0.9917 0.26847 0.0
C2542 C 0.57477 0.99194 0.28136 0.0
C2543 C 0.57584 0.99125 0.30321 0.0
C2544 C 0.56185 0.99281 0.27205 0.0
C2545 C 0.58517 0.99198 0.24486 0.0
C2546 C 0.5646 0.00634 0.26203 0.0
C2547 C 0.55327 0.00625 0.24952 0.0
C2548 C 0.539 0.99265 0.2469 0.0
C2549 C 0.53588 0.97945 0.2582 0.0
C2550 C 0.54719 0.97956 0.27079 0.0
H2551 H 0.59316 0.98903 0.23709 0.0
H2552 H 0.57336 0.98376 0.2393 0.0
H2553 H 0.58821 1.00374 0.23986 0.0
H2554 H 0.57583 0.01669 0.26277 0.0
H2555 H 0.5561 0.01643 0.24051 0.0
H2556 H 1.00341 0.64698 0.29591 0.0
H2557 H 1.00293 0.62391 0.28203 0.0
H2558 H 0.03449 0.62825 0.33022 0.0
H2559 H 0.03494 0.65115 0.34425 0.0
H2560 H 0.02768 0.62135 0.26719 0.0
H2561 H 0.99947 0.58302 0.33516 0.0
H2562 H 0.99935 0.60068 0.33132 0.0
H2563 H 0.01607 0.60135 0.34164 0.0
C2564 C 0.01021 0.64298 0.30357 0.0
C2565 C 0.01916 0.65085 0.32121 0.0
C2566 C 0.00993 0.62981 0.29563 0.0
C2567 C 0.01849 0.62423 0.3053 0.0
C2568 C 0.02755 0.63216 0.32278 0.0
H2569 H 0.04033 0.55972 0.24455 0.0
H2570 H 0.04223 0.58062 0.26705 0.0
C2571 C 0.02786 0.64532 0.33068 0.0
C2572 C 0.01832 0.61037 0.29673 0.0
H2573 H 0.00903 0.57354 0.30853 0.0
C2574 C 0.02363 0.61091 0.27623 0.0
C2575 C 0.01292 0.59672 0.30853 0.0
C2576 C 1.0065 0.59528 0.33032 0.0
C2577 C 0.02376 0.5982 0.26722 0.0
C2578 C 0.01864 0.58465 0.27915 0.0
C2579 C 0.01321 0.58404 0.29959 0.0
C2580 C 0.01775 0.57065 0.26983 0.0
C2581 C 0.029 0.59921 0.24478 0.0
C2582 C 1.00339 0.55772 0.26512 0.0
C2583 C 1.00232 0.54579 0.25246 0.0
C2584 C 0.01559 0.54652 0.24456 0.0
C2585 C 0.02997 0.55878 0.25082 0.0
C2586 C 0.03105 0.57078 0.26342 0.0
H2587 H 0.02987 0.6093 0.23659 0.0
H2588 H 0.04046 0.60039 0.24456 0.0
H2589 H 0.02101 0.58853 0.23589 0.0
H2590 H 0.993 0.5574 0.26991 0.0
H2591 H 0.99112 0.53657 0.24749 0.0
H2592 H 0.36887 0.35596 0.30144 0.0
H2593 H 0.39314 0.37774 0.28896 0.0
H2594 H 0.38703 0.40879 0.32931 0.0
H2595 H 0.36279 0.38707 0.34195 0.0
H2596 H 0.39509 0.41853 0.28615 0.0
H2597 H 0.43419 0.40215 0.32237 0.0
H2598 H 0.41852 0.38709 0.30762 0.0
H2599 H 0.41473 0.39452 0.33116 0.0
C2600 C 0.3727 0.36742 0.30768 0.0
C2601 C 0.3639 0.36977 0.32272 0.0
C2602 C 0.38663 0.37984 0.30064 0.0
C2603 C 0.39202 0.39487 0.30843 0.0
C2604 C 0.38315 0.39728 0.32321 0.0
H2605 H 0.46771 0.48357 0.26211 0.0
H2606 H 0.44797 0.46481 0.2859 0.0
C2607 C 0.36929 0.38485 0.33039 0.0
C2608 C 0.40663 0.40814 0.30059 0.0
H2609 H 0.44518 0.42255 0.29772 0.0
C2610 C 0.40608 0.41953 0.28886 0.0
C2611 C 0.42093 0.40939 0.30412 0.0
C2612 C 0.42224 0.39772 0.31714 0.0
C2613 C 0.41934 0.4318 0.27983 0.0
C2614 C 0.43369 0.43301 0.28316 0.0
C2615 C 0.43426 0.42176 0.29531 0.0
C2616 C 0.44789 0.44493 0.27242 0.0
C2617 C 0.41771 0.44289 0.26591 0.0
C2618 C 0.45534 0.44023 0.25821 0.0
C2619 C 0.4668 0.45095 0.24502 0.0
C2620 C 0.47109 0.46662 0.24577 0.0
C2621 C 0.46473 0.4716 0.26136 0.0
C2622 C 0.45325 0.46083 0.27467 0.0
H2623 H 0.40563 0.43829 0.26114 0.0
H2624 H 0.42164 0.45392 0.27456 0.0
H2625 H 0.42477 0.44541 0.25154 0.0
H2626 H 0.45154 0.42809 0.25625 0.0
H2627 H 0.47146 0.4468 0.23304 0.0
H2628 H 0.31175 0.28693 0.33315 0.0
H2629 H 0.31202 0.26391 0.34459 0.0
H2630 H 0.33465 0.28759 0.40193 0.0
H2631 H 0.33511 0.31076 0.39006 0.0
H2632 H 0.34766 0.27324 0.38775 0.0
H2633 H 0.28519 0.23159 0.38484 0.0
H2634 H 0.29302 0.24026 0.35998 0.0
H2635 H 0.2932 0.25206 0.38155 0.0
C2636 C 0.31668 0.28715 0.34826 0.0
C2637 C 0.32336 0.30066 0.36072 0.0
C2638 C 0.31674 0.27393 0.35487 0.0
C2639 C 0.32311 0.27379 0.37436 0.0
C2640 C 0.32966 0.28729 0.38684 0.0
H2641 H 0.30888 0.20143 0.45549 0.0
H2642 H 0.30642 0.21871 0.43158 0.0
C2643 C 0.32988 0.30056 0.38006 0.0
C2644 C 0.32344 0.25989 0.38175 0.0
H2645 H 0.30092 0.22143 0.39284 0.0
C2646 C 0.33742 0.2619 0.3888 0.0
C2647 C 0.31011 0.24503 0.38325 0.0
C2648 C 0.29451 0.2421 0.3772 0.0
C2649 C 0.33839 0.24978 0.39795 0.0
C2650 C 0.32508 0.23488 0.39932 0.0
C2651 C 0.31118 0.23273 0.3916 0.0
C2652 C 0.32491 0.22203 0.41114 0.0
C2653 C 0.35352 0.25339 0.40717 0.0
C2654 C 0.33548 0.21721 0.40703 0.0
C2655 C 0.337 0.20735 0.42096 0.0
C2656 C 0.32778 0.20194 0.43897 0.0
C2657 C 0.31615 0.20543 0.44172 0.0
C2658 C 0.31477 0.21539 0.42806 0.0
H2659 H 0.36147 0.26603 0.4093 0.0
H2660 H 0.35189 0.2478 0.42263 0.0
H2661 H 0.35909 0.24902 0.39642 0.0
H2662 H 0.34309 0.2217 0.39369 0.0
H2663 H 0.34611 0.20492 0.41851 0.0
H2664 H 0.72296 0.02703 0.35123 0.0
H2665 H 0.74419 0.05091 0.3657 0.0
H2666 H 0.7123 0.05891 0.40031 0.0
H2667 H 0.69095 0.03463 0.38639 0.0
H2668 H 0.75143 0.08022 0.36191 0.0
H2669 H 0.74167 0.06441 0.44593 0.0
H2670 H 0.73186 0.05046 0.42521 0.0
H2671 H 0.72533 0.06325 0.43356 0.0
C2672 C 0.72044 0.03377 0.36209 0.0
C2673 C 0.70526 0.02886 0.36781 0.0
C2674 C 0.73262 0.04748 0.37029 0.0
C2675 C 0.72992 0.05665 0.38433 0.0
C2676 C 0.71474 0.05186 0.38992 0.0
H2677 H 0.78637 0.1452 0.44408 0.0
H2678 H 0.76719 0.12404 0.42221 0.0
C2679 C 0.70252 0.03801 0.38189 0.0
C2680 C 0.74302 0.0713 0.39279 0.0
H2681 H 0.76004 0.09059 0.43833 0.0
C2682 C 0.75334 0.08244 0.37863 0.0
C2683 C 0.74563 0.07418 0.41462 0.0
C2684 C 0.73563 0.06238 0.43071 0.0
C2685 C 0.76598 0.09643 0.38572 0.0
C2686 C 0.76832 0.09937 0.40746 0.0
C2687 C 0.75812 0.08827 0.42162 0.0
C2688 C 0.78116 0.11397 0.4161 0.0
C2689 C 0.77672 0.10811 0.37009 0.0
C2690 C 0.79562 0.11566 0.41907 0.0
C2691 C 0.80665 0.12783 0.43149 0.0
C2692 C 0.80329 0.13836 0.44111 0.0
C2693 C 0.78929 0.13734 0.4366 0.0
C2694 C 0.7783 0.12521 0.42426 0.0
H2695 H 0.77303 0.10437 0.35364 0.0
H2696 H 0.77745 0.11937 0.37296 0.0
H2697 H 0.78838 0.11 0.3722 0.0
H2698 H 0.79796 0.10699 0.41302 0.0
H2699 H 0.81722 0.12819 0.43508 0.0
H2700 H 0.99156 0.70773 0.3445 0.0
H2701 H 0.96862 0.70721 0.35802 0.0
H2702 H 0.95659 0.66606 0.39275 0.0
H2703 H 0.97947 0.66667 0.37978 0.0
H2704 H 0.93726 0.68484 0.35557 0.0
H2705 H 0.95698 0.69488 0.4381 0.0
H2706 H 0.9696 0.69772 0.41641 0.0
H2707 H 0.95703 0.67863 0.42642 0.0
C2708 C 0.98403 0.6986 0.35505 0.0
C2709 C 0.98746 0.68735 0.36125 0.0
C2710 C 0.9709 0.69829 0.36271 0.0
C2711 C 0.96101 0.68676 0.37672 0.0
C2712 C 0.96421 0.67529 0.38238 0.0
H2713 H 0.87949 0.65777 0.44766 0.0
H2714 H 0.89929 0.65906 0.42431 0.0
C2715 C 0.97731 0.67563 0.37486 0.0
C2716 C 0.94745 0.68668 0.3858 0.0
H2717 H 0.93053 0.68591 0.43257 0.0
C2718 C 0.93584 0.68525 0.37239 0.0
C2719 C 0.94564 0.68734 0.40775 0.0
C2720 C 0.95804 0.68989 0.423 0.0
C2721 C 0.92224 0.68381 0.38046 0.0
C2722 C 0.92024 0.68383 0.4024 0.0
C2723 C 0.93201 0.6857 0.41573 0.0
C2724 C 0.90599 0.68163 0.41222 0.0
C2725 C 0.90987 0.68179 0.3656 0.0
C2726 C 0.90274 0.6936 0.41249 0.0
C2727 C 0.89131 0.69282 0.42578 0.0
C2728 C 0.88305 0.68007 0.43895 0.0
C2729 C 0.88553 0.6676 0.43739 0.0
C2730 C 0.89691 0.66838 0.42418 0.0
H2731 H 0.91245 0.68034 0.34907 0.0
H2732 H 0.89874 0.67158 0.37011 0.0
H2733 H 0.90861 0.69209 0.36668 0.0
H2734 H 0.90976 0.70402 0.40362 0.0
H2735 H 0.88985 0.70272 0.42708 0.0
H2736 H 0.36772 1.00414 0.71627 0.0
H2737 H 0.39042 1.00402 0.72825 0.0
H2738 H 0.41871 0.04223 0.68772 0.0
H2739 H 0.39595 0.04246 0.67562 0.0
H2740 H 0.41217 1.00032 0.70352 0.0
H2741 H 0.4391 0.05668 0.74635 0.0
H2742 H 0.41918 0.0464 0.73883 0.0
H2743 H 0.43373 0.05668 0.71952 0.0
C2744 C 0.37876 0.01258 0.70993 0.0
C2745 C 0.38 0.02337 0.69505 0.0
C2746 C 0.39174 0.01245 0.71676 0.0
C2747 C 0.4063 0.02317 0.70903 0.0
C2748 C 0.40762 0.03396 0.69411 0.0
H2749 H 0.49381 0.03924 0.75876 0.0
H2750 H 0.47546 0.0396 0.73415 0.0
C2751 C 0.39459 0.03406 0.68717 0.0
C2752 C 0.41998 0.02292 0.71671 0.0
H2753 H 0.45205 0.04298 0.74698 0.0
C2754 C 0.42097 0.0097 0.71288 0.0
C2755 C 0.43152 0.0352 0.72878 0.0
C2756 C 0.43088 0.04953 0.73381 0.0
C2757 C 0.43301 0.00831 0.7211 0.0
C2758 C 0.44423 0.02032 0.73391 0.0
C2759 C 0.44352 0.03377 0.73712 0.0
C2760 C 0.45589 0.01864 0.74581 0.0
C2761 C 0.43356 0.99395 0.71597 0.0
C2762 C 0.45115 0.00652 0.76012 0.0
C2763 C 0.46162 0.00624 0.77395 0.0
C2764 C 0.47707 0.01809 0.77384 0.0
C2765 C 0.48204 0.02977 0.75879 0.0
C2766 C 0.47152 0.03006 0.74492 0.0
H2767 H 0.42797 0.98885 0.70067 0.0
H2768 H 0.44551 0.99641 0.71542 0.0
H2769 H 0.42725 0.98518 0.72821 0.0
H2770 H 0.43915 0.99779 0.76159 0.0
H2771 H 0.45744 0.99734 0.78576 0.0
H2772 H 0.97999 0.35565 0.6829 0.0
H2773 H 0.98208 0.37979 0.69493 0.0
H2774 H 0.02183 0.39036 0.73154 0.0
H2775 H 0.01978 0.36609 0.7196 0.0
H2776 H 0.9819 0.38897 0.73811 0.0
H2777 H 0.03526 0.43009 0.69602 0.0
H2778 H 0.02369 0.40995 0.68851 0.0
H2779 H 0.03597 0.41546 0.71103 0.0
C2780 C 0.9892 0.36309 0.69351 0.0
C2781 C 0.99974 0.35894 0.70029 0.0
C2782 C 0.99038 0.37691 0.70034 0.0
C2783 C 1.00223 0.38698 0.71388 0.0
C2784 C 0.01274 0.38287 0.7208 0.0
H2785 H 0.02743 0.46966 0.78347 0.0
H2786 H 0.02738 0.44966 0.76134 0.0
C2787 C 0.01149 0.36895 0.7141 0.0
C2788 C 1.00316 0.40148 0.72136 0.0
H2789 H 0.02544 0.44088 0.72025 0.0
C2790 C 0.99135 0.40034 0.73408 0.0
C2791 C 0.01552 0.41626 0.71611 0.0
C2792 C 0.02831 0.41812 0.70204 0.0
C2793 C 0.99177 0.41356 0.74227 0.0
C2794 C 1.00413 0.42842 0.73703 0.0
C2795 C 0.01588 0.42954 0.72406 0.0
C2796 C 1.0057 0.44276 0.7465 0.0
C2797 C 0.97929 0.41144 0.75724 0.0
C2798 C 0.99408 0.44632 0.74446 0.0
C2799 C 0.99412 0.45783 0.75713 0.0
C2800 C 1.00589 0.46603 0.77178 0.0
C2801 C 0.01831 0.46359 0.77211 0.0
C2802 C 0.01822 0.45207 0.75958 0.0
H2803 H 0.97277 0.39949 0.7634 0.0
H2804 H 0.98412 0.41961 0.77073 0.0
H2805 H 0.97112 0.41371 0.7489 0.0
H2806 H 0.98448 0.43954 0.73407 0.0
H2807 H 0.98434 0.45935 0.75678 0.0
H2808 H 0.65178 0.659 0.72358 0.0
H2809 H 0.62766 0.6377 0.73749 0.0
H2810 H 0.63106 0.60581 0.69537 0.0
H2811 H 0.65509 0.62691 0.68152 0.0
H2812 H 0.59976 0.61671 0.7149 0.0
H2813 H 0.62524 0.58603 0.75365 0.0
H2814 H 0.63655 0.60592 0.74558 0.0
H2815 H 0.63034 0.59056 0.72655 0.0
C2816 C 0.64743 0.64743 0.71739 0.0
C2817 C 0.65542 0.64465 0.70154 0.0
C2818 C 0.63361 0.63529 0.72528 0.0
C2819 C 0.62762 0.62012 0.71762 0.0
C2820 C 0.63556 0.61735 0.70175 0.0
H2821 H 0.55172 0.53104 0.75795 0.0
H2822 H 0.57147 0.55135 0.73584 0.0
C2823 C 0.6493 0.62946 0.69381 0.0
C2824 C 0.61307 0.60716 0.7261 0.0
H2825 H 0.59828 0.57322 0.75267 0.0
C2826 C 0.59941 0.60719 0.72319 0.0
C2827 C 0.61261 0.59471 0.73679 0.0
C2828 C 0.62696 0.59428 0.74103 0.0
C2829 C 0.58529 0.59503 0.73052 0.0
C2830 C 0.58486 0.58264 0.7414 0.0
C2831 C 0.59853 0.5826 0.74415 0.0
C2832 C 0.57066 0.57013 0.75143 0.0
C2833 C 0.57097 0.59549 0.72625 0.0
C2834 C 0.56318 0.5738 0.76699 0.0
C2835 C 0.55178 0.5622 0.77937 0.0
C2836 C 0.54766 0.54668 0.7765 0.0
C2837 C 0.55439 0.54285 0.76007 0.0
C2838 C 0.56581 0.55448 0.74764 0.0
H2839 H 0.57233 0.60252 0.71223 0.0
H2840 H 0.56094 0.58369 0.72382 0.0
H2841 H 0.56858 0.60088 0.73988 0.0
H2842 H 0.5669 0.58574 0.77064 0.0
H2843 H 0.54706 0.56547 0.79234 0.0
H2844 H 0.67291 0.69948 0.64173 0.0
H2845 H 0.67298 0.72264 0.63034 0.0
H2846 H 0.71562 0.75137 0.66272 0.0
H2847 H 0.7156 0.72821 0.67442 0.0
H2848 H 0.67798 0.75041 0.66198 0.0
H2849 H 0.71898 0.76432 0.59588 0.0
H2850 H 0.70679 0.74467 0.60452 0.0
H2851 H 0.72241 0.75817 0.62067 0.0
C2852 C 0.68234 0.71071 0.64643 0.0
C2853 C 0.69428 0.71197 0.65896 0.0
C2854 C 0.68232 0.72393 0.63995 0.0
C2855 C 0.69429 0.73871 0.64569 0.0
C2856 C 0.70627 0.74006 0.65812 0.0
H2857 H 0.70891 0.82373 0.58759 0.0
H2858 H 0.71288 0.80701 0.61127 0.0
C2859 C 0.70625 0.72682 0.66476 0.0
C2860 C 0.6942 0.75263 0.63845 0.0
H2861 H 0.7078 0.77959 0.59973 0.0
C2862 C 0.68461 0.75692 0.6485 0.0
C2863 C 0.70296 0.76118 0.62103 0.0
C2864 C 0.71339 0.75695 0.60974 0.0
C2865 C 0.68332 0.76937 0.64131 0.0
C2866 C 0.69152 0.77749 0.6232 0.0
C2867 C 0.70152 0.77347 0.61362 0.0
C2868 C 0.68893 0.78916 0.61272 0.0
C2869 C 0.67317 0.77366 0.65326 0.0
C2870 C 0.67413 0.78506 0.60624 0.0
C2871 C 0.67187 0.79473 0.5931 0.0
C2872 C 0.68435 0.80867 0.58595 0.0
C2873 C 0.69906 0.81327 0.59336 0.0
C2874 C 0.70133 0.8036 0.60665 0.0
H2875 H 0.67259 0.77077 0.67013 0.0
H2876 H 0.67726 0.78617 0.65196 0.0
H2877 H 0.66137 0.76695 0.64687 0.0
H2878 H 0.6644 0.77386 0.61007 0.0
H2879 H 0.66048 0.79071 0.58709 0.0
H2880 H 0.29805 0.98038 0.68511 0.0
H2881 H 0.27551 0.95654 0.67307 0.0
H2882 H 0.29843 0.95902 0.61481 0.0
H2883 H 0.32137 0.98256 0.62731 0.0
H2884 H 0.25697 0.95127 0.64281 0.0
H2885 H 0.28241 0.91499 0.62834 0.0
H2886 H 0.29267 0.93337 0.64183 0.0
H2887 H 0.29209 0.93247 0.61357 0.0
C2888 C 0.29835 0.97576 0.6698 0.0
C2889 C 0.31151 0.98329 0.65718 0.0
C2890 C 0.28543 0.96211 0.66292 0.0
C2891 C 0.28527 0.95574 0.64315 0.0
C2892 C 0.29838 0.96337 0.63039 0.0
H2893 H 0.20898 0.89882 0.56486 0.0
H2894 H 0.22759 0.91899 0.58811 0.0
C2895 C 0.31146 0.97691 0.63746 0.0
C2896 C 0.27111 0.9416 0.63561 0.0
H2897 H 0.25789 0.90622 0.61253 0.0
C2898 C 0.25717 0.94135 0.63644 0.0
C2899 C 0.27117 0.92842 0.62774 0.0
C2900 C 0.28536 0.92724 0.62803 0.0
C2901 C 0.2435 0.92864 0.62889 0.0
C2902 C 0.24381 0.91598 0.61955 0.0
C2903 C 0.2576 0.91594 0.61951 0.0
C2904 C 0.23042 0.90338 0.60806 0.0
C2905 C 0.22889 0.92894 0.6311 0.0
C2906 C 0.22554 0.88774 0.61156 0.0
C2907 C 0.2149 0.87614 0.59806 0.0
C2908 C 0.20901 0.88004 0.58091 0.0
C2909 C 0.2131 0.89551 0.57829 0.0
C2910 C 0.22377 0.90706 0.59162 0.0
H2911 H 0.22929 0.93576 0.64516 0.0
H2912 H 0.22749 0.93462 0.61719 0.0
H2913 H 0.21874 0.91712 0.63233 0.0
H2914 H 0.23056 0.8846 0.62406 0.0
H2915 H 0.21219 0.86434 0.60006 0.0
H2916 H 0.03084 0.33277 0.63154 0.0
H2917 H 0.05315 0.33225 0.61819 0.0
H2918 H 0.05283 0.30742 0.67304 0.0
H2919 H 0.03009 0.30733 0.686 0.0
H2920 H 0.08104 0.34417 0.63257 0.0
H2921 H 0.05518 0.28058 0.62873 0.0
H2922 H 0.04395 0.28949 0.63364 0.0
H2923 H 0.05469 0.28759 0.65453 0.0
C2924 C 0.03545 0.32709 0.64068 0.0
C2925 C 0.02861 0.31996 0.65973 0.0
C2926 C 0.04825 0.32683 0.63306 0.0
C2927 C 0.0546 0.31956 0.64439 0.0
C2928 C 0.04794 0.3127 0.66365 0.0
H2929 H 0.14554 0.33907 0.6005 0.0
H2930 H 0.12552 0.33616 0.62511 0.0
C2931 C 0.03498 0.31274 0.67112 0.0
C2932 C 0.0683 0.31946 0.63607 0.0
H2933 H 0.08163 0.29571 0.62141 0.0
C2934 C 0.08118 0.33357 0.6302 0.0
C2935 C 0.06851 0.30562 0.63283 0.0
C2936 C 0.0548 0.28995 0.63757 0.0
C2937 C 0.094 0.33421 0.6207 0.0
C2938 C 0.09427 0.32039 0.61764 0.0
C2939 C 0.08156 0.30633 0.62403 0.0
C2940 C 0.10663 0.32004 0.60537 0.0
C2941 C 0.10676 0.34963 0.61304 0.0
C2942 C 0.10276 0.311 0.58699 0.0
C2943 C 0.11413 0.31235 0.57332 0.0
C2944 C 0.12966 0.32281 0.57764 0.0
C2945 C 0.13366 0.33087 0.59687 0.0
C2946 C 0.12221 0.32941 0.61073 0.0
H2947 H 0.1032 0.35836 0.61233 0.0
H2948 H 0.1166 0.35408 0.62397 0.0
H2949 H 0.11067 0.34848 0.5972 0.0
H2950 H 0.09088 0.30359 0.5825 0.0
H2951 H 0.11074 0.30601 0.55857 0.0
H2952 H 0.28921 0.30289 0.67285 0.0
H2953 H 0.26672 0.30298 0.65905 0.0
H2954 H 0.29644 0.34585 0.62757 0.0
H2955 H 0.31876 0.34567 0.64076 0.0
H2956 H 0.25663 0.32387 0.663 0.0
H2957 H 0.2697 0.3191 0.57985 0.0
H2958 H 0.27924 0.31584 0.60119 0.0
H2959 H 0.28542 0.33521 0.59296 0.0
C2960 C 0.29092 0.31229 0.66292 0.0
C2961 C 0.30581 0.32416 0.65771 0.0
C2962 C 0.27806 0.31236 0.65509 0.0
C2963 C 0.27985 0.32427 0.6419 0.0
C2964 C 0.29471 0.33632 0.63723 0.0
H2965 H 0.22588 0.35206 0.57278 0.0
H2966 H 0.2448 0.35129 0.59551 0.0
C2967 C 0.3075 0.33622 0.64489 0.0
C2968 C 0.26634 0.32421 0.63276 0.0
H2969 H 0.25129 0.32665 0.58615 0.0
C2970 C 0.25537 0.32432 0.6462 0.0
C2971 C 0.26458 0.32468 0.6108 0.0
C2972 C 0.27527 0.32354 0.59536 0.0
C2973 C 0.24308 0.32548 0.63826 0.0
C2974 C 0.24172 0.32654 0.61637 0.0
C2975 C 0.25246 0.32606 0.60297 0.0
C2976 C 0.22934 0.3282 0.60673 0.0
C2977 C 0.23187 0.32602 0.65327 0.0
C2978 C 0.21417 0.31571 0.60612 0.0
C2979 C 0.2033 0.31619 0.5932 0.0
C2980 C 0.20743 0.32919 0.58079 0.0
C2981 C 0.2223 0.34208 0.58261 0.0
C2982 C 0.23315 0.34157 0.59542 0.0
H2983 H 0.23573 0.32737 0.66982 0.0
H2984 H 0.23013 0.33573 0.64932 0.0
H2985 H 0.22063 0.31514 0.65179 0.0
H2986 H 0.21103 0.30517 0.61442 0.0
H2987 H 0.19205 0.30595 0.59157 0.0
H2988 H 0.66312 0.97972 0.6348 0.0
H2989 H 0.65944 0.95503 0.62185 0.0
H2990 H 0.69695 0.96131 0.66038 0.0
H2991 H 0.70042 0.98573 0.67373 0.0
H2992 H 0.67877 0.94913 0.60029 0.0
H2993 H 0.66453 0.91786 0.67561 0.0
H2994 H 0.66488 0.93583 0.67267 0.0
H2995 H 0.6824 0.93585 0.67646 0.0
C2996 C 0.67054 0.9758 0.64056 0.0
C2997 C 0.68201 0.98464 0.65536 0.0
C2998 C 0.66841 0.96167 0.63318 0.0
C2999 C 0.67769 0.95611 0.64049 0.0
C3000 C 0.68933 0.96509 0.65498 0.0
H3001 H 0.69522 0.8855 0.59519 0.0
H3002 H 0.69439 0.90533 0.61704 0.0
C3003 C 0.69141 0.97915 0.66245 0.0
C3004 C 0.67569 0.94131 0.6322 0.0
H3005 H 0.67017 0.9062 0.64674 0.0
C3006 C 0.67674 0.9397 0.61046 0.0
C3007 C 0.67306 0.92898 0.64546 0.0
C3008 C 0.671 0.92962 0.66882 0.0
C3009 C 0.67559 0.92631 0.60167 0.0
C3010 C 0.67319 0.9141 0.61493 0.0
C3011 C 0.67204 0.9156 0.63665 0.0
C3012 C 0.67205 0.89985 0.60617 0.0
C3013 C 0.67724 0.92539 0.57822 0.0
C3014 C 0.65939 0.88967 0.59386 0.0
C3015 C 0.65981 0.87832 0.58156 0.0
C3016 C 0.67286 0.87694 0.58149 0.0
C3017 C 0.68491 0.88615 0.59533 0.0
C3018 C 0.6845 0.89755 0.60765 0.0
H3019 H 0.68164 0.93677 0.57062 0.0
H3020 H 0.68509 0.92109 0.57449 0.0
H3021 H 0.6659 0.91713 0.57131 0.0
H3022 H 0.64966 0.89125 0.59258 0.0
H3023 H 0.6505 0.87152 0.57074 0.0
H3024 H 0.02802 0.69422 0.62489 0.0
H3025 H 0.05179 0.71661 0.6125 0.0
H3026 H 0.06075 0.7364 0.67493 0.0
H3027 H 0.03647 0.71457 0.68688 0.0
H3028 H 0.0675 0.7579 0.6505 0.0
H3029 H 0.09443 0.72719 0.61622 0.0
H3030 H 0.07634 0.72056 0.60384 0.0
H3031 H 0.07712 0.71732 0.63149 0.0
C3032 C 0.03512 0.70334 0.63594 0.0
C3033 C 0.03041 0.70264 0.65684 0.0
C3034 C 0.04884 0.71609 0.62892 0.0
C3035 C 0.05844 0.72815 0.64284 0.0
C3036 C 0.0537 0.72732 0.6638 0.0
H3037 H 0.14744 0.79795 0.58929 0.0
H3038 H 0.12917 0.77834 0.61372 0.0
C3039 C 0.03979 0.71481 0.67065 0.0
C3040 C 0.07291 0.74202 0.63537 0.0
H3041 H 0.10431 0.7533 0.60424 0.0
C3042 C 0.07564 0.75681 0.64066 0.0
C3043 C 0.08395 0.74088 0.62301 0.0
C3044 C 0.08289 0.72562 0.61855 0.0
C3045 C 0.08853 0.77032 0.6332 0.0
C3046 C 0.09872 0.7691 0.61914 0.0
C3047 C 0.09645 0.75436 0.61471 0.0
C3048 C 0.11081 0.78268 0.60736 0.0
C3049 C 0.09107 0.78573 0.64066 0.0
C3050 C 0.10686 0.79204 0.59614 0.0
C3051 C 0.11736 0.80343 0.58273 0.0
C3052 C 0.132 0.80552 0.57963 0.0
C3053 C 0.13632 0.79675 0.59158 0.0
C3054 C 0.1258 0.78541 0.60533 0.0
H3055 H 0.08683 0.78494 0.65696 0.0
H3056 H 0.10335 0.79489 0.6402 0.0
H3057 H 0.08449 0.78916 0.63055 0.0
H3058 H 0.09534 0.79 0.59677 0.0
H3059 H 0.11367 0.80995 0.57364 0.0
H3060 H 0.97696 0.61939 0.66616 0.0
H3061 H 0.97665 0.59608 0.67765 0.0
H3062 H 1.00051 0.61987 0.7343 0.0
H3063 H 1.00149 0.64328 0.72242 0.0
H3064 H 0.01265 0.60468 0.71951 0.0
H3065 H 0.94981 0.56461 0.71908 0.0
H3066 H 0.95737 0.57294 0.69397 0.0
H3067 H 0.95836 0.58513 0.71553 0.0
C3068 C 0.98205 0.61958 0.68112 0.0
C3069 C 0.98921 0.63318 0.6934 0.0
C3070 C 0.98178 0.6062 0.68776 0.0
C3071 C 0.98833 0.60601 0.70708 0.0
C3072 C 0.99538 0.61961 0.71935 0.0
H3073 H 0.97354 0.5343 0.78968 0.0
H3074 H 0.97131 0.55168 0.76568 0.0
C3075 C 0.99589 0.63302 0.71255 0.0
C3076 C 0.9883 0.59194 0.71452 0.0
H3077 H 0.96501 0.55382 0.72692 0.0
C3078 C 1.00222 0.59355 0.72105 0.0
C3079 C 0.9747 0.57736 0.71666 0.0
C3080 C 0.9592 0.57489 0.71114 0.0
C3081 C 1.0029 0.5813 0.73031 0.0
C3082 C 0.98932 0.56668 0.73236 0.0
C3083 C 0.97546 0.56491 0.72515 0.0
C3084 C 0.98893 0.5538 0.7444 0.0
C3085 C 0.01806 0.58451 0.73891 0.0
C3086 C 0.9989 0.5483 0.73989 0.0
C3087 C 1.0003 0.53838 0.75386 0.0
C3088 C 0.99154 0.53361 0.77233 0.0
C3089 C 0.98046 0.53782 0.77557 0.0
C3090 C 0.97921 0.54782 0.76185 0.0
H3091 H 0.02641 0.59709 0.74051 0.0
H3092 H 0.0166 0.57916 0.75453 0.0
H3093 H 0.02305 0.57957 0.72806 0.0
H3094 H 1.00617 0.55229 0.72616 0.0
H3095 H 0.00896 0.53538 0.751 0.0
H3096 H 0.38892 0.36496 0.67588 0.0
H3097 H 0.41052 0.38882 0.6899 0.0
H3098 H 0.38225 0.38866 0.74063 0.0
H3099 H 0.36043 0.36467 0.72661 0.0
H3100 H 0.41199 0.41812 0.69801 0.0
H3101 H 0.4211 0.39232 0.76906 0.0
H3102 H 0.41027 0.3808 0.7467 0.0
H3103 H 0.40188 0.38814 0.76479 0.0
C3104 C 0.38727 0.36995 0.69007 0.0
C3105 C 0.37297 0.36288 0.7002 0.0
C3106 C 0.39963 0.38362 0.69801 0.0
C3107 C 0.39802 0.39045 0.71635 0.0
C3108 C 0.38376 0.38347 0.72655 0.0
H3109 H 0.45407 0.47955 0.77387 0.0
H3110 H 0.43563 0.45817 0.75161 0.0
C3111 C 0.37131 0.3698 0.71852 0.0
C3112 C 0.41131 0.40488 0.7247 0.0
H3113 H 0.43609 0.4195 0.76603 0.0
C3114 C 0.4173 0.41844 0.71286 0.0
C3115 C 0.41833 0.4052 0.7439 0.0
C3116 C 0.41269 0.39084 0.75685 0.0
C3117 C 0.42994 0.43241 0.71999 0.0
C3118 C 0.43672 0.43281 0.73945 0.0
C3119 C 0.43091 0.41917 0.75106 0.0
C3120 C 0.44925 0.44736 0.74882 0.0
C3121 C 0.43598 0.44662 0.70663 0.0
C3122 C 0.46328 0.44869 0.75407 0.0
C3123 C 0.47391 0.46103 0.76659 0.0
C3124 C 0.47057 0.4721 0.77422 0.0
C3125 C 0.45702 0.47133 0.76778 0.0
C3126 C 0.44646 0.45908 0.75514 0.0
H3127 H 0.43227 0.4436 0.69004 0.0
H3128 H 0.43154 0.45393 0.71275 0.0
H3129 H 0.44868 0.45356 0.70717 0.0
H3130 H 0.46561 0.43971 0.74946 0.0
H3131 H 0.48411 0.46118 0.77178 0.0
H3132 H 0.64973 0.00799 0.72068 0.0
H3133 H 0.62748 0.00887 0.73344 0.0
H3134 H 0.63639 0.04419 0.68855 0.0
H3135 H 0.6587 0.04334 0.67558 0.0
H3136 H 0.62688 0.03469 0.75041 0.0
H3137 H 0.59063 0.01104 0.679 0.0
H3138 H 0.60704 0.00905 0.68356 0.0
H3139 H 0.60967 0.02719 0.67515 0.0
C3140 C 0.64697 0.01594 0.71348 0.0
C3141 C 0.65598 0.02557 0.69707 0.0
C3142 C 0.63424 0.01643 0.7208 0.0
C3143 C 0.63016 0.02645 0.71179 0.0
C3144 C 0.63918 0.03618 0.69551 0.0
H3145 H 0.56445 0.045 0.77555 0.0
H3146 H 0.58569 0.0488 0.75282 0.0
C3147 C 0.65198 0.03575 0.68821 0.0
C3148 C 0.61666 0.02689 0.71993 0.0
H3149 H 0.58045 0.01824 0.70734 0.0
C3150 C 0.61678 0.03124 0.74094 0.0
C3151 C 0.60345 0.02224 0.70758 0.0
C3152 C 0.60253 0.01699 0.6851 0.0
C3153 C 0.60401 0.03089 0.75004 0.0
C3154 C 0.59079 0.02625 0.73772 0.0
C3155 C 0.59068 0.02201 0.71664 0.0
C3156 C 0.57658 0.02439 0.74723 0.0
C3157 C 0.60454 0.03494 0.77302 0.0
C3158 C 0.56405 0.00948 0.75058 0.0
C3159 C 0.55193 0.00733 0.76341 0.0
C3160 C 0.55206 0.02007 0.77285 0.0
C3161 C 0.56396 0.03504 0.76807 0.0
C3162 C 0.57615 0.0372 0.75531 0.0
H3163 H 0.61459 0.03578 0.7811 0.0
H3164 H 0.60524 0.04626 0.77463 0.0
H3165 H 0.59397 0.02616 0.7811 0.0
H3166 H 0.56417 0.99945 0.74454 0.0
H3167 H 0.54302 0.99568 0.76723 0.0
loop_
_geom_bond_atom_site_label_1
_geom_bond_atom_site_label_2
_geom_bond_distance
_geom_bond_site_symmetry_2
_ccdc_geom_bond_type
Co0 O1 2.216 . S
Co0 O2 2.091 . S
Co0 O4 2.004 1_554 S
Co0 O10 2.021 . S
Co0 O12 2.137 1_454 S
Co0 O13 2.244 1_455 S
O1 Co0 2.216 . S
O1 C8 1.247 . S
O2 Co0 2.091 . S
O2 C8 1.261 . S
C3 O12 1.247 . S
C3 O13 1.272 1_556 S
O4 Co0 2.004 1_556 S
O4 C9 1.243 1_455 S
Co5 O6 2.061 1_554 S
Co5 O11 2.052 . S
Co5 O13 2.135 . S
O6 Co5 2.061 1_556 S
O6 C9 1.251 . S
C7 O10 1.238 1_655 S
C7 O11 1.241 . S
C8 O1 1.247 . S
C8 O2 1.261 . S
C9 O4 1.243 1_655 S
C9 O6 1.251 . S
O10 Co0 2.021 . S
O10 C7 1.238 1_455 S
O11 Co5 2.052 . S
O11 C7 1.241 . S
O12 Co0 2.137 1_656 S
O12 C3 1.247 . S
O13 Co0 2.244 1_655 S
O13 C3 1.272 1_554 S
O13 Co5 2.135 . S
Co14 O15 2.216 1_554 S
Co14 O16 2.091 . S
Co14 O18 2.004 . S
Co14 O24 2.021 1_554 S
Co14 O26 2.137 . S
Co14 O27 2.244 . S
O15 Co14 2.216 1_556 S
O15 C22 1.247 . S
O16 Co14 2.091 . S
O16 C22 1.261 1_554 S
C17 O26 1.247 . S
C17 O27 1.272 . S
O18 Co14 2.004 . S
O18 C23 1.259 . S
Co19 O20 2.061 . S
Co19 O25 2.052 1_554 S
Co19 O27 2.135 . S
O20 Co19 2.061 . S
O20 C23 1.235 . S
C21 O24 1.238 . S
C21 O25 1.241 . S
C22 O15 1.247 . S
C22 O16 1.261 1_556 S
C23 O18 1.259 . S
C23 O20 1.235 . S
O24 Co14 2.021 1_556 S
O24 C21 1.238 . S
O25 Co19 2.052 1_556 S
O25 C21 1.241 . S
O26 Co14 2.137 . S
O26 C17 1.247 . S
O27 Co14 2.244 . S
O27 C17 1.272 . S
O27 Co19 2.135 . S
Co28 O29 2.216 1_554 S
Co28 O30 2.091 . S
Co28 O32 2.004 . S
Co28 O38 2.021 1_554 S
Co28 O40 2.137 1_545 S
Co28 O41 2.244 1_545 S
O29 Co28 2.216 1_556 S
O29 C36 1.247 . S
O30 Co28 2.091 . S
O30 C36 1.261 1_554 S
C31 O40 1.247 . S
C31 O41 1.272 . S
O32 Co28 2.004 . S
O32 C37 1.259 . S
Co33 O34 2.061 . S
Co33 O39 2.052 1_554 S
Co33 O41 2.135 . S
O34 Co33 2.061 . S
O34 C37 1.235 1_565 S
C35 O38 1.189 1_565 S
C35 O39 1.289 . S
C36 O29 1.247 . S
C36 O30 1.261 1_556 S
C37 O32 1.259 . S
C37 O34 1.235 1_545 S
O38 Co28 2.021 1_556 S
O38 C35 1.189 1_545 S
O39 Co33 2.052 1_556 S
O39 C35 1.289 . S
O40 Co28 2.137 1_565 S
O40 C31 1.247 . S
O41 Co28 2.244 1_565 S
O41 C31 1.272 . S
O41 Co33 2.135 . S
Co42 O43 2.216 1_554 S
Co42 O44 2.091 . S
Co42 O46 2.004 . S
Co42 O52 2.021 1_554 S
Co42 O54 2.137 1_655 S
Co42 O55 2.244 1_655 S
O43 Co42 2.216 1_556 S
O43 C50 1.247 . S
O44 Co42 2.091 . S
O44 C50 1.261 1_554 S
C45 O54 1.247 . S
C45 O55 1.272 . S
O46 Co42 2.004 . S
O46 C51 1.259 1_655 S
Co47 O48 2.061 . S
Co47 O53 2.052 1_554 S
Co47 O55 2.135 . S
O48 Co47 2.061 . S
O48 C51 1.235 . S
C49 O52 1.238 1_455 S
C49 O53 1.241 . S
C50 O43 1.247 . S
C50 O44 1.261 1_556 S
C51 O46 1.259 1_455 S
C51 O48 1.235 . S
O52 Co42 2.021 1_556 S
O52 C49 1.238 1_655 S
O53 Co47 2.052 1_556 S
O53 C49 1.241 . S
O54 Co42 2.137 1_455 S
O54 C45 1.247 . S
O55 Co42 2.244 1_455 S
O55 C45 1.272 . S
O55 Co47 2.135 . S
Co56 O57 2.216 . S
Co56 O58 2.091 . S
Co56 O60 2.004 1_554 S
Co56 O66 2.021 . S
Co56 O68 2.137 1_554 S
Co56 O69 2.244 . S
O57 Co56 2.216 . S
O57 C64 1.247 . S
O58 Co56 2.091 . S
O58 C64 1.261 . S
C59 O68 1.247 . S
C59 O69 1.272 1_556 S
O60 Co56 2.004 1_556 S
O60 C65 1.259 . S
Co61 O62 2.061 1_554 S
Co61 O67 2.052 . S
Co61 O69 2.135 . S
O62 Co61 2.061 1_556 S
O62 C65 1.235 . S
C63 O66 1.238 . S
C63 O67 1.241 . S
C64 O57 1.247 . S
C64 O58 1.261 . S
C65 O60 1.259 . S
C65 O62 1.235 . S
O66 Co56 2.021 . S
O66 C63 1.238 . S
O67 Co61 2.052 . S
O67 C63 1.241 . S
O68 Co56 2.137 1_556 S
O68 C59 1.247 . S
O69 Co56 2.244 . S
O69 C59 1.272 1_554 S
O69 Co61 2.135 . S
Co70 O71 2.216 . S
Co70 O72 2.091 . S
Co70 O74 2.004 1_554 S
Co70 O80 2.021 . S
Co70 O82 2.137 1_564 S
Co70 O83 2.244 1_565 S
O71 Co70 2.216 . S
O71 C78 1.247 . S
O72 Co70 2.091 . S
O72 C78 1.261 . S
C73 O82 1.247 . S
C73 O83 1.272 1_556 S
O74 Co70 2.004 1_556 S
O74 C79 1.259 1_565 S
Co75 O76 2.061 1_554 S
Co75 O81 2.052 . S
Co75 O83 2.135 . S
O76 Co75 2.061 1_556 S
O76 C79 1.235 . S
C77 O80 1.238 1_545 S
C77 O81 1.241 . S
C78 O71 1.247 . S
C78 O72 1.261 . S
C79 O74 1.259 1_545 S
C79 O76 1.235 . S
O80 Co70 2.021 . S
O80 C77 1.238 1_565 S
O81 Co75 2.052 . S
O81 C77 1.241 . S
O82 Co70 2.137 1_546 S
O82 C73 1.247 . S
O83 Co70 2.244 1_545 S
O83 C73 1.272 1_554 S
O83 Co75 2.135 . S
Co84 O85 2.216 . S
Co84 O86 2.091 . S
Co84 O88 2.004 . S
Co84 O94 2.021 . S
Co84 O96 2.137 . S
Co84 O97 2.244 . S
O85 Co84 2.216 . S
O85 C92 1.247 . S
O86 Co84 2.091 . S
O86 C92 1.261 . S
C87 O96 1.247 . S
C87 O97 1.272 . S
O88 Co84 2.004 . S
O88 C93 1.259 . S
Co89 O90 2.061 . S
Co89 O95 2.052 . S
Co89 O97 2.135 . S
O90 Co89 2.061 . S
O90 C93 1.235 . S
C91 O94 1.238 . S
C91 O95 1.241 . S
C92 O85 1.247 . S
C92 O86 1.261 . S
C93 O88 1.259 . S
C93 O90 1.235 . S
O94 Co84 2.021 . S
O94 C91 1.238 . S
O95 Co89 2.052 . S
O95 C91 1.241 . S
O96 Co84 2.137 . S
O96 C87 1.247 . S
O97 Co84 2.244 . S
O97 C87 1.272 . S
O97 Co89 2.135 . S
Co98 O99 2.216 . S
Co98 O100 2.091 . S
Co98 O102 2.004 . S
Co98 O108 2.021 . S
Co98 O110 2.137 1_565 S
Co98 O111 2.283 . S
O99 Co98 2.216 . S
O99 C106 1.247 . S
O100 Co98 2.091 . S
O100 C106 1.261 . S
C101 O110 1.247 . S
C101 O111 1.263 1_545 S
O102 Co98 2.004 . S
O102 C107 1.259 . S
Co103 O104 2.061 . S
Co103 O109 2.052 . S
Co103 O111 2.140 . S
O104 Co103 2.061 . S
O104 C107 1.235 . S
C105 O108 1.238 . S
C105 O109 1.241 . S
C106 O99 1.247 . S
C106 O100 1.261 . S
C107 O102 1.259 . S
C107 O104 1.235 . S
O108 Co98 2.021 . S
O108 C105 1.238 . S
O109 Co103 2.052 . S
O109 C105 1.241 . S
O110 Co98 2.137 1_545 S
O110 C101 1.247 . S
O111 Co98 2.283 . S
O111 C101 1.263 1_565 S
O111 Co103 2.140 . S
Co112 O113 2.216 . S
Co112 O114 2.091 . S
Co112 O116 2.004 . S
Co112 O122 2.021 . S
Co112 O124 2.111 1_455 S
Co112 O125 2.244 . S
O113 Co112 2.216 . S
O113 C120 1.247 . S
O114 Co112 2.091 . S
O114 C120 1.261 . S
C115 O124 1.238 . S
C115 O125 1.272 1_655 S
O116 Co112 2.004 . S
O116 C121 1.259 . S
Co117 O118 2.061 . S
Co117 O123 2.052 . S
Co117 O125 2.135 . S
O118 Co117 2.061 . S
O118 C121 1.235 . S
C119 O122 1.238 . S
C119 O123 1.241 . S
C120 O113 1.247 . S
C120 O114 1.261 . S
C121 O116 1.259 . S
C121 O118 1.235 . S
O122 Co112 2.021 . S
O122 C119 1.238 . S
O123 Co117 2.052 . S
O123 C119 1.241 . S
O124 Co112 2.111 1_655 S
O124 C115 1.238 . S
O125 Co112 2.244 . S
O125 C115 1.272 1_455 S
O125 Co117 2.135 . S
Co126 O127 2.216 . S
Co126 O128 2.091 . S
Co126 O130 2.004 . S
Co126 O136 2.021 . S
Co126 O138 2.137 1_565 S
Co126 O139 2.246 . S
O127 Co126 2.216 . S
O127 C134 1.247 . S
O128 Co126 2.091 . S
O128 C134 1.261 . S
C129 O138 1.247 . S
C129 O139 1.256 1_545 S
O130 Co126 2.004 . S
O130 C135 1.259 . S
Co131 O132 2.061 . S
Co131 O137 2.052 . S
Co131 O139 2.152 . S
O132 Co131 2.061 . S
O132 C135 1.235 . S
C133 O136 1.238 . S
C133 O137 1.241 . S
C134 O127 1.247 . S
C134 O128 1.261 . S
C135 O130 1.259 . S
C135 O132 1.235 . S
O136 Co126 2.021 . S
O136 C133 1.238 . S
O137 Co131 2.052 . S
O137 C133 1.241 . S
O138 Co126 2.137 1_545 S
O138 C129 1.247 . S
O139 Co126 2.246 . S
O139 C129 1.256 1_565 S
O139 Co131 2.152 . S
Co140 O141 2.216 1_455 S
Co140 O142 2.091 1_455 S
Co140 O144 2.004 . S
Co140 O150 2.021 . S
Co140 O152 2.137 . S
Co140 O153 2.244 . S
O141 Co140 2.216 1_655 S
O141 C148 1.247 . S
O142 Co140 2.091 1_655 S
O142 C148 1.261 . S
C143 O152 1.250 . S
C143 O153 1.272 . S
O144 Co140 2.004 . S
O144 C149 1.259 . S
Co145 O146 2.061 . S
Co145 O151 2.052 . S
Co145 O153 2.135 . S
O146 Co145 2.061 . S
O146 C149 1.235 . S
C147 O150 1.238 . S
C147 O151 1.241 . S
C148 O141 1.247 . S
C148 O142 1.261 . S
C149 O144 1.259 . S
C149 O146 1.235 . S
O150 Co140 2.021 . S
O150 C147 1.238 . S
O151 Co145 2.052 . S
O151 C147 1.241 . S
O152 Co140 2.137 . S
O152 C143 1.250 . S
O153 Co140 2.244 . S
O153 C143 1.272 . S
O153 Co145 2.135 . S
Co154 O155 2.216 . S
Co154 O156 2.091 . S
Co154 O158 2.004 . S
Co154 O164 2.021 . S
Co154 O166 2.137 . S
Co154 O167 2.244 . S
O155 Co154 2.216 . S
O155 C162 1.247 . S
O156 Co154 2.091 . S
O156 C162 1.261 . S
C157 O166 1.247 . S
C157 O167 1.272 . S
O158 Co154 2.004 . S
O158 C163 1.259 . S
Co159 O160 2.061 . S
Co159 O165 2.052 . S
Co159 O167 2.135 . S
O160 Co159 2.061 . S
O160 C163 1.235 . S
C161 O164 1.238 . S
C161 O165 1.241 . S
C162 O155 1.247 . S
C162 O156 1.261 . S
C163 O158 1.259 . S
C163 O160 1.235 . S
O164 Co154 2.021 . S
O164 C161 1.238 . S
O165 Co159 2.052 . S
O165 C161 1.241 . S
O166 Co154 2.137 . S
O166 C157 1.247 . S
O167 Co154 2.244 . S
O167 C157 1.272 . S
O167 Co159 2.135 . S
Co168 O169 2.216 . S
Co168 O170 2.091 . S
Co168 O172 2.004 . S
Co168 O178 2.021 . S
Co168 O180 2.137 1_545 S
Co168 O181 2.244 . S
O169 Co168 2.216 . S
O169 C176 1.247 . S
O170 Co168 2.091 . S
O170 C176 1.261 . S
C171 O180 1.247 . S
C171 O181 1.272 1_565 S
O172 Co168 2.004 . S
O172 C177 1.259 . S
Co173 O174 2.061 . S
Co173 O179 2.052 . S
Co173 O181 2.135 . S
O174 Co173 2.061 . S
O174 C177 1.235 . S
C175 O178 1.238 . S
C175 O179 1.241 . S
C176 O169 1.247 . S
C176 O170 1.261 . S
C177 O172 1.259 . S
C177 O174 1.235 . S
O178 Co168 2.021 . S
O178 C175 1.238 . S
O179 Co173 2.052 . S
O179 C175 1.241 . S
O180 Co168 2.137 1_565 S
O180 C171 1.247 . S
O181 Co168 2.244 . S
O181 C171 1.272 1_545 S
O181 Co173 2.135 . S
Co182 O183 2.216 1_655 S
Co182 O184 2.091 1_655 S
Co182 O186 2.004 . S
Co182 O192 2.021 . S
Co182 O194 2.137 1_655 S
Co182 O195 2.244 . S
O183 Co182 2.216 1_455 S
O183 C190 1.247 . S
O184 Co182 2.091 1_455 S
O184 C190 1.261 . S
C185 O194 1.240 1_655 S
C185 O195 1.272 . S
O186 Co182 2.004 . S
O186 C191 1.259 . S
Co187 O188 2.061 . S
Co187 O193 2.052 . S
Co187 O195 2.135 . S
O188 Co187 2.061 . S
O188 C191 1.235 . S
C189 O192 1.238 . S
C189 O193 1.241 . S
C190 O183 1.247 . S
C190 O184 1.261 . S
C191 O186 1.259 . S
C191 O188 1.235 . S
O192 Co182 2.021 . S
O192 C189 1.238 . S
O193 Co187 2.052 . S
O193 C189 1.241 . S
O194 Co182 2.137 1_455 S
O194 C185 1.240 1_455 S
O195 Co182 2.244 . S
O195 C185 1.272 . S
O195 Co187 2.135 . S
Co196 O197 2.216 . S
Co196 O198 2.091 . S
Co196 O200 2.004 . S
Co196 O206 2.021 . S
Co196 O208 2.137 . S
Co196 O209 2.244 . S
O197 Co196 2.216 . S
O197 C204 1.247 . S
O198 Co196 2.091 . S
O198 C204 1.261 . S
C199 O208 1.247 . S
C199 O209 1.272 . S
O200 Co196 2.004 . S
O200 C205 1.259 . S
Co201 O202 2.061 . S
Co201 O207 2.052 . S
Co201 O209 2.135 . S
O202 Co201 2.061 . S
O202 C205 1.235 . S
C203 O206 1.238 . S
C203 O207 1.241 . S
C204 O197 1.247 . S
C204 O198 1.261 . S
C205 O200 1.259 . S
C205 O202 1.235 . S
O206 Co196 2.021 . S
O206 C203 1.238 . S
O207 Co201 2.052 . S
O207 C203 1.241 . S
O208 Co196 2.137 . S
O208 C199 1.247 . S
O209 Co196 2.244 . S
O209 C199 1.272 . S
O209 Co201 2.135 . S
Co210 O211 2.216 . S
Co210 O212 2.091 . S
Co210 O214 2.004 . S
Co210 O220 2.021 . S
Co210 O222 2.137 . S
Co210 O223 2.244 . S
O211 Co210 2.216 . S
O211 C218 1.247 . S
O212 Co210 2.091 . S
O212 C218 1.261 . S
C213 O222 1.247 . S
C213 O223 1.272 . S
O214 Co210 2.004 . S
O214 C219 1.259 . S
Co215 O216 2.061 . S
Co215 O221 2.052 . S
Co215 O223 2.135 . S
O216 Co215 2.061 . S
O216 C219 1.235 . S
C217 O220 1.238 . S
C217 O221 1.241 . S
C218 O211 1.247 . S
C218 O212 1.261 . S
C219 O214 1.259 . S
C219 O216 1.235 . S
O220 Co210 2.021 . S
O220 C217 1.238 . S
O221 Co215 2.052 . S
O221 C217 1.241 . S
O222 Co210 2.137 . S
O222 C213 1.247 . S
O223 Co210 2.244 . S
O223 C213 1.272 . S
O223 Co215 2.135 . S
Co224 O225 2.216 . S
Co224 O226 2.091 . S
Co224 O228 2.004 . S
Co224 O234 2.021 . S
Co224 O236 2.137 1_545 S
Co224 O237 2.244 . S
O225 Co224 2.216 . S
O225 C232 1.247 . S
O226 Co224 2.091 . S
O226 C232 1.261 . S
C227 O236 1.247 . S
C227 O237 1.272 1_565 S
O228 Co224 2.004 . S
O228 C233 1.259 . S
Co229 O230 2.061 . S
Co229 O235 2.052 . S
Co229 O237 2.135 . S
O230 Co229 2.061 . S
O230 C233 1.235 . S
C231 O234 1.238 . S
C231 O235 1.241 . S
C232 O225 1.247 . S
C232 O226 1.261 . S
C233 O228 1.259 . S
C233 O230 1.235 . S
O234 Co224 2.021 . S
O234 C231 1.238 . S
O235 Co229 2.052 . S
O235 C231 1.241 . S
O236 Co224 2.137 1_565 S
O236 C227 1.247 . S
O237 Co224 2.244 . S
O237 C227 1.272 1_545 S
O237 Co229 2.135 . S
Co238 O239 2.216 . S
Co238 O240 2.091 . S
Co238 O242 2.004 . S
Co238 O248 2.021 . S
Co238 O250 2.088 1_655 S
Co238 O251 2.244 . S
O239 Co238 2.216 . S
O239 C246 1.247 . S
O240 Co238 2.091 . S
O240 C246 1.261 . S
C241 O250 1.232 . S
C241 O251 1.272 1_455 S
O242 Co238 2.004 . S
O242 C247 1.259 . S
Co243 O244 2.061 . S
Co243 O249 2.052 . S
Co243 O251 2.135 . S
O244 Co243 2.061 . S
O244 C247 1.235 . S
C245 O248 1.238 . S
C245 O249 1.241 . S
C246 O239 1.247 . S
C246 O240 1.261 . S
C247 O242 1.259 . S
C247 O244 1.235 . S
O248 Co238 2.021 . S
O248 C245 1.238 . S
O249 Co243 2.052 . S
O249 C245 1.241 . S
O250 Co238 2.088 1_455 S
O250 C241 1.232 . S
O251 Co238 2.244 . S
O251 C241 1.272 1_655 S
O251 Co243 2.135 . S
H252 C258 0.930 . S
H253 C261 0.931 . S
H254 C263 0.931 . S
H255 C265 0.930 . S
H256 C267 0.930 . S
H257 C269 0.931 . S
C258 H252 0.930 . S
C258 C259 1.380 . S
C258 C260 1.394 . S
C259 C258 1.380 . S
C259 C263 1.382 . S
C260 C258 1.394 . S
C260 C261 1.400 . S
C261 H253 0.931 . S
C261 C260 1.400 . S
C261 C262 1.375 . S
C262 C261 1.375 . S
C262 C263 1.415 . S
C262 C264 1.501 . S
C263 H254 0.931 . S
C263 C259 1.382 . S
C263 C262 1.415 . S
C264 C262 1.501 . S
C264 C265 1.384 . S
C264 C269 1.408 . S
C265 H255 0.930 . S
C265 C264 1.384 . S
C265 C266 1.389 . S
C266 C265 1.389 . S
C266 C267 1.405 . S
C267 H256 0.930 . S
C267 C266 1.405 . S
C267 C268 1.364 . S
C268 C267 1.364 . S
C268 C269 1.400 . S
C269 H257 0.931 . S
C269 C264 1.408 . S
C269 C268 1.400 . S
H270 C276 0.930 . S
H271 C279 0.931 . S
H272 C281 0.931 . S
H273 C283 0.930 . S
H274 C285 0.930 . S
H275 C287 0.931 . S
C276 H270 0.930 . S
C276 C277 1.380 . S
C276 C278 1.394 . S
C277 C276 1.380 . S
C277 C281 1.382 . S
C278 C276 1.394 . S
C278 C279 1.400 . S
C279 H271 0.931 . S
C279 C278 1.400 . S
C279 C280 1.375 . S
C280 C279 1.375 . S
C280 C281 1.415 . S
C280 C282 1.501 . S
C281 H272 0.931 . S
C281 C277 1.382 . S
C281 C280 1.415 . S
C282 C280 1.501 . S
C282 C283 1.384 . S
C282 C287 1.408 . S
C283 H273 0.930 . S
C283 C282 1.384 . S
C283 C284 1.389 . S
C284 C283 1.389 . S
C284 C285 1.405 . S
C285 H274 0.930 . S
C285 C284 1.405 . S
C285 C286 1.364 . S
C286 C285 1.364 . S
C286 C287 1.400 . S
C287 H275 0.931 . S
C287 C282 1.408 . S
C287 C286 1.400 . S
H288 C294 0.930 . S
H289 C297 0.931 . S
H290 C299 0.931 . S
H291 C301 0.930 . S
H292 C303 0.930 . S
H293 C305 0.931 . S
C294 H288 0.930 . S
C294 C295 1.380 . S
C294 C296 1.394 . S
C295 C294 1.380 . S
C295 C299 1.382 . S
C296 C294 1.394 . S
C296 C297 1.400 . S
C297 H289 0.931 . S
C297 C296 1.400 . S
C297 C298 1.375 . S
C298 C297 1.375 . S
C298 C299 1.415 . S
C298 C300 1.501 . S
C299 H290 0.931 . S
C299 C295 1.382 . S
C299 C298 1.415 . S
C300 C298 1.501 . S
C300 C301 1.384 . S
C300 C305 1.408 . S
C301 H291 0.930 . S
C301 C300 1.384 . S
C301 C302 1.389 . S
C302 C301 1.389 . S
C302 C303 1.405 . S
C303 H292 0.930 . S
C303 C302 1.405 . S
C303 C304 1.364 . S
C304 C303 1.364 . S
C304 C305 1.400 . S
C305 H293 0.931 . S
C305 C300 1.408 . S
C305 C304 1.400 . S
H306 C312 0.930 . S
H307 C315 0.931 . S
H308 C317 0.931 . S
H309 C319 0.930 . S
H310 C321 0.930 . S
H311 C323 0.931 . S
C312 H306 0.930 . S
C312 C313 1.380 . S
C312 C314 1.394 . S
C313 C312 1.380 . S
C313 C317 1.382 . S
C314 C312 1.394 . S
C314 C315 1.400 . S
C315 H307 0.931 . S
C315 C314 1.400 . S
C315 C316 1.375 . S
C316 C315 1.375 . S
C316 C317 1.415 . S
C316 C318 1.501 . S
C317 H308 0.931 . S
C317 C313 1.382 . S
C317 C316 1.415 . S
C318 C316 1.501 . S
C318 C319 1.384 . S
C318 C323 1.408 . S
C319 H309 0.930 . S
C319 C318 1.384 . S
C319 C320 1.389 . S
C320 C319 1.389 . S
C320 C321 1.405 . S
C321 H310 0.930 . S
C321 C320 1.405 . S
C321 C322 1.364 . S
C322 C321 1.364 . S
C322 C323 1.400 . S
C323 H311 0.931 . S
C323 C318 1.408 . S
C323 C322 1.400 . S
H324 C330 0.930 . S
H325 C333 0.931 . S
H326 C335 0.931 . S
H327 C337 0.930 . S
H328 C339 0.930 . S
H329 C341 0.931 . S
C330 H324 0.930 . S
C330 C331 1.380 . S
C330 C332 1.394 . S
C331 C330 1.380 . S
C331 C335 1.382 . S
C332 C330 1.394 . S
C332 C333 1.400 . S
C333 H325 0.931 . S
C333 C332 1.400 . S
C333 C334 1.375 . S
C334 C333 1.375 . S
C334 C335 1.415 . S
C334 C336 1.501 . S
C335 H326 0.931 . S
C335 C331 1.382 . S
C335 C334 1.415 . S
C336 C334 1.501 . S
C336 C337 1.384 . S
C336 C341 1.408 . S
C337 H327 0.930 . S
C337 C336 1.384 . S
C337 C338 1.389 . S
C338 C337 1.389 . S
C338 C339 1.405 . S
C339 H328 0.930 . S
C339 C338 1.405 . S
C339 C340 1.364 . S
C340 C339 1.364 . S
C340 C341 1.400 . S
C341 H329 0.931 . S
C341 C336 1.408 . S
C341 C340 1.400 . S
H342 C348 0.930 . S
H343 C351 0.931 . S
H344 C353 0.931 . S
H345 C355 0.930 . S
H346 C357 0.930 . S
H347 C359 0.931 . S
C348 H342 0.930 . S
C348 C349 1.380 . S
C348 C350 1.394 . S
C349 C348 1.380 . S
C349 C353 1.382 . S
C350 C348 1.394 . S
C350 C351 1.400 . S
C351 H343 0.931 . S
C351 C350 1.400 . S
C351 C352 1.375 . S
C352 C351 1.375 . S
C352 C353 1.415 . S
C352 C354 1.501 . S
C353 H344 0.931 . S
C353 C349 1.382 . S
C353 C352 1.415 . S
C354 C352 1.501 . S
C354 C355 1.384 . S
C354 C359 1.408 . S
C355 H345 0.930 . S
C355 C354 1.384 . S
C355 C356 1.389 . S
C356 C355 1.389 . S
C356 C357 1.405 . S
C357 H346 0.930 . S
C357 C356 1.405 . S
C357 C358 1.364 . S
C358 C357 1.364 . S
C358 C359 1.400 . S
C359 H347 0.931 . S
C359 C354 1.408 . S
C359 C358 1.400 . S
H360 C366 0.930 . S
H361 C369 0.931 . S
H362 C371 0.931 . S
H363 C373 0.930 . S
H364 C375 0.930 . S
H365 C377 0.931 . S
C366 H360 0.930 . S
C366 C367 1.380 . S
C366 C368 1.394 . S
C367 C366 1.380 . S
C367 C371 1.382 . S
C368 C366 1.394 . S
C368 C369 1.400 . S
C369 H361 0.931 . S
C369 C368 1.400 . S
C369 C370 1.375 . S
C370 C369 1.375 . S
C370 C371 1.415 . S
C370 C372 1.501 . S
C371 H362 0.931 . S
C371 C367 1.382 . S
C371 C370 1.415 . S
C372 C370 1.501 . S
C372 C373 1.384 . S
C372 C377 1.408 . S
C373 H363 0.930 . S
C373 C372 1.384 . S
C373 C374 1.389 . S
C374 C373 1.389 . S
C374 C375 1.405 . S
C375 H364 0.930 . S
C375 C374 1.405 . S
C375 C376 1.364 . S
C376 C375 1.364 . S
C376 C377 1.400 . S
C377 H365 0.931 . S
C377 C372 1.408 . S
C377 C376 1.400 . S
H378 C384 0.930 . S
H379 C387 0.931 . S
H380 C389 0.931 . S
H381 C391 0.930 . S
H382 C393 0.930 . S
H383 C395 0.931 . S
C384 H378 0.930 . S
C384 C385 1.380 . S
C384 C386 1.394 . S
C385 C384 1.380 . S
C385 C389 1.382 . S
C386 C384 1.394 . S
C386 C387 1.400 . S
C387 H379 0.931 . S
C387 C386 1.400 . S
C387 C388 1.375 . S
C388 C387 1.375 . S
C388 C389 1.415 . S
C388 C390 1.501 . S
C389 H380 0.931 . S
C389 C385 1.382 . S
C389 C388 1.415 . S
C390 C388 1.501 . S
C390 C391 1.384 . S
C390 C395 1.408 . S
C391 H381 0.930 . S
C391 C390 1.384 . S
C391 C392 1.389 . S
C392 C391 1.389 . S
C392 C393 1.405 . S
C393 H382 0.930 . S
C393 C392 1.405 . S
C393 C394 1.364 . S
C394 C393 1.364 . S
C394 C395 1.400 . S
C395 H383 0.931 . S
C395 C390 1.408 . S
C395 C394 1.400 . S
H396 C402 0.930 . S
H397 C405 0.931 . S
H398 C407 0.931 . S
H399 C409 0.930 . S
H400 C411 0.930 . S
H401 C413 0.931 . S
C402 H396 0.930 . S
C402 C403 1.380 . S
C402 C404 1.394 . S
C403 C402 1.380 . S
C403 C407 1.382 . S
C404 C402 1.394 . S
C404 C405 1.400 . S
C405 H397 0.931 . S
C405 C404 1.400 . S
C405 C406 1.375 . S
C406 C405 1.375 . S
C406 C407 1.415 . S
C406 C408 1.501 . S
C407 H398 0.931 . S
C407 C403 1.382 . S
C407 C406 1.415 . S
C408 C406 1.501 . S
C408 C409 1.384 . S
C408 C413 1.408 . S
C409 H399 0.930 . S
C409 C408 1.384 . S
C409 C410 1.389 . S
C410 C409 1.389 . S
C410 C411 1.405 . S
C411 H400 0.930 . S
C411 C410 1.405 . S
C411 C412 1.364 . S
C412 C411 1.364 . S
C412 C413 1.400 . S
C413 H401 0.931 . S
C413 C408 1.408 . S
C413 C412 1.400 . S
H414 C420 0.966 . S
H415 C423 0.931 . S
H416 C425 0.931 . S
H417 C427 0.930 . S
H418 C429 0.898 . S
H419 C431 0.938 1_655 S
C420 H414 0.966 . S
C420 C421 1.377 . S
C420 C422 1.393 1_655 S
C421 C420 1.377 . S
C421 C425 1.382 . S
C422 C420 1.393 1_455 S
C422 C423 1.400 . S
C423 H415 0.931 . S
C423 C422 1.400 . S
C423 C424 1.375 . S
C424 C423 1.375 . S
C424 C425 1.415 1_455 S
C424 C426 1.501 . S
C425 H416 0.931 . S
C425 C421 1.382 . S
C425 C424 1.415 1_655 S
C426 C424 1.501 . S
C426 C427 1.384 . S
C426 C431 1.415 . S
C427 H417 0.930 . S
C427 C426 1.384 . S
C427 C428 1.440 . S
C428 C427 1.440 . S
C428 C429 1.400 . S
C429 H418 0.898 . S
C429 C428 1.400 . S
C429 C430 1.382 . S
C430 C429 1.382 . S
C430 C431 1.388 . S
C431 H419 0.938 1_455 S
C431 C426 1.415 . S
C431 C430 1.388 . S
H432 C438 0.930 . S
H433 C441 0.931 . S
H434 C443 0.931 . S
H435 C445 0.930 . S
H436 C447 0.930 . S
H437 C449 0.931 . S
C438 H432 0.930 . S
C438 C439 1.380 . S
C438 C440 1.394 . S
C439 C438 1.380 . S
C439 C443 1.382 . S
C440 C438 1.394 . S
C440 C441 1.400 . S
C441 H433 0.931 . S
C441 C440 1.400 . S
C441 C442 1.375 . S
C442 C441 1.375 . S
C442 C443 1.415 . S
C442 C444 1.501 . S
C443 H434 0.931 . S
C443 C439 1.382 . S
C443 C442 1.415 . S
C444 C442 1.501 . S
C444 C445 1.384 . S
C444 C449 1.408 . S
C445 H435 0.930 . S
C445 C444 1.384 . S
C445 C446 1.389 . S
C446 C445 1.389 . S
C446 C447 1.405 . S
C447 H436 0.930 . S
C447 C446 1.405 . S
C447 C448 1.364 . S
C448 C447 1.364 . S
C448 C449 1.400 . S
C449 H437 0.931 . S
C449 C444 1.408 . S
C449 C448 1.400 . S
H450 C456 0.954 . S
H451 C459 0.931 . S
H452 C461 0.931 . S
H453 C463 0.930 . S
H454 C465 0.930 . S
H455 C467 0.916 . S
C456 H450 0.954 . S
C456 C457 1.375 . S
C456 C458 1.376 1_545 S
C457 C456 1.375 . S
C457 C461 1.382 . S
C458 C456 1.376 1_565 S
C458 C459 1.400 . S
C459 H451 0.931 . S
C459 C458 1.400 . S
C459 C460 1.375 . S
C460 C459 1.375 . S
C460 C461 1.415 1_565 S
C460 C462 1.501 . S
C461 H452 0.931 . S
C461 C457 1.382 . S
C461 C460 1.415 1_545 S
C462 C460 1.501 . S
C462 C463 1.384 . S
C462 C467 1.397 . S
C463 H453 0.930 . S
C463 C462 1.384 . S
C463 C464 1.389 . S
C464 C463 1.389 . S
C464 C465 1.405 . S
C465 H454 0.930 . S
C465 C464 1.405 . S
C465 C466 1.378 . S
C466 C465 1.378 . S
C466 C467 1.403 . S
C467 H455 0.916 . S
C467 C462 1.397 . S
C467 C466 1.403 . S
H468 C474 0.921 . S
H469 C477 0.931 . S
H470 C479 0.927 1_545 S
H471 C481 0.930 . S
H472 C483 0.948 . S
H473 C485 0.931 . S
C474 H468 0.921 . S
C474 C475 1.381 . S
C474 C476 1.417 1_545 S
C475 C474 1.381 . S
C475 C479 1.396 1_545 S
C476 C474 1.417 1_565 S
C476 C477 1.368 . S
C477 H469 0.931 . S
C477 C476 1.368 . S
C477 C478 1.375 . S
C478 C477 1.375 . S
C478 C479 1.413 . S
C478 C480 1.501 . S
C479 H470 0.927 1_565 S
C479 C475 1.396 1_565 S
C479 C478 1.413 . S
C480 C478 1.501 . S
C480 C481 1.384 . S
C480 C485 1.408 1_565 S
C481 H471 0.930 . S
C481 C480 1.384 . S
C481 C482 1.389 . S
C482 C481 1.389 . S
C482 C483 1.427 . S
C483 H472 0.948 . S
C483 C482 1.427 . S
C483 C484 1.371 1_565 S
C484 C483 1.371 1_545 S
C484 C485 1.400 . S
C485 H473 0.931 . S
C485 C480 1.408 1_545 S
C485 C484 1.400 . S
H486 C492 0.972 . S
H487 C495 0.931 . S
H488 C497 0.932 1_655 S
H489 C499 0.930 . S
H490 C501 0.930 . S
H491 C503 0.931 . S
C492 H486 0.972 . S
C492 C493 1.376 . S
C492 C494 1.367 1_655 S
C493 C492 1.376 . S
C493 C497 1.357 1_655 S
C494 C492 1.367 1_455 S
C494 C495 1.416 . S
C495 H487 0.931 . S
C495 C494 1.416 . S
C495 C496 1.375 . S
C496 C495 1.375 . S
C496 C497 1.413 . S
C496 C498 1.501 . S
C497 H488 0.932 1_455 S
C497 C493 1.357 1_455 S
C497 C496 1.413 . S
C498 C496 1.501 . S
C498 C499 1.384 . S
C498 C503 1.408 1_455 S
C499 H489 0.930 . S
C499 C498 1.384 . S
C499 C500 1.389 . S
C500 C499 1.389 . S
C500 C501 1.405 . S
C501 H490 0.930 . S
C501 C500 1.405 . S
C501 C502 1.364 1_455 S
C502 C501 1.364 1_655 S
C502 C503 1.400 . S
C503 H491 0.931 . S
C503 C498 1.408 1_655 S
C503 C502 1.400 . S
H504 C510 0.930 . S
H505 C513 0.931 . S
H506 C515 0.931 . S
H507 C517 0.930 . S
H508 C519 0.930 . S
H509 C521 0.931 . S
C510 H504 0.930 . S
C510 C511 1.380 . S
C510 C512 1.394 . S
C511 C510 1.380 . S
C511 C515 1.382 . S
C512 C510 1.394 . S
C512 C513 1.400 . S
C513 H505 0.931 . S
C513 C512 1.400 . S
C513 C514 1.375 . S
C514 C513 1.375 . S
C514 C515 1.415 . S
C514 C516 1.501 . S
C515 H506 0.931 . S
C515 C511 1.382 . S
C515 C514 1.415 . S
C516 C514 1.501 . S
C516 C517 1.384 . S
C516 C521 1.408 . S
C517 H507 0.930 . S
C517 C516 1.384 . S
C517 C518 1.389 . S
C518 C517 1.389 . S
C518 C519 1.405 . S
C519 H508 0.930 . S
C519 C518 1.405 . S
C519 C520 1.364 . S
C520 C519 1.364 . S
C520 C521 1.400 . S
C521 H509 0.931 . S
C521 C516 1.408 . S
C521 C520 1.400 . S
H522 C528 0.930 . S
H523 C531 0.931 . S
H524 C533 0.931 . S
H525 C535 0.930 . S
H526 C537 0.930 . S
H527 C539 0.931 . S
C528 H522 0.930 . S
C528 C529 1.380 . S
C528 C530 1.394 . S
C529 C528 1.380 . S
C529 C533 1.382 . S
C530 C528 1.394 . S
C530 C531 1.400 . S
C531 H523 0.931 . S
C531 C530 1.400 . S
C531 C532 1.375 . S
C532 C531 1.375 . S
C532 C533 1.415 . S
C532 C534 1.501 . S
C533 H524 0.931 . S
C533 C529 1.382 . S
C533 C532 1.415 . S
C534 C532 1.501 . S
C534 C535 1.384 . S
C534 C539 1.408 . S
C535 H525 0.930 . S
C535 C534 1.384 . S
C535 C536 1.389 . S
C536 C535 1.389 . S
C536 C537 1.405 . S
C537 H526 0.930 . S
C537 C536 1.405 . S
C537 C538 1.364 . S
C538 C537 1.364 . S
C538 C539 1.400 . S
C539 H527 0.931 . S
C539 C534 1.408 . S
C539 C538 1.400 . S
H540 C546 0.930 . S
H541 C549 0.931 . S
H542 C551 0.931 . S
H543 C553 0.930 . S
H544 C555 0.930 . S
H545 C557 0.931 . S
C546 H540 0.930 . S
C546 C547 1.380 . S
C546 C548 1.394 . S
C547 C546 1.380 . S
C547 C551 1.382 . S
C548 C546 1.394 . S
C548 C549 1.400 . S
C549 H541 0.931 . S
C549 C548 1.400 . S
C549 C550 1.375 . S
C550 C549 1.375 . S
C550 C551 1.415 . S
C550 C552 1.501 . S
C551 H542 0.931 . S
C551 C547 1.382 . S
C551 C550 1.415 . S
C552 C550 1.501 . S
C552 C553 1.384 . S
C552 C557 1.408 . S
C553 H543 0.930 . S
C553 C552 1.384 . S
C553 C554 1.389 . S
C554 C553 1.389 . S
C554 C555 1.405 . S
C555 H544 0.930 . S
C555 C554 1.405 . S
C555 C556 1.364 . S
C556 C555 1.364 . S
C556 C557 1.400 . S
C557 H545 0.931 . S
C557 C552 1.408 . S
C557 C556 1.400 . S
H558 C564 0.930 . S
H559 C567 0.931 . S
H560 C569 0.931 . S
H561 C571 0.930 . S
H562 C573 0.930 . S
H563 C575 0.931 . S
C564 H558 0.930 . S
C564 C565 1.380 . S
C564 C566 1.394 . S
C565 C564 1.380 . S
C565 C569 1.382 . S
C566 C564 1.394 . S
C566 C567 1.400 . S
C567 H559 0.931 . S
C567 C566 1.400 . S
C567 C568 1.375 . S
C568 C567 1.375 . S
C568 C569 1.415 . S
C568 C570 1.501 . S
C569 H560 0.931 . S
C569 C565 1.382 . S
C569 C568 1.415 . S
C570 C568 1.501 . S
C570 C571 1.384 . S
C570 C575 1.408 . S
C571 H561 0.930 . S
C571 C570 1.384 . S
C571 C572 1.389 . S
C572 C571 1.389 . S
C572 C573 1.405 . S
C573 H562 0.930 . S
C573 C572 1.405 . S
C573 C574 1.364 . S
C574 C573 1.364 . S
C574 C575 1.400 . S
C575 H563 0.931 . S
C575 C570 1.408 . S
C575 C574 1.400 . S
H576 C584 0.929 . S
H577 C586 0.930 . S
H578 C588 0.930 . S
H579 C591 0.929 . S
H580 C594 0.930 . S
H581 C596 0.960 . S
H582 C596 0.960 . S
H583 C596 0.960 . S
C584 H576 0.929 . S
C584 C585 1.377 1_455 S
C584 C586 1.384 . S
C585 C584 1.377 1_655 S
C585 C591 1.390 . S
C586 H577 0.930 . S
C586 C584 1.384 . S
C586 C587 1.372 1_455 S
C587 C586 1.372 1_655 S
C587 C588 1.400 . S
C587 C592 1.490 . S
C588 H578 0.930 . S
C588 C587 1.400 . S
C588 C591 1.386 . S
H589 C605 0.930 . S
H590 C606 0.931 . S
C591 H579 0.929 . S
C591 C585 1.390 . S
C591 C588 1.386 . S
C592 C587 1.490 . S
C592 C594 1.395 1_655 S
C592 C595 1.403 . S
H593 C599 0.930 . S
C594 H580 0.930 . S
C594 C592 1.395 1_455 S
C594 C597 1.403 . S
C595 C592 1.403 . S
C595 C596 1.524 . S
C595 C599 1.400 . S
C596 H581 0.960 . S
C596 H582 0.960 . S
C596 H583 0.960 . S
C596 C595 1.524 . S
C597 C594 1.403 . S
C597 C598 1.443 . S
C597 C601 1.495 . S
C598 C597 1.443 . S
C598 C599 1.355 1_455 S
C598 C600 1.469 . S
C599 H593 0.930 . S
C599 C595 1.400 . S
C599 C598 1.355 1_655 S
C600 C598 1.469 . S
C600 C602 1.390 . S
C600 C606 1.359 1_455 S
C601 C597 1.495 . S
C601 H607 0.959 . S
C601 H608 0.961 . S
C601 H609 0.960 . S
C602 C600 1.390 . S
C602 C603 1.394 . S
C602 H610 0.930 . S
C603 C602 1.394 . S
C603 C604 1.383 1_455 S
C603 H611 0.929 . S
C604 C603 1.383 1_655 S
C604 C605 1.377 . S
C605 H589 0.930 . S
C605 C604 1.377 . S
C605 C606 1.379 . S
C606 H590 0.931 . S
C606 C600 1.359 1_655 S
C606 C605 1.379 . S
H607 C601 0.959 . S
H608 C601 0.961 . S
H609 C601 0.960 . S
H610 C602 0.930 . S
H611 C603 0.929 . S
H612 C620 0.929 . S
H613 C622 0.930 . S
H614 C624 0.930 . S
H615 C627 0.929 . S
H616 C630 0.930 . S
H617 C632 0.960 . S
H618 C632 0.960 . S
H619 C632 0.960 . S
C620 H612 0.929 . S
C620 C621 1.377 . S
C620 C622 1.384 . S
C621 C620 1.377 . S
C621 C627 1.390 . S
C622 H613 0.930 . S
C622 C620 1.384 . S
C622 C623 1.372 . S
C623 C622 1.372 . S
C623 C624 1.400 . S
C623 C628 1.490 . S
C624 H614 0.930 . S
C624 C623 1.400 . S
C624 C627 1.386 . S
H625 C641 0.930 . S
H626 C642 0.931 . S
C627 H615 0.929 . S
C627 C621 1.390 . S
C627 C624 1.386 . S
C628 C623 1.490 . S
C628 C630 1.395 . S
C628 C631 1.403 . S
H629 C635 0.930 . S
C630 H616 0.930 . S
C630 C628 1.395 . S
C630 C633 1.403 . S
C631 C628 1.403 . S
C631 C632 1.524 . S
C631 C635 1.400 . S
C632 H617 0.960 . S
C632 H618 0.960 . S
C632 H619 0.960 . S
C632 C631 1.524 . S
C633 C630 1.403 . S
C633 C634 1.392 . S
C633 C637 1.495 . S
C634 C633 1.392 . S
C634 C635 1.385 . S
C634 C636 1.478 . S
C635 H629 0.930 . S
C635 C631 1.400 . S
C635 C634 1.385 . S
C636 C634 1.478 . S
C636 C638 1.381 . S
C636 C642 1.383 . S
C637 C633 1.495 . S
C637 H643 0.959 . S
C637 H644 0.961 . S
C637 H645 0.960 . S
C638 C636 1.381 . S
C638 C639 1.394 . S
C638 H646 0.930 . S
C639 C638 1.394 . S
C639 C640 1.383 . S
C639 H647 0.929 . S
C640 C639 1.383 . S
C640 C641 1.377 . S
C641 H625 0.930 . S
C641 C640 1.377 . S
C641 C642 1.379 . S
C642 H626 0.931 . S
C642 C636 1.383 . S
C642 C641 1.379 . S
H643 C637 0.959 . S
H644 C637 0.961 . S
H645 C637 0.960 . S
H646 C638 0.930 . S
H647 C639 0.929 . S
H648 C656 0.929 . S
H649 C658 0.930 . S
H650 C660 0.930 . S
H651 C663 0.929 . S
H652 C666 0.930 . S
H653 C668 0.960 . S
H654 C668 0.960 . S
H655 C668 0.960 . S
C656 H648 0.929 . S
C656 C657 1.377 1_565 S
C656 C658 1.384 . S
C657 C656 1.377 1_545 S
C657 C663 1.390 . S
C658 H649 0.930 . S
C658 C656 1.384 . S
C658 C659 1.372 1_565 S
C659 C658 1.372 1_545 S
C659 C660 1.400 . S
C659 C664 1.490 . S
C660 H650 0.930 . S
C660 C659 1.400 . S
C660 C663 1.386 . S
H661 C677 0.930 . S
H662 C678 0.931 . S
C663 H651 0.929 . S
C663 C657 1.390 . S
C663 C660 1.386 . S
C664 C659 1.490 . S
C664 C666 1.395 1_545 S
C664 C667 1.403 . S
H665 C671 0.930 . S
C666 H652 0.930 . S
C666 C664 1.395 1_565 S
C666 C669 1.403 . S
C667 C664 1.403 . S
C667 C668 1.524 . S
C667 C671 1.400 . S
C668 H653 0.960 . S
C668 H654 0.960 . S
C668 H655 0.960 . S
C668 C667 1.524 . S
C669 C666 1.403 . S
C669 C670 1.392 1_565 S
C669 C673 1.495 . S
C670 C669 1.392 1_545 S
C670 C671 1.385 . S
C670 C672 1.478 . S
C671 H665 0.930 . S
C671 C667 1.400 . S
C671 C670 1.385 . S
C672 C670 1.478 . S
C672 C674 1.381 1_545 S
C672 C678 1.383 . S
C673 C669 1.495 . S
C673 H679 0.959 . S
C673 H680 0.961 . S
C673 H681 0.960 . S
C674 C672 1.381 1_565 S
C674 C675 1.394 . S
C674 H682 0.930 . S
C675 C674 1.394 . S
C675 C676 1.383 1_565 S
C675 H683 0.929 . S
C676 C675 1.383 1_545 S
C676 C677 1.377 . S
C677 H661 0.930 . S
C677 C676 1.377 . S
C677 C678 1.379 . S
C678 H662 0.931 . S
C678 C672 1.383 . S
C678 C677 1.379 . S
H679 C673 0.959 . S
H680 C673 0.961 . S
H681 C673 0.960 . S
H682 C674 0.930 . S
H683 C675 0.929 . S
H684 C692 0.929 . S
H685 C694 0.930 . S
H686 C696 0.930 . S
H687 C699 0.929 . S
H688 C702 0.930 . S
H689 C704 0.960 . S
H690 C704 0.960 . S
H691 C704 0.960 . S
C692 H684 0.929 . S
C692 C693 1.377 1_565 S
C692 C694 1.384 . S
C693 C692 1.377 1_545 S
C693 C699 1.390 . S
C694 H685 0.930 . S
C694 C692 1.384 . S
C694 C695 1.407 . S
C695 C694 1.407 . S
C695 C696 1.337 1_565 S
C695 C700 1.518 . S
C696 H686 0.930 . S
C696 C695 1.337 1_545 S
C696 C699 1.386 . S
H697 C713 0.930 . S
H698 C714 0.931 . S
C699 H687 0.929 . S
C699 C693 1.390 . S
C699 C696 1.386 . S
C700 C695 1.518 . S
C700 C702 1.395 . S
C700 C703 1.403 1_565 S
H701 C707 0.930 . S
C702 H688 0.930 . S
C702 C700 1.395 . S
C702 C705 1.403 . S
C703 C700 1.403 1_545 S
C703 C704 1.524 . S
C703 C707 1.400 . S
C704 H689 0.960 . S
C704 H690 0.960 . S
C704 H691 0.960 . S
C704 C703 1.524 . S
C705 C702 1.403 . S
C705 C706 1.392 . S
C705 C709 1.495 . S
C706 C705 1.392 . S
C706 C707 1.385 1_565 S
C706 C708 1.478 . S
C707 H701 0.930 . S
C707 C703 1.400 . S
C707 C706 1.385 1_545 S
C708 C706 1.478 . S
C708 C710 1.381 . S
C708 C714 1.383 1_565 S
C709 C705 1.495 . S
C709 H715 0.959 . S
C709 H716 0.961 . S
C709 H717 0.960 . S
C710 C708 1.381 . S
C710 C711 1.394 . S
C710 H718 0.930 . S
C711 C710 1.394 . S
C711 C712 1.383 . S
C711 H719 0.929 . S
C712 C711 1.383 . S
C712 C713 1.377 1_565 S
C713 H697 0.930 . S
C713 C712 1.377 1_545 S
C713 C714 1.379 . S
C714 H698 0.931 . S
C714 C708 1.383 1_545 S
C714 C713 1.379 . S
H715 C709 0.959 . S
H716 C709 0.961 . S
H717 C709 0.960 . S
H718 C710 0.930 . S
H719 C711 0.929 . S
H720 C728 0.929 . S
H721 C730 0.930 . S
H722 C732 0.930 . S
H723 C735 0.929 . S
H724 C738 0.930 . S
H725 C740 0.960 . S
H726 C740 0.960 . S
H727 C740 0.960 . S
C728 H720 0.929 . S
C728 C729 1.377 1_655 S
C728 C730 1.384 . S
C729 C728 1.377 1_455 S
C729 C735 1.390 . S
C730 H721 0.930 . S
C730 C728 1.384 . S
C730 C731 1.372 1_655 S
C731 C730 1.372 1_455 S
C731 C732 1.400 . S
C731 C736 1.490 . S
C732 H722 0.930 . S
C732 C731 1.400 . S
C732 C735 1.386 . S
H733 C749 0.930 . S
H734 C750 0.931 . S
C735 H723 0.929 . S
C735 C729 1.390 . S
C735 C732 1.386 . S
C736 C731 1.490 . S
C736 C738 1.395 1_455 S
C736 C739 1.403 . S
H737 C743 0.930 . S
C738 H724 0.930 . S
C738 C736 1.395 1_655 S
C738 C741 1.403 . S
C739 C736 1.403 . S
C739 C740 1.524 . S
C739 C743 1.400 . S
C740 H725 0.960 . S
C740 H726 0.960 . S
C740 H727 0.960 . S
C740 C739 1.524 . S
C741 C738 1.403 . S
C741 C742 1.358 1_655 S
C741 C745 1.495 . S
C742 C741 1.358 1_455 S
C742 C743 1.451 . S
C742 C744 1.452 . S
C743 H737 0.930 . S
C743 C739 1.400 . S
C743 C742 1.451 . S
C744 C742 1.452 . S
C744 C746 1.381 1_455 S
C744 C750 1.383 . S
C745 C741 1.495 . S
C745 H751 0.959 . S
C745 H752 0.961 . S
C745 H753 0.960 . S
C746 C744 1.381 1_655 S
C746 C747 1.394 . S
C746 H754 0.930 . S
C747 C746 1.394 . S
C747 C748 1.383 1_655 S
C747 H755 0.929 . S
C748 C747 1.383 1_455 S
C748 C749 1.377 . S
C749 H733 0.930 . S
C749 C748 1.377 . S
C749 C750 1.379 . S
C750 H734 0.931 . S
C750 C744 1.383 . S
C750 C749 1.379 . S
H751 C745 0.959 . S
H752 C745 0.961 . S
H753 C745 0.960 . S
H754 C746 0.930 . S
H755 C747 0.929 . S
H756 C764 0.929 . S
H757 C766 0.930 . S
H758 C768 0.930 . S
H759 C771 0.929 . S
H760 C774 0.930 . S
H761 C776 0.960 . S
H762 C776 0.960 . S
H763 C776 0.960 . S
C764 H756 0.929 . S
C764 C765 1.377 . S
C764 C766 1.384 . S
C765 C764 1.377 . S
C765 C771 1.390 . S
C766 H757 0.930 . S
C766 C764 1.384 . S
C766 C767 1.372 . S
C767 C766 1.372 . S
C767 C768 1.400 . S
C767 C772 1.490 . S
C768 H758 0.930 . S
C768 C767 1.400 . S
C768 C771 1.386 . S
H769 C785 0.930 . S
H770 C786 0.931 . S
C771 H759 0.929 . S
C771 C765 1.390 . S
C771 C768 1.386 . S
C772 C767 1.490 . S
C772 C774 1.395 . S
C772 C775 1.403 . S
H773 C779 0.930 . S
C774 H760 0.930 . S
C774 C772 1.395 . S
C774 C777 1.403 . S
C775 C772 1.403 . S
C775 C776 1.524 . S
C775 C779 1.400 . S
C776 H761 0.960 . S
C776 H762 0.960 . S
C776 H763 0.960 . S
C776 C775 1.524 . S
C777 C774 1.403 . S
C777 C778 1.392 . S
C777 C781 1.495 . S
C778 C777 1.392 . S
C778 C779 1.385 . S
C778 C780 1.478 . S
C779 H773 0.930 . S
C779 C775 1.400 . S
C779 C778 1.385 . S
C780 C778 1.478 . S
C780 C782 1.381 . S
C780 C786 1.383 . S
C781 C777 1.495 . S
C781 H787 0.959 . S
C781 H788 0.961 . S
C781 H789 0.960 . S
C782 C780 1.381 . S
C782 C783 1.394 . S
C782 H790 0.930 . S
C783 C782 1.394 . S
C783 C784 1.383 . S
C783 H791 0.929 . S
C784 C783 1.383 . S
C784 C785 1.377 . S
C785 H769 0.930 . S
C785 C784 1.377 . S
C785 C786 1.379 . S
C786 H770 0.931 . S
C786 C780 1.383 . S
C786 C785 1.379 . S
H787 C781 0.959 . S
H788 C781 0.961 . S
H789 C781 0.960 . S
H790 C782 0.930 . S
H791 C783 0.929 . S
H792 C800 0.929 . S
H793 C802 0.930 . S
H794 C804 0.930 . S
H795 C807 0.929 . S
H796 C810 0.930 . S
H797 C812 0.960 . S
H798 C812 0.960 . S
H799 C812 0.960 . S
C800 H792 0.929 . S
C800 C801 1.377 . S
C800 C802 1.384 . S
C801 C800 1.377 . S
C801 C807 1.390 1_455 S
C802 H793 0.930 . S
C802 C800 1.384 . S
C802 C803 1.372 . S
C803 C802 1.372 . S
C803 C804 1.400 1_455 S
C803 C808 1.490 . S
C804 H794 0.930 . S
C804 C803 1.400 1_655 S
C804 C807 1.386 . S
H805 C821 0.930 . S
H806 C822 0.931 . S
C807 H795 0.929 . S
C807 C801 1.390 1_655 S
C807 C804 1.386 . S
C808 C803 1.490 . S
C808 C810 1.395 . S
C808 C811 1.403 1_455 S
H809 C815 0.930 . S
C810 H796 0.930 . S
C810 C808 1.395 . S
C810 C813 1.403 . S
C811 C808 1.403 1_655 S
C811 C812 1.524 . S
C811 C815 1.400 . S
C812 H797 0.960 . S
C812 H798 0.960 . S
C812 H799 0.960 . S
C812 C811 1.524 . S
C813 C810 1.403 . S
C813 C814 1.392 . S
C813 C817 1.495 . S
C814 C813 1.392 . S
C814 C815 1.385 1_455 S
C814 C816 1.478 . S
C815 H809 0.930 . S
C815 C811 1.400 . S
C815 C814 1.385 1_655 S
C816 C814 1.478 . S
C816 C818 1.381 . S
C816 C822 1.383 1_455 S
C817 C813 1.495 . S
C817 H823 0.959 . S
C817 H824 0.961 . S
C817 H825 0.960 . S
C818 C816 1.381 . S
C818 C819 1.394 . S
C818 H826 0.930 . S
C819 C818 1.394 . S
C819 C820 1.393 . S
C819 H827 0.929 . S
C820 C819 1.393 . S
C820 C821 1.358 1_455 S
C821 H805 0.930 . S
C821 C820 1.358 1_655 S
C821 C822 1.379 . S
C822 H806 0.931 . S
C822 C816 1.383 1_655 S
C822 C821 1.379 . S
H823 C817 0.959 . S
H824 C817 0.961 . S
H825 C817 0.960 . S
H826 C818 0.930 . S
H827 C819 0.929 . S
H828 C836 0.929 . S
H829 C838 0.930 . S
H830 C840 0.930 . S
H831 C843 0.929 . S
H832 C846 0.930 . S
H833 C848 0.960 . S
H834 C848 0.960 . S
H835 C848 0.960 . S
C836 H828 0.929 . S
C836 C837 1.377 . S
C836 C838 1.384 . S
C837 C836 1.377 . S
C837 C843 1.390 . S
C838 H829 0.930 . S
C838 C836 1.384 . S
C838 C839 1.372 . S
C839 C838 1.372 . S
C839 C840 1.400 . S
C839 C844 1.490 . S
C840 H830 0.930 . S
C840 C839 1.400 . S
C840 C843 1.386 . S
H841 C857 0.930 . S
H842 C858 0.931 . S
C843 H831 0.929 . S
C843 C837 1.390 . S
C843 C840 1.386 . S
C844 C839 1.490 . S
C844 C846 1.395 . S
C844 C847 1.403 . S
H845 C851 0.930 . S
C846 H832 0.930 . S
C846 C844 1.395 . S
C846 C849 1.403 . S
C847 C844 1.403 . S
C847 C848 1.524 . S
C847 C851 1.400 . S
C848 H833 0.960 . S
C848 H834 0.960 . S
C848 H835 0.960 . S
C848 C847 1.524 . S
C849 C846 1.403 . S
C849 C850 1.392 . S
C849 C853 1.495 . S
C850 C849 1.392 . S
C850 C851 1.385 . S
C850 C852 1.478 . S
C851 H845 0.930 . S
C851 C847 1.400 . S
C851 C850 1.385 . S
C852 C850 1.478 . S
C852 C854 1.381 . S
C852 C858 1.383 . S
C853 C849 1.495 . S
C853 H859 0.959 . S
C853 H860 0.961 . S
C853 H861 0.960 . S
C854 C852 1.381 . S
C854 C855 1.394 . S
C854 H862 0.930 . S
C855 C854 1.394 . S
C855 C856 1.383 . S
C855 H863 0.929 . S
C856 C855 1.383 . S
C856 C857 1.377 . S
C857 H841 0.930 . S
C857 C856 1.377 . S
C857 C858 1.379 . S
C858 H842 0.931 . S
C858 C852 1.383 . S
C858 C857 1.379 . S
H859 C853 0.959 . S
H860 C853 0.961 . S
H861 C853 0.960 . S
H862 C854 0.930 . S
H863 C855 0.929 . S
H864 C872 0.929 . S
H865 C874 0.930 . S
H866 C876 0.930 . S
H867 C879 0.929 . S
H868 C882 0.930 . S
H869 C884 0.960 . S
H870 C884 0.960 . S
H871 C884 0.960 . S
C872 H864 0.929 . S
C872 C873 1.377 . S
C872 C874 1.384 . S
C873 C872 1.377 . S
C873 C879 1.390 1_565 S
C874 H865 0.930 . S
C874 C872 1.384 . S
C874 C875 1.372 . S
C875 C874 1.372 . S
C875 C876 1.400 1_565 S
C875 C880 1.490 . S
C876 H866 0.930 . S
C876 C875 1.400 1_545 S
C876 C879 1.386 . S
H877 C893 0.930 . S
H878 C894 0.931 . S
C879 H867 0.929 . S
C879 C873 1.390 1_545 S
C879 C876 1.386 . S
C880 C875 1.490 . S
C880 C882 1.395 . S
C880 C883 1.403 1_565 S
H881 C887 0.930 . S
C882 H868 0.930 . S
C882 C880 1.395 . S
C882 C885 1.403 . S
C883 C880 1.403 1_545 S
C883 C884 1.524 . S
C883 C887 1.400 . S
C884 H869 0.960 . S
C884 H870 0.960 . S
C884 H871 0.960 . S
C884 C883 1.524 . S
C885 C882 1.403 . S
C885 C886 1.392 . S
C885 C889 1.495 . S
C886 C885 1.392 . S
C886 C887 1.385 1_565 S
C886 C888 1.478 . S
C887 H881 0.930 . S
C887 C883 1.400 . S
C887 C886 1.385 1_545 S
C888 C886 1.478 . S
C888 C890 1.381 . S
C888 C894 1.383 1_565 S
C889 C885 1.495 . S
C889 H895 0.959 . S
C889 H896 0.961 . S
C889 H897 0.960 . S
C890 C888 1.381 . S
C890 C891 1.394 . S
C890 H898 0.930 . S
C891 C890 1.394 . S
C891 C892 1.435 . S
C891 H899 0.929 . S
C892 C891 1.435 . S
C892 C893 1.353 1_565 S
C893 H877 0.930 . S
C893 C892 1.353 1_545 S
C893 C894 1.379 . S
C894 H878 0.931 . S
C894 C888 1.383 1_545 S
C894 C893 1.379 . S
H895 C889 0.959 . S
H896 C889 0.961 . S
H897 C889 0.960 . S
H898 C890 0.930 . S
H899 C891 0.929 . S
H900 C908 0.929 . S
H901 C910 0.930 . S
H902 C912 0.930 . S
H903 C915 0.929 . S
H904 C918 0.930 . S
H905 C920 0.960 . S
H906 C920 0.960 . S
H907 C920 0.960 . S
C908 H900 0.929 . S
C908 C909 1.377 . S
C908 C910 1.384 . S
C909 C908 1.377 . S
C909 C915 1.390 1_545 S
C910 H901 0.930 . S
C910 C908 1.384 . S
C910 C911 1.372 . S
C911 C910 1.372 . S
C911 C912 1.400 1_545 S
C911 C916 1.490 . S
C912 H902 0.930 . S
C912 C911 1.400 1_565 S
C912 C915 1.386 . S
H913 C929 0.930 . S
H914 C930 0.931 . S
C915 H903 0.929 . S
C915 C909 1.390 1_565 S
C915 C912 1.386 . S
C916 C911 1.490 . S
C916 C918 1.395 1_545 S
C916 C919 1.403 . S
H917 C923 0.930 . S
C918 H904 0.930 . S
C918 C916 1.395 1_565 S
C918 C921 1.403 . S
C919 C916 1.403 . S
C919 C920 1.524 . S
C919 C923 1.400 . S
C920 H905 0.960 . S
C920 H906 0.960 . S
C920 H907 0.960 . S
C920 C919 1.524 . S
C921 C918 1.403 . S
C921 C922 1.391 1_565 S
C921 C925 1.495 . S
C922 C921 1.391 1_545 S
C922 C923 1.376 . S
C922 C924 1.499 1_545 S
C923 H917 0.930 . S
C923 C919 1.400 . S
C923 C922 1.376 . S
C924 C922 1.499 1_565 S
C924 C926 1.355 1_565 S
C924 C930 1.399 . S
C925 C921 1.495 . S
C925 H931 0.959 . S
C925 H932 0.961 . S
C925 H933 0.960 1_565 S
C926 C924 1.355 1_545 S
C926 C927 1.394 . S
C926 H934 0.930 . S
C927 C926 1.394 . S
C927 C928 1.344 1_545 S
C927 H935 0.929 . S
C928 C927 1.344 1_565 S
C928 C929 1.441 . S
C929 H913 0.930 . S
C929 C928 1.441 . S
C929 C930 1.379 . S
C930 H914 0.931 . S
C930 C924 1.399 . S
C930 C929 1.379 . S
H931 C925 0.959 . S
H932 C925 0.961 . S
H933 C925 0.960 1_545 S
H934 C926 0.930 . S
H935 C927 0.929 . S
H936 C944 0.929 . S
H937 C946 0.930 . S
H938 C948 0.930 . S
H939 C951 0.929 . S
H940 C954 0.930 . S
H941 C956 0.960 . S
H942 C956 0.960 . S
H943 C956 0.960 . S
C944 H936 0.929 . S
C944 C945 1.377 1_455 S
C944 C946 1.384 . S
C945 C944 1.377 1_655 S
C945 C951 1.390 . S
C946 H937 0.930 . S
C946 C944 1.384 . S
C946 C947 1.368 1_455 S
C947 C946 1.368 1_655 S
C947 C948 1.407 . S
C947 C952 1.469 1_655 S
C948 H938 0.930 . S
C948 C947 1.407 . S
C948 C951 1.386 . S
H949 C965 0.930 . S
H950 C966 0.931 . S
C951 H939 0.929 . S
C951 C945 1.390 . S
C951 C948 1.386 . S
C952 C947 1.469 1_455 S
C952 C954 1.429 . S
C952 C955 1.389 1_455 S
H953 C959 0.930 . S
C954 H940 0.930 . S
C954 C952 1.429 . S
C954 C957 1.403 . S
C955 C952 1.389 1_655 S
C955 C956 1.524 . S
C955 C959 1.400 . S
C956 H941 0.960 . S
C956 H942 0.960 . S
C956 H943 0.960 . S
C956 C955 1.524 . S
C957 C954 1.403 . S
C957 C958 1.392 . S
C957 C961 1.495 . S
C958 C957 1.392 . S
C958 C959 1.385 1_455 S
C958 C960 1.478 . S
C959 H953 0.930 . S
C959 C955 1.400 . S
C959 C958 1.385 1_655 S
C960 C958 1.478 . S
C960 C962 1.381 . S
C960 C966 1.383 1_455 S
C961 C957 1.495 . S
C961 H967 0.959 . S
C961 H968 0.961 . S
C961 H969 0.960 . S
C962 C960 1.381 . S
C962 C963 1.394 . S
C962 H970 0.930 . S
C963 C962 1.394 . S
C963 C964 1.383 . S
C963 H971 0.929 . S
C964 C963 1.383 . S
C964 C965 1.377 1_455 S
C965 H949 0.930 . S
C965 C964 1.377 1_655 S
C965 C966 1.379 . S
C966 H950 0.931 . S
C966 C960 1.383 1_655 S
C966 C965 1.379 . S
H967 C961 0.959 . S
H968 C961 0.961 . S
H969 C961 0.960 . S
H970 C962 0.930 . S
H971 C963 0.929 . S
H972 C980 0.929 . S
H973 C982 0.930 . S
H974 C984 0.930 . S
H975 C987 0.929 . S
H976 C990 0.930 . S
H977 C992 0.960 . S
H978 C992 0.960 . S
H979 C992 0.960 . S
C980 H972 0.929 . S
C980 C981 1.377 . S
C980 C982 1.384 . S
C981 C980 1.377 . S
C981 C987 1.390 . S
C982 H973 0.930 . S
C982 C980 1.384 . S
C982 C983 1.372 . S
C983 C982 1.372 . S
C983 C984 1.400 . S
C983 C988 1.490 . S
C984 H974 0.930 . S
C984 C983 1.400 . S
C984 C987 1.386 . S
H985 C1001 0.930 . S
H986 C1002 0.931 . S
C987 H975 0.929 . S
C987 C981 1.390 . S
C987 C984 1.386 . S
C988 C983 1.490 . S
C988 C990 1.395 . S
C988 C991 1.403 . S
H989 C995 0.930 . S
C990 H976 0.930 . S
C990 C988 1.395 . S
C990 C993 1.403 . S
C991 C988 1.403 . S
C991 C992 1.524 . S
C991 C995 1.400 . S
C992 H977 0.960 . S
C992 H978 0.960 . S
C992 H979 0.960 . S
C992 C991 1.524 . S
C993 C990 1.403 . S
C993 C994 1.392 . S
C993 C997 1.495 . S
C994 C993 1.392 . S
C994 C995 1.385 . S
C994 C996 1.478 . S
C995 H989 0.930 . S
C995 C991 1.400 . S
C995 C994 1.385 . S
C996 C994 1.478 . S
C996 C998 1.381 . S
C996 C1002 1.383 . S
C997 C993 1.495 . S
C997 H1003 0.959 . S
C997 H1004 0.961 . S
C997 H1005 0.960 . S
C998 C996 1.381 . S
C998 C999 1.394 . S
C998 H1006 0.930 . S
C999 C998 1.394 . S
C999 C1000 1.383 . S
C999 H1007 0.929 . S
C1000 C999 1.383 . S
C1000 C1001 1.377 . S
C1001 H985 0.930 . S
C1001 C1000 1.377 . S
C1001 C1002 1.379 . S
C1002 H986 0.931 . S
C1002 C996 1.383 . S
C1002 C1001 1.379 . S
H1003 C997 0.959 . S
H1004 C997 0.961 . S
H1005 C997 0.960 . S
H1006 C998 0.930 . S
H1007 C999 0.929 . S
H1008 C1016 0.929 . S
H1009 C1018 0.930 . S
H1010 C1020 0.930 . S
H1011 C1023 0.929 . S
H1012 C1026 0.930 . S
H1013 C1028 0.960 . S
H1014 C1028 0.960 . S
H1015 C1028 0.960 . S
C1016 H1008 0.929 . S
C1016 C1017 1.377 . S
C1016 C1018 1.384 . S
C1017 C1016 1.377 . S
C1017 C1023 1.390 . S
C1018 H1009 0.930 . S
C1018 C1016 1.384 . S
C1018 C1019 1.372 . S
C1019 C1018 1.372 . S
C1019 C1020 1.400 . S
C1019 C1024 1.490 . S
C1020 H1010 0.930 . S
C1020 C1019 1.400 . S
C1020 C1023 1.386 . S
H1021 C1037 0.930 . S
H1022 C1038 0.931 . S
C1023 H1011 0.929 . S
C1023 C1017 1.390 . S
C1023 C1020 1.386 . S
C1024 C1019 1.490 . S
C1024 C1026 1.395 . S
C1024 C1027 1.403 . S
H1025 C1031 0.930 . S
C1026 H1012 0.930 . S
C1026 C1024 1.395 . S
C1026 C1029 1.403 . S
C1027 C1024 1.403 . S
C1027 C1028 1.524 . S
C1027 C1031 1.400 . S
C1028 H1013 0.960 . S
C1028 H1014 0.960 . S
C1028 H1015 0.960 . S
C1028 C1027 1.524 . S
C1029 C1026 1.403 . S
C1029 C1030 1.392 . S
C1029 C1033 1.495 . S
C1030 C1029 1.392 . S
C1030 C1031 1.385 . S
C1030 C1032 1.478 . S
C1031 H1025 0.930 . S
C1031 C1027 1.400 . S
C1031 C1030 1.385 . S
C1032 C1030 1.478 . S
C1032 C1034 1.381 . S
C1032 C1038 1.383 . S
C1033 C1029 1.495 . S
C1033 H1039 0.959 . S
C1033 H1040 0.961 . S
C1033 H1041 0.960 . S
C1034 C1032 1.381 . S
C1034 C1035 1.394 . S
C1034 H1042 0.930 . S
C1035 C1034 1.394 . S
C1035 C1036 1.383 . S
C1035 H1043 0.929 . S
C1036 C1035 1.383 . S
C1036 C1037 1.377 . S
C1037 H1021 0.930 . S
C1037 C1036 1.377 . S
C1037 C1038 1.379 . S
C1038 H1022 0.931 . S
C1038 C1032 1.383 . S
C1038 C1037 1.379 . S
H1039 C1033 0.959 . S
H1040 C1033 0.961 . S
H1041 C1033 0.960 . S
H1042 C1034 0.930 . S
H1043 C1035 0.929 . S
H1044 C1052 0.929 . S
H1045 C1054 0.930 . S
H1046 C1056 0.930 . S
H1047 C1059 0.929 . S
H1048 C1062 0.930 . S
H1049 C1064 0.960 . S
H1050 C1064 0.960 . S
H1051 C1064 0.960 . S
C1052 H1044 0.929 . S
C1052 C1053 1.377 . S
C1052 C1054 1.384 . S
C1053 C1052 1.377 . S
C1053 C1059 1.390 . S
C1054 H1045 0.930 . S
C1054 C1052 1.384 . S
C1054 C1055 1.372 . S
C1055 C1054 1.372 . S
C1055 C1056 1.400 . S
C1055 C1060 1.490 . S
C1056 H1046 0.930 . S
C1056 C1055 1.400 . S
C1056 C1059 1.386 . S
H1057 C1073 0.930 . S
H1058 C1074 0.931 . S
C1059 H1047 0.929 . S
C1059 C1053 1.390 . S
C1059 C1056 1.386 . S
C1060 C1055 1.490 . S
C1060 C1062 1.395 . S
C1060 C1063 1.403 . S
H1061 C1067 0.930 . S
C1062 H1048 0.930 . S
C1062 C1060 1.395 . S
C1062 C1065 1.403 . S
C1063 C1060 1.403 . S
C1063 C1064 1.524 . S
C1063 C1067 1.400 . S
C1064 H1049 0.960 . S
C1064 H1050 0.960 . S
C1064 H1051 0.960 . S
C1064 C1063 1.524 . S
C1065 C1062 1.403 . S
C1065 C1066 1.392 . S
C1065 C1069 1.495 . S
C1066 C1065 1.392 . S
C1066 C1067 1.385 . S
C1066 C1068 1.478 . S
C1067 H1061 0.930 . S
C1067 C1063 1.400 . S
C1067 C1066 1.385 . S
C1068 C1066 1.478 . S
C1068 C1070 1.381 . S
C1068 C1074 1.383 . S
C1069 C1065 1.495 . S
C1069 H1075 0.959 . S
C1069 H1076 0.961 . S
C1069 H1077 0.960 . S
C1070 C1068 1.381 . S
C1070 C1071 1.394 . S
C1070 H1078 0.930 . S
C1071 C1070 1.394 . S
C1071 C1072 1.383 . S
C1071 H1079 0.929 . S
C1072 C1071 1.383 . S
C1072 C1073 1.377 . S
C1073 H1057 0.930 . S
C1073 C1072 1.377 . S
C1073 C1074 1.379 . S
C1074 H1058 0.931 . S
C1074 C1068 1.383 . S
C1074 C1073 1.379 . S
H1075 C1069 0.959 . S
H1076 C1069 0.961 . S
H1077 C1069 0.960 . S
H1078 C1070 0.930 . S
H1079 C1071 0.929 . S
H1080 C1088 0.929 . S
H1081 C1090 0.930 . S
H1082 C1092 0.930 . S
H1083 C1095 0.929 . S
H1084 C1098 0.930 . S
H1085 C1100 0.960 . S
H1086 C1100 0.960 . S
H1087 C1100 0.960 . S
C1088 H1080 0.929 . S
C1088 C1089 1.377 . S
C1088 C1090 1.384 . S
C1089 C1088 1.377 . S
C1089 C1095 1.390 . S
C1090 H1081 0.930 . S
C1090 C1088 1.384 . S
C1090 C1091 1.372 . S
C1091 C1090 1.372 . S
C1091 C1092 1.400 . S
C1091 C1096 1.490 . S
C1092 H1082 0.930 . S
C1092 C1091 1.400 . S
C1092 C1095 1.386 . S
H1093 C1109 0.930 . S
H1094 C1110 0.931 . S
C1095 H1083 0.929 . S
C1095 C1089 1.390 . S
C1095 C1092 1.386 . S
C1096 C1091 1.490 . S
C1096 C1098 1.395 . S
C1096 C1099 1.403 . S
H1097 C1103 0.930 . S
C1098 H1084 0.930 . S
C1098 C1096 1.395 . S
C1098 C1101 1.403 . S
C1099 C1096 1.403 . S
C1099 C1100 1.524 . S
C1099 C1103 1.400 . S
C1100 H1085 0.960 . S
C1100 H1086 0.960 . S
C1100 H1087 0.960 . S
C1100 C1099 1.524 . S
C1101 C1098 1.403 . S
C1101 C1102 1.392 . S
C1101 C1105 1.495 . S
C1102 C1101 1.392 . S
C1102 C1103 1.385 . S
C1102 C1104 1.478 . S
C1103 H1097 0.930 . S
C1103 C1099 1.400 . S
C1103 C1102 1.385 . S
C1104 C1102 1.478 . S
C1104 C1106 1.381 . S
C1104 C1110 1.383 . S
C1105 C1101 1.495 . S
C1105 H1111 0.959 . S
C1105 H1112 0.961 . S
C1105 H1113 0.960 . S
C1106 C1104 1.381 . S
C1106 C1107 1.394 . S
C1106 H1114 0.930 . S
C1107 C1106 1.394 . S
C1107 C1108 1.383 . S
C1107 H1115 0.929 . S
C1108 C1107 1.383 . S
C1108 C1109 1.377 . S
C1109 H1093 0.930 . S
C1109 C1108 1.377 . S
C1109 C1110 1.379 . S
C1110 H1094 0.931 . S
C1110 C1104 1.383 . S
C1110 C1109 1.379 . S
H1111 C1105 0.959 . S
H1112 C1105 0.961 . S
H1113 C1105 0.960 . S
H1114 C1106 0.930 . S
H1115 C1107 0.929 . S
H1116 C1124 0.929 . S
H1117 C1126 0.930 . S
H1118 C1128 0.930 . S
H1119 C1131 0.929 . S
H1120 C1134 0.930 . S
H1121 C1136 0.960 . S
H1122 C1136 0.960 . S
H1123 C1136 0.960 . S
C1124 H1116 0.929 . S
C1124 C1125 1.377 . S
C1124 C1126 1.384 . S
C1125 C1124 1.377 . S
C1125 C1131 1.390 . S
C1126 H1117 0.930 . S
C1126 C1124 1.384 . S
C1126 C1127 1.372 . S
C1127 C1126 1.372 . S
C1127 C1128 1.400 . S
C1127 C1132 1.490 . S
C1128 H1118 0.930 . S
C1128 C1127 1.400 . S
C1128 C1131 1.386 . S
H1129 C1145 0.930 . S
H1130 C1146 0.931 . S
C1131 H1119 0.929 . S
C1131 C1125 1.390 . S
C1131 C1128 1.386 . S
C1132 C1127 1.490 . S
C1132 C1134 1.395 . S
C1132 C1135 1.403 . S
H1133 C1139 0.930 . S
C1134 H1120 0.930 . S
C1134 C1132 1.395 . S
C1134 C1137 1.403 . S
C1135 C1132 1.403 . S
C1135 C1136 1.524 . S
C1135 C1139 1.400 . S
C1136 H1121 0.960 . S
C1136 H1122 0.960 . S
C1136 H1123 0.960 . S
C1136 C1135 1.524 . S
C1137 C1134 1.403 . S
C1137 C1138 1.392 . S
C1137 C1141 1.495 . S
C1138 C1137 1.392 . S
C1138 C1139 1.385 . S
C1138 C1140 1.478 . S
C1139 H1133 0.930 . S
C1139 C1135 1.400 . S
C1139 C1138 1.385 . S
C1140 C1138 1.478 . S
C1140 C1142 1.381 . S
C1140 C1146 1.383 . S
C1141 C1137 1.495 . S
C1141 H1147 0.959 . S
C1141 H1148 0.961 . S
C1141 H1149 0.960 . S
C1142 C1140 1.381 . S
C1142 C1143 1.394 . S
C1142 H1150 0.930 . S
C1143 C1142 1.394 . S
C1143 C1144 1.383 . S
C1143 H1151 0.929 . S
C1144 C1143 1.383 . S
C1144 C1145 1.377 . S
C1145 H1129 0.930 . S
C1145 C1144 1.377 . S
C1145 C1146 1.379 . S
C1146 H1130 0.931 . S
C1146 C1140 1.383 . S
C1146 C1145 1.379 . S
H1147 C1141 0.959 . S
H1148 C1141 0.961 . S
H1149 C1141 0.960 . S
H1150 C1142 0.930 . S
H1151 C1143 0.929 . S
H1152 C1160 0.929 . S
H1153 C1162 0.930 . S
H1154 C1164 0.930 . S
H1155 C1167 0.929 . S
H1156 C1170 0.930 . S
H1157 C1172 0.960 . S
H1158 C1172 0.960 . S
H1159 C1172 0.960 . S
C1160 H1152 0.929 . S
C1160 C1161 1.377 . S
C1160 C1162 1.384 . S
C1161 C1160 1.377 . S
C1161 C1167 1.390 . S
C1162 H1153 0.930 . S
C1162 C1160 1.384 . S
C1162 C1163 1.372 . S
C1163 C1162 1.372 . S
C1163 C1164 1.400 . S
C1163 C1168 1.490 . S
C1164 H1154 0.930 . S
C1164 C1163 1.400 . S
C1164 C1167 1.386 . S
H1165 C1181 0.930 . S
H1166 C1182 0.931 . S
C1167 H1155 0.929 . S
C1167 C1161 1.390 . S
C1167 C1164 1.386 . S
C1168 C1163 1.490 . S
C1168 C1170 1.395 . S
C1168 C1171 1.403 . S
H1169 C1175 0.930 . S
C1170 H1156 0.930 . S
C1170 C1168 1.395 . S
C1170 C1173 1.403 . S
C1171 C1168 1.403 . S
C1171 C1172 1.524 . S
C1171 C1175 1.400 . S
C1172 H1157 0.960 . S
C1172 H1158 0.960 . S
C1172 H1159 0.960 . S
C1172 C1171 1.524 . S
C1173 C1170 1.403 . S
C1173 C1174 1.392 . S
C1173 C1177 1.495 . S
C1174 C1173 1.392 . S
C1174 C1175 1.385 . S
C1174 C1176 1.478 . S
C1175 H1169 0.930 . S
C1175 C1171 1.400 . S
C1175 C1174 1.385 . S
C1176 C1174 1.478 . S
C1176 C1178 1.381 . S
C1176 C1182 1.383 . S
C1177 C1173 1.495 . S
C1177 H1183 0.959 . S
C1177 H1184 0.961 . S
C1177 H1185 0.960 . S
C1178 C1176 1.381 . S
C1178 C1179 1.394 . S
C1178 H1186 0.930 . S
C1179 C1178 1.394 . S
C1179 C1180 1.383 . S
C1179 H1187 0.929 . S
C1180 C1179 1.383 . S
C1180 C1181 1.377 . S
C1181 H1165 0.930 . S
C1181 C1180 1.377 . S
C1181 C1182 1.379 . S
C1182 H1166 0.931 . S
C1182 C1176 1.383 . S
C1182 C1181 1.379 . S
H1183 C1177 0.959 . S
H1184 C1177 0.961 . S
H1185 C1177 0.960 . S
H1186 C1178 0.930 . S
H1187 C1179 0.929 . S
H1188 C1196 0.929 . S
H1189 C1198 0.930 . S
H1190 C1200 0.930 . S
H1191 C1203 0.929 . S
H1192 C1206 0.930 . S
H1193 C1208 0.960 . S
H1194 C1208 0.960 . S
H1195 C1208 0.960 . S
C1196 H1188 0.929 . S
C1196 C1197 1.377 . S
C1196 C1198 1.384 . S
C1197 C1196 1.377 . S
C1197 C1203 1.390 . S
C1198 H1189 0.930 . S
C1198 C1196 1.384 . S
C1198 C1199 1.372 . S
C1199 C1198 1.372 . S
C1199 C1200 1.400 . S
C1199 C1204 1.490 . S
C1200 H1190 0.930 . S
C1200 C1199 1.400 . S
C1200 C1203 1.386 . S
H1201 C1217 0.930 . S
H1202 C1218 0.931 . S
C1203 H1191 0.929 . S
C1203 C1197 1.390 . S
C1203 C1200 1.386 . S
C1204 C1199 1.490 . S
C1204 C1206 1.395 . S
C1204 C1207 1.403 . S
H1205 C1211 0.930 . S
C1206 H1192 0.930 . S
C1206 C1204 1.395 . S
C1206 C1209 1.403 . S
C1207 C1204 1.403 . S
C1207 C1208 1.524 . S
C1207 C1211 1.400 . S
C1208 H1193 0.960 . S
C1208 H1194 0.960 . S
C1208 H1195 0.960 . S
C1208 C1207 1.524 . S
C1209 C1206 1.403 . S
C1209 C1210 1.392 . S
C1209 C1213 1.495 . S
C1210 C1209 1.392 . S
C1210 C1211 1.385 . S
C1210 C1212 1.478 . S
C1211 H1205 0.930 . S
C1211 C1207 1.400 . S
C1211 C1210 1.385 . S
C1212 C1210 1.478 . S
C1212 C1214 1.381 . S
C1212 C1218 1.383 . S
C1213 C1209 1.495 . S
C1213 H1219 0.959 . S
C1213 H1220 0.961 . S
C1213 H1221 0.960 . S
C1214 C1212 1.381 . S
C1214 C1215 1.394 . S
C1214 H1222 0.930 . S
C1215 C1214 1.394 . S
C1215 C1216 1.383 . S
C1215 H1223 0.929 . S
C1216 C1215 1.383 . S
C1216 C1217 1.377 . S
C1217 H1201 0.930 . S
C1217 C1216 1.377 . S
C1217 C1218 1.379 . S
C1218 H1202 0.931 . S
C1218 C1212 1.383 . S
C1218 C1217 1.379 . S
H1219 C1213 0.959 . S
H1220 C1213 0.961 . S
H1221 C1213 0.960 . S
H1222 C1214 0.930 . S
H1223 C1215 0.929 . S
H1224 C1232 0.929 . S
H1225 C1234 0.930 . S
H1226 C1236 0.930 . S
H1227 C1239 0.929 . S
H1228 C1242 0.930 . S
H1229 C1244 0.960 . S
H1230 C1244 0.960 . S
H1231 C1244 0.960 . S
C1232 H1224 0.929 . S
C1232 C1233 1.377 . S
C1232 C1234 1.384 . S
C1233 C1232 1.377 . S
C1233 C1239 1.390 . S
C1234 H1225 0.930 . S
C1234 C1232 1.384 . S
C1234 C1235 1.372 . S
C1235 C1234 1.372 . S
C1235 C1236 1.400 . S
C1235 C1240 1.490 . S
C1236 H1226 0.930 . S
C1236 C1235 1.400 . S
C1236 C1239 1.386 . S
H1237 C1253 0.930 . S
H1238 C1254 0.931 . S
C1239 H1227 0.929 . S
C1239 C1233 1.390 . S
C1239 C1236 1.386 . S
C1240 C1235 1.490 . S
C1240 C1242 1.395 . S
C1240 C1243 1.403 . S
H1241 C1247 0.930 . S
C1242 H1228 0.930 . S
C1242 C1240 1.395 . S
C1242 C1245 1.403 . S
C1243 C1240 1.403 . S
C1243 C1244 1.524 . S
C1243 C1247 1.400 . S
C1244 H1229 0.960 . S
C1244 H1230 0.960 . S
C1244 H1231 0.960 . S
C1244 C1243 1.524 . S
C1245 C1242 1.403 . S
C1245 C1246 1.392 . S
C1245 C1249 1.495 . S
C1246 C1245 1.392 . S
C1246 C1247 1.385 . S
C1246 C1248 1.478 . S
C1247 H1241 0.930 . S
C1247 C1243 1.400 . S
C1247 C1246 1.385 . S
C1248 C1246 1.478 . S
C1248 C1250 1.381 . S
C1248 C1254 1.383 . S
C1249 C1245 1.495 . S
C1249 H1255 0.959 . S
C1249 H1256 0.961 . S
C1249 H1257 0.960 . S
C1250 C1248 1.381 . S
C1250 C1251 1.394 . S
C1250 H1258 0.930 . S
C1251 C1250 1.394 . S
C1251 C1252 1.383 . S
C1251 H1259 0.929 . S
C1252 C1251 1.383 . S
C1252 C1253 1.377 . S
C1253 H1237 0.930 . S
C1253 C1252 1.377 . S
C1253 C1254 1.379 . S
C1254 H1238 0.931 . S
C1254 C1248 1.383 . S
C1254 C1253 1.379 . S
H1255 C1249 0.959 . S
H1256 C1249 0.961 . S
H1257 C1249 0.960 . S
H1258 C1250 0.930 . S
H1259 C1251 0.929 . S
H1260 C1268 0.929 . S
H1261 C1270 0.930 . S
H1262 C1272 0.930 . S
H1263 C1275 0.929 . S
H1264 C1278 0.930 . S
H1265 C1280 0.960 . S
H1266 C1280 0.960 . S
H1267 C1280 0.960 . S
C1268 H1260 0.929 . S
C1268 C1269 1.377 . S
C1268 C1270 1.384 . S
C1269 C1268 1.377 . S
C1269 C1275 1.390 . S
C1270 H1261 0.930 . S
C1270 C1268 1.384 . S
C1270 C1271 1.372 . S
C1271 C1270 1.372 . S
C1271 C1272 1.400 . S
C1271 C1276 1.490 . S
C1272 H1262 0.930 . S
C1272 C1271 1.400 . S
C1272 C1275 1.386 . S
H1273 C1289 0.930 . S
H1274 C1290 0.931 . S
C1275 H1263 0.929 . S
C1275 C1269 1.390 . S
C1275 C1272 1.386 . S
C1276 C1271 1.490 . S
C1276 C1278 1.395 . S
C1276 C1279 1.403 . S
H1277 C1283 0.930 . S
C1278 H1264 0.930 . S
C1278 C1276 1.395 . S
C1278 C1281 1.403 . S
C1279 C1276 1.403 . S
C1279 C1280 1.524 . S
C1279 C1283 1.400 . S
C1280 H1265 0.960 . S
C1280 H1266 0.960 . S
C1280 H1267 0.960 . S
C1280 C1279 1.524 . S
C1281 C1278 1.403 . S
C1281 C1282 1.392 . S
C1281 C1285 1.495 . S
C1282 C1281 1.392 . S
C1282 C1283 1.385 . S
C1282 C1284 1.478 . S
C1283 H1277 0.930 . S
C1283 C1279 1.400 . S
C1283 C1282 1.385 . S
C1284 C1282 1.478 . S
C1284 C1286 1.381 . S
C1284 C1290 1.383 . S
C1285 C1281 1.495 . S
C1285 H1291 0.959 . S
C1285 H1292 0.961 . S
C1285 H1293 0.960 . S
C1286 C1284 1.381 . S
C1286 C1287 1.394 . S
C1286 H1294 0.930 . S
C1287 C1286 1.394 . S
C1287 C1288 1.383 . S
C1287 H1295 0.929 . S
C1288 C1287 1.383 . S
C1288 C1289 1.377 . S
C1289 H1273 0.930 . S
C1289 C1288 1.377 . S
C1289 C1290 1.379 . S
C1290 H1274 0.931 . S
C1290 C1284 1.383 . S
C1290 C1289 1.379 . S
H1291 C1285 0.959 . S
H1292 C1285 0.961 . S
H1293 C1285 0.960 . S
H1294 C1286 0.930 . S
H1295 C1287 0.929 . S
H1296 C1304 0.929 . S
H1297 C1306 0.930 . S
H1298 C1308 0.930 . S
H1299 C1311 0.929 . S
H1300 C1314 0.930 . S
H1301 C1316 0.960 . S
H1302 C1316 0.960 . S
H1303 C1316 0.960 . S
C1304 H1296 0.929 . S
C1304 C1305 1.377 . S
C1304 C1306 1.384 . S
C1305 C1304 1.377 . S
C1305 C1311 1.390 . S
C1306 H1297 0.930 . S
C1306 C1304 1.384 . S
C1306 C1307 1.372 . S
C1307 C1306 1.372 . S
C1307 C1308 1.400 . S
C1307 C1312 1.490 . S
C1308 H1298 0.930 . S
C1308 C1307 1.400 . S
C1308 C1311 1.386 . S
H1309 C1325 0.930 . S
H1310 C1326 0.931 . S
C1311 H1299 0.929 . S
C1311 C1305 1.390 . S
C1311 C1308 1.386 . S
C1312 C1307 1.490 . S
C1312 C1314 1.395 . S
C1312 C1315 1.403 . S
H1313 C1319 0.930 . S
C1314 H1300 0.930 . S
C1314 C1312 1.395 . S
C1314 C1317 1.403 . S
C1315 C1312 1.403 . S
C1315 C1316 1.524 . S
C1315 C1319 1.400 . S
C1316 H1301 0.960 . S
C1316 H1302 0.960 . S
C1316 H1303 0.960 . S
C1316 C1315 1.524 . S
C1317 C1314 1.403 . S
C1317 C1318 1.392 . S
C1317 C1321 1.495 . S
C1318 C1317 1.392 . S
C1318 C1319 1.385 . S
C1318 C1320 1.478 . S
C1319 H1313 0.930 . S
C1319 C1315 1.400 . S
C1319 C1318 1.385 . S
C1320 C1318 1.478 . S
C1320 C1322 1.381 . S
C1320 C1326 1.383 . S
C1321 C1317 1.495 . S
C1321 H1327 0.959 . S
C1321 H1328 0.961 . S
C1321 H1329 0.960 . S
C1322 C1320 1.381 . S
C1322 C1323 1.394 . S
C1322 H1330 0.930 . S
C1323 C1322 1.394 . S
C1323 C1324 1.383 . S
C1323 H1331 0.929 . S
C1324 C1323 1.383 . S
C1324 C1325 1.377 . S
C1325 H1309 0.930 . S
C1325 C1324 1.377 . S
C1325 C1326 1.379 . S
C1326 H1310 0.931 . S
C1326 C1320 1.383 . S
C1326 C1325 1.379 . S
H1327 C1321 0.959 . S
H1328 C1321 0.961 . S
H1329 C1321 0.960 . S
H1330 C1322 0.930 . S
H1331 C1323 0.929 . S
H1332 C1340 0.929 . S
H1333 C1342 0.930 . S
H1334 C1344 0.930 . S
H1335 C1347 0.929 . S
H1336 C1350 0.930 . S
H1337 C1352 0.960 . S
H1338 C1352 0.960 . S
H1339 C1352 0.960 . S
C1340 H1332 0.929 . S
C1340 C1341 1.377 . S
C1340 C1342 1.384 . S
C1341 C1340 1.377 . S
C1341 C1347 1.390 . S
C1342 H1333 0.930 . S
C1342 C1340 1.384 . S
C1342 C1343 1.372 . S
C1343 C1342 1.372 . S
C1343 C1344 1.400 . S
C1343 C1348 1.490 . S
C1344 H1334 0.930 . S
C1344 C1343 1.400 . S
C1344 C1347 1.386 . S
H1345 C1361 0.930 . S
H1346 C1362 0.931 . S
C1347 H1335 0.929 . S
C1347 C1341 1.390 . S
C1347 C1344 1.386 . S
C1348 C1343 1.490 . S
C1348 C1350 1.395 . S
C1348 C1351 1.403 . S
H1349 C1355 0.930 . S
C1350 H1336 0.930 . S
C1350 C1348 1.395 . S
C1350 C1353 1.403 . S
C1351 C1348 1.403 . S
C1351 C1352 1.524 . S
C1351 C1355 1.400 . S
C1352 H1337 0.960 . S
C1352 H1338 0.960 . S
C1352 H1339 0.960 . S
C1352 C1351 1.524 . S
C1353 C1350 1.403 . S
C1353 C1354 1.392 . S
C1353 C1357 1.495 . S
C1354 C1353 1.392 . S
C1354 C1355 1.385 . S
C1354 C1356 1.478 . S
C1355 H1349 0.930 . S
C1355 C1351 1.400 . S
C1355 C1354 1.385 . S
C1356 C1354 1.478 . S
C1356 C1358 1.381 . S
C1356 C1362 1.383 . S
C1357 C1353 1.495 . S
C1357 H1363 0.959 . S
C1357 H1364 0.961 . S
C1357 H1365 0.960 . S
C1358 C1356 1.381 . S
C1358 C1359 1.394 . S
C1358 H1366 0.930 . S
C1359 C1358 1.394 . S
C1359 C1360 1.383 . S
C1359 H1367 0.929 . S
C1360 C1359 1.383 . S
C1360 C1361 1.377 . S
C1361 H1345 0.930 . S
C1361 C1360 1.377 . S
C1361 C1362 1.379 . S
C1362 H1346 0.931 . S
C1362 C1356 1.383 . S
C1362 C1361 1.379 . S
H1363 C1357 0.959 . S
H1364 C1357 0.961 . S
H1365 C1357 0.960 . S
H1366 C1358 0.930 . S
H1367 C1359 0.929 . S
H1368 C1376 0.929 . S
H1369 C1378 0.930 . S
H1370 C1380 0.930 . S
H1371 C1383 0.929 . S
H1372 C1386 0.930 . S
H1373 C1388 0.960 . S
H1374 C1388 0.960 . S
H1375 C1388 0.960 . S
C1376 H1368 0.929 . S
C1376 C1377 1.377 . S
C1376 C1378 1.384 . S
C1377 C1376 1.377 . S
C1377 C1383 1.390 . S
C1378 H1369 0.930 . S
C1378 C1376 1.384 . S
C1378 C1379 1.372 . S
C1379 C1378 1.372 . S
C1379 C1380 1.400 . S
C1379 C1384 1.490 . S
C1380 H1370 0.930 . S
C1380 C1379 1.400 . S
C1380 C1383 1.386 . S
H1381 C1397 0.930 . S
H1382 C1398 0.931 . S
C1383 H1371 0.929 . S
C1383 C1377 1.390 . S
C1383 C1380 1.386 . S
C1384 C1379 1.490 . S
C1384 C1386 1.395 . S
C1384 C1387 1.403 . S
H1385 C1391 0.930 . S
C1386 H1372 0.930 . S
C1386 C1384 1.395 . S
C1386 C1389 1.403 . S
C1387 C1384 1.403 . S
C1387 C1388 1.524 . S
C1387 C1391 1.400 . S
C1388 H1373 0.960 . S
C1388 H1374 0.960 . S
C1388 H1375 0.960 . S
C1388 C1387 1.524 . S
C1389 C1386 1.403 . S
C1389 C1390 1.392 . S
C1389 C1393 1.495 . S
C1390 C1389 1.392 . S
C1390 C1391 1.385 . S
C1390 C1392 1.478 . S
C1391 H1385 0.930 . S
C1391 C1387 1.400 . S
C1391 C1390 1.385 . S
C1392 C1390 1.478 . S
C1392 C1394 1.381 . S
C1392 C1398 1.383 . S
C1393 C1389 1.495 . S
C1393 H1399 0.959 . S
C1393 H1400 0.961 . S
C1393 H1401 0.960 . S
C1394 C1392 1.381 . S
C1394 C1395 1.394 . S
C1394 H1402 0.930 . S
C1395 C1394 1.394 . S
C1395 C1396 1.383 . S
C1395 H1403 0.929 . S
C1396 C1395 1.383 . S
C1396 C1397 1.377 . S
C1397 H1381 0.930 . S
C1397 C1396 1.377 . S
C1397 C1398 1.379 . S
C1398 H1382 0.931 . S
C1398 C1392 1.383 . S
C1398 C1397 1.379 . S
H1399 C1393 0.959 . S
H1400 C1393 0.961 . S
H1401 C1393 0.960 . S
H1402 C1394 0.930 . S
H1403 C1395 0.929 . S
H1404 C1412 0.929 . S
H1405 C1414 0.930 . S
H1406 C1416 0.930 . S
H1407 C1419 0.929 . S
H1408 C1422 0.930 . S
H1409 C1424 0.960 . S
H1410 C1424 0.960 . S
H1411 C1424 0.960 . S
C1412 H1404 0.929 . S
C1412 C1413 1.377 . S
C1412 C1414 1.384 . S
C1413 C1412 1.377 . S
C1413 C1419 1.390 . S
C1414 H1405 0.930 . S
C1414 C1412 1.384 . S
C1414 C1415 1.372 . S
C1415 C1414 1.372 . S
C1415 C1416 1.400 . S
C1415 C1420 1.490 . S
C1416 H1406 0.930 . S
C1416 C1415 1.400 . S
C1416 C1419 1.386 . S
H1417 C1433 0.930 . S
H1418 C1434 0.931 . S
C1419 H1407 0.929 . S
C1419 C1413 1.390 . S
C1419 C1416 1.386 . S
C1420 C1415 1.490 . S
C1420 C1422 1.395 . S
C1420 C1423 1.403 . S
H1421 C1427 0.930 . S
C1422 H1408 0.930 . S
C1422 C1420 1.395 . S
C1422 C1425 1.403 . S
C1423 C1420 1.403 . S
C1423 C1424 1.524 . S
C1423 C1427 1.400 . S
C1424 H1409 0.960 . S
C1424 H1410 0.960 . S
C1424 H1411 0.960 . S
C1424 C1423 1.524 . S
C1425 C1422 1.403 . S
C1425 C1426 1.392 . S
C1425 C1429 1.495 . S
C1426 C1425 1.392 . S
C1426 C1427 1.385 . S
C1426 C1428 1.478 . S
C1427 H1421 0.930 . S
C1427 C1423 1.400 . S
C1427 C1426 1.385 . S
C1428 C1426 1.478 . S
C1428 C1430 1.381 . S
C1428 C1434 1.383 . S
C1429 C1425 1.495 . S
C1429 H1435 0.959 . S
C1429 H1436 0.961 . S
C1429 H1437 0.960 . S
C1430 C1428 1.381 . S
C1430 C1431 1.394 . S
C1430 H1438 0.930 . S
C1431 C1430 1.394 . S
C1431 C1432 1.383 . S
C1431 H1439 0.929 . S
C1432 C1431 1.383 . S
C1432 C1433 1.377 . S
C1433 H1417 0.930 . S
C1433 C1432 1.377 . S
C1433 C1434 1.379 . S
C1434 H1418 0.931 . S
C1434 C1428 1.383 . S
C1434 C1433 1.379 . S
H1435 C1429 0.959 . S
H1436 C1429 0.961 . S
H1437 C1429 0.960 . S
H1438 C1430 0.930 . S
H1439 C1431 0.929 . S
H1440 C1448 0.929 . S
H1441 C1450 0.930 . S
H1442 C1452 0.930 . S
H1443 C1455 0.929 . S
H1444 C1458 0.930 . S
H1445 C1460 0.960 . S
H1446 C1460 0.960 . S
H1447 C1460 0.960 . S
C1448 H1440 0.929 . S
C1448 C1449 1.377 . S
C1448 C1450 1.384 . S
C1449 C1448 1.377 . S
C1449 C1455 1.390 . S
C1450 H1441 0.930 . S
C1450 C1448 1.384 . S
C1450 C1451 1.372 . S
C1451 C1450 1.372 . S
C1451 C1452 1.400 . S
C1451 C1456 1.490 . S
C1452 H1442 0.930 . S
C1452 C1451 1.400 . S
C1452 C1455 1.386 . S
H1453 C1469 0.930 . S
H1454 C1470 0.931 . S
C1455 H1443 0.929 . S
C1455 C1449 1.390 . S
C1455 C1452 1.386 . S
C1456 C1451 1.490 . S
C1456 C1458 1.395 . S
C1456 C1459 1.403 . S
H1457 C1463 0.930 . S
C1458 H1444 0.930 . S
C1458 C1456 1.395 . S
C1458 C1461 1.403 . S
C1459 C1456 1.403 . S
C1459 C1460 1.524 . S
C1459 C1463 1.400 . S
C1460 H1445 0.960 . S
C1460 H1446 0.960 . S
C1460 H1447 0.960 . S
C1460 C1459 1.524 . S
C1461 C1458 1.403 . S
C1461 C1462 1.392 . S
C1461 C1465 1.495 . S
C1462 C1461 1.392 . S
C1462 C1463 1.385 . S
C1462 C1464 1.478 . S
C1463 H1457 0.930 . S
C1463 C1459 1.400 . S
C1463 C1462 1.385 . S
C1464 C1462 1.478 . S
C1464 C1466 1.381 . S
C1464 C1470 1.383 . S
C1465 C1461 1.495 . S
C1465 H1471 0.959 . S
C1465 H1472 0.961 . S
C1465 H1473 0.960 . S
C1466 C1464 1.381 . S
C1466 C1467 1.394 . S
C1466 H1474 0.930 . S
C1467 C1466 1.394 . S
C1467 C1468 1.383 . S
C1467 H1475 0.929 . S
C1468 C1467 1.383 . S
C1468 C1469 1.377 . S
C1469 H1453 0.930 . S
C1469 C1468 1.377 . S
C1469 C1470 1.379 . S
C1470 H1454 0.931 . S
C1470 C1464 1.383 . S
C1470 C1469 1.379 . S
H1471 C1465 0.959 . S
H1472 C1465 0.961 . S
H1473 C1465 0.960 . S
H1474 C1466 0.930 . S
H1475 C1467 0.929 . S
H1476 C1484 0.929 . S
H1477 C1486 0.930 . S
H1478 C1488 0.930 . S
H1479 C1491 0.929 . S
H1480 C1494 0.930 . S
H1481 C1496 0.960 . S
H1482 C1496 0.960 . S
H1483 C1496 0.960 . S
C1484 H1476 0.929 . S
C1484 C1485 1.377 . S
C1484 C1486 1.384 . S
C1485 C1484 1.377 . S
C1485 C1491 1.390 . S
C1486 H1477 0.930 . S
C1486 C1484 1.384 . S
C1486 C1487 1.372 . S
C1487 C1486 1.372 . S
C1487 C1488 1.400 . S
C1487 C1492 1.490 . S
C1488 H1478 0.930 . S
C1488 C1487 1.400 . S
C1488 C1491 1.386 . S
H1489 C1505 0.930 . S
H1490 C1506 0.931 . S
C1491 H1479 0.929 . S
C1491 C1485 1.390 . S
C1491 C1488 1.386 . S
C1492 C1487 1.490 . S
C1492 C1494 1.395 . S
C1492 C1495 1.403 . S
H1493 C1499 0.930 . S
C1494 H1480 0.930 . S
C1494 C1492 1.395 . S
C1494 C1497 1.403 . S
C1495 C1492 1.403 . S
C1495 C1496 1.524 . S
C1495 C1499 1.400 . S
C1496 H1481 0.960 . S
C1496 H1482 0.960 . S
C1496 H1483 0.960 . S
C1496 C1495 1.524 . S
C1497 C1494 1.403 . S
C1497 C1498 1.392 . S
C1497 C1501 1.495 . S
C1498 C1497 1.392 . S
C1498 C1499 1.385 . S
C1498 C1500 1.478 . S
C1499 H1493 0.930 . S
C1499 C1495 1.400 . S
C1499 C1498 1.385 . S
C1500 C1498 1.478 . S
C1500 C1502 1.381 . S
C1500 C1506 1.383 . S
C1501 C1497 1.495 . S
C1501 H1507 0.959 . S
C1501 H1508 0.961 . S
C1501 H1509 0.960 . S
C1502 C1500 1.381 . S
C1502 C1503 1.394 . S
C1502 H1510 0.930 . S
C1503 C1502 1.394 . S
C1503 C1504 1.383 . S
C1503 H1511 0.929 . S
C1504 C1503 1.383 . S
C1504 C1505 1.377 . S
C1505 H1489 0.930 . S
C1505 C1504 1.377 . S
C1505 C1506 1.379 . S
C1506 H1490 0.931 . S
C1506 C1500 1.383 . S
C1506 C1505 1.379 . S
H1507 C1501 0.959 . S
H1508 C1501 0.961 . S
H1509 C1501 0.960 . S
H1510 C1502 0.930 . S
H1511 C1503 0.929 . S
H1512 C1520 0.929 . S
H1513 C1522 0.930 . S
H1514 C1524 0.930 . S
H1515 C1527 0.929 . S
H1516 C1530 0.930 . S
H1517 C1532 0.960 . S
H1518 C1532 0.960 . S
H1519 C1532 0.960 . S
C1520 H1512 0.929 . S
C1520 C1521 1.377 . S
C1520 C1522 1.384 . S
C1521 C1520 1.377 . S
C1521 C1527 1.390 . S
C1522 H1513 0.930 . S
C1522 C1520 1.384 . S
C1522 C1523 1.372 . S
C1523 C1522 1.372 . S
C1523 C1524 1.400 . S
C1523 C1528 1.490 . S
C1524 H1514 0.930 . S
C1524 C1523 1.400 . S
C1524 C1527 1.386 . S
H1525 C1541 0.930 . S
H1526 C1542 0.931 . S
C1527 H1515 0.929 . S
C1527 C1521 1.390 . S
C1527 C1524 1.386 . S
C1528 C1523 1.490 . S
C1528 C1530 1.395 . S
C1528 C1531 1.403 . S
H1529 C1535 0.930 . S
C1530 H1516 0.930 . S
C1530 C1528 1.395 . S
C1530 C1533 1.403 . S
C1531 C1528 1.403 . S
C1531 C1532 1.524 . S
C1531 C1535 1.400 . S
C1532 H1517 0.960 . S
C1532 H1518 0.960 . S
C1532 H1519 0.960 . S
C1532 C1531 1.524 . S
C1533 C1530 1.403 . S
C1533 C1534 1.392 . S
C1533 C1537 1.495 . S
C1534 C1533 1.392 . S
C1534 C1535 1.385 . S
C1534 C1536 1.478 . S
C1535 H1529 0.930 . S
C1535 C1531 1.400 . S
C1535 C1534 1.385 . S
C1536 C1534 1.478 . S
C1536 C1538 1.381 . S
C1536 C1542 1.383 . S
C1537 C1533 1.495 . S
C1537 H1543 0.959 . S
C1537 H1544 0.961 . S
C1537 H1545 0.960 . S
C1538 C1536 1.381 . S
C1538 C1539 1.394 . S
C1538 H1546 0.930 . S
C1539 C1538 1.394 . S
C1539 C1540 1.383 . S
C1539 H1547 0.929 . S
C1540 C1539 1.383 . S
C1540 C1541 1.377 . S
C1541 H1525 0.930 . S
C1541 C1540 1.377 . S
C1541 C1542 1.379 . S
C1542 H1526 0.931 . S
C1542 C1536 1.383 . S
C1542 C1541 1.379 . S
H1543 C1537 0.959 . S
H1544 C1537 0.961 . S
H1545 C1537 0.960 . S
H1546 C1538 0.930 . S
H1547 C1539 0.929 . S
H1548 C1556 0.929 . S
H1549 C1558 0.930 . S
H1550 C1560 0.930 . S
H1551 C1563 0.929 . S
H1552 C1566 0.930 . S
H1553 C1568 0.960 . S
H1554 C1568 0.960 . S
H1555 C1568 0.960 . S
C1556 H1548 0.929 . S
C1556 C1557 1.377 . S
C1556 C1558 1.384 . S
C1557 C1556 1.377 . S
C1557 C1563 1.390 . S
C1558 H1549 0.930 . S
C1558 C1556 1.384 . S
C1558 C1559 1.372 . S
C1559 C1558 1.372 . S
C1559 C1560 1.400 . S
C1559 C1564 1.490 . S
C1560 H1550 0.930 . S
C1560 C1559 1.400 . S
C1560 C1563 1.386 . S
H1561 C1577 0.930 . S
H1562 C1578 0.931 . S
C1563 H1551 0.929 . S
C1563 C1557 1.390 . S
C1563 C1560 1.386 . S
C1564 C1559 1.490 . S
C1564 C1566 1.395 . S
C1564 C1567 1.403 . S
H1565 C1571 0.930 . S
C1566 H1552 0.930 . S
C1566 C1564 1.395 . S
C1566 C1569 1.403 . S
C1567 C1564 1.403 . S
C1567 C1568 1.524 . S
C1567 C1571 1.400 . S
C1568 H1553 0.960 . S
C1568 H1554 0.960 . S
C1568 H1555 0.960 . S
C1568 C1567 1.524 . S
C1569 C1566 1.403 . S
C1569 C1570 1.392 . S
C1569 C1573 1.495 . S
C1570 C1569 1.392 . S
C1570 C1571 1.385 . S
C1570 C1572 1.478 . S
C1571 H1565 0.930 . S
C1571 C1567 1.400 . S
C1571 C1570 1.385 . S
C1572 C1570 1.478 . S
C1572 C1574 1.381 . S
C1572 C1578 1.383 . S
C1573 C1569 1.495 . S
C1573 H1579 0.959 . S
C1573 H1580 0.961 . S
C1573 H1581 0.960 . S
C1574 C1572 1.381 . S
C1574 C1575 1.394 . S
C1574 H1582 0.930 . S
C1575 C1574 1.394 . S
C1575 C1576 1.383 . S
C1575 H1583 0.929 . S
C1576 C1575 1.383 . S
C1576 C1577 1.377 . S
C1577 H1561 0.930 . S
C1577 C1576 1.377 . S
C1577 C1578 1.379 . S
C1578 H1562 0.931 . S
C1578 C1572 1.383 . S
C1578 C1577 1.379 . S
H1579 C1573 0.959 . S
H1580 C1573 0.961 . S
H1581 C1573 0.960 . S
H1582 C1574 0.930 . S
H1583 C1575 0.929 . S
H1584 C1592 0.929 . S
H1585 C1594 0.930 . S
H1586 C1596 0.930 . S
H1587 C1599 0.929 . S
H1588 C1602 0.930 . S
H1589 C1604 0.960 . S
H1590 C1604 0.960 . S
H1591 C1604 0.960 . S
C1592 H1584 0.929 . S
C1592 C1593 1.377 . S
C1592 C1594 1.384 . S
C1593 C1592 1.377 . S
C1593 C1599 1.390 . S
C1594 H1585 0.930 . S
C1594 C1592 1.384 . S
C1594 C1595 1.372 . S
C1595 C1594 1.372 . S
C1595 C1596 1.400 . S
C1595 C1600 1.490 . S
C1596 H1586 0.930 . S
C1596 C1595 1.400 . S
C1596 C1599 1.386 . S
H1597 C1613 0.930 . S
H1598 C1614 0.931 . S
C1599 H1587 0.929 . S
C1599 C1593 1.390 . S
C1599 C1596 1.386 . S
C1600 C1595 1.490 . S
C1600 C1602 1.395 . S
C1600 C1603 1.403 . S
H1601 C1607 0.930 . S
C1602 H1588 0.930 . S
C1602 C1600 1.395 . S
C1602 C1605 1.403 . S
C1603 C1600 1.403 . S
C1603 C1604 1.524 . S
C1603 C1607 1.400 . S
C1604 H1589 0.960 . S
C1604 H1590 0.960 . S
C1604 H1591 0.960 . S
C1604 C1603 1.524 . S
C1605 C1602 1.403 . S
C1605 C1606 1.392 . S
C1605 C1609 1.495 . S
C1606 C1605 1.392 . S
C1606 C1607 1.385 . S
C1606 C1608 1.478 . S
C1607 H1601 0.930 . S
C1607 C1603 1.400 . S
C1607 C1606 1.385 . S
C1608 C1606 1.478 . S
C1608 C1610 1.381 . S
C1608 C1614 1.383 . S
C1609 C1605 1.495 . S
C1609 H1615 0.959 . S
C1609 H1616 0.961 . S
C1609 H1617 0.960 . S
C1610 C1608 1.381 . S
C1610 C1611 1.394 . S
C1610 H1618 0.930 . S
C1611 C1610 1.394 . S
C1611 C1612 1.383 . S
C1611 H1619 0.929 . S
C1612 C1611 1.383 . S
C1612 C1613 1.377 . S
C1613 H1597 0.930 . S
C1613 C1612 1.377 . S
C1613 C1614 1.379 . S
C1614 H1598 0.931 . S
C1614 C1608 1.383 . S
C1614 C1613 1.379 . S
H1615 C1609 0.959 . S
H1616 C1609 0.961 . S
H1617 C1609 0.960 . S
H1618 C1610 0.930 . S
H1619 C1611 0.929 . S
H1620 C1628 0.929 . S
H1621 C1630 0.930 . S
H1622 C1632 0.930 . S
H1623 C1635 0.929 . S
H1624 C1638 0.930 . S
H1625 C1640 0.960 . S
H1626 C1640 0.960 . S
H1627 C1640 0.960 . S
C1628 H1620 0.929 . S
C1628 C1629 1.377 . S
C1628 C1630 1.384 . S
C1629 C1628 1.377 . S
C1629 C1635 1.390 . S
C1630 H1621 0.930 . S
C1630 C1628 1.384 . S
C1630 C1631 1.372 . S
C1631 C1630 1.372 . S
C1631 C1632 1.400 . S
C1631 C1636 1.490 . S
C1632 H1622 0.930 . S
C1632 C1631 1.400 . S
C1632 C1635 1.386 . S
H1633 C1649 0.930 . S
H1634 C1650 0.931 . S
C1635 H1623 0.929 . S
C1635 C1629 1.390 . S
C1635 C1632 1.386 . S
C1636 C1631 1.490 . S
C1636 C1638 1.395 . S
C1636 C1639 1.403 . S
H1637 C1643 0.930 . S
C1638 H1624 0.930 . S
C1638 C1636 1.395 . S
C1638 C1641 1.403 . S
C1639 C1636 1.403 . S
C1639 C1640 1.524 . S
C1639 C1643 1.400 . S
C1640 H1625 0.960 . S
C1640 H1626 0.960 . S
C1640 H1627 0.960 . S
C1640 C1639 1.524 . S
C1641 C1638 1.403 . S
C1641 C1642 1.392 . S
C1641 C1645 1.495 . S
C1642 C1641 1.392 . S
C1642 C1643 1.385 . S
C1642 C1644 1.478 . S
C1643 H1637 0.930 . S
C1643 C1639 1.400 . S
C1643 C1642 1.385 . S
C1644 C1642 1.478 . S
C1644 C1646 1.381 . S
C1644 C1650 1.383 . S
C1645 C1641 1.495 . S
C1645 H1651 0.959 . S
C1645 H1652 0.961 . S
C1645 H1653 0.960 . S
C1646 C1644 1.381 . S
C1646 C1647 1.394 . S
C1646 H1654 0.930 . S
C1647 C1646 1.394 . S
C1647 C1648 1.383 . S
C1647 H1655 0.929 . S
C1648 C1647 1.383 . S
C1648 C1649 1.377 . S
C1649 H1633 0.930 . S
C1649 C1648 1.377 . S
C1649 C1650 1.379 . S
C1650 H1634 0.931 . S
C1650 C1644 1.383 . S
C1650 C1649 1.379 . S
H1651 C1645 0.959 . S
H1652 C1645 0.961 . S
H1653 C1645 0.960 . S
H1654 C1646 0.930 . S
H1655 C1647 0.929 . S
H1656 C1664 0.929 . S
H1657 C1666 0.930 . S
H1658 C1668 0.930 . S
H1659 C1671 0.929 . S
H1660 C1674 0.930 . S
H1661 C1676 0.960 . S
H1662 C1676 0.960 . S
H1663 C1676 0.960 . S
C1664 H1656 0.929 . S
C1664 C1665 1.377 . S
C1664 C1666 1.384 . S
C1665 C1664 1.377 . S
C1665 C1671 1.390 . S
C1666 H1657 0.930 . S
C1666 C1664 1.384 . S
C1666 C1667 1.372 . S
C1667 C1666 1.372 . S
C1667 C1668 1.400 . S
C1667 C1672 1.490 . S
C1668 H1658 0.930 . S
C1668 C1667 1.400 . S
C1668 C1671 1.386 . S
H1669 C1685 0.930 . S
H1670 C1686 0.931 . S
C1671 H1659 0.929 . S
C1671 C1665 1.390 . S
C1671 C1668 1.386 . S
C1672 C1667 1.490 . S
C1672 C1674 1.395 . S
C1672 C1675 1.403 . S
H1673 C1679 0.930 . S
C1674 H1660 0.930 . S
C1674 C1672 1.395 . S
C1674 C1677 1.403 . S
C1675 C1672 1.403 . S
C1675 C1676 1.524 . S
C1675 C1679 1.400 . S
C1676 H1661 0.960 . S
C1676 H1662 0.960 . S
C1676 H1663 0.960 . S
C1676 C1675 1.524 . S
C1677 C1674 1.403 . S
C1677 C1678 1.392 . S
C1677 C1681 1.495 . S
C1678 C1677 1.392 . S
C1678 C1679 1.385 . S
C1678 C1680 1.478 . S
C1679 H1673 0.930 . S
C1679 C1675 1.400 . S
C1679 C1678 1.385 . S
C1680 C1678 1.478 . S
C1680 C1682 1.381 . S
C1680 C1686 1.383 . S
C1681 C1677 1.495 . S
C1681 H1687 0.959 . S
C1681 H1688 0.961 . S
C1681 H1689 0.960 . S
C1682 C1680 1.381 . S
C1682 C1683 1.394 . S
C1682 H1690 0.930 . S
C1683 C1682 1.394 . S
C1683 C1684 1.383 . S
C1683 H1691 0.929 . S
C1684 C1683 1.383 . S
C1684 C1685 1.377 . S
C1685 H1669 0.930 . S
C1685 C1684 1.377 . S
C1685 C1686 1.379 . S
C1686 H1670 0.931 . S
C1686 C1680 1.383 . S
C1686 C1685 1.379 . S
H1687 C1681 0.959 . S
H1688 C1681 0.961 . S
H1689 C1681 0.960 . S
H1690 C1682 0.930 . S
H1691 C1683 0.929 . S
H1692 C1700 0.929 . S
H1693 C1702 0.930 . S
H1694 C1704 0.930 . S
H1695 C1707 0.929 . S
H1696 C1710 0.930 . S
H1697 C1712 0.960 . S
H1698 C1712 0.960 . S
H1699 C1712 0.960 . S
C1700 H1692 0.929 . S
C1700 C1701 1.377 . S
C1700 C1702 1.384 . S
C1701 C1700 1.377 . S
C1701 C1707 1.390 . S
C1702 H1693 0.930 . S
C1702 C1700 1.384 . S
C1702 C1703 1.372 . S
C1703 C1702 1.372 . S
C1703 C1704 1.400 . S
C1703 C1708 1.490 . S
C1704 H1694 0.930 . S
C1704 C1703 1.400 . S
C1704 C1707 1.386 . S
H1705 C1721 0.930 . S
H1706 C1722 0.931 . S
C1707 H1695 0.929 . S
C1707 C1701 1.390 . S
C1707 C1704 1.386 . S
C1708 C1703 1.490 . S
C1708 C1710 1.395 . S
C1708 C1711 1.403 . S
H1709 C1715 0.930 . S
C1710 H1696 0.930 . S
C1710 C1708 1.395 . S
C1710 C1713 1.403 . S
C1711 C1708 1.403 . S
C1711 C1712 1.524 . S
C1711 C1715 1.400 . S
C1712 H1697 0.960 . S
C1712 H1698 0.960 . S
C1712 H1699 0.960 . S
C1712 C1711 1.524 . S
C1713 C1710 1.403 . S
C1713 C1714 1.392 . S
C1713 C1717 1.495 . S
C1714 C1713 1.392 . S
C1714 C1715 1.385 . S
C1714 C1716 1.478 . S
C1715 H1709 0.930 . S
C1715 C1711 1.400 . S
C1715 C1714 1.385 . S
C1716 C1714 1.478 . S
C1716 C1718 1.381 . S
C1716 C1722 1.383 . S
C1717 C1713 1.495 . S
C1717 H1723 0.959 . S
C1717 H1724 0.961 . S
C1717 H1725 0.960 . S
C1718 C1716 1.381 . S
C1718 C1719 1.394 . S
C1718 H1726 0.930 . S
C1719 C1718 1.394 . S
C1719 C1720 1.383 . S
C1719 H1727 0.929 . S
C1720 C1719 1.383 . S
C1720 C1721 1.377 . S
C1721 H1705 0.930 . S
C1721 C1720 1.377 . S
C1721 C1722 1.379 . S
C1722 H1706 0.931 . S
C1722 C1716 1.383 . S
C1722 C1721 1.379 . S
H1723 C1717 0.959 . S
H1724 C1717 0.961 . S
H1725 C1717 0.960 . S
H1726 C1718 0.930 . S
H1727 C1719 0.929 . S
H1728 C1736 0.929 . S
H1729 C1738 0.930 . S
H1730 C1740 0.930 . S
H1731 C1743 0.929 . S
H1732 C1746 0.930 . S
H1733 C1748 0.960 . S
H1734 C1748 0.960 . S
H1735 C1748 0.960 . S
C1736 H1728 0.929 . S
C1736 C1737 1.377 . S
C1736 C1738 1.384 . S
C1737 C1736 1.377 . S
C1737 C1743 1.390 . S
C1738 H1729 0.930 . S
C1738 C1736 1.384 . S
C1738 C1739 1.372 . S
C1739 C1738 1.372 . S
C1739 C1740 1.400 . S
C1739 C1744 1.490 . S
C1740 H1730 0.930 . S
C1740 C1739 1.400 . S
C1740 C1743 1.386 . S
H1741 C1757 0.930 . S
H1742 C1758 0.931 . S
C1743 H1731 0.929 . S
C1743 C1737 1.390 . S
C1743 C1740 1.386 . S
C1744 C1739 1.490 . S
C1744 C1746 1.395 . S
C1744 C1747 1.403 . S
H1745 C1751 0.930 . S
C1746 H1732 0.930 . S
C1746 C1744 1.395 . S
C1746 C1749 1.403 . S
C1747 C1744 1.403 . S
C1747 C1748 1.524 . S
C1747 C1751 1.400 . S
C1748 H1733 0.960 . S
C1748 H1734 0.960 . S
C1748 H1735 0.960 . S
C1748 C1747 1.524 . S
C1749 C1746 1.403 . S
C1749 C1750 1.392 . S
C1749 C1753 1.495 . S
C1750 C1749 1.392 . S
C1750 C1751 1.385 . S
C1750 C1752 1.478 . S
C1751 H1745 0.930 . S
C1751 C1747 1.400 . S
C1751 C1750 1.385 . S
C1752 C1750 1.478 . S
C1752 C1754 1.381 . S
C1752 C1758 1.383 . S
C1753 C1749 1.495 . S
C1753 H1759 0.959 . S
C1753 H1760 0.961 . S
C1753 H1761 0.960 . S
C1754 C1752 1.381 . S
C1754 C1755 1.394 . S
C1754 H1762 0.930 . S
C1755 C1754 1.394 . S
C1755 C1756 1.383 . S
C1755 H1763 0.929 . S
C1756 C1755 1.383 . S
C1756 C1757 1.377 . S
C1757 H1741 0.930 . S
C1757 C1756 1.377 . S
C1757 C1758 1.379 . S
C1758 H1742 0.931 . S
C1758 C1752 1.383 . S
C1758 C1757 1.379 . S
H1759 C1753 0.959 . S
H1760 C1753 0.961 . S
H1761 C1753 0.960 . S
H1762 C1754 0.930 . S
H1763 C1755 0.929 . S
H1764 C1772 0.929 . S
H1765 C1774 0.930 . S
H1766 C1776 0.930 . S
H1767 C1779 0.929 . S
H1768 C1782 0.930 . S
H1769 C1784 0.960 . S
H1770 C1784 0.960 . S
H1771 C1784 0.960 . S
C1772 H1764 0.929 . S
C1772 C1773 1.377 . S
C1772 C1774 1.384 . S
C1773 C1772 1.377 . S
C1773 C1779 1.390 . S
C1774 H1765 0.930 . S
C1774 C1772 1.384 . S
C1774 C1775 1.372 . S
C1775 C1774 1.372 . S
C1775 C1776 1.400 . S
C1775 C1780 1.490 . S
C1776 H1766 0.930 . S
C1776 C1775 1.400 . S
C1776 C1779 1.386 . S
H1777 C1793 0.930 . S
H1778 C1794 0.931 . S
C1779 H1767 0.929 . S
C1779 C1773 1.390 . S
C1779 C1776 1.386 . S
C1780 C1775 1.490 . S
C1780 C1782 1.395 . S
C1780 C1783 1.403 . S
H1781 C1787 0.930 . S
C1782 H1768 0.930 . S
C1782 C1780 1.395 . S
C1782 C1785 1.403 . S
C1783 C1780 1.403 . S
C1783 C1784 1.524 . S
C1783 C1787 1.400 . S
C1784 H1769 0.960 . S
C1784 H1770 0.960 . S
C1784 H1771 0.960 . S
C1784 C1783 1.524 . S
C1785 C1782 1.403 . S
C1785 C1786 1.392 . S
C1785 C1789 1.495 . S
C1786 C1785 1.392 . S
C1786 C1787 1.385 . S
C1786 C1788 1.478 . S
C1787 H1781 0.930 . S
C1787 C1783 1.400 . S
C1787 C1786 1.385 . S
C1788 C1786 1.478 . S
C1788 C1790 1.381 . S
C1788 C1794 1.383 . S
C1789 C1785 1.495 . S
C1789 H1795 0.959 . S
C1789 H1796 0.961 . S
C1789 H1797 0.960 . S
C1790 C1788 1.381 . S
C1790 C1791 1.394 . S
C1790 H1798 0.930 . S
C1791 C1790 1.394 . S
C1791 C1792 1.383 . S
C1791 H1799 0.929 . S
C1792 C1791 1.383 . S
C1792 C1793 1.377 . S
C1793 H1777 0.930 . S
C1793 C1792 1.377 . S
C1793 C1794 1.379 . S
C1794 H1778 0.931 . S
C1794 C1788 1.383 . S
C1794 C1793 1.379 . S
H1795 C1789 0.959 . S
H1796 C1789 0.961 . S
H1797 C1789 0.960 . S
H1798 C1790 0.930 . S
H1799 C1791 0.929 . S
H1800 C1808 0.929 . S
H1801 C1810 0.930 . S
H1802 C1812 0.930 . S
H1803 C1815 0.929 . S
H1804 C1818 0.930 . S
H1805 C1820 0.960 . S
H1806 C1820 0.960 . S
H1807 C1820 0.960 . S
C1808 H1800 0.929 . S
C1808 C1809 1.377 . S
C1808 C1810 1.384 . S
C1809 C1808 1.377 . S
C1809 C1815 1.390 . S
C1810 H1801 0.930 . S
C1810 C1808 1.384 . S
C1810 C1811 1.372 . S
C1811 C1810 1.372 . S
C1811 C1812 1.400 . S
C1811 C1816 1.490 . S
C1812 H1802 0.930 . S
C1812 C1811 1.400 . S
C1812 C1815 1.386 . S
H1813 C1829 0.930 . S
H1814 C1830 0.931 . S
C1815 H1803 0.929 . S
C1815 C1809 1.390 . S
C1815 C1812 1.386 . S
C1816 C1811 1.490 . S
C1816 C1818 1.395 . S
C1816 C1819 1.403 . S
H1817 C1823 0.930 . S
C1818 H1804 0.930 . S
C1818 C1816 1.395 . S
C1818 C1821 1.403 . S
C1819 C1816 1.403 . S
C1819 C1820 1.524 . S
C1819 C1823 1.400 . S
C1820 H1805 0.960 . S
C1820 H1806 0.960 . S
C1820 H1807 0.960 . S
C1820 C1819 1.524 . S
C1821 C1818 1.403 . S
C1821 C1822 1.392 . S
C1821 C1825 1.495 . S
C1822 C1821 1.392 . S
C1822 C1823 1.385 . S
C1822 C1824 1.478 . S
C1823 H1817 0.930 . S
C1823 C1819 1.400 . S
C1823 C1822 1.385 . S
C1824 C1822 1.478 . S
C1824 C1826 1.381 . S
C1824 C1830 1.383 . S
C1825 C1821 1.495 . S
C1825 H1831 0.959 . S
C1825 H1832 0.961 . S
C1825 H1833 0.960 . S
C1826 C1824 1.381 . S
C1826 C1827 1.394 . S
C1826 H1834 0.930 . S
C1827 C1826 1.394 . S
C1827 C1828 1.383 . S
C1827 H1835 0.929 . S
C1828 C1827 1.383 . S
C1828 C1829 1.377 . S
C1829 H1813 0.930 . S
C1829 C1828 1.377 . S
C1829 C1830 1.379 . S
C1830 H1814 0.931 . S
C1830 C1824 1.383 . S
C1830 C1829 1.379 . S
H1831 C1825 0.959 . S
H1832 C1825 0.961 . S
H1833 C1825 0.960 . S
H1834 C1826 0.930 . S
H1835 C1827 0.929 . S
H1836 C1844 0.929 . S
H1837 C1846 0.930 . S
H1838 C1848 0.930 . S
H1839 C1851 0.929 . S
H1840 C1854 0.930 . S
H1841 C1856 0.960 . S
H1842 C1856 0.960 . S
H1843 C1856 0.960 . S
C1844 H1836 0.929 . S
C1844 C1845 1.377 . S
C1844 C1846 1.384 . S
C1845 C1844 1.377 . S
C1845 C1851 1.390 . S
C1846 H1837 0.930 . S
C1846 C1844 1.384 . S
C1846 C1847 1.372 . S
C1847 C1846 1.372 . S
C1847 C1848 1.400 . S
C1847 C1852 1.490 . S
C1848 H1838 0.930 . S
C1848 C1847 1.400 . S
C1848 C1851 1.386 . S
H1849 C1865 0.930 . S
H1850 C1866 0.931 . S
C1851 H1839 0.929 . S
C1851 C1845 1.390 . S
C1851 C1848 1.386 . S
C1852 C1847 1.490 . S
C1852 C1854 1.395 . S
C1852 C1855 1.403 . S
H1853 C1859 0.930 . S
C1854 H1840 0.930 . S
C1854 C1852 1.395 . S
C1854 C1857 1.403 . S
C1855 C1852 1.403 . S
C1855 C1856 1.524 . S
C1855 C1859 1.400 . S
C1856 H1841 0.960 . S
C1856 H1842 0.960 . S
C1856 H1843 0.960 . S
C1856 C1855 1.524 . S
C1857 C1854 1.403 . S
C1857 C1858 1.392 . S
C1857 C1861 1.495 . S
C1858 C1857 1.392 . S
C1858 C1859 1.385 . S
C1858 C1860 1.478 . S
C1859 H1853 0.930 . S
C1859 C1855 1.400 . S
C1859 C1858 1.385 . S
C1860 C1858 1.478 . S
C1860 C1862 1.381 . S
C1860 C1866 1.383 . S
C1861 C1857 1.495 . S
C1861 H1867 0.959 . S
C1861 H1868 0.961 . S
C1861 H1869 0.960 . S
C1862 C1860 1.381 . S
C1862 C1863 1.394 . S
C1862 H1870 0.930 . S
C1863 C1862 1.394 . S
C1863 C1864 1.383 . S
C1863 H1871 0.929 . S
C1864 C1863 1.383 . S
C1864 C1865 1.377 . S
C1865 H1849 0.930 . S
C1865 C1864 1.377 . S
C1865 C1866 1.379 . S
C1866 H1850 0.931 . S
C1866 C1860 1.383 . S
C1866 C1865 1.379 . S
H1867 C1861 0.959 . S
H1868 C1861 0.961 . S
H1869 C1861 0.960 . S
H1870 C1862 0.930 . S
H1871 C1863 0.929 . S
H1872 C1880 0.929 . S
H1873 C1882 0.930 . S
H1874 C1884 0.930 . S
H1875 C1887 0.929 . S
H1876 C1890 0.930 . S
H1877 C1892 0.960 . S
H1878 C1892 0.960 . S
H1879 C1892 0.960 . S
C1880 H1872 0.929 . S
C1880 C1881 1.377 . S
C1880 C1882 1.384 . S
C1881 C1880 1.377 . S
C1881 C1887 1.390 . S
C1882 H1873 0.930 . S
C1882 C1880 1.384 . S
C1882 C1883 1.372 . S
C1883 C1882 1.372 . S
C1883 C1884 1.400 . S
C1883 C1888 1.490 . S
C1884 H1874 0.930 . S
C1884 C1883 1.400 . S
C1884 C1887 1.386 . S
H1885 C1901 0.930 . S
H1886 C1902 0.931 . S
C1887 H1875 0.929 . S
C1887 C1881 1.390 . S
C1887 C1884 1.386 . S
C1888 C1883 1.490 . S
C1888 C1890 1.395 . S
C1888 C1891 1.403 . S
H1889 C1895 0.930 . S
C1890 H1876 0.930 . S
C1890 C1888 1.395 . S
C1890 C1893 1.403 . S
C1891 C1888 1.403 . S
C1891 C1892 1.524 . S
C1891 C1895 1.400 . S
C1892 H1877 0.960 . S
C1892 H1878 0.960 . S
C1892 H1879 0.960 . S
C1892 C1891 1.524 . S
C1893 C1890 1.403 . S
C1893 C1894 1.392 . S
C1893 C1897 1.495 . S
C1894 C1893 1.392 . S
C1894 C1895 1.385 . S
C1894 C1896 1.478 . S
C1895 H1889 0.930 . S
C1895 C1891 1.400 . S
C1895 C1894 1.385 . S
C1896 C1894 1.478 . S
C1896 C1898 1.381 . S
C1896 C1902 1.383 . S
C1897 C1893 1.495 . S
C1897 H1903 0.959 . S
C1897 H1904 0.961 . S
C1897 H1905 0.960 . S
C1898 C1896 1.381 . S
C1898 C1899 1.394 . S
C1898 H1906 0.930 . S
C1899 C1898 1.394 . S
C1899 C1900 1.383 . S
C1899 H1907 0.929 . S
C1900 C1899 1.383 . S
C1900 C1901 1.377 . S
C1901 H1885 0.930 . S
C1901 C1900 1.377 . S
C1901 C1902 1.379 . S
C1902 H1886 0.931 . S
C1902 C1896 1.383 . S
C1902 C1901 1.379 . S
H1903 C1897 0.959 . S
H1904 C1897 0.961 . S
H1905 C1897 0.960 . S
H1906 C1898 0.930 . S
H1907 C1899 0.929 . S
H1908 C1916 0.929 . S
H1909 C1918 0.930 . S
H1910 C1920 0.930 . S
H1911 C1923 0.929 . S
H1912 C1926 0.930 . S
H1913 C1928 0.960 . S
H1914 C1928 0.960 . S
H1915 C1928 0.960 . S
C1916 H1908 0.929 . S
C1916 C1917 1.377 . S
C1916 C1918 1.384 . S
C1917 C1916 1.377 . S
C1917 C1923 1.390 . S
C1918 H1909 0.930 . S
C1918 C1916 1.384 . S
C1918 C1919 1.372 . S
C1919 C1918 1.372 . S
C1919 C1920 1.400 . S
C1919 C1924 1.490 . S
C1920 H1910 0.930 . S
C1920 C1919 1.400 . S
C1920 C1923 1.386 . S
H1921 C1937 0.930 . S
H1922 C1938 0.931 . S
C1923 H1911 0.929 . S
C1923 C1917 1.390 . S
C1923 C1920 1.386 . S
C1924 C1919 1.490 . S
C1924 C1926 1.395 . S
C1924 C1927 1.403 . S
H1925 C1931 0.930 . S
C1926 H1912 0.930 . S
C1926 C1924 1.395 . S
C1926 C1929 1.403 . S
C1927 C1924 1.403 . S
C1927 C1928 1.524 . S
C1927 C1931 1.400 . S
C1928 H1913 0.960 . S
C1928 H1914 0.960 . S
C1928 H1915 0.960 . S
C1928 C1927 1.524 . S
C1929 C1926 1.403 . S
C1929 C1930 1.392 . S
C1929 C1933 1.495 . S
C1930 C1929 1.392 . S
C1930 C1931 1.385 . S
C1930 C1932 1.478 . S
C1931 H1925 0.930 . S
C1931 C1927 1.400 . S
C1931 C1930 1.385 . S
C1932 C1930 1.478 . S
C1932 C1934 1.381 . S
C1932 C1938 1.383 . S
C1933 C1929 1.495 . S
C1933 H1939 0.959 . S
C1933 H1940 0.961 . S
C1933 H1941 0.960 . S
C1934 C1932 1.381 . S
C1934 C1935 1.394 . S
C1934 H1942 0.930 . S
C1935 C1934 1.394 . S
C1935 C1936 1.383 . S
C1935 H1943 0.929 . S
C1936 C1935 1.383 . S
C1936 C1937 1.377 . S
C1937 H1921 0.930 . S
C1937 C1936 1.377 . S
C1937 C1938 1.379 . S
C1938 H1922 0.931 . S
C1938 C1932 1.383 . S
C1938 C1937 1.379 . S
H1939 C1933 0.959 . S
H1940 C1933 0.961 . S
H1941 C1933 0.960 . S
H1942 C1934 0.930 . S
H1943 C1935 0.929 . S
H1944 C1952 0.929 . S
H1945 C1954 0.930 . S
H1946 C1956 0.930 . S
H1947 C1959 0.929 . S
H1948 C1962 0.930 . S
H1949 C1964 0.960 . S
H1950 C1964 0.960 . S
H1951 C1964 0.960 . S
C1952 H1944 0.929 . S
C1952 C1953 1.377 . S
C1952 C1954 1.384 . S
C1953 C1952 1.377 . S
C1953 C1959 1.390 . S
C1954 H1945 0.930 . S
C1954 C1952 1.384 . S
C1954 C1955 1.372 . S
C1955 C1954 1.372 . S
C1955 C1956 1.400 . S
C1955 C1960 1.490 . S
C1956 H1946 0.930 . S
C1956 C1955 1.400 . S
C1956 C1959 1.386 . S
H1957 C1973 0.930 . S
H1958 C1974 0.931 . S
C1959 H1947 0.929 . S
C1959 C1953 1.390 . S
C1959 C1956 1.386 . S
C1960 C1955 1.490 . S
C1960 C1962 1.395 . S
C1960 C1963 1.403 . S
H1961 C1967 0.930 . S
C1962 H1948 0.930 . S
C1962 C1960 1.395 . S
C1962 C1965 1.403 . S
C1963 C1960 1.403 . S
C1963 C1964 1.524 . S
C1963 C1967 1.400 . S
C1964 H1949 0.960 . S
C1964 H1950 0.960 . S
C1964 H1951 0.960 . S
C1964 C1963 1.524 . S
C1965 C1962 1.403 . S
C1965 C1966 1.392 . S
C1965 C1969 1.495 . S
C1966 C1965 1.392 . S
C1966 C1967 1.385 . S
C1966 C1968 1.478 . S
C1967 H1961 0.930 . S
C1967 C1963 1.400 . S
C1967 C1966 1.385 . S
C1968 C1966 1.478 . S
C1968 C1970 1.381 . S
C1968 C1974 1.383 . S
C1969 C1965 1.495 . S
C1969 H1975 0.959 . S
C1969 H1976 0.961 . S
C1969 H1977 0.960 . S
C1970 C1968 1.381 . S
C1970 C1971 1.394 . S
C1970 H1978 0.930 . S
C1971 C1970 1.394 . S
C1971 C1972 1.383 . S
C1971 H1979 0.929 . S
C1972 C1971 1.383 . S
C1972 C1973 1.377 . S
C1973 H1957 0.930 . S
C1973 C1972 1.377 . S
C1973 C1974 1.379 . S
C1974 H1958 0.931 . S
C1974 C1968 1.383 . S
C1974 C1973 1.379 . S
H1975 C1969 0.959 . S
H1976 C1969 0.961 . S
H1977 C1969 0.960 . S
H1978 C1970 0.930 . S
H1979 C1971 0.929 . S
H1980 C1988 0.929 . S
H1981 C1990 0.930 . S
H1982 C1992 0.930 . S
H1983 C1995 0.929 . S
H1984 C1998 0.930 . S
H1985 C2000 0.960 . S
H1986 C2000 0.960 . S
H1987 C2000 0.960 . S
C1988 H1980 0.929 . S
C1988 C1989 1.377 . S
C1988 C1990 1.384 . S
C1989 C1988 1.377 . S
C1989 C1995 1.390 . S
C1990 H1981 0.930 . S
C1990 C1988 1.384 . S
C1990 C1991 1.372 . S
C1991 C1990 1.372 . S
C1991 C1992 1.400 . S
C1991 C1996 1.490 . S
C1992 H1982 0.930 . S
C1992 C1991 1.400 . S
C1992 C1995 1.386 . S
H1993 C2009 0.930 . S
H1994 C2010 0.931 . S
C1995 H1983 0.929 . S
C1995 C1989 1.390 . S
C1995 C1992 1.386 . S
C1996 C1991 1.490 . S
C1996 C1998 1.395 . S
C1996 C1999 1.403 . S
H1997 C2003 0.930 . S
C1998 H1984 0.930 . S
C1998 C1996 1.395 . S
C1998 C2001 1.403 . S
C1999 C1996 1.403 . S
C1999 C2000 1.524 . S
C1999 C2003 1.400 . S
C2000 H1985 0.960 . S
C2000 H1986 0.960 . S
C2000 H1987 0.960 . S
C2000 C1999 1.524 . S
C2001 C1998 1.403 . S
C2001 C2002 1.392 . S
C2001 C2005 1.495 . S
C2002 C2001 1.392 . S
C2002 C2003 1.385 . S
C2002 C2004 1.478 . S
C2003 H1997 0.930 . S
C2003 C1999 1.400 . S
C2003 C2002 1.385 . S
C2004 C2002 1.478 . S
C2004 C2006 1.381 . S
C2004 C2010 1.383 . S
C2005 C2001 1.495 . S
C2005 H2011 0.959 . S
C2005 H2012 0.961 . S
C2005 H2013 0.960 . S
C2006 C2004 1.381 . S
C2006 C2007 1.394 . S
C2006 H2014 0.930 . S
C2007 C2006 1.394 . S
C2007 C2008 1.383 . S
C2007 H2015 0.929 . S
C2008 C2007 1.383 . S
C2008 C2009 1.377 . S
C2009 H1993 0.930 . S
C2009 C2008 1.377 . S
C2009 C2010 1.379 . S
C2010 H1994 0.931 . S
C2010 C2004 1.383 . S
C2010 C2009 1.379 . S
H2011 C2005 0.959 . S
H2012 C2005 0.961 . S
H2013 C2005 0.960 . S
H2014 C2006 0.930 . S
H2015 C2007 0.929 . S
H2016 C2024 0.929 . S
H2017 C2026 0.930 . S
H2018 C2028 0.930 . S
H2019 C2031 0.929 . S
H2020 C2034 0.930 . S
H2021 C2036 0.960 . S
H2022 C2036 0.960 . S
H2023 C2036 0.960 . S
C2024 H2016 0.929 . S
C2024 C2025 1.377 . S
C2024 C2026 1.384 . S
C2025 C2024 1.377 . S
C2025 C2031 1.390 . S
C2026 H2017 0.930 . S
C2026 C2024 1.384 . S
C2026 C2027 1.372 . S
C2027 C2026 1.372 . S
C2027 C2028 1.400 . S
C2027 C2032 1.490 . S
C2028 H2018 0.930 . S
C2028 C2027 1.400 . S
C2028 C2031 1.386 . S
H2029 C2045 0.930 . S
H2030 C2046 0.931 . S
C2031 H2019 0.929 . S
C2031 C2025 1.390 . S
C2031 C2028 1.386 . S
C2032 C2027 1.490 . S
C2032 C2034 1.395 . S
C2032 C2035 1.403 . S
H2033 C2039 0.930 . S
C2034 H2020 0.930 . S
C2034 C2032 1.395 . S
C2034 C2037 1.403 . S
C2035 C2032 1.403 . S
C2035 C2036 1.524 . S
C2035 C2039 1.400 . S
C2036 H2021 0.960 . S
C2036 H2022 0.960 . S
C2036 H2023 0.960 . S
C2036 C2035 1.524 . S
C2037 C2034 1.403 . S
C2037 C2038 1.392 . S
C2037 C2041 1.495 . S
C2038 C2037 1.392 . S
C2038 C2039 1.385 . S
C2038 C2040 1.478 . S
C2039 H2033 0.930 . S
C2039 C2035 1.400 . S
C2039 C2038 1.385 . S
C2040 C2038 1.478 . S
C2040 C2042 1.381 . S
C2040 C2046 1.383 . S
C2041 C2037 1.495 . S
C2041 H2047 0.959 . S
C2041 H2048 0.961 . S
C2041 H2049 0.960 . S
C2042 C2040 1.381 . S
C2042 C2043 1.394 . S
C2042 H2050 0.930 . S
C2043 C2042 1.394 . S
C2043 C2044 1.383 . S
C2043 H2051 0.929 . S
C2044 C2043 1.383 . S
C2044 C2045 1.377 . S
C2045 H2029 0.930 . S
C2045 C2044 1.377 . S
C2045 C2046 1.379 . S
C2046 H2030 0.931 . S
C2046 C2040 1.383 . S
C2046 C2045 1.379 . S
H2047 C2041 0.959 . S
H2048 C2041 0.961 . S
H2049 C2041 0.960 . S
H2050 C2042 0.930 . S
H2051 C2043 0.929 . S
H2052 C2060 0.929 . S
H2053 C2062 0.930 . S
H2054 C2064 0.930 . S
H2055 C2067 0.929 . S
H2056 C2070 0.930 . S
H2057 C2072 0.960 . S
H2058 C2072 0.960 . S
H2059 C2072 0.960 . S
C2060 H2052 0.929 . S
C2060 C2061 1.377 . S
C2060 C2062 1.384 . S
C2061 C2060 1.377 . S
C2061 C2067 1.390 . S
C2062 H2053 0.930 . S
C2062 C2060 1.384 . S
C2062 C2063 1.372 . S
C2063 C2062 1.372 . S
C2063 C2064 1.400 . S
C2063 C2068 1.490 . S
C2064 H2054 0.930 . S
C2064 C2063 1.400 . S
C2064 C2067 1.386 . S
H2065 C2081 0.930 . S
H2066 C2082 0.931 . S
C2067 H2055 0.929 . S
C2067 C2061 1.390 . S
C2067 C2064 1.386 . S
C2068 C2063 1.490 . S
C2068 C2070 1.395 . S
C2068 C2071 1.403 . S
H2069 C2075 0.930 . S
C2070 H2056 0.930 . S
C2070 C2068 1.395 . S
C2070 C2073 1.403 . S
C2071 C2068 1.403 . S
C2071 C2072 1.524 . S
C2071 C2075 1.400 . S
C2072 H2057 0.960 . S
C2072 H2058 0.960 . S
C2072 H2059 0.960 . S
C2072 C2071 1.524 . S
C2073 C2070 1.403 . S
C2073 C2074 1.392 . S
C2073 C2077 1.495 . S
C2074 C2073 1.392 . S
C2074 C2075 1.385 . S
C2074 C2076 1.478 . S
C2075 H2069 0.930 . S
C2075 C2071 1.400 . S
C2075 C2074 1.385 . S
C2076 C2074 1.478 . S
C2076 C2078 1.381 . S
C2076 C2082 1.383 . S
C2077 C2073 1.495 . S
C2077 H2083 0.959 . S
C2077 H2084 0.961 . S
C2077 H2085 0.960 . S
C2078 C2076 1.381 . S
C2078 C2079 1.394 . S
C2078 H2086 0.930 . S
C2079 C2078 1.394 . S
C2079 C2080 1.383 . S
C2079 H2087 0.929 . S
C2080 C2079 1.383 . S
C2080 C2081 1.377 . S
C2081 H2065 0.930 . S
C2081 C2080 1.377 . S
C2081 C2082 1.379 . S
C2082 H2066 0.931 . S
C2082 C2076 1.383 . S
C2082 C2081 1.379 . S
H2083 C2077 0.959 . S
H2084 C2077 0.961 . S
H2085 C2077 0.960 . S
H2086 C2078 0.930 . S
H2087 C2079 0.929 . S
H2088 C2096 0.929 . S
H2089 C2098 0.930 . S
H2090 C2100 0.930 . S
H2091 C2103 0.929 . S
H2092 C2106 0.930 . S
H2093 C2108 0.960 . S
H2094 C2108 0.960 . S
H2095 C2108 0.960 . S
C2096 H2088 0.929 . S
C2096 C2097 1.377 . S
C2096 C2098 1.384 . S
C2097 C2096 1.377 . S
C2097 C2103 1.390 . S
C2098 H2089 0.930 . S
C2098 C2096 1.384 . S
C2098 C2099 1.372 . S
C2099 C2098 1.372 . S
C2099 C2100 1.400 . S
C2099 C2104 1.490 . S
C2100 H2090 0.930 . S
C2100 C2099 1.400 . S
C2100 C2103 1.386 . S
H2101 C2117 0.930 . S
H2102 C2118 0.931 . S
C2103 H2091 0.929 . S
C2103 C2097 1.390 . S
C2103 C2100 1.386 . S
C2104 C2099 1.490 . S
C2104 C2106 1.395 . S
C2104 C2107 1.403 . S
H2105 C2111 0.930 . S
C2106 H2092 0.930 . S
C2106 C2104 1.395 . S
C2106 C2109 1.403 . S
C2107 C2104 1.403 . S
C2107 C2108 1.524 . S
C2107 C2111 1.400 . S
C2108 H2093 0.960 . S
C2108 H2094 0.960 . S
C2108 H2095 0.960 . S
C2108 C2107 1.524 . S
C2109 C2106 1.403 . S
C2109 C2110 1.392 . S
C2109 C2113 1.495 . S
C2110 C2109 1.392 . S
C2110 C2111 1.385 . S
C2110 C2112 1.478 . S
C2111 H2105 0.930 . S
C2111 C2107 1.400 . S
C2111 C2110 1.385 . S
C2112 C2110 1.478 . S
C2112 C2114 1.381 . S
C2112 C2118 1.383 . S
C2113 C2109 1.495 . S
C2113 H2119 0.959 . S
C2113 H2120 0.961 . S
C2113 H2121 0.960 . S
C2114 C2112 1.381 . S
C2114 C2115 1.394 . S
C2114 H2122 0.930 . S
C2115 C2114 1.394 . S
C2115 C2116 1.383 . S
C2115 H2123 0.929 . S
C2116 C2115 1.383 . S
C2116 C2117 1.377 . S
C2117 H2101 0.930 . S
C2117 C2116 1.377 . S
C2117 C2118 1.379 . S
C2118 H2102 0.931 . S
C2118 C2112 1.383 . S
C2118 C2117 1.379 . S
H2119 C2113 0.959 . S
H2120 C2113 0.961 . S
H2121 C2113 0.960 . S
H2122 C2114 0.930 . S
H2123 C2115 0.929 . S
H2124 C2132 0.929 . S
H2125 C2134 0.930 . S
H2126 C2136 0.930 . S
H2127 C2139 0.929 . S
H2128 C2142 0.930 . S
H2129 C2144 0.960 . S
H2130 C2144 0.960 . S
H2131 C2144 0.960 . S
C2132 H2124 0.929 . S
C2132 C2133 1.377 . S
C2132 C2134 1.384 . S
C2133 C2132 1.377 . S
C2133 C2139 1.390 . S
C2134 H2125 0.930 . S
C2134 C2132 1.384 . S
C2134 C2135 1.372 . S
C2135 C2134 1.372 . S
C2135 C2136 1.400 . S
C2135 C2140 1.490 . S
C2136 H2126 0.930 . S
C2136 C2135 1.400 . S
C2136 C2139 1.386 . S
H2137 C2153 0.930 . S
H2138 C2154 0.931 . S
C2139 H2127 0.929 . S
C2139 C2133 1.390 . S
C2139 C2136 1.386 . S
C2140 C2135 1.490 . S
C2140 C2142 1.395 . S
C2140 C2143 1.403 . S
H2141 C2147 0.930 . S
C2142 H2128 0.930 . S
C2142 C2140 1.395 . S
C2142 C2145 1.403 . S
C2143 C2140 1.403 . S
C2143 C2144 1.524 . S
C2143 C2147 1.400 . S
C2144 H2129 0.960 . S
C2144 H2130 0.960 . S
C2144 H2131 0.960 . S
C2144 C2143 1.524 . S
C2145 C2142 1.403 . S
C2145 C2146 1.392 . S
C2145 C2149 1.495 . S
C2146 C2145 1.392 . S
C2146 C2147 1.385 . S
C2146 C2148 1.478 . S
C2147 H2141 0.930 . S
C2147 C2143 1.400 . S
C2147 C2146 1.385 . S
C2148 C2146 1.478 . S
C2148 C2150 1.381 . S
C2148 C2154 1.383 . S
C2149 C2145 1.495 . S
C2149 H2155 0.959 . S
C2149 H2156 0.961 . S
C2149 H2157 0.960 . S
C2150 C2148 1.381 . S
C2150 C2151 1.394 . S
C2150 H2158 0.930 . S
C2151 C2150 1.394 . S
C2151 C2152 1.383 . S
C2151 H2159 0.929 . S
C2152 C2151 1.383 . S
C2152 C2153 1.377 . S
C2153 H2137 0.930 . S
C2153 C2152 1.377 . S
C2153 C2154 1.379 . S
C2154 H2138 0.931 . S
C2154 C2148 1.383 . S
C2154 C2153 1.379 . S
H2155 C2149 0.959 . S
H2156 C2149 0.961 . S
H2157 C2149 0.960 . S
H2158 C2150 0.930 . S
H2159 C2151 0.929 . S
H2160 C2168 0.929 . S
H2161 C2170 0.930 . S
H2162 C2172 0.930 . S
H2163 C2175 0.929 1_554 S
H2164 C2178 0.930 . S
H2165 C2180 0.960 . S
H2166 C2180 0.960 . S
H2167 C2180 0.960 . S
C2168 H2160 0.929 . S
C2168 C2169 1.377 . S
C2168 C2170 1.384 . S
C2169 C2168 1.377 . S
C2169 C2175 1.390 . S
C2170 H2161 0.930 . S
C2170 C2168 1.384 . S
C2170 C2171 1.372 . S
C2171 C2170 1.372 . S
C2171 C2172 1.400 . S
C2171 C2176 1.490 . S
C2172 H2162 0.930 . S
C2172 C2171 1.400 . S
C2172 C2175 1.386 . S
H2173 C2189 0.930 . S
H2174 C2190 0.931 . S
C2175 H2163 0.929 1_556 S
C2175 C2169 1.390 . S
C2175 C2172 1.386 . S
C2176 C2171 1.490 . S
C2176 C2178 1.395 . S
C2176 C2179 1.403 . S
H2177 C2183 0.930 . S
C2178 H2164 0.930 . S
C2178 C2176 1.395 . S
C2178 C2181 1.403 . S
C2179 C2176 1.403 . S
C2179 C2180 1.524 . S
C2179 C2183 1.400 . S
C2180 H2165 0.960 . S
C2180 H2166 0.960 . S
C2180 H2167 0.960 . S
C2180 C2179 1.524 . S
C2181 C2178 1.403 . S
C2181 C2182 1.392 . S
C2181 C2185 1.495 . S
C2182 C2181 1.392 . S
C2182 C2183 1.385 . S
C2182 C2184 1.478 . S
C2183 H2177 0.930 . S
C2183 C2179 1.400 . S
C2183 C2182 1.385 . S
C2184 C2182 1.478 . S
C2184 C2186 1.381 . S
C2184 C2190 1.383 . S
C2185 C2181 1.495 . S
C2185 H2191 0.959 . S
C2185 H2192 0.961 . S
C2185 H2193 0.960 . S
C2186 C2184 1.381 . S
C2186 C2187 1.394 . S
C2186 H2194 0.930 . S
C2187 C2186 1.394 . S
C2187 C2188 1.383 . S
C2187 H2195 0.929 . S
C2188 C2187 1.383 . S
C2188 C2189 1.377 . S
C2189 H2173 0.930 . S
C2189 C2188 1.377 . S
C2189 C2190 1.379 . S
C2190 H2174 0.931 . S
C2190 C2184 1.383 . S
C2190 C2189 1.379 . S
H2191 C2185 0.959 . S
H2192 C2185 0.961 . S
H2193 C2185 0.960 . S
H2194 C2186 0.930 . S
H2195 C2187 0.929 . S
H2196 C2204 0.929 . S
H2197 C2206 0.930 . S
H2198 C2208 0.930 . S
H2199 C2211 0.929 . S
H2200 C2214 0.930 . S
H2201 C2216 0.960 . S
H2202 C2216 0.960 . S
H2203 C2216 0.960 . S
C2204 H2196 0.929 . S
C2204 C2205 1.377 . S
C2204 C2206 1.384 . S
C2205 C2204 1.377 . S
C2205 C2211 1.390 . S
C2206 H2197 0.930 . S
C2206 C2204 1.384 . S
C2206 C2207 1.372 . S
C2207 C2206 1.372 . S
C2207 C2208 1.400 . S
C2207 C2212 1.490 . S
C2208 H2198 0.930 . S
C2208 C2207 1.400 . S
C2208 C2211 1.386 . S
H2209 C2225 0.930 . S
H2210 C2226 0.931 . S
C2211 H2199 0.929 . S
C2211 C2205 1.390 . S
C2211 C2208 1.386 . S
C2212 C2207 1.490 . S
C2212 C2214 1.395 . S
C2212 C2215 1.403 . S
H2213 C2219 0.930 . S
C2214 H2200 0.930 . S
C2214 C2212 1.395 . S
C2214 C2217 1.403 . S
C2215 C2212 1.403 . S
C2215 C2216 1.524 . S
C2215 C2219 1.400 . S
C2216 H2201 0.960 . S
C2216 H2202 0.960 . S
C2216 H2203 0.960 . S
C2216 C2215 1.524 . S
C2217 C2214 1.403 . S
C2217 C2218 1.392 . S
C2217 C2221 1.495 . S
C2218 C2217 1.392 . S
C2218 C2219 1.385 . S
C2218 C2220 1.478 . S
C2219 H2213 0.930 . S
C2219 C2215 1.400 . S
C2219 C2218 1.385 . S
C2220 C2218 1.478 . S
C2220 C2222 1.381 . S
C2220 C2226 1.383 . S
C2221 C2217 1.495 . S
C2221 H2227 0.959 . S
C2221 H2228 0.961 . S
C2221 H2229 0.960 . S
C2222 C2220 1.381 . S
C2222 C2223 1.394 . S
C2222 H2230 0.930 . S
C2223 C2222 1.394 . S
C2223 C2224 1.383 . S
C2223 H2231 0.929 . S
C2224 C2223 1.383 . S
C2224 C2225 1.377 . S
C2225 H2209 0.930 . S
C2225 C2224 1.377 . S
C2225 C2226 1.379 . S
C2226 H2210 0.931 . S
C2226 C2220 1.383 . S
C2226 C2225 1.379 . S
H2227 C2221 0.959 . S
H2228 C2221 0.961 . S
H2229 C2221 0.960 . S
H2230 C2222 0.930 . S
H2231 C2223 0.929 . S
H2232 C2240 0.929 . S
H2233 C2242 0.930 . S
H2234 C2244 0.930 . S
H2235 C2247 0.929 . S
H2236 C2250 0.930 . S
H2237 C2252 0.960 . S
H2238 C2252 0.960 . S
H2239 C2252 0.960 . S
C2240 H2232 0.929 . S
C2240 C2241 1.377 . S
C2240 C2242 1.384 . S
C2241 C2240 1.377 . S
C2241 C2247 1.390 . S
C2242 H2233 0.930 . S
C2242 C2240 1.384 . S
C2242 C2243 1.372 . S
C2243 C2242 1.372 . S
C2243 C2244 1.400 . S
C2243 C2248 1.490 . S
C2244 H2234 0.930 . S
C2244 C2243 1.400 . S
C2244 C2247 1.386 . S
H2245 C2261 0.930 . S
H2246 C2262 0.931 . S
C2247 H2235 0.929 . S
C2247 C2241 1.390 . S
C2247 C2244 1.386 . S
C2248 C2243 1.490 . S
C2248 C2250 1.395 . S
C2248 C2251 1.403 . S
H2249 C2255 0.930 . S
C2250 H2236 0.930 . S
C2250 C2248 1.395 . S
C2250 C2253 1.403 . S
C2251 C2248 1.403 . S
C2251 C2252 1.524 . S
C2251 C2255 1.400 . S
C2252 H2237 0.960 . S
C2252 H2238 0.960 . S
C2252 H2239 0.960 . S
C2252 C2251 1.524 . S
C2253 C2250 1.403 . S
C2253 C2254 1.392 . S
C2253 C2257 1.495 . S
C2254 C2253 1.392 . S
C2254 C2255 1.385 . S
C2254 C2256 1.478 . S
C2255 H2249 0.930 . S
C2255 C2251 1.400 . S
C2255 C2254 1.385 . S
C2256 C2254 1.478 . S
C2256 C2258 1.381 . S
C2256 C2262 1.383 . S
C2257 C2253 1.495 . S
C2257 H2263 0.959 . S
C2257 H2264 0.961 . S
C2257 H2265 0.960 . S
C2258 C2256 1.381 . S
C2258 C2259 1.394 . S
C2258 H2266 0.930 . S
C2259 C2258 1.394 . S
C2259 C2260 1.383 . S
C2259 H2267 0.929 . S
C2260 C2259 1.383 . S
C2260 C2261 1.377 . S
C2261 H2245 0.930 . S
C2261 C2260 1.377 . S
C2261 C2262 1.379 . S
C2262 H2246 0.931 . S
C2262 C2256 1.383 . S
C2262 C2261 1.379 . S
H2263 C2257 0.959 . S
H2264 C2257 0.961 . S
H2265 C2257 0.960 . S
H2266 C2258 0.930 . S
H2267 C2259 0.929 . S
H2268 C2276 0.929 . S
H2269 C2278 0.930 . S
H2270 C2280 0.930 . S
H2271 C2283 0.929 . S
H2272 C2286 0.930 . S
H2273 C2288 0.960 . S
H2274 C2288 0.960 . S
H2275 C2288 0.960 . S
C2276 H2268 0.929 . S
C2276 C2277 1.377 . S
C2276 C2278 1.384 . S
C2277 C2276 1.377 . S
C2277 C2283 1.390 . S
C2278 H2269 0.930 . S
C2278 C2276 1.384 . S
C2278 C2279 1.372 . S
C2279 C2278 1.372 . S
C2279 C2280 1.400 . S
C2279 C2284 1.490 . S
C2280 H2270 0.930 . S
C2280 C2279 1.400 . S
C2280 C2283 1.386 . S
H2281 C2297 0.930 . S
H2282 C2298 0.931 . S
C2283 H2271 0.929 . S
C2283 C2277 1.390 . S
C2283 C2280 1.386 . S
C2284 C2279 1.490 . S
C2284 C2286 1.395 . S
C2284 C2287 1.403 . S
H2285 C2291 0.930 . S
C2286 H2272 0.930 . S
C2286 C2284 1.395 . S
C2286 C2289 1.403 . S
C2287 C2284 1.403 . S
C2287 C2288 1.524 . S
C2287 C2291 1.400 . S
C2288 H2273 0.960 . S
C2288 H2274 0.960 . S
C2288 H2275 0.960 . S
C2288 C2287 1.524 . S
C2289 C2286 1.403 . S
C2289 C2290 1.392 . S
C2289 C2293 1.495 . S
C2290 C2289 1.392 . S
C2290 C2291 1.385 . S
C2290 C2292 1.478 . S
C2291 H2285 0.930 . S
C2291 C2287 1.400 . S
C2291 C2290 1.385 . S
C2292 C2290 1.478 . S
C2292 C2294 1.381 . S
C2292 C2298 1.383 . S
C2293 C2289 1.495 . S
C2293 H2299 0.959 . S
C2293 H2300 0.961 . S
C2293 H2301 0.960 . S
C2294 C2292 1.381 . S
C2294 C2295 1.394 . S
C2294 H2302 0.930 . S
C2295 C2294 1.394 . S
C2295 C2296 1.383 . S
C2295 H2303 0.929 . S
C2296 C2295 1.383 . S
C2296 C2297 1.377 . S
C2297 H2281 0.930 . S
C2297 C2296 1.377 . S
C2297 C2298 1.379 . S
C2298 H2282 0.931 . S
C2298 C2292 1.383 . S
C2298 C2297 1.379 . S
H2299 C2293 0.959 . S
H2300 C2293 0.961 . S
H2301 C2293 0.960 . S
H2302 C2294 0.930 . S
H2303 C2295 0.929 . S
H2304 C2312 0.929 . S
H2305 C2314 0.930 . S
H2306 C2316 0.930 . S
H2307 C2319 0.929 . S
H2308 C2322 0.930 . S
H2309 C2324 0.960 . S
H2310 C2324 0.960 . S
H2311 C2324 0.960 . S
C2312 H2304 0.929 . S
C2312 C2313 1.377 . S
C2312 C2314 1.384 . S
C2313 C2312 1.377 . S
C2313 C2319 1.390 . S
C2314 H2305 0.930 . S
C2314 C2312 1.384 . S
C2314 C2315 1.372 . S
C2315 C2314 1.372 . S
C2315 C2316 1.400 . S
C2315 C2320 1.490 . S
C2316 H2306 0.930 . S
C2316 C2315 1.400 . S
C2316 C2319 1.386 . S
H2317 C2333 0.930 . S
H2318 C2334 0.931 . S
C2319 H2307 0.929 . S
C2319 C2313 1.390 . S
C2319 C2316 1.386 . S
C2320 C2315 1.490 . S
C2320 C2322 1.395 . S
C2320 C2323 1.403 . S
H2321 C2327 0.930 . S
C2322 H2308 0.930 . S
C2322 C2320 1.395 . S
C2322 C2325 1.403 . S
C2323 C2320 1.403 . S
C2323 C2324 1.524 . S
C2323 C2327 1.400 . S
C2324 H2309 0.960 . S
C2324 H2310 0.960 . S
C2324 H2311 0.960 . S
C2324 C2323 1.524 . S
C2325 C2322 1.403 . S
C2325 C2326 1.392 . S
C2325 C2329 1.495 . S
C2326 C2325 1.392 . S
C2326 C2327 1.385 . S
C2326 C2328 1.478 . S
C2327 H2321 0.930 . S
C2327 C2323 1.400 . S
C2327 C2326 1.385 . S
C2328 C2326 1.478 . S
C2328 C2330 1.381 . S
C2328 C2334 1.383 . S
C2329 C2325 1.495 . S
C2329 H2335 0.959 . S
C2329 H2336 0.961 . S
C2329 H2337 0.960 . S
C2330 C2328 1.381 . S
C2330 C2331 1.394 . S
C2330 H2338 0.930 . S
C2331 C2330 1.394 . S
C2331 C2332 1.383 . S
C2331 H2339 0.929 . S
C2332 C2331 1.383 . S
C2332 C2333 1.377 . S
C2333 H2317 0.930 . S
C2333 C2332 1.377 . S
C2333 C2334 1.379 . S
C2334 H2318 0.931 . S
C2334 C2328 1.383 . S
C2334 C2333 1.379 . S
H2335 C2329 0.959 . S
H2336 C2329 0.961 . S
H2337 C2329 0.960 . S
H2338 C2330 0.930 . S
H2339 C2331 0.929 . S
H2340 C2348 0.929 . S
H2341 C2350 0.930 . S
H2342 C2352 0.930 . S
H2343 C2355 0.929 . S
H2344 C2358 0.930 . S
H2345 C2360 0.960 . S
H2346 C2360 0.960 . S
H2347 C2360 0.960 . S
C2348 H2340 0.929 . S
C2348 C2349 1.377 . S
C2348 C2350 1.384 . S
C2349 C2348 1.377 . S
C2349 C2355 1.390 . S
C2350 H2341 0.930 . S
C2350 C2348 1.384 . S
C2350 C2351 1.372 . S
C2351 C2350 1.372 . S
C2351 C2352 1.400 . S
C2351 C2356 1.490 . S
C2352 H2342 0.930 . S
C2352 C2351 1.400 . S
C2352 C2355 1.386 . S
H2353 C2369 0.930 . S
H2354 C2370 0.931 . S
C2355 H2343 0.929 . S
C2355 C2349 1.390 . S
C2355 C2352 1.386 . S
C2356 C2351 1.490 . S
C2356 C2358 1.395 . S
C2356 C2359 1.403 . S
H2357 C2363 0.930 . S
C2358 H2344 0.930 . S
C2358 C2356 1.395 . S
C2358 C2361 1.403 . S
C2359 C2356 1.403 . S
C2359 C2360 1.524 . S
C2359 C2363 1.400 . S
C2360 H2345 0.960 . S
C2360 H2346 0.960 . S
C2360 H2347 0.960 . S
C2360 C2359 1.524 . S
C2361 C2358 1.403 . S
C2361 C2362 1.392 . S
C2361 C2365 1.495 . S
C2362 C2361 1.392 . S
C2362 C2363 1.385 . S
C2362 C2364 1.478 . S
C2363 H2357 0.930 . S
C2363 C2359 1.400 . S
C2363 C2362 1.385 . S
C2364 C2362 1.478 . S
C2364 C2366 1.381 . S
C2364 C2370 1.383 . S
C2365 C2361 1.495 . S
C2365 H2371 0.959 . S
C2365 H2372 0.961 . S
C2365 H2373 0.960 . S
C2366 C2364 1.381 . S
C2366 C2367 1.394 . S
C2366 H2374 0.930 . S
C2367 C2366 1.394 . S
C2367 C2368 1.383 . S
C2367 H2375 0.929 . S
C2368 C2367 1.383 . S
C2368 C2369 1.377 . S
C2369 H2353 0.930 . S
C2369 C2368 1.377 . S
C2369 C2370 1.379 . S
C2370 H2354 0.931 . S
C2370 C2364 1.383 . S
C2370 C2369 1.379 . S
H2371 C2365 0.959 . S
H2372 C2365 0.961 . S
H2373 C2365 0.960 . S
H2374 C2366 0.930 . S
H2375 C2367 0.929 . S
H2376 C2384 0.929 . S
H2377 C2386 0.930 . S
H2378 C2388 0.930 . S
H2379 C2391 0.929 . S
H2380 C2394 0.930 . S
H2381 C2396 0.960 . S
H2382 C2396 0.960 . S
H2383 C2396 0.960 . S
C2384 H2376 0.929 . S
C2384 C2385 1.377 . S
C2384 C2386 1.384 . S
C2385 C2384 1.377 . S
C2385 C2391 1.390 . S
C2386 H2377 0.930 . S
C2386 C2384 1.384 . S
C2386 C2387 1.372 . S
C2387 C2386 1.372 . S
C2387 C2388 1.400 . S
C2387 C2392 1.490 . S
C2388 H2378 0.930 . S
C2388 C2387 1.400 . S
C2388 C2391 1.386 . S
H2389 C2405 0.930 . S
H2390 C2406 0.931 . S
C2391 H2379 0.929 . S
C2391 C2385 1.390 . S
C2391 C2388 1.386 . S
C2392 C2387 1.490 . S
C2392 C2394 1.395 . S
C2392 C2395 1.403 . S
H2393 C2399 0.930 . S
C2394 H2380 0.930 . S
C2394 C2392 1.395 . S
C2394 C2397 1.403 . S
C2395 C2392 1.403 . S
C2395 C2396 1.524 . S
C2395 C2399 1.400 . S
C2396 H2381 0.960 . S
C2396 H2382 0.960 . S
C2396 H2383 0.960 . S
C2396 C2395 1.524 . S
C2397 C2394 1.403 . S
C2397 C2398 1.392 . S
C2397 C2401 1.495 . S
C2398 C2397 1.392 . S
C2398 C2399 1.385 . S
C2398 C2400 1.478 . S
C2399 H2393 0.930 . S
C2399 C2395 1.400 . S
C2399 C2398 1.385 . S
C2400 C2398 1.478 . S
C2400 C2402 1.381 . S
C2400 C2406 1.383 . S
C2401 C2397 1.495 . S
C2401 H2407 0.959 . S
C2401 H2408 0.961 . S
C2401 H2409 0.960 . S
C2402 C2400 1.381 . S
C2402 C2403 1.394 . S
C2402 H2410 0.930 . S
C2403 C2402 1.394 . S
C2403 C2404 1.383 . S
C2403 H2411 0.929 . S
C2404 C2403 1.383 . S
C2404 C2405 1.377 . S
C2405 H2389 0.930 . S
C2405 C2404 1.377 . S
C2405 C2406 1.379 . S
C2406 H2390 0.931 . S
C2406 C2400 1.383 . S
C2406 C2405 1.379 . S
H2407 C2401 0.959 . S
H2408 C2401 0.961 . S
H2409 C2401 0.960 . S
H2410 C2402 0.930 . S
H2411 C2403 0.929 . S
H2412 C2420 0.920 1_655 S
H2413 C2422 0.990 . S
H2414 C2424 0.930 . S
H2415 C2427 0.929 . S
H2416 C2430 0.930 . S
H2417 C2432 0.960 . S
H2418 C2432 0.960 . S
H2419 C2432 0.960 . S
C2420 H2412 0.920 1_455 S
C2420 C2421 1.409 . S
C2420 C2422 1.325 1_455 S
C2421 C2420 1.409 . S
C2421 C2427 1.390 . S
C2422 H2413 0.990 . S
C2422 C2420 1.325 1_655 S
C2422 C2423 1.357 1_655 S
C2423 C2422 1.357 1_455 S
C2423 C2424 1.400 . S
C2423 C2428 1.490 . S
C2424 H2414 0.930 . S
C2424 C2423 1.400 . S
C2424 C2427 1.386 . S
H2425 C2441 0.930 . S
H2426 C2442 0.931 . S
C2427 H2415 0.929 . S
C2427 C2421 1.390 . S
C2427 C2424 1.386 . S
C2428 C2423 1.490 . S
C2428 C2430 1.395 1_455 S
C2428 C2431 1.403 . S
H2429 C2435 0.930 . S
C2430 H2416 0.930 . S
C2430 C2428 1.395 1_655 S
C2430 C2433 1.403 . S
C2431 C2428 1.403 . S
C2431 C2432 1.524 . S
C2431 C2435 1.400 . S
C2432 H2417 0.960 . S
C2432 H2418 0.960 . S
C2432 H2419 0.960 . S
C2432 C2431 1.524 . S
C2433 C2430 1.403 . S
C2433 C2434 1.392 1_655 S
C2433 C2437 1.495 . S
C2434 C2433 1.392 1_455 S
C2434 C2435 1.385 . S
C2434 C2436 1.478 . S
C2435 H2429 0.930 . S
C2435 C2431 1.400 . S
C2435 C2434 1.385 . S
C2436 C2434 1.478 . S
C2436 C2438 1.381 1_455 S
C2436 C2442 1.383 . S
C2437 C2433 1.495 . S
C2437 H2443 0.959 . S
C2437 H2444 0.961 . S
C2437 H2445 0.960 . S
C2438 C2436 1.381 1_655 S
C2438 C2439 1.394 . S
C2438 H2446 0.930 . S
C2439 C2438 1.394 . S
C2439 C2440 1.383 1_655 S
C2439 H2447 0.929 . S
C2440 C2439 1.383 1_455 S
C2440 C2441 1.377 . S
C2441 H2425 0.930 . S
C2441 C2440 1.377 . S
C2441 C2442 1.379 . S
C2442 H2426 0.931 . S
C2442 C2436 1.383 . S
C2442 C2441 1.379 . S
H2443 C2437 0.959 . S
H2444 C2437 0.961 . S
H2445 C2437 0.960 . S
H2446 C2438 0.930 . S
H2447 C2439 0.929 . S
H2448 C2456 0.929 . S
H2449 C2458 0.930 . S
H2450 C2460 0.930 . S
H2451 C2463 0.929 . S
H2452 C2466 0.930 . S
H2453 C2468 0.960 . S
H2454 C2468 0.960 . S
H2455 C2468 0.960 . S
C2456 H2448 0.929 . S
C2456 C2457 1.377 . S
C2456 C2458 1.384 . S
C2457 C2456 1.377 . S
C2457 C2463 1.390 . S
C2458 H2449 0.930 . S
C2458 C2456 1.384 . S
C2458 C2459 1.372 . S
C2459 C2458 1.372 . S
C2459 C2460 1.400 . S
C2459 C2464 1.490 . S
C2460 H2450 0.930 . S
C2460 C2459 1.400 . S
C2460 C2463 1.386 . S
H2461 C2477 0.930 . S
H2462 C2478 0.931 . S
C2463 H2451 0.929 . S
C2463 C2457 1.390 . S
C2463 C2460 1.386 . S
C2464 C2459 1.490 . S
C2464 C2466 1.395 . S
C2464 C2467 1.403 . S
H2465 C2471 0.930 . S
C2466 H2452 0.930 . S
C2466 C2464 1.395 . S
C2466 C2469 1.403 . S
C2467 C2464 1.403 . S
C2467 C2468 1.524 . S
C2467 C2471 1.400 . S
C2468 H2453 0.960 . S
C2468 H2454 0.960 . S
C2468 H2455 0.960 . S
C2468 C2467 1.524 . S
C2469 C2466 1.403 . S
C2469 C2470 1.392 . S
C2469 C2473 1.495 . S
C2470 C2469 1.392 . S
C2470 C2471 1.385 . S
C2470 C2472 1.478 . S
C2471 H2465 0.930 . S
C2471 C2467 1.400 . S
C2471 C2470 1.385 . S
C2472 C2470 1.478 . S
C2472 C2474 1.381 . S
C2472 C2478 1.383 . S
C2473 C2469 1.495 . S
C2473 H2479 0.959 . S
C2473 H2480 0.961 . S
C2473 H2481 0.960 . S
C2474 C2472 1.381 . S
C2474 C2475 1.394 . S
C2474 H2482 0.930 . S
C2475 C2474 1.394 . S
C2475 C2476 1.383 . S
C2475 H2483 0.929 . S
C2476 C2475 1.383 . S
C2476 C2477 1.377 . S
C2477 H2461 0.930 . S
C2477 C2476 1.377 . S
C2477 C2478 1.379 . S
C2478 H2462 0.931 . S
C2478 C2472 1.383 . S
C2478 C2477 1.379 . S
H2479 C2473 0.959 . S
H2480 C2473 0.961 . S
H2481 C2473 0.960 . S
H2482 C2474 0.930 . S
H2483 C2475 0.929 . S
H2484 C2492 0.929 . S
H2485 C2494 0.930 . S
H2486 C2496 0.930 . S
H2487 C2499 0.929 . S
H2488 C2502 0.930 . S
H2489 C2504 0.960 . S
H2490 C2504 0.960 . S
H2491 C2504 0.960 . S
C2492 H2484 0.929 . S
C2492 C2493 1.377 . S
C2492 C2494 1.384 . S
C2493 C2492 1.377 . S
C2493 C2499 1.390 1_565 S
C2494 H2485 0.930 . S
C2494 C2492 1.384 . S
C2494 C2495 1.372 . S
C2495 C2494 1.372 . S
C2495 C2496 1.400 1_565 S
C2495 C2500 1.490 . S
C2496 H2486 0.930 . S
C2496 C2495 1.400 1_545 S
C2496 C2499 1.386 . S
H2497 C2513 0.930 . S
H2498 C2514 0.931 . S
C2499 H2487 0.929 . S
C2499 C2493 1.390 1_545 S
C2499 C2496 1.386 . S
C2500 C2495 1.490 . S
C2500 C2502 1.395 . S
C2500 C2503 1.403 1_565 S
H2501 C2507 0.930 . S
C2502 H2488 0.930 . S
C2502 C2500 1.395 . S
C2502 C2505 1.403 . S
C2503 C2500 1.403 1_545 S
C2503 C2504 1.524 . S
C2503 C2507 1.400 . S
C2504 H2489 0.960 . S
C2504 H2490 0.960 . S
C2504 H2491 0.960 . S
C2504 C2503 1.524 . S
C2505 C2502 1.403 . S
C2505 C2506 1.392 . S
C2505 C2509 1.495 . S
C2506 C2505 1.392 . S
C2506 C2507 1.385 1_565 S
C2506 C2508 1.478 . S
C2507 H2501 0.930 . S
C2507 C2503 1.400 . S
C2507 C2506 1.385 1_545 S
C2508 C2506 1.478 . S
C2508 C2510 1.381 . S
C2508 C2514 1.383 1_565 S
C2509 C2505 1.495 . S
C2509 H2515 0.959 . S
C2509 H2516 0.961 . S
C2509 H2517 0.960 . S
C2510 C2508 1.381 . S
C2510 C2511 1.394 . S
C2510 H2518 0.930 . S
C2511 C2510 1.394 . S
C2511 C2512 1.383 . S
C2511 H2519 0.929 . S
C2512 C2511 1.383 . S
C2512 C2513 1.377 1_565 S
C2513 H2497 0.930 . S
C2513 C2512 1.377 1_545 S
C2513 C2514 1.379 . S
C2514 H2498 0.931 . S
C2514 C2508 1.383 1_545 S
C2514 C2513 1.379 . S
H2515 C2509 0.959 . S
H2516 C2509 0.961 . S
H2517 C2509 0.960 . S
H2518 C2510 0.930 . S
H2519 C2511 0.929 . S
H2520 C2528 0.929 . S
H2521 C2530 0.930 . S
H2522 C2532 0.930 . S
H2523 C2535 0.929 . S
H2524 C2538 0.930 . S
H2525 C2540 0.960 . S
H2526 C2540 0.960 1_545 S
H2527 C2540 0.960 . S
C2528 H2520 0.929 . S
C2528 C2529 1.377 1_545 S
C2528 C2530 1.384 . S
C2529 C2528 1.377 1_565 S
C2529 C2535 1.390 . S
C2530 H2521 0.930 . S
C2530 C2528 1.384 . S
C2530 C2531 1.372 1_545 S
C2531 C2530 1.372 1_565 S
C2531 C2532 1.400 . S
C2531 C2536 1.490 . S
C2532 H2522 0.930 . S
C2532 C2531 1.400 . S
C2532 C2535 1.386 . S
H2533 C2549 0.930 . S
H2534 C2550 0.931 . S
C2535 H2523 0.929 . S
C2535 C2529 1.390 . S
C2535 C2532 1.386 . S
C2536 C2531 1.490 . S
C2536 C2538 1.395 . S
C2536 C2539 1.403 . S
H2537 C2543 0.930 . S
C2538 H2524 0.930 . S
C2538 C2536 1.395 . S
C2538 C2541 1.403 . S
C2539 C2536 1.403 . S
C2539 C2540 1.524 . S
C2539 C2543 1.400 . S
C2540 H2525 0.960 . S
C2540 H2526 0.960 1_565 S
C2540 H2527 0.960 . S
C2540 C2539 1.524 . S
C2541 C2538 1.403 . S
C2541 C2542 1.392 . S
C2541 C2545 1.495 . S
C2542 C2541 1.392 . S
C2542 C2543 1.385 . S
C2542 C2544 1.478 . S
C2543 H2537 0.930 . S
C2543 C2539 1.400 . S
C2543 C2542 1.385 . S
C2544 C2542 1.478 . S
C2544 C2546 1.381 1_565 S
C2544 C2550 1.383 . S
C2545 C2541 1.495 . S
C2545 H2551 0.959 . S
C2545 H2552 0.961 . S
C2545 H2553 0.960 1_565 S
C2546 C2544 1.381 1_545 S
C2546 C2547 1.394 . S
C2546 H2554 0.930 . S
C2547 C2546 1.394 . S
C2547 C2548 1.372 1_545 S
C2547 H2555 0.929 . S
C2548 C2547 1.372 1_565 S
C2548 C2549 1.409 . S
C2549 H2533 0.930 . S
C2549 C2548 1.409 . S
C2549 C2550 1.379 . S
C2550 H2534 0.931 . S
C2550 C2544 1.383 . S
C2550 C2549 1.379 . S
H2551 C2545 0.959 . S
H2552 C2545 0.961 . S
H2553 C2545 0.960 1_545 S
H2554 C2546 0.930 . S
H2555 C2547 0.929 . S
H2556 C2564 0.929 . S
H2557 C2566 0.930 . S
H2558 C2568 0.930 . S
H2559 C2571 0.929 . S
H2560 C2574 0.930 . S
H2561 C2576 0.932 . S
H2562 C2576 1.049 . S
H2563 C2576 0.920 1_455 S
C2564 H2556 0.929 . S
C2564 C2565 1.377 1_655 S
C2564 C2566 1.384 . S
C2565 C2564 1.377 1_455 S
C2565 C2571 1.390 . S
C2566 H2557 0.930 . S
C2566 C2564 1.384 . S
C2566 C2567 1.372 1_655 S
C2567 C2566 1.372 1_455 S
C2567 C2568 1.400 . S
C2567 C2572 1.490 . S
C2568 H2558 0.930 . S
C2568 C2567 1.400 . S
C2568 C2571 1.386 . S
H2569 C2585 0.930 . S
H2570 C2586 0.931 . S
C2571 H2559 0.929 . S
C2571 C2565 1.390 . S
C2571 C2568 1.386 . S
C2572 C2567 1.490 . S
C2572 C2574 1.395 . S
C2572 C2575 1.403 . S
H2573 C2579 0.936 1_655 S
C2574 H2560 0.930 . S
C2574 C2572 1.395 . S
C2574 C2577 1.403 . S
C2575 C2572 1.403 . S
C2575 C2576 1.513 1_455 S
C2575 C2579 1.400 . S
C2576 H2561 0.932 . S
C2576 H2562 1.049 . S
C2576 H2563 0.920 1_655 S
C2576 C2575 1.513 1_655 S
C2577 C2574 1.403 . S
C2577 C2578 1.392 . S
C2577 C2581 1.495 . S
C2578 C2577 1.392 . S
C2578 C2579 1.385 . S
C2578 C2580 1.478 . S
C2579 H2573 0.936 1_455 S
C2579 C2575 1.400 . S
C2579 C2578 1.385 . S
C2580 C2578 1.478 . S
C2580 C2582 1.381 1_455 S
C2580 C2586 1.383 . S
C2581 C2577 1.495 . S
C2581 H2587 0.959 . S
C2581 H2588 0.961 . S
C2581 H2589 0.938 1_455 S
C2582 C2580 1.381 1_655 S
C2582 C2583 1.394 . S
C2582 H2590 0.930 . S
C2583 C2582 1.394 . S
C2583 C2584 1.384 1_655 S
C2583 H2591 0.929 . S
C2584 C2583 1.384 1_455 S
C2584 C2585 1.376 . S
C2585 H2569 0.930 . S
C2585 C2584 1.376 . S
C2585 C2586 1.379 . S
C2586 H2570 0.931 . S
C2586 C2580 1.383 . S
C2586 C2585 1.379 . S
H2587 C2581 0.959 . S
H2588 C2581 0.961 . S
H2589 C2581 0.938 1_655 S
H2590 C2582 0.930 . S
H2591 C2583 0.929 . S
H2592 C2600 0.929 . S
H2593 C2602 0.930 . S
H2594 C2604 0.930 . S
H2595 C2607 0.929 . S
H2596 C2610 0.930 . S
H2597 C2612 0.960 . S
H2598 C2612 0.960 . S
H2599 C2612 0.960 . S
C2600 H2592 0.929 . S
C2600 C2601 1.377 . S
C2600 C2602 1.384 . S
C2601 C2600 1.377 . S
C2601 C2607 1.390 . S
C2602 H2593 0.930 . S
C2602 C2600 1.384 . S
C2602 C2603 1.372 . S
C2603 C2602 1.372 . S
C2603 C2604 1.400 . S
C2603 C2608 1.490 . S
C2604 H2594 0.930 . S
C2604 C2603 1.400 . S
C2604 C2607 1.386 . S
H2605 C2621 0.930 . S
H2606 C2622 0.931 . S
C2607 H2595 0.929 . S
C2607 C2601 1.390 . S
C2607 C2604 1.386 . S
C2608 C2603 1.490 . S
C2608 C2610 1.395 . S
C2608 C2611 1.403 . S
H2609 C2615 0.930 . S
C2610 H2596 0.930 . S
C2610 C2608 1.395 . S
C2610 C2613 1.403 . S
C2611 C2608 1.403 . S
C2611 C2612 1.524 . S
C2611 C2615 1.400 . S
C2612 H2597 0.960 . S
C2612 H2598 0.960 . S
C2612 H2599 0.960 . S
C2612 C2611 1.524 . S
C2613 C2610 1.403 . S
C2613 C2614 1.392 . S
C2613 C2617 1.495 . S
C2614 C2613 1.392 . S
C2614 C2615 1.385 . S
C2614 C2616 1.478 . S
C2615 H2609 0.930 . S
C2615 C2611 1.400 . S
C2615 C2614 1.385 . S
C2616 C2614 1.478 . S
C2616 C2618 1.381 . S
C2616 C2622 1.383 . S
C2617 C2613 1.495 . S
C2617 H2623 0.959 . S
C2617 H2624 0.961 . S
C2617 H2625 0.960 . S
C2618 C2616 1.381 . S
C2618 C2619 1.394 . S
C2618 H2626 0.930 . S
C2619 C2618 1.394 . S
C2619 C2620 1.383 . S
C2619 H2627 0.929 . S
C2620 C2619 1.383 . S
C2620 C2621 1.377 . S
C2621 H2605 0.930 . S
C2621 C2620 1.377 . S
C2621 C2622 1.379 . S
C2622 H2606 0.931 . S
C2622 C2616 1.383 . S
C2622 C2621 1.379 . S
H2623 C2617 0.959 . S
H2624 C2617 0.961 . S
H2625 C2617 0.960 . S
H2626 C2618 0.930 . S
H2627 C2619 0.929 . S
H2628 C2636 0.929 . S
H2629 C2638 0.930 . S
H2630 C2640 0.930 . S
H2631 C2643 0.929 . S
H2632 C2646 0.930 . S
H2633 C2648 0.960 . S
H2634 C2648 0.960 . S
H2635 C2648 0.960 . S
C2636 H2628 0.929 . S
C2636 C2637 1.377 . S
C2636 C2638 1.384 . S
C2637 C2636 1.377 . S
C2637 C2643 1.390 . S
C2638 H2629 0.930 . S
C2638 C2636 1.384 . S
C2638 C2639 1.372 . S
C2639 C2638 1.372 . S
C2639 C2640 1.400 . S
C2639 C2644 1.490 . S
C2640 H2630 0.930 . S
C2640 C2639 1.400 . S
C2640 C2643 1.386 . S
H2641 C2657 0.930 . S
H2642 C2658 0.931 . S
C2643 H2631 0.929 . S
C2643 C2637 1.390 . S
C2643 C2640 1.386 . S
C2644 C2639 1.490 . S
C2644 C2646 1.395 . S
C2644 C2647 1.403 . S
H2645 C2651 0.930 . S
C2646 H2632 0.930 . S
C2646 C2644 1.395 . S
C2646 C2649 1.403 . S
C2647 C2644 1.403 . S
C2647 C2648 1.524 . S
C2647 C2651 1.400 . S
C2648 H2633 0.960 . S
C2648 H2634 0.960 . S
C2648 H2635 0.960 . S
C2648 C2647 1.524 . S
C2649 C2646 1.403 . S
C2649 C2650 1.392 . S
C2649 C2653 1.495 . S
C2650 C2649 1.392 . S
C2650 C2651 1.385 . S
C2650 C2652 1.478 . S
C2651 H2645 0.930 . S
C2651 C2647 1.400 . S
C2651 C2650 1.385 . S
C2652 C2650 1.478 . S
C2652 C2654 1.381 . S
C2652 C2658 1.383 . S
C2653 C2649 1.495 . S
C2653 H2659 0.959 . S
C2653 H2660 0.961 . S
C2653 H2661 0.960 . S
C2654 C2652 1.381 . S
C2654 C2655 1.394 . S
C2654 H2662 0.930 . S
C2655 C2654 1.394 . S
C2655 C2656 1.383 . S
C2655 H2663 0.929 . S
C2656 C2655 1.383 . S
C2656 C2657 1.377 . S
C2657 H2641 0.930 . S
C2657 C2656 1.377 . S
C2657 C2658 1.379 . S
C2658 H2642 0.931 . S
C2658 C2652 1.383 . S
C2658 C2657 1.379 . S
H2659 C2653 0.959 . S
H2660 C2653 0.961 . S
H2661 C2653 0.960 . S
H2662 C2654 0.930 . S
H2663 C2655 0.929 . S
H2664 C2672 0.929 . S
H2665 C2674 0.930 . S
H2666 C2676 0.930 . S
H2667 C2679 0.929 . S
H2668 C2682 0.930 . S
H2669 C2684 0.960 . S
H2670 C2684 0.960 . S
H2671 C2684 0.960 . S
C2672 H2664 0.929 . S
C2672 C2673 1.377 . S
C2672 C2674 1.384 . S
C2673 C2672 1.377 . S
C2673 C2679 1.390 . S
C2674 H2665 0.930 . S
C2674 C2672 1.384 . S
C2674 C2675 1.372 . S
C2675 C2674 1.372 . S
C2675 C2676 1.400 . S
C2675 C2680 1.490 . S
C2676 H2666 0.930 . S
C2676 C2675 1.400 . S
C2676 C2679 1.386 . S
H2677 C2693 0.930 . S
H2678 C2694 0.931 . S
C2679 H2667 0.929 . S
C2679 C2673 1.390 . S
C2679 C2676 1.386 . S
C2680 C2675 1.490 . S
C2680 C2682 1.395 . S
C2680 C2683 1.403 . S
H2681 C2687 0.930 . S
C2682 H2668 0.930 . S
C2682 C2680 1.395 . S
C2682 C2685 1.403 . S
C2683 C2680 1.403 . S
C2683 C2684 1.524 . S
C2683 C2687 1.400 . S
C2684 H2669 0.960 . S
C2684 H2670 0.960 . S
C2684 H2671 0.960 . S
C2684 C2683 1.524 . S
C2685 C2682 1.403 . S
C2685 C2686 1.392 . S
C2685 C2689 1.495 . S
C2686 C2685 1.392 . S
C2686 C2687 1.385 . S
C2686 C2688 1.478 . S
C2687 H2681 0.930 . S
C2687 C2683 1.400 . S
C2687 C2686 1.385 . S
C2688 C2686 1.478 . S
C2688 C2690 1.381 . S
C2688 C2694 1.383 . S
C2689 C2685 1.495 . S
C2689 H2695 0.959 . S
C2689 H2696 0.961 . S
C2689 H2697 0.960 . S
C2690 C2688 1.381 . S
C2690 C2691 1.394 . S
C2690 H2698 0.930 . S
C2691 C2690 1.394 . S
C2691 C2692 1.383 . S
C2691 H2699 0.929 . S
C2692 C2691 1.383 . S
C2692 C2693 1.377 . S
C2693 H2677 0.930 . S
C2693 C2692 1.377 . S
C2693 C2694 1.379 . S
C2694 H2678 0.931 . S
C2694 C2688 1.383 . S
C2694 C2693 1.379 . S
H2695 C2689 0.959 . S
H2696 C2689 0.961 . S
H2697 C2689 0.960 . S
H2698 C2690 0.930 . S
H2699 C2691 0.929 . S
H2700 C2708 0.929 . S
H2701 C2710 0.930 . S
H2702 C2712 0.930 . S
H2703 C2715 0.929 . S
H2704 C2718 0.930 . S
H2705 C2720 0.960 . S
H2706 C2720 0.960 . S
H2707 C2720 0.960 . S
C2708 H2700 0.929 . S
C2708 C2709 1.377 . S
C2708 C2710 1.384 . S
C2709 C2708 1.377 . S
C2709 C2715 1.390 . S
C2710 H2701 0.930 . S
C2710 C2708 1.384 . S
C2710 C2711 1.372 . S
C2711 C2710 1.372 . S
C2711 C2712 1.400 . S
C2711 C2716 1.490 . S
C2712 H2702 0.930 . S
C2712 C2711 1.400 . S
C2712 C2715 1.386 . S
H2713 C2729 0.930 . S
H2714 C2730 0.931 . S
C2715 H2703 0.929 . S
C2715 C2709 1.390 . S
C2715 C2712 1.386 . S
C2716 C2711 1.490 . S
C2716 C2718 1.395 . S
C2716 C2719 1.403 . S
H2717 C2723 0.930 . S
C2718 H2704 0.930 . S
C2718 C2716 1.395 . S
C2718 C2721 1.403 . S
C2719 C2716 1.403 . S
C2719 C2720 1.524 . S
C2719 C2723 1.400 . S
C2720 H2705 0.960 . S
C2720 H2706 0.960 . S
C2720 H2707 0.960 . S
C2720 C2719 1.524 . S
C2721 C2718 1.403 . S
C2721 C2722 1.392 . S
C2721 C2725 1.495 . S
C2722 C2721 1.392 . S
C2722 C2723 1.385 . S
C2722 C2724 1.478 . S
C2723 H2717 0.930 . S
C2723 C2719 1.400 . S
C2723 C2722 1.385 . S
C2724 C2722 1.478 . S
C2724 C2726 1.381 . S
C2724 C2730 1.383 . S
C2725 C2721 1.495 . S
C2725 H2731 0.959 . S
C2725 H2732 0.961 . S
C2725 H2733 0.960 . S
C2726 C2724 1.381 . S
C2726 C2727 1.394 . S
C2726 H2734 0.930 . S
C2727 C2726 1.394 . S
C2727 C2728 1.383 . S
C2727 H2735 0.929 . S
C2728 C2727 1.383 . S
C2728 C2729 1.377 . S
C2729 H2713 0.930 . S
C2729 C2728 1.377 . S
C2729 C2730 1.379 . S
C2730 H2714 0.931 . S
C2730 C2724 1.383 . S
C2730 C2729 1.379 . S
H2731 C2725 0.959 . S
H2732 C2725 0.961 . S
H2733 C2725 0.960 . S
H2734 C2726 0.930 . S
H2735 C2727 0.929 . S
H2736 C2744 0.929 . S
H2737 C2746 0.930 . S
H2738 C2748 0.930 . S
H2739 C2751 0.929 . S
H2740 C2754 0.930 . S
H2741 C2756 0.960 . S
H2742 C2756 0.960 . S
H2743 C2756 0.960 . S
C2744 H2736 0.929 . S
C2744 C2745 1.377 1_565 S
C2744 C2746 1.384 . S
C2745 C2744 1.377 1_545 S
C2745 C2751 1.390 . S
C2746 H2737 0.930 . S
C2746 C2744 1.384 . S
C2746 C2747 1.372 1_565 S
C2747 C2746 1.372 1_545 S
C2747 C2748 1.400 . S
C2747 C2752 1.490 . S
C2748 H2738 0.930 . S
C2748 C2747 1.400 . S
C2748 C2751 1.386 . S
H2749 C2765 0.930 . S
H2750 C2766 0.931 . S
C2751 H2739 0.929 . S
C2751 C2745 1.390 . S
C2751 C2748 1.386 . S
C2752 C2747 1.490 . S
C2752 C2754 1.395 1_545 S
C2752 C2755 1.403 . S
H2753 C2759 0.930 . S
C2754 H2740 0.930 . S
C2754 C2752 1.395 1_565 S
C2754 C2757 1.403 . S
C2755 C2752 1.403 . S
C2755 C2756 1.524 . S
C2755 C2759 1.400 . S
C2756 H2741 0.960 . S
C2756 H2742 0.960 . S
C2756 H2743 0.960 . S
C2756 C2755 1.524 . S
C2757 C2754 1.403 . S
C2757 C2758 1.392 1_565 S
C2757 C2761 1.495 . S
C2758 C2757 1.392 1_545 S
C2758 C2759 1.385 . S
C2758 C2760 1.478 . S
C2759 H2753 0.930 . S
C2759 C2755 1.400 . S
C2759 C2758 1.385 . S
C2760 C2758 1.478 . S
C2760 C2762 1.381 1_545 S
C2760 C2766 1.383 . S
C2761 C2757 1.495 . S
C2761 H2767 0.959 . S
C2761 H2768 0.961 . S
C2761 H2769 0.960 . S
C2762 C2760 1.381 1_565 S
C2762 C2763 1.394 . S
C2762 H2770 0.930 . S
C2763 C2762 1.394 . S
C2763 C2764 1.383 1_565 S
C2763 H2771 0.929 . S
C2764 C2763 1.383 1_545 S
C2764 C2765 1.377 . S
C2765 H2749 0.930 . S
C2765 C2764 1.377 . S
C2765 C2766 1.379 . S
C2766 H2750 0.931 . S
C2766 C2760 1.383 . S
C2766 C2765 1.379 . S
H2767 C2761 0.959 . S
H2768 C2761 0.961 . S
H2769 C2761 0.960 . S
H2770 C2762 0.930 . S
H2771 C2763 0.929 . S
H2772 C2780 0.929 . S
H2773 C2782 0.930 . S
H2774 C2784 0.930 . S
H2775 C2787 0.929 . S
H2776 C2790 0.930 . S
H2777 C2792 0.960 . S
H2778 C2792 0.960 . S
H2779 C2792 0.960 . S
C2780 H2772 0.929 . S
C2780 C2781 1.377 . S
C2780 C2782 1.384 . S
C2781 C2780 1.377 . S
C2781 C2787 1.390 1_655 S
C2782 H2773 0.930 . S
C2782 C2780 1.384 . S
C2782 C2783 1.372 . S
C2783 C2782 1.372 . S
C2783 C2784 1.400 1_655 S
C2783 C2788 1.490 . S
C2784 H2774 0.930 . S
C2784 C2783 1.400 1_455 S
C2784 C2787 1.386 . S
H2785 C2801 0.930 . S
H2786 C2802 0.931 . S
C2787 H2775 0.929 . S
C2787 C2781 1.390 1_455 S
C2787 C2784 1.386 . S
C2788 C2783 1.490 . S
C2788 C2790 1.395 . S
C2788 C2791 1.400 1_655 S
H2789 C2795 0.933 . S
C2790 H2776 0.930 . S
C2790 C2788 1.395 . S
C2790 C2793 1.403 . S
C2791 C2788 1.400 1_455 S
C2791 C2792 1.543 . S
C2791 C2795 1.396 . S
C2792 H2777 0.960 . S
C2792 H2778 0.960 . S
C2792 H2779 0.960 . S
C2792 C2791 1.543 . S
C2793 C2790 1.403 . S
C2793 C2794 1.392 . S
C2793 C2797 1.495 . S
C2794 C2793 1.392 . S
C2794 C2795 1.369 1_655 S
C2794 C2796 1.478 . S
C2795 H2789 0.933 . S
C2795 C2791 1.396 . S
C2795 C2794 1.369 1_455 S
C2796 C2794 1.478 . S
C2796 C2798 1.381 . S
C2796 C2802 1.383 1_655 S
C2797 C2793 1.495 . S
C2797 H2803 0.959 . S
C2797 H2804 0.961 . S
C2797 H2805 0.960 . S
C2798 C2796 1.381 . S
C2798 C2799 1.394 . S
C2798 H2806 0.930 . S
C2799 C2798 1.394 . S
C2799 C2800 1.383 . S
C2799 H2807 0.929 . S
C2800 C2799 1.383 . S
C2800 C2801 1.377 1_655 S
C2801 H2785 0.930 . S
C2801 C2800 1.377 1_455 S
C2801 C2802 1.379 . S
C2802 H2786 0.931 . S
C2802 C2796 1.383 1_455 S
C2802 C2801 1.379 . S
H2803 C2797 0.959 . S
H2804 C2797 0.961 . S
H2805 C2797 0.960 . S
H2806 C2798 0.930 . S
H2807 C2799 0.929 . S
H2808 C2816 0.929 . S
H2809 C2818 0.930 . S
H2810 C2820 0.930 . S
H2811 C2823 0.929 . S
H2812 C2826 0.930 . S
H2813 C2828 0.960 . S
H2814 C2828 0.960 . S
H2815 C2828 0.960 . S
C2816 H2808 0.929 . S
C2816 C2817 1.377 . S
C2816 C2818 1.384 . S
C2817 C2816 1.377 . S
C2817 C2823 1.390 . S
C2818 H2809 0.930 . S
C2818 C2816 1.384 . S
C2818 C2819 1.372 . S
C2819 C2818 1.372 . S
C2819 C2820 1.400 . S
C2819 C2824 1.490 . S
C2820 H2810 0.930 . S
C2820 C2819 1.400 . S
C2820 C2823 1.386 . S
H2821 C2837 0.930 . S
H2822 C2838 0.931 . S
C2823 H2811 0.929 . S
C2823 C2817 1.390 . S
C2823 C2820 1.386 . S
C2824 C2819 1.490 . S
C2824 C2826 1.395 . S
C2824 C2827 1.403 . S
H2825 C2831 0.930 . S
C2826 H2812 0.930 . S
C2826 C2824 1.395 . S
C2826 C2829 1.403 . S
C2827 C2824 1.403 . S
C2827 C2828 1.524 . S
C2827 C2831 1.400 . S
C2828 H2813 0.960 . S
C2828 H2814 0.960 . S
C2828 H2815 0.960 . S
C2828 C2827 1.524 . S
C2829 C2826 1.403 . S
C2829 C2830 1.392 . S
C2829 C2833 1.495 . S
C2830 C2829 1.392 . S
C2830 C2831 1.385 . S
C2830 C2832 1.478 . S
C2831 H2825 0.930 . S
C2831 C2827 1.400 . S
C2831 C2830 1.385 . S
C2832 C2830 1.478 . S
C2832 C2834 1.381 . S
C2832 C2838 1.383 . S
C2833 C2829 1.495 . S
C2833 H2839 0.959 . S
C2833 H2840 0.961 . S
C2833 H2841 0.960 . S
C2834 C2832 1.381 . S
C2834 C2835 1.394 . S
C2834 H2842 0.930 . S
C2835 C2834 1.394 . S
C2835 C2836 1.383 . S
C2835 H2843 0.929 . S
C2836 C2835 1.383 . S
C2836 C2837 1.377 . S
C2837 H2821 0.930 . S
C2837 C2836 1.377 . S
C2837 C2838 1.379 . S
C2838 H2822 0.931 . S
C2838 C2832 1.383 . S
C2838 C2837 1.379 . S
H2839 C2833 0.959 . S
H2840 C2833 0.961 . S
H2841 C2833 0.960 . S
H2842 C2834 0.930 . S
H2843 C2835 0.929 . S
H2844 C2852 0.929 . S
H2845 C2854 0.930 . S
H2846 C2856 0.930 . S
H2847 C2859 0.929 . S
H2848 C2862 0.930 . S
H2849 C2864 0.960 . S
H2850 C2864 0.960 . S
H2851 C2864 0.960 . S
C2852 H2844 0.929 . S
C2852 C2853 1.377 . S
C2852 C2854 1.384 . S
C2853 C2852 1.377 . S
C2853 C2859 1.390 . S
C2854 H2845 0.930 . S
C2854 C2852 1.384 . S
C2854 C2855 1.372 . S
C2855 C2854 1.372 . S
C2855 C2856 1.400 . S
C2855 C2860 1.490 . S
C2856 H2846 0.930 . S
C2856 C2855 1.400 . S
C2856 C2859 1.386 . S
H2857 C2873 0.930 . S
H2858 C2874 0.931 . S
C2859 H2847 0.929 . S
C2859 C2853 1.390 . S
C2859 C2856 1.386 . S
C2860 C2855 1.490 . S
C2860 C2862 1.395 . S
C2860 C2863 1.403 . S
H2861 C2867 0.930 . S
C2862 H2848 0.930 . S
C2862 C2860 1.395 . S
C2862 C2865 1.403 . S
C2863 C2860 1.403 . S
C2863 C2864 1.524 . S
C2863 C2867 1.400 . S
C2864 H2849 0.960 . S
C2864 H2850 0.960 . S
C2864 H2851 0.960 . S
C2864 C2863 1.524 . S
C2865 C2862 1.403 . S
C2865 C2866 1.392 . S
C2865 C2869 1.495 . S
C2866 C2865 1.392 . S
C2866 C2867 1.385 . S
C2866 C2868 1.478 . S
C2867 H2861 0.930 . S
C2867 C2863 1.400 . S
C2867 C2866 1.385 . S
C2868 C2866 1.478 . S
C2868 C2870 1.381 . S
C2868 C2874 1.383 . S
C2869 C2865 1.495 . S
C2869 H2875 0.959 . S
C2869 H2876 0.961 . S
C2869 H2877 0.960 . S
C2870 C2868 1.381 . S
C2870 C2871 1.394 . S
C2870 H2878 0.930 . S
C2871 C2870 1.394 . S
C2871 C2872 1.383 . S
C2871 H2879 0.929 . S
C2872 C2871 1.383 . S
C2872 C2873 1.377 . S
C2873 H2857 0.930 . S
C2873 C2872 1.377 . S
C2873 C2874 1.379 . S
C2874 H2858 0.931 . S
C2874 C2868 1.383 . S
C2874 C2873 1.379 . S
H2875 C2869 0.959 . S
H2876 C2869 0.961 . S
H2877 C2869 0.960 . S
H2878 C2870 0.930 . S
H2879 C2871 0.929 . S
H2880 C2888 0.929 . S
H2881 C2890 0.930 . S
H2882 C2892 0.930 . S
H2883 C2895 0.929 . S
H2884 C2898 0.930 . S
H2885 C2900 0.960 . S
H2886 C2900 0.960 . S
H2887 C2900 0.960 . S
C2888 H2880 0.929 . S
C2888 C2889 1.377 . S
C2888 C2890 1.384 . S
C2889 C2888 1.377 . S
C2889 C2895 1.390 . S
C2890 H2881 0.930 . S
C2890 C2888 1.384 . S
C2890 C2891 1.372 . S
C2891 C2890 1.372 . S
C2891 C2892 1.400 . S
C2891 C2896 1.490 . S
C2892 H2882 0.930 . S
C2892 C2891 1.400 . S
C2892 C2895 1.386 . S
H2893 C2909 0.930 . S
H2894 C2910 0.931 . S
C2895 H2883 0.929 . S
C2895 C2889 1.390 . S
C2895 C2892 1.386 . S
C2896 C2891 1.490 . S
C2896 C2898 1.395 . S
C2896 C2899 1.403 . S
H2897 C2903 0.930 . S
C2898 H2884 0.930 . S
C2898 C2896 1.395 . S
C2898 C2901 1.403 . S
C2899 C2896 1.403 . S
C2899 C2900 1.524 . S
C2899 C2903 1.400 . S
C2900 H2885 0.960 . S
C2900 H2886 0.960 . S
C2900 H2887 0.960 . S
C2900 C2899 1.524 . S
C2901 C2898 1.403 . S
C2901 C2902 1.392 . S
C2901 C2905 1.495 . S
C2902 C2901 1.392 . S
C2902 C2903 1.385 . S
C2902 C2904 1.478 . S
C2903 H2897 0.930 . S
C2903 C2899 1.400 . S
C2903 C2902 1.385 . S
C2904 C2902 1.478 . S
C2904 C2906 1.381 . S
C2904 C2910 1.383 . S
C2905 C2901 1.495 . S
C2905 H2911 0.959 . S
C2905 H2912 0.961 . S
C2905 H2913 0.960 . S
C2906 C2904 1.381 . S
C2906 C2907 1.394 . S
C2906 H2914 0.930 . S
C2907 C2906 1.394 . S
C2907 C2908 1.383 . S
C2907 H2915 0.929 . S
C2908 C2907 1.383 . S
C2908 C2909 1.377 . S
C2909 H2893 0.930 . S
C2909 C2908 1.377 . S
C2909 C2910 1.379 . S
C2910 H2894 0.931 . S
C2910 C2904 1.383 . S
C2910 C2909 1.379 . S
H2911 C2905 0.959 . S
H2912 C2905 0.961 . S
H2913 C2905 0.960 . S
H2914 C2906 0.930 . S
H2915 C2907 0.929 . S
H2916 C2924 0.929 . S
H2917 C2926 0.930 . S
H2918 C2928 0.930 . S
H2919 C2931 0.929 . S
H2920 C2934 0.930 . S
H2921 C2936 0.960 . S
H2922 C2936 0.960 . S
H2923 C2936 0.960 . S
C2924 H2916 0.929 . S
C2924 C2925 1.377 . S
C2924 C2926 1.384 . S
C2925 C2924 1.377 . S
C2925 C2931 1.390 . S
C2926 H2917 0.930 . S
C2926 C2924 1.384 . S
C2926 C2927 1.372 . S
C2927 C2926 1.372 . S
C2927 C2928 1.400 . S
C2927 C2932 1.490 . S
C2928 H2918 0.930 . S
C2928 C2927 1.400 . S
C2928 C2931 1.386 . S
H2929 C2945 0.930 . S
H2930 C2946 0.931 . S
C2931 H2919 0.929 . S
C2931 C2925 1.390 . S
C2931 C2928 1.386 . S
C2932 C2927 1.490 . S
C2932 C2934 1.395 . S
C2932 C2935 1.403 . S
H2933 C2939 0.930 . S
C2934 H2920 0.930 . S
C2934 C2932 1.395 . S
C2934 C2937 1.403 . S
C2935 C2932 1.403 . S
C2935 C2936 1.524 . S
C2935 C2939 1.400 . S
C2936 H2921 0.960 . S
C2936 H2922 0.960 . S
C2936 H2923 0.960 . S
C2936 C2935 1.524 . S
C2937 C2934 1.403 . S
C2937 C2938 1.392 . S
C2937 C2941 1.495 . S
C2938 C2937 1.392 . S
C2938 C2939 1.385 . S
C2938 C2940 1.478 . S
C2939 H2933 0.930 . S
C2939 C2935 1.400 . S
C2939 C2938 1.385 . S
C2940 C2938 1.478 . S
C2940 C2942 1.381 . S
C2940 C2946 1.383 . S
C2941 C2937 1.495 . S
C2941 H2947 0.959 . S
C2941 H2948 0.961 . S
C2941 H2949 0.960 . S
C2942 C2940 1.381 . S
C2942 C2943 1.394 . S
C2942 H2950 0.930 . S
C2943 C2942 1.394 . S
C2943 C2944 1.383 . S
C2943 H2951 0.929 . S
C2944 C2943 1.383 . S
C2944 C2945 1.377 . S
C2945 H2929 0.930 . S
C2945 C2944 1.377 . S
C2945 C2946 1.379 . S
C2946 H2930 0.931 . S
C2946 C2940 1.383 . S
C2946 C2945 1.379 . S
H2947 C2941 0.959 . S
H2948 C2941 0.961 . S
H2949 C2941 0.960 . S
H2950 C2942 0.930 . S
H2951 C2943 0.929 . S
H2952 C2960 0.929 . S
H2953 C2962 0.930 . S
H2954 C2964 0.930 . S
H2955 C2967 0.929 . S
H2956 C2970 0.930 . S
H2957 C2972 0.960 . S
H2958 C2972 0.960 . S
H2959 C2972 0.960 . S
C2960 H2952 0.929 . S
C2960 C2961 1.377 . S
C2960 C2962 1.384 . S
C2961 C2960 1.377 . S
C2961 C2967 1.390 . S
C2962 H2953 0.930 . S
C2962 C2960 1.384 . S
C2962 C2963 1.372 . S
C2963 C2962 1.372 . S
C2963 C2964 1.400 . S
C2963 C2968 1.490 . S
C2964 H2954 0.930 . S
C2964 C2963 1.400 . S
C2964 C2967 1.386 . S
H2965 C2981 0.930 . S
H2966 C2982 0.931 . S
C2967 H2955 0.929 . S
C2967 C2961 1.390 . S
C2967 C2964 1.386 . S
C2968 C2963 1.490 . S
C2968 C2970 1.395 . S
C2968 C2971 1.403 . S
H2969 C2975 0.930 . S
C2970 H2956 0.930 . S
C2970 C2968 1.395 . S
C2970 C2973 1.403 . S
C2971 C2968 1.403 . S
C2971 C2972 1.524 . S
C2971 C2975 1.400 . S
C2972 H2957 0.960 . S
C2972 H2958 0.960 . S
C2972 H2959 0.960 . S
C2972 C2971 1.524 . S
C2973 C2970 1.403 . S
C2973 C2974 1.392 . S
C2973 C2977 1.495 . S
C2974 C2973 1.392 . S
C2974 C2975 1.385 . S
C2974 C2976 1.478 . S
C2975 H2969 0.930 . S
C2975 C2971 1.400 . S
C2975 C2974 1.385 . S
C2976 C2974 1.478 . S
C2976 C2978 1.381 . S
C2976 C2982 1.383 . S
C2977 C2973 1.495 . S
C2977 H2983 0.959 . S
C2977 H2984 0.961 . S
C2977 H2985 0.960 . S
C2978 C2976 1.381 . S
C2978 C2979 1.394 . S
C2978 H2986 0.930 . S
C2979 C2978 1.394 . S
C2979 C2980 1.383 . S
C2979 H2987 0.929 . S
C2980 C2979 1.383 . S
C2980 C2981 1.377 . S
C2981 H2965 0.930 . S
C2981 C2980 1.377 . S
C2981 C2982 1.379 . S
C2982 H2966 0.931 . S
C2982 C2976 1.383 . S
C2982 C2981 1.379 . S
H2983 C2977 0.959 . S
H2984 C2977 0.961 . S
H2985 C2977 0.960 . S
H2986 C2978 0.930 . S
H2987 C2979 0.929 . S
H2988 C2996 0.929 . S
H2989 C2998 0.930 . S
H2990 C3000 0.930 . S
H2991 C3003 0.929 . S
H2992 C3006 0.930 . S
H2993 C3008 0.960 . S
H2994 C3008 0.960 . S
H2995 C3008 0.960 . S
C2996 H2988 0.929 . S
C2996 C2997 1.377 . S
C2996 C2998 1.384 . S
C2997 C2996 1.377 . S
C2997 C3003 1.390 . S
C2998 H2989 0.930 . S
C2998 C2996 1.384 . S
C2998 C2999 1.372 . S
C2999 C2998 1.372 . S
C2999 C3000 1.400 . S
C2999 C3004 1.490 . S
C3000 H2990 0.930 . S
C3000 C2999 1.400 . S
C3000 C3003 1.386 . S
H3001 C3017 0.930 . S
H3002 C3018 0.931 . S
C3003 H2991 0.929 . S
C3003 C2997 1.390 . S
C3003 C3000 1.386 . S
C3004 C2999 1.490 . S
C3004 C3006 1.395 . S
C3004 C3007 1.403 . S
H3005 C3011 0.930 . S
C3006 H2992 0.930 . S
C3006 C3004 1.395 . S
C3006 C3009 1.403 . S
C3007 C3004 1.403 . S
C3007 C3008 1.524 . S
C3007 C3011 1.400 . S
C3008 H2993 0.960 . S
C3008 H2994 0.960 . S
C3008 H2995 0.960 . S
C3008 C3007 1.524 . S
C3009 C3006 1.403 . S
C3009 C3010 1.392 . S
C3009 C3013 1.495 . S
C3010 C3009 1.392 . S
C3010 C3011 1.385 . S
C3010 C3012 1.478 . S
C3011 H3005 0.930 . S
C3011 C3007 1.400 . S
C3011 C3010 1.385 . S
C3012 C3010 1.478 . S
C3012 C3014 1.381 . S
C3012 C3018 1.383 . S
C3013 C3009 1.495 . S
C3013 H3019 0.959 . S
C3013 H3020 0.961 . S
C3013 H3021 0.960 . S
C3014 C3012 1.381 . S
C3014 C3015 1.394 . S
C3014 H3022 0.930 . S
C3015 C3014 1.394 . S
C3015 C3016 1.383 . S
C3015 H3023 0.929 . S
C3016 C3015 1.383 . S
C3016 C3017 1.377 . S
C3017 H3001 0.930 . S
C3017 C3016 1.377 . S
C3017 C3018 1.379 . S
C3018 H3002 0.931 . S
C3018 C3012 1.383 . S
C3018 C3017 1.379 . S
H3019 C3013 0.959 . S
H3020 C3013 0.961 . S
H3021 C3013 0.960 . S
H3022 C3014 0.930 . S
H3023 C3015 0.929 . S
H3024 C3032 0.929 . S
H3025 C3034 0.930 . S
H3026 C3036 0.930 . S
H3027 C3039 0.929 . S
H3028 C3042 0.930 . S
H3029 C3044 0.960 . S
H3030 C3044 0.960 . S
H3031 C3044 0.960 . S
C3032 H3024 0.929 . S
C3032 C3033 1.377 . S
C3032 C3034 1.384 . S
C3033 C3032 1.377 . S
C3033 C3039 1.390 . S
C3034 H3025 0.930 . S
C3034 C3032 1.384 . S
C3034 C3035 1.372 . S
C3035 C3034 1.372 . S
C3035 C3036 1.400 . S
C3035 C3040 1.490 . S
C3036 H3026 0.930 . S
C3036 C3035 1.400 . S
C3036 C3039 1.386 . S
H3037 C3053 0.930 . S
H3038 C3054 0.931 . S
C3039 H3027 0.929 . S
C3039 C3033 1.390 . S
C3039 C3036 1.386 . S
C3040 C3035 1.490 . S
C3040 C3042 1.395 . S
C3040 C3043 1.403 . S
H3041 C3047 0.930 . S
C3042 H3028 0.930 . S
C3042 C3040 1.395 . S
C3042 C3045 1.403 . S
C3043 C3040 1.403 . S
C3043 C3044 1.524 . S
C3043 C3047 1.400 . S
C3044 H3029 0.960 . S
C3044 H3030 0.960 . S
C3044 H3031 0.960 . S
C3044 C3043 1.524 . S
C3045 C3042 1.403 . S
C3045 C3046 1.392 . S
C3045 C3049 1.495 . S
C3046 C3045 1.392 . S
C3046 C3047 1.385 . S
C3046 C3048 1.478 . S
C3047 H3041 0.930 . S
C3047 C3043 1.400 . S
C3047 C3046 1.385 . S
C3048 C3046 1.478 . S
C3048 C3050 1.381 . S
C3048 C3054 1.383 . S
C3049 C3045 1.495 . S
C3049 H3055 0.959 . S
C3049 H3056 0.961 . S
C3049 H3057 0.960 . S
C3050 C3048 1.381 . S
C3050 C3051 1.394 . S
C3050 H3058 0.930 . S
C3051 C3050 1.394 . S
C3051 C3052 1.383 . S
C3051 H3059 0.929 . S
C3052 C3051 1.383 . S
C3052 C3053 1.377 . S
C3053 H3037 0.930 . S
C3053 C3052 1.377 . S
C3053 C3054 1.379 . S
C3054 H3038 0.931 . S
C3054 C3048 1.383 . S
C3054 C3053 1.379 . S
H3055 C3049 0.959 . S
H3056 C3049 0.961 . S
H3057 C3049 0.960 . S
H3058 C3050 0.930 . S
H3059 C3051 0.929 . S
H3060 C3068 0.929 . S
H3061 C3070 0.930 . S
H3062 C3072 0.930 . S
H3063 C3075 0.929 . S
H3064 C3078 0.930 . S
H3065 C3080 0.960 . S
H3066 C3080 0.960 . S
H3067 C3080 0.960 . S
C3068 H3060 0.929 . S
C3068 C3069 1.377 . S
C3068 C3070 1.384 . S
C3069 C3068 1.377 . S
C3069 C3075 1.390 . S
C3070 H3061 0.930 . S
C3070 C3068 1.384 . S
C3070 C3071 1.372 . S
C3071 C3070 1.372 . S
C3071 C3072 1.400 . S
C3071 C3076 1.490 . S
C3072 H3062 0.930 . S
C3072 C3071 1.400 . S
C3072 C3075 1.386 . S
H3073 C3089 0.930 . S
H3074 C3090 0.931 . S
C3075 H3063 0.929 . S
C3075 C3069 1.390 . S
C3075 C3072 1.386 . S
C3076 C3071 1.490 . S
C3076 C3078 1.395 1_655 S
C3076 C3079 1.403 . S
H3077 C3083 0.930 . S
C3078 H3064 0.930 . S
C3078 C3076 1.395 1_455 S
C3078 C3081 1.403 . S
C3079 C3076 1.403 . S
C3079 C3080 1.524 . S
C3079 C3083 1.400 . S
C3080 H3065 0.960 . S
C3080 H3066 0.960 . S
C3080 H3067 0.960 . S
C3080 C3079 1.524 . S
C3081 C3078 1.403 . S
C3081 C3082 1.392 1_455 S
C3081 C3085 1.495 . S
C3082 C3081 1.392 1_655 S
C3082 C3083 1.385 . S
C3082 C3084 1.498 . S
C3083 H3077 0.930 . S
C3083 C3079 1.400 . S
C3083 C3082 1.385 . S
C3084 C3082 1.498 . S
C3084 C3086 1.362 1_655 S
C3084 C3090 1.384 . S
C3085 C3081 1.495 . S
C3085 H3091 0.959 . S
C3085 H3092 0.961 . S
C3085 H3093 0.960 . S
C3086 C3084 1.362 1_455 S
C3086 C3087 1.394 . S
C3086 H3094 0.930 . S
C3087 C3086 1.394 . S
C3087 C3088 1.385 . S
C3087 H3095 0.929 . S
C3088 C3087 1.385 . S
C3088 C3089 1.357 1_455 S
C3089 H3073 0.930 . S
C3089 C3088 1.357 1_655 S
C3089 C3090 1.379 . S
C3090 H3074 0.931 . S
C3090 C3084 1.384 . S
C3090 C3089 1.379 . S
H3091 C3085 0.959 . S
H3092 C3085 0.961 . S
H3093 C3085 0.960 . S
H3094 C3086 0.930 . S
H3095 C3087 0.929 . S
H3096 C3104 0.929 . S
H3097 C3106 0.930 . S
H3098 C3108 0.930 . S
H3099 C3111 0.929 . S
H3100 C3114 0.930 . S
H3101 C3116 0.960 . S
H3102 C3116 0.960 . S
H3103 C3116 0.960 . S
C3104 H3096 0.929 . S
C3104 C3105 1.377 . S
C3104 C3106 1.384 . S
C3105 C3104 1.377 . S
C3105 C3111 1.390 . S
C3106 H3097 0.930 . S
C3106 C3104 1.384 . S
C3106 C3107 1.372 . S
C3107 C3106 1.372 . S
C3107 C3108 1.400 . S
C3107 C3112 1.490 . S
C3108 H3098 0.930 . S
C3108 C3107 1.400 . S
C3108 C3111 1.386 . S
H3109 C3125 0.930 . S
H3110 C3126 0.931 . S
C3111 H3099 0.929 . S
C3111 C3105 1.390 . S
C3111 C3108 1.386 . S
C3112 C3107 1.490 . S
C3112 C3114 1.395 . S
C3112 C3115 1.403 . S
H3113 C3119 0.930 . S
C3114 H3100 0.930 . S
C3114 C3112 1.395 . S
C3114 C3117 1.403 . S
C3115 C3112 1.403 . S
C3115 C3116 1.524 . S
C3115 C3119 1.400 . S
C3116 H3101 0.960 . S
C3116 H3102 0.960 . S
C3116 H3103 0.960 . S
C3116 C3115 1.524 . S
C3117 C3114 1.403 . S
C3117 C3118 1.392 . S
C3117 C3121 1.495 . S
C3118 C3117 1.392 . S
C3118 C3119 1.385 . S
C3118 C3120 1.478 . S
C3119 H3113 0.930 . S
C3119 C3115 1.400 . S
C3119 C3118 1.385 . S
C3120 C3118 1.478 . S
C3120 C3122 1.381 . S
C3120 C3126 1.383 . S
C3121 C3117 1.495 . S
C3121 H3127 0.959 . S
C3121 H3128 0.961 . S
C3121 H3129 0.960 . S
C3122 C3120 1.381 . S
C3122 C3123 1.394 . S
C3122 H3130 0.930 . S
C3123 C3122 1.394 . S
C3123 C3124 1.383 . S
C3123 H3131 0.929 . S
C3124 C3123 1.383 . S
C3124 C3125 1.377 . S
C3125 H3109 0.930 . S
C3125 C3124 1.377 . S
C3125 C3126 1.379 . S
C3126 H3110 0.931 . S
C3126 C3120 1.383 . S
C3126 C3125 1.379 . S
H3127 C3121 0.959 . S
H3128 C3121 0.961 . S
H3129 C3121 0.960 . S
H3130 C3122 0.930 . S
H3131 C3123 0.929 . S
H3132 C3140 0.929 . S
H3133 C3142 0.930 . S
H3134 C3144 0.930 . S
H3135 C3147 0.929 . S
H3136 C3150 0.930 . S
H3137 C3152 0.960 . S
H3138 C3152 0.960 . S
H3139 C3152 0.960 . S
C3140 H3132 0.929 . S
C3140 C3141 1.377 1_565 S
C3140 C3142 1.384 . S
C3141 C3140 1.377 1_545 S
C3141 C3147 1.390 . S
C3142 H3133 0.930 . S
C3142 C3140 1.384 . S
C3142 C3143 1.372 1_565 S
C3143 C3142 1.372 1_545 S
C3143 C3144 1.400 . S
C3143 C3148 1.490 . S
C3144 H3134 0.930 . S
C3144 C3143 1.400 . S
C3144 C3147 1.386 . S
H3145 C3161 0.930 . S
H3146 C3162 0.931 . S
C3147 H3135 0.929 . S
C3147 C3141 1.390 . S
C3147 C3144 1.386 . S
C3148 C3143 1.490 . S
C3148 C3150 1.395 1_545 S
C3148 C3151 1.403 . S
H3149 C3155 0.930 . S
C3150 H3136 0.930 . S
C3150 C3148 1.395 1_565 S
C3150 C3153 1.403 . S
C3151 C3148 1.403 . S
C3151 C3152 1.524 . S
C3151 C3155 1.400 . S
C3152 H3137 0.960 . S
C3152 H3138 0.960 . S
C3152 H3139 0.960 . S
C3152 C3151 1.524 . S
C3153 C3150 1.403 . S
C3153 C3154 1.392 1_565 S
C3153 C3157 1.495 . S
C3154 C3153 1.392 1_545 S
C3154 C3155 1.385 . S
C3154 C3156 1.478 . S
C3155 H3149 0.930 . S
C3155 C3151 1.400 . S
C3155 C3154 1.385 . S
C3156 C3154 1.478 . S
C3156 C3158 1.381 1_545 S
C3156 C3162 1.383 . S
C3157 C3153 1.495 . S
C3157 H3163 0.959 . S
C3157 H3164 0.961 . S
C3157 H3165 0.960 . S
C3158 C3156 1.381 1_565 S
C3158 C3159 1.394 . S
C3158 H3166 0.930 . S
C3159 C3158 1.394 . S
C3159 C3160 1.417 . S
C3159 H3167 0.929 . S
C3160 C3159 1.417 . S
C3160 C3161 1.359 1_565 S
C3161 H3145 0.930 . S
C3161 C3160 1.359 1_545 S
C3161 C3162 1.379 . S
C3162 H3146 0.931 . S
C3162 C3156 1.383 . S
C3162 C3161 1.379 . S
H3163 C3157 0.959 . S
H3164 C3157 0.961 . S
H3165 C3157 0.960 . S
H3166 C3158 0.930 . S
H3167 C3159 0.929 . S
C585 C7 1.501 . S
C604 C421 1.498 . S
C621 C23 1.576 . S
C640 C446 1.563 . S
C676 C457 1.536 . S
C657 C37 1.533 . S
C693 C35 1.520 1_545 S
C712 C482 1.508 . S
C729 C9 1.539 1_455 S
C748 C500 1.544 . S
C765 C21 1.542 . S
C784 C511 1.545 . S
C801 C49 1.494 . S
C820 C493 1.529 1_455 S
C856 C518 1.555 . S
C837 C65 1.551 . S
C892 C475 1.511 1_565 S
C873 C79 1.537 1_565 S
C909 C77 1.489 . S
C928 C464 1.497 . S
C964 C428 1.490 . S
C945 C51 1.525 1_655 S
C981 C63 1.524 . S
C1000 C439 1.555 . S
C1017 C91 1.597 . S
C1036 C529 1.591 . S
C1053 C107 1.619 . S
C1072 C554 1.622 . S
C1108 C565 1.589 . S
C1089 C121 1.632 . S
C1125 C119 1.587 . S
C1144 C266 1.611 . S
C1161 C93 1.627 . S
C1180 C284 1.616 . S
C1197 C105 1.573 . S
C1216 C295 1.588 . S
C1233 C133 1.517 . S
C1252 C277 1.523 . S
C1269 C149 1.573 . S
C1288 C302 1.564 . S
C1324 C259 1.576 . S
C1305 C163 1.594 . S
C1360 C572 1.607 . S
C1341 C161 1.602 . S
C1396 C536 1.556 . S
C1377 C135 1.583 . S
C1432 C547 1.576 . S
C1413 C147 1.569 . S
C1449 C175 1.549 . S
C1468 C313 1.572 . S
C1485 C191 1.597 . S
C1504 C338 1.601 . S
C1521 C205 1.625 . S
C1540 C349 1.619 . S
C1557 C203 1.631 . S
C1576 C374 1.660 . S
C1612 C392 1.605 . S
C1593 C177 1.630 . S
C1648 C403 1.595 . S
C1629 C189 1.598 . S
C1684 C385 1.582 . S
C1665 C217 1.574 . S
C1720 C410 1.574 . S
C1701 C233 1.594 . S
C1737 C247 1.590 . S
C1756 C367 1.564 . S
C1792 C356 1.573 . S
C1773 C245 1.545 . S
C1809 C219 1.593 . S
C1828 C320 1.575 . S
C1864 C331 1.554 . S
C1845 C231 1.553 . S
C1900 C268 1.477 . S
C1881 C8 1.524 . S
C1917 C17 1.461 . S
C1936 C286 1.362 . S
C1972 C296 1.481 . S
C1953 C31 1.521 . S
C2008 C314 1.439 . S
C1989 C36 1.534 . S
C2044 C340 1.459 . S
C2025 C3 1.498 . S
C2080 C350 1.358 . S
C2061 C22 1.461 . S
C2097 C50 1.558 . S
C2116 C358 1.442 . S
C2133 C59 1.485 . S
C2152 C322 1.362 . S
C2169 C73 1.525 . S
C2188 C332 1.435 . S
C2205 C78 1.582 . S
C2224 C278 1.492 . S
C2260 C304 1.397 . S
C2241 C45 1.518 . S
C2277 C64 1.495 . S
C2296 C260 1.445 . S
C2332 C376 1.474 . S
C2313 C92 1.516 . S
C2349 C101 1.562 . S
C2368 C394 1.479 . S
C2385 C115 1.581 . S
C2404 C404 1.474 . S
C2440 C422 1.414 . S
C2421 C120 1.461 . S
C2457 C87 1.511 . S
C2476 C448 1.416 . S
C2493 C106 1.428 . S
C2512 C458 1.346 . S
C2529 C134 1.457 . S
C2548 C466 1.350 . S
C2565 C143 1.457 . S
C2584 C430 1.348 . S
C2620 C440 1.449 . S
C2601 C157 1.549 . S
C2637 C162 1.550 . S
C2656 C386 1.473 . S
C2673 C129 1.596 . S
C2692 C412 1.497 . S
C2728 C368 1.528 . S
C2709 C148 1.581 . S
C2764 C484 1.405 . S
C2745 C176 1.454 . S
C2781 C185 1.448 . S
C2800 C502 1.356 . S
C2817 C199 1.524 . S
C2836 C512 1.460 . S
C2872 C530 1.443 . S
C2853 C204 1.514 . S
C2908 C556 1.508 . S
C2889 C171 1.573 . S
C2925 C190 1.553 . S
C2944 C566 1.458 . S
C2961 C218 1.550 . S
C2980 C574 1.489 . S
C2997 C227 1.584 . S
C3016 C538 1.457 . S
C3052 C548 1.504 . S
C3033 C241 1.594 . S
C3088 C494 1.408 . S
C3069 C246 1.459 . S
C3124 C520 1.470 . S
C3105 C213 1.539 . S
C3141 C232 1.443 . S
C3160 C476 1.366 . S
