# Generated by pormake.
# Topology nom, (4,4)-cn, num edge types: 1
# Building blocks:
#     Node 0, Type 0, BuildingBlock: GIZVER_clean_linker_0, # of connection points: 4
#     Node 1, Type 0, BuildingBlock: GIZVER_clean_linker_0, # of connection points: 4
#     Node 2, Type 0, BuildingBlock: GIZVER_clean_linker_0, # of connection points: 4
#     Node 3, Type 0, BuildingBlock: GIZVER_clean_linker_0, # of connection points: 4
#     Node 4, Type 0, BuildingBlock: GIZVER_clean_linker_0, # of connection points: 4
#     Node 5, Type 0, BuildingBlock: GIZVER_clean_linker_0, # of connection points: 4
#     Node 6, Type 1, BuildingBlock: TATPOV_clean_sbu_0, # of connection points: 4
#     Node 7, Type 1, BuildingBlock: TATPOV_clean_sbu_0, # of connection points: 4
#     Node 8, Type 1, BuildingBlock: TATPOV_clean_sbu_0, # of connection points: 4
#     Node 9, Type 1, BuildingBlock: TATPOV_clean_sbu_0, # of connection points: 4
#     Node 10, Type 1, BuildingBlock: TATPOV_clean_sbu_0, # of connection points: 4
#     Node 11, Type 1, BuildingBlock: TATPOV_clean_sbu_0, # of connection points: 4
#     Edge 12, Type (0, 1), BuildingBlock: ZUJKAS_clean_linker_0, # of connection points: 2
#     Edge 13, Type (0, 1), BuildingBlock: ZUJKAS_clean_linker_0, # of connection points: 2
#     Edge 14, Type (0, 1), BuildingBlock: ZUJKAS_clean_linker_0, # of connection points: 2
#     Edge 15, Type (0, 1), BuildingBlock: ZUJKAS_clean_linker_0, # of connection points: 2
#     Edge 16, Type (0, 1), BuildingBlock: ZUJKAS_clean_linker_0, # of connection points: 2
#     Edge 17, Type (0, 1), BuildingBlock: ZUJKAS_clean_linker_0, # of connection points: 2
#     Edge 18, Type (0, 1), BuildingBlock: ZUJKAS_clean_linker_0, # of connection points: 2
#     Edge 19, Type (0, 1), BuildingBlock: ZUJKAS_clean_linker_0, # of connection points: 2
#     Edge 20, Type (0, 1), BuildingBlock: ZUJKAS_clean_linker_0, # of connection points: 2
#     Edge 21, Type (0, 1), BuildingBlock: ZUJKAS_clean_linker_0, # of connection points: 2
#     Edge 22, Type (0, 1), BuildingBlock: ZUJKAS_clean_linker_0, # of connection points: 2
#     Edge 23, Type (0, 1), BuildingBlock: ZUJKAS_clean_linker_0, # of connection points: 2
#     Edge 24, Type (0, 1), BuildingBlock: ZUJKAS_clean_linker_0, # of connection points: 2
#     Edge 25, Type (0, 1), BuildingBlock: ZUJKAS_clean_linker_0, # of connection points: 2
#     Edge 26, Type (0, 1), BuildingBlock: ZUJKAS_clean_linker_0, # of connection points: 2
#     Edge 27, Type (0, 1), BuildingBlock: ZUJKAS_clean_linker_0, # of connection points: 2
#     Edge 28, Type (0, 1), BuildingBlock: ZUJKAS_clean_linker_0, # of connection points: 2
#     Edge 29, Type (0, 1), BuildingBlock: ZUJKAS_clean_linker_0, # of connection points: 2
#     Edge 30, Type (0, 1), BuildingBlock: ZUJKAS_clean_linker_0, # of connection points: 2
#     Edge 31, Type (0, 1), BuildingBlock: ZUJKAS_clean_linker_0, # of connection points: 2
#     Edge 32, Type (0, 1), BuildingBlock: ZUJKAS_clean_linker_0, # of connection points: 2
#     Edge 33, Type (0, 1), BuildingBlock: ZUJKAS_clean_linker_0, # of connection points: 2
#     Edge 34, Type (0, 1), BuildingBlock: ZUJKAS_clean_linker_0, # of connection points: 2
#     Edge 35, Type (0, 1), BuildingBlock: ZUJKAS_clean_linker_0, # of connection points: 2
# Relax obj value: 0.020
# Max RMSD: 0.118
# Mean RMSD: 0.090
data_MOF--net-nom--node1-TATPOV_clean_sbu_0--node2-GIZVER_clean_linker_0--edge1-ZUJKAS_clean_linker_0
_symmetry_space_group_name_H-M    P1
_symmetry_Int_Tables_number       1
_symmetry_cell_setting            triclinic
loop_
_symmetry_equiv_pos_as_xyz
'x, y, z'
_cell_length_a     59.484785
_cell_length_b     60.168956
_cell_length_c     58.917224
_cell_angle_alpha  90.663584
_cell_angle_beta   90.683326
_cell_angle_gamma 120.01772
loop_
_atom_site_label
_atom_site_type_symbol
_atom_site_fract_x
_atom_site_fract_y
_atom_site_fract_z
_atom_type_partial_charge
H0 H 0.97171 0.50074 0.34362 0.0
H1 H 0.99921 0.49344 0.27821 0.0
H2 H 0.92244 0.43778 0.29886 0.0
H3 H 0.01019 0.5359 0.32967 0.0
H4 H 0.01436 0.53665 0.29975 0.0
H5 H 0.02704 0.51002 0.35295 0.0
H6 H 0.10453 0.53172 0.33317 0.0
H7 H 0.05415 0.54229 0.28733 0.0
C8 C 0.96915 0.48971 0.32815 0.0
C9 C 0.94511 0.46767 0.32336 0.0
C10 C 0.98892 0.499 0.31197 0.0
C11 C 0.98458 0.48561 0.29116 0.0
C12 C 0.9607 0.46326 0.2864 0.0
C13 C 0.94142 0.45418 0.30285 0.0
C14 C 0.01254 0.52533 0.31512 0.0
C15 C 0.03713 0.5243 0.31898 0.0
C16 C 0.0418 0.51658 0.3401 0.0
C17 C 0.06613 0.51922 0.34532 0.0
C18 C 0.08547 0.52886 0.32891 0.0
C19 C 0.08164 0.5378 0.30816 0.0
C20 C 0.0571 0.53474 0.303 0.0
H21 H 0.46502 0.98825 0.50839 0.0
H22 H 0.48817 0.00582 0.43896 0.0
H23 H 0.47624 0.93533 0.46727 0.0
H24 H 0.46054 0.02127 0.48937 0.0
H25 H 0.465 0.0248 0.45943 0.0
H26 H 0.50574 0.03634 0.51299 0.0
H27 H 0.5588 0.11464 0.49631 0.0
H28 H 0.49663 0.0667 0.44981 0.0
C29 C 0.47104 0.98357 0.49261 0.0
C30 C 0.47103 0.96026 0.49037 0.0
C31 C 0.47757 1.00027 0.47418 0.0
C32 C 0.48415 0.99349 0.45342 0.0
C33 C 0.48391 0.97013 0.45086 0.0
C34 C 0.47793 0.95402 0.46956 0.0
C35 C 0.47409 0.02347 0.47559 0.0
C36 C 0.49943 0.04808 0.48011 0.0
C37 C 0.51286 0.05173 0.5009 0.0
C38 C 0.53452 0.07564 0.5067 0.0
C39 C 0.54273 0.09585 0.4915 0.0
C40 C 0.52899 0.09299 0.47117 0.0
C41 C 0.50772 0.06885 0.46523 0.0
H42 H 0.44124 0.49624 0.61628 0.0
H43 H 0.45576 0.50043 0.6884 0.0
H44 H 0.45029 0.56095 0.65531 0.0
H45 H 0.4362 0.459 0.63608 0.0
H46 H 0.43742 0.45929 0.66636 0.0
H47 H 0.47857 0.47999 0.61448 0.0
H48 H 0.53905 0.47157 0.64631 0.0
H49 H 0.47465 0.46242 0.68558 0.0
C50 C 0.44575 0.50676 0.63231 0.0
C51 C 0.44591 0.53016 0.63348 0.0
C52 C 0.45031 0.49643 0.65203 0.0
C53 C 0.45411 0.50931 0.67305 0.0
C54 C 0.45352 0.53235 0.67446 0.0
C55 C 0.4508 0.54319 0.6544 0.0
C56 C 0.44795 0.47024 0.6512 0.0
C57 C 0.47426 0.47223 0.65038 0.0
C58 C 0.48726 0.47717 0.62965 0.0
C59 C 0.51085 0.47732 0.62827 0.0
C60 C 0.52159 0.4729 0.64778 0.0
C61 C 0.50865 0.46723 0.66847 0.0
C62 C 0.48505 0.46722 0.66977 0.0
H63 H 0.95805 0.43039 0.77664 0.0
H64 H 0.98145 0.46014 0.84509 0.0
H65 H 0.90684 0.44309 0.81851 0.0
H66 H 0.99689 0.43374 0.79293 0.0
H67 H 1.00103 0.43673 0.82307 0.0
H68 H 0.01636 0.47296 0.76912 0.0
H69 H 0.08315 0.53897 0.79824 0.0
H70 H 0.03242 0.4772 0.84111 0.0
C71 C 0.95441 0.43738 0.79242 0.0
C72 C 0.93059 0.43658 0.79528 0.0
C73 C 0.97318 0.4465 0.81021 0.0
C74 C 0.96757 0.45415 0.83105 0.0
C75 C 0.94376 0.45325 0.83404 0.0
C76 C 0.92574 0.44497 0.81593 0.0
C77 C 0.99809 0.44583 0.80784 0.0
C78 C 0.0212 0.47249 0.80551 0.0
C79 C 0.02792 0.4835 0.78395 0.0
C80 C 0.05008 0.50767 0.78141 0.0
C81 C 0.0653 0.52095 0.80053 0.0
C82 C 0.05934 0.51015 0.82212 0.0
C83 C 0.03703 0.48592 0.82457 0.0
H84 H 0.60503 0.05556 0.01202 0.0
H85 H 0.57122 0.03207 0.94469 0.0
H86 H 0.58573 0.10405 0.9734 0.0
H87 H 0.6039 0.01894 0.99365 0.0
H88 H 0.59795 0.01455 0.96369 0.0
H89 H 0.56404 1.00228 0.01965 0.0
H90 H 0.50007 0.93006 -0.00338 0.0
H91 H 0.55936 0.97725 0.94993 0.0
C92 C 0.59661 0.05885 -0.00309 0.0
C93 C 0.59566 0.08168 0.99518 0.0
C94 C 0.5873 0.04056 0.97887 0.0
C95 C 0.57749 0.04557 0.95892 0.0
C96 C 0.57653 0.0683 0.95706 0.0
C97 C 0.58525 0.08591 0.97534 0.0
C98 C 0.58991 0.01685 0.97994 0.0
C99 C 0.56409 0.99302 0.98408 0.0
C100 C 0.55368 0.98854 0.00597 0.0
C101 C 0.53038 0.966 0.01038 0.0
C102 C 0.5174 0.94802 0.99281 0.0
C103 C 0.52768 0.95168 0.97101 0.0
C104 C 0.55106 0.97437 0.96665 0.0
H105 H 0.56914 0.54057 0.13399 0.0
H106 H 0.54378 0.53594 0.20276 0.0
H107 H 0.54879 0.47325 0.17269 0.0
H108 H 0.57568 0.57874 0.15333 0.0
H109 H 0.57288 0.57845 0.18345 0.0
H110 H 0.53537 0.56405 0.12843 0.0
H111 H 0.47877 0.58023 0.15673 0.0
H112 H 0.53713 0.58018 0.20022 0.0
C113 C 0.56152 0.52967 0.14929 0.0
C114 C 0.55858 0.50502 0.15075 0.0
C115 C 0.55592 0.54082 0.16795 0.0
C116 C 0.54715 0.52702 0.1881 0.0
C117 C 0.54421 0.50243 0.18983 0.0
C118 C 0.54946 0.49148 0.17094 0.0
C119 C 0.56236 0.56849 0.16744 0.0
C120 C 0.53824 0.57061 0.16479 0.0
C121 C 0.5269 0.5679 0.14309 0.0
C122 C 0.50528 0.57113 0.14018 0.0
C123 C 0.49475 0.57658 0.15911 0.0
C124 C 0.50617 0.58008 0.18072 0.0
C125 C 0.5279 0.57698 0.18359 0.0
Zn126 Zn 0.67579 0.45307 0.4106 0.0
Zn127 Zn 0.64841 0.40212 0.41094 0.0
O128 O 0.68692 0.4111 0.40823 0.0
O129 O 0.70923 0.45325 0.40686 0.0
O130 O 0.62939 0.36343 0.41316 0.0
O131 O 0.66333 0.45558 0.44153 0.0
O132 O 0.63816 0.41355 0.44038 0.0
C133 C 0.70859 0.43192 0.40658 0.0
C134 C 0.63671 0.43083 0.37464 0.0
O135 O 0.63223 0.40952 0.38289 0.0
O136 O 0.65438 0.45178 0.38336 0.0
C137 C 0.62617 0.34834 0.39655 0.0
O138 O 0.63491 0.35801 0.37655 0.0
C139 C 0.64584 0.43521 0.45028 0.0
Zn140 Zn 0.23603 0.68121 0.56944 0.0
Zn141 Zn 0.26469 0.65843 0.57162 0.0
O142 O 0.2917 0.69743 0.56936 0.0
O143 O 0.26786 0.71591 0.56709 0.0
O144 O 0.28696 0.64188 0.57453 0.0
O145 O 0.22075 0.66733 0.59983 0.0
O146 O 0.24225 0.64633 0.60026 0.0
C147 C 0.28997 0.71766 0.56759 0.0
C148 C 0.22388 0.6433 0.53367 0.0
O149 O 0.24209 0.64114 0.54306 0.0
O150 O 0.21793 0.65935 0.54151 0.0
C151 C 0.30132 0.64196 0.55866 0.0
O152 O 0.30187 0.65327 0.53955 0.0
C153 C 0.22595 0.65155 0.60918 0.0
Zn154 Zn 0.55853 0.2355 0.73635 0.0
Zn155 Zn 0.61051 0.26318 0.73901 0.0
O156 O 0.59903 0.29081 0.73849 0.0
O157 O 0.55638 0.26768 0.73638 0.0
O158 O 0.64996 0.28299 0.74099 0.0
O159 O 0.55778 0.21826 0.76554 0.0
O160 O 0.6005 0.24041 0.76732 0.0
C161 C 0.57689 0.28941 0.73745 0.0
C162 C 0.58272 0.22459 0.69949 0.0
O163 O 0.60342 0.24141 0.70972 0.0
O164 O 0.56076 0.21904 0.70716 0.0
C165 C 0.66441 0.30639 0.7358 0.0
O166 O 0.65369 0.31969 0.72888 0.0
C167 C 0.57893 0.22347 0.77539 0.0
Zn168 Zn 0.34475 0.58562 0.91884 0.0
Zn169 Zn 0.36803 0.63532 0.91248 0.0
O170 O 0.32835 0.62365 0.90999 0.0
O171 O 0.30989 0.58181 0.91364 0.0
O172 O 0.38741 0.67415 0.90916 0.0
O173 O 0.35899 0.5898 0.95028 0.0
O174 O 0.3823 0.63112 0.94362 0.0
C175 C 0.30789 0.60151 0.91052 0.0
C176 C 0.37881 0.60083 0.88113 0.0
O177 O 0.38144 0.62279 0.88577 0.0
O178 O 0.36442 0.58173 0.89313 0.0
C179 C 0.37933 0.68864 0.91698 0.0
O180 O 0.35686 0.67821 0.92713 0.0
C181 C 0.37641 0.61211 0.95647 0.0
Zn182 Zn 0.78526 0.44644 0.0717 0.0
Zn183 Zn 0.75682 0.39569 0.06599 0.0
O184 O 0.7294 0.40742 0.07082 0.0
O185 O 0.75354 0.44932 0.0754 0.0
O186 O 0.73511 0.35683 0.06117 0.0
O187 O 0.8006 0.44978 0.04103 0.0
O188 O 0.77775 0.40778 0.03638 0.0
C189 C 0.73135 0.42936 0.07421 0.0
C190 C 0.79875 0.42017 0.10419 0.0
O191 O 0.78112 0.40051 0.09343 0.0
O192 O 0.8038 0.44242 0.09857 0.0
C193 C 0.73186 0.34071 0.07644 0.0
O194 O 0.74231 0.34916 0.09672 0.0
C195 C 0.79441 0.42981 0.02915 0.0
Zn196 Zn 0.35005 0.78757 0.22291 0.0
Zn197 Zn 0.3776 0.76361 0.22558 0.0
O198 O 0.33894 0.73439 0.22484 0.0
O199 O 0.31647 0.75416 0.22077 0.0
O200 O 0.39718 0.74414 0.22591 0.0
O201 O 0.36835 0.80523 0.19461 0.0
O202 O 0.39186 0.78642 0.19739 0.0
C203 C 0.31717 0.73358 0.22251 0.0
C204 C 0.38328 0.80139 0.26317 0.0
O205 O 0.38972 0.78581 0.25474 0.0
O206 O 0.36623 0.80475 0.25321 0.0
C207 C 0.39477 0.72893 0.24173 0.0
O208 O 0.37942 0.72606 0.25866 0.0
C209 C 0.3864 0.80187 0.18739 0.0
H210 H 0.12926 0.57531 0.32311 0.0
H211 H 0.16652 0.60391 0.30086 0.0
H212 H 0.12335 0.56791 0.23904 0.0
H213 H 0.08561 0.5383 0.26145 0.0
H214 H 0.1794 0.5794 0.24249 0.0
H215 H 0.16573 0.66206 0.26263 0.0
H216 H 0.16477 0.64394 0.28699 0.0
H217 H 0.14006 0.62913 0.26512 0.0
C218 C 0.1277 0.57294 0.3048 0.0
C219 C 0.10448 0.55423 0.29406 0.0
C220 C 0.14901 0.58953 0.29211 0.0
C221 C 0.14761 0.5881 0.26836 0.0
C222 C 0.12473 0.56925 0.2574 0.0
H223 H 0.27051 0.72292 0.20441 0.0
H224 H 0.2283 0.68483 0.21013 0.0
C225 C 0.10321 0.55249 0.27018 0.0
C226 C 0.16998 0.60728 0.25545 0.0
H227 H 0.20755 0.67197 0.24978 0.0
C228 C 0.18541 0.59963 0.24365 0.0
C229 C 0.17754 0.63357 0.2568 0.0
C230 C 0.16105 0.64271 0.26839 0.0
C231 C 0.20902 0.61786 0.23412 0.0
C232 C 0.21748 0.64433 0.23691 0.0
C233 C 0.20126 0.65173 0.24773 0.0
C234 C 0.24348 0.66496 0.22987 0.0
C235 C 0.22467 0.60857 0.22136 0.0
C236 C 0.26627 0.66624 0.23849 0.0
C237 C 0.29057 0.68794 0.23493 0.0
C238 C 0.29239 0.70894 0.22316 0.0
C239 C 0.2697 0.70712 0.21372 0.0
C240 C 0.24555 0.68533 0.21695 0.0
H241 H 0.21202 0.58898 0.21404 0.0
H242 H 0.23562 0.6217 0.20745 0.0
H243 H 0.23876 0.60763 0.23326 0.0
H244 H 0.26521 0.65112 0.24899 0.0
H245 H 0.30771 0.68889 0.24253 0.0
H246 H 0.53398 0.13732 0.48789 0.0
H247 H 0.54893 0.17772 0.46844 0.0
H248 H 0.55284 0.14229 0.40572 0.0
H249 H 0.53783 0.10132 0.42536 0.0
H250 H 0.59954 0.20195 0.44412 0.0
H251 H 0.51361 0.18446 0.39126 0.0
H252 H 0.50999 0.16662 0.41674 0.0
H253 H 0.52339 0.16052 0.39198 0.0
C254 C 0.53787 0.13803 0.46992 0.0
C255 C 0.53516 0.11631 0.45819 0.0
C256 C 0.5463 0.1611 0.45882 0.0
C257 C 0.55204 0.16299 0.43571 0.0
C258 C 0.54834 0.14111 0.42358 0.0
H259 H 0.61596 0.31037 0.36494 0.0
H260 H 0.59834 0.26446 0.37165 0.0
C261 C 0.5398 0.1178 0.43476 0.0
C262 C 0.56372 0.18856 0.42523 0.0
H263 H 0.54918 0.22674 0.39304 0.0
C264 C 0.5887 0.20729 0.43266 0.0
C265 C 0.54955 0.19538 0.41024 0.0
C266 C 0.52259 0.17583 0.40201 0.0
C267 C 0.59952 0.23293 0.42621 0.0
C268 C 0.58479 0.24012 0.41228 0.0
C269 C 0.56033 0.22116 0.40385 0.0
C270 C 0.59391 0.26748 0.40774 0.0
C271 C 0.62645 0.25228 0.43478 0.0
C272 C 0.59667 0.28421 0.42572 0.0
C273 C 0.60665 0.31035 0.42198 0.0
C274 C 0.61406 0.32032 0.40013 0.0
C275 C 0.61056 0.30335 0.38199 0.0
C276 C 0.60046 0.27712 0.38576 0.0
H277 H 0.63765 0.24288 0.44001 0.0
H278 H 0.6374 0.26657 0.4216 0.0
H279 H 0.62493 0.26271 0.4498 0.0
H280 H 0.59138 0.27706 0.44276 0.0
H281 H 0.60893 0.32278 0.43632 0.0
H282 H 0.39882 0.50451 0.6122 0.0
H283 H 0.37763 0.52397 0.59118 0.0
H284 H 0.44964 0.59627 0.59185 0.0
H285 H 0.47058 0.57695 0.61364 0.0
H286 H 0.41315 0.60164 0.6107 0.0
H287 H 0.37284 0.54864 0.52957 0.0
H288 H 0.36342 0.52716 0.55292 0.0
H289 H 0.39722 0.54598 0.54593 0.0
C290 C 0.4104 0.52422 0.6069 0.0
C291 C 0.43634 0.53923 0.61442 0.0
C292 C 0.39827 0.53538 0.59487 0.0
C293 C 0.41201 0.56163 0.58981 0.0
C294 C 0.43861 0.576 0.59554 0.0
H295 H 0.336 0.64073 0.52912 0.0
H296 H 0.36388 0.62204 0.53523 0.0
C297 C 0.45063 0.56494 0.60783 0.0
C298 C 0.39783 0.5749 0.58231 0.0
H299 H 0.35228 0.57167 0.5444 0.0
C300 C 0.40019 0.5953 0.59596 0.0
C301 C 0.38096 0.56683 0.56304 0.0
C302 C 0.37867 0.54612 0.54691 0.0
C303 C 0.38554 0.60718 0.59139 0.0
C304 C 0.36748 0.59805 0.573 0.0
C305 C 0.36583 0.57838 0.55874 0.0
C306 C 0.34977 0.60834 0.56878 0.0
C307 C 0.38951 0.6294 0.60643 0.0
C308 C 0.33221 0.60639 0.58543 0.0
C309 C 0.31637 0.61713 0.58207 0.0
C310 C 0.31757 0.62988 0.56187 0.0
C311 C 0.33466 0.63117 0.54493 0.0
C312 C 0.35057 0.62044 0.54835 0.0
H313 H 0.40884 0.63875 0.61516 0.0
H314 H 0.38778 0.64408 0.59652 0.0
H315 H 0.37449 0.62224 0.61966 0.0
H316 H 0.33088 0.59667 0.60114 0.0
H317 H 0.30328 0.61555 0.59539 0.0
H318 H 0.90812 0.38758 0.77856 0.0
H319 H 0.86476 0.36313 0.76073 0.0
H320 H 0.85978 0.43213 0.75809 0.0
H321 H 0.90298 0.45651 0.77589 0.0
H322 H 0.82291 0.36181 0.78468 0.0
H323 H 0.8262 0.39541 0.69689 0.0
H324 H 0.85465 0.39919 0.71186 0.0
H325 H 0.84263 0.4207 0.7178 0.0
C326 C 0.89823 0.39768 0.77321 0.0
C327 C 0.90889 0.42392 0.77847 0.0
C328 C 0.8734 0.38369 0.7632 0.0
C329 C 0.85907 0.39582 0.75799 0.0
C330 C 0.87061 0.42244 0.76159 0.0
H331 H 0.70071 0.35741 0.73312 0.0
H332 H 0.7479 0.37744 0.73738 0.0
C333 C 0.89528 0.43636 0.77177 0.0
C334 C 0.83089 0.38037 0.7524 0.0
H335 H 0.78435 0.37282 0.7136 0.0
C336 C 0.81446 0.36386 0.76898 0.0
C337 C 0.81995 0.38342 0.73208 0.0
C338 C 0.83675 0.40047 0.71352 0.0
C339 C 0.78734 0.35104 0.76619 0.0
C340 C 0.77629 0.35422 0.74593 0.0
C341 C 0.79278 0.37034 0.72911 0.0
C342 C 0.74768 0.34174 0.7423 0.0
C343 C 0.77083 0.3352 0.78549 0.0
C344 C 0.73183 0.31495 0.74326 0.0
C345 C 0.70481 0.30348 0.74115 0.0
C346 C 0.69309 0.31852 0.73762 0.0
C347 C 0.70907 0.34526 0.73591 0.0
C348 C 0.73608 0.35675 0.73827 0.0
H349 H 0.78198 0.34043 0.80183 0.0
H350 H 0.75365 0.33762 0.7876 0.0
H351 H 0.76387 0.31461 0.78181 0.0
H352 H 0.74033 0.30289 0.74576 0.0
H353 H 0.69311 0.2828 0.74224 0.0
H354 H 0.55027 0.92948 0.94641 0.0
H355 H 0.52786 0.88708 0.92755 0.0
H356 H 0.45404 0.88136 0.94105 0.0
H357 H 0.47633 0.92385 0.95917 0.0
H358 H 0.49728 0.84498 0.95058 0.0
H359 H 0.43929 0.84937 0.8788 0.0
H360 H 0.46551 0.87791 0.89217 0.0
H361 H 0.43365 0.86227 0.90427 0.0
C362 C 0.52933 0.91965 0.94442 0.0
C363 C 0.51505 0.92996 0.95428 0.0
C364 C 0.5165 0.8953 0.93383 0.0
C365 C 0.4892 0.88096 0.93275 0.0
C366 C 0.47506 0.89211 0.94118 0.0
H367 H 0.36697 0.72488 0.93037 0.0
H368 H 0.39508 0.77157 0.93128 0.0
C369 C 0.48784 0.91639 0.95168 0.0
C370 C 0.47543 0.85322 0.92605 0.0
H371 H 0.42373 0.80733 0.89492 0.0
C372 C 0.48158 0.83683 0.93803 0.0
C373 C 0.45479 0.84247 0.90979 0.0
C374 C 0.44812 0.859 0.89537 0.0
C375 C 0.46691 0.81003 0.93505 0.0
C376 C 0.44563 0.79927 0.9195 0.0
C377 C 0.43997 0.81562 0.90693 0.0
C378 C 0.42819 0.77104 0.91712 0.0
C379 C 0.4735 0.79336 0.94938 0.0
C380 C 0.43731 0.75525 0.90843 0.0
C381 C 0.42127 0.7285 0.90786 0.0
C382 C 0.39578 0.71703 0.91601 0.0
C383 C 0.3865 0.73301 0.92407 0.0
C384 C 0.40252 0.75973 0.92454 0.0
H385 H 0.48758 0.80445 0.96334 0.0
H386 H 0.4557 0.77755 0.95686 0.0
H387 H 0.48223 0.78459 0.93853 0.0
H388 H 0.45697 0.76361 0.90238 0.0
H389 H 0.42903 0.71682 0.90145 0.0
H390 H 0.60473 0.53057 0.12893 0.0
H391 H 0.62598 0.51158 0.10746 0.0
H392 H 0.55761 0.43685 0.11218 0.0
H393 H 0.53612 0.45581 0.13363 0.0
H394 H 0.60125 0.43832 0.12922 0.0
H395 H 0.62149 0.48153 0.04435 0.0
H396 H 0.63143 0.50536 0.06663 0.0
H397 H 0.59755 0.48189 0.06271 0.0
C398 C 0.59379 0.51028 0.12461 0.0
C399 C 0.56876 0.49469 0.13307 0.0
C400 C 0.606 0.4994 0.11233 0.0
C401 C 0.59335 0.47278 0.10809 0.0
C402 C 0.56773 0.45742 0.11521 0.0
H403 H 0.67954 0.39163 0.07434 0.0
H404 H 0.64197 0.39773 0.07957 0.0
C405 C 0.55549 0.46829 0.12747 0.0
C406 C 0.60819 0.46082 0.09923 0.0
H407 H 0.64955 0.4657 0.05742 0.0
C408 C 0.61134 0.44379 0.11325 0.0
C409 C 0.62129 0.46793 0.0784 0.0
C410 C 0.61757 0.48498 0.06205 0.0
C411 C 0.6287 0.4352 0.10781 0.0
C412 C 0.64297 0.44355 0.08761 0.0
C413 C 0.63864 0.45935 0.07293 0.0
C414 C 0.66492 0.43913 0.083 0.0
C415 C 0.63293 0.4187 0.12445 0.0
C416 C 0.6901 0.46032 0.0827 0.0
C417 C 0.7114 0.45694 0.07968 0.0
C418 C 0.7081 0.43221 0.07681 0.0
C419 C 0.68277 0.4109 0.07664 0.0
C420 C 0.66131 0.41435 0.07969 0.0
H421 H 0.62326 0.41718 0.14084 0.0
H422 H 0.62493 0.39907 0.11707 0.0
H423 H 0.654 0.42658 0.12788 0.0
H424 H 0.69337 0.47959 0.08525 0.0
H425 H 0.73054 0.47387 0.0798 0.0
H426 H 0.42633 0.94448 0.51372 0.0
H427 H 0.40288 0.90512 0.53516 0.0
H428 H 0.46637 0.89052 0.5274 0.0
H429 H 0.48999 0.93 0.50589 0.0
H430 H 0.42049 0.85127 0.51102 0.0
H431 H 0.40629 0.87847 0.59734 0.0
H432 H 0.39742 0.89359 0.57574 0.0
H433 H 0.43067 0.9011 0.57867 0.0
C434 C 0.43578 0.93348 0.51736 0.0
C435 C 0.45999 0.94031 0.50804 0.0
C436 C 0.42231 0.91091 0.52964 0.0
C437 C 0.4329 0.89489 0.53301 0.0
C438 C 0.45784 0.90259 0.52505 0.0
H439 H 0.34118 0.72989 0.56563 0.0
H440 H 0.37923 0.77252 0.56018 0.0
C441 C 0.47131 0.92514 0.51276 0.0
C442 C 0.41644 0.86859 0.54174 0.0
H443 H 0.37569 0.83521 0.58452 0.0
C444 C 0.41111 0.84769 0.52732 0.0
C445 C 0.4042 0.86397 0.56296 0.0
C446 C 0.41013 0.88548 0.57966 0.0
C447 C 0.39267 0.82245 0.53289 0.0
C448 C 0.37952 0.81793 0.55367 0.0
C449 C 0.38576 0.8387 0.56859 0.0
C450 C 0.35728 0.79232 0.559 0.0
C451 C 0.38627 0.80105 0.51587 0.0
C452 C 0.3325 0.78945 0.56086 0.0
C453 C 0.31087 0.76529 0.56407 0.0
C454 C 0.31348 0.74335 0.56554 0.0
C455 C 0.33846 0.74634 0.56441 0.0
C456 C 0.36021 0.77066 0.56121 0.0
H457 H 0.39472 0.80843 0.49902 0.0
H458 H 0.39422 0.789 0.52215 0.0
H459 H 0.36492 0.7886 0.51365 0.0
H460 H 0.32978 0.80587 0.55922 0.0
H461 H 0.292 0.76382 0.565 0.0
H462 H 0.48082 0.42326 0.69207 0.0
H463 H 0.49843 0.40065 0.71339 0.0
H464 H 0.57579 0.4652 0.70692 0.0
H465 H 0.55821 0.4879 0.68548 0.0
H466 H 0.57063 0.4212 0.68877 0.0
H467 H 0.53043 0.40207 0.77501 0.0
H468 H 0.50569 0.39365 0.75353 0.0
H469 H 0.53078 0.42667 0.75745 0.0
C470 C 0.50143 0.43312 0.69609 0.0
C471 C 0.51815 0.4573 0.68702 0.0
C472 C 0.51153 0.42014 0.70828 0.0
C473 C 0.53847 0.43123 0.71181 0.0
C474 C 0.55496 0.45628 0.70442 0.0
H475 H 0.6159 0.34019 0.73734 0.0
H476 H 0.6108 0.37815 0.73442 0.0
C477 C 0.54489 0.46924 0.69222 0.0
C478 C 0.54946 0.41517 0.71964 0.0
H479 H 0.54404 0.37299 0.7604 0.0
C480 C 0.56534 0.4111 0.70469 0.0
C481 C 0.5425 0.40197 0.74036 0.0
C482 C 0.52662 0.4065 0.7576 0.0
C483 C 0.57298 0.39293 0.70915 0.0
C484 C 0.56493 0.37878 0.72937 0.0
C485 C 0.55019 0.38383 0.74489 0.0
C486 C 0.56876 0.35654 0.73328 0.0
C487 C 0.58814 0.38786 0.69149 0.0
C488 C 0.54691 0.33195 0.73434 0.0
C489 C 0.54974 0.31039 0.73612 0.0
C490 C 0.57455 0.31285 0.73692 0.0
C491 C 0.59653 0.3376 0.73659 0.0
C492 C 0.59364 0.35929 0.73484 0.0
H493 H 0.58879 0.39717 0.67514 0.0
H494 H 0.6084 0.39555 0.69778 0.0
H495 H 0.57954 0.36692 0.68825 0.0
H496 H 0.52753 0.32933 0.73316 0.0
H497 H 0.53233 0.2917 0.73647 0.0
H498 H 0.07895 0.48853 0.85094 0.0
H499 H 0.11889 0.51118 0.87389 0.0
H500 H 0.12491 0.5836 0.85751 0.0
H501 H 0.08481 0.561 0.83462 0.0
H502 H 0.16741 0.57985 0.84474 0.0
H503 H 0.14441 0.55134 0.93413 0.0
H504 H 0.13022 0.5244 0.91466 0.0
H505 H 0.12007 0.54798 0.91355 0.0
C506 C 0.08813 0.50918 0.85302 0.0
C507 C 0.07882 0.52298 0.84086 0.0
C508 C 0.11103 0.52215 0.86614 0.0
C509 C 0.12489 0.54912 0.86746 0.0
C510 C 0.11453 0.56281 0.85675 0.0
H511 H 0.29382 0.63797 0.90126 0.0
H512 H 0.24972 0.63024 0.89343 0.0
C513 C 0.09163 0.54986 0.84369 0.0
C514 C 0.15185 0.56284 0.8769 0.0
H515 H 0.18865 0.56655 0.92322 0.0
C516 C 0.17211 0.57746 0.86206 0.0
C517 C 0.1579 0.55969 0.89946 0.0
C518 C 0.13698 0.5452 0.91645 0.0
C519 C 0.19824 0.58747 0.86866 0.0
C520 C 0.20428 0.5832 0.89091 0.0
C521 C 0.18403 0.56983 0.90616 0.0
C522 C 0.2309 0.58908 0.8976 0.0
C523 C 0.21899 0.60096 0.85127 0.0
C524 C 0.23486 0.56875 0.90327 0.0
C525 C 0.25977 0.5731 0.90789 0.0
C526 C 0.28152 0.59797 0.90694 0.0
C527 C 0.27754 0.61858 0.90196 0.0
C528 C 0.25237 0.61416 0.89739 0.0
H529 H 0.21068 0.59869 0.83384 0.0
H530 H 0.23022 0.62177 0.85557 0.0
H531 H 0.23267 0.59346 0.85126 0.0
H532 H 0.21866 0.54925 0.90354 0.0
H533 H 0.26193 0.55671 0.91179 0.0
H534 H 0.57548 0.10954 0.01363 0.0
H535 H 0.59967 0.15146 0.03277 0.0
H536 H 0.66828 0.14432 0.03456 0.0
H537 H 0.64428 0.10259 0.01466 0.0
H538 H 0.62846 0.17252 0.07186 0.0
H539 H 0.69068 0.20749 -0.00394 0.0
H540 H 0.66173 0.17637 -0.00338 0.0
H541 H 0.69121 0.18149 0.01021 0.0
C542 C 0.59558 0.11665 0.01855 0.0
C543 C 0.60809 0.10294 0.01235 0.0
C544 C 0.6094 0.14063 0.0295 0.0
C545 C 0.63599 0.15138 0.03452 0.0
C546 C 0.64792 0.13666 0.03033 0.0
H547 H 0.72664 0.30173 0.10342 0.0
H548 H 0.70387 0.25574 0.09444 0.0
C549 C 0.6341 0.11264 0.01926 0.0
C550 C 0.65138 0.17876 0.04211 0.0
H551 H 0.69963 0.23756 0.02561 0.0
C552 C 0.64417 0.18673 0.06186 0.0
C553 C 0.6715 0.1974 0.02877 0.0
C554 C 0.67915 0.1904 0.00663 0.0
C555 C 0.6564 0.21279 0.06857 0.0
C556 C 0.67679 0.23135 0.0554 0.0
C557 C 0.68411 0.22333 0.03576 0.0
C558 C 0.69029 0.2593 0.06118 0.0
C559 C 0.64672 0.22025 0.08922 0.0
C560 C 0.69083 0.2768 0.04529 0.0
C561 C 0.70413 0.30319 0.05026 0.0
C562 C 0.7172 0.31268 0.07126 0.0
C563 C 0.7166 0.29511 0.08716 0.0
C564 C 0.70344 0.26873 0.08211 0.0
H565 H 0.62683 0.20506 0.09364 0.0
H566 H 0.6598 0.22319 0.10394 0.0
H567 H 0.64657 0.23841 0.08652 0.0
H568 H 0.68092 0.27002 0.02898 0.0
H569 H 0.70421 0.31615 0.03761 0.0
H570 H 0.53337 0.62662 0.20196 0.0
H571 H 0.51455 0.64984 0.22074 0.0
H572 H 0.43917 0.58126 0.2178 0.0
H573 H 0.45791 0.55831 0.19839 0.0
H574 H 0.43885 0.61943 0.19612 0.0
H575 H 0.48561 0.65625 0.28049 0.0
H576 H 0.50887 0.66374 0.25856 0.0
H577 H 0.48723 0.63074 0.26551 0.0
C578 C 0.51305 0.61623 0.20636 0.0
C579 C 0.49708 0.59069 0.19888 0.0
C580 C 0.50226 0.62952 0.21707 0.0
C581 C 0.47541 0.61732 0.22076 0.0
C582 C 0.45992 0.59108 0.21517 0.0
H583 H 0.39195 0.69295 0.2715 0.0
H584 H 0.41159 0.66574 0.26783 0.0
C585 C 0.47064 0.57791 0.20425 0.0
C586 C 0.4629 0.63271 0.22649 0.0
H587 H 0.46457 0.67762 0.26363 0.0
C588 C 0.44426 0.63186 0.21108 0.0
C589 C 0.46987 0.64895 0.24598 0.0
C590 C 0.48881 0.64982 0.2637 0.0
C591 C 0.43294 0.64722 0.21426 0.0
C592 C 0.44083 0.66438 0.23313 0.0
C593 C 0.45883 0.66471 0.24899 0.0
C594 C 0.43066 0.68222 0.23635 0.0
C595 C 0.4126 0.64493 0.19733 0.0
C596 C 0.43537 0.7009 0.22014 0.0
C597 C 0.42412 0.7164 0.22212 0.0
C598 C 0.40803 0.71362 0.24044 0.0
C599 C 0.40412 0.69551 0.25711 0.0
C600 C 0.41539 0.67998 0.25509 0.0
H601 H 0.40388 0.6265 0.18754 0.0
H602 H 0.39683 0.64634 0.20594 0.0
H603 H 0.42172 0.66079 0.18511 0.0
H604 H 0.44745 0.70322 0.20574 0.0
H605 H 0.42774 0.73028 0.20908 0.0
H606 H 0.90055 0.46472 0.30898 0.0
H607 H 0.86167 0.45328 0.33049 0.0
H608 H 0.89842 0.44427 0.39054 0.0
H609 H 0.93809 0.45659 0.36888 0.0
H610 H 0.8301 0.409 0.35138 0.0
H611 H 0.87212 0.49055 0.41397 0.0
H612 H 0.88946 0.49016 0.3892 0.0
H613 H 0.88688 0.4708 0.41308 0.0
C614 C 0.90036 0.46032 0.32678 0.0
C615 C 0.92218 0.46133 0.33728 0.0
C616 C 0.87813 0.45375 0.33906 0.0
C617 C 0.87707 0.44792 0.36214 0.0
C618 C 0.89892 0.44903 0.37282 0.0
H619 H 0.71763 0.39161 0.41212 0.0
H620 H 0.75853 0.39183 0.40614 0.0
C621 C 0.92148 0.45596 0.36049 0.0
C622 C 0.85278 0.44076 0.37442 0.0
H623 H 0.82708 0.46298 0.4141 0.0
C624 C 0.8294 0.42053 0.36535 0.0
C625 C 0.85198 0.45582 0.39265 0.0
C626 C 0.87637 0.47817 0.40277 0.0
C627 C 0.80522 0.41615 0.3728 0.0
C628 C 0.80439 0.43191 0.39041 0.0
C629 C 0.82777 0.45093 0.4006 0.0
C630 C 0.77996 0.43158 0.39615 0.0
C631 C 0.78094 0.39595 0.36057 0.0
C632 C 0.77864 0.45402 0.39336 0.0
C633 C 0.75559 0.45406 0.39712 0.0
C634 C 0.73313 0.43158 0.40361 0.0
C635 C 0.73452 0.40916 0.40689 0.0
C636 C 0.75784 0.40924 0.40339 0.0
H637 H 0.78536 0.38911 0.34455 0.0
H638 H 0.77046 0.37918 0.37167 0.0
H639 H 0.76776 0.4035 0.35646 0.0
H640 H 0.79538 0.47148 0.38773 0.0
H641 H 0.75528 0.47169 0.39444 0.0
H642 H 0.0584 0.54081 0.38297 0.0
H643 H 0.08308 0.55104 0.41863 0.0
H644 H 0.11721 0.50598 0.39692 0.0
H645 H 0.0927 0.4959 0.36088 0.0
H646 H 0.0927 0.52665 0.45451 0.0
H647 H 0.17908 0.57915 0.40004 0.0
H648 H 0.14636 0.56568 0.38898 0.0
H649 H 0.15959 0.54518 0.39473 0.0
C650 C 0.0703 0.53216 0.38613 0.0
C651 C 0.07388 0.51781 0.36903 0.0
C652 C 0.08456 0.53818 0.40649 0.0
C653 C 0.10252 0.52987 0.41011 0.0
C654 C 0.10391 0.51309 0.39419 0.0
H655 H 0.22983 0.60572 0.51229 0.0
H656 H 0.20078 0.57441 0.48338 0.0
C657 C 0.08977 0.5072 0.37372 0.0
C658 C 0.12192 0.54168 0.42891 0.0
H659 H 0.18595 0.58539 0.43931 0.0
C660 C 0.11316 0.53914 0.45125 0.0
C661 C 0.14863 0.5581 0.42458 0.0
C662 C 0.15907 0.56244 0.40081 0.0
C663 C 0.13022 0.55329 0.46925 0.0
C664 C 0.15661 0.57056 0.46472 0.0
C665 C 0.16568 0.57207 0.44265 0.0
C666 C 0.17436 0.58926 0.48208 0.0
C667 C 0.11977 0.55023 0.49291 0.0
C668 C 0.16949 0.60836 0.49029 0.0
C669 C 0.18607 0.62635 0.5065 0.0
C670 C 0.20793 0.62561 0.51489 0.0
C671 C 0.21316 0.6068 0.50621 0.0
C672 C 0.19655 0.58884 0.4898 0.0
H673 H 0.10156 0.53156 0.4947 0.0
H674 H 0.13426 0.55162 0.50576 0.0
H675 H 0.11539 0.56579 0.49658 0.0
H676 H 0.15278 0.60935 0.48413 0.0
H677 H 0.18144 0.64057 0.51273 0.0
H678 H 0.58585 0.10073 0.5195 0.0
H679 H 0.60375 0.12225 0.55624 0.0
H680 H 0.52631 0.08729 0.58266 0.0
H681 H 0.50852 0.06557 0.54626 0.0
H682 H 0.59239 0.15737 0.57014 0.0
H683 H 0.56566 0.08678 0.63803 0.0
H684 H 0.56499 0.07814 0.60845 0.0
H685 H 0.53775 0.07908 0.62054 0.0
C686 C 0.57281 0.09684 0.53349 0.0
C687 C 0.5458 0.08159 0.53004 0.0
C688 C 0.58304 0.10917 0.55444 0.0
C689 C 0.56642 0.10638 0.57226 0.0
C690 C 0.53963 0.08933 0.5694 0.0
H691 H 0.54211 0.18705 0.67485 0.0
H692 H 0.5435 0.15961 0.64483 0.0
C693 C 0.52942 0.07688 0.54851 0.0
C694 C 0.57606 0.1246 0.59194 0.0
H695 H 0.56949 0.12793 0.64913 0.0
C696 C 0.5881 0.15099 0.5875 0.0
C697 C 0.57048 0.11632 0.61458 0.0
C698 C 0.55926 0.08853 0.62067 0.0
C699 C 0.5928 0.16905 0.60485 0.0
C700 C 0.58539 0.16048 0.62716 0.0
C701 C 0.57494 0.13437 0.6319 0.0
C702 C 0.58537 0.17777 0.64517 0.0
C703 C 0.60401 0.19693 0.599 0.0
C704 C 0.60857 0.19731 0.65506 0.0
C705 C 0.60789 0.2132 0.67229 0.0
C706 C 0.58398 0.2097 0.67984 0.0
C707 C 0.56087 0.19035 0.66949 0.0
C708 C 0.56159 0.17452 0.6524 0.0
H709 H 0.60681 0.20012 0.58047 0.0
H710 H 0.59103 0.20402 0.60494 0.0
H711 H 0.62309 0.20855 0.60783 0.0
H712 H 0.62711 0.20002 0.64968 0.0
H713 H 0.62603 0.22782 0.67999 0.0
H714 H 0.42129 0.55069 0.68492 0.0
H715 H 0.4155 0.56609 0.72134 0.0
H716 H 0.47318 0.55174 0.75183 0.0
H717 H 0.48009 0.53718 0.71473 0.0
H718 H 0.39843 0.5354 0.75885 0.0
H719 H 0.49294 0.62434 0.7767 0.0
H720 H 0.48314 0.61009 0.74857 0.0
H721 H 0.49429 0.59594 0.76925 0.0
C722 C 0.43345 0.55152 0.69911 0.0
C723 C 0.45151 0.54305 0.69675 0.0
C724 C 0.42989 0.56013 0.72002 0.0
C725 C 0.44408 0.56031 0.73922 0.0
C726 C 0.46236 0.55216 0.73709 0.0
H727 H 0.38691 0.56075 0.87365 0.0
H728 H 0.4058 0.55228 0.84051 0.0
C729 C 0.46608 0.54361 0.71597 0.0
C730 C 0.4377 0.56696 0.76157 0.0
H731 H 0.46101 0.6115 0.80495 0.0
C732 C 0.41216 0.55197 0.76899 0.0
C733 C 0.45559 0.58875 0.77457 0.0
C734 C 0.48301 0.6059 0.76689 0.0
C735 C 0.40385 0.5583 0.7889 0.0
C736 C 0.42177 0.57989 0.8021 0.0
C737 C 0.44741 0.59489 0.79481 0.0
C738 C 0.41382 0.58703 0.82341 0.0
C739 C 0.37572 0.54218 0.79529 0.0
C740 C 0.41315 0.60999 0.8252 0.0
C741 C 0.4025 0.61505 0.8443 0.0
C742 C 0.39227 0.59711 0.86176 0.0
C743 C 0.39417 0.57475 0.86031 0.0
C744 C 0.40501 0.56987 0.8414 0.0
H745 H 0.3633 0.53056 0.78063 0.0
H746 H 0.37407 0.52876 0.80878 0.0
H747 H 0.36806 0.55439 0.80192 0.0
H748 H 0.41997 0.6235 0.81146 0.0
H749 H 0.40145 0.6325 0.84502 0.0
H750 H 0.9211 0.48178 0.84416 0.0
H751 H 0.89825 0.4801 0.87893 0.0
H752 H 0.924 0.43153 0.90918 0.0
H753 H 0.94688 0.4331 0.87441 0.0
H754 H 0.85792 0.43244 0.89406 0.0
H755 H 0.93458 0.48339 0.96069 0.0
H756 H 0.94113 0.488 0.93073 0.0
H757 H 0.9374 0.45969 0.94405 0.0
C758 C 0.92245 0.47131 0.85847 0.0
C759 C 0.93569 0.45751 0.8566 0.0
C760 C 0.90935 0.47032 0.87825 0.0
C761 C 0.90942 0.45567 0.89656 0.0
C762 C 0.92401 0.44322 0.89533 0.0
H763 H 0.79248 0.3915 0.00182 0.0
H764 H 0.81964 0.39672 0.96904 0.0
C765 C 0.93716 0.44422 0.8755 0.0
C766 C 0.892 0.45124 0.9158 0.0
H767 H 0.89103 0.46057 0.97291 0.0
C768 C 0.86513 0.43862 0.91131 0.0
C769 C 0.90153 0.45932 0.93822 0.0
C770 C 0.93024 0.47354 0.9438 0.0
C771 C 0.84747 0.43391 0.92869 0.0
C772 C 0.85697 0.44179 0.95115 0.0
C773 C 0.88384 0.4544 0.95565 0.0
C774 C 0.83945 0.43825 0.97009 0.0
C775 C 0.81885 0.42105 0.92285 0.0
C776 C 0.84156 0.45984 0.98138 0.0
C777 C 0.82615 0.45695 -1e-05 0.0
C778 C 0.80839 0.43236 0.00783 0.0
C779 C 0.80584 0.41068 -0.00386 0.0
C780 C 0.82133 0.41362 0.97743 0.0
H781 H 0.81521 0.42087 0.90429 0.0
H782 H 0.80915 0.40088 0.92853 0.0
H783 H 0.80978 0.4309 0.93169 0.0
H784 H 0.85538 0.47899 0.97591 0.0
H785 H 0.82862 0.47409 0.00854 0.0
H786 H 0.55644 0.96231 0.04705 0.0
H787 H 0.53679 0.93863 0.08175 0.0
H788 H 0.46267 0.92849 0.06014 0.0
H789 H 0.48216 0.95198 0.02545 0.0
H790 H 0.47904 0.93935 0.11139 0.0
H791 H 0.48283 0.85805 0.06879 0.0
H792 H 0.51189 0.88909 0.07016 0.0
H793 H 0.48474 0.88445 0.05299 0.0
C794 C 0.53621 0.9559 0.05019 0.0
C795 C 0.52074 0.95888 0.03367 0.0
C796 C 0.52499 0.94223 0.06986 0.0
C797 C 0.49828 0.93164 0.07326 0.0
C798 C 0.48332 0.93654 0.05774 0.0
H799 H 0.3751 0.82958 0.15786 0.0
H800 H 0.40417 0.86122 0.13108 0.0
C801 C 0.49445 0.94998 0.03802 0.0
C802 C 0.48514 0.91286 0.09128 0.0
H803 H 0.46093 0.84962 0.10324 0.0
C804 C 0.4753 0.91981 0.10982 0.0
C805 C 0.48041 0.88743 0.08907 0.0
C806 C 0.49036 0.87908 0.06917 0.0
C807 C 0.46041 0.90177 0.12615 0.0
C808 C 0.45463 0.876 0.12339 0.0
C809 C 0.46526 0.86932 0.10523 0.0
C810 C 0.4366 0.85549 0.13856 0.0
C811 C 0.45102 0.91053 0.14617 0.0
C812 C 0.44465 0.84061 0.15062 0.0
C813 C 0.42786 0.82209 0.16571 0.0
C814 C 0.40277 0.81823 0.16895 0.0
C815 C 0.3944 0.83229 0.15596 0.0
C816 C 0.41108 0.85059 0.1408 0.0
H817 H 0.46364 0.93145 0.14965 0.0
H818 H 0.43112 0.90686 0.14237 0.0
H819 H 0.45044 0.90001 0.16172 0.0
H820 H 0.46418 0.84386 0.14887 0.0
H821 H 0.4349 0.8116 0.17549 0.0
H822 H 0.5682 0.52468 0.23019 0.0
H823 H 0.57077 0.50277 0.26382 0.0
H824 H 0.51514 0.42974 0.23342 0.0
H825 H 0.51246 0.45163 0.19951 0.0
H826 H 0.53599 0.46692 0.29523 0.0
H827 H 0.58181 0.42542 0.23991 0.0
H828 H 0.57623 0.45069 0.23046 0.0
H829 H 0.54957 0.41841 0.23213 0.0
C830 C 0.55578 0.50405 0.23094 0.0
C831 C 0.54035 0.48985 0.2121 0.0
C832 C 0.55739 0.49152 0.25015 0.0
C833 C 0.54361 0.46461 0.25086 0.0
C834 C 0.52634 0.45049 0.23298 0.0
H835 H 0.59624 0.39044 0.35107 0.0
H836 H 0.5679 0.39311 0.32175 0.0
C837 C 0.52477 0.46302 0.21369 0.0
C838 C 0.54987 0.45175 0.26911 0.0
H839 H 0.58432 0.42124 0.2791 0.0
C840 C 0.54605 0.45643 0.29172 0.0
C841 C 0.56294 0.43799 0.26446 0.0
C842 C 0.5681 0.43288 0.24047 0.0
C843 C 0.55623 0.449 0.30978 0.0
C844 C 0.57087 0.43691 0.30506 0.0
C845 C 0.57307 0.43053 0.28258 0.0
C846 C 0.58738 0.4346 0.32275 0.0
C847 C 0.55226 0.45515 0.33377 0.0
C848 C 0.60806 0.45702 0.33238 0.0
C849 C 0.62432 0.45562 0.34877 0.0
C850 C 0.6203 0.4317 0.35595 0.0
C851 C 0.59984 0.40915 0.34593 0.0
C852 C 0.58358 0.41061 0.3293 0.0
H853 H 0.53456 0.45687 0.33497 0.0
H854 H 0.55061 0.4402 0.34561 0.0
H855 H 0.56917 0.47379 0.33931 0.0
H856 H 0.61167 0.47572 0.32715 0.0
H857 H 0.63989 0.47341 0.356 0.0
H858 H 0.51018 0.94533 0.43878 0.0
H859 H 0.50305 0.9195 0.40415 0.0
H860 H 0.45205 0.94502 0.37761 0.0
H861 H 0.45912 0.97077 0.41195 0.0
H862 H 0.45548 0.87992 0.39311 0.0
H863 H 0.49072 0.9465 0.32144 0.0
H864 H 0.50056 0.95723 0.3505 0.0
H865 H 0.47022 0.95275 0.33927 0.0
C866 C 0.49808 0.946 0.42523 0.0
C867 C 0.48518 0.96004 0.4281 0.0
C868 C 0.49402 0.93125 0.40549 0.0
C869 C 0.47715 0.93044 0.38822 0.0
C870 C 0.46564 0.94579 0.39043 0.0
H871 H 0.37415 0.83624 0.28495 0.0
H872 H 0.40005 0.86644 0.31533 0.0
C873 C 0.46972 0.96056 0.41012 0.0
C874 C 0.46848 0.91095 0.36959 0.0
H875 H 0.45647 0.90294 0.31244 0.0
C876 C 0.45626 0.88494 0.3754 0.0
C877 C 0.4695 0.91753 0.34652 0.0
C878 C 0.48371 0.94505 0.33906 0.0
C879 C 0.44354 0.86535 0.35891 0.0
C880 C 0.44322 0.87201 0.33606 0.0
C881 C 0.4566 0.89794 0.33006 0.0
C882 C 0.42717 0.85258 0.31847 0.0
C883 C 0.42924 0.83773 0.36614 0.0
C884 C 0.43367 0.8345 0.31046 0.0
C885 C 0.41882 0.81707 0.29303 0.0
C886 C 0.39731 0.81755 0.28336 0.0
C887 C 0.39056 0.8353 0.29195 0.0
C888 C 0.4054 0.85267 0.30926 0.0
H889 H 0.42893 0.83597 0.3849 0.0
H890 H 0.40893 0.82797 0.35945 0.0
H891 H 0.43883 0.82753 0.35896 0.0
H892 H 0.45053 0.83428 0.31731 0.0
H893 H 0.42462 0.80373 0.28673 0.0
H894 H 0.48763 0.4462 0.59135 0.0
H895 H 0.50974 0.43901 0.55966 0.0
H896 H 0.58294 0.50188 0.58425 0.0
H897 H 0.56098 0.50871 0.61622 0.0
H898 H 0.54224 0.46736 0.52482 0.0
H899 H 0.59419 0.44047 0.58776 0.0
H900 H 0.5674 0.44498 0.59526 0.0
H901 H 0.59941 0.47227 0.59234 0.0
C902 C 0.5083 0.45899 0.58953 0.0
C903 C 0.52269 0.47792 0.60621 0.0
C904 C 0.52093 0.45475 0.57156 0.0
C905 C 0.54805 0.46943 0.57004 0.0
C906 C 0.56208 0.4899 0.5855 0.0
H907 H 0.66257 0.47611 0.47954 0.0
H908 H 0.6377 0.48224 0.50922 0.0
C909 C 0.54952 0.49397 0.60357 0.0
C910 C 0.56188 0.46217 0.55344 0.0
H911 H 0.60784 0.44413 0.5495 0.0
C912 C 0.55645 0.46212 0.53019 0.0
C913 C 0.58013 0.45494 0.56056 0.0
C914 C 0.58547 0.45288 0.58534 0.0
C915 C 0.56951 0.45591 0.51384 0.0
C916 C 0.58832 0.44956 0.52099 0.0
C917 C 0.59342 0.44912 0.54418 0.0
C918 C 0.60384 0.44461 0.5045 0.0
C919 C 0.56366 0.45671 0.48898 0.0
C920 C 0.59321 0.42106 0.49264 0.0
C921 C 0.60747 0.41734 0.4758 0.0
C922 C 0.63244 0.43726 0.4705 0.0
C923 C 0.64335 0.46043 0.48316 0.0
C924 C 0.6292 0.46401 0.50008 0.0
H925 H 0.54979 0.46374 0.48617 0.0
H926 H 0.58189 0.46936 0.47998 0.0
H927 H 0.55522 0.43715 0.4813 0.0
H928 H 0.57367 0.40584 0.49602 0.0
H929 H 0.59848 0.39934 0.46628 0.0
H930 H 0.06252 0.55466 0.76563 0.0
H931 H 0.08959 0.57589 0.73296 0.0
H932 H 0.08916 0.50608 0.71465 0.0
H933 H 0.06184 0.48468 0.74728 0.0
H934 H 0.14021 0.55282 0.72408 0.0
H935 H 0.07849 0.5681 0.66189 0.0
H936 H 0.0757 0.57522 0.69112 0.0
H937 H 0.0652 0.54274 0.68238 0.0
C938 C 0.06743 0.54362 0.75412 0.0
C939 C 0.06003 0.51805 0.7588 0.0
C940 C 0.08288 0.55573 0.73552 0.0
C941 C 0.09128 0.54249 0.72143 0.0
C942 C 0.08269 0.51651 0.7253 0.0
H943 H 0.21768 0.60523 0.6242 0.0
H944 H 0.18574 0.57779 0.65183 0.0
C945 C 0.06695 0.50428 0.74377 0.0
C946 C 0.11158 0.55677 0.70465 0.0
H947 H 0.12403 0.59174 0.65662 0.0
C948 C 0.1367 0.56112 0.70915 0.0
C949 C 0.10687 0.5677 0.68542 0.0
C950 C 0.08008 0.56312 0.67971 0.0
C951 C 0.15755 0.57694 0.6953 0.0
C952 C 0.15292 0.58814 0.67612 0.0
C953 C 0.1276 0.58325 0.67138 0.0
C954 C 0.17403 0.60544 0.66093 0.0
C955 C 0.18444 0.58232 0.70188 0.0
C956 C 0.17814 0.63013 0.65688 0.0
C957 C 0.19612 0.64569 0.64092 0.0
C958 C 0.21045 0.63693 0.62873 0.0
C959 C 0.20718 0.61266 0.63353 0.0
C960 C 0.18893 0.59694 0.64934 0.0
H961 H 0.18578 0.57839 0.72008 0.0
H962 H 0.18919 0.56969 0.69163 0.0
H963 H 0.19923 0.60258 0.69865 0.0
H964 H 0.16693 0.63712 0.66568 0.0
H965 H 0.1982 0.6643 0.63762 0.0
H966 H 0.59575 0.06861 0.91519 0.0
H967 H 0.59394 0.09221 0.88218 0.0
H968 H 0.54163 0.11006 0.91741 0.0
H969 H 0.54331 0.0865 0.95038 0.0
H970 H 0.55164 0.09179 0.85437 0.0
H971 H 0.61003 0.18039 0.90692 0.0
H972 H 0.60639 0.14975 0.91436 0.0
H973 H 0.58059 0.15636 0.91954 0.0
C974 C 0.58312 0.07677 0.91554 0.0
C975 C 0.56983 0.07595 0.93536 0.0
C976 C 0.58226 0.09038 0.89678 0.0
C977 C 0.5681 0.10328 0.89765 0.0
C978 C 0.55299 0.10054 0.91662 0.0
H979 H 0.5362 0.18662 0.79665 0.0
H980 H 0.53464 0.15768 0.82601 0.0
C981 C 0.55386 0.08701 0.93535 0.0
C982 C 0.57108 0.1216 0.87984 0.0
H983 H 0.59499 0.18548 0.87103 0.0
C984 C 0.56115 0.11227 0.85793 0.0
C985 C 0.58397 0.14834 0.88453 0.0
C986 C 0.59609 0.15944 0.90755 0.0
C987 C 0.56309 0.12902 0.84068 0.0
C988 C 0.57505 0.15567 0.84564 0.0
C989 C 0.58564 0.16503 0.86737 0.0
C990 C 0.57628 0.17408 0.82858 0.0
C991 C 0.55249 0.11811 0.81726 0.0
C992 C 0.60032 0.19363 0.82103 0.0
C993 C 0.60135 0.21041 0.80429 0.0
C994 C 0.57831 0.20796 0.79496 0.0
C995 C 0.55433 0.18897 0.80332 0.0
C996 C 0.55335 0.17225 0.81998 0.0
H997 H 0.55011 0.09871 0.81476 0.0
H998 H 0.53314 0.11641 0.81493 0.0
H999 H 0.56541 0.1309 0.80397 0.0
H1000 H 0.61825 0.19549 0.82769 0.0
H1001 H 0.62012 0.22481 0.79825 0.0
H1002 H 0.53301 0.60162 0.10544 0.0
H1003 H 0.51524 0.61305 0.07266 0.0
H1004 H 0.43771 0.55644 0.09152 0.0
H1005 H 0.45534 0.54522 0.12437 0.0
H1006 H 0.48064 0.58587 0.03511 0.0
H1007 H 0.4386 0.6255 0.09586 0.0
H1008 H 0.46266 0.61709 0.10424 0.0
H1009 H 0.42909 0.5926 0.10091 0.0
C1010 C 0.51225 0.59104 0.1021 0.0
C1011 C 0.49547 0.57265 0.11742 0.0
C1012 C 0.50213 0.59773 0.08352 0.0
C1013 C 0.47517 0.58607 0.08012 0.0
C1014 C 0.45856 0.56607 0.09422 0.0
H1015 H 0.36067 0.58121 0.99295 0.0
H1016 H 0.38793 0.58002 0.02364 0.0
C1017 C 0.46862 0.5595 0.11281 0.0
C1018 C 0.46413 0.59589 0.06296 0.0
H1019 H 0.42341 0.62021 0.05731 0.0
C1020 C 0.46846 0.59375 0.0399 0.0
C1021 C 0.44857 0.60653 0.06937 0.0
C1022 C 0.44464 0.61084 0.09395 0.0
C1023 C 0.45625 0.60052 0.023 0.0
C1024 C 0.43958 0.60984 0.02944 0.0
C1025 C 0.43622 0.61306 0.0525 0.0
C1026 C 0.42306 0.61328 0.01258 0.0
C1027 C 0.46013 0.59645 -0.00164 0.0
C1028 C 0.43367 0.6331 -0.0032 0.0
C1029 C 0.41801 0.63402 0.97931 0.0
C1030 C 0.39168 0.61494 0.97733 0.0
C1031 C 0.38092 0.59608 0.99399 0.0
C1032 C 0.39645 0.59535 0.01151 0.0
H1033 H 0.4717 0.58672 -0.00373 0.0
H1034 H 0.44106 0.58476 0.98951 0.0
H1035 H 0.47041 0.6153 0.98995 0.0
H1036 H 0.45417 0.64725 -0.00243 0.0
H1037 H 0.42683 0.64868 0.96663 0.0
H1038 H 0.93557 0.4126 0.27311 0.0
H1039 H 0.91156 0.39489 0.23722 0.0
H1040 H 0.94333 0.47159 0.21179 0.0
H1041 H 0.96742 0.4892 0.2473 0.0
H1042 H 0.87433 0.40493 0.22615 0.0
H1043 H 0.94159 0.43398 0.15477 0.0
H1044 H 0.95225 0.43447 0.18372 0.0
H1045 H 0.9499 0.4612 0.17294 0.0
C1046 C 0.93821 0.42555 0.25947 0.0
C1047 C 0.95328 0.45228 0.26303 0.0
C1048 C 0.92446 0.41543 0.239 0.0
C1049 C 0.92567 0.43186 0.22174 0.0
C1050 C 0.94252 0.45843 0.22458 0.0
H1051 H 0.83761 0.45856 0.12954 0.0
H1052 H 0.86697 0.4554 0.1567 0.0
C1053 C 0.95634 0.46854 0.24497 0.0
C1054 C 0.90608 0.42215 0.20291 0.0
H1055 H 0.89912 0.42997 0.14649 0.0
C1056 C 0.8797 0.40964 0.20859 0.0
C1057 C 0.91303 0.42824 0.18001 0.0
C1058 C 0.94075 0.43997 0.17251 0.0
C1059 C 0.86035 0.4051 0.19235 0.0
C1060 C 0.8676 0.4132 0.16991 0.0
C1061 C 0.89369 0.42396 0.16382 0.0
C1062 C 0.84914 0.41415 0.1535 0.0
C1063 C 0.83252 0.39348 0.19959 0.0
C1064 C 0.82913 0.39184 0.14295 0.0
C1065 C 0.81212 0.39354 0.12731 0.0
C1066 C 0.81495 0.41758 0.12208 0.0
C1067 C 0.8348 0.43973 0.13311 0.0
C1068 C 0.85173 0.43801 0.14857 0.0
H1069 H 0.83025 0.38916 0.21798 0.0
H1070 H 0.8252 0.4068 0.19584 0.0
H1071 H 0.82023 0.37539 0.18978 0.0
H1072 H 0.82689 0.37325 0.1466 0.0
H1073 H 0.79712 0.37613 0.11904 0.0
loop_
_geom_bond_atom_site_label_1
_geom_bond_atom_site_label_2
_geom_bond_distance
_geom_bond_site_symmetry_2
_ccdc_geom_bond_type
H0 C8 0.930 . S
H1 C11 0.930 . S
H2 C13 0.930 . S
H3 C14 0.981 . S
H4 C14 0.970 . S
H5 C16 0.930 . S
H6 C18 0.930 . S
H7 C20 0.930 . S
C8 H0 0.930 . S
C8 C9 1.382 . S
C8 C10 1.426 . S
C9 C8 1.382 . S
C9 C13 1.389 . S
C10 C8 1.426 . S
C10 C11 1.375 . S
C10 C14 1.532 1_655 S
C11 H1 0.930 . S
C11 C10 1.375 . S
C11 C12 1.416 . S
C12 C11 1.416 . S
C12 C13 1.371 . S
C13 H2 0.930 . S
C13 C9 1.389 . S
C13 C12 1.371 . S
C14 H3 0.981 . S
C14 H4 0.970 . S
C14 C10 1.532 1_455 S
C14 C15 1.499 . S
C15 C14 1.499 . S
C15 C16 1.370 . S
C15 C20 1.415 . S
C16 H5 0.930 . S
C16 C15 1.370 . S
C16 C17 1.407 . S
C17 C16 1.407 . S
C17 C18 1.365 . S
C18 H6 0.930 . S
C18 C17 1.365 . S
C18 C19 1.393 . S
C19 C18 1.393 . S
C19 C20 1.387 . S
C20 H7 0.930 . S
C20 C15 1.415 . S
C20 C19 1.387 . S
H21 C29 0.930 . S
H22 C32 0.930 . S
H23 C34 0.930 . S
H24 C35 0.970 . S
H25 C35 0.970 . S
H26 C37 0.930 . S
H27 C39 0.930 . S
H28 C41 0.930 . S
C29 H21 0.930 . S
C29 C30 1.382 . S
C29 C31 1.426 . S
C30 C29 1.382 . S
C30 C34 1.389 . S
C31 C29 1.426 . S
C31 C32 1.375 . S
C31 C35 1.532 1_565 S
C32 H22 0.930 . S
C32 C31 1.375 . S
C32 C33 1.416 . S
C33 C32 1.416 . S
C33 C34 1.371 . S
C34 H23 0.930 . S
C34 C30 1.389 . S
C34 C33 1.371 . S
C35 H24 0.970 . S
C35 H25 0.970 . S
C35 C31 1.532 1_545 S
C35 C36 1.499 . S
C36 C35 1.499 . S
C36 C37 1.370 . S
C36 C41 1.415 . S
C37 H26 0.930 . S
C37 C36 1.370 . S
C37 C38 1.407 . S
C38 C37 1.407 . S
C38 C39 1.365 . S
C39 H27 0.930 . S
C39 C38 1.365 . S
C39 C40 1.393 . S
C40 C39 1.393 . S
C40 C41 1.387 . S
C41 H28 0.930 . S
C41 C36 1.415 . S
C41 C40 1.387 . S
H42 C50 0.930 . S
H43 C53 0.930 . S
H44 C55 0.930 . S
H45 C56 0.970 . S
H46 C56 0.970 . S
H47 C58 0.930 . S
H48 C60 0.930 . S
H49 C62 0.930 . S
C50 H42 0.930 . S
C50 C51 1.382 . S
C50 C52 1.426 . S
C51 C50 1.382 . S
C51 C55 1.389 . S
C52 C50 1.426 . S
C52 C53 1.375 . S
C52 C56 1.532 . S
C53 H43 0.930 . S
C53 C52 1.375 . S
C53 C54 1.416 . S
C54 C53 1.416 . S
C54 C55 1.371 . S
C55 H44 0.930 . S
C55 C51 1.389 . S
C55 C54 1.371 . S
C56 H45 0.970 . S
C56 H46 0.970 . S
C56 C52 1.532 . S
C56 C57 1.499 . S
C57 C56 1.499 . S
C57 C58 1.370 . S
C57 C62 1.415 . S
C58 H47 0.930 . S
C58 C57 1.370 . S
C58 C59 1.407 . S
C59 C58 1.407 . S
C59 C60 1.365 . S
C60 H48 0.930 . S
C60 C59 1.365 . S
C60 C61 1.393 . S
C61 C60 1.393 . S
C61 C62 1.387 . S
C62 H49 0.930 . S
C62 C57 1.415 . S
C62 C61 1.387 . S
H63 C71 0.930 . S
H64 C74 0.930 . S
H65 C76 0.930 . S
H66 C77 0.970 . S
H67 C77 0.970 . S
H68 C79 0.930 . S
H69 C81 0.930 . S
H70 C83 0.930 . S
C71 H63 0.930 . S
C71 C72 1.382 . S
C71 C73 1.426 . S
C72 C71 1.382 . S
C72 C76 1.389 . S
C73 C71 1.426 . S
C73 C74 1.375 . S
C73 C77 1.532 1_655 S
C74 H64 0.930 . S
C74 C73 1.375 . S
C74 C75 1.416 . S
C75 C74 1.416 . S
C75 C76 1.371 . S
C76 H65 0.930 . S
C76 C72 1.389 . S
C76 C75 1.371 . S
C77 H66 0.970 . S
C77 H67 0.970 . S
C77 C73 1.532 1_455 S
C77 C78 1.499 . S
C78 C77 1.499 . S
C78 C79 1.370 . S
C78 C83 1.415 . S
C79 H68 0.930 . S
C79 C78 1.370 . S
C79 C80 1.407 . S
C80 C79 1.407 . S
C80 C81 1.365 . S
C81 H69 0.930 . S
C81 C80 1.365 . S
C81 C82 1.393 . S
C82 C81 1.393 . S
C82 C83 1.387 . S
C83 H70 0.930 . S
C83 C78 1.415 . S
C83 C82 1.387 . S
H84 C92 0.930 . S
H85 C95 0.930 . S
H86 C97 0.930 . S
H87 C98 0.970 1_554 S
H88 C98 0.970 . S
H89 C100 0.930 . S
H90 C102 0.930 . S
H91 C104 0.930 . S
C92 H84 0.930 . S
C92 C93 1.382 1_554 S
C92 C94 1.426 1_554 S
C93 C92 1.382 1_556 S
C93 C97 1.389 . S
C94 C92 1.426 1_556 S
C94 C95 1.375 . S
C94 C98 1.532 . S
C95 H85 0.930 . S
C95 C94 1.375 . S
C95 C96 1.416 . S
C96 C95 1.416 . S
C96 C97 1.371 . S
C97 H86 0.930 . S
C97 C93 1.389 . S
C97 C96 1.371 . S
C98 H87 0.970 1_556 S
C98 H88 0.970 . S
C98 C94 1.532 . S
C98 C99 1.499 1_545 S
C99 C98 1.499 1_565 S
C99 C100 1.370 1_556 S
C99 C104 1.415 . S
C100 H89 0.930 . S
C100 C99 1.370 1_554 S
C100 C101 1.407 . S
C101 C100 1.407 . S
C101 C102 1.365 . S
C102 H90 0.930 . S
C102 C101 1.365 . S
C102 C103 1.393 1_554 S
C103 C102 1.393 1_556 S
C103 C104 1.387 . S
C104 H91 0.930 . S
C104 C99 1.415 . S
C104 C103 1.387 . S
H105 C113 0.930 . S
H106 C116 0.930 . S
H107 C118 0.930 . S
H108 C119 0.970 . S
H109 C119 0.970 . S
H110 C121 0.930 . S
H111 C123 0.930 . S
H112 C125 0.930 . S
C113 H105 0.930 . S
C113 C114 1.382 . S
C113 C115 1.426 . S
C114 C113 1.382 . S
C114 C118 1.389 . S
C115 C113 1.426 . S
C115 C116 1.375 . S
C115 C119 1.532 . S
C116 H106 0.930 . S
C116 C115 1.375 . S
C116 C117 1.416 . S
C117 C116 1.416 . S
C117 C118 1.371 . S
C118 H107 0.930 . S
C118 C114 1.389 . S
C118 C117 1.371 . S
C119 H108 0.970 . S
C119 H109 0.970 . S
C119 C115 1.532 . S
C119 C120 1.499 . S
C120 C119 1.499 . S
C120 C121 1.370 . S
C120 C125 1.415 . S
C121 H110 0.930 . S
C121 C120 1.370 . S
C121 C122 1.407 . S
C122 C121 1.407 . S
C122 C123 1.365 . S
C123 H111 0.930 . S
C123 C122 1.365 . S
C123 C124 1.393 . S
C124 C123 1.393 . S
C124 C125 1.387 . S
C125 H112 0.930 . S
C125 C120 1.415 . S
C125 C124 1.387 . S
Zn126 O129 2.031 . S
Zn126 O131 2.049 . S
Zn126 O136 2.067 . S
Zn127 O128 1.962 . S
Zn127 O130 1.986 . S
Zn127 O132 1.996 . S
Zn127 O135 1.943 . S
O128 Zn127 1.962 . S
O128 C133 1.254 . S
O129 Zn126 2.031 . S
O129 C133 1.269 . S
O130 Zn127 1.986 . S
O130 C137 1.262 . S
O131 Zn126 2.049 . S
O131 C139 1.260 . S
O132 Zn127 1.996 . S
O132 C139 1.257 . S
C133 O128 1.254 . S
C133 O129 1.269 . S
C134 O135 1.249 . S
C134 O136 1.270 . S
O135 Zn127 1.943 . S
O135 C134 1.249 . S
O136 Zn126 2.067 . S
O136 C134 1.270 . S
C137 O130 1.262 . S
C137 O138 1.232 . S
O138 C137 1.232 . S
C139 O131 1.260 . S
C139 O132 1.257 . S
Zn140 O143 2.031 . S
Zn140 O145 2.049 . S
Zn140 O150 2.067 . S
Zn141 O142 1.962 . S
Zn141 O144 1.986 . S
Zn141 O146 1.996 . S
Zn141 O149 1.943 . S
O142 Zn141 1.962 . S
O142 C147 1.254 . S
O143 Zn140 2.031 . S
O143 C147 1.269 . S
O144 Zn141 1.986 . S
O144 C151 1.262 . S
O145 Zn140 2.049 . S
O145 C153 1.260 . S
O146 Zn141 1.996 . S
O146 C153 1.257 . S
C147 O142 1.254 . S
C147 O143 1.269 . S
C148 O149 1.249 . S
C148 O150 1.270 . S
O149 Zn141 1.943 . S
O149 C148 1.249 . S
O150 Zn140 2.067 . S
O150 C148 1.270 . S
C151 O144 1.262 . S
C151 O152 1.232 . S
O152 C151 1.232 . S
C153 O145 1.260 . S
C153 O146 1.257 . S
Zn154 O157 2.031 . S
Zn154 O159 2.049 . S
Zn154 O164 2.067 . S
Zn155 O156 1.962 . S
Zn155 O158 1.986 . S
Zn155 O160 1.996 . S
Zn155 O163 1.943 . S
O156 Zn155 1.962 . S
O156 C161 1.254 . S
O157 Zn154 2.031 . S
O157 C161 1.269 . S
O158 Zn155 1.986 . S
O158 C165 1.262 . S
O159 Zn154 2.049 . S
O159 C167 1.260 . S
O160 Zn155 1.996 . S
O160 C167 1.257 . S
C161 O156 1.254 . S
C161 O157 1.269 . S
C162 O163 1.249 . S
C162 O164 1.270 . S
O163 Zn155 1.943 . S
O163 C162 1.249 . S
O164 Zn154 2.067 . S
O164 C162 1.270 . S
C165 O158 1.262 . S
C165 O166 1.232 . S
O166 C165 1.232 . S
C167 O159 1.260 . S
C167 O160 1.257 . S
Zn168 O171 2.031 . S
Zn168 O173 2.049 . S
Zn168 O178 2.067 . S
Zn169 O170 1.962 . S
Zn169 O172 1.986 . S
Zn169 O174 1.996 . S
Zn169 O177 1.943 . S
O170 Zn169 1.962 . S
O170 C175 1.254 . S
O171 Zn168 2.031 . S
O171 C175 1.269 . S
O172 Zn169 1.986 . S
O172 C179 1.262 . S
O173 Zn168 2.049 . S
O173 C181 1.260 . S
O174 Zn169 1.996 . S
O174 C181 1.257 . S
C175 O170 1.254 . S
C175 O171 1.269 . S
C176 O177 1.249 . S
C176 O178 1.270 . S
O177 Zn169 1.943 . S
O177 C176 1.249 . S
O178 Zn168 2.067 . S
O178 C176 1.270 . S
C179 O172 1.262 . S
C179 O180 1.232 . S
O180 C179 1.232 . S
C181 O173 1.260 . S
C181 O174 1.257 . S
Zn182 O185 2.031 . S
Zn182 O187 2.049 . S
Zn182 O192 2.067 . S
Zn183 O184 1.962 . S
Zn183 O186 1.986 . S
Zn183 O188 1.996 . S
Zn183 O191 1.943 . S
O184 Zn183 1.962 . S
O184 C189 1.254 . S
O185 Zn182 2.031 . S
O185 C189 1.269 . S
O186 Zn183 1.986 . S
O186 C193 1.262 . S
O187 Zn182 2.049 . S
O187 C195 1.260 . S
O188 Zn183 1.996 . S
O188 C195 1.257 . S
C189 O184 1.254 . S
C189 O185 1.269 . S
C190 O191 1.249 . S
C190 O192 1.270 . S
O191 Zn183 1.943 . S
O191 C190 1.249 . S
O192 Zn182 2.067 . S
O192 C190 1.270 . S
C193 O186 1.262 . S
C193 O194 1.232 . S
O194 C193 1.232 . S
C195 O187 1.260 . S
C195 O188 1.257 . S
Zn196 O199 2.031 . S
Zn196 O201 2.049 . S
Zn196 O206 2.067 . S
Zn197 O198 1.962 . S
Zn197 O200 1.986 . S
Zn197 O202 1.996 . S
Zn197 O205 1.943 . S
O198 Zn197 1.962 . S
O198 C203 1.254 . S
O199 Zn196 2.031 . S
O199 C203 1.269 . S
O200 Zn197 1.986 . S
O200 C207 1.262 . S
O201 Zn196 2.049 . S
O201 C209 1.260 . S
O202 Zn197 1.996 . S
O202 C209 1.257 . S
C203 O198 1.254 . S
C203 O199 1.269 . S
C204 O205 1.249 . S
C204 O206 1.270 . S
O205 Zn197 1.943 . S
O205 C204 1.249 . S
O206 Zn196 2.067 . S
O206 C204 1.270 . S
C207 O200 1.262 . S
C207 O208 1.232 . S
O208 C207 1.232 . S
C209 O201 1.260 . S
C209 O202 1.257 . S
H210 C218 0.929 . S
H211 C220 0.930 . S
H212 C222 0.930 . S
H213 C225 0.929 . S
H214 C228 0.930 . S
H215 C230 0.960 . S
H216 C230 0.960 . S
H217 C230 0.960 . S
C218 H210 0.929 . S
C218 C219 1.377 . S
C218 C220 1.384 . S
C219 C218 1.377 . S
C219 C225 1.390 . S
C220 H211 0.930 . S
C220 C218 1.384 . S
C220 C221 1.372 . S
C221 C220 1.372 . S
C221 C222 1.400 . S
C221 C226 1.490 . S
C222 H212 0.930 . S
C222 C221 1.400 . S
C222 C225 1.386 . S
H223 C239 0.930 . S
H224 C240 0.931 . S
C225 H213 0.929 . S
C225 C219 1.390 . S
C225 C222 1.386 . S
C226 C221 1.490 . S
C226 C228 1.395 . S
C226 C229 1.403 . S
H227 C233 0.930 . S
C228 H214 0.930 . S
C228 C226 1.395 . S
C228 C231 1.403 . S
C229 C226 1.403 . S
C229 C230 1.524 . S
C229 C233 1.400 . S
C230 H215 0.960 . S
C230 H216 0.960 . S
C230 H217 0.960 . S
C230 C229 1.524 . S
C231 C228 1.403 . S
C231 C232 1.392 . S
C231 C235 1.495 . S
C232 C231 1.392 . S
C232 C233 1.385 . S
C232 C234 1.478 . S
C233 H227 0.930 . S
C233 C229 1.400 . S
C233 C232 1.385 . S
C234 C232 1.478 . S
C234 C236 1.381 . S
C234 C240 1.383 . S
C235 C231 1.495 . S
C235 H241 0.959 . S
C235 H242 0.961 . S
C235 H243 0.960 . S
C236 C234 1.381 . S
C236 C237 1.394 . S
C236 H244 0.930 . S
C237 C236 1.394 . S
C237 C238 1.383 . S
C237 H245 0.929 . S
C238 C237 1.383 . S
C238 C239 1.377 . S
C239 H223 0.930 . S
C239 C238 1.377 . S
C239 C240 1.379 . S
C240 H224 0.931 . S
C240 C234 1.383 . S
C240 C239 1.379 . S
H241 C235 0.959 . S
H242 C235 0.961 . S
H243 C235 0.960 . S
H244 C236 0.930 . S
H245 C237 0.929 . S
H246 C254 0.929 . S
H247 C256 0.930 . S
H248 C258 0.930 . S
H249 C261 0.929 . S
H250 C264 0.930 . S
H251 C266 0.960 . S
H252 C266 0.960 . S
H253 C266 0.960 . S
C254 H246 0.929 . S
C254 C255 1.377 . S
C254 C256 1.384 . S
C255 C254 1.377 . S
C255 C261 1.390 . S
C256 H247 0.930 . S
C256 C254 1.384 . S
C256 C257 1.372 . S
C257 C256 1.372 . S
C257 C258 1.400 . S
C257 C262 1.490 . S
C258 H248 0.930 . S
C258 C257 1.400 . S
C258 C261 1.386 . S
H259 C275 0.930 . S
H260 C276 0.931 . S
C261 H249 0.929 . S
C261 C255 1.390 . S
C261 C258 1.386 . S
C262 C257 1.490 . S
C262 C264 1.395 . S
C262 C265 1.403 . S
H263 C269 0.930 . S
C264 H250 0.930 . S
C264 C262 1.395 . S
C264 C267 1.403 . S
C265 C262 1.403 . S
C265 C266 1.524 . S
C265 C269 1.400 . S
C266 H251 0.960 . S
C266 H252 0.960 . S
C266 H253 0.960 . S
C266 C265 1.524 . S
C267 C264 1.403 . S
C267 C268 1.392 . S
C267 C271 1.495 . S
C268 C267 1.392 . S
C268 C269 1.385 . S
C268 C270 1.478 . S
C269 H263 0.930 . S
C269 C265 1.400 . S
C269 C268 1.385 . S
C270 C268 1.478 . S
C270 C272 1.381 . S
C270 C276 1.383 . S
C271 C267 1.495 . S
C271 H277 0.959 . S
C271 H278 0.961 . S
C271 H279 0.960 . S
C272 C270 1.381 . S
C272 C273 1.394 . S
C272 H280 0.930 . S
C273 C272 1.394 . S
C273 C274 1.383 . S
C273 H281 0.929 . S
C274 C273 1.383 . S
C274 C275 1.377 . S
C275 H259 0.930 . S
C275 C274 1.377 . S
C275 C276 1.379 . S
C276 H260 0.931 . S
C276 C270 1.383 . S
C276 C275 1.379 . S
H277 C271 0.959 . S
H278 C271 0.961 . S
H279 C271 0.960 . S
H280 C272 0.930 . S
H281 C273 0.929 . S
H282 C290 0.929 . S
H283 C292 0.930 . S
H284 C294 0.930 . S
H285 C297 0.929 . S
H286 C300 0.930 . S
H287 C302 0.960 . S
H288 C302 0.960 . S
H289 C302 0.960 . S
C290 H282 0.929 . S
C290 C291 1.377 . S
C290 C292 1.384 . S
C291 C290 1.377 . S
C291 C297 1.390 . S
C292 H283 0.930 . S
C292 C290 1.384 . S
C292 C293 1.372 . S
C293 C292 1.372 . S
C293 C294 1.400 . S
C293 C298 1.490 . S
C294 H284 0.930 . S
C294 C293 1.400 . S
C294 C297 1.386 . S
H295 C311 0.930 . S
H296 C312 0.931 . S
C297 H285 0.929 . S
C297 C291 1.390 . S
C297 C294 1.386 . S
C298 C293 1.490 . S
C298 C300 1.395 . S
C298 C301 1.403 . S
H299 C305 0.930 . S
C300 H286 0.930 . S
C300 C298 1.395 . S
C300 C303 1.403 . S
C301 C298 1.403 . S
C301 C302 1.524 . S
C301 C305 1.400 . S
C302 H287 0.960 . S
C302 H288 0.960 . S
C302 H289 0.960 . S
C302 C301 1.524 . S
C303 C300 1.403 . S
C303 C304 1.392 . S
C303 C307 1.495 . S
C304 C303 1.392 . S
C304 C305 1.385 . S
C304 C306 1.478 . S
C305 H299 0.930 . S
C305 C301 1.400 . S
C305 C304 1.385 . S
C306 C304 1.478 . S
C306 C308 1.381 . S
C306 C312 1.383 . S
C307 C303 1.495 . S
C307 H313 0.959 . S
C307 H314 0.961 . S
C307 H315 0.960 . S
C308 C306 1.381 . S
C308 C309 1.394 . S
C308 H316 0.930 . S
C309 C308 1.394 . S
C309 C310 1.383 . S
C309 H317 0.929 . S
C310 C309 1.383 . S
C310 C311 1.377 . S
C311 H295 0.930 . S
C311 C310 1.377 . S
C311 C312 1.379 . S
C312 H296 0.931 . S
C312 C306 1.383 . S
C312 C311 1.379 . S
H313 C307 0.959 . S
H314 C307 0.961 . S
H315 C307 0.960 . S
H316 C308 0.930 . S
H317 C309 0.929 . S
H318 C326 0.929 . S
H319 C328 0.930 . S
H320 C330 0.930 . S
H321 C333 0.929 . S
H322 C336 0.930 . S
H323 C338 0.960 . S
H324 C338 0.960 . S
H325 C338 0.960 . S
C326 H318 0.929 . S
C326 C327 1.377 . S
C326 C328 1.384 . S
C327 C326 1.377 . S
C327 C333 1.390 . S
C328 H319 0.930 . S
C328 C326 1.384 . S
C328 C329 1.372 . S
C329 C328 1.372 . S
C329 C330 1.400 . S
C329 C334 1.490 . S
C330 H320 0.930 . S
C330 C329 1.400 . S
C330 C333 1.386 . S
H331 C347 0.930 . S
H332 C348 0.931 . S
C333 H321 0.929 . S
C333 C327 1.390 . S
C333 C330 1.386 . S
C334 C329 1.490 . S
C334 C336 1.395 . S
C334 C337 1.403 . S
H335 C341 0.930 . S
C336 H322 0.930 . S
C336 C334 1.395 . S
C336 C339 1.403 . S
C337 C334 1.403 . S
C337 C338 1.524 . S
C337 C341 1.400 . S
C338 H323 0.960 . S
C338 H324 0.960 . S
C338 H325 0.960 . S
C338 C337 1.524 . S
C339 C336 1.403 . S
C339 C340 1.392 . S
C339 C343 1.495 . S
C340 C339 1.392 . S
C340 C341 1.385 . S
C340 C342 1.478 . S
C341 H335 0.930 . S
C341 C337 1.400 . S
C341 C340 1.385 . S
C342 C340 1.478 . S
C342 C344 1.381 . S
C342 C348 1.383 . S
C343 C339 1.495 . S
C343 H349 0.959 . S
C343 H350 0.961 . S
C343 H351 0.960 . S
C344 C342 1.381 . S
C344 C345 1.394 . S
C344 H352 0.930 . S
C345 C344 1.394 . S
C345 C346 1.383 . S
C345 H353 0.929 . S
C346 C345 1.383 . S
C346 C347 1.377 . S
C347 H331 0.930 . S
C347 C346 1.377 . S
C347 C348 1.379 . S
C348 H332 0.931 . S
C348 C342 1.383 . S
C348 C347 1.379 . S
H349 C343 0.959 . S
H350 C343 0.961 . S
H351 C343 0.960 . S
H352 C344 0.930 . S
H353 C345 0.929 . S
H354 C362 0.929 . S
H355 C364 0.930 . S
H356 C366 0.930 . S
H357 C369 0.929 . S
H358 C372 0.930 . S
H359 C374 0.960 . S
H360 C374 0.960 . S
H361 C374 0.960 . S
C362 H354 0.929 . S
C362 C363 1.377 . S
C362 C364 1.384 . S
C363 C362 1.377 . S
C363 C369 1.390 . S
C364 H355 0.930 . S
C364 C362 1.384 . S
C364 C365 1.372 . S
C365 C364 1.372 . S
C365 C366 1.400 . S
C365 C370 1.490 . S
C366 H356 0.930 . S
C366 C365 1.400 . S
C366 C369 1.386 . S
H367 C383 0.930 . S
H368 C384 0.931 . S
C369 H357 0.929 . S
C369 C363 1.390 . S
C369 C366 1.386 . S
C370 C365 1.490 . S
C370 C372 1.395 . S
C370 C373 1.403 . S
H371 C377 0.930 . S
C372 H358 0.930 . S
C372 C370 1.395 . S
C372 C375 1.403 . S
C373 C370 1.403 . S
C373 C374 1.524 . S
C373 C377 1.400 . S
C374 H359 0.960 . S
C374 H360 0.960 . S
C374 H361 0.960 . S
C374 C373 1.524 . S
C375 C372 1.403 . S
C375 C376 1.392 . S
C375 C379 1.495 . S
C376 C375 1.392 . S
C376 C377 1.385 . S
C376 C378 1.478 . S
C377 H371 0.930 . S
C377 C373 1.400 . S
C377 C376 1.385 . S
C378 C376 1.478 . S
C378 C380 1.381 . S
C378 C384 1.383 . S
C379 C375 1.495 . S
C379 H385 0.959 . S
C379 H386 0.961 . S
C379 H387 0.960 . S
C380 C378 1.381 . S
C380 C381 1.394 . S
C380 H388 0.930 . S
C381 C380 1.394 . S
C381 C382 1.383 . S
C381 H389 0.929 . S
C382 C381 1.383 . S
C382 C383 1.377 . S
C383 H367 0.930 . S
C383 C382 1.377 . S
C383 C384 1.379 . S
C384 H368 0.931 . S
C384 C378 1.383 . S
C384 C383 1.379 . S
H385 C379 0.959 . S
H386 C379 0.961 . S
H387 C379 0.960 . S
H388 C380 0.930 . S
H389 C381 0.929 . S
H390 C398 0.929 . S
H391 C400 0.930 . S
H392 C402 0.930 . S
H393 C405 0.929 . S
H394 C408 0.930 . S
H395 C410 0.960 . S
H396 C410 0.960 . S
H397 C410 0.960 . S
C398 H390 0.929 . S
C398 C399 1.377 . S
C398 C400 1.384 . S
C399 C398 1.377 . S
C399 C405 1.390 . S
C400 H391 0.930 . S
C400 C398 1.384 . S
C400 C401 1.372 . S
C401 C400 1.372 . S
C401 C402 1.400 . S
C401 C406 1.490 . S
C402 H392 0.930 . S
C402 C401 1.400 . S
C402 C405 1.386 . S
H403 C419 0.930 . S
H404 C420 0.931 . S
C405 H393 0.929 . S
C405 C399 1.390 . S
C405 C402 1.386 . S
C406 C401 1.490 . S
C406 C408 1.395 . S
C406 C409 1.403 . S
H407 C413 0.930 . S
C408 H394 0.930 . S
C408 C406 1.395 . S
C408 C411 1.403 . S
C409 C406 1.403 . S
C409 C410 1.524 . S
C409 C413 1.400 . S
C410 H395 0.960 . S
C410 H396 0.960 . S
C410 H397 0.960 . S
C410 C409 1.524 . S
C411 C408 1.403 . S
C411 C412 1.392 . S
C411 C415 1.495 . S
C412 C411 1.392 . S
C412 C413 1.385 . S
C412 C414 1.478 . S
C413 H407 0.930 . S
C413 C409 1.400 . S
C413 C412 1.385 . S
C414 C412 1.478 . S
C414 C416 1.381 . S
C414 C420 1.383 . S
C415 C411 1.495 . S
C415 H421 0.959 . S
C415 H422 0.961 . S
C415 H423 0.960 . S
C416 C414 1.381 . S
C416 C417 1.394 . S
C416 H424 0.930 . S
C417 C416 1.394 . S
C417 C418 1.383 . S
C417 H425 0.929 . S
C418 C417 1.383 . S
C418 C419 1.377 . S
C419 H403 0.930 . S
C419 C418 1.377 . S
C419 C420 1.379 . S
C420 H404 0.931 . S
C420 C414 1.383 . S
C420 C419 1.379 . S
H421 C415 0.959 . S
H422 C415 0.961 . S
H423 C415 0.960 . S
H424 C416 0.930 . S
H425 C417 0.929 . S
H426 C434 0.929 . S
H427 C436 0.930 . S
H428 C438 0.930 . S
H429 C441 0.929 . S
H430 C444 0.930 . S
H431 C446 0.960 . S
H432 C446 0.960 . S
H433 C446 0.960 . S
C434 H426 0.929 . S
C434 C435 1.377 . S
C434 C436 1.384 . S
C435 C434 1.377 . S
C435 C441 1.390 . S
C436 H427 0.930 . S
C436 C434 1.384 . S
C436 C437 1.372 . S
C437 C436 1.372 . S
C437 C438 1.400 . S
C437 C442 1.490 . S
C438 H428 0.930 . S
C438 C437 1.400 . S
C438 C441 1.386 . S
H439 C455 0.930 . S
H440 C456 0.931 . S
C441 H429 0.929 . S
C441 C435 1.390 . S
C441 C438 1.386 . S
C442 C437 1.490 . S
C442 C444 1.395 . S
C442 C445 1.403 . S
H443 C449 0.930 . S
C444 H430 0.930 . S
C444 C442 1.395 . S
C444 C447 1.403 . S
C445 C442 1.403 . S
C445 C446 1.524 . S
C445 C449 1.400 . S
C446 H431 0.960 . S
C446 H432 0.960 . S
C446 H433 0.960 . S
C446 C445 1.524 . S
C447 C444 1.403 . S
C447 C448 1.392 . S
C447 C451 1.495 . S
C448 C447 1.392 . S
C448 C449 1.385 . S
C448 C450 1.478 . S
C449 H443 0.930 . S
C449 C445 1.400 . S
C449 C448 1.385 . S
C450 C448 1.478 . S
C450 C452 1.381 . S
C450 C456 1.383 . S
C451 C447 1.495 . S
C451 H457 0.959 . S
C451 H458 0.961 . S
C451 H459 0.960 . S
C452 C450 1.381 . S
C452 C453 1.394 . S
C452 H460 0.930 . S
C453 C452 1.394 . S
C453 C454 1.383 . S
C453 H461 0.929 . S
C454 C453 1.383 . S
C454 C455 1.377 . S
C455 H439 0.930 . S
C455 C454 1.377 . S
C455 C456 1.379 . S
C456 H440 0.931 . S
C456 C450 1.383 . S
C456 C455 1.379 . S
H457 C451 0.959 . S
H458 C451 0.961 . S
H459 C451 0.960 . S
H460 C452 0.930 . S
H461 C453 0.929 . S
H462 C470 0.929 . S
H463 C472 0.930 . S
H464 C474 0.930 . S
H465 C477 0.929 . S
H466 C480 0.930 . S
H467 C482 0.960 . S
H468 C482 0.960 . S
H469 C482 0.960 . S
C470 H462 0.929 . S
C470 C471 1.377 . S
C470 C472 1.384 . S
C471 C470 1.377 . S
C471 C477 1.390 . S
C472 H463 0.930 . S
C472 C470 1.384 . S
C472 C473 1.372 . S
C473 C472 1.372 . S
C473 C474 1.400 . S
C473 C478 1.490 . S
C474 H464 0.930 . S
C474 C473 1.400 . S
C474 C477 1.386 . S
H475 C491 0.930 . S
H476 C492 0.931 . S
C477 H465 0.929 . S
C477 C471 1.390 . S
C477 C474 1.386 . S
C478 C473 1.490 . S
C478 C480 1.395 . S
C478 C481 1.403 . S
H479 C485 0.930 . S
C480 H466 0.930 . S
C480 C478 1.395 . S
C480 C483 1.403 . S
C481 C478 1.403 . S
C481 C482 1.524 . S
C481 C485 1.400 . S
C482 H467 0.960 . S
C482 H468 0.960 . S
C482 H469 0.960 . S
C482 C481 1.524 . S
C483 C480 1.403 . S
C483 C484 1.392 . S
C483 C487 1.495 . S
C484 C483 1.392 . S
C484 C485 1.385 . S
C484 C486 1.478 . S
C485 H479 0.930 . S
C485 C481 1.400 . S
C485 C484 1.385 . S
C486 C484 1.478 . S
C486 C488 1.381 . S
C486 C492 1.383 . S
C487 C483 1.495 . S
C487 H493 0.959 . S
C487 H494 0.961 . S
C487 H495 0.960 . S
C488 C486 1.381 . S
C488 C489 1.394 . S
C488 H496 0.930 . S
C489 C488 1.394 . S
C489 C490 1.383 . S
C489 H497 0.929 . S
C490 C489 1.383 . S
C490 C491 1.377 . S
C491 H475 0.930 . S
C491 C490 1.377 . S
C491 C492 1.379 . S
C492 H476 0.931 . S
C492 C486 1.383 . S
C492 C491 1.379 . S
H493 C487 0.959 . S
H494 C487 0.961 . S
H495 C487 0.960 . S
H496 C488 0.930 . S
H497 C489 0.929 . S
H498 C506 0.929 . S
H499 C508 0.930 . S
H500 C510 0.930 . S
H501 C513 0.929 . S
H502 C516 0.930 . S
H503 C518 0.960 . S
H504 C518 0.960 . S
H505 C518 0.960 . S
C506 H498 0.929 . S
C506 C507 1.377 . S
C506 C508 1.384 . S
C507 C506 1.377 . S
C507 C513 1.390 . S
C508 H499 0.930 . S
C508 C506 1.384 . S
C508 C509 1.372 . S
C509 C508 1.372 . S
C509 C510 1.400 . S
C509 C514 1.490 . S
C510 H500 0.930 . S
C510 C509 1.400 . S
C510 C513 1.386 . S
H511 C527 0.930 . S
H512 C528 0.931 . S
C513 H501 0.929 . S
C513 C507 1.390 . S
C513 C510 1.386 . S
C514 C509 1.490 . S
C514 C516 1.395 . S
C514 C517 1.403 . S
H515 C521 0.930 . S
C516 H502 0.930 . S
C516 C514 1.395 . S
C516 C519 1.403 . S
C517 C514 1.403 . S
C517 C518 1.524 . S
C517 C521 1.400 . S
C518 H503 0.960 . S
C518 H504 0.960 . S
C518 H505 0.960 . S
C518 C517 1.524 . S
C519 C516 1.403 . S
C519 C520 1.392 . S
C519 C523 1.495 . S
C520 C519 1.392 . S
C520 C521 1.385 . S
C520 C522 1.478 . S
C521 H515 0.930 . S
C521 C517 1.400 . S
C521 C520 1.385 . S
C522 C520 1.478 . S
C522 C524 1.381 . S
C522 C528 1.383 . S
C523 C519 1.495 . S
C523 H529 0.959 . S
C523 H530 0.961 . S
C523 H531 0.960 . S
C524 C522 1.381 . S
C524 C525 1.394 . S
C524 H532 0.930 . S
C525 C524 1.394 . S
C525 C526 1.383 . S
C525 H533 0.929 . S
C526 C525 1.383 . S
C526 C527 1.377 . S
C527 H511 0.930 . S
C527 C526 1.377 . S
C527 C528 1.379 . S
C528 H512 0.931 . S
C528 C522 1.383 . S
C528 C527 1.379 . S
H529 C523 0.959 . S
H530 C523 0.961 . S
H531 C523 0.960 . S
H532 C524 0.930 . S
H533 C525 0.929 . S
H534 C542 0.929 . S
H535 C544 0.930 1_556 S
H536 C546 0.930 . S
H537 C549 0.929 . S
H538 C552 0.930 . S
H539 C554 0.960 . S
H540 C554 0.960 . S
H541 C554 0.960 . S
C542 H534 0.929 . S
C542 C543 1.377 1_556 S
C542 C544 1.384 1_556 S
C543 C542 1.377 1_554 S
C543 C549 1.390 . S
C544 H535 0.930 1_554 S
C544 C542 1.384 1_554 S
C544 C545 1.372 . S
C545 C544 1.372 . S
C545 C546 1.400 . S
C545 C550 1.490 . S
C546 H536 0.930 . S
C546 C545 1.400 . S
C546 C549 1.386 . S
H547 C563 0.930 . S
H548 C564 0.931 . S
C549 H537 0.929 . S
C549 C543 1.390 . S
C549 C546 1.386 . S
C550 C545 1.490 . S
C550 C552 1.395 . S
C550 C553 1.403 . S
H551 C557 0.930 . S
C552 H538 0.930 . S
C552 C550 1.395 . S
C552 C555 1.403 . S
C553 C550 1.403 . S
C553 C554 1.524 . S
C553 C557 1.400 . S
C554 H539 0.960 . S
C554 H540 0.960 . S
C554 H541 0.960 . S
C554 C553 1.524 . S
C555 C552 1.403 . S
C555 C556 1.392 . S
C555 C559 1.495 . S
C556 C555 1.392 . S
C556 C557 1.385 . S
C556 C558 1.478 . S
C557 H551 0.930 . S
C557 C553 1.400 . S
C557 C556 1.385 . S
C558 C556 1.478 . S
C558 C560 1.381 . S
C558 C564 1.383 . S
C559 C555 1.495 . S
C559 H565 0.959 . S
C559 H566 0.961 . S
C559 H567 0.960 . S
C560 C558 1.381 . S
C560 C561 1.394 . S
C560 H568 0.930 . S
C561 C560 1.394 . S
C561 C562 1.383 . S
C561 H569 0.929 . S
C562 C561 1.383 . S
C562 C563 1.377 . S
C563 H547 0.930 . S
C563 C562 1.377 . S
C563 C564 1.379 . S
C564 H548 0.931 . S
C564 C558 1.383 . S
C564 C563 1.379 . S
H565 C559 0.959 . S
H566 C559 0.961 . S
H567 C559 0.960 . S
H568 C560 0.930 . S
H569 C561 0.929 . S
H570 C578 0.929 . S
H571 C580 0.930 . S
H572 C582 0.930 . S
H573 C585 0.929 . S
H574 C588 0.930 . S
H575 C590 0.960 . S
H576 C590 0.960 . S
H577 C590 0.960 . S
C578 H570 0.929 . S
C578 C579 1.377 . S
C578 C580 1.384 . S
C579 C578 1.377 . S
C579 C585 1.390 . S
C580 H571 0.930 . S
C580 C578 1.384 . S
C580 C581 1.372 . S
C581 C580 1.372 . S
C581 C582 1.400 . S
C581 C586 1.490 . S
C582 H572 0.930 . S
C582 C581 1.400 . S
C582 C585 1.386 . S
H583 C599 0.930 . S
H584 C600 0.931 . S
C585 H573 0.929 . S
C585 C579 1.390 . S
C585 C582 1.386 . S
C586 C581 1.490 . S
C586 C588 1.395 . S
C586 C589 1.403 . S
H587 C593 0.930 . S
C588 H574 0.930 . S
C588 C586 1.395 . S
C588 C591 1.403 . S
C589 C586 1.403 . S
C589 C590 1.524 . S
C589 C593 1.400 . S
C590 H575 0.960 . S
C590 H576 0.960 . S
C590 H577 0.960 . S
C590 C589 1.524 . S
C591 C588 1.403 . S
C591 C592 1.392 . S
C591 C595 1.495 . S
C592 C591 1.392 . S
C592 C593 1.385 . S
C592 C594 1.478 . S
C593 H587 0.930 . S
C593 C589 1.400 . S
C593 C592 1.385 . S
C594 C592 1.478 . S
C594 C596 1.381 . S
C594 C600 1.383 . S
C595 C591 1.495 . S
C595 H601 0.959 . S
C595 H602 0.961 . S
C595 H603 0.960 . S
C596 C594 1.381 . S
C596 C597 1.394 . S
C596 H604 0.930 . S
C597 C596 1.394 . S
C597 C598 1.383 . S
C597 H605 0.929 . S
C598 C597 1.383 . S
C598 C599 1.377 . S
C599 H583 0.930 . S
C599 C598 1.377 . S
C599 C600 1.379 . S
C600 H584 0.931 . S
C600 C594 1.383 . S
C600 C599 1.379 . S
H601 C595 0.959 . S
H602 C595 0.961 . S
H603 C595 0.960 . S
H604 C596 0.930 . S
H605 C597 0.929 . S
H606 C614 0.929 . S
H607 C616 0.930 . S
H608 C618 0.930 . S
H609 C621 0.929 . S
H610 C624 0.930 . S
H611 C626 0.960 . S
H612 C626 0.960 . S
H613 C626 0.960 . S
C614 H606 0.929 . S
C614 C615 1.377 . S
C614 C616 1.384 . S
C615 C614 1.377 . S
C615 C621 1.390 . S
C616 H607 0.930 . S
C616 C614 1.384 . S
C616 C617 1.372 . S
C617 C616 1.372 . S
C617 C618 1.400 . S
C617 C622 1.490 . S
C618 H608 0.930 . S
C618 C617 1.400 . S
C618 C621 1.386 . S
H619 C635 0.930 . S
H620 C636 0.931 . S
C621 H609 0.929 . S
C621 C615 1.390 . S
C621 C618 1.386 . S
C622 C617 1.490 . S
C622 C624 1.395 . S
C622 C625 1.403 . S
H623 C629 0.930 . S
C624 H610 0.930 . S
C624 C622 1.395 . S
C624 C627 1.403 . S
C625 C622 1.403 . S
C625 C626 1.524 . S
C625 C629 1.400 . S
C626 H611 0.960 . S
C626 H612 0.960 . S
C626 H613 0.960 . S
C626 C625 1.524 . S
C627 C624 1.403 . S
C627 C628 1.392 . S
C627 C631 1.495 . S
C628 C627 1.392 . S
C628 C629 1.385 . S
C628 C630 1.478 . S
C629 H623 0.930 . S
C629 C625 1.400 . S
C629 C628 1.385 . S
C630 C628 1.478 . S
C630 C632 1.381 . S
C630 C636 1.383 . S
C631 C627 1.495 . S
C631 H637 0.959 . S
C631 H638 0.961 . S
C631 H639 0.960 . S
C632 C630 1.381 . S
C632 C633 1.394 . S
C632 H640 0.930 . S
C633 C632 1.394 . S
C633 C634 1.383 . S
C633 H641 0.929 . S
C634 C633 1.383 . S
C634 C635 1.377 . S
C635 H619 0.930 . S
C635 C634 1.377 . S
C635 C636 1.379 . S
C636 H620 0.931 . S
C636 C630 1.383 . S
C636 C635 1.379 . S
H637 C631 0.959 . S
H638 C631 0.961 . S
H639 C631 0.960 . S
H640 C632 0.930 . S
H641 C633 0.929 . S
H642 C650 0.929 . S
H643 C652 0.930 . S
H644 C654 0.930 . S
H645 C657 0.929 . S
H646 C660 0.930 . S
H647 C662 0.960 . S
H648 C662 0.960 . S
H649 C662 0.960 . S
C650 H642 0.929 . S
C650 C651 1.377 . S
C650 C652 1.384 . S
C651 C650 1.377 . S
C651 C657 1.390 . S
C652 H643 0.930 . S
C652 C650 1.384 . S
C652 C653 1.372 . S
C653 C652 1.372 . S
C653 C654 1.400 . S
C653 C658 1.490 . S
C654 H644 0.930 . S
C654 C653 1.400 . S
C654 C657 1.386 . S
H655 C671 0.930 . S
H656 C672 0.931 . S
C657 H645 0.929 . S
C657 C651 1.390 . S
C657 C654 1.386 . S
C658 C653 1.490 . S
C658 C660 1.395 . S
C658 C661 1.403 . S
H659 C665 0.930 . S
C660 H646 0.930 . S
C660 C658 1.395 . S
C660 C663 1.403 . S
C661 C658 1.403 . S
C661 C662 1.524 . S
C661 C665 1.400 . S
C662 H647 0.960 . S
C662 H648 0.960 . S
C662 H649 0.960 . S
C662 C661 1.524 . S
C663 C660 1.403 . S
C663 C664 1.392 . S
C663 C667 1.495 . S
C664 C663 1.392 . S
C664 C665 1.385 . S
C664 C666 1.478 . S
C665 H659 0.930 . S
C665 C661 1.400 . S
C665 C664 1.385 . S
C666 C664 1.478 . S
C666 C668 1.381 . S
C666 C672 1.383 . S
C667 C663 1.495 . S
C667 H673 0.959 . S
C667 H674 0.961 . S
C667 H675 0.960 . S
C668 C666 1.381 . S
C668 C669 1.394 . S
C668 H676 0.930 . S
C669 C668 1.394 . S
C669 C670 1.383 . S
C669 H677 0.929 . S
C670 C669 1.383 . S
C670 C671 1.377 . S
C671 H655 0.930 . S
C671 C670 1.377 . S
C671 C672 1.379 . S
C672 H656 0.931 . S
C672 C666 1.383 . S
C672 C671 1.379 . S
H673 C667 0.959 . S
H674 C667 0.961 . S
H675 C667 0.960 . S
H676 C668 0.930 . S
H677 C669 0.929 . S
H678 C686 0.929 . S
H679 C688 0.930 . S
H680 C690 0.930 . S
H681 C693 0.929 . S
H682 C696 0.930 . S
H683 C698 0.960 . S
H684 C698 0.960 . S
H685 C698 0.960 . S
C686 H678 0.929 . S
C686 C687 1.377 . S
C686 C688 1.384 . S
C687 C686 1.377 . S
C687 C693 1.390 . S
C688 H679 0.930 . S
C688 C686 1.384 . S
C688 C689 1.372 . S
C689 C688 1.372 . S
C689 C690 1.400 . S
C689 C694 1.490 . S
C690 H680 0.930 . S
C690 C689 1.400 . S
C690 C693 1.386 . S
H691 C707 0.930 . S
H692 C708 0.931 . S
C693 H681 0.929 . S
C693 C687 1.390 . S
C693 C690 1.386 . S
C694 C689 1.490 . S
C694 C696 1.395 . S
C694 C697 1.403 . S
H695 C701 0.930 . S
C696 H682 0.930 . S
C696 C694 1.395 . S
C696 C699 1.403 . S
C697 C694 1.403 . S
C697 C698 1.524 . S
C697 C701 1.400 . S
C698 H683 0.960 . S
C698 H684 0.960 . S
C698 H685 0.960 . S
C698 C697 1.524 . S
C699 C696 1.403 . S
C699 C700 1.392 . S
C699 C703 1.495 . S
C700 C699 1.392 . S
C700 C701 1.385 . S
C700 C702 1.478 . S
C701 H695 0.930 . S
C701 C697 1.400 . S
C701 C700 1.385 . S
C702 C700 1.478 . S
C702 C704 1.381 . S
C702 C708 1.383 . S
C703 C699 1.495 . S
C703 H709 0.959 . S
C703 H710 0.961 . S
C703 H711 0.960 . S
C704 C702 1.381 . S
C704 C705 1.394 . S
C704 H712 0.930 . S
C705 C704 1.394 . S
C705 C706 1.383 . S
C705 H713 0.929 . S
C706 C705 1.383 . S
C706 C707 1.377 . S
C707 H691 0.930 . S
C707 C706 1.377 . S
C707 C708 1.379 . S
C708 H692 0.931 . S
C708 C702 1.383 . S
C708 C707 1.379 . S
H709 C703 0.959 . S
H710 C703 0.961 . S
H711 C703 0.960 . S
H712 C704 0.930 . S
H713 C705 0.929 . S
H714 C722 0.929 . S
H715 C724 0.930 . S
H716 C726 0.930 . S
H717 C729 0.929 . S
H718 C732 0.930 . S
H719 C734 0.960 . S
H720 C734 0.960 . S
H721 C734 0.960 . S
C722 H714 0.929 . S
C722 C723 1.377 . S
C722 C724 1.384 . S
C723 C722 1.377 . S
C723 C729 1.390 . S
C724 H715 0.930 . S
C724 C722 1.384 . S
C724 C725 1.372 . S
C725 C724 1.372 . S
C725 C726 1.400 . S
C725 C730 1.490 . S
C726 H716 0.930 . S
C726 C725 1.400 . S
C726 C729 1.386 . S
H727 C743 0.930 . S
H728 C744 0.931 . S
C729 H717 0.929 . S
C729 C723 1.390 . S
C729 C726 1.386 . S
C730 C725 1.490 . S
C730 C732 1.395 . S
C730 C733 1.403 . S
H731 C737 0.930 . S
C732 H718 0.930 . S
C732 C730 1.395 . S
C732 C735 1.403 . S
C733 C730 1.403 . S
C733 C734 1.524 . S
C733 C737 1.400 . S
C734 H719 0.960 . S
C734 H720 0.960 . S
C734 H721 0.960 . S
C734 C733 1.524 . S
C735 C732 1.403 . S
C735 C736 1.392 . S
C735 C739 1.495 . S
C736 C735 1.392 . S
C736 C737 1.385 . S
C736 C738 1.478 . S
C737 H731 0.930 . S
C737 C733 1.400 . S
C737 C736 1.385 . S
C738 C736 1.478 . S
C738 C740 1.381 . S
C738 C744 1.383 . S
C739 C735 1.495 . S
C739 H745 0.959 . S
C739 H746 0.961 . S
C739 H747 0.960 . S
C740 C738 1.381 . S
C740 C741 1.394 . S
C740 H748 0.930 . S
C741 C740 1.394 . S
C741 C742 1.383 . S
C741 H749 0.929 . S
C742 C741 1.383 . S
C742 C743 1.377 . S
C743 H727 0.930 . S
C743 C742 1.377 . S
C743 C744 1.379 . S
C744 H728 0.931 . S
C744 C738 1.383 . S
C744 C743 1.379 . S
H745 C739 0.959 . S
H746 C739 0.961 . S
H747 C739 0.960 . S
H748 C740 0.930 . S
H749 C741 0.929 . S
H750 C758 0.929 . S
H751 C760 0.930 . S
H752 C762 0.930 . S
H753 C765 0.929 . S
H754 C768 0.930 . S
H755 C770 0.960 . S
H756 C770 0.960 . S
H757 C770 0.960 . S
C758 H750 0.929 . S
C758 C759 1.377 . S
C758 C760 1.384 . S
C759 C758 1.377 . S
C759 C765 1.390 . S
C760 H751 0.930 . S
C760 C758 1.384 . S
C760 C761 1.372 . S
C761 C760 1.372 . S
C761 C762 1.400 . S
C761 C766 1.490 . S
C762 H752 0.930 . S
C762 C761 1.400 . S
C762 C765 1.386 . S
H763 C779 0.930 . S
H764 C780 0.931 . S
C765 H753 0.929 . S
C765 C759 1.390 . S
C765 C762 1.386 . S
C766 C761 1.490 . S
C766 C768 1.395 . S
C766 C769 1.403 . S
H767 C773 0.930 . S
C768 H754 0.930 . S
C768 C766 1.395 . S
C768 C771 1.403 . S
C769 C766 1.403 . S
C769 C770 1.524 . S
C769 C773 1.400 . S
C770 H755 0.960 . S
C770 H756 0.960 . S
C770 H757 0.960 . S
C770 C769 1.524 . S
C771 C768 1.403 . S
C771 C772 1.392 . S
C771 C775 1.495 . S
C772 C771 1.392 . S
C772 C773 1.385 . S
C772 C774 1.478 . S
C773 H767 0.930 . S
C773 C769 1.400 . S
C773 C772 1.385 . S
C774 C772 1.478 . S
C774 C776 1.404 . S
C774 C780 1.383 . S
C775 C771 1.495 . S
C775 H781 0.959 . S
C775 H782 0.961 . S
C775 H783 0.960 . S
C776 C774 1.404 . S
C776 C777 1.373 1_556 S
C776 H784 0.930 1_556 S
C777 C776 1.373 1_554 S
C777 C778 1.383 . S
C777 H785 0.929 . S
C778 C777 1.383 . S
C778 C779 1.377 1_554 S
C779 H763 0.930 . S
C779 C778 1.377 1_556 S
C779 C780 1.379 . S
C780 H764 0.931 . S
C780 C774 1.383 . S
C780 C779 1.379 . S
H781 C775 0.959 . S
H782 C775 0.961 . S
H783 C775 0.960 . S
H784 C776 0.930 1_554 S
H785 C777 0.929 . S
H786 C794 0.929 . S
H787 C796 0.930 . S
H788 C798 0.930 . S
H789 C801 0.929 . S
H790 C804 0.930 . S
H791 C806 0.960 . S
H792 C806 0.960 . S
H793 C806 0.960 . S
C794 H786 0.929 . S
C794 C795 1.377 . S
C794 C796 1.384 . S
C795 C794 1.377 . S
C795 C801 1.390 . S
C796 H787 0.930 . S
C796 C794 1.384 . S
C796 C797 1.372 . S
C797 C796 1.372 . S
C797 C798 1.400 . S
C797 C802 1.490 . S
C798 H788 0.930 . S
C798 C797 1.400 . S
C798 C801 1.386 . S
H799 C815 0.930 . S
H800 C816 0.931 . S
C801 H789 0.929 . S
C801 C795 1.390 . S
C801 C798 1.386 . S
C802 C797 1.490 . S
C802 C804 1.395 . S
C802 C805 1.403 . S
H803 C809 0.930 . S
C804 H790 0.930 . S
C804 C802 1.395 . S
C804 C807 1.403 . S
C805 C802 1.403 . S
C805 C806 1.524 . S
C805 C809 1.400 . S
C806 H791 0.960 . S
C806 H792 0.960 . S
C806 H793 0.960 . S
C806 C805 1.524 . S
C807 C804 1.403 . S
C807 C808 1.392 . S
C807 C811 1.495 . S
C808 C807 1.392 . S
C808 C809 1.385 . S
C808 C810 1.478 . S
C809 H803 0.930 . S
C809 C805 1.400 . S
C809 C808 1.385 . S
C810 C808 1.478 . S
C810 C812 1.381 . S
C810 C816 1.383 . S
C811 C807 1.495 . S
C811 H817 0.959 . S
C811 H818 0.961 . S
C811 H819 0.960 . S
C812 C810 1.381 . S
C812 C813 1.394 . S
C812 H820 0.930 . S
C813 C812 1.394 . S
C813 C814 1.383 . S
C813 H821 0.929 . S
C814 C813 1.383 . S
C814 C815 1.377 . S
C815 H799 0.930 . S
C815 C814 1.377 . S
C815 C816 1.379 . S
C816 H800 0.931 . S
C816 C810 1.383 . S
C816 C815 1.379 . S
H817 C811 0.959 . S
H818 C811 0.961 . S
H819 C811 0.960 . S
H820 C812 0.930 . S
H821 C813 0.929 . S
H822 C830 0.929 . S
H823 C832 0.930 . S
H824 C834 0.930 . S
H825 C837 0.929 . S
H826 C840 0.930 . S
H827 C842 0.960 . S
H828 C842 0.960 . S
H829 C842 0.960 . S
C830 H822 0.929 . S
C830 C831 1.377 . S
C830 C832 1.384 . S
C831 C830 1.377 . S
C831 C837 1.390 . S
C832 H823 0.930 . S
C832 C830 1.384 . S
C832 C833 1.372 . S
C833 C832 1.372 . S
C833 C834 1.400 . S
C833 C838 1.490 . S
C834 H824 0.930 . S
C834 C833 1.400 . S
C834 C837 1.386 . S
H835 C851 0.930 . S
H836 C852 0.931 . S
C837 H825 0.929 . S
C837 C831 1.390 . S
C837 C834 1.386 . S
C838 C833 1.490 . S
C838 C840 1.395 . S
C838 C841 1.403 . S
H839 C845 0.930 . S
C840 H826 0.930 . S
C840 C838 1.395 . S
C840 C843 1.403 . S
C841 C838 1.403 . S
C841 C842 1.524 . S
C841 C845 1.400 . S
C842 H827 0.960 . S
C842 H828 0.960 . S
C842 H829 0.960 . S
C842 C841 1.524 . S
C843 C840 1.403 . S
C843 C844 1.392 . S
C843 C847 1.495 . S
C844 C843 1.392 . S
C844 C845 1.385 . S
C844 C846 1.478 . S
C845 H839 0.930 . S
C845 C841 1.400 . S
C845 C844 1.385 . S
C846 C844 1.478 . S
C846 C848 1.381 . S
C846 C852 1.383 . S
C847 C843 1.495 . S
C847 H853 0.959 . S
C847 H854 0.961 . S
C847 H855 0.960 . S
C848 C846 1.381 . S
C848 C849 1.394 . S
C848 H856 0.930 . S
C849 C848 1.394 . S
C849 C850 1.383 . S
C849 H857 0.929 . S
C850 C849 1.383 . S
C850 C851 1.377 . S
C851 H835 0.930 . S
C851 C850 1.377 . S
C851 C852 1.379 . S
C852 H836 0.931 . S
C852 C846 1.383 . S
C852 C851 1.379 . S
H853 C847 0.959 . S
H854 C847 0.961 . S
H855 C847 0.960 . S
H856 C848 0.930 . S
H857 C849 0.929 . S
H858 C866 0.929 . S
H859 C868 0.930 . S
H860 C870 0.930 . S
H861 C873 0.929 . S
H862 C876 0.930 . S
H863 C878 0.960 . S
H864 C878 0.960 . S
H865 C878 0.960 . S
C866 H858 0.929 . S
C866 C867 1.377 . S
C866 C868 1.384 . S
C867 C866 1.377 . S
C867 C873 1.390 . S
C868 H859 0.930 . S
C868 C866 1.384 . S
C868 C869 1.372 . S
C869 C868 1.372 . S
C869 C870 1.400 . S
C869 C874 1.490 . S
C870 H860 0.930 . S
C870 C869 1.400 . S
C870 C873 1.386 . S
H871 C887 0.930 . S
H872 C888 0.931 . S
C873 H861 0.929 . S
C873 C867 1.390 . S
C873 C870 1.386 . S
C874 C869 1.490 . S
C874 C876 1.395 . S
C874 C877 1.403 . S
H875 C881 0.930 . S
C876 H862 0.930 . S
C876 C874 1.395 . S
C876 C879 1.403 . S
C877 C874 1.403 . S
C877 C878 1.524 . S
C877 C881 1.400 . S
C878 H863 0.960 . S
C878 H864 0.960 . S
C878 H865 0.960 . S
C878 C877 1.524 . S
C879 C876 1.403 . S
C879 C880 1.392 . S
C879 C883 1.495 . S
C880 C879 1.392 . S
C880 C881 1.385 . S
C880 C882 1.478 . S
C881 H875 0.930 . S
C881 C877 1.400 . S
C881 C880 1.385 . S
C882 C880 1.478 . S
C882 C884 1.381 . S
C882 C888 1.383 . S
C883 C879 1.495 . S
C883 H889 0.959 . S
C883 H890 0.961 . S
C883 H891 0.960 . S
C884 C882 1.381 . S
C884 C885 1.394 . S
C884 H892 0.930 . S
C885 C884 1.394 . S
C885 C886 1.383 . S
C885 H893 0.929 . S
C886 C885 1.383 . S
C886 C887 1.377 . S
C887 H871 0.930 . S
C887 C886 1.377 . S
C887 C888 1.379 . S
C888 H872 0.931 . S
C888 C882 1.383 . S
C888 C887 1.379 . S
H889 C883 0.959 . S
H890 C883 0.961 . S
H891 C883 0.960 . S
H892 C884 0.930 . S
H893 C885 0.929 . S
H894 C902 0.929 . S
H895 C904 0.930 . S
H896 C906 0.930 . S
H897 C909 0.929 . S
H898 C912 0.930 . S
H899 C914 0.960 . S
H900 C914 0.960 . S
H901 C914 0.960 . S
C902 H894 0.929 . S
C902 C903 1.377 . S
C902 C904 1.384 . S
C903 C902 1.377 . S
C903 C909 1.390 . S
C904 H895 0.930 . S
C904 C902 1.384 . S
C904 C905 1.372 . S
C905 C904 1.372 . S
C905 C906 1.400 . S
C905 C910 1.490 . S
C906 H896 0.930 . S
C906 C905 1.400 . S
C906 C909 1.386 . S
H907 C923 0.930 . S
H908 C924 0.931 . S
C909 H897 0.929 . S
C909 C903 1.390 . S
C909 C906 1.386 . S
C910 C905 1.490 . S
C910 C912 1.395 . S
C910 C913 1.403 . S
H911 C917 0.930 . S
C912 H898 0.930 . S
C912 C910 1.395 . S
C912 C915 1.403 . S
C913 C910 1.403 . S
C913 C914 1.524 . S
C913 C917 1.400 . S
C914 H899 0.960 . S
C914 H900 0.960 . S
C914 H901 0.960 . S
C914 C913 1.524 . S
C915 C912 1.403 . S
C915 C916 1.392 . S
C915 C919 1.495 . S
C916 C915 1.392 . S
C916 C917 1.385 . S
C916 C918 1.478 . S
C917 H911 0.930 . S
C917 C913 1.400 . S
C917 C916 1.385 . S
C918 C916 1.478 . S
C918 C920 1.381 . S
C918 C924 1.383 . S
C919 C915 1.495 . S
C919 H925 0.959 . S
C919 H926 0.961 . S
C919 H927 0.960 . S
C920 C918 1.381 . S
C920 C921 1.394 . S
C920 H928 0.930 . S
C921 C920 1.394 . S
C921 C922 1.383 . S
C921 H929 0.929 . S
C922 C921 1.383 . S
C922 C923 1.377 . S
C923 H907 0.930 . S
C923 C922 1.377 . S
C923 C924 1.379 . S
C924 H908 0.931 . S
C924 C918 1.383 . S
C924 C923 1.379 . S
H925 C919 0.959 . S
H926 C919 0.961 . S
H927 C919 0.960 . S
H928 C920 0.930 . S
H929 C921 0.929 . S
H930 C938 0.929 . S
H931 C940 0.930 . S
H932 C942 0.930 . S
H933 C945 0.929 . S
H934 C948 0.930 . S
H935 C950 0.960 . S
H936 C950 0.960 . S
H937 C950 0.960 . S
C938 H930 0.929 . S
C938 C939 1.377 . S
C938 C940 1.384 . S
C939 C938 1.377 . S
C939 C945 1.390 . S
C940 H931 0.930 . S
C940 C938 1.384 . S
C940 C941 1.372 . S
C941 C940 1.372 . S
C941 C942 1.400 . S
C941 C946 1.490 . S
C942 H932 0.930 . S
C942 C941 1.400 . S
C942 C945 1.386 . S
H943 C959 0.930 . S
H944 C960 0.931 . S
C945 H933 0.929 . S
C945 C939 1.390 . S
C945 C942 1.386 . S
C946 C941 1.490 . S
C946 C948 1.395 . S
C946 C949 1.403 . S
H947 C953 0.930 . S
C948 H934 0.930 . S
C948 C946 1.395 . S
C948 C951 1.403 . S
C949 C946 1.403 . S
C949 C950 1.524 . S
C949 C953 1.400 . S
C950 H935 0.960 . S
C950 H936 0.960 . S
C950 H937 0.960 . S
C950 C949 1.524 . S
C951 C948 1.403 . S
C951 C952 1.392 . S
C951 C955 1.495 . S
C952 C951 1.392 . S
C952 C953 1.385 . S
C952 C954 1.478 . S
C953 H947 0.930 . S
C953 C949 1.400 . S
C953 C952 1.385 . S
C954 C952 1.478 . S
C954 C956 1.381 . S
C954 C960 1.383 . S
C955 C951 1.495 . S
C955 H961 0.959 . S
C955 H962 0.961 . S
C955 H963 0.960 . S
C956 C954 1.381 . S
C956 C957 1.394 . S
C956 H964 0.930 . S
C957 C956 1.394 . S
C957 C958 1.383 . S
C957 H965 0.929 . S
C958 C957 1.383 . S
C958 C959 1.377 . S
C959 H943 0.930 . S
C959 C958 1.377 . S
C959 C960 1.379 . S
C960 H944 0.931 . S
C960 C954 1.383 . S
C960 C959 1.379 . S
H961 C955 0.959 . S
H962 C955 0.961 . S
H963 C955 0.960 . S
H964 C956 0.930 . S
H965 C957 0.929 . S
H966 C974 0.929 . S
H967 C976 0.930 . S
H968 C978 0.930 . S
H969 C981 0.929 . S
H970 C984 0.930 . S
H971 C986 0.960 . S
H972 C986 0.960 . S
H973 C986 0.960 . S
C974 H966 0.929 . S
C974 C975 1.377 . S
C974 C976 1.384 . S
C975 C974 1.377 . S
C975 C981 1.390 . S
C976 H967 0.930 . S
C976 C974 1.384 . S
C976 C977 1.372 . S
C977 C976 1.372 . S
C977 C978 1.400 . S
C977 C982 1.490 . S
C978 H968 0.930 . S
C978 C977 1.400 . S
C978 C981 1.386 . S
H979 C995 0.930 . S
H980 C996 0.931 . S
C981 H969 0.929 . S
C981 C975 1.390 . S
C981 C978 1.386 . S
C982 C977 1.490 . S
C982 C984 1.395 . S
C982 C985 1.403 . S
H983 C989 0.930 . S
C984 H970 0.930 . S
C984 C982 1.395 . S
C984 C987 1.403 . S
C985 C982 1.403 . S
C985 C986 1.524 . S
C985 C989 1.400 . S
C986 H971 0.960 . S
C986 H972 0.960 . S
C986 H973 0.960 . S
C986 C985 1.524 . S
C987 C984 1.403 . S
C987 C988 1.392 . S
C987 C991 1.495 . S
C988 C987 1.392 . S
C988 C989 1.385 . S
C988 C990 1.478 . S
C989 H983 0.930 . S
C989 C985 1.400 . S
C989 C988 1.385 . S
C990 C988 1.478 . S
C990 C992 1.381 . S
C990 C996 1.383 . S
C991 C987 1.495 . S
C991 H997 0.959 . S
C991 H998 0.961 . S
C991 H999 0.960 . S
C992 C990 1.381 . S
C992 C993 1.394 . S
C992 H1000 0.930 . S
C993 C992 1.394 . S
C993 C994 1.383 . S
C993 H1001 0.929 . S
C994 C993 1.383 . S
C994 C995 1.377 . S
C995 H979 0.930 . S
C995 C994 1.377 . S
C995 C996 1.379 . S
C996 H980 0.931 . S
C996 C990 1.383 . S
C996 C995 1.379 . S
H997 C991 0.959 . S
H998 C991 0.961 . S
H999 C991 0.960 . S
H1000 C992 0.930 . S
H1001 C993 0.929 . S
H1002 C1010 0.929 . S
H1003 C1012 0.930 . S
H1004 C1014 0.930 . S
H1005 C1017 0.929 . S
H1006 C1020 0.930 . S
H1007 C1022 0.960 . S
H1008 C1022 0.960 . S
H1009 C1022 0.960 . S
C1010 H1002 0.929 . S
C1010 C1011 1.377 . S
C1010 C1012 1.384 . S
C1011 C1010 1.377 . S
C1011 C1017 1.390 . S
C1012 H1003 0.930 . S
C1012 C1010 1.384 . S
C1012 C1013 1.372 . S
C1013 C1012 1.372 . S
C1013 C1014 1.400 . S
C1013 C1018 1.490 . S
C1014 H1004 0.930 . S
C1014 C1013 1.400 . S
C1014 C1017 1.386 . S
H1015 C1031 0.930 . S
H1016 C1032 0.940 . S
C1017 H1005 0.929 . S
C1017 C1011 1.390 . S
C1017 C1014 1.386 . S
C1018 C1013 1.490 . S
C1018 C1020 1.395 . S
C1018 C1021 1.403 . S
H1019 C1025 0.930 . S
C1020 H1006 0.930 . S
C1020 C1018 1.395 . S
C1020 C1023 1.403 . S
C1021 C1018 1.403 . S
C1021 C1022 1.524 . S
C1021 C1025 1.400 . S
C1022 H1007 0.960 . S
C1022 H1008 0.960 . S
C1022 H1009 0.960 . S
C1022 C1021 1.524 . S
C1023 C1020 1.403 . S
C1023 C1024 1.392 . S
C1023 C1027 1.495 1_554 S
C1024 C1023 1.392 . S
C1024 C1025 1.385 . S
C1024 C1026 1.478 1_554 S
C1025 H1019 0.930 . S
C1025 C1021 1.400 . S
C1025 C1024 1.385 . S
C1026 C1024 1.478 1_556 S
C1026 C1028 1.381 . S
C1026 C1032 1.383 . S
C1027 C1023 1.495 1_556 S
C1027 H1033 0.959 . S
C1027 H1034 0.961 . S
C1027 H1035 0.960 . S
C1028 C1026 1.381 . S
C1028 C1029 1.394 . S
C1028 H1036 0.930 . S
C1029 C1028 1.394 . S
C1029 C1030 1.383 . S
C1029 H1037 0.929 . S
C1030 C1029 1.383 . S
C1030 C1031 1.377 . S
C1031 H1015 0.930 . S
C1031 C1030 1.377 . S
C1031 C1032 1.379 . S
C1032 H1016 0.940 . S
C1032 C1026 1.383 . S
C1032 C1031 1.379 . S
H1033 C1027 0.959 . S
H1034 C1027 0.961 . S
H1035 C1027 0.960 . S
H1036 C1028 0.930 . S
H1037 C1029 0.929 . S
H1038 C1046 0.929 . S
H1039 C1048 0.930 . S
H1040 C1050 0.930 . S
H1041 C1053 0.929 . S
H1042 C1056 0.930 . S
H1043 C1058 0.960 . S
H1044 C1058 0.960 . S
H1045 C1058 0.960 . S
C1046 H1038 0.929 . S
C1046 C1047 1.377 . S
C1046 C1048 1.384 . S
C1047 C1046 1.377 . S
C1047 C1053 1.390 . S
C1048 H1039 0.930 . S
C1048 C1046 1.384 . S
C1048 C1049 1.372 . S
C1049 C1048 1.372 . S
C1049 C1050 1.400 . S
C1049 C1054 1.490 . S
C1050 H1040 0.930 . S
C1050 C1049 1.400 . S
C1050 C1053 1.386 . S
H1051 C1067 0.930 . S
H1052 C1068 0.931 . S
C1053 H1041 0.929 . S
C1053 C1047 1.390 . S
C1053 C1050 1.386 . S
C1054 C1049 1.490 . S
C1054 C1056 1.395 . S
C1054 C1057 1.403 . S
H1055 C1061 0.930 . S
C1056 H1042 0.930 . S
C1056 C1054 1.395 . S
C1056 C1059 1.403 . S
C1057 C1054 1.403 . S
C1057 C1058 1.524 . S
C1057 C1061 1.400 . S
C1058 H1043 0.960 . S
C1058 H1044 0.960 . S
C1058 H1045 0.960 . S
C1058 C1057 1.524 . S
C1059 C1056 1.403 . S
C1059 C1060 1.392 . S
C1059 C1063 1.495 . S
C1060 C1059 1.392 . S
C1060 C1061 1.385 . S
C1060 C1062 1.478 . S
C1061 H1055 0.930 . S
C1061 C1057 1.400 . S
C1061 C1060 1.385 . S
C1062 C1060 1.478 . S
C1062 C1064 1.381 . S
C1062 C1068 1.383 . S
C1063 C1059 1.495 . S
C1063 H1069 0.959 . S
C1063 H1070 0.961 . S
C1063 H1071 0.960 . S
C1064 C1062 1.381 . S
C1064 C1065 1.394 . S
C1064 H1072 0.930 . S
C1065 C1064 1.394 . S
C1065 C1066 1.383 . S
C1065 H1073 0.929 . S
C1066 C1065 1.383 . S
C1066 C1067 1.377 . S
C1067 H1051 0.930 . S
C1067 C1066 1.377 . S
C1067 C1068 1.379 . S
C1068 H1052 0.931 . S
C1068 C1062 1.383 . S
C1068 C1067 1.379 . S
H1069 C1063 0.959 . S
H1070 C1063 0.961 . S
H1071 C1063 0.960 . S
H1072 C1064 0.930 . S
H1073 C1065 0.929 . S
C238 C203 1.579 . S
C219 C19 1.492 . S
C255 C40 1.386 . S
C274 C137 1.446 . S
C291 C51 1.307 . S
C310 C151 1.379 . S
C327 C72 1.361 . S
C346 C165 1.445 . S
C382 C179 1.463 . S
C363 C103 1.391 . S
C399 C114 1.422 . S
C418 C189 1.511 . S
C435 C30 1.490 . S
C454 C147 1.576 . S
C471 C61 1.547 . S
C490 C161 1.638 . S
C507 C82 1.462 . S
C526 C175 1.558 . S
C562 C193 1.437 . S
C543 C93 1.355 1_554 S
C598 C207 1.490 . S
C579 C124 1.422 . S
C634 C133 1.563 . S
C615 C9 1.462 . S
C651 C17 1.446 . S
C670 C148 1.442 . S
C687 C38 1.527 . S
C706 C162 1.567 . S
C742 C176 1.543 . S
C723 C54 1.518 . S
C759 C75 1.417 . S
C778 C195 1.405 . S
C814 C209 1.360 . S
C795 C101 1.385 . S
C850 C134 1.426 . S
C831 C117 1.414 . S
C886 C204 1.461 . S
C867 C33 1.419 . S
C903 C59 1.302 . S
C922 C139 1.325 . S
C958 C153 1.364 . S
C939 C80 1.322 . S
C975 C96 1.378 . S
C994 C167 1.377 . S
C1011 C122 1.404 . S
C1030 C181 1.400 . S
C1047 C12 1.453 . S
C1066 C190 1.481 . S
