# Generated by pormake.
# Topology nom, (4,4)-cn, num edge types: 1
# Building blocks:
#     Node 0, Type 0, BuildingBlock: NAHDIM_clean_linker_0, # of connection points: 4
#     Node 1, Type 0, BuildingBlock: NAHDIM_clean_linker_0, # of connection points: 4
#     Node 2, Type 0, BuildingBlock: NAHDIM_clean_linker_0, # of connection points: 4
#     Node 3, Type 0, BuildingBlock: NAHDIM_clean_linker_0, # of connection points: 4
#     Node 4, Type 0, BuildingBlock: NAHDIM_clean_linker_0, # of connection points: 4
#     Node 5, Type 0, BuildingBlock: NAHDIM_clean_linker_0, # of connection points: 4
#     Node 6, Type 1, BuildingBlock: AZAVOO_clean_sbu_0, # of connection points: 4
#     Node 7, Type 1, BuildingBlock: AZAVOO_clean_sbu_0, # of connection points: 4
#     Node 8, Type 1, BuildingBlock: AZAVOO_clean_sbu_0, # of connection points: 4
#     Node 9, Type 1, BuildingBlock: AZAVOO_clean_sbu_0, # of connection points: 4
#     Node 10, Type 1, BuildingBlock: AZAVOO_clean_sbu_0, # of connection points: 4
#     Node 11, Type 1, BuildingBlock: AZAVOO_clean_sbu_0, # of connection points: 4
#     Edge 12, Type (0, 1), BuildingBlock: EZIPEK_clean_linker_0, # of connection points: 2
#     Edge 13, Type (0, 1), BuildingBlock: EZIPEK_clean_linker_0, # of connection points: 2
#     Edge 14, Type (0, 1), BuildingBlock: EZIPEK_clean_linker_0, # of connection points: 2
#     Edge 15, Type (0, 1), BuildingBlock: EZIPEK_clean_linker_0, # of connection points: 2
#     Edge 16, Type (0, 1), BuildingBlock: EZIPEK_clean_linker_0, # of connection points: 2
#     Edge 17, Type (0, 1), BuildingBlock: EZIPEK_clean_linker_0, # of connection points: 2
#     Edge 18, Type (0, 1), BuildingBlock: EZIPEK_clean_linker_0, # of connection points: 2
#     Edge 19, Type (0, 1), BuildingBlock: EZIPEK_clean_linker_0, # of connection points: 2
#     Edge 20, Type (0, 1), BuildingBlock: EZIPEK_clean_linker_0, # of connection points: 2
#     Edge 21, Type (0, 1), BuildingBlock: EZIPEK_clean_linker_0, # of connection points: 2
#     Edge 22, Type (0, 1), BuildingBlock: EZIPEK_clean_linker_0, # of connection points: 2
#     Edge 23, Type (0, 1), BuildingBlock: EZIPEK_clean_linker_0, # of connection points: 2
#     Edge 24, Type (0, 1), BuildingBlock: EZIPEK_clean_linker_0, # of connection points: 2
#     Edge 25, Type (0, 1), BuildingBlock: EZIPEK_clean_linker_0, # of connection points: 2
#     Edge 26, Type (0, 1), BuildingBlock: EZIPEK_clean_linker_0, # of connection points: 2
#     Edge 27, Type (0, 1), BuildingBlock: EZIPEK_clean_linker_0, # of connection points: 2
#     Edge 28, Type (0, 1), BuildingBlock: EZIPEK_clean_linker_0, # of connection points: 2
#     Edge 29, Type (0, 1), BuildingBlock: EZIPEK_clean_linker_0, # of connection points: 2
#     Edge 30, Type (0, 1), BuildingBlock: EZIPEK_clean_linker_0, # of connection points: 2
#     Edge 31, Type (0, 1), BuildingBlock: EZIPEK_clean_linker_0, # of connection points: 2
#     Edge 32, Type (0, 1), BuildingBlock: EZIPEK_clean_linker_0, # of connection points: 2
#     Edge 33, Type (0, 1), BuildingBlock: EZIPEK_clean_linker_0, # of connection points: 2
#     Edge 34, Type (0, 1), BuildingBlock: EZIPEK_clean_linker_0, # of connection points: 2
#     Edge 35, Type (0, 1), BuildingBlock: EZIPEK_clean_linker_0, # of connection points: 2
# Relax obj value: 0.098
# Max RMSD: 0.172
# Mean RMSD: 0.148
data_MOF--net-nom--node1-AZAVOO_clean_sbu_0--node2-NAHDIM_clean_linker_0--edge1-EZIPEK_clean_linker_0
_symmetry_space_group_name_H-M    P1
_symmetry_Int_Tables_number       1
_symmetry_cell_setting            triclinic
loop_
_symmetry_equiv_pos_as_xyz
'x, y, z'
_cell_length_a     46.609503
_cell_length_b     47.141665
_cell_length_c     54.828533
_cell_angle_alpha  91.047264
_cell_angle_beta   91.079195
_cell_angle_gamma 119.99497
loop_
_atom_site_label
_atom_site_type_symbol
_atom_site_fract_x
_atom_site_fract_y
_atom_site_fract_z
_atom_type_partial_charge
C0 C 0.17704 0.63074 0.20932 0.0
C1 C 0.19197 0.6403 0.23548 0.0
C2 C 0.14111 0.61819 0.25911 0.0
C3 C 0.13238 0.58497 0.25752 0.0
C4 C 0.10198 0.56047 0.26611 0.0
C5 C 0.07965 0.56924 0.27615 0.0
C6 C 0.08822 0.60258 0.27755 0.0
C7 C 0.11908 0.62662 0.26935 0.0
C8 C 0.09374 0.52517 0.26452 0.0
C9 C 0.06475 0.61286 0.28763 0.0
C10 C 0.86099 0.44131 0.16234 0.0
C11 C 0.88038 0.45977 0.18475 0.0
C12 C 0.91605 0.45791 0.21703 0.0
C13 C 0.92077 0.48621 0.22973 0.0
C14 C 0.94428 0.5004 0.24906 0.0
C15 C 0.96341 0.48599 0.25593 0.0
C16 C 0.95803 0.45695 0.24372 0.0
C17 C 0.93423 0.44318 0.22448 0.0
C18 C 0.94907 0.53112 0.26193 0.0
C19 C 0.97783 0.44085 0.25075 0.0
C20 C 0.86751 0.4145 0.39916 0.0
C21 C 0.87698 0.44684 0.39385 0.0
C22 C 0.90928 0.4686 0.38666 0.0
C23 C 0.93241 0.45754 0.38482 0.0
C24 C 0.92304 0.42506 0.39092 0.0
C25 C 0.8906 0.40391 0.39819 0.0
C26 C 0.91851 0.50318 0.38062 0.0
C27 C 0.94709 0.41256 0.38923 0.0
C28 C 0.17763 0.64902 0.46054 0.0
C29 C 0.15532 0.61181 0.45734 0.0
C30 C 0.09874 0.58284 0.43925 0.0
C31 C 0.07303 0.58863 0.43293 0.0
C32 C 0.04823 0.56842 0.41567 0.0
C33 C 0.04873 0.54111 0.405 0.0
C34 C 0.07385 0.53416 0.41223 0.0
C35 C 0.09882 0.55529 0.42919 0.0
C36 C 0.02174 0.57655 0.40867 0.0
C37 C 0.07443 0.50458 0.4019 0.0
C38 C 0.0473 0.54353 0.28512 0.0
C39 C 0.02144 0.52595 0.26798 0.0
C40 C 0.98999 0.5022 0.27517 0.0
C41 C 0.98403 0.49562 0.3002 0.0
C42 C 0.95265 0.4721 0.3081 0.0
C43 C 0.94679 0.46652 0.33283 0.0
C44 C 0.97207 0.48431 0.35061 0.0
C45 C 0.96603 0.47972 0.37582 0.0
C46 C 0.99174 0.49763 0.39302 0.0
C47 C 0.02347 0.52063 0.38577 0.0
C48 C 0.02993 0.52576 0.36063 0.0
C49 C 0.06141 0.54902 0.35267 0.0
C50 C 0.06734 0.55442 0.32796 0.0
C51 C 0.04187 0.53721 0.31022 0.0
C52 C 0.01005 0.51332 0.31779 0.0
C53 C 0.00409 0.50758 0.34302 0.0
C54 C 0.78558 0.34379 0.39418 0.0
C55 C 0.80989 0.37948 0.38807 0.0
O56 O 0.17028 0.64286 0.2511 0.0
O57 O 0.12253 0.60415 0.4554 0.0
O58 O 0.836 0.3932 0.40507 0.0
O59 O 0.8947 0.44453 0.19741 0.0
H60 H 0.19601 0.62001 0.24088 0.0
H61 H 0.15576 0.60528 0.20862 0.0
H62 H 0.16787 0.64688 0.20262 0.0
H63 H 0.19582 0.63169 0.19666 0.0
H64 H 0.14905 0.5778 0.24983 0.0
H65 H 0.12597 0.65225 0.27052 0.0
H66 H 0.07235 0.51117 0.25156 0.0
H67 H 0.11488 0.52261 0.25823 0.0
H68 H 0.08639 0.51395 0.28262 0.0
H69 H 0.07338 0.63914 0.28469 0.0
H70 H 0.03968 0.5978 0.27895 0.0
H71 H 0.06247 0.60871 0.30753 0.0
H72 H 0.89842 0.48618 0.18183 0.0
H73 H 0.87492 0.45703 0.14674 0.0
H74 H 0.86769 0.42185 0.15836 0.0
H75 H 0.81387 0.43042 0.16986 0.0
H76 H 0.90633 0.49748 0.22458 0.0
H77 H 0.93025 0.42121 0.21478 0.0
H78 H 0.94558 0.52709 0.28181 0.0
H79 H 0.97479 0.55142 0.25958 0.0
H80 H 0.93155 0.53879 0.25491 0.0
H81 H 0.97003 0.41782 0.23996 0.0
H82 H 0.00454 0.458 0.24792 0.0
H83 H 0.97501 0.43524 0.27043 0.0
H84 H 0.81925 0.37669 0.37022 0.0
H85 H 0.85894 0.45487 0.39509 0.0
H86 H 0.88287 0.37882 0.40259 0.0
H87 H 0.92343 0.50684 0.36086 0.0
H88 H 0.8986 0.50872 0.38497 0.0
H89 H 0.94158 0.52093 0.39086 0.0
H90 H 0.93576 0.38646 0.39417 0.0
H91 H 0.95615 0.41516 0.37035 0.0
H92 H 0.96894 0.42753 0.4016 0.0
H93 H 0.16223 0.60622 0.43951 0.0
H94 H 0.20411 0.65568 0.46059 0.0
H95 H 0.17303 0.66136 0.44512 0.0
H96 H 0.17305 0.65852 0.47781 0.0
H97 H 0.07295 0.60967 0.44116 0.0
H98 H 0.11804 0.55005 0.43476 0.0
H99 H 0.0197 0.57738 0.38851 0.0
H100 H 0.99744 0.55708 0.41498 0.0
H101 H 0.02675 0.6004 0.41683 0.0
H102 H 0.09324 0.50047 0.41141 0.0
H103 H 0.04967 0.48234 0.40329 0.0
H104 H 0.08019 0.50797 0.38225 0.0
H105 H 0.0257 0.5312 0.24877 0.0
H106 H 0.93221 0.45789 0.29525 0.0
H107 H 0.92209 0.44823 0.33784 0.0
H108 H 0.98675 0.4943 0.41232 0.0
H109 H 0.08186 0.56343 0.36546 0.0
H110 H 0.09209 0.57255 0.32295 0.0
H111 H 0.77534 0.34141 0.41257 0.0
H112 H 0.76472 0.33274 0.38045 0.0
H113 H 0.79849 0.32936 0.39359 0.0
C114 C 0.40591 0.84105 0.60462 0.0
C115 C 0.40516 0.82809 0.57851 0.0
C116 C 0.42471 0.87817 0.5553 0.0
C117 C 0.45889 0.88926 0.55627 0.0
C118 C 0.48187 0.92118 0.54965 0.0
C119 C 0.47048 0.94249 0.54218 0.0
C120 C 0.43611 0.93139 0.54115 0.0
C121 C 0.41365 0.89913 0.54736 0.0
C122 C 0.51835 0.93213 0.55054 0.0
C123 C 0.42311 0.95365 0.53364 0.0
C124 C 0.57811 0.14727 0.66966 0.0
C125 C 0.5646 0.13292 0.64483 0.0
C126 C 0.56813 0.09741 0.61341 0.0
C127 C 0.54305 0.09631 0.59802 0.0
C128 C 0.53148 0.07563 0.57708 0.0
C129 C 0.54593 0.05635 0.57093 0.0
C130 C 0.57214 0.05845 0.58578 0.0
C131 C 0.58278 0.07887 0.6069 0.0
C132 C 0.5033 0.0739 0.56181 0.0
C133 C 0.58848 0.03866 0.57958 0.0
C134 C 0.62327 0.17423 0.44589 0.0
C135 C 0.58876 0.16036 0.44304 0.0
C136 C 0.56776 0.1263 0.44328 0.0
C137 C 0.58165 0.10578 0.44579 0.0
C138 C 0.61647 0.11955 0.44605 0.0
C139 C 0.63689 0.15374 0.4461 0.0
C140 C 0.53071 0.11232 0.4421 0.0
C141 C 0.63206 0.09826 0.44786 0.0
C142 C 0.4095 0.87453 0.363 0.0
C143 C 0.44505 0.89526 0.35419 0.0
C144 C 0.47141 0.94811 0.37649 0.0
C145 C 0.46029 0.96874 0.38536 0.0
C146 C 0.47622 0.99014 0.40551 0.0
C147 C 0.50474 0.99169 0.41648 0.0
C148 C 0.51659 0.97136 0.40718 0.0
C149 C 0.49966 0.94962 0.38733 0.0
C150 C 0.46258 0.01111 0.41503 0.0
C151 C 0.54729 0.97285 0.4181 0.0
C152 C 0.49457 0.97649 0.53561 0.0
C153 C 0.50972 -2e-05 0.55455 0.0
C154 C 0.53229 0.03264 0.54979 0.0
C155 C 0.54015 0.04222 0.5254 0.0
C156 C 0.56283 0.07479 0.51993 0.0
C157 C 0.56947 0.08422 0.49587 0.0
C158 C 0.55401 0.06133 0.4763 0.0
C159 C 0.56006 0.0709 0.45176 0.0
C160 C 0.54426 0.04762 0.43275 0.0
C161 C 0.52216 0.01476 0.43755 0.0
C162 C 0.51575 0.00475 0.462 0.0
C163 C 0.49352 0.97201 0.46754 0.0
C164 C 0.48695 0.96257 0.49162 0.0
C165 C 0.50193 0.98559 0.51111 0.0
C166 C 0.5247 0.01863 0.50599 0.0
C167 C 0.53167 0.0282 0.48141 0.0
C168 C 0.6606 0.24855 0.48097 0.0
C169 C 0.63621 0.22926 0.45976 0.0
O170 O 0.40157 0.84744 0.56141 0.0
O171 O 0.4554 0.92835 0.35668 0.0
O172 O 0.64402 0.20704 0.44925 0.0
O173 O 0.57842 0.11546 0.63473 0.0
H174 H 0.42947 0.82947 0.57715 0.0
H175 H 0.42895 0.86503 0.60785 0.0
H176 H 0.38471 0.84487 0.60796 0.0
H177 H 0.4059 0.82377 0.61814 0.0
H178 H 0.46793 0.87314 0.56165 0.0
H179 H 0.38724 0.89026 0.54652 0.0
H180 H 0.53123 0.95199 0.56469 0.0
H181 H 0.52306 0.91185 0.55484 0.0
H182 H 0.52937 0.94225 0.53275 0.0
H183 H 0.39595 0.94219 0.53589 0.0
H184 H 0.43583 0.97695 0.54464 0.0
H185 H 0.42851 0.95982 0.5142 0.0
H186 H 0.53695 0.11911 0.64348 0.0
H187 H 0.55676 0.13422 0.68213 0.0
H188 H 0.59204 0.13504 0.67654 0.0
H189 H 0.60062 0.19673 0.66459 0.0
H190 H 0.53202 0.11117 0.60235 0.0
H191 H 0.60234 0.08009 0.61866 0.0
H192 H 0.51218 0.08349 0.54348 0.0
H193 H 0.48313 0.04803 0.55924 0.0
H194 H 0.49291 0.08832 0.57019 0.0
H195 H 0.61113 0.04609 0.59112 0.0
H196 H 0.57077 0.01232 0.58231 0.0
H197 H 0.59521 0.04139 0.56009 0.0
H198 H 0.61206 0.21512 0.46849 0.0
H199 H 0.57808 0.17605 0.4413 0.0
H200 H 0.66359 0.16466 0.44758 0.0
H201 H 0.5198 0.0994 0.45916 0.0
H202 H 0.52381 0.13152 0.43963 0.0
H203 H 0.51962 0.09409 0.42671 0.0
H204 H 0.659 0.11209 0.44435 0.0
H205 H 0.62869 0.08835 0.46646 0.0
H206 H 0.61965 0.07712 0.43465 0.0
H207 H 0.45951 0.88902 0.367 0.0
H208 H 0.4014 0.84805 0.361 0.0
H209 H 0.4087 0.88031 0.38263 0.0
H210 H 0.3914 0.87898 0.35292 0.0
H211 H 0.4387 0.96766 0.37662 0.0
H212 H 0.50901 0.9345 0.37994 0.0
H213 H 0.45971 0.00883 0.43508 0.0
H214 H 0.48028 0.03718 0.41145 0.0
H215 H 0.43822 0.00437 0.40626 0.0
H216 H 0.55439 0.95682 0.40792 0.0
H217 H 0.56831 0.99845 0.41824 0.0
H218 H 0.54298 0.96515 0.43732 0.0
H219 H 0.50353 0.9928 0.57327 0.0
H220 H 0.57546 0.09345 0.5342 0.0
H221 H 0.58683 0.10977 0.49286 0.0
H222 H 0.54874 0.05528 0.414 0.0
H223 H 0.48089 0.9533 0.45331 0.0
H224 H 0.46967 0.93702 0.49476 0.0
H225 H 0.65254 0.26424 0.49054 0.0
H226 H 0.66103 0.23127 0.49428 0.0
H227 H 0.68617 0.26452 0.47484 0.0
C228 C 0.59257 0.42832 0.74637 0.0
C229 C 0.6057 0.41773 0.72441 0.0
C230 C 0.5779 0.43284 0.69313 0.0
C231 C 0.59939 0.46689 0.69371 0.0
C232 C 0.58919 0.48782 0.68386 0.0
C233 C 0.55678 0.47439 0.67351 0.0
C234 C 0.53538 0.43999 0.67243 0.0
C235 C 0.54656 0.41965 0.68184 0.0
C236 C 0.61283 0.52432 0.6849 0.0
C237 C 0.50038 0.42471 0.66204 0.0
C238 C 0.43999 0.57198 0.78937 0.0
C239 C 0.44385 0.55443 0.76803 0.0
C240 C 0.48449 0.56086 0.73798 0.0
C241 C 0.46401 0.53031 0.72605 0.0
C242 C 0.47504 0.52028 0.70582 0.0
C243 C 0.50732 0.54098 0.69747 0.0
C244 C 0.52803 0.57169 0.70941 0.0
C245 C 0.51625 0.58127 0.7295 0.0
C246 C 0.45238 0.48727 0.69357 0.0
C247 C 0.56274 0.59409 0.70113 0.0
C248 C 0.45789 0.60362 0.55178 0.0
C249 C 0.43849 0.57053 0.55712 0.0
C250 C 0.45322 0.55298 0.5661 0.0
C251 C 0.48812 0.569 0.56951 0.0
C252 C 0.50774 0.60244 0.56388 0.0
C253 C 0.4923 0.61935 0.55494 0.0
C254 C 0.4316 0.51731 0.57173 0.0
C255 C 0.54498 0.62016 0.56717 0.0
C256 C 0.54792 0.40643 0.49842 0.0
C257 C 0.57625 0.44018 0.49136 0.0
C258 C 0.55663 0.47517 0.50746 0.0
C259 C 0.52351 0.46094 0.51386 0.0
C260 C 0.51428 0.47427 0.53318 0.0
C261 C 0.53876 0.50303 0.54577 0.0
C262 C 0.57221 0.51795 0.5388 0.0
C263 C 0.5808 0.50357 0.51977 0.0
C264 C 0.4784 0.45769 0.54006 0.0
C265 C 0.59878 0.54912 0.55132 0.0
C266 C 0.54441 0.49632 0.66542 0.0
C267 C 0.53392 0.51015 0.68338 0.0
C268 C 0.51999 0.52939 0.67729 0.0
C269 C 0.51654 0.53537 0.65253 0.0
C270 C 0.50232 0.55437 0.64572 0.0
C271 C 0.49846 0.55954 0.62124 0.0
C272 C 0.50856 0.54579 0.60267 0.0
C273 C 0.5042 0.55032 0.57773 0.0
C274 C 0.51468 0.53645 0.55977 0.0
C275 C 0.52919 0.51772 0.56593 0.0
C276 C 0.53356 0.51265 0.59074 0.0
C277 C 0.54771 0.49358 0.59757 0.0
C278 C 0.55181 0.48864 0.62202 0.0
C279 C 0.54139 0.5021 0.64056 0.0
C280 C 0.52724 0.52158 0.6341 0.0
C281 C 0.52326 0.52681 0.60916 0.0
C282 C 0.43469 0.66579 0.54916 0.0
C283 C 0.42779 0.6322 0.55776 0.0
O284 O 0.58626 0.41191 0.70343 0.0
O285 O 0.56499 0.46217 0.48863 0.0
O286 O 0.44361 0.62043 0.54311 0.0
O287 O 0.47464 0.57136 0.75768 0.0
H288 H 0.6306 0.43904 0.72188 0.0
H289 H 0.59712 0.45357 0.74407 0.0
H290 H 0.56559 0.41216 0.74853 0.0
H291 H 0.60582 0.42849 0.76349 0.0
H292 H 0.62405 0.47722 0.70185 0.0
H293 H 0.53034 0.39329 0.68133 0.0
H294 H 0.60413 0.53608 0.6983 0.0
H295 H 0.63844 0.53056 0.69042 0.0
H296 H 0.61334 0.53482 0.66684 0.0
H297 H 0.4859 0.39792 0.66489 0.0
H298 H 0.48732 0.43644 0.67059 0.0
H299 H 0.50093 0.42878 0.64215 0.0
H300 H 0.42308 0.54535 0.75413 0.0
H301 H 0.43344 0.54167 0.81751 0.0
H302 H 0.46111 0.59802 0.78926 0.0
H303 H 0.42052 0.57808 0.78342 0.0
H304 H 0.43949 0.51398 0.73251 0.0
H305 H 0.53193 0.6047 0.73884 0.0
H306 H 0.4501 0.49008 0.67368 0.0
H307 H 0.4632 0.47114 0.69588 0.0
H308 H 0.42721 0.47501 0.70119 0.0
H309 H 0.57558 0.61744 0.71208 0.0
H310 H 0.57746 0.58153 0.70259 0.0
H311 H 0.56194 0.59975 0.68164 0.0
H312 H 0.43974 0.63822 0.57631 0.0
H313 H 0.41185 0.55855 0.55424 0.0
H314 H 0.50696 0.64495 0.5505 0.0
H315 H 0.43512 0.51357 0.59125 0.0
H316 H 0.40489 0.50843 0.56794 0.0
H317 H 0.43903 0.5022 0.56068 0.0
H318 H 0.55653 0.64663 0.56331 0.0
H319 H 0.55195 0.6176 0.58615 0.0
H320 H 0.55528 0.60887 0.55473 0.0
H321 H 0.59525 0.45037 0.50645 0.0
H322 H 0.52675 0.39694 0.48507 0.0
H323 H 0.55647 0.3883 0.49929 0.0
H324 H 0.53902 0.40819 0.51671 0.0
H325 H 0.50502 0.43921 0.50381 0.0
H326 H 0.60628 0.51456 0.51427 0.0
H327 H 0.47633 0.45402 0.56004 0.0
H328 H 0.46796 0.47362 0.53545 0.0
H329 H 0.4632 0.43359 0.53037 0.0
H330 H 0.62278 0.55945 0.54202 0.0
H331 H 0.59088 0.56778 0.55192 0.0
H332 H 0.60267 0.54412 0.57044 0.0
H333 H 0.53588 0.50519 0.70242 0.0
H334 H 0.49396 0.56539 0.65926 0.0
H335 H 0.48731 0.57432 0.61703 0.0
H336 H 0.5112 0.54002 0.54067 0.0
H337 H 0.55577 0.48222 0.58408 0.0
H338 H 0.56301 0.4739 0.62621 0.0
H339 H 0.42721 0.66514 0.52978 0.0
H340 H 0.42137 0.67494 0.56057 0.0
H341 H 0.46167 0.68366 0.55113 0.0
C342 C 0.21026 0.59338 0.94263 0.0
C343 C 0.216 0.60318 0.91571 0.0
C344 C 0.16102 0.56776 0.89512 0.0
C345 C 0.14819 0.58902 0.89765 0.0
C346 C 0.1155 0.57899 0.88987 0.0
C347 C 0.09498 0.54684 0.88002 0.0
C348 C 0.10779 0.52532 0.87773 0.0
C349 C 0.14084 0.53638 0.88486 0.0
C350 C 0.10279 0.60269 0.89242 0.0
C351 C 0.08651 0.49039 0.86823 0.0
C352 C 0.87586 0.43296 0.99478 0.0
C353 C 0.90231 0.4381 0.97781 0.0
C354 C 0.94138 0.47986 0.95127 0.0
C355 C 0.95265 0.45989 0.94079 0.0
C356 C 0.97296 0.47009 0.92056 0.0
C357 C 0.98263 0.50107 0.91086 0.0
C358 C 0.97236 0.52174 0.92186 0.0
C359 C 0.95179 0.5108 0.94199 0.0
C360 C 0.98398 0.44768 0.90946 0.0
C361 C 0.98287 0.55518 0.91219 0.0
C362 C 0.84778 0.43502 0.77042 0.0
C363 C 0.86271 0.41644 0.77585 0.0
C364 C 0.89598 0.43174 0.78401 0.0
C365 C 0.91459 0.46636 0.7864 0.0
C366 C 0.89938 0.48513 0.78095 0.0
C367 C 0.86605 0.46913 0.77288 0.0
C368 C 0.91152 0.41104 0.78946 0.0
C369 C 0.91858 0.52205 0.78308 0.0
C370 C 0.13578 0.58498 0.7057 0.0
C371 C 0.11022 0.55993 0.68686 0.0
C372 C 0.06829 0.5247 0.71562 0.0
C373 C 0.05746 0.49606 0.72856 0.0
C374 C 0.03699 0.48952 0.74855 0.0
C375 C 0.02716 0.51231 0.75568 0.0
C376 C 0.03713 0.54086 0.74222 0.0
C377 C 0.05739 0.54667 0.72218 0.0
C378 C 0.02613 0.45844 0.76222 0.0
C379 C 0.02657 0.56535 0.74915 0.0
C380 C 0.05945 0.53478 0.87397 0.0
C381 C 0.03798 0.52632 0.89338 0.0
C382 C 0.00381 0.5118 0.88932 0.0
C383 C 0.99031 0.50543 0.86521 0.0
C384 C 0.9559 0.49019 0.8605 0.0
C385 C 0.94282 0.48311 0.83669 0.0
C386 C 0.96364 0.49088 0.81672 0.0
C387 C 0.95063 0.48304 0.79247 0.0
C388 C 0.97202 0.49063 0.77309 0.0
C389 C 0.00626 0.50613 0.77715 0.0
C390 C 0.01989 0.51466 0.8012 0.0
C391 C 0.05435 0.53079 0.80588 0.0
C392 C 0.06744 0.53802 0.82968 0.0
C393 C 0.04656 0.52919 0.84969 0.0
C394 C 0.0118 0.51403 0.84533 0.0
C395 C 0.99844 0.50668 0.82107 0.0
C396 C 0.76401 0.41558 0.76945 0.0
C397 C 0.78859 0.40375 0.77522 0.0
O398 O 0.19253 0.57609 0.90201 0.0
O399 O 0.08941 0.53022 0.69722 0.0
O400 O 0.81632 0.42038 0.76132 0.0
O401 O 0.92024 0.46998 0.97004 0.0
H402 H 0.21336 0.62499 0.91292 0.0
H403 H 0.18335 0.58108 0.94624 0.0
H404 H 0.21906 0.57595 0.94676 0.0
H405 H 0.22229 0.61465 0.95559 0.0
H406 H 0.16324 0.61341 0.90553 0.0
H407 H 0.15096 0.52019 0.88296 0.0
H408 H 0.08506 0.59506 0.90747 0.0
H409 H 0.12309 0.62816 0.89655 0.0
H410 H 0.08931 0.6024 0.87541 0.0
H411 H 0.09859 0.4755 0.87133 0.0
H412 H 0.0622 0.47848 0.87715 0.0
H413 H 0.08173 0.49024 0.84832 0.0
H414 H 0.89355 0.41958 0.96237 0.0
H415 H 0.89018 0.42037 0.02627 0.0
H416 H 0.87262 0.45505 0.99375 0.0
H417 H 0.85192 0.41594 0.98458 0.0
H418 H 0.94567 0.4363 0.94827 0.0
H419 H 0.9433 0.52618 0.95037 0.0
H420 H 0.97669 0.44309 0.88976 0.0
H421 H 0.01141 0.45968 0.91092 0.0
H422 H 0.97317 0.42377 0.91854 0.0
H423 H 0.97361 0.56873 0.92327 0.0
H424 H 0.01034 0.56988 0.91198 0.0
H425 H 0.97336 0.55262 0.89308 0.0
H426 H 0.79537 0.41106 0.79479 0.0
H427 H 0.84842 0.39004 0.77326 0.0
H428 H 0.85417 0.48316 0.76825 0.0
H429 H 0.92288 0.41705 0.80818 0.0
H430 H 0.89325 0.38439 0.78793 0.0
H431 H 0.93163 0.41667 0.77655 0.0
H432 H 0.90265 0.53298 0.77956 0.0
H433 H 0.9303 0.53008 0.80162 0.0
H434 H 0.93876 0.5317 0.76979 0.0
H435 H 0.09547 0.57108 0.68047 0.0
H436 H 0.15471 0.60692 0.69635 0.0
H437 H 0.1236 0.59347 0.71879 0.0
H438 H 0.14848 0.57454 0.71643 0.0
H439 H 0.06565 0.47909 0.72318 0.0
H440 H 0.06465 0.56845 0.71189 0.0
H441 H 0.03643 0.46467 0.78123 0.0
H442 H 0.99869 0.44456 0.76316 0.0
H443 H 0.03442 0.44238 0.75354 0.0
H444 H 0.03762 0.5871 0.73748 0.0
H445 H 0.99916 0.55346 0.7475 0.0
H446 H 0.03394 0.5737 0.76849 0.0
H447 H 0.04793 0.53011 0.91197 0.0
H448 H 0.93868 0.4834 0.87519 0.0
H449 H 0.91615 0.4712 0.83412 0.0
H450 H 0.96183 0.48418 0.75454 0.0
H451 H 0.07158 0.5378 0.79118 0.0
H452 H 0.09412 0.55032 0.83224 0.0
H453 H 0.74136 0.40198 0.78024 0.0
H454 H 0.77555 0.44208 0.77445 0.0
H455 H 0.75663 0.41236 0.74981 0.0
C456 C 0.47793 0.85935 0.88265 0.0
C457 C 0.46574 0.84219 0.90703 0.0
C458 C 0.49197 0.88843 0.93611 0.0
C459 C 0.46486 0.89218 0.94202 0.0
C460 C 0.46969 0.92236 0.95095 0.0
C461 C 0.50228 0.94928 0.954 0.0
C462 C 0.52969 0.94514 0.94911 0.0
C463 C 0.52412 0.91451 0.94052 0.0
C464 C 0.43993 0.92574 0.95655 0.0
C465 C 0.56475 0.97336 0.95212 0.0
C466 C 0.45704 0.0381 0.81683 0.0
C467 C 0.48719 0.06089 0.83326 0.0
C468 C 0.48623 0.06174 0.87802 0.0
C469 C 0.51845 0.06783 0.88317 0.0
C470 C 0.52678 0.06037 0.90597 0.0
C471 C 0.50232 0.04642 0.92382 0.0
C472 C 0.47047 0.04234 0.91914 0.0
C473 C 0.46306 0.0506 0.89636 0.0
C474 C 0.56125 0.06591 0.91056 0.0
C475 C 0.44361 0.02733 0.93759 0.0
C476 C 0.55016 0.17923 0.06589 0.0
C477 C 0.57725 0.17583 0.05937 0.0
C478 C 0.57259 0.14585 0.0501 0.0
C479 C 0.54018 0.11848 0.04792 0.0
C480 C 0.51278 0.12177 0.05459 0.0
C481 C 0.51819 0.15217 0.06363 0.0
C482 C 0.60242 0.14312 0.04348 0.0
C483 C 0.47795 0.09294 0.05283 0.0
C484 C 0.57218 0.93818 0.15114 0.0
C485 C 0.54646 0.94402 0.13777 0.0
C486 C 0.55234 0.99136 0.1173 0.0
C487 C 0.57807 0.01002 0.1018 0.0
C488 C 0.57278 0.02496 0.08167 0.0
C489 C 0.54096 0.02104 0.07716 0.0
C490 C 0.515 0.00254 0.09312 0.0
C491 C 0.52112 0.98814 0.11324 0.0
C492 C 0.60117 0.045 0.06528 0.0
C493 C 0.48089 0.99808 0.08892 0.0
C494 C 0.50744 0.9823 0.96018 0.0
C495 C 0.50452 -3e-05 0.94113 0.0
C496 C 0.50806 0.03089 0.94524 0.0
C497 C 0.51524 0.04505 0.96913 0.0
C498 C 0.51954 0.07636 0.97397 0.0
C499 C 0.52611 0.08977 0.99768 0.0
C500 C 0.52878 0.07241 0.01736 0.0
C501 C 0.53543 0.08568 0.04151 0.0
C502 C 0.53864 0.06803 0.06051 0.0
C503 C 0.53527 0.03725 0.05621 0.0
C504 C 0.52792 0.02317 0.03234 0.0
C505 C 0.52359 0.99184 0.02751 0.0
C506 C 0.51674 0.97833 0.0039 0.0
C507 C 0.51415 0.99571 0.98423 0.0
C508 C 0.51815 0.02726 0.9887 0.0
C509 C 0.5249 0.04094 0.01281 0.0
C510 C 0.55799 0.26015 0.07463 0.0
C511 C 0.57064 0.23779 0.06488 0.0
O512 O 0.48795 0.86012 0.92601 0.0
O513 O 0.55823 0.97731 0.13655 0.0
O514 O 0.55435 0.20769 0.07578 0.0
O515 O 0.47637 0.06578 0.85553 0.0
H516 H 0.44192 0.84171 0.90915 0.0
H517 H 0.47651 0.88219 0.88273 0.0
H518 H 0.504 0.86641 0.87938 0.0
H519 H 0.46193 0.84325 0.86723 0.0
H520 H 0.4399 0.87167 0.93973 0.0
H521 H 0.54487 0.91116 0.93624 0.0
H522 H 0.43747 0.94159 0.94292 0.0
H523 H 0.41657 0.9017 0.95606 0.0
H524 H 0.44328 0.93772 0.97483 0.0
H525 H 0.58336 0.96614 0.94745 0.0
H526 H 0.56809 0.99356 0.94023 0.0
H527 H 0.56958 0.98305 0.97126 0.0
H528 H 0.50095 0.04772 0.83667 0.0
H529 H 0.46498 0.03248 0.7993 0.0
H530 H 0.44158 0.01466 0.82605 0.0
H531 H 0.44154 0.04929 0.81273 0.0
H532 H 0.53692 0.07785 0.8693 0.0
H533 H 0.43846 0.04666 0.89228 0.0
H534 H 0.57056 0.07661 0.92921 0.0
H535 H 0.56053 0.04203 0.90933 0.0
H536 H 0.57891 0.08238 0.89705 0.0
H537 H 0.42006 0.02556 0.93101 0.0
H538 H 0.43873 0.00237 0.94179 0.0
H539 H 0.45189 0.04226 0.95486 0.0
H540 H 0.56229 0.23414 0.04544 0.0
H541 H 0.60217 0.19612 0.06221 0.0
H542 H 0.49747 0.15493 0.06913 0.0
H543 H 0.59841 0.13112 0.02513 0.0
H544 H 0.62546 0.16741 0.04351 0.0
H545 H 0.60592 0.12756 0.0568 0.0
H546 H 0.45918 0.09984 0.05777 0.0
H547 H 0.47228 0.08222 0.03395 0.0
H548 H 0.47585 0.07364 0.06519 0.0
H549 H 0.54535 0.93375 0.11916 0.0
H550 H 0.56271 0.91146 0.15246 0.0
H551 H 0.59536 0.94893 0.14075 0.0
H552 H 0.57858 0.94955 0.16976 0.0
H553 H 0.60222 0.01264 0.10545 0.0
H554 H 0.5016 0.97428 0.12579 0.0
H555 H 0.59509 0.03382 0.04655 0.0
H556 H 0.60499 0.07015 0.06412 0.0
H557 H 0.62469 0.0467 0.07185 0.0
H558 H 0.46287 0.9813 0.10212 0.0
H559 H 0.48223 0.02222 0.09061 0.0
H560 H 0.47158 0.98814 0.07011 0.0
H561 H 0.49884 0.98918 0.92276 0.0
H562 H 0.5178 0.09075 0.95945 0.0
H563 H 0.5291 0.11392 0.00042 0.0
H564 H 0.5443 0.07863 0.07893 0.0
H565 H 0.52539 0.97739 0.04195 0.0
H566 H 0.51359 0.9541 0.00122 0.0
H567 H 0.57078 0.28416 0.06564 0.0
H568 H 0.53098 0.2487 0.07039 0.0
H569 H 0.56179 0.26464 0.09463 0.0
C570 C 0.61373 0.47791 0.04638 0.0
C571 C 0.61484 0.46475 0.07165 0.0
C572 C 0.59395 0.49333 0.0974 0.0
C573 C 0.55983 0.47065 0.09476 0.0
C574 C 0.53627 0.47882 0.1025 0.0
C575 C 0.54695 0.51045 0.11271 0.0
C576 C 0.58127 0.53325 0.11555 0.0
C577 C 0.60429 0.52413 0.10822 0.0
C578 C 0.49989 0.45364 0.09967 0.0
C579 C 0.59366 0.56739 0.12603 0.0
C580 C 0.42775 0.59286 0.98693 0.0
C581 C 0.4404 0.59565 0.01256 0.0
C582 C 0.44315 0.56049 0.0438 0.0
C583 C 0.46932 0.58607 0.05767 0.0
C584 C 0.48275 0.57946 0.07848 0.0
C585 C 0.46926 0.54675 0.08591 0.0
C586 C 0.44224 0.52112 0.07243 0.0
C587 C 0.42973 0.52835 0.05144 0.0
C588 C 0.51184 0.60733 0.09225 0.0
C589 C 0.42702 0.48597 0.0799 0.0
C590 C 0.39213 0.58395 0.23036 0.0
C591 C 0.42609 0.60539 0.22803 0.0
C592 C 0.44664 0.59393 0.21919 0.0
C593 C 0.43285 0.56022 0.21303 0.0
C594 C 0.39853 0.53849 0.21563 0.0
C595 C 0.37855 0.55069 0.22437 0.0
C596 C 0.48313 0.61771 0.21676 0.0
C597 C 0.38311 0.50238 0.20946 0.0
C598 C 0.57416 0.51192 0.32691 0.0
C599 C 0.56537 0.48794 0.30493 0.0
C600 C 0.52426 0.48998 0.2772 0.0
C601 C 0.54457 0.52166 0.26859 0.0
C602 C 0.53346 0.53345 0.24939 0.0
C603 C 0.50163 0.51305 0.23848 0.0
C604 C 0.48109 0.4813 0.24728 0.0
C605 C 0.49263 0.47035 0.26669 0.0
C606 C 0.55564 0.56773 0.2408 0.0
C607 C 0.44691 0.45893 0.23624 0.0
C608 C 0.52227 0.51998 0.11985 0.0
C609 C 0.50757 0.529 0.10143 0.0
C610 C 0.48468 0.53898 0.10676 0.0
C611 C 0.47676 0.54093 0.1313 0.0
C612 C 0.45462 0.55181 0.13746 0.0
C613 C 0.44751 0.5542 0.16173 0.0
C614 C 0.46174 0.54513 0.1807 0.0
C615 C 0.4547 0.54738 0.20541 0.0
C616 C 0.46855 0.53729 0.22372 0.0
C617 C 0.48941 0.52494 0.21813 0.0
C618 C 0.49737 0.52314 0.19361 0.0
C619 C 0.51858 0.51116 0.18737 0.0
C620 C 0.52675 0.51007 0.16324 0.0
C621 C 0.5137 0.52052 0.14438 0.0
C622 C 0.49135 0.53163 0.15015 0.0
C623 C 0.48351 0.53334 0.17484 0.0
C624 C 0.32786 0.60588 0.23424 0.0
C625 C 0.36193 0.61281 0.22582 0.0
O626 O 0.6177 0.48659 0.09009 0.0
O627 O 0.53363 0.47749 0.29583 0.0
O628 O 0.37244 0.59491 0.23922 0.0
O629 O 0.43071 0.56558 0.02274 0.0
H630 H 0.59088 0.44161 0.0723 0.0
H631 H 0.59021 0.47826 0.04384 0.0
H632 H 0.63434 0.5032 0.04405 0.0
H633 H 0.61452 0.46167 0.03178 0.0
H634 H 0.5512 0.44638 0.08704 0.0
H635 H 0.63063 0.54137 0.11037 0.0
H636 H 0.48843 0.46108 0.08507 0.0
H637 H 0.49572 0.42887 0.09475 0.0
H638 H 0.48705 0.45227 0.11684 0.0
H639 H 0.62093 0.58318 0.12473 0.0
H640 H 0.58135 0.57912 0.11634 0.0
H641 H 0.5873 0.56605 0.14554 0.0
H642 H 0.4363 0.61219 0.02502 0.0
H643 H 0.47026 0.61482 0.96737 0.0
H644 H 0.40785 0.56656 0.98349 0.0
H645 H 0.41009 0.60256 0.98774 0.0
H646 H 0.47979 0.61116 0.05213 0.0
H647 H 0.40953 0.50879 0.0407 0.0
H648 H 0.5049 0.60905 0.11125 0.0
H649 H 0.53286 0.60255 0.09323 0.0
H650 H 0.52029 0.63126 0.08361 0.0
H651 H 0.40375 0.4695 0.06931 0.0
H652 H 0.4449 0.47731 0.07692 0.0
H653 H 0.42164 0.48408 0.09964 0.0
H654 H 0.35648 0.60309 0.20666 0.0
H655 H 0.43646 0.63102 0.23324 0.0
H656 H 0.35227 0.53435 0.22658 0.0
H657 H 0.49044 0.61647 0.19778 0.0
H658 H 0.48975 0.64337 0.22136 0.0
H659 H 0.49769 0.61078 0.22903 0.0
H660 H 0.35581 0.48898 0.21146 0.0
H661 H 0.38864 0.49877 0.19041 0.0
H662 H 0.3941 0.49153 0.22165 0.0
H663 H 0.58405 0.50255 0.29134 0.0
H664 H 0.59878 0.51825 0.33496 0.0
H665 H 0.57556 0.53492 0.32088 0.0
H666 H 0.55564 0.50203 0.34133 0.0
H667 H 0.56881 0.53751 0.27695 0.0
H668 H 0.47704 0.44612 0.27364 0.0
H669 H 0.56262 0.56658 0.22172 0.0
H670 H 0.54215 0.58159 0.24093 0.0
H671 H 0.57867 0.58138 0.25233 0.0
H672 H 0.43533 0.43392 0.24361 0.0
H673 H 0.43073 0.4694 0.24013 0.0
H674 H 0.44809 0.45706 0.2161 0.0
H675 H 0.51398 0.52815 0.0826 0.0
H676 H 0.44281 0.55892 0.12359 0.0
H677 H 0.43058 0.56308 0.16545 0.0
H678 H 0.46274 0.53877 0.24261 0.0
H679 H 0.52936 0.50276 0.20111 0.0
H680 H 0.5434 0.50084 0.15954 0.0
H681 H 0.31954 0.62056 0.22375 0.0
H682 H 0.30939 0.57952 0.23088 0.0
H683 H 0.328 0.61151 0.25396 0.0
Mg684 Mg 0.63252 0.37295 0.36363 0.0
O685 O 0.62846 0.40199 0.39583 0.0
O686 O 0.65652 0.45559 0.38852 0.0
Mg687 Mg 0.67654 0.45989 0.34997 0.0
C688 C 0.63839 0.43176 0.40204 0.0
C689 C 0.62734 0.30958 0.3831 0.0
O690 O 0.63905 0.30989 0.36143 0.0
O691 O 0.68611 0.39084 0.37331 0.0
O692 O 0.71357 0.44326 0.36272 0.0
O693 O 0.58588 0.36746 0.34768 0.0
O694 O 0.63598 0.40909 0.34093 0.0
C695 C 0.71294 0.41771 0.37083 0.0
C696 C 0.60421 0.39618 0.33884 0.0
O697 O 0.61907 0.3307 0.38866 0.0
Mg698 Mg 0.25511 0.62116 0.58933 0.0
O699 O 0.22203 0.60406 0.55459 0.0
O700 O 0.19676 0.54924 0.55157 0.0
Mg701 Mg 0.21042 0.5318 0.58663 0.0
C702 C 0.20286 0.57683 0.54335 0.0
C703 C 0.31288 0.69046 0.58626 0.0
O704 O 0.3232 0.67816 0.60333 0.0
O705 O 0.29043 0.60756 0.57265 0.0
O706 O 0.26516 0.55302 0.57543 0.0
O707 O 0.21595 0.62171 0.61084 0.0
O708 O 0.22193 0.5783 0.60567 0.0
C709 C 0.29027 0.58058 0.57045 0.0
C710 C 0.20557 0.59113 0.61484 0.0
O711 O 0.28474 0.67262 0.57576 0.0
Mg712 Mg 0.6104 0.2431 0.77388 0.0
O713 O 0.60642 0.22054 0.73593 0.0
O714 O 0.6286 0.18819 0.73698 0.0
Mg715 Mg 0.64378 0.18816 0.77725 0.0
C716 C 0.61439 0.20127 0.72545 0.0
C717 C 0.62022 0.31199 0.76369 0.0
O718 O 0.64283 0.32028 0.78124 0.0
O719 O 0.66513 0.27493 0.77039 0.0
O720 O 0.68661 0.24214 0.77459 0.0
O721 O 0.56064 0.20337 0.78189 0.0
O722 O 0.60654 0.20157 0.79016 0.0
C723 C 0.68979 0.27043 0.7718 0.0
C724 C 0.5745 0.18737 0.79014 0.0
O725 O 0.60245 0.28214 0.75679 0.0
Mg726 Mg 0.41206 0.63882 0.87136 0.0
O727 O 0.42739 0.62516 0.907 0.0
O728 O 0.39446 0.57163 0.91228 0.0
Mg729 Mg 0.36121 0.5502 0.87764 0.0
C730 C 0.41783 0.59975 0.91962 0.0
C731 C 0.42546 0.70904 0.87943 0.0
O732 O 0.39773 0.69574 0.86624 0.0
O733 O 0.36463 0.63119 0.88778 0.0
O734 O 0.33241 0.57656 0.88789 0.0
O735 O 0.44794 0.63062 0.85031 0.0
O736 O 0.39647 0.59253 0.85659 0.0
C737 C 0.33703 0.60547 0.89136 0.0
C738 C 0.42443 0.60048 0.84725 0.0
O739 O 0.43887 0.69206 0.88453 0.0
Mg740 Mg 0.76238 0.40152 0.05964 0.0
O741 O 0.78389 0.40985 0.09857 0.0
O742 O 0.80248 0.3752 0.10509 0.0
Mg743 Mg 0.79263 0.34433 0.06974 0.0
C744 C 0.79785 0.39846 0.11225 0.0
C745 C 0.70877 0.42077 0.05832 0.0
O746 O 0.69759 0.39703 0.0416 0.0
O747 O 0.71724 0.35463 0.06976 0.0
O748 O 0.73549 0.31892 0.07242 0.0
O749 O 0.81179 0.43711 0.04556 0.0
O750 O 0.79342 0.38433 0.04887 0.0
C751 C 0.71222 0.32582 0.07272 0.0
C752 C 0.81697 0.41267 0.04328 0.0
O753 O 0.73638 0.42985 0.06929 0.0
Mg754 Mg 0.39281 0.79851 0.20788 0.0
O755 O 0.41199 0.82439 0.2453 0.0
O756 O 0.4667 0.844 0.24754 0.0
Mg757 Mg 0.48236 0.83075 0.21153 0.0
C758 C 0.43998 0.83998 0.25673 0.0
C759 C 0.32208 0.74296 0.21395 0.0
O760 O 0.33394 0.73028 0.19835 0.0
O761 O 0.39897 0.75631 0.21981 0.0
O762 O 0.45361 0.77523 0.21916 0.0
O763 O 0.40251 0.84551 0.19118 0.0
O764 O 0.43857 0.828 0.19295 0.0
C765 C 0.42386 0.75219 0.22197 0.0
C766 C 0.43184 0.8503 0.18695 0.0
O767 O 0.34013 0.77251 0.22154 0.0
C768 C 0.22967 0.70092 0.22494 0.0
C769 C 0.22548 0.67231 0.2364 0.0
C770 C 0.28575 0.69637 0.24012 0.0
C771 C 0.28948 0.72162 0.22453 0.0
N772 N 0.26597 0.74955 0.2028 0.0
N773 N 0.24942 0.65249 0.26614 0.0
C774 C 0.2618 0.72483 0.21761 0.0
C775 C 0.25356 0.67293 0.24749 0.0
N776 N 0.20337 0.70593 0.22218 0.0
N777 N 0.31288 0.69425 0.24727 0.0
H778 H 0.22638 0.63761 0.27365 0.0
H779 H 0.26896 0.65332 0.27625 0.0
H780 H 0.33708 0.71222 0.24365 0.0
H781 H 0.31137 0.67401 0.25579 0.0
H782 H 0.20539 0.72758 0.21602 0.0
H783 H 0.18003 0.68992 0.22869 0.0
H784 H 0.24641 0.75086 0.19449 0.0
H785 H 0.2892 0.76796 0.19761 0.0
C786 C 0.60764 0.25722 0.43889 0.0
C787 C 0.63541 0.25227 0.44065 0.0
C788 C 0.66052 0.29081 0.40749 0.0
C789 C 0.62986 0.28939 0.40252 0.0
N790 N 0.57218 0.26677 0.41163 0.0
N791 N 0.68865 0.26429 0.42441 0.0
C792 C 0.60276 0.27118 0.41763 0.0
C793 C 0.66193 0.26891 0.42426 0.0
N794 N 0.58695 0.25068 0.45794 0.0
N795 N 0.68896 0.31462 0.39761 0.0
H796 H 0.69325 0.251 0.43724 0.0
H797 H 0.70578 0.27251 0.41057 0.0
H798 H 0.68969 0.33254 0.38636 0.0
H799 H 0.71243 0.3191 0.40305 0.0
H800 H 0.56795 0.25626 0.45781 0.0
H801 H 0.59156 0.24455 0.47515 0.0
H802 H 0.55099 0.25102 0.42095 0.0
H803 H 0.56744 0.27613 0.39594 0.0
C804 C 0.36864 0.60077 0.53803 0.0
C805 C 0.39041 0.60765 0.55877 0.0
C806 C 0.34317 0.58511 0.58566 0.0
C807 C 0.32232 0.58265 0.56564 0.0
N808 N 0.31178 0.57903 0.52244 0.0
N809 N 0.39525 0.59021 0.5991 0.0
C810 C 0.33402 0.58738 0.5416 0.0
C811 C 0.37668 0.59458 0.5816 0.0
N812 N 0.3811 0.60736 0.51517 0.0
N813 N 0.33145 0.58014 0.60878 0.0
H814 H 0.41915 0.59461 0.59624 0.0
H815 H 0.38556 0.57819 0.61523 0.0
H816 H 0.30667 0.57188 0.61247 0.0
H817 H 0.34668 0.586 0.62439 0.0
H818 H 0.36759 0.60628 0.49953 0.0
H819 H 0.40545 0.61394 0.51158 0.0
H820 H 0.31767 0.58039 0.50416 0.0
H821 H 0.28639 0.56847 0.52502 0.0
C822 C 0.76982 0.34664 0.79122 0.0
C823 C 0.77234 0.36643 0.77119 0.0
C824 C 0.7305 0.31739 0.74814 0.0
C825 C 0.72295 0.2998 0.77 0.0
N826 N 0.73585 0.29632 0.81221 0.0
N827 N 0.76568 0.36767 0.72739 0.0
C828 C 0.74333 0.3137 0.79132 0.0
C829 C 0.75613 0.35083 0.74851 0.0
N830 N 0.79331 0.35895 0.80973 0.0
N831 N 0.71169 0.30238 0.72742 0.0
H832 H 0.78473 0.39185 0.72671 0.0
H833 H 0.75686 0.35711 0.71008 0.0
H834 H 0.69438 0.27735 0.72634 0.0
H835 H 0.71229 0.31451 0.71162 0.0
H836 H 0.7944 0.34484 0.82372 0.0
H837 H 0.81423 0.3822 0.80957 0.0
H838 H 0.74672 0.30663 0.82924 0.0
H839 H 0.71736 0.2718 0.8128 0.0
C840 C 0.48234 0.79938 0.89575 0.0
C841 C 0.45927 0.80692 0.90628 0.0
C842 C 0.4187 0.74801 0.90699 0.0
C843 C 0.43859 0.74213 0.89066 0.0
N844 N 0.48974 0.76205 0.86938 0.0
N845 N 0.40982 0.78769 0.92953 0.0
C846 C 0.47078 0.76762 0.88533 0.0
C847 C 0.42874 0.78089 0.91441 0.0
N848 N 0.51536 0.82201 0.89663 0.0
N849 N 0.39098 0.72203 0.91596 0.0
H850 H 0.41908 0.81028 0.93874 0.0
H851 H 0.3854 0.77106 0.93349 0.0
H852 H 0.3838 0.69771 0.91152 0.0
H853 H 0.37619 0.72402 0.92905 0.0
H854 H 0.5335 0.81681 0.891 0.0
H855 H 0.52486 0.8446 0.90586 0.0
H856 H 0.51181 0.78077 0.86278 0.0
H857 H 0.48222 0.73914 0.86123 0.0
C858 C 0.67575 0.47933 0.06779 0.0
C859 C 0.64284 0.45678 0.07443 0.0
C860 C 0.65719 0.41346 0.07727 0.0
C861 C 0.68764 0.43424 0.06606 0.0
N862 N 0.72652 0.48697 0.05051 0.0
N863 N 0.60957 0.40903 0.09783 0.0
C864 C 0.69743 0.46741 0.06174 0.0
C865 C 0.63564 0.42567 0.0829 0.0
N866 N 0.68686 0.51219 0.06872 0.0
N867 N 0.64861 0.38186 0.08209 0.0
H868 H 0.59565 0.41908 0.10449 0.0
H869 H 0.60432 0.38738 0.10618 0.0
H870 H 0.66478 0.37276 0.0801 0.0
H871 H 0.62497 0.36415 0.08702 0.0
H872 H 0.71146 0.52998 0.0663 0.0
H873 H 0.67248 0.5219 0.07493 0.0
H874 H 0.73299 0.51 0.04408 0.0
H875 H 0.74326 0.4793 0.04598 0.0
C876 C 0.38563 0.76909 0.56449 0.0
C877 C 0.37774 0.79235 0.57434 0.0
C878 C 0.32334 0.74794 0.58571 0.0
C879 C 0.33367 0.72504 0.57982 0.0
N880 N 0.37369 0.71275 0.56274 0.0
N881 N 0.33296 0.803 0.58158 0.0
C882 C 0.36443 0.73528 0.56871 0.0
C883 C 0.34462 0.78157 0.58104 0.0
N884 N 0.41201 0.77921 0.54962 0.0
N885 N 0.29419 0.73796 0.59725 0.0
H886 H 0.34708 0.8273 0.57664 0.0
H887 H 0.30817 0.79585 0.58399 0.0
H888 H 0.27772 0.71356 0.60101 0.0
H889 H 0.28747 0.75414 0.60482 0.0
H890 H 0.41775 0.76332 0.54035 0.0
H891 H 0.42567 0.80329 0.54394 0.0
H892 H 0.3975 0.71903 0.55765 0.0
H893 H 0.3579 0.68755 0.56402 0.0
C894 C 0.63826 0.38694 0.72734 0.0
C895 C 0.60782 0.38694 0.72983 0.0
C896 C 0.58506 0.33622 0.75247 0.0
C897 C 0.61594 0.33738 0.75152 0.0
N898 N 0.66974 0.35908 0.73413 0.0
N899 N 0.54851 0.35268 0.73414 0.0
C900 C 0.64205 0.36149 0.73787 0.0
C901 C 0.57998 0.35878 0.73904 0.0
N902 N 0.66309 0.41064 0.71427 0.0
N903 N 0.56094 0.31455 0.76715 0.0
H904 H 0.54314 0.36734 0.72322 0.0
H905 H 0.52743 0.33085 0.73843 0.0
H906 H 0.56366 0.29775 0.77763 0.0
H907 H 0.53946 0.31534 0.77071 0.0
H908 H 0.68751 0.41568 0.715 0.0
H909 H 0.65902 0.42485 0.70186 0.0
H910 H 0.68889 0.37418 0.72295 0.0
H911 H 0.67295 0.34041 0.74116 0.0
C912 C 0.2793 0.62861 0.92299 0.0
C913 C 0.25078 0.61196 0.90733 0.0
C914 C 0.28285 0.60011 0.87819 0.0
C915 C 0.30821 0.60942 0.89652 0.0
N916 N 0.33158 0.63378 0.93632 0.0
N917 N 0.23478 0.60326 0.86465 0.0
C918 C 0.30701 0.62451 0.91881 0.0
C919 C 0.25521 0.60398 0.88315 0.0
N920 N 0.28119 0.65094 0.94005 0.0
N921 N 0.28501 0.58739 0.85614 0.0
H922 H 0.21713 0.61033 0.86748 0.0
H923 H 0.23818 0.6002 0.84628 0.0
H924 H 0.30597 0.58651 0.85094 0.0
H925 H 0.26534 0.57623 0.84341 0.0
H926 H 0.30237 0.6657 0.95084 0.0
H927 H 0.26333 0.6581 0.94056 0.0
H928 H 0.33004 0.64167 0.95387 0.0
H929 H 0.35236 0.63129 0.93389 0.0
C930 C 0.62794 0.2622 0.04667 0.0
C931 C 0.60861 0.25428 0.06792 0.0
C932 C 0.66019 0.2856 0.09299 0.0
C933 C 0.67752 0.29884 0.07143 0.0
N934 N 0.6783 0.301 0.02749 0.0
N935 N 0.60738 0.25385 0.11215 0.0
C936 C 0.66154 0.28739 0.04821 0.0
C937 C 0.6251 0.26429 0.09141 0.0
N938 N 0.61499 0.24438 0.02532 0.0
N939 N 0.67743 0.29327 0.11485 0.0
H940 H 0.58263 0.23554 0.1122 0.0
H941 H 0.61689 0.26377 0.12951 0.0
H942 H 0.70298 0.30923 0.11639 0.0
H943 H 0.66722 0.28227 0.13116 0.0
H944 H 0.62907 0.24747 0.01002 0.0
H945 H 0.59178 0.22329 0.02379 0.0
H946 H 0.66661 0.29668 0.01033 0.0
H947 H 0.70352 0.31833 0.02757 0.0
C948 C 0.39328 0.66882 0.24902 0.0
C949 C 0.38744 0.64968 0.22711 0.0
C950 C 0.41633 0.69987 0.20392 0.0
C951 C 0.41708 0.71833 0.22488 0.0
N952 N 0.40841 0.72192 0.26762 0.0
N953 N 0.40837 0.64848 0.18729 0.0
C954 C 0.40674 0.70331 0.24763 0.0
C955 C 0.40365 0.66565 0.20562 0.0
N956 N 0.38728 0.6543 0.27112 0.0
N957 N 0.42563 0.71462 0.18195 0.0
H958 H 0.40166 0.62391 0.18842 0.0
H959 H 0.4228 0.65943 0.1723 0.0
H960 H 0.43606 0.73981 0.17998 0.0
H961 H 0.42108 0.70171 0.16538 0.0
H962 H 0.3937 0.66717 0.2878 0.0
H963 H 0.37885 0.62946 0.27303 0.0
H964 H 0.39734 0.71225 0.28405 0.0
H965 H 0.41987 0.74743 0.26741 0.0
C966 C 0.77465 0.40307 0.40566 0.0
C967 C 0.79255 0.39987 0.38595 0.0
C968 C 0.76417 0.41787 0.35742 0.0
C969 C 0.74427 0.41804 0.37652 0.0
N970 N 0.73733 0.42174 0.41946 0.0
N971 N 0.81563 0.42089 0.34673 0.0
C972 C 0.75177 0.41416 0.40092 0.0
C973 C 0.79098 0.41262 0.36295 0.0
N974 N 0.77892 0.395 0.42871 0.0
N975 N 0.75658 0.42102 0.33379 0.0
H976 H 0.83722 0.42027 0.35086 0.0
H977 H 0.81686 0.43268 0.33057 0.0
H978 H 0.73755 0.42556 0.32893 0.0
H979 H 0.76776 0.4169 0.31892 0.0
H980 H 0.76327 0.39211 0.44291 0.0
H981 H 0.79773 0.39029 0.43372 0.0
H982 H 0.74342 0.42216 0.43787 0.0
H983 H 0.72139 0.43089 0.41617 0.0
C984 C 0.18453 0.58306 0.47633 0.0
C985 C 0.16156 0.59469 0.47879 0.0
C986 C 0.15738 0.58053 0.52202 0.0
C987 C 0.18589 0.57758 0.52051 0.0
N988 N 0.22835 0.57762 0.49627 0.0
N989 N 0.13003 0.60865 0.5071 0.0
C990 C 0.19997 0.57923 0.49766 0.0
C991 C 0.14871 0.59431 0.50244 0.0
N992 N 0.19091 0.57443 0.45401 0.0
N993 N 0.1385 0.57012 0.54218 0.0
H994 H 0.12372 0.62091 0.49448 0.0
H995 H 0.12355 0.61144 0.52471 0.0
H996 H 0.14361 0.55841 0.55616 0.0
H997 H 0.1158 0.5693 0.54342 0.0
H998 H 0.20572 0.56382 0.45191 0.0
H999 H 0.178 0.57303 0.43796 0.0
H1000 H 0.24194 0.58267 0.48047 0.0
H1001 H 0.2394 0.57342 0.51144 0.0
C1002 C 0.62442 0.17949 0.64701 0.0
C1003 C 0.58058 0.16585 0.63778 0.0
C1004 C 0.56614 0.18774 0.68763 0.0
C1005 C 0.60554 0.19289 0.69938 0.0
N1006 N 0.66518 0.19729 0.68813 0.0
N1007 N 0.52526 0.17287 0.64605 0.0
C1008 C 0.63497 0.19012 0.67929 0.0
C1009 C 0.55412 0.17722 0.65561 0.0
N1010 N 0.64531 0.17758 0.63125 0.0
N1011 N 0.54511 0.19053 0.70283 0.0
H1012 H 0.51855 0.1648 0.62789 0.0
H1013 H 0.50951 0.17769 0.65632 0.0
H1014 H 0.54998 0.19448 0.72155 0.0
H1015 H 0.52257 0.18746 0.69627 0.0
H1016 H 0.66936 0.18386 0.6367 0.0
H1017 H 0.63745 0.16981 0.61318 0.0
H1018 H 0.68228 0.196 0.67687 0.0
H1019 H 0.67241 0.20491 0.70627 0.0
C1020 C 0.39839 0.51767 0.79323 0.0
C1021 C 0.44197 0.53175 0.78536 0.0
C1022 C 0.4707 0.58364 0.82823 0.0
C1023 C 0.42878 0.57693 0.832 0.0
N1024 N 0.36176 0.53823 0.81862 0.0
N1025 N 0.50809 0.56222 0.80285 0.0
C1026 C 0.39271 0.5434 0.81545 0.0
C1027 C 0.47791 0.55879 0.80613 0.0
N1028 N 0.37291 0.4929 0.78041 0.0
N1029 N 0.49626 0.60618 0.84245 0.0
H1030 H 0.51117 0.54841 0.78915 0.0
H1031 H 0.52854 0.57833 0.81383 0.0
H1032 H 0.4927 0.61926 0.85641 0.0
H1033 H 0.52018 0.61022 0.84039 0.0
H1034 H 0.34837 0.48576 0.78393 0.0
H1035 H 0.37771 0.48022 0.76678 0.0
H1036 H 0.34153 0.51942 0.80894 0.0
H1037 H 0.35682 0.55297 0.83003 0.0
C1038 C 0.88412 0.38872 0.00088 0.0
C1039 C 0.91724 0.43211 0.99824 0.0
C1040 C 0.88528 0.45752 0.03578 0.0
C1041 C 0.84796 0.41689 0.0334 0.0
N1042 N 0.82024 0.35235 0.01555 0.0
N1043 N 0.95066 0.49454 0.02124 0.0
C1044 C 0.84772 0.38238 0.01699 0.0
C1045 C 0.92233 0.46534 0.01986 0.0
N1046 N 0.88532 0.36443 0.98839 0.0
N1047 N 0.88601 0.48149 0.05014 0.0
H1048 H 0.97068 0.49821 0.01082 0.0
H1049 H 0.95313 0.51365 0.0326 0.0
H1050 H 0.86621 0.47726 0.06094 0.0
H1051 H 0.9071 0.50466 0.05153 0.0
H1052 H 0.86618 0.34019 0.98886 0.0
H1053 H 0.90603 0.36982 0.97819 0.0
H1054 H 0.82024 0.33307 0.00595 0.0
H1055 H 0.79798 0.34739 0.02304 0.0
C1056 C 0.50965 0.93085 0.17517 0.0
C1057 C 0.51259 0.92619 0.14978 0.0
C1058 C 0.4567 0.87786 0.1483 0.0
C1059 C 0.45656 0.87933 0.17413 0.0
N1060 N 0.48144 0.90709 0.21249 0.0
N1061 N 0.48246 0.90483 0.11119 0.0
C1062 C 0.48232 0.90616 0.18762 0.0
C1063 C 0.48409 0.90262 0.13596 0.0
N1064 N 0.53215 0.9593 0.18718 0.0
N1065 N 0.43146 0.85172 0.13565 0.0
H1066 H 0.50082 0.92382 0.10152 0.0
H1067 H 0.46122 0.89031 0.10042 0.0
H1068 H 0.41021 0.834 0.14394 0.0
H1069 H 0.43223 0.84652 0.11723 0.0
H1070 H 0.52949 0.96546 0.20499 0.0
H1071 H 0.55191 0.97852 0.17874 0.0
H1072 H 0.50142 0.92319 0.22382 0.0
H1073 H 0.4609 0.89039 0.22189 0.0
C1074 C 0.55381 0.43931 0.33188 0.0
C1075 C 0.56859 0.45799 0.31101 0.0
C1076 C 0.5986 0.42811 0.30477 0.0
C1077 C 0.58931 0.41483 0.32828 0.0
N1078 N 0.55841 0.40836 0.36483 0.0
N1079 N 0.58957 0.45628 0.2715 0.0
C1080 C 0.56645 0.41998 0.34181 0.0
C1081 C 0.58657 0.44838 0.29556 0.0
N1082 N 0.52653 0.43854 0.34137 0.0
N1083 N 0.61912 0.42153 0.29131 0.0
H1084 H 0.57756 0.46759 0.2635 0.0
H1085 H 0.60011 0.448 0.25868 0.0
H1086 H 0.62553 0.40406 0.29609 0.0
H1087 H 0.63076 0.43415 0.27581 0.0
H1088 H 0.51266 0.4228 0.35498 0.0
H1089 H 0.51505 0.45044 0.3336 0.0
H1090 H 0.54436 0.41406 0.37633 0.0
H1091 H 0.56826 0.39564 0.37367 0.0
C1092 C 0.4299 0.89036 0.30792 0.0
C1093 C 0.44794 0.88611 0.32757 0.0
C1094 C 0.45875 0.85039 0.30083 0.0
C1095 C 0.44193 0.8554 0.28109 0.0
N1096 N 0.41836 0.88662 0.26433 0.0
N1097 N 0.49166 0.87422 0.33773 0.0
C1098 C 0.4294 0.87719 0.28419 0.0
C1099 C 0.46603 0.86978 0.32259 0.0
N1100 N 0.41298 0.90675 0.31165 0.0
N1101 N 0.467 0.82639 0.29922 0.0
H1102 H 0.50122 0.89168 0.35198 0.0
H1103 H 0.50684 0.86448 0.33376 0.0
H1104 H 0.46111 0.81075 0.28393 0.0
H1105 H 0.4764 0.81977 0.31409 0.0
H1106 H 0.39524 0.90572 0.29926 0.0
H1107 H 0.41526 0.92037 0.32741 0.0
H1108 H 0.41316 0.90568 0.26494 0.0
H1109 H 0.41701 0.87754 0.24666 0.0
C1110 C 0.61824 0.42939 0.46901 0.0
C1111 C 0.59226 0.43721 0.46794 0.0
C1112 C 0.60172 0.44748 0.42421 0.0
C1113 C 0.6261 0.43798 0.42511 0.0
N1114 N 0.65828 0.42026 0.4485 0.0
N1115 N 0.55112 0.43935 0.44125 0.0
C1116 C 0.63438 0.42897 0.4475 0.0
C1117 C 0.58165 0.44228 0.44464 0.0
N1118 N 0.62759 0.42079 0.49003 0.0
N1119 N 0.59741 0.46146 0.40389 0.0
H1120 H 0.53349 0.43173 0.45465 0.0
H1121 H 0.5414 0.43986 0.42409 0.0
H1122 H 0.61093 0.46522 0.38819 0.0
H1123 H 0.58235 0.47198 0.4035 0.0
H1124 H 0.61667 0.41838 0.50685 0.0
H1125 H 0.61667 0.41838 0.50685 0.0
H1126 H 0.66511 0.41331 0.46457 0.0
H1127 H 0.67152 0.42048 0.43333 0.0
C1128 C 0.15361 0.54759 0.66876 0.0
C1129 C 0.12756 0.55466 0.66524 0.0
C1130 C 0.14668 0.57353 0.62432 0.0
C1131 C 0.17603 0.57238 0.62973 0.0
N1132 N 0.20531 0.55365 0.65613 0.0
N1133 N 0.09012 0.55607 0.63518 0.0
C1134 C 0.17844 0.55724 0.65127 0.0
C1135 C 0.12111 0.56184 0.64149 0.0
N1136 N 0.1557 0.53189 0.68871 0.0
N1137 N 0.14376 0.58698 0.60321 0.0
H1138 H 0.07034 0.54474 0.64689 0.0
H1139 H 0.08299 0.55841 0.61756 0.0
H1140 H 0.1612 0.59437 0.58963 0.0
H1141 H 0.12495 0.5923 0.59968 0.0
H1142 H 0.13781 0.52229 0.70198 0.0
H1143 H 0.13781 0.52229 0.70198 0.0
H1144 H 0.20788 0.54328 0.67211 0.0
H1145 H 0.22513 0.56106 0.64463 0.0
C1146 C 0.50532 0.12114 0.82529 0.0
C1147 C 0.50914 0.09336 0.82073 0.0
C1148 C 0.55366 0.1266 0.79264 0.0
C1149 C 0.55368 0.15511 0.80125 0.0
N1150 N 0.53404 0.17994 0.83048 0.0
N1151 N 0.5382 0.07026 0.79896 0.0
C1152 C 0.53095 0.1525 0.81905 0.0
C1153 C 0.53382 0.0963 0.80418 0.0
N1154 N 0.47662 0.11783 0.83415 0.0
N1155 N 0.57069 0.12785 0.77233 0.0
H1156 H 0.52199 0.04631 0.80381 0.0
H1157 H 0.55897 0.07275 0.79023 0.0
H1158 H 0.5839 0.1492 0.76277 0.0
H1159 H 0.56879 0.10721 0.76348 0.0
H1160 H 0.47238 0.13749 0.83586 0.0
H1161 H 0.45537 0.0953 0.83641 0.0
H1162 H 0.51965 0.17885 0.84517 0.0
H1163 H 0.55331 0.20351 0.82721 0.0
C1164 C 0.46584 0.5754 0.98109 0.0
C1165 C 0.47174 0.60974 0.00184 0.0
C1166 C 0.44922 0.64091 0.96179 0.0
C1167 C 0.43469 0.60316 0.94336 0.0
N1168 N 0.43613 0.54551 0.93704 0.0
N1169 N 0.4823 0.67374 0.00516 0.0
C1170 C 0.44393 0.57134 0.95233 0.0
C1171 C 0.47137 0.6466 0.99072 0.0
N1172 N 0.47434 0.5533 0.98829 0.0
N1173 N 0.44263 0.66435 0.95445 0.0
H1174 H 0.49299 0.67491 0.02232 0.0
H1175 H 0.48061 0.69385 0.9995 0.0
H1176 H 0.42822 0.66121 0.93881 0.0
H1177 H 0.45072 0.68584 0.9649 0.0
H1178 H 0.46992 0.53339 0.97702 0.0
H1179 H 0.4859 0.5562 0.00537 0.0
H1180 H 0.4415 0.52736 0.9419 0.0
H1181 H 0.42527 0.54332 0.91983 0.0
C1182 C 0.82673 0.40688 0.19189 0.0
C1183 C 0.84927 0.45254 0.19366 0.0
C1184 C 0.82511 0.45762 0.14151 0.0
C1185 C 0.81043 0.41376 0.1367 0.0
N1186 N 0.79579 0.35555 0.15838 0.0
N1187 N 0.85332 0.50967 0.17569 0.0
C1188 C 0.80996 0.38836 0.16177 0.0
C1189 C 0.84196 0.47749 0.17119 0.0
N1190 N 0.82654 0.38935 0.21111 0.0
N1191 N 0.82504 0.47599 0.12286 0.0
H1192 H 0.86469 0.52033 0.19258 0.0
H1193 H 0.85073 0.52421 0.16275 0.0
H1194 H 0.818 0.46655 0.1051 0.0
H1195 H 0.83361 0.50091 0.12558 0.0
H1196 H 0.81514 0.36389 0.20987 0.0
H1197 H 0.8379 0.40137 0.22767 0.0
H1198 H 0.79531 0.3409 0.17254 0.0
H1199 H 0.78416 0.34386 0.14185 0.0
loop_
_geom_bond_atom_site_label_1
_geom_bond_atom_site_label_2
_geom_bond_distance
_geom_bond_site_symmetry_2
_ccdc_geom_bond_type
C0 C1 1.560 . S
C0 H61 0.959 . S
C0 H62 0.959 . S
C0 H63 0.960 . S
C1 C0 1.560 . S
C1 O56 1.426 . S
C1 H60 0.980 . S
C2 C3 1.407 . S
C2 C7 1.418 . S
C2 O56 1.334 . S
C3 C2 1.407 . S
C3 C4 1.360 . S
C3 H64 0.929 . S
C4 C3 1.360 . S
C4 C5 1.401 . S
C4 C8 1.527 . S
C5 C4 1.401 . S
C5 C6 1.405 . S
C5 C38 1.587 . S
C6 C5 1.405 . S
C6 C7 1.332 . S
C6 C9 1.496 . S
C7 C2 1.418 . S
C7 C6 1.332 . S
C7 H65 0.929 . S
C8 C4 1.527 . S
C8 H66 0.959 . S
C8 H67 0.961 . S
C8 H68 0.961 . S
C9 C6 1.496 . S
C9 H69 0.960 . S
C9 H70 0.960 . S
C9 H71 0.961 . S
C10 C11 1.517 . S
C10 H73 0.961 . S
C10 H74 0.960 . S
C10 H75 0.959 . S
C11 C10 1.517 . S
C11 O59 1.468 . S
C11 H72 0.980 . S
C12 C13 1.349 . S
C12 C17 1.367 . S
C12 O59 1.408 . S
C13 C12 1.349 . S
C13 C14 1.407 . S
C13 H76 0.930 . S
C14 C13 1.407 . S
C14 C15 1.449 . S
C14 C18 1.535 . S
C15 C14 1.449 . S
C15 C16 1.384 . S
C15 C40 1.553 1_655 S
C16 C15 1.384 . S
C16 C17 1.364 . S
C16 C19 1.450 . S
C17 C12 1.367 . S
C17 C16 1.364 . S
C17 H77 0.931 . S
C18 C14 1.535 . S
C18 H78 0.959 1_655 S
C18 H79 0.961 . S
C18 H80 0.959 . S
C19 C16 1.450 . S
C19 H81 0.960 . S
C19 H82 0.960 1_655 S
C19 H83 0.960 . S
C20 C21 1.309 . S
C20 C25 1.304 . S
C20 O58 1.435 . S
C21 C20 1.309 . S
C21 C22 1.476 . S
C21 H85 0.930 . S
C22 C21 1.476 . S
C22 C23 1.400 . S
C22 C26 1.567 . S
C23 C22 1.400 . S
C23 C24 1.373 . S
C23 C45 1.432 . S
C24 C23 1.373 . S
C24 C25 1.339 . S
C24 C27 1.530 . S
C25 C20 1.304 . S
C25 C24 1.339 . S
C25 H86 0.930 . S
C26 C22 1.567 . S
C26 H87 0.961 . S
C26 H88 0.960 . S
C26 H89 0.958 . S
C27 C24 1.530 . S
C27 H90 0.961 . S
C27 H91 0.960 . S
C27 H92 0.960 . S
C28 C29 1.530 . S
C28 H94 0.961 . S
C28 H95 0.961 . S
C28 H96 0.959 . S
C29 C28 1.530 . S
C29 O57 1.412 . S
C29 H93 0.980 . S
C30 C31 1.288 . S
C30 C35 1.377 . S
C30 O57 1.393 . S
C31 C30 1.288 . S
C31 C32 1.369 . S
C31 H97 0.932 . S
C32 C31 1.369 . S
C32 C33 1.398 . S
C32 C36 1.527 . S
C33 C32 1.398 . S
C33 C34 1.380 . S
C33 C47 1.497 . S
C34 C33 1.380 . S
C34 C35 1.383 . S
C34 C37 1.603 . S
C35 C30 1.377 . S
C35 C34 1.383 . S
C35 H98 0.929 . S
C36 C32 1.527 . S
C36 H99 0.961 . S
C36 H100 0.959 1_455 S
C36 H101 0.959 . S
C37 C34 1.603 . S
C37 H102 0.960 . S
C37 H103 0.962 . S
C37 H104 0.961 . S
C38 C5 1.587 . S
C38 C39 1.360 . S
C38 C51 1.412 . S
C39 C38 1.360 . S
C39 C40 1.365 . S
C39 H105 0.929 . S
C40 C15 1.553 1_455 S
C40 C39 1.365 . S
C40 C41 1.404 1_455 S
C41 C40 1.404 1_655 S
C41 C42 1.395 . S
C41 C52 1.451 1_655 S
C42 C41 1.395 . S
C42 C43 1.322 . S
C42 H106 0.930 . S
C43 C42 1.322 . S
C43 C44 1.459 . S
C43 H107 0.929 . S
C44 C43 1.459 . S
C44 C45 1.445 . S
C44 C53 1.395 1_655 S
C45 C23 1.432 . S
C45 C44 1.445 . S
C45 C46 1.370 . S
C46 C45 1.370 . S
C46 C47 1.438 1_655 S
C46 H108 0.930 . S
C47 C33 1.497 . S
C47 C46 1.438 1_455 S
C47 C48 1.360 . S
C48 C47 1.360 . S
C48 C49 1.401 . S
C48 C53 1.446 . S
C49 C48 1.401 . S
C49 C50 1.347 . S
C49 H109 0.929 . S
C50 C49 1.347 . S
C50 C51 1.455 . S
C50 H110 0.930 . S
C51 C38 1.412 . S
C51 C50 1.455 . S
C51 C52 1.331 . S
C52 C41 1.451 1_455 S
C52 C51 1.331 . S
C52 C53 1.497 . S
C53 C44 1.395 1_455 S
C53 C48 1.446 . S
C53 C52 1.497 . S
C54 C55 1.582 . S
C54 H111 0.962 . S
C54 H112 0.959 . S
C54 H113 0.958 . S
C55 C54 1.582 . S
C55 O58 1.458 . S
C55 H84 0.980 . S
O56 C1 1.426 . S
O56 C2 1.334 . S
O57 C29 1.412 . S
O57 C30 1.393 . S
O58 C20 1.435 . S
O58 C55 1.458 . S
O59 C11 1.468 . S
O59 C12 1.408 . S
H60 C1 0.980 . S
H61 C0 0.959 . S
H62 C0 0.959 . S
H63 C0 0.960 . S
H64 C3 0.929 . S
H65 C7 0.929 . S
H66 C8 0.959 . S
H67 C8 0.961 . S
H68 C8 0.961 . S
H69 C9 0.960 . S
H70 C9 0.960 . S
H71 C9 0.961 . S
H72 C11 0.980 . S
H73 C10 0.961 . S
H74 C10 0.960 . S
H75 C10 0.959 . S
H76 C13 0.930 . S
H77 C17 0.931 . S
H78 C18 0.959 1_455 S
H79 C18 0.961 . S
H80 C18 0.959 . S
H81 C19 0.960 . S
H82 C19 0.960 1_455 S
H83 C19 0.960 . S
H84 C55 0.980 . S
H85 C21 0.930 . S
H86 C25 0.930 . S
H87 C26 0.961 . S
H88 C26 0.960 . S
H89 C26 0.958 . S
H90 C27 0.961 . S
H91 C27 0.960 . S
H92 C27 0.960 . S
H93 C29 0.980 . S
H94 C28 0.961 . S
H95 C28 0.961 . S
H96 C28 0.959 . S
H97 C31 0.932 . S
H98 C35 0.929 . S
H99 C36 0.961 . S
H100 C36 0.959 1_655 S
H101 C36 0.959 . S
H102 C37 0.960 . S
H103 C37 0.962 . S
H104 C37 0.961 . S
H105 C39 0.929 . S
H106 C42 0.930 . S
H107 C43 0.929 . S
H108 C46 0.930 . S
H109 C49 0.929 . S
H110 C50 0.930 . S
H111 C54 0.962 . S
H112 C54 0.959 . S
H113 C54 0.958 . S
C114 C115 1.560 . S
C114 H175 0.959 . S
C114 H176 0.959 . S
C114 H177 0.960 . S
C115 C114 1.560 . S
C115 O170 1.426 . S
C115 H174 0.980 . S
C116 C117 1.407 . S
C116 C121 1.418 . S
C116 O170 1.334 . S
C117 C116 1.407 . S
C117 C118 1.360 . S
C117 H178 0.929 . S
C118 C117 1.360 . S
C118 C119 1.401 . S
C118 C122 1.527 . S
C119 C118 1.401 . S
C119 C120 1.405 . S
C119 C152 1.587 . S
C120 C119 1.405 . S
C120 C121 1.332 . S
C120 C123 1.496 . S
C121 C116 1.418 . S
C121 C120 1.332 . S
C121 H179 0.929 . S
C122 C118 1.527 . S
C122 H180 0.959 . S
C122 H181 0.961 . S
C122 H182 0.961 . S
C123 C120 1.496 . S
C123 H183 0.960 . S
C123 H184 0.960 . S
C123 H185 0.961 . S
C124 C125 1.517 . S
C124 H187 0.961 . S
C124 H188 0.960 . S
C124 H189 0.959 . S
C125 C124 1.517 . S
C125 O173 1.468 . S
C125 H186 0.980 . S
C126 C127 1.349 . S
C126 C131 1.367 . S
C126 O173 1.408 . S
C127 C126 1.349 . S
C127 C128 1.407 . S
C127 H190 0.930 . S
C128 C127 1.407 . S
C128 C129 1.449 . S
C128 C132 1.535 . S
C129 C128 1.449 . S
C129 C130 1.384 . S
C129 C154 1.553 . S
C130 C129 1.384 . S
C130 C131 1.364 . S
C130 C133 1.450 . S
C131 C126 1.367 . S
C131 C130 1.364 . S
C131 H191 0.931 . S
C132 C128 1.535 . S
C132 H192 0.959 . S
C132 H193 0.961 . S
C132 H194 0.959 . S
C133 C130 1.450 . S
C133 H195 0.960 . S
C133 H196 0.960 . S
C133 H197 0.960 . S
C134 C135 1.309 . S
C134 C139 1.304 . S
C134 O172 1.435 . S
C135 C134 1.309 . S
C135 C136 1.476 . S
C135 H199 0.930 . S
C136 C135 1.476 . S
C136 C137 1.400 . S
C136 C140 1.567 . S
C137 C136 1.400 . S
C137 C138 1.373 . S
C137 C159 1.432 . S
C138 C137 1.373 . S
C138 C139 1.339 . S
C138 C141 1.530 . S
C139 C134 1.304 . S
C139 C138 1.339 . S
C139 H200 0.930 . S
C140 C136 1.567 . S
C140 H201 0.961 . S
C140 H202 0.960 . S
C140 H203 0.958 . S
C141 C138 1.530 . S
C141 H204 0.961 . S
C141 H205 0.960 . S
C141 H206 0.960 . S
C142 C143 1.530 . S
C142 H208 0.961 . S
C142 H209 0.961 . S
C142 H210 0.959 . S
C143 C142 1.530 . S
C143 O171 1.412 . S
C143 H207 0.980 . S
C144 C145 1.288 . S
C144 C149 1.377 . S
C144 O171 1.393 . S
C145 C144 1.288 . S
C145 C146 1.369 . S
C145 H211 0.932 . S
C146 C145 1.369 . S
C146 C147 1.398 . S
C146 C150 1.527 1_565 S
C147 C146 1.398 . S
C147 C148 1.380 . S
C147 C161 1.497 1_565 S
C148 C147 1.380 . S
C148 C149 1.383 . S
C148 C151 1.603 . S
C149 C144 1.377 . S
C149 C148 1.383 . S
C149 H212 0.929 . S
C150 C146 1.527 1_545 S
C150 H213 0.961 . S
C150 H214 0.959 . S
C150 H215 0.959 1_545 S
C151 C148 1.603 . S
C151 H216 0.960 . S
C151 H217 0.962 . S
C151 H218 0.961 . S
C152 C119 1.587 . S
C152 C153 1.360 . S
C152 C165 1.412 . S
C153 C152 1.360 . S
C153 C154 1.365 1_565 S
C153 H219 0.929 . S
C154 C129 1.553 . S
C154 C153 1.365 1_545 S
C154 C155 1.404 . S
C155 C154 1.404 . S
C155 C156 1.395 . S
C155 C166 1.451 . S
C156 C155 1.395 . S
C156 C157 1.322 . S
C156 H220 0.930 . S
C157 C156 1.322 . S
C157 C158 1.459 . S
C157 H221 0.929 . S
C158 C157 1.459 . S
C158 C159 1.445 . S
C158 C167 1.395 . S
C159 C137 1.432 . S
C159 C158 1.445 . S
C159 C160 1.370 . S
C160 C159 1.370 . S
C160 C161 1.438 . S
C160 H222 0.930 . S
C161 C147 1.497 1_545 S
C161 C160 1.438 . S
C161 C162 1.366 . S
C162 C161 1.366 . S
C162 C163 1.389 1_545 S
C162 C167 1.452 . S
C163 C162 1.389 1_565 S
C163 C164 1.347 . S
C163 H223 0.929 . S
C164 C163 1.347 . S
C164 C165 1.455 . S
C164 H224 0.930 . S
C165 C152 1.412 . S
C165 C164 1.455 . S
C165 C166 1.331 1_565 S
C166 C155 1.451 . S
C166 C165 1.331 1_545 S
C166 C167 1.497 . S
C167 C158 1.395 . S
C167 C162 1.452 . S
C167 C166 1.497 . S
C168 C169 1.582 . S
C168 H225 0.962 . S
C168 H226 0.959 . S
C168 H227 0.958 . S
C169 C168 1.582 . S
C169 O172 1.458 . S
C169 H198 0.980 . S
O170 C115 1.426 . S
O170 C116 1.334 . S
O171 C143 1.412 . S
O171 C144 1.393 . S
O172 C134 1.435 . S
O172 C169 1.458 . S
O173 C125 1.468 . S
O173 C126 1.408 . S
H174 C115 0.980 . S
H175 C114 0.959 . S
H176 C114 0.959 . S
H177 C114 0.960 . S
H178 C117 0.929 . S
H179 C121 0.929 . S
H180 C122 0.959 . S
H181 C122 0.961 . S
H182 C122 0.961 . S
H183 C123 0.960 . S
H184 C123 0.960 . S
H185 C123 0.961 . S
H186 C125 0.980 . S
H187 C124 0.961 . S
H188 C124 0.960 . S
H189 C124 0.959 . S
H190 C127 0.930 . S
H191 C131 0.931 . S
H192 C132 0.959 . S
H193 C132 0.961 . S
H194 C132 0.959 . S
H195 C133 0.960 . S
H196 C133 0.960 . S
H197 C133 0.960 . S
H198 C169 0.980 . S
H199 C135 0.930 . S
H200 C139 0.930 . S
H201 C140 0.961 . S
H202 C140 0.960 . S
H203 C140 0.958 . S
H204 C141 0.961 . S
H205 C141 0.960 . S
H206 C141 0.960 . S
H207 C143 0.980 . S
H208 C142 0.961 . S
H209 C142 0.961 . S
H210 C142 0.959 . S
H211 C145 0.932 . S
H212 C149 0.929 . S
H213 C150 0.961 . S
H214 C150 0.959 . S
H215 C150 0.959 1_565 S
H216 C151 0.960 . S
H217 C151 0.962 . S
H218 C151 0.961 . S
H219 C153 0.929 . S
H220 C156 0.930 . S
H221 C157 0.929 . S
H222 C160 0.930 . S
H223 C163 0.929 . S
H224 C164 0.930 . S
H225 C168 0.962 . S
H226 C168 0.959 . S
H227 C168 0.958 . S
C228 C229 1.560 . S
C228 H289 0.959 . S
C228 H290 0.959 . S
C228 H291 0.960 . S
C229 C228 1.560 . S
C229 O284 1.426 . S
C229 H288 0.980 . S
C230 C231 1.407 . S
C230 C235 1.418 . S
C230 O284 1.334 . S
C231 C230 1.407 . S
C231 C232 1.360 . S
C231 H292 0.929 . S
C232 C231 1.360 . S
C232 C233 1.401 . S
C232 C236 1.527 . S
C233 C232 1.401 . S
C233 C234 1.405 . S
C233 C266 1.587 . S
C234 C233 1.405 . S
C234 C235 1.332 . S
C234 C237 1.496 . S
C235 C230 1.418 . S
C235 C234 1.332 . S
C235 H293 0.929 . S
C236 C232 1.527 . S
C236 H294 0.959 . S
C236 H295 0.961 . S
C236 H296 0.961 . S
C237 C234 1.496 . S
C237 H297 0.960 . S
C237 H298 0.960 . S
C237 H299 0.961 . S
C238 C239 1.517 . S
C238 H301 0.961 . S
C238 H302 0.960 . S
C238 H303 0.959 . S
C239 C238 1.517 . S
C239 O287 1.468 . S
C239 H300 0.980 . S
C240 C241 1.349 . S
C240 C245 1.367 . S
C240 O287 1.408 . S
C241 C240 1.349 . S
C241 C242 1.407 . S
C241 H304 0.930 . S
C242 C241 1.407 . S
C242 C243 1.449 . S
C242 C246 1.535 . S
C243 C242 1.449 . S
C243 C244 1.384 . S
C243 C268 1.553 . S
C244 C243 1.384 . S
C244 C245 1.364 . S
C244 C247 1.450 . S
C245 C240 1.367 . S
C245 C244 1.364 . S
C245 H305 0.931 . S
C246 C242 1.535 . S
C246 H306 0.959 . S
C246 H307 0.961 . S
C246 H308 0.959 . S
C247 C244 1.450 . S
C247 H309 0.960 . S
C247 H310 0.960 . S
C247 H311 0.960 . S
C248 C249 1.309 . S
C248 C253 1.304 . S
C248 O286 1.435 . S
C249 C248 1.309 . S
C249 C250 1.476 . S
C249 H313 0.930 . S
C250 C249 1.476 . S
C250 C251 1.400 . S
C250 C254 1.567 . S
C251 C250 1.400 . S
C251 C252 1.373 . S
C251 C273 1.432 . S
C252 C251 1.373 . S
C252 C253 1.339 . S
C252 C255 1.530 . S
C253 C248 1.304 . S
C253 C252 1.339 . S
C253 H314 0.930 . S
C254 C250 1.567 . S
C254 H315 0.961 . S
C254 H316 0.960 . S
C254 H317 0.958 . S
C255 C252 1.530 . S
C255 H318 0.961 . S
C255 H319 0.960 . S
C255 H320 0.960 . S
C256 C257 1.530 . S
C256 H322 0.961 . S
C256 H323 0.961 . S
C256 H324 0.959 . S
C257 C256 1.530 . S
C257 O285 1.412 . S
C257 H321 0.980 . S
C258 C259 1.288 . S
C258 C263 1.377 . S
C258 O285 1.393 . S
C259 C258 1.288 . S
C259 C260 1.369 . S
C259 H325 0.932 . S
C260 C259 1.369 . S
C260 C261 1.398 . S
C260 C264 1.527 . S
C261 C260 1.398 . S
C261 C262 1.380 . S
C261 C275 1.497 . S
C262 C261 1.380 . S
C262 C263 1.383 . S
C262 C265 1.603 . S
C263 C258 1.377 . S
C263 C262 1.383 . S
C263 H326 0.929 . S
C264 C260 1.527 . S
C264 H327 0.961 . S
C264 H328 0.959 . S
C264 H329 0.959 . S
C265 C262 1.603 . S
C265 H330 0.960 . S
C265 H331 0.962 . S
C265 H332 0.961 . S
C266 C233 1.587 . S
C266 C267 1.360 . S
C266 C279 1.412 . S
C267 C266 1.360 . S
C267 C268 1.365 . S
C267 H333 0.929 . S
C268 C243 1.553 . S
C268 C267 1.365 . S
C268 C269 1.404 . S
C269 C268 1.404 . S
C269 C270 1.395 . S
C269 C280 1.451 . S
C270 C269 1.395 . S
C270 C271 1.322 . S
C270 H334 0.930 . S
C271 C270 1.322 . S
C271 C272 1.459 . S
C271 H335 0.929 . S
C272 C271 1.459 . S
C272 C273 1.445 . S
C272 C281 1.395 . S
C273 C251 1.432 . S
C273 C272 1.445 . S
C273 C274 1.370 . S
C274 C273 1.370 . S
C274 C275 1.438 . S
C274 H336 0.930 . S
C275 C261 1.497 . S
C275 C274 1.438 . S
C275 C276 1.360 . S
C276 C275 1.360 . S
C276 C277 1.401 . S
C276 C281 1.446 . S
C277 C276 1.401 . S
C277 C278 1.347 . S
C277 H337 0.929 . S
C278 C277 1.347 . S
C278 C279 1.455 . S
C278 H338 0.930 . S
C279 C266 1.412 . S
C279 C278 1.455 . S
C279 C280 1.331 . S
C280 C269 1.451 . S
C280 C279 1.331 . S
C280 C281 1.497 . S
C281 C272 1.395 . S
C281 C276 1.446 . S
C281 C280 1.497 . S
C282 C283 1.582 . S
C282 H339 0.962 . S
C282 H340 0.959 . S
C282 H341 0.958 . S
C283 C282 1.582 . S
C283 O286 1.458 . S
C283 H312 0.980 . S
O284 C229 1.426 . S
O284 C230 1.334 . S
O285 C257 1.412 . S
O285 C258 1.393 . S
O286 C248 1.435 . S
O286 C283 1.458 . S
O287 C239 1.468 . S
O287 C240 1.408 . S
H288 C229 0.980 . S
H289 C228 0.959 . S
H290 C228 0.959 . S
H291 C228 0.960 . S
H292 C231 0.929 . S
H293 C235 0.929 . S
H294 C236 0.959 . S
H295 C236 0.961 . S
H296 C236 0.961 . S
H297 C237 0.960 . S
H298 C237 0.960 . S
H299 C237 0.961 . S
H300 C239 0.980 . S
H301 C238 0.961 . S
H302 C238 0.960 . S
H303 C238 0.959 . S
H304 C241 0.930 . S
H305 C245 0.931 . S
H306 C246 0.959 . S
H307 C246 0.961 . S
H308 C246 0.959 . S
H309 C247 0.960 . S
H310 C247 0.960 . S
H311 C247 0.960 . S
H312 C283 0.980 . S
H313 C249 0.930 . S
H314 C253 0.930 . S
H315 C254 0.961 . S
H316 C254 0.960 . S
H317 C254 0.958 . S
H318 C255 0.961 . S
H319 C255 0.960 . S
H320 C255 0.960 . S
H321 C257 0.980 . S
H322 C256 0.961 . S
H323 C256 0.961 . S
H324 C256 0.959 . S
H325 C259 0.932 . S
H326 C263 0.929 . S
H327 C264 0.961 . S
H328 C264 0.959 . S
H329 C264 0.959 . S
H330 C265 0.960 . S
H331 C265 0.962 . S
H332 C265 0.961 . S
H333 C267 0.929 . S
H334 C270 0.930 . S
H335 C271 0.929 . S
H336 C274 0.930 . S
H337 C277 0.929 . S
H338 C278 0.930 . S
H339 C282 0.962 . S
H340 C282 0.959 . S
H341 C282 0.958 . S
C342 C343 1.560 . S
C342 H403 0.959 . S
C342 H404 0.959 . S
C342 H405 0.960 . S
C343 C342 1.560 . S
C343 O398 1.426 . S
C343 H402 0.980 . S
C344 C345 1.407 . S
C344 C349 1.418 . S
C344 O398 1.334 . S
C345 C344 1.407 . S
C345 C346 1.360 . S
C345 H406 0.929 . S
C346 C345 1.360 . S
C346 C347 1.401 . S
C346 C350 1.527 . S
C347 C346 1.401 . S
C347 C348 1.405 . S
C347 C380 1.587 . S
C348 C347 1.405 . S
C348 C349 1.332 . S
C348 C351 1.496 . S
C349 C344 1.418 . S
C349 C348 1.332 . S
C349 H407 0.929 . S
C350 C346 1.527 . S
C350 H408 0.959 . S
C350 H409 0.961 . S
C350 H410 0.961 . S
C351 C348 1.496 . S
C351 H411 0.960 . S
C351 H412 0.960 . S
C351 H413 0.961 . S
C352 C353 1.517 . S
C352 H415 0.961 1_556 S
C352 H416 0.949 1_556 S
C352 H417 0.959 . S
C353 C352 1.517 . S
C353 O401 1.468 . S
C353 H414 0.980 . S
C354 C355 1.349 . S
C354 C359 1.367 . S
C354 O401 1.408 . S
C355 C354 1.349 . S
C355 C356 1.407 . S
C355 H418 0.930 . S
C356 C355 1.407 . S
C356 C357 1.449 . S
C356 C360 1.535 . S
C357 C356 1.449 . S
C357 C358 1.384 . S
C357 C382 1.553 1_655 S
C358 C357 1.384 . S
C358 C359 1.364 . S
C358 C361 1.450 . S
C359 C354 1.367 . S
C359 C358 1.364 . S
C359 H419 0.931 . S
C360 C356 1.535 . S
C360 H420 0.959 1_655 S
C360 H421 0.961 1_655 S
C360 H422 0.959 . S
C361 C358 1.450 . S
C361 H423 0.960 . S
C361 H424 0.960 1_655 S
C361 H425 0.960 . S
C362 C363 1.309 . S
C362 C367 1.304 . S
C362 O400 1.435 . S
C363 C362 1.309 . S
C363 C364 1.476 . S
C363 H427 0.930 . S
C364 C363 1.476 . S
C364 C365 1.400 . S
C364 C368 1.567 . S
C365 C364 1.400 . S
C365 C366 1.373 . S
C365 C387 1.432 . S
C366 C365 1.373 . S
C366 C367 1.339 . S
C366 C369 1.530 . S
C367 C362 1.304 . S
C367 C366 1.339 . S
C367 H428 0.930 . S
C368 C364 1.567 . S
C368 H429 0.961 . S
C368 H430 0.960 . S
C368 H431 0.958 . S
C369 C366 1.530 . S
C369 H432 0.961 . S
C369 H433 0.960 . S
C369 H434 0.960 . S
C370 C371 1.530 . S
C370 H436 0.961 . S
C370 H437 0.961 . S
C370 H438 0.959 . S
C371 C370 1.530 . S
C371 O399 1.412 . S
C371 H435 0.980 . S
C372 C373 1.288 . S
C372 C377 1.377 . S
C372 O399 1.393 . S
C373 C372 1.288 . S
C373 C374 1.369 . S
C373 H439 0.932 . S
C374 C373 1.369 . S
C374 C375 1.398 . S
C374 C378 1.527 . S
C375 C374 1.398 . S
C375 C376 1.380 . S
C375 C389 1.497 . S
C376 C375 1.380 . S
C376 C377 1.383 . S
C376 C379 1.603 . S
C377 C372 1.377 . S
C377 C376 1.383 . S
C377 H440 0.929 . S
C378 C374 1.527 . S
C378 H441 0.961 . S
C378 H442 0.959 1_455 S
C378 H443 0.959 . S
C379 C376 1.603 . S
C379 H444 0.960 . S
C379 H445 0.962 . S
C379 H446 0.961 . S
C380 C347 1.587 . S
C380 C381 1.360 . S
C380 C393 1.412 . S
C381 C380 1.360 . S
C381 C382 1.365 . S
C381 H447 0.929 . S
C382 C357 1.553 1_455 S
C382 C381 1.365 . S
C382 C383 1.414 . S
C383 C382 1.414 . S
C383 C384 1.372 1_455 S
C383 C394 1.468 . S
C384 C383 1.372 1_655 S
C384 C385 1.322 . S
C384 H448 0.930 . S
C385 C384 1.322 . S
C385 C386 1.459 . S
C385 H449 0.929 . S
C386 C385 1.459 . S
C386 C387 1.445 . S
C386 C395 1.395 1_655 S
C387 C365 1.432 . S
C387 C386 1.445 . S
C387 C388 1.370 . S
C388 C387 1.370 . S
C388 C389 1.438 1_655 S
C388 H450 0.930 . S
C389 C375 1.497 . S
C389 C388 1.438 1_455 S
C389 C390 1.360 . S
C390 C389 1.360 . S
C390 C391 1.401 . S
C390 C395 1.446 . S
C391 C390 1.401 . S
C391 C392 1.347 . S
C391 H451 0.929 . S
C392 C391 1.347 . S
C392 C393 1.455 . S
C392 H452 0.930 . S
C393 C380 1.412 . S
C393 C392 1.455 . S
C393 C394 1.331 . S
C394 C383 1.468 . S
C394 C393 1.331 . S
C394 C395 1.497 . S
C395 C386 1.395 1_455 S
C395 C390 1.446 . S
C395 C394 1.497 . S
C396 C397 1.582 . S
C396 H453 0.962 . S
C396 H454 0.959 . S
C396 H455 0.958 . S
C397 C396 1.582 . S
C397 O400 1.458 . S
C397 H426 0.980 . S
O398 C343 1.426 . S
O398 C344 1.334 . S
O399 C371 1.412 . S
O399 C372 1.393 . S
O400 C362 1.435 . S
O400 C397 1.458 . S
O401 C353 1.468 . S
O401 C354 1.408 . S
H402 C343 0.980 . S
H403 C342 0.959 . S
H404 C342 0.959 . S
H405 C342 0.960 . S
H406 C345 0.929 . S
H407 C349 0.929 . S
H408 C350 0.959 . S
H409 C350 0.961 . S
H410 C350 0.961 . S
H411 C351 0.960 . S
H412 C351 0.960 . S
H413 C351 0.961 . S
H414 C353 0.980 . S
H415 C352 0.961 1_554 S
H416 C352 0.949 1_554 S
H417 C352 0.959 . S
H418 C355 0.930 . S
H419 C359 0.931 . S
H420 C360 0.959 1_455 S
H421 C360 0.961 1_455 S
H422 C360 0.959 . S
H423 C361 0.960 . S
H424 C361 0.960 1_455 S
H425 C361 0.960 . S
H426 C397 0.980 . S
H427 C363 0.930 . S
H428 C367 0.930 . S
H429 C368 0.961 . S
H430 C368 0.960 . S
H431 C368 0.958 . S
H432 C369 0.961 . S
H433 C369 0.960 . S
H434 C369 0.960 . S
H435 C371 0.980 . S
H436 C370 0.961 . S
H437 C370 0.961 . S
H438 C370 0.959 . S
H439 C373 0.932 . S
H440 C377 0.929 . S
H441 C378 0.961 . S
H442 C378 0.959 1_655 S
H443 C378 0.959 . S
H444 C379 0.960 . S
H445 C379 0.962 . S
H446 C379 0.961 . S
H447 C381 0.929 . S
H448 C384 0.930 . S
H449 C385 0.929 . S
H450 C388 0.930 . S
H451 C391 0.929 . S
H452 C392 0.930 . S
H453 C396 0.962 . S
H454 C396 0.959 . S
H455 C396 0.958 . S
C456 C457 1.560 . S
C456 H517 0.959 . S
C456 H518 0.959 . S
C456 H519 0.960 . S
C457 C456 1.560 . S
C457 O512 1.426 . S
C457 H516 0.980 . S
C458 C459 1.407 . S
C458 C463 1.418 . S
C458 O512 1.334 . S
C459 C458 1.407 . S
C459 C460 1.360 . S
C459 H520 0.929 . S
C460 C459 1.360 . S
C460 C461 1.401 . S
C460 C464 1.527 . S
C461 C460 1.401 . S
C461 C462 1.405 . S
C461 C494 1.587 . S
C462 C461 1.405 . S
C462 C463 1.332 . S
C462 C465 1.496 . S
C463 C458 1.418 . S
C463 C462 1.332 . S
C463 H521 0.929 . S
C464 C460 1.527 . S
C464 H522 0.959 . S
C464 H523 0.961 . S
C464 H524 0.961 . S
C465 C462 1.496 . S
C465 H525 0.960 . S
C465 H526 0.960 . S
C465 H527 0.961 . S
C466 C467 1.517 . S
C466 H529 0.961 . S
C466 H530 0.960 . S
C466 H531 0.959 . S
C467 C466 1.517 . S
C467 O515 1.468 . S
C467 H528 0.980 . S
C468 C469 1.349 . S
C468 C473 1.367 . S
C468 O515 1.408 . S
C469 C468 1.349 . S
C469 C470 1.407 . S
C469 H532 0.930 . S
C470 C469 1.407 . S
C470 C471 1.449 . S
C470 C474 1.535 . S
C471 C470 1.449 . S
C471 C472 1.384 . S
C471 C496 1.553 . S
C472 C471 1.384 . S
C472 C473 1.364 . S
C472 C475 1.450 . S
C473 C468 1.367 . S
C473 C472 1.364 . S
C473 H533 0.931 . S
C474 C470 1.535 . S
C474 H534 0.959 . S
C474 H535 0.961 . S
C474 H536 0.959 . S
C475 C472 1.450 . S
C475 H537 0.960 . S
C475 H538 0.960 . S
C475 H539 0.960 . S
C476 C477 1.309 . S
C476 C481 1.304 . S
C476 O514 1.435 . S
C477 C476 1.309 . S
C477 C478 1.476 . S
C477 H541 0.930 . S
C478 C477 1.476 . S
C478 C479 1.400 . S
C478 C482 1.567 . S
C479 C478 1.400 . S
C479 C480 1.373 . S
C479 C501 1.432 . S
C480 C479 1.373 . S
C480 C481 1.339 . S
C480 C483 1.530 . S
C481 C476 1.304 . S
C481 C480 1.339 . S
C481 H542 0.930 . S
C482 C478 1.567 . S
C482 H543 0.961 . S
C482 H544 0.960 . S
C482 H545 0.958 . S
C483 C480 1.530 . S
C483 H546 0.961 . S
C483 H547 0.960 . S
C483 H548 0.960 . S
C484 C485 1.530 . S
C484 H550 0.961 . S
C484 H551 0.961 . S
C484 H552 0.959 . S
C485 C484 1.530 . S
C485 O513 1.412 . S
C485 H549 0.980 . S
C486 C487 1.288 . S
C486 C491 1.377 . S
C486 O513 1.393 . S
C487 C486 1.288 . S
C487 C488 1.369 . S
C487 H553 0.932 . S
C488 C487 1.369 . S
C488 C489 1.401 1_565 S
C488 C492 1.527 1_565 S
C489 C488 1.401 1_545 S
C489 C490 1.380 1_545 S
C489 C503 1.495 . S
C490 C489 1.380 1_565 S
C490 C491 1.383 . S
C490 C493 1.603 . S
C491 C486 1.377 . S
C491 C490 1.383 . S
C491 H554 0.929 . S
C492 C488 1.527 1_545 S
C492 H555 0.961 . S
C492 H556 0.959 . S
C492 H557 0.959 . S
C493 C490 1.603 . S
C493 H558 0.960 . S
C493 H559 0.962 1_565 S
C493 H560 0.961 . S
C494 C461 1.587 . S
C494 C495 1.360 . S
C494 C507 1.412 . S
C495 C494 1.360 . S
C495 C496 1.365 1_565 S
C495 H561 0.929 . S
C496 C471 1.553 . S
C496 C495 1.365 1_545 S
C496 C497 1.404 . S
C497 C496 1.404 . S
C497 C498 1.395 . S
C497 C508 1.451 . S
C498 C497 1.395 . S
C498 C499 1.322 . S
C498 H562 0.930 . S
C499 C498 1.322 . S
C499 C500 1.459 1_556 S
C499 H563 0.929 . S
C500 C499 1.459 1_554 S
C500 C501 1.445 . S
C500 C509 1.395 1_554 S
C501 C479 1.432 . S
C501 C500 1.445 . S
C501 C502 1.370 . S
C502 C501 1.370 . S
C502 C503 1.438 . S
C502 H564 0.930 . S
C503 C489 1.495 . S
C503 C502 1.438 . S
C503 C504 1.360 . S
C504 C503 1.360 . S
C504 C505 1.401 1_545 S
C504 C509 1.446 1_554 S
C505 C504 1.401 1_565 S
C505 C506 1.347 1_554 S
C505 H565 0.929 . S
C506 C505 1.347 1_556 S
C506 C507 1.455 . S
C506 H566 0.930 . S
C507 C494 1.412 . S
C507 C506 1.455 . S
C507 C508 1.331 1_565 S
C508 C497 1.451 . S
C508 C507 1.331 1_545 S
C508 C509 1.497 . S
C509 C500 1.395 1_556 S
C509 C504 1.446 1_556 S
C509 C508 1.497 . S
C510 C511 1.582 . S
C510 H567 0.962 . S
C510 H568 0.959 . S
C510 H569 0.958 . S
C511 C510 1.582 . S
C511 O514 1.458 . S
C511 H540 0.980 . S
O512 C457 1.426 . S
O512 C458 1.334 . S
O513 C485 1.412 . S
O513 C486 1.393 . S
O514 C476 1.435 . S
O514 C511 1.458 . S
O515 C467 1.468 . S
O515 C468 1.408 . S
H516 C457 0.980 . S
H517 C456 0.959 . S
H518 C456 0.959 . S
H519 C456 0.960 . S
H520 C459 0.929 . S
H521 C463 0.929 . S
H522 C464 0.959 . S
H523 C464 0.961 . S
H524 C464 0.961 . S
H525 C465 0.960 . S
H526 C465 0.960 . S
H527 C465 0.961 . S
H528 C467 0.980 . S
H529 C466 0.961 . S
H530 C466 0.960 . S
H531 C466 0.959 . S
H532 C469 0.930 . S
H533 C473 0.931 . S
H534 C474 0.959 . S
H535 C474 0.961 . S
H536 C474 0.959 . S
H537 C475 0.960 . S
H538 C475 0.960 . S
H539 C475 0.960 . S
H540 C511 0.980 . S
H541 C477 0.930 . S
H542 C481 0.930 . S
H543 C482 0.961 . S
H544 C482 0.960 . S
H545 C482 0.958 . S
H546 C483 0.961 . S
H547 C483 0.960 . S
H548 C483 0.960 . S
H549 C485 0.980 . S
H550 C484 0.961 . S
H551 C484 0.961 . S
H552 C484 0.959 . S
H553 C487 0.932 . S
H554 C491 0.929 . S
H555 C492 0.961 . S
H556 C492 0.959 . S
H557 C492 0.959 . S
H558 C493 0.960 . S
H559 C493 0.962 1_545 S
H560 C493 0.961 . S
H561 C495 0.929 . S
H562 C498 0.930 . S
H563 C499 0.929 . S
H564 C502 0.930 . S
H565 C505 0.929 . S
H566 C506 0.930 . S
H567 C510 0.962 . S
H568 C510 0.959 . S
H569 C510 0.958 . S
C570 C571 1.560 . S
C570 H631 0.959 . S
C570 H632 0.959 . S
C570 H633 0.960 . S
C571 C570 1.560 . S
C571 O626 1.426 . S
C571 H630 0.980 . S
C572 C573 1.407 . S
C572 C577 1.418 . S
C572 O626 1.334 . S
C573 C572 1.407 . S
C573 C574 1.360 . S
C573 H634 0.929 . S
C574 C573 1.360 . S
C574 C575 1.401 . S
C574 C578 1.527 . S
C575 C574 1.401 . S
C575 C576 1.405 . S
C575 C608 1.587 . S
C576 C575 1.405 . S
C576 C577 1.332 . S
C576 C579 1.496 . S
C577 C572 1.418 . S
C577 C576 1.332 . S
C577 H635 0.929 . S
C578 C574 1.527 . S
C578 H636 0.959 . S
C578 H637 0.961 . S
C578 H638 0.961 . S
C579 C576 1.496 . S
C579 H639 0.960 . S
C579 H640 0.960 . S
C579 H641 0.961 . S
C580 C581 1.517 1_556 S
C580 H643 0.961 . S
C580 H644 0.960 . S
C580 H645 0.959 . S
C581 C580 1.517 1_554 S
C581 O629 1.468 . S
C581 H642 0.980 1_554 S
C582 C583 1.349 . S
C582 C587 1.367 . S
C582 O629 1.408 . S
C583 C582 1.349 . S
C583 C584 1.407 . S
C583 H646 0.930 . S
C584 C583 1.407 . S
C584 C585 1.449 . S
C584 C588 1.535 . S
C585 C584 1.449 . S
C585 C586 1.384 . S
C585 C610 1.553 . S
C586 C585 1.384 . S
C586 C587 1.364 . S
C586 C589 1.450 . S
C587 C582 1.367 . S
C587 C586 1.364 . S
C587 H647 0.931 . S
C588 C584 1.535 . S
C588 H648 0.959 . S
C588 H649 0.961 . S
C588 H650 0.959 . S
C589 C586 1.450 . S
C589 H651 0.960 . S
C589 H652 0.960 . S
C589 H653 0.960 . S
C590 C591 1.309 . S
C590 C595 1.304 . S
C590 O628 1.435 . S
C591 C590 1.309 . S
C591 C592 1.476 . S
C591 H655 0.930 . S
C592 C591 1.476 . S
C592 C593 1.400 . S
C592 C596 1.567 . S
C593 C592 1.400 . S
C593 C594 1.373 . S
C593 C615 1.432 . S
C594 C593 1.373 . S
C594 C595 1.339 . S
C594 C597 1.530 . S
C595 C590 1.304 . S
C595 C594 1.339 . S
C595 H656 0.930 . S
C596 C592 1.567 . S
C596 H657 0.961 . S
C596 H658 0.960 . S
C596 H659 0.958 . S
C597 C594 1.530 . S
C597 H660 0.961 . S
C597 H661 0.960 . S
C597 H662 0.960 . S
C598 C599 1.530 . S
C598 H664 0.961 . S
C598 H665 0.961 . S
C598 H666 0.959 . S
C599 C598 1.530 . S
C599 O627 1.412 . S
C599 H663 0.980 . S
C600 C601 1.288 . S
C600 C605 1.377 . S
C600 O627 1.393 . S
C601 C600 1.288 . S
C601 C602 1.369 . S
C601 H667 0.932 . S
C602 C601 1.369 . S
C602 C603 1.398 . S
C602 C606 1.527 . S
C603 C602 1.398 . S
C603 C604 1.380 . S
C603 C617 1.497 . S
C604 C603 1.380 . S
C604 C605 1.383 . S
C604 C607 1.603 . S
C605 C600 1.377 . S
C605 C604 1.383 . S
C605 H668 0.929 . S
C606 C602 1.527 . S
C606 H669 0.961 . S
C606 H670 0.959 . S
C606 H671 0.959 . S
C607 C604 1.603 . S
C607 H672 0.960 . S
C607 H673 0.962 . S
C607 H674 0.961 . S
C608 C575 1.587 . S
C608 C609 1.360 . S
C608 C621 1.412 . S
C609 C608 1.360 . S
C609 C610 1.365 . S
C609 H675 0.929 . S
C610 C585 1.553 . S
C610 C609 1.365 . S
C610 C611 1.404 . S
C611 C610 1.404 . S
C611 C612 1.395 . S
C611 C622 1.451 . S
C612 C611 1.395 . S
C612 C613 1.322 . S
C612 H676 0.930 . S
C613 C612 1.322 . S
C613 C614 1.459 . S
C613 H677 0.929 . S
C614 C613 1.459 . S
C614 C615 1.445 . S
C614 C623 1.395 . S
C615 C593 1.432 . S
C615 C614 1.445 . S
C615 C616 1.370 . S
C616 C615 1.370 . S
C616 C617 1.438 . S
C616 H678 0.930 . S
C617 C603 1.497 . S
C617 C616 1.438 . S
C617 C618 1.360 . S
C618 C617 1.360 . S
C618 C619 1.401 . S
C618 C623 1.446 . S
C619 C618 1.401 . S
C619 C620 1.347 . S
C619 H679 0.929 . S
C620 C619 1.347 . S
C620 C621 1.455 . S
C620 H680 0.930 . S
C621 C608 1.412 . S
C621 C620 1.455 . S
C621 C622 1.331 . S
C622 C611 1.451 . S
C622 C621 1.331 . S
C622 C623 1.497 . S
C623 C614 1.395 . S
C623 C618 1.446 . S
C623 C622 1.497 . S
C624 C625 1.582 . S
C624 H681 0.962 . S
C624 H682 0.959 . S
C624 H683 0.958 . S
C625 C624 1.582 . S
C625 O628 1.458 . S
C625 H654 0.980 . S
O626 C571 1.426 . S
O626 C572 1.334 . S
O627 C599 1.412 . S
O627 C600 1.393 . S
O628 C590 1.435 . S
O628 C625 1.458 . S
O629 C581 1.468 . S
O629 C582 1.408 . S
H630 C571 0.980 . S
H631 C570 0.959 . S
H632 C570 0.959 . S
H633 C570 0.960 . S
H634 C573 0.929 . S
H635 C577 0.929 . S
H636 C578 0.959 . S
H637 C578 0.961 . S
H638 C578 0.961 . S
H639 C579 0.960 . S
H640 C579 0.960 . S
H641 C579 0.961 . S
H642 C581 0.980 1_556 S
H643 C580 0.961 . S
H644 C580 0.960 . S
H645 C580 0.959 . S
H646 C583 0.930 . S
H647 C587 0.931 . S
H648 C588 0.959 . S
H649 C588 0.961 . S
H650 C588 0.959 . S
H651 C589 0.960 . S
H652 C589 0.960 . S
H653 C589 0.960 . S
H654 C625 0.980 . S
H655 C591 0.930 . S
H656 C595 0.930 . S
H657 C596 0.961 . S
H658 C596 0.960 . S
H659 C596 0.958 . S
H660 C597 0.961 . S
H661 C597 0.960 . S
H662 C597 0.960 . S
H663 C599 0.980 . S
H664 C598 0.961 . S
H665 C598 0.961 . S
H666 C598 0.959 . S
H667 C601 0.932 . S
H668 C605 0.929 . S
H669 C606 0.961 . S
H670 C606 0.959 . S
H671 C606 0.959 . S
H672 C607 0.960 . S
H673 C607 0.962 . S
H674 C607 0.961 . S
H675 C609 0.929 . S
H676 C612 0.930 . S
H677 C613 0.929 . S
H678 C616 0.930 . S
H679 C619 0.929 . S
H680 C620 0.930 . S
H681 C624 0.962 . S
H682 C624 0.959 . S
H683 C624 0.958 . S
Mg684 O685 2.028 . S
Mg684 O691 1.986 . S
Mg684 O693 2.114 . S
Mg684 O694 2.251 . S
Mg684 O697 2.010 . S
O685 Mg684 2.028 . S
O685 C688 1.250 . S
O686 Mg687 2.028 . S
O686 C688 1.248 . S
Mg687 O686 2.028 . S
Mg687 O692 2.032 . S
Mg687 O694 2.079 . S
C688 O685 1.250 . S
C688 O686 1.248 . S
C689 O690 1.264 . S
C689 O697 1.249 . S
O690 C689 1.264 . S
O691 Mg684 1.986 . S
O691 C695 1.246 . S
O692 Mg687 2.032 . S
O692 C695 1.259 . S
O693 Mg684 2.114 . S
O693 C696 1.252 . S
O694 Mg684 2.251 . S
O694 Mg687 2.079 . S
O694 C696 1.273 . S
C695 O691 1.246 . S
C695 O692 1.259 . S
C696 O693 1.252 . S
C696 O694 1.273 . S
O697 Mg684 2.010 . S
O697 C689 1.249 . S
Mg698 O699 2.028 . S
Mg698 O705 1.986 . S
Mg698 O707 2.114 . S
Mg698 O708 2.251 . S
Mg698 O711 2.010 . S
O699 Mg698 2.028 . S
O699 C702 1.250 . S
O700 Mg701 2.028 . S
O700 C702 1.248 . S
Mg701 O700 2.028 . S
Mg701 O706 2.032 . S
Mg701 O708 2.079 . S
C702 O699 1.250 . S
C702 O700 1.248 . S
C703 O704 1.264 . S
C703 O711 1.249 . S
O704 C703 1.264 . S
O705 Mg698 1.986 . S
O705 C709 1.246 . S
O706 Mg701 2.032 . S
O706 C709 1.259 . S
O707 Mg698 2.114 . S
O707 C710 1.252 . S
O708 Mg698 2.251 . S
O708 Mg701 2.079 . S
O708 C710 1.273 . S
C709 O705 1.246 . S
C709 O706 1.259 . S
C710 O707 1.252 . S
C710 O708 1.273 . S
O711 Mg698 2.010 . S
O711 C703 1.249 . S
Mg712 O713 2.028 . S
Mg712 O719 1.986 . S
Mg712 O721 2.114 . S
Mg712 O722 2.251 . S
Mg712 O725 2.010 . S
O713 Mg712 2.028 . S
O713 C716 1.250 . S
O714 Mg715 2.028 . S
O714 C716 1.248 . S
Mg715 O714 2.028 . S
Mg715 O720 2.032 . S
Mg715 O722 2.079 . S
C716 O713 1.250 . S
C716 O714 1.248 . S
C717 O718 1.264 . S
C717 O725 1.249 . S
O718 C717 1.264 . S
O719 Mg712 1.986 . S
O719 C723 1.246 . S
O720 Mg715 2.032 . S
O720 C723 1.259 . S
O721 Mg712 2.114 . S
O721 C724 1.252 . S
O722 Mg712 2.251 . S
O722 Mg715 2.079 . S
O722 C724 1.273 . S
C723 O719 1.246 . S
C723 O720 1.259 . S
C724 O721 1.252 . S
C724 O722 1.273 . S
O725 Mg712 2.010 . S
O725 C717 1.249 . S
Mg726 O727 2.028 . S
Mg726 O733 1.986 . S
Mg726 O735 2.114 . S
Mg726 O736 2.251 . S
Mg726 O739 2.010 . S
O727 Mg726 2.028 . S
O727 C730 1.250 . S
O728 Mg729 2.028 . S
O728 C730 1.248 . S
Mg729 O728 2.028 . S
Mg729 O734 2.032 . S
Mg729 O736 2.079 . S
C730 O727 1.250 . S
C730 O728 1.248 . S
C731 O732 1.264 . S
C731 O739 1.249 . S
O732 C731 1.264 . S
O733 Mg726 1.986 . S
O733 C737 1.246 . S
O734 Mg729 2.032 . S
O734 C737 1.259 . S
O735 Mg726 2.114 . S
O735 C738 1.252 . S
O736 Mg726 2.251 . S
O736 Mg729 2.079 . S
O736 C738 1.273 . S
C737 O733 1.246 . S
C737 O734 1.259 . S
C738 O735 1.252 . S
C738 O736 1.273 . S
O739 Mg726 2.010 . S
O739 C731 1.249 . S
Mg740 O741 2.028 . S
Mg740 O747 1.986 . S
Mg740 O749 2.114 . S
Mg740 O750 2.251 . S
Mg740 O753 2.010 . S
O741 Mg740 2.028 . S
O741 C744 1.250 . S
O742 Mg743 2.028 . S
O742 C744 1.248 . S
Mg743 O742 2.028 . S
Mg743 O748 2.032 . S
Mg743 O750 2.079 . S
C744 O741 1.250 . S
C744 O742 1.248 . S
C745 O746 1.264 . S
C745 O753 1.249 . S
O746 C745 1.264 . S
O747 Mg740 1.986 . S
O747 C751 1.246 . S
O748 Mg743 2.032 . S
O748 C751 1.259 . S
O749 Mg740 2.114 . S
O749 C752 1.252 . S
O750 Mg740 2.251 . S
O750 Mg743 2.079 . S
O750 C752 1.273 . S
C751 O747 1.246 . S
C751 O748 1.259 . S
C752 O749 1.252 . S
C752 O750 1.273 . S
O753 Mg740 2.010 . S
O753 C745 1.249 . S
Mg754 O755 2.028 . S
Mg754 O761 1.986 . S
Mg754 O763 2.114 . S
Mg754 O764 2.251 . S
Mg754 O767 2.010 . S
O755 Mg754 2.028 . S
O755 C758 1.250 . S
O756 Mg757 2.028 . S
O756 C758 1.248 . S
Mg757 O756 2.028 . S
Mg757 O762 2.032 . S
Mg757 O764 2.079 . S
C758 O755 1.250 . S
C758 O756 1.248 . S
C759 O760 1.264 . S
C759 O767 1.249 . S
O760 C759 1.264 . S
O761 Mg754 1.986 . S
O761 C765 1.246 . S
O762 Mg757 2.032 . S
O762 C765 1.259 . S
O763 Mg754 2.114 . S
O763 C766 1.252 . S
O764 Mg754 2.251 . S
O764 Mg757 2.079 . S
O764 C766 1.273 . S
C765 O761 1.246 . S
C765 O762 1.259 . S
C766 O763 1.252 . S
C766 O764 1.273 . S
O767 Mg754 2.010 . S
O767 C759 1.249 . S
C768 C769 1.363 . S
C768 C774 1.379 . S
C768 N776 1.356 . S
C769 C768 1.363 . S
C769 C775 1.363 . S
C770 C771 1.363 . S
C770 C775 1.379 . S
C770 N777 1.356 . S
C771 C770 1.363 . S
C771 C774 1.363 . S
N772 C774 1.356 . S
N772 H784 0.984 . S
N772 H785 0.985 . S
N773 C775 1.356 . S
N773 H778 0.984 . S
N773 H779 0.985 . S
C774 C768 1.379 . S
C774 C771 1.363 . S
C774 N772 1.356 . S
C775 C769 1.363 . S
C775 C770 1.379 . S
C775 N773 1.356 . S
N776 C768 1.356 . S
N776 H782 0.984 . S
N776 H783 0.984 . S
N777 C770 1.356 . S
N777 H780 0.984 . S
N777 H781 0.985 . S
H778 N773 0.984 . S
H779 N773 0.985 . S
H780 N777 0.984 . S
H781 N777 0.985 . S
H782 N776 0.984 . S
H783 N776 0.984 . S
H784 N772 0.984 . S
H785 N772 0.985 . S
C786 C787 1.363 . S
C786 C792 1.379 . S
C786 N794 1.356 . S
C787 C786 1.363 . S
C787 C793 1.363 . S
C788 C789 1.363 . S
C788 C793 1.379 . S
C788 N795 1.356 . S
C789 C788 1.363 . S
C789 C792 1.363 . S
N790 C792 1.356 . S
N790 H802 0.984 . S
N790 H803 0.985 . S
N791 C793 1.356 . S
N791 H796 0.984 . S
N791 H797 0.985 . S
C792 C786 1.379 . S
C792 C789 1.363 . S
C792 N790 1.356 . S
C793 C787 1.363 . S
C793 C788 1.379 . S
C793 N791 1.356 . S
N794 C786 1.356 . S
N794 H800 0.984 . S
N794 H801 0.984 . S
N795 C788 1.356 . S
N795 H798 0.984 . S
N795 H799 0.985 . S
H796 N791 0.984 . S
H797 N791 0.985 . S
H798 N795 0.984 . S
H799 N795 0.985 . S
H800 N794 0.984 . S
H801 N794 0.984 . S
H802 N790 0.984 . S
H803 N790 0.985 . S
C804 C805 1.363 . S
C804 C810 1.379 . S
C804 N812 1.356 . S
C805 C804 1.363 . S
C805 C811 1.363 . S
C806 C807 1.363 . S
C806 C811 1.379 . S
C806 N813 1.356 . S
C807 C806 1.363 . S
C807 C810 1.363 . S
N808 C810 1.356 . S
N808 H820 0.984 . S
N808 H821 0.985 . S
N809 C811 1.356 . S
N809 H814 0.984 . S
N809 H815 0.985 . S
C810 C804 1.379 . S
C810 C807 1.363 . S
C810 N808 1.356 . S
C811 C805 1.363 . S
C811 C806 1.379 . S
C811 N809 1.356 . S
N812 C804 1.356 . S
N812 H818 0.984 . S
N812 H819 0.984 . S
N813 C806 1.356 . S
N813 H816 0.984 . S
N813 H817 0.985 . S
H814 N809 0.984 . S
H815 N809 0.985 . S
H816 N813 0.984 . S
H817 N813 0.985 . S
H818 N812 0.984 . S
H819 N812 0.984 . S
H820 N808 0.984 . S
H821 N808 0.985 . S
C822 C823 1.363 . S
C822 C828 1.379 . S
C822 N830 1.356 . S
C823 C822 1.363 . S
C823 C829 1.363 . S
C824 C825 1.363 . S
C824 C829 1.379 . S
C824 N831 1.356 . S
C825 C824 1.363 . S
C825 C828 1.363 . S
N826 C828 1.356 . S
N826 H838 0.984 . S
N826 H839 0.985 . S
N827 C829 1.356 . S
N827 H832 0.984 . S
N827 H833 0.985 . S
C828 C822 1.379 . S
C828 C825 1.363 . S
C828 N826 1.356 . S
C829 C823 1.363 . S
C829 C824 1.379 . S
C829 N827 1.356 . S
N830 C822 1.356 . S
N830 H836 0.984 . S
N830 H837 0.984 . S
N831 C824 1.356 . S
N831 H834 0.984 . S
N831 H835 0.985 . S
H832 N827 0.984 . S
H833 N827 0.985 . S
H834 N831 0.984 . S
H835 N831 0.985 . S
H836 N830 0.984 . S
H837 N830 0.984 . S
H838 N826 0.984 . S
H839 N826 0.985 . S
C840 C841 1.363 . S
C840 C846 1.379 . S
C840 N848 1.356 . S
C841 C840 1.363 . S
C841 C847 1.363 . S
C842 C843 1.363 . S
C842 C847 1.379 . S
C842 N849 1.356 . S
C843 C842 1.363 . S
C843 C846 1.363 . S
N844 C846 1.356 . S
N844 H856 0.984 . S
N844 H857 0.985 . S
N845 C847 1.356 . S
N845 H850 0.984 . S
N845 H851 0.985 . S
C846 C840 1.379 . S
C846 C843 1.363 . S
C846 N844 1.356 . S
C847 C841 1.363 . S
C847 C842 1.379 . S
C847 N845 1.356 . S
N848 C840 1.356 . S
N848 H854 0.984 . S
N848 H855 0.984 . S
N849 C842 1.356 . S
N849 H852 0.984 . S
N849 H853 0.985 . S
H850 N845 0.984 . S
H851 N845 0.985 . S
H852 N849 0.984 . S
H853 N849 0.985 . S
H854 N848 0.984 . S
H855 N848 0.984 . S
H856 N844 0.984 . S
H857 N844 0.985 . S
C858 C859 1.363 . S
C858 C864 1.379 . S
C858 N866 1.356 . S
C859 C858 1.363 . S
C859 C865 1.363 . S
C860 C861 1.363 . S
C860 C865 1.379 . S
C860 N867 1.356 . S
C861 C860 1.363 . S
C861 C864 1.363 . S
N862 C864 1.356 . S
N862 H874 0.984 . S
N862 H875 0.985 . S
N863 C865 1.356 . S
N863 H868 0.984 . S
N863 H869 0.985 . S
C864 C858 1.379 . S
C864 C861 1.363 . S
C864 N862 1.356 . S
C865 C859 1.363 . S
C865 C860 1.379 . S
C865 N863 1.356 . S
N866 C858 1.356 . S
N866 H872 0.984 . S
N866 H873 0.984 . S
N867 C860 1.356 . S
N867 H870 0.984 . S
N867 H871 0.985 . S
H868 N863 0.984 . S
H869 N863 0.985 . S
H870 N867 0.984 . S
H871 N867 0.985 . S
H872 N866 0.984 . S
H873 N866 0.984 . S
H874 N862 0.984 . S
H875 N862 0.985 . S
C876 C877 1.363 . S
C876 C882 1.379 . S
C876 N884 1.356 . S
C877 C876 1.363 . S
C877 C883 1.363 . S
C878 C879 1.363 . S
C878 C883 1.379 . S
C878 N885 1.356 . S
C879 C878 1.363 . S
C879 C882 1.363 . S
N880 C882 1.356 . S
N880 H892 0.984 . S
N880 H893 0.985 . S
N881 C883 1.356 . S
N881 H886 0.984 . S
N881 H887 0.985 . S
C882 C876 1.379 . S
C882 C879 1.363 . S
C882 N880 1.356 . S
C883 C877 1.363 . S
C883 C878 1.379 . S
C883 N881 1.356 . S
N884 C876 1.356 . S
N884 H890 0.984 . S
N884 H891 0.984 . S
N885 C878 1.356 . S
N885 H888 0.984 . S
N885 H889 0.985 . S
H886 N881 0.984 . S
H887 N881 0.985 . S
H888 N885 0.984 . S
H889 N885 0.985 . S
H890 N884 0.984 . S
H891 N884 0.984 . S
H892 N880 0.984 . S
H893 N880 0.985 . S
C894 C895 1.363 . S
C894 C900 1.379 . S
C894 N902 1.356 . S
C895 C894 1.363 . S
C895 C901 1.363 . S
C896 C897 1.363 . S
C896 C901 1.379 . S
C896 N903 1.356 . S
C897 C896 1.363 . S
C897 C900 1.363 . S
N898 C900 1.356 . S
N898 H910 0.984 . S
N898 H911 0.985 . S
N899 C901 1.356 . S
N899 H904 0.984 . S
N899 H905 0.985 . S
C900 C894 1.379 . S
C900 C897 1.363 . S
C900 N898 1.356 . S
C901 C895 1.363 . S
C901 C896 1.379 . S
C901 N899 1.356 . S
N902 C894 1.356 . S
N902 H908 0.984 . S
N902 H909 0.984 . S
N903 C896 1.356 . S
N903 H906 0.984 . S
N903 H907 0.985 . S
H904 N899 0.984 . S
H905 N899 0.985 . S
H906 N903 0.984 . S
H907 N903 0.985 . S
H908 N902 0.984 . S
H909 N902 0.984 . S
H910 N898 0.984 . S
H911 N898 0.985 . S
C912 C913 1.363 . S
C912 C918 1.379 . S
C912 N920 1.356 . S
C913 C912 1.363 . S
C913 C919 1.363 . S
C914 C915 1.363 . S
C914 C919 1.379 . S
C914 N921 1.356 . S
C915 C914 1.363 . S
C915 C918 1.363 . S
N916 C918 1.356 . S
N916 H928 0.984 . S
N916 H929 0.985 . S
N917 C919 1.356 . S
N917 H922 0.984 . S
N917 H923 0.985 . S
C918 C912 1.379 . S
C918 C915 1.363 . S
C918 N916 1.356 . S
C919 C913 1.363 . S
C919 C914 1.379 . S
C919 N917 1.356 . S
N920 C912 1.356 . S
N920 H926 0.984 . S
N920 H927 0.984 . S
N921 C914 1.356 . S
N921 H924 0.984 . S
N921 H925 0.985 . S
H922 N917 0.984 . S
H923 N917 0.985 . S
H924 N921 0.984 . S
H925 N921 0.985 . S
H926 N920 0.984 . S
H927 N920 0.984 . S
H928 N916 0.984 . S
H929 N916 0.985 . S
C930 C931 1.363 . S
C930 C936 1.379 . S
C930 N938 1.356 . S
C931 C930 1.363 . S
C931 C937 1.363 . S
C932 C933 1.363 . S
C932 C937 1.379 . S
C932 N939 1.356 . S
C933 C932 1.363 . S
C933 C936 1.363 . S
N934 C936 1.356 . S
N934 H946 0.984 . S
N934 H947 0.985 . S
N935 C937 1.356 . S
N935 H940 0.984 . S
N935 H941 0.985 . S
C936 C930 1.379 . S
C936 C933 1.363 . S
C936 N934 1.356 . S
C937 C931 1.363 . S
C937 C932 1.379 . S
C937 N935 1.356 . S
N938 C930 1.356 . S
N938 H944 0.984 . S
N938 H945 0.984 . S
N939 C932 1.356 . S
N939 H942 0.984 . S
N939 H943 0.985 . S
H940 N935 0.984 . S
H941 N935 0.985 . S
H942 N939 0.984 . S
H943 N939 0.985 . S
H944 N938 0.984 . S
H945 N938 0.984 . S
H946 N934 0.984 . S
H947 N934 0.985 . S
C948 C949 1.363 . S
C948 C954 1.379 . S
C948 N956 1.356 . S
C949 C948 1.363 . S
C949 C955 1.363 . S
C950 C951 1.363 . S
C950 C955 1.379 . S
C950 N957 1.356 . S
C951 C950 1.363 . S
C951 C954 1.363 . S
N952 C954 1.356 . S
N952 H964 0.984 . S
N952 H965 0.985 . S
N953 C955 1.356 . S
N953 H958 0.984 . S
N953 H959 0.985 . S
C954 C948 1.379 . S
C954 C951 1.363 . S
C954 N952 1.356 . S
C955 C949 1.363 . S
C955 C950 1.379 . S
C955 N953 1.356 . S
N956 C948 1.356 . S
N956 H962 0.984 . S
N956 H963 0.984 . S
N957 C950 1.356 . S
N957 H960 0.984 . S
N957 H961 0.985 . S
H958 N953 0.984 . S
H959 N953 0.985 . S
H960 N957 0.984 . S
H961 N957 0.985 . S
H962 N956 0.984 . S
H963 N956 0.984 . S
H964 N952 0.984 . S
H965 N952 0.985 . S
C966 C967 1.363 . S
C966 C972 1.379 . S
C966 N974 1.356 . S
C967 C966 1.363 . S
C967 C973 1.363 . S
C968 C969 1.363 . S
C968 C973 1.379 . S
C968 N975 1.356 . S
C969 C968 1.363 . S
C969 C972 1.363 . S
N970 C972 1.356 . S
N970 H982 0.984 . S
N970 H983 0.985 . S
N971 C973 1.356 . S
N971 H976 0.984 . S
N971 H977 0.985 . S
C972 C966 1.379 . S
C972 C969 1.363 . S
C972 N970 1.356 . S
C973 C967 1.363 . S
C973 C968 1.379 . S
C973 N971 1.356 . S
N974 C966 1.356 . S
N974 H980 0.984 . S
N974 H981 0.984 . S
N975 C968 1.356 . S
N975 H978 0.984 . S
N975 H979 0.985 . S
H976 N971 0.984 . S
H977 N971 0.985 . S
H978 N975 0.984 . S
H979 N975 0.985 . S
H980 N974 0.984 . S
H981 N974 0.984 . S
H982 N970 0.984 . S
H983 N970 0.985 . S
C984 C985 1.363 . S
C984 C990 1.379 . S
C984 N992 1.356 . S
C985 C984 1.363 . S
C985 C991 1.363 . S
C986 C987 1.363 . S
C986 C991 1.379 . S
C986 N993 1.356 . S
C987 C986 1.363 . S
C987 C990 1.363 . S
N988 C990 1.356 . S
N988 H1000 0.984 . S
N988 H1001 0.985 . S
N989 C991 1.356 . S
N989 H994 0.984 . S
N989 H995 0.985 . S
C990 C984 1.379 . S
C990 C987 1.363 . S
C990 N988 1.356 . S
C991 C985 1.363 . S
C991 C986 1.379 . S
C991 N989 1.356 . S
N992 C984 1.356 . S
N992 H998 0.984 . S
N992 H999 0.984 . S
N993 C986 1.356 . S
N993 H996 0.984 . S
N993 H997 0.985 . S
H994 N989 0.984 . S
H995 N989 0.985 . S
H996 N993 0.984 . S
H997 N993 0.985 . S
H998 N992 0.984 . S
H999 N992 0.984 . S
H1000 N988 0.984 . S
H1001 N988 0.985 . S
C1002 C1003 1.363 . S
C1002 C1008 1.379 . S
C1002 N1010 1.356 . S
C1003 C1002 1.363 . S
C1003 C1009 1.363 . S
C1004 C1005 1.363 . S
C1004 C1009 1.379 . S
C1004 N1011 1.356 . S
C1005 C1004 1.363 . S
C1005 C1008 1.363 . S
N1006 C1008 1.356 . S
N1006 H1018 0.984 . S
N1006 H1019 0.985 . S
N1007 C1009 1.356 . S
N1007 H1012 0.984 . S
N1007 H1013 0.985 . S
C1008 C1002 1.379 . S
C1008 C1005 1.363 . S
C1008 N1006 1.356 . S
C1009 C1003 1.363 . S
C1009 C1004 1.379 . S
C1009 N1007 1.356 . S
N1010 C1002 1.356 . S
N1010 H1016 0.984 . S
N1010 H1017 0.984 . S
N1011 C1004 1.356 . S
N1011 H1014 0.984 . S
N1011 H1015 0.985 . S
H1012 N1007 0.984 . S
H1013 N1007 0.985 . S
H1014 N1011 0.984 . S
H1015 N1011 0.985 . S
H1016 N1010 0.984 . S
H1017 N1010 0.984 . S
H1018 N1006 0.984 . S
H1019 N1006 0.985 . S
C1020 C1021 1.363 . S
C1020 C1026 1.379 . S
C1020 N1028 1.356 . S
C1021 C1020 1.363 . S
C1021 C1027 1.363 . S
C1022 C1023 1.363 . S
C1022 C1027 1.379 . S
C1022 N1029 1.356 . S
C1023 C1022 1.363 . S
C1023 C1026 1.363 . S
N1024 C1026 1.356 . S
N1024 H1036 0.984 . S
N1024 H1037 0.985 . S
N1025 C1027 1.356 . S
N1025 H1030 0.984 . S
N1025 H1031 0.985 . S
C1026 C1020 1.379 . S
C1026 C1023 1.363 . S
C1026 N1024 1.356 . S
C1027 C1021 1.363 . S
C1027 C1022 1.379 . S
C1027 N1025 1.356 . S
N1028 C1020 1.356 . S
N1028 H1034 0.984 . S
N1028 H1035 0.984 . S
N1029 C1022 1.356 . S
N1029 H1032 0.984 . S
N1029 H1033 0.985 . S
H1030 N1025 0.984 . S
H1031 N1025 0.985 . S
H1032 N1029 0.984 . S
H1033 N1029 0.985 . S
H1034 N1028 0.984 . S
H1035 N1028 0.984 . S
H1036 N1024 0.984 . S
H1037 N1024 0.985 . S
C1038 C1039 1.363 . S
C1038 C1044 1.379 . S
C1038 N1046 1.356 . S
C1039 C1038 1.363 . S
C1039 C1045 1.363 . S
C1040 C1041 1.363 . S
C1040 C1045 1.379 1_554 S
C1040 N1047 1.356 . S
C1041 C1040 1.363 . S
C1041 C1044 1.363 1_554 S
N1042 C1044 1.356 . S
N1042 H1054 0.984 . S
N1042 H1055 0.985 1_556 S
N1043 C1045 1.356 . S
N1043 H1048 0.984 . S
N1043 H1049 0.985 1_556 S
C1044 C1038 1.379 . S
C1044 C1041 1.363 1_556 S
C1044 N1042 1.356 . S
C1045 C1039 1.363 . S
C1045 C1040 1.379 1_556 S
C1045 N1043 1.356 . S
N1046 C1038 1.356 . S
N1046 H1052 0.984 . S
N1046 H1053 0.984 . S
N1047 C1040 1.356 . S
N1047 H1050 0.984 . S
N1047 H1051 0.985 . S
H1048 N1043 0.984 . S
H1049 N1043 0.985 1_554 S
H1050 N1047 0.984 . S
H1051 N1047 0.985 . S
H1052 N1046 0.984 . S
H1053 N1046 0.984 . S
H1054 N1042 0.984 . S
H1055 N1042 0.985 1_554 S
C1056 C1057 1.363 . S
C1056 C1062 1.379 . S
C1056 N1064 1.356 . S
C1057 C1056 1.363 . S
C1057 C1063 1.363 . S
C1058 C1059 1.363 . S
C1058 C1063 1.379 . S
C1058 N1065 1.356 . S
C1059 C1058 1.363 . S
C1059 C1062 1.363 . S
N1060 C1062 1.356 . S
N1060 H1072 0.984 . S
N1060 H1073 0.985 . S
N1061 C1063 1.356 . S
N1061 H1066 0.984 . S
N1061 H1067 0.985 . S
C1062 C1056 1.379 . S
C1062 C1059 1.363 . S
C1062 N1060 1.356 . S
C1063 C1057 1.363 . S
C1063 C1058 1.379 . S
C1063 N1061 1.356 . S
N1064 C1056 1.356 . S
N1064 H1070 0.984 . S
N1064 H1071 0.984 . S
N1065 C1058 1.356 . S
N1065 H1068 0.984 . S
N1065 H1069 0.985 . S
H1066 N1061 0.984 . S
H1067 N1061 0.985 . S
H1068 N1065 0.984 . S
H1069 N1065 0.985 . S
H1070 N1064 0.984 . S
H1071 N1064 0.984 . S
H1072 N1060 0.984 . S
H1073 N1060 0.985 . S
C1074 C1075 1.363 . S
C1074 C1080 1.379 . S
C1074 N1082 1.356 . S
C1075 C1074 1.363 . S
C1075 C1081 1.363 . S
C1076 C1077 1.363 . S
C1076 C1081 1.379 . S
C1076 N1083 1.356 . S
C1077 C1076 1.363 . S
C1077 C1080 1.363 . S
N1078 C1080 1.356 . S
N1078 H1090 0.984 . S
N1078 H1091 0.985 . S
N1079 C1081 1.356 . S
N1079 H1084 0.984 . S
N1079 H1085 0.985 . S
C1080 C1074 1.379 . S
C1080 C1077 1.363 . S
C1080 N1078 1.356 . S
C1081 C1075 1.363 . S
C1081 C1076 1.379 . S
C1081 N1079 1.356 . S
N1082 C1074 1.356 . S
N1082 H1088 0.984 . S
N1082 H1089 0.984 . S
N1083 C1076 1.356 . S
N1083 H1086 0.984 . S
N1083 H1087 0.985 . S
H1084 N1079 0.984 . S
H1085 N1079 0.985 . S
H1086 N1083 0.984 . S
H1087 N1083 0.985 . S
H1088 N1082 0.984 . S
H1089 N1082 0.984 . S
H1090 N1078 0.984 . S
H1091 N1078 0.985 . S
C1092 C1093 1.363 . S
C1092 C1098 1.379 . S
C1092 N1100 1.356 . S
C1093 C1092 1.363 . S
C1093 C1099 1.363 . S
C1094 C1095 1.363 . S
C1094 C1099 1.379 . S
C1094 N1101 1.356 . S
C1095 C1094 1.363 . S
C1095 C1098 1.363 . S
N1096 C1098 1.356 . S
N1096 H1108 0.984 . S
N1096 H1109 0.985 . S
N1097 C1099 1.356 . S
N1097 H1102 0.984 . S
N1097 H1103 0.985 . S
C1098 C1092 1.379 . S
C1098 C1095 1.363 . S
C1098 N1096 1.356 . S
C1099 C1093 1.363 . S
C1099 C1094 1.379 . S
C1099 N1097 1.356 . S
N1100 C1092 1.356 . S
N1100 H1106 0.984 . S
N1100 H1107 0.984 . S
N1101 C1094 1.356 . S
N1101 H1104 0.984 . S
N1101 H1105 0.985 . S
H1102 N1097 0.984 . S
H1103 N1097 0.985 . S
H1104 N1101 0.984 . S
H1105 N1101 0.985 . S
H1106 N1100 0.984 . S
H1107 N1100 0.984 . S
H1108 N1096 0.984 . S
H1109 N1096 0.985 . S
C1110 C1111 1.363 . S
C1110 C1116 1.379 . S
C1110 N1118 1.356 . S
C1111 C1110 1.363 . S
C1111 C1117 1.363 . S
C1112 C1113 1.363 . S
C1112 C1117 1.379 . S
C1112 N1119 1.356 . S
C1113 C1112 1.363 . S
C1113 C1116 1.363 . S
N1114 C1116 1.356 . S
N1114 H1126 0.984 . S
N1114 H1127 0.985 . S
N1115 C1117 1.356 . S
N1115 H1120 0.984 . S
N1115 H1121 0.985 . S
C1116 C1110 1.379 . S
C1116 C1113 1.363 . S
C1116 N1114 1.356 . S
C1117 C1111 1.363 . S
C1117 C1112 1.379 . S
C1117 N1115 1.356 . S
N1118 C1110 1.356 . S
N1118 H1124 0.984 . S
N1118 H1125 0.984 . S
N1119 C1112 1.356 . S
N1119 H1122 0.984 . S
N1119 H1123 0.985 . S
H1120 N1115 0.984 . S
H1121 N1115 0.985 . S
H1122 N1119 0.984 . S
H1123 N1119 0.985 . S
H1124 N1118 0.984 . S
H1125 N1118 0.984 . S
H1126 N1114 0.984 . S
H1127 N1114 0.985 . S
C1128 C1129 1.363 . S
C1128 C1134 1.379 . S
C1128 N1136 1.356 . S
C1129 C1128 1.363 . S
C1129 C1135 1.363 . S
C1130 C1131 1.363 . S
C1130 C1135 1.379 . S
C1130 N1137 1.356 . S
C1131 C1130 1.363 . S
C1131 C1134 1.363 . S
N1132 C1134 1.356 . S
N1132 H1144 0.984 . S
N1132 H1145 0.985 . S
N1133 C1135 1.356 . S
N1133 H1138 0.984 . S
N1133 H1139 0.985 . S
C1134 C1128 1.379 . S
C1134 C1131 1.363 . S
C1134 N1132 1.356 . S
C1135 C1129 1.363 . S
C1135 C1130 1.379 . S
C1135 N1133 1.356 . S
N1136 C1128 1.356 . S
N1136 H1142 0.984 . S
N1136 H1143 0.984 . S
N1137 C1130 1.356 . S
N1137 H1140 0.984 . S
N1137 H1141 0.985 . S
H1138 N1133 0.984 . S
H1139 N1133 0.985 . S
H1140 N1137 0.984 . S
H1141 N1137 0.985 . S
H1142 N1136 0.984 . S
H1143 N1136 0.984 . S
H1144 N1132 0.984 . S
H1145 N1132 0.985 . S
C1146 C1147 1.363 . S
C1146 C1152 1.379 . S
C1146 N1154 1.356 . S
C1147 C1146 1.363 . S
C1147 C1153 1.363 . S
C1148 C1149 1.363 . S
C1148 C1153 1.379 . S
C1148 N1155 1.356 . S
C1149 C1148 1.363 . S
C1149 C1152 1.363 . S
N1150 C1152 1.356 . S
N1150 H1162 0.984 . S
N1150 H1163 0.985 . S
N1151 C1153 1.356 . S
N1151 H1156 0.984 . S
N1151 H1157 0.985 . S
C1152 C1146 1.379 . S
C1152 C1149 1.363 . S
C1152 N1150 1.356 . S
C1153 C1147 1.363 . S
C1153 C1148 1.379 . S
C1153 N1151 1.356 . S
N1154 C1146 1.356 . S
N1154 H1160 0.984 . S
N1154 H1161 0.984 . S
N1155 C1148 1.356 . S
N1155 H1158 0.984 . S
N1155 H1159 0.985 . S
H1156 N1151 0.984 . S
H1157 N1151 0.985 . S
H1158 N1155 0.984 . S
H1159 N1155 0.985 . S
H1160 N1154 0.984 . S
H1161 N1154 0.984 . S
H1162 N1150 0.984 . S
H1163 N1150 0.985 . S
C1164 C1165 1.363 1_556 S
C1164 C1170 1.379 . S
C1164 N1172 1.356 . S
C1165 C1164 1.363 1_554 S
C1165 C1171 1.362 1_554 S
C1166 C1167 1.363 . S
C1166 C1171 1.386 . S
C1166 N1173 1.356 . S
C1167 C1166 1.363 . S
C1167 C1170 1.363 . S
N1168 C1170 1.356 . S
N1168 H1180 0.984 . S
N1168 H1181 0.985 . S
N1169 C1171 1.349 1_554 S
N1169 H1174 0.984 . S
N1169 H1175 0.985 . S
C1170 C1164 1.379 . S
C1170 C1167 1.363 . S
C1170 N1168 1.356 . S
C1171 C1165 1.362 1_556 S
C1171 C1166 1.386 . S
C1171 N1169 1.349 1_556 S
N1172 C1164 1.356 . S
N1172 H1178 0.984 . S
N1172 H1179 0.984 1_556 S
N1173 C1166 1.356 . S
N1173 H1176 0.984 . S
N1173 H1177 0.985 . S
H1174 N1169 0.984 . S
H1175 N1169 0.985 . S
H1176 N1173 0.984 . S
H1177 N1173 0.985 . S
H1178 N1172 0.984 . S
H1179 N1172 0.984 1_554 S
H1180 N1168 0.984 . S
H1181 N1168 0.985 . S
C1182 C1183 1.363 . S
C1182 C1188 1.379 . S
C1182 N1190 1.356 . S
C1183 C1182 1.363 . S
C1183 C1189 1.363 . S
C1184 C1185 1.363 . S
C1184 C1189 1.379 . S
C1184 N1191 1.356 . S
C1185 C1184 1.363 . S
C1185 C1188 1.363 . S
N1186 C1188 1.356 . S
N1186 H1198 0.984 . S
N1186 H1199 0.985 . S
N1187 C1189 1.356 . S
N1187 H1192 0.984 . S
N1187 H1193 0.985 . S
C1188 C1182 1.379 . S
C1188 C1185 1.363 . S
C1188 N1186 1.356 . S
C1189 C1183 1.363 . S
C1189 C1184 1.379 . S
C1189 N1187 1.356 . S
N1190 C1182 1.356 . S
N1190 H1196 0.984 . S
N1190 H1197 0.984 . S
N1191 C1184 1.356 . S
N1191 H1194 0.984 . S
N1191 H1195 0.985 . S
H1192 N1187 0.984 . S
H1193 N1187 0.985 . S
H1194 N1191 0.984 . S
H1195 N1191 0.985 . S
H1196 N1190 0.984 . S
H1197 N1190 0.984 . S
H1198 N1186 0.984 . S
H1199 N1186 0.985 . S
C771 C759 1.369 . S
C769 C1 1.266 . S
C787 C169 1.746 . S
C789 C689 1.525 . S
C805 C283 1.694 . S
C807 C709 1.921 . S
C823 C397 1.482 . S
C825 C723 1.687 . S
C843 C731 1.217 . S
C841 C457 1.178 . S
C859 C571 1.189 . S
C861 C745 1.227 . S
C877 C115 1.308 . S
C879 C703 1.371 . S
C895 C229 1.164 . S
C897 C717 1.265 . S
C913 C343 1.156 . S
C915 C737 1.602 . S
C933 C751 1.782 . S
C931 C511 1.565 . S
C951 C765 1.873 . S
C949 C625 1.668 . S
C969 C695 1.942 . S
C967 C55 1.731 . S
C985 C29 1.133 . S
C987 C702 1.433 . S
C1003 C125 0.926 . S
C1005 C716 1.490 . S
C1023 C738 1.438 . S
C1021 C239 0.881 . S
C1039 C353 0.893 . S
C1041 C752 1.439 . S
C1059 C766 1.397 . S
C1057 C485 1.075 . S
C1077 C696 1.452 . S
C1075 C599 1.127 . S
C1095 C758 1.421 . S
C1093 C143 1.133 . S
C1111 C257 1.118 . S
C1113 C688 1.424 . S
C1131 C710 1.405 . S
C1129 C371 1.112 . S
C1147 C467 0.887 . S
C1149 C724 1.429 . S
C1165 C581 0.879 . S
C1167 C730 1.464 . S
C1183 C11 0.918 . S
C1185 C744 1.501 . S
