# Generated by pormake.
# Topology dag, (6,3)-cn, num edge types: 1
# Building blocks:
#     Node 0, Type 0, BuildingBlock: MIDCAF_clean_sbu_0, # of connection points: 6
#     Node 1, Type 0, BuildingBlock: MIDCAF_clean_sbu_0, # of connection points: 6
#     Node 2, Type 0, BuildingBlock: MIDCAF_clean_sbu_0, # of connection points: 6
#     Node 3, Type 0, BuildingBlock: MIDCAF_clean_sbu_0, # of connection points: 6
#     Node 4, Type 1, BuildingBlock: BELTOD_clean_linker_0, # of connection points: 3
#     Node 5, Type 1, BuildingBlock: BELTOD_clean_linker_0, # of connection points: 3
#     Node 6, Type 1, BuildingBlock: BELTOD_clean_linker_0, # of connection points: 3
#     Node 7, Type 1, BuildingBlock: BELTOD_clean_linker_0, # of connection points: 3
#     Node 8, Type 1, BuildingBlock: BELTOD_clean_linker_0, # of connection points: 3
#     Node 9, Type 1, BuildingBlock: BELTOD_clean_linker_0, # of connection points: 3
#     Node 10, Type 1, BuildingBlock: BELTOD_clean_linker_0, # of connection points: 3
#     Node 11, Type 1, BuildingBlock: BELTOD_clean_linker_0, # of connection points: 3
#     Edge 12, Type (0, 1), None
#     Edge 13, Type (0, 1), None
#     Edge 14, Type (0, 1), None
#     Edge 15, Type (0, 1), None
#     Edge 16, Type (0, 1), None
#     Edge 17, Type (0, 1), None
#     Edge 18, Type (0, 1), None
#     Edge 19, Type (0, 1), None
#     Edge 20, Type (0, 1), None
#     Edge 21, Type (0, 1), None
#     Edge 22, Type (0, 1), None
#     Edge 23, Type (0, 1), None
#     Edge 24, Type (0, 1), None
#     Edge 25, Type (0, 1), None
#     Edge 26, Type (0, 1), None
#     Edge 27, Type (0, 1), None
#     Edge 28, Type (0, 1), None
#     Edge 29, Type (0, 1), None
#     Edge 30, Type (0, 1), None
#     Edge 31, Type (0, 1), None
#     Edge 32, Type (0, 1), None
#     Edge 33, Type (0, 1), None
#     Edge 34, Type (0, 1), None
#     Edge 35, Type (0, 1), None
# Relax obj value: 0.288
# Max RMSD: 0.191
# Mean RMSD: 0.180
data_MOF--net-dag--node1-MIDCAF_clean_sbu_0--node2-BELTOD_clean_linker_0--edge1-none
_symmetry_space_group_name_H-M    P1
_symmetry_Int_Tables_number       1
_symmetry_cell_setting            triclinic
loop_
_symmetry_equiv_pos_as_xyz
'x, y, z'
_cell_length_a     22.872272
_cell_length_b     24.206479
_cell_length_c     16.805598
_cell_angle_alpha  94.482552
_cell_angle_beta   90.536143
_cell_angle_gamma 89.381239
loop_
_atom_site_label
_atom_site_type_symbol
_atom_site_fract_x
_atom_site_fract_y
_atom_site_fract_z
_atom_type_partial_charge
Zn0 Zn 0.12479 0.75867 0.17357 0.0
Zn1 Zn 0.2561 0.84646 0.97901 0.0
Zn2 Zn 0.19075 0.80452 0.08366 0.0
C3 C 0.23906 0.93144 0.08889 0.0
C4 C 0.14804 0.82105 0.90564 0.0
O5 O 0.24296 0.73963 0.14601 0.0
O6 O 0.17646 0.71171 0.22827 0.0
C7 C 0.13002 0.87302 0.22738 0.0
O8 O 0.20417 0.89431 0.1113 0.0
O9 O 0.27739 0.91822 0.03716 0.0
O10 O 0.19313 0.84927 0.8954 0.0
O11 O 0.14163 0.79759 0.97116 0.0
O12 O 0.10311 0.82887 0.23777 0.0
O13 O 0.16888 0.8733 0.17247 0.0
O14 O 0.10292 0.78227 0.03367 0.0
O15 O 0.06265 0.7224 0.10771 0.0
C16 C 0.05888 0.75232 0.0498 0.0
O17 O 0.26964 0.74911 0.07039 0.0
O18 O 0.31178 0.78404 0.96754 0.0
C19 C 0.22837 0.71076 0.20427 0.0
C20 C 0.30949 0.74704 1.01625 0.0
Zn21 Zn 0.57827 0.73103 0.41265 0.0
Zn22 Zn 0.75997 0.60959 0.57856 0.0
Zn23 Zn 0.67682 0.66078 0.50827 0.0
C24 C 0.71569 0.53298 0.47513 0.0
C25 C 0.66726 0.63035 0.6898 0.0
O26 O 0.71769 0.71945 0.42776 0.0
O27 O 0.64621 0.75203 0.35168 0.0
C28 C 0.58643 0.60552 0.37862 0.0
O29 O 0.67666 0.57166 0.47507 0.0
O30 O 0.76679 0.54435 0.49961 0.0
O31 O 0.71211 0.5997 0.67855 0.0
O32 O 0.65166 0.66268 0.63576 0.0
O33 O 0.55907 0.65122 0.37413 0.0
O34 O 0.63219 0.60184 0.42341 0.0
O35 O 0.61688 0.69624 0.59557 0.0
O36 O 0.58343 0.76099 0.52798 0.0
C37 C 0.5724 0.72231 0.57117 0.0
O38 O 0.75438 0.71101 0.49531 0.0
O39 O 0.81556 0.67141 0.57664 0.0
C40 C 0.69998 0.74562 0.36741 0.0
C41 C 0.80327 0.71062 0.5338 0.0
Zn42 Zn 0.85618 0.21447 0.91696 0.0
Zn43 Zn 0.71993 0.14031 0.10335 0.0
Zn44 Zn 0.78925 0.17232 1.01179 0.0
C45 C 0.82866 0.14453 0.18345 0.0
C46 C 0.7252 0.05284 1.005 0.0
O47 O 0.73752 0.23335 0.94133 0.0
O48 O 0.80434 0.26035 0.85886 0.0
C49 C 0.91858 0.2276 0.04789 0.0
O50 O 0.84023 0.17448 0.12547 0.0
O51 O 0.77944 0.12148 0.18495 0.0
O52 O 0.6832 0.07629 0.04263 0.0
O53 O 0.76946 0.08225 0.98804 0.0
O54 O 0.91584 0.2525 0.9849 0.0
O55 O 0.8759 0.19648 0.06574 0.0
O56 O 0.80986 0.10204 0.92977 0.0
O57 O 0.87869 0.14056 0.8614 0.0
C58 C 0.84983 0.09843 0.87634 0.0
O59 O 0.71181 0.23158 0.02024 0.0
O60 O 0.66941 0.20403 0.12773 0.0
C61 C 0.75202 0.26073 0.88139 0.0
C62 C 0.67231 0.23793 0.07487 0.0
Zn63 Zn 0.36722 0.25086 0.67509 0.0
Zn64 Zn 0.218 0.34995 0.53101 0.0
Zn65 Zn 0.29687 0.30401 0.60317 0.0
C66 C 0.31774 0.33412 0.42828 0.0
C67 C 0.24978 0.4319 0.62404 0.0
O68 O 0.24689 0.24525 0.6752 0.0
O69 O 0.31891 0.21259 0.7467 0.0
C70 C 0.41495 0.23747 0.53983 0.0
O71 O 0.33495 0.30299 0.48288 0.0
O72 O 0.27014 0.36094 0.43735 0.0
O73 O 0.19926 0.41716 0.60107 0.0
O74 O 0.289 0.39422 0.63265 0.0
O75 O 0.41076 0.20446 0.59379 0.0
O76 O 0.37584 0.2759 0.53506 0.0
O77 O 0.32759 0.36746 0.69257 0.0
O78 O 0.40641 0.32017 0.72384 0.0
C79 C 0.37688 0.3648 0.72953 0.0
O80 O 0.21833 0.24909 0.59677 0.0
O81 O 0.15932 0.29254 0.51694 0.0
C82 C 0.26495 0.21666 0.73265 0.0
C83 C 0.17075 0.25089 0.55498 0.0
P84 P 0.01457 0.06761 0.41676 0.0
H85 H 0.05424 0.95884 0.45937 0.0
H86 H 0.10117 0.88082 0.38346 0.0
H87 H 0.1151 0.97845 0.18074 0.0
H88 H 0.06845 0.05728 0.25741 0.0
H89 H -0.0096 0.18015 0.48291 0.0
H90 H 0.05278 0.2534 0.54386 0.0
H91 H 0.20126 0.14163 0.52839 0.0
H92 H 0.13872 0.06846 0.46568 0.0
H93 H 0.90437 0.02311 0.35861 0.0
H94 H 0.00602 0.16813 0.32421 0.0
O95 O 0.97827 0.03961 0.48908 0.0
H96 H 0.83026 0.0533 0.26684 0.0
H97 H 0.92952 0.2005 0.23413 0.0
C98 C 0.05678 0.01346 0.36351 0.0
C99 C 0.06817 0.96397 0.39902 0.0
C100 C 0.09534 0.91946 0.35572 0.0
C101 C 0.11247 0.9238 0.27638 0.0
C102 C 0.10402 0.97451 0.2423 0.0
C103 C 0.07648 0.0192 0.28573 0.0
C104 C 0.06059 0.11998 0.4657 0.0
C105 C 0.03634 0.17133 0.49247 0.0
C106 C 0.07175 0.21275 0.52876 0.0
C107 C 0.13177 0.20302 0.54093 0.0
C108 C 0.15502 0.14996 0.52055 0.0
C109 C 0.11954 0.10861 0.48307 0.0
C110 C 0.96025 0.0937 0.34971 0.0
C111 C 0.91034 0.06203 0.33213 0.0
C112 C 0.86771 0.07965 0.27965 0.0
C113 C 0.87388 0.12949 0.24263 0.0
C114 C 0.92389 0.16158 0.26053 0.0
C115 C 0.96728 0.14338 0.31278 0.0
P116 P 0.4849 0.56233 0.92493 0.0
H117 H 0.60886 0.5335 0.90367 0.0
H118 H 0.68211 0.56003 0.80918 0.0
H119 H 0.56039 0.68015 0.72357 0.0
H120 H 0.48749 0.65221 0.81548 0.0
H121 H 0.46306 0.62871 0.07741 0.0
H122 H 0.39163 0.703 0.11544 0.0
H123 H 0.31753 0.68506 0.87803 0.0
H124 H 0.38906 0.61271 0.83972 0.0
H125 H 0.53359 0.47333 0.81667 0.0
H126 H 0.36309 0.52114 0.90799 0.0
O127 O 0.51484 0.5377 1.00604 0.0
H128 H 0.49059 0.39473 0.73871 0.0
H129 H 0.31957 0.44351 0.82664 0.0
C130 C 0.54235 0.59063 0.86695 0.0
C131 C 0.59837 0.56631 0.86549 0.0
C132 C 0.64038 0.58165 0.81132 0.0
C133 C 0.62737 0.62198 0.75759 0.0
C134 C 0.57232 0.64862 0.76292 0.0
C135 C 0.53013 0.63264 0.81619 0.0
C136 C 0.43101 0.61475 0.95576 0.0
C137 C 0.43092 0.64036 0.0339 0.0
C138 C 0.3898 0.68223 0.05601 0.0
C139 C 0.34818 0.69841 1.00032 0.0
C140 C 0.34849 0.67249 0.92255 0.0
C141 C 0.3895 0.6313 0.90048 0.0
C142 C 0.45159 0.50482 0.8662 0.0
C143 C 0.48682 0.46778 0.81907 0.0
C144 C 0.46219 0.42257 0.77462 0.0
C145 C 0.40162 0.41361 0.77579 0.0
C146 C 0.36623 0.45016 0.8236 0.0
C147 C 0.3912 0.4948 0.86968 0.0
P148 P 0.84198 0.86428 0.13177 0.0
H149 H 0.72971 0.91469 0.17213 0.0
H150 H 0.68026 -0.00729 0.11913 0.0
H151 H 0.7904 0.97697 0.91183 0.0
H152 H 0.84071 0.89777 0.96555 0.0
H153 H 0.86441 0.84318 0.29967 0.0
H154 H 0.80719 0.79538 0.39609 0.0
H155 H 0.68448 0.7444 0.20838 0.0
H156 H 0.74121 0.79213 0.11318 0.0
H157 H 0.93738 0.89902 0.03706 0.0
H158 H 0.86428 0.74435 0.09686 0.0
O159 O 0.87895 0.91269 0.18702 0.0
H160 H 0.02757 0.85222 0.99791 0.0
H161 H 0.95572 0.69681 0.05944 0.0
C162 C 0.79018 0.90137 0.07422 0.0
C163 C 0.74183 0.92613 0.11353 0.0
C164 C 0.71335 0.97102 0.08267 0.0
C165 C 0.73415 -0.00706 1.01318 0.0
C166 C 0.7763 0.9627 0.96767 0.0
C167 C 0.80466 0.91728 0.99834 0.0
C168 C 0.80588 0.82233 0.19985 0.0
C169 C 0.82547 0.82109 0.27932 0.0
C170 C 0.79317 0.79344 0.33434 0.0
C171 C 0.74106 0.76693 0.3101 0.0
C172 C 0.72405 0.76536 0.22914 0.0
C173 C 0.75632 0.79256 0.17451 0.0
C174 C 0.89492 0.82546 0.07177 0.0
C175 C 0.93968 0.85434 0.03764 0.0
C176 C -0.00857 0.82714 1.01462 0.0
C177 C -0.00044 0.77087 0.02783 0.0
C178 C 0.95099 0.74033 0.04956 0.0
C179 C 0.89883 0.76767 0.07197 0.0
P180 P 0.66301 0.30067 0.56128 0.0
H181 H 0.7393 0.34209 0.43886 0.0
H182 H 0.75968 0.43633 0.40173 0.0
H183 H 0.63351 0.50232 0.57436 0.0
H184 H 0.61599 0.4093 0.61448 0.0
H185 H 0.62065 0.22567 0.67958 0.0
H186 H 0.65531 0.21068 0.81414 0.0
H187 H 0.75816 0.35884 0.81606 0.0
H188 H 0.72514 0.37311 0.68151 0.0
H189 H 0.55899 0.35978 0.50239 0.0
H190 H 0.60951 0.19127 0.53918 0.0
O191 O 0.71288 0.25661 0.52042 0.0
H192 H 0.45838 0.33367 0.49314 0.0
H193 H 0.50696 0.16397 0.52709 0.0
C194 C 0.67639 0.36889 0.52983 0.0
C195 C 0.71583 0.37686 0.46829 0.0
C196 C 0.72685 0.43039 0.44621 0.0
C197 C 0.69677 0.47602 0.48339 0.0
C198 C 0.65591 0.46753 0.54301 0.0
C199 C 0.64648 0.41458 0.56676 0.0
C200 C 0.67031 0.30048 0.66916 0.0
C201 C 0.64857 0.25645 0.70983 0.0
C202 C 0.66758 0.24832 0.7879 0.0
C203 C 0.70923 0.28373 0.826 0.0
C204 C 0.72537 0.33128 0.78874 0.0
C205 C 0.70683 0.33914 0.71089 0.0
C206 C 0.59185 0.27808 0.52628 0.0
C207 C 0.54902 0.31673 0.50673 0.0
C208 C 0.49079 0.30126 0.49896 0.0
C209 C 0.47428 0.2467 0.51022 0.0
C210 C 0.51827 0.20643 0.51851 0.0
C211 C 0.57679 0.22214 0.52658 0.0
P212 P 0.48654 0.40682 0.1778 0.0
H213 H 0.48009 0.52651 0.16329 0.0
H214 H 0.51973 0.60557 0.24374 0.0
H215 H 0.59863 0.49505 0.40389 0.0
H216 H 0.56039 0.41538 0.32137 0.0
H217 H 0.48104 0.29178 0.11261 0.0
H218 H 0.55596 0.22441 0.06536 0.0
H219 H 0.68818 0.34981 0.10019 0.0
H220 H 0.61298 0.41743 0.14817 0.0
H221 H 0.37324 0.44654 0.23162 0.0
H222 H 0.48521 0.30682 0.27135 0.0
O223 O 0.45008 0.42948 0.10005 0.0
H224 H 0.30619 0.41887 0.332 0.0
H225 H 0.41529 0.27618 0.3686 0.0
C226 C 0.51858 0.46499 0.23515 0.0
C227 C 0.507 0.51903 0.21473 0.0
C228 C 0.52944 0.56433 0.26134 0.0
C229 C 0.56388 0.55654 0.32956 0.0
C230 C 0.57458 0.5023 0.35038 0.0
C231 C 0.55218 0.45683 0.30356 0.0
C232 C 0.5418 0.35877 0.13777 0.0
C233 C 0.526 0.30502 0.10964 0.0
C234 C 0.56861 0.26692 0.08108 0.0
C235 C 0.62762 0.28226 0.0781 0.0
C236 C 0.64285 0.33732 0.10032 0.0
C237 C 0.60004 0.37549 0.12957 0.0
C238 C 0.43392 0.37852 0.24292 0.0
C239 C 0.38261 0.4089 0.26049 0.0
C240 C 0.34411 0.39281 0.31814 0.0
C241 C 0.35578 0.34561 0.35995 0.0
C242 C 0.4059 0.31357 0.33949 0.0
C243 C 0.4454 0.33057 0.28274 0.0
P244 P 0.17063 0.17014 0.05122 0.0
H245 H 0.25618 0.12047 0.15907 0.0
H246 H 0.28516 0.02331 0.17393 0.0
H247 H 0.14949 0.9688 1.00686 0.0
H248 H 0.12284 0.06481 0.98891 0.0
H249 H 0.13017 0.2483 0.93234 0.0
H250 H 0.16713 0.26592 0.80087 0.0
H251 H 0.27894 0.12163 0.80449 0.0
H252 H 0.24397 0.10497 0.93585 0.0
H253 H 0.06662 0.10816 0.09953 0.0
H254 H 0.11114 0.27778 0.06778 0.0
O255 O 0.21635 0.21294 0.10273 0.0
H256 H 0.96392 0.13224 0.09726 0.0
H257 H 0.00708 0.30242 0.06671 0.0
C258 C 0.18641 0.0998 0.07407 0.0
C259 C 0.23193 0.08753 0.12698 0.0
C260 C 0.24837 0.03225 0.13582 0.0
C261 C 0.21838 -0.0109 0.09317 0.0
C262 C 0.17211 0.0016 0.042 0.0
C263 C 0.15679 0.05635 0.0318 0.0
C264 C 0.18406 0.17518 0.94543 0.0
C265 C 0.16112 0.2192 0.90427 0.0
C266 C 0.18156 0.2289 0.82797 0.0
C267 C 0.22565 0.19498 0.79208 0.0
C268 C 0.24445 0.14819 0.83024 0.0
C269 C 0.22453 0.13884 0.9062 0.0
C270 C 0.09677 0.19048 0.07828 0.0
C271 C 0.05477 0.15084 0.09327 0.0
C272 C -0.00447 0.16503 0.09439 0.0
C273 C 0.9774 0.21923 0.08146 0.0
C274 C 0.01988 0.26031 0.0769 0.0
C275 C 0.07927 0.24604 0.0762 0.0
P276 P 0.37815 0.57905 0.42399 0.0
H277 H 0.25373 0.55152 0.42838 0.0
H278 H 0.19939 0.49533 0.51439 0.0
H279 H 0.35031 0.48618 0.66928 0.0
H280 H 0.40333 0.54461 0.58598 0.0
H281 H 0.37656 0.58177 0.24783 0.0
H282 H 0.31603 0.63525 0.15795 0.0
H283 H 0.23213 0.71881 0.36314 0.0
H284 H 0.28841 0.66319 0.45109 0.0
H285 H 0.48609 0.55243 0.50542 0.0
H286 H 0.39191 0.70055 0.45057 0.0
O287 O 0.41045 0.5255 0.37282 0.0
H288 H 0.56134 0.60888 0.57246 0.0
H289 H 0.46898 0.75719 0.51242 0.0
C290 C 0.33311 0.55222 0.49948 0.0
C291 C 0.2744 0.53986 0.48286 0.0
C292 C 0.24307 0.50783 0.53298 0.0
C293 C 0.27089 0.48526 0.59854 0.0
C294 C 0.3276 0.50263 0.61955 0.0
C295 C 0.35843 0.53572 0.57046 0.0
C296 C 0.33618 0.61814 0.35613 0.0
C297 C 0.34507 0.61175 0.2731 0.0
C298 C 0.31179 0.64318 0.22182 0.0
C299 C 0.27086 0.68222 0.25366 0.0
C300 C 0.26373 0.68922 0.33689 0.0
C301 C 0.2955 0.65721 0.38733 0.0
C302 C 0.43351 0.62195 0.47214 0.0
C303 C 0.48135 0.59712 0.50825 0.0
C304 C 0.52437 0.62968 0.54693 0.0
C305 C 0.52179 0.68778 0.54605 0.0
C306 C 0.47252 0.71254 0.51281 0.0
C307 C 0.42853 0.6799 0.47664 0.0
P308 P 0.91421 0.86376 0.75797 0.0
H309 H 0.93983 0.93011 0.90287 0.0
H310 H 0.91147 0.02399 0.95304 0.0
H311 H 0.83502 0.05206 0.72396 0.0
H312 H 0.86452 0.95795 0.67293 0.0
H313 H 0.96946 0.7877 0.63589 0.0
H314 H 0.92152 0.72073 0.54214 0.0
H315 H 0.75998 0.81339 0.56943 0.0
H316 H 0.80653 0.87792 0.66732 0.0
H317 H 0.96651 0.76289 0.81286 0.0
H318 H 0.02534 0.92296 0.75272 0.0
O319 O 0.87202 0.83136 0.81972 0.0
H320 H 0.06213 0.74471 0.87259 0.0
H321 H 0.12038 0.90565 0.81409 0.0
C322 C 0.90284 0.93645 0.78505 0.0
C323 C 0.91749 0.95651 0.86305 0.0
C324 C 0.9012 0.00991 0.89173 0.0
C325 C 0.86959 0.04393 0.84278 0.0
C326 C 0.85809 0.02554 0.763 0.0
C327 C 0.87472 0.97181 0.73411 0.0
C328 C 0.89167 0.83798 0.65927 0.0
C329 C 0.9246 0.79558 0.61877 0.0
C330 C 0.89731 0.75737 0.56435 0.0
C331 C 0.83701 0.76167 0.54941 0.0
C332 C 0.80669 0.80944 0.57929 0.0
C333 C 0.83353 0.8467 0.6355 0.0
C334 C -0.01157 0.84504 0.78104 0.0
C335 C 0.00039 0.79366 0.81114 0.0
C336 C 0.05494 0.78332 0.84534 0.0
C337 C 0.09789 0.82443 0.85021 0.0
C338 C 0.08787 0.87334 0.81188 0.0
C339 C 0.0334 0.88351 0.7773 0.0
loop_
_geom_bond_atom_site_label_1
_geom_bond_atom_site_label_2
_geom_bond_distance
_geom_bond_site_symmetry_2
_ccdc_geom_bond_type
Zn0 O6 1.920 . S
Zn0 O12 1.898 . S
Zn0 O15 1.905 . S
Zn1 O9 1.905 . S
Zn1 O10 1.898 . S
Zn1 O18 1.920 . S
Zn2 O5 2.080 . S
Zn2 O8 2.114 1_554 S
Zn2 O11 2.120 1_554 S
Zn2 O13 2.120 . S
Zn2 O14 2.114 . S
Zn2 O17 2.080 . S
C3 O8 1.166 . S
C3 O9 1.182 . S
C4 O10 1.167 . S
C4 O11 1.299 . S
O5 Zn2 2.080 . S
O5 C19 1.305 . S
O6 Zn0 1.920 . S
O6 C19 1.234 . S
C7 O12 1.167 . S
C7 O13 1.299 . S
O8 Zn2 2.114 1_556 S
O8 C3 1.166 . S
O9 Zn1 1.905 . S
O9 C3 1.182 . S
O10 Zn1 1.898 . S
O10 C4 1.167 . S
O11 Zn2 2.120 1_556 S
O11 C4 1.299 . S
O12 Zn0 1.898 . S
O12 C7 1.167 . S
O13 Zn2 2.120 . S
O13 C7 1.299 . S
O14 Zn2 2.114 . S
O14 C16 1.166 . S
O15 Zn0 1.905 . S
O15 C16 1.182 . S
C16 O14 1.166 . S
C16 O15 1.182 . S
O17 Zn2 2.080 . S
O17 C20 1.305 1_554 S
O18 Zn1 1.920 . S
O18 C20 1.234 . S
C19 O5 1.305 . S
C19 O6 1.234 . S
C20 O17 1.305 1_556 S
C20 O18 1.234 . S
Zn21 O27 1.920 . S
Zn21 O33 1.898 . S
Zn21 O36 1.905 . S
Zn22 O30 1.905 . S
Zn22 O31 1.898 . S
Zn22 O39 1.920 . S
Zn23 O26 2.080 . S
Zn23 O29 2.114 . S
Zn23 O32 2.120 . S
Zn23 O34 2.120 . S
Zn23 O35 2.114 . S
Zn23 O38 2.080 . S
C24 O29 1.166 . S
C24 O30 1.182 . S
C25 O31 1.167 . S
C25 O32 1.299 . S
O26 Zn23 2.080 . S
O26 C40 1.305 . S
O27 Zn21 1.920 . S
O27 C40 1.234 . S
C28 O33 1.167 . S
C28 O34 1.299 . S
O29 Zn23 2.114 . S
O29 C24 1.166 . S
O30 Zn22 1.905 . S
O30 C24 1.182 . S
O31 Zn22 1.898 . S
O31 C25 1.167 . S
O32 Zn23 2.120 . S
O32 C25 1.299 . S
O33 Zn21 1.898 . S
O33 C28 1.167 . S
O34 Zn23 2.120 . S
O34 C28 1.299 . S
O35 Zn23 2.114 . S
O35 C37 1.166 . S
O36 Zn21 1.905 . S
O36 C37 1.182 . S
C37 O35 1.166 . S
C37 O36 1.182 . S
O38 Zn23 2.080 . S
O38 C41 1.305 . S
O39 Zn22 1.920 . S
O39 C41 1.234 . S
C40 O26 1.305 . S
C40 O27 1.234 . S
C41 O38 1.305 . S
C41 O39 1.234 . S
Zn42 O48 1.920 . S
Zn42 O54 1.898 . S
Zn42 O57 1.905 . S
Zn43 O51 1.905 . S
Zn43 O52 1.898 . S
Zn43 O60 1.920 . S
Zn44 O47 2.079 1_554 S
Zn44 O50 2.115 . S
Zn44 O53 2.120 . S
Zn44 O55 2.119 1_554 S
Zn44 O56 2.113 1_554 S
Zn44 O59 2.081 . S
C45 O50 1.166 . S
C45 O51 1.182 . S
C46 O52 1.167 . S
C46 O53 1.299 . S
O47 Zn44 2.079 1_556 S
O47 C61 1.305 . S
O48 Zn42 1.920 . S
O48 C61 1.234 . S
C49 O54 1.167 . S
C49 O55 1.299 . S
O50 Zn44 2.115 . S
O50 C45 1.166 . S
O51 Zn43 1.905 . S
O51 C45 1.182 . S
O52 Zn43 1.898 . S
O52 C46 1.167 . S
O53 Zn44 2.120 . S
O53 C46 1.299 . S
O54 Zn42 1.898 . S
O54 C49 1.167 . S
O55 Zn44 2.119 1_556 S
O55 C49 1.299 . S
O56 Zn44 2.113 1_556 S
O56 C58 1.166 . S
O57 Zn42 1.905 . S
O57 C58 1.182 . S
C58 O56 1.166 . S
C58 O57 1.182 . S
O59 Zn44 2.081 . S
O59 C62 1.305 . S
O60 Zn43 1.920 . S
O60 C62 1.234 . S
C61 O47 1.305 . S
C61 O48 1.234 . S
C62 O59 1.305 . S
C62 O60 1.234 . S
Zn63 O69 1.920 . S
Zn63 O75 1.898 . S
Zn63 O78 1.905 . S
Zn64 O72 1.905 . S
Zn64 O73 1.898 . S
Zn64 O81 1.920 . S
Zn65 O68 2.080 . S
Zn65 O71 2.114 . S
Zn65 O74 2.120 . S
Zn65 O76 2.120 . S
Zn65 O77 2.114 . S
Zn65 O80 2.080 . S
C66 O71 1.166 . S
C66 O72 1.182 . S
C67 O73 1.167 . S
C67 O74 1.299 . S
O68 Zn65 2.080 . S
O68 C82 1.305 . S
O69 Zn63 1.920 . S
O69 C82 1.234 . S
C70 O75 1.167 . S
C70 O76 1.299 . S
O71 Zn65 2.114 . S
O71 C66 1.166 . S
O72 Zn64 1.905 . S
O72 C66 1.182 . S
O73 Zn64 1.898 . S
O73 C67 1.167 . S
O74 Zn65 2.120 . S
O74 C67 1.299 . S
O75 Zn63 1.898 . S
O75 C70 1.167 . S
O76 Zn65 2.120 . S
O76 C70 1.299 . S
O77 Zn65 2.114 . S
O77 C79 1.166 . S
O78 Zn63 1.905 . S
O78 C79 1.182 . S
C79 O77 1.166 . S
C79 O78 1.182 . S
O80 Zn65 2.080 . S
O80 C83 1.305 . S
O81 Zn64 1.920 . S
O81 C83 1.234 . S
C82 O68 1.305 . S
C82 O69 1.234 . S
C83 O80 1.305 . S
C83 O81 1.234 . S
P84 O95 1.490 . S
P84 C98 1.812 . S
P84 C104 1.803 . S
P84 C110 1.819 . S
H85 C99 0.941 . S
H86 C100 0.939 . S
H87 C102 0.940 . S
H88 C103 0.940 . S
H89 C105 0.939 . S
H90 C106 0.942 . S
H91 C108 0.940 . S
H92 C109 0.939 . S
H93 C111 0.941 . S
H94 C115 0.939 . S
O95 P84 1.490 . S
H96 C112 0.939 . S
H97 C114 0.940 . S
C98 P84 1.812 . S
C98 C99 1.389 1_545 S
C98 C103 1.391 . S
C99 H85 0.941 . S
C99 C98 1.389 1_565 S
C99 C100 1.397 . S
C100 H86 0.939 . S
C100 C99 1.397 . S
C100 C101 1.378 . S
C101 C100 1.378 . S
C101 C102 1.378 . S
C102 H87 0.940 . S
C102 C101 1.378 . S
C102 C103 1.396 1_565 S
C103 H88 0.940 . S
C103 C98 1.391 . S
C103 C102 1.396 1_545 S
C104 P84 1.803 . S
C104 C105 1.378 . S
C104 C109 1.400 . S
C105 H89 0.939 . S
C105 C104 1.378 . S
C105 C106 1.361 . S
C106 H90 0.942 . S
C106 C105 1.361 . S
C106 C107 1.369 . S
C107 C106 1.369 . S
C107 C108 1.404 . S
C108 H91 0.940 . S
C108 C107 1.404 . S
C108 C109 1.389 . S
C109 H92 0.939 . S
C109 C104 1.400 . S
C109 C108 1.389 . S
C110 P84 1.819 . S
C110 C111 1.391 1_455 S
C110 C115 1.391 . S
C111 H93 0.941 . S
C111 C110 1.391 1_655 S
C111 C112 1.396 . S
C112 H96 0.939 . S
C112 C111 1.396 . S
C112 C113 1.397 . S
C113 C112 1.397 . S
C113 C114 1.385 1_655 S
C114 H97 0.940 . S
C114 C113 1.385 1_455 S
C114 C115 1.388 . S
C115 H94 0.939 . S
C115 C110 1.391 . S
C115 C114 1.388 . S
P116 O127 1.490 . S
P116 C130 1.812 . S
P116 C136 1.803 . S
P116 C142 1.819 . S
H117 C131 0.941 . S
H118 C132 0.939 . S
H119 C134 0.940 . S
H120 C135 0.940 . S
H121 C137 0.939 . S
H122 C138 0.942 . S
H123 C140 0.940 . S
H124 C141 0.939 . S
H125 C143 0.941 . S
H126 C147 0.939 . S
O127 P116 1.490 . S
H128 C144 0.939 . S
H129 C146 0.940 . S
C130 P116 1.812 . S
C130 C131 1.389 . S
C130 C135 1.391 . S
C131 H117 0.941 . S
C131 C130 1.389 . S
C131 C132 1.397 . S
C132 H118 0.939 . S
C132 C131 1.397 . S
C132 C133 1.378 . S
C133 C132 1.378 . S
C133 C134 1.378 . S
C134 H119 0.940 . S
C134 C133 1.378 . S
C134 C135 1.396 . S
C135 H120 0.940 . S
C135 C130 1.391 . S
C135 C134 1.396 . S
C136 P116 1.803 . S
C136 C137 1.378 1_556 S
C136 C141 1.400 . S
C137 H121 0.939 . S
C137 C136 1.378 1_554 S
C137 C138 1.361 . S
C138 H122 0.942 . S
C138 C137 1.361 . S
C138 C139 1.369 1_554 S
C139 C138 1.369 1_556 S
C139 C140 1.404 . S
C140 H123 0.940 . S
C140 C139 1.404 . S
C140 C141 1.389 . S
C141 H124 0.939 . S
C141 C136 1.400 . S
C141 C140 1.389 . S
C142 P116 1.819 . S
C142 C143 1.391 . S
C142 C147 1.391 . S
C143 H125 0.941 . S
C143 C142 1.391 . S
C143 C144 1.396 . S
C144 H128 0.939 . S
C144 C143 1.396 . S
C144 C145 1.397 . S
C145 C144 1.397 . S
C145 C146 1.385 . S
C146 H129 0.940 . S
C146 C145 1.385 . S
C146 C147 1.388 . S
C147 H126 0.939 . S
C147 C142 1.391 . S
C147 C146 1.388 . S
P148 O159 1.490 . S
P148 C162 1.812 . S
P148 C168 1.803 . S
P148 C174 1.819 . S
H149 C163 0.941 . S
H150 C164 0.939 . S
H151 C166 0.940 1_556 S
H152 C167 0.940 . S
H153 C169 0.939 . S
H154 C170 0.942 . S
H155 C172 0.940 . S
H156 C173 0.939 . S
H157 C175 0.941 . S
H158 C179 0.939 . S
O159 P148 1.490 . S
H160 C176 0.939 . S
H161 C178 0.940 . S
C162 P148 1.812 . S
C162 C163 1.389 1_565 S
C162 C167 1.391 . S
C163 H149 0.941 . S
C163 C162 1.389 1_545 S
C163 C164 1.397 . S
C164 H150 0.939 . S
C164 C163 1.397 . S
C164 C165 1.378 . S
C165 C164 1.378 . S
C165 C166 1.378 1_545 S
C166 H151 0.940 1_554 S
C166 C165 1.378 1_565 S
C166 C167 1.396 . S
C167 H152 0.940 . S
C167 C162 1.391 . S
C167 C166 1.396 . S
C168 P148 1.803 . S
C168 C169 1.378 . S
C168 C173 1.400 . S
C169 H153 0.939 . S
C169 C168 1.378 . S
C169 C170 1.361 . S
C170 H154 0.942 . S
C170 C169 1.361 . S
C170 C171 1.369 . S
C171 C170 1.369 . S
C171 C172 1.404 . S
C172 H155 0.940 . S
C172 C171 1.404 . S
C172 C173 1.389 . S
C173 H156 0.939 . S
C173 C168 1.400 . S
C173 C172 1.389 . S
C174 P148 1.819 . S
C174 C175 1.391 . S
C174 C179 1.391 . S
C175 H157 0.941 . S
C175 C174 1.391 . S
C175 C176 1.396 . S
C176 H160 0.939 . S
C176 C175 1.396 . S
C176 C177 1.397 . S
C177 C176 1.397 . S
C177 C178 1.385 . S
C178 H161 0.940 . S
C178 C177 1.385 . S
C178 C179 1.388 . S
C179 H158 0.939 . S
C179 C174 1.391 . S
C179 C178 1.388 . S
P180 O191 1.490 . S
P180 C194 1.812 . S
P180 C200 1.803 . S
P180 C206 1.819 . S
H181 C195 0.941 . S
H182 C196 0.939 . S
H183 C198 0.940 . S
H184 C199 0.940 . S
H185 C201 0.939 . S
H186 C202 0.942 . S
H187 C204 0.940 . S
H188 C205 0.939 . S
H189 C207 0.941 . S
H190 C211 0.939 . S
O191 P180 1.490 . S
H192 C208 0.939 . S
H193 C210 0.940 . S
C194 P180 1.812 . S
C194 C195 1.389 . S
C194 C199 1.391 . S
C195 H181 0.941 . S
C195 C194 1.389 . S
C195 C196 1.397 . S
C196 H182 0.939 . S
C196 C195 1.397 . S
C196 C197 1.378 . S
C197 C196 1.378 . S
C197 C198 1.378 . S
C198 H183 0.940 . S
C198 C197 1.378 . S
C198 C199 1.396 . S
C199 H184 0.940 . S
C199 C194 1.391 . S
C199 C198 1.396 . S
C200 P180 1.803 . S
C200 C201 1.378 . S
C200 C205 1.400 . S
C201 H185 0.939 . S
C201 C200 1.378 . S
C201 C202 1.361 . S
C202 H186 0.942 . S
C202 C201 1.361 . S
C202 C203 1.369 . S
C203 C202 1.369 . S
C203 C204 1.404 . S
C204 H187 0.940 . S
C204 C203 1.404 . S
C204 C205 1.389 . S
C205 H188 0.939 . S
C205 C200 1.400 . S
C205 C204 1.389 . S
C206 P180 1.819 . S
C206 C207 1.391 . S
C206 C211 1.391 . S
C207 H189 0.941 . S
C207 C206 1.391 . S
C207 C208 1.396 . S
C208 H192 0.939 . S
C208 C207 1.396 . S
C208 C209 1.397 . S
C209 C208 1.397 . S
C209 C210 1.385 . S
C210 H193 0.940 . S
C210 C209 1.385 . S
C210 C211 1.388 . S
C211 H190 0.939 . S
C211 C206 1.391 . S
C211 C210 1.388 . S
P212 O223 1.490 . S
P212 C226 1.812 . S
P212 C232 1.803 . S
P212 C238 1.819 . S
H213 C227 0.941 . S
H214 C228 0.939 . S
H215 C230 0.940 . S
H216 C231 0.940 . S
H217 C233 0.939 . S
H218 C234 0.942 1_556 S
H219 C236 0.940 . S
H220 C237 0.939 . S
H221 C239 0.941 . S
H222 C243 0.939 . S
O223 P212 1.490 . S
H224 C240 0.939 . S
H225 C242 0.940 . S
C226 P212 1.812 . S
C226 C227 1.389 . S
C226 C231 1.391 . S
C227 H213 0.941 . S
C227 C226 1.389 . S
C227 C228 1.397 . S
C228 H214 0.939 . S
C228 C227 1.397 . S
C228 C229 1.378 . S
C229 C228 1.378 . S
C229 C230 1.378 . S
C230 H215 0.940 . S
C230 C229 1.378 . S
C230 C231 1.396 . S
C231 H216 0.940 . S
C231 C226 1.391 . S
C231 C230 1.396 . S
C232 P212 1.803 . S
C232 C233 1.378 . S
C232 C237 1.400 . S
C233 H217 0.939 . S
C233 C232 1.378 . S
C233 C234 1.361 . S
C234 H218 0.942 1_554 S
C234 C233 1.361 . S
C234 C235 1.369 . S
C235 C234 1.369 . S
C235 C236 1.404 . S
C236 H219 0.940 . S
C236 C235 1.404 . S
C236 C237 1.389 . S
C237 H220 0.939 . S
C237 C232 1.400 . S
C237 C236 1.389 . S
C238 P212 1.819 . S
C238 C239 1.391 . S
C238 C243 1.391 . S
C239 H221 0.941 . S
C239 C238 1.391 . S
C239 C240 1.396 . S
C240 H224 0.939 . S
C240 C239 1.396 . S
C240 C241 1.397 . S
C241 C240 1.397 . S
C241 C242 1.385 . S
C242 H225 0.940 . S
C242 C241 1.385 . S
C242 C243 1.388 . S
C243 H222 0.939 . S
C243 C238 1.391 . S
C243 C242 1.388 . S
P244 O255 1.490 . S
P244 C258 1.812 . S
P244 C264 1.803 1_554 S
P244 C270 1.819 . S
H245 C259 0.941 . S
H246 C260 0.939 . S
H247 C262 0.940 . S
H248 C263 0.940 . S
H249 C265 0.939 . S
H250 C266 0.942 . S
H251 C268 0.940 . S
H252 C269 0.939 . S
H253 C271 0.941 . S
H254 C275 0.939 . S
O255 P244 1.490 . S
H256 C272 0.939 . S
H257 C274 0.940 . S
C258 P244 1.812 . S
C258 C259 1.389 . S
C258 C263 1.391 1_554 S
C259 H245 0.941 . S
C259 C258 1.389 . S
C259 C260 1.397 . S
C260 H246 0.939 . S
C260 C259 1.397 . S
C260 C261 1.378 . S
C261 C260 1.378 . S
C261 C262 1.378 1_554 S
C262 H247 0.940 . S
C262 C261 1.378 1_556 S
C262 C263 1.396 . S
C263 H248 0.940 . S
C263 C258 1.391 1_556 S
C263 C262 1.396 . S
C264 P244 1.803 1_556 S
C264 C265 1.378 . S
C264 C269 1.400 . S
C265 H249 0.939 . S
C265 C264 1.378 . S
C265 C266 1.361 . S
C266 H250 0.942 . S
C266 C265 1.361 . S
C266 C267 1.369 . S
C267 C266 1.369 . S
C267 C268 1.404 . S
C268 H251 0.940 . S
C268 C267 1.404 . S
C268 C269 1.389 . S
C269 H252 0.939 . S
C269 C264 1.400 . S
C269 C268 1.389 . S
C270 P244 1.819 . S
C270 C271 1.391 . S
C270 C275 1.391 1_554 S
C271 H253 0.941 . S
C271 C270 1.391 . S
C271 C272 1.396 . S
C272 H256 0.939 . S
C272 C271 1.396 . S
C272 C273 1.397 1_554 S
C273 C272 1.397 1_556 S
C273 C274 1.385 . S
C274 H257 0.940 . S
C274 C273 1.385 . S
C274 C275 1.388 . S
C275 H254 0.939 . S
C275 C270 1.391 1_556 S
C275 C274 1.388 . S
P276 O287 1.490 . S
P276 C290 1.812 . S
P276 C296 1.803 . S
P276 C302 1.819 . S
H277 C291 0.941 . S
H278 C292 0.939 . S
H279 C294 0.940 . S
H280 C295 0.940 . S
H281 C297 0.939 . S
H282 C298 0.942 . S
H283 C300 0.940 . S
H284 C301 0.939 . S
H285 C303 0.941 . S
H286 C307 0.939 . S
O287 P276 1.490 . S
H288 C304 0.939 . S
H289 C306 0.940 . S
C290 P276 1.812 . S
C290 C291 1.389 . S
C290 C295 1.391 . S
C291 H277 0.941 . S
C291 C290 1.389 . S
C291 C292 1.397 . S
C292 H278 0.939 . S
C292 C291 1.397 . S
C292 C293 1.378 . S
C293 C292 1.378 . S
C293 C294 1.378 . S
C294 H279 0.940 . S
C294 C293 1.378 . S
C294 C295 1.396 . S
C295 H280 0.940 . S
C295 C290 1.391 . S
C295 C294 1.396 . S
C296 P276 1.803 . S
C296 C297 1.378 . S
C296 C301 1.400 . S
C297 H281 0.939 . S
C297 C296 1.378 . S
C297 C298 1.361 . S
C298 H282 0.942 . S
C298 C297 1.361 . S
C298 C299 1.369 . S
C299 C298 1.369 . S
C299 C300 1.404 . S
C300 H283 0.940 . S
C300 C299 1.404 . S
C300 C301 1.389 . S
C301 H284 0.939 . S
C301 C296 1.400 . S
C301 C300 1.389 . S
C302 P276 1.819 . S
C302 C303 1.391 . S
C302 C307 1.391 . S
C303 H285 0.941 . S
C303 C302 1.391 . S
C303 C304 1.396 . S
C304 H288 0.939 . S
C304 C303 1.396 . S
C304 C305 1.397 . S
C305 C304 1.397 . S
C305 C306 1.385 . S
C306 H289 0.940 . S
C306 C305 1.385 . S
C306 C307 1.388 . S
C307 H286 0.939 . S
C307 C302 1.391 . S
C307 C306 1.388 . S
P308 O319 1.490 . S
P308 C322 1.812 . S
P308 C328 1.803 . S
P308 C334 1.819 . S
H309 C323 0.941 . S
H310 C324 0.939 . S
H311 C326 0.940 . S
H312 C327 0.940 . S
H313 C329 0.939 . S
H314 C330 0.942 . S
H315 C332 0.940 . S
H316 C333 0.939 . S
H317 C335 0.941 . S
H318 C339 0.939 . S
O319 P308 1.490 . S
H320 C336 0.939 . S
H321 C338 0.940 . S
C322 P308 1.812 . S
C322 C323 1.389 . S
C322 C327 1.391 . S
C323 H309 0.941 . S
C323 C322 1.389 . S
C323 C324 1.397 . S
C324 H310 0.939 . S
C324 C323 1.397 . S
C324 C325 1.378 1_565 S
C325 C324 1.378 1_545 S
C325 C326 1.378 1_545 S
C326 H311 0.940 . S
C326 C325 1.378 1_565 S
C326 C327 1.396 . S
C327 H312 0.940 . S
C327 C322 1.391 . S
C327 C326 1.396 . S
C328 P308 1.803 . S
C328 C329 1.378 . S
C328 C333 1.400 . S
C329 H313 0.939 . S
C329 C328 1.378 . S
C329 C330 1.361 . S
C330 H314 0.942 . S
C330 C329 1.361 . S
C330 C331 1.369 . S
C331 C330 1.369 . S
C331 C332 1.404 . S
C332 H315 0.940 . S
C332 C331 1.404 . S
C332 C333 1.389 . S
C333 H316 0.939 . S
C333 C328 1.400 . S
C333 C332 1.389 . S
C334 P308 1.819 . S
C334 C335 1.391 . S
C334 C339 1.391 . S
C335 H317 0.941 . S
C335 C334 1.391 . S
C335 C336 1.396 1_655 S
C336 H320 0.939 . S
C336 C335 1.396 1_455 S
C336 C337 1.397 . S
C337 C336 1.397 . S
C337 C338 1.385 . S
C338 H321 0.940 . S
C338 C337 1.385 . S
C338 C339 1.388 1_455 S
C339 H318 0.939 . S
C339 C334 1.391 . S
C339 C338 1.388 1_655 S
C7 C101 1.123 . S
C25 C133 1.496 . S
C46 C165 1.724 . S
C209 C70 2.013 . S
C229 C28 0.999 . S
C49 C273 2.029 1_655 S
C67 C293 1.684 . S
C4 C337 1.247 . S
C58 C325 1.760 . S
C241 C66 1.874 . S
C261 C3 2.932 1_544 S
C37 C305 1.936 . S
C145 C79 1.977 . S
C16 C177 1.970 1_455 S
C197 C24 2.891 . S
C113 C45 1.822 . S
C299 C19 1.323 . S
C331 C41 1.345 . S
C62 C235 1.829 . S
C267 C82 1.505 . S
C171 C40 1.350 . S
C61 C203 1.460 . S
C107 C83 1.894 . S
C139 C20 1.765 . S
