# Generated by pormake.
# Topology eea, (3,6)-cn, num edge types: 1
# Building blocks:
#     Node 0, Type 0, BuildingBlock: QEWDON_clean_linker_0, # of connection points: 3
#     Node 1, Type 0, BuildingBlock: QEWDON_clean_linker_0, # of connection points: 3
#     Node 2, Type 0, BuildingBlock: QEWDON_clean_linker_0, # of connection points: 3
#     Node 3, Type 0, BuildingBlock: QEWDON_clean_linker_0, # of connection points: 3
#     Node 4, Type 0, BuildingBlock: QEWDON_clean_linker_0, # of connection points: 3
#     Node 5, Type 0, BuildingBlock: QEWDON_clean_linker_0, # of connection points: 3
#     Node 6, Type 0, BuildingBlock: QEWDON_clean_linker_0, # of connection points: 3
#     Node 7, Type 0, BuildingBlock: QEWDON_clean_linker_0, # of connection points: 3
#     Node 8, Type 0, BuildingBlock: QEWDON_clean_linker_0, # of connection points: 3
#     Node 9, Type 0, BuildingBlock: QEWDON_clean_linker_0, # of connection points: 3
#     Node 10, Type 0, BuildingBlock: QEWDON_clean_linker_0, # of connection points: 3
#     Node 11, Type 0, BuildingBlock: QEWDON_clean_linker_0, # of connection points: 3
#     Node 12, Type 0, BuildingBlock: QEWDON_clean_linker_0, # of connection points: 3
#     Node 13, Type 0, BuildingBlock: QEWDON_clean_linker_0, # of connection points: 3
#     Node 14, Type 0, BuildingBlock: QEWDON_clean_linker_0, # of connection points: 3
#     Node 15, Type 0, BuildingBlock: QEWDON_clean_linker_0, # of connection points: 3
#     Node 16, Type 0, BuildingBlock: QEWDON_clean_linker_0, # of connection points: 3
#     Node 17, Type 0, BuildingBlock: QEWDON_clean_linker_0, # of connection points: 3
#     Node 18, Type 1, BuildingBlock: KUMJIN_clean_sbu_0, # of connection points: 6
#     Node 19, Type 1, BuildingBlock: KUMJIN_clean_sbu_0, # of connection points: 6
#     Node 20, Type 1, BuildingBlock: KUMJIN_clean_sbu_0, # of connection points: 6
#     Node 21, Type 1, BuildingBlock: KUMJIN_clean_sbu_0, # of connection points: 6
#     Node 22, Type 1, BuildingBlock: KUMJIN_clean_sbu_0, # of connection points: 6
#     Node 23, Type 1, BuildingBlock: KUMJIN_clean_sbu_0, # of connection points: 6
#     Node 24, Type 1, BuildingBlock: KUMJIN_clean_sbu_0, # of connection points: 6
#     Node 25, Type 1, BuildingBlock: KUMJIN_clean_sbu_0, # of connection points: 6
#     Node 26, Type 1, BuildingBlock: KUMJIN_clean_sbu_0, # of connection points: 6
#     Edge 27, Type (0, 1), BuildingBlock: MIFKUJ_clean_linker_0, # of connection points: 2
#     Edge 28, Type (0, 1), BuildingBlock: MIFKUJ_clean_linker_0, # of connection points: 2
#     Edge 29, Type (0, 1), BuildingBlock: MIFKUJ_clean_linker_0, # of connection points: 2
#     Edge 30, Type (0, 1), BuildingBlock: MIFKUJ_clean_linker_0, # of connection points: 2
#     Edge 31, Type (0, 1), BuildingBlock: MIFKUJ_clean_linker_0, # of connection points: 2
#     Edge 32, Type (0, 1), BuildingBlock: MIFKUJ_clean_linker_0, # of connection points: 2
#     Edge 33, Type (0, 1), BuildingBlock: MIFKUJ_clean_linker_0, # of connection points: 2
#     Edge 34, Type (0, 1), BuildingBlock: MIFKUJ_clean_linker_0, # of connection points: 2
#     Edge 35, Type (0, 1), BuildingBlock: MIFKUJ_clean_linker_0, # of connection points: 2
#     Edge 36, Type (0, 1), BuildingBlock: MIFKUJ_clean_linker_0, # of connection points: 2
#     Edge 37, Type (0, 1), BuildingBlock: MIFKUJ_clean_linker_0, # of connection points: 2
#     Edge 38, Type (0, 1), BuildingBlock: MIFKUJ_clean_linker_0, # of connection points: 2
#     Edge 39, Type (0, 1), BuildingBlock: MIFKUJ_clean_linker_0, # of connection points: 2
#     Edge 40, Type (0, 1), BuildingBlock: MIFKUJ_clean_linker_0, # of connection points: 2
#     Edge 41, Type (0, 1), BuildingBlock: MIFKUJ_clean_linker_0, # of connection points: 2
#     Edge 42, Type (0, 1), BuildingBlock: MIFKUJ_clean_linker_0, # of connection points: 2
#     Edge 43, Type (0, 1), BuildingBlock: MIFKUJ_clean_linker_0, # of connection points: 2
#     Edge 44, Type (0, 1), BuildingBlock: MIFKUJ_clean_linker_0, # of connection points: 2
#     Edge 45, Type (0, 1), BuildingBlock: MIFKUJ_clean_linker_0, # of connection points: 2
#     Edge 46, Type (0, 1), BuildingBlock: MIFKUJ_clean_linker_0, # of connection points: 2
#     Edge 47, Type (0, 1), BuildingBlock: MIFKUJ_clean_linker_0, # of connection points: 2
#     Edge 48, Type (0, 1), BuildingBlock: MIFKUJ_clean_linker_0, # of connection points: 2
#     Edge 49, Type (0, 1), BuildingBlock: MIFKUJ_clean_linker_0, # of connection points: 2
#     Edge 50, Type (0, 1), BuildingBlock: MIFKUJ_clean_linker_0, # of connection points: 2
#     Edge 51, Type (0, 1), BuildingBlock: MIFKUJ_clean_linker_0, # of connection points: 2
#     Edge 52, Type (0, 1), BuildingBlock: MIFKUJ_clean_linker_0, # of connection points: 2
#     Edge 53, Type (0, 1), BuildingBlock: MIFKUJ_clean_linker_0, # of connection points: 2
#     Edge 54, Type (0, 1), BuildingBlock: MIFKUJ_clean_linker_0, # of connection points: 2
#     Edge 55, Type (0, 1), BuildingBlock: MIFKUJ_clean_linker_0, # of connection points: 2
#     Edge 56, Type (0, 1), BuildingBlock: MIFKUJ_clean_linker_0, # of connection points: 2
#     Edge 57, Type (0, 1), BuildingBlock: MIFKUJ_clean_linker_0, # of connection points: 2
#     Edge 58, Type (0, 1), BuildingBlock: MIFKUJ_clean_linker_0, # of connection points: 2
#     Edge 59, Type (0, 1), BuildingBlock: MIFKUJ_clean_linker_0, # of connection points: 2
#     Edge 60, Type (0, 1), BuildingBlock: MIFKUJ_clean_linker_0, # of connection points: 2
#     Edge 61, Type (0, 1), BuildingBlock: MIFKUJ_clean_linker_0, # of connection points: 2
#     Edge 62, Type (0, 1), BuildingBlock: MIFKUJ_clean_linker_0, # of connection points: 2
#     Edge 63, Type (0, 1), BuildingBlock: MIFKUJ_clean_linker_0, # of connection points: 2
#     Edge 64, Type (0, 1), BuildingBlock: MIFKUJ_clean_linker_0, # of connection points: 2
#     Edge 65, Type (0, 1), BuildingBlock: MIFKUJ_clean_linker_0, # of connection points: 2
#     Edge 66, Type (0, 1), BuildingBlock: MIFKUJ_clean_linker_0, # of connection points: 2
#     Edge 67, Type (0, 1), BuildingBlock: MIFKUJ_clean_linker_0, # of connection points: 2
#     Edge 68, Type (0, 1), BuildingBlock: MIFKUJ_clean_linker_0, # of connection points: 2
#     Edge 69, Type (0, 1), BuildingBlock: MIFKUJ_clean_linker_0, # of connection points: 2
#     Edge 70, Type (0, 1), BuildingBlock: MIFKUJ_clean_linker_0, # of connection points: 2
#     Edge 71, Type (0, 1), BuildingBlock: MIFKUJ_clean_linker_0, # of connection points: 2
#     Edge 72, Type (0, 1), BuildingBlock: MIFKUJ_clean_linker_0, # of connection points: 2
#     Edge 73, Type (0, 1), BuildingBlock: MIFKUJ_clean_linker_0, # of connection points: 2
#     Edge 74, Type (0, 1), BuildingBlock: MIFKUJ_clean_linker_0, # of connection points: 2
#     Edge 75, Type (0, 1), BuildingBlock: MIFKUJ_clean_linker_0, # of connection points: 2
#     Edge 76, Type (0, 1), BuildingBlock: MIFKUJ_clean_linker_0, # of connection points: 2
#     Edge 77, Type (0, 1), BuildingBlock: MIFKUJ_clean_linker_0, # of connection points: 2
#     Edge 78, Type (0, 1), BuildingBlock: MIFKUJ_clean_linker_0, # of connection points: 2
#     Edge 79, Type (0, 1), BuildingBlock: MIFKUJ_clean_linker_0, # of connection points: 2
#     Edge 80, Type (0, 1), BuildingBlock: MIFKUJ_clean_linker_0, # of connection points: 2
# Relax obj value: 0.043
# Max RMSD: 0.201
# Mean RMSD: 0.144
data_MOF--net-eea--node1-KUMJIN_clean_sbu_0--node2-QEWDON_clean_linker_0--edge1-MIFKUJ_clean_linker_0
_symmetry_space_group_name_H-M    P1
_symmetry_Int_Tables_number       1
_symmetry_cell_setting            triclinic
loop_
_symmetry_equiv_pos_as_xyz
'x, y, z'
_cell_length_a     75.298481
_cell_length_b     76.703337
_cell_length_c     78.823733
_cell_angle_alpha  90.228018
_cell_angle_beta   90.283843
_cell_angle_gamma 119.99818
loop_
_atom_site_label
_atom_site_type_symbol
_atom_site_fract_x
_atom_site_fract_y
_atom_site_fract_z
_atom_type_partial_charge
H0 H 0.20043 0.11209 0.42895 0.0
C1 C 0.20216 0.10094 0.42179 0.0
C2 C 0.21533 0.09428 0.42784 0.0
C3 C 0.19022 0.09242 0.4071 0.0
H4 H 0.22651 0.07371 0.42354 0.0
C5 C 0.21659 0.07907 0.41883 0.0
C6 C 0.2047 0.07025 0.40415 0.0
C7 C 0.19175 0.07727 0.39827 0.0
C8 C 0.17509 0.09834 0.40161 0.0
H9 H 0.18273 0.07088 0.38682 0.0
C10 C 0.18037 0.11874 0.40108 0.0
C11 C 0.16574 0.12415 0.39626 0.0
C12 C 0.15501 0.08342 0.39723 0.0
H13 H 0.15043 0.06761 0.39774 0.0
C14 C 0.14048 0.08871 0.39247 0.0
H15 H 0.19582 0.13036 0.40441 0.0
C16 C 0.14576 0.1089 0.39198 0.0
H17 H 0.13426 0.11261 0.38796 0.0
H18 H 0.12506 0.0771 0.38912 0.0
H19 H 0.89807 0.09786 0.42157 0.0
C20 C 0.91026 0.11131 0.41581 0.0
C21 C 0.91766 0.13002 0.42405 0.0
C22 C 0.91939 0.10971 0.40079 0.0
H23 H 0.93954 0.16177 0.42305 0.0
C24 C 0.93411 0.1473 0.4169 0.0
C25 C 0.94357 0.14613 0.40195 0.0
C26 C 0.93588 0.12729 0.39388 0.0
C27 C 0.91294 0.08959 0.39302 0.0
H28 H 0.94315 0.12619 0.38243 0.0
C29 C 0.89207 0.07433 0.39189 0.0
C30 C 0.88645 0.05553 0.38427 0.0
C31 C 0.92799 0.08548 0.38684 0.0
H32 H 0.94414 0.09653 0.38793 0.0
C33 C 0.92249 0.06692 0.37945 0.0
H34 H 0.88024 0.07721 0.39649 0.0
C35 C 0.90193 0.05209 0.37812 0.0
H36 H 0.89815 0.03773 0.37247 0.0
H37 H 0.93425 0.06397 0.37481 0.0
H38 H 0.92112 0.80857 0.42405 0.0
C39 C 0.90776 0.80749 0.41781 0.0
C40 C 0.88851 0.79726 0.42586 0.0
C41 C 0.91012 0.81761 0.40235 0.0
H42 H 0.85657 0.7888 0.42386 0.0
C43 C 0.87152 0.79701 0.41803 0.0
C44 C 0.87345 0.80729 0.40283 0.0
C45 C 0.89269 0.81704 0.39487 0.0
C46 C 0.93103 0.83083 0.39503 0.0
H47 H 0.89427 0.82494 0.38312 0.0
C48 C 0.94664 0.82551 0.39503 0.0
C49 C 0.96637 0.83892 0.38846 0.0
C50 C 0.93565 0.84965 0.38841 0.0
H51 H 0.92451 0.85464 0.38866 0.0
C52 C 0.95482 0.8626 0.38166 0.0
H53 H 0.94354 0.8112 0.40019 0.0
C54 C 0.96998 0.85732 0.38162 0.0
H55 H 0.98466 0.86773 0.3761 0.0
H56 H 0.958 0.87694 0.37652 0.0
H57 H 0.11732 0.19615 0.6001 0.0
C58 C 0.10467 0.19689 0.60584 0.0
C59 C 0.09651 0.20769 0.59766 0.0
C60 C 0.09621 0.18669 0.62114 0.0
H61 H 0.07291 0.21581 0.59826 0.0
C62 C 0.07948 0.20789 0.60474 0.0
C63 C 0.07062 0.19776 0.61989 0.0
C64 C 0.07946 0.18769 0.62819 0.0
C65 C 0.10347 0.17358 0.62917 0.0
H66 H 0.07279 0.18004 0.63997 0.0
C67 C 0.12442 0.17866 0.62946 0.0
C68 C 0.13044 0.16566 0.63716 0.0
C69 C 0.08886 0.15526 0.63648 0.0
H70 H 0.07266 0.15035 0.636 0.0
C71 C 0.09476 0.14276 0.64438 0.0
H72 H 0.13591 0.19252 0.62371 0.0
C73 C 0.11527 0.14794 0.64487 0.0
H74 H 0.11923 0.13795 0.65142 0.0
H75 H 0.08331 0.12889 0.65014 0.0
H76 H 0.83253 0.92955 0.59482 0.0
C77 C 0.83105 0.91594 0.60028 0.0
C78 C 0.81948 0.89746 0.59171 0.0
C79 C 0.84143 0.91706 0.61547 0.0
H80 H 0.80979 0.86587 0.59171 0.0
C81 C 0.81841 0.88002 0.59849 0.0
C82 C 0.82832 0.88072 0.61386 0.0
C83 C 0.83956 0.89933 0.62231 0.0
C84 C 0.85492 0.93674 0.62396 0.0
H85 H 0.84681 0.90009 0.63441 0.0
C86 C 0.84877 0.95124 0.62588 0.0
C87 C 0.86146 0.96947 0.63455 0.0
C88 C 0.87415 0.941 0.63041 0.0
H89 H 0.87949 0.93034 0.62884 0.0
C90 C 0.88683 0.95912 0.63881 0.0
H91 H 0.83391 0.9481 0.62116 0.0
C92 C 0.88052 0.97324 0.64096 0.0
H93 H 0.89065 0.98724 0.64751 0.0
H94 H 0.9016 0.96223 0.64369 0.0
H95 H 0.08975 0.89004 0.59747 0.0
C96 C 0.10287 0.90308 0.60303 0.0
C97 C 0.12241 0.91021 0.59593 0.0
C98 C 0.10016 0.91313 0.61693 0.0
H99 H 0.15419 0.93359 0.59695 0.0
C100 C 0.13922 0.92769 0.60269 0.0
C101 C 0.13693 0.93799 0.61646 0.0
C102 C 0.11748 0.93034 0.62378 0.0
C103 C 0.0792 0.90689 0.62345 0.0
H104 H 0.11574 0.93826 0.63446 0.0
C105 C 0.06376 0.88639 0.62487 0.0
C106 C 0.04399 0.88109 0.63085 0.0
C107 C 0.07443 0.92184 0.62797 0.0
H108 H 0.08555 0.93767 0.62658 0.0
C109 C 0.05514 0.91669 0.63411 0.0
H110 H 0.06707 0.87467 0.62131 0.0
C111 C 0.04011 0.89657 0.63564 0.0
H112 H 0.02541 0.89316 0.64076 0.0
H113 H 0.05181 0.92839 0.63768 0.0
H114 H 0.86907 0.4481 0.7561 0.0
C115 C 0.87149 0.43652 0.75054 0.0
C116 C 0.8828 0.42946 0.75956 0.0
C117 C 0.86237 0.42792 0.73476 0.0
H118 H 0.89446 0.40885 0.75901 0.0
C119 C 0.88525 0.41397 0.75242 0.0
C120 C 0.87598 0.40494 0.73689 0.0
C121 C 0.86485 0.41223 0.72804 0.0
C122 C 0.8495 0.43454 0.72549 0.0
H123 H 0.85772 0.40536 0.71601 0.0
C124 C 0.8554 0.45509 0.72433 0.0
C125 C 0.84366 0.46108 0.71461 0.0
C126 C 0.83129 0.42016 0.7173 0.0
H127 H 0.82598 0.40422 0.7183 0.0
C128 C 0.81964 0.42613 0.70776 0.0
H129 H 0.86936 0.46644 0.73049 0.0
C130 C 0.82586 0.44647 0.70628 0.0
H131 H 0.81661 0.45083 0.69881 0.0
H132 H 0.80574 0.41493 0.70147 0.0
H133 H 0.57265 0.42915 0.75824 0.0
C134 C 0.58511 0.442 0.75204 0.0
C135 C 0.59241 0.46141 0.75887 0.0
C136 C 0.59426 0.439 0.73765 0.0
H137 H 0.61501 0.4929 0.75647 0.0
C138 C 0.60886 0.47799 0.75096 0.0
C139 C 0.61833 0.47536 0.73663 0.0
C140 C 0.61085 0.45584 0.73002 0.0
C141 C 0.58768 0.41821 0.73143 0.0
H142 H 0.61803 0.45379 0.7189 0.0
C143 C 0.56675 0.40306 0.73059 0.0
C144 C 0.56104 0.38326 0.72543 0.0
C145 C 0.60266 0.41325 0.72684 0.0
H146 H 0.61883 0.42433 0.72764 0.0
C147 C 0.59705 0.3938 0.72157 0.0
H148 H 0.55498 0.40658 0.73406 0.0
C149 C 0.57645 0.37891 0.72089 0.0
H150 H 0.57255 0.36395 0.71664 0.0
H151 H 0.60875 0.39021 0.71809 0.0
H152 H 0.59174 0.14371 0.75282 0.0
C153 C 0.57826 0.14325 0.74743 0.0
C154 C 0.55928 0.13238 0.75578 0.0
C155 C 0.57994 0.15389 0.73239 0.0
H156 H 0.52755 0.1249 0.75574 0.0
C157 C 0.54203 0.13264 0.74911 0.0
C158 C 0.54318 0.14297 0.73415 0.0
C159 C 0.56202 0.15303 0.72564 0.0
C160 C 0.60043 0.16731 0.72438 0.0
H161 H 0.56283 0.16082 0.71399 0.0
C162 C 0.61648 0.16262 0.7241 0.0
C163 C 0.63566 0.17599 0.71657 0.0
C164 C 0.60414 0.18562 0.71721 0.0
H165 H 0.59277 0.1903 0.71773 0.0
C166 C 0.62266 0.19844 0.70942 0.0
H167 H 0.61416 0.1488 0.72974 0.0
C168 C 0.63817 0.19365 0.70896 0.0
H169 H 0.65224 0.20391 0.70254 0.0
H170 H 0.62506 0.21228 0.70376 0.0
H171 H 0.78233 0.5329 0.93569 0.0
C172 C 0.76971 0.53343 0.94172 0.0
C173 C 0.76099 0.54391 0.93388 0.0
C174 C 0.76177 0.52303 0.95701 0.0
H175 H 0.73671 0.55101 0.93514 0.0
C176 C 0.74415 0.54391 0.94158 0.0
C177 C 0.73612 0.53399 0.95701 0.0
C178 C 0.74525 0.52382 0.96469 0.0
C179 C 0.76917 0.50967 0.96408 0.0
H180 H 0.73939 0.51632 0.97668 0.0
C181 C 0.79017 0.51508 0.9641 0.0
C182 C 0.79625 0.50141 0.96996 0.0
C183 C 0.75464 0.49058 0.9702 0.0
H184 H 0.73842 0.48566 0.97004 0.0
C185 C 0.76066 0.47726 0.97619 0.0
H186 H 0.80165 0.52966 0.95943 0.0
C187 C 0.78123 0.48256 0.97603 0.0
H188 H 0.78547 0.47187 0.98076 0.0
H189 H 0.74927 0.46263 0.98082 0.0
H190 H 0.48504 0.25501 0.92776 0.0
C191 C 0.48459 0.24189 0.93332 0.0
C192 C 0.47114 0.22275 0.92653 0.0
C193 C 0.49772 0.24418 0.94696 0.0
H194 H 0.46069 0.19105 0.92797 0.0
C195 C 0.47094 0.2058 0.93336 0.0
C196 C 0.48422 0.20775 0.94673 0.0
C197 C 0.49735 0.22697 0.95363 0.0
C198 C 0.5126 0.26461 0.9536 0.0
H199 H 0.50761 0.22858 0.96397 0.0
C200 C 0.50684 0.27937 0.95592 0.0
C201 C 0.52122 0.29888 0.96169 0.0
C202 C 0.53292 0.26962 0.95726 0.0
H203 H 0.53794 0.25877 0.95535 0.0
C204 C 0.54715 0.28886 0.96308 0.0
H205 H 0.49124 0.27573 0.95316 0.0
C206 C 0.5414 0.3034 0.96526 0.0
H207 H 0.55273 0.31816 0.96994 0.0
H208 H 0.56274 0.29253 0.96585 0.0
H209 H 0.75413 0.22458 0.93381 0.0
C210 C 0.76744 0.23722 0.9396 0.0
C211 C 0.78683 0.24482 0.93203 0.0
C212 C 0.76514 0.2463 0.95437 0.0
H213 H 0.81843 0.26849 0.93279 0.0
C214 C 0.80384 0.26185 0.93923 0.0
C215 C 0.80202 0.27099 0.95409 0.0
C216 C 0.78267 0.26273 0.96174 0.0
C217 C 0.74446 0.23999 0.96154 0.0
H218 H 0.78115 0.26926 0.97346 0.0
C219 C 0.72895 0.21953 0.96283 0.0
C220 C 0.70968 0.21423 0.96998 0.0
C221 C 0.7402 0.25495 0.96718 0.0
H222 H 0.75143 0.27078 0.96595 0.0
C223 C 0.72142 0.24982 0.97439 0.0
H224 H 0.7319 0.20786 0.95835 0.0
C225 C 0.70637 0.22971 0.97594 0.0
H226 H 0.69214 0.22632 0.982 0.0
H227 H 0.71852 0.26152 0.97887 0.0
H228 H 0.53319 0.77882 0.09543 0.0
C229 C 0.53427 0.76653 0.08968 0.0
C230 C 0.54672 0.75994 0.09732 0.0
C231 C 0.52218 0.75645 0.07538 0.0
H232 H 0.55764 0.73891 0.09603 0.0
C233 C 0.54759 0.74357 0.09027 0.0
C234 C 0.53573 0.73326 0.07594 0.0
C235 C 0.52311 0.73991 0.06856 0.0
C236 C 0.50744 0.76217 0.06834 0.0
H237 H 0.51359 0.73191 0.0577 0.0
C238 C 0.51291 0.78255 0.06651 0.0
C239 C 0.49852 0.78773 0.06047 0.0
C240 C 0.48742 0.74709 0.06391 0.0
H241 H 0.48259 0.73131 0.06546 0.0
C242 C 0.47322 0.75217 0.05778 0.0
H243 H 0.52826 0.79434 0.06989 0.0
C244 C 0.47866 0.77231 0.05608 0.0
H245 H 0.46737 0.77583 0.05116 0.0
H246 H 0.45787 0.74043 0.05441 0.0
H247 H 0.24081 0.75926 0.09124 0.0
C248 C 0.25334 0.77224 0.08523 0.0
C249 C 0.26051 0.79156 0.09222 0.0
C250 C 0.26271 0.76956 0.07083 0.0
H251 H 0.28308 0.8231 0.09019 0.0
C252 C 0.27719 0.80823 0.08467 0.0
C253 C 0.28664 0.80591 0.07023 0.0
C254 C 0.27916 0.78658 0.06325 0.0
C255 C 0.25658 0.74895 0.06454 0.0
H256 H 0.28657 0.78472 0.05219 0.0
C257 C 0.23576 0.73394 0.06246 0.0
C258 C 0.23044 0.71455 0.05638 0.0
C259 C 0.27189 0.74416 0.06083 0.0
H260 H 0.28796 0.75521 0.06261 0.0
C261 C 0.26671 0.72498 0.05514 0.0
H262 H 0.22381 0.73751 0.06508 0.0
C263 C 0.24621 0.71029 0.05292 0.0
H264 H 0.24269 0.69547 0.04859 0.0
H265 H 0.27866 0.72145 0.05246 0.0
H266 H 0.2526 0.47063 0.08891 0.0
C267 C 0.23929 0.47064 0.08364 0.0
C268 C 0.22063 0.46109 0.09252 0.0
C269 C 0.2411 0.4812 0.06857 0.0
H270 H 0.18937 0.45477 0.09304 0.0
C271 C 0.2036 0.46189 0.08605 0.0
C272 C 0.20479 0.47189 0.07083 0.0
C273 C 0.22359 0.48134 0.06215 0.0
C274 C 0.26143 0.49341 0.0601 0.0
H275 H 0.22458 0.48881 0.05027 0.0
C276 C 0.27577 0.48663 0.05849 0.0
C277 C 0.29448 0.49846 0.04988 0.0
C278 C 0.2666 0.51242 0.05354 0.0
H279 H 0.2564 0.51845 0.05498 0.0
C280 C 0.28509 0.5241 0.04521 0.0
H281 H 0.27222 0.47208 0.06342 0.0
C282 C 0.29886 0.51715 0.04328 0.0
H283 H 0.31314 0.52651 0.03673 0.0
H284 H 0.28878 0.53865 0.04023 0.0
H285 H 0.45059 0.86767 0.26463 0.0
C286 C 0.43807 0.86821 0.27084 0.0
C287 C 0.43013 0.87973 0.26366 0.0
C288 C 0.42947 0.85688 0.28562 0.0
H289 H 0.40683 0.88817 0.2656 0.0
C290 C 0.41344 0.87992 0.27145 0.0
C291 C 0.40435 0.86855 0.28606 0.0
C292 C 0.41267 0.85734 0.29316 0.0
C293 C 0.43658 0.84309 0.29234 0.0
H294 H 0.40589 0.84885 0.30459 0.0
C295 C 0.45756 0.84826 0.29254 0.0
C296 C 0.46341 0.83443 0.29859 0.0
C297 C 0.42182 0.82397 0.29824 0.0
H298 H 0.40563 0.81915 0.29783 0.0
C299 C 0.42756 0.81056 0.30446 0.0
H300 H 0.46919 0.86282 0.28797 0.0
C301 C 0.44808 0.81571 0.30471 0.0
H302 H 0.45195 0.80494 0.30985 0.0
H303 H 0.41599 0.79599 0.30906 0.0
H304 H 0.15982 0.59348 0.2647 0.0
C305 C 0.15745 0.57943 0.2699 0.0
C306 C 0.14682 0.56158 0.26027 0.0
C307 C 0.16566 0.57935 0.28597 0.0
H308 H 0.13564 0.52962 0.25988 0.0
C309 C 0.14439 0.54355 0.26696 0.0
C310 C 0.15263 0.54315 0.28287 0.0
C311 C 0.16306 0.56109 0.29232 0.0
C312 C 0.17726 0.59826 0.29613 0.0
H313 H 0.16934 0.56085 0.30465 0.0
C314 C 0.17083 0.61266 0.29689 0.0
C315 C 0.18127 0.62982 0.30735 0.0
C316 C 0.1947 0.60175 0.30556 0.0
H317 H 0.20045 0.59134 0.30494 0.0
C318 C 0.20505 0.61879 0.31589 0.0
H319 H 0.15743 0.61031 0.28981 0.0
C320 C 0.19829 0.63267 0.31691 0.0
H321 H 0.20655 0.64584 0.32498 0.0
H322 H 0.21837 0.62124 0.32313 0.0
H323 H 0.42053 0.55674 0.26823 0.0
C324 C 0.43397 0.56939 0.27386 0.0
C325 C 0.45312 0.57709 0.26583 0.0
C326 C 0.43212 0.57834 0.28889 0.0
H327 H 0.48461 0.60092 0.26592 0.0
C328 C 0.47028 0.59419 0.27277 0.0
C329 C 0.46897 0.60317 0.28792 0.0
C330 C 0.44988 0.59471 0.29607 0.0
C331 C 0.41164 0.57193 0.29659 0.0
H332 H 0.44874 0.60103 0.30805 0.0
C333 C 0.39596 0.55148 0.29751 0.0
C334 C 0.37685 0.54613 0.30503 0.0
C335 C 0.40771 0.58681 0.30304 0.0
H336 H 0.41901 0.60264 0.30211 0.0
C337 C 0.38912 0.5816 0.31067 0.0
H338 H 0.39861 0.53984 0.29242 0.0
C339 C 0.37391 0.56151 0.31181 0.0
H340 H 0.35982 0.55805 0.31817 0.0
H341 H 0.38648 0.59324 0.31577 0.0
Eu342 Eu 0.49601 0.99414 0.98561 0.0
C343 C 0.52801 0.05586 0.04535 0.0
C344 C 0.56443 0.06776 0.04506 0.0
C345 C 0.55218 0.09022 0.05407 0.0
C346 C 0.544 0.0525 0.04197 0.0
C347 C 0.53184 0.07451 0.05204 0.0
C348 C 0.56847 0.08686 0.05055 0.0
C349 C 0.49532 0.05989 0.05596 0.0
N350 N 0.50862 0.04034 0.04327 0.0
C351 C 0.49232 0.04176 0.04905 0.0
C352 C 0.51514 0.07649 0.0571 0.0
Eu353 Eu 0.50452 0.01049 0.03066 0.0
N354 N 0.53947 0.0338 0.03687 0.0
C355 C 0.5545 0.02879 0.03623 0.0
C356 C 0.58007 0.06311 0.04317 0.0
C357 C 0.57502 0.04342 0.0391 0.0
H358 H 0.47695 0.02907 0.04786 0.0
H359 H 0.58694 0.03952 0.03804 0.0
H360 H 0.58408 0.09889 0.05271 0.0
H361 H 0.48233 0.06112 0.06019 0.0
H362 H 0.55086 0.0137 0.03292 0.0
H363 H 0.41492 0.9662 0.97288 0.0
H364 H 0.59597 0.07442 0.04536 0.0
H365 H 0.5252 0.97411 0.97525 0.0
H366 H 0.44975 0.99036 0.98315 0.0
H367 H 0.52111 0.94285 0.96245 0.0
H368 H 0.55546 0.10479 0.05891 0.0
H369 H 0.40772 0.93374 0.96024 0.0
H370 H 0.42126 0.91154 0.95011 0.0
H371 H 0.51742 0.09054 0.06236 0.0
H372 H 0.44955 0.90441 0.94845 0.0
N373 N 0.4618 0.97114 0.97764 0.0
C374 C 0.44668 0.97601 0.97811 0.0
C375 C 0.42292 0.94406 0.96515 0.0
C376 C 0.4387 0.93949 0.96409 0.0
C377 C 0.42694 0.9624 0.97222 0.0
C378 C 0.45819 0.9534 0.97073 0.0
H379 H 0.48678 0.91587 0.9532 0.0
N380 N 0.49332 0.96429 0.97433 0.0
C381 C 0.50784 0.94459 0.9643 0.0
C382 C 0.47439 0.94978 0.96918 0.0
C383 C 0.5101 0.96224 0.97155 0.0
C384 C 0.48842 0.92936 0.95917 0.0
C385 C 0.47148 0.93202 0.96123 0.0
O386 O 0.51621 0.00625 0.96371 0.0
O387 O 0.51704 0.01688 0.00442 0.0
O388 O 0.50084 0.03392 0.01616 0.0
O389 O 0.48491 0.0165 0.99104 0.0
O390 O 0.53045 0.00698 0.98706 0.0
O391 O 0.48798 0.00716 0.96432 0.0
O392 O 0.48573 0.99888 0.05345 0.0
O393 O 0.48315 0.9883 0.01164 0.0
O394 O 0.4964 0.96972 1.00118 0.0
O395 O 0.51608 0.98866 0.0243 0.0
O396 O 0.4699 0.99748 0.02957 0.0
O397 O 0.5125 0.99576 0.0505 0.0
C398 C 0.53404 0.01944 0.99937 0.0
C399 C 0.50051 0.00499 0.93737 0.0
C400 C 0.50473 0.01428 0.90736 0.0
C401 C 0.50815 0.01983 0.92468 0.0
C402 C 0.49385 0.99368 0.90302 0.0
C403 C 0.48961 0.98463 0.93265 0.0
C404 C 0.48636 0.97902 0.91559 0.0
C405 C 0.49108 0.03207 1.00161 0.0
C406 C 0.50406 0.01082 0.95544 0.0
C407 C 0.45203 0.91799 0.95484 0.0
C408 C 0.43582 0.92192 0.95599 0.0
C409 C 0.46615 0.9857 0.01669 0.0
C410 C 0.50379 0.99991 0.07834 0.0
C411 C 0.49346 0.98663 0.09175 0.0
C412 C 0.49927 0.99275 0.10877 0.0
C413 C 0.51567 0.01234 0.11201 0.0
C414 C 0.51993 0.01935 0.08197 0.0
C415 C 0.52581 0.0255 0.09871 0.0
C416 C 0.50782 0.97211 0.01476 0.0
C417 C 0.49781 0.99343 0.06059 0.0
H418 H 0.51642 0.0356 0.92831 0.0
H419 H 0.49128 0.98886 0.88987 0.0
H420 H 0.48364 0.97305 0.94211 0.0
H421 H 0.47801 0.96324 0.91209 0.0
H422 H 0.48085 0.97167 0.08889 0.0
H423 H 0.52095 0.01747 0.12484 0.0
H424 H 0.52809 0.02973 0.07187 0.0
H425 H 0.53841 0.04049 0.10139 0.0
Eu426 Eu 0.0169 0.50036 0.99053 0.0
C427 C 0.95379 0.47426 0.0499 0.0
C428 C 0.94356 0.49955 0.05167 0.0
C429 C 0.92084 0.46579 0.06207 0.0
C430 C 0.95787 0.49369 0.04693 0.0
C431 C 0.93527 0.46011 0.05757 0.0
C432 C 0.9249 0.48542 0.059 0.0
C433 C 0.94741 0.43631 0.05722 0.0
N434 N 0.9685 0.46957 0.04623 0.0
C435 C 0.96579 0.45104 0.05013 0.0
C436 C 0.93205 0.44084 0.06093 0.0
Eu437 Eu 0.99944 0.49551 0.0347 0.0
N438 N 0.97642 0.50722 0.04056 0.0
C439 C 0.98206 0.52706 0.03945 0.0
C440 C 0.94882 0.51968 0.04964 0.0
C441 C 0.96827 0.53355 0.04373 0.0
H442 H 0.97767 0.44748 0.04746 0.0
H443 H 0.9727 0.54925 0.0425 0.0
H444 H 0.91372 0.48965 0.0627 0.0
H445 H 0.94518 0.42153 0.05997 0.0
H446 H 0.99713 0.53795 0.03505 0.0
H447 H 0.04212 0.44534 0.9833 0.0
H448 H 0.93824 0.52477 0.05309 0.0
H449 H 0.03888 0.54766 0.97636 0.0
H450 H 0.0181 0.45719 0.99032 0.0
H451 H 0.0719 0.57331 0.96421 0.0
H452 H 0.90653 0.45514 0.06799 0.0
H453 H 0.07699 0.46949 0.97307 0.0
H454 H 0.10289 0.50481 0.96517 0.0
H455 H 0.91795 0.4295 0.06669 0.0
H456 H 0.11104 0.53966 0.96003 0.0
N457 N 0.0393 0.48786 0.98487 0.0
C458 C 0.03331 0.46792 0.9861 0.0
C459 C 0.06659 0.4748 0.9765 0.0
C460 C 0.0724 0.49508 0.97469 0.0
C461 C 0.04691 0.46113 0.98213 0.0
C462 C 0.05813 0.5012 0.97884 0.0
H463 H 0.09948 0.56526 0.9594 0.0
N464 N 0.04797 0.52563 0.97878 0.0
C465 C 0.06952 0.55859 0.96744 0.0
C466 C 0.06261 0.5207 0.97572 0.0
C467 C 0.05085 0.54405 0.97428 0.0
C468 C 0.08507 0.55401 0.96479 0.0
C469 C 0.08162 0.53477 0.96869 0.0
O470 O 0.0074 0.50735 0.96641 0.0
O471 O 0.99429 0.5011 0.00801 0.0
O472 O 0.97401 0.47052 0.0193 0.0
O473 O 0.9933 0.46776 0.99755 0.0
O474 O 1.00462 0.52222 0.98951 0.0
O475 O 1.00092 0.47696 0.9714 0.0
O476 O 0.01052 0.48931 0.05829 0.0
O477 O 0.02235 0.49487 0.01727 0.0
O478 O 0.042 0.526 0.00571 0.0
O479 O 0.02293 0.52816 0.02796 0.0
O480 O 0.01111 0.47329 0.03575 0.0
O481 O 0.01386 0.51874 0.05429 0.0
C482 C 0.99203 0.51505 0.00198 0.0
C483 C 0.00624 0.48756 0.9429 0.0
C484 C 0.99802 0.48249 0.91271 0.0
C485 C 0.99323 0.4855 0.92928 0.0
C486 C 0.01612 0.48192 0.90983 0.0
C487 C 0.02437 0.48715 0.93979 0.0
C488 C 0.0293 0.48443 0.92332 0.0
C489 C 0.97623 0.46046 0.0066 0.0
C490 C 1.00026 0.48921 0.9603 0.0
C491 C 0.09629 0.52903 0.96533 0.0
C492 C 0.09166 0.5092 0.96827 0.0
C493 C 0.02388 0.4805 0.0234 0.0
C494 C 0.01024 0.50734 0.08248 0.0
C495 C 0.02522 0.51466 0.09538 0.0
C496 C 0.01957 0.51433 0.11241 0.0
C497 C 0.99882 0.50688 0.11633 0.0
C498 C 0.98965 0.50008 0.08663 0.0
C499 C 0.98399 0.4999 0.10347 0.0
C500 C 0.03995 0.53565 0.01885 0.0
C501 C 0.01627 0.50701 0.06485 0.0
H502 H 0.97911 0.48563 0.93161 0.0
H503 H 0.02004 0.47958 0.89715 0.0
H504 H 0.03454 0.48863 0.95007 0.0
H505 H 0.04324 0.48402 0.92102 0.0
H506 H 0.04115 0.52016 0.09221 0.0
H507 H 0.9941 0.50658 0.12933 0.0
H508 H 0.97796 0.49449 0.0769 0.0
H509 H 0.96805 0.49424 0.10658 0.0
Eu510 Eu 0.51875 0.50616 0.03467 0.0
C511 C 0.48522 0.53476 0.97449 0.0
C512 C 0.44918 0.50981 0.9724 0.0
C513 C 0.46101 0.54409 0.96326 0.0
C514 C 0.46939 0.51538 0.97722 0.0
C515 C 0.48129 0.54924 0.96714 0.0
C516 C 0.44498 0.52439 0.96584 0.0
C517 C 0.51788 0.57206 0.96626 0.0
N518 N 0.50465 0.53905 0.97794 0.0
C519 C 0.521 0.55715 0.97344 0.0
C520 C 0.49792 0.56819 0.9633 0.0
Eu521 Eu 0.5088 0.51311 0.99005 0.0
N522 N 0.47402 0.50157 0.98326 0.0
C523 C 0.45938 0.48168 0.98382 0.0
C524 C 0.43396 0.48958 0.97357 0.0
C525 C 0.43912 0.47543 0.9792 0.0
H526 H 0.53646 0.56025 0.97574 0.0
H527 H 0.42758 0.45967 0.97983 0.0
H528 H 0.4295 0.52043 0.96224 0.0
H529 H 0.53086 0.58652 0.96303 0.0
H530 H 0.4632 0.47058 0.98801 0.0
H531 H 0.59974 0.55996 0.04584 0.0
H532 H 0.41838 0.48467 0.96957 0.0
H533 H 0.49149 0.45779 0.04645 0.0
H534 H 0.56404 0.549 0.03772 0.0
H535 H 0.4976 0.43104 0.0572 0.0
H536 H 0.45765 0.55505 0.95773 0.0
H537 H 0.60922 0.53482 0.05512 0.0
H538 H 0.59849 0.49881 0.06106 0.0
H539 H 0.49555 0.57972 0.95764 0.0
H540 H 0.57076 0.46366 0.06388 0.0
N541 N 0.55346 0.51794 0.04181 0.0
C542 C 0.56798 0.53788 0.0416 0.0
C543 C 0.59359 0.52993 0.05128 0.0
C544 C 0.57852 0.50959 0.05192 0.0
C545 C 0.58828 0.54415 0.04618 0.0
C546 C 0.55827 0.50401 0.04724 0.0
H547 H 0.53305 0.43825 0.06261 0.0
N548 N 0.52318 0.47977 0.04541 0.0
C549 C 0.51043 0.44589 0.05483 0.0
C550 C 0.54267 0.48428 0.04896 0.0
C551 C 0.50701 0.4611 0.04881 0.0
C552 C 0.53047 0.45003 0.05785 0.0
C553 C 0.54688 0.46952 0.05523 0.0
O554 O 0.49957 0.49814 0.05724 0.0
O555 O 0.49631 0.50679 0.01637 0.0
O556 O 0.51006 0.53888 0.0051 0.0
O557 O 0.52878 0.53906 0.02888 0.0
O558 O 0.48448 0.48404 0.03393 0.0
O559 O 0.52682 0.52748 0.05577 0.0
O560 O 0.52732 0.5202 0.96708 0.0
O561 O 0.53125 0.51295 0.00848 0.0
O562 O 0.51896 0.48166 0.01895 0.0
O563 O 0.49841 0.48017 0.99622 0.0
O564 O 0.54321 0.53506 0.99052 0.0
O565 O 0.50072 0.49063 0.96996 0.0
C566 C 0.4798 0.49214 0.0217 0.0
C567 C 0.51651 0.5132 0.08299 0.0
C568 C 0.51314 0.51782 0.11333 0.0
C569 C 0.50872 0.51974 0.09623 0.0
C570 C 0.52532 0.50906 0.11684 0.0
C571 C 0.52876 0.50475 0.08688 0.0
C572 C 0.53309 0.50266 0.10371 0.0
C573 C 0.52091 0.54755 0.01902 0.0
C574 C 0.51158 0.51498 0.0652 0.0
C575 C 0.56718 0.47481 0.05916 0.0
C576 C 0.58297 0.49483 0.05756 0.0
C577 C 0.54785 0.52739 0.00311 0.0
C578 C 0.50927 0.50337 0.94215 0.0
C579 C 0.51972 0.50035 0.92873 0.0
C580 C 0.5141 0.50099 0.91173 0.0
C581 C 0.49784 0.50462 0.90845 0.0
C582 C 0.49312 0.50692 0.9385 0.0
C583 C 0.48747 0.50756 0.92176 0.0
C584 C 0.50742 0.47237 0.00554 0.0
C585 C 0.5153 0.50284 0.95986 0.0
H586 H 0.49946 0.52651 0.09319 0.0
H587 H 0.52867 0.50691 0.12979 0.0
H588 H 0.53492 0.49969 0.07694 0.0
H589 H 0.54245 0.49597 0.10658 0.0
H590 H 0.53229 0.49772 0.93152 0.0
H591 H 0.4929 0.50486 0.89557 0.0
H592 H 0.48478 0.50909 0.94857 0.0
H593 H 0.47492 0.51024 0.91909 0.0
Eu594 Eu 0.15893 0.32739 0.32237 0.0
C595 C 0.199 0.39219 0.37824 0.0
C596 C 0.2347 0.40131 0.3759 0.0
C597 C 0.22591 0.42662 0.38404 0.0
C598 C 0.21364 0.38685 0.37443 0.0
C599 C 0.20503 0.41194 0.38369 0.0
C600 C 0.24071 0.42133 0.3801 0.0
C601 C 0.16959 0.40059 0.39025 0.0
N602 N 0.17894 0.37769 0.37794 0.0
C603 C 0.16437 0.38124 0.38476 0.0
C604 C 0.18994 0.41613 0.38934 0.0
Eu605 Eu 0.17127 0.34609 0.36662 0.0
N606 N 0.20737 0.36732 0.37041 0.0
C607 C 0.22142 0.36098 0.36962 0.0
C608 C 0.24911 0.39511 0.37372 0.0
C609 C 0.24241 0.37478 0.371 0.0
H610 H 0.14858 0.36929 0.38525 0.0
H611 H 0.25344 0.36971 0.36983 0.0
H612 H 0.25681 0.43268 0.38098 0.0
H613 H 0.1579 0.40353 0.39508 0.0
H614 H 0.21687 0.34545 0.36752 0.0
H615 H 0.07753 0.30346 0.31633 0.0
H616 H 0.2654 0.40575 0.37469 0.0
H617 H 0.18358 0.30354 0.30965 0.0
H618 H 0.11427 0.32755 0.32091 0.0
H619 H 0.17532 0.26942 0.30025 0.0
H620 H 0.23082 0.44193 0.38798 0.0
H621 H 0.06596 0.2678 0.30964 0.0
H622 H 0.0751 0.2411 0.30338 0.0
H623 H 0.19396 0.43111 0.39362 0.0
H624 H 0.10168 0.23181 0.29902 0.0
N625 N 0.12347 0.30571 0.31726 0.0
C626 C 0.10949 0.31208 0.31792 0.0
C627 C 0.08214 0.27833 0.31161 0.0
C628 C 0.09667 0.27214 0.31004 0.0
C629 C 0.08861 0.29845 0.31535 0.0
C630 C 0.11753 0.28642 0.31285 0.0
H631 H 0.13909 0.24233 0.2976 0.0
N632 N 0.15238 0.2955 0.31266 0.0
C633 C 0.16312 0.27249 0.30317 0.0
C634 C 0.13244 0.28114 0.31052 0.0
C635 C 0.16775 0.29175 0.30843 0.0
C636 C 0.14264 0.25722 0.30173 0.0
C637 C 0.12699 0.26152 0.30516 0.0
O638 O 0.17747 0.3362 0.29942 0.0
O639 O 0.1818 0.3512 0.33974 0.0
O640 O 0.16285 0.36709 0.35309 0.0
O641 O 0.15052 0.35175 0.3265 0.0
O642 O 0.19332 0.33957 0.32208 0.0
O643 O 0.15026 0.33897 0.30044 0.0
O644 O 0.15787 0.31905 0.38251 0.0
O645 O 0.14773 0.32387 0.34899 0.0
O646 O 0.16074 0.30423 0.33868 0.0
O647 O 0.18302 0.32464 0.36 0.0
O648 O 0.13743 0.33657 0.36667 0.0
O649 O 0.17411 0.34811 0.39435 0.0
C650 C 0.19815 0.353 0.33382 0.0
C651 C 0.16051 0.33352 0.27349 0.0
C652 C 0.16546 0.34022 0.24306 0.0
C653 C 0.16923 0.34714 0.26001 0.0
C654 C 0.15271 0.31951 0.23984 0.0
C655 C 0.14773 0.31297 0.26997 0.0
C656 C 0.14386 0.30603 0.25322 0.0
C657 C 0.1545 0.36595 0.33798 0.0
C658 C 0.16541 0.34086 0.29112 0.0
C659 C 0.10619 0.24703 0.30297 0.0
C660 C 0.09106 0.25232 0.30543 0.0
C661 C 0.13178 0.32324 0.35468 0.0
C662 C 0.1469 0.32233 0.40979 0.0
C663 C 0.14765 0.31225 0.42448 0.0
C664 C 0.13264 0.30678 0.43716 0.0
C665 C 0.11667 0.31099 0.43471 0.0
C666 C 0.13089 0.32654 0.4078 0.0
C667 C 0.11579 0.32072 0.42011 0.0
C668 C 0.17355 0.30743 0.3514 0.0
C669 C 0.16304 0.32886 0.39681 0.0
H670 H 0.17922 0.36302 0.26272 0.0
H671 H 0.14936 0.31376 0.22695 0.0
H672 H 0.14082 0.3023 0.28014 0.0
H673 H 0.13399 0.29014 0.25059 0.0
H674 H 0.16008 0.30913 0.42622 0.0
H675 H 0.1048 0.30673 0.44415 0.0
H676 H 0.1301 0.33453 0.39687 0.0
H677 H 0.10346 0.32397 0.41841 0.0
Eu678 Eu 0.68329 0.8337 0.32619 0.0
C679 C 0.62001 0.80273 0.38672 0.0
C680 C 0.60685 0.82566 0.3895 0.0
C681 C 0.58736 0.79171 0.40059 0.0
C682 C 0.62197 0.82138 0.38373 0.0
C683 C 0.60255 0.78759 0.39499 0.0
C684 C 0.58972 0.81081 0.39816 0.0
C685 C 0.61736 0.76608 0.39319 0.0
N686 N 0.63558 0.79966 0.38217 0.0
C687 C 0.63466 0.78174 0.38552 0.0
C688 C 0.60122 0.76901 0.39797 0.0
Eu689 Eu 0.66481 0.82737 0.37016 0.0
N690 N 0.63935 0.8358 0.37633 0.0
C691 C 0.64276 0.85493 0.37462 0.0
C692 C 0.60982 0.845 0.38704 0.0
C693 C 0.62788 0.8597 0.37956 0.0
H694 H 0.64708 0.77931 0.38205 0.0
H695 H 0.63052 0.8748 0.37788 0.0
H696 H 0.57841 0.81404 0.40337 0.0
H697 H 0.61659 0.75184 0.39558 0.0
H698 H 0.65698 0.86656 0.36937 0.0
H699 H 0.71014 0.77972 0.31935 0.0
H700 H 0.59851 0.84884 0.3912 0.0
H701 H 0.70584 0.88179 0.31382 0.0
H702 H 0.68498 0.79064 0.32484 0.0
H703 H 0.73985 0.90849 0.30407 0.0
H704 H 0.57401 0.78041 0.40725 0.0
H705 H 0.74573 0.80474 0.31162 0.0
H706 H 0.77172 0.84063 0.30502 0.0
H707 H 0.588 0.75698 0.4042 0.0
H708 H 0.77988 0.87567 0.30103 0.0
N709 N 0.70614 0.82164 0.3206 0.0
C710 C 0.7004 0.80173 0.32141 0.0
C711 C 0.73472 0.80963 0.31398 0.0
C712 C 0.74026 0.8299 0.31242 0.0
C713 C 0.71464 0.79547 0.31832 0.0
C714 C 0.72539 0.83549 0.31575 0.0
H715 H 0.76805 0.90108 0.3005 0.0
N716 N 0.71506 0.85985 0.3162 0.0
C717 C 0.73732 0.8936 0.30678 0.0
C718 C 0.73003 0.85523 0.31359 0.0
C719 C 0.71811 0.87848 0.31224 0.0
C720 C 0.75321 0.88936 0.30481 0.0
C721 C 0.74959 0.8699 0.30795 0.0
O722 O 0.67319 0.84159 0.30294 0.0
O723 O 0.65926 0.83253 0.34332 0.0
O724 O 0.64032 0.80166 0.35478 0.0
O725 O 0.65987 0.80064 0.3323 0.0
O726 O 0.6699 0.85464 0.32534 0.0
O727 O 0.67091 0.81237 0.30499 0.0
O728 O 0.67713 0.82338 0.39408 0.0
O729 O 0.68826 0.82785 0.35283 0.0
O730 O 0.70727 0.8592 0.34238 0.0
O731 O 0.68609 0.86043 0.36311 0.0
O732 O 0.67881 0.80706 0.37181 0.0
O733 O 0.6785 0.85175 0.3888 0.0
C734 C 0.65675 0.84638 0.33734 0.0
C735 C 0.67659 0.827 0.27777 0.0
C736 C 0.6707 0.82621 0.24725 0.0
C737 C 0.66328 0.82321 0.26396 0.0
C738 C 0.69158 0.83297 0.24454 0.0
C739 C 0.69731 0.8335 0.27481 0.0
C740 C 0.70476 0.83648 0.25828 0.0
C741 C 0.643 0.79235 0.34171 0.0
C742 C 0.66879 0.82487 0.29514 0.0
C743 C 0.76469 0.86457 0.30522 0.0
C744 C 0.76004 0.84461 0.30746 0.0
C745 C 0.69101 0.81429 0.35914 0.0
C746 C 0.67676 0.84254 0.41749 0.0
C747 C 0.69226 0.8506 0.42994 0.0
C748 C 0.68755 0.85243 0.44688 0.0
C749 C 0.66708 0.84603 0.45115 0.0
C750 C 0.65646 0.8362 0.42201 0.0
C751 C 0.65167 0.83795 0.43876 0.0
C752 C 0.70381 0.86852 0.35498 0.0
C753 C 0.68214 0.84125 0.39983 0.0
H754 H 0.64726 0.81828 0.26622 0.0
H755 H 0.69763 0.83523 0.2318 0.0
H756 H 0.70774 0.83634 0.28522 0.0
H757 H 0.7208 0.84154 0.2561 0.0
H758 H 0.708 0.85568 0.42638 0.0
H759 H 0.66292 0.84696 0.46412 0.0
H760 H 0.64436 0.82997 0.41263 0.0
H761 H 0.63595 0.83298 0.44217 0.0
Eu762 Eu 0.18852 0.84369 0.36445 0.0
C763 C 0.15773 0.87545 0.3038 0.0
C764 C 0.12151 0.85196 0.29958 0.0
C765 C 0.13622 0.88642 0.28974 0.0
C766 C 0.14088 0.85642 0.30592 0.0
C767 C 0.15552 0.89073 0.29588 0.0
C768 C 0.11938 0.86698 0.29127 0.0
C769 C 0.19206 0.91287 0.29901 0.0
N770 N 0.17643 0.87879 0.30883 0.0
C771 C 0.19361 0.89707 0.30625 0.0
C772 C 0.17293 0.90969 0.29378 0.0
Eu773 Eu 0.17777 0.85089 0.32007 0.0
N774 N 0.14374 0.84188 0.31298 0.0
C775 C 0.12795 0.82251 0.31387 0.0
C776 C 0.10505 0.83229 0.3011 0.0
C777 C 0.10829 0.81751 0.30831 0.0
H778 H 0.20852 0.89965 0.31003 0.0
H779 H 0.09574 0.80219 0.3093 0.0
H780 H 0.10489 0.86365 0.28562 0.0
H781 H 0.20566 0.9274 0.29725 0.0
H782 H 0.13044 0.81086 0.31895 0.0
H783 H 0.27057 0.89818 0.3699 0.0
H784 H 0.08991 0.82826 0.29642 0.0
H785 H 0.16374 0.79738 0.38093 0.0
H786 H 0.2339 0.88714 0.36646 0.0
H787 H 0.17126 0.77079 0.38992 0.0
H788 H 0.13428 0.89784 0.28334 0.0
H789 H 0.28153 0.87308 0.37467 0.0
H790 H 0.27165 0.83701 0.37994 0.0
H791 H 0.17183 0.92184 0.28786 0.0
H792 H 0.24449 0.80212 0.3853 0.0
N793 N 0.22404 0.85599 0.36907 0.0
C794 C 0.23837 0.876 0.36872 0.0
C795 C 0.26536 0.86813 0.37327 0.0
C796 C 0.2505 0.84778 0.37471 0.0
C797 C 0.25923 0.88235 0.37065 0.0
C798 C 0.22968 0.84217 0.37272 0.0
H799 H 0.20696 0.77735 0.38943 0.0
N800 N 0.19472 0.81827 0.37493 0.0
C801 C 0.18356 0.78526 0.38584 0.0
C802 C 0.2145 0.82261 0.37568 0.0
C803 C 0.17936 0.80032 0.38082 0.0
C804 C 0.20372 0.78899 0.38548 0.0
C805 C 0.21957 0.80803 0.38077 0.0
O806 O 0.17065 0.8361 0.38776 0.0
O807 O 0.16607 0.84472 0.34655 0.0
O808 O 0.1779 0.87544 0.33581 0.0
O809 O 0.19875 0.87669 0.35826 0.0
O810 O 0.1538 0.82292 0.3648 0.0
O811 O 0.19774 0.86535 0.38541 0.0
O812 O 0.19612 0.85724 0.2971 0.0
O813 O 0.19992 0.84908 0.33785 0.0
O814 O 0.18311 0.81615 0.34968 0.0
O815 O 0.16579 0.81758 0.32541 0.0
O816 O 0.2123 0.87171 0.32029 0.0
O817 O 0.168 0.82863 0.29964 0.0
C818 C 0.14932 0.83078 0.35223 0.0
C819 C 0.18934 0.85121 0.41279 0.0
C820 C 0.18706 0.85475 0.44349 0.0
C821 C 0.18182 0.85701 0.42673 0.0
C822 C 0.19988 0.84644 0.44591 0.0
C823 C 0.20236 0.84336 0.41559 0.0
C824 C 0.20753 0.84094 0.43207 0.0
C825 C 0.18996 0.88475 0.34895 0.0
C826 C 0.18318 0.85296 0.39542 0.0
C827 C 0.24027 0.81319 0.38168 0.0
C828 C 0.25573 0.83305 0.37864 0.0
C829 C 0.21665 0.86316 0.33233 0.0
C830 C 0.1781 0.84126 0.27192 0.0
C831 C 0.18866 0.8377 0.25895 0.0
C832 C 0.18389 0.83859 0.24177 0.0
C833 C 0.16839 0.84313 0.23785 0.0
C834 C 0.16272 0.84572 0.26767 0.0
C835 C 0.15794 0.84669 0.25073 0.0
C836 C 0.17205 0.80811 0.33577 0.0
C837 C 0.18323 0.84021 0.28977 0.0
H838 H 0.17207 0.86343 0.42444 0.0
H839 H 0.20384 0.84392 0.45853 0.0
H840 H 0.20845 0.839 0.40508 0.0
H841 H 0.21742 0.83465 0.43412 0.0
H842 H 0.20065 0.83438 0.26226 0.0
H843 H 0.16406 0.84357 0.2248 0.0
H844 H 0.1543 0.84832 0.2774 0.0
H845 H 0.14597 0.85006 0.24756 0.0
Eu846 Eu 0.82971 0.66592 0.65858 0.0
C847 C 0.86077 0.72489 0.72189 0.0
C848 C 0.89705 0.73679 0.72542 0.0
C849 C 0.88247 0.75628 0.73699 0.0
C850 C 0.87757 0.7225 0.71901 0.0
C851 C 0.86308 0.7419 0.7308 0.0
C852 C 0.89931 0.75352 0.7346 0.0
C853 C 0.82644 0.72805 0.72858 0.0
N854 N 0.84199 0.71005 0.71677 0.0
C855 C 0.82482 0.71116 0.7203 0.0
C856 C 0.84566 0.74351 0.73384 0.0
Eu857 Eu 0.84046 0.68143 0.70383 0.0
N858 N 0.87461 0.70548 0.7111 0.0
C859 C 0.89039 0.70169 0.7094 0.0
C860 C 0.91348 0.73339 0.72307 0.0
C861 C 0.91013 0.71576 0.715 0.0
H862 H 0.80985 0.69916 0.71651 0.0
H863 H 0.92266 0.71282 0.71336 0.0
H864 H 0.9139 0.7642 0.74026 0.0
H865 H 0.81283 0.72901 0.7311 0.0
H866 H 0.88783 0.68783 0.70363 0.0
H867 H 0.74825 0.64325 0.65421 0.0
H868 H 0.92869 0.74403 0.72776 0.0
H869 H 0.85266 0.64317 0.64006 0.0
H870 H 0.78508 0.66687 0.65786 0.0
H871 H 0.84367 0.60936 0.62918 0.0
H872 H 0.8845 0.76928 0.74411 0.0
H873 H 0.73583 0.6074 0.64768 0.0
H874 H 0.74419 0.58037 0.6404 0.0
H875 H 0.84683 0.7564 0.74056 0.0
H876 H 0.77027 0.57107 0.63354 0.0
N877 N 0.79386 0.64473 0.65373 0.0
C878 C 0.78011 0.65138 0.6549 0.0
C879 C 0.75213 0.61775 0.64919 0.0
C880 C 0.76636 0.61132 0.64688 0.0
C881 C 0.75908 0.63799 0.65282 0.0
C882 C 0.78739 0.62542 0.64904 0.0
H883 H 0.80744 0.58193 0.6289 0.0
N884 N 0.82196 0.63464 0.64622 0.0
C885 C 0.83177 0.61216 0.63373 0.0
C886 C 0.80196 0.62019 0.64519 0.0
C887 C 0.83681 0.63126 0.6398 0.0
C888 C 0.81132 0.5967 0.63367 0.0
C889 C 0.79605 0.60073 0.63908 0.0
O890 O 0.846 0.67432 0.63436 0.0
O891 O 0.85199 0.68773 0.67731 0.0
O892 O 0.83978 0.7065 0.68967 0.0
O893 O 0.81961 0.68852 0.66639 0.0
O894 O 0.86439 0.67921 0.65815 0.0
O895 O 0.82388 0.68354 0.64002 0.0
O896 O 0.82158 0.66784 0.72625 0.0
O897 O 0.81863 0.65884 0.68519 0.0
O898 O 0.83592 0.64339 0.67188 0.0
O899 O 0.85255 0.66033 0.69699 0.0
O900 O 0.80596 0.66827 0.70357 0.0
O901 O 0.8504 0.66827 0.72364 0.0
C902 C 0.86876 0.6907 0.67133 0.0
C903 C 0.8278 0.6777 0.61127 0.0
C904 C 0.82909 0.68662 0.5814 0.0
C905 C 0.83775 0.69107 0.59783 0.0
C906 C 0.81059 0.66858 0.57854 0.0
C907 C 0.80947 0.65964 0.6081 0.0
C908 C 0.80096 0.65512 0.5918 0.0
C909 C 0.82812 0.70467 0.67643 0.0
C910 C 0.83613 0.68303 0.62866 0.0
C911 C 0.77513 0.58621 0.63796 0.0
C912 C 0.76029 0.5915 0.64187 0.0
C913 C 0.80186 0.65614 0.69093 0.0
C914 C 0.83915 0.66897 0.75149 0.0
C915 C 0.8292 0.65415 0.76396 0.0
C916 C 0.83298 0.65924 0.78133 0.0
C917 C 0.84694 0.67929 0.78598 0.0
C918 C 0.85309 0.68879 0.75648 0.0
C919 C 0.85693 0.69391 0.77363 0.0
C920 C 0.84671 0.64545 0.68581 0.0
C921 C 0.8347 0.6637 0.73338 0.0
H922 H 0.85188 0.70509 0.60022 0.0
H923 H 0.80367 0.66485 0.566 0.0
H924 H 0.80164 0.64916 0.61824 0.0
H925 H 0.78676 0.64121 0.58945 0.0
H926 H 0.81837 0.63881 0.76015 0.0
H927 H 0.85035 0.68362 0.79922 0.0
H928 H 0.86103 0.70032 0.74717 0.0
H929 H 0.86774 0.70927 0.77735 0.0
Eu930 Eu 0.35394 0.16736 0.6551 0.0
C931 C 0.2854 0.14213 0.70881 0.0
C932 C 0.27609 0.16792 0.70582 0.0
C933 C 0.25037 0.13417 0.7142 0.0
C934 C 0.29072 0.1616 0.70477 0.0
C935 C 0.26533 0.12834 0.71413 0.0
C936 C 0.25573 0.15393 0.71001 0.0
C937 C 0.27705 0.10504 0.72089 0.0
N938 N 0.30029 0.13713 0.7088 0.0
C939 C 0.29672 0.11929 0.71553 0.0
C940 C 0.26116 0.10942 0.71986 0.0
Eu941 Eu 0.33286 0.16123 0.69831 0.0
N942 N 0.31056 0.1747 0.70089 0.0
C943 C 0.31716 0.19478 0.69942 0.0
C944 C 0.28252 0.18824 0.70318 0.0
C945 C 0.30323 0.20179 0.70032 0.0
H946 H 0.30894 0.11578 0.71612 0.0
H947 H 0.30846 0.21763 0.69865 0.0
H948 H 0.2442 0.15843 0.71061 0.0
H949 H 0.27413 0.09065 0.7257 0.0
H950 H 0.33303 0.20547 0.69703 0.0
H951 H 0.37852 0.11174 0.6491 0.0
H952 H 0.27175 0.19369 0.70381 0.0
H953 H 0.37778 0.21543 0.64268 0.0
H954 H 0.35463 0.12385 0.65548 0.0
H955 H 0.41199 0.2413 0.6326 0.0
H956 H 0.2348 0.12374 0.71805 0.0
H957 H 0.41397 0.13577 0.6401 0.0
H958 H 0.44094 0.1713 0.63392 0.0
H959 H 0.24595 0.09839 0.72404 0.0
H960 H 0.45016 0.20661 0.62972 0.0
N961 N 0.37638 0.15459 0.65079 0.0
C962 C 0.37008 0.13457 0.65182 0.0
C963 C 0.40365 0.14123 0.64333 0.0
C964 C 0.40993 0.16168 0.64202 0.0
C965 C 0.38364 0.12762 0.64825 0.0
C966 C 0.39567 0.16797 0.64566 0.0
H967 H 0.43943 0.2328 0.62905 0.0
N968 N 0.38617 0.19293 0.64543 0.0
C969 C 0.40906 0.22633 0.63554 0.0
C970 C 0.40076 0.18776 0.64301 0.0
C971 C 0.38974 0.21168 0.64121 0.0
C972 C 0.42452 0.22148 0.6336 0.0
C973 C 0.42038 0.20191 0.63704 0.0
O974 O 0.34665 0.17604 0.63079 0.0
O975 O 0.32907 0.16624 0.67103 0.0
O976 O 0.31043 0.13328 0.68357 0.0
O977 O 0.32965 0.13447 0.65983 0.0
O978 O 0.34126 0.18873 0.65323 0.0
O979 O 0.34079 0.14558 0.63442 0.0
O980 O 0.34074 0.15365 0.72288 0.0
O981 O 0.35718 0.16139 0.6822 0.0
O982 O 0.37768 0.19257 0.67146 0.0
O983 O 0.35702 0.19408 0.69261 0.0
O984 O 0.34554 0.13984 0.70072 0.0
O985 O 0.34684 0.18395 0.7183 0.0
C986 C 0.32725 0.18027 0.66456 0.0
C987 C 0.34848 0.1586 0.6067 0.0
C988 C 0.34259 0.15492 0.57616 0.0
C989 C 0.33608 0.15621 0.59255 0.0
C990 C 0.36183 0.15642 0.57403 0.0
C991 C 0.36769 0.16021 0.60437 0.0
C992 C 0.37436 0.15922 0.58809 0.0
C993 C 0.31335 0.12516 0.66975 0.0
C994 C 0.34071 0.15853 0.62376 0.0
C995 C 0.43497 0.19593 0.63422 0.0
C996 C 0.42972 0.17583 0.63661 0.0
C997 C 0.35895 0.14737 0.68882 0.0
C998 C 0.33912 0.17197 0.74628 0.0
C999 C 0.35166 0.17539 0.76054 0.0
C1000 C 0.34485 0.17659 0.77689 0.0
C1001 C 0.32508 0.17405 0.77865 0.0
C1002 C 0.31948 0.16941 0.7483 0.0
C1003 C 0.3125 0.17041 0.76444 0.0
C1004 C 0.37457 0.20196 0.68421 0.0
C1005 C 0.34691 0.17142 0.72939 0.0
H1006 H 0.3211 0.1547 0.59434 0.0
H1007 H 0.36713 0.15546 0.5615 0.0
H1008 H 0.3774 0.16194 0.61507 0.0
H1009 H 0.38917 0.16038 0.58638 0.0
H1010 H 0.3667 0.17703 0.75885 0.0
H1011 H 0.31944 0.17525 0.79095 0.0
H1012 H 0.30963 0.16681 0.73744 0.0
H1013 H 0.29737 0.16856 0.76593 0.0
Eu1014 Eu 0.85888 0.17776 0.70238 0.0
C1015 C 0.81671 0.20084 0.64676 0.0
C1016 C 0.78133 0.1745 0.64943 0.0
C1017 C 0.78929 0.20803 0.64088 0.0
C1018 C 0.8025 0.18127 0.65078 0.0
C1019 C 0.81029 0.21426 0.64112 0.0
C1020 C 0.77482 0.18816 0.64505 0.0
C1021 C 0.84553 0.23786 0.6342 0.0
N1022 N 0.83679 0.2062 0.64689 0.0
C1023 C 0.85108 0.22394 0.63983 0.0
C1024 C 0.82509 0.23316 0.63518 0.0
Eu1025 Eu 0.84545 0.18272 0.65802 0.0
N1026 N 0.80937 0.1685 0.65487 0.0
C1027 C 0.79587 0.14833 0.65627 0.0
C1028 C 0.7674 0.15408 0.65198 0.0
C1029 C 0.77473 0.14087 0.65504 0.0
H1030 H 0.86694 0.22766 0.63924 0.0
H1031 H 0.7641 0.12496 0.65663 0.0
H1032 H 0.75863 0.18334 0.64425 0.0
H1033 H 0.85702 0.2522 0.62916 0.0
H1034 H 0.80122 0.13793 0.65883 0.0
H1035 H 0.94118 0.22986 0.70803 0.0
H1036 H 0.75102 0.14828 0.65111 0.0
H1037 H 0.8312 0.13133 0.71815 0.0
H1038 H 0.90533 0.2196 0.70151 0.0
H1039 H 0.83681 0.10515 0.73105 0.0
H1040 H 0.78405 0.21821 0.63686 0.0
H1041 H 0.95009 0.20479 0.71862 0.0
H1042 H 0.93848 0.16932 0.7273 0.0
H1043 H 0.82081 0.24391 0.63072 0.0
H1044 H 0.91008 0.1353 0.73344 0.0
N1045 N 0.89389 0.18882 0.70768 0.0
C1046 C 0.90893 0.20843 0.70593 0.0
C1047 C 0.93432 0.20013 0.71544 0.0
C1048 C 0.91878 0.1802 0.71775 0.0
C1049 C 0.92935 0.21433 0.70959 0.0
C1050 C 0.8984 0.17498 0.71387 0.0
H1051 H 0.87211 0.11136 0.73518 0.0
N1052 N 0.86296 0.15184 0.71456 0.0
C1053 C 0.84978 0.1193 0.72718 0.0
C1054 C 0.88245 0.15587 0.71736 0.0
C1055 C 0.84665 0.13415 0.71987 0.0
C1056 C 0.86973 0.12284 0.72943 0.0
C1057 C 0.88638 0.14142 0.72478 0.0
O1058 O 0.84049 0.17218 0.72522 0.0
O1059 O 0.83577 0.17871 0.6851 0.0
O1060 O 0.85224 0.21138 0.67179 0.0
O1061 O 0.87003 0.21059 0.696 0.0
O1062 O 0.82451 0.15645 0.70319 0.0
O1063 O 0.86934 0.19998 0.72296 0.0
O1064 O 0.8611 0.19029 0.63355 0.0
O1065 O 0.86891 0.1827 0.67534 0.0
O1066 O 0.8566 0.15135 0.68785 0.0
O1067 O 0.837 0.15029 0.66438 0.0
O1068 O 0.87996 0.20354 0.6562 0.0
O1069 O 0.83695 0.15986 0.63822 0.0
C1070 C 0.81947 0.16469 0.69132 0.0
C1071 C 0.85856 0.18705 0.75056 0.0
C1072 C 0.85367 0.19036 0.78084 0.0
C1073 C 0.84959 0.19244 0.76369 0.0
C1074 C 0.86664 0.18251 0.78451 0.0
C1075 C 0.87167 0.17961 0.75459 0.0
C1076 C 0.8756 0.17728 0.77147 0.0
C1077 C 0.8637 0.21984 0.68548 0.0
C1078 C 0.85382 0.18885 0.73273 0.0
C1079 C 0.90672 0.14624 0.72788 0.0
C1080 C 0.92289 0.16561 0.72439 0.0
C1081 C 0.88524 0.19626 0.66872 0.0
C1082 C 0.84098 0.17141 0.61009 0.0
C1083 C 0.84853 0.16594 0.59597 0.0
C1084 C 0.8401 0.16458 0.57967 0.0
C1085 C 0.82416 0.16899 0.57776 0.0
C1086 C 0.82502 0.17561 0.60786 0.0
C1087 C 0.81671 0.17446 0.59177 0.0
C1088 C 0.84539 0.14227 0.67421 0.0
C1089 C 0.84958 0.17238 0.62709 0.0
H1090 H 0.83971 0.19848 0.76051 0.0
H1091 H 0.86976 0.18022 0.79748 0.0
H1092 H 0.87884 0.17557 0.74472 0.0
H1093 H 0.8856 0.17135 0.77447 0.0
H1094 H 0.86069 0.16245 0.59775 0.0
H1095 H 0.81758 0.16844 0.56538 0.0
H1096 H 0.81893 0.17971 0.61855 0.0
H1097 H 0.80445 0.17781 0.59015 0.0
H1098 H 0.32125 0.83363 0.08685 0.0
H1099 H 0.3509 0.86335 0.07515 0.0
H1100 H 0.32236 0.84845 0.02554 0.0
H1101 H 0.29304 0.81819 0.03717 0.0
H1102 H 0.36038 0.86079 0.02187 0.0
H1103 H 0.32387 0.88689 0.05252 0.0
H1104 H 0.30691 0.89138 0.07749 0.0
H1105 H 0.36375 0.91771 0.10532 0.0
H1106 H 0.381 0.91313 0.08057 0.0
H1107 H 0.42799 0.98054 0.01896 0.0
H1108 H 0.39594 0.94909 0.02374 0.0
H1109 H 0.42831 0.91609 0.01934 0.0
H1110 H 0.45996 0.94736 0.01363 0.0
H1111 H 0.38694 0.9277 0.04912 0.0
H1112 H 0.40398 0.87253 0.01542 0.0
H1113 H 0.41299 0.86384 0.98778 0.0
H1114 H 0.38612 0.89437 0.96199 0.0
H1115 H 0.37792 0.90405 0.98948 0.0
C1116 C 0.32134 0.83673 0.07345 0.0
C1117 C 0.3048 0.82369 0.06293 0.0
C1118 C 0.33825 0.85379 0.06677 0.0
C1119 C 0.33878 0.85849 0.04949 0.0
C1120 C 0.32237 0.84525 0.03892 0.0
C1121 C 0.30561 0.82796 0.04555 0.0
C1122 C 0.35645 0.8771 0.04242 0.0
C1123 C 0.36613 0.87543 0.02784 0.0
C1124 C 0.3639 0.89635 0.04994 0.0
C1125 C 0.35368 0.89951 0.06473 0.0
C1126 C 0.33273 0.89356 0.06399 0.0
C1127 C 0.32307 0.89612 0.0781 0.0
C1128 C 0.33424 0.90477 0.093 0.0
C1129 C 0.35512 0.91098 0.09378 0.0
C1130 C 0.36485 0.90843 0.07971 0.0
C1131 C 0.42804 0.96645 0.01842 0.0
C1132 C 0.44644 0.96642 0.01574 0.0
C1133 C 0.40974 0.94844 0.02128 0.0
C1134 C 0.40945 0.92996 0.02196 0.0
C1135 C 0.42774 0.92987 0.01848 0.0
C1136 C 0.44598 0.94788 0.01526 0.0
C1137 C 0.39084 0.91151 0.02835 0.0
C1138 C 0.38112 0.91314 0.04301 0.0
C1139 C 0.38295 0.8923 0.02065 0.0
C1140 C 0.39065 0.88924 0.00441 0.0
C1141 C 0.40045 0.87775 0.00382 0.0
C1142 C 0.40542 0.87267 0.98821 0.0
C1143 C 0.40017 0.87858 0.97314 0.0
C1144 C 0.39034 0.88995 0.97367 0.0
C1145 C 0.38583 0.89552 0.98925 0.0
H1146 H 0.4037 0.87434 0.96105 0.0
H1147 H 0.32672 0.9067 0.10393 0.0
H1148 H 0.20377 0.50367 0.05554 0.0
H1149 H 0.17384 0.50517 0.04539 0.0
H1150 H 0.13433 0.44418 0.06192 0.0
H1151 H 0.1642 0.44222 0.07129 0.0
H1152 H 0.12147 0.44812 0.03292 0.0
H1153 H 0.1399 0.4869 0.08395 0.0
H1154 H 0.16132 0.51357 0.10458 0.0
H1155 H 0.16979 0.55877 0.06843 0.0
H1156 H 0.14866 0.53237 0.04747 0.0
H1157 H 0.02682 0.44812 0.03265 0.0
H1158 H 0.05784 0.44641 0.03809 0.0
H1159 H 0.09474 0.50743 0.02053 0.0
H1160 H 0.06364 0.50947 0.016 0.0
H1161 H 0.10948 0.50391 0.049 0.0
H1162 H 0.09232 0.46261 0.99729 0.0
H1163 H 0.06956 0.43435 0.97819 0.0
H1164 H 0.05663 0.39253 0.0187 0.0
H1165 H 0.07946 0.42047 0.03787 0.0
C1166 C 0.18875 0.49046 0.05684 0.0
C1167 C 0.18653 0.47282 0.06432 0.0
C1168 C 0.17156 0.49145 0.05123 0.0
C1169 C 0.15166 0.4749 0.0531 0.0
C1170 C 0.14943 0.45722 0.06037 0.0
C1171 C 0.16659 0.45618 0.06588 0.0
C1172 C 0.13317 0.47577 0.04718 0.0
C1173 C 0.11882 0.46027 0.0366 0.0
C1174 C 0.12965 0.49171 0.05168 0.0
C1175 C 0.14292 0.50764 0.06405 0.0
C1176 C 0.14655 0.50252 0.08031 0.0
C1177 C 0.15858 0.5176 0.09209 0.0
C1178 C 0.16696 0.53785 0.0878 0.0
C1179 C 0.16333 0.54308 0.07172 0.0
C1180 C 0.15133 0.52806 0.05989 0.0
C1181 C 0.04154 0.46103 0.02962 0.0
C1182 C 0.0427 0.47879 0.0236 0.0
C1183 C 0.05934 0.46 0.0326 0.0
C1184 C 0.07884 0.47666 0.02948 0.0
C1185 C 0.07997 0.49428 0.02299 0.0
C1186 C 0.06213 0.49539 0.02021 0.0
C1187 C 0.09791 0.47638 0.0346 0.0
C1188 C 0.11231 0.49193 0.04514 0.0
C1189 C 0.10132 0.46032 0.03034 0.0
C1190 C 0.08729 0.4436 0.01899 0.0
C1191 C 0.08441 0.44738 0.0021 0.0
C1192 C 0.07162 0.43144 0.99127 0.0
C1193 C 0.06153 0.41171 0.99727 0.0
C1194 C 0.06438 0.40783 0.01407 0.0
C1195 C 0.07732 0.42369 0.02489 0.0
H1196 H 0.05158 0.39941 0.98889 0.0
H1197 H 0.17622 0.5495 0.09695 0.0
H1198 H 0.53295 0.72083 0.04268 0.0
H1199 H 0.5317 0.6902 0.03208 0.0
H1200 H 0.53842 0.67428 0.08311 0.0
H1201 H 0.53859 0.70416 0.09398 0.0
H1202 H 0.56478 0.67076 0.05737 0.0
H1203 H 0.49372 0.65143 0.06818 0.0
H1204 H 0.46311 0.65498 0.06478 0.0
H1205 H 0.4639 0.64679 0.01092 0.0
H1206 H 0.49472 0.6435 0.01399 0.0
H1207 H 0.53891 0.56908 0.04811 0.0
H1208 H 0.54261 0.60123 0.05685 0.0
H1209 H 0.51466 0.60412 0.00978 0.0
H1210 H 0.50924 0.5712 1.00173 0.0
H1211 H 0.50028 0.61584 0.03234 0.0
H1212 H 0.5693 0.63387 0.01984 0.0
H1213 H 0.60092 0.6318 0.02122 0.0
H1214 H 0.60611 0.64453 0.07469 0.0
H1215 H 0.57435 0.64641 0.07367 0.0
C1216 C 0.53395 0.71075 0.05171 0.0
C1217 C 0.53586 0.71509 0.06923 0.0
C1218 C 0.53342 0.69334 0.04559 0.0
C1219 C 0.53501 0.68005 0.05683 0.0
C1220 C 0.53735 0.68447 0.07423 0.0
C1221 C 0.53756 0.70167 0.08039 0.0
C1222 C 0.5335 0.66111 0.05057 0.0
C1223 C 0.55068 0.65863 0.052 0.0
C1224 C 0.51528 0.64565 0.0431 0.0
C1225 C 0.49665 0.64744 0.04129 0.0
C1226 C 0.48747 0.65056 0.0556 0.0
C1227 C 0.47006 0.65249 0.05373 0.0
C1228 C 0.4616 0.65117 0.03764 0.0
C1229 C 0.47049 0.64785 0.02338 0.0
C1230 C 0.48792 0.64593 0.02517 0.0
C1231 C 0.53362 0.57657 0.03956 0.0
C1232 C 0.52415 0.56764 0.024 0.0
C1233 C 0.53592 0.59513 0.04453 0.0
C1234 C 0.52942 0.60551 0.03382 0.0
C1235 C 0.51997 0.59659 0.01827 0.0
C1236 C 0.51713 0.57779 0.01354 0.0
C1237 C 0.53165 0.62523 0.03907 0.0
C1238 C 0.51455 0.62791 0.03752 0.0
C1239 C 0.55014 0.64107 0.04606 0.0
C1240 C 0.56934 0.64011 0.0467 0.0
C1241 C 0.57711 0.63611 0.03191 0.0
C1242 C 0.59507 0.63498 0.03263 0.0
C1243 C 0.60549 0.63799 0.04804 0.0
C1244 C 0.59801 0.64219 0.06276 0.0
C1245 C 0.58004 0.6433 0.06212 0.0
H1246 H 0.61938 0.6371 0.04857 0.0
H1247 H 0.44812 0.65267 0.03622 0.0
H1248 H 0.80241 0.3035 0.96948 0.0
H1249 H 0.83183 0.33452 0.97973 0.0
H1250 H 0.87231 0.31319 0.9635 0.0
H1251 H 0.8428 0.28137 0.95446 0.0
H1252 H 0.88632 0.33217 0.99154 0.0
H1253 H 0.86365 0.34814 0.94016 0.0
H1254 H 0.83934 0.35018 0.92033 0.0
H1255 H 0.82954 0.38688 0.95608 0.0
H1256 H 0.85357 0.3848 0.97624 0.0
H1257 H 0.97637 0.43075 0.98721 0.0
H1258 H 0.94693 0.39795 0.97944 0.0
H1259 H 0.90695 0.41213 0.00776 0.0
H1260 H 0.93616 0.44484 0.01572 0.0
H1261 H 0.89334 0.39725 0.97362 0.0
H1262 H 0.91742 0.38118 0.02461 0.0
H1263 H 0.94352 0.3802 0.04293 0.0
H1264 H 0.95262 0.34453 0.00561 0.0
H1265 H 0.9268 0.34559 0.98691 0.0
C1266 C 0.81749 0.30511 0.9684 0.0
C1267 C 0.82006 0.28977 0.96101 0.0
C1268 C 0.83442 0.32311 0.97403 0.0
C1269 C 0.85445 0.32653 0.97202 0.0
C1270 C 0.85708 0.31108 0.96508 0.0
C1271 C 0.84012 0.29291 0.95971 0.0
C1272 C 0.87262 0.34625 0.97701 0.0
C1273 C 0.88792 0.34635 0.98739 0.0
C1274 C 0.87476 0.36491 0.97186 0.0
C1275 C 0.86024 0.36613 0.95978 0.0
C1276 C 0.85618 0.3565 0.94385 0.0
C1277 C 0.84247 0.35769 0.93254 0.0
C1278 C 0.83285 0.3686 0.93696 0.0
C1279 C 0.83697 0.37839 0.95268 0.0
C1280 C 0.85064 0.37723 0.96405 0.0
C1281 C 0.96132 0.42688 0.99182 0.0
C1282 C 0.95865 0.44041 0.00212 0.0
C1283 C 0.94454 0.40812 0.9874 0.0
C1284 C 0.92478 0.40266 0.99303 0.0
C1285 C 0.92206 0.41614 0.00325 0.0
C1286 C 0.93882 0.43476 0.00786 0.0
C1287 C 0.90682 0.38302 0.98805 0.0
C1288 C 0.89163 0.38299 0.97768 0.0
C1289 C 0.90496 0.36448 0.99299 0.0
C1290 C 0.92033 0.36364 0.00428 0.0
C1291 C 0.92511 0.37328 0.02024 0.0
C1292 C 0.93984 0.37268 0.0307 0.0
C1293 C 0.94977 0.36235 0.02542 0.0
C1294 C 0.94494 0.35255 0.00967 0.0
C1295 C 0.93025 0.35314 0.99914 0.0
H1296 H 0.96116 0.36191 0.03354 0.0
H1297 H 0.82225 0.36951 0.92818 0.0
H1298 H 0.70354 0.50277 0.97348 0.0
H1299 H 0.67282 0.50176 0.98458 0.0
H1300 H 0.69523 0.56269 0.96793 0.0
H1301 H 0.72651 0.56424 0.95771 0.0
H1302 H 0.6783 0.55855 0.99712 0.0
H1303 H 0.6573 0.51963 0.94564 0.0
H1304 H 0.6528 0.49272 0.92583 0.0
H1305 H 0.61618 0.44801 0.96254 0.0
H1306 H 0.6207 0.47468 0.98266 0.0
H1307 H 0.58448 0.55981 0.99559 0.0
H1308 H 0.61714 0.56112 0.99107 0.0
H1309 H 0.59022 0.49928 0.00693 0.0
H1310 H 0.55716 0.49764 0.01035 0.0
H1311 H 0.60966 0.50313 0.97972 0.0
H1312 H 0.63256 0.54312 0.03162 0.0
H1313 H 0.63804 0.57078 0.05112 0.0
H1314 H 0.67087 0.61401 0.01231 0.0
H1315 H 0.66573 0.58664 0.99272 0.0
C1316 C 0.70217 0.51611 0.97242 0.0
C1317 C 0.71762 0.53356 0.96455 0.0
C1318 C 0.68437 0.5154 0.97858 0.0
C1319 C 0.68136 0.532 0.97682 0.0
C1320 C 0.69699 0.5496 0.96938 0.0
C1321 C 0.71486 0.55039 0.96336 0.0
C1322 C 0.66198 0.53109 0.9826 0.0
C1323 C 0.6633 0.54649 0.99317 0.0
C1324 C 0.64227 0.51521 0.9778 0.0
C1325 C 0.63954 0.49916 0.96572 0.0
C1326 C 0.64843 0.50407 0.94954 0.0
C1327 C 0.64585 0.48886 0.93824 0.0
C1328 C 0.63426 0.46867 0.94294 0.0
C1329 C 0.62519 0.46365 0.95893 0.0
C1330 C 0.62774 0.4788 0.97028 0.0
C1331 C 0.58565 0.54662 0.99847 0.0
C1332 C 0.56827 0.52876 0.00369 0.0
C1333 C 0.60446 0.54742 0.99601 0.0
C1334 C 0.60651 0.53042 0.99891 0.0
C1335 C 0.58924 0.51269 0.00464 0.0
C1336 C 0.57031 0.51181 0.00683 0.0
C1337 C 0.62592 0.53055 0.99436 0.0
C1338 C 0.62462 0.51505 0.98388 0.0
C1339 C 0.64566 0.54642 0.99911 0.0
C1340 C 0.6485 0.56285 0.01071 0.0
C1341 C 0.64075 0.55853 0.02726 0.0
C1342 C 0.64388 0.57413 0.03832 0.0
C1343 C 0.65463 0.5941 0.0329 0.0
C1344 C 0.66247 0.59853 0.01647 0.0
C1345 C 0.65955 0.58299 0.00542 0.0
H1346 H 0.65698 0.60615 0.04147 0.0
H1347 H 0.63228 0.45692 0.93418 0.0
H1348 H 0.48406 0.17787 0.92765 0.0
H1349 H 0.48437 0.1479 0.93748 0.0
H1350 H 0.48663 0.16694 0.9894 0.0
H1351 H 0.48628 0.19709 0.97961 0.0
H1352 H 0.51328 0.15298 0.98369 0.0
H1353 H 0.44186 0.13013 0.97208 0.0
H1354 H 0.41318 0.12627 0.95412 0.0
H1355 H 0.42677 0.09347 0.91711 0.0
H1356 H 0.4557 0.09734 0.93476 0.0
H1357 H 0.49363 0.06272 0.02127 0.0
H1358 H 0.49057 0.09139 0.01253 0.0
H1359 H 0.48002 0.06949 0.96086 0.0
H1360 H 0.48169 0.03989 0.96987 0.0
H1361 H 0.45726 0.08508 0.96666 0.0
H1362 H 0.52892 0.10885 0.97585 0.0
H1363 H 0.55895 0.11312 0.99207 0.0
H1364 H 0.54651 0.14416 0.03155 0.0
H1365 H 0.51642 0.14014 0.01551 0.0
C1366 C 0.48443 0.17562 0.94118 0.0
C1367 C 0.4849 0.18976 0.95286 0.0
C1368 C 0.48466 0.15849 0.94677 0.0
C1369 C 0.4852 0.155 0.96418 0.0
C1370 C 0.48616 0.1693 0.9759 0.0
C1371 C 0.48599 0.18652 0.9703 0.0
C1372 C 0.48466 0.13637 0.97009 0.0
C1373 C 0.50088 0.13813 0.98018 0.0
C1374 C 0.4688 0.11699 0.96508 0.0
C1375 C 0.45103 0.11414 0.95469 0.0
C1376 C 0.43878 0.12215 0.96008 0.0
C1377 C 0.42248 0.11997 0.94996 0.0
C1378 C 0.41818 0.10967 0.93446 0.0
C1379 C 0.43012 0.10145 0.92911 0.0
C1380 C 0.44645 0.1036 0.93918 0.0
C1381 C 0.4903 0.06372 0.00814 0.0
C1382 C 0.48786 0.04887 0.99637 0.0
C1383 C 0.4888 0.08035 0.00306 0.0
C1384 C 0.48562 0.08298 0.98592 0.0
C1385 C 0.48259 0.0679 0.97415 0.0
C1386 C 0.48358 0.05096 0.97934 0.0
C1387 C 0.48591 0.10164 0.98028 0.0
C1388 C 0.46965 0.09991 0.97022 0.0
C1389 C 0.50192 0.12107 0.98509 0.0
C1390 C 0.52035 0.12407 0.99454 0.0
C1391 C 0.53258 0.11656 0.98801 0.0
C1392 C 0.5496 0.11892 0.99717 0.0
C1393 C 0.55457 0.12879 0.01288 0.0
C1394 C 0.54263 0.1365 0.01939 0.0
C1395 C 0.52564 0.13425 0.01024 0.0
H1396 H 0.5677 0.13052 0.02 0.0
H1397 H 0.40559 0.10805 0.92662 0.0
H1398 H 0.66834 0.19901 0.9658 0.0
H1399 H 0.64056 0.16534 0.97239 0.0
H1400 H 0.68446 0.14654 0.98372 0.0
H1401 H 0.71268 0.18072 0.97802 0.0
H1402 H 0.6454 0.11948 0.96067 0.0
H1403 H 0.66823 0.15377 0.01534 0.0
H1404 H 0.67714 0.18201 0.0351 0.0
H1405 H 0.6167 0.17385 0.02922 0.0
H1406 H 0.60757 0.1458 0.00917 0.0
H1407 H 0.57244 0.02599 0.99446 0.0
H1408 H 0.604 0.05835 0.99093 0.0
H1409 H 0.5703 0.08936 0.99973 0.0
H1410 H 0.53889 0.05708 0.00361 0.0
H1411 H 0.60598 0.11022 0.01343 0.0
H1412 H 0.58213 0.0805 0.9591 0.0
H1413 H 0.57003 0.05409 0.937 0.0
H1414 H 0.62777 0.05557 0.93884 0.0
H1415 H 0.64013 0.08181 0.96115 0.0
C1416 C 0.67224 0.18785 0.96983 0.0
C1417 C 0.69289 0.19283 0.9717 0.0
C1418 C 0.65626 0.16854 0.97347 0.0
C1419 C 0.66046 0.15355 0.97874 0.0
C1420 C 0.68094 0.15798 0.97973 0.0
C1421 C 0.69704 0.17749 0.97635 0.0
C1422 C 0.64331 0.13353 0.98364 0.0
C1423 C 0.63703 0.11728 0.97237 0.0
C1424 C 0.63181 0.131 0.99851 0.0
C1425 C 0.63731 0.14784 0.0106 0.0
C1426 C 0.65692 0.15815 0.0181 0.0
C1427 C 0.66199 0.17409 0.02939 0.0
C1428 C 0.64752 0.17977 0.03337 0.0
C1429 C 0.62792 0.16947 0.02611 0.0
C1430 C 0.62278 0.15355 0.01478 0.0
C1431 C 0.5719 0.03977 0.99587 0.0
C1432 C 0.55331 0.03905 0.99947 0.0
C1433 C 0.58988 0.05824 0.99375 0.0
C1434 C 0.5895 0.07636 0.99467 0.0
C1435 C 0.57102 0.07565 0.99885 0.0
C1436 C 0.55306 0.05717 1.00113 0.0
C1437 C 0.60807 0.09592 0.99054 0.0
C1438 C 0.6145 0.1122 1.00185 0.0
C1439 C 0.61927 0.09867 0.97539 0.0
C1440 C 0.61197 0.08296 0.96193 0.0
C1441 C 0.5922 0.07509 0.95489 0.0
C1442 C 0.58529 0.06017 0.94231 0.0
C1443 C 0.5981 0.05312 0.93655 0.0
C1444 C 0.61786 0.06102 0.94333 0.0
C1445 C 0.62482 0.07593 0.95594 0.0
H1446 H 0.59274 0.04157 0.92681 0.0
H1447 H 0.65147 0.19211 0.04213 0.0
H1448 H 0.83002 0.53363 0.98457 0.0
H1449 H 0.8641 0.5373 0.98891 0.0
H1450 H 0.84526 0.48298 0.95981 0.0
H1451 H 0.81129 0.47912 0.95583 0.0
H1452 H 0.86144 0.48056 0.9879 0.0
H1453 H 0.88151 0.53109 0.94538 0.0
H1454 H 0.88505 0.56171 0.93208 0.0
H1455 H 0.92047 0.59713 0.97482 0.0
H1456 H 0.9169 0.56666 0.98849 0.0
H1457 H 0.95703 0.48292 0.9903 0.0
H1458 H 0.92513 0.48159 0.98241 0.0
H1459 H 0.9488 0.542 0.00204 0.0
H1460 H 0.98201 0.54435 0.00691 0.0
H1461 H 0.92922 0.54099 0.97835 0.0
H1462 H 0.90679 0.48684 0.02117 0.0
H1463 H 0.90146 0.45443 0.03215 0.0
H1464 H 0.86962 0.42435 0.98651 0.0
H1465 H 0.87477 0.45643 0.97509 0.0
C1466 C 0.83339 0.52279 0.97877 0.0
C1467 C 0.81799 0.50608 0.96989 0.0
C1468 C 0.85286 0.52485 0.98128 0.0
C1469 C 0.85736 0.51037 0.97475 0.0
C1470 C 0.84224 0.49427 0.96514 0.0
C1471 C 0.82283 0.49213 0.96278 0.0
C1472 C 0.87714 0.511 0.97883 0.0
C1473 C 0.8763 0.49376 0.98573 0.0
C1474 C 0.89657 0.52822 0.97623 0.0
C1475 C 0.89875 0.54656 0.96804 0.0
C1476 C 0.8899 0.54538 0.95201 0.0
C1477 C 0.89194 0.56272 0.94439 0.0
C1478 C 0.90293 0.58134 0.95262 0.0
C1479 C 0.91194 0.58268 0.96847 0.0
C1480 C 0.90992 0.56539 0.97615 0.0
C1481 C 0.95522 0.49576 0.99319 0.0
C1482 C 0.97167 0.51342 1.00006 0.0
C1483 C 0.93674 0.49494 0.98886 0.0
C1484 C 0.93365 0.51129 0.99232 0.0
C1485 C 0.95029 0.52896 0.99926 0.0
C1486 C 0.96926 0.53023 0.00243 0.0
C1487 C 0.91375 0.51059 0.98797 0.0
C1488 C 0.91447 0.52783 0.98089 0.0
C1489 C 0.89412 0.49322 0.99026 0.0
C1490 C 0.89125 0.47406 0.99726 0.0
C1491 C 0.89871 0.47334 0.01346 0.0
C1492 C 0.89574 0.45505 0.01976 0.0
C1493 C 0.88523 0.43743 0.01009 0.0
C1494 C 0.87772 0.43801 0.99401 0.0
C1495 C 0.88064 0.45621 0.98762 0.0
H1496 H 0.88281 0.4233 0.01511 0.0
H1497 H 0.90449 0.59475 0.9467 0.0
H1498 H 0.48675 0.29507 0.97684 0.0
H1499 H 0.47863 0.32175 0.98262 0.0
H1500 H 0.53468 0.36488 0.95827 0.0
H1501 H 0.54265 0.3383 0.9522 0.0
H1502 H 0.49963 0.35466 0.00201 0.0
H1503 H 0.52855 0.40171 0.94006 0.0
H1504 H 0.5296 0.39608 0.90934 0.0
H1505 H 0.47853 0.33607 0.914 0.0
H1506 H 0.47694 0.34144 0.94468 0.0
H1507 H 0.5302 0.45596 0.01649 0.0
H1508 H 0.52724 0.42411 0.00799 0.0
H1509 H 0.47649 0.41207 0.97489 0.0
H1510 H 0.47967 0.44439 0.9831 0.0
H1511 H 0.50148 0.40288 0.95931 0.0
H1512 H 0.46892 0.3869 0.01328 0.0
H1513 H 0.46566 0.392 0.04377 0.0
H1514 H 0.51921 0.3876 0.05461 0.0
H1515 H 0.52292 0.38268 0.02417 0.0
C1516 C 0.49714 0.31018 0.97246 0.0
C1517 C 0.51538 0.3146 0.96412 0.0
C1518 C 0.49255 0.32542 0.97586 0.0
C1519 C 0.50597 0.3453 0.97079 0.0
C1520 C 0.52395 0.34963 0.96212 0.0
C1521 C 0.52858 0.33445 0.9588 0.0
C1522 C 0.50198 0.36184 0.97543 0.0
C1523 C 0.49987 0.3651 0.99265 0.0
C1524 C 0.50193 0.3753 0.9632 0.0
C1525 C 0.50275 0.37194 0.94472 0.0
C1526 C 0.51749 0.38734 0.93453 0.0
C1527 C 0.51818 0.38419 0.91712 0.0
C1528 C 0.50418 0.36571 0.90973 0.0
C1529 C 0.48942 0.35035 0.91974 0.0
C1530 C 0.48864 0.35343 0.93715 0.0
C1531 C 0.51823 0.44649 0.00754 0.0
C1532 C 0.50501 0.45265 1.00061 0.0
C1533 C 0.51653 0.42821 0.00271 0.0
C1534 C 0.50139 0.41546 0.99103 0.0
C1535 C 0.48823 0.4216 0.98398 0.0
C1536 C 0.49004 0.44005 0.98871 0.0
C1537 C 0.49981 0.39604 0.98592 0.0
C1538 C 0.50094 0.39227 0.96863 0.0
C1539 C 0.49864 0.38194 0.99805 0.0
C1540 C 0.49622 0.38447 0.01643 0.0
C1541 C 0.48003 0.38707 0.02216 0.0
C1542 C 0.47809 0.38991 0.03944 0.0
C1543 C 0.49221 0.39009 0.05112 0.0
C1544 C 0.50827 0.3874 0.04555 0.0
C1545 C 0.51026 0.38453 0.02829 0.0
H1546 H 0.49072 0.39236 0.06448 0.0
H1547 H 0.50474 0.36331 0.89625 0.0
H1548 H 0.21495 0.68909 0.0292 0.0
H1549 H 0.18035 0.66098 0.02499 0.0
H1550 H 0.1616 0.67566 0.07201 0.0
H1551 H 0.19675 0.70372 0.07661 0.0
H1552 H 0.14692 0.63551 0.06948 0.0
H1553 H 0.14587 0.68496 0.03417 0.0
H1554 H 0.1582 0.71161 0.01259 0.0
H1555 H 0.15535 0.66988 0.97471 0.0
H1556 H 0.14328 0.64304 0.99611 0.0
H1557 H 0.04282 0.56084 0.04504 0.0
H1558 H 0.07282 0.59295 0.05345 0.0
H1559 H 0.10732 0.58734 0.01242 0.0
H1560 H 0.07786 0.55519 0.00425 0.0
H1561 H 0.11057 0.62535 0.01447 0.0
H1562 H 0.11533 0.57722 0.05128 0.0
H1563 H 0.10249 0.55072 0.07303 0.0
H1564 H 0.09711 0.59047 0.10843 0.0
H1565 H 0.10972 0.61718 0.08681 0.0
C1566 C 0.20352 0.68639 0.0387 0.0
C1567 C 0.20869 0.69862 0.05331 0.0
C1568 C 0.18363 0.67037 0.03619 0.0
C1569 C 0.16823 0.66625 0.04809 0.0
C1570 C 0.1732 0.67856 0.06262 0.0
C1571 C 0.19323 0.69469 0.06516 0.0
C1572 C 0.14722 0.64872 0.0453 0.0
C1573 C 0.13875 0.6335 0.0576 0.0
C1574 C 0.13656 0.64592 0.02976 0.0
C1575 C 0.14378 0.66201 0.01679 0.0
C1576 C 0.14801 0.68149 0.02127 0.0
C1577 C 0.15493 0.69663 0.00906 0.0
C1578 C 0.15759 0.69245 0.9923 0.0
C1579 C 0.15329 0.6731 0.9877 0.0
C1580 C 0.14637 0.65791 0.99986 0.0
C1581 C 0.05677 0.56644 0.03778 0.0
C1582 C 0.05775 0.55547 0.02378 0.0
C1583 C 0.07392 0.58478 0.04265 0.0
C1584 C 0.0923 0.59254 0.03356 0.0
C1585 C 0.09326 0.5817 0.01956 0.0
C1586 C 0.07628 0.56332 0.01483 0.0
C1587 C 0.11066 0.612 0.0384 0.0
C1588 C 0.11858 0.62756 0.02647 0.0
C1589 C 0.12066 0.61512 0.05431 0.0
C1590 C 0.11321 0.59911 0.06734 0.0
C1591 C 0.11124 0.58026 0.06365 0.0
C1592 C 0.10404 0.56522 0.07596 0.0
C1593 C 0.09888 0.56888 0.09207 0.0
C1594 C 0.10105 0.58764 0.09593 0.0
C1595 C 0.10824 0.60275 0.08365 0.0
H1596 H 0.09326 0.5572 0.10157 0.0
H1597 H 0.16295 0.70419 0.98287 0.0
H1598 H 0.31713 0.49229 0.07394 0.0
H1599 H 0.34725 0.48839 0.06898 0.0
H1600 H 0.33711 0.48721 0.01499 0.0
H1601 H 0.30727 0.49123 0.01994 0.0
H1602 H 0.34889 0.46003 0.02406 0.0
H1603 H 0.37092 0.53011 0.03405 0.0
H1604 H 0.37385 0.55887 0.05049 0.0
H1605 H 0.40367 0.54599 0.0911 0.0
H1606 H 0.40063 0.51695 0.07499 0.0
H1607 H 0.47009 0.52156 0.01429 0.0
H1608 H 0.43674 0.51949 0.01744 0.0
H1609 H 0.41052 0.45801 0.03409 0.0
H1610 H 0.44343 0.45972 0.02987 0.0
H1611 H 0.41617 0.51575 0.04394 0.0
H1612 H 0.36413 0.43227 0.03175 0.0
H1613 H 0.36009 0.40478 0.01275 0.0
H1614 H 0.38939 0.44716 0.97259 0.0
H1615 H 0.39378 0.47489 0.99154 0.0
C1616 C 0.32107 0.49063 0.06107 0.0
C1617 C 0.30982 0.4919 0.04732 0.0
C1618 C 0.33837 0.48861 0.05822 0.0
C1619 C 0.34462 0.48772 0.04159 0.0
C1620 C 0.33265 0.48785 0.02792 0.0
C1621 C 0.31557 0.4901 0.03075 0.0
C1622 C 0.36418 0.48783 0.0382 0.0
C1623 C 0.36359 0.47215 0.02853 0.0
C1624 C 0.38347 0.50377 0.04373 0.0
C1625 C 0.38533 0.52123 0.05341 0.0
C1626 C 0.37794 0.53331 0.04655 0.0
C1627 C 0.37965 0.54968 0.0558 0.0
C1628 C 0.38888 0.55422 0.07185 0.0
C1629 C 0.39648 0.54243 0.07868 0.0
C1630 C 0.39477 0.52602 0.0695 0.0
C1631 C 0.45703 0.5074 0.01802 0.0
C1632 C 0.45931 0.49064 0.02142 0.0
C1633 C 0.43795 0.50627 0.02004 0.0
C1634 C 0.42078 0.48848 0.02582 0.0
C1635 C 0.42312 0.47173 0.02911 0.0
C1636 C 0.44207 0.47277 0.02683 0.0
C1637 C 0.40099 0.48794 0.02967 0.0
C1638 C 0.40151 0.50353 0.03954 0.0
C1639 C 0.38162 0.47203 0.02417 0.0
C1640 C 0.37963 0.4556 0.01304 0.0
C1641 C 0.36983 0.43568 0.01889 0.0
C1642 C 0.36751 0.4201 0.00817 0.0
C1643 C 0.37465 0.42426 0.99152 0.0
C1644 C 0.3841 0.444 0.98555 0.0
C1645 C 0.38666 0.45967 0.99629 0.0
H1646 H 0.37275 0.41217 0.9832 0.0
H1647 H 0.3902 0.56691 0.07899 0.0
H1648 H 0.47619 0.80507 0.07028 0.0
H1649 H 0.48294 0.83905 0.06417 0.0
H1650 H 0.53987 0.85281 0.04028 0.0
H1651 H 0.53301 0.8186 0.04616 0.0
H1652 H 0.51335 0.8773 0.07183 0.0
H1653 H 0.54414 0.881 0.00473 0.0
H1654 H 0.54286 0.85821 0.98195 0.0
H1655 H 0.48396 0.81216 0.99926 0.0
H1656 H 0.48478 0.83477 0.02198 0.0
H1657 H 0.53616 0.9726 0.03712 0.0
H1658 H 0.53976 0.94398 0.04611 0.0
H1659 H 0.48909 0.90463 0.01341 0.0
H1660 H 0.48595 0.93312 0.00395 0.0
H1661 H 0.51694 0.89492 0.01098 0.0
H1662 H 0.48623 0.91097 0.05855 0.0
H1663 H 0.48548 0.93262 0.08147 0.0
H1664 H 0.5399 0.93722 0.10357 0.0
H1665 H 0.54122 0.91596 0.08061 0.0
C1666 C 0.49022 0.81538 0.06382 0.0
C1667 C 0.50395 0.8091 0.05851 0.0
C1668 C 0.49414 0.83484 0.06047 0.0
C1669 C 0.5118 0.8484 0.05163 0.0
C1670 C 0.52605 0.84252 0.047 0.0
C1671 C 0.52218 0.82302 0.05044 0.0
C1672 C 0.51431 0.86803 0.0462 0.0
C1673 C 0.51431 0.88129 0.05854 0.0
C1674 C 0.51545 0.87315 0.02887 0.0
C1675 C 0.51467 0.85949 0.01517 0.0
C1676 C 0.53091 0.86602 0.00364 0.0
C1677 C 0.53026 0.85314 0.99074 0.0
C1678 C 0.51338 0.83372 0.9892 0.0
C1679 C 0.49707 0.82717 1.00051 0.0
C1680 C 0.49763 0.84001 0.01341 0.0
C1681 C 0.52588 0.95785 0.03179 0.0
C1682 C 0.51076 0.95515 0.01983 0.0
C1683 C 0.52788 0.94148 0.03701 0.0
C1684 C 0.5145 0.92204 0.03065 0.0
C1685 C 0.49964 0.91945 0.01851 0.0
C1686 C 0.49784 0.9358 0.01311 0.0
C1687 C 0.51559 0.90418 0.03658 0.0
C1688 C 0.51632 0.89121 0.02431 0.0
C1689 C 0.51485 0.89925 0.05399 0.0
C1690 C 0.51397 0.91207 0.06774 0.0
C1691 C 0.49813 0.91675 0.06821 0.0
C1692 C 0.4976 0.92894 0.08122 0.0
C1693 C 0.51268 0.93634 0.09393 0.0
C1694 C 0.52828 0.93153 0.09368 0.0
C1695 C 0.52894 0.91943 0.08067 0.0
H1696 H 0.5123 0.94576 0.104 0.0
H1697 H 0.51291 0.82377 0.97922 0.0
H1698 H 0.97535 0.17593 0.42029 0.0
H1699 H 0.0058 0.20557 0.40986 0.0
H1700 H 0.9855 0.18694 0.3583 0.0
H1701 H 0.9543 0.15765 0.36869 0.0
H1702 H 0.03632 0.20934 0.39248 0.0
H1703 H 1.00517 0.22875 0.33264 0.0
H1704 H 0.97286 0.2256 0.32187 0.0
H1705 H 0.95307 0.2253 0.37292 0.0
H1706 H 0.98536 0.22871 0.38398 0.0
H1707 H 0.1226 0.28418 0.34969 0.0
H1708 H 0.08977 0.2536 0.35437 0.0
H1709 H 0.06284 0.28969 0.36847 0.0
H1710 H 0.09548 0.32034 0.3629 0.0
H1711 H 0.03543 0.25805 0.35178 0.0
H1712 H 0.08155 0.26887 0.39849 0.0
H1713 H 0.1127 0.2733 0.41289 0.0
H1714 H 0.10155 0.21649 0.39303 0.0
H1715 H 0.0704 0.21176 0.37836 0.0
C1716 C 0.97707 0.17826 0.40672 0.0
C1717 C 0.96215 0.16438 0.39537 0.0
C1718 C 0.99469 0.19517 0.40075 0.0
C1719 C 0.998 0.19867 0.38327 0.0
C1720 C 0.98324 0.1848 0.37185 0.0
C1721 C 0.96547 0.1679 0.37783 0.0
C1722 C 0.01716 0.21661 0.37719 0.0
C1723 C 0.03607 0.21992 0.38352 0.0
C1724 C 0.01698 0.23062 0.36561 0.0
C1725 C 0.99758 0.22873 0.35912 0.0
C1726 C 0.99394 0.22805 0.34155 0.0
C1727 C 0.97563 0.22623 0.3354 0.0
C1728 C 0.96089 0.22517 0.3467 0.0
C1729 C 0.96446 0.22603 0.36418 0.0
C1730 C 0.98275 0.22788 0.3704 0.0
C1731 C 0.10954 0.2856 0.35329 0.0
C1732 C 0.11149 0.30467 0.35559 0.0
C1733 C 0.0908 0.26808 0.3562 0.0
C1734 C 0.07381 0.26925 0.36204 0.0
C1735 C 0.07564 0.28831 0.36393 0.0
C1736 C 0.09431 0.30583 0.3608 0.0
C1737 C 0.05454 0.25078 0.36716 0.0
C1738 C 0.03565 0.24735 0.36061 0.0
C1739 C 0.05465 0.23688 0.37888 0.0
C1740 C 0.07374 0.24004 0.38723 0.0
C1741 C 0.08585 0.25742 0.39706 0.0
C1742 C 0.10348 0.25996 0.4053 0.0
C1743 C 0.10907 0.24518 0.40389 0.0
C1744 C 0.09717 0.22791 0.39411 0.0
C1745 C 0.07952 0.22528 0.38585 0.0
H1746 H 0.1225 0.24699 0.41048 0.0
H1747 H 0.94672 0.22374 0.34192 0.0
H1748 H 0.84603 0.81353 0.42077 0.0
H1749 H 0.81656 0.81547 0.41023 0.0
H1750 H 0.83134 0.80776 0.35898 0.0
H1751 H 0.86064 0.80518 0.36954 0.0
H1752 H 0.81197 0.84053 0.39006 0.0
H1753 H 0.78646 0.78182 0.33597 0.0
H1754 H 0.78833 0.75158 0.32819 0.0
H1755 H 0.79243 0.73979 0.38085 0.0
H1756 H 0.79032 0.76979 0.38894 0.0
H1757 H 0.72996 0.84425 0.35093 0.0
H1758 H 0.76171 0.84311 0.35284 0.0
H1759 H 0.72792 0.78248 0.37194 0.0
H1760 H 0.69586 0.78284 0.36796 0.0
H1761 H 0.7581 0.78512 0.35519 0.0
H1762 H 0.75366 0.82812 0.39909 0.0
H1763 H 0.74669 0.85579 0.4049 0.0
H1764 H 0.79889 0.896 0.3753 0.0
H1765 H 0.80609 0.86851 0.36923 0.0
C1766 C 0.84294 0.812 0.40725 0.0
C1767 C 0.85565 0.80889 0.39606 0.0
C1768 C 0.82615 0.81337 0.40121 0.0
C1769 C 0.8215 0.81162 0.3838 0.0
C1770 C 0.83439 0.80893 0.3725 0.0
C1771 C 0.85125 0.80758 0.37855 0.0
C1772 C 0.80288 0.81212 0.37768 0.0
C1773 C 0.80026 0.82841 0.3824 0.0
C1774 C 0.78739 0.79635 0.36772 0.0
C1775 C 0.78849 0.77819 0.36302 0.0
C1776 C 0.78772 0.77274 0.34588 0.0
C1777 C 0.78882 0.75565 0.34142 0.0
C1778 C 0.79058 0.74382 0.35402 0.0
C1779 C 0.79116 0.74901 0.3711 0.0
C1780 C 0.79003 0.76607 0.37563 0.0
C1781 C 0.72919 0.83041 0.35485 0.0
C1782 C 0.71029 0.81344 0.3588 0.0
C1783 C 0.74748 0.82989 0.35632 0.0
C1784 C 0.74749 0.81291 0.36306 0.0
C1785 C 0.72852 0.79581 0.36672 0.0
C1786 C 0.71017 0.79606 0.36456 0.0
C1787 C 0.76711 0.8134 0.36766 0.0
C1788 C 0.76991 0.79731 0.36272 0.0
C1789 C 0.78257 0.82913 0.37771 0.0
C1790 C 0.78034 0.84628 0.38365 0.0
C1791 C 0.76385 0.84296 0.39408 0.0
C1792 C 0.75977 0.85855 0.3973 0.0
C1793 C 0.7722 0.87754 0.3903 0.0
C1794 C 0.78921 0.88122 0.38062 0.0
C1795 C 0.79336 0.86568 0.37734 0.0
H1796 H 0.76855 0.88935 0.39224 0.0
H1797 H 0.79145 0.7306 0.35054 0.0
H1798 H 0.17215 0.03674 0.38986 0.0
H1799 H 0.1715 0.00684 0.37867 0.0
H1800 H 0.23612 0.03317 0.38955 0.0
H1801 H 0.23728 0.06388 0.39956 0.0
H1802 H 0.22789 0.01248 0.36164 0.0
H1803 H 0.19836 0.99879 0.4168 0.0
H1804 H 0.17517 0.99713 0.43952 0.0
H1805 H 0.12301 0.95597 0.4095 0.0
H1806 H 0.14589 0.95762 0.3865 0.0
H1807 H 0.22099 0.91424 0.36819 0.0
H1808 H 0.22532 0.94717 0.37612 0.0
H1809 H 0.16998 0.93297 0.34869 0.0
H1810 H 0.16581 0.90044 0.34032 0.0
H1811 H 0.17492 0.94741 0.38563 0.0
H1812 H 0.2069 0.96252 0.33017 0.0
H1813 H 0.23172 0.96374 0.30925 0.0
H1814 H 0.28153 0.0018 0.34271 0.0
H1815 H 0.25695 1.00054 0.36397 0.0
C1816 C 0.18639 0.03649 0.38948 0.0
C1817 C 0.20474 0.05276 0.39583 0.0
C1818 C 0.18591 0.01918 0.3833 0.0
C1819 C 0.20363 0.01747 0.38372 0.0
C1820 C 0.22219 0.03401 0.38927 0.0
C1821 C 0.22276 0.0515 0.39519 0.0
C1822 C 0.20258 0.99817 0.379 0.0
C1823 C 0.21645 0.99831 0.36706 0.0
C1824 C 0.18766 0.97959 0.38602 0.0
C1825 C 0.17384 0.97848 0.39987 0.0
C1826 C 0.18194 0.98949 0.415 0.0
C1827 C 0.16885 0.98854 0.42793 0.0
C1828 C 0.14763 0.97649 0.42594 0.0
C1829 C 0.13945 0.96532 0.41102 0.0
C1830 C 0.15247 0.96625 0.39804 0.0
C1831 C 0.20982 0.91819 0.3638 0.0
C1832 C 0.19307 0.90475 0.35365 0.0
C1833 C 0.21234 0.93698 0.3683 0.0
C1834 C 0.19796 0.94239 0.36296 0.0
C1835 C 0.18122 0.929 0.3529 0.0
C1836 C 0.17891 0.91045 0.34812 0.0
C1837 C 0.19997 0.96182 0.36819 0.0
C1838 C 0.18633 0.96165 0.38028 0.0
C1839 C 0.21532 0.98033 0.36157 0.0
C1840 C 0.23008 0.98123 0.34874 0.0
C1841 C 0.22313 0.97097 0.33315 0.0
C1842 C 0.23715 0.9717 0.32121 0.0
C1843 C 0.25818 0.98278 0.32467 0.0
C1844 C 0.26523 0.99319 0.34006 0.0
C1845 C 0.25126 0.99249 0.35205 0.0
H1846 H 0.26902 0.98333 0.31542 0.0
H1847 H 0.13752 0.97577 0.43596 0.0
H1848 H 0.50993 0.61426 0.28609 0.0
H1849 H 0.53956 0.64577 0.29511 0.0
H1850 H 0.49956 0.66567 0.31554 0.0
H1851 H 0.46987 0.63509 0.305 0.0
H1852 H 0.5282 0.69544 0.30152 0.0
H1853 H 0.52826 0.64819 0.34069 0.0
H1854 H 0.52781 0.61735 0.35011 0.0
H1855 H 0.58454 0.63572 0.32438 0.0
H1856 H 0.5852 0.66656 0.31462 0.0
H1857 H 0.60356 0.77399 0.35314 0.0
H1858 H 0.57488 0.74134 0.34463 0.0
H1859 H 0.61454 0.73185 0.31131 0.0
H1860 H 0.6435 0.76472 0.31968 0.0
H1861 H 0.58693 0.69732 0.33201 0.0
H1862 H 0.58553 0.74632 0.29418 0.0
H1863 H 0.58541 0.77784 0.28839 0.0
H1864 H 0.52928 0.75593 0.31599 0.0
H1865 H 0.5293 0.72446 0.32224 0.0
C1866 C 0.50731 0.62538 0.29228 0.0
C1867 C 0.48726 0.62189 0.29472 0.0
C1868 C 0.5244 0.64337 0.29775 0.0
C1869 C 0.52197 0.65813 0.30635 0.0
C1870 C 0.50199 0.6546 0.309 0.0
C1871 C 0.48491 0.63684 0.30316 0.0
C1872 C 0.54017 0.67746 0.31214 0.0
C1873 C 0.54085 0.69571 0.30838 0.0
C1874 C 0.55699 0.67811 0.32094 0.0
C1875 C 0.55666 0.65958 0.32679 0.0
C1876 C 0.54056 0.64558 0.33694 0.0
C1877 C 0.54029 0.62811 0.34236 0.0
C1878 C 0.55611 0.62455 0.33781 0.0
C1879 C 0.57228 0.63848 0.32787 0.0
C1880 C 0.57262 0.65597 0.32241 0.0
C1881 C 0.60632 0.76496 0.3441 0.0
C1882 C 0.62589 0.77205 0.33706 0.0
C1883 C 0.58984 0.74629 0.33922 0.0
C1884 C 0.59255 0.73423 0.32727 0.0
C1885 C 0.61214 0.74095 0.32055 0.0
C1886 C 0.62864 0.75977 0.3253 0.0
C1887 C 0.57472 0.71495 0.32139 0.0
C1888 C 0.57418 0.69684 0.32512 0.0
C1889 C 0.55781 0.71438 0.31297 0.0
C1890 C 0.5575 0.73309 0.30879 0.0
C1891 C 0.57323 0.74828 0.2991 0.0
C1892 C 0.57319 0.76615 0.29574 0.0
C1893 C 0.55739 0.76893 0.30187 0.0
C1894 C 0.54155 0.75379 0.31129 0.0
C1895 C 0.54156 0.73593 0.31473 0.0
H1896 H 0.55741 0.78278 0.29929 0.0
H1897 H 0.55587 0.61102 0.34201 0.0
H1898 H 0.397 0.89963 0.29229 0.0
H1899 H 0.36529 0.89762 0.30248 0.0
H1900 H 0.33693 0.83308 0.30565 0.0
H1901 H 0.36866 0.83501 0.29558 0.0
H1902 H 0.31207 0.8462 0.28913 0.0
H1903 H 0.35081 0.85918 0.341 0.0
H1904 H 0.38108 0.87762 0.35964 0.0
H1905 H 0.37659 0.93106 0.35511 0.0
H1906 H 0.34646 0.91301 0.33624 0.0
H1907 H 0.22269 0.83066 0.3337 0.0
H1908 H 0.2548 0.83066 0.32821 0.0
H1909 H 0.28672 0.89521 0.32319 0.0
H1910 H 0.25464 0.89523 0.32833 0.0
H1911 H 0.3094 0.8808 0.34158 0.0
H1912 H 0.27177 0.86953 0.29016 0.0
H1913 H 0.24186 0.8527 0.271 0.0
H1914 H 0.2453 0.79855 0.27259 0.0
H1915 H 0.27499 0.81492 0.29218 0.0
C1916 C 0.38404 0.88502 0.29523 0.0
C1917 C 0.38544 0.8675 0.29318 0.0
C1918 C 0.36593 0.88388 0.3011 0.0
C1919 C 0.34868 0.86519 0.3049 0.0
C1920 C 0.35 0.84767 0.30284 0.0
C1921 C 0.36822 0.84882 0.29721 0.0
C1922 C 0.32921 0.86395 0.31078 0.0
C1923 C 0.31139 0.85345 0.30076 0.0
C1924 C 0.32842 0.87393 0.32568 0.0
C1925 C 0.34649 0.88479 0.33707 0.0
C1926 C 0.35638 0.87491 0.34386 0.0
C1927 C 0.37349 0.88528 0.35449 0.0
C1928 C 0.38078 0.90551 0.35852 0.0
C1929 C 0.37094 0.91539 0.35196 0.0
C1930 C 0.35383 0.9051 0.34131 0.0
C1931 C 0.23665 0.84487 0.33177 0.0
C1932 C 0.23627 0.86301 0.33169 0.0
C1933 C 0.25496 0.84484 0.32853 0.0
C1934 C 0.2732 0.86293 0.32521 0.0
C1935 C 0.27292 0.88109 0.32578 0.0
C1936 C 0.25459 0.88108 0.32869 0.0
C1937 C 0.29224 0.86294 0.32 0.0
C1938 C 0.31 0.87332 0.33006 0.0
C1939 C 0.29304 0.85311 0.30498 0.0
C1940 C 0.2753 0.84329 0.29304 0.0
C1941 C 0.26596 0.85391 0.2867 0.0
C1942 C 0.24907 0.84448 0.2757 0.0
C1943 C 0.24157 0.8245 0.2707 0.0
C1944 C 0.25103 0.81397 0.2766 0.0
C1945 C 0.26787 0.82331 0.28768 0.0
H1946 H 0.22852 0.81724 0.26217 0.0
H1947 H 0.39403 0.91351 0.36676 0.0
H1948 H 0.15607 0.51427 0.26505 0.0
H1949 H 0.1533 0.48318 0.27571 0.0
H1950 H 0.14291 0.49789 0.32618 0.0
H1951 H 0.14513 0.52887 0.31556 0.0
H1952 H 0.17172 0.48521 0.32533 0.0
H1953 H 0.10363 0.4626 0.30465 0.0
H1954 H 0.07755 0.45896 0.2837 0.0
H1955 H 0.09737 0.42851 0.24947 0.0
H1956 H 0.1238 0.43223 0.27013 0.0
H1957 H 0.14658 0.39004 0.35869 0.0
H1958 H 0.14344 0.41906 0.3505 0.0
H1959 H 0.14955 0.40745 0.29788 0.0
H1960 H 0.15273 0.37845 0.30602 0.0
H1961 H 0.12112 0.41841 0.30148 0.0
H1962 H 0.19034 0.44268 0.32076 0.0
H1963 H 0.21683 0.44611 0.34121 0.0
H1964 H 0.19566 0.47353 0.37736 0.0
H1965 H 0.1688 0.46993 0.35723 0.0
C1966 C 0.15288 0.51079 0.27838 0.0
C1967 C 0.15072 0.52408 0.28942 0.0
C1968 C 0.1514 0.49304 0.28446 0.0
C1969 C 0.14775 0.48816 0.30171 0.0
C1970 C 0.14577 0.50141 0.31282 0.0
C1971 C 0.14712 0.51914 0.30673 0.0
C1972 C 0.14623 0.46928 0.30809 0.0
C1973 C 0.16044 0.47057 0.32034 0.0
C1974 C 0.13178 0.45023 0.30129 0.0
C1975 C 0.11581 0.44785 0.28888 0.0
C1976 C 0.10254 0.45526 0.2926 0.0
C1977 C 0.08767 0.45316 0.28079 0.0
C1978 C 0.08583 0.44355 0.26525 0.0
C1979 C 0.09883 0.43597 0.26151 0.0
C1980 C 0.11374 0.43805 0.27327 0.0
C1981 C 0.14738 0.39372 0.34542 0.0
C1982 C 0.15034 0.38218 0.33308 0.0
C1983 C 0.14545 0.41025 0.34073 0.0
C1984 C 0.14664 0.41566 0.32359 0.0
C1985 C 0.14864 0.4036 0.31118 0.0
C1986 C 0.15046 0.38701 0.31587 0.0
C1987 C 0.14672 0.43434 0.31861 0.0
C1988 C 0.13228 0.43303 0.30659 0.0
C1989 C 0.16106 0.45338 0.32552 0.0
C1990 C 0.17745 0.45589 0.33753 0.0
C1991 C 0.19126 0.44933 0.3331 0.0
C1992 C 0.20634 0.45131 0.34464 0.0
C1993 C 0.20792 0.46004 0.36057 0.0
C1994 C 0.19441 0.46678 0.36501 0.0
C1995 C 0.17926 0.46478 0.35354 0.0
H1996 H 0.21965 0.46164 0.36945 0.0
H1997 H 0.07432 0.44194 0.25612 0.0
H1998 H 0.33566 0.53177 0.30112 0.0
H1999 H 0.30745 0.49811 0.30707 0.0
H2000 H 0.35044 0.47771 0.31668 0.0
H2001 H 0.37912 0.51188 0.31161 0.0
H2002 H 0.3113 0.45168 0.294 0.0
H2003 H 0.33464 0.48426 0.34888 0.0
H2004 H 0.34455 0.51201 0.3694 0.0
H2005 H 0.28491 0.50602 0.36462 0.0
H2006 H 0.27477 0.47847 0.34382 0.0
H2007 H 0.23593 0.35834 0.3276 0.0
H2008 H 0.26795 0.39016 0.32349 0.0
H2009 H 0.23593 0.42287 0.33227 0.0
H2010 H 0.2041 0.39109 0.33689 0.0
H2011 H 0.27168 0.44232 0.34665 0.0
H2012 H 0.24791 0.41363 0.29169 0.0
H2013 H 0.23574 0.38739 0.26942 0.0
H2014 H 0.29286 0.38766 0.27189 0.0
H2015 H 0.30526 0.4137 0.29437 0.0
C2016 C 0.33927 0.52025 0.30462 0.0
C2017 C 0.3598 0.52477 0.30623 0.0
C2018 C 0.32305 0.50095 0.3079 0.0
C2019 C 0.32687 0.48551 0.31252 0.0
C2020 C 0.34721 0.48949 0.31319 0.0
C2021 C 0.36357 0.509 0.31018 0.0
C2022 C 0.30944 0.46552 0.31718 0.0
C2023 C 0.30286 0.44945 0.30566 0.0
C2024 C 0.29797 0.46293 0.33208 0.0
C2025 C 0.30405 0.47947 0.34462 0.0
C2026 C 0.32372 0.48902 0.35205 0.0
C2027 C 0.32936 0.50468 0.36377 0.0
C2028 C 0.3154 0.51083 0.36827 0.0
C2029 C 0.29573 0.50128 0.36109 0.0
C2030 C 0.29003 0.48563 0.34934 0.0
C2031 C 0.23586 0.37238 0.32883 0.0
C2032 C 0.21767 0.3723 0.33281 0.0
C2033 C 0.2541 0.39054 0.32637 0.0
C2034 C 0.25437 0.40898 0.32729 0.0
C2035 C 0.23619 0.4089 0.33149 0.0
C2036 C 0.218 0.39073 0.33415 0.0
C2037 C 0.27341 0.4283 0.32346 0.0
C2038 C 0.28022 0.44434 0.33508 0.0
C2039 C 0.28477 0.43102 0.30842 0.0
C2040 C 0.27743 0.41545 0.29484 0.0
C2041 C 0.25782 0.40798 0.28757 0.0
C2042 C 0.25089 0.39316 0.2749 0.0
C2043 C 0.2635 0.38582 0.26928 0.0
C2044 C 0.2831 0.39333 0.27628 0.0
C2045 C 0.29009 0.40813 0.28898 0.0
H2046 H 0.25811 0.37435 0.25947 0.0
H2047 H 0.31979 0.52295 0.37736 0.0
H2048 H 0.49855 0.86933 0.30868 0.0
H2049 H 0.53277 0.87351 0.3139 0.0
H2050 H 0.51141 0.81334 0.29518 0.0
H2051 H 0.4777 0.8093 0.28947 0.0
H2052 H 0.52797 0.82081 0.3287 0.0
H2053 H 0.545 0.84975 0.27296 0.0
H2054 H 0.54894 0.87385 0.25066 0.0
H2055 H 0.59161 0.92299 0.28217 0.0
H2056 H 0.5877 0.89919 0.30478 0.0
H2057 H 0.6182 0.81339 0.33551 0.0
H2058 H 0.58643 0.81271 0.32818 0.0
H2059 H 0.61806 0.87767 0.32976 0.0
H2060 H 0.65034 0.87823 0.33545 0.0
H2061 H 0.59591 0.86861 0.30485 0.0
H2062 H 0.56641 0.84267 0.36272 0.0
H2063 H 0.55635 0.82042 0.38753 0.0
H2064 H 0.53763 0.7691 0.35482 0.0
H2065 H 0.54597 0.79104 0.32975 0.0
C2066 C 0.50133 0.85722 0.30523 0.0
C2067 C 0.48521 0.83885 0.29892 0.0
C2068 C 0.52088 0.85959 0.30828 0.0
C2069 C 0.52463 0.84364 0.3051 0.0
C2070 C 0.5089 0.82579 0.29789 0.0
C2071 C 0.48956 0.8235 0.29469 0.0
C2072 C 0.54406 0.84453 0.31074 0.0
C2073 C 0.54283 0.83115 0.32334 0.0
C2074 C 0.56354 0.85839 0.3042 0.0
C2075 C 0.56587 0.8727 0.29064 0.0
C2076 C 0.55506 0.86571 0.27521 0.0
C2077 C 0.55733 0.87931 0.26249 0.0
C2078 C 0.57047 0.89994 0.26502 0.0
C2079 C 0.58141 0.90701 0.28025 0.0
C2080 C 0.57919 0.89347 0.29301 0.0
C2081 C 0.61827 0.82751 0.33474 0.0
C2082 C 0.63675 0.84588 0.33638 0.0
C2083 C 0.5999 0.82714 0.33069 0.0
C2084 C 0.5993 0.84513 0.32879 0.0
C2085 C 0.61778 0.86349 0.33106 0.0
C2086 C 0.63628 0.86385 0.33449 0.0
C2087 C 0.58 0.8449 0.32311 0.0
C2088 C 0.58117 0.85834 0.31038 0.0
C2089 C 0.56038 0.83135 0.32973 0.0
C2090 C 0.55746 0.81848 0.34448 0.0
C2091 C 0.56045 0.82668 0.36087 0.0
C2092 C 0.55478 0.81409 0.37496 0.0
C2093 C 0.54682 0.79339 0.37282 0.0
C2094 C 0.54401 0.78516 0.3565 0.0
C2095 C 0.54891 0.79761 0.34235 0.0
H2096 H 0.54262 0.7837 0.38378 0.0
H2097 H 0.57221 0.91045 0.25515 0.0
H2098 H 0.16769 0.64064 0.33511 0.0
H2099 H 0.16122 0.66891 0.33772 0.0
H2100 H 0.17529 0.68243 0.28477 0.0
H2101 H 0.18117 0.65374 0.28201 0.0
H2102 H 0.19899 0.7151 0.31125 0.0
H2103 H 0.13048 0.66678 0.29221 0.0
H2104 H 0.09793 0.63453 0.29336 0.0
H2105 H 0.08768 0.64844 0.34392 0.0
H2106 H 0.12035 0.68066 0.34317 0.0
H2107 H 0.17995 0.79636 0.30564 0.0
H2108 H 0.1776 0.76395 0.29902 0.0
H2109 H 0.15231 0.74201 0.34854 0.0
H2110 H 0.15463 0.77436 0.35511 0.0
H2111 H 0.13323 0.71293 0.32299 0.0
H2112 H 0.19948 0.75983 0.34352 0.0
H2113 H 0.23301 0.79091 0.34559 0.0
H2114 H 0.24956 0.77843 0.29686 0.0
H2115 H 0.21566 0.74796 0.29399 0.0
C2116 C 0.16894 0.64942 0.32398 0.0
C2117 C 0.17481 0.64508 0.30835 0.0
C2118 C 0.16526 0.6655 0.32547 0.0
C2119 C 0.16777 0.67768 0.31143 0.0
C2120 C 0.1732 0.6731 0.29571 0.0
C2121 C 0.17646 0.65674 0.29413 0.0
C2122 C 0.16636 0.69612 0.31358 0.0
C2123 C 0.18459 0.71474 0.31342 0.0
C2124 C 0.14764 0.69538 0.31723 0.0
C2125 C 0.12798 0.67604 0.31769 0.0
C2126 C 0.1214 0.66288 0.30364 0.0
C2127 C 0.10289 0.64462 0.30421 0.0
C2128 C 0.09077 0.63941 0.31872 0.0
C2129 C 0.0971 0.65248 0.33269 0.0
C2130 C 0.1156 0.67075 0.3322 0.0
C2131 C 0.17353 0.78444 0.31494 0.0
C2132 C 0.16771 0.78781 0.33095 0.0
C2133 C 0.17229 0.76603 0.3112 0.0
C2134 C 0.16498 0.75068 0.32337 0.0
C2135 C 0.15805 0.75368 0.33901 0.0
C2136 C 0.15958 0.77219 0.34282 0.0
C2137 C 0.16587 0.73207 0.32024 0.0
C2138 C 0.14762 0.71341 0.32047 0.0
C2139 C 0.18469 0.73273 0.31704 0.0
C2140 C 0.20478 0.75171 0.31838 0.0
C2141 C 0.21002 0.76396 0.33302 0.0
C2142 C 0.22914 0.78151 0.33435 0.0
C2143 C 0.24337 0.78675 0.3213 0.0
C2144 C 0.23845 0.77453 0.30686 0.0
C2145 C 0.21923 0.75717 0.30533 0.0
H2146 H 0.25828 0.80018 0.32245 0.0
H2147 H 0.07644 0.62527 0.31914 0.0
H2148 H 0.86732 0.03256 0.35635 0.0
H2149 H 0.83319 0.00291 0.35444 0.0
H2150 H 0.82195 0.01155 0.40656 0.0
H2151 H 0.8565 0.04125 0.40862 0.0
H2152 H 0.81148 0.97312 0.4008 0.0
H2153 H 0.79651 0.0198 0.3746 0.0
H2154 H 0.80115 0.04681 0.35512 0.0
H2155 H 0.79407 0.009 0.31232 0.0
H2156 H 0.78969 0.98185 0.33154 0.0
H2157 H 0.70044 0.89926 0.36935 0.0
H2158 H 0.72842 0.93277 0.37776 0.0
H2159 H 0.77279 0.91628 0.3619 0.0
H2160 H 0.74499 0.88314 0.35281 0.0
H2161 H 0.76229 0.96048 0.35384 0.0
H2162 H 0.81033 0.93962 0.39973 0.0
H2163 H 0.80475 0.91466 0.42171 0.0
H2164 H 0.74284 0.90202 0.42804 0.0
H2165 H 0.74828 0.92748 0.40663 0.0
C2166 C 0.85753 0.02827 0.36738 0.0
C2167 C 0.86465 0.03921 0.38267 0.0
C2168 C 0.83793 0.01137 0.36623 0.0
C2169 C 0.82488 0.00499 0.38032 0.0
C2170 C 0.83172 0.01618 0.39551 0.0
C2171 C 0.85138 0.03323 0.39664 0.0
C2172 C 0.80469 0.986 0.37925 0.0
C2173 C 0.80067 0.97037 0.39059 0.0
C2174 C 0.79029 0.98255 0.36618 0.0
C2175 C 0.7929 0.99883 0.35453 0.0
C2176 C 0.7961 0.01729 0.36104 0.0
C2177 C 0.79865 0.03262 0.35004 0.0
C2178 C 0.79794 0.02963 0.33249 0.0
C2179 C 0.79463 0.01129 0.32591 0.0
C2180 C 0.79207 0.99592 0.33686 0.0
C2181 C 0.71617 0.90281 0.36766 0.0
C2182 C 0.72054 0.88865 0.36032 0.0
C2183 C 0.7321 0.92191 0.37248 0.0
C2184 C 0.75264 0.9269 0.3706 0.0
C2185 C 0.75704 0.91265 0.36358 0.0
C2186 C 0.74114 0.89378 0.35831 0.0
C2187 C 0.7696 0.94741 0.37492 0.0
C2188 C 0.77303 0.96328 0.36413 0.0
C2189 C 0.78325 0.9511 0.38866 0.0
C2190 C 0.77963 0.9353 0.40128 0.0
C2191 C 0.79554 0.9316 0.40583 0.0
C2192 C 0.79245 0.91745 0.41831 0.0
C2193 C 0.77345 0.90675 0.42626 0.0
C2194 C 0.75753 0.91026 0.42182 0.0
C2195 C 0.76061 0.92456 0.40949 0.0
H2196 H 0.77104 0.89571 0.43583 0.0
H2197 H 0.79992 0.04152 0.324 0.0
H2198 H 0.96584 0.80389 0.37884 0.0
H2199 H 0.99583 0.79985 0.37349 0.0
H2200 H 0.03587 0.86028 0.3917 0.0
H2201 H 0.00625 0.86418 0.39749 0.0
H2202 H 0.04362 0.85219 0.35777 0.0
H2203 H 0.03328 0.82464 0.41411 0.0
H2204 H 0.01354 0.80078 0.43676 0.0
H2205 H 0.00653 0.75148 0.40584 0.0
H2206 H 0.02599 0.77504 0.38289 0.0
H2207 H 0.14274 0.86287 0.35196 0.0
H2208 H 0.11083 0.86239 0.35797 0.0
H2209 H 0.07859 0.7974 0.35816 0.0
H2210 H 0.11107 0.7981 0.35357 0.0
H2211 H 0.06515 0.80629 0.38245 0.0
H2212 H 0.06136 0.82965 0.32425 0.0
H2213 H 0.07232 0.85086 0.29874 0.0
H2214 H 0.10217 0.90406 0.32996 0.0
H2215 H 0.09006 0.88308 0.35568 0.0
C2216 C 0.98099 0.81606 0.38218 0.0
C2217 C 0.98362 0.83447 0.38835 0.0
C2218 C 0.99814 0.81378 0.37904 0.0
C2219 C 0.01816 0.82986 0.38202 0.0
C2220 C 0.02064 0.84772 0.38915 0.0
C2221 C 1.00364 0.84993 0.39242 0.0
C2222 C 0.03663 0.82912 0.3762 0.0
C2223 C 0.04845 0.84226 0.36329 0.0
C2224 C 0.04259 0.81573 0.38292 0.0
C2225 C 0.03088 0.80158 0.3967 0.0
C2226 C 0.02734 0.80869 0.41206 0.0
C2227 C 0.01625 0.79523 0.42498 0.0
C2228 C 0.00873 0.77462 0.42272 0.0
C2229 C 0.01233 0.76744 0.40756 0.0
C2230 C 0.02341 0.78085 0.3946 0.0
C2231 C 0.12876 0.84848 0.35278 0.0
C2232 C 0.12941 0.83051 0.35201 0.0
C2233 C 0.11028 0.84816 0.35612 0.0
C2234 C 0.09179 0.82983 0.35828 0.0
C2235 C 0.09242 0.81183 0.3567 0.0
C2236 C 0.111 0.81219 0.35389 0.0
C2237 C 0.07237 0.82939 0.36374 0.0
C2238 C 0.06036 0.81612 0.37672 0.0
C2239 C 0.06586 0.84235 0.35684 0.0
C2240 C 0.07535 0.85484 0.34178 0.0
C2241 C 0.07054 0.84585 0.32563 0.0
C2242 C 0.07667 0.85784 0.31116 0.0
C2243 C 0.08822 0.87881 0.3127 0.0
C2244 C 0.09336 0.88783 0.32877 0.0
C2245 C 0.08664 0.87591 0.34329 0.0
H2246 H 0.09307 0.88805 0.30146 0.0
H2247 H 1.00015 0.76422 0.43274 0.0
H2248 H 0.14375 0.14132 0.40759 0.0
H2249 H 0.15038 0.17543 0.40223 0.0
H2250 H 0.2068 0.18966 0.37719 0.0
H2251 H 0.20005 0.15538 0.38223 0.0
H2252 H 0.18116 0.2144 0.4092 0.0
H2253 H 0.20896 0.21587 0.34129 0.0
H2254 H 0.2066 0.19229 0.3188 0.0
H2255 H 0.1484 0.14704 0.33802 0.0
H2256 H 0.15031 0.17044 0.36045 0.0
H2257 H 0.20376 0.30877 0.37202 0.0
H2258 H 0.20761 0.28034 0.3812 0.0
H2259 H 0.15358 0.23972 0.35229 0.0
H2260 H 0.14995 0.26788 0.3428 0.0
H2261 H 0.18211 0.23014 0.34811 0.0
H2262 H 0.15487 0.24962 0.39546 0.0
H2263 H 0.15634 0.27337 0.41736 0.0
H2264 H 0.20916 0.27508 0.4399 0.0
H2265 H 0.20872 0.2522 0.41764 0.0
C2266 C 0.15766 0.15178 0.40108 0.0
C2267 C 0.17124 0.14559 0.39512 0.0
C2268 C 0.16153 0.17132 0.39817 0.0
C2269 C 0.17897 0.185 0.38917 0.0
C2270 C 0.19318 0.17926 0.38407 0.0
C2271 C 0.18934 0.15971 0.38702 0.0
C2272 C 0.18104 0.20439 0.38363 0.0
C2273 C 0.18157 0.218 0.39586 0.0
C2274 C 0.18138 0.20894 0.36622 0.0
C2275 C 0.17993 0.19482 0.35266 0.0
C2276 C 0.19565 0.2009 0.34068 0.0
C2277 C 0.19439 0.18758 0.32794 0.0
C2278 C 0.1774 0.16816 0.32702 0.0
C2279 C 0.16159 0.16206 0.33878 0.0
C2280 C 0.16277 0.17534 0.35152 0.0
C2281 C 0.1928 0.29379 0.36754 0.0
C2282 C 0.17661 0.29062 0.35661 0.0
C2283 C 0.19499 0.27756 0.37284 0.0
C2284 C 0.18078 0.25787 0.36755 0.0
C2285 C 0.16479 0.25477 0.35648 0.0
C2286 C 0.16274 0.27094 0.35105 0.0
C2287 C 0.18204 0.24023 0.37366 0.0
C2288 C 0.18211 0.22685 0.36149 0.0
C2289 C 0.18198 0.23586 0.39114 0.0
C2290 C 0.1819 0.24933 0.40473 0.0
C2291 C 0.16691 0.25518 0.40499 0.0
C2292 C 0.16754 0.26847 0.41749 0.0
C2293 C 0.18268 0.27556 0.43011 0.0
C2294 C 0.19737 0.26952 0.43016 0.0
C2295 C 0.19702 0.25648 0.41754 0.0
H2296 H 0.18305 0.28575 0.43983 0.0
H2297 H 0.17646 0.15785 0.31717 0.0
H2298 H 0.62369 0.51245 0.7288 0.0
H2299 H 0.65475 0.54186 0.7182 0.0
H2300 H 0.68587 0.50754 0.71766 0.0
H2301 H 0.65482 0.47805 0.72818 0.0
H2302 H 0.70851 0.54566 0.73362 0.0
H2303 H 0.67194 0.51742 0.68137 0.0
H2304 H 0.64218 0.50412 0.66192 0.0
H2305 H 0.64349 0.56071 0.66388 0.0
H2306 H 0.67308 0.57426 0.68356 0.0
H2307 H 0.79687 0.61831 0.68804 0.0
H2308 H 0.76532 0.58625 0.69333 0.0
H2309 H 0.73198 0.61795 0.69984 0.0
H2310 H 0.76358 0.65004 0.69515 0.0
H2311 H 0.71099 0.58024 0.67986 0.0
H2312 H 0.74657 0.6088 0.73189 0.0
H2313 H 0.77537 0.62275 0.75228 0.0
H2314 H 0.7745 0.56639 0.75287 0.0
H2315 H 0.746 0.55222 0.73209 0.0
C2316 C 0.63713 0.51116 0.72634 0.0
C2317 C 0.63678 0.49291 0.72927 0.0
C2318 C 0.65484 0.52794 0.72022 0.0
C2319 C 0.67263 0.52689 0.71707 0.0
C2320 C 0.67232 0.50869 0.71997 0.0
C2321 C 0.65453 0.49182 0.72586 0.0
C2322 C 0.69171 0.54496 0.71122 0.0
C2323 C 0.7092 0.55302 0.72172 0.0
C2324 C 0.69237 0.55488 0.69593 0.0
C2325 C 0.67461 0.54679 0.68407 0.0
C2326 C 0.66577 0.52697 0.67777 0.0
C2327 C 0.64896 0.5194 0.66668 0.0
C2328 C 0.64092 0.53154 0.6617 0.0
C2329 C 0.64972 0.55131 0.66777 0.0
C2330 C 0.66652 0.55895 0.67888 0.0
C2331 C 0.78271 0.61836 0.69026 0.0
C2332 C 0.78254 0.63659 0.69098 0.0
C2333 C 0.76476 0.60008 0.69337 0.0
C2334 C 0.74637 0.59976 0.69707 0.0
C2335 C 0.746 0.61787 0.69698 0.0
C2336 C 0.76401 0.63615 0.6943 0.0
C2337 C 0.72782 0.58083 0.70221 0.0
C2338 C 0.7104 0.57271 0.69165 0.0
C2339 C 0.72716 0.571 0.71758 0.0
C2340 C 0.74452 0.57961 0.72995 0.0
C2341 C 0.7528 0.59949 0.73602 0.0
C2342 C 0.76901 0.60742 0.74774 0.0
C2343 C 0.77688 0.59552 0.75375 0.0
C2344 C 0.76851 0.57565 0.74808 0.0
C2345 C 0.75235 0.56768 0.73629 0.0
H2346 H 0.78935 0.60162 0.7629 0.0
H2347 H 0.6279 0.52566 0.65311 0.0
H2348 H 0.52823 0.13844 0.70147 0.0
H2349 H 0.49787 0.13964 0.69167 0.0
H2350 H 0.48609 0.15045 0.743 0.0
H2351 H 0.5165 0.14963 0.7528 0.0
H2352 H 0.45764 0.11631 0.6993 0.0
H2353 H 0.46481 0.18085 0.74234 0.0
H2354 H 0.4918 0.21182 0.75615 0.0
H2355 H 0.53485 0.21692 0.71823 0.0
H2356 H 0.50806 0.18617 0.70406 0.0
H2357 H 0.36276 0.11587 0.69967 0.0
H2358 H 0.39414 0.11493 0.7054 0.0
H2359 H 0.42999 0.17514 0.68578 0.0
H2360 H 0.39868 0.17668 0.68162 0.0
H2361 H 0.44785 0.17439 0.71169 0.0
H2362 H 0.42683 0.1271 0.66368 0.0
H2363 H 0.40244 0.09715 0.6469 0.0
H2364 H 0.39067 0.05993 0.69071 0.0
H2365 H 0.41508 0.08967 0.70756 0.0
C2366 C 0.51927 0.14125 0.71064 0.0
C2367 C 0.52483 0.14388 0.72794 0.0
C2368 C 0.50182 0.14179 0.70504 0.0
C2369 C 0.48968 0.14526 0.71656 0.0
C2370 C 0.49525 0.14795 0.73381 0.0
C2371 C 0.51258 0.14729 0.73942 0.0
C2372 C 0.47108 0.14583 0.71063 0.0
C2373 C 0.45554 0.12905 0.70198 0.0
C2374 C 0.46828 0.16246 0.71391 0.0
C2375 C 0.48446 0.18108 0.72225 0.0
C2376 C 0.48002 0.18863 0.73692 0.0
C2377 C 0.49528 0.20614 0.74481 0.0
C2378 C 0.51504 0.21629 0.7381 0.0
C2379 C 0.51956 0.209 0.72345 0.0
C2380 C 0.50435 0.19151 0.7155 0.0
C2381 C 0.37734 0.1288 0.69634 0.0
C2382 C 0.37808 0.14614 0.68971 0.0
C2383 C 0.39538 0.12818 0.69944 0.0
C2384 C 0.41473 0.14476 0.69569 0.0
C2385 C 0.41542 0.16201 0.68878 0.0
C2386 C 0.39739 0.16281 0.68612 0.0
C2387 C 0.43421 0.14483 0.70024 0.0
C2388 C 0.44991 0.16167 0.70884 0.0
C2389 C 0.43731 0.12837 0.69671 0.0
C2390 C 0.42234 0.11058 0.68685 0.0
C2391 C 0.41874 0.11253 0.66969 0.0
C2392 C 0.40506 0.09561 0.66018 0.0
C2393 C 0.39485 0.07668 0.66778 0.0
C2394 C 0.39849 0.07461 0.68486 0.0
C2395 C 0.41231 0.09147 0.69436 0.0
H2396 H 0.38422 0.06361 0.66041 0.0
H2397 H 0.52684 0.22984 0.74424 0.0
H2398 H 0.8728 0.37335 0.75521 0.0
H2399 H 0.87394 0.34394 0.7449 0.0
H2400 H 0.88168 0.36615 0.69373 0.0
H2401 H 0.88102 0.39603 0.70401 0.0
H2402 H 0.85218 0.32556 0.69628 0.0
H2403 H 0.9218 0.36917 0.71374 0.0
H2404 H 0.94957 0.39186 0.73326 0.0
H2405 H 0.93053 0.34407 0.76931 0.0
H2406 H 0.90243 0.32115 0.7501 0.0
H2407 H 0.87214 0.25094 0.66404 0.0
H2408 H 0.87711 0.28402 0.67145 0.0
H2409 H 0.8727 0.26901 0.72454 0.0
H2410 H 0.86757 0.23579 0.71709 0.0
H2411 H 0.90238 0.30749 0.71912 0.0
H2412 H 0.83169 0.26467 0.70311 0.0
H2413 H 0.80382 0.24127 0.68396 0.0
H2414 H 0.82432 0.28698 0.64582 0.0
H2415 H 0.85256 0.31055 0.66463 0.0
C2416 C 0.8751 0.37222 0.74179 0.0
C2417 C 0.87701 0.38719 0.73047 0.0
C2418 C 0.87565 0.35531 0.73591 0.0
C2419 C 0.8781 0.35296 0.71858 0.0
C2420 C 0.87979 0.36771 0.70717 0.0
C2421 C 0.87935 0.38473 0.71306 0.0
C2422 C 0.87858 0.33489 0.71248 0.0
C2423 C 0.86337 0.32178 0.70102 0.0
C2424 C 0.89293 0.32977 0.71899 0.0
C2425 C 0.9099 0.34348 0.73053 0.0
C2426 C 0.92343 0.36353 0.72588 0.0
C2427 C 0.93925 0.37643 0.73688 0.0
C2428 C 0.94179 0.36943 0.75253 0.0
C2429 C 0.92854 0.34948 0.75719 0.0
C2430 C 0.91267 0.33652 0.74624 0.0
C2431 C 0.872 0.25458 0.67723 0.0
C2432 C 0.86891 0.24058 0.68992 0.0
C2433 C 0.87504 0.27357 0.68149 0.0
C2434 C 0.87487 0.27883 0.69854 0.0
C2435 C 0.87281 0.26523 0.71129 0.0
C2436 C 0.86988 0.24627 0.70702 0.0
C2437 C 0.87588 0.29808 0.70306 0.0
C2438 C 0.89132 0.31138 0.71425 0.0
C2439 C 0.86166 0.3033 0.6964 0.0
C2440 C 0.84434 0.28934 0.68524 0.0
C2441 C 0.83031 0.26971 0.69061 0.0
C2442 C 0.81445 0.25641 0.67982 0.0
C2443 C 0.8123 0.26264 0.66369 0.0
C2444 C 0.826 0.28218 0.65832 0.0
C2445 C 0.84193 0.29553 0.66905 0.0
H2446 H 0.80001 0.25234 0.65536 0.0
H2447 H 0.95405 0.37944 0.76103 0.0
H2448 H 0.16383 0.96961 0.5972 0.0
H2449 H 0.1937 1.00099 0.60661 0.0
H2450 H 0.18035 0.98174 0.65864 0.0
H2451 H 0.15006 0.95032 0.64923 0.0
H2452 H 0.19215 0.02098 0.65602 0.0
H2453 H 0.21839 0.97872 0.63602 0.0
H2454 H 0.22184 0.95675 0.61495 0.0
H2455 H 0.24757 0.00534 0.57935 0.0
H2456 H 0.24407 0.02755 0.60015 0.0
H2457 H 0.28823 0.09329 0.68979 0.0
H2458 H 0.25883 0.06124 0.68103 0.0
H2459 H 0.27163 0.07893 0.62862 0.0
H2460 H 0.30121 0.11106 0.63745 0.0
H2461 H 0.26016 0.04025 0.6317 0.0
H2462 H 0.23417 0.08252 0.65071 0.0
H2463 H 0.23033 0.10502 0.67093 0.0
H2464 H 0.2037 0.0573 0.70728 0.0
H2465 H 0.20772 0.0346 0.6874 0.0
C2466 C 0.16729 0.97201 0.61065 0.0
C2467 C 0.15473 0.95735 0.62246 0.0
C2468 C 0.1844 0.98997 0.61602 0.0
C2469 C 0.18959 0.99361 0.63333 0.0
C2470 C 0.17674 0.97926 0.64521 0.0
C2471 C 0.15944 0.96131 0.63983 0.0
C2472 C 0.20859 0.01225 0.63891 0.0
C2473 C 0.20706 0.02503 0.65089 0.0
C2474 C 0.22803 0.01787 0.6319 0.0
C2475 C 0.23084 0.00475 0.61961 0.0
C2476 C 0.22475 0.9847 0.62369 0.0
C2477 C 0.2267 0.97221 0.61179 0.0
C2478 C 0.23488 0.97963 0.59581 0.0
C2479 C 0.24124 0.99961 0.59174 0.0
C2480 C 0.23931 0.01217 0.60359 0.0
C2481 C 0.2847 0.09046 0.67645 0.0
C2482 C 0.29679 0.10491 0.66439 0.0
C2483 C 0.26792 0.07205 0.67141 0.0
C2484 C 0.26267 0.06779 0.65415 0.0
C2485 C 0.27527 0.08186 0.64201 0.0
C2486 C 0.2922 0.10023 0.64707 0.0
C2487 C 0.24373 0.04895 0.64885 0.0
C2488 C 0.24527 0.03616 0.63689 0.0
C2489 C 0.22428 0.04341 0.65577 0.0
C2490 C 0.22138 0.05688 0.6676 0.0
C2491 C 0.22758 0.07684 0.66305 0.0
C2492 C 0.22538 0.08964 0.67445 0.0
C2493 C 0.21676 0.08258 0.69037 0.0
C2494 C 0.21035 0.06273 0.69493 0.0
C2495 C 0.21257 0.04988 0.6836 0.0
H2496 H 0.21501 0.09248 0.69916 0.0
H2497 H 0.2363 0.96991 0.58659 0.0
H2498 H 0.06139 0.20173 0.65296 0.0
H2499 H 0.03021 0.20027 0.66374 0.0
H2500 H 0.00575 0.19098 0.61284 0.0
H2501 H 0.03664 0.19201 0.60204 0.0
H2502 H 0.01418 0.22375 0.65811 0.0
H2503 H 0.95187 0.16138 0.61474 0.0
H2504 H 0.94505 0.13029 0.59984 0.0
H2505 H 0.98552 0.12342 0.63421 0.0
H2506 H 0.99222 0.1542 0.64957 0.0
H2507 H 0.92158 0.22725 0.65852 0.0
H2508 H 0.95342 0.22724 0.65305 0.0
H2509 H 0.92643 0.16678 0.67241 0.0
H2510 H 0.8941 0.16638 0.67683 0.0
H2511 H 0.94415 0.16755 0.6454 0.0
H2512 H 0.97186 0.21214 0.69441 0.0
H2513 H 0.97937 0.24156 0.71245 0.0
H2514 H 0.0083 0.28097 0.67041 0.0
H2515 H 1.00116 0.2518 0.65228 0.0
C2516 C 0.04931 0.19919 0.64407 0.0
C2517 C 0.05164 0.19702 0.6266 0.0
C2518 C 0.0315 0.19848 0.65024 0.0
C2519 C 0.01544 0.19533 0.63916 0.0
C2520 C 0.01772 0.19317 0.62173 0.0
C2521 C 0.03556 0.19398 0.61553 0.0
C2522 C 0.9966 0.19491 0.64578 0.0
C2523 C 0.99887 0.2114 0.65533 0.0
C2524 C 0.97652 0.17875 0.6424 0.0
C2525 C 0.97279 0.16031 0.63315 0.0
C2526 C 0.95931 0.15323 0.61914 0.0
C2527 C 0.95543 0.13564 0.61062 0.0
C2528 C 0.96493 0.12495 0.61602 0.0
C2529 C 0.97826 0.13178 0.62999 0.0
C2530 C 0.98212 0.14932 0.63859 0.0
C2531 C 0.92257 0.21409 0.66192 0.0
C2532 C 0.90538 0.19699 0.66846 0.0
C2533 C 0.94094 0.21415 0.65893 0.0
C2534 C 0.94275 0.19716 0.66257 0.0
C2535 C 0.92566 0.18018 0.66952 0.0
C2536 C 0.90716 0.18002 0.67227 0.0
C2537 C 0.96166 0.19646 0.65767 0.0
C2538 C 0.95943 0.17983 0.64829 0.0
C2539 C 0.9818 0.21235 0.66136 0.0
C2540 C 0.98568 0.22983 0.67201 0.0
C2541 C 0.9796 0.22709 0.68904 0.0
C2542 C 0.9839 0.2437 0.69928 0.0
C2543 C 0.99413 0.26309 0.69254 0.0
C2544 C 1.00029 0.26594 0.6756 0.0
C2545 C 0.99622 0.24939 0.66537 0.0
H2546 H 0.99738 0.27592 0.70047 0.0
H2547 H 0.96192 0.11133 0.6094 0.0
H2548 H 0.79616 0.84158 0.61227 0.0
H2549 H 0.7951 0.81142 0.62308 0.0
H2550 H 0.85618 0.84756 0.64371 0.0
H2551 H 0.85819 0.87751 0.63146 0.0
H2552 H 0.85418 0.81658 0.63148 0.0
H2553 H 0.80961 0.82625 0.66843 0.0
H2554 H 0.78077 0.83122 0.67627 0.0
H2555 H 0.73824 0.77441 0.65334 0.0
H2556 H 0.76686 0.76921 0.64516 0.0
H2557 H 0.85034 0.74328 0.68835 0.0
H2558 H 0.84864 0.77265 0.67874 0.0
H2559 H 0.79867 0.73495 0.64492 0.0
H2560 H 0.80038 0.70542 0.65426 0.0
H2561 H 0.79458 0.76592 0.66413 0.0
H2562 H 0.84239 0.75701 0.62935 0.0
H2563 H 0.87259 0.75299 0.6253 0.0
H2564 H 0.91127 0.81116 0.64783 0.0
H2565 H 0.88118 0.81514 0.65272 0.0
C2566 C 0.80954 0.84316 0.61884 0.0
C2567 C 0.82725 0.86218 0.62097 0.0
C2568 C 0.80876 0.82585 0.62532 0.0
C2569 C 0.82539 0.82715 0.63457 0.0
C2570 C 0.84307 0.84608 0.63671 0.0
C2571 C 0.84407 0.86332 0.62988 0.0
C2572 C 0.82462 0.80883 0.64173 0.0
C2573 C 0.84123 0.8057 0.63881 0.0
C2574 C 0.80764 0.79436 0.65114 0.0
C2575 C 0.7904 0.79744 0.65603 0.0
C2576 C 0.79412 0.81488 0.66495 0.0
C2577 C 0.77781 0.81773 0.66947 0.0
C2578 C 0.7577 0.80317 0.66527 0.0
C2579 C 0.75384 0.78569 0.65657 0.0
C2580 C 0.77009 0.78278 0.652 0.0
C2581 C 0.83878 0.74113 0.67903 0.0
C2582 C 0.82557 0.722 0.67197 0.0
C2583 C 0.83787 0.75796 0.67355 0.0
C2584 C 0.82363 0.75593 0.66105 0.0
C2585 C 0.80976 0.73676 0.65458 0.0
C2586 C 0.81083 0.71994 0.65988 0.0
C2587 C 0.82412 0.77398 0.65395 0.0
C2588 C 0.80747 0.77693 0.65682 0.0
C2589 C 0.84128 0.78855 0.64488 0.0
C2590 C 0.85944 0.78626 0.64162 0.0
C2591 C 0.85728 0.76883 0.63367 0.0
C2592 C 0.87439 0.76654 0.63125 0.0
C2593 C 0.89383 0.78173 0.63645 0.0
C2594 C 0.89619 0.79929 0.64398 0.0
C2595 C 0.8791 0.80156 0.64661 0.0
H2596 H 0.90706 0.77994 0.63457 0.0
H2597 H 0.74509 0.8054 0.66879 0.0
H2598 H 0.04656 0.84824 0.64189 0.0
H2599 H 0.01797 0.81447 0.64833 0.0
H2600 H 0.97493 0.83203 0.63079 0.0
H2601 H 1.00318 0.86527 0.62362 0.0
H2602 H 0.97065 0.8171 0.66626 0.0
H2603 H 0.97711 0.80079 0.6081 0.0
H2604 H 0.99576 0.79761 0.58376 0.0
H2605 H 0.00787 0.75685 0.61197 0.0
H2606 H 0.98954 0.76003 0.63659 0.0
H2607 H 0.87381 0.72855 0.67314 0.0
H2608 H 0.90485 0.76012 0.66721 0.0
H2609 H 0.93904 0.72878 0.66424 0.0
H2610 H 0.90739 0.69685 0.66897 0.0
H2611 H 0.94966 0.75092 0.63956 0.0
H2612 H 0.95565 0.77499 0.69866 0.0
H2613 H 0.94571 0.78358 0.72581 0.0
H2614 H 0.91447 0.80922 0.69907 0.0
H2615 H 0.92551 0.80195 0.67177 0.0
C2616 C 0.03105 0.84475 0.63896 0.0
C2617 C 0.02722 0.85967 0.63252 0.0
C2618 C 0.01473 0.82547 0.64272 0.0
C2619 C 0.99434 0.82084 0.64016 0.0
C2620 C 0.99054 0.83534 0.63298 0.0
C2621 C 0.00675 0.85441 0.62901 0.0
C2622 C 0.97686 0.80169 0.64637 0.0
C2623 C 0.96591 0.80262 0.66032 0.0
C2624 C 0.97117 0.78276 0.63905 0.0
C2625 C 0.98218 0.78085 0.62426 0.0
C2626 C 0.98395 0.79133 0.60918 0.0
C2627 C 0.99441 0.78948 0.59532 0.0
C2628 C 1.00306 0.77709 0.59634 0.0
C2629 C 1.0012 0.76647 0.61121 0.0
C2630 C 0.99077 0.76828 0.62512 0.0
C2631 C 0.88804 0.72846 0.6718 0.0
C2632 C 0.88822 0.71024 0.67181 0.0
C2633 C 0.90598 0.74667 0.66846 0.0
C2634 C 0.92468 0.7472 0.66549 0.0
C2635 C 0.92496 0.729 0.66638 0.0
C2636 C 0.90689 0.71072 0.66924 0.0
C2637 C 0.94325 0.76614 0.65971 0.0
C2638 C 0.95439 0.76528 0.6457 0.0
C2639 C 0.94954 0.78518 0.66723 0.0
C2640 C 0.94093 0.78751 0.68327 0.0
C2641 C 0.94642 0.7822 0.69861 0.0
C2642 C 0.94085 0.7871 0.71401 0.0
C2643 C 0.92922 0.79671 0.71419 0.0
C2644 C 0.92338 0.80169 0.69893 0.0
C2645 C 0.92949 0.7974 0.6835 0.0
H2646 H 0.92483 0.80038 0.72614 0.0
H2647 H 0.01114 0.77567 0.58559 0.0
H2648 H 0.14411 0.13885 0.63315 0.0
H2649 H 0.17842 0.14423 0.63824 0.0
H2650 H 0.20122 0.20752 0.64627 0.0
H2651 H 0.16639 0.20213 0.64203 0.0
H2652 H 0.22587 0.1927 0.62335 0.0
H2653 H 0.19634 0.18741 0.67891 0.0
H2654 H 0.16929 0.17142 0.70041 0.0
H2655 H 0.17299 0.11743 0.69716 0.0
H2656 H 0.1998 0.13297 0.6754 0.0
H2657 H 0.32204 0.21184 0.65653 0.0
H2658 H 0.28979 0.21174 0.65179 0.0
H2659 H 0.25585 0.14817 0.66257 0.0
H2660 H 0.28808 0.14837 0.66758 0.0
H2661 H 0.23729 0.16542 0.67671 0.0
H2662 H 0.26303 0.16663 0.62146 0.0
H2663 H 0.28834 0.17878 0.59839 0.0
H2664 H 0.29004 0.23558 0.59891 0.0
H2665 H 0.26493 0.22385 0.62216 0.0
C2666 C 0.1563 0.15397 0.6361 0.0
C2667 C 0.15222 0.16998 0.63755 0.0
C2668 C 0.176 0.157 0.63889 0.0
C2669 C 0.19234 0.17619 0.64286 0.0
C2670 C 0.18878 0.19253 0.64329 0.0
C2671 C 0.16886 0.18945 0.64076 0.0
C2672 C 0.21281 0.17869 0.64717 0.0
C2673 C 0.22856 0.18716 0.63517 0.0
C2674 C 0.21601 0.17064 0.66226 0.0
C2675 C 0.19989 0.16128 0.67535 0.0
C2676 C 0.19121 0.17204 0.68262 0.0
C2677 C 0.17595 0.16307 0.69489 0.0
C2678 C 0.16937 0.14339 0.7001 0.0
C2679 C 0.17807 0.13265 0.69309 0.0
C2680 C 0.19329 0.14154 0.68078 0.0
C2681 C 0.30766 0.19789 0.65799 0.0
C2682 C 0.30758 0.18022 0.66274 0.0
C2683 C 0.28922 0.1978 0.65518 0.0
C2684 C 0.27026 0.1799 0.65661 0.0
C2685 C 0.27019 0.16221 0.6614 0.0
C2686 C 0.28865 0.16233 0.66432 0.0
C2687 C 0.25056 0.17955 0.65293 0.0
C2688 C 0.23482 0.17129 0.66498 0.0
C2689 C 0.24721 0.18733 0.63769 0.0
C2690 C 0.26227 0.19445 0.62369 0.0
C2691 C 0.26893 0.18177 0.61675 0.0
C2692 C 0.28322 0.18857 0.60363 0.0
C2693 C 0.29084 0.20796 0.59722 0.0
C2694 C 0.28415 0.22058 0.6039 0.0
C2695 C 0.26987 0.21386 0.61705 0.0
H2696 H 0.3019 0.2132 0.58706 0.0
H2697 H 0.15757 0.13648 0.70962 0.0
H2698 H 0.86214 0.98815 0.66412 0.0
H2699 H 0.85426 0.01513 0.66836 0.0
H2700 H 0.83854 0.01225 0.61533 0.0
H2701 H 0.84647 0.98509 0.61099 0.0
H2702 H 0.86564 0.05141 0.62699 0.0
H2703 H 0.80117 0.99592 0.64283 0.0
H2704 H 0.77754 0.96451 0.65756 0.0
H2705 H 0.79888 0.99435 0.70574 0.0
H2706 H 0.82288 0.02588 0.69131 0.0
H2707 H 0.82797 0.1204 0.64504 0.0
H2708 H 0.82677 0.08922 0.636 0.0
H2709 H 0.85612 0.0883 0.68278 0.0
H2710 H 0.85846 0.11983 0.69151 0.0
H2711 H 0.81771 0.0496 0.67088 0.0
H2712 H 0.88591 0.10227 0.65547 0.0
H2713 H 0.91078 0.1338 0.64152 0.0
H2714 H 0.88278 0.10917 0.59313 0.0
H2715 H 0.85754 0.07754 0.60688 0.0
C2716 C 0.85687 0.99318 0.65338 0.0
C2717 C 0.85497 0.9846 0.63722 0.0
C2718 C 0.85226 0.00849 0.65584 0.0
C2719 C 0.84571 0.01561 0.64218 0.0
C2720 C 0.84352 0.00691 0.62603 0.0
C2721 C 0.84793 0.99137 0.6236 0.0
C2722 C 0.84221 0.0328 0.64482 0.0
C2723 C 0.85479 0.05086 0.63627 0.0
C2724 C 0.82836 0.03219 0.6572 0.0
C2725 C 0.81394 0.01325 0.66597 0.0
C2726 C 0.80096 0.99576 0.65657 0.0
C2727 C 0.78747 0.97793 0.66487 0.0
C2728 C 0.78674 0.97742 0.68257 0.0
C2729 C 0.79947 0.99476 0.69202 0.0
C2730 C 0.813 0.01263 0.68378 0.0
C2731 C 0.83407 0.11354 0.65347 0.0
C2732 C 0.84307 0.12258 0.66916 0.0
C2733 C 0.83337 0.09574 0.64826 0.0
C2734 C 0.84128 0.08651 0.65878 0.0
C2735 C 0.84979 0.09516 0.67456 0.0
C2736 C 0.85097 0.11317 0.67958 0.0
C2737 C 0.84132 0.06811 0.65324 0.0
C2738 C 0.82817 0.04992 0.6613 0.0
C2739 C 0.85469 0.06861 0.6405 0.0
C2740 C 0.86964 0.08768 0.63223 0.0
C2741 C 0.88488 0.10368 0.64189 0.0
C2742 C 0.8991 0.12154 0.63401 0.0
C2743 C 0.89831 0.12352 0.61646 0.0
C2744 C 0.88333 0.10763 0.60674 0.0
C2745 C 0.86907 0.08973 0.61456 0.0
H2746 H 0.90936 0.13735 0.61038 0.0
H2747 H 0.77628 0.96361 0.68897 0.0
H2748 H 0.54449 0.34527 0.73796 0.0
H2749 H 0.5101 0.31676 0.73289 0.0
H2750 H 0.49368 0.35544 0.70574 0.0
H2751 H 0.52835 0.38411 0.71064 0.0
H2752 H 0.47095 0.30704 0.73977 0.0
H2753 H 0.46421 0.32793 0.67115 0.0
H2754 H 0.48639 0.34836 0.64771 0.0
H2755 H 0.53538 0.34044 0.66683 0.0
H2756 H 0.5134 0.31976 0.69022 0.0
H2757 H 0.37378 0.22988 0.70584 0.0
H2758 H 0.4027 0.26255 0.71461 0.0
H2759 H 0.44334 0.25148 0.68387 0.0
H2760 H 0.41469 0.21924 0.67487 0.0
H2761 H 0.45187 0.28819 0.67941 0.0
H2762 H 0.43882 0.24581 0.72876 0.0
H2763 H 0.41898 0.22461 0.75281 0.0
H2764 H 0.41212 0.27308 0.77271 0.0
H2765 H 0.43161 0.29445 0.74866 0.0
C2766 C 0.53348 0.34776 0.73107 0.0
C2767 C 0.5392 0.36689 0.72453 0.0
C2768 C 0.51377 0.33147 0.72828 0.0
C2769 C 0.49933 0.33385 0.71876 0.0
C2770 C 0.50462 0.35318 0.71298 0.0
C2771 C 0.52438 0.36958 0.71587 0.0
C2772 C 0.47951 0.31575 0.71384 0.0
C2773 C 0.46663 0.303 0.72657 0.0
C2774 C 0.47396 0.31032 0.69664 0.0
C2775 C 0.48725 0.32254 0.68254 0.0
C2776 C 0.4797 0.33053 0.67032 0.0
C2777 C 0.49223 0.34214 0.65704 0.0
C2778 C 0.51231 0.34576 0.65582 0.0
C2779 C 0.51986 0.3377 0.66783 0.0
C2780 C 0.50738 0.32605 0.6811 0.0
C2781 C 0.38888 0.23444 0.70093 0.0
C2782 C 0.39183 0.22194 0.68954 0.0
C2783 C 0.40544 0.25311 0.70602 0.0
C2784 C 0.42532 0.25951 0.70002 0.0
C2785 C 0.4282 0.24702 0.68864 0.0
C2786 C 0.41171 0.22851 0.68347 0.0
C2787 C 0.44328 0.27919 0.70533 0.0
C2788 C 0.45588 0.29232 0.69264 0.0
C2789 C 0.44866 0.28476 0.72259 0.0
C2790 C 0.43647 0.27165 0.73679 0.0
C2791 C 0.43288 0.25187 0.73816 0.0
C2792 C 0.42173 0.23984 0.75182 0.0
C2793 C 0.41427 0.2475 0.76427 0.0
C2794 C 0.41788 0.26716 0.76306 0.0
C2795 C 0.42896 0.27923 0.74941 0.0
H2796 H 0.40578 0.23826 0.7749 0.0
H2797 H 0.52199 0.35476 0.64554 0.0
H2798 H 0.6764 0.20342 0.72112 0.0
H2799 H 0.70578 0.1989 0.71631 0.0
H2800 H 0.66529 0.13551 0.70754 0.0
H2801 H 0.63541 0.14003 0.7115 0.0
H2802 H 0.70506 0.15099 0.73102 0.0
H2803 H 0.68074 0.15608 0.67512 0.0
H2804 H 0.66952 0.17194 0.65369 0.0
H2805 H 0.72746 0.22672 0.65788 0.0
H2806 H 0.73888 0.21129 0.67959 0.0
H2807 H 0.78211 0.13302 0.69858 0.0
H2808 H 0.74987 0.13292 0.70286 0.0
H2809 H 0.78048 0.19653 0.69225 0.0
H2810 H 0.81268 0.19651 0.68767 0.0
H2811 H 0.74416 0.17915 0.67799 0.0
H2812 H 0.76903 0.17805 0.73323 0.0
H2813 H 0.7823 0.16628 0.75652 0.0
H2814 H 0.72653 0.10913 0.75601 0.0
H2815 H 0.71303 0.12047 0.73253 0.0
C2816 C 0.67358 0.18846 0.71807 0.0
C2817 C 0.65336 0.17217 0.71632 0.0
C2818 C 0.69049 0.18592 0.71544 0.0
C2819 C 0.68776 0.16695 0.71135 0.0
C2820 C 0.66773 0.15033 0.71062 0.0
C2821 C 0.65066 0.15292 0.71299 0.0
C2822 C 0.70599 0.16499 0.70722 0.0
C2823 C 0.71338 0.15672 0.71927 0.0
C2824 C 0.71738 0.17334 0.69224 0.0
C2825 C 0.71055 0.1826 0.67914 0.0
C2826 C 0.69099 0.17158 0.67163 0.0
C2827 C 0.68462 0.18048 0.65939 0.0
C2828 C 0.69774 0.20035 0.65447 0.0
C2829 C 0.71729 0.21134 0.66174 0.0
C2830 C 0.72372 0.20253 0.674 0.0
C2831 C 0.78187 0.14692 0.69702 0.0
C2832 C 0.79979 0.16467 0.69248 0.0
C2833 C 0.76347 0.1469 0.69957 0.0
C2834 C 0.76267 0.16476 0.69812 0.0
C2835 C 0.78059 0.18252 0.69345 0.0
C2836 C 0.799 0.18251 0.69077 0.0
C2837 C 0.74327 0.16495 0.70173 0.0
C2838 C 0.73574 0.1731 0.68965 0.0
C2839 C 0.73205 0.15696 0.7169 0.0
C2840 C 0.74011 0.15003 0.73099 0.0
C2841 C 0.75967 0.1629 0.73798 0.0
C2842 C 0.76722 0.15633 0.75123 0.0
C2843 C 0.75529 0.13695 0.75771 0.0
C2844 C 0.73577 0.12413 0.75096 0.0
C2845 C 0.72815 0.13063 0.73768 0.0
H2846 H 0.76115 0.13189 0.76798 0.0
H2847 H 0.69278 0.20721 0.64499 0.0
H2848 H 0.8544 0.48343 0.68594 0.0
H2849 H 0.85978 0.51756 0.68258 0.0
H2850 H 0.85021 0.52037 0.73619 0.0
H2851 H 0.8454 0.4864 0.73965 0.0
H2852 H 0.82391 0.5277 0.71156 0.0
H2853 H 0.8945 0.5488 0.72525 0.0
H2854 H 0.92706 0.54889 0.7217 0.0
H2855 H 0.93116 0.56904 0.67037 0.0
H2856 H 0.89845 0.56877 0.67353 0.0
H2857 H 0.84272 0.62744 0.71617 0.0
H2858 H 0.84621 0.59794 0.7221 0.0
H2859 H 0.86445 0.59773 0.67033 0.0
H2860 H 0.86096 0.62723 0.6644 0.0
H2861 H 0.88744 0.58953 0.69442 0.0
H2862 H 0.81904 0.56848 0.67862 0.0
H2863 H 0.78538 0.56649 0.6788 0.0
H2864 H 0.77498 0.54322 0.72947 0.0
H2865 H 0.80902 0.54599 0.72992 0.0
C2866 C 0.85391 0.49157 0.69703 0.0
C2867 C 0.84961 0.48248 0.71306 0.0
C2868 C 0.85697 0.51098 0.69511 0.0
C2869 C 0.8554 0.52142 0.70915 0.0
C2870 C 0.85155 0.51253 0.72524 0.0
C2871 C 0.84891 0.49326 0.72722 0.0
C2872 C 0.85617 0.5409 0.7067 0.0
C2873 C 0.83787 0.54136 0.70819 0.0
C2874 C 0.87422 0.55835 0.70148 0.0
C2875 C 0.89391 0.55857 0.69958 0.0
C2876 C 0.90224 0.55306 0.71315 0.0
C2877 C 0.92075 0.55318 0.71122 0.0
C2878 C 0.93115 0.55891 0.6958 0.0
C2879 C 0.92308 0.56458 0.6823 0.0
C2880 C 0.90456 0.56446 0.68416 0.0
C2881 C 0.84781 0.62128 0.70615 0.0
C2882 C 0.8513 0.62936 0.68976 0.0
C2883 C 0.84971 0.60442 0.70953 0.0
C2884 C 0.85542 0.59558 0.69661 0.0
C2885 C 0.85998 0.60431 0.68045 0.0
C2886 C 0.85775 0.62098 0.67702 0.0
C2887 C 0.85524 0.57647 0.69968 0.0
C2888 C 0.87354 0.57598 0.69809 0.0
C2889 C 0.83705 0.5588 0.70439 0.0
C2890 C 0.8168 0.55777 0.70441 0.0
C2891 C 0.8098 0.56336 0.68996 0.0
C2892 C 0.79062 0.56208 0.68994 0.0
C2893 C 0.77809 0.55485 0.70418 0.0
C2894 C 0.78477 0.54901 0.7185 0.0
C2895 C 0.80405 0.5505 0.71867 0.0
H2896 H 0.76314 0.55363 0.70404 0.0
H2897 H 0.94548 0.55901 0.69434 0.0
H2898 H 0.44038 0.9184 0.25626 0.0
H2899 H 0.45088 0.93542 0.22893 0.0
H2900 H 0.448 0.88252 0.20678 0.0
H2901 H 0.43799 0.86562 0.23429 0.0
H2902 H 0.47956 0.91449 0.19431 0.0
H2903 H 0.40898 0.89383 0.20085 0.0
H2904 H 0.37828 0.89021 0.21516 0.0
H2905 H 0.40449 0.95443 0.21577 0.0
H2906 H 0.4355 0.95846 0.20168 0.0
H2907 H 0.48459 0.95191 0.11059 0.0
H2908 H 0.47071 0.93024 0.13541 0.0
H2909 H 0.47644 0.9805 0.16459 0.0
H2910 H 0.48973 0.00204 0.13981 0.0
H2911 H 0.44118 0.94651 0.17174 0.0
H2912 H 0.51322 0.96596 0.1666 0.0
H2913 H 0.54236 0.96818 0.15061 0.0
H2914 H 0.51095 0.90379 0.14559 0.0
H2915 H 0.48152 0.90121 0.1614 0.0
C2916 C 0.4421 0.91044 0.24558 0.0
C2917 C 0.43824 0.89063 0.24741 0.0
C2918 C 0.44801 0.92015 0.22993 0.0
C2919 C 0.44979 0.91012 0.21562 0.0
C2920 C 0.44666 0.89057 0.21757 0.0
C2921 C 0.44098 0.88094 0.23331 0.0
C2922 C 0.45449 0.91995 0.19864 0.0
C2923 C 0.47095 0.92122 0.18929 0.0
C2924 C 0.44334 0.9288 0.19197 0.0
C2925 C 0.42464 0.92645 0.20033 0.0
C2926 C 0.40826 0.90719 0.20413 0.0
C2927 C 0.39079 0.90506 0.2122 0.0
C2928 C 0.38946 0.92208 0.21641 0.0
C2929 C 0.40556 0.94126 0.21252 0.0
C2930 C 0.42308 0.94348 0.20448 0.0
C2931 C 0.4827 0.95831 0.12221 0.0
C2932 C 0.48879 0.97889 0.12324 0.0
C2933 C 0.47485 0.94591 0.13645 0.0
C2934 C 0.47293 0.95383 0.152 0.0
C2935 C 0.47796 0.97407 0.1528 0.0
C2936 C 0.48578 0.98643 0.13862 0.0
C2937 C 0.46648 0.94144 0.16768 0.0
C2938 C 0.44967 0.93965 0.17675 0.0
C2939 C 0.47712 0.93189 0.17396 0.0
C2940 C 0.49513 0.9334 0.16507 0.0
C2941 C 0.51253 0.95228 0.16206 0.0
C2942 C 0.52908 0.9536 0.15302 0.0
C2943 C 0.52849 0.93614 0.14705 0.0
C2944 C 0.51139 0.9173 0.15021 0.0
C2945 C 0.49478 0.9159 0.15923 0.0
H2946 H 0.54128 0.93719 0.14 0.0
H2947 H 0.37592 0.9204 0.22265 0.0
H2948 H 0.1272 0.58198 0.25037 0.0
H2949 H 0.10961 0.57887 0.2234 0.0
H2950 H 0.12796 0.53719 0.20513 0.0
H2951 H 0.14642 0.541 0.23166 0.0
H2952 H 0.1281 0.5597 0.17965 0.0
H2953 H 0.08116 0.5206 0.22393 0.0
H2954 H 0.06473 0.51529 0.2519 0.0
H2955 H 0.04406 0.55666 0.23919 0.0
H2956 H 0.06061 0.56241 0.21122 0.0
H2957 H 0.01789 0.49446 0.14131 0.0
H2958 H 0.0427 0.50596 0.16465 0.0
H2959 H 0.0808 0.56158 0.13825 0.0
H2960 H 0.05616 0.54972 0.11456 0.0
H2961 H 0.05371 0.53503 0.18559 0.0
H2962 H 0.13038 0.58143 0.15093 0.0
H2963 H 0.14574 0.58257 0.12306 0.0
H2964 H 0.10502 0.51906 0.11643 0.0
H2965 H 0.08952 0.51753 0.14429 0.0
C2966 C 0.12792 0.57253 0.24047 0.0
C2967 C 0.13793 0.56147 0.24331 0.0
C2968 C 0.11772 0.57066 0.22509 0.0
C2969 C 0.11712 0.55749 0.21234 0.0
C2970 C 0.1281 0.54736 0.21478 0.0
C2971 C 0.13843 0.54935 0.23007 0.0
C2972 C 0.10361 0.55279 0.19718 0.0
C2973 C 0.11185 0.55444 0.18092 0.0
C2974 C 0.08234 0.5456 0.19881 0.0
C2975 C 0.07231 0.5421 0.21558 0.0
C2976 C 0.07323 0.52866 0.22716 0.0
C2977 C 0.06388 0.52556 0.243 0.0
C2978 C 0.05341 0.53567 0.24734 0.0
C2979 C 0.05221 0.54887 0.23583 0.0
C2980 C 0.06157 0.55205 0.21998 0.0
C2981 C 0.0316 0.50911 0.14048 0.0
C2982 C 0.03511 0.52123 0.12619 0.0
C2983 C 0.04577 0.51569 0.15382 0.0
C2984 C 0.06368 0.53463 0.15325 0.0
C2985 C 0.06728 0.54678 0.13891 0.0
C2986 C 0.0532 0.54003 0.1254 0.0
C2987 C 0.07807 0.54165 0.16799 0.0
C2988 C 0.06999 0.54051 0.18423 0.0
C2989 C 0.09933 0.54873 0.16631 0.0
C2990 C 0.1087 0.54942 0.14963 0.0
C2991 C 0.12477 0.5677 0.14354 0.0
C2992 C 0.13348 0.56842 0.12775 0.0
C2993 C 0.12636 0.5509 0.11798 0.0
C2994 C 0.1105 0.53262 0.12399 0.0
C2995 C 0.10172 0.53183 0.13977 0.0
H2996 H 0.13311 0.55148 0.10575 0.0
H2997 H 0.04618 0.53325 0.25961 0.0
H2998 H 0.48418 0.57011 0.25769 0.0
H2999 H 0.49087 0.5596 0.23035 0.0
H3000 H 0.43432 0.55274 0.21034 0.0
H3001 H 0.42765 0.56372 0.23773 0.0
H3002 H 0.44306 0.52126 0.20037 0.0
H3003 H 0.47491 0.59325 0.20046 0.0
H3004 H 0.49621 0.62733 0.2125 0.0
H3005 H 0.54873 0.61935 0.21258 0.0
H3006 H 0.52766 0.58507 0.20079 0.0
H3007 H 0.47519 0.51468 0.11636 0.0
H3008 H 0.46198 0.52477 0.14054 0.0
H3009 H 0.51955 0.54597 0.16698 0.0
H3010 H 0.53313 0.53692 0.14265 0.0
H3011 H 0.50688 0.57138 0.17184 0.0
H3012 H 0.47546 0.49905 0.175 0.0
H3013 H 0.45476 0.46417 0.1644 0.0
H3014 H 0.40237 0.47199 0.15922 0.0
H3015 H 0.42285 0.50702 0.1696 0.0
C3016 C 0.47311 0.56634 0.24751 0.0
C3017 C 0.45553 0.56807 0.24984 0.0
C3018 C 0.47693 0.56026 0.2319 0.0
C3019 C 0.46326 0.55569 0.21825 0.0
C3020 C 0.44509 0.55626 0.22072 0.0
C3021 C 0.44128 0.56247 0.23639 0.0
C3022 C 0.46874 0.55146 0.20125 0.0
C3023 C 0.45679 0.53231 0.19393 0.0
C3024 C 0.48684 0.56579 0.19303 0.0
C3025 C 0.49966 0.58653 0.19985 0.0
C3026 C 0.49097 0.59871 0.20315 0.0
C3027 C 0.50301 0.61807 0.20992 0.0
C3028 C 0.52381 0.62549 0.21333 0.0
C3029 C 0.53262 0.61358 0.20993 0.0
C3030 C 0.52064 0.59419 0.20319 0.0
C3031 C 0.48514 0.52178 0.12721 0.0
C3032 C 0.50518 0.52478 0.12758 0.0
C3033 C 0.47747 0.52733 0.14113 0.0
C3034 C 0.48962 0.53583 0.15576 0.0
C3035 C 0.5098 0.53935 0.15592 0.0
C3036 C 0.51749 0.53396 0.14202 0.0
C3037 C 0.4815 0.54094 0.17105 0.0
C3038 C 0.49298 0.56035 0.17809 0.0
C3039 C 0.46307 0.52676 0.17906 0.0
C3040 C 0.45074 0.50571 0.17288 0.0
C3041 C 0.45957 0.49337 0.17148 0.0
C3042 C 0.44787 0.47357 0.16553 0.0
C3043 C 0.42728 0.46589 0.16109 0.0
C3044 C 0.41833 0.47797 0.16263 0.0
C3045 C 0.42997 0.49779 0.16855 0.0
H3046 H 0.41825 0.45056 0.15649 0.0
H3047 H 0.5331 0.64047 0.21858 0.0
H3048 H 0.88345 0.40823 0.78702 0.0
H3049 H 0.90036 0.42113 0.81418 0.0
H3050 H 0.91775 0.48156 0.79897 0.0
H3051 H 0.90182 0.46875 0.77106 0.0
H3052 H 0.94894 0.48215 0.81319 0.0
H3053 H 0.8803 0.45558 0.83014 0.0
H3054 H 0.84332 0.43124 0.83228 0.0
H3055 H 0.85656 0.38931 0.85722 0.0
H3056 H 0.89363 0.41327 0.85501 0.0
H3057 H 0.98574 0.50813 0.90066 0.0
H3058 H 0.96346 0.50283 0.87587 0.0
H3059 H 0.95591 0.44376 0.86838 0.0
H3060 H 0.97859 0.44925 0.89273 0.0
H3061 H 0.91777 0.44821 0.8674 0.0
H3062 H 0.98719 0.47486 0.8448 0.0
H3063 H 0.02377 0.50078 0.84323 0.0
H3064 H 0.00732 0.54515 0.82997 0.0
H3065 H 0.97061 0.51952 0.83172 0.0
C3066 C 0.89096 0.4243 0.78934 0.0
C3067 C 0.8915 0.43747 0.77672 0.0
C3068 C 0.90035 0.43165 0.80506 0.0
C3069 C 0.91008 0.45231 0.80882 0.0
C3070 C 0.91025 0.46553 0.79642 0.0
C3071 C 0.90101 0.45818 0.78052 0.0
C3072 C 0.92115 0.45994 0.82528 0.0
C3073 C 0.94191 0.47504 0.82508 0.0
C3074 C 0.91211 0.45073 0.8409 0.0
C3075 C 0.88979 0.43622 0.84233 0.0
C3076 C 0.87534 0.44112 0.83598 0.0
C3077 C 0.85435 0.42739 0.83722 0.0
C3078 C 0.8476 0.40873 0.84486 0.0
C3079 C 0.86181 0.40378 0.85131 0.0
C3080 C 0.88282 0.41745 0.85009 0.0
C3081 C 0.97919 0.49401 0.89371 0.0
C3082 C 0.98383 0.47909 0.89845 0.0
C3083 C 0.96654 0.49102 0.87963 0.0
C3084 C 0.95808 0.4729 0.87038 0.0
C3085 C 0.96227 0.4578 0.87542 0.0
C3086 C 0.97524 0.46096 0.88923 0.0
C3087 C 0.94545 0.46976 0.85501 0.0
C3088 C 0.92449 0.45555 0.8555 0.0
C3089 C 0.95416 0.48003 0.83976 0.0
C3090 C 0.97619 0.49536 0.83862 0.0
C3091 C 0.99138 0.49019 0.84172 0.0
C3092 C 0.01213 0.50481 0.84076 0.0
C3093 C 0.01786 0.52462 0.83656 0.0
C3094 C 1.00285 0.52982 0.83326 0.0
C3095 C 0.98208 0.51525 0.83423 0.0
H3096 H 0.03394 0.53592 0.83581 0.0
H3097 H 0.83134 0.39812 0.8458 0.0
H3098 H 0.58259 0.4905 0.7661 0.0
H3099 H 0.57057 0.49664 0.79302 0.0
H3100 H 0.57113 0.44544 0.81488 0.0
H3101 H 0.58302 0.43914 0.78793 0.0
H3102 H 0.53785 0.44622 0.82454 0.0
H3103 H 0.60955 0.49367 0.82355 0.0
H3104 H 0.64191 0.5206 0.8117 0.0
H3105 H 0.61722 0.56036 0.81065 0.0
H3106 H 0.58458 0.53357 0.82227 0.0
H3107 H 0.52613 0.47269 0.90888 0.0
H3108 H 0.54127 0.46572 0.88415 0.0
H3109 H 0.54071 0.51426 0.85716 0.0
H3110 H 0.52623 0.52169 0.88194 0.0
H3111 H 0.57566 0.51389 0.85145 0.0
H3112 H 0.50299 0.4649 0.8508 0.0
H3113 H 0.47105 0.43773 0.86304 0.0
H3114 H 0.49861 0.40066 0.86791 0.0
H3115 H 0.53081 0.42772 0.85586 0.0
C3116 C 0.58015 0.48055 0.77664 0.0
C3117 C 0.58383 0.46438 0.77489 0.0
C3118 C 0.57333 0.4841 0.79204 0.0
C3119 C 0.57028 0.47171 0.8061 0.0
C3120 C 0.5734 0.45522 0.80425 0.0
C3121 C 0.58013 0.4516 0.78881 0.0
C3122 C 0.56401 0.47609 0.82273 0.0
C3123 C 0.54631 0.46093 0.83054 0.0
C3124 C 0.5749 0.49534 0.83054 0.0
C3125 C 0.59456 0.51154 0.82365 0.0
C3126 C 0.61097 0.50811 0.82068 0.0
C3127 C 0.62936 0.52336 0.81402 0.0
C3128 C 0.6316 0.54216 0.81039 0.0
C3129 C 0.61545 0.54578 0.81346 0.0
C3130 C 0.59701 0.53057 0.82009 0.0
C3131 C 0.52955 0.48208 0.89777 0.0
C3132 C 0.52478 0.49763 0.89732 0.0
C3133 C 0.53802 0.47796 0.88359 0.0
C3134 C 0.54181 0.48925 0.86869 0.0
C3135 C 0.53782 0.50526 0.86847 0.0
C3136 C 0.52937 0.50939 0.8826 0.0
C3137 C 0.54934 0.48413 0.85308 0.0
C3138 C 0.5673 0.49915 0.84548 0.0
C3139 C 0.53876 0.46473 0.84554 0.0
C3140 C 0.51935 0.44839 0.85259 0.0
C3141 C 0.50227 0.451 0.85458 0.0
C3142 C 0.48412 0.43561 0.86146 0.0
C3143 C 0.48282 0.4175 0.86629 0.0
C3144 C 0.49965 0.41471 0.86418 0.0
C3145 C 0.51784 0.43005 0.85731 0.0
H3146 H 0.46876 0.40562 0.87163 0.0
H3147 H 0.64586 0.55395 0.80524 0.0
H3148 H 0.58584 0.14403 0.7832 0.0
H3149 H 0.58011 0.12693 0.81058 0.0
H3150 H 0.52194 0.07896 0.7923 0.0
H3151 H 0.52778 0.09548 0.76488 0.0
H3152 H 0.51952 0.09544 0.82357 0.0
H3153 H 0.56058 0.07081 0.79647 0.0
H3154 H 0.59158 0.07477 0.78246 0.0
H3155 H 0.62794 0.10648 0.82613 0.0
H3156 H 0.59717 0.10295 0.84031 0.0
H3157 H 0.48425 0.01404 0.87862 0.0
H3158 H 0.49696 0.03742 0.85501 0.0
H3159 H 0.55458 0.07314 0.88132 0.0
H3160 H 0.54209 0.0492 0.90494 0.0
H3161 H 0.56109 0.06818 0.84872 0.0
H3162 H 0.5206 0.09019 0.8773 0.0
H3163 H 0.49041 0.08742 0.89188 0.0
H3164 H 0.45422 0.06309 0.84656 0.0
H3165 H 0.48411 0.06543 0.83177 0.0
C3166 C 0.57203 0.12963 0.78488 0.0
C3167 C 0.55717 0.12126 0.77185 0.0
C3168 C 0.56873 0.11994 0.80059 0.0
C3169 C 0.5505 0.10175 0.80353 0.0
C3170 C 0.536 0.09309 0.79038 0.0
C3171 C 0.53936 0.10262 0.77471 0.0
C3172 C 0.54593 0.09192 0.82042 0.0
C3173 C 0.52853 0.08936 0.82903 0.0
C3174 C 0.55817 0.08474 0.82788 0.0
C3175 C 0.57663 0.08684 0.81936 0.0
C3176 C 0.57522 0.0788 0.80302 0.0
C3177 C 0.59274 0.08093 0.79506 0.0
C3178 C 0.61173 0.09093 0.80337 0.0
C3179 C 0.61323 0.09877 0.81969 0.0
C3180 C 0.59576 0.09671 0.82769 0.0
C3181 C 0.49966 0.02683 0.87942 0.0
C3182 C 0.51218 0.02966 0.89366 0.0
C3183 C 0.50685 0.04034 0.86595 0.0
C3184 C 0.52667 0.05722 0.86641 0.0
C3185 C 0.5392 0.06027 0.88068 0.0
C3186 C 0.53199 0.04667 0.89423 0.0
C3187 C 0.53424 0.07111 0.85165 0.0
C3188 C 0.55222 0.0745 0.84343 0.0
C3189 C 0.52267 0.07931 0.84463 0.0
C3190 C 0.5046 0.07787 0.85345 0.0
C3191 C 0.50617 0.08411 0.87047 0.0
C3192 C 0.48911 0.08264 0.87877 0.0
C3193 C 0.4704 0.07506 0.87016 0.0
C3194 C 0.46872 0.06896 0.85322 0.0
C3195 C 0.48573 0.07038 0.84486 0.0
H3196 H 0.45722 0.07393 0.87661 0.0
H3197 H 0.62528 0.09255 0.79719 0.0
H3198 H 0.10635 0.24594 0.58938 0.0
H3199 H 0.11588 0.26191 0.5616 0.0
H3200 H 0.11491 0.20928 0.54098 0.0
H3201 H 0.10562 0.19327 0.56897 0.0
H3202 H 0.1459 0.244 0.52695 0.0
H3203 H 0.07392 0.21483 0.53574 0.0
H3204 H 0.04283 0.20798 0.55137 0.0
H3205 H 0.06137 0.27077 0.55019 0.0
H3206 H 0.09276 0.27806 0.53479 0.0
H3207 H 0.13512 0.27249 0.44128 0.0
H3208 H 0.13203 0.25464 0.46792 0.0
H3209 H 0.12853 0.30141 0.49572 0.0
H3210 H 0.1313 0.31895 0.46923 0.0
H3211 H 0.09854 0.266 0.50472 0.0
H3212 H 0.17166 0.29494 0.49653 0.0
H3213 H 0.20225 0.30093 0.48051 0.0
H3214 H 0.18061 0.23745 0.47952 0.0
H3215 H 0.14973 0.23104 0.49533 0.0
C3216 C 0.10838 0.23784 0.57897 0.0
C3217 C 0.10499 0.21825 0.58132 0.0
C3218 C 0.11382 0.24698 0.56309 0.0
C3219 C 0.1157 0.23665 0.54907 0.0
C3220 C 0.11348 0.21752 0.55157 0.0
C3221 C 0.10818 0.2084 0.56757 0.0
C3222 C 0.11847 0.24535 0.53174 0.0
C3223 C 0.13542 0.24859 0.52198 0.0
C3224 C 0.10483 0.25138 0.5252 0.0
C3225 C 0.08578 0.24701 0.53422 0.0
C3226 C 0.07143 0.2272 0.5389 0.0
C3227 C 0.05375 0.22323 0.54772 0.0
C3228 C 0.05014 0.23893 0.5518 0.0
C3229 C 0.06419 0.25862 0.54703 0.0
C3230 C 0.08193 0.26268 0.53824 0.0
C3231 C 0.13414 0.2791 0.45314 0.0
C3232 C 0.13346 0.29709 0.45321 0.0
C3233 C 0.13232 0.26889 0.46836 0.0
C3234 C 0.13004 0.27666 0.48391 0.0
C3235 C 0.13011 0.295 0.48394 0.0
C3236 C 0.13175 0.30506 0.4688 0.0
C3237 C 0.1264 0.26538 0.50011 0.0
C3238 C 0.10908 0.26144 0.50963 0.0
C3239 C 0.13962 0.25862 0.50628 0.0
C3240 C 0.1583 0.2625 0.49698 0.0
C3241 C 0.17336 0.28224 0.4928 0.0
C3242 C 0.19075 0.28572 0.48377 0.0
C3243 C 0.19335 0.26958 0.47899 0.0
C3244 C 0.17857 0.24993 0.48323 0.0
C3245 C 0.16113 0.24637 0.49224 0.0
H3246 H 0.20686 0.2723 0.47206 0.0
H3247 H 0.03645 0.23583 0.55863 0.0
H3248 H 0.81783 0.87729 0.5625 0.0
H3249 H 0.79771 0.8733 0.53686 0.0
H3250 H 0.77636 0.91105 0.55884 0.0
H3251 H 0.79613 0.91473 0.58472 0.0
H3252 H 0.74516 0.8766 0.54572 0.0
H3253 H 0.81089 0.92836 0.52694 0.0
H3254 H 0.84803 0.94438 0.52174 0.0
H3255 H 0.83774 0.89561 0.48856 0.0
H3256 H 0.80055 0.87914 0.49376 0.0
H3257 H 0.69336 0.87943 0.47205 0.0
H3258 H 0.71819 0.89064 0.49542 0.0
H3259 H 0.74317 0.85508 0.47531 0.0
H3260 H 0.71845 0.84395 0.45179 0.0
H3261 H 0.77321 0.89047 0.48738 0.0
H3262 H 0.70849 0.83754 0.50754 0.0
H3263 H 0.6713 0.82058 0.51281 0.0
H3264 H 0.67978 0.87052 0.54361 0.0
H3265 H 0.71702 0.88791 0.53832 0.0
C3266 C 0.80886 0.88475 0.56187 0.0
C3267 C 0.80848 0.89624 0.57566 0.0
C3268 C 0.79753 0.88263 0.54714 0.0
C3269 C 0.78566 0.89201 0.54588 0.0
C3270 C 0.78548 0.90373 0.55953 0.0
C3271 C 0.79687 0.90592 0.57425 0.0
C3272 C 0.77256 0.88864 0.5307 0.0
C3273 C 0.75135 0.87999 0.53298 0.0
C3274 C 0.78057 0.89253 0.51405 0.0
C3275 C 0.80294 0.90243 0.51086 0.0
C3276 C 0.81655 0.92096 0.51864 0.0
C3277 C 0.83762 0.93014 0.51568 0.0
C3278 C 0.84525 0.921 0.50486 0.0
C3279 C 0.83182 0.90267 0.49695 0.0
C3280 C 0.81074 0.89342 0.49989 0.0
C3281 C 0.70417 0.87404 0.47259 0.0
C3282 C 0.70377 0.8606 0.46021 0.0
C3283 C 0.71837 0.88047 0.48593 0.0
C3284 C 0.73228 0.87339 0.48729 0.0
C3285 C 0.73254 0.86069 0.47454 0.0
C3286 C 0.71842 0.85435 0.46111 0.0
C3287 C 0.74584 0.87842 0.50243 0.0
C3288 C 0.76708 0.88728 0.50013 0.0
C3289 C 0.73787 0.8746 0.51909 0.0
C3290 C 0.71551 0.86412 0.52239 0.0
C3291 C 0.7024 0.84497 0.51533 0.0
C3292 C 0.68132 0.83527 0.51834 0.0
C3293 C 0.67317 0.84449 0.5285 0.0
C3294 C 0.68611 0.86341 0.53572 0.0
C3295 C 0.70721 0.87319 0.53273 0.0
H3296 H 0.65685 0.83696 0.53081 0.0
H3297 H 0.86156 0.92813 0.50258 0.0
H3298 H 0.15286 0.90141 0.59071 0.0
H3299 H 0.16125 0.89049 0.56428 0.0
H3300 H 0.1076 0.88619 0.5403 0.0
H3301 H 0.09914 0.89728 0.56678 0.0
H3302 H 0.11532 0.85472 0.53089 0.0
H3303 H 0.15158 0.92729 0.53448 0.0
H3304 H 0.17351 0.9596 0.54921 0.0
H3305 H 0.22261 0.94647 0.55156 0.0
H3306 H 0.20085 0.91392 0.53707 0.0
H3307 H 0.14934 0.85199 0.44748 0.0
H3308 H 0.13649 0.86106 0.4724 0.0
H3309 H 0.19349 0.87905 0.49876 0.0
H3310 H 0.207 0.87152 0.47356 0.0
H3311 H 0.18226 0.90429 0.50623 0.0
H3312 H 0.14727 0.83191 0.505 0.0
H3313 H 0.12577 0.79804 0.49259 0.0
H3314 H 0.07545 0.80911 0.48764 0.0
H3315 H 0.09674 0.84316 0.49983 0.0
C3316 C 0.14273 0.89795 0.57986 0.0
C3317 C 0.12548 0.90046 0.58076 0.0
C3318 C 0.14753 0.89169 0.56478 0.0
C3319 C 0.13525 0.88789 0.55025 0.0
C3320 C 0.1173 0.88912 0.55136 0.0
C3321 C 0.11246 0.89539 0.56651 0.0
C3322 C 0.14205 0.88406 0.5337 0.0
C3323 C 0.1298 0.86564 0.52532 0.0
C3324 C 0.16115 0.89817 0.52666 0.0
C3325 C 0.17453 0.9181 0.53478 0.0
C3326 C 0.16703 0.93126 0.53819 0.0
C3327 C 0.17943 0.94961 0.5465 0.0
C3328 C 0.19943 0.95507 0.55135 0.0
C3329 C 0.20711 0.94222 0.5478 0.0
C3330 C 0.19476 0.92383 0.53952 0.0
C3331 C 0.15931 0.85821 0.45845 0.0
C3332 C 0.1792 0.86079 0.45846 0.0
C3333 C 0.1518 0.86312 0.47283 0.0
C3334 C 0.16381 0.87034 0.48768 0.0
C3335 C 0.18381 0.87338 0.48756 0.0
C3336 C 0.19144 0.86879 0.47314 0.0
C3337 C 0.15571 0.87469 0.5034 0.0
C3338 C 0.1677 0.89332 0.51164 0.0
C3339 C 0.13651 0.86062 0.51043 0.0
C3340 C 0.12367 0.84015 0.50315 0.0
C3341 C 0.13167 0.82717 0.50115 0.0
C3342 C 0.11951 0.80794 0.49418 0.0
C3343 C 0.09928 0.80145 0.48928 0.0
C3344 C 0.09113 0.81417 0.4914 0.0
C3345 C 0.10323 0.83343 0.49836 0.0
H3346 H 0.08989 0.78656 0.48389 0.0
H3347 H 0.20899 0.96925 0.55783 0.0
H3348 H 0.57301 0.79988 0.10397 0.0
H3349 H 0.59306 0.81476 0.13011 0.0
H3350 H 0.56546 0.75585 0.15266 0.0
H3351 H 0.54566 0.74096 0.1266 0.0
H3352 H 0.56817 0.78717 0.17474 0.0
H3353 H 0.60989 0.77278 0.13655 0.0
H3354 H 0.62733 0.77558 0.10945 0.0
H3355 H 0.66255 0.83981 0.1156 0.0
H3356 H 0.64508 0.8374 0.14263 0.0
H3357 H 0.63361 0.79267 0.24136 0.0
H3358 H 0.61151 0.78493 0.21637 0.0
H3359 H 0.65395 0.8429 0.1953 0.0
H3360 H 0.67643 0.85035 0.22007 0.0
H3361 H 0.64358 0.81618 0.172 0.0
H3362 H 0.60554 0.83127 0.21146 0.0
H3363 H 0.58835 0.82957 0.23845 0.0
H3364 H 0.54639 0.76661 0.23011 0.0
H3365 H 0.56349 0.76786 0.20316 0.0
C3366 C 0.57115 0.79021 0.11459 0.0
C3367 C 0.55799 0.76929 0.11328 0.0
C3368 C 0.58257 0.79868 0.12946 0.0
C3369 C 0.58073 0.78636 0.14325 0.0
C3370 C 0.56704 0.76559 0.14216 0.0
C3371 C 0.55588 0.7571 0.12726 0.0
C3372 C 0.59391 0.79479 0.15852 0.0
C3373 C 0.58466 0.79347 0.17423 0.0
C3374 C 0.61543 0.80351 0.15768 0.0
C3375 C 0.626 0.80493 0.14149 0.0
C3376 C 0.62122 0.78752 0.13204 0.0
C3377 C 0.63113 0.78903 0.11671 0.0
C3378 C 0.64599 0.80787 0.11078 0.0
C3379 C 0.65101 0.82523 0.12019 0.0
C3380 C 0.64111 0.8238 0.13552 0.0
C3381 C 0.63807 0.80383 0.23147 0.0
C3382 C 0.6567 0.82209 0.23262 0.0
C3383 C 0.6254 0.79946 0.21722 0.0
C3384 C 0.63088 0.81346 0.20401 0.0
C3385 C 0.64937 0.83186 0.2053 0.0
C3386 C 0.6622 0.8361 0.21943 0.0
C3387 C 0.6179 0.80839 0.18847 0.0
C3388 C 0.62716 0.81026 0.17264 0.0
C3389 C 0.5964 0.80043 0.18921 0.0
C3390 C 0.58591 0.79963 0.20533 0.0
C3391 C 0.59273 0.81703 0.21543 0.0
C3392 C 0.58299 0.81615 0.23072 0.0
C3393 C 0.56632 0.79799 0.23601 0.0
C3394 C 0.55931 0.78067 0.22599 0.0
C3395 C 0.569 0.78146 0.21069 0.0
H3396 H 0.55881 0.79734 0.24786 0.0
H3397 H 0.65366 0.80901 0.09891 0.0
H3398 H 0.24989 0.82019 0.09829 0.0
H3399 H 0.23801 0.82716 0.12489 0.0
H3400 H 0.23893 0.77684 0.14824 0.0
H3401 H 0.25072 0.76969 0.12154 0.0
H3402 H 0.20547 0.77877 0.1576 0.0
H3403 H 0.27779 0.82454 0.15541 0.0
H3404 H 0.30991 0.85011 0.1422 0.0
H3405 H 0.2867 0.89104 0.13973 0.0
H3406 H 0.25429 0.86559 0.1527 0.0
H3407 H 0.19472 0.80932 0.24041 0.0
H3408 H 0.20972 0.80089 0.21648 0.0
H3409 H 0.21159 0.84947 0.18766 0.0
H3410 H 0.19732 0.85841 0.21168 0.0
H3411 H 0.24559 0.84732 0.18261 0.0
H3412 H 0.17256 0.80083 0.1824 0.0
H3413 H 0.13987 0.77509 0.19475 0.0
H3414 H 0.16438 0.73561 0.20138 0.0
H3415 H 0.19732 0.76124 0.18927 0.0
C3416 C 0.2475 0.81057 0.10908 0.0
C3417 C 0.2514 0.7945 0.10788 0.0
C3418 C 0.24075 0.81459 0.12428 0.0
C3419 C 0.23799 0.80278 0.13866 0.0
C3420 C 0.24106 0.78621 0.13732 0.0
C3421 C 0.24771 0.7821 0.12206 0.0
C3422 C 0.23232 0.80806 0.15514 0.0
C3423 C 0.21443 0.79365 0.16323 0.0
C3424 C 0.24387 0.82757 0.16236 0.0
C3425 C 0.26354 0.84309 0.15492 0.0
C3426 C 0.27949 0.83896 0.15197 0.0
C3427 C 0.29775 0.85343 0.14453 0.0
C3428 C 0.30033 0.87217 0.14009 0.0
C3429 C 0.28468 0.87651 0.14316 0.0
C3430 C 0.26637 0.86207 0.15058 0.0
C3431 C 0.19867 0.81843 0.22909 0.0
C3432 C 0.19458 0.8344 0.22788 0.0
C3433 C 0.20707 0.81348 0.21536 0.0
C3434 C 0.21145 0.82433 0.20016 0.0
C3435 C 0.20823 0.8408 0.19921 0.0
C3436 C 0.19988 0.84578 0.21291 0.0
C3437 C 0.21857 0.81813 0.18494 0.0
C3438 C 0.23675 0.83238 0.17709 0.0
C3439 C 0.20729 0.79848 0.17793 0.0
C3440 C 0.18746 0.78303 0.18511 0.0
C3441 C 0.17102 0.78671 0.18661 0.0
C3442 C 0.15244 0.77214 0.19355 0.0
C3443 C 0.15007 0.75375 0.1989 0.0
C3444 C 0.16625 0.74987 0.19727 0.0
C3445 C 0.18487 0.76441 0.19036 0.0
H3446 H 0.13567 0.74248 0.20426 0.0
H3447 H 0.31447 0.88334 0.13429 0.0
H3448 H 0.20441 0.46502 0.12222 0.0
H3449 H 0.19879 0.44596 0.14839 0.0
H3450 H 0.22679 0.4143 0.12594 0.0
H3451 H 0.23243 0.43338 0.09961 0.0
H3452 H 0.18916 0.38881 0.14094 0.0
H3453 H 0.25204 0.44828 0.15611 0.0
H3454 H 0.27536 0.48479 0.15973 0.0
H3455 H 0.23348 0.48777 0.1948 0.0
H3456 H 0.20977 0.45131 0.19121 0.0
H3457 H 0.18512 0.33642 0.21548 0.0
H3458 H 0.19799 0.35838 0.19079 0.0
H3459 H 0.17882 0.39772 0.21308 0.0
H3460 H 0.16645 0.37602 0.23807 0.0
H3461 H 0.21388 0.41956 0.19789 0.0
H3462 H 0.15 0.3618 0.18165 0.0
H3463 H 0.12522 0.32562 0.17785 0.0
H3464 H 0.16696 0.3198 0.14456 0.0
H3465 H 0.19212 0.35591 0.14835 0.0
C3466 C 0.20947 0.45406 0.12289 0.0
C3467 C 0.21879 0.45062 0.10884 0.0
C3468 C 0.20637 0.44328 0.13789 0.0
C3469 C 0.21245 0.42876 0.13917 0.0
C3470 C 0.22202 0.42546 0.12524 0.0
C3471 C 0.22533 0.43643 0.11026 0.0
C3472 C 0.20785 0.41638 0.15476 0.0
C3473 C 0.19488 0.39549 0.15337 0.0
C3474 C 0.21477 0.42516 0.17103 0.0
C3475 C 0.22904 0.44708 0.17328 0.0
C3476 C 0.24772 0.45674 0.16449 0.0
C3477 C 0.26103 0.47743 0.16656 0.0
C3478 C 0.25588 0.4886 0.17746 0.0
C3479 C 0.23744 0.4791 0.18635 0.0
C3480 C 0.22407 0.45842 0.18432 0.0
C3481 C 0.18372 0.34979 0.21514 0.0
C3482 C 0.17459 0.35439 0.22864 0.0
C3483 C 0.19103 0.36232 0.20099 0.0
C3484 C 0.18898 0.37952 0.19983 0.0
C3485 C 0.18053 0.38453 0.2136 0.0
C3486 C 0.17346 0.37212 0.22789 0.0
C3487 C 0.1951 0.39192 0.18411 0.0
C3488 C 0.20829 0.41283 0.18547 0.0
C3489 C 0.18816 0.3832 0.16779 0.0
C3490 C 0.17303 0.3615 0.16543 0.0
C3491 C 0.15395 0.35277 0.17362 0.0
C3492 C 0.13983 0.33229 0.17145 0.0
C3493 C 0.14454 0.32041 0.16101 0.0
C3494 C 0.16335 0.32901 0.15267 0.0
C3495 C 0.17754 0.34949 0.15481 0.0
H3496 H 0.13358 0.30455 0.15935 0.0
H3497 H 0.26621 0.50462 0.17904 0.0
H3498 H 0.77381 0.53109 0.90623 0.0
H3499 H 0.78485 0.54745 0.87862 0.0
H3500 H 0.77603 0.59593 0.89599 0.0
H3501 H 0.76551 0.58003 0.92371 0.0
H3502 H 0.75842 0.58132 0.86447 0.0
H3503 H 0.82331 0.60269 0.8929 0.0
H3504 H 0.84892 0.59728 0.90796 0.0
H3505 H 0.85173 0.56371 0.86534 0.0
H3506 H 0.8259 0.56869 0.85012 0.0
H3507 H 0.81446 0.66263 0.80976 0.0
H3508 H 0.80042 0.63913 0.83334 0.0
H3509 H 0.81405 0.59777 0.80715 0.0
H3510 H 0.82833 0.62145 0.78341 0.0
H3511 H 0.82741 0.60409 0.84063 0.0
H3512 H 0.76582 0.58572 0.81075 0.0
H3513 H 0.74028 0.5908 0.79525 0.0
H3514 H 0.73054 0.61735 0.83973 0.0
H3515 H 0.75632 0.61277 0.85543 0.0
C3516 C 0.77454 0.5454 0.9043 0.0
C3517 C 0.76871 0.5542 0.91726 0.0
C3518 C 0.78074 0.55467 0.88845 0.0
C3519 C 0.78123 0.57291 0.88522 0.0
C3520 C 0.7756 0.58178 0.89814 0.0
C3521 C 0.76954 0.57263 0.91399 0.0
C3522 C 0.78746 0.5828 0.86839 0.0
C3523 C 0.77355 0.58643 0.85931 0.0
C3524 C 0.80693 0.58879 0.86134 0.0
C3525 C 0.82249 0.58585 0.87046 0.0
C3526 C 0.82925 0.594 0.8868 0.0
C3527 C 0.84384 0.59104 0.89536 0.0
C3528 C 0.8519 0.5801 0.88764 0.0
C3529 C 0.84544 0.57215 0.87132 0.0
C3530 C 0.83084 0.57504 0.86272 0.0
C3531 C 0.81437 0.64848 0.80896 0.0
C3532 C 0.8226 0.64393 0.79477 0.0
C3533 C 0.80623 0.635 0.82241 0.0
C3534 C 0.80613 0.61665 0.82201 0.0
C3535 C 0.81398 0.61185 0.80772 0.0
C3536 C 0.82199 0.6253 0.79414 0.0
C3537 C 0.79854 0.60307 0.83692 0.0
C3538 C 0.81216 0.59873 0.84565 0.0
C3539 C 0.77874 0.59628 0.84359 0.0
C3540 C 0.76314 0.59903 0.83424 0.0
C3541 C 0.75837 0.59279 0.8172 0.0
C3542 C 0.74382 0.59556 0.80838 0.0
C3543 C 0.73381 0.60441 0.8165 0.0
C3544 C 0.73831 0.6105 0.83346 0.0
C3545 C 0.75289 0.6078 0.84233 0.0
H3546 H 0.72254 0.60653 0.80965 0.0
H3547 H 0.86319 0.57782 0.89428 0.0
H3548 H 0.42995 0.19764 0.92329 0.0
H3549 H 0.40885 0.19101 0.89776 0.0
H3550 H 0.46193 0.23496 0.87046 0.0
H3551 H 0.48289 0.24214 0.89624 0.0
H3552 H 0.4299 0.23711 0.8607 0.0
H3553 H 0.44433 0.18354 0.86753 0.0
H3554 H 0.44606 0.15651 0.88296 0.0
H3555 H 0.38058 0.12449 0.88827 0.0
H3556 H 0.37849 0.1515 0.8731 0.0
H3557 H 0.38649 0.20178 0.77905 0.0
H3558 H 0.40855 0.20975 0.80401 0.0
H3559 H 0.35619 0.16982 0.83405 0.0
H3560 H 0.33412 0.16107 0.80896 0.0
H3561 H 0.38899 0.16591 0.84163 0.0
H3562 H 0.37588 0.22143 0.83499 0.0
H3563 H 0.37541 0.2484 0.81838 0.0
H3564 H 0.44043 0.27645 0.81106 0.0
H3565 H 0.44125 0.24955 0.82752 0.0
C3566 C 0.43701 0.20602 0.91187 0.0
C3567 C 0.45802 0.2203 0.91165 0.0
C3568 C 0.425 0.20216 0.89727 0.0
C3569 C 0.4339 0.21212 0.88205 0.0
C3570 C 0.45473 0.22702 0.88202 0.0
C3571 C 0.46668 0.23113 0.89673 0.0
C3572 C 0.42165 0.20645 0.86607 0.0
C3573 C 0.42116 0.22157 0.85645 0.0
C3574 C 0.41013 0.18614 0.8605 0.0
C3575 C 0.41128 0.16964 0.8693 0.0
C3576 C 0.43031 0.17078 0.87206 0.0
C3577 C 0.43135 0.15546 0.88076 0.0
C3578 C 0.41345 0.13881 0.88663 0.0
C3579 C 0.39444 0.13741 0.88374 0.0
C3580 C 0.39332 0.15271 0.87508 0.0
C3581 C 0.37966 0.19448 0.79089 0.0
C3582 C 0.35844 0.18094 0.79198 0.0
C3583 C 0.39229 0.1992 0.80521 0.0
C3584 C 0.38396 0.19066 0.82097 0.0
C3585 C 0.36292 0.17671 0.82203 0.0
C3586 C 0.35029 0.17189 0.8077 0.0
C3587 C 0.39705 0.19653 0.83645 0.0
C3588 C 0.39774 0.18144 0.84593 0.0
C3589 C 0.40897 0.21687 0.84175 0.0
C3590 C 0.40861 0.23343 0.8324 0.0
C3591 C 0.39007 0.23335 0.82981 0.0
C3592 C 0.38974 0.24861 0.82043 0.0
C3593 C 0.40788 0.26412 0.81366 0.0
C3594 C 0.4264 0.26444 0.81632 0.0
C3595 C 0.42681 0.24921 0.82571 0.0
H3596 H 0.40758 0.2759 0.80636 0.0
H3597 H 0.41429 0.12699 0.89339 0.0
H3598 H 0.81804 0.23777 0.92457 0.0
H3599 H 0.82553 0.22768 0.89736 0.0
H3600 H 0.76959 0.22113 0.87624 0.0
H3601 H 0.76213 0.23171 0.90348 0.0
H3602 H 0.77903 0.18987 0.86618 0.0
H3603 H 0.80975 0.26172 0.86728 0.0
H3604 H 0.83012 0.2956 0.87995 0.0
H3605 H 0.88332 0.28874 0.88115 0.0
H3606 H 0.86317 0.25467 0.86875 0.0
H3607 H 0.81496 0.18572 0.78298 0.0
H3608 H 0.8003 0.19477 0.80679 0.0
H3609 H 0.85702 0.21677 0.83476 0.0
H3610 H 0.87207 0.20892 0.81079 0.0
H3611 H 0.84346 0.24135 0.8393 0.0
H3612 H 0.8127 0.1688 0.84147 0.0
H3613 H 0.79279 0.13431 0.82987 0.0
H3614 H 0.74041 0.14187 0.82317 0.0
H3615 H 0.76011 0.17651 0.83456 0.0
C3616 C 0.80725 0.23412 0.91418 0.0
C3617 C 0.78964 0.23586 0.91615 0.0
C3618 C 0.81153 0.22827 0.89865 0.0
C3619 C 0.79827 0.22394 0.88472 0.0
C3620 C 0.78003 0.22446 0.88684 0.0
C3621 C 0.77577 0.23044 0.90243 0.0
C3622 C 0.80438 0.22022 0.8678 0.0
C3623 C 0.7929 0.20121 0.86011 0.0
C3624 C 0.82262 0.23494 0.86001 0.0
C3625 C 0.8349 0.25558 0.8672 0.0
C3626 C 0.82576 0.26738 0.87035 0.0
C3627 C 0.83727 0.28663 0.87747 0.0
C3628 C 0.85799 0.2943 0.88138 0.0
C3629 C 0.86726 0.28277 0.87813 0.0
C3630 C 0.85581 0.2635 0.87103 0.0
C3631 C 0.82441 0.19277 0.7941 0.0
C3632 C 0.84467 0.19638 0.79498 0.0
C3633 C 0.81591 0.19771 0.80781 0.0
C3634 C 0.82741 0.20615 0.82275 0.0
C3635 C 0.84775 0.21019 0.82345 0.0
C3636 C 0.85629 0.20546 0.80976 0.0
C3637 C 0.81848 0.21073 0.83781 0.0
C3638 C 0.82943 0.23001 0.84518 0.0
C3639 C 0.79984 0.19618 0.84533 0.0
C3640 C 0.78793 0.1753 0.83868 0.0
C3641 C 0.79697 0.16314 0.83742 0.0
C3642 C 0.78572 0.14356 0.8309 0.0
C3643 C 0.76537 0.13592 0.82574 0.0
C3644 C 0.75619 0.14782 0.82715 0.0
C3645 C 0.76738 0.16742 0.83365 0.0
H3646 H 0.75669 0.12077 0.82068 0.0
H3647 H 0.86688 0.3092 0.8869 0.0
H3648 H 0.23434 0.13329 0.43983 0.0
H3649 H 0.2539 0.14642 0.4662 0.0
H3650 H 0.24335 0.08715 0.47823 0.0
H3651 H 0.22258 0.07369 0.45268 0.0
H3652 H 0.24021 0.10324 0.50551 0.0
H3653 H 0.28964 0.12598 0.46034 0.0
H3654 H 0.30569 0.14342 0.43372 0.0
H3655 H 0.31646 0.19943 0.45525 0.0
H3656 H 0.30023 0.18225 0.48194 0.0
H3657 H 0.33032 0.12489 0.55283 0.0
H3658 H 0.30692 0.11773 0.52871 0.0
H3659 H 0.30101 0.1692 0.54191 0.0
H3660 H 0.32406 0.17614 0.56642 0.0
H3661 H 0.31138 0.16094 0.50356 0.0
H3662 H 0.26356 0.136 0.55046 0.0
H3663 H 0.24988 0.11677 0.57682 0.0
H3664 H 0.23844 0.06261 0.55111 0.0
H3665 H 0.25239 0.08162 0.52466 0.0
C3666 C 0.23592 0.12299 0.44821 0.0
C3667 C 0.22708 0.10245 0.44396 0.0
C3668 C 0.24732 0.13057 0.46321 0.0
C3669 C 0.25045 0.11786 0.47408 0.0
C3670 C 0.24126 0.09731 0.47004 0.0
C3671 C 0.22962 0.08967 0.45524 0.0
C3672 C 0.26353 0.1258 0.48955 0.0
C3673 C 0.25577 0.11585 0.50501 0.0
C3674 C 0.28377 0.14246 0.48907 0.0
C3675 C 0.2935 0.15279 0.47304 0.0
C3676 C 0.29529 0.14199 0.45934 0.0
C3677 C 0.30444 0.15183 0.44425 0.0
C3678 C 0.31203 0.17251 0.44277 0.0
C3679 C 0.31053 0.1834 0.4564 0.0
C3680 C 0.30137 0.17363 0.47151 0.0
C3681 C 0.32409 0.13471 0.55053 0.0
C3682 C 0.32895 0.15107 0.56139 0.0
C3683 C 0.31074 0.13059 0.53683 0.0
C3684 C 0.30233 0.14295 0.53363 0.0
C3685 C 0.30742 0.15953 0.54425 0.0
C3686 C 0.32046 0.16342 0.55821 0.0
C3687 C 0.28806 0.1382 0.5192 0.0
C3688 C 0.29565 0.14864 0.504 0.0
C3689 C 0.26783 0.12178 0.5198 0.0
C3690 C 0.25921 0.11027 0.53563 0.0
C3691 C 0.25832 0.12003 0.55047 0.0
C3692 C 0.25047 0.10916 0.56542 0.0
C3693 C 0.24335 0.08849 0.56565 0.0
C3694 C 0.24399 0.07863 0.55092 0.0
C3695 C 0.25185 0.08944 0.53594 0.0
H3696 H 0.23728 0.08009 0.57724 0.0
H3697 H 0.31912 0.1801 0.43108 0.0
H3698 H 0.93856 0.15114 0.45235 0.0
H3699 H 0.92452 0.15466 0.47917 0.0
H3700 H 0.86318 0.11559 0.46022 0.0
H3701 H 0.87717 0.11234 0.43311 0.0
H3702 H 0.86683 0.14914 0.47541 0.0
H3703 H 0.88413 0.09873 0.48929 0.0
H3704 H 0.90644 0.08382 0.49141 0.0
H3705 H 0.94797 0.13242 0.52394 0.0
H3706 H 0.92605 0.14779 0.52182 0.0
H3707 H 0.81766 0.13894 0.55383 0.0
H3708 H 0.83028 0.13112 0.52807 0.0
H3709 H 0.89257 0.16896 0.5455 0.0
H3710 H 0.88001 0.17688 0.57137 0.0
H3711 H 0.88755 0.13471 0.5311 0.0
H3712 H 0.87154 0.18594 0.51626 0.0
H3713 H 0.84978 0.20146 0.51409 0.0
H3714 H 0.8065 0.15196 0.4832 0.0
H3715 H 0.82787 0.136 0.48539 0.0
C3716 C 0.92207 0.14337 0.45384 0.0
C3717 C 0.90897 0.13154 0.44055 0.0
C3718 C 0.91407 0.14523 0.46926 0.0
C3719 C 0.8928 0.13525 0.47178 0.0
C3720 C 0.87965 0.12338 0.45857 0.0
C3721 C 0.88766 0.12144 0.44313 0.0
C3722 C 0.88435 0.13777 0.48803 0.0
C3723 C 0.87108 0.14564 0.48757 0.0
C3724 C 0.89034 0.13374 0.50394 0.0
C3725 C 0.90354 0.12451 0.50527 0.0
C3726 C 0.89811 0.10633 0.49679 0.0
C3727 C 0.91067 0.09778 0.498 0.0
C3728 C 0.92863 0.10719 0.50776 0.0
C3729 C 0.93405 0.12516 0.51636 0.0
C3730 C 0.92156 0.13379 0.51517 0.0
C3731 C 0.83405 0.14565 0.55218 0.0
C3732 C 0.84784 0.15873 0.56458 0.0
C3733 C 0.84124 0.14114 0.53745 0.0
C3734 C 0.86239 0.14972 0.5347 0.0
C3735 C 0.87619 0.16219 0.54732 0.0
C3736 C 0.86899 0.16668 0.56212 0.0
C3737 C 0.87005 0.1461 0.51846 0.0
C3738 C 0.88321 0.13808 0.51893 0.0
C3739 C 0.86404 0.15007 0.50254 0.0
C3740 C 0.8512 0.15967 0.50114 0.0
C3741 C 0.8573 0.17829 0.50912 0.0
C3742 C 0.84505 0.18718 0.50786 0.0
C3743 C 0.82674 0.17768 0.49855 0.0
C3744 C 0.82067 0.15929 0.49043 0.0
C3745 C 0.83285 0.15032 0.49167 0.0
H3746 H 0.81728 0.18459 0.49759 0.0
H3747 H 0.93834 0.10054 0.50869 0.0
H3748 H 0.86442 0.79635 0.45223 0.0
H3749 H 0.85868 0.77941 0.47922 0.0
H3750 H 0.90254 0.76102 0.46627 0.0
H3751 H 0.90725 0.77679 0.43843 0.0
H3752 H 0.87198 0.73119 0.48046 0.0
H3753 H 0.91281 0.79959 0.49659 0.0
H3754 H 0.92418 0.8358 0.49797 0.0
H3755 H 0.86756 0.82255 0.5216 0.0
H3756 H 0.85571 0.78623 0.52015 0.0
H3757 H 0.86697 0.6995 0.56783 0.0
H3758 H 0.88158 0.72039 0.54243 0.0
H3759 H 0.82785 0.72646 0.53771 0.0
H3760 H 0.81301 0.70515 0.56272 0.0
H3761 H 0.8688 0.76401 0.53383 0.0
H3762 H 0.82793 0.69449 0.51397 0.0
H3763 H 0.81883 0.65882 0.51328 0.0
H3764 H 0.87995 0.67592 0.49771 0.0
H3765 H 0.8895 0.71175 0.49857 0.0
C3766 C 0.87269 0.78849 0.4549 0.0
C3767 C 0.88614 0.7878 0.4429 0.0
C3768 C 0.86967 0.77908 0.4706 0.0
C3769 C 0.88044 0.76919 0.47506 0.0
C3770 C 0.89408 0.76862 0.46323 0.0
C3771 C 0.89691 0.77782 0.44734 0.0
C3772 C 0.8767 0.75885 0.4918 0.0
C3773 C 0.87175 0.73858 0.49215 0.0
C3774 C 0.87625 0.7683 0.50719 0.0
C3775 C 0.88332 0.79015 0.50816 0.0
C3776 C 0.90272 0.80438 0.50198 0.0
C3777 C 0.90926 0.82494 0.50279 0.0
C3778 C 0.89659 0.83147 0.50984 0.0
C3779 C 0.87736 0.81746 0.51614 0.0
C3780 C 0.87073 0.79689 0.51535 0.0
C3781 C 0.85845 0.70551 0.56144 0.0
C3782 C 0.8389 0.70077 0.56716 0.0
C3783 C 0.86674 0.71736 0.54695 0.0
C3784 C 0.85577 0.72494 0.5382 0.0
C3785 C 0.83658 0.7208 0.5443 0.0
C3786 C 0.82811 0.70862 0.55853 0.0
C3787 C 0.86373 0.73646 0.52225 0.0
C3788 C 0.86943 0.75688 0.52211 0.0
C3789 C 0.86528 0.7273 0.50716 0.0
C3790 C 0.85949 0.70579 0.50655 0.0
C3791 C 0.83948 0.69066 0.51057 0.0
C3792 C 0.83423 0.67041 0.51011 0.0
C3793 C 0.84882 0.66511 0.50551 0.0
C3794 C 0.86868 0.68005 0.50131 0.0
C3795 C 0.87401 0.70032 0.50177 0.0
H3796 H 0.84472 0.64943 0.50516 0.0
H3797 H 0.90168 0.84739 0.51045 0.0
loop_
_geom_bond_atom_site_label_1
_geom_bond_atom_site_label_2
_geom_bond_distance
_geom_bond_site_symmetry_2
_ccdc_geom_bond_type
H0 C1 0.949 . S
C1 H0 0.949 . S
C1 C2 1.395 . S
C1 C3 1.391 . S
C2 C1 1.395 . S
C2 C5 1.390 . S
C3 C1 1.391 . S
C3 C7 1.387 . S
C3 C8 1.491 . S
H4 C5 0.950 . S
C5 C2 1.390 . S
C5 H4 0.950 . S
C5 C6 1.378 . S
C6 C5 1.378 . S
C6 C7 1.409 . S
C7 C3 1.387 . S
C7 C6 1.409 . S
C7 H9 0.951 . S
C8 C3 1.491 . S
C8 C10 1.382 . S
C8 C12 1.404 . S
H9 C7 0.951 . S
C10 C8 1.382 . S
C10 C11 1.390 . S
C10 H15 0.949 . S
C11 C10 1.390 . S
C11 C16 1.399 . S
C12 C8 1.404 . S
C12 H13 0.950 . S
C12 C14 1.375 . S
H13 C12 0.950 . S
C14 C12 1.375 . S
C14 C16 1.382 . S
C14 H18 0.950 . S
H15 C10 0.949 . S
C16 C11 1.399 . S
C16 C14 1.382 . S
C16 H17 0.952 . S
H17 C16 0.952 . S
H18 C14 0.950 . S
H19 C20 0.949 . S
C20 H19 0.949 . S
C20 C21 1.395 . S
C20 C22 1.391 . S
C21 C20 1.395 . S
C21 C24 1.390 . S
C22 C20 1.391 . S
C22 C26 1.387 . S
C22 C27 1.491 . S
H23 C24 0.950 . S
C24 C21 1.390 . S
C24 H23 0.950 . S
C24 C25 1.378 . S
C25 C24 1.378 . S
C25 C26 1.409 . S
C26 C22 1.387 . S
C26 C25 1.409 . S
C26 H28 0.951 . S
C27 C22 1.491 . S
C27 C29 1.382 . S
C27 C31 1.404 . S
H28 C26 0.951 . S
C29 C27 1.382 . S
C29 C30 1.390 . S
C29 H34 0.949 . S
C30 C29 1.390 . S
C30 C35 1.399 . S
C31 C27 1.404 . S
C31 H32 0.950 . S
C31 C33 1.375 . S
H32 C31 0.950 . S
C33 C31 1.375 . S
C33 C35 1.382 . S
C33 H37 0.950 . S
H34 C29 0.949 . S
C35 C30 1.399 . S
C35 C33 1.382 . S
C35 H36 0.952 . S
H36 C35 0.952 . S
H37 C33 0.950 . S
H38 C39 0.949 . S
C39 H38 0.949 . S
C39 C40 1.395 . S
C39 C41 1.391 . S
C40 C39 1.395 . S
C40 C43 1.390 . S
C41 C39 1.391 . S
C41 C45 1.387 . S
C41 C46 1.491 . S
H42 C43 0.950 . S
C43 C40 1.390 . S
C43 H42 0.950 . S
C43 C44 1.378 . S
C44 C43 1.378 . S
C44 C45 1.409 . S
C45 C41 1.387 . S
C45 C44 1.409 . S
C45 H47 0.951 . S
C46 C41 1.491 . S
C46 C48 1.382 . S
C46 C50 1.404 . S
H47 C45 0.951 . S
C48 C46 1.382 . S
C48 C49 1.390 . S
C48 H53 0.949 . S
C49 C48 1.390 . S
C49 C54 1.399 . S
C50 C46 1.404 . S
C50 H51 0.950 . S
C50 C52 1.375 . S
H51 C50 0.950 . S
C52 C50 1.375 . S
C52 C54 1.382 . S
C52 H56 0.950 . S
H53 C48 0.949 . S
C54 C49 1.399 . S
C54 C52 1.382 . S
C54 H55 0.952 . S
H55 C54 0.952 . S
H56 C52 0.950 . S
H57 C58 0.949 . S
C58 H57 0.949 . S
C58 C59 1.395 . S
C58 C60 1.391 . S
C59 C58 1.395 . S
C59 C62 1.390 . S
C60 C58 1.391 . S
C60 C64 1.387 . S
C60 C65 1.491 . S
H61 C62 0.950 . S
C62 C59 1.390 . S
C62 H61 0.950 . S
C62 C63 1.378 . S
C63 C62 1.378 . S
C63 C64 1.409 . S
C64 C60 1.387 . S
C64 C63 1.409 . S
C64 H66 0.951 . S
C65 C60 1.491 . S
C65 C67 1.382 . S
C65 C69 1.404 . S
H66 C64 0.951 . S
C67 C65 1.382 . S
C67 C68 1.390 . S
C67 H72 0.949 . S
C68 C67 1.390 . S
C68 C73 1.399 . S
C69 C65 1.404 . S
C69 H70 0.950 . S
C69 C71 1.375 . S
H70 C69 0.950 . S
C71 C69 1.375 . S
C71 C73 1.382 . S
C71 H75 0.950 . S
H72 C67 0.949 . S
C73 C68 1.399 . S
C73 C71 1.382 . S
C73 H74 0.952 . S
H74 C73 0.952 . S
H75 C71 0.950 . S
H76 C77 0.949 . S
C77 H76 0.949 . S
C77 C78 1.395 . S
C77 C79 1.391 . S
C78 C77 1.395 . S
C78 C81 1.390 . S
C79 C77 1.391 . S
C79 C83 1.387 . S
C79 C84 1.491 . S
H80 C81 0.950 . S
C81 C78 1.390 . S
C81 H80 0.950 . S
C81 C82 1.378 . S
C82 C81 1.378 . S
C82 C83 1.409 . S
C83 C79 1.387 . S
C83 C82 1.409 . S
C83 H85 0.951 . S
C84 C79 1.491 . S
C84 C86 1.382 . S
C84 C88 1.404 . S
H85 C83 0.951 . S
C86 C84 1.382 . S
C86 C87 1.390 . S
C86 H91 0.949 . S
C87 C86 1.390 . S
C87 C92 1.399 . S
C88 C84 1.404 . S
C88 H89 0.950 . S
C88 C90 1.375 . S
H89 C88 0.950 . S
C90 C88 1.375 . S
C90 C92 1.382 . S
C90 H94 0.950 . S
H91 C86 0.949 . S
C92 C87 1.399 . S
C92 C90 1.382 . S
C92 H93 0.952 . S
H93 C92 0.952 . S
H94 C90 0.950 . S
H95 C96 0.949 . S
C96 H95 0.949 . S
C96 C97 1.395 . S
C96 C98 1.391 . S
C97 C96 1.395 . S
C97 C100 1.390 . S
C98 C96 1.391 . S
C98 C102 1.387 . S
C98 C103 1.491 . S
H99 C100 0.950 . S
C100 C97 1.390 . S
C100 H99 0.950 . S
C100 C101 1.378 . S
C101 C100 1.378 . S
C101 C102 1.409 . S
C102 C98 1.387 . S
C102 C101 1.409 . S
C102 H104 0.951 . S
C103 C98 1.491 . S
C103 C105 1.382 . S
C103 C107 1.404 . S
H104 C102 0.951 . S
C105 C103 1.382 . S
C105 C106 1.390 . S
C105 H110 0.949 . S
C106 C105 1.390 . S
C106 C111 1.399 . S
C107 C103 1.404 . S
C107 H108 0.950 . S
C107 C109 1.375 . S
H108 C107 0.950 . S
C109 C107 1.375 . S
C109 C111 1.382 . S
C109 H113 0.950 . S
H110 C105 0.949 . S
C111 C106 1.399 . S
C111 C109 1.382 . S
C111 H112 0.952 . S
H112 C111 0.952 . S
H113 C109 0.950 . S
H114 C115 0.949 . S
C115 H114 0.949 . S
C115 C116 1.395 . S
C115 C117 1.391 . S
C116 C115 1.395 . S
C116 C119 1.390 . S
C117 C115 1.391 . S
C117 C121 1.387 . S
C117 C122 1.491 . S
H118 C119 0.950 . S
C119 C116 1.390 . S
C119 H118 0.950 . S
C119 C120 1.378 . S
C120 C119 1.378 . S
C120 C121 1.409 . S
C121 C117 1.387 . S
C121 C120 1.409 . S
C121 H123 0.951 . S
C122 C117 1.491 . S
C122 C124 1.382 . S
C122 C126 1.404 . S
H123 C121 0.951 . S
C124 C122 1.382 . S
C124 C125 1.390 . S
C124 H129 0.949 . S
C125 C124 1.390 . S
C125 C130 1.399 . S
C126 C122 1.404 . S
C126 H127 0.950 . S
C126 C128 1.375 . S
H127 C126 0.950 . S
C128 C126 1.375 . S
C128 C130 1.382 . S
C128 H132 0.950 . S
H129 C124 0.949 . S
C130 C125 1.399 . S
C130 C128 1.382 . S
C130 H131 0.952 . S
H131 C130 0.952 . S
H132 C128 0.950 . S
H133 C134 0.949 . S
C134 H133 0.949 . S
C134 C135 1.395 . S
C134 C136 1.391 . S
C135 C134 1.395 . S
C135 C138 1.390 . S
C136 C134 1.391 . S
C136 C140 1.387 . S
C136 C141 1.491 . S
H137 C138 0.950 . S
C138 C135 1.390 . S
C138 H137 0.950 . S
C138 C139 1.378 . S
C139 C138 1.378 . S
C139 C140 1.409 . S
C140 C136 1.387 . S
C140 C139 1.409 . S
C140 H142 0.951 . S
C141 C136 1.491 . S
C141 C143 1.382 . S
C141 C145 1.404 . S
H142 C140 0.951 . S
C143 C141 1.382 . S
C143 C144 1.390 . S
C143 H148 0.949 . S
C144 C143 1.390 . S
C144 C149 1.399 . S
C145 C141 1.404 . S
C145 H146 0.950 . S
C145 C147 1.375 . S
H146 C145 0.950 . S
C147 C145 1.375 . S
C147 C149 1.382 . S
C147 H151 0.950 . S
H148 C143 0.949 . S
C149 C144 1.399 . S
C149 C147 1.382 . S
C149 H150 0.952 . S
H150 C149 0.952 . S
H151 C147 0.950 . S
H152 C153 0.949 . S
C153 H152 0.949 . S
C153 C154 1.395 . S
C153 C155 1.391 . S
C154 C153 1.395 . S
C154 C157 1.390 . S
C155 C153 1.391 . S
C155 C159 1.387 . S
C155 C160 1.491 . S
H156 C157 0.950 . S
C157 C154 1.390 . S
C157 H156 0.950 . S
C157 C158 1.378 . S
C158 C157 1.378 . S
C158 C159 1.409 . S
C159 C155 1.387 . S
C159 C158 1.409 . S
C159 H161 0.951 . S
C160 C155 1.491 . S
C160 C162 1.382 . S
C160 C164 1.404 . S
H161 C159 0.951 . S
C162 C160 1.382 . S
C162 C163 1.390 . S
C162 H167 0.949 . S
C163 C162 1.390 . S
C163 C168 1.399 . S
C164 C160 1.404 . S
C164 H165 0.950 . S
C164 C166 1.375 . S
H165 C164 0.950 . S
C166 C164 1.375 . S
C166 C168 1.382 . S
C166 H170 0.950 . S
H167 C162 0.949 . S
C168 C163 1.399 . S
C168 C166 1.382 . S
C168 H169 0.952 . S
H169 C168 0.952 . S
H170 C166 0.950 . S
H171 C172 0.949 . S
C172 H171 0.949 . S
C172 C173 1.395 . S
C172 C174 1.391 . S
C173 C172 1.395 . S
C173 C176 1.390 . S
C174 C172 1.391 . S
C174 C178 1.387 . S
C174 C179 1.491 . S
H175 C176 0.950 . S
C176 C173 1.390 . S
C176 H175 0.950 . S
C176 C177 1.378 . S
C177 C176 1.378 . S
C177 C178 1.409 . S
C178 C174 1.387 . S
C178 C177 1.409 . S
C178 H180 0.951 . S
C179 C174 1.491 . S
C179 C181 1.382 . S
C179 C183 1.404 . S
H180 C178 0.951 . S
C181 C179 1.382 . S
C181 C182 1.390 . S
C181 H186 0.949 . S
C182 C181 1.390 . S
C182 C187 1.399 . S
C183 C179 1.404 . S
C183 H184 0.950 . S
C183 C185 1.375 . S
H184 C183 0.950 . S
C185 C183 1.375 . S
C185 C187 1.382 . S
C185 H189 0.950 . S
H186 C181 0.949 . S
C187 C182 1.399 . S
C187 C185 1.382 . S
C187 H188 0.952 . S
H188 C187 0.952 . S
H189 C185 0.950 . S
H190 C191 0.949 . S
C191 H190 0.949 . S
C191 C192 1.395 . S
C191 C193 1.391 . S
C192 C191 1.395 . S
C192 C195 1.390 . S
C193 C191 1.391 . S
C193 C197 1.387 . S
C193 C198 1.491 . S
H194 C195 0.950 . S
C195 C192 1.390 . S
C195 H194 0.950 . S
C195 C196 1.378 . S
C196 C195 1.378 . S
C196 C197 1.409 . S
C197 C193 1.387 . S
C197 C196 1.409 . S
C197 H199 0.951 . S
C198 C193 1.491 . S
C198 C200 1.382 . S
C198 C202 1.404 . S
H199 C197 0.951 . S
C200 C198 1.382 . S
C200 C201 1.390 . S
C200 H205 0.949 . S
C201 C200 1.390 . S
C201 C206 1.399 . S
C202 C198 1.404 . S
C202 H203 0.950 . S
C202 C204 1.375 . S
H203 C202 0.950 . S
C204 C202 1.375 . S
C204 C206 1.382 . S
C204 H208 0.950 . S
H205 C200 0.949 . S
C206 C201 1.399 . S
C206 C204 1.382 . S
C206 H207 0.952 . S
H207 C206 0.952 . S
H208 C204 0.950 . S
H209 C210 0.949 . S
C210 H209 0.949 . S
C210 C211 1.395 . S
C210 C212 1.391 . S
C211 C210 1.395 . S
C211 C214 1.390 . S
C212 C210 1.391 . S
C212 C216 1.387 . S
C212 C217 1.491 . S
H213 C214 0.950 . S
C214 C211 1.390 . S
C214 H213 0.950 . S
C214 C215 1.378 . S
C215 C214 1.378 . S
C215 C216 1.409 . S
C216 C212 1.387 . S
C216 C215 1.409 . S
C216 H218 0.951 . S
C217 C212 1.491 . S
C217 C219 1.382 . S
C217 C221 1.404 . S
H218 C216 0.951 . S
C219 C217 1.382 . S
C219 C220 1.390 . S
C219 H224 0.949 . S
C220 C219 1.390 . S
C220 C225 1.399 . S
C221 C217 1.404 . S
C221 H222 0.950 . S
C221 C223 1.375 . S
H222 C221 0.950 . S
C223 C221 1.375 . S
C223 C225 1.382 . S
C223 H227 0.950 . S
H224 C219 0.949 . S
C225 C220 1.399 . S
C225 C223 1.382 . S
C225 H226 0.952 . S
H226 C225 0.952 . S
H227 C223 0.950 . S
H228 C229 0.949 . S
C229 H228 0.949 . S
C229 C230 1.395 . S
C229 C231 1.391 . S
C230 C229 1.395 . S
C230 C233 1.390 . S
C231 C229 1.391 . S
C231 C235 1.387 . S
C231 C236 1.491 . S
H232 C233 0.950 . S
C233 C230 1.390 . S
C233 H232 0.950 . S
C233 C234 1.378 . S
C234 C233 1.378 . S
C234 C235 1.409 . S
C235 C231 1.387 . S
C235 C234 1.409 . S
C235 H237 0.951 . S
C236 C231 1.491 . S
C236 C238 1.382 . S
C236 C240 1.404 . S
H237 C235 0.951 . S
C238 C236 1.382 . S
C238 C239 1.390 . S
C238 H243 0.949 . S
C239 C238 1.390 . S
C239 C244 1.399 . S
C240 C236 1.404 . S
C240 H241 0.950 . S
C240 C242 1.375 . S
H241 C240 0.950 . S
C242 C240 1.375 . S
C242 C244 1.382 . S
C242 H246 0.950 . S
H243 C238 0.949 . S
C244 C239 1.399 . S
C244 C242 1.382 . S
C244 H245 0.952 . S
H245 C244 0.952 . S
H246 C242 0.950 . S
H247 C248 0.949 . S
C248 H247 0.949 . S
C248 C249 1.395 . S
C248 C250 1.391 . S
C249 C248 1.395 . S
C249 C252 1.390 . S
C250 C248 1.391 . S
C250 C254 1.387 . S
C250 C255 1.491 . S
H251 C252 0.950 . S
C252 C249 1.390 . S
C252 H251 0.950 . S
C252 C253 1.378 . S
C253 C252 1.378 . S
C253 C254 1.409 . S
C254 C250 1.387 . S
C254 C253 1.409 . S
C254 H256 0.951 . S
C255 C250 1.491 . S
C255 C257 1.382 . S
C255 C259 1.404 . S
H256 C254 0.951 . S
C257 C255 1.382 . S
C257 C258 1.390 . S
C257 H262 0.949 . S
C258 C257 1.390 . S
C258 C263 1.399 . S
C259 C255 1.404 . S
C259 H260 0.950 . S
C259 C261 1.375 . S
H260 C259 0.950 . S
C261 C259 1.375 . S
C261 C263 1.382 . S
C261 H265 0.950 . S
H262 C257 0.949 . S
C263 C258 1.399 . S
C263 C261 1.382 . S
C263 H264 0.952 . S
H264 C263 0.952 . S
H265 C261 0.950 . S
H266 C267 0.949 . S
C267 H266 0.949 . S
C267 C268 1.395 . S
C267 C269 1.391 . S
C268 C267 1.395 . S
C268 C271 1.390 . S
C269 C267 1.391 . S
C269 C273 1.387 . S
C269 C274 1.491 . S
H270 C271 0.950 . S
C271 C268 1.390 . S
C271 H270 0.950 . S
C271 C272 1.378 . S
C272 C271 1.378 . S
C272 C273 1.409 . S
C273 C269 1.387 . S
C273 C272 1.409 . S
C273 H275 0.951 . S
C274 C269 1.491 . S
C274 C276 1.382 . S
C274 C278 1.404 . S
H275 C273 0.951 . S
C276 C274 1.382 . S
C276 C277 1.390 . S
C276 H281 0.949 . S
C277 C276 1.390 . S
C277 C282 1.399 . S
C278 C274 1.404 . S
C278 H279 0.950 . S
C278 C280 1.375 . S
H279 C278 0.950 . S
C280 C278 1.375 . S
C280 C282 1.382 . S
C280 H284 0.950 . S
H281 C276 0.949 . S
C282 C277 1.399 . S
C282 C280 1.382 . S
C282 H283 0.952 . S
H283 C282 0.952 . S
H284 C280 0.950 . S
H285 C286 0.949 . S
C286 H285 0.949 . S
C286 C287 1.395 . S
C286 C288 1.391 . S
C287 C286 1.395 . S
C287 C290 1.390 . S
C288 C286 1.391 . S
C288 C292 1.387 . S
C288 C293 1.491 . S
H289 C290 0.950 . S
C290 C287 1.390 . S
C290 H289 0.950 . S
C290 C291 1.378 . S
C291 C290 1.378 . S
C291 C292 1.409 . S
C292 C288 1.387 . S
C292 C291 1.409 . S
C292 H294 0.951 . S
C293 C288 1.491 . S
C293 C295 1.382 . S
C293 C297 1.404 . S
H294 C292 0.951 . S
C295 C293 1.382 . S
C295 C296 1.390 . S
C295 H300 0.949 . S
C296 C295 1.390 . S
C296 C301 1.399 . S
C297 C293 1.404 . S
C297 H298 0.950 . S
C297 C299 1.375 . S
H298 C297 0.950 . S
C299 C297 1.375 . S
C299 C301 1.382 . S
C299 H303 0.950 . S
H300 C295 0.949 . S
C301 C296 1.399 . S
C301 C299 1.382 . S
C301 H302 0.952 . S
H302 C301 0.952 . S
H303 C299 0.950 . S
H304 C305 0.949 . S
C305 H304 0.949 . S
C305 C306 1.395 . S
C305 C307 1.391 . S
C306 C305 1.395 . S
C306 C309 1.390 . S
C307 C305 1.391 . S
C307 C311 1.387 . S
C307 C312 1.491 . S
H308 C309 0.950 . S
C309 C306 1.390 . S
C309 H308 0.950 . S
C309 C310 1.378 . S
C310 C309 1.378 . S
C310 C311 1.409 . S
C311 C307 1.387 . S
C311 C310 1.409 . S
C311 H313 0.951 . S
C312 C307 1.491 . S
C312 C314 1.382 . S
C312 C316 1.404 . S
H313 C311 0.951 . S
C314 C312 1.382 . S
C314 C315 1.390 . S
C314 H319 0.949 . S
C315 C314 1.390 . S
C315 C320 1.399 . S
C316 C312 1.404 . S
C316 H317 0.950 . S
C316 C318 1.375 . S
H317 C316 0.950 . S
C318 C316 1.375 . S
C318 C320 1.382 . S
C318 H322 0.950 . S
H319 C314 0.949 . S
C320 C315 1.399 . S
C320 C318 1.382 . S
C320 H321 0.952 . S
H321 C320 0.952 . S
H322 C318 0.950 . S
H323 C324 0.949 . S
C324 H323 0.949 . S
C324 C325 1.395 . S
C324 C326 1.391 . S
C325 C324 1.395 . S
C325 C328 1.390 . S
C326 C324 1.391 . S
C326 C330 1.387 . S
C326 C331 1.491 . S
H327 C328 0.950 . S
C328 C325 1.390 . S
C328 H327 0.950 . S
C328 C329 1.378 . S
C329 C328 1.378 . S
C329 C330 1.409 . S
C330 C326 1.387 . S
C330 C329 1.409 . S
C330 H332 0.951 . S
C331 C326 1.491 . S
C331 C333 1.382 . S
C331 C335 1.404 . S
H332 C330 0.951 . S
C333 C331 1.382 . S
C333 C334 1.390 . S
C333 H338 0.949 . S
C334 C333 1.390 . S
C334 C339 1.399 . S
C335 C331 1.404 . S
C335 H336 0.950 . S
C335 C337 1.375 . S
H336 C335 0.950 . S
C337 C335 1.375 . S
C337 C339 1.382 . S
C337 H341 0.950 . S
H338 C333 0.949 . S
C339 C334 1.399 . S
C339 C337 1.382 . S
C339 H340 0.952 . S
H340 C339 0.952 . S
H341 C337 0.950 . S
Eu342 N373 2.657 . S
Eu342 N380 2.609 . S
Eu342 O386 2.558 . S
Eu342 O387 2.612 1_566 S
Eu342 O389 2.339 1_565 S
Eu342 O390 2.563 1_565 S
Eu342 O391 2.419 1_565 S
Eu342 O393 2.380 1_556 S
Eu342 O394 2.432 . S
Eu342 C406 2.848 1_565 S
C343 C346 1.429 . S
C343 C347 1.411 . S
C343 N350 1.377 . S
C344 C346 1.420 . S
C344 C348 1.423 . S
C344 C356 1.392 . S
C345 C347 1.420 . S
C345 C348 1.351 . S
C345 H368 0.931 . S
C346 C343 1.429 . S
C346 C344 1.420 . S
C346 N354 1.362 . S
C347 C343 1.411 . S
C347 C345 1.420 . S
C347 C352 1.395 . S
C348 C344 1.423 . S
C348 C345 1.351 . S
C348 H360 0.930 . S
C349 C351 1.400 . S
C349 C352 1.386 . S
C349 H361 0.930 . S
N350 C343 1.377 . S
N350 C351 1.321 . S
N350 Eu353 2.609 . S
C351 C349 1.400 . S
C351 N350 1.321 . S
C351 H358 0.930 . S
C352 C347 1.395 . S
C352 C349 1.386 . S
C352 H371 0.930 . S
Eu353 N350 2.609 . S
Eu353 N354 2.657 . S
Eu353 O387 2.380 . S
Eu353 O388 2.432 . S
Eu353 O392 2.558 . S
Eu353 O393 2.612 1_545 S
Eu353 O395 2.339 1_545 S
Eu353 O396 2.563 1_545 S
Eu353 O397 2.419 1_545 S
Eu353 C417 2.849 . S
N354 C346 1.362 . S
N354 Eu353 2.657 . S
N354 C355 1.334 . S
C355 N354 1.334 . S
C355 C357 1.413 . S
C355 H362 0.929 . S
C356 C344 1.392 . S
C356 C357 1.367 . S
C356 H364 0.930 . S
C357 C355 1.413 . S
C357 C356 1.367 . S
C357 H359 0.930 . S
H358 C351 0.930 . S
H359 C357 0.930 . S
H360 C348 0.930 . S
H361 C349 0.930 . S
H362 C355 0.929 . S
H363 C377 0.930 . S
H364 C356 0.930 . S
H365 C383 0.930 . S
H366 C374 0.929 1_545 S
H367 C381 0.930 . S
H368 C345 0.931 . S
H369 C375 0.930 . S
H370 C408 0.930 . S
H371 C352 0.930 . S
H372 C407 0.931 . S
N373 Eu342 2.657 . S
N373 C374 1.334 . S
N373 C378 1.362 . S
C374 H366 0.929 1_565 S
C374 N373 1.334 . S
C374 C377 1.413 . S
C375 H369 0.930 . S
C375 C376 1.392 . S
C375 C377 1.367 . S
C376 C375 1.392 . S
C376 C378 1.420 . S
C376 C408 1.423 . S
C377 H363 0.930 . S
C377 C374 1.413 . S
C377 C375 1.367 . S
C378 N373 1.362 . S
C378 C376 1.420 . S
C378 C382 1.429 . S
H379 C384 0.930 . S
N380 Eu342 2.609 . S
N380 C382 1.377 . S
N380 C383 1.321 . S
C381 H367 0.930 . S
C381 C383 1.400 . S
C381 C384 1.386 . S
C382 C378 1.429 . S
C382 N380 1.377 . S
C382 C385 1.411 . S
C383 H365 0.930 . S
C383 N380 1.321 . S
C383 C381 1.400 . S
C384 H379 0.930 . S
C384 C381 1.386 . S
C384 C385 1.395 . S
C385 C382 1.411 . S
C385 C384 1.395 . S
C385 C407 1.420 . S
O386 Eu342 2.558 . S
O386 C406 1.257 1_565 S
O387 Eu342 2.612 1_544 S
O387 Eu353 2.380 . S
O387 C398 1.276 1_554 S
O388 Eu353 2.432 . S
O388 C405 1.264 . S
O389 Eu342 2.339 1_545 S
O389 C405 1.254 1_556 S
O390 Eu342 2.563 1_545 S
O390 C398 1.235 . S
O391 Eu342 2.419 1_545 S
O391 C406 1.249 . S
O392 Eu353 2.558 . S
O392 C417 1.263 . S
O393 Eu342 2.380 1_554 S
O393 Eu353 2.612 1_565 S
O393 C409 1.276 . S
O394 Eu342 2.432 . S
O394 C416 1.264 1_556 S
O395 Eu353 2.339 1_565 S
O395 C416 1.254 . S
O396 Eu353 2.563 1_565 S
O396 C409 1.235 . S
O397 Eu353 2.419 1_565 S
O397 C417 1.244 1_565 S
C398 O387 1.276 1_556 S
C398 O390 1.235 . S
C399 C401 1.393 . S
C399 C403 1.435 . S
C399 C406 1.492 . S
C400 C401 1.392 . S
C400 C402 1.386 . S
C401 C399 1.393 . S
C401 C400 1.392 . S
C401 H418 0.930 . S
C402 C400 1.386 . S
C402 C404 1.395 . S
C402 H419 0.930 . S
C403 C399 1.435 . S
C403 C404 1.392 . S
C403 H420 0.878 1_545 S
C404 C402 1.395 . S
C404 C403 1.392 . S
C404 H421 0.902 1_545 S
C405 O388 1.264 . S
C405 O389 1.254 1_554 S
C406 Eu342 2.848 1_545 S
C406 O386 1.257 1_545 S
C406 O391 1.249 . S
C406 C399 1.492 . S
C407 H372 0.931 . S
C407 C385 1.420 . S
C407 C408 1.351 . S
C408 H370 0.930 . S
C408 C376 1.423 . S
C408 C407 1.351 . S
C409 O393 1.276 . S
C409 O396 1.235 . S
C410 C411 1.393 . S
C410 C414 1.395 1_565 S
C410 C417 1.490 1_565 S
C411 C410 1.393 . S
C411 C412 1.392 . S
C411 H422 0.930 . S
C412 C411 1.392 . S
C412 C413 1.386 . S
C413 C412 1.386 . S
C413 C415 1.395 . S
C413 H423 0.930 . S
C414 C410 1.395 1_545 S
C414 C415 1.379 1_545 S
C414 H424 0.930 . S
C415 C413 1.395 . S
C415 C414 1.379 1_565 S
C415 H425 0.930 1_565 S
C416 O394 1.264 1_554 S
C416 O395 1.254 . S
C417 Eu353 2.849 . S
C417 O392 1.263 . S
C417 O397 1.244 1_545 S
C417 C410 1.490 1_545 S
H418 C401 0.930 . S
H419 C402 0.930 . S
H420 C403 0.878 1_565 S
H421 C404 0.902 1_565 S
H422 C411 0.930 . S
H423 C413 0.930 . S
H424 C414 0.930 . S
H425 C415 0.930 1_545 S
Eu426 N457 2.657 . S
Eu426 N464 2.609 . S
Eu426 O470 2.558 . S
Eu426 O471 2.612 1_456 S
Eu426 O473 2.339 1_455 S
Eu426 O474 2.563 1_455 S
Eu426 O475 2.419 1_455 S
Eu426 O477 2.380 1_556 S
Eu426 O478 2.432 . S
Eu426 C490 2.848 . S
C427 C430 1.429 . S
C427 C431 1.411 . S
C427 N434 1.377 . S
C428 C430 1.420 . S
C428 C432 1.423 . S
C428 C440 1.392 . S
C429 C431 1.420 . S
C429 C432 1.351 . S
C429 H452 0.931 . S
C430 C427 1.429 . S
C430 C428 1.420 . S
C430 N438 1.362 . S
C431 C427 1.411 . S
C431 C429 1.420 . S
C431 C436 1.395 . S
C432 C428 1.423 . S
C432 C429 1.351 . S
C432 H444 0.930 . S
C433 C435 1.400 . S
C433 C436 1.386 . S
C433 H445 0.930 . S
N434 C427 1.377 . S
N434 C435 1.321 . S
N434 Eu437 2.609 . S
C435 C433 1.400 . S
C435 N434 1.321 . S
C435 H442 0.930 . S
C436 C431 1.395 . S
C436 C433 1.386 . S
C436 H455 0.930 . S
Eu437 N434 2.609 . S
Eu437 N438 2.657 . S
Eu437 O471 2.380 . S
Eu437 O472 2.432 . S
Eu437 O476 2.558 . S
Eu437 O477 2.612 1_655 S
Eu437 O479 2.339 1_655 S
Eu437 O480 2.563 1_655 S
Eu437 O481 2.419 1_655 S
Eu437 C501 2.848 1_655 S
N438 C430 1.362 . S
N438 Eu437 2.657 . S
N438 C439 1.334 . S
C439 N438 1.334 . S
C439 C441 1.413 . S
C439 H446 0.929 1_655 S
C440 C428 1.392 . S
C440 C441 1.367 . S
C440 H448 0.930 . S
C441 C439 1.413 . S
C441 C440 1.367 . S
C441 H443 0.930 . S
H442 C435 0.930 . S
H443 C441 0.930 . S
H444 C432 0.930 . S
H445 C433 0.930 . S
H446 C439 0.929 1_455 S
H447 C461 0.930 . S
H448 C440 0.930 . S
H449 C467 0.930 . S
H450 C458 0.929 . S
H451 C465 0.930 . S
H452 C429 0.931 . S
H453 C459 0.930 . S
H454 C492 0.930 . S
H455 C436 0.930 . S
H456 C491 0.931 . S
N457 Eu426 2.657 . S
N457 C458 1.334 . S
N457 C462 1.362 . S
C458 H450 0.929 . S
C458 N457 1.334 . S
C458 C461 1.413 . S
C459 H453 0.930 . S
C459 C460 1.392 . S
C459 C461 1.367 . S
C460 C459 1.392 . S
C460 C462 1.420 . S
C460 C492 1.423 . S
C461 H447 0.930 . S
C461 C458 1.413 . S
C461 C459 1.367 . S
C462 N457 1.362 . S
C462 C460 1.420 . S
C462 C466 1.429 . S
H463 C468 0.930 . S
N464 Eu426 2.609 . S
N464 C466 1.377 . S
N464 C467 1.321 . S
C465 H451 0.930 . S
C465 C467 1.400 . S
C465 C468 1.386 . S
C466 C462 1.429 . S
C466 N464 1.377 . S
C466 C469 1.411 . S
C467 H449 0.930 . S
C467 N464 1.321 . S
C467 C465 1.400 . S
C468 H463 0.930 . S
C468 C465 1.386 . S
C468 C469 1.395 . S
C469 C466 1.411 . S
C469 C468 1.395 . S
C469 C491 1.420 . S
O470 Eu426 2.558 . S
O470 C490 1.257 . S
O471 Eu426 2.612 1_654 S
O471 Eu437 2.380 . S
O471 C482 1.276 1_554 S
O472 Eu437 2.432 . S
O472 C489 1.264 . S
O473 Eu426 2.339 1_655 S
O473 C489 1.254 1_556 S
O474 Eu426 2.563 1_655 S
O474 C482 1.235 . S
O475 Eu426 2.419 1_655 S
O475 C490 1.249 1_655 S
O476 Eu437 2.558 . S
O476 C501 1.257 1_655 S
O477 Eu426 2.380 1_554 S
O477 Eu437 2.612 1_455 S
O477 C493 1.276 . S
O478 Eu426 2.432 . S
O478 C500 1.264 1_556 S
O479 Eu437 2.339 1_455 S
O479 C500 1.254 . S
O480 Eu437 2.563 1_455 S
O480 C493 1.235 . S
O481 Eu437 2.419 1_455 S
O481 C501 1.249 . S
C482 O471 1.276 1_556 S
C482 O474 1.235 . S
C483 C485 1.393 . S
C483 C487 1.395 1_655 S
C483 C490 1.492 1_655 S
C484 C485 1.392 . S
C484 C486 1.386 . S
C485 C483 1.393 . S
C485 C484 1.392 . S
C485 H502 0.930 . S
C486 C484 1.386 . S
C486 C488 1.395 1_655 S
C486 H503 0.930 . S
C487 C483 1.395 1_455 S
C487 C488 1.379 . S
C487 H504 0.930 . S
C488 C486 1.395 1_455 S
C488 C487 1.379 . S
C488 H505 0.930 . S
C489 O472 1.264 . S
C489 O473 1.254 1_554 S
C490 Eu426 2.848 . S
C490 O470 1.257 . S
C490 O475 1.249 1_455 S
C490 C483 1.492 1_455 S
C491 H456 0.931 . S
C491 C469 1.420 . S
C491 C492 1.351 . S
C492 H454 0.930 . S
C492 C460 1.423 . S
C492 C491 1.351 . S
C493 O477 1.276 . S
C493 O480 1.235 . S
C494 C495 1.393 . S
C494 C498 1.387 1_455 S
C494 C501 1.492 . S
C495 C494 1.393 . S
C495 C496 1.392 . S
C495 H506 0.930 . S
C496 C495 1.392 . S
C496 C497 1.386 . S
C497 C496 1.386 . S
C497 C499 1.395 . S
C497 H507 0.930 . S
C498 C494 1.387 1_655 S
C498 C499 1.369 1_655 S
C498 H508 0.948 . S
C499 C497 1.395 . S
C499 C498 1.369 1_455 S
C499 H509 0.930 1_455 S
C500 O478 1.264 1_554 S
C500 O479 1.254 . S
C501 Eu437 2.848 1_455 S
C501 O476 1.257 1_455 S
C501 O481 1.249 . S
C501 C494 1.492 . S
H502 C485 0.930 . S
H503 C486 0.930 . S
H504 C487 0.930 . S
H505 C488 0.930 . S
H506 C495 0.930 . S
H507 C497 0.930 . S
H508 C498 0.948 . S
H509 C499 0.930 1_655 S
Eu510 N541 2.657 . S
Eu510 N548 2.609 . S
Eu510 O554 2.558 . S
Eu510 O555 2.612 . S
Eu510 O557 2.339 . S
Eu510 O558 2.563 . S
Eu510 O559 2.419 . S
Eu510 O561 2.380 . S
Eu510 O562 2.432 . S
Eu510 C574 2.848 . S
C511 C514 1.429 . S
C511 C515 1.411 . S
C511 N518 1.377 . S
C512 C514 1.420 . S
C512 C516 1.423 . S
C512 C524 1.392 . S
C513 C515 1.420 . S
C513 C516 1.351 . S
C513 H536 0.931 . S
C514 C511 1.429 . S
C514 C512 1.420 . S
C514 N522 1.362 . S
C515 C511 1.411 . S
C515 C513 1.420 . S
C515 C520 1.395 . S
C516 C512 1.423 . S
C516 C513 1.351 . S
C516 H528 0.930 . S
C517 C519 1.400 . S
C517 C520 1.386 . S
C517 H529 0.930 . S
N518 C511 1.377 . S
N518 C519 1.321 . S
N518 Eu521 2.609 . S
C519 C517 1.400 . S
C519 N518 1.321 . S
C519 H526 0.930 . S
C520 C515 1.395 . S
C520 C517 1.386 . S
C520 H539 0.930 . S
Eu521 N518 2.609 . S
Eu521 N522 2.657 . S
Eu521 O555 2.380 1_556 S
Eu521 O556 2.427 1_556 S
Eu521 O560 2.558 . S
Eu521 O561 2.612 1_556 S
Eu521 O563 2.339 . S
Eu521 O564 2.563 . S
Eu521 O565 2.419 . S
Eu521 C585 2.848 . S
N522 C514 1.362 . S
N522 Eu521 2.657 . S
N522 C523 1.334 . S
C523 N522 1.334 . S
C523 C525 1.413 . S
C523 H530 0.929 . S
C524 C512 1.392 . S
C524 C525 1.367 . S
C524 H532 0.930 . S
C525 C523 1.413 . S
C525 C524 1.367 . S
C525 H527 0.930 . S
H526 C519 0.930 . S
H527 C525 0.930 . S
H528 C516 0.930 . S
H529 C517 0.930 . S
H530 C523 0.929 . S
H531 C545 0.930 . S
H532 C524 0.930 . S
H533 C551 0.930 . S
H534 C542 0.929 . S
H535 C549 0.930 . S
H536 C513 0.931 . S
H537 C543 0.930 . S
H538 C576 0.930 . S
H539 C520 0.930 . S
H540 C575 0.931 . S
N541 Eu510 2.657 . S
N541 C542 1.334 . S
N541 C546 1.362 . S
C542 H534 0.929 . S
C542 N541 1.334 . S
C542 C545 1.413 . S
C543 H537 0.930 . S
C543 C544 1.392 . S
C543 C545 1.367 . S
C544 C543 1.392 . S
C544 C546 1.420 . S
C544 C576 1.423 . S
C545 H531 0.930 . S
C545 C542 1.413 . S
C545 C543 1.367 . S
C546 N541 1.362 . S
C546 C544 1.420 . S
C546 C550 1.429 . S
H547 C552 0.930 . S
N548 Eu510 2.609 . S
N548 C550 1.377 . S
N548 C551 1.321 . S
C549 H535 0.930 . S
C549 C551 1.400 . S
C549 C552 1.386 . S
C550 C546 1.429 . S
C550 N548 1.377 . S
C550 C553 1.411 . S
C551 H533 0.930 . S
C551 N548 1.321 . S
C551 C549 1.400 . S
C552 H547 0.930 . S
C552 C549 1.386 . S
C552 C553 1.395 . S
C553 C550 1.411 . S
C553 C552 1.395 . S
C553 C575 1.420 . S
O554 Eu510 2.558 . S
O554 C574 1.257 . S
O555 Eu510 2.612 . S
O555 Eu521 2.380 1_554 S
O555 C566 1.276 . S
O556 Eu521 2.427 1_554 S
O556 C573 1.276 . S
O557 Eu510 2.339 . S
O557 C573 1.254 . S
O558 Eu510 2.563 . S
O558 C566 1.235 . S
O559 Eu510 2.419 . S
O559 C574 1.249 . S
O560 Eu521 2.558 . S
O560 C585 1.257 . S
O561 Eu510 2.380 . S
O561 Eu521 2.612 1_554 S
O561 C577 1.276 1_554 S
O562 Eu510 2.432 . S
O562 C584 1.264 . S
O563 Eu521 2.339 . S
O563 C584 1.254 1_556 S
O564 Eu521 2.563 . S
O564 C577 1.235 . S
O565 Eu521 2.419 . S
O565 C585 1.249 . S
C566 O555 1.276 . S
C566 O558 1.235 . S
C567 C569 1.393 . S
C567 C571 1.395 . S
C567 C574 1.492 . S
C568 C569 1.392 . S
C568 C570 1.386 . S
C569 C567 1.393 . S
C569 C568 1.392 . S
C569 H586 0.930 . S
C570 C568 1.386 . S
C570 C572 1.395 . S
C570 H587 0.930 . S
C571 C567 1.395 . S
C571 C572 1.379 . S
C571 H588 0.930 . S
C572 C570 1.395 . S
C572 C571 1.379 . S
C572 H589 0.930 . S
C573 O556 1.276 . S
C573 O557 1.254 . S
C574 Eu510 2.848 . S
C574 O554 1.257 . S
C574 O559 1.249 . S
C574 C567 1.492 . S
C575 H540 0.931 . S
C575 C553 1.420 . S
C575 C576 1.351 . S
C576 H538 0.930 . S
C576 C544 1.423 . S
C576 C575 1.351 . S
C577 O561 1.276 1_556 S
C577 O564 1.235 . S
C578 C579 1.393 . S
C578 C582 1.395 . S
C578 C585 1.492 . S
C579 C578 1.393 . S
C579 C580 1.392 . S
C579 H590 0.930 . S
C580 C579 1.392 . S
C580 C581 1.386 . S
C581 C580 1.386 . S
C581 C583 1.395 . S
C581 H591 0.930 . S
C582 C578 1.395 . S
C582 C583 1.379 . S
C582 H592 0.930 . S
C583 C581 1.395 . S
C583 C582 1.379 . S
C583 H593 0.930 . S
C584 O562 1.264 . S
C584 O563 1.254 1_554 S
C585 Eu521 2.848 . S
C585 O560 1.257 . S
C585 O565 1.249 . S
C585 C578 1.492 . S
H586 C569 0.930 . S
H587 C570 0.930 . S
H588 C571 0.930 . S
H589 C572 0.930 . S
H590 C579 0.930 . S
H591 C581 0.930 . S
H592 C582 0.930 . S
H593 C583 0.930 . S
Eu594 N625 2.657 . S
Eu594 N632 2.609 . S
Eu594 O638 2.558 . S
Eu594 O639 2.612 . S
Eu594 O641 2.339 . S
Eu594 O642 2.563 . S
Eu594 O643 2.419 . S
Eu594 O645 2.380 . S
Eu594 O646 2.432 . S
Eu594 C658 2.848 . S
C595 C598 1.429 . S
C595 C599 1.411 . S
C595 N602 1.377 . S
C596 C598 1.420 . S
C596 C600 1.423 . S
C596 C608 1.392 . S
C597 C599 1.420 . S
C597 C600 1.351 . S
C597 H620 0.931 . S
C598 C595 1.429 . S
C598 C596 1.420 . S
C598 N606 1.362 . S
C599 C595 1.411 . S
C599 C597 1.420 . S
C599 C604 1.395 . S
C600 C596 1.423 . S
C600 C597 1.351 . S
C600 H612 0.930 . S
C601 C603 1.400 . S
C601 C604 1.386 . S
C601 H613 0.930 . S
N602 C595 1.377 . S
N602 C603 1.321 . S
N602 Eu605 2.609 . S
C603 C601 1.400 . S
C603 N602 1.321 . S
C603 H610 0.930 . S
C604 C599 1.395 . S
C604 C601 1.386 . S
C604 H623 0.930 . S
Eu605 N602 2.609 . S
Eu605 N606 2.657 . S
Eu605 O639 2.380 . S
Eu605 O640 2.432 . S
Eu605 O644 2.558 . S
Eu605 O645 2.612 . S
Eu605 O647 2.339 . S
Eu605 O648 2.563 . S
Eu605 O649 2.419 . S
Eu605 C669 2.848 . S
N606 C598 1.362 . S
N606 Eu605 2.657 . S
N606 C607 1.334 . S
C607 N606 1.334 . S
C607 C609 1.413 . S
C607 H614 0.929 . S
C608 C596 1.392 . S
C608 C609 1.367 . S
C608 H616 0.930 . S
C609 C607 1.413 . S
C609 C608 1.367 . S
C609 H611 0.930 . S
H610 C603 0.930 . S
H611 C609 0.930 . S
H612 C600 0.930 . S
H613 C601 0.930 . S
H614 C607 0.929 . S
H615 C629 0.930 . S
H616 C608 0.930 . S
H617 C635 0.930 . S
H618 C626 0.929 . S
H619 C633 0.930 . S
H620 C597 0.931 . S
H621 C627 0.930 . S
H622 C660 0.930 . S
H623 C604 0.930 . S
H624 C659 0.931 . S
N625 Eu594 2.657 . S
N625 C626 1.334 . S
N625 C630 1.362 . S
C626 H618 0.929 . S
C626 N625 1.334 . S
C626 C629 1.413 . S
C627 H621 0.930 . S
C627 C628 1.392 . S
C627 C629 1.367 . S
C628 C627 1.392 . S
C628 C630 1.420 . S
C628 C660 1.423 . S
C629 H615 0.930 . S
C629 C626 1.413 . S
C629 C627 1.367 . S
C630 N625 1.362 . S
C630 C628 1.420 . S
C630 C634 1.429 . S
H631 C636 0.930 . S
N632 Eu594 2.609 . S
N632 C634 1.377 . S
N632 C635 1.321 . S
C633 H619 0.930 . S
C633 C635 1.400 . S
C633 C636 1.386 . S
C634 C630 1.429 . S
C634 N632 1.377 . S
C634 C637 1.411 . S
C635 H617 0.930 . S
C635 N632 1.321 . S
C635 C633 1.400 . S
C636 H631 0.930 . S
C636 C633 1.386 . S
C636 C637 1.395 . S
C637 C634 1.411 . S
C637 C636 1.395 . S
C637 C659 1.420 . S
O638 Eu594 2.558 . S
O638 C658 1.257 . S
O639 Eu594 2.612 . S
O639 Eu605 2.380 . S
O639 C650 1.276 . S
O640 Eu605 2.432 . S
O640 C657 1.264 . S
O641 Eu594 2.339 . S
O641 C657 1.254 . S
O642 Eu594 2.563 . S
O642 C650 1.235 . S
O643 Eu594 2.419 . S
O643 C658 1.249 . S
O644 Eu605 2.558 . S
O644 C669 1.257 . S
O645 Eu594 2.380 . S
O645 Eu605 2.612 . S
O645 C661 1.276 . S
O646 Eu594 2.432 . S
O646 C668 1.264 . S
O647 Eu605 2.339 . S
O647 C668 1.254 . S
O648 Eu605 2.563 . S
O648 C661 1.235 . S
O649 Eu605 2.419 . S
O649 C669 1.249 . S
C650 O639 1.276 . S
C650 O642 1.235 . S
C651 C653 1.393 . S
C651 C655 1.395 . S
C651 C658 1.492 . S
C652 C653 1.392 . S
C652 C654 1.386 . S
C653 C651 1.393 . S
C653 C652 1.392 . S
C653 H670 0.930 . S
C654 C652 1.386 . S
C654 C656 1.395 . S
C654 H671 0.930 . S
C655 C651 1.395 . S
C655 C656 1.379 . S
C655 H672 0.930 . S
C656 C654 1.395 . S
C656 C655 1.379 . S
C656 H673 0.930 . S
C657 O640 1.264 . S
C657 O641 1.254 . S
C658 Eu594 2.848 . S
C658 O638 1.257 . S
C658 O643 1.249 . S
C658 C651 1.492 . S
C659 H624 0.931 . S
C659 C637 1.420 . S
C659 C660 1.351 . S
C660 H622 0.930 . S
C660 C628 1.423 . S
C660 C659 1.351 . S
C661 O645 1.276 . S
C661 O648 1.235 . S
C662 C663 1.393 . S
C662 C666 1.395 . S
C662 C669 1.492 . S
C663 C662 1.393 . S
C663 C664 1.392 . S
C663 H674 0.930 . S
C664 C663 1.392 . S
C664 C665 1.386 . S
C665 C664 1.386 . S
C665 C667 1.395 . S
C665 H675 0.930 . S
C666 C662 1.395 . S
C666 C667 1.379 . S
C666 H676 0.930 . S
C667 C665 1.395 . S
C667 C666 1.379 . S
C667 H677 0.930 . S
C668 O646 1.264 . S
C668 O647 1.254 . S
C669 Eu605 2.848 . S
C669 O644 1.257 . S
C669 O649 1.249 . S
C669 C662 1.492 . S
H670 C653 0.930 . S
H671 C654 0.930 . S
H672 C655 0.930 . S
H673 C656 0.930 . S
H674 C663 0.930 . S
H675 C665 0.930 . S
H676 C666 0.930 . S
H677 C667 0.930 . S
Eu678 N709 2.657 . S
Eu678 N716 2.609 . S
Eu678 O722 2.558 . S
Eu678 O723 2.612 . S
Eu678 O725 2.339 . S
Eu678 O726 2.563 . S
Eu678 O727 2.419 . S
Eu678 O729 2.380 . S
Eu678 O730 2.432 . S
Eu678 C742 2.848 . S
C679 C682 1.429 . S
C679 C683 1.411 . S
C679 N686 1.377 . S
C680 C682 1.420 . S
C680 C684 1.423 . S
C680 C692 1.392 . S
C681 C683 1.420 . S
C681 C684 1.351 . S
C681 H704 0.931 . S
C682 C679 1.429 . S
C682 C680 1.420 . S
C682 N690 1.362 . S
C683 C679 1.411 . S
C683 C681 1.420 . S
C683 C688 1.395 . S
C684 C680 1.423 . S
C684 C681 1.351 . S
C684 H696 0.930 . S
C685 C687 1.400 . S
C685 C688 1.386 . S
C685 H697 0.930 . S
N686 C679 1.377 . S
N686 C687 1.321 . S
N686 Eu689 2.609 . S
C687 C685 1.400 . S
C687 N686 1.321 . S
C687 H694 0.930 . S
C688 C683 1.395 . S
C688 C685 1.386 . S
C688 H707 0.930 . S
Eu689 N686 2.609 . S
Eu689 N690 2.657 . S
Eu689 O723 2.380 . S
Eu689 O724 2.432 . S
Eu689 O728 2.558 . S
Eu689 O729 2.612 . S
Eu689 O731 2.339 . S
Eu689 O732 2.563 . S
Eu689 O733 2.419 . S
Eu689 C753 2.848 . S
N690 C682 1.362 . S
N690 Eu689 2.657 . S
N690 C691 1.334 . S
C691 N690 1.334 . S
C691 C693 1.413 . S
C691 H698 0.929 . S
C692 C680 1.392 . S
C692 C693 1.367 . S
C692 H700 0.930 . S
C693 C691 1.413 . S
C693 C692 1.367 . S
C693 H695 0.930 . S
H694 C687 0.930 . S
H695 C693 0.930 . S
H696 C684 0.930 . S
H697 C685 0.930 . S
H698 C691 0.929 . S
H699 C713 0.930 . S
H700 C692 0.930 . S
H701 C719 0.930 . S
H702 C710 0.929 . S
H703 C717 0.930 . S
H704 C681 0.931 . S
H705 C711 0.930 . S
H706 C744 0.930 . S
H707 C688 0.930 . S
H708 C743 0.931 . S
N709 Eu678 2.657 . S
N709 C710 1.334 . S
N709 C714 1.362 . S
C710 H702 0.929 . S
C710 N709 1.334 . S
C710 C713 1.413 . S
C711 H705 0.930 . S
C711 C712 1.392 . S
C711 C713 1.367 . S
C712 C711 1.392 . S
C712 C714 1.420 . S
C712 C744 1.423 . S
C713 H699 0.930 . S
C713 C710 1.413 . S
C713 C711 1.367 . S
C714 N709 1.362 . S
C714 C712 1.420 . S
C714 C718 1.429 . S
H715 C720 0.930 . S
N716 Eu678 2.609 . S
N716 C718 1.377 . S
N716 C719 1.321 . S
C717 H703 0.930 . S
C717 C719 1.400 . S
C717 C720 1.386 . S
C718 C714 1.429 . S
C718 N716 1.377 . S
C718 C721 1.411 . S
C719 H701 0.930 . S
C719 N716 1.321 . S
C719 C717 1.400 . S
C720 H715 0.930 . S
C720 C717 1.386 . S
C720 C721 1.395 . S
C721 C718 1.411 . S
C721 C720 1.395 . S
C721 C743 1.420 . S
O722 Eu678 2.558 . S
O722 C742 1.257 . S
O723 Eu678 2.612 . S
O723 Eu689 2.380 . S
O723 C734 1.276 . S
O724 Eu689 2.432 . S
O724 C741 1.264 . S
O725 Eu678 2.339 . S
O725 C741 1.254 . S
O726 Eu678 2.563 . S
O726 C734 1.235 . S
O727 Eu678 2.419 . S
O727 C742 1.249 . S
O728 Eu689 2.558 . S
O728 C753 1.257 . S
O729 Eu678 2.380 . S
O729 Eu689 2.612 . S
O729 C745 1.276 . S
O730 Eu678 2.432 . S
O730 C752 1.264 . S
O731 Eu689 2.339 . S
O731 C752 1.254 . S
O732 Eu689 2.563 . S
O732 C745 1.235 . S
O733 Eu689 2.419 . S
O733 C753 1.249 . S
C734 O723 1.276 . S
C734 O726 1.235 . S
C735 C737 1.393 . S
C735 C739 1.395 . S
C735 C742 1.492 . S
C736 C737 1.392 . S
C736 C738 1.386 . S
C737 C735 1.393 . S
C737 C736 1.392 . S
C737 H754 0.930 . S
C738 C736 1.386 . S
C738 C740 1.395 . S
C738 H755 0.930 . S
C739 C735 1.395 . S
C739 C740 1.379 . S
C739 H756 0.930 . S
C740 C738 1.395 . S
C740 C739 1.379 . S
C740 H757 0.930 . S
C741 O724 1.264 . S
C741 O725 1.254 . S
C742 Eu678 2.848 . S
C742 O722 1.257 . S
C742 O727 1.249 . S
C742 C735 1.492 . S
C743 H708 0.931 . S
C743 C721 1.420 . S
C743 C744 1.351 . S
C744 H706 0.930 . S
C744 C712 1.423 . S
C744 C743 1.351 . S
C745 O729 1.276 . S
C745 O732 1.235 . S
C746 C747 1.393 . S
C746 C750 1.395 . S
C746 C753 1.492 . S
C747 C746 1.393 . S
C747 C748 1.392 . S
C747 H758 0.930 . S
C748 C747 1.392 . S
C748 C749 1.386 . S
C749 C748 1.386 . S
C749 C751 1.395 . S
C749 H759 0.930 . S
C750 C746 1.395 . S
C750 C751 1.379 . S
C750 H760 0.930 . S
C751 C749 1.395 . S
C751 C750 1.379 . S
C751 H761 0.930 . S
C752 O730 1.264 . S
C752 O731 1.254 . S
C753 Eu689 2.848 . S
C753 O728 1.257 . S
C753 O733 1.249 . S
C753 C746 1.492 . S
H754 C737 0.930 . S
H755 C738 0.930 . S
H756 C739 0.930 . S
H757 C740 0.930 . S
H758 C747 0.930 . S
H759 C749 0.930 . S
H760 C750 0.930 . S
H761 C751 0.930 . S
Eu762 N793 2.657 . S
Eu762 N800 2.609 . S
Eu762 O806 2.558 . S
Eu762 O807 2.612 . S
Eu762 O809 2.339 . S
Eu762 O810 2.563 . S
Eu762 O811 2.419 . S
Eu762 O813 2.380 . S
Eu762 O814 2.432 . S
Eu762 C826 2.848 . S
C763 C766 1.429 . S
C763 C767 1.411 . S
C763 N770 1.377 . S
C764 C766 1.420 . S
C764 C768 1.423 . S
C764 C776 1.392 . S
C765 C767 1.420 . S
C765 C768 1.351 . S
C765 H788 0.931 . S
C766 C763 1.429 . S
C766 C764 1.420 . S
C766 N774 1.362 . S
C767 C763 1.411 . S
C767 C765 1.420 . S
C767 C772 1.395 . S
C768 C764 1.423 . S
C768 C765 1.351 . S
C768 H780 0.930 . S
C769 C771 1.400 . S
C769 C772 1.386 . S
C769 H781 0.930 . S
N770 C763 1.377 . S
N770 C771 1.321 . S
N770 Eu773 2.609 . S
C771 C769 1.400 . S
C771 N770 1.321 . S
C771 H778 0.930 . S
C772 C767 1.395 . S
C772 C769 1.386 . S
C772 H791 0.930 . S
Eu773 N770 2.609 . S
Eu773 N774 2.657 . S
Eu773 O807 2.380 . S
Eu773 O808 2.432 . S
Eu773 O812 2.558 . S
Eu773 O813 2.612 . S
Eu773 O815 2.339 . S
Eu773 O816 2.563 . S
Eu773 O817 2.419 . S
Eu773 C837 2.848 . S
N774 C766 1.362 . S
N774 Eu773 2.657 . S
N774 C775 1.334 . S
C775 N774 1.334 . S
C775 C777 1.413 . S
C775 H782 0.929 . S
C776 C764 1.392 . S
C776 C777 1.367 . S
C776 H784 0.930 . S
C777 C775 1.413 . S
C777 C776 1.367 . S
C777 H779 0.930 . S
H778 C771 0.930 . S
H779 C777 0.930 . S
H780 C768 0.930 . S
H781 C769 0.930 . S
H782 C775 0.929 . S
H783 C797 0.930 . S
H784 C776 0.930 . S
H785 C803 0.930 . S
H786 C794 0.929 . S
H787 C801 0.930 . S
H788 C765 0.931 . S
H789 C795 0.930 . S
H790 C828 0.930 . S
H791 C772 0.930 . S
H792 C827 0.931 . S
N793 Eu762 2.657 . S
N793 C794 1.334 . S
N793 C798 1.362 . S
C794 H786 0.929 . S
C794 N793 1.334 . S
C794 C797 1.413 . S
C795 H789 0.930 . S
C795 C796 1.392 . S
C795 C797 1.367 . S
C796 C795 1.392 . S
C796 C798 1.420 . S
C796 C828 1.423 . S
C797 H783 0.930 . S
C797 C794 1.413 . S
C797 C795 1.367 . S
C798 N793 1.362 . S
C798 C796 1.420 . S
C798 C802 1.429 . S
H799 C804 0.930 . S
N800 Eu762 2.609 . S
N800 C802 1.377 . S
N800 C803 1.321 . S
C801 H787 0.930 . S
C801 C803 1.400 . S
C801 C804 1.386 . S
C802 C798 1.429 . S
C802 N800 1.377 . S
C802 C805 1.411 . S
C803 H785 0.930 . S
C803 N800 1.321 . S
C803 C801 1.400 . S
C804 H799 0.930 . S
C804 C801 1.386 . S
C804 C805 1.395 . S
C805 C802 1.411 . S
C805 C804 1.395 . S
C805 C827 1.420 . S
O806 Eu762 2.558 . S
O806 C826 1.257 . S
O807 Eu762 2.612 . S
O807 Eu773 2.380 . S
O807 C818 1.276 . S
O808 Eu773 2.432 . S
O808 C825 1.264 . S
O809 Eu762 2.339 . S
O809 C825 1.254 . S
O810 Eu762 2.563 . S
O810 C818 1.235 . S
O811 Eu762 2.419 . S
O811 C826 1.249 . S
O812 Eu773 2.558 . S
O812 C837 1.257 . S
O813 Eu762 2.380 . S
O813 Eu773 2.612 . S
O813 C829 1.276 . S
O814 Eu762 2.432 . S
O814 C836 1.264 . S
O815 Eu773 2.339 . S
O815 C836 1.254 . S
O816 Eu773 2.563 . S
O816 C829 1.235 . S
O817 Eu773 2.419 . S
O817 C837 1.249 . S
C818 O807 1.276 . S
C818 O810 1.235 . S
C819 C821 1.393 . S
C819 C823 1.395 . S
C819 C826 1.492 . S
C820 C821 1.392 . S
C820 C822 1.386 . S
C821 C819 1.393 . S
C821 C820 1.392 . S
C821 H838 0.930 . S
C822 C820 1.386 . S
C822 C824 1.395 . S
C822 H839 0.930 . S
C823 C819 1.395 . S
C823 C824 1.379 . S
C823 H840 0.930 . S
C824 C822 1.395 . S
C824 C823 1.379 . S
C824 H841 0.930 . S
C825 O808 1.264 . S
C825 O809 1.254 . S
C826 Eu762 2.848 . S
C826 O806 1.257 . S
C826 O811 1.249 . S
C826 C819 1.492 . S
C827 H792 0.931 . S
C827 C805 1.420 . S
C827 C828 1.351 . S
C828 H790 0.930 . S
C828 C796 1.423 . S
C828 C827 1.351 . S
C829 O813 1.276 . S
C829 O816 1.235 . S
C830 C831 1.393 . S
C830 C834 1.395 . S
C830 C837 1.492 . S
C831 C830 1.393 . S
C831 C832 1.392 . S
C831 H842 0.930 . S
C832 C831 1.392 . S
C832 C833 1.386 . S
C833 C832 1.386 . S
C833 C835 1.395 . S
C833 H843 0.930 . S
C834 C830 1.395 . S
C834 C835 1.379 . S
C834 H844 0.930 . S
C835 C833 1.395 . S
C835 C834 1.379 . S
C835 H845 0.930 . S
C836 O814 1.264 . S
C836 O815 1.254 . S
C837 Eu773 2.848 . S
C837 O812 1.257 . S
C837 O817 1.249 . S
C837 C830 1.492 . S
H838 C821 0.930 . S
H839 C822 0.930 . S
H840 C823 0.930 . S
H841 C824 0.930 . S
H842 C831 0.930 . S
H843 C833 0.930 . S
H844 C834 0.930 . S
H845 C835 0.930 . S
Eu846 N877 2.657 . S
Eu846 N884 2.609 . S
Eu846 O890 2.558 . S
Eu846 O891 2.612 . S
Eu846 O893 2.339 . S
Eu846 O894 2.563 . S
Eu846 O895 2.419 . S
Eu846 O897 2.380 . S
Eu846 O898 2.432 . S
Eu846 C910 2.848 . S
C847 C850 1.429 . S
C847 C851 1.411 . S
C847 N854 1.377 . S
C848 C850 1.420 . S
C848 C852 1.423 . S
C848 C860 1.392 . S
C849 C851 1.420 . S
C849 C852 1.351 . S
C849 H872 0.931 . S
C850 C847 1.429 . S
C850 C848 1.420 . S
C850 N858 1.362 . S
C851 C847 1.411 . S
C851 C849 1.420 . S
C851 C856 1.395 . S
C852 C848 1.423 . S
C852 C849 1.351 . S
C852 H864 0.930 . S
C853 C855 1.400 . S
C853 C856 1.386 . S
C853 H865 0.930 . S
N854 C847 1.377 . S
N854 C855 1.321 . S
N854 Eu857 2.609 . S
C855 C853 1.400 . S
C855 N854 1.321 . S
C855 H862 0.930 . S
C856 C851 1.395 . S
C856 C853 1.386 . S
C856 H875 0.930 . S
Eu857 N854 2.609 . S
Eu857 N858 2.657 . S
Eu857 O891 2.380 . S
Eu857 O892 2.432 . S
Eu857 O896 2.558 . S
Eu857 O897 2.612 . S
Eu857 O899 2.339 . S
Eu857 O900 2.563 . S
Eu857 O901 2.419 . S
Eu857 C921 2.848 . S
N858 C850 1.362 . S
N858 Eu857 2.657 . S
N858 C859 1.334 . S
C859 N858 1.334 . S
C859 C861 1.413 . S
C859 H866 0.929 . S
C860 C848 1.392 . S
C860 C861 1.367 . S
C860 H868 0.930 . S
C861 C859 1.413 . S
C861 C860 1.367 . S
C861 H863 0.930 . S
H862 C855 0.930 . S
H863 C861 0.930 . S
H864 C852 0.930 . S
H865 C853 0.930 . S
H866 C859 0.929 . S
H867 C881 0.930 . S
H868 C860 0.930 . S
H869 C887 0.930 . S
H870 C878 0.929 . S
H871 C885 0.930 . S
H872 C849 0.931 . S
H873 C879 0.930 . S
H874 C912 0.930 . S
H875 C856 0.930 . S
H876 C911 0.931 . S
N877 Eu846 2.657 . S
N877 C878 1.334 . S
N877 C882 1.362 . S
C878 H870 0.929 . S
C878 N877 1.334 . S
C878 C881 1.413 . S
C879 H873 0.930 . S
C879 C880 1.392 . S
C879 C881 1.367 . S
C880 C879 1.392 . S
C880 C882 1.420 . S
C880 C912 1.423 . S
C881 H867 0.930 . S
C881 C878 1.413 . S
C881 C879 1.367 . S
C882 N877 1.362 . S
C882 C880 1.420 . S
C882 C886 1.429 . S
H883 C888 0.930 . S
N884 Eu846 2.609 . S
N884 C886 1.377 . S
N884 C887 1.321 . S
C885 H871 0.930 . S
C885 C887 1.400 . S
C885 C888 1.386 . S
C886 C882 1.429 . S
C886 N884 1.377 . S
C886 C889 1.411 . S
C887 H869 0.930 . S
C887 N884 1.321 . S
C887 C885 1.400 . S
C888 H883 0.930 . S
C888 C885 1.386 . S
C888 C889 1.395 . S
C889 C886 1.411 . S
C889 C888 1.395 . S
C889 C911 1.420 . S
O890 Eu846 2.558 . S
O890 C910 1.257 . S
O891 Eu846 2.612 . S
O891 Eu857 2.380 . S
O891 C902 1.276 . S
O892 Eu857 2.432 . S
O892 C909 1.264 . S
O893 Eu846 2.339 . S
O893 C909 1.254 . S
O894 Eu846 2.563 . S
O894 C902 1.235 . S
O895 Eu846 2.419 . S
O895 C910 1.249 . S
O896 Eu857 2.558 . S
O896 C921 1.257 . S
O897 Eu846 2.380 . S
O897 Eu857 2.612 . S
O897 C913 1.276 . S
O898 Eu846 2.432 . S
O898 C920 1.264 . S
O899 Eu857 2.339 . S
O899 C920 1.254 . S
O900 Eu857 2.563 . S
O900 C913 1.235 . S
O901 Eu857 2.419 . S
O901 C921 1.249 . S
C902 O891 1.276 . S
C902 O894 1.235 . S
C903 C905 1.393 . S
C903 C907 1.395 . S
C903 C910 1.492 . S
C904 C905 1.392 . S
C904 C906 1.386 . S
C905 C903 1.393 . S
C905 C904 1.392 . S
C905 H922 0.930 . S
C906 C904 1.386 . S
C906 C908 1.395 . S
C906 H923 0.930 . S
C907 C903 1.395 . S
C907 C908 1.379 . S
C907 H924 0.930 . S
C908 C906 1.395 . S
C908 C907 1.379 . S
C908 H925 0.930 . S
C909 O892 1.264 . S
C909 O893 1.254 . S
C910 Eu846 2.848 . S
C910 O890 1.257 . S
C910 O895 1.249 . S
C910 C903 1.492 . S
C911 H876 0.931 . S
C911 C889 1.420 . S
C911 C912 1.351 . S
C912 H874 0.930 . S
C912 C880 1.423 . S
C912 C911 1.351 . S
C913 O897 1.276 . S
C913 O900 1.235 . S
C914 C915 1.393 . S
C914 C918 1.395 . S
C914 C921 1.492 . S
C915 C914 1.393 . S
C915 C916 1.392 . S
C915 H926 0.930 . S
C916 C915 1.392 . S
C916 C917 1.386 . S
C917 C916 1.386 . S
C917 C919 1.395 . S
C917 H927 0.930 . S
C918 C914 1.395 . S
C918 C919 1.379 . S
C918 H928 0.930 . S
C919 C917 1.395 . S
C919 C918 1.379 . S
C919 H929 0.930 . S
C920 O898 1.264 . S
C920 O899 1.254 . S
C921 Eu857 2.848 . S
C921 O896 1.257 . S
C921 O901 1.249 . S
C921 C914 1.492 . S
H922 C905 0.930 . S
H923 C906 0.930 . S
H924 C907 0.930 . S
H925 C908 0.930 . S
H926 C915 0.930 . S
H927 C917 0.930 . S
H928 C918 0.930 . S
H929 C919 0.930 . S
Eu930 N961 2.657 . S
Eu930 N968 2.609 . S
Eu930 O974 2.558 . S
Eu930 O975 2.612 . S
Eu930 O977 2.339 . S
Eu930 O978 2.563 . S
Eu930 O979 2.419 . S
Eu930 O981 2.380 . S
Eu930 O982 2.432 . S
Eu930 C994 2.848 . S
C931 C934 1.429 . S
C931 C935 1.411 . S
C931 N938 1.377 . S
C932 C934 1.420 . S
C932 C936 1.423 . S
C932 C944 1.392 . S
C933 C935 1.420 . S
C933 C936 1.351 . S
C933 H956 0.931 . S
C934 C931 1.429 . S
C934 C932 1.420 . S
C934 N942 1.362 . S
C935 C931 1.411 . S
C935 C933 1.420 . S
C935 C940 1.395 . S
C936 C932 1.423 . S
C936 C933 1.351 . S
C936 H948 0.930 . S
C937 C939 1.400 . S
C937 C940 1.386 . S
C937 H949 0.930 . S
N938 C931 1.377 . S
N938 C939 1.321 . S
N938 Eu941 2.609 . S
C939 C937 1.400 . S
C939 N938 1.321 . S
C939 H946 0.930 . S
C940 C935 1.395 . S
C940 C937 1.386 . S
C940 H959 0.930 . S
Eu941 N938 2.609 . S
Eu941 N942 2.657 . S
Eu941 O975 2.380 . S
Eu941 O976 2.432 . S
Eu941 O980 2.558 . S
Eu941 O981 2.612 . S
Eu941 O983 2.339 . S
Eu941 O984 2.563 . S
Eu941 O985 2.419 . S
Eu941 C1005 2.848 . S
N942 C934 1.362 . S
N942 Eu941 2.657 . S
N942 C943 1.334 . S
C943 N942 1.334 . S
C943 C945 1.413 . S
C943 H950 0.929 . S
C944 C932 1.392 . S
C944 C945 1.367 . S
C944 H952 0.930 . S
C945 C943 1.413 . S
C945 C944 1.367 . S
C945 H947 0.930 . S
H946 C939 0.930 . S
H947 C945 0.930 . S
H948 C936 0.930 . S
H949 C937 0.930 . S
H950 C943 0.929 . S
H951 C965 0.930 . S
H952 C944 0.930 . S
H953 C971 0.930 . S
H954 C962 0.929 . S
H955 C969 0.930 . S
H956 C933 0.931 . S
H957 C963 0.930 . S
H958 C996 0.930 . S
H959 C940 0.930 . S
H960 C995 0.931 . S
N961 Eu930 2.657 . S
N961 C962 1.334 . S
N961 C966 1.362 . S
C962 H954 0.929 . S
C962 N961 1.334 . S
C962 C965 1.413 . S
C963 H957 0.930 . S
C963 C964 1.392 . S
C963 C965 1.367 . S
C964 C963 1.392 . S
C964 C966 1.420 . S
C964 C996 1.423 . S
C965 H951 0.930 . S
C965 C962 1.413 . S
C965 C963 1.367 . S
C966 N961 1.362 . S
C966 C964 1.420 . S
C966 C970 1.429 . S
H967 C972 0.930 . S
N968 Eu930 2.609 . S
N968 C970 1.377 . S
N968 C971 1.321 . S
C969 H955 0.930 . S
C969 C971 1.400 . S
C969 C972 1.386 . S
C970 C966 1.429 . S
C970 N968 1.377 . S
C970 C973 1.411 . S
C971 H953 0.930 . S
C971 N968 1.321 . S
C971 C969 1.400 . S
C972 H967 0.930 . S
C972 C969 1.386 . S
C972 C973 1.395 . S
C973 C970 1.411 . S
C973 C972 1.395 . S
C973 C995 1.420 . S
O974 Eu930 2.558 . S
O974 C994 1.257 . S
O975 Eu930 2.612 . S
O975 Eu941 2.380 . S
O975 C986 1.276 . S
O976 Eu941 2.432 . S
O976 C993 1.264 . S
O977 Eu930 2.339 . S
O977 C993 1.254 . S
O978 Eu930 2.563 . S
O978 C986 1.235 . S
O979 Eu930 2.419 . S
O979 C994 1.249 . S
O980 Eu941 2.558 . S
O980 C1005 1.257 . S
O981 Eu930 2.380 . S
O981 Eu941 2.612 . S
O981 C997 1.276 . S
O982 Eu930 2.432 . S
O982 C1004 1.264 . S
O983 Eu941 2.339 . S
O983 C1004 1.254 . S
O984 Eu941 2.563 . S
O984 C997 1.235 . S
O985 Eu941 2.419 . S
O985 C1005 1.249 . S
C986 O975 1.276 . S
C986 O978 1.235 . S
C987 C989 1.393 . S
C987 C991 1.395 . S
C987 C994 1.492 . S
C988 C989 1.392 . S
C988 C990 1.386 . S
C989 C987 1.393 . S
C989 C988 1.392 . S
C989 H1006 0.930 . S
C990 C988 1.386 . S
C990 C992 1.395 . S
C990 H1007 0.930 . S
C991 C987 1.395 . S
C991 C992 1.379 . S
C991 H1008 0.930 . S
C992 C990 1.395 . S
C992 C991 1.379 . S
C992 H1009 0.930 . S
C993 O976 1.264 . S
C993 O977 1.254 . S
C994 Eu930 2.848 . S
C994 O974 1.257 . S
C994 O979 1.249 . S
C994 C987 1.492 . S
C995 H960 0.931 . S
C995 C973 1.420 . S
C995 C996 1.351 . S
C996 H958 0.930 . S
C996 C964 1.423 . S
C996 C995 1.351 . S
C997 O981 1.276 . S
C997 O984 1.235 . S
C998 C999 1.393 . S
C998 C1002 1.395 . S
C998 C1005 1.492 . S
C999 C998 1.393 . S
C999 C1000 1.392 . S
C999 H1010 0.930 . S
C1000 C999 1.392 . S
C1000 C1001 1.386 . S
C1001 C1000 1.386 . S
C1001 C1003 1.395 . S
C1001 H1011 0.930 . S
C1002 C998 1.395 . S
C1002 C1003 1.379 . S
C1002 H1012 0.930 . S
C1003 C1001 1.395 . S
C1003 C1002 1.379 . S
C1003 H1013 0.930 . S
C1004 O982 1.264 . S
C1004 O983 1.254 . S
C1005 Eu941 2.848 . S
C1005 O980 1.257 . S
C1005 O985 1.249 . S
C1005 C998 1.492 . S
H1006 C989 0.930 . S
H1007 C990 0.930 . S
H1008 C991 0.930 . S
H1009 C992 0.930 . S
H1010 C999 0.930 . S
H1011 C1001 0.930 . S
H1012 C1002 0.930 . S
H1013 C1003 0.930 . S
Eu1014 N1045 2.657 . S
Eu1014 N1052 2.609 . S
Eu1014 O1058 2.558 . S
Eu1014 O1059 2.612 . S
Eu1014 O1061 2.339 . S
Eu1014 O1062 2.563 . S
Eu1014 O1063 2.419 . S
Eu1014 O1065 2.380 . S
Eu1014 O1066 2.432 . S
Eu1014 C1078 2.848 . S
C1015 C1018 1.429 . S
C1015 C1019 1.411 . S
C1015 N1022 1.377 . S
C1016 C1018 1.420 . S
C1016 C1020 1.423 . S
C1016 C1028 1.392 . S
C1017 C1019 1.420 . S
C1017 C1020 1.351 . S
C1017 H1040 0.931 . S
C1018 C1015 1.429 . S
C1018 C1016 1.420 . S
C1018 N1026 1.362 . S
C1019 C1015 1.411 . S
C1019 C1017 1.420 . S
C1019 C1024 1.395 . S
C1020 C1016 1.423 . S
C1020 C1017 1.351 . S
C1020 H1032 0.930 . S
C1021 C1023 1.400 . S
C1021 C1024 1.386 . S
C1021 H1033 0.930 . S
N1022 C1015 1.377 . S
N1022 C1023 1.321 . S
N1022 Eu1025 2.609 . S
C1023 C1021 1.400 . S
C1023 N1022 1.321 . S
C1023 H1030 0.930 . S
C1024 C1019 1.395 . S
C1024 C1021 1.386 . S
C1024 H1043 0.930 . S
Eu1025 N1022 2.609 . S
Eu1025 N1026 2.657 . S
Eu1025 O1059 2.380 . S
Eu1025 O1060 2.432 . S
Eu1025 O1064 2.558 . S
Eu1025 O1065 2.612 . S
Eu1025 O1067 2.339 . S
Eu1025 O1068 2.563 . S
Eu1025 O1069 2.419 . S
Eu1025 C1089 2.848 . S
N1026 C1018 1.362 . S
N1026 Eu1025 2.657 . S
N1026 C1027 1.334 . S
C1027 N1026 1.334 . S
C1027 C1029 1.413 . S
C1027 H1034 0.929 . S
C1028 C1016 1.392 . S
C1028 C1029 1.367 . S
C1028 H1036 0.930 . S
C1029 C1027 1.413 . S
C1029 C1028 1.367 . S
C1029 H1031 0.930 . S
H1030 C1023 0.930 . S
H1031 C1029 0.930 . S
H1032 C1020 0.930 . S
H1033 C1021 0.930 . S
H1034 C1027 0.929 . S
H1035 C1049 0.930 . S
H1036 C1028 0.930 . S
H1037 C1055 0.930 . S
H1038 C1046 0.929 . S
H1039 C1053 0.930 . S
H1040 C1017 0.931 . S
H1041 C1047 0.930 . S
H1042 C1080 0.930 . S
H1043 C1024 0.930 . S
H1044 C1079 0.931 . S
N1045 Eu1014 2.657 . S
N1045 C1046 1.334 . S
N1045 C1050 1.362 . S
C1046 H1038 0.929 . S
C1046 N1045 1.334 . S
C1046 C1049 1.413 . S
C1047 H1041 0.930 . S
C1047 C1048 1.392 . S
C1047 C1049 1.367 . S
C1048 C1047 1.392 . S
C1048 C1050 1.420 . S
C1048 C1080 1.423 . S
C1049 H1035 0.930 . S
C1049 C1046 1.413 . S
C1049 C1047 1.367 . S
C1050 N1045 1.362 . S
C1050 C1048 1.420 . S
C1050 C1054 1.429 . S
H1051 C1056 0.930 . S
N1052 Eu1014 2.609 . S
N1052 C1054 1.377 . S
N1052 C1055 1.321 . S
C1053 H1039 0.930 . S
C1053 C1055 1.400 . S
C1053 C1056 1.386 . S
C1054 C1050 1.429 . S
C1054 N1052 1.377 . S
C1054 C1057 1.411 . S
C1055 H1037 0.930 . S
C1055 N1052 1.321 . S
C1055 C1053 1.400 . S
C1056 H1051 0.930 . S
C1056 C1053 1.386 . S
C1056 C1057 1.395 . S
C1057 C1054 1.411 . S
C1057 C1056 1.395 . S
C1057 C1079 1.420 . S
O1058 Eu1014 2.558 . S
O1058 C1078 1.257 . S
O1059 Eu1014 2.612 . S
O1059 Eu1025 2.380 . S
O1059 C1070 1.276 . S
O1060 Eu1025 2.432 . S
O1060 C1077 1.264 . S
O1061 Eu1014 2.339 . S
O1061 C1077 1.254 . S
O1062 Eu1014 2.563 . S
O1062 C1070 1.235 . S
O1063 Eu1014 2.419 . S
O1063 C1078 1.249 . S
O1064 Eu1025 2.558 . S
O1064 C1089 1.257 . S
O1065 Eu1014 2.380 . S
O1065 Eu1025 2.612 . S
O1065 C1081 1.276 . S
O1066 Eu1014 2.432 . S
O1066 C1088 1.264 . S
O1067 Eu1025 2.339 . S
O1067 C1088 1.254 . S
O1068 Eu1025 2.563 . S
O1068 C1081 1.235 . S
O1069 Eu1025 2.419 . S
O1069 C1089 1.249 . S
C1070 O1059 1.276 . S
C1070 O1062 1.235 . S
C1071 C1073 1.393 . S
C1071 C1075 1.395 . S
C1071 C1078 1.492 . S
C1072 C1073 1.392 . S
C1072 C1074 1.386 . S
C1073 C1071 1.393 . S
C1073 C1072 1.392 . S
C1073 H1090 0.930 . S
C1074 C1072 1.386 . S
C1074 C1076 1.395 . S
C1074 H1091 0.930 . S
C1075 C1071 1.395 . S
C1075 C1076 1.379 . S
C1075 H1092 0.930 . S
C1076 C1074 1.395 . S
C1076 C1075 1.379 . S
C1076 H1093 0.930 . S
C1077 O1060 1.264 . S
C1077 O1061 1.254 . S
C1078 Eu1014 2.848 . S
C1078 O1058 1.257 . S
C1078 O1063 1.249 . S
C1078 C1071 1.492 . S
C1079 H1044 0.931 . S
C1079 C1057 1.420 . S
C1079 C1080 1.351 . S
C1080 H1042 0.930 . S
C1080 C1048 1.423 . S
C1080 C1079 1.351 . S
C1081 O1065 1.276 . S
C1081 O1068 1.235 . S
C1082 C1083 1.393 . S
C1082 C1086 1.395 . S
C1082 C1089 1.492 . S
C1083 C1082 1.393 . S
C1083 C1084 1.392 . S
C1083 H1094 0.930 . S
C1084 C1083 1.392 . S
C1084 C1085 1.386 . S
C1085 C1084 1.386 . S
C1085 C1087 1.395 . S
C1085 H1095 0.930 . S
C1086 C1082 1.395 . S
C1086 C1087 1.379 . S
C1086 H1096 0.930 . S
C1087 C1085 1.395 . S
C1087 C1086 1.379 . S
C1087 H1097 0.930 . S
C1088 O1066 1.264 . S
C1088 O1067 1.254 . S
C1089 Eu1025 2.848 . S
C1089 O1064 1.257 . S
C1089 O1069 1.249 . S
C1089 C1082 1.492 . S
H1090 C1073 0.930 . S
H1091 C1074 0.930 . S
H1092 C1075 0.930 . S
H1093 C1076 0.930 . S
H1094 C1083 0.930 . S
H1095 C1085 0.930 . S
H1096 C1086 0.930 . S
H1097 C1087 0.930 . S
H1098 C1116 0.951 . S
H1099 C1118 0.951 . S
H1100 C1120 0.950 . S
H1101 C1121 0.950 . S
H1102 C1123 0.950 . S
H1103 C1126 0.950 . S
H1104 C1127 0.950 . S
H1105 C1129 0.950 . S
H1106 C1130 0.950 . S
H1107 C1131 0.951 . S
H1108 C1133 0.951 . S
H1109 C1135 0.950 . S
H1110 C1136 0.950 . S
H1111 C1138 0.950 . S
H1112 C1141 0.950 1_554 S
H1113 C1142 0.950 . S
H1114 C1144 0.950 . S
H1115 C1145 0.950 . S
C1116 H1098 0.951 . S
C1116 C1117 1.366 . S
C1116 C1118 1.388 . S
C1117 C1116 1.366 . S
C1117 C1121 1.385 . S
C1118 H1099 0.951 . S
C1118 C1116 1.388 . S
C1118 C1119 1.366 . S
C1119 C1118 1.366 . S
C1119 C1120 1.414 . S
C1119 C1122 1.499 . S
C1120 H1100 0.950 . S
C1120 C1119 1.414 . S
C1120 C1121 1.374 . S
C1121 H1101 0.950 . S
C1121 C1117 1.385 . S
C1121 C1120 1.374 . S
C1122 C1119 1.499 . S
C1122 C1123 1.373 . S
C1122 C1124 1.389 . S
C1123 H1102 0.950 . S
C1123 C1122 1.373 . S
C1123 C1139 1.377 . S
C1124 C1122 1.389 . S
C1124 C1125 1.524 . S
C1124 C1138 1.377 . S
C1125 C1124 1.524 . S
C1125 C1126 1.397 . S
C1125 C1130 1.363 . S
C1126 H1103 0.950 . S
C1126 C1125 1.397 . S
C1126 C1127 1.334 . S
C1127 H1104 0.950 . S
C1127 C1126 1.334 . S
C1127 C1128 1.287 . S
C1128 C1127 1.287 . S
C1128 C1129 1.524 . S
C1128 H1147 0.913 . S
C1129 H1105 0.950 . S
C1129 C1128 1.524 . S
C1129 C1130 1.415 . S
C1130 H1106 0.950 . S
C1130 C1125 1.363 . S
C1130 C1129 1.415 . S
C1131 H1107 0.951 . S
C1131 C1132 1.366 . S
C1131 C1133 1.388 . S
C1132 C1131 1.366 . S
C1132 C1136 1.385 . S
C1133 H1108 0.951 . S
C1133 C1131 1.388 . S
C1133 C1134 1.366 . S
C1134 C1133 1.366 . S
C1134 C1135 1.414 . S
C1134 C1137 1.499 . S
C1135 H1109 0.950 . S
C1135 C1134 1.414 . S
C1135 C1136 1.374 . S
C1136 H1110 0.950 . S
C1136 C1132 1.385 . S
C1136 C1135 1.374 . S
C1137 C1134 1.499 . S
C1137 C1138 1.373 . S
C1137 C1139 1.389 . S
C1138 H1111 0.950 . S
C1138 C1124 1.377 . S
C1138 C1137 1.373 . S
C1139 C1123 1.377 . S
C1139 C1137 1.389 . S
C1139 C1140 1.524 . S
C1140 C1139 1.524 . S
C1140 C1141 1.397 1_554 S
C1140 C1145 1.363 1_554 S
C1141 H1112 0.950 1_556 S
C1141 C1140 1.397 1_556 S
C1141 C1142 1.334 . S
C1142 H1113 0.950 . S
C1142 C1141 1.334 . S
C1142 C1143 1.287 . S
C1143 C1142 1.287 . S
C1143 C1144 1.524 . S
C1143 H1146 0.999 . S
C1144 H1114 0.950 . S
C1144 C1143 1.524 . S
C1144 C1145 1.415 . S
C1145 H1115 0.950 . S
C1145 C1140 1.363 1_556 S
C1145 C1144 1.415 . S
H1146 C1143 0.999 . S
H1147 C1128 0.913 . S
H1148 C1166 0.951 . S
H1149 C1168 0.951 . S
H1150 C1170 0.950 . S
H1151 C1171 0.950 . S
H1152 C1173 0.950 . S
H1153 C1176 0.950 . S
H1154 C1177 0.950 . S
H1155 C1179 0.950 . S
H1156 C1180 0.950 . S
H1157 C1181 0.951 . S
H1158 C1183 0.951 . S
H1159 C1185 0.950 . S
H1160 C1186 0.950 . S
H1161 C1188 0.950 . S
H1162 C1191 0.950 . S
H1163 C1192 0.945 1_556 S
H1164 C1194 0.950 . S
H1165 C1195 0.950 . S
C1166 H1148 0.951 . S
C1166 C1167 1.366 . S
C1166 C1168 1.388 . S
C1167 C1166 1.366 . S
C1167 C1171 1.385 . S
C1168 H1149 0.951 . S
C1168 C1166 1.388 . S
C1168 C1169 1.366 . S
C1169 C1168 1.366 . S
C1169 C1170 1.414 . S
C1169 C1172 1.499 . S
C1170 H1150 0.950 . S
C1170 C1169 1.414 . S
C1170 C1171 1.374 . S
C1171 H1151 0.950 . S
C1171 C1167 1.385 . S
C1171 C1170 1.374 . S
C1172 C1169 1.499 . S
C1172 C1173 1.373 . S
C1172 C1174 1.389 . S
C1173 H1152 0.950 . S
C1173 C1172 1.373 . S
C1173 C1189 1.377 . S
C1174 C1172 1.389 . S
C1174 C1175 1.524 . S
C1174 C1188 1.377 . S
C1175 C1174 1.524 . S
C1175 C1176 1.397 . S
C1175 C1180 1.363 . S
C1176 H1153 0.950 . S
C1176 C1175 1.397 . S
C1176 C1177 1.334 . S
C1177 H1154 0.950 . S
C1177 C1176 1.334 . S
C1177 C1178 1.287 . S
C1178 C1177 1.287 . S
C1178 C1179 1.524 . S
C1178 H1197 0.913 . S
C1179 H1155 0.950 . S
C1179 C1178 1.524 . S
C1179 C1180 1.415 . S
C1180 H1156 0.950 . S
C1180 C1175 1.363 . S
C1180 C1179 1.415 . S
C1181 H1157 0.951 . S
C1181 C1182 1.366 . S
C1181 C1183 1.388 . S
C1182 C1181 1.366 . S
C1182 C1186 1.385 . S
C1183 H1158 0.951 . S
C1183 C1181 1.388 . S
C1183 C1184 1.366 . S
C1184 C1183 1.366 . S
C1184 C1185 1.414 . S
C1184 C1187 1.499 . S
C1185 H1159 0.950 . S
C1185 C1184 1.414 . S
C1185 C1186 1.374 . S
C1186 H1160 0.950 . S
C1186 C1182 1.385 . S
C1186 C1185 1.374 . S
C1187 C1184 1.499 . S
C1187 C1188 1.373 . S
C1187 C1189 1.389 . S
C1188 H1161 0.950 . S
C1188 C1174 1.377 . S
C1188 C1187 1.373 . S
C1189 C1173 1.377 . S
C1189 C1187 1.389 . S
C1189 C1190 1.524 . S
C1190 C1189 1.524 . S
C1190 C1191 1.397 . S
C1190 C1195 1.363 . S
C1191 H1162 0.950 . S
C1191 C1190 1.397 . S
C1191 C1192 1.337 . S
C1192 H1163 0.945 1_554 S
C1192 C1191 1.337 . S
C1192 C1193 1.289 . S
C1193 C1192 1.289 . S
C1193 C1194 1.524 . S
C1193 H1196 0.999 . S
C1194 H1164 0.950 . S
C1194 C1193 1.524 . S
C1194 C1195 1.415 . S
C1195 H1165 0.950 . S
C1195 C1190 1.363 . S
C1195 C1194 1.415 . S
H1196 C1193 0.999 . S
H1197 C1178 0.913 . S
H1198 C1216 0.951 . S
H1199 C1218 0.951 . S
H1200 C1220 0.950 . S
H1201 C1221 0.950 . S
H1202 C1223 0.950 . S
H1203 C1226 0.950 . S
H1204 C1227 0.950 . S
H1205 C1229 0.950 . S
H1206 C1230 0.950 . S
H1207 C1231 0.951 . S
H1208 C1233 0.951 . S
H1209 C1235 0.950 . S
H1210 C1236 0.950 . S
H1211 C1238 0.950 . S
H1212 C1241 0.950 . S
H1213 C1242 0.950 . S
H1214 C1244 0.950 . S
H1215 C1245 0.950 . S
C1216 H1198 0.951 . S
C1216 C1217 1.366 . S
C1216 C1218 1.388 . S
C1217 C1216 1.366 . S
C1217 C1221 1.385 . S
C1218 H1199 0.951 . S
C1218 C1216 1.388 . S
C1218 C1219 1.366 . S
C1219 C1218 1.366 . S
C1219 C1220 1.414 . S
C1219 C1222 1.499 . S
C1220 H1200 0.950 . S
C1220 C1219 1.414 . S
C1220 C1221 1.374 . S
C1221 H1201 0.950 . S
C1221 C1217 1.385 . S
C1221 C1220 1.374 . S
C1222 C1219 1.499 . S
C1222 C1223 1.373 . S
C1222 C1224 1.389 . S
C1223 H1202 0.950 . S
C1223 C1222 1.373 . S
C1223 C1239 1.377 . S
C1224 C1222 1.389 . S
C1224 C1225 1.524 . S
C1224 C1238 1.377 . S
C1225 C1224 1.524 . S
C1225 C1226 1.397 . S
C1225 C1230 1.363 1_554 S
C1226 H1203 0.950 . S
C1226 C1225 1.397 . S
C1226 C1227 1.334 1_554 S
C1227 H1204 0.950 . S
C1227 C1226 1.334 1_556 S
C1227 C1228 1.287 . S
C1228 C1227 1.287 . S
C1228 C1229 1.524 . S
C1228 H1247 0.913 . S
C1229 H1205 0.950 . S
C1229 C1228 1.524 . S
C1229 C1230 1.415 . S
C1230 H1206 0.950 . S
C1230 C1225 1.363 1_556 S
C1230 C1229 1.415 . S
C1231 H1207 0.951 . S
C1231 C1232 1.366 . S
C1231 C1233 1.388 . S
C1232 C1231 1.366 . S
C1232 C1236 1.385 . S
C1233 H1208 0.951 . S
C1233 C1231 1.388 . S
C1233 C1234 1.366 . S
C1234 C1233 1.366 . S
C1234 C1235 1.414 . S
C1234 C1237 1.499 . S
C1235 H1209 0.950 . S
C1235 C1234 1.414 . S
C1235 C1236 1.374 . S
C1236 H1210 0.950 . S
C1236 C1232 1.385 . S
C1236 C1235 1.374 . S
C1237 C1234 1.499 . S
C1237 C1238 1.373 . S
C1237 C1239 1.389 . S
C1238 H1211 0.950 . S
C1238 C1224 1.377 . S
C1238 C1237 1.373 . S
C1239 C1223 1.377 . S
C1239 C1237 1.389 . S
C1239 C1240 1.524 . S
C1240 C1239 1.524 . S
C1240 C1241 1.397 . S
C1240 C1245 1.363 . S
C1241 H1212 0.950 . S
C1241 C1240 1.397 . S
C1241 C1242 1.334 . S
C1242 H1213 0.950 . S
C1242 C1241 1.334 . S
C1242 C1243 1.287 . S
C1243 C1242 1.287 . S
C1243 C1244 1.524 . S
C1243 H1246 0.999 . S
C1244 H1214 0.950 . S
C1244 C1243 1.524 . S
C1244 C1245 1.415 . S
C1245 H1215 0.950 . S
C1245 C1240 1.363 . S
C1245 C1244 1.415 . S
H1246 C1243 0.999 . S
H1247 C1228 0.913 . S
H1248 C1266 0.951 . S
H1249 C1268 0.951 . S
H1250 C1270 0.950 . S
H1251 C1271 0.950 . S
H1252 C1273 0.950 . S
H1253 C1276 0.950 . S
H1254 C1277 0.950 . S
H1255 C1279 0.950 . S
H1256 C1280 0.950 . S
H1257 C1281 0.951 . S
H1258 C1283 0.951 . S
H1259 C1285 0.941 1_554 S
H1260 C1286 0.950 . S
H1261 C1288 0.950 . S
H1262 C1291 0.950 . S
H1263 C1292 0.950 . S
H1264 C1294 0.940 1_556 S
H1265 C1295 0.950 . S
C1266 H1248 0.951 . S
C1266 C1267 1.366 . S
C1266 C1268 1.388 . S
C1267 C1266 1.366 . S
C1267 C1271 1.385 . S
C1268 H1249 0.951 . S
C1268 C1266 1.388 . S
C1268 C1269 1.366 . S
C1269 C1268 1.366 . S
C1269 C1270 1.414 . S
C1269 C1272 1.499 . S
C1270 H1250 0.950 . S
C1270 C1269 1.414 . S
C1270 C1271 1.374 . S
C1271 H1251 0.950 . S
C1271 C1267 1.385 . S
C1271 C1270 1.374 . S
C1272 C1269 1.499 . S
C1272 C1273 1.373 . S
C1272 C1274 1.389 . S
C1273 H1252 0.950 . S
C1273 C1272 1.373 . S
C1273 C1289 1.377 . S
C1274 C1272 1.389 . S
C1274 C1275 1.524 . S
C1274 C1288 1.377 . S
C1275 C1274 1.524 . S
C1275 C1276 1.397 . S
C1275 C1280 1.363 . S
C1276 H1253 0.950 . S
C1276 C1275 1.397 . S
C1276 C1277 1.334 . S
C1277 H1254 0.950 . S
C1277 C1276 1.334 . S
C1277 C1278 1.287 . S
C1278 C1277 1.287 . S
C1278 C1279 1.524 . S
C1278 H1297 0.913 . S
C1279 H1255 0.950 . S
C1279 C1278 1.524 . S
C1279 C1280 1.415 . S
C1280 H1256 0.950 . S
C1280 C1275 1.363 . S
C1280 C1279 1.415 . S
C1281 H1257 0.951 . S
C1281 C1282 1.366 . S
C1281 C1283 1.388 . S
C1282 C1281 1.366 . S
C1282 C1286 1.385 1_556 S
C1283 H1258 0.951 . S
C1283 C1281 1.388 . S
C1283 C1284 1.366 . S
C1284 C1283 1.366 . S
C1284 C1285 1.432 . S
C1284 C1287 1.499 . S
C1285 H1259 0.941 1_556 S
C1285 C1284 1.432 . S
C1285 C1286 1.367 1_556 S
C1286 H1260 0.950 . S
C1286 C1282 1.385 1_554 S
C1286 C1285 1.367 1_554 S
C1287 C1284 1.499 . S
C1287 C1288 1.373 . S
C1287 C1289 1.389 . S
C1288 H1261 0.950 . S
C1288 C1274 1.377 . S
C1288 C1287 1.373 . S
C1289 C1273 1.377 . S
C1289 C1287 1.389 . S
C1289 C1290 1.538 . S
C1290 C1289 1.538 . S
C1290 C1291 1.373 1_556 S
C1290 C1295 1.372 . S
C1291 H1262 0.950 . S
C1291 C1290 1.373 1_554 S
C1291 C1292 1.334 . S
C1292 H1263 0.950 . S
C1292 C1291 1.334 . S
C1292 C1293 1.287 . S
C1293 C1292 1.287 . S
C1293 C1294 1.524 . S
C1293 H1296 0.999 . S
C1294 H1264 0.940 1_554 S
C1294 C1293 1.524 . S
C1294 C1295 1.415 1_554 S
C1295 H1265 0.950 . S
C1295 C1290 1.372 . S
C1295 C1294 1.415 1_556 S
H1296 C1293 0.999 . S
H1297 C1278 0.913 . S
H1298 C1316 0.951 . S
H1299 C1318 0.951 . S
H1300 C1320 0.950 . S
H1301 C1321 0.950 . S
H1302 C1323 0.950 . S
H1303 C1326 0.950 . S
H1304 C1327 0.950 . S
H1305 C1329 0.950 . S
H1306 C1330 0.950 . S
H1307 C1331 0.957 . S
H1308 C1333 0.951 . S
H1309 C1335 0.950 . S
H1310 C1336 0.950 . S
H1311 C1338 0.950 . S
H1312 C1341 0.950 . S
H1313 C1342 0.950 . S
H1314 C1344 0.950 . S
H1315 C1345 0.950 . S
C1316 H1298 0.951 . S
C1316 C1317 1.366 . S
C1316 C1318 1.388 . S
C1317 C1316 1.366 . S
C1317 C1321 1.385 . S
C1318 H1299 0.951 . S
C1318 C1316 1.388 . S
C1318 C1319 1.366 . S
C1319 C1318 1.366 . S
C1319 C1320 1.414 . S
C1319 C1322 1.499 . S
C1320 H1300 0.950 . S
C1320 C1319 1.414 . S
C1320 C1321 1.374 . S
C1321 H1301 0.950 . S
C1321 C1317 1.385 . S
C1321 C1320 1.374 . S
C1322 C1319 1.499 . S
C1322 C1323 1.373 . S
C1322 C1324 1.389 . S
C1323 H1302 0.950 . S
C1323 C1322 1.373 . S
C1323 C1339 1.377 . S
C1324 C1322 1.389 . S
C1324 C1325 1.524 . S
C1324 C1338 1.377 . S
C1325 C1324 1.524 . S
C1325 C1326 1.397 . S
C1325 C1330 1.363 . S
C1326 H1303 0.950 . S
C1326 C1325 1.397 . S
C1326 C1327 1.334 . S
C1327 H1304 0.950 . S
C1327 C1326 1.334 . S
C1327 C1328 1.287 . S
C1328 C1327 1.287 . S
C1328 C1329 1.524 . S
C1328 H1347 0.913 . S
C1329 H1305 0.950 . S
C1329 C1328 1.524 . S
C1329 C1330 1.415 . S
C1330 H1306 0.950 . S
C1330 C1325 1.363 . S
C1330 C1329 1.415 . S
C1331 H1307 0.957 . S
C1331 C1332 1.363 1_554 S
C1331 C1333 1.383 1_554 S
C1332 C1331 1.363 1_556 S
C1332 C1336 1.405 . S
C1333 H1308 0.951 . S
C1333 C1331 1.383 1_556 S
C1333 C1334 1.366 . S
C1334 C1333 1.366 . S
C1334 C1335 1.414 . S
C1334 C1337 1.499 . S
C1335 H1309 0.950 . S
C1335 C1334 1.414 . S
C1335 C1336 1.374 . S
C1336 H1310 0.950 . S
C1336 C1332 1.405 . S
C1336 C1335 1.374 . S
C1337 C1334 1.499 . S
C1337 C1338 1.373 . S
C1337 C1339 1.389 . S
C1338 H1311 0.950 . S
C1338 C1324 1.377 . S
C1338 C1337 1.373 . S
C1339 C1323 1.377 . S
C1339 C1337 1.389 . S
C1339 C1340 1.524 1_556 S
C1340 C1339 1.524 1_554 S
C1340 C1341 1.397 . S
C1340 C1345 1.363 . S
C1341 H1312 0.950 . S
C1341 C1340 1.397 . S
C1341 C1342 1.334 . S
C1342 H1313 0.950 . S
C1342 C1341 1.334 . S
C1342 C1343 1.287 . S
C1343 C1342 1.287 . S
C1343 C1344 1.524 . S
C1343 H1346 0.999 . S
C1344 H1314 0.950 . S
C1344 C1343 1.524 . S
C1344 C1345 1.415 . S
C1345 H1315 0.950 . S
C1345 C1340 1.363 . S
C1345 C1344 1.415 . S
H1346 C1343 0.999 . S
H1347 C1328 0.913 . S
H1348 C1366 0.951 . S
H1349 C1368 0.951 . S
H1350 C1370 0.911 1_554 S
H1351 C1371 0.950 . S
H1352 C1373 0.950 1_554 S
H1353 C1376 0.950 . S
H1354 C1377 0.950 . S
H1355 C1379 0.950 . S
H1356 C1380 0.950 . S
H1357 C1381 0.951 . S
H1358 C1383 0.951 . S
H1359 C1385 0.950 . S
H1360 C1386 0.950 . S
H1361 C1388 0.950 . S
H1362 C1391 0.950 1_556 S
H1363 C1392 0.950 . S
H1364 C1394 0.950 . S
H1365 C1395 0.950 . S
C1366 H1348 0.951 . S
C1366 C1367 1.366 . S
C1366 C1368 1.388 . S
C1367 C1366 1.366 . S
C1367 C1371 1.385 . S
C1368 H1349 0.951 . S
C1368 C1366 1.388 . S
C1368 C1369 1.366 . S
C1369 C1368 1.366 . S
C1369 C1370 1.414 . S
C1369 C1372 1.499 . S
C1370 H1350 0.911 1_556 S
C1370 C1369 1.414 . S
C1370 C1371 1.374 . S
C1371 H1351 0.950 . S
C1371 C1367 1.385 . S
C1371 C1370 1.374 . S
C1372 C1369 1.499 . S
C1372 C1373 1.373 . S
C1372 C1374 1.389 . S
C1373 H1352 0.950 1_556 S
C1373 C1372 1.373 . S
C1373 C1389 1.377 . S
C1374 C1372 1.389 . S
C1374 C1375 1.524 . S
C1374 C1388 1.377 . S
C1375 C1374 1.524 . S
C1375 C1376 1.397 . S
C1375 C1380 1.363 . S
C1376 H1353 0.950 . S
C1376 C1375 1.397 . S
C1376 C1377 1.334 . S
C1377 H1354 0.950 . S
C1377 C1376 1.334 . S
C1377 C1378 1.287 . S
C1378 C1377 1.287 . S
C1378 C1379 1.524 . S
C1378 H1397 0.913 . S
C1379 H1355 0.950 . S
C1379 C1378 1.524 . S
C1379 C1380 1.415 . S
C1380 H1356 0.950 . S
C1380 C1375 1.363 . S
C1380 C1379 1.415 . S
C1381 H1357 0.951 . S
C1381 C1382 1.360 1_554 S
C1381 C1383 1.388 . S
C1382 C1381 1.360 1_556 S
C1382 C1386 1.393 . S
C1383 H1358 0.951 . S
C1383 C1381 1.388 . S
C1383 C1384 1.366 1_554 S
C1384 C1383 1.366 1_556 S
C1384 C1385 1.414 . S
C1384 C1387 1.499 . S
C1385 H1359 0.950 . S
C1385 C1384 1.414 . S
C1385 C1386 1.374 . S
C1386 H1360 0.950 . S
C1386 C1382 1.393 . S
C1386 C1385 1.374 . S
C1387 C1384 1.499 . S
C1387 C1388 1.373 . S
C1387 C1389 1.389 . S
C1388 H1361 0.950 . S
C1388 C1374 1.377 . S
C1388 C1387 1.373 . S
C1389 C1373 1.377 . S
C1389 C1387 1.389 . S
C1389 C1390 1.524 1_556 S
C1390 C1389 1.524 1_554 S
C1390 C1391 1.397 . S
C1390 C1395 1.363 . S
C1391 H1362 0.950 1_554 S
C1391 C1390 1.397 . S
C1391 C1392 1.334 . S
C1392 H1363 0.950 . S
C1392 C1391 1.334 . S
C1392 C1393 1.287 . S
C1393 C1392 1.287 . S
C1393 C1394 1.524 . S
C1393 H1396 0.999 . S
C1394 H1364 0.950 . S
C1394 C1393 1.524 . S
C1394 C1395 1.415 . S
C1395 H1365 0.950 . S
C1395 C1390 1.363 . S
C1395 C1394 1.415 . S
H1396 C1393 0.999 . S
H1397 C1378 0.913 . S
H1398 C1416 0.951 . S
H1399 C1418 0.951 . S
H1400 C1420 0.950 . S
H1401 C1421 0.950 . S
H1402 C1423 0.950 . S
H1403 C1426 0.957 . S
H1404 C1427 0.950 . S
H1405 C1429 0.950 . S
H1406 C1430 0.950 . S
H1407 C1431 0.951 . S
H1408 C1433 0.951 . S
H1409 C1435 0.950 . S
H1410 C1436 0.950 . S
H1411 C1438 0.950 . S
H1412 C1441 0.950 . S
H1413 C1442 0.950 . S
H1414 C1444 0.950 . S
H1415 C1445 0.950 1_554 S
C1416 H1398 0.951 . S
C1416 C1417 1.366 . S
C1416 C1418 1.388 . S
C1417 C1416 1.366 . S
C1417 C1421 1.385 . S
C1418 H1399 0.951 . S
C1418 C1416 1.388 . S
C1418 C1419 1.366 . S
C1419 C1418 1.366 . S
C1419 C1420 1.414 . S
C1419 C1422 1.499 . S
C1420 H1400 0.950 . S
C1420 C1419 1.414 . S
C1420 C1421 1.374 . S
C1421 H1401 0.950 . S
C1421 C1417 1.385 . S
C1421 C1420 1.374 . S
C1422 C1419 1.499 . S
C1422 C1423 1.373 . S
C1422 C1424 1.389 . S
C1423 H1402 0.950 . S
C1423 C1422 1.373 . S
C1423 C1439 1.377 . S
C1424 C1422 1.389 . S
C1424 C1425 1.524 . S
C1424 C1438 1.377 . S
C1425 C1424 1.524 . S
C1425 C1426 1.388 1_556 S
C1425 C1430 1.363 . S
C1426 H1403 0.957 . S
C1426 C1425 1.388 1_554 S
C1426 C1427 1.336 . S
C1427 H1404 0.950 . S
C1427 C1426 1.336 . S
C1427 C1428 1.287 1_554 S
C1428 C1427 1.287 1_556 S
C1428 C1429 1.524 . S
C1428 H1447 0.913 . S
C1429 H1405 0.950 . S
C1429 C1428 1.524 . S
C1429 C1430 1.415 . S
C1430 H1406 0.950 . S
C1430 C1425 1.363 . S
C1430 C1429 1.415 . S
C1431 H1407 0.951 . S
C1431 C1432 1.366 1_554 S
C1431 C1433 1.388 . S
C1432 C1431 1.366 1_556 S
C1432 C1436 1.385 . S
C1433 H1408 0.951 . S
C1433 C1431 1.388 . S
C1433 C1434 1.366 1_554 S
C1434 C1433 1.366 1_556 S
C1434 C1435 1.414 . S
C1434 C1437 1.499 . S
C1435 H1409 0.950 . S
C1435 C1434 1.414 . S
C1435 C1436 1.374 . S
C1436 H1410 0.950 . S
C1436 C1432 1.385 . S
C1436 C1435 1.374 . S
C1437 C1434 1.499 . S
C1437 C1438 1.373 . S
C1437 C1439 1.389 . S
C1438 H1411 0.950 . S
C1438 C1424 1.377 . S
C1438 C1437 1.373 . S
C1439 C1423 1.377 . S
C1439 C1437 1.389 . S
C1439 C1440 1.524 . S
C1440 C1439 1.524 . S
C1440 C1441 1.397 . S
C1440 C1445 1.363 . S
C1441 H1412 0.950 . S
C1441 C1440 1.397 . S
C1441 C1442 1.334 . S
C1442 H1413 0.950 . S
C1442 C1441 1.334 . S
C1442 C1443 1.287 . S
C1443 C1442 1.287 . S
C1443 C1444 1.524 . S
C1443 H1446 0.999 . S
C1444 H1414 0.950 . S
C1444 C1443 1.524 . S
C1444 C1445 1.415 . S
C1445 H1415 0.950 1_556 S
C1445 C1440 1.363 . S
C1445 C1444 1.415 . S
H1446 C1443 0.999 . S
H1447 C1428 0.913 . S
H1448 C1466 0.951 . S
H1449 C1468 0.951 . S
H1450 C1470 0.950 . S
H1451 C1471 0.950 . S
H1452 C1473 0.950 . S
H1453 C1476 0.950 . S
H1454 C1477 0.950 . S
H1455 C1479 0.950 . S
H1456 C1480 0.950 . S
H1457 C1481 0.951 . S
H1458 C1483 0.951 . S
H1459 C1485 0.968 . S
H1460 C1486 0.950 . S
H1461 C1488 0.950 . S
H1462 C1491 0.950 . S
H1463 C1492 0.950 . S
H1464 C1494 0.950 . S
H1465 C1495 0.950 . S
C1466 H1448 0.951 . S
C1466 C1467 1.366 . S
C1466 C1468 1.388 . S
C1467 C1466 1.366 . S
C1467 C1471 1.385 . S
C1468 H1449 0.951 . S
C1468 C1466 1.388 . S
C1468 C1469 1.366 . S
C1469 C1468 1.366 . S
C1469 C1470 1.414 . S
C1469 C1472 1.499 . S
C1470 H1450 0.950 . S
C1470 C1469 1.414 . S
C1470 C1471 1.374 . S
C1471 H1451 0.950 . S
C1471 C1467 1.385 . S
C1471 C1470 1.374 . S
C1472 C1469 1.499 . S
C1472 C1473 1.373 . S
C1472 C1474 1.389 . S
C1473 H1452 0.950 . S
C1473 C1472 1.373 . S
C1473 C1489 1.377 . S
C1474 C1472 1.389 . S
C1474 C1475 1.524 . S
C1474 C1488 1.377 . S
C1475 C1474 1.524 . S
C1475 C1476 1.397 . S
C1475 C1480 1.363 . S
C1476 H1453 0.950 . S
C1476 C1475 1.397 . S
C1476 C1477 1.334 . S
C1477 H1454 0.950 . S
C1477 C1476 1.334 . S
C1477 C1478 1.287 . S
C1478 C1477 1.287 . S
C1478 C1479 1.524 . S
C1478 H1497 0.913 . S
C1479 H1455 0.950 . S
C1479 C1478 1.524 . S
C1479 C1480 1.415 . S
C1480 H1456 0.950 . S
C1480 C1475 1.363 . S
C1480 C1479 1.415 . S
C1481 H1457 0.951 . S
C1481 C1482 1.366 . S
C1481 C1483 1.388 . S
C1482 C1481 1.366 . S
C1482 C1486 1.385 1_556 S
C1483 H1458 0.951 . S
C1483 C1481 1.388 . S
C1483 C1484 1.366 . S
C1484 C1483 1.366 . S
C1484 C1485 1.390 1_556 S
C1484 C1487 1.499 . S
C1485 H1459 0.968 . S
C1485 C1484 1.390 1_554 S
C1485 C1486 1.382 . S
C1486 H1460 0.950 . S
C1486 C1482 1.385 1_554 S
C1486 C1485 1.382 . S
C1487 C1484 1.499 . S
C1487 C1488 1.373 . S
C1487 C1489 1.389 . S
C1488 H1461 0.950 . S
C1488 C1474 1.377 . S
C1488 C1487 1.373 . S
C1489 C1473 1.377 . S
C1489 C1487 1.389 . S
C1489 C1490 1.524 . S
C1490 C1489 1.524 . S
C1490 C1491 1.397 1_556 S
C1490 C1495 1.363 . S
C1491 H1462 0.950 . S
C1491 C1490 1.397 1_554 S
C1491 C1492 1.334 . S
C1492 H1463 0.950 . S
C1492 C1491 1.334 . S
C1492 C1493 1.287 . S
C1493 C1492 1.287 . S
C1493 C1494 1.524 1_554 S
C1493 H1496 0.999 . S
C1494 H1464 0.950 . S
C1494 C1493 1.524 1_556 S
C1494 C1495 1.415 . S
C1495 H1465 0.950 . S
C1495 C1490 1.363 . S
C1495 C1494 1.415 . S
H1496 C1493 0.999 . S
H1497 C1478 0.913 . S
H1498 C1516 0.951 . S
H1499 C1518 0.951 . S
H1500 C1520 0.950 . S
H1501 C1521 0.950 . S
H1502 C1523 0.925 1_554 S
H1503 C1526 0.950 . S
H1504 C1527 0.950 . S
H1505 C1529 0.950 . S
H1506 C1530 0.950 . S
H1507 C1531 0.951 . S
H1508 C1533 0.951 . S
H1509 C1535 0.950 . S
H1510 C1536 0.955 . S
H1511 C1538 0.950 . S
H1512 C1541 0.950 . S
H1513 C1542 0.950 . S
H1514 C1544 0.950 . S
H1515 C1545 0.950 . S
C1516 H1498 0.951 . S
C1516 C1517 1.366 . S
C1516 C1518 1.388 . S
C1517 C1516 1.366 . S
C1517 C1521 1.385 . S
C1518 H1499 0.951 . S
C1518 C1516 1.388 . S
C1518 C1519 1.366 . S
C1519 C1518 1.366 . S
C1519 C1520 1.414 . S
C1519 C1522 1.499 . S
C1520 H1500 0.950 . S
C1520 C1519 1.414 . S
C1520 C1521 1.374 . S
C1521 H1501 0.950 . S
C1521 C1517 1.385 . S
C1521 C1520 1.374 . S
C1522 C1519 1.499 . S
C1522 C1523 1.410 . S
C1522 C1524 1.389 . S
C1523 H1502 0.925 1_556 S
C1523 C1522 1.410 . S
C1523 C1539 1.367 1_556 S
C1524 C1522 1.389 . S
C1524 C1525 1.524 . S
C1524 C1538 1.377 . S
C1525 C1524 1.524 . S
C1525 C1526 1.397 . S
C1525 C1530 1.363 . S
C1526 H1503 0.950 . S
C1526 C1525 1.397 . S
C1526 C1527 1.334 . S
C1527 H1504 0.950 . S
C1527 C1526 1.334 . S
C1527 C1528 1.287 . S
C1528 C1527 1.287 . S
C1528 C1529 1.524 . S
C1528 H1547 0.913 . S
C1529 H1505 0.950 . S
C1529 C1528 1.524 . S
C1529 C1530 1.415 . S
C1530 H1506 0.950 . S
C1530 C1525 1.363 . S
C1530 C1529 1.415 . S
C1531 H1507 0.951 . S
C1531 C1532 1.363 1_556 S
C1531 C1533 1.392 . S
C1532 C1531 1.363 1_554 S
C1532 C1536 1.386 . S
C1533 H1508 0.951 . S
C1533 C1531 1.392 . S
C1533 C1534 1.366 . S
C1534 C1533 1.366 . S
C1534 C1535 1.414 . S
C1534 C1537 1.499 . S
C1535 H1509 0.950 . S
C1535 C1534 1.414 . S
C1535 C1536 1.369 1_556 S
C1536 H1510 0.955 . S
C1536 C1532 1.386 . S
C1536 C1535 1.369 1_554 S
C1537 C1534 1.499 . S
C1537 C1538 1.373 . S
C1537 C1539 1.389 1_556 S
C1538 H1511 0.950 . S
C1538 C1524 1.377 . S
C1538 C1537 1.373 . S
C1539 C1523 1.367 1_554 S
C1539 C1537 1.389 1_554 S
C1539 C1540 1.524 . S
C1540 C1539 1.524 . S
C1540 C1541 1.397 . S
C1540 C1545 1.363 . S
C1541 H1512 0.950 . S
C1541 C1540 1.397 . S
C1541 C1542 1.334 . S
C1542 H1513 0.950 . S
C1542 C1541 1.334 . S
C1542 C1543 1.287 . S
C1543 C1542 1.287 . S
C1543 C1544 1.524 . S
C1543 H1546 0.999 . S
C1544 H1514 0.950 . S
C1544 C1543 1.524 . S
C1544 C1545 1.415 . S
C1545 H1515 0.950 . S
C1545 C1540 1.363 . S
C1545 C1544 1.415 . S
H1546 C1543 0.999 . S
H1547 C1528 0.913 . S
H1548 C1566 0.951 . S
H1549 C1568 0.951 . S
H1550 C1570 0.950 . S
H1551 C1571 0.950 . S
H1552 C1573 0.950 . S
H1553 C1576 0.943 1_554 S
H1554 C1577 0.950 . S
H1555 C1579 0.950 . S
H1556 C1580 0.950 . S
H1557 C1581 0.951 . S
H1558 C1583 0.951 . S
H1559 C1585 0.950 . S
H1560 C1586 0.950 . S
H1561 C1588 0.950 . S
H1562 C1591 0.950 . S
H1563 C1592 0.950 . S
H1564 C1594 0.950 . S
H1565 C1595 0.950 . S
C1566 H1548 0.951 . S
C1566 C1567 1.366 . S
C1566 C1568 1.388 . S
C1567 C1566 1.366 . S
C1567 C1571 1.385 . S
C1568 H1549 0.951 . S
C1568 C1566 1.388 . S
C1568 C1569 1.366 . S
C1569 C1568 1.366 . S
C1569 C1570 1.414 . S
C1569 C1572 1.499 . S
C1570 H1550 0.950 . S
C1570 C1569 1.414 . S
C1570 C1571 1.374 . S
C1571 H1551 0.950 . S
C1571 C1567 1.385 . S
C1571 C1570 1.374 . S
C1572 C1569 1.499 . S
C1572 C1573 1.373 . S
C1572 C1574 1.389 . S
C1573 H1552 0.950 . S
C1573 C1572 1.373 . S
C1573 C1589 1.377 . S
C1574 C1572 1.389 . S
C1574 C1575 1.524 . S
C1574 C1588 1.377 . S
C1575 C1574 1.524 . S
C1575 C1576 1.395 1_554 S
C1575 C1580 1.363 1_554 S
C1576 H1553 0.943 1_556 S
C1576 C1575 1.395 1_556 S
C1576 C1577 1.342 . S
C1577 H1554 0.950 . S
C1577 C1576 1.342 . S
C1577 C1578 1.287 . S
C1578 C1577 1.287 . S
C1578 C1579 1.524 . S
C1578 H1597 0.913 . S
C1579 H1555 0.950 . S
C1579 C1578 1.524 . S
C1579 C1580 1.415 . S
C1580 H1556 0.950 . S
C1580 C1575 1.363 1_556 S
C1580 C1579 1.415 . S
C1581 H1557 0.951 . S
C1581 C1582 1.366 . S
C1581 C1583 1.388 . S
C1582 C1581 1.366 . S
C1582 C1586 1.385 . S
C1583 H1558 0.951 . S
C1583 C1581 1.388 . S
C1583 C1584 1.366 . S
C1584 C1583 1.366 . S
C1584 C1585 1.414 . S
C1584 C1587 1.499 . S
C1585 H1559 0.950 . S
C1585 C1584 1.414 . S
C1585 C1586 1.374 . S
C1586 H1560 0.950 . S
C1586 C1582 1.385 . S
C1586 C1585 1.374 . S
C1587 C1584 1.499 . S
C1587 C1588 1.373 . S
C1587 C1589 1.389 . S
C1588 H1561 0.950 . S
C1588 C1574 1.377 . S
C1588 C1587 1.373 . S
C1589 C1573 1.377 . S
C1589 C1587 1.389 . S
C1589 C1590 1.524 . S
C1590 C1589 1.524 . S
C1590 C1591 1.397 . S
C1590 C1595 1.363 . S
C1591 H1562 0.950 . S
C1591 C1590 1.397 . S
C1591 C1592 1.334 . S
C1592 H1563 0.950 . S
C1592 C1591 1.334 . S
C1592 C1593 1.287 . S
C1593 C1592 1.287 . S
C1593 C1594 1.524 . S
C1593 H1596 0.999 . S
C1594 H1564 0.950 . S
C1594 C1593 1.524 . S
C1594 C1595 1.415 . S
C1595 H1565 0.950 . S
C1595 C1590 1.363 . S
C1595 C1594 1.415 . S
H1596 C1593 0.999 . S
H1597 C1578 0.913 . S
H1598 C1616 0.951 . S
H1599 C1618 0.951 . S
H1600 C1620 0.950 . S
H1601 C1621 0.950 . S
H1602 C1623 0.950 . S
H1603 C1626 0.950 . S
H1604 C1627 0.950 . S
H1605 C1629 0.950 . S
H1606 C1630 0.950 . S
H1607 C1631 0.951 . S
H1608 C1633 0.951 . S
H1609 C1635 0.950 . S
H1610 C1636 0.950 . S
H1611 C1638 0.950 . S
H1612 C1641 0.950 1_554 S
H1613 C1642 0.950 . S
H1614 C1644 0.950 . S
H1615 C1645 0.950 . S
C1616 H1598 0.951 . S
C1616 C1617 1.366 . S
C1616 C1618 1.388 . S
C1617 C1616 1.366 . S
C1617 C1621 1.385 . S
C1618 H1599 0.951 . S
C1618 C1616 1.388 . S
C1618 C1619 1.366 . S
C1619 C1618 1.366 . S
C1619 C1620 1.414 . S
C1619 C1622 1.499 . S
C1620 H1600 0.950 . S
C1620 C1619 1.414 . S
C1620 C1621 1.374 . S
C1621 H1601 0.950 . S
C1621 C1617 1.385 . S
C1621 C1620 1.374 . S
C1622 C1619 1.499 . S
C1622 C1623 1.373 . S
C1622 C1624 1.389 . S
C1623 H1602 0.950 . S
C1623 C1622 1.373 . S
C1623 C1639 1.377 . S
C1624 C1622 1.389 . S
C1624 C1625 1.524 . S
C1624 C1638 1.377 . S
C1625 C1624 1.524 . S
C1625 C1626 1.397 . S
C1625 C1630 1.363 . S
C1626 H1603 0.950 . S
C1626 C1625 1.397 . S
C1626 C1627 1.334 . S
C1627 H1604 0.950 . S
C1627 C1626 1.334 . S
C1627 C1628 1.287 . S
C1628 C1627 1.287 . S
C1628 C1629 1.524 . S
C1628 H1647 0.913 . S
C1629 H1605 0.950 . S
C1629 C1628 1.524 . S
C1629 C1630 1.415 . S
C1630 H1606 0.950 . S
C1630 C1625 1.363 . S
C1630 C1629 1.415 . S
C1631 H1607 0.951 . S
C1631 C1632 1.366 . S
C1631 C1633 1.388 . S
C1632 C1631 1.366 . S
C1632 C1636 1.385 . S
C1633 H1608 0.951 . S
C1633 C1631 1.388 . S
C1633 C1634 1.366 . S
C1634 C1633 1.366 . S
C1634 C1635 1.414 . S
C1634 C1637 1.499 . S
C1635 H1609 0.950 . S
C1635 C1634 1.414 . S
C1635 C1636 1.374 . S
C1636 H1610 0.950 . S
C1636 C1632 1.385 . S
C1636 C1635 1.374 . S
C1637 C1634 1.499 . S
C1637 C1638 1.373 . S
C1637 C1639 1.389 . S
C1638 H1611 0.950 . S
C1638 C1624 1.377 . S
C1638 C1637 1.373 . S
C1639 C1623 1.377 . S
C1639 C1637 1.389 . S
C1639 C1640 1.524 . S
C1640 C1639 1.524 . S
C1640 C1641 1.397 1_554 S
C1640 C1645 1.363 1_554 S
C1641 H1612 0.950 1_556 S
C1641 C1640 1.397 1_556 S
C1641 C1642 1.334 . S
C1642 H1613 0.950 . S
C1642 C1641 1.334 . S
C1642 C1643 1.287 . S
C1643 C1642 1.287 . S
C1643 C1644 1.524 . S
C1643 H1646 0.999 . S
C1644 H1614 0.950 . S
C1644 C1643 1.524 . S
C1644 C1645 1.415 . S
C1645 H1615 0.950 . S
C1645 C1640 1.363 1_556 S
C1645 C1644 1.415 . S
H1646 C1643 0.999 . S
H1647 C1628 0.913 . S
H1648 C1666 0.951 . S
H1649 C1668 0.951 . S
H1650 C1670 0.950 . S
H1651 C1671 0.950 . S
H1652 C1673 0.950 . S
H1653 C1676 0.950 . S
H1654 C1677 0.950 . S
H1655 C1679 0.950 . S
H1656 C1680 0.948 . S
H1657 C1681 0.951 . S
H1658 C1683 0.951 . S
H1659 C1685 0.950 . S
H1660 C1686 0.950 . S
H1661 C1688 0.950 . S
H1662 C1691 0.950 . S
H1663 C1692 0.950 . S
H1664 C1694 0.950 . S
H1665 C1695 0.950 . S
C1666 H1648 0.951 . S
C1666 C1667 1.366 . S
C1666 C1668 1.388 . S
C1667 C1666 1.366 . S
C1667 C1671 1.385 . S
C1668 H1649 0.951 . S
C1668 C1666 1.388 . S
C1668 C1669 1.366 . S
C1669 C1668 1.366 . S
C1669 C1670 1.414 . S
C1669 C1672 1.499 . S
C1670 H1650 0.950 . S
C1670 C1669 1.414 . S
C1670 C1671 1.374 . S
C1671 H1651 0.950 . S
C1671 C1667 1.385 . S
C1671 C1670 1.374 . S
C1672 C1669 1.499 . S
C1672 C1673 1.373 . S
C1672 C1674 1.389 . S
C1673 H1652 0.950 . S
C1673 C1672 1.373 . S
C1673 C1689 1.377 . S
C1674 C1672 1.389 . S
C1674 C1675 1.524 . S
C1674 C1688 1.377 . S
C1675 C1674 1.524 . S
C1675 C1676 1.397 1_554 S
C1675 C1680 1.361 . S
C1676 H1653 0.950 . S
C1676 C1675 1.397 1_556 S
C1676 C1677 1.334 . S
C1677 H1654 0.950 . S
C1677 C1676 1.334 . S
C1677 C1678 1.287 . S
C1678 C1677 1.287 . S
C1678 C1679 1.524 . S
C1678 H1697 0.913 . S
C1679 H1655 0.950 . S
C1679 C1678 1.524 . S
C1679 C1680 1.419 1_556 S
C1680 H1656 0.948 . S
C1680 C1675 1.361 . S
C1680 C1679 1.419 1_554 S
C1681 H1657 0.951 . S
C1681 C1682 1.366 . S
C1681 C1683 1.388 . S
C1682 C1681 1.366 . S
C1682 C1686 1.385 . S
C1683 H1658 0.951 . S
C1683 C1681 1.388 . S
C1683 C1684 1.366 . S
C1684 C1683 1.366 . S
C1684 C1685 1.414 . S
C1684 C1687 1.499 . S
C1685 H1659 0.950 . S
C1685 C1684 1.414 . S
C1685 C1686 1.374 . S
C1686 H1660 0.950 . S
C1686 C1682 1.385 . S
C1686 C1685 1.374 . S
C1687 C1684 1.499 . S
C1687 C1688 1.373 . S
C1687 C1689 1.389 . S
C1688 H1661 0.950 . S
C1688 C1674 1.377 . S
C1688 C1687 1.373 . S
C1689 C1673 1.377 . S
C1689 C1687 1.389 . S
C1689 C1690 1.524 . S
C1690 C1689 1.524 . S
C1690 C1691 1.397 . S
C1690 C1695 1.363 . S
C1691 H1662 0.950 . S
C1691 C1690 1.397 . S
C1691 C1692 1.334 . S
C1692 H1663 0.950 . S
C1692 C1691 1.334 . S
C1692 C1693 1.287 . S
C1693 C1692 1.287 . S
C1693 C1694 1.524 . S
C1693 H1696 0.999 . S
C1694 H1664 0.950 . S
C1694 C1693 1.524 . S
C1694 C1695 1.415 . S
C1695 H1665 0.950 . S
C1695 C1690 1.363 . S
C1695 C1694 1.415 . S
H1696 C1693 0.999 . S
H1697 C1678 0.913 . S
H1698 C1716 0.951 . S
H1699 C1718 0.951 . S
H1700 C1720 0.950 . S
H1701 C1721 0.950 . S
H1702 C1723 0.950 . S
H1703 C1726 0.950 . S
H1704 C1727 0.950 . S
H1705 C1729 0.950 . S
H1706 C1730 0.950 . S
H1707 C1731 0.951 . S
H1708 C1733 0.951 . S
H1709 C1735 0.950 . S
H1710 C1736 0.950 . S
H1711 C1738 0.950 . S
H1712 C1741 0.950 . S
H1713 C1742 0.950 . S
H1714 C1744 0.950 . S
H1715 C1745 0.950 . S
C1716 H1698 0.951 . S
C1716 C1717 1.366 . S
C1716 C1718 1.388 . S
C1717 C1716 1.366 . S
C1717 C1721 1.385 . S
C1718 H1699 0.951 . S
C1718 C1716 1.388 . S
C1718 C1719 1.366 . S
C1719 C1718 1.366 . S
C1719 C1720 1.414 . S
C1719 C1722 1.499 . S
C1720 H1700 0.950 . S
C1720 C1719 1.414 . S
C1720 C1721 1.374 . S
C1721 H1701 0.950 . S
C1721 C1717 1.385 . S
C1721 C1720 1.374 . S
C1722 C1719 1.499 . S
C1722 C1723 1.373 1_655 S
C1722 C1724 1.389 . S
C1723 H1702 0.950 . S
C1723 C1722 1.373 1_455 S
C1723 C1739 1.377 . S
C1724 C1722 1.389 . S
C1724 C1725 1.524 . S
C1724 C1738 1.377 1_655 S
C1725 C1724 1.524 . S
C1725 C1726 1.397 . S
C1725 C1730 1.363 . S
C1726 H1703 0.950 . S
C1726 C1725 1.397 . S
C1726 C1727 1.334 . S
C1727 H1704 0.950 . S
C1727 C1726 1.334 . S
C1727 C1728 1.287 . S
C1728 C1727 1.287 . S
C1728 C1729 1.524 . S
C1728 H1747 0.913 . S
C1729 H1705 0.950 . S
C1729 C1728 1.524 . S
C1729 C1730 1.415 . S
C1730 H1706 0.950 . S
C1730 C1725 1.363 . S
C1730 C1729 1.415 . S
C1731 H1707 0.951 . S
C1731 C1732 1.366 . S
C1731 C1733 1.388 . S
C1732 C1731 1.366 . S
C1732 C1736 1.385 . S
C1733 H1708 0.951 . S
C1733 C1731 1.388 . S
C1733 C1734 1.366 . S
C1734 C1733 1.366 . S
C1734 C1735 1.414 . S
C1734 C1737 1.499 . S
C1735 H1709 0.950 . S
C1735 C1734 1.414 . S
C1735 C1736 1.374 . S
C1736 H1710 0.950 . S
C1736 C1732 1.385 . S
C1736 C1735 1.374 . S
C1737 C1734 1.499 . S
C1737 C1738 1.373 . S
C1737 C1739 1.389 . S
C1738 H1711 0.950 . S
C1738 C1724 1.377 1_455 S
C1738 C1737 1.373 . S
C1739 C1723 1.377 . S
C1739 C1737 1.389 . S
C1739 C1740 1.524 . S
C1740 C1739 1.524 . S
C1740 C1741 1.397 . S
C1740 C1745 1.363 . S
C1741 H1712 0.950 . S
C1741 C1740 1.397 . S
C1741 C1742 1.334 . S
C1742 H1713 0.950 . S
C1742 C1741 1.334 . S
C1742 C1743 1.287 . S
C1743 C1742 1.287 . S
C1743 C1744 1.524 . S
C1743 H1746 0.999 . S
C1744 H1714 0.950 . S
C1744 C1743 1.524 . S
C1744 C1745 1.415 . S
C1745 H1715 0.950 . S
C1745 C1740 1.363 . S
C1745 C1744 1.415 . S
H1746 C1743 0.999 . S
H1747 C1728 0.913 . S
H1748 C1766 0.951 . S
H1749 C1768 0.951 . S
H1750 C1770 0.950 . S
H1751 C1771 0.950 . S
H1752 C1773 0.950 . S
H1753 C1776 0.950 . S
H1754 C1777 0.950 . S
H1755 C1779 0.950 . S
H1756 C1780 0.950 . S
H1757 C1781 0.951 . S
H1758 C1783 0.951 . S
H1759 C1785 0.950 . S
H1760 C1786 0.950 . S
H1761 C1788 0.950 . S
H1762 C1791 0.950 . S
H1763 C1792 0.950 . S
H1764 C1794 0.950 . S
H1765 C1795 0.950 . S
C1766 H1748 0.951 . S
C1766 C1767 1.366 . S
C1766 C1768 1.388 . S
C1767 C1766 1.366 . S
C1767 C1771 1.385 . S
C1768 H1749 0.951 . S
C1768 C1766 1.388 . S
C1768 C1769 1.366 . S
C1769 C1768 1.366 . S
C1769 C1770 1.414 . S
C1769 C1772 1.499 . S
C1770 H1750 0.950 . S
C1770 C1769 1.414 . S
C1770 C1771 1.374 . S
C1771 H1751 0.950 . S
C1771 C1767 1.385 . S
C1771 C1770 1.374 . S
C1772 C1769 1.499 . S
C1772 C1773 1.373 . S
C1772 C1774 1.389 . S
C1773 H1752 0.950 . S
C1773 C1772 1.373 . S
C1773 C1789 1.377 . S
C1774 C1772 1.389 . S
C1774 C1775 1.524 . S
C1774 C1788 1.377 . S
C1775 C1774 1.524 . S
C1775 C1776 1.397 . S
C1775 C1780 1.363 . S
C1776 H1753 0.950 . S
C1776 C1775 1.397 . S
C1776 C1777 1.334 . S
C1777 H1754 0.950 . S
C1777 C1776 1.334 . S
C1777 C1778 1.287 . S
C1778 C1777 1.287 . S
C1778 C1779 1.524 . S
C1778 H1797 0.913 . S
C1779 H1755 0.950 . S
C1779 C1778 1.524 . S
C1779 C1780 1.415 . S
C1780 H1756 0.950 . S
C1780 C1775 1.363 . S
C1780 C1779 1.415 . S
C1781 H1757 0.951 . S
C1781 C1782 1.366 . S
C1781 C1783 1.388 . S
C1782 C1781 1.366 . S
C1782 C1786 1.385 . S
C1783 H1758 0.951 . S
C1783 C1781 1.388 . S
C1783 C1784 1.366 . S
C1784 C1783 1.366 . S
C1784 C1785 1.414 . S
C1784 C1787 1.499 . S
C1785 H1759 0.950 . S
C1785 C1784 1.414 . S
C1785 C1786 1.374 . S
C1786 H1760 0.950 . S
C1786 C1782 1.385 . S
C1786 C1785 1.374 . S
C1787 C1784 1.499 . S
C1787 C1788 1.373 . S
C1787 C1789 1.389 . S
C1788 H1761 0.950 . S
C1788 C1774 1.377 . S
C1788 C1787 1.373 . S
C1789 C1773 1.377 . S
C1789 C1787 1.389 . S
C1789 C1790 1.524 . S
C1790 C1789 1.524 . S
C1790 C1791 1.397 . S
C1790 C1795 1.363 . S
C1791 H1762 0.950 . S
C1791 C1790 1.397 . S
C1791 C1792 1.334 . S
C1792 H1763 0.950 . S
C1792 C1791 1.334 . S
C1792 C1793 1.287 . S
C1793 C1792 1.287 . S
C1793 C1794 1.524 . S
C1793 H1796 0.999 . S
C1794 H1764 0.950 . S
C1794 C1793 1.524 . S
C1794 C1795 1.415 . S
C1795 H1765 0.950 . S
C1795 C1790 1.363 . S
C1795 C1794 1.415 . S
H1796 C1793 0.999 . S
H1797 C1778 0.913 . S
H1798 C1816 0.951 . S
H1799 C1818 0.951 . S
H1800 C1820 0.950 . S
H1801 C1821 0.950 . S
H1802 C1823 0.950 . S
H1803 C1826 0.950 . S
H1804 C1827 0.950 . S
H1805 C1829 0.950 . S
H1806 C1830 0.950 . S
H1807 C1831 0.951 . S
H1808 C1833 0.951 . S
H1809 C1835 0.950 . S
H1810 C1836 0.950 . S
H1811 C1838 0.950 . S
H1812 C1841 0.950 . S
H1813 C1842 0.950 . S
H1814 C1844 0.950 . S
H1815 C1845 0.950 . S
C1816 H1798 0.951 . S
C1816 C1817 1.366 . S
C1816 C1818 1.388 . S
C1817 C1816 1.366 . S
C1817 C1821 1.385 . S
C1818 H1799 0.951 . S
C1818 C1816 1.388 . S
C1818 C1819 1.366 . S
C1819 C1818 1.366 . S
C1819 C1820 1.414 . S
C1819 C1822 1.499 . S
C1820 H1800 0.950 . S
C1820 C1819 1.414 . S
C1820 C1821 1.374 . S
C1821 H1801 0.950 . S
C1821 C1817 1.385 . S
C1821 C1820 1.374 . S
C1822 C1819 1.499 . S
C1822 C1823 1.373 . S
C1822 C1824 1.389 . S
C1823 H1802 0.950 . S
C1823 C1822 1.373 . S
C1823 C1839 1.377 . S
C1824 C1822 1.389 . S
C1824 C1825 1.524 . S
C1824 C1838 1.377 1_545 S
C1825 C1824 1.524 . S
C1825 C1826 1.397 . S
C1825 C1830 1.363 1_545 S
C1826 H1803 0.950 . S
C1826 C1825 1.397 . S
C1826 C1827 1.334 . S
C1827 H1804 0.950 . S
C1827 C1826 1.334 . S
C1827 C1828 1.287 . S
C1828 C1827 1.287 . S
C1828 C1829 1.524 1_545 S
C1828 H1847 0.913 . S
C1829 H1805 0.950 . S
C1829 C1828 1.524 1_565 S
C1829 C1830 1.415 . S
C1830 H1806 0.950 . S
C1830 C1825 1.363 1_565 S
C1830 C1829 1.415 . S
C1831 H1807 0.951 . S
C1831 C1832 1.366 . S
C1831 C1833 1.388 . S
C1832 C1831 1.366 . S
C1832 C1836 1.385 . S
C1833 H1808 0.951 . S
C1833 C1831 1.388 . S
C1833 C1834 1.366 . S
C1834 C1833 1.366 . S
C1834 C1835 1.414 . S
C1834 C1837 1.499 . S
C1835 H1809 0.950 . S
C1835 C1834 1.414 . S
C1835 C1836 1.374 . S
C1836 H1810 0.950 . S
C1836 C1832 1.385 . S
C1836 C1835 1.374 . S
C1837 C1834 1.499 . S
C1837 C1838 1.373 . S
C1837 C1839 1.389 1_565 S
C1838 H1811 0.950 . S
C1838 C1824 1.377 1_565 S
C1838 C1837 1.373 . S
C1839 C1823 1.377 . S
C1839 C1837 1.389 1_545 S
C1839 C1840 1.524 . S
C1840 C1839 1.524 . S
C1840 C1841 1.397 1_545 S
C1840 C1845 1.363 . S
C1841 H1812 0.950 . S
C1841 C1840 1.397 1_565 S
C1841 C1842 1.334 . S
C1842 H1813 0.950 . S
C1842 C1841 1.334 . S
C1842 C1843 1.287 1_565 S
C1843 C1842 1.287 1_545 S
C1843 C1844 1.524 . S
C1843 H1846 0.999 . S
C1844 H1814 0.950 . S
C1844 C1843 1.524 . S
C1844 C1845 1.415 . S
C1845 H1815 0.950 . S
C1845 C1840 1.363 . S
C1845 C1844 1.415 . S
H1846 C1843 0.999 . S
H1847 C1828 0.913 . S
H1848 C1866 0.951 . S
H1849 C1868 0.951 . S
H1850 C1870 0.950 . S
H1851 C1871 0.950 . S
H1852 C1873 0.950 . S
H1853 C1876 0.950 . S
H1854 C1877 0.950 . S
H1855 C1879 0.950 . S
H1856 C1880 0.950 . S
H1857 C1881 0.951 . S
H1858 C1883 0.951 . S
H1859 C1885 0.950 . S
H1860 C1886 0.950 . S
H1861 C1888 0.950 . S
H1862 C1891 0.950 . S
H1863 C1892 0.950 . S
H1864 C1894 0.950 . S
H1865 C1895 0.950 . S
C1866 H1848 0.951 . S
C1866 C1867 1.366 . S
C1866 C1868 1.388 . S
C1867 C1866 1.366 . S
C1867 C1871 1.385 . S
C1868 H1849 0.951 . S
C1868 C1866 1.388 . S
C1868 C1869 1.366 . S
C1869 C1868 1.366 . S
C1869 C1870 1.414 . S
C1869 C1872 1.499 . S
C1870 H1850 0.950 . S
C1870 C1869 1.414 . S
C1870 C1871 1.374 . S
C1871 H1851 0.950 . S
C1871 C1867 1.385 . S
C1871 C1870 1.374 . S
C1872 C1869 1.499 . S
C1872 C1873 1.373 . S
C1872 C1874 1.389 . S
C1873 H1852 0.950 . S
C1873 C1872 1.373 . S
C1873 C1889 1.377 . S
C1874 C1872 1.389 . S
C1874 C1875 1.524 . S
C1874 C1888 1.377 . S
C1875 C1874 1.524 . S
C1875 C1876 1.397 . S
C1875 C1880 1.363 . S
C1876 H1853 0.950 . S
C1876 C1875 1.397 . S
C1876 C1877 1.334 . S
C1877 H1854 0.950 . S
C1877 C1876 1.334 . S
C1877 C1878 1.287 . S
C1878 C1877 1.287 . S
C1878 C1879 1.524 . S
C1878 H1897 0.913 . S
C1879 H1855 0.950 . S
C1879 C1878 1.524 . S
C1879 C1880 1.415 . S
C1880 H1856 0.950 . S
C1880 C1875 1.363 . S
C1880 C1879 1.415 . S
C1881 H1857 0.951 . S
C1881 C1882 1.366 . S
C1881 C1883 1.388 . S
C1882 C1881 1.366 . S
C1882 C1886 1.385 . S
C1883 H1858 0.951 . S
C1883 C1881 1.388 . S
C1883 C1884 1.366 . S
C1884 C1883 1.366 . S
C1884 C1885 1.414 . S
C1884 C1887 1.499 . S
C1885 H1859 0.950 . S
C1885 C1884 1.414 . S
C1885 C1886 1.374 . S
C1886 H1860 0.950 . S
C1886 C1882 1.385 . S
C1886 C1885 1.374 . S
C1887 C1884 1.499 . S
C1887 C1888 1.373 . S
C1887 C1889 1.389 . S
C1888 H1861 0.950 . S
C1888 C1874 1.377 . S
C1888 C1887 1.373 . S
C1889 C1873 1.377 . S
C1889 C1887 1.389 . S
C1889 C1890 1.524 . S
C1890 C1889 1.524 . S
C1890 C1891 1.397 . S
C1890 C1895 1.363 . S
C1891 H1862 0.950 . S
C1891 C1890 1.397 . S
C1891 C1892 1.334 . S
C1892 H1863 0.950 . S
C1892 C1891 1.334 . S
C1892 C1893 1.287 . S
C1893 C1892 1.287 . S
C1893 C1894 1.524 . S
C1893 H1896 0.999 . S
C1894 H1864 0.950 . S
C1894 C1893 1.524 . S
C1894 C1895 1.415 . S
C1895 H1865 0.950 . S
C1895 C1890 1.363 . S
C1895 C1894 1.415 . S
H1896 C1893 0.999 . S
H1897 C1878 0.913 . S
H1898 C1916 0.951 . S
H1899 C1918 0.951 . S
H1900 C1920 0.950 . S
H1901 C1921 0.950 . S
H1902 C1923 0.950 . S
H1903 C1926 0.950 . S
H1904 C1927 0.950 . S
H1905 C1929 0.950 . S
H1906 C1930 0.950 . S
H1907 C1931 0.951 . S
H1908 C1933 0.951 . S
H1909 C1935 0.950 . S
H1910 C1936 0.950 . S
H1911 C1938 0.950 . S
H1912 C1941 0.950 . S
H1913 C1942 0.950 . S
H1914 C1944 0.950 . S
H1915 C1945 0.950 . S
C1916 H1898 0.951 . S
C1916 C1917 1.366 . S
C1916 C1918 1.388 . S
C1917 C1916 1.366 . S
C1917 C1921 1.385 . S
C1918 H1899 0.951 . S
C1918 C1916 1.388 . S
C1918 C1919 1.366 . S
C1919 C1918 1.366 . S
C1919 C1920 1.414 . S
C1919 C1922 1.499 . S
C1920 H1900 0.950 . S
C1920 C1919 1.414 . S
C1920 C1921 1.374 . S
C1921 H1901 0.950 . S
C1921 C1917 1.385 . S
C1921 C1920 1.374 . S
C1922 C1919 1.499 . S
C1922 C1923 1.373 . S
C1922 C1924 1.389 . S
C1923 H1902 0.950 . S
C1923 C1922 1.373 . S
C1923 C1939 1.377 . S
C1924 C1922 1.389 . S
C1924 C1925 1.524 . S
C1924 C1938 1.377 . S
C1925 C1924 1.524 . S
C1925 C1926 1.397 . S
C1925 C1930 1.363 . S
C1926 H1903 0.950 . S
C1926 C1925 1.397 . S
C1926 C1927 1.334 . S
C1927 H1904 0.950 . S
C1927 C1926 1.334 . S
C1927 C1928 1.287 . S
C1928 C1927 1.287 . S
C1928 C1929 1.524 . S
C1928 H1947 0.913 . S
C1929 H1905 0.950 . S
C1929 C1928 1.524 . S
C1929 C1930 1.415 . S
C1930 H1906 0.950 . S
C1930 C1925 1.363 . S
C1930 C1929 1.415 . S
C1931 H1907 0.951 . S
C1931 C1932 1.366 . S
C1931 C1933 1.388 . S
C1932 C1931 1.366 . S
C1932 C1936 1.385 . S
C1933 H1908 0.951 . S
C1933 C1931 1.388 . S
C1933 C1934 1.366 . S
C1934 C1933 1.366 . S
C1934 C1935 1.414 . S
C1934 C1937 1.499 . S
C1935 H1909 0.950 . S
C1935 C1934 1.414 . S
C1935 C1936 1.374 . S
C1936 H1910 0.950 . S
C1936 C1932 1.385 . S
C1936 C1935 1.374 . S
C1937 C1934 1.499 . S
C1937 C1938 1.373 . S
C1937 C1939 1.389 . S
C1938 H1911 0.950 . S
C1938 C1924 1.377 . S
C1938 C1937 1.373 . S
C1939 C1923 1.377 . S
C1939 C1937 1.389 . S
C1939 C1940 1.524 . S
C1940 C1939 1.524 . S
C1940 C1941 1.397 . S
C1940 C1945 1.363 . S
C1941 H1912 0.950 . S
C1941 C1940 1.397 . S
C1941 C1942 1.334 . S
C1942 H1913 0.950 . S
C1942 C1941 1.334 . S
C1942 C1943 1.287 . S
C1943 C1942 1.287 . S
C1943 C1944 1.524 . S
C1943 H1946 0.999 . S
C1944 H1914 0.950 . S
C1944 C1943 1.524 . S
C1944 C1945 1.415 . S
C1945 H1915 0.950 . S
C1945 C1940 1.363 . S
C1945 C1944 1.415 . S
H1946 C1943 0.999 . S
H1947 C1928 0.913 . S
H1948 C1966 0.951 . S
H1949 C1968 0.951 . S
H1950 C1970 0.950 . S
H1951 C1971 0.950 . S
H1952 C1973 0.950 . S
H1953 C1976 0.950 . S
H1954 C1977 0.950 . S
H1955 C1979 0.950 . S
H1956 C1980 0.950 . S
H1957 C1981 0.951 . S
H1958 C1983 0.951 . S
H1959 C1985 0.950 . S
H1960 C1986 0.950 . S
H1961 C1988 0.950 . S
H1962 C1991 0.950 . S
H1963 C1992 0.950 . S
H1964 C1994 0.950 . S
H1965 C1995 0.950 . S
C1966 H1948 0.951 . S
C1966 C1967 1.366 . S
C1966 C1968 1.388 . S
C1967 C1966 1.366 . S
C1967 C1971 1.385 . S
C1968 H1949 0.951 . S
C1968 C1966 1.388 . S
C1968 C1969 1.366 . S
C1969 C1968 1.366 . S
C1969 C1970 1.414 . S
C1969 C1972 1.499 . S
C1970 H1950 0.950 . S
C1970 C1969 1.414 . S
C1970 C1971 1.374 . S
C1971 H1951 0.950 . S
C1971 C1967 1.385 . S
C1971 C1970 1.374 . S
C1972 C1969 1.499 . S
C1972 C1973 1.373 . S
C1972 C1974 1.389 . S
C1973 H1952 0.950 . S
C1973 C1972 1.373 . S
C1973 C1989 1.377 . S
C1974 C1972 1.389 . S
C1974 C1975 1.524 . S
C1974 C1988 1.377 . S
C1975 C1974 1.524 . S
C1975 C1976 1.397 . S
C1975 C1980 1.363 . S
C1976 H1953 0.950 . S
C1976 C1975 1.397 . S
C1976 C1977 1.334 . S
C1977 H1954 0.950 . S
C1977 C1976 1.334 . S
C1977 C1978 1.287 . S
C1978 C1977 1.287 . S
C1978 C1979 1.524 . S
C1978 H1997 0.913 . S
C1979 H1955 0.950 . S
C1979 C1978 1.524 . S
C1979 C1980 1.415 . S
C1980 H1956 0.950 . S
C1980 C1975 1.363 . S
C1980 C1979 1.415 . S
C1981 H1957 0.951 . S
C1981 C1982 1.366 . S
C1981 C1983 1.388 . S
C1982 C1981 1.366 . S
C1982 C1986 1.385 . S
C1983 H1958 0.951 . S
C1983 C1981 1.388 . S
C1983 C1984 1.366 . S
C1984 C1983 1.366 . S
C1984 C1985 1.414 . S
C1984 C1987 1.499 . S
C1985 H1959 0.950 . S
C1985 C1984 1.414 . S
C1985 C1986 1.374 . S
C1986 H1960 0.950 . S
C1986 C1982 1.385 . S
C1986 C1985 1.374 . S
C1987 C1984 1.499 . S
C1987 C1988 1.373 . S
C1987 C1989 1.389 . S
C1988 H1961 0.950 . S
C1988 C1974 1.377 . S
C1988 C1987 1.373 . S
C1989 C1973 1.377 . S
C1989 C1987 1.389 . S
C1989 C1990 1.524 . S
C1990 C1989 1.524 . S
C1990 C1991 1.397 . S
C1990 C1995 1.363 . S
C1991 H1962 0.950 . S
C1991 C1990 1.397 . S
C1991 C1992 1.334 . S
C1992 H1963 0.950 . S
C1992 C1991 1.334 . S
C1992 C1993 1.287 . S
C1993 C1992 1.287 . S
C1993 C1994 1.524 . S
C1993 H1996 0.999 . S
C1994 H1964 0.950 . S
C1994 C1993 1.524 . S
C1994 C1995 1.415 . S
C1995 H1965 0.950 . S
C1995 C1990 1.363 . S
C1995 C1994 1.415 . S
H1996 C1993 0.999 . S
H1997 C1978 0.913 . S
H1998 C2016 0.951 . S
H1999 C2018 0.951 . S
H2000 C2020 0.950 . S
H2001 C2021 0.950 . S
H2002 C2023 0.950 . S
H2003 C2026 0.950 . S
H2004 C2027 0.950 . S
H2005 C2029 0.950 . S
H2006 C2030 0.950 . S
H2007 C2031 0.951 . S
H2008 C2033 0.951 . S
H2009 C2035 0.950 . S
H2010 C2036 0.950 . S
H2011 C2038 0.950 . S
H2012 C2041 0.950 . S
H2013 C2042 0.950 . S
H2014 C2044 0.950 . S
H2015 C2045 0.950 . S
C2016 H1998 0.951 . S
C2016 C2017 1.366 . S
C2016 C2018 1.388 . S
C2017 C2016 1.366 . S
C2017 C2021 1.385 . S
C2018 H1999 0.951 . S
C2018 C2016 1.388 . S
C2018 C2019 1.366 . S
C2019 C2018 1.366 . S
C2019 C2020 1.414 . S
C2019 C2022 1.499 . S
C2020 H2000 0.950 . S
C2020 C2019 1.414 . S
C2020 C2021 1.374 . S
C2021 H2001 0.950 . S
C2021 C2017 1.385 . S
C2021 C2020 1.374 . S
C2022 C2019 1.499 . S
C2022 C2023 1.373 . S
C2022 C2024 1.389 . S
C2023 H2002 0.950 . S
C2023 C2022 1.373 . S
C2023 C2039 1.377 . S
C2024 C2022 1.389 . S
C2024 C2025 1.524 . S
C2024 C2038 1.377 . S
C2025 C2024 1.524 . S
C2025 C2026 1.397 . S
C2025 C2030 1.363 . S
C2026 H2003 0.950 . S
C2026 C2025 1.397 . S
C2026 C2027 1.334 . S
C2027 H2004 0.950 . S
C2027 C2026 1.334 . S
C2027 C2028 1.287 . S
C2028 C2027 1.287 . S
C2028 C2029 1.524 . S
C2028 H2047 0.913 . S
C2029 H2005 0.950 . S
C2029 C2028 1.524 . S
C2029 C2030 1.415 . S
C2030 H2006 0.950 . S
C2030 C2025 1.363 . S
C2030 C2029 1.415 . S
C2031 H2007 0.951 . S
C2031 C2032 1.366 . S
C2031 C2033 1.388 . S
C2032 C2031 1.366 . S
C2032 C2036 1.385 . S
C2033 H2008 0.951 . S
C2033 C2031 1.388 . S
C2033 C2034 1.366 . S
C2034 C2033 1.366 . S
C2034 C2035 1.414 . S
C2034 C2037 1.499 . S
C2035 H2009 0.950 . S
C2035 C2034 1.414 . S
C2035 C2036 1.374 . S
C2036 H2010 0.950 . S
C2036 C2032 1.385 . S
C2036 C2035 1.374 . S
C2037 C2034 1.499 . S
C2037 C2038 1.373 . S
C2037 C2039 1.389 . S
C2038 H2011 0.950 . S
C2038 C2024 1.377 . S
C2038 C2037 1.373 . S
C2039 C2023 1.377 . S
C2039 C2037 1.389 . S
C2039 C2040 1.524 . S
C2040 C2039 1.524 . S
C2040 C2041 1.397 . S
C2040 C2045 1.363 . S
C2041 H2012 0.950 . S
C2041 C2040 1.397 . S
C2041 C2042 1.334 . S
C2042 H2013 0.950 . S
C2042 C2041 1.334 . S
C2042 C2043 1.287 . S
C2043 C2042 1.287 . S
C2043 C2044 1.524 . S
C2043 H2046 0.999 . S
C2044 H2014 0.950 . S
C2044 C2043 1.524 . S
C2044 C2045 1.415 . S
C2045 H2015 0.950 . S
C2045 C2040 1.363 . S
C2045 C2044 1.415 . S
H2046 C2043 0.999 . S
H2047 C2028 0.913 . S
H2048 C2066 0.951 . S
H2049 C2068 0.951 . S
H2050 C2070 0.950 . S
H2051 C2071 0.950 . S
H2052 C2073 0.950 . S
H2053 C2076 0.950 . S
H2054 C2077 0.950 . S
H2055 C2079 0.950 . S
H2056 C2080 0.950 . S
H2057 C2081 0.951 . S
H2058 C2083 0.951 . S
H2059 C2085 0.950 . S
H2060 C2086 0.950 . S
H2061 C2088 0.950 . S
H2062 C2091 0.950 . S
H2063 C2092 0.950 . S
H2064 C2094 0.950 . S
H2065 C2095 0.950 . S
C2066 H2048 0.951 . S
C2066 C2067 1.366 . S
C2066 C2068 1.388 . S
C2067 C2066 1.366 . S
C2067 C2071 1.385 . S
C2068 H2049 0.951 . S
C2068 C2066 1.388 . S
C2068 C2069 1.366 . S
C2069 C2068 1.366 . S
C2069 C2070 1.414 . S
C2069 C2072 1.499 . S
C2070 H2050 0.950 . S
C2070 C2069 1.414 . S
C2070 C2071 1.374 . S
C2071 H2051 0.950 . S
C2071 C2067 1.385 . S
C2071 C2070 1.374 . S
C2072 C2069 1.499 . S
C2072 C2073 1.373 . S
C2072 C2074 1.389 . S
C2073 H2052 0.950 . S
C2073 C2072 1.373 . S
C2073 C2089 1.377 . S
C2074 C2072 1.389 . S
C2074 C2075 1.524 . S
C2074 C2088 1.377 . S
C2075 C2074 1.524 . S
C2075 C2076 1.397 . S
C2075 C2080 1.363 . S
C2076 H2053 0.950 . S
C2076 C2075 1.397 . S
C2076 C2077 1.334 . S
C2077 H2054 0.950 . S
C2077 C2076 1.334 . S
C2077 C2078 1.287 . S
C2078 C2077 1.287 . S
C2078 C2079 1.524 . S
C2078 H2097 0.913 . S
C2079 H2055 0.950 . S
C2079 C2078 1.524 . S
C2079 C2080 1.415 . S
C2080 H2056 0.950 . S
C2080 C2075 1.363 . S
C2080 C2079 1.415 . S
C2081 H2057 0.951 . S
C2081 C2082 1.366 . S
C2081 C2083 1.388 . S
C2082 C2081 1.366 . S
C2082 C2086 1.385 . S
C2083 H2058 0.951 . S
C2083 C2081 1.388 . S
C2083 C2084 1.366 . S
C2084 C2083 1.366 . S
C2084 C2085 1.414 . S
C2084 C2087 1.499 . S
C2085 H2059 0.950 . S
C2085 C2084 1.414 . S
C2085 C2086 1.374 . S
C2086 H2060 0.950 . S
C2086 C2082 1.385 . S
C2086 C2085 1.374 . S
C2087 C2084 1.499 . S
C2087 C2088 1.373 . S
C2087 C2089 1.389 . S
C2088 H2061 0.950 . S
C2088 C2074 1.377 . S
C2088 C2087 1.373 . S
C2089 C2073 1.377 . S
C2089 C2087 1.389 . S
C2089 C2090 1.524 . S
C2090 C2089 1.524 . S
C2090 C2091 1.397 . S
C2090 C2095 1.363 . S
C2091 H2062 0.950 . S
C2091 C2090 1.397 . S
C2091 C2092 1.334 . S
C2092 H2063 0.950 . S
C2092 C2091 1.334 . S
C2092 C2093 1.287 . S
C2093 C2092 1.287 . S
C2093 C2094 1.524 . S
C2093 H2096 0.999 . S
C2094 H2064 0.950 . S
C2094 C2093 1.524 . S
C2094 C2095 1.415 . S
C2095 H2065 0.950 . S
C2095 C2090 1.363 . S
C2095 C2094 1.415 . S
H2096 C2093 0.999 . S
H2097 C2078 0.913 . S
H2098 C2116 0.951 . S
H2099 C2118 0.951 . S
H2100 C2120 0.950 . S
H2101 C2121 0.950 . S
H2102 C2123 0.950 . S
H2103 C2126 0.950 . S
H2104 C2127 0.950 . S
H2105 C2129 0.950 . S
H2106 C2130 0.950 . S
H2107 C2131 0.951 . S
H2108 C2133 0.951 . S
H2109 C2135 0.950 . S
H2110 C2136 0.950 . S
H2111 C2138 0.950 . S
H2112 C2141 0.950 . S
H2113 C2142 0.950 . S
H2114 C2144 0.950 . S
H2115 C2145 0.950 . S
C2116 H2098 0.951 . S
C2116 C2117 1.366 . S
C2116 C2118 1.388 . S
C2117 C2116 1.366 . S
C2117 C2121 1.385 . S
C2118 H2099 0.951 . S
C2118 C2116 1.388 . S
C2118 C2119 1.366 . S
C2119 C2118 1.366 . S
C2119 C2120 1.414 . S
C2119 C2122 1.499 . S
C2120 H2100 0.950 . S
C2120 C2119 1.414 . S
C2120 C2121 1.374 . S
C2121 H2101 0.950 . S
C2121 C2117 1.385 . S
C2121 C2120 1.374 . S
C2122 C2119 1.499 . S
C2122 C2123 1.373 . S
C2122 C2124 1.389 . S
C2123 H2102 0.950 . S
C2123 C2122 1.373 . S
C2123 C2139 1.377 . S
C2124 C2122 1.389 . S
C2124 C2125 1.524 . S
C2124 C2138 1.377 . S
C2125 C2124 1.524 . S
C2125 C2126 1.397 . S
C2125 C2130 1.363 . S
C2126 H2103 0.950 . S
C2126 C2125 1.397 . S
C2126 C2127 1.334 . S
C2127 H2104 0.950 . S
C2127 C2126 1.334 . S
C2127 C2128 1.287 . S
C2128 C2127 1.287 . S
C2128 C2129 1.524 . S
C2128 H2147 0.913 . S
C2129 H2105 0.950 . S
C2129 C2128 1.524 . S
C2129 C2130 1.415 . S
C2130 H2106 0.950 . S
C2130 C2125 1.363 . S
C2130 C2129 1.415 . S
C2131 H2107 0.951 . S
C2131 C2132 1.366 . S
C2131 C2133 1.388 . S
C2132 C2131 1.366 . S
C2132 C2136 1.385 . S
C2133 H2108 0.951 . S
C2133 C2131 1.388 . S
C2133 C2134 1.366 . S
C2134 C2133 1.366 . S
C2134 C2135 1.414 . S
C2134 C2137 1.499 . S
C2135 H2109 0.950 . S
C2135 C2134 1.414 . S
C2135 C2136 1.374 . S
C2136 H2110 0.950 . S
C2136 C2132 1.385 . S
C2136 C2135 1.374 . S
C2137 C2134 1.499 . S
C2137 C2138 1.373 . S
C2137 C2139 1.389 . S
C2138 H2111 0.950 . S
C2138 C2124 1.377 . S
C2138 C2137 1.373 . S
C2139 C2123 1.377 . S
C2139 C2137 1.389 . S
C2139 C2140 1.524 . S
C2140 C2139 1.524 . S
C2140 C2141 1.397 . S
C2140 C2145 1.363 . S
C2141 H2112 0.950 . S
C2141 C2140 1.397 . S
C2141 C2142 1.334 . S
C2142 H2113 0.950 . S
C2142 C2141 1.334 . S
C2142 C2143 1.287 . S
C2143 C2142 1.287 . S
C2143 C2144 1.524 . S
C2143 H2146 0.999 . S
C2144 H2114 0.950 . S
C2144 C2143 1.524 . S
C2144 C2145 1.415 . S
C2145 H2115 0.950 . S
C2145 C2140 1.363 . S
C2145 C2144 1.415 . S
H2146 C2143 0.999 . S
H2147 C2128 0.913 . S
H2148 C2166 0.951 . S
H2149 C2168 0.951 . S
H2150 C2170 0.950 . S
H2151 C2171 0.950 . S
H2152 C2173 0.950 . S
H2153 C2176 0.950 . S
H2154 C2177 0.950 . S
H2155 C2179 0.950 . S
H2156 C2180 0.950 . S
H2157 C2181 0.951 . S
H2158 C2183 0.951 . S
H2159 C2185 0.950 . S
H2160 C2186 0.950 . S
H2161 C2188 0.950 . S
H2162 C2191 0.950 . S
H2163 C2192 0.950 . S
H2164 C2194 0.950 . S
H2165 C2195 0.950 . S
C2166 H2148 0.951 . S
C2166 C2167 1.366 . S
C2166 C2168 1.388 1_545 S
C2167 C2166 1.366 . S
C2167 C2171 1.385 . S
C2168 H2149 0.951 . S
C2168 C2166 1.388 1_565 S
C2168 C2169 1.366 . S
C2169 C2168 1.366 . S
C2169 C2170 1.414 . S
C2169 C2172 1.499 . S
C2170 H2150 0.950 . S
C2170 C2169 1.414 . S
C2170 C2171 1.374 1_565 S
C2171 H2151 0.950 . S
C2171 C2167 1.385 . S
C2171 C2170 1.374 1_545 S
C2172 C2169 1.499 . S
C2172 C2173 1.373 . S
C2172 C2174 1.389 . S
C2173 H2152 0.950 . S
C2173 C2172 1.373 . S
C2173 C2189 1.377 . S
C2174 C2172 1.389 . S
C2174 C2175 1.524 . S
C2174 C2188 1.377 . S
C2175 C2174 1.524 . S
C2175 C2176 1.397 . S
C2175 C2180 1.363 . S
C2176 H2153 0.950 . S
C2176 C2175 1.397 . S
C2176 C2177 1.334 . S
C2177 H2154 0.950 . S
C2177 C2176 1.334 . S
C2177 C2178 1.287 . S
C2178 C2177 1.287 . S
C2178 C2179 1.524 . S
C2178 H2197 0.913 . S
C2179 H2155 0.950 . S
C2179 C2178 1.524 . S
C2179 C2180 1.415 . S
C2180 H2156 0.950 . S
C2180 C2175 1.363 . S
C2180 C2179 1.415 . S
C2181 H2157 0.951 . S
C2181 C2182 1.366 . S
C2181 C2183 1.388 . S
C2182 C2181 1.366 . S
C2182 C2186 1.385 . S
C2183 H2158 0.951 . S
C2183 C2181 1.388 . S
C2183 C2184 1.366 . S
C2184 C2183 1.366 . S
C2184 C2185 1.414 . S
C2184 C2187 1.499 . S
C2185 H2159 0.950 . S
C2185 C2184 1.414 . S
C2185 C2186 1.374 . S
C2186 H2160 0.950 . S
C2186 C2182 1.385 . S
C2186 C2185 1.374 . S
C2187 C2184 1.499 . S
C2187 C2188 1.373 . S
C2187 C2189 1.389 . S
C2188 H2161 0.950 . S
C2188 C2174 1.377 . S
C2188 C2187 1.373 . S
C2189 C2173 1.377 . S
C2189 C2187 1.389 . S
C2189 C2190 1.524 . S
C2190 C2189 1.524 . S
C2190 C2191 1.397 . S
C2190 C2195 1.363 . S
C2191 H2162 0.950 . S
C2191 C2190 1.397 . S
C2191 C2192 1.334 . S
C2192 H2163 0.950 . S
C2192 C2191 1.334 . S
C2192 C2193 1.287 . S
C2193 C2192 1.287 . S
C2193 C2194 1.524 . S
C2193 H2196 0.999 . S
C2194 H2164 0.950 . S
C2194 C2193 1.524 . S
C2194 C2195 1.415 . S
C2195 H2165 0.950 . S
C2195 C2190 1.363 . S
C2195 C2194 1.415 . S
H2196 C2193 0.999 . S
H2197 C2178 0.913 . S
H2198 C2216 0.951 1_655 S
H2199 C2218 0.951 . S
H2200 C2220 0.950 . S
H2201 C2221 0.950 . S
H2202 C2223 0.950 . S
H2203 C2226 0.950 . S
H2204 C2227 0.950 . S
H2205 C2229 0.950 . S
H2206 C2230 0.950 . S
H2207 C2231 0.951 . S
H2208 C2233 0.951 . S
H2209 C2235 0.950 . S
H2210 C2236 0.950 . S
H2211 C2238 0.950 . S
H2212 C2241 0.950 . S
H2213 C2242 0.950 . S
H2214 C2244 0.950 . S
H2215 C2245 0.950 . S
C2216 H2198 0.951 1_455 S
C2216 C2217 1.366 1_455 S
C2216 C2218 1.388 . S
C2217 C2216 1.366 1_655 S
C2217 C2221 1.385 1_655 S
C2218 H2199 0.951 . S
C2218 C2216 1.388 . S
C2218 C2219 1.366 . S
C2219 C2218 1.366 . S
C2219 C2220 1.414 . S
C2219 C2222 1.499 . S
C2220 H2200 0.950 . S
C2220 C2219 1.414 . S
C2220 C2221 1.374 . S
C2221 H2201 0.950 . S
C2221 C2217 1.385 1_455 S
C2221 C2220 1.374 . S
C2222 C2219 1.499 . S
C2222 C2223 1.373 . S
C2222 C2224 1.389 . S
C2223 H2202 0.950 . S
C2223 C2222 1.373 . S
C2223 C2239 1.377 . S
C2224 C2222 1.389 . S
C2224 C2225 1.524 . S
C2224 C2238 1.377 . S
C2225 C2224 1.524 . S
C2225 C2226 1.397 . S
C2225 C2230 1.363 . S
C2226 H2203 0.950 . S
C2226 C2225 1.397 . S
C2226 C2227 1.334 . S
C2227 H2204 0.950 . S
C2227 C2226 1.334 . S
C2227 C2228 1.287 . S
C2228 C2227 1.287 . S
C2228 C2229 1.524 . S
C2228 H2247 0.913 . S
C2229 H2205 0.950 . S
C2229 C2228 1.524 . S
C2229 C2230 1.415 . S
C2230 H2206 0.950 . S
C2230 C2225 1.363 . S
C2230 C2229 1.415 . S
C2231 H2207 0.951 . S
C2231 C2232 1.366 . S
C2231 C2233 1.388 . S
C2232 C2231 1.366 . S
C2232 C2236 1.385 . S
C2233 H2208 0.951 . S
C2233 C2231 1.388 . S
C2233 C2234 1.366 . S
C2234 C2233 1.366 . S
C2234 C2235 1.414 . S
C2234 C2237 1.499 . S
C2235 H2209 0.950 . S
C2235 C2234 1.414 . S
C2235 C2236 1.374 . S
C2236 H2210 0.950 . S
C2236 C2232 1.385 . S
C2236 C2235 1.374 . S
C2237 C2234 1.499 . S
C2237 C2238 1.373 . S
C2237 C2239 1.389 . S
C2238 H2211 0.950 . S
C2238 C2224 1.377 . S
C2238 C2237 1.373 . S
C2239 C2223 1.377 . S
C2239 C2237 1.389 . S
C2239 C2240 1.524 . S
C2240 C2239 1.524 . S
C2240 C2241 1.397 . S
C2240 C2245 1.363 . S
C2241 H2212 0.950 . S
C2241 C2240 1.397 . S
C2241 C2242 1.334 . S
C2242 H2213 0.950 . S
C2242 C2241 1.334 . S
C2242 C2243 1.287 . S
C2243 C2242 1.287 . S
C2243 C2244 1.524 . S
C2243 H2246 0.999 . S
C2244 H2214 0.950 . S
C2244 C2243 1.524 . S
C2244 C2245 1.415 . S
C2245 H2215 0.950 . S
C2245 C2240 1.363 . S
C2245 C2244 1.415 . S
H2246 C2243 0.999 . S
H2247 C2228 0.913 . S
H2248 C2266 0.951 . S
H2249 C2268 0.951 . S
H2250 C2270 0.950 . S
H2251 C2271 0.950 . S
H2252 C2273 0.950 . S
H2253 C2276 0.950 . S
H2254 C2277 0.950 . S
H2255 C2279 0.950 . S
H2256 C2280 0.950 . S
H2257 C2281 0.951 . S
H2258 C2283 0.951 . S
H2259 C2285 0.950 . S
H2260 C2286 0.950 . S
H2261 C2288 0.950 . S
H2262 C2291 0.950 . S
H2263 C2292 0.950 . S
H2264 C2294 0.950 . S
H2265 C2295 0.950 . S
C2266 H2248 0.951 . S
C2266 C2267 1.366 . S
C2266 C2268 1.388 . S
C2267 C2266 1.366 . S
C2267 C2271 1.385 . S
C2268 H2249 0.951 . S
C2268 C2266 1.388 . S
C2268 C2269 1.366 . S
C2269 C2268 1.366 . S
C2269 C2270 1.414 . S
C2269 C2272 1.499 . S
C2270 H2250 0.950 . S
C2270 C2269 1.414 . S
C2270 C2271 1.374 . S
C2271 H2251 0.950 . S
C2271 C2267 1.385 . S
C2271 C2270 1.374 . S
C2272 C2269 1.499 . S
C2272 C2273 1.373 . S
C2272 C2274 1.389 . S
C2273 H2252 0.950 . S
C2273 C2272 1.373 . S
C2273 C2289 1.377 . S
C2274 C2272 1.389 . S
C2274 C2275 1.524 . S
C2274 C2288 1.377 . S
C2275 C2274 1.524 . S
C2275 C2276 1.397 . S
C2275 C2280 1.363 . S
C2276 H2253 0.950 . S
C2276 C2275 1.397 . S
C2276 C2277 1.334 . S
C2277 H2254 0.950 . S
C2277 C2276 1.334 . S
C2277 C2278 1.287 . S
C2278 C2277 1.287 . S
C2278 C2279 1.524 . S
C2278 H2297 0.913 . S
C2279 H2255 0.950 . S
C2279 C2278 1.524 . S
C2279 C2280 1.415 . S
C2280 H2256 0.950 . S
C2280 C2275 1.363 . S
C2280 C2279 1.415 . S
C2281 H2257 0.951 . S
C2281 C2282 1.366 . S
C2281 C2283 1.388 . S
C2282 C2281 1.366 . S
C2282 C2286 1.385 . S
C2283 H2258 0.951 . S
C2283 C2281 1.388 . S
C2283 C2284 1.366 . S
C2284 C2283 1.366 . S
C2284 C2285 1.414 . S
C2284 C2287 1.499 . S
C2285 H2259 0.950 . S
C2285 C2284 1.414 . S
C2285 C2286 1.374 . S
C2286 H2260 0.950 . S
C2286 C2282 1.385 . S
C2286 C2285 1.374 . S
C2287 C2284 1.499 . S
C2287 C2288 1.373 . S
C2287 C2289 1.389 . S
C2288 H2261 0.950 . S
C2288 C2274 1.377 . S
C2288 C2287 1.373 . S
C2289 C2273 1.377 . S
C2289 C2287 1.389 . S
C2289 C2290 1.524 . S
C2290 C2289 1.524 . S
C2290 C2291 1.397 . S
C2290 C2295 1.363 . S
C2291 H2262 0.950 . S
C2291 C2290 1.397 . S
C2291 C2292 1.334 . S
C2292 H2263 0.950 . S
C2292 C2291 1.334 . S
C2292 C2293 1.287 . S
C2293 C2292 1.287 . S
C2293 C2294 1.524 . S
C2293 H2296 0.999 . S
C2294 H2264 0.950 . S
C2294 C2293 1.524 . S
C2294 C2295 1.415 . S
C2295 H2265 0.950 . S
C2295 C2290 1.363 . S
C2295 C2294 1.415 . S
H2296 C2293 0.999 . S
H2297 C2278 0.913 . S
H2298 C2316 0.951 . S
H2299 C2318 0.951 . S
H2300 C2320 0.950 . S
H2301 C2321 0.950 . S
H2302 C2323 0.950 . S
H2303 C2326 0.950 . S
H2304 C2327 0.950 . S
H2305 C2329 0.950 . S
H2306 C2330 0.950 . S
H2307 C2331 0.951 . S
H2308 C2333 0.951 . S
H2309 C2335 0.950 . S
H2310 C2336 0.950 . S
H2311 C2338 0.950 . S
H2312 C2341 0.950 . S
H2313 C2342 0.950 . S
H2314 C2344 0.950 . S
H2315 C2345 0.950 . S
C2316 H2298 0.951 . S
C2316 C2317 1.366 . S
C2316 C2318 1.388 . S
C2317 C2316 1.366 . S
C2317 C2321 1.385 . S
C2318 H2299 0.951 . S
C2318 C2316 1.388 . S
C2318 C2319 1.366 . S
C2319 C2318 1.366 . S
C2319 C2320 1.414 . S
C2319 C2322 1.499 . S
C2320 H2300 0.950 . S
C2320 C2319 1.414 . S
C2320 C2321 1.374 . S
C2321 H2301 0.950 . S
C2321 C2317 1.385 . S
C2321 C2320 1.374 . S
C2322 C2319 1.499 . S
C2322 C2323 1.373 . S
C2322 C2324 1.389 . S
C2323 H2302 0.950 . S
C2323 C2322 1.373 . S
C2323 C2339 1.377 . S
C2324 C2322 1.389 . S
C2324 C2325 1.524 . S
C2324 C2338 1.377 . S
C2325 C2324 1.524 . S
C2325 C2326 1.397 . S
C2325 C2330 1.363 . S
C2326 H2303 0.950 . S
C2326 C2325 1.397 . S
C2326 C2327 1.334 . S
C2327 H2304 0.950 . S
C2327 C2326 1.334 . S
C2327 C2328 1.287 . S
C2328 C2327 1.287 . S
C2328 C2329 1.524 . S
C2328 H2347 0.913 . S
C2329 H2305 0.950 . S
C2329 C2328 1.524 . S
C2329 C2330 1.415 . S
C2330 H2306 0.950 . S
C2330 C2325 1.363 . S
C2330 C2329 1.415 . S
C2331 H2307 0.951 . S
C2331 C2332 1.366 . S
C2331 C2333 1.388 . S
C2332 C2331 1.366 . S
C2332 C2336 1.385 . S
C2333 H2308 0.951 . S
C2333 C2331 1.388 . S
C2333 C2334 1.366 . S
C2334 C2333 1.366 . S
C2334 C2335 1.414 . S
C2334 C2337 1.499 . S
C2335 H2309 0.950 . S
C2335 C2334 1.414 . S
C2335 C2336 1.374 . S
C2336 H2310 0.950 . S
C2336 C2332 1.385 . S
C2336 C2335 1.374 . S
C2337 C2334 1.499 . S
C2337 C2338 1.373 . S
C2337 C2339 1.389 . S
C2338 H2311 0.950 . S
C2338 C2324 1.377 . S
C2338 C2337 1.373 . S
C2339 C2323 1.377 . S
C2339 C2337 1.389 . S
C2339 C2340 1.524 . S
C2340 C2339 1.524 . S
C2340 C2341 1.397 . S
C2340 C2345 1.363 . S
C2341 H2312 0.950 . S
C2341 C2340 1.397 . S
C2341 C2342 1.334 . S
C2342 H2313 0.950 . S
C2342 C2341 1.334 . S
C2342 C2343 1.287 . S
C2343 C2342 1.287 . S
C2343 C2344 1.524 . S
C2343 H2346 0.999 . S
C2344 H2314 0.950 . S
C2344 C2343 1.524 . S
C2344 C2345 1.415 . S
C2345 H2315 0.950 . S
C2345 C2340 1.363 . S
C2345 C2344 1.415 . S
H2346 C2343 0.999 . S
H2347 C2328 0.913 . S
H2348 C2366 0.951 . S
H2349 C2368 0.951 . S
H2350 C2370 0.950 . S
H2351 C2371 0.950 . S
H2352 C2373 0.950 . S
H2353 C2376 0.950 . S
H2354 C2377 0.950 . S
H2355 C2379 0.950 . S
H2356 C2380 0.950 . S
H2357 C2381 0.951 . S
H2358 C2383 0.951 . S
H2359 C2385 0.950 . S
H2360 C2386 0.950 . S
H2361 C2388 0.950 . S
H2362 C2391 0.950 . S
H2363 C2392 0.950 . S
H2364 C2394 0.950 . S
H2365 C2395 0.950 . S
C2366 H2348 0.951 . S
C2366 C2367 1.366 . S
C2366 C2368 1.388 . S
C2367 C2366 1.366 . S
C2367 C2371 1.385 . S
C2368 H2349 0.951 . S
C2368 C2366 1.388 . S
C2368 C2369 1.366 . S
C2369 C2368 1.366 . S
C2369 C2370 1.414 . S
C2369 C2372 1.499 . S
C2370 H2350 0.950 . S
C2370 C2369 1.414 . S
C2370 C2371 1.374 . S
C2371 H2351 0.950 . S
C2371 C2367 1.385 . S
C2371 C2370 1.374 . S
C2372 C2369 1.499 . S
C2372 C2373 1.373 . S
C2372 C2374 1.389 . S
C2373 H2352 0.950 . S
C2373 C2372 1.373 . S
C2373 C2389 1.377 . S
C2374 C2372 1.389 . S
C2374 C2375 1.524 . S
C2374 C2388 1.377 . S
C2375 C2374 1.524 . S
C2375 C2376 1.397 . S
C2375 C2380 1.363 . S
C2376 H2353 0.950 . S
C2376 C2375 1.397 . S
C2376 C2377 1.334 . S
C2377 H2354 0.950 . S
C2377 C2376 1.334 . S
C2377 C2378 1.287 . S
C2378 C2377 1.287 . S
C2378 C2379 1.524 . S
C2378 H2397 0.913 . S
C2379 H2355 0.950 . S
C2379 C2378 1.524 . S
C2379 C2380 1.415 . S
C2380 H2356 0.950 . S
C2380 C2375 1.363 . S
C2380 C2379 1.415 . S
C2381 H2357 0.951 . S
C2381 C2382 1.366 . S
C2381 C2383 1.388 . S
C2382 C2381 1.366 . S
C2382 C2386 1.385 . S
C2383 H2358 0.951 . S
C2383 C2381 1.388 . S
C2383 C2384 1.366 . S
C2384 C2383 1.366 . S
C2384 C2385 1.414 . S
C2384 C2387 1.499 . S
C2385 H2359 0.950 . S
C2385 C2384 1.414 . S
C2385 C2386 1.374 . S
C2386 H2360 0.950 . S
C2386 C2382 1.385 . S
C2386 C2385 1.374 . S
C2387 C2384 1.499 . S
C2387 C2388 1.373 . S
C2387 C2389 1.389 . S
C2388 H2361 0.950 . S
C2388 C2374 1.377 . S
C2388 C2387 1.373 . S
C2389 C2373 1.377 . S
C2389 C2387 1.389 . S
C2389 C2390 1.524 . S
C2390 C2389 1.524 . S
C2390 C2391 1.397 . S
C2390 C2395 1.363 . S
C2391 H2362 0.950 . S
C2391 C2390 1.397 . S
C2391 C2392 1.334 . S
C2392 H2363 0.950 . S
C2392 C2391 1.334 . S
C2392 C2393 1.287 . S
C2393 C2392 1.287 . S
C2393 C2394 1.524 . S
C2393 H2396 0.999 . S
C2394 H2364 0.950 . S
C2394 C2393 1.524 . S
C2394 C2395 1.415 . S
C2395 H2365 0.950 . S
C2395 C2390 1.363 . S
C2395 C2394 1.415 . S
H2396 C2393 0.999 . S
H2397 C2378 0.913 . S
H2398 C2416 0.951 . S
H2399 C2418 0.951 . S
H2400 C2420 0.950 . S
H2401 C2421 0.950 . S
H2402 C2423 0.950 . S
H2403 C2426 0.950 . S
H2404 C2427 0.950 . S
H2405 C2429 0.950 . S
H2406 C2430 0.950 . S
H2407 C2431 0.951 . S
H2408 C2433 0.951 . S
H2409 C2435 0.950 . S
H2410 C2436 0.950 . S
H2411 C2438 0.950 . S
H2412 C2441 0.950 . S
H2413 C2442 0.950 . S
H2414 C2444 0.950 . S
H2415 C2445 0.950 . S
C2416 H2398 0.951 . S
C2416 C2417 1.366 . S
C2416 C2418 1.388 . S
C2417 C2416 1.366 . S
C2417 C2421 1.385 . S
C2418 H2399 0.951 . S
C2418 C2416 1.388 . S
C2418 C2419 1.366 . S
C2419 C2418 1.366 . S
C2419 C2420 1.414 . S
C2419 C2422 1.499 . S
C2420 H2400 0.950 . S
C2420 C2419 1.414 . S
C2420 C2421 1.374 . S
C2421 H2401 0.950 . S
C2421 C2417 1.385 . S
C2421 C2420 1.374 . S
C2422 C2419 1.499 . S
C2422 C2423 1.373 . S
C2422 C2424 1.389 . S
C2423 H2402 0.950 . S
C2423 C2422 1.373 . S
C2423 C2439 1.377 . S
C2424 C2422 1.389 . S
C2424 C2425 1.524 . S
C2424 C2438 1.377 . S
C2425 C2424 1.524 . S
C2425 C2426 1.397 . S
C2425 C2430 1.363 . S
C2426 H2403 0.950 . S
C2426 C2425 1.397 . S
C2426 C2427 1.334 . S
C2427 H2404 0.950 . S
C2427 C2426 1.334 . S
C2427 C2428 1.287 . S
C2428 C2427 1.287 . S
C2428 C2429 1.524 . S
C2428 H2447 0.913 . S
C2429 H2405 0.950 . S
C2429 C2428 1.524 . S
C2429 C2430 1.415 . S
C2430 H2406 0.950 . S
C2430 C2425 1.363 . S
C2430 C2429 1.415 . S
C2431 H2407 0.951 . S
C2431 C2432 1.366 . S
C2431 C2433 1.388 . S
C2432 C2431 1.366 . S
C2432 C2436 1.385 . S
C2433 H2408 0.951 . S
C2433 C2431 1.388 . S
C2433 C2434 1.366 . S
C2434 C2433 1.366 . S
C2434 C2435 1.414 . S
C2434 C2437 1.499 . S
C2435 H2409 0.950 . S
C2435 C2434 1.414 . S
C2435 C2436 1.374 . S
C2436 H2410 0.950 . S
C2436 C2432 1.385 . S
C2436 C2435 1.374 . S
C2437 C2434 1.499 . S
C2437 C2438 1.373 . S
C2437 C2439 1.389 . S
C2438 H2411 0.950 . S
C2438 C2424 1.377 . S
C2438 C2437 1.373 . S
C2439 C2423 1.377 . S
C2439 C2437 1.389 . S
C2439 C2440 1.524 . S
C2440 C2439 1.524 . S
C2440 C2441 1.397 . S
C2440 C2445 1.363 . S
C2441 H2412 0.950 . S
C2441 C2440 1.397 . S
C2441 C2442 1.334 . S
C2442 H2413 0.950 . S
C2442 C2441 1.334 . S
C2442 C2443 1.287 . S
C2443 C2442 1.287 . S
C2443 C2444 1.524 . S
C2443 H2446 0.999 . S
C2444 H2414 0.950 . S
C2444 C2443 1.524 . S
C2444 C2445 1.415 . S
C2445 H2415 0.950 . S
C2445 C2440 1.363 . S
C2445 C2444 1.415 . S
H2446 C2443 0.999 . S
H2447 C2428 0.913 . S
H2448 C2466 0.951 . S
H2449 C2468 0.951 . S
H2450 C2470 0.950 . S
H2451 C2471 0.950 . S
H2452 C2473 0.950 . S
H2453 C2476 0.950 . S
H2454 C2477 0.950 . S
H2455 C2479 0.950 . S
H2456 C2480 0.950 . S
H2457 C2481 0.951 . S
H2458 C2483 0.951 . S
H2459 C2485 0.950 . S
H2460 C2486 0.950 . S
H2461 C2488 0.950 . S
H2462 C2491 0.950 . S
H2463 C2492 0.950 . S
H2464 C2494 0.950 1_565 S
H2465 C2495 0.921 1_565 S
C2466 H2448 0.951 . S
C2466 C2467 1.366 . S
C2466 C2468 1.388 . S
C2467 C2466 1.366 . S
C2467 C2471 1.385 . S
C2468 H2449 0.951 . S
C2468 C2466 1.388 . S
C2468 C2469 1.366 . S
C2469 C2468 1.366 . S
C2469 C2470 1.414 . S
C2469 C2472 1.499 . S
C2470 H2450 0.950 . S
C2470 C2469 1.414 . S
C2470 C2471 1.374 . S
C2471 H2451 0.950 . S
C2471 C2467 1.385 . S
C2471 C2470 1.374 . S
C2472 C2469 1.499 . S
C2472 C2473 1.373 . S
C2472 C2474 1.389 . S
C2473 H2452 0.950 . S
C2473 C2472 1.373 . S
C2473 C2489 1.377 1_565 S
C2474 C2472 1.389 . S
C2474 C2475 1.524 . S
C2474 C2488 1.377 1_565 S
C2475 C2474 1.524 . S
C2475 C2476 1.397 . S
C2475 C2480 1.363 1_565 S
C2476 H2453 0.950 . S
C2476 C2475 1.397 . S
C2476 C2477 1.334 . S
C2477 H2454 0.950 . S
C2477 C2476 1.334 . S
C2477 C2478 1.287 . S
C2478 C2477 1.287 . S
C2478 C2479 1.524 1_565 S
C2478 H2497 0.913 . S
C2479 H2455 0.950 . S
C2479 C2478 1.524 1_545 S
C2479 C2480 1.415 . S
C2480 H2456 0.950 . S
C2480 C2475 1.363 1_545 S
C2480 C2479 1.415 . S
C2481 H2457 0.951 . S
C2481 C2482 1.366 . S
C2481 C2483 1.388 . S
C2482 C2481 1.366 . S
C2482 C2486 1.385 . S
C2483 H2458 0.951 . S
C2483 C2481 1.388 . S
C2483 C2484 1.366 . S
C2484 C2483 1.366 . S
C2484 C2485 1.414 . S
C2484 C2487 1.499 . S
C2485 H2459 0.950 . S
C2485 C2484 1.414 . S
C2485 C2486 1.374 . S
C2486 H2460 0.950 . S
C2486 C2482 1.385 . S
C2486 C2485 1.374 . S
C2487 C2484 1.499 . S
C2487 C2488 1.373 . S
C2487 C2489 1.389 . S
C2488 H2461 0.950 . S
C2488 C2474 1.377 1_545 S
C2488 C2487 1.373 . S
C2489 C2473 1.377 1_545 S
C2489 C2487 1.389 . S
C2489 C2490 1.524 . S
C2490 C2489 1.524 . S
C2490 C2491 1.397 . S
C2490 C2495 1.386 . S
C2491 H2462 0.950 . S
C2491 C2490 1.397 . S
C2491 C2492 1.334 . S
C2492 H2463 0.950 . S
C2492 C2491 1.334 . S
C2492 C2493 1.287 . S
C2493 C2492 1.287 . S
C2493 C2494 1.524 . S
C2493 H2496 0.999 . S
C2494 H2464 0.950 1_545 S
C2494 C2493 1.524 . S
C2494 C2495 1.422 . S
C2495 H2465 0.921 1_545 S
C2495 C2490 1.386 . S
C2495 C2494 1.422 . S
H2496 C2493 0.999 . S
H2497 C2478 0.913 . S
H2498 C2516 0.951 . S
H2499 C2518 0.951 . S
H2500 C2520 0.950 . S
H2501 C2521 0.950 . S
H2502 C2523 0.950 . S
H2503 C2526 0.956 1_455 S
H2504 C2527 0.979 . S
H2505 C2529 0.950 . S
H2506 C2530 0.950 . S
H2507 C2531 0.951 . S
H2508 C2533 0.951 . S
H2509 C2535 0.950 . S
H2510 C2536 0.950 . S
H2511 C2538 0.950 . S
H2512 C2541 0.956 1_655 S
H2513 C2542 0.971 . S
H2514 C2544 0.950 . S
H2515 C2545 0.950 . S
C2516 H2498 0.951 . S
C2516 C2517 1.366 . S
C2516 C2518 1.388 . S
C2517 C2516 1.366 . S
C2517 C2521 1.385 . S
C2518 H2499 0.951 . S
C2518 C2516 1.388 . S
C2518 C2519 1.366 . S
C2519 C2518 1.366 . S
C2519 C2520 1.414 . S
C2519 C2522 1.499 . S
C2520 H2500 0.950 . S
C2520 C2519 1.414 . S
C2520 C2521 1.374 . S
C2521 H2501 0.950 . S
C2521 C2517 1.385 . S
C2521 C2520 1.374 . S
C2522 C2519 1.499 . S
C2522 C2523 1.373 . S
C2522 C2524 1.416 . S
C2523 H2502 0.950 . S
C2523 C2522 1.373 . S
C2523 C2539 1.377 1_455 S
C2524 C2522 1.416 . S
C2524 C2525 1.554 1_455 S
C2524 C2538 1.322 1_455 S
C2525 C2524 1.554 1_655 S
C2525 C2526 1.401 . S
C2525 C2530 1.363 . S
C2526 H2503 0.956 1_655 S
C2526 C2525 1.401 . S
C2526 C2527 1.326 . S
C2527 H2504 0.979 . S
C2527 C2526 1.326 . S
C2527 C2528 1.287 . S
C2528 C2527 1.287 . S
C2528 C2529 1.524 . S
C2528 H2547 0.913 . S
C2529 H2505 0.950 . S
C2529 C2528 1.524 . S
C2529 C2530 1.415 . S
C2530 H2506 0.950 . S
C2530 C2525 1.363 . S
C2530 C2529 1.415 . S
C2531 H2507 0.951 . S
C2531 C2532 1.366 . S
C2531 C2533 1.388 . S
C2532 C2531 1.366 . S
C2532 C2536 1.385 . S
C2533 H2508 0.951 . S
C2533 C2531 1.388 . S
C2533 C2534 1.366 . S
C2534 C2533 1.366 . S
C2534 C2535 1.414 . S
C2534 C2537 1.499 . S
C2535 H2509 0.950 . S
C2535 C2534 1.414 . S
C2535 C2536 1.374 . S
C2536 H2510 0.950 . S
C2536 C2532 1.385 . S
C2536 C2535 1.374 . S
C2537 C2534 1.499 . S
C2537 C2538 1.373 . S
C2537 C2539 1.389 . S
C2538 H2511 0.950 . S
C2538 C2524 1.322 1_655 S
C2538 C2537 1.373 . S
C2539 C2523 1.377 1_655 S
C2539 C2537 1.389 . S
C2539 C2540 1.527 . S
C2540 C2539 1.527 . S
C2540 C2541 1.395 1_655 S
C2540 C2545 1.363 1_655 S
C2541 H2512 0.956 1_455 S
C2541 C2540 1.395 1_455 S
C2541 C2542 1.333 . S
C2542 H2513 0.971 . S
C2542 C2541 1.333 . S
C2542 C2543 1.287 . S
C2543 C2542 1.287 . S
C2543 C2544 1.524 . S
C2543 H2546 0.999 . S
C2544 H2514 0.950 . S
C2544 C2543 1.524 . S
C2544 C2545 1.415 . S
C2545 H2515 0.950 . S
C2545 C2540 1.363 1_455 S
C2545 C2544 1.415 . S
H2546 C2543 0.999 . S
H2547 C2528 0.913 . S
H2548 C2566 0.951 . S
H2549 C2568 0.951 . S
H2550 C2570 0.950 . S
H2551 C2571 0.950 . S
H2552 C2573 0.950 . S
H2553 C2576 0.950 . S
H2554 C2577 0.950 . S
H2555 C2579 0.950 . S
H2556 C2580 0.950 . S
H2557 C2581 0.951 . S
H2558 C2583 0.951 . S
H2559 C2585 0.950 . S
H2560 C2586 0.950 . S
H2561 C2588 0.950 . S
H2562 C2591 0.950 . S
H2563 C2592 0.950 . S
H2564 C2594 0.950 . S
H2565 C2595 0.950 . S
C2566 H2548 0.951 . S
C2566 C2567 1.366 . S
C2566 C2568 1.388 . S
C2567 C2566 1.366 . S
C2567 C2571 1.385 . S
C2568 H2549 0.951 . S
C2568 C2566 1.388 . S
C2568 C2569 1.366 . S
C2569 C2568 1.366 . S
C2569 C2570 1.414 . S
C2569 C2572 1.499 . S
C2570 H2550 0.950 . S
C2570 C2569 1.414 . S
C2570 C2571 1.374 . S
C2571 H2551 0.950 . S
C2571 C2567 1.385 . S
C2571 C2570 1.374 . S
C2572 C2569 1.499 . S
C2572 C2573 1.373 . S
C2572 C2574 1.389 . S
C2573 H2552 0.950 . S
C2573 C2572 1.373 . S
C2573 C2589 1.377 . S
C2574 C2572 1.389 . S
C2574 C2575 1.524 . S
C2574 C2588 1.377 . S
C2575 C2574 1.524 . S
C2575 C2576 1.397 . S
C2575 C2580 1.363 . S
C2576 H2553 0.950 . S
C2576 C2575 1.397 . S
C2576 C2577 1.334 . S
C2577 H2554 0.950 . S
C2577 C2576 1.334 . S
C2577 C2578 1.287 . S
C2578 C2577 1.287 . S
C2578 C2579 1.524 . S
C2578 H2597 0.913 . S
C2579 H2555 0.950 . S
C2579 C2578 1.524 . S
C2579 C2580 1.415 . S
C2580 H2556 0.950 . S
C2580 C2575 1.363 . S
C2580 C2579 1.415 . S
C2581 H2557 0.951 . S
C2581 C2582 1.366 . S
C2581 C2583 1.388 . S
C2582 C2581 1.366 . S
C2582 C2586 1.385 . S
C2583 H2558 0.951 . S
C2583 C2581 1.388 . S
C2583 C2584 1.366 . S
C2584 C2583 1.366 . S
C2584 C2585 1.414 . S
C2584 C2587 1.499 . S
C2585 H2559 0.950 . S
C2585 C2584 1.414 . S
C2585 C2586 1.374 . S
C2586 H2560 0.950 . S
C2586 C2582 1.385 . S
C2586 C2585 1.374 . S
C2587 C2584 1.499 . S
C2587 C2588 1.373 . S
C2587 C2589 1.389 . S
C2588 H2561 0.950 . S
C2588 C2574 1.377 . S
C2588 C2587 1.373 . S
C2589 C2573 1.377 . S
C2589 C2587 1.389 . S
C2589 C2590 1.524 . S
C2590 C2589 1.524 . S
C2590 C2591 1.397 . S
C2590 C2595 1.363 . S
C2591 H2562 0.950 . S
C2591 C2590 1.397 . S
C2591 C2592 1.334 . S
C2592 H2563 0.950 . S
C2592 C2591 1.334 . S
C2592 C2593 1.287 . S
C2593 C2592 1.287 . S
C2593 C2594 1.524 . S
C2593 H2596 0.999 . S
C2594 H2564 0.950 . S
C2594 C2593 1.524 . S
C2594 C2595 1.415 . S
C2595 H2565 0.950 . S
C2595 C2590 1.363 . S
C2595 C2594 1.415 . S
H2596 C2593 0.999 . S
H2597 C2578 0.913 . S
H2598 C2616 0.951 . S
H2599 C2618 0.951 . S
H2600 C2620 0.950 . S
H2601 C2621 0.950 1_455 S
H2602 C2623 0.950 . S
H2603 C2626 0.950 . S
H2604 C2627 0.950 . S
H2605 C2629 0.950 . S
H2606 C2630 0.950 . S
H2607 C2631 0.951 . S
H2608 C2633 0.951 . S
H2609 C2635 0.950 . S
H2610 C2636 0.950 . S
H2611 C2638 0.950 . S
H2612 C2641 0.950 . S
H2613 C2642 0.950 . S
H2614 C2644 0.950 . S
H2615 C2645 0.950 . S
C2616 H2598 0.951 . S
C2616 C2617 1.366 . S
C2616 C2618 1.388 1_455 S
C2617 C2616 1.366 . S
C2617 C2621 1.385 1_455 S
C2618 H2599 0.951 . S
C2618 C2616 1.388 1_655 S
C2618 C2619 1.366 . S
C2619 C2618 1.366 . S
C2619 C2620 1.414 . S
C2619 C2622 1.499 . S
C2620 H2600 0.950 . S
C2620 C2619 1.414 . S
C2620 C2621 1.374 . S
C2621 H2601 0.950 1_655 S
C2621 C2617 1.385 1_655 S
C2621 C2620 1.374 . S
C2622 C2619 1.499 . S
C2622 C2623 1.373 . S
C2622 C2624 1.389 . S
C2623 H2602 0.950 . S
C2623 C2622 1.373 . S
C2623 C2639 1.377 . S
C2624 C2622 1.389 . S
C2624 C2625 1.524 . S
C2624 C2638 1.377 . S
C2625 C2624 1.524 . S
C2625 C2626 1.397 . S
C2625 C2630 1.363 . S
C2626 H2603 0.950 . S
C2626 C2625 1.397 . S
C2626 C2627 1.334 . S
C2627 H2604 0.950 . S
C2627 C2626 1.334 . S
C2627 C2628 1.287 . S
C2628 C2627 1.287 . S
C2628 C2629 1.524 . S
C2628 H2647 0.913 . S
C2629 H2605 0.950 . S
C2629 C2628 1.524 . S
C2629 C2630 1.415 . S
C2630 H2606 0.950 . S
C2630 C2625 1.363 . S
C2630 C2629 1.415 . S
C2631 H2607 0.951 . S
C2631 C2632 1.366 . S
C2631 C2633 1.388 . S
C2632 C2631 1.366 . S
C2632 C2636 1.385 . S
C2633 H2608 0.951 . S
C2633 C2631 1.388 . S
C2633 C2634 1.366 . S
C2634 C2633 1.366 . S
C2634 C2635 1.414 . S
C2634 C2637 1.499 . S
C2635 H2609 0.950 . S
C2635 C2634 1.414 . S
C2635 C2636 1.374 . S
C2636 H2610 0.950 . S
C2636 C2632 1.385 . S
C2636 C2635 1.374 . S
C2637 C2634 1.499 . S
C2637 C2638 1.373 . S
C2637 C2639 1.389 . S
C2638 H2611 0.950 . S
C2638 C2624 1.377 . S
C2638 C2637 1.373 . S
C2639 C2623 1.377 . S
C2639 C2637 1.389 . S
C2639 C2640 1.524 . S
C2640 C2639 1.524 . S
C2640 C2641 1.397 . S
C2640 C2645 1.363 . S
C2641 H2612 0.950 . S
C2641 C2640 1.397 . S
C2641 C2642 1.334 . S
C2642 H2613 0.950 . S
C2642 C2641 1.334 . S
C2642 C2643 1.287 . S
C2643 C2642 1.287 . S
C2643 C2644 1.524 . S
C2643 H2646 0.999 . S
C2644 H2614 0.950 . S
C2644 C2643 1.524 . S
C2644 C2645 1.415 . S
C2645 H2615 0.950 . S
C2645 C2640 1.363 . S
C2645 C2644 1.415 . S
H2646 C2643 0.999 . S
H2647 C2628 0.913 . S
H2648 C2666 0.951 . S
H2649 C2668 0.951 . S
H2650 C2670 0.950 . S
H2651 C2671 0.950 . S
H2652 C2673 0.950 . S
H2653 C2676 0.950 . S
H2654 C2677 0.950 . S
H2655 C2679 0.950 . S
H2656 C2680 0.950 . S
H2657 C2681 0.951 . S
H2658 C2683 0.951 . S
H2659 C2685 0.950 . S
H2660 C2686 0.950 . S
H2661 C2688 0.950 . S
H2662 C2691 0.950 . S
H2663 C2692 0.950 . S
H2664 C2694 0.950 . S
H2665 C2695 0.950 . S
C2666 H2648 0.951 . S
C2666 C2667 1.366 . S
C2666 C2668 1.388 . S
C2667 C2666 1.366 . S
C2667 C2671 1.385 . S
C2668 H2649 0.951 . S
C2668 C2666 1.388 . S
C2668 C2669 1.366 . S
C2669 C2668 1.366 . S
C2669 C2670 1.414 . S
C2669 C2672 1.499 . S
C2670 H2650 0.950 . S
C2670 C2669 1.414 . S
C2670 C2671 1.374 . S
C2671 H2651 0.950 . S
C2671 C2667 1.385 . S
C2671 C2670 1.374 . S
C2672 C2669 1.499 . S
C2672 C2673 1.373 . S
C2672 C2674 1.389 . S
C2673 H2652 0.950 . S
C2673 C2672 1.373 . S
C2673 C2689 1.377 . S
C2674 C2672 1.389 . S
C2674 C2675 1.524 . S
C2674 C2688 1.377 . S
C2675 C2674 1.524 . S
C2675 C2676 1.397 . S
C2675 C2680 1.363 . S
C2676 H2653 0.950 . S
C2676 C2675 1.397 . S
C2676 C2677 1.334 . S
C2677 H2654 0.950 . S
C2677 C2676 1.334 . S
C2677 C2678 1.287 . S
C2678 C2677 1.287 . S
C2678 C2679 1.524 . S
C2678 H2697 0.913 . S
C2679 H2655 0.950 . S
C2679 C2678 1.524 . S
C2679 C2680 1.415 . S
C2680 H2656 0.950 . S
C2680 C2675 1.363 . S
C2680 C2679 1.415 . S
C2681 H2657 0.951 . S
C2681 C2682 1.366 . S
C2681 C2683 1.388 . S
C2682 C2681 1.366 . S
C2682 C2686 1.385 . S
C2683 H2658 0.951 . S
C2683 C2681 1.388 . S
C2683 C2684 1.366 . S
C2684 C2683 1.366 . S
C2684 C2685 1.414 . S
C2684 C2687 1.499 . S
C2685 H2659 0.950 . S
C2685 C2684 1.414 . S
C2685 C2686 1.374 . S
C2686 H2660 0.950 . S
C2686 C2682 1.385 . S
C2686 C2685 1.374 . S
C2687 C2684 1.499 . S
C2687 C2688 1.373 . S
C2687 C2689 1.389 . S
C2688 H2661 0.950 . S
C2688 C2674 1.377 . S
C2688 C2687 1.373 . S
C2689 C2673 1.377 . S
C2689 C2687 1.389 . S
C2689 C2690 1.524 . S
C2690 C2689 1.524 . S
C2690 C2691 1.397 . S
C2690 C2695 1.363 . S
C2691 H2662 0.950 . S
C2691 C2690 1.397 . S
C2691 C2692 1.334 . S
C2692 H2663 0.950 . S
C2692 C2691 1.334 . S
C2692 C2693 1.287 . S
C2693 C2692 1.287 . S
C2693 C2694 1.524 . S
C2693 H2696 0.999 . S
C2694 H2664 0.950 . S
C2694 C2693 1.524 . S
C2694 C2695 1.415 . S
C2695 H2665 0.950 . S
C2695 C2690 1.363 . S
C2695 C2694 1.415 . S
H2696 C2693 0.999 . S
H2697 C2678 0.913 . S
H2698 C2716 0.951 . S
H2699 C2718 0.951 . S
H2700 C2720 0.950 . S
H2701 C2721 0.926 1_565 S
H2702 C2723 0.950 . S
H2703 C2726 0.950 . S
H2704 C2727 0.950 . S
H2705 C2729 0.950 . S
H2706 C2730 0.950 . S
H2707 C2731 0.951 . S
H2708 C2733 0.951 . S
H2709 C2735 0.950 . S
H2710 C2736 0.950 . S
H2711 C2738 0.950 . S
H2712 C2741 0.950 . S
H2713 C2742 0.950 . S
H2714 C2744 0.950 . S
H2715 C2745 0.950 . S
C2716 H2698 0.951 . S
C2716 C2717 1.366 . S
C2716 C2718 1.388 1_565 S
C2717 C2716 1.366 . S
C2717 C2721 1.385 1_565 S
C2718 H2699 0.951 . S
C2718 C2716 1.388 1_545 S
C2718 C2719 1.366 . S
C2719 C2718 1.366 . S
C2719 C2720 1.414 . S
C2719 C2722 1.499 . S
C2720 H2700 0.950 . S
C2720 C2719 1.414 . S
C2720 C2721 1.374 . S
C2721 H2701 0.926 1_545 S
C2721 C2717 1.385 1_545 S
C2721 C2720 1.374 . S
C2722 C2719 1.499 . S
C2722 C2723 1.373 . S
C2722 C2724 1.389 . S
C2723 H2702 0.950 . S
C2723 C2722 1.373 . S
C2723 C2739 1.377 . S
C2724 C2722 1.389 . S
C2724 C2725 1.524 . S
C2724 C2738 1.377 . S
C2725 C2724 1.524 . S
C2725 C2726 1.397 . S
C2725 C2730 1.363 . S
C2726 H2703 0.950 . S
C2726 C2725 1.397 . S
C2726 C2727 1.334 . S
C2727 H2704 0.950 . S
C2727 C2726 1.334 . S
C2727 C2728 1.287 . S
C2728 C2727 1.287 . S
C2728 C2729 1.524 . S
C2728 H2747 0.913 . S
C2729 H2705 0.950 . S
C2729 C2728 1.524 . S
C2729 C2730 1.415 . S
C2730 H2706 0.950 . S
C2730 C2725 1.363 . S
C2730 C2729 1.415 . S
C2731 H2707 0.951 . S
C2731 C2732 1.366 . S
C2731 C2733 1.388 . S
C2732 C2731 1.366 . S
C2732 C2736 1.385 . S
C2733 H2708 0.951 . S
C2733 C2731 1.388 . S
C2733 C2734 1.366 . S
C2734 C2733 1.366 . S
C2734 C2735 1.414 . S
C2734 C2737 1.499 . S
C2735 H2709 0.950 . S
C2735 C2734 1.414 . S
C2735 C2736 1.374 . S
C2736 H2710 0.950 . S
C2736 C2732 1.385 . S
C2736 C2735 1.374 . S
C2737 C2734 1.499 . S
C2737 C2738 1.373 . S
C2737 C2739 1.389 . S
C2738 H2711 0.950 . S
C2738 C2724 1.377 . S
C2738 C2737 1.373 . S
C2739 C2723 1.377 . S
C2739 C2737 1.389 . S
C2739 C2740 1.524 . S
C2740 C2739 1.524 . S
C2740 C2741 1.397 . S
C2740 C2745 1.363 . S
C2741 H2712 0.950 . S
C2741 C2740 1.397 . S
C2741 C2742 1.334 . S
C2742 H2713 0.950 . S
C2742 C2741 1.334 . S
C2742 C2743 1.287 . S
C2743 C2742 1.287 . S
C2743 C2744 1.524 . S
C2743 H2746 0.999 . S
C2744 H2714 0.950 . S
C2744 C2743 1.524 . S
C2744 C2745 1.415 . S
C2745 H2715 0.950 . S
C2745 C2740 1.363 . S
C2745 C2744 1.415 . S
H2746 C2743 0.999 . S
H2747 C2728 0.913 . S
H2748 C2766 0.951 . S
H2749 C2768 0.951 . S
H2750 C2770 0.950 . S
H2751 C2771 0.950 . S
H2752 C2773 0.950 . S
H2753 C2776 0.950 . S
H2754 C2777 0.950 . S
H2755 C2779 0.950 . S
H2756 C2780 0.950 . S
H2757 C2781 0.951 . S
H2758 C2783 0.951 . S
H2759 C2785 0.950 . S
H2760 C2786 0.950 . S
H2761 C2788 0.950 . S
H2762 C2791 0.950 . S
H2763 C2792 0.950 . S
H2764 C2794 0.950 . S
H2765 C2795 0.950 . S
C2766 H2748 0.951 . S
C2766 C2767 1.366 . S
C2766 C2768 1.388 . S
C2767 C2766 1.366 . S
C2767 C2771 1.385 . S
C2768 H2749 0.951 . S
C2768 C2766 1.388 . S
C2768 C2769 1.366 . S
C2769 C2768 1.366 . S
C2769 C2770 1.414 . S
C2769 C2772 1.499 . S
C2770 H2750 0.950 . S
C2770 C2769 1.414 . S
C2770 C2771 1.374 . S
C2771 H2751 0.950 . S
C2771 C2767 1.385 . S
C2771 C2770 1.374 . S
C2772 C2769 1.499 . S
C2772 C2773 1.373 . S
C2772 C2774 1.389 . S
C2773 H2752 0.950 . S
C2773 C2772 1.373 . S
C2773 C2789 1.377 . S
C2774 C2772 1.389 . S
C2774 C2775 1.524 . S
C2774 C2788 1.377 . S
C2775 C2774 1.524 . S
C2775 C2776 1.397 . S
C2775 C2780 1.363 . S
C2776 H2753 0.950 . S
C2776 C2775 1.397 . S
C2776 C2777 1.334 . S
C2777 H2754 0.950 . S
C2777 C2776 1.334 . S
C2777 C2778 1.287 . S
C2778 C2777 1.287 . S
C2778 C2779 1.524 . S
C2778 H2797 0.913 . S
C2779 H2755 0.950 . S
C2779 C2778 1.524 . S
C2779 C2780 1.415 . S
C2780 H2756 0.950 . S
C2780 C2775 1.363 . S
C2780 C2779 1.415 . S
C2781 H2757 0.951 . S
C2781 C2782 1.366 . S
C2781 C2783 1.388 . S
C2782 C2781 1.366 . S
C2782 C2786 1.385 . S
C2783 H2758 0.951 . S
C2783 C2781 1.388 . S
C2783 C2784 1.366 . S
C2784 C2783 1.366 . S
C2784 C2785 1.414 . S
C2784 C2787 1.499 . S
C2785 H2759 0.950 . S
C2785 C2784 1.414 . S
C2785 C2786 1.374 . S
C2786 H2760 0.950 . S
C2786 C2782 1.385 . S
C2786 C2785 1.374 . S
C2787 C2784 1.499 . S
C2787 C2788 1.373 . S
C2787 C2789 1.389 . S
C2788 H2761 0.950 . S
C2788 C2774 1.377 . S
C2788 C2787 1.373 . S
C2789 C2773 1.377 . S
C2789 C2787 1.389 . S
C2789 C2790 1.524 . S
C2790 C2789 1.524 . S
C2790 C2791 1.397 . S
C2790 C2795 1.363 . S
C2791 H2762 0.950 . S
C2791 C2790 1.397 . S
C2791 C2792 1.334 . S
C2792 H2763 0.950 . S
C2792 C2791 1.334 . S
C2792 C2793 1.287 . S
C2793 C2792 1.287 . S
C2793 C2794 1.524 . S
C2793 H2796 0.999 . S
C2794 H2764 0.950 . S
C2794 C2793 1.524 . S
C2794 C2795 1.415 . S
C2795 H2765 0.950 . S
C2795 C2790 1.363 . S
C2795 C2794 1.415 . S
H2796 C2793 0.999 . S
H2797 C2778 0.913 . S
H2798 C2816 0.951 . S
H2799 C2818 0.951 . S
H2800 C2820 0.950 . S
H2801 C2821 0.950 . S
H2802 C2823 0.950 . S
H2803 C2826 0.950 . S
H2804 C2827 0.950 . S
H2805 C2829 0.950 . S
H2806 C2830 0.950 . S
H2807 C2831 0.951 . S
H2808 C2833 0.951 . S
H2809 C2835 0.950 . S
H2810 C2836 0.950 . S
H2811 C2838 0.950 . S
H2812 C2841 0.950 . S
H2813 C2842 0.950 . S
H2814 C2844 0.950 . S
H2815 C2845 0.950 . S
C2816 H2798 0.951 . S
C2816 C2817 1.366 . S
C2816 C2818 1.388 . S
C2817 C2816 1.366 . S
C2817 C2821 1.385 . S
C2818 H2799 0.951 . S
C2818 C2816 1.388 . S
C2818 C2819 1.366 . S
C2819 C2818 1.366 . S
C2819 C2820 1.414 . S
C2819 C2822 1.499 . S
C2820 H2800 0.950 . S
C2820 C2819 1.414 . S
C2820 C2821 1.374 . S
C2821 H2801 0.950 . S
C2821 C2817 1.385 . S
C2821 C2820 1.374 . S
C2822 C2819 1.499 . S
C2822 C2823 1.373 . S
C2822 C2824 1.389 . S
C2823 H2802 0.950 . S
C2823 C2822 1.373 . S
C2823 C2839 1.377 . S
C2824 C2822 1.389 . S
C2824 C2825 1.524 . S
C2824 C2838 1.377 . S
C2825 C2824 1.524 . S
C2825 C2826 1.397 . S
C2825 C2830 1.363 . S
C2826 H2803 0.950 . S
C2826 C2825 1.397 . S
C2826 C2827 1.334 . S
C2827 H2804 0.950 . S
C2827 C2826 1.334 . S
C2827 C2828 1.287 . S
C2828 C2827 1.287 . S
C2828 C2829 1.524 . S
C2828 H2847 0.913 . S
C2829 H2805 0.950 . S
C2829 C2828 1.524 . S
C2829 C2830 1.415 . S
C2830 H2806 0.950 . S
C2830 C2825 1.363 . S
C2830 C2829 1.415 . S
C2831 H2807 0.951 . S
C2831 C2832 1.366 . S
C2831 C2833 1.388 . S
C2832 C2831 1.366 . S
C2832 C2836 1.385 . S
C2833 H2808 0.951 . S
C2833 C2831 1.388 . S
C2833 C2834 1.366 . S
C2834 C2833 1.366 . S
C2834 C2835 1.414 . S
C2834 C2837 1.499 . S
C2835 H2809 0.950 . S
C2835 C2834 1.414 . S
C2835 C2836 1.374 . S
C2836 H2810 0.950 . S
C2836 C2832 1.385 . S
C2836 C2835 1.374 . S
C2837 C2834 1.499 . S
C2837 C2838 1.373 . S
C2837 C2839 1.389 . S
C2838 H2811 0.950 . S
C2838 C2824 1.377 . S
C2838 C2837 1.373 . S
C2839 C2823 1.377 . S
C2839 C2837 1.389 . S
C2839 C2840 1.524 . S
C2840 C2839 1.524 . S
C2840 C2841 1.397 . S
C2840 C2845 1.363 . S
C2841 H2812 0.950 . S
C2841 C2840 1.397 . S
C2841 C2842 1.334 . S
C2842 H2813 0.950 . S
C2842 C2841 1.334 . S
C2842 C2843 1.287 . S
C2843 C2842 1.287 . S
C2843 C2844 1.524 . S
C2843 H2846 0.999 . S
C2844 H2814 0.950 . S
C2844 C2843 1.524 . S
C2844 C2845 1.415 . S
C2845 H2815 0.950 . S
C2845 C2840 1.363 . S
C2845 C2844 1.415 . S
H2846 C2843 0.999 . S
H2847 C2828 0.913 . S
H2848 C2866 0.951 . S
H2849 C2868 0.951 . S
H2850 C2870 0.950 . S
H2851 C2871 0.950 . S
H2852 C2873 0.950 . S
H2853 C2876 0.950 . S
H2854 C2877 0.950 . S
H2855 C2879 0.950 . S
H2856 C2880 0.950 . S
H2857 C2881 0.951 . S
H2858 C2883 0.951 . S
H2859 C2885 0.950 . S
H2860 C2886 0.950 . S
H2861 C2888 0.950 . S
H2862 C2891 0.950 . S
H2863 C2892 0.950 . S
H2864 C2894 0.950 . S
H2865 C2895 0.950 . S
C2866 H2848 0.951 . S
C2866 C2867 1.366 . S
C2866 C2868 1.388 . S
C2867 C2866 1.366 . S
C2867 C2871 1.385 . S
C2868 H2849 0.951 . S
C2868 C2866 1.388 . S
C2868 C2869 1.366 . S
C2869 C2868 1.366 . S
C2869 C2870 1.414 . S
C2869 C2872 1.499 . S
C2870 H2850 0.950 . S
C2870 C2869 1.414 . S
C2870 C2871 1.374 . S
C2871 H2851 0.950 . S
C2871 C2867 1.385 . S
C2871 C2870 1.374 . S
C2872 C2869 1.499 . S
C2872 C2873 1.373 . S
C2872 C2874 1.389 . S
C2873 H2852 0.950 . S
C2873 C2872 1.373 . S
C2873 C2889 1.377 . S
C2874 C2872 1.389 . S
C2874 C2875 1.524 . S
C2874 C2888 1.377 . S
C2875 C2874 1.524 . S
C2875 C2876 1.397 . S
C2875 C2880 1.363 . S
C2876 H2853 0.950 . S
C2876 C2875 1.397 . S
C2876 C2877 1.334 . S
C2877 H2854 0.950 . S
C2877 C2876 1.334 . S
C2877 C2878 1.287 . S
C2878 C2877 1.287 . S
C2878 C2879 1.524 . S
C2878 H2897 0.913 . S
C2879 H2855 0.950 . S
C2879 C2878 1.524 . S
C2879 C2880 1.415 . S
C2880 H2856 0.950 . S
C2880 C2875 1.363 . S
C2880 C2879 1.415 . S
C2881 H2857 0.951 . S
C2881 C2882 1.366 . S
C2881 C2883 1.388 . S
C2882 C2881 1.366 . S
C2882 C2886 1.385 . S
C2883 H2858 0.951 . S
C2883 C2881 1.388 . S
C2883 C2884 1.366 . S
C2884 C2883 1.366 . S
C2884 C2885 1.414 . S
C2884 C2887 1.499 . S
C2885 H2859 0.950 . S
C2885 C2884 1.414 . S
C2885 C2886 1.374 . S
C2886 H2860 0.950 . S
C2886 C2882 1.385 . S
C2886 C2885 1.374 . S
C2887 C2884 1.499 . S
C2887 C2888 1.373 . S
C2887 C2889 1.389 . S
C2888 H2861 0.950 . S
C2888 C2874 1.377 . S
C2888 C2887 1.373 . S
C2889 C2873 1.377 . S
C2889 C2887 1.389 . S
C2889 C2890 1.524 . S
C2890 C2889 1.524 . S
C2890 C2891 1.397 . S
C2890 C2895 1.363 . S
C2891 H2862 0.950 . S
C2891 C2890 1.397 . S
C2891 C2892 1.334 . S
C2892 H2863 0.950 . S
C2892 C2891 1.334 . S
C2892 C2893 1.287 . S
C2893 C2892 1.287 . S
C2893 C2894 1.524 . S
C2893 H2896 0.999 . S
C2894 H2864 0.950 . S
C2894 C2893 1.524 . S
C2894 C2895 1.415 . S
C2895 H2865 0.950 . S
C2895 C2890 1.363 . S
C2895 C2894 1.415 . S
H2896 C2893 0.999 . S
H2897 C2878 0.913 . S
H2898 C2916 0.951 . S
H2899 C2918 0.951 . S
H2900 C2920 0.950 . S
H2901 C2921 0.950 . S
H2902 C2923 0.950 . S
H2903 C2926 0.950 . S
H2904 C2927 0.950 . S
H2905 C2929 0.950 . S
H2906 C2930 0.950 . S
H2907 C2931 0.951 . S
H2908 C2933 0.951 . S
H2909 C2935 0.950 . S
H2910 C2936 0.950 . S
H2911 C2938 0.950 . S
H2912 C2941 0.950 . S
H2913 C2942 0.950 . S
H2914 C2944 0.950 . S
H2915 C2945 0.950 . S
C2916 H2898 0.951 . S
C2916 C2917 1.366 . S
C2916 C2918 1.388 . S
C2917 C2916 1.366 . S
C2917 C2921 1.385 . S
C2918 H2899 0.951 . S
C2918 C2916 1.388 . S
C2918 C2919 1.366 . S
C2919 C2918 1.366 . S
C2919 C2920 1.414 . S
C2919 C2922 1.499 . S
C2920 H2900 0.950 . S
C2920 C2919 1.414 . S
C2920 C2921 1.374 . S
C2921 H2901 0.950 . S
C2921 C2917 1.385 . S
C2921 C2920 1.374 . S
C2922 C2919 1.499 . S
C2922 C2923 1.373 . S
C2922 C2924 1.389 . S
C2923 H2902 0.950 . S
C2923 C2922 1.373 . S
C2923 C2939 1.377 . S
C2924 C2922 1.389 . S
C2924 C2925 1.524 . S
C2924 C2938 1.377 . S
C2925 C2924 1.524 . S
C2925 C2926 1.397 . S
C2925 C2930 1.363 . S
C2926 H2903 0.950 . S
C2926 C2925 1.397 . S
C2926 C2927 1.334 . S
C2927 H2904 0.950 . S
C2927 C2926 1.334 . S
C2927 C2928 1.287 . S
C2928 C2927 1.287 . S
C2928 C2929 1.524 . S
C2928 H2947 0.913 . S
C2929 H2905 0.950 . S
C2929 C2928 1.524 . S
C2929 C2930 1.415 . S
C2930 H2906 0.950 . S
C2930 C2925 1.363 . S
C2930 C2929 1.415 . S
C2931 H2907 0.951 . S
C2931 C2932 1.366 . S
C2931 C2933 1.388 . S
C2932 C2931 1.366 . S
C2932 C2936 1.385 . S
C2933 H2908 0.951 . S
C2933 C2931 1.388 . S
C2933 C2934 1.366 . S
C2934 C2933 1.366 . S
C2934 C2935 1.414 . S
C2934 C2937 1.499 . S
C2935 H2909 0.950 . S
C2935 C2934 1.414 . S
C2935 C2936 1.374 . S
C2936 H2910 0.950 . S
C2936 C2932 1.385 . S
C2936 C2935 1.374 . S
C2937 C2934 1.499 . S
C2937 C2938 1.373 . S
C2937 C2939 1.389 . S
C2938 H2911 0.950 . S
C2938 C2924 1.377 . S
C2938 C2937 1.373 . S
C2939 C2923 1.377 . S
C2939 C2937 1.389 . S
C2939 C2940 1.524 . S
C2940 C2939 1.524 . S
C2940 C2941 1.397 . S
C2940 C2945 1.363 . S
C2941 H2912 0.950 . S
C2941 C2940 1.397 . S
C2941 C2942 1.334 . S
C2942 H2913 0.950 . S
C2942 C2941 1.334 . S
C2942 C2943 1.287 . S
C2943 C2942 1.287 . S
C2943 C2944 1.524 . S
C2943 H2946 0.999 . S
C2944 H2914 0.950 . S
C2944 C2943 1.524 . S
C2944 C2945 1.415 . S
C2945 H2915 0.950 . S
C2945 C2940 1.363 . S
C2945 C2944 1.415 . S
H2946 C2943 0.999 . S
H2947 C2928 0.913 . S
H2948 C2966 0.951 . S
H2949 C2968 0.951 . S
H2950 C2970 0.950 . S
H2951 C2971 0.950 . S
H2952 C2973 0.950 . S
H2953 C2976 0.950 . S
H2954 C2977 0.950 . S
H2955 C2979 0.950 . S
H2956 C2980 0.950 . S
H2957 C2981 0.951 . S
H2958 C2983 0.951 . S
H2959 C2985 0.950 . S
H2960 C2986 0.950 . S
H2961 C2988 0.950 . S
H2962 C2991 0.950 . S
H2963 C2992 0.950 . S
H2964 C2994 0.950 . S
H2965 C2995 0.950 . S
C2966 H2948 0.951 . S
C2966 C2967 1.366 . S
C2966 C2968 1.388 . S
C2967 C2966 1.366 . S
C2967 C2971 1.385 . S
C2968 H2949 0.951 . S
C2968 C2966 1.388 . S
C2968 C2969 1.366 . S
C2969 C2968 1.366 . S
C2969 C2970 1.414 . S
C2969 C2972 1.499 . S
C2970 H2950 0.950 . S
C2970 C2969 1.414 . S
C2970 C2971 1.374 . S
C2971 H2951 0.950 . S
C2971 C2967 1.385 . S
C2971 C2970 1.374 . S
C2972 C2969 1.499 . S
C2972 C2973 1.373 . S
C2972 C2974 1.389 . S
C2973 H2952 0.950 . S
C2973 C2972 1.373 . S
C2973 C2989 1.377 . S
C2974 C2972 1.389 . S
C2974 C2975 1.524 . S
C2974 C2988 1.377 . S
C2975 C2974 1.524 . S
C2975 C2976 1.397 . S
C2975 C2980 1.363 . S
C2976 H2953 0.950 . S
C2976 C2975 1.397 . S
C2976 C2977 1.334 . S
C2977 H2954 0.950 . S
C2977 C2976 1.334 . S
C2977 C2978 1.287 . S
C2978 C2977 1.287 . S
C2978 C2979 1.524 . S
C2978 H2997 0.913 . S
C2979 H2955 0.950 . S
C2979 C2978 1.524 . S
C2979 C2980 1.415 . S
C2980 H2956 0.950 . S
C2980 C2975 1.363 . S
C2980 C2979 1.415 . S
C2981 H2957 0.951 . S
C2981 C2982 1.366 . S
C2981 C2983 1.388 . S
C2982 C2981 1.366 . S
C2982 C2986 1.385 . S
C2983 H2958 0.951 . S
C2983 C2981 1.388 . S
C2983 C2984 1.366 . S
C2984 C2983 1.366 . S
C2984 C2985 1.414 . S
C2984 C2987 1.499 . S
C2985 H2959 0.950 . S
C2985 C2984 1.414 . S
C2985 C2986 1.374 . S
C2986 H2960 0.950 . S
C2986 C2982 1.385 . S
C2986 C2985 1.374 . S
C2987 C2984 1.499 . S
C2987 C2988 1.373 . S
C2987 C2989 1.389 . S
C2988 H2961 0.950 . S
C2988 C2974 1.377 . S
C2988 C2987 1.373 . S
C2989 C2973 1.377 . S
C2989 C2987 1.389 . S
C2989 C2990 1.524 . S
C2990 C2989 1.524 . S
C2990 C2991 1.397 . S
C2990 C2995 1.363 . S
C2991 H2962 0.950 . S
C2991 C2990 1.397 . S
C2991 C2992 1.334 . S
C2992 H2963 0.950 . S
C2992 C2991 1.334 . S
C2992 C2993 1.287 . S
C2993 C2992 1.287 . S
C2993 C2994 1.524 . S
C2993 H2996 0.999 . S
C2994 H2964 0.950 . S
C2994 C2993 1.524 . S
C2994 C2995 1.415 . S
C2995 H2965 0.950 . S
C2995 C2990 1.363 . S
C2995 C2994 1.415 . S
H2996 C2993 0.999 . S
H2997 C2978 0.913 . S
H2998 C3016 0.951 . S
H2999 C3018 0.951 . S
H3000 C3020 0.950 . S
H3001 C3021 0.950 . S
H3002 C3023 0.950 . S
H3003 C3026 0.950 . S
H3004 C3027 0.950 . S
H3005 C3029 0.950 . S
H3006 C3030 0.950 . S
H3007 C3031 0.951 . S
H3008 C3033 0.951 . S
H3009 C3035 0.950 . S
H3010 C3036 0.950 . S
H3011 C3038 0.950 . S
H3012 C3041 0.950 . S
H3013 C3042 0.950 . S
H3014 C3044 0.950 . S
H3015 C3045 0.950 . S
C3016 H2998 0.951 . S
C3016 C3017 1.366 . S
C3016 C3018 1.388 . S
C3017 C3016 1.366 . S
C3017 C3021 1.385 . S
C3018 H2999 0.951 . S
C3018 C3016 1.388 . S
C3018 C3019 1.366 . S
C3019 C3018 1.366 . S
C3019 C3020 1.414 . S
C3019 C3022 1.499 . S
C3020 H3000 0.950 . S
C3020 C3019 1.414 . S
C3020 C3021 1.374 . S
C3021 H3001 0.950 . S
C3021 C3017 1.385 . S
C3021 C3020 1.374 . S
C3022 C3019 1.499 . S
C3022 C3023 1.373 . S
C3022 C3024 1.389 . S
C3023 H3002 0.950 . S
C3023 C3022 1.373 . S
C3023 C3039 1.377 . S
C3024 C3022 1.389 . S
C3024 C3025 1.524 . S
C3024 C3038 1.377 . S
C3025 C3024 1.524 . S
C3025 C3026 1.397 . S
C3025 C3030 1.363 . S
C3026 H3003 0.950 . S
C3026 C3025 1.397 . S
C3026 C3027 1.334 . S
C3027 H3004 0.950 . S
C3027 C3026 1.334 . S
C3027 C3028 1.287 . S
C3028 C3027 1.287 . S
C3028 C3029 1.524 . S
C3028 H3047 0.913 . S
C3029 H3005 0.950 . S
C3029 C3028 1.524 . S
C3029 C3030 1.415 . S
C3030 H3006 0.950 . S
C3030 C3025 1.363 . S
C3030 C3029 1.415 . S
C3031 H3007 0.951 . S
C3031 C3032 1.366 . S
C3031 C3033 1.388 . S
C3032 C3031 1.366 . S
C3032 C3036 1.385 . S
C3033 H3008 0.951 . S
C3033 C3031 1.388 . S
C3033 C3034 1.366 . S
C3034 C3033 1.366 . S
C3034 C3035 1.414 . S
C3034 C3037 1.499 . S
C3035 H3009 0.950 . S
C3035 C3034 1.414 . S
C3035 C3036 1.374 . S
C3036 H3010 0.950 . S
C3036 C3032 1.385 . S
C3036 C3035 1.374 . S
C3037 C3034 1.499 . S
C3037 C3038 1.373 . S
C3037 C3039 1.389 . S
C3038 H3011 0.950 . S
C3038 C3024 1.377 . S
C3038 C3037 1.373 . S
C3039 C3023 1.377 . S
C3039 C3037 1.389 . S
C3039 C3040 1.524 . S
C3040 C3039 1.524 . S
C3040 C3041 1.397 . S
C3040 C3045 1.363 . S
C3041 H3012 0.950 . S
C3041 C3040 1.397 . S
C3041 C3042 1.334 . S
C3042 H3013 0.950 . S
C3042 C3041 1.334 . S
C3042 C3043 1.287 . S
C3043 C3042 1.287 . S
C3043 C3044 1.524 . S
C3043 H3046 0.999 . S
C3044 H3014 0.950 . S
C3044 C3043 1.524 . S
C3044 C3045 1.415 . S
C3045 H3015 0.950 . S
C3045 C3040 1.363 . S
C3045 C3044 1.415 . S
H3046 C3043 0.999 . S
H3047 C3028 0.913 . S
H3048 C3066 0.951 . S
H3049 C3068 0.951 . S
H3050 C3070 0.950 . S
H3051 C3071 0.950 . S
H3052 C3073 0.950 . S
H3053 C3076 0.950 . S
H3054 C3077 0.950 . S
H3055 C3079 0.950 . S
H3056 C3080 0.950 . S
H3057 C3081 0.951 . S
H3058 C3083 0.951 . S
H3059 C3085 0.950 . S
H3060 C3086 0.950 . S
H3061 C3088 0.950 . S
H3062 C3091 0.950 . S
H3063 C3092 0.939 1_455 S
H3064 C3094 0.950 1_455 S
H3065 C3095 0.950 . S
C3066 H3048 0.951 . S
C3066 C3067 1.366 . S
C3066 C3068 1.388 . S
C3067 C3066 1.366 . S
C3067 C3071 1.385 . S
C3068 H3049 0.951 . S
C3068 C3066 1.388 . S
C3068 C3069 1.366 . S
C3069 C3068 1.366 . S
C3069 C3070 1.414 . S
C3069 C3072 1.499 . S
C3070 H3050 0.950 . S
C3070 C3069 1.414 . S
C3070 C3071 1.374 . S
C3071 H3051 0.950 . S
C3071 C3067 1.385 . S
C3071 C3070 1.374 . S
C3072 C3069 1.499 . S
C3072 C3073 1.373 . S
C3072 C3074 1.389 . S
C3073 H3052 0.950 . S
C3073 C3072 1.373 . S
C3073 C3089 1.377 . S
C3074 C3072 1.389 . S
C3074 C3075 1.524 . S
C3074 C3088 1.377 . S
C3075 C3074 1.524 . S
C3075 C3076 1.397 . S
C3075 C3080 1.363 . S
C3076 H3053 0.950 . S
C3076 C3075 1.397 . S
C3076 C3077 1.334 . S
C3077 H3054 0.950 . S
C3077 C3076 1.334 . S
C3077 C3078 1.287 . S
C3078 C3077 1.287 . S
C3078 C3079 1.524 . S
C3078 H3097 0.913 . S
C3079 H3055 0.950 . S
C3079 C3078 1.524 . S
C3079 C3080 1.415 . S
C3080 H3056 0.950 . S
C3080 C3075 1.363 . S
C3080 C3079 1.415 . S
C3081 H3057 0.951 . S
C3081 C3082 1.366 . S
C3081 C3083 1.388 . S
C3082 C3081 1.366 . S
C3082 C3086 1.385 . S
C3083 H3058 0.951 . S
C3083 C3081 1.388 . S
C3083 C3084 1.366 . S
C3084 C3083 1.366 . S
C3084 C3085 1.414 . S
C3084 C3087 1.499 . S
C3085 H3059 0.950 . S
C3085 C3084 1.414 . S
C3085 C3086 1.374 . S
C3086 H3060 0.950 . S
C3086 C3082 1.385 . S
C3086 C3085 1.374 . S
C3087 C3084 1.499 . S
C3087 C3088 1.373 . S
C3087 C3089 1.389 . S
C3088 H3061 0.950 . S
C3088 C3074 1.377 . S
C3088 C3087 1.373 . S
C3089 C3073 1.377 . S
C3089 C3087 1.389 . S
C3089 C3090 1.524 . S
C3090 C3089 1.524 . S
C3090 C3091 1.397 . S
C3090 C3095 1.363 . S
C3091 H3062 0.950 . S
C3091 C3090 1.397 . S
C3091 C3092 1.345 . S
C3092 H3063 0.939 1_655 S
C3092 C3091 1.345 . S
C3092 C3093 1.288 1_655 S
C3093 C3092 1.288 1_455 S
C3093 C3094 1.524 1_455 S
C3093 H3096 0.999 . S
C3094 H3064 0.950 1_655 S
C3094 C3093 1.524 1_655 S
C3094 C3095 1.415 . S
C3095 H3065 0.950 . S
C3095 C3090 1.363 . S
C3095 C3094 1.415 . S
H3096 C3093 0.999 . S
H3097 C3078 0.913 . S
H3098 C3116 0.951 . S
H3099 C3118 0.951 . S
H3100 C3120 0.950 . S
H3101 C3121 0.950 . S
H3102 C3123 0.950 . S
H3103 C3126 0.950 . S
H3104 C3127 0.950 . S
H3105 C3129 0.950 . S
H3106 C3130 0.950 . S
H3107 C3131 0.951 . S
H3108 C3133 0.951 . S
H3109 C3135 0.950 . S
H3110 C3136 0.950 . S
H3111 C3138 0.950 . S
H3112 C3141 0.950 . S
H3113 C3142 0.950 . S
H3114 C3144 0.950 . S
H3115 C3145 0.950 . S
C3116 H3098 0.951 . S
C3116 C3117 1.366 . S
C3116 C3118 1.388 . S
C3117 C3116 1.366 . S
C3117 C3121 1.385 . S
C3118 H3099 0.951 . S
C3118 C3116 1.388 . S
C3118 C3119 1.366 . S
C3119 C3118 1.366 . S
C3119 C3120 1.414 . S
C3119 C3122 1.499 . S
C3120 H3100 0.950 . S
C3120 C3119 1.414 . S
C3120 C3121 1.374 . S
C3121 H3101 0.950 . S
C3121 C3117 1.385 . S
C3121 C3120 1.374 . S
C3122 C3119 1.499 . S
C3122 C3123 1.373 . S
C3122 C3124 1.389 . S
C3123 H3102 0.950 . S
C3123 C3122 1.373 . S
C3123 C3139 1.377 . S
C3124 C3122 1.389 . S
C3124 C3125 1.524 . S
C3124 C3138 1.377 . S
C3125 C3124 1.524 . S
C3125 C3126 1.397 . S
C3125 C3130 1.363 . S
C3126 H3103 0.950 . S
C3126 C3125 1.397 . S
C3126 C3127 1.334 . S
C3127 H3104 0.950 . S
C3127 C3126 1.334 . S
C3127 C3128 1.287 . S
C3128 C3127 1.287 . S
C3128 C3129 1.524 . S
C3128 H3147 0.913 . S
C3129 H3105 0.950 . S
C3129 C3128 1.524 . S
C3129 C3130 1.415 . S
C3130 H3106 0.950 . S
C3130 C3125 1.363 . S
C3130 C3129 1.415 . S
C3131 H3107 0.951 . S
C3131 C3132 1.366 . S
C3131 C3133 1.388 . S
C3132 C3131 1.366 . S
C3132 C3136 1.385 . S
C3133 H3108 0.951 . S
C3133 C3131 1.388 . S
C3133 C3134 1.366 . S
C3134 C3133 1.366 . S
C3134 C3135 1.414 . S
C3134 C3137 1.499 . S
C3135 H3109 0.950 . S
C3135 C3134 1.414 . S
C3135 C3136 1.374 . S
C3136 H3110 0.950 . S
C3136 C3132 1.385 . S
C3136 C3135 1.374 . S
C3137 C3134 1.499 . S
C3137 C3138 1.373 . S
C3137 C3139 1.389 . S
C3138 H3111 0.950 . S
C3138 C3124 1.377 . S
C3138 C3137 1.373 . S
C3139 C3123 1.377 . S
C3139 C3137 1.389 . S
C3139 C3140 1.524 . S
C3140 C3139 1.524 . S
C3140 C3141 1.397 . S
C3140 C3145 1.363 . S
C3141 H3112 0.950 . S
C3141 C3140 1.397 . S
C3141 C3142 1.334 . S
C3142 H3113 0.950 . S
C3142 C3141 1.334 . S
C3142 C3143 1.287 . S
C3143 C3142 1.287 . S
C3143 C3144 1.524 . S
C3143 H3146 0.999 . S
C3144 H3114 0.950 . S
C3144 C3143 1.524 . S
C3144 C3145 1.415 . S
C3145 H3115 0.950 . S
C3145 C3140 1.363 . S
C3145 C3144 1.415 . S
H3146 C3143 0.999 . S
H3147 C3128 0.913 . S
H3148 C3166 0.951 . S
H3149 C3168 0.951 . S
H3150 C3170 0.950 . S
H3151 C3171 0.950 . S
H3152 C3173 0.950 . S
H3153 C3176 0.950 . S
H3154 C3177 0.950 . S
H3155 C3179 0.950 . S
H3156 C3180 0.950 . S
H3157 C3181 0.951 . S
H3158 C3183 0.951 . S
H3159 C3185 0.950 . S
H3160 C3186 0.950 . S
H3161 C3188 0.950 . S
H3162 C3191 0.950 . S
H3163 C3192 0.950 . S
H3164 C3194 0.950 . S
H3165 C3195 0.950 . S
C3166 H3148 0.951 . S
C3166 C3167 1.366 . S
C3166 C3168 1.388 . S
C3167 C3166 1.366 . S
C3167 C3171 1.385 . S
C3168 H3149 0.951 . S
C3168 C3166 1.388 . S
C3168 C3169 1.366 . S
C3169 C3168 1.366 . S
C3169 C3170 1.414 . S
C3169 C3172 1.499 . S
C3170 H3150 0.950 . S
C3170 C3169 1.414 . S
C3170 C3171 1.374 . S
C3171 H3151 0.950 . S
C3171 C3167 1.385 . S
C3171 C3170 1.374 . S
C3172 C3169 1.499 . S
C3172 C3173 1.373 . S
C3172 C3174 1.389 . S
C3173 H3152 0.950 . S
C3173 C3172 1.373 . S
C3173 C3189 1.377 . S
C3174 C3172 1.389 . S
C3174 C3175 1.524 . S
C3174 C3188 1.377 . S
C3175 C3174 1.524 . S
C3175 C3176 1.397 . S
C3175 C3180 1.363 . S
C3176 H3153 0.950 . S
C3176 C3175 1.397 . S
C3176 C3177 1.334 . S
C3177 H3154 0.950 . S
C3177 C3176 1.334 . S
C3177 C3178 1.287 . S
C3178 C3177 1.287 . S
C3178 C3179 1.524 . S
C3178 H3197 0.913 . S
C3179 H3155 0.950 . S
C3179 C3178 1.524 . S
C3179 C3180 1.415 . S
C3180 H3156 0.950 . S
C3180 C3175 1.363 . S
C3180 C3179 1.415 . S
C3181 H3157 0.951 . S
C3181 C3182 1.366 . S
C3181 C3183 1.388 . S
C3182 C3181 1.366 . S
C3182 C3186 1.385 . S
C3183 H3158 0.951 . S
C3183 C3181 1.388 . S
C3183 C3184 1.366 . S
C3184 C3183 1.366 . S
C3184 C3185 1.414 . S
C3184 C3187 1.499 . S
C3185 H3159 0.950 . S
C3185 C3184 1.414 . S
C3185 C3186 1.374 . S
C3186 H3160 0.950 . S
C3186 C3182 1.385 . S
C3186 C3185 1.374 . S
C3187 C3184 1.499 . S
C3187 C3188 1.373 . S
C3187 C3189 1.389 . S
C3188 H3161 0.950 . S
C3188 C3174 1.377 . S
C3188 C3187 1.373 . S
C3189 C3173 1.377 . S
C3189 C3187 1.389 . S
C3189 C3190 1.524 . S
C3190 C3189 1.524 . S
C3190 C3191 1.397 . S
C3190 C3195 1.363 . S
C3191 H3162 0.950 . S
C3191 C3190 1.397 . S
C3191 C3192 1.334 . S
C3192 H3163 0.950 . S
C3192 C3191 1.334 . S
C3192 C3193 1.287 . S
C3193 C3192 1.287 . S
C3193 C3194 1.524 . S
C3193 H3196 0.999 . S
C3194 H3164 0.950 . S
C3194 C3193 1.524 . S
C3194 C3195 1.415 . S
C3195 H3165 0.950 . S
C3195 C3190 1.363 . S
C3195 C3194 1.415 . S
H3196 C3193 0.999 . S
H3197 C3178 0.913 . S
H3198 C3216 0.951 . S
H3199 C3218 0.951 . S
H3200 C3220 0.950 . S
H3201 C3221 0.950 . S
H3202 C3223 0.950 . S
H3203 C3226 0.950 . S
H3204 C3227 0.950 . S
H3205 C3229 0.950 . S
H3206 C3230 0.950 . S
H3207 C3231 0.951 . S
H3208 C3233 0.951 . S
H3209 C3235 0.950 . S
H3210 C3236 0.950 . S
H3211 C3238 0.950 . S
H3212 C3241 0.950 . S
H3213 C3242 0.950 . S
H3214 C3244 0.950 . S
H3215 C3245 0.950 . S
C3216 H3198 0.951 . S
C3216 C3217 1.366 . S
C3216 C3218 1.388 . S
C3217 C3216 1.366 . S
C3217 C3221 1.385 . S
C3218 H3199 0.951 . S
C3218 C3216 1.388 . S
C3218 C3219 1.366 . S
C3219 C3218 1.366 . S
C3219 C3220 1.414 . S
C3219 C3222 1.499 . S
C3220 H3200 0.950 . S
C3220 C3219 1.414 . S
C3220 C3221 1.374 . S
C3221 H3201 0.950 . S
C3221 C3217 1.385 . S
C3221 C3220 1.374 . S
C3222 C3219 1.499 . S
C3222 C3223 1.373 . S
C3222 C3224 1.389 . S
C3223 H3202 0.950 . S
C3223 C3222 1.373 . S
C3223 C3239 1.377 . S
C3224 C3222 1.389 . S
C3224 C3225 1.524 . S
C3224 C3238 1.377 . S
C3225 C3224 1.524 . S
C3225 C3226 1.397 . S
C3225 C3230 1.363 . S
C3226 H3203 0.950 . S
C3226 C3225 1.397 . S
C3226 C3227 1.334 . S
C3227 H3204 0.950 . S
C3227 C3226 1.334 . S
C3227 C3228 1.287 . S
C3228 C3227 1.287 . S
C3228 C3229 1.524 . S
C3228 H3247 0.913 . S
C3229 H3205 0.950 . S
C3229 C3228 1.524 . S
C3229 C3230 1.415 . S
C3230 H3206 0.950 . S
C3230 C3225 1.363 . S
C3230 C3229 1.415 . S
C3231 H3207 0.951 . S
C3231 C3232 1.366 . S
C3231 C3233 1.388 . S
C3232 C3231 1.366 . S
C3232 C3236 1.385 . S
C3233 H3208 0.951 . S
C3233 C3231 1.388 . S
C3233 C3234 1.366 . S
C3234 C3233 1.366 . S
C3234 C3235 1.414 . S
C3234 C3237 1.499 . S
C3235 H3209 0.950 . S
C3235 C3234 1.414 . S
C3235 C3236 1.374 . S
C3236 H3210 0.950 . S
C3236 C3232 1.385 . S
C3236 C3235 1.374 . S
C3237 C3234 1.499 . S
C3237 C3238 1.373 . S
C3237 C3239 1.389 . S
C3238 H3211 0.950 . S
C3238 C3224 1.377 . S
C3238 C3237 1.373 . S
C3239 C3223 1.377 . S
C3239 C3237 1.389 . S
C3239 C3240 1.524 . S
C3240 C3239 1.524 . S
C3240 C3241 1.397 . S
C3240 C3245 1.363 . S
C3241 H3212 0.950 . S
C3241 C3240 1.397 . S
C3241 C3242 1.334 . S
C3242 H3213 0.950 . S
C3242 C3241 1.334 . S
C3242 C3243 1.287 . S
C3243 C3242 1.287 . S
C3243 C3244 1.524 . S
C3243 H3246 0.999 . S
C3244 H3214 0.950 . S
C3244 C3243 1.524 . S
C3244 C3245 1.415 . S
C3245 H3215 0.950 . S
C3245 C3240 1.363 . S
C3245 C3244 1.415 . S
H3246 C3243 0.999 . S
H3247 C3228 0.913 . S
H3248 C3266 0.951 . S
H3249 C3268 0.951 . S
H3250 C3270 0.950 . S
H3251 C3271 0.950 . S
H3252 C3273 0.950 . S
H3253 C3276 0.950 . S
H3254 C3277 0.950 . S
H3255 C3279 0.950 . S
H3256 C3280 0.950 . S
H3257 C3281 0.951 . S
H3258 C3283 0.951 . S
H3259 C3285 0.950 . S
H3260 C3286 0.950 . S
H3261 C3288 0.950 . S
H3262 C3291 0.950 . S
H3263 C3292 0.950 . S
H3264 C3294 0.950 . S
H3265 C3295 0.950 . S
C3266 H3248 0.951 . S
C3266 C3267 1.366 . S
C3266 C3268 1.388 . S
C3267 C3266 1.366 . S
C3267 C3271 1.385 . S
C3268 H3249 0.951 . S
C3268 C3266 1.388 . S
C3268 C3269 1.366 . S
C3269 C3268 1.366 . S
C3269 C3270 1.414 . S
C3269 C3272 1.499 . S
C3270 H3250 0.950 . S
C3270 C3269 1.414 . S
C3270 C3271 1.374 . S
C3271 H3251 0.950 . S
C3271 C3267 1.385 . S
C3271 C3270 1.374 . S
C3272 C3269 1.499 . S
C3272 C3273 1.373 . S
C3272 C3274 1.389 . S
C3273 H3252 0.950 . S
C3273 C3272 1.373 . S
C3273 C3289 1.377 . S
C3274 C3272 1.389 . S
C3274 C3275 1.524 . S
C3274 C3288 1.377 . S
C3275 C3274 1.524 . S
C3275 C3276 1.397 . S
C3275 C3280 1.363 . S
C3276 H3253 0.950 . S
C3276 C3275 1.397 . S
C3276 C3277 1.334 . S
C3277 H3254 0.950 . S
C3277 C3276 1.334 . S
C3277 C3278 1.287 . S
C3278 C3277 1.287 . S
C3278 C3279 1.524 . S
C3278 H3297 0.913 . S
C3279 H3255 0.950 . S
C3279 C3278 1.524 . S
C3279 C3280 1.415 . S
C3280 H3256 0.950 . S
C3280 C3275 1.363 . S
C3280 C3279 1.415 . S
C3281 H3257 0.951 . S
C3281 C3282 1.366 . S
C3281 C3283 1.388 . S
C3282 C3281 1.366 . S
C3282 C3286 1.385 . S
C3283 H3258 0.951 . S
C3283 C3281 1.388 . S
C3283 C3284 1.366 . S
C3284 C3283 1.366 . S
C3284 C3285 1.414 . S
C3284 C3287 1.499 . S
C3285 H3259 0.950 . S
C3285 C3284 1.414 . S
C3285 C3286 1.374 . S
C3286 H3260 0.950 . S
C3286 C3282 1.385 . S
C3286 C3285 1.374 . S
C3287 C3284 1.499 . S
C3287 C3288 1.373 . S
C3287 C3289 1.389 . S
C3288 H3261 0.950 . S
C3288 C3274 1.377 . S
C3288 C3287 1.373 . S
C3289 C3273 1.377 . S
C3289 C3287 1.389 . S
C3289 C3290 1.524 . S
C3290 C3289 1.524 . S
C3290 C3291 1.397 . S
C3290 C3295 1.363 . S
C3291 H3262 0.950 . S
C3291 C3290 1.397 . S
C3291 C3292 1.334 . S
C3292 H3263 0.950 . S
C3292 C3291 1.334 . S
C3292 C3293 1.287 . S
C3293 C3292 1.287 . S
C3293 C3294 1.524 . S
C3293 H3296 0.999 . S
C3294 H3264 0.950 . S
C3294 C3293 1.524 . S
C3294 C3295 1.415 . S
C3295 H3265 0.950 . S
C3295 C3290 1.363 . S
C3295 C3294 1.415 . S
H3296 C3293 0.999 . S
H3297 C3278 0.913 . S
H3298 C3316 0.951 . S
H3299 C3318 0.951 . S
H3300 C3320 0.950 . S
H3301 C3321 0.950 . S
H3302 C3323 0.950 . S
H3303 C3326 0.950 . S
H3304 C3327 0.950 . S
H3305 C3329 0.950 . S
H3306 C3330 0.950 . S
H3307 C3331 0.951 . S
H3308 C3333 0.951 . S
H3309 C3335 0.950 . S
H3310 C3336 0.950 . S
H3311 C3338 0.950 . S
H3312 C3341 0.950 . S
H3313 C3342 0.950 . S
H3314 C3344 0.950 . S
H3315 C3345 0.950 . S
C3316 H3298 0.951 . S
C3316 C3317 1.366 . S
C3316 C3318 1.388 . S
C3317 C3316 1.366 . S
C3317 C3321 1.385 . S
C3318 H3299 0.951 . S
C3318 C3316 1.388 . S
C3318 C3319 1.366 . S
C3319 C3318 1.366 . S
C3319 C3320 1.414 . S
C3319 C3322 1.499 . S
C3320 H3300 0.950 . S
C3320 C3319 1.414 . S
C3320 C3321 1.374 . S
C3321 H3301 0.950 . S
C3321 C3317 1.385 . S
C3321 C3320 1.374 . S
C3322 C3319 1.499 . S
C3322 C3323 1.373 . S
C3322 C3324 1.389 . S
C3323 H3302 0.950 . S
C3323 C3322 1.373 . S
C3323 C3339 1.377 . S
C3324 C3322 1.389 . S
C3324 C3325 1.524 . S
C3324 C3338 1.377 . S
C3325 C3324 1.524 . S
C3325 C3326 1.397 . S
C3325 C3330 1.363 . S
C3326 H3303 0.950 . S
C3326 C3325 1.397 . S
C3326 C3327 1.334 . S
C3327 H3304 0.950 . S
C3327 C3326 1.334 . S
C3327 C3328 1.287 . S
C3328 C3327 1.287 . S
C3328 C3329 1.524 . S
C3328 H3347 0.913 . S
C3329 H3305 0.950 . S
C3329 C3328 1.524 . S
C3329 C3330 1.415 . S
C3330 H3306 0.950 . S
C3330 C3325 1.363 . S
C3330 C3329 1.415 . S
C3331 H3307 0.951 . S
C3331 C3332 1.366 . S
C3331 C3333 1.388 . S
C3332 C3331 1.366 . S
C3332 C3336 1.385 . S
C3333 H3308 0.951 . S
C3333 C3331 1.388 . S
C3333 C3334 1.366 . S
C3334 C3333 1.366 . S
C3334 C3335 1.414 . S
C3334 C3337 1.499 . S
C3335 H3309 0.950 . S
C3335 C3334 1.414 . S
C3335 C3336 1.374 . S
C3336 H3310 0.950 . S
C3336 C3332 1.385 . S
C3336 C3335 1.374 . S
C3337 C3334 1.499 . S
C3337 C3338 1.373 . S
C3337 C3339 1.389 . S
C3338 H3311 0.950 . S
C3338 C3324 1.377 . S
C3338 C3337 1.373 . S
C3339 C3323 1.377 . S
C3339 C3337 1.389 . S
C3339 C3340 1.524 . S
C3340 C3339 1.524 . S
C3340 C3341 1.397 . S
C3340 C3345 1.363 . S
C3341 H3312 0.950 . S
C3341 C3340 1.397 . S
C3341 C3342 1.334 . S
C3342 H3313 0.950 . S
C3342 C3341 1.334 . S
C3342 C3343 1.287 . S
C3343 C3342 1.287 . S
C3343 C3344 1.524 . S
C3343 H3346 0.999 . S
C3344 H3314 0.950 . S
C3344 C3343 1.524 . S
C3344 C3345 1.415 . S
C3345 H3315 0.950 . S
C3345 C3340 1.363 . S
C3345 C3344 1.415 . S
H3346 C3343 0.999 . S
H3347 C3328 0.913 . S
H3348 C3366 0.951 . S
H3349 C3368 0.951 . S
H3350 C3370 0.950 . S
H3351 C3371 0.950 . S
H3352 C3373 0.950 . S
H3353 C3376 0.950 . S
H3354 C3377 0.950 . S
H3355 C3379 0.950 . S
H3356 C3380 0.950 . S
H3357 C3381 0.951 . S
H3358 C3383 0.951 . S
H3359 C3385 0.950 . S
H3360 C3386 0.950 . S
H3361 C3388 0.950 . S
H3362 C3391 0.950 . S
H3363 C3392 0.950 . S
H3364 C3394 0.950 . S
H3365 C3395 0.950 . S
C3366 H3348 0.951 . S
C3366 C3367 1.366 . S
C3366 C3368 1.388 . S
C3367 C3366 1.366 . S
C3367 C3371 1.385 . S
C3368 H3349 0.951 . S
C3368 C3366 1.388 . S
C3368 C3369 1.366 . S
C3369 C3368 1.366 . S
C3369 C3370 1.414 . S
C3369 C3372 1.499 . S
C3370 H3350 0.950 . S
C3370 C3369 1.414 . S
C3370 C3371 1.374 . S
C3371 H3351 0.950 . S
C3371 C3367 1.385 . S
C3371 C3370 1.374 . S
C3372 C3369 1.499 . S
C3372 C3373 1.373 . S
C3372 C3374 1.389 . S
C3373 H3352 0.950 . S
C3373 C3372 1.373 . S
C3373 C3389 1.377 . S
C3374 C3372 1.389 . S
C3374 C3375 1.524 . S
C3374 C3388 1.377 . S
C3375 C3374 1.524 . S
C3375 C3376 1.397 . S
C3375 C3380 1.363 . S
C3376 H3353 0.950 . S
C3376 C3375 1.397 . S
C3376 C3377 1.334 . S
C3377 H3354 0.950 . S
C3377 C3376 1.334 . S
C3377 C3378 1.287 . S
C3378 C3377 1.287 . S
C3378 C3379 1.524 . S
C3378 H3397 0.913 . S
C3379 H3355 0.950 . S
C3379 C3378 1.524 . S
C3379 C3380 1.415 . S
C3380 H3356 0.950 . S
C3380 C3375 1.363 . S
C3380 C3379 1.415 . S
C3381 H3357 0.951 . S
C3381 C3382 1.366 . S
C3381 C3383 1.388 . S
C3382 C3381 1.366 . S
C3382 C3386 1.385 . S
C3383 H3358 0.951 . S
C3383 C3381 1.388 . S
C3383 C3384 1.366 . S
C3384 C3383 1.366 . S
C3384 C3385 1.414 . S
C3384 C3387 1.499 . S
C3385 H3359 0.950 . S
C3385 C3384 1.414 . S
C3385 C3386 1.374 . S
C3386 H3360 0.950 . S
C3386 C3382 1.385 . S
C3386 C3385 1.374 . S
C3387 C3384 1.499 . S
C3387 C3388 1.373 . S
C3387 C3389 1.389 . S
C3388 H3361 0.950 . S
C3388 C3374 1.377 . S
C3388 C3387 1.373 . S
C3389 C3373 1.377 . S
C3389 C3387 1.389 . S
C3389 C3390 1.524 . S
C3390 C3389 1.524 . S
C3390 C3391 1.397 . S
C3390 C3395 1.363 . S
C3391 H3362 0.950 . S
C3391 C3390 1.397 . S
C3391 C3392 1.334 . S
C3392 H3363 0.950 . S
C3392 C3391 1.334 . S
C3392 C3393 1.287 . S
C3393 C3392 1.287 . S
C3393 C3394 1.524 . S
C3393 H3396 0.999 . S
C3394 H3364 0.950 . S
C3394 C3393 1.524 . S
C3394 C3395 1.415 . S
C3395 H3365 0.950 . S
C3395 C3390 1.363 . S
C3395 C3394 1.415 . S
H3396 C3393 0.999 . S
H3397 C3378 0.913 . S
H3398 C3416 0.951 . S
H3399 C3418 0.951 . S
H3400 C3420 0.950 . S
H3401 C3421 0.950 . S
H3402 C3423 0.950 . S
H3403 C3426 0.950 . S
H3404 C3427 0.950 . S
H3405 C3429 0.950 . S
H3406 C3430 0.950 . S
H3407 C3431 0.951 . S
H3408 C3433 0.951 . S
H3409 C3435 0.950 . S
H3410 C3436 0.950 . S
H3411 C3438 0.950 . S
H3412 C3441 0.950 . S
H3413 C3442 0.950 . S
H3414 C3444 0.950 . S
H3415 C3445 0.950 . S
C3416 H3398 0.951 . S
C3416 C3417 1.366 . S
C3416 C3418 1.388 . S
C3417 C3416 1.366 . S
C3417 C3421 1.385 . S
C3418 H3399 0.951 . S
C3418 C3416 1.388 . S
C3418 C3419 1.366 . S
C3419 C3418 1.366 . S
C3419 C3420 1.414 . S
C3419 C3422 1.499 . S
C3420 H3400 0.950 . S
C3420 C3419 1.414 . S
C3420 C3421 1.374 . S
C3421 H3401 0.950 . S
C3421 C3417 1.385 . S
C3421 C3420 1.374 . S
C3422 C3419 1.499 . S
C3422 C3423 1.373 . S
C3422 C3424 1.389 . S
C3423 H3402 0.950 . S
C3423 C3422 1.373 . S
C3423 C3439 1.377 . S
C3424 C3422 1.389 . S
C3424 C3425 1.524 . S
C3424 C3438 1.377 . S
C3425 C3424 1.524 . S
C3425 C3426 1.397 . S
C3425 C3430 1.363 . S
C3426 H3403 0.950 . S
C3426 C3425 1.397 . S
C3426 C3427 1.334 . S
C3427 H3404 0.950 . S
C3427 C3426 1.334 . S
C3427 C3428 1.287 . S
C3428 C3427 1.287 . S
C3428 C3429 1.524 . S
C3428 H3447 0.913 . S
C3429 H3405 0.950 . S
C3429 C3428 1.524 . S
C3429 C3430 1.415 . S
C3430 H3406 0.950 . S
C3430 C3425 1.363 . S
C3430 C3429 1.415 . S
C3431 H3407 0.951 . S
C3431 C3432 1.366 . S
C3431 C3433 1.388 . S
C3432 C3431 1.366 . S
C3432 C3436 1.385 . S
C3433 H3408 0.951 . S
C3433 C3431 1.388 . S
C3433 C3434 1.366 . S
C3434 C3433 1.366 . S
C3434 C3435 1.414 . S
C3434 C3437 1.499 . S
C3435 H3409 0.950 . S
C3435 C3434 1.414 . S
C3435 C3436 1.374 . S
C3436 H3410 0.950 . S
C3436 C3432 1.385 . S
C3436 C3435 1.374 . S
C3437 C3434 1.499 . S
C3437 C3438 1.373 . S
C3437 C3439 1.389 . S
C3438 H3411 0.950 . S
C3438 C3424 1.377 . S
C3438 C3437 1.373 . S
C3439 C3423 1.377 . S
C3439 C3437 1.389 . S
C3439 C3440 1.524 . S
C3440 C3439 1.524 . S
C3440 C3441 1.397 . S
C3440 C3445 1.363 . S
C3441 H3412 0.950 . S
C3441 C3440 1.397 . S
C3441 C3442 1.334 . S
C3442 H3413 0.950 . S
C3442 C3441 1.334 . S
C3442 C3443 1.287 . S
C3443 C3442 1.287 . S
C3443 C3444 1.524 . S
C3443 H3446 0.999 . S
C3444 H3414 0.950 . S
C3444 C3443 1.524 . S
C3444 C3445 1.415 . S
C3445 H3415 0.950 . S
C3445 C3440 1.363 . S
C3445 C3444 1.415 . S
H3446 C3443 0.999 . S
H3447 C3428 0.913 . S
H3448 C3466 0.951 . S
H3449 C3468 0.951 . S
H3450 C3470 0.950 . S
H3451 C3471 0.950 . S
H3452 C3473 0.950 . S
H3453 C3476 0.950 . S
H3454 C3477 0.950 . S
H3455 C3479 0.950 . S
H3456 C3480 0.950 . S
H3457 C3481 0.951 . S
H3458 C3483 0.951 . S
H3459 C3485 0.950 . S
H3460 C3486 0.950 . S
H3461 C3488 0.950 . S
H3462 C3491 0.950 . S
H3463 C3492 0.950 . S
H3464 C3494 0.950 . S
H3465 C3495 0.950 . S
C3466 H3448 0.951 . S
C3466 C3467 1.366 . S
C3466 C3468 1.388 . S
C3467 C3466 1.366 . S
C3467 C3471 1.385 . S
C3468 H3449 0.951 . S
C3468 C3466 1.388 . S
C3468 C3469 1.366 . S
C3469 C3468 1.366 . S
C3469 C3470 1.414 . S
C3469 C3472 1.499 . S
C3470 H3450 0.950 . S
C3470 C3469 1.414 . S
C3470 C3471 1.374 . S
C3471 H3451 0.950 . S
C3471 C3467 1.385 . S
C3471 C3470 1.374 . S
C3472 C3469 1.499 . S
C3472 C3473 1.373 . S
C3472 C3474 1.389 . S
C3473 H3452 0.950 . S
C3473 C3472 1.373 . S
C3473 C3489 1.377 . S
C3474 C3472 1.389 . S
C3474 C3475 1.524 . S
C3474 C3488 1.377 . S
C3475 C3474 1.524 . S
C3475 C3476 1.397 . S
C3475 C3480 1.363 . S
C3476 H3453 0.950 . S
C3476 C3475 1.397 . S
C3476 C3477 1.334 . S
C3477 H3454 0.950 . S
C3477 C3476 1.334 . S
C3477 C3478 1.287 . S
C3478 C3477 1.287 . S
C3478 C3479 1.524 . S
C3478 H3497 0.913 . S
C3479 H3455 0.950 . S
C3479 C3478 1.524 . S
C3479 C3480 1.415 . S
C3480 H3456 0.950 . S
C3480 C3475 1.363 . S
C3480 C3479 1.415 . S
C3481 H3457 0.951 . S
C3481 C3482 1.366 . S
C3481 C3483 1.388 . S
C3482 C3481 1.366 . S
C3482 C3486 1.385 . S
C3483 H3458 0.951 . S
C3483 C3481 1.388 . S
C3483 C3484 1.366 . S
C3484 C3483 1.366 . S
C3484 C3485 1.414 . S
C3484 C3487 1.499 . S
C3485 H3459 0.950 . S
C3485 C3484 1.414 . S
C3485 C3486 1.374 . S
C3486 H3460 0.950 . S
C3486 C3482 1.385 . S
C3486 C3485 1.374 . S
C3487 C3484 1.499 . S
C3487 C3488 1.373 . S
C3487 C3489 1.389 . S
C3488 H3461 0.950 . S
C3488 C3474 1.377 . S
C3488 C3487 1.373 . S
C3489 C3473 1.377 . S
C3489 C3487 1.389 . S
C3489 C3490 1.524 . S
C3490 C3489 1.524 . S
C3490 C3491 1.397 . S
C3490 C3495 1.363 . S
C3491 H3462 0.950 . S
C3491 C3490 1.397 . S
C3491 C3492 1.334 . S
C3492 H3463 0.950 . S
C3492 C3491 1.334 . S
C3492 C3493 1.287 . S
C3493 C3492 1.287 . S
C3493 C3494 1.524 . S
C3493 H3496 0.999 . S
C3494 H3464 0.950 . S
C3494 C3493 1.524 . S
C3494 C3495 1.415 . S
C3495 H3465 0.950 . S
C3495 C3490 1.363 . S
C3495 C3494 1.415 . S
H3496 C3493 0.999 . S
H3497 C3478 0.913 . S
H3498 C3516 0.951 . S
H3499 C3518 0.951 . S
H3500 C3520 0.950 . S
H3501 C3521 0.950 . S
H3502 C3523 0.950 . S
H3503 C3526 0.950 . S
H3504 C3527 0.950 . S
H3505 C3529 0.950 . S
H3506 C3530 0.950 . S
H3507 C3531 0.951 . S
H3508 C3533 0.951 . S
H3509 C3535 0.950 . S
H3510 C3536 0.950 . S
H3511 C3538 0.950 . S
H3512 C3541 0.950 . S
H3513 C3542 0.950 . S
H3514 C3544 0.950 . S
H3515 C3545 0.950 . S
C3516 H3498 0.951 . S
C3516 C3517 1.366 . S
C3516 C3518 1.388 . S
C3517 C3516 1.366 . S
C3517 C3521 1.385 . S
C3518 H3499 0.951 . S
C3518 C3516 1.388 . S
C3518 C3519 1.366 . S
C3519 C3518 1.366 . S
C3519 C3520 1.414 . S
C3519 C3522 1.499 . S
C3520 H3500 0.950 . S
C3520 C3519 1.414 . S
C3520 C3521 1.374 . S
C3521 H3501 0.950 . S
C3521 C3517 1.385 . S
C3521 C3520 1.374 . S
C3522 C3519 1.499 . S
C3522 C3523 1.373 . S
C3522 C3524 1.389 . S
C3523 H3502 0.950 . S
C3523 C3522 1.373 . S
C3523 C3539 1.377 . S
C3524 C3522 1.389 . S
C3524 C3525 1.524 . S
C3524 C3538 1.377 . S
C3525 C3524 1.524 . S
C3525 C3526 1.397 . S
C3525 C3530 1.363 . S
C3526 H3503 0.950 . S
C3526 C3525 1.397 . S
C3526 C3527 1.334 . S
C3527 H3504 0.950 . S
C3527 C3526 1.334 . S
C3527 C3528 1.287 . S
C3528 C3527 1.287 . S
C3528 C3529 1.524 . S
C3528 H3547 0.913 . S
C3529 H3505 0.950 . S
C3529 C3528 1.524 . S
C3529 C3530 1.415 . S
C3530 H3506 0.950 . S
C3530 C3525 1.363 . S
C3530 C3529 1.415 . S
C3531 H3507 0.951 . S
C3531 C3532 1.366 . S
C3531 C3533 1.388 . S
C3532 C3531 1.366 . S
C3532 C3536 1.385 . S
C3533 H3508 0.951 . S
C3533 C3531 1.388 . S
C3533 C3534 1.366 . S
C3534 C3533 1.366 . S
C3534 C3535 1.414 . S
C3534 C3537 1.499 . S
C3535 H3509 0.950 . S
C3535 C3534 1.414 . S
C3535 C3536 1.374 . S
C3536 H3510 0.950 . S
C3536 C3532 1.385 . S
C3536 C3535 1.374 . S
C3537 C3534 1.499 . S
C3537 C3538 1.373 . S
C3537 C3539 1.389 . S
C3538 H3511 0.950 . S
C3538 C3524 1.377 . S
C3538 C3537 1.373 . S
C3539 C3523 1.377 . S
C3539 C3537 1.389 . S
C3539 C3540 1.524 . S
C3540 C3539 1.524 . S
C3540 C3541 1.397 . S
C3540 C3545 1.363 . S
C3541 H3512 0.950 . S
C3541 C3540 1.397 . S
C3541 C3542 1.334 . S
C3542 H3513 0.950 . S
C3542 C3541 1.334 . S
C3542 C3543 1.287 . S
C3543 C3542 1.287 . S
C3543 C3544 1.524 . S
C3543 H3546 0.999 . S
C3544 H3514 0.950 . S
C3544 C3543 1.524 . S
C3544 C3545 1.415 . S
C3545 H3515 0.950 . S
C3545 C3540 1.363 . S
C3545 C3544 1.415 . S
H3546 C3543 0.999 . S
H3547 C3528 0.913 . S
H3548 C3566 0.951 . S
H3549 C3568 0.951 . S
H3550 C3570 0.950 . S
H3551 C3571 0.950 . S
H3552 C3573 0.950 . S
H3553 C3576 0.950 . S
H3554 C3577 0.950 . S
H3555 C3579 0.950 . S
H3556 C3580 0.950 . S
H3557 C3581 0.951 . S
H3558 C3583 0.951 . S
H3559 C3585 0.950 . S
H3560 C3586 0.950 . S
H3561 C3588 0.950 . S
H3562 C3591 0.950 . S
H3563 C3592 0.950 . S
H3564 C3594 0.950 . S
H3565 C3595 0.950 . S
C3566 H3548 0.951 . S
C3566 C3567 1.366 . S
C3566 C3568 1.388 . S
C3567 C3566 1.366 . S
C3567 C3571 1.385 . S
C3568 H3549 0.951 . S
C3568 C3566 1.388 . S
C3568 C3569 1.366 . S
C3569 C3568 1.366 . S
C3569 C3570 1.414 . S
C3569 C3572 1.499 . S
C3570 H3550 0.950 . S
C3570 C3569 1.414 . S
C3570 C3571 1.374 . S
C3571 H3551 0.950 . S
C3571 C3567 1.385 . S
C3571 C3570 1.374 . S
C3572 C3569 1.499 . S
C3572 C3573 1.373 . S
C3572 C3574 1.389 . S
C3573 H3552 0.950 . S
C3573 C3572 1.373 . S
C3573 C3589 1.377 . S
C3574 C3572 1.389 . S
C3574 C3575 1.524 . S
C3574 C3588 1.377 . S
C3575 C3574 1.524 . S
C3575 C3576 1.397 . S
C3575 C3580 1.363 . S
C3576 H3553 0.950 . S
C3576 C3575 1.397 . S
C3576 C3577 1.334 . S
C3577 H3554 0.950 . S
C3577 C3576 1.334 . S
C3577 C3578 1.287 . S
C3578 C3577 1.287 . S
C3578 C3579 1.524 . S
C3578 H3597 0.913 . S
C3579 H3555 0.950 . S
C3579 C3578 1.524 . S
C3579 C3580 1.415 . S
C3580 H3556 0.950 . S
C3580 C3575 1.363 . S
C3580 C3579 1.415 . S
C3581 H3557 0.951 . S
C3581 C3582 1.366 . S
C3581 C3583 1.388 . S
C3582 C3581 1.366 . S
C3582 C3586 1.385 . S
C3583 H3558 0.951 . S
C3583 C3581 1.388 . S
C3583 C3584 1.366 . S
C3584 C3583 1.366 . S
C3584 C3585 1.414 . S
C3584 C3587 1.499 . S
C3585 H3559 0.950 . S
C3585 C3584 1.414 . S
C3585 C3586 1.374 . S
C3586 H3560 0.950 . S
C3586 C3582 1.385 . S
C3586 C3585 1.374 . S
C3587 C3584 1.499 . S
C3587 C3588 1.373 . S
C3587 C3589 1.389 . S
C3588 H3561 0.950 . S
C3588 C3574 1.377 . S
C3588 C3587 1.373 . S
C3589 C3573 1.377 . S
C3589 C3587 1.389 . S
C3589 C3590 1.524 . S
C3590 C3589 1.524 . S
C3590 C3591 1.397 . S
C3590 C3595 1.363 . S
C3591 H3562 0.950 . S
C3591 C3590 1.397 . S
C3591 C3592 1.334 . S
C3592 H3563 0.950 . S
C3592 C3591 1.334 . S
C3592 C3593 1.287 . S
C3593 C3592 1.287 . S
C3593 C3594 1.524 . S
C3593 H3596 0.999 . S
C3594 H3564 0.950 . S
C3594 C3593 1.524 . S
C3594 C3595 1.415 . S
C3595 H3565 0.950 . S
C3595 C3590 1.363 . S
C3595 C3594 1.415 . S
H3596 C3593 0.999 . S
H3597 C3578 0.913 . S
H3598 C3616 0.951 . S
H3599 C3618 0.951 . S
H3600 C3620 0.950 . S
H3601 C3621 0.950 . S
H3602 C3623 0.950 . S
H3603 C3626 0.950 . S
H3604 C3627 0.950 . S
H3605 C3629 0.950 . S
H3606 C3630 0.950 . S
H3607 C3631 0.951 . S
H3608 C3633 0.951 . S
H3609 C3635 0.950 . S
H3610 C3636 0.950 . S
H3611 C3638 0.950 . S
H3612 C3641 0.950 . S
H3613 C3642 0.950 . S
H3614 C3644 0.950 . S
H3615 C3645 0.950 . S
C3616 H3598 0.951 . S
C3616 C3617 1.366 . S
C3616 C3618 1.388 . S
C3617 C3616 1.366 . S
C3617 C3621 1.385 . S
C3618 H3599 0.951 . S
C3618 C3616 1.388 . S
C3618 C3619 1.366 . S
C3619 C3618 1.366 . S
C3619 C3620 1.414 . S
C3619 C3622 1.499 . S
C3620 H3600 0.950 . S
C3620 C3619 1.414 . S
C3620 C3621 1.374 . S
C3621 H3601 0.950 . S
C3621 C3617 1.385 . S
C3621 C3620 1.374 . S
C3622 C3619 1.499 . S
C3622 C3623 1.373 . S
C3622 C3624 1.389 . S
C3623 H3602 0.950 . S
C3623 C3622 1.373 . S
C3623 C3639 1.377 . S
C3624 C3622 1.389 . S
C3624 C3625 1.524 . S
C3624 C3638 1.377 . S
C3625 C3624 1.524 . S
C3625 C3626 1.397 . S
C3625 C3630 1.363 . S
C3626 H3603 0.950 . S
C3626 C3625 1.397 . S
C3626 C3627 1.334 . S
C3627 H3604 0.950 . S
C3627 C3626 1.334 . S
C3627 C3628 1.287 . S
C3628 C3627 1.287 . S
C3628 C3629 1.524 . S
C3628 H3647 0.913 . S
C3629 H3605 0.950 . S
C3629 C3628 1.524 . S
C3629 C3630 1.415 . S
C3630 H3606 0.950 . S
C3630 C3625 1.363 . S
C3630 C3629 1.415 . S
C3631 H3607 0.951 . S
C3631 C3632 1.366 . S
C3631 C3633 1.388 . S
C3632 C3631 1.366 . S
C3632 C3636 1.385 . S
C3633 H3608 0.951 . S
C3633 C3631 1.388 . S
C3633 C3634 1.366 . S
C3634 C3633 1.366 . S
C3634 C3635 1.414 . S
C3634 C3637 1.499 . S
C3635 H3609 0.950 . S
C3635 C3634 1.414 . S
C3635 C3636 1.374 . S
C3636 H3610 0.950 . S
C3636 C3632 1.385 . S
C3636 C3635 1.374 . S
C3637 C3634 1.499 . S
C3637 C3638 1.373 . S
C3637 C3639 1.389 . S
C3638 H3611 0.950 . S
C3638 C3624 1.377 . S
C3638 C3637 1.373 . S
C3639 C3623 1.377 . S
C3639 C3637 1.389 . S
C3639 C3640 1.524 . S
C3640 C3639 1.524 . S
C3640 C3641 1.397 . S
C3640 C3645 1.363 . S
C3641 H3612 0.950 . S
C3641 C3640 1.397 . S
C3641 C3642 1.334 . S
C3642 H3613 0.950 . S
C3642 C3641 1.334 . S
C3642 C3643 1.287 . S
C3643 C3642 1.287 . S
C3643 C3644 1.524 . S
C3643 H3646 0.999 . S
C3644 H3614 0.950 . S
C3644 C3643 1.524 . S
C3644 C3645 1.415 . S
C3645 H3615 0.950 . S
C3645 C3640 1.363 . S
C3645 C3644 1.415 . S
H3646 C3643 0.999 . S
H3647 C3628 0.913 . S
H3648 C3666 0.951 . S
H3649 C3668 0.951 . S
H3650 C3670 0.950 . S
H3651 C3671 0.950 . S
H3652 C3673 0.950 . S
H3653 C3676 0.950 . S
H3654 C3677 0.950 . S
H3655 C3679 0.950 . S
H3656 C3680 0.950 . S
H3657 C3681 0.951 . S
H3658 C3683 0.951 . S
H3659 C3685 0.950 . S
H3660 C3686 0.950 . S
H3661 C3688 0.950 . S
H3662 C3691 0.950 . S
H3663 C3692 0.950 . S
H3664 C3694 0.950 . S
H3665 C3695 0.950 . S
C3666 H3648 0.951 . S
C3666 C3667 1.366 . S
C3666 C3668 1.388 . S
C3667 C3666 1.366 . S
C3667 C3671 1.385 . S
C3668 H3649 0.951 . S
C3668 C3666 1.388 . S
C3668 C3669 1.366 . S
C3669 C3668 1.366 . S
C3669 C3670 1.414 . S
C3669 C3672 1.499 . S
C3670 H3650 0.950 . S
C3670 C3669 1.414 . S
C3670 C3671 1.374 . S
C3671 H3651 0.950 . S
C3671 C3667 1.385 . S
C3671 C3670 1.374 . S
C3672 C3669 1.499 . S
C3672 C3673 1.373 . S
C3672 C3674 1.389 . S
C3673 H3652 0.950 . S
C3673 C3672 1.373 . S
C3673 C3689 1.377 . S
C3674 C3672 1.389 . S
C3674 C3675 1.524 . S
C3674 C3688 1.377 . S
C3675 C3674 1.524 . S
C3675 C3676 1.397 . S
C3675 C3680 1.363 . S
C3676 H3653 0.950 . S
C3676 C3675 1.397 . S
C3676 C3677 1.334 . S
C3677 H3654 0.950 . S
C3677 C3676 1.334 . S
C3677 C3678 1.287 . S
C3678 C3677 1.287 . S
C3678 C3679 1.524 . S
C3678 H3697 0.913 . S
C3679 H3655 0.950 . S
C3679 C3678 1.524 . S
C3679 C3680 1.415 . S
C3680 H3656 0.950 . S
C3680 C3675 1.363 . S
C3680 C3679 1.415 . S
C3681 H3657 0.951 . S
C3681 C3682 1.366 . S
C3681 C3683 1.388 . S
C3682 C3681 1.366 . S
C3682 C3686 1.385 . S
C3683 H3658 0.951 . S
C3683 C3681 1.388 . S
C3683 C3684 1.366 . S
C3684 C3683 1.366 . S
C3684 C3685 1.414 . S
C3684 C3687 1.499 . S
C3685 H3659 0.950 . S
C3685 C3684 1.414 . S
C3685 C3686 1.374 . S
C3686 H3660 0.950 . S
C3686 C3682 1.385 . S
C3686 C3685 1.374 . S
C3687 C3684 1.499 . S
C3687 C3688 1.373 . S
C3687 C3689 1.389 . S
C3688 H3661 0.950 . S
C3688 C3674 1.377 . S
C3688 C3687 1.373 . S
C3689 C3673 1.377 . S
C3689 C3687 1.389 . S
C3689 C3690 1.524 . S
C3690 C3689 1.524 . S
C3690 C3691 1.397 . S
C3690 C3695 1.363 . S
C3691 H3662 0.950 . S
C3691 C3690 1.397 . S
C3691 C3692 1.334 . S
C3692 H3663 0.950 . S
C3692 C3691 1.334 . S
C3692 C3693 1.287 . S
C3693 C3692 1.287 . S
C3693 C3694 1.524 . S
C3693 H3696 0.999 . S
C3694 H3664 0.950 . S
C3694 C3693 1.524 . S
C3694 C3695 1.415 . S
C3695 H3665 0.950 . S
C3695 C3690 1.363 . S
C3695 C3694 1.415 . S
H3696 C3693 0.999 . S
H3697 C3678 0.913 . S
H3698 C3716 0.951 . S
H3699 C3718 0.951 . S
H3700 C3720 0.950 . S
H3701 C3721 0.950 . S
H3702 C3723 0.950 . S
H3703 C3726 0.950 . S
H3704 C3727 0.950 . S
H3705 C3729 0.950 . S
H3706 C3730 0.950 . S
H3707 C3731 0.951 . S
H3708 C3733 0.951 . S
H3709 C3735 0.950 . S
H3710 C3736 0.950 . S
H3711 C3738 0.950 . S
H3712 C3741 0.950 . S
H3713 C3742 0.950 . S
H3714 C3744 0.950 . S
H3715 C3745 0.950 . S
C3716 H3698 0.951 . S
C3716 C3717 1.366 . S
C3716 C3718 1.388 . S
C3717 C3716 1.366 . S
C3717 C3721 1.385 . S
C3718 H3699 0.951 . S
C3718 C3716 1.388 . S
C3718 C3719 1.366 . S
C3719 C3718 1.366 . S
C3719 C3720 1.414 . S
C3719 C3722 1.499 . S
C3720 H3700 0.950 . S
C3720 C3719 1.414 . S
C3720 C3721 1.374 . S
C3721 H3701 0.950 . S
C3721 C3717 1.385 . S
C3721 C3720 1.374 . S
C3722 C3719 1.499 . S
C3722 C3723 1.373 . S
C3722 C3724 1.389 . S
C3723 H3702 0.950 . S
C3723 C3722 1.373 . S
C3723 C3739 1.377 . S
C3724 C3722 1.389 . S
C3724 C3725 1.524 . S
C3724 C3738 1.377 . S
C3725 C3724 1.524 . S
C3725 C3726 1.397 . S
C3725 C3730 1.363 . S
C3726 H3703 0.950 . S
C3726 C3725 1.397 . S
C3726 C3727 1.334 . S
C3727 H3704 0.950 . S
C3727 C3726 1.334 . S
C3727 C3728 1.287 . S
C3728 C3727 1.287 . S
C3728 C3729 1.524 . S
C3728 H3747 0.913 . S
C3729 H3705 0.950 . S
C3729 C3728 1.524 . S
C3729 C3730 1.415 . S
C3730 H3706 0.950 . S
C3730 C3725 1.363 . S
C3730 C3729 1.415 . S
C3731 H3707 0.951 . S
C3731 C3732 1.366 . S
C3731 C3733 1.388 . S
C3732 C3731 1.366 . S
C3732 C3736 1.385 . S
C3733 H3708 0.951 . S
C3733 C3731 1.388 . S
C3733 C3734 1.366 . S
C3734 C3733 1.366 . S
C3734 C3735 1.414 . S
C3734 C3737 1.499 . S
C3735 H3709 0.950 . S
C3735 C3734 1.414 . S
C3735 C3736 1.374 . S
C3736 H3710 0.950 . S
C3736 C3732 1.385 . S
C3736 C3735 1.374 . S
C3737 C3734 1.499 . S
C3737 C3738 1.373 . S
C3737 C3739 1.389 . S
C3738 H3711 0.950 . S
C3738 C3724 1.377 . S
C3738 C3737 1.373 . S
C3739 C3723 1.377 . S
C3739 C3737 1.389 . S
C3739 C3740 1.524 . S
C3740 C3739 1.524 . S
C3740 C3741 1.397 . S
C3740 C3745 1.363 . S
C3741 H3712 0.950 . S
C3741 C3740 1.397 . S
C3741 C3742 1.334 . S
C3742 H3713 0.950 . S
C3742 C3741 1.334 . S
C3742 C3743 1.287 . S
C3743 C3742 1.287 . S
C3743 C3744 1.524 . S
C3743 H3746 0.999 . S
C3744 H3714 0.950 . S
C3744 C3743 1.524 . S
C3744 C3745 1.415 . S
C3745 H3715 0.950 . S
C3745 C3740 1.363 . S
C3745 C3744 1.415 . S
H3746 C3743 0.999 . S
H3747 C3728 0.913 . S
H3748 C3766 0.951 . S
H3749 C3768 0.951 . S
H3750 C3770 0.950 . S
H3751 C3771 0.950 . S
H3752 C3773 0.950 . S
H3753 C3776 0.950 . S
H3754 C3777 0.950 . S
H3755 C3779 0.950 . S
H3756 C3780 0.950 . S
H3757 C3781 0.951 . S
H3758 C3783 0.951 . S
H3759 C3785 0.950 . S
H3760 C3786 0.950 . S
H3761 C3788 0.950 . S
H3762 C3791 0.950 . S
H3763 C3792 0.950 . S
H3764 C3794 0.950 . S
H3765 C3795 0.950 . S
C3766 H3748 0.951 . S
C3766 C3767 1.366 . S
C3766 C3768 1.388 . S
C3767 C3766 1.366 . S
C3767 C3771 1.385 . S
C3768 H3749 0.951 . S
C3768 C3766 1.388 . S
C3768 C3769 1.366 . S
C3769 C3768 1.366 . S
C3769 C3770 1.414 . S
C3769 C3772 1.499 . S
C3770 H3750 0.950 . S
C3770 C3769 1.414 . S
C3770 C3771 1.374 . S
C3771 H3751 0.950 . S
C3771 C3767 1.385 . S
C3771 C3770 1.374 . S
C3772 C3769 1.499 . S
C3772 C3773 1.373 . S
C3772 C3774 1.389 . S
C3773 H3752 0.950 . S
C3773 C3772 1.373 . S
C3773 C3789 1.377 . S
C3774 C3772 1.389 . S
C3774 C3775 1.524 . S
C3774 C3788 1.377 . S
C3775 C3774 1.524 . S
C3775 C3776 1.397 . S
C3775 C3780 1.363 . S
C3776 H3753 0.950 . S
C3776 C3775 1.397 . S
C3776 C3777 1.334 . S
C3777 H3754 0.950 . S
C3777 C3776 1.334 . S
C3777 C3778 1.287 . S
C3778 C3777 1.287 . S
C3778 C3779 1.524 . S
C3778 H3797 0.913 . S
C3779 H3755 0.950 . S
C3779 C3778 1.524 . S
C3779 C3780 1.415 . S
C3780 H3756 0.950 . S
C3780 C3775 1.363 . S
C3780 C3779 1.415 . S
C3781 H3757 0.951 . S
C3781 C3782 1.366 . S
C3781 C3783 1.388 . S
C3782 C3781 1.366 . S
C3782 C3786 1.385 . S
C3783 H3758 0.951 . S
C3783 C3781 1.388 . S
C3783 C3784 1.366 . S
C3784 C3783 1.366 . S
C3784 C3785 1.414 . S
C3784 C3787 1.499 . S
C3785 H3759 0.950 . S
C3785 C3784 1.414 . S
C3785 C3786 1.374 . S
C3786 H3760 0.950 . S
C3786 C3782 1.385 . S
C3786 C3785 1.374 . S
C3787 C3784 1.499 . S
C3787 C3788 1.373 . S
C3787 C3789 1.389 . S
C3788 H3761 0.950 . S
C3788 C3774 1.377 . S
C3788 C3787 1.373 . S
C3789 C3773 1.377 . S
C3789 C3787 1.389 . S
C3789 C3790 1.524 . S
C3790 C3789 1.524 . S
C3790 C3791 1.397 . S
C3790 C3795 1.363 . S
C3791 H3762 0.950 . S
C3791 C3790 1.397 . S
C3791 C3792 1.334 . S
C3792 H3763 0.950 . S
C3792 C3791 1.334 . S
C3792 C3793 1.287 . S
C3793 C3792 1.287 . S
C3793 C3794 1.524 . S
C3793 H3796 0.999 . S
C3794 H3764 0.950 . S
C3794 C3793 1.524 . S
C3794 C3795 1.415 . S
C3795 H3765 0.950 . S
C3795 C3790 1.363 . S
C3795 C3794 1.415 . S
H3796 C3793 0.999 . S
H3797 C3778 0.913 . S
C1117 C253 1.441 . S
C1132 C409 1.389 . S
C1167 C272 1.473 . S
C1182 C493 1.424 . S
C1217 C234 1.426 . S
C1232 C573 1.430 . S
C1267 C215 1.407 . S
C1282 C489 1.412 1_556 S
C1332 C577 1.376 . S
C1317 C177 1.427 . S
C1367 C196 1.380 . S
C1382 C405 1.381 1_556 S
C1432 C398 1.486 . S
C1417 C220 1.464 . S
C1482 C482 1.509 . S
C1467 C182 1.486 . S
C1517 C201 1.479 . S
C1532 C584 1.523 . S
C1567 C258 1.444 . S
C1582 C500 1.484 . S
C1617 C277 1.432 . S
C1632 C566 1.451 . S
C1682 C416 1.467 . S
C1667 C239 1.424 . S
C1732 C661 1.389 . S
C1717 C25 1.440 . S
C1767 C44 1.473 . S
C1782 C745 1.424 . S
C1817 C6 1.426 . S
C1832 C825 1.430 . S
C1867 C329 1.407 . S
C1882 C741 1.411 . S
C1917 C291 1.426 . S
C1932 C829 1.374 . S
C1967 C310 1.380 . S
C1982 C657 1.384 . S
C2017 C334 1.464 . S
C2032 C650 1.487 . S
C2067 C296 1.487 . S
C2082 C734 1.509 . S
C2132 C836 1.522 . S
C2117 C315 1.478 . S
C2167 C30 1.443 . S
C2182 C752 1.484 . S
C2232 C818 1.451 . S
C2217 C49 1.432 . S
C2267 C11 1.425 . S
C2282 C668 1.467 . S
C2332 C913 1.390 . S
C2317 C139 1.440 . S
C2367 C158 1.473 . S
C2382 C997 1.424 . S
C2432 C1077 1.430 . S
C2417 C120 1.426 . S
C2482 C993 1.411 . S
C2467 C101 1.407 . S
C2532 C1081 1.373 . S
C2517 C63 1.426 . S
C2567 C82 1.380 . S
C2582 C909 1.383 . S
C2617 C106 1.463 . S
C2632 C902 1.485 . S
C2667 C68 1.487 . S
C2682 C986 1.510 . S
C2732 C1088 1.522 . S
C2717 C87 1.478 . S
C2767 C144 1.444 . S
C2782 C1004 1.485 . S
C2817 C163 1.433 . S
C2832 C1070 1.452 . S
C2867 C125 1.423 . S
C2882 C920 1.466 . S
C2917 C287 1.652 . S
C2932 C412 1.532 . S
C2982 C496 1.600 . S
C2967 C306 1.743 . S
C3017 C325 1.665 . S
C3032 C568 1.469 . S
C3067 C116 1.702 . S
C3082 C484 1.494 . S
C3117 C135 1.688 . S
C3132 C580 1.553 . S
C3182 C400 1.428 . S
C3167 C154 1.610 . S
C3217 C59 1.653 . S
C3232 C664 1.532 . S
C3267 C78 1.743 . S
C3282 C748 1.601 . S
C3317 C97 1.665 . S
C3332 C820 1.469 . S
C3367 C230 1.702 . S
C3382 C736 1.493 . S
C3432 C832 1.553 . S
C3417 C249 1.688 . S
C3467 C268 1.610 . S
C3482 C652 1.429 . S
C3517 C173 1.652 . S
C3532 C916 1.531 . S
C3567 C192 1.743 . S
C3582 C1000 1.601 . S
C3632 C1072 1.469 . S
C3617 C211 1.665 . S
C3667 C2 1.702 . S
C3682 C988 1.493 . S
C3717 C21 1.688 . S
C3732 C1084 1.553 . S
C3767 C40 1.611 . S
C3782 C904 1.430 . S
