# Generated by pormake.
# Topology nom, (4,4)-cn, num edge types: 1
# Building blocks:
#     Node 0, Type 0, BuildingBlock: MIFKUJ_clean_linker_1, # of connection points: 4
#     Node 1, Type 0, BuildingBlock: MIFKUJ_clean_linker_1, # of connection points: 4
#     Node 2, Type 0, BuildingBlock: MIFKUJ_clean_linker_1, # of connection points: 4
#     Node 3, Type 0, BuildingBlock: MIFKUJ_clean_linker_1, # of connection points: 4
#     Node 4, Type 0, BuildingBlock: MIFKUJ_clean_linker_1, # of connection points: 4
#     Node 5, Type 0, BuildingBlock: MIFKUJ_clean_linker_1, # of connection points: 4
#     Node 6, Type 1, BuildingBlock: CEKHIL_clean_sbu_0, # of connection points: 4
#     Node 7, Type 1, BuildingBlock: CEKHIL_clean_sbu_0, # of connection points: 4
#     Node 8, Type 1, BuildingBlock: CEKHIL_clean_sbu_0, # of connection points: 4
#     Node 9, Type 1, BuildingBlock: CEKHIL_clean_sbu_0, # of connection points: 4
#     Node 10, Type 1, BuildingBlock: CEKHIL_clean_sbu_0, # of connection points: 4
#     Node 11, Type 1, BuildingBlock: CEKHIL_clean_sbu_0, # of connection points: 4
#     Edge 12, Type (0, 1), BuildingBlock: UVAHIK_clean_linker_0, # of connection points: 2
#     Edge 13, Type (0, 1), BuildingBlock: UVAHIK_clean_linker_0, # of connection points: 2
#     Edge 14, Type (0, 1), BuildingBlock: UVAHIK_clean_linker_0, # of connection points: 2
#     Edge 15, Type (0, 1), BuildingBlock: UVAHIK_clean_linker_0, # of connection points: 2
#     Edge 16, Type (0, 1), BuildingBlock: UVAHIK_clean_linker_0, # of connection points: 2
#     Edge 17, Type (0, 1), BuildingBlock: UVAHIK_clean_linker_0, # of connection points: 2
#     Edge 18, Type (0, 1), BuildingBlock: UVAHIK_clean_linker_0, # of connection points: 2
#     Edge 19, Type (0, 1), BuildingBlock: UVAHIK_clean_linker_0, # of connection points: 2
#     Edge 20, Type (0, 1), BuildingBlock: UVAHIK_clean_linker_0, # of connection points: 2
#     Edge 21, Type (0, 1), BuildingBlock: UVAHIK_clean_linker_0, # of connection points: 2
#     Edge 22, Type (0, 1), BuildingBlock: UVAHIK_clean_linker_0, # of connection points: 2
#     Edge 23, Type (0, 1), BuildingBlock: UVAHIK_clean_linker_0, # of connection points: 2
#     Edge 24, Type (0, 1), BuildingBlock: UVAHIK_clean_linker_0, # of connection points: 2
#     Edge 25, Type (0, 1), BuildingBlock: UVAHIK_clean_linker_0, # of connection points: 2
#     Edge 26, Type (0, 1), BuildingBlock: UVAHIK_clean_linker_0, # of connection points: 2
#     Edge 27, Type (0, 1), BuildingBlock: UVAHIK_clean_linker_0, # of connection points: 2
#     Edge 28, Type (0, 1), BuildingBlock: UVAHIK_clean_linker_0, # of connection points: 2
#     Edge 29, Type (0, 1), BuildingBlock: UVAHIK_clean_linker_0, # of connection points: 2
#     Edge 30, Type (0, 1), BuildingBlock: UVAHIK_clean_linker_0, # of connection points: 2
#     Edge 31, Type (0, 1), BuildingBlock: UVAHIK_clean_linker_0, # of connection points: 2
#     Edge 32, Type (0, 1), BuildingBlock: UVAHIK_clean_linker_0, # of connection points: 2
#     Edge 33, Type (0, 1), BuildingBlock: UVAHIK_clean_linker_0, # of connection points: 2
#     Edge 34, Type (0, 1), BuildingBlock: UVAHIK_clean_linker_0, # of connection points: 2
#     Edge 35, Type (0, 1), BuildingBlock: UVAHIK_clean_linker_0, # of connection points: 2
# Relax obj value: 0.002
# Max RMSD: 0.099
# Mean RMSD: 0.066
data_MOF--net-nom--node1-CEKHIL_clean_sbu_0--node2-MIFKUJ_clean_linker_1--edge1-UVAHIK_clean_linker_0
_symmetry_space_group_name_H-M    P1
_symmetry_Int_Tables_number       1
_symmetry_cell_setting            triclinic
loop_
_symmetry_equiv_pos_as_xyz
'x, y, z'
_cell_length_a     66.774369
_cell_length_b     66.1208
_cell_length_c     70.282559
_cell_angle_alpha  89.996895
_cell_angle_beta   90.003233
_cell_angle_gamma 121.01616
loop_
_atom_site_label
_atom_site_type_symbol
_atom_site_fract_x
_atom_site_fract_y
_atom_site_fract_z
_atom_type_partial_charge
H0 H 0.9831 0.47138 0.28643 0.0
H1 H 0.95639 0.46035 0.2595 0.0
H2 H 0.94138 0.5144 0.27537 0.0
H3 H 0.96755 0.52467 0.30273 0.0
H4 H 0.0232 0.51753 0.29462 0.0
H5 H 0.94598 0.462 0.32019 0.0
H6 H 0.90544 0.44965 0.32687 0.0
H7 H 0.9288 0.51033 0.36354 0.0
H8 H 0.96913 0.52356 0.35546 0.0
H9 H 0.02992 0.54743 0.37319 0.0
H10 H 0.05741 0.55984 0.39968 0.0
H11 H 0.08704 0.52074 0.37583 0.0
H12 H 0.05883 0.5076 0.34974 0.0
H13 H 0.99591 0.50708 0.36153 0.0
H14 H 0.06342 0.56866 0.3329 0.0
H15 H 0.10477 0.59308 0.32464 0.0
H16 H 0.10151 0.53376 0.29583 0.0
H17 H 0.05989 0.50928 0.30415 0.0
C18 C 0.97717 0.49872 0.2966 0.0
C19 C 0.97402 0.48081 0.28408 0.0
C20 C 0.95883 0.47465 0.26861 0.0
C21 C 0.94675 0.48654 0.26514 0.0
C22 C 0.95009 0.50461 0.27772 0.0
C23 C 0.96514 0.51061 0.29331 0.0
C24 C 0.99327 0.50502 0.31298 0.0
C25 C 0.01716 0.51481 0.30925 0.0
C26 C 0.9855 0.50266 0.33206 0.0
C27 C 0.96069 0.494 0.33698 0.0
C28 C 0.94236 0.47286 0.3294 0.0
C29 C 0.91911 0.46561 0.3335 0.0
C30 C 0.91367 0.47904 0.34568 0.0
C31 C 0.93216 0.49979 0.35373 0.0
C32 C 0.95533 0.50724 0.34933 0.0
C33 C 0.04239 0.52672 0.35937 0.0
C34 C 0.04221 0.54136 0.37373 0.0
C35 C 0.05812 0.54866 0.38878 0.0
C36 C 0.07458 0.54144 0.38981 0.0
C37 C 0.07452 0.5265 0.37555 0.0
C38 C 0.05854 0.51916 0.36051 0.0
C39 C 0.02579 0.5195 0.34315 0.0
C40 C 0.00186 0.50949 0.34689 0.0
C41 C 0.03356 0.52281 0.32407 0.0
C42 C 0.05869 0.53714 0.31925 0.0
C43 C 0.07163 0.56087 0.32489 0.0
C44 C 0.09518 0.57483 0.32006 0.0
C45 C 0.10629 0.5653 0.30957 0.0
C46 C 0.09337 0.54146 0.30403 0.0
C47 C 0.06965 0.52754 0.30869 0.0
H48 H 0.43976 0.95651 0.51195 0.0
H49 H 0.41451 0.91447 0.51839 0.0
H50 H 0.4687 0.90229 0.49845 0.0
H51 H 0.49365 0.94446 0.49155 0.0
H52 H 0.48461 0.98886 0.52619 0.0
H53 H 0.44634 0.95866 0.46433 0.0
H54 H 0.43411 0.93012 0.43843 0.0
H55 H 0.50593 0.94903 0.43016 0.0
H56 H 0.51802 0.97829 0.45564 0.0
H57 H 0.54887 0.05747 0.47096 0.0
H58 H 0.56477 0.0992 0.46308 0.0
H59 H 0.50418 0.09585 0.48841 0.0
H60 H 0.48837 0.05426 0.49613 0.0
H61 H 0.50713 0.01766 0.45991 0.0
H62 H 0.5448 0.05848 0.51607 0.0
H63 H 0.55577 0.08542 0.54311 0.0
H64 H 0.48579 0.04412 0.56544 0.0
H65 H 0.47434 0.01786 0.53781 0.0
C66 C 0.46851 0.95353 0.50127 0.0
C67 C 0.44621 0.94477 0.50906 0.0
C68 C 0.43185 0.92073 0.5128 0.0
C69 C 0.43959 0.90496 0.50902 0.0
C70 C 0.46206 0.91387 0.50129 0.0
C71 C 0.47639 0.93796 0.49744 0.0
C72 C 0.48318 0.97898 0.49687 0.0
C73 C 0.48945 0.9953 0.51173 0.0
C74 C 0.49017 0.98713 0.47807 0.0
C75 C 0.48305 0.97049 0.46188 0.0
C76 C 0.45942 0.9567 0.45683 0.0
C77 C 0.45246 0.94022 0.44212 0.0
C78 C 0.46898 0.937 0.43224 0.0
C79 C 0.49273 0.95115 0.43724 0.0
C80 C 0.4997 0.96784 0.45185 0.0
C81 C 0.51755 0.05288 0.48423 0.0
C82 C 0.53904 0.06577 0.47476 0.0
C83 C 0.54815 0.08958 0.4704 0.0
C84 C 0.5357 0.10072 0.47517 0.0
C85 C 0.51406 0.08766 0.48446 0.0
C86 C 0.50509 0.06397 0.48896 0.0
C87 C 0.50791 0.02779 0.48922 0.0
C88 C 0.50265 0.01146 0.47446 0.0
C89 C 0.50188 0.01969 0.50822 0.0
C90 C 0.5086 0.03624 0.52463 0.0
C91 C 0.53159 0.05548 0.52647 0.0
C92 C 0.53791 0.07082 0.54197 0.0
C93 C 0.52157 0.06684 0.55623 0.0
C94 C 0.49868 0.04751 0.55459 0.0
C95 C 0.49219 0.03247 0.53885 0.0
H96 H 0.51591 0.53484 0.7004 0.0
H97 H 0.5006 0.54619 0.72721 0.0
H98 H 0.43022 0.4932 0.71084 0.0
H99 H 0.44581 0.48264 0.68355 0.0
H100 H 0.50701 0.48737 0.69225 0.0
H101 H 0.48854 0.54524 0.66681 0.0
H102 H 0.46058 0.55743 0.65948 0.0
H103 H 0.4238 0.49751 0.62179 0.0
H104 H 0.45065 0.48449 0.63037 0.0
H105 H 0.48865 0.46349 0.61208 0.0
H106 H 0.50476 0.45219 0.58585 0.0
H107 H 0.57263 0.48846 0.6128 0.0
H108 H 0.55651 0.50042 0.63882 0.0
H109 H 0.49518 0.50249 0.62529 0.0
H110 H 0.50222 0.44084 0.64786 0.0
H111 H 0.51776 0.41578 0.65635 0.0
H112 H 0.56187 0.46637 0.6988 0.0
H113 H 0.54718 0.49221 0.68961 0.0
C114 C 0.48198 0.508 0.69 0.0
C115 C 0.49718 0.5257 0.70262 0.0
C116 C 0.48837 0.53205 0.71802 0.0
C117 C 0.46413 0.52053 0.72132 0.0
C118 C 0.44894 0.50268 0.70862 0.0
C119 C 0.4578 0.4965 0.69309 0.0
C120 C 0.49167 0.50158 0.67372 0.0
C121 C 0.50486 0.49103 0.67759 0.0
C122 C 0.48742 0.50504 0.65462 0.0
C123 C 0.47149 0.51366 0.64945 0.0
C124 C 0.47423 0.53452 0.65722 0.0
C125 C 0.45836 0.54166 0.65277 0.0
C126 C 0.43971 0.52839 0.64012 0.0
C127 C 0.43751 0.50791 0.63195 0.0
C128 C 0.45311 0.50059 0.63664 0.0
C129 C 0.5213 0.48266 0.62751 0.0
C130 C 0.50706 0.46925 0.61227 0.0
C131 C 0.51625 0.46259 0.59737 0.0
C132 C 0.53993 0.4692 0.59734 0.0
C133 C 0.55435 0.48316 0.61237 0.0
C134 C 0.54511 0.48984 0.62731 0.0
C135 C 0.51102 0.48863 0.64375 0.0
C136 C 0.4977 0.49907 0.63993 0.0
C137 C 0.51384 0.48365 0.66285 0.0
C138 C 0.52391 0.46878 0.66774 0.0
C139 C 0.51573 0.44697 0.65861 0.0
C140 C 0.52447 0.43254 0.66355 0.0
C141 C 0.54107 0.43924 0.67814 0.0
C142 C 0.54906 0.46085 0.6875 0.0
C143 C 0.54067 0.47557 0.68226 0.0
H144 H 0.03046 0.52669 0.78519 0.0
H145 H 0.05825 0.54071 0.75884 0.0
H146 H 0.08164 0.49349 0.77607 0.0
H147 H 0.05319 0.47898 0.80215 0.0
H148 H 0.99372 0.48211 0.79348 0.0
H149 H 0.06999 0.53809 0.82053 0.0
H150 H 0.11068 0.55144 0.82768 0.0
H151 H 0.08826 0.48938 0.86246 0.0
H152 H 0.04786 0.47528 0.85393 0.0
H153 H 0.98226 0.44797 0.87047 0.0
H154 H 0.95461 0.43686 0.89675 0.0
H155 H 0.93453 0.48552 0.87599 0.0
H156 H 0.96157 0.49574 0.84936 0.0
H157 H 0.02012 0.491 0.86058 0.0
H158 H 0.95242 0.43059 0.83155 0.0
H159 H 0.91115 0.40682 0.82291 0.0
H160 H 0.91595 0.46686 0.79409 0.0
H161 H 0.95749 0.49071 0.80282 0.0
C162 C 0.03996 0.50202 0.79576 0.0
C163 C 0.04146 0.51924 0.78321 0.0
C164 C 0.05751 0.52738 0.76827 0.0
C165 C 0.07236 0.51842 0.76549 0.0
C166 C 0.0704 0.50069 0.77779 0.0
C167 C 0.05429 0.49252 0.79277 0.0
C168 C 0.02349 0.49433 0.81204 0.0
C169 C 0.99959 0.48445 0.80814 0.0
C170 C 0.031 0.49626 0.83118 0.0
C171 C 0.05582 0.50541 0.83635 0.0
C172 C 0.07388 0.52718 0.82944 0.0
C173 C 0.09719 0.53496 0.83379 0.0
C174 C 0.10293 0.52144 0.84558 0.0
C175 C 0.08469 0.50002 0.85296 0.0
C176 C 0.06146 0.49206 0.8483 0.0
C177 C 0.97392 0.47262 0.85797 0.0
C178 C 0.97187 0.4562 0.87162 0.0
C179 C 0.95611 0.44998 0.8867 0.0
C180 C 0.94232 0.46035 0.88862 0.0
C181 C 0.94451 0.47685 0.87486 0.0
C182 C 0.96008 0.48285 0.85967 0.0
C183 C 0.99059 0.4792 0.84194 0.0
C184 C 0.01441 0.48891 0.84588 0.0
C185 C 0.98305 0.47627 0.82284 0.0
C186 C 0.95792 0.46242 0.81792 0.0
C187 C 0.94456 0.43869 0.82349 0.0
C188 C 0.92106 0.4251 0.81844 0.0
C189 C 0.91042 0.435 0.80779 0.0
C190 C 0.92373 0.45887 0.8024 0.0
C191 C 0.94741 0.47243 0.80728 0.0
H192 H 0.58162 0.04672 0.01221 0.0
H193 H 0.60729 0.08856 0.01932 0.0
H194 H 0.55365 0.10206 0.00027 0.0
H195 H 0.52831 0.06015 0.99275 0.0
H196 H 0.53645 0.01462 0.02656 0.0
H197 H 0.57422 0.04487 0.96407 0.0
H198 H 0.58639 0.07348 0.93822 0.0
H199 H 0.51498 0.05679 0.93181 0.0
H200 H 0.50293 0.02738 0.95714 0.0
H201 H 0.47006 0.94774 0.97113 0.0
H202 H 0.45307 0.90589 0.96291 0.0
H203 H 0.51259 0.90697 0.98817 0.0
H204 H 0.52944 0.94858 0.99625 0.0
H205 H 0.5125 0.98695 0.96017 0.0
H206 H 0.47304 0.95017 0.01649 0.0
H207 H 0.45892 0.92265 0.04314 0.0
H208 H 0.5296 0.9536 0.06409 0.0
H209 H 0.54377 0.98071 0.0369 0.0
C210 C 0.55315 0.05041 0.00191 0.0
C211 C 0.57541 0.05872 0.00963 0.0
C212 C 0.59 0.08264 0.01375 0.0
C213 C 0.58252 0.09871 0.01043 0.0
C214 C 0.56011 0.09025 0.00275 0.0
C215 C 0.54555 0.06631 0.99853 0.0
C216 C 0.53805 0.02507 0.99732 0.0
C217 C 0.53135 0.0085 0.01206 0.0
C218 C 0.53058 0.01724 0.97851 0.0
C219 C 0.53771 0.03409 0.96248 0.0
C220 C 0.56122 0.04733 0.95698 0.0
C221 C 0.56815 0.06386 0.9423 0.0
C222 C 0.55173 0.06771 0.93293 0.0
C223 C 0.5281 0.05416 0.93845 0.0
C224 C 0.52115 0.03739 0.95299 0.0
C225 C 0.50092 0.95116 0.98437 0.0
C226 C 0.47939 0.9389 0.97486 0.0
C227 C 0.46966 0.91503 0.9703 0.0
C228 C 0.48155 0.90326 0.9749 0.0
C229 C 0.50315 0.91566 0.98433 0.0
C230 C 0.51271 0.93937 0.98904 0.0
C231 C 0.51146 0.97639 0.98938 0.0
C232 C 0.51731 0.99296 0.97474 0.0
C233 C 0.5178 0.98423 0.00837 0.0
C234 C 0.50949 0.96741 0.02459 0.0
C235 C 0.48556 0.95087 0.02668 0.0
C236 C 0.47748 0.9353 0.04205 0.0
C237 C 0.49312 0.93601 0.05581 0.0
C238 C 0.51713 0.95247 0.05365 0.0
C239 C 0.52523 0.9681 0.03822 0.0
H240 H 0.50041 0.46664 0.19894 0.0
H241 H 0.51514 0.45434 0.2256 0.0
H242 H 0.58586 0.50787 0.21057 0.0
H243 H 0.5709 0.51939 0.18351 0.0
H244 H 0.50963 0.51478 0.19203 0.0
H245 H 0.52431 0.45541 0.16163 0.0
H246 H 0.55049 0.44112 0.15324 0.0
H247 H 0.59799 0.50845 0.12707 0.0
H248 H 0.57146 0.52222 0.13503 0.0
H249 H 0.53196 0.54395 0.11276 0.0
H250 H 0.5165 0.55602 0.08649 0.0
H251 H 0.4479 0.51871 0.11216 0.0
H252 H 0.46334 0.50601 0.13811 0.0
H253 H 0.5248 0.50399 0.12477 0.0
H254 H 0.52256 0.56631 0.15231 0.0
H255 H 0.50862 0.59265 0.16079 0.0
H256 H 0.45228 0.53652 0.19313 0.0
H257 H 0.46684 0.51033 0.18489 0.0
C258 C 0.53457 0.49382 0.18925 0.0
C259 C 0.51909 0.47564 0.2014 0.0
C260 C 0.52757 0.46875 0.21671 0.0
C261 C 0.55174 0.48019 0.22036 0.0
C262 C 0.5672 0.49842 0.20807 0.0
C263 C 0.55869 0.50514 0.19265 0.0
C264 C 0.52541 0.50119 0.17322 0.0
C265 C 0.51245 0.51195 0.17731 0.0
C266 C 0.5305 0.49895 0.15409 0.0
C267 C 0.54597 0.48987 0.14896 0.0
C268 C 0.54037 0.46702 0.15407 0.0
C269 C 0.55542 0.45894 0.14933 0.0
C270 C 0.57639 0.47361 0.13943 0.0
C271 C 0.58183 0.49648 0.13436 0.0
C272 C 0.56673 0.50445 0.13898 0.0
C273 C 0.49887 0.52421 0.12749 0.0
C274 C 0.51356 0.53822 0.11267 0.0
C275 C 0.50473 0.5453 0.09776 0.0
C276 C 0.48098 0.53847 0.0973 0.0
C277 C 0.46622 0.52415 0.11202 0.0
C278 C 0.47508 0.51707 0.12696 0.0
C279 C 0.50841 0.51704 0.14351 0.0
C280 C 0.5215 0.50642 0.13946 0.0
C281 C 0.5047 0.52074 0.1627 0.0
C282 C 0.49555 0.53627 0.16776 0.0
C283 C 0.50708 0.5596 0.1611 0.0
C284 C 0.49901 0.57463 0.16592 0.0
C285 C 0.47917 0.56669 0.17751 0.0
C286 C 0.46773 0.54331 0.18431 0.0
C287 C 0.47594 0.52827 0.17955 0.0
Co288 Co 0.63845 0.37823 0.40877 0.0
O289 O 0.65858 0.37584 0.39057 0.0
O290 O 0.66893 0.40683 0.40906 0.0
C291 C 0.62474 0.34205 0.4213 0.0
O292 O 0.62292 0.38655 0.42997 0.0
Co293 Co 0.58474 0.34422 0.40754 0.0
O294 O 0.58607 0.35631 0.43355 0.0
C295 C 0.60716 0.38402 0.38044 0.0
C296 C 0.67477 0.39661 0.39622 0.0
C297 C 0.60347 0.37578 0.43919 0.0
O298 O 0.62706 0.39178 0.38865 0.0
O299 O 0.58859 0.36482 0.38523 0.0
O300 O 0.64464 0.35974 0.4269 0.0
O301 O 0.61474 0.34638 0.40749 0.0
Co302 Co 0.26563 0.62809 0.57834 0.0
O303 O 0.28901 0.63022 0.59546 0.0
O304 O 0.26617 0.59903 0.57768 0.0
C305 C 0.28878 0.66392 0.56514 0.0
O306 O 0.24051 0.62021 0.55824 0.0
Co307 Co 0.2486 0.66375 0.58128 0.0
O308 O 0.23502 0.65094 0.55591 0.0
C309 C 0.23291 0.62543 0.60959 0.0
C310 C 0.28329 0.60925 0.58984 0.0
C311 C 0.2318 0.6313 0.54985 0.0
O312 O 0.24168 0.61557 0.59953 0.0
O313 O 0.2356 0.64556 0.60549 0.0
O314 O 0.28968 0.64582 0.55915 0.0
O315 O 0.27543 0.66012 0.57962 0.0
Co316 Co 0.63288 0.25974 0.74363 0.0
O317 O 0.63378 0.28132 0.72478 0.0
O318 O 0.60484 0.26137 0.7452 0.0
C319 C 0.6696 0.28388 0.75423 0.0
O320 O 0.62599 0.23676 0.76563 0.0
Co321 Co 0.66598 0.23998 0.74239 0.0
O322 O 0.65677 0.23209 0.76939 0.0
C323 C 0.62478 0.21995 0.71693 0.0
C324 C 0.61381 0.27682 0.73156 0.0
C325 C 0.63758 0.22958 0.77525 0.0
O326 O 0.61796 0.23307 0.72461 0.0
O327 O 0.64373 0.22073 0.7215 0.0
O328 O 0.65252 0.28612 0.76042 0.0
O329 O 0.66431 0.26832 0.74102 0.0
Co330 Co 0.37915 0.6257 0.90848 0.0
O331 O 0.35856 0.62765 0.89049 0.0
O332 O 0.34882 0.59693 0.90915 0.0
C333 C 0.3927 0.66196 0.9208 0.0
O334 O 0.39526 0.61788 0.92953 0.0
Co335 Co 0.43273 0.6601 0.90655 0.0
O336 O 0.432 0.64848 0.93263 0.0
C337 C 0.41017 0.61988 0.87986 0.0
C338 C 0.3426 0.60689 0.89637 0.0
C339 C 0.41486 0.62899 0.93853 0.0
O340 O 0.39039 0.61212 0.88827 0.0
O341 O 0.42873 0.63922 0.8844 0.0
O342 O 0.373 0.64418 0.92664 0.0
O343 O 0.40259 0.65765 0.90688 0.0
Co344 Co 0.75366 0.37751 0.07854 0.0
O345 O 0.73099 0.3755 0.09653 0.0
O346 O 0.75149 0.40555 0.07698 0.0
C347 C 0.73116 0.34071 0.06687 0.0
O348 O 0.77771 0.38543 0.05748 0.0
Co349 Co 0.77378 0.34452 0.08162 0.0
O350 O 0.78822 0.35811 0.0567 0.0
C351 C 0.79111 0.38544 0.10744 0.0
C352 C 0.73552 0.39583 0.09009 0.0
C353 C 0.78885 0.3763 0.04994 0.0
O354 O 0.77895 0.39253 0.09858 0.0
O355 O 0.79032 0.36613 0.10356 0.0
O356 O 0.72883 0.35787 0.06062 0.0
O357 O 0.74551 0.34587 0.08088 0.0
Co358 Co 0.38239 0.74291 0.24379 0.0
O359 O 0.38 0.7205 0.22515 0.0
O360 O 0.41064 0.74144 0.24378 0.0
C361 C 0.34651 0.71904 0.25617 0.0
O362 O 0.39072 0.76677 0.26533 0.0
Co363 Co 0.34867 0.76204 0.24372 0.0
O364 O 0.36004 0.77142 0.27015 0.0
C365 C 0.38722 0.7801 0.21561 0.0
C366 C 0.40049 0.72526 0.23075 0.0
C367 C 0.37961 0.77424 0.27529 0.0
O368 O 0.3957 0.7688 0.22399 0.0
O369 O 0.36795 0.77838 0.2206 0.0
O370 O 0.36407 0.71715 0.2616 0.0
O371 O 0.35084 0.73402 0.2427 0.0
C372 C 0.14709 0.57283 0.30737 0.0
C373 C 0.13122 0.58043 0.30428 0.0
C374 C 0.17082 0.58771 0.30319 0.0
C375 C 0.21504 0.65097 0.29473 0.0
H376 H 0.25154 0.62598 0.27357 0.0
C377 C 0.3052 0.70908 0.25964 0.0
C378 C 0.32279 0.70421 0.26408 0.0
C379 C 0.28234 0.6942 0.26599 0.0
C380 C 0.24161 0.63315 0.27969 0.0
H381 H 0.12745 0.60907 0.29373 0.0
H382 H 0.1686 0.63476 0.28594 0.0
H383 H 0.21039 0.59917 0.28115 0.0
H384 H 0.3304 0.68017 0.2789 0.0
H385 H 0.29027 0.65395 0.28987 0.0
H386 H 0.24616 0.68502 0.29272 0.0
C387 C 0.16301 0.61768 0.29217 0.0
C388 C 0.21804 0.61781 0.28406 0.0
C389 C 0.13939 0.60293 0.29653 0.0
C390 C 0.31719 0.68437 0.27528 0.0
C391 C 0.29423 0.6693 0.28145 0.0
C392 C 0.23851 0.6663 0.29018 0.0
C393 C 0.17911 0.6104 0.29566 0.0
C394 C 0.20439 0.62654 0.29151 0.0
C395 C 0.27656 0.674 0.27675 0.0
C396 C 0.25199 0.65757 0.2825 0.0
H397 H 0.14125 0.55562 0.31348 0.0
H398 H 0.18272 0.5816 0.30627 0.0
H399 H 0.20526 0.6583 0.30086 0.0
H400 H 0.309 0.72425 0.25103 0.0
H401 H 0.26904 0.69815 0.26202 0.0
C402 C 0.56843 0.14297 0.47421 0.0
C403 C 0.54504 0.12582 0.47032 0.0
C404 C 0.57704 0.16669 0.46985 0.0
C405 C 0.56666 0.20456 0.43847 0.0
H406 H 0.60311 0.25383 0.47523 0.0
C407 C 0.59203 0.30032 0.42439 0.0
C408 C 0.61479 0.31812 0.42928 0.0
C409 C 0.5832 0.27718 0.43056 0.0
C410 C 0.59319 0.24032 0.46472 0.0
H411 H 0.51241 0.11993 0.45863 0.0
H412 H 0.52747 0.16133 0.45093 0.0
H413 H 0.58887 0.21267 0.48336 0.0
H414 H 0.64595 0.3259 0.44491 0.0
H415 H 0.63075 0.28535 0.45535 0.0
H416 H 0.57126 0.23199 0.41966 0.0
C417 C 0.53913 0.15645 0.45737 0.0
C418 C 0.58503 0.21677 0.4694 0.0
C419 C 0.53047 0.13281 0.4619 0.0
C420 C 0.62831 0.31251 0.44096 0.0
C421 C 0.61955 0.28928 0.447 0.0
C422 C 0.57497 0.22807 0.43373 0.0
C423 C 0.56248 0.17363 0.46132 0.0
C424 C 0.57158 0.19866 0.45634 0.0
C425 C 0.59701 0.27126 0.44161 0.0
C426 C 0.58822 0.24625 0.44683 0.0
H427 H 0.57998 0.13806 0.48083 0.0
H428 H 0.59515 0.17956 0.47292 0.0
H429 H 0.55664 0.19099 0.42802 0.0
H430 H 0.58112 0.30418 0.41555 0.0
H431 H 0.56557 0.26387 0.42652 0.0
C432 C 0.42983 0.5598 0.6338 0.0
C433 C 0.42263 0.53578 0.63535 0.0
C434 C 0.41385 0.56664 0.629 0.0
C435 C 0.34988 0.54411 0.62573 0.0
H436 H 0.37138 0.60031 0.59502 0.0
C437 C 0.28987 0.57507 0.59196 0.0
C438 C 0.29713 0.59871 0.59594 0.0
C439 C 0.3041 0.56601 0.59687 0.0
C440 C 0.36517 0.58459 0.60362 0.0
H441 H 0.39259 0.50017 0.63347 0.0
H442 H 0.36515 0.51204 0.62413 0.0
H443 H 0.39842 0.58727 0.60307 0.0
H444 H 0.32483 0.63128 0.60837 0.0
H445 H 0.34964 0.6156 0.61652 0.0
H446 H 0.31638 0.54132 0.62572 0.0
C447 C 0.38305 0.52567 0.62701 0.0
C448 C 0.38069 0.57718 0.60839 0.0
C449 C 0.39896 0.51883 0.63207 0.0
C450 C 0.31867 0.61297 0.60512 0.0
C451 C 0.33298 0.60407 0.6097 0.0
C452 C 0.33424 0.55134 0.62066 0.0
C453 C 0.39027 0.54968 0.62535 0.0
C454 C 0.37339 0.55703 0.61974 0.0
C455 C 0.32596 0.5806 0.6055 0.0
C456 C 0.34186 0.57182 0.60979 0.0
H457 H 0.44791 0.5734 0.636 0.0
H458 H 0.42006 0.58532 0.62825 0.0
H459 H 0.34363 0.5287 0.6347 0.0
H460 H 0.27336 0.56368 0.58489 0.0
H461 H 0.29835 0.54783 0.59348 0.0
C462 C 0.86988 0.42803 0.80497 0.0
C463 C 0.88559 0.42019 0.80213 0.0
C464 C 0.84622 0.41344 0.80041 0.0
C465 C 0.80168 0.35046 0.79124 0.0
H466 H 0.76614 0.37646 0.76994 0.0
C467 C 0.71096 0.29348 0.75644 0.0
C468 C 0.69372 0.29871 0.76135 0.0
C469 C 0.73404 0.30816 0.76239 0.0
C470 C 0.77582 0.36901 0.77605 0.0
H471 H 0.8892 0.39143 0.79162 0.0
H472 H 0.8482 0.36624 0.78316 0.0
H473 H 0.80729 0.40274 0.77783 0.0
H474 H 0.68702 0.3232 0.77648 0.0
H475 H 0.7275 0.34903 0.78671 0.0
H476 H 0.77027 0.31665 0.78896 0.0
C477 C 0.85383 0.38329 0.78949 0.0
C478 C 0.79938 0.38404 0.78062 0.0
C479 C 0.87737 0.39775 0.79424 0.0
C480 C 0.69994 0.31873 0.7725 0.0
C481 C 0.7231 0.33358 0.77826 0.0
C482 C 0.77821 0.33542 0.78648 0.0
C483 C 0.83787 0.3908 0.79272 0.0
C484 C 0.81265 0.37494 0.78819 0.0
C485 C 0.74039 0.32848 0.77319 0.0
C486 C 0.76508 0.34453 0.77878 0.0
H487 H 0.87577 0.4452 0.81117 0.0
H488 H 0.83442 0.41972 0.80331 0.0
H489 H 0.81116 0.34285 0.79744 0.0
H490 H 0.70666 0.27816 0.74786 0.0
H491 H 0.74705 0.30391 0.75817 0.0
C492 C 0.48611 0.87109 0.96093 0.0
C493 C 0.47179 0.8782 0.96964 0.0
C494 C 0.47718 0.84747 0.95619 0.0
C495 C 0.43137 0.7873 0.96833 0.0
H496 H 0.44464 0.77203 0.91841 0.0
C497 C 0.38887 0.69138 0.94039 0.0
C498 C 0.40244 0.68595 0.92859 0.0
C499 C 0.39736 0.71461 0.94629 0.0
C500 C 0.44107 0.77596 0.93253 0.0
H501 H 0.437 0.86625 0.98034 0.0
H502 H 0.42135 0.82472 0.9721 0.0
H503 H 0.45906 0.81301 0.92671 0.0
H504 H 0.43592 0.70026 0.91447 0.0
H505 H 0.45101 0.74059 0.92519 0.0
H506 H 0.4137 0.75028 0.97429 0.0
C507 C 0.43948 0.8375 0.96896 0.0
C508 C 0.44924 0.79946 0.93722 0.0
C509 C 0.44835 0.86122 0.97352 0.0
C510 C 0.42497 0.70397 0.92341 0.0
C511 C 0.43354 0.72712 0.92944 0.0
C512 C 0.42335 0.76376 0.96369 0.0
C513 C 0.45382 0.83042 0.96021 0.0
C514 C 0.44455 0.80538 0.95518 0.0
C515 C 0.41967 0.73284 0.94062 0.0
C516 C 0.42818 0.75781 0.94575 0.0
H517 H 0.5042 0.88385 0.95766 0.0
H518 H 0.48867 0.84248 0.94958 0.0
H519 H 0.42771 0.79142 0.98235 0.0
H520 H 0.3714 0.67782 0.94457 0.0
H521 H 0.38611 0.71837 0.95475 0.0
C522 C 0.5965 0.45119 0.14721 0.0
C523 C 0.59267 0.4653 0.13449 0.0
C524 C 0.61234 0.44404 0.14276 0.0
C525 C 0.66422 0.46037 0.11374 0.0
H526 H 0.64725 0.39534 0.12108 0.0
C527 C 0.72135 0.42407 0.08594 0.0
C528 C 0.72184 0.40637 0.0966 0.0
C529 C 0.70638 0.4321 0.0911 0.0
C530 C 0.65248 0.41367 0.11923 0.0
H531 H 0.6021 0.48228 0.1068 0.0
H532 H 0.63005 0.4702 0.09928 0.0
H533 H 0.61934 0.40729 0.12906 0.0
H534 H 0.70794 0.38402 0.12152 0.0
H535 H 0.68254 0.39856 0.1309 0.0
H536 H 0.69747 0.46692 0.10419 0.0
C537 C 0.62094 0.46491 0.11278 0.0
C538 C 0.6364 0.42047 0.12374 0.0
C539 C 0.60494 0.47186 0.11713 0.0
C540 C 0.70779 0.39754 0.11292 0.0
C541 C 0.69306 0.40574 0.1182 0.0
C542 C 0.68041 0.45364 0.1094 0.0
C543 C 0.62487 0.451 0.12556 0.0
C544 C 0.64206 0.44386 0.12098 0.0
C545 C 0.69177 0.42277 0.10715 0.0
C546 C 0.67475 0.43018 0.11205 0.0
H547 H 0.58765 0.44608 0.16082 0.0
H548 H 0.61518 0.43349 0.15296 0.0
H549 H 0.66915 0.4786 0.11167 0.0
H550 H 0.73188 0.4311 0.07322 0.0
H551 H 0.70571 0.44505 0.08211 0.0
C552 C 0.42325 0.86219 0.50077 0.0
C553 C 0.42418 0.87939 0.51316 0.0
C554 C 0.40816 0.83817 0.50449 0.0
C555 C 0.35388 0.79772 0.52954 0.0
H556 H 0.37589 0.75372 0.52882 0.0
C557 C 0.30228 0.70674 0.56472 0.0
C558 C 0.30256 0.68756 0.55649 0.0
C559 C 0.31624 0.72944 0.55741 0.0
C560 C 0.36932 0.76566 0.52874 0.0
H561 H 0.41055 0.88468 0.53953 0.0
H562 H 0.38396 0.84289 0.54572 0.0
H563 H 0.40238 0.79486 0.51984 0.0
H564 H 0.31722 0.67692 0.53383 0.0
H565 H 0.34137 0.71665 0.52074 0.0
H566 H 0.32087 0.76874 0.53836 0.0
C567 C 0.3947 0.84803 0.53304 0.0
C568 C 0.38454 0.78923 0.52366 0.0
C569 C 0.40991 0.87197 0.52945 0.0
C570 C 0.31672 0.69142 0.5405 0.0
C571 C 0.33065 0.71418 0.53309 0.0
C572 C 0.33863 0.77417 0.53443 0.0
C573 C 0.39356 0.8309 0.52055 0.0
C574 C 0.37707 0.80556 0.52439 0.0
C575 C 0.3307 0.73349 0.54157 0.0
C576 C 0.34629 0.75795 0.53449 0.0
H577 H 0.43379 0.86727 0.48798 0.0
H578 H 0.40752 0.82529 0.49459 0.0
H579 H 0.34756 0.80988 0.52989 0.0
H580 H 0.29162 0.70435 0.57711 0.0
H581 H 0.31613 0.7439 0.56453 0.0
C582 C 0.5578 0.41405 0.67017 0.0
C583 C 0.54933 0.42322 0.68387 0.0
C584 C 0.56437 0.39788 0.67537 0.0
C585 C 0.57786 0.37259 0.71764 0.0
H586 H 0.56704 0.32353 0.6816 0.0
C587 C 0.58755 0.29286 0.73696 0.0
C588 C 0.60303 0.29031 0.72509 0.0
C589 C 0.5797 0.30808 0.73185 0.0
C590 C 0.57016 0.33716 0.69178 0.0
H591 H 0.54101 0.4228 0.71367 0.0
H592 H 0.55158 0.39389 0.72274 0.0
H593 H 0.55629 0.35245 0.67315 0.0
H594 H 0.62167 0.30082 0.69825 0.0
H595 H 0.60734 0.32681 0.68906 0.0
H596 H 0.59111 0.35664 0.73643 0.0
C597 C 0.5539 0.39962 0.70806 0.0
C598 C 0.5642 0.3539 0.68691 0.0
C599 C 0.54774 0.41614 0.70289 0.0
C600 C 0.60974 0.30245 0.70767 0.0
C601 C 0.60152 0.31727 0.70239 0.0
C602 C 0.58341 0.35557 0.72262 0.0
C603 C 0.56218 0.39013 0.69434 0.0
C604 C 0.56817 0.37202 0.6997 0.0
C605 C 0.58682 0.32059 0.71461 0.0
C606 C 0.57978 0.33783 0.70967 0.0
H607 H 0.55937 0.41944 0.65542 0.0
H608 H 0.57122 0.39152 0.66446 0.0
H609 H 0.5816 0.38644 0.72777 0.0
H610 H 0.58222 0.28384 0.75053 0.0
H611 H 0.56826 0.31026 0.74145 0.0
C612 C 0.14435 0.55369 0.85255 0.0
C613 C 0.12776 0.52956 0.85022 0.0
C614 C 0.16753 0.56121 0.85712 0.0
C615 C 0.2104 0.54089 0.85857 0.0
H616 H 0.24465 0.5959 0.89084 0.0
C617 C 0.30149 0.57246 0.89344 0.0
C618 C 0.31818 0.59626 0.88984 0.0
C619 C 0.2781 0.56319 0.88816 0.0
C620 C 0.23526 0.58053 0.88179 0.0
H621 H 0.123 0.49448 0.85054 0.0
H622 H 0.16286 0.50744 0.8596 0.0
H623 H 0.20407 0.58193 0.88292 0.0
H624 H 0.32355 0.62893 0.87778 0.0
H625 H 0.28277 0.61286 0.86906 0.0
H626 H 0.24172 0.53929 0.85811 0.0
C627 C 0.15816 0.52068 0.85744 0.0
C628 C 0.21205 0.5726 0.87709 0.0
C629 C 0.13507 0.51319 0.85255 0.0
C630 C 0.31114 0.6105 0.8807 0.0
C631 C 0.28779 0.60138 0.87579 0.0
C632 C 0.23353 0.5486 0.86359 0.0
C633 C 0.17473 0.5448 0.85982 0.0
C634 C 0.19934 0.55283 0.86522 0.0
C635 C 0.27104 0.57772 0.8796 0.0
C636 C 0.24621 0.56864 0.87505 0.0
H637 H 0.13943 0.56686 0.85111 0.0
H638 H 0.1798 0.57998 0.85844 0.0
H639 H 0.2014 0.52584 0.84916 0.0
H640 H 0.30644 0.5611 0.90045 0.0
H641 H 0.26543 0.54488 0.89125 0.0
C642 C 0.61212 0.13097 0.03148 0.0
C643 C 0.59806 0.12413 0.01507 0.0
C644 C 0.62714 0.1548 0.03569 0.0
C645 C 0.63661 0.2137 0.02739 0.0
H646 H 0.70006 0.23488 0.04328 0.0
C647 C 0.70323 0.31185 0.04301 0.0
C648 C 0.71764 0.31662 0.05898 0.0
C649 C 0.68952 0.28879 0.03619 0.0
C650 C 0.68233 0.22923 0.03906 0.0
H651 H 0.58882 0.13711 0.99023 0.0
H652 H 0.61478 0.17881 0.99785 0.0
H653 H 0.67399 0.19371 0.03447 0.0
H654 H 0.72924 0.3011 0.08021 0.0
H655 H 0.70501 0.26088 0.06865 0.0
H656 H 0.64466 0.24901 0.03245 0.0
C657 C 0.61407 0.16561 0.00742 0.0
C658 C 0.66744 0.20566 0.03397 0.0
C659 C 0.59916 0.14174 0.00311 0.0
C660 C 0.71837 0.29798 0.06782 0.0
C661 C 0.70457 0.27492 0.0611 0.0
C662 C 0.65145 0.23726 0.03264 0.0
C663 C 0.62832 0.17236 0.02368 0.0
C664 C 0.64437 0.19761 0.02825 0.0
C665 C 0.68984 0.27 0.04528 0.0
C666 C 0.67444 0.24527 0.0387 0.0
H667 H 0.61137 0.11791 0.04122 0.0
H668 H 0.63763 0.15949 0.0485 0.0
H669 H 0.61883 0.20791 0.0232 0.0
H670 H 0.70241 0.32591 0.03585 0.0
H671 H 0.67867 0.28569 0.0238 0.0
C672 C 0.47171 0.5992 0.16911 0.0
C673 C 0.47075 0.58295 0.18255 0.0
C674 C 0.46483 0.61521 0.17397 0.0
C675 C 0.45418 0.64297 0.21567 0.0
H676 H 0.42253 0.65969 0.17822 0.0
C677 C 0.43253 0.71592 0.22998 0.0
C678 C 0.41062 0.71135 0.22368 0.0
C679 C 0.44093 0.70129 0.22438 0.0
C680 C 0.4312 0.65513 0.18892 0.0
H681 H 0.46147 0.57074 0.21166 0.0
H682 H 0.4486 0.59806 0.21993 0.0
H683 H 0.43358 0.63105 0.17015 0.0
H684 H 0.38047 0.68804 0.20638 0.0
H685 H 0.39477 0.66244 0.19701 0.0
H686 H 0.45089 0.66636 0.2347 0.0
C687 C 0.45521 0.59878 0.20572 0.0
C688 C 0.43783 0.63888 0.1842 0.0
C689 C 0.46227 0.58285 0.20089 0.0
C690 C 0.39751 0.69218 0.2114 0.0
C691 C 0.40579 0.67751 0.20593 0.0
C692 C 0.44737 0.6591 0.22045 0.0
C693 C 0.45655 0.61529 0.19236 0.0
C694 C 0.4494 0.63255 0.1975 0.0
C695 C 0.42752 0.68173 0.21245 0.0
C696 C 0.43571 0.66534 0.20715 0.0
H697 H 0.47778 0.59957 0.15476 0.0
H698 H 0.46637 0.62779 0.16334 0.0
H699 H 0.46333 0.63879 0.2262 0.0
H700 H 0.44305 0.73057 0.23944 0.0
H701 H 0.4579 0.70528 0.22945 0.0
C702 C 0.87159 0.4475 0.35136 0.0
C703 C 0.88891 0.47157 0.34996 0.0
C704 C 0.84842 0.44059 0.35536 0.0
C705 C 0.81238 0.45932 0.3789 0.0
H706 H 0.76255 0.41393 0.34634 0.0
C707 C 0.71586 0.43085 0.39269 0.0
C708 C 0.699 0.40709 0.38925 0.0
C709 C 0.73903 0.44008 0.38681 0.0
C710 C 0.77616 0.42636 0.35578 0.0
H711 H 0.895 0.50716 0.35138 0.0
H712 H 0.85475 0.49496 0.35918 0.0
H713 H 0.80298 0.42671 0.33875 0.0
H714 H 0.69316 0.37434 0.37707 0.0
H715 H 0.73337 0.38998 0.36758 0.0
H716 H 0.78575 0.45832 0.39644 0.0
C717 C 0.85927 0.48156 0.35711 0.0
C718 C 0.79933 0.43374 0.35133 0.0
C719 C 0.88237 0.48849 0.35276 0.0
C720 C 0.70569 0.39281 0.37975 0.0
C721 C 0.72882 0.40188 0.37417 0.0
C722 C 0.78917 0.45161 0.38358 0.0
C723 C 0.8421 0.45756 0.35837 0.0
C724 C 0.81762 0.4502 0.36288 0.0
C725 C 0.74587 0.42563 0.37763 0.0
C726 C 0.7707 0.43489 0.37214 0.0
H727 H 0.87594 0.43393 0.34968 0.0
H728 H 0.83548 0.42195 0.35646 0.0
H729 H 0.82623 0.47193 0.3881 0.0
H730 H 0.71117 0.44228 0.39994 0.0
H731 H 0.75153 0.45854 0.38946 0.0
C732 C 0.10226 0.57299 0.41233 0.0
C733 C 0.09175 0.54964 0.4057 0.0
C734 C 0.1177 0.58058 0.4277 0.0
C735 C 0.15626 0.5675 0.4559 0.0
H736 H 0.14899 0.6058 0.49385 0.0
C737 C 0.20912 0.59759 0.52694 0.0
C738 C 0.2168 0.62083 0.53279 0.0
C739 C 0.19403 0.58771 0.51132 0.0
C740 C 0.15144 0.59533 0.4833 0.0
H741 H 0.0896 0.51607 0.40992 0.0
H742 H 0.11676 0.52945 0.43677 0.0
H743 H 0.12263 0.59098 0.46675 0.0
H744 H 0.21532 0.65214 0.52623 0.0
H745 H 0.18952 0.63513 0.49912 0.0
H746 H 0.18531 0.5721 0.47249 0.0
C747 C 0.11308 0.54187 0.42995 0.0
C748 C 0.13631 0.58682 0.46776 0.0
C749 C 0.09753 0.53423 0.41456 0.0
C750 C 0.20955 0.63409 0.52236 0.0
C751 C 0.19461 0.62429 0.50682 0.0
C752 C 0.17152 0.5761 0.47149 0.0
C753 C 0.12309 0.56506 0.43683 0.0
C754 C 0.13871 0.57308 0.45374 0.0
C755 C 0.18636 0.60088 0.50126 0.0
C756 C 0.16948 0.59041 0.48522 0.0
H757 H 0.09863 0.58548 0.40557 0.0
H758 H 0.1255 0.59871 0.4324 0.0
H759 H 0.15861 0.55703 0.44527 0.0
H760 H 0.21438 0.58688 0.53462 0.0
H761 H 0.18793 0.56959 0.50742 0.0
C762 C 0.53946 0.10683 0.57125 0.0
C763 C 0.52875 0.08225 0.57321 0.0
C764 C 0.5473 0.12142 0.58731 0.0
C765 C 0.57328 0.12703 0.63235 0.0
H766 H 0.55014 0.16731 0.64861 0.0
C767 C 0.6079 0.18086 0.70105 0.0
C768 C 0.61032 0.2032 0.70189 0.0
C769 C 0.59577 0.16548 0.68609 0.0
C770 C 0.55713 0.15649 0.64415 0.0
H771 H 0.51775 0.05358 0.59328 0.0
H772 H 0.53227 0.07925 0.62137 0.0
H773 H 0.53334 0.14228 0.62052 0.0
H774 H 0.60179 0.227 0.68797 0.0
H775 H 0.58176 0.20078 0.66114 0.0
H776 H 0.59791 0.14181 0.65498 0.0
C777 C 0.53413 0.08709 0.60745 0.0
C778 C 0.54733 0.14205 0.62814 0.0
C779 C 0.52582 0.07247 0.59146 0.0
C780 C 0.6 0.20976 0.68767 0.0
C781 C 0.58841 0.19462 0.67235 0.0
C782 C 0.58345 0.14182 0.64803 0.0
C783 C 0.54502 0.11166 0.60548 0.0
C784 C 0.55525 0.1271 0.62225 0.0
C785 C 0.5864 0.17234 0.6712 0.0
C786 C 0.57541 0.15665 0.65432 0.0
H787 H 0.54185 0.11472 0.55729 0.0
H788 H 0.55579 0.14036 0.5855 0.0
H789 H 0.57983 0.11581 0.62787 0.0
H790 H 0.61544 0.17528 0.71201 0.0
H791 H 0.59397 0.14825 0.68619 0.0
C792 C 0.43411 0.52751 0.73678 0.0
C793 C 0.4549 0.52705 0.73804 0.0
C794 C 0.42588 0.5342 0.75245 0.0
C795 C 0.43393 0.54398 0.80498 0.0
H796 H 0.40752 0.58352 0.79654 0.0
C797 C 0.43321 0.607 0.86092 0.0
C798 C 0.41189 0.60579 0.86432 0.0
C799 C 0.43533 0.59429 0.84602 0.0
C800 C 0.41457 0.57222 0.79906 0.0
H801 H 0.48293 0.53269 0.75708 0.0
H802 H 0.46935 0.54541 0.78386 0.0
H803 H 0.41737 0.56733 0.76931 0.0
H804 H 0.37604 0.59036 0.85481 0.0
H805 H 0.38006 0.56863 0.82816 0.0
H806 H 0.43229 0.5501 0.83474 0.0
C807 C 0.45902 0.54012 0.77096 0.0
C808 C 0.42016 0.56285 0.78349 0.0
C809 C 0.46708 0.5332 0.75542 0.0
C810 C 0.39266 0.59153 0.85253 0.0
C811 C 0.39495 0.57921 0.83729 0.0
C812 C 0.4287 0.55366 0.82049 0.0
C813 C 0.43832 0.54076 0.76972 0.0
C814 C 0.43033 0.54896 0.78624 0.0
C815 C 0.41632 0.58048 0.83396 0.0
C816 C 0.41932 0.56815 0.81765 0.0
H817 H 0.42436 0.52312 0.72359 0.0
H818 H 0.40974 0.53421 0.75098 0.0
H819 H 0.44112 0.53286 0.80772 0.0
H820 H 0.44829 0.61773 0.86983 0.0
H821 H 0.45203 0.59569 0.84364 0.0
C822 C 0.90435 0.45274 0.90289 0.0
C823 C 0.92602 0.45421 0.90503 0.0
C824 C 0.88917 0.44702 0.91837 0.0
C825 C 0.88764 0.44272 0.97144 0.0
H826 H 0.82088 0.40179 0.96383 0.0
C827 C 0.82372 0.38583 0.03029 0.0
C828 C 0.80396 0.3878 0.03321 0.0
C829 C 0.83824 0.39652 0.01464 0.0
C830 C 0.83946 0.41349 0.96609 0.0
H831 H 0.94872 0.4511 0.92541 0.0
H832 H 0.92194 0.43996 0.95195 0.0
H833 H 0.84707 0.41523 0.93636 0.0
H834 H 0.78381 0.40234 0.02191 0.0
H835 H 0.80903 0.42048 0.99394 0.0
H836 H 0.87998 0.43979 0.00127 0.0
C837 C 0.91681 0.44381 0.93846 0.0
C838 C 0.85451 0.42127 0.95037 0.0
C839 C 0.93207 0.44979 0.92307 0.0
C840 C 0.79896 0.40061 0.02003 0.0
C841 C 0.81329 0.41089 0.00406 0.0
C842 C 0.87265 0.43462 0.98711 0.0
C843 C 0.89516 0.4424 0.93637 0.0
C844 C 0.87886 0.43566 0.95287 0.0
C845 C 0.83312 0.40902 0.00134 0.0
C846 C 0.84849 0.41966 0.9846 0.0
H847 H 0.89892 0.45574 0.88918 0.0
H848 H 0.87278 0.44636 0.91621 0.0
H849 H 0.90617 0.4543 0.97395 0.0
H850 H 0.82812 0.37621 0.04024 0.0
H851 H 0.85335 0.39469 0.01277 0.0
C852 C 0.49572 0.90851 0.0792 0.0
C853 C 0.48418 0.91991 0.07251 0.0
C854 C 0.48661 0.89274 0.09452 0.0
C855 C 0.43108 0.855 0.11992 0.0
H856 H 0.47004 0.8553 0.16098 0.0
C857 C 0.39153 0.80906 0.19062 0.0
C858 C 0.40007 0.79582 0.19932 0.0
C859 C 0.40292 0.82339 0.17498 0.0
C860 C 0.45899 0.85479 0.14949 0.0
H861 H 0.45465 0.92447 0.07726 0.0
H862 H 0.43884 0.89708 0.10382 0.0
H863 H 0.48805 0.88205 0.13392 0.0
H864 H 0.4277 0.78772 0.19844 0.0
H865 H 0.44762 0.81287 0.17091 0.0
H866 H 0.40204 0.82802 0.13542 0.0
C867 C 0.45461 0.89987 0.09699 0.0
C868 C 0.46929 0.87011 0.134 0.0
C869 C 0.46368 0.91558 0.08175 0.0
C870 C 0.42061 0.79764 0.1921 0.0
C871 C 0.43208 0.81211 0.17637 0.0
C872 C 0.42084 0.83976 0.13532 0.0
C873 C 0.46578 0.88803 0.10343 0.0
C874 C 0.45537 0.87069 0.11923 0.0
C875 C 0.42317 0.82493 0.16753 0.0
C876 C 0.43459 0.83979 0.15048 0.0
H877 H 0.51147 0.91135 0.0723 0.0
H878 H 0.49556 0.8838 0.09909 0.0
H879 H 0.41991 0.85458 0.10855 0.0
H880 H 0.37592 0.80834 0.19582 0.0
H881 H 0.39587 0.83342 0.16876 0.0
C882 C 0.5482 0.46691 0.25434 0.0
C883 C 0.56066 0.47336 0.2371 0.0
C884 C 0.55628 0.4602 0.27001 0.0
C885 C 0.59603 0.43883 0.2833 0.0
H886 H 0.58352 0.45217 0.33423 0.0
C887 C 0.62434 0.41193 0.3528 0.0
C888 C 0.60527 0.39789 0.3648 0.0
C889 C 0.62181 0.4239 0.3374 0.0
C890 C 0.58721 0.44843 0.32007 0.0
H891 H 0.59159 0.47781 0.22297 0.0
H892 H 0.60618 0.46704 0.25056 0.0
H893 H 0.57412 0.46839 0.30685 0.0
H894 H 0.56893 0.38604 0.37055 0.0
H895 H 0.56477 0.40742 0.34406 0.0
H896 H 0.60931 0.41897 0.2968 0.0
C897 C 0.58986 0.46672 0.25184 0.0
C898 C 0.58166 0.45754 0.30436 0.0
C899 C 0.58163 0.47321 0.23606 0.0
C900 C 0.58389 0.3966 0.36147 0.0
C901 C 0.58154 0.40894 0.3464 0.0
C902 C 0.60193 0.43002 0.29908 0.0
C903 C 0.57724 0.46004 0.26902 0.0
C904 C 0.58542 0.45235 0.28574 0.0
C905 C 0.60036 0.42248 0.3341 0.0
C906 C 0.59705 0.43429 0.31756 0.0
H907 H 0.53219 0.46716 0.25582 0.0
H908 H 0.54581 0.45478 0.28284 0.0
H909 H 0.59897 0.43422 0.26922 0.0
H910 H 0.64099 0.41316 0.35501 0.0
H911 H 0.63657 0.43428 0.32809 0.0
C912 C 0.4399 0.89743 0.4183 0.0
C913 C 0.46134 0.91892 0.41687 0.0
C914 C 0.43214 0.88089 0.40358 0.0
C915 C 0.45062 0.86013 0.3629 0.0
H916 H 0.38835 0.83837 0.34367 0.0
C917 C 0.4145 0.80365 0.29415 0.0
C918 C 0.39029 0.78793 0.29284 0.0
C919 C 0.42402 0.81872 0.30988 0.0
C920 C 0.40559 0.84379 0.34905 0.0
H921 H 0.49159 0.93947 0.39875 0.0
H922 H 0.47825 0.91014 0.37331 0.0
H923 H 0.40339 0.86599 0.37007 0.0
H924 H 0.35723 0.77442 0.30741 0.0
H925 H 0.37377 0.79955 0.3352 0.0
H926 H 0.45268 0.83748 0.34223 0.0
C927 C 0.4675 0.9063 0.38589 0.0
C928 C 0.41425 0.85979 0.36413 0.0
C929 C 0.47514 0.92305 0.40052 0.0
C930 C 0.37594 0.78664 0.30794 0.0
C931 C 0.38545 0.80126 0.3238 0.0
C932 C 0.4418 0.84374 0.34797 0.0
C933 C 0.44578 0.88522 0.38718 0.0
C934 C 0.43683 0.86814 0.3712 0.0
C935 C 0.40953 0.81804 0.32477 0.0
C936 C 0.41912 0.8353 0.34084 0.0
H937 H 0.42904 0.89328 0.43084 0.0
H938 H 0.41545 0.86463 0.40503 0.0
H939 H 0.46807 0.86623 0.36818 0.0
H940 H 0.42594 0.80509 0.28263 0.0
H941 H 0.44259 0.83149 0.30995 0.0
C942 C 0.57115 0.47634 0.57351 0.0
C943 C 0.54923 0.46106 0.58182 0.0
C944 C 0.57916 0.46871 0.55829 0.0
C945 C 0.55663 0.4242 0.52009 0.0
H946 H 0.62013 0.4371 0.51633 0.0
C947 C 0.57997 0.37396 0.46752 0.0
C948 C 0.60032 0.38674 0.45649 0.0
C949 C 0.5757 0.38447 0.48292 0.0
C950 C 0.60242 0.43361 0.51709 0.0
H951 H 0.51918 0.42545 0.58135 0.0
H952 H 0.53305 0.41224 0.55491 0.0
H953 H 0.609 0.45296 0.54318 0.0
H954 H 0.63263 0.42045 0.45359 0.0
H955 H 0.62502 0.43892 0.48066 0.0
H956 H 0.54988 0.4048 0.49422 0.0
C957 C 0.54383 0.43026 0.55981 0.0
C958 C 0.59605 0.44268 0.53244 0.0
C959 C 0.53586 0.43785 0.57497 0.0
C960 C 0.61675 0.41012 0.46175 0.0
C961 C 0.61244 0.42069 0.47727 0.0
C962 C 0.56296 0.41519 0.50484 0.0
C963 C 0.56539 0.44568 0.55109 0.0
C964 C 0.57294 0.43766 0.53428 0.0
C965 C 0.5916 0.40808 0.48776 0.0
C966 C 0.58578 0.41937 0.50334 0.0
H967 H 0.58181 0.49438 0.57842 0.0
H968 H 0.59581 0.48103 0.55181 0.0
H969 H 0.53885 0.42052 0.52081 0.0
H970 H 0.56704 0.35583 0.46412 0.0
H971 H 0.55975 0.37409 0.49099 0.0
C972 C 0.09404 0.51281 0.73861 0.0
C973 C 0.08998 0.52788 0.74994 0.0
C974 C 0.10994 0.52185 0.72347 0.0
C975 C 0.13745 0.57287 0.69112 0.0
H976 H 0.18256 0.55393 0.68087 0.0
C977 C 0.21273 0.6253 0.63953 0.0
C978 C 0.2183 0.61291 0.62639 0.0
C979 C 0.19755 0.61359 0.6546 0.0
C980 C 0.16987 0.55917 0.68343 0.0
H981 H 0.10032 0.56439 0.75485 0.0
H982 H 0.12785 0.58007 0.72851 0.0
H983 H 0.15493 0.53577 0.70728 0.0
H984 H 0.21287 0.57851 0.61927 0.0
H985 H 0.18594 0.55789 0.64566 0.0
H986 H 0.15215 0.59619 0.66742 0.0
C987 C 0.11841 0.56122 0.73103 0.0
C988 C 0.15407 0.54879 0.69854 0.0
C989 C 0.10261 0.55222 0.74612 0.0
C990 C 0.20892 0.58857 0.62912 0.0
C991 C 0.19354 0.57677 0.64425 0.0
C992 C 0.15311 0.58315 0.67607 0.0
C993 C 0.12204 0.54613 0.71937 0.0
C994 C 0.13798 0.55587 0.70274 0.0
C995 C 0.18734 0.58913 0.65693 0.0
C996 C 0.1698 0.57677 0.67224 0.0
H997 H 0.08448 0.49395 0.74111 0.0
H998 H 0.11228 0.50978 0.71467 0.0
H999 H 0.12488 0.57828 0.69368 0.0
H1000 H 0.21991 0.64411 0.6381 0.0
H1001 H 0.19365 0.62376 0.66439 0.0
C1002 C 0.58124 0.10682 0.91851 0.0
C1003 C 0.55932 0.08579 0.91755 0.0
C1004 C 0.58884 0.12335 0.90378 0.0
C1005 C 0.56971 0.14542 0.86451 0.0
H1006 H 0.63032 0.16481 0.84273 0.0
C1007 C 0.60344 0.20123 0.79532 0.0
C1008 C 0.62767 0.21623 0.79308 0.0
C1009 C 0.59445 0.18634 0.81118 0.0
C1010 C 0.61357 0.16007 0.84883 0.0
H1011 H 0.52811 0.06604 0.90025 0.0
H1012 H 0.54119 0.0954 0.87488 0.0
H1013 H 0.61586 0.13726 0.8692 0.0
H1014 H 0.66138 0.22864 0.80622 0.0
H1015 H 0.6458 0.20382 0.83428 0.0
H1016 H 0.56759 0.16868 0.84452 0.0
C1017 C 0.55243 0.09888 0.88708 0.0
C1018 C 0.60524 0.14409 0.86395 0.0
C1019 C 0.54495 0.08212 0.90168 0.0
C1020 C 0.64263 0.217 0.80746 0.0
C1021 C 0.63366 0.20255 0.82347 0.0
C1022 C 0.57823 0.16178 0.84956 0.0
C1023 C 0.57458 0.11949 0.88789 0.0
C1024 C 0.58324 0.13658 0.87192 0.0
C1025 C 0.60949 0.18648 0.82532 0.0
C1026 C 0.60031 0.16934 0.84149 0.0
H1027 H 0.59258 0.11064 0.93068 0.0
H1028 H 0.60589 0.13926 0.90485 0.0
H1029 H 0.55272 0.13998 0.8705 0.0
H1030 H 0.59152 0.20017 0.78437 0.0
H1031 H 0.57578 0.17412 0.81194 0.0
C1032 C 0.48507 0.56971 0.07472 0.0
C1033 C 0.47183 0.54647 0.08156 0.0
C1034 C 0.47706 0.57716 0.05949 0.0
C1035 C 0.42455 0.5639 0.03203 0.0
H1036 H 0.47043 0.60256 0.99389 0.0
C1037 C 0.40249 0.595 0.96128 0.0
C1038 C 0.41849 0.61843 0.95586 0.0
C1039 C 0.40726 0.58485 0.97684 0.0
C1040 C 0.45742 0.59195 0.00449 0.0
H1041 H 0.43954 0.51293 0.07793 0.0
H1042 H 0.42549 0.52604 0.05124 0.0
H1043 H 0.48199 0.5874 0.02054 0.0
H1044 H 0.45146 0.64988 0.96324 0.0
H1045 H 0.45953 0.63235 0.99021 0.0
H1046 H 0.40001 0.56868 0.01585 0.0
C1047 C 0.44202 0.53849 0.0578 0.0
C1048 C 0.46406 0.58327 0.01978 0.0
C1049 C 0.45008 0.531 0.07308 0.0
C1050 C 0.43887 0.63168 0.96677 0.0
C1051 C 0.44359 0.6216 0.98222 0.0
C1052 C 0.41788 0.57264 0.01666 0.0
C1053 C 0.45559 0.56159 0.05069 0.0
C1054 C 0.44784 0.56949 0.03391 0.0
C1055 C 0.42812 0.59795 0.98723 0.0
C1056 C 0.43438 0.58713 0.00291 0.0
H1057 H 0.50164 0.58223 0.0812 0.0
H1058 H 0.48769 0.59523 0.05464 0.0
H1059 H 0.41167 0.55338 0.04273 0.0
H1060 H 0.38661 0.5843 0.95321 0.0
H1061 H 0.39501 0.56656 0.98036 0.0
C1062 C 0.93658 0.47369 0.23108 0.0
C1063 C 0.9309 0.48018 0.24839 0.0
C1064 C 0.9215 0.46699 0.21551 0.0
C1065 C 0.85969 0.44529 0.20292 0.0
H1066 H 0.88481 0.45721 0.15168 0.0
C1067 C 0.80247 0.41474 0.13411 0.0
C1068 C 0.80733 0.40036 0.12263 0.0
C1069 C 0.81745 0.42768 0.14914 0.0
C1070 C 0.87758 0.4539 0.16592 0.0
H1071 H 0.9048 0.48492 0.26271 0.0
H1072 H 0.87895 0.47417 0.2353 0.0
H1073 H 0.91128 0.47446 0.17866 0.0
H1074 H 0.83202 0.38895 0.11739 0.0
H1075 H 0.85835 0.41197 0.14318 0.0
H1076 H 0.82592 0.42476 0.18992 0.0
C1077 C 0.89489 0.47377 0.23389 0.0
C1078 C 0.89272 0.46359 0.18141 0.0
C1079 C 0.9099 0.48025 0.24957 0.0
C1080 C 0.82773 0.39974 0.12607 0.0
C1081 C 0.84289 0.41302 0.14074 0.0
C1082 C 0.84451 0.4359 0.18736 0.0
C1083 C 0.90042 0.46689 0.21667 0.0
C1084 C 0.88405 0.45886 0.20016 0.0
C1085 C 0.83779 0.4269 0.15255 0.0
C1086 C 0.85339 0.43962 0.16877 0.0
H1087 H 0.95276 0.47378 0.22948 0.0
H1088 H 0.92625 0.46144 0.20265 0.0
H1089 H 0.85233 0.44103 0.2171 0.0
H1090 H 0.78682 0.41548 0.13179 0.0
H1091 H 0.8132 0.43829 0.15808 0.0
loop_
_geom_bond_atom_site_label_1
_geom_bond_atom_site_label_2
_geom_bond_distance
_geom_bond_site_symmetry_2
_ccdc_geom_bond_type
H0 C19 0.949 . S
H1 C20 0.950 . S
H2 C22 0.950 . S
H3 C23 0.950 . S
H4 C25 0.950 . S
H5 C28 0.950 . S
H6 C29 0.950 . S
H7 C31 0.951 . S
H8 C32 0.949 . S
H9 C34 0.949 . S
H10 C35 0.950 . S
H11 C37 0.950 . S
H12 C38 0.950 . S
H13 C40 0.950 1_655 S
H14 C43 0.950 . S
H15 C44 0.950 . S
H16 C46 0.951 . S
H17 C47 0.949 . S
C18 C19 1.376 . S
C18 C23 1.386 . S
C18 C24 1.483 . S
C19 H0 0.949 . S
C19 C18 1.376 . S
C19 C20 1.397 . S
C20 H1 0.950 . S
C20 C19 1.397 . S
C20 C21 1.391 . S
C21 C20 1.391 . S
C21 C22 1.405 . S
C22 H2 0.950 . S
C22 C21 1.405 . S
C22 C23 1.367 . S
C23 H3 0.950 . S
C23 C18 1.386 . S
C23 C22 1.367 . S
C24 C18 1.483 . S
C24 C25 1.382 1_655 S
C24 C26 1.403 . S
C25 H4 0.950 . S
C25 C24 1.382 1_455 S
C25 C41 1.411 . S
C26 C24 1.403 . S
C26 C27 1.489 . S
C26 C40 1.411 1_655 S
C27 C26 1.489 . S
C27 C28 1.383 . S
C27 C32 1.382 . S
C28 H5 0.950 . S
C28 C27 1.383 . S
C28 C29 1.395 . S
C29 H6 0.950 . S
C29 C28 1.395 . S
C29 C30 1.288 . S
C30 C29 1.288 . S
C30 C31 1.392 . S
C31 H7 0.951 . S
C31 C30 1.392 . S
C31 C32 1.392 . S
C32 H8 0.949 . S
C32 C27 1.382 . S
C32 C31 1.392 . S
C33 C34 1.376 . S
C33 C38 1.386 . S
C33 C39 1.483 . S
C34 H9 0.949 . S
C34 C33 1.376 . S
C34 C35 1.397 . S
C35 H10 0.950 . S
C35 C34 1.397 . S
C35 C36 1.391 . S
C36 C35 1.391 . S
C36 C37 1.405 . S
C37 H11 0.950 . S
C37 C36 1.405 . S
C37 C38 1.367 . S
C38 H12 0.950 . S
C38 C33 1.386 . S
C38 C37 1.367 . S
C39 C33 1.483 . S
C39 C40 1.382 . S
C39 C41 1.403 . S
C40 H13 0.950 1_455 S
C40 C26 1.411 1_455 S
C40 C39 1.382 . S
C41 C25 1.411 . S
C41 C39 1.403 . S
C41 C42 1.489 . S
C42 C41 1.489 . S
C42 C43 1.383 . S
C42 C47 1.382 . S
C43 H14 0.950 . S
C43 C42 1.383 . S
C43 C44 1.395 . S
C44 H15 0.950 . S
C44 C43 1.395 . S
C44 C45 1.288 . S
C45 C44 1.288 . S
C45 C46 1.392 . S
C46 H16 0.951 . S
C46 C45 1.392 . S
C46 C47 1.392 . S
C47 H17 0.949 . S
C47 C42 1.382 . S
C47 C46 1.392 . S
H48 C67 0.949 . S
H49 C68 0.950 . S
H50 C70 0.950 . S
H51 C71 0.950 . S
H52 C73 0.950 . S
H53 C76 0.950 . S
H54 C77 0.950 . S
H55 C79 0.951 . S
H56 C80 0.949 . S
H57 C82 0.949 . S
H58 C83 0.950 . S
H59 C85 0.950 . S
H60 C86 0.950 . S
H61 C88 0.950 . S
H62 C91 0.950 . S
H63 C92 0.950 . S
H64 C94 0.951 . S
H65 C95 0.949 . S
C66 C67 1.376 . S
C66 C71 1.386 . S
C66 C72 1.483 . S
C67 H48 0.949 . S
C67 C66 1.376 . S
C67 C68 1.397 . S
C68 H49 0.950 . S
C68 C67 1.397 . S
C68 C69 1.391 . S
C69 C68 1.391 . S
C69 C70 1.405 . S
C70 H50 0.950 . S
C70 C69 1.405 . S
C70 C71 1.367 . S
C71 H51 0.950 . S
C71 C66 1.386 . S
C71 C70 1.367 . S
C72 C66 1.483 . S
C72 C73 1.382 . S
C72 C74 1.403 . S
C73 H52 0.950 . S
C73 C72 1.382 . S
C73 C89 1.411 1_565 S
C74 C72 1.403 . S
C74 C75 1.489 . S
C74 C88 1.411 1_565 S
C75 C74 1.489 . S
C75 C76 1.383 . S
C75 C80 1.382 . S
C76 H53 0.950 . S
C76 C75 1.383 . S
C76 C77 1.395 . S
C77 H54 0.950 . S
C77 C76 1.395 . S
C77 C78 1.288 . S
C78 C77 1.288 . S
C78 C79 1.392 . S
C79 H55 0.951 . S
C79 C78 1.392 . S
C79 C80 1.392 . S
C80 H56 0.949 . S
C80 C75 1.382 . S
C80 C79 1.392 . S
C81 C82 1.376 . S
C81 C86 1.386 . S
C81 C87 1.483 . S
C82 H57 0.949 . S
C82 C81 1.376 . S
C82 C83 1.397 . S
C83 H58 0.950 . S
C83 C82 1.397 . S
C83 C84 1.391 . S
C84 C83 1.391 . S
C84 C85 1.405 . S
C85 H59 0.950 . S
C85 C84 1.405 . S
C85 C86 1.367 . S
C86 H60 0.950 . S
C86 C81 1.386 . S
C86 C85 1.367 . S
C87 C81 1.483 . S
C87 C88 1.382 . S
C87 C89 1.403 . S
C88 H61 0.950 . S
C88 C74 1.411 1_545 S
C88 C87 1.382 . S
C89 C73 1.411 1_545 S
C89 C87 1.403 . S
C89 C90 1.489 . S
C90 C89 1.489 . S
C90 C91 1.383 . S
C90 C95 1.382 . S
C91 H62 0.950 . S
C91 C90 1.383 . S
C91 C92 1.395 . S
C92 H63 0.950 . S
C92 C91 1.395 . S
C92 C93 1.288 . S
C93 C92 1.288 . S
C93 C94 1.392 . S
C94 H64 0.951 . S
C94 C93 1.392 . S
C94 C95 1.392 . S
C95 H65 0.949 . S
C95 C90 1.382 . S
C95 C94 1.392 . S
H96 C115 0.949 . S
H97 C116 0.950 . S
H98 C118 0.950 . S
H99 C119 0.950 . S
H100 C121 0.950 . S
H101 C124 0.950 . S
H102 C125 0.950 . S
H103 C127 0.951 . S
H104 C128 0.949 . S
H105 C130 0.949 . S
H106 C131 0.950 . S
H107 C133 0.950 . S
H108 C134 0.950 . S
H109 C136 0.950 . S
H110 C139 0.950 . S
H111 C140 0.950 . S
H112 C142 0.951 . S
H113 C143 0.949 . S
C114 C115 1.376 . S
C114 C119 1.386 . S
C114 C120 1.483 . S
C115 H96 0.949 . S
C115 C114 1.376 . S
C115 C116 1.397 . S
C116 H97 0.950 . S
C116 C115 1.397 . S
C116 C117 1.391 . S
C117 C116 1.391 . S
C117 C118 1.405 . S
C118 H98 0.950 . S
C118 C117 1.405 . S
C118 C119 1.367 . S
C119 H99 0.950 . S
C119 C114 1.386 . S
C119 C118 1.367 . S
C120 C114 1.483 . S
C120 C121 1.382 . S
C120 C122 1.403 . S
C121 H100 0.950 . S
C121 C120 1.382 . S
C121 C137 1.411 . S
C122 C120 1.403 . S
C122 C123 1.489 . S
C122 C136 1.411 . S
C123 C122 1.489 . S
C123 C124 1.383 . S
C123 C128 1.382 . S
C124 H101 0.950 . S
C124 C123 1.383 . S
C124 C125 1.395 . S
C125 H102 0.950 . S
C125 C124 1.395 . S
C125 C126 1.288 . S
C126 C125 1.288 . S
C126 C127 1.392 . S
C127 H103 0.951 . S
C127 C126 1.392 . S
C127 C128 1.392 . S
C128 H104 0.949 . S
C128 C123 1.382 . S
C128 C127 1.392 . S
C129 C130 1.376 . S
C129 C134 1.386 . S
C129 C135 1.483 . S
C130 H105 0.949 . S
C130 C129 1.376 . S
C130 C131 1.397 . S
C131 H106 0.950 . S
C131 C130 1.397 . S
C131 C132 1.391 . S
C132 C131 1.391 . S
C132 C133 1.405 . S
C133 H107 0.950 . S
C133 C132 1.405 . S
C133 C134 1.367 . S
C134 H108 0.950 . S
C134 C129 1.386 . S
C134 C133 1.367 . S
C135 C129 1.483 . S
C135 C136 1.382 . S
C135 C137 1.403 . S
C136 H109 0.950 . S
C136 C122 1.411 . S
C136 C135 1.382 . S
C137 C121 1.411 . S
C137 C135 1.403 . S
C137 C138 1.489 . S
C138 C137 1.489 . S
C138 C139 1.383 . S
C138 C143 1.382 . S
C139 H110 0.950 . S
C139 C138 1.383 . S
C139 C140 1.395 . S
C140 H111 0.950 . S
C140 C139 1.395 . S
C140 C141 1.288 . S
C141 C140 1.288 . S
C141 C142 1.392 . S
C142 H112 0.951 . S
C142 C141 1.392 . S
C142 C143 1.392 . S
C143 H113 0.949 . S
C143 C138 1.382 . S
C143 C142 1.392 . S
H144 C163 0.949 . S
H145 C164 0.950 . S
H146 C166 0.950 . S
H147 C167 0.950 . S
H148 C169 0.950 1_655 S
H149 C172 0.950 . S
H150 C173 0.950 . S
H151 C175 0.951 . S
H152 C176 0.949 . S
H153 C178 0.949 . S
H154 C179 0.950 . S
H155 C181 0.950 . S
H156 C182 0.950 . S
H157 C184 0.950 . S
H158 C187 0.950 . S
H159 C188 0.950 . S
H160 C190 0.951 . S
H161 C191 0.949 . S
C162 C163 1.376 . S
C162 C167 1.386 . S
C162 C168 1.483 . S
C163 H144 0.949 . S
C163 C162 1.376 . S
C163 C164 1.397 . S
C164 H145 0.950 . S
C164 C163 1.397 . S
C164 C165 1.391 . S
C165 C164 1.391 . S
C165 C166 1.405 . S
C166 H146 0.950 . S
C166 C165 1.405 . S
C166 C167 1.367 . S
C167 H147 0.950 . S
C167 C162 1.386 . S
C167 C166 1.367 . S
C168 C162 1.483 . S
C168 C169 1.382 . S
C168 C170 1.403 . S
C169 H148 0.950 1_455 S
C169 C168 1.382 . S
C169 C185 1.411 1_455 S
C170 C168 1.403 . S
C170 C171 1.489 . S
C170 C184 1.411 . S
C171 C170 1.489 . S
C171 C172 1.383 . S
C171 C176 1.382 . S
C172 H149 0.950 . S
C172 C171 1.383 . S
C172 C173 1.395 . S
C173 H150 0.950 . S
C173 C172 1.395 . S
C173 C174 1.288 . S
C174 C173 1.288 . S
C174 C175 1.392 . S
C175 H151 0.951 . S
C175 C174 1.392 . S
C175 C176 1.392 . S
C176 H152 0.949 . S
C176 C171 1.382 . S
C176 C175 1.392 . S
C177 C178 1.376 . S
C177 C182 1.386 . S
C177 C183 1.483 . S
C178 H153 0.949 . S
C178 C177 1.376 . S
C178 C179 1.397 . S
C179 H154 0.950 . S
C179 C178 1.397 . S
C179 C180 1.391 . S
C180 C179 1.391 . S
C180 C181 1.405 . S
C181 H155 0.950 . S
C181 C180 1.405 . S
C181 C182 1.367 . S
C182 H156 0.950 . S
C182 C177 1.386 . S
C182 C181 1.367 . S
C183 C177 1.483 . S
C183 C184 1.382 1_655 S
C183 C185 1.403 . S
C184 H157 0.950 . S
C184 C170 1.411 . S
C184 C183 1.382 1_455 S
C185 C169 1.411 1_655 S
C185 C183 1.403 . S
C185 C186 1.489 . S
C186 C185 1.489 . S
C186 C187 1.383 . S
C186 C191 1.382 . S
C187 H158 0.950 . S
C187 C186 1.383 . S
C187 C188 1.395 . S
C188 H159 0.950 . S
C188 C187 1.395 . S
C188 C189 1.288 . S
C189 C188 1.288 . S
C189 C190 1.392 . S
C190 H160 0.951 . S
C190 C189 1.392 . S
C190 C191 1.392 . S
C191 H161 0.949 . S
C191 C186 1.382 . S
C191 C190 1.392 . S
H192 C211 0.949 . S
H193 C212 0.950 . S
H194 C214 0.950 . S
H195 C215 0.972 . S
H196 C217 0.950 . S
H197 C220 0.950 . S
H198 C221 0.950 . S
H199 C223 0.951 . S
H200 C224 0.949 . S
H201 C226 0.949 . S
H202 C227 0.950 . S
H203 C229 0.950 . S
H204 C230 0.950 . S
H205 C232 0.950 . S
H206 C235 0.950 . S
H207 C236 0.950 . S
H208 C238 0.951 . S
H209 C239 0.949 . S
C210 C211 1.376 . S
C210 C215 1.378 1_554 S
C210 C216 1.483 1_554 S
C211 H192 0.949 . S
C211 C210 1.376 . S
C211 C212 1.397 . S
C212 H193 0.950 . S
C212 C211 1.397 . S
C212 C213 1.391 . S
C213 C212 1.391 . S
C213 C214 1.405 . S
C214 H194 0.950 . S
C214 C213 1.405 . S
C214 C215 1.355 1_554 S
C215 H195 0.972 . S
C215 C210 1.378 1_556 S
C215 C214 1.355 1_556 S
C216 C210 1.483 1_556 S
C216 C217 1.382 1_556 S
C216 C218 1.403 . S
C217 H196 0.950 . S
C217 C216 1.382 1_554 S
C217 C233 1.411 1_545 S
C218 C216 1.403 . S
C218 C219 1.489 . S
C218 C232 1.411 1_545 S
C219 C218 1.489 . S
C219 C220 1.383 . S
C219 C224 1.382 . S
C220 H197 0.950 . S
C220 C219 1.383 . S
C220 C221 1.395 . S
C221 H198 0.950 . S
C221 C220 1.395 . S
C221 C222 1.288 . S
C222 C221 1.288 . S
C222 C223 1.392 . S
C223 H199 0.951 . S
C223 C222 1.392 . S
C223 C224 1.392 . S
C224 H200 0.949 . S
C224 C219 1.382 . S
C224 C223 1.392 . S
C225 C226 1.376 . S
C225 C230 1.386 . S
C225 C231 1.483 . S
C226 H201 0.949 . S
C226 C225 1.376 . S
C226 C227 1.397 . S
C227 H202 0.950 . S
C227 C226 1.397 . S
C227 C228 1.391 . S
C228 C227 1.391 . S
C228 C229 1.405 . S
C229 H203 0.950 . S
C229 C228 1.405 . S
C229 C230 1.367 . S
C230 H204 0.950 . S
C230 C225 1.386 . S
C230 C229 1.367 . S
C231 C225 1.483 . S
C231 C232 1.382 . S
C231 C233 1.403 1_556 S
C232 H205 0.950 . S
C232 C218 1.411 1_565 S
C232 C231 1.382 . S
C233 C217 1.411 1_565 S
C233 C231 1.403 1_554 S
C233 C234 1.489 . S
C234 C233 1.489 . S
C234 C235 1.383 . S
C234 C239 1.382 . S
C235 H206 0.950 . S
C235 C234 1.383 . S
C235 C236 1.395 . S
C236 H207 0.950 . S
C236 C235 1.395 . S
C236 C237 1.288 . S
C237 C236 1.288 . S
C237 C238 1.392 . S
C238 H208 0.951 . S
C238 C237 1.392 . S
C238 C239 1.392 . S
C239 H209 0.949 . S
C239 C234 1.382 . S
C239 C238 1.392 . S
H240 C259 0.949 . S
H241 C260 0.950 . S
H242 C262 0.950 . S
H243 C263 0.950 . S
H244 C265 0.950 . S
H245 C268 0.950 . S
H246 C269 0.950 . S
H247 C271 0.951 . S
H248 C272 0.949 . S
H249 C274 0.949 . S
H250 C275 0.950 . S
H251 C277 0.950 . S
H252 C278 0.950 . S
H253 C280 0.950 . S
H254 C283 0.950 . S
H255 C284 0.950 . S
H256 C286 0.951 . S
H257 C287 0.949 . S
C258 C259 1.376 . S
C258 C263 1.386 . S
C258 C264 1.483 . S
C259 H240 0.949 . S
C259 C258 1.376 . S
C259 C260 1.397 . S
C260 H241 0.950 . S
C260 C259 1.397 . S
C260 C261 1.391 . S
C261 C260 1.391 . S
C261 C262 1.405 . S
C262 H242 0.950 . S
C262 C261 1.405 . S
C262 C263 1.367 . S
C263 H243 0.950 . S
C263 C258 1.386 . S
C263 C262 1.367 . S
C264 C258 1.483 . S
C264 C265 1.382 . S
C264 C266 1.403 . S
C265 H244 0.950 . S
C265 C264 1.382 . S
C265 C281 1.411 . S
C266 C264 1.403 . S
C266 C267 1.489 . S
C266 C280 1.411 . S
C267 C266 1.489 . S
C267 C268 1.383 . S
C267 C272 1.382 . S
C268 H245 0.950 . S
C268 C267 1.383 . S
C268 C269 1.395 . S
C269 H246 0.950 . S
C269 C268 1.395 . S
C269 C270 1.288 . S
C270 C269 1.288 . S
C270 C271 1.392 . S
C271 H247 0.951 . S
C271 C270 1.392 . S
C271 C272 1.392 . S
C272 H248 0.949 . S
C272 C267 1.382 . S
C272 C271 1.392 . S
C273 C274 1.376 . S
C273 C278 1.386 . S
C273 C279 1.483 . S
C274 H249 0.949 . S
C274 C273 1.376 . S
C274 C275 1.397 . S
C275 H250 0.950 . S
C275 C274 1.397 . S
C275 C276 1.391 . S
C276 C275 1.391 . S
C276 C277 1.405 . S
C277 H251 0.950 . S
C277 C276 1.405 . S
C277 C278 1.367 . S
C278 H252 0.950 . S
C278 C273 1.386 . S
C278 C277 1.367 . S
C279 C273 1.483 . S
C279 C280 1.382 . S
C279 C281 1.403 . S
C280 H253 0.950 . S
C280 C266 1.411 . S
C280 C279 1.382 . S
C281 C265 1.411 . S
C281 C279 1.403 . S
C281 C282 1.489 . S
C282 C281 1.489 . S
C282 C283 1.383 . S
C282 C287 1.382 . S
C283 H254 0.950 . S
C283 C282 1.383 . S
C283 C284 1.395 . S
C284 H255 0.950 . S
C284 C283 1.395 . S
C284 C285 1.288 . S
C285 C284 1.288 . S
C285 C286 1.392 . S
C286 H256 0.951 . S
C286 C285 1.392 . S
C286 C287 1.392 . S
C287 H257 0.949 . S
C287 C282 1.382 . S
C287 C286 1.392 . S
Co288 O289 2.216 . S
Co288 O290 2.091 . S
Co288 O292 2.004 . S
Co288 O298 2.021 . S
Co288 O300 2.137 . S
Co288 O301 2.244 . S
O289 Co288 2.216 . S
O289 C296 1.247 . S
O290 Co288 2.091 . S
O290 C296 1.261 . S
C291 O300 1.247 . S
C291 O301 1.272 . S
O292 Co288 2.004 . S
O292 C297 1.259 . S
Co293 O294 2.061 . S
Co293 O299 2.052 . S
Co293 O301 2.135 . S
O294 Co293 2.061 . S
O294 C297 1.235 . S
C295 O298 1.238 . S
C295 O299 1.241 . S
C296 O289 1.247 . S
C296 O290 1.261 . S
C297 O292 1.259 . S
C297 O294 1.235 . S
O298 Co288 2.021 . S
O298 C295 1.238 . S
O299 Co293 2.052 . S
O299 C295 1.241 . S
O300 Co288 2.137 . S
O300 C291 1.247 . S
O301 Co288 2.244 . S
O301 C291 1.272 . S
O301 Co293 2.135 . S
Co302 O303 2.216 . S
Co302 O304 2.091 . S
Co302 O306 2.004 . S
Co302 O312 2.021 . S
Co302 O314 2.137 . S
Co302 O315 2.244 . S
O303 Co302 2.216 . S
O303 C310 1.247 . S
O304 Co302 2.091 . S
O304 C310 1.261 . S
C305 O314 1.247 . S
C305 O315 1.272 . S
O306 Co302 2.004 . S
O306 C311 1.259 . S
Co307 O308 2.061 . S
Co307 O313 2.052 . S
Co307 O315 2.135 . S
O308 Co307 2.061 . S
O308 C311 1.235 . S
C309 O312 1.238 . S
C309 O313 1.241 . S
C310 O303 1.247 . S
C310 O304 1.261 . S
C311 O306 1.259 . S
C311 O308 1.235 . S
O312 Co302 2.021 . S
O312 C309 1.238 . S
O313 Co307 2.052 . S
O313 C309 1.241 . S
O314 Co302 2.137 . S
O314 C305 1.247 . S
O315 Co302 2.244 . S
O315 C305 1.272 . S
O315 Co307 2.135 . S
Co316 O317 2.216 . S
Co316 O318 2.091 . S
Co316 O320 2.004 . S
Co316 O326 2.021 . S
Co316 O328 2.137 . S
Co316 O329 2.244 . S
O317 Co316 2.216 . S
O317 C324 1.247 . S
O318 Co316 2.091 . S
O318 C324 1.261 . S
C319 O328 1.247 . S
C319 O329 1.272 . S
O320 Co316 2.004 . S
O320 C325 1.259 . S
Co321 O322 2.061 . S
Co321 O327 2.052 . S
Co321 O329 2.135 . S
O322 Co321 2.061 . S
O322 C325 1.235 . S
C323 O326 1.238 . S
C323 O327 1.241 . S
C324 O317 1.247 . S
C324 O318 1.261 . S
C325 O320 1.259 . S
C325 O322 1.235 . S
O326 Co316 2.021 . S
O326 C323 1.238 . S
O327 Co321 2.052 . S
O327 C323 1.241 . S
O328 Co316 2.137 . S
O328 C319 1.247 . S
O329 Co316 2.244 . S
O329 C319 1.272 . S
O329 Co321 2.135 . S
Co330 O331 2.216 . S
Co330 O332 2.091 . S
Co330 O334 2.004 . S
Co330 O340 2.021 . S
Co330 O342 2.137 . S
Co330 O343 2.244 . S
O331 Co330 2.216 . S
O331 C338 1.247 . S
O332 Co330 2.091 . S
O332 C338 1.261 . S
C333 O342 1.247 . S
C333 O343 1.272 . S
O334 Co330 2.004 . S
O334 C339 1.259 . S
Co335 O336 2.061 . S
Co335 O341 2.052 . S
Co335 O343 2.135 . S
O336 Co335 2.061 . S
O336 C339 1.235 . S
C337 O340 1.238 . S
C337 O341 1.241 . S
C338 O331 1.247 . S
C338 O332 1.261 . S
C339 O334 1.259 . S
C339 O336 1.235 . S
O340 Co330 2.021 . S
O340 C337 1.238 . S
O341 Co335 2.052 . S
O341 C337 1.241 . S
O342 Co330 2.137 . S
O342 C333 1.247 . S
O343 Co330 2.244 . S
O343 C333 1.272 . S
O343 Co335 2.135 . S
Co344 O345 2.216 . S
Co344 O346 2.091 . S
Co344 O348 2.004 . S
Co344 O354 2.021 . S
Co344 O356 2.137 . S
Co344 O357 2.244 . S
O345 Co344 2.216 . S
O345 C352 1.247 . S
O346 Co344 2.091 . S
O346 C352 1.261 . S
C347 O356 1.247 . S
C347 O357 1.272 . S
O348 Co344 2.004 . S
O348 C353 1.259 . S
Co349 O350 2.061 . S
Co349 O355 2.052 . S
Co349 O357 2.135 . S
O350 Co349 2.061 . S
O350 C353 1.235 . S
C351 O354 1.238 . S
C351 O355 1.241 . S
C352 O345 1.247 . S
C352 O346 1.261 . S
C353 O348 1.259 . S
C353 O350 1.235 . S
O354 Co344 2.021 . S
O354 C351 1.238 . S
O355 Co349 2.052 . S
O355 C351 1.241 . S
O356 Co344 2.137 . S
O356 C347 1.247 . S
O357 Co344 2.244 . S
O357 C347 1.272 . S
O357 Co349 2.135 . S
Co358 O359 2.216 . S
Co358 O360 2.091 . S
Co358 O362 2.004 . S
Co358 O368 2.021 . S
Co358 O370 2.137 . S
Co358 O371 2.244 . S
O359 Co358 2.216 . S
O359 C366 1.247 . S
O360 Co358 2.091 . S
O360 C366 1.261 . S
C361 O370 1.247 . S
C361 O371 1.272 . S
O362 Co358 2.004 . S
O362 C367 1.259 . S
Co363 O364 2.061 . S
Co363 O369 2.052 . S
Co363 O371 2.135 . S
O364 Co363 2.061 . S
O364 C367 1.235 . S
C365 O368 1.238 . S
C365 O369 1.241 . S
C366 O359 1.247 . S
C366 O360 1.261 . S
C367 O362 1.259 . S
C367 O364 1.235 . S
O368 Co358 2.021 . S
O368 C365 1.238 . S
O369 Co363 2.052 . S
O369 C365 1.241 . S
O370 Co358 2.137 . S
O370 C361 1.247 . S
O371 Co358 2.244 . S
O371 C361 1.272 . S
O371 Co363 2.135 . S
C372 C373 1.349 . S
C372 C374 1.327 . S
C372 H397 0.950 . S
C373 C372 1.349 . S
C373 C389 1.349 . S
C374 C372 1.327 . S
C374 C393 1.429 . S
C374 H398 0.950 . S
C375 C392 1.574 . S
C375 C394 1.368 . S
C375 H399 0.949 . S
H376 C380 0.949 . S
C377 C378 1.349 . S
C377 C379 1.327 . S
C377 H400 0.950 . S
C378 C377 1.349 . S
C378 C390 1.349 . S
C379 C377 1.327 . S
C379 C395 1.429 . S
C379 H401 0.950 . S
C380 H376 0.949 . S
C380 C388 1.574 . S
C380 C396 1.368 . S
H381 C389 0.950 . S
H382 C387 0.950 . S
H383 C388 0.949 . S
H384 C390 0.950 . S
H385 C391 0.950 . S
H386 C392 0.949 . S
C387 H382 0.950 . S
C387 C389 1.327 . S
C387 C393 1.429 . S
C388 C380 1.574 . S
C388 H383 0.949 . S
C388 C394 1.368 . S
C389 C373 1.349 . S
C389 H381 0.950 . S
C389 C387 1.327 . S
C390 C378 1.349 . S
C390 H384 0.950 . S
C390 C391 1.327 . S
C391 H385 0.950 . S
C391 C390 1.327 . S
C391 C395 1.429 . S
C392 C375 1.574 . S
C392 H386 0.949 . S
C392 C396 1.368 . S
C393 C374 1.429 . S
C393 C387 1.429 . S
C393 C394 1.523 . S
C394 C375 1.368 . S
C394 C388 1.368 . S
C394 C393 1.523 . S
C395 C379 1.429 . S
C395 C391 1.429 . S
C395 C396 1.523 . S
C396 C380 1.368 . S
C396 C392 1.368 . S
C396 C395 1.523 . S
H397 C372 0.950 . S
H398 C374 0.950 . S
H399 C375 0.949 . S
H400 C377 0.950 . S
H401 C379 0.950 . S
C402 C403 1.349 . S
C402 C404 1.327 . S
C402 H427 0.950 . S
C403 C402 1.349 . S
C403 C419 1.349 . S
C404 C402 1.327 . S
C404 C423 1.429 . S
C404 H428 0.950 . S
C405 C422 1.574 . S
C405 C424 1.368 . S
C405 H429 0.949 . S
H406 C410 0.949 . S
C407 C408 1.349 . S
C407 C409 1.327 . S
C407 H430 0.950 . S
C408 C407 1.349 . S
C408 C420 1.349 . S
C409 C407 1.327 . S
C409 C425 1.429 . S
C409 H431 0.950 . S
C410 H406 0.949 . S
C410 C418 1.574 . S
C410 C426 1.368 . S
H411 C419 0.950 . S
H412 C417 0.950 . S
H413 C418 0.949 . S
H414 C420 0.950 . S
H415 C421 0.950 . S
H416 C422 0.949 . S
C417 H412 0.950 . S
C417 C419 1.327 . S
C417 C423 1.429 . S
C418 C410 1.574 . S
C418 H413 0.949 . S
C418 C424 1.368 . S
C419 C403 1.349 . S
C419 H411 0.950 . S
C419 C417 1.327 . S
C420 C408 1.349 . S
C420 H414 0.950 . S
C420 C421 1.327 . S
C421 H415 0.950 . S
C421 C420 1.327 . S
C421 C425 1.429 . S
C422 C405 1.574 . S
C422 H416 0.949 . S
C422 C426 1.368 . S
C423 C404 1.429 . S
C423 C417 1.429 . S
C423 C424 1.523 . S
C424 C405 1.368 . S
C424 C418 1.368 . S
C424 C423 1.523 . S
C425 C409 1.429 . S
C425 C421 1.429 . S
C425 C426 1.523 . S
C426 C410 1.368 . S
C426 C422 1.368 . S
C426 C425 1.523 . S
H427 C402 0.950 . S
H428 C404 0.950 . S
H429 C405 0.949 . S
H430 C407 0.950 . S
H431 C409 0.950 . S
C432 C433 1.349 . S
C432 C434 1.327 . S
C432 H457 0.950 . S
C433 C432 1.349 . S
C433 C449 1.349 . S
C434 C432 1.327 . S
C434 C453 1.429 . S
C434 H458 0.950 . S
C435 C452 1.574 . S
C435 C454 1.368 . S
C435 H459 0.949 . S
H436 C440 0.949 . S
C437 C438 1.349 . S
C437 C439 1.327 . S
C437 H460 0.950 . S
C438 C437 1.349 . S
C438 C450 1.349 . S
C439 C437 1.327 . S
C439 C455 1.429 . S
C439 H461 0.950 . S
C440 H436 0.949 . S
C440 C448 1.574 . S
C440 C456 1.368 . S
H441 C449 0.950 . S
H442 C447 0.950 . S
H443 C448 0.949 . S
H444 C450 0.950 . S
H445 C451 0.950 . S
H446 C452 0.949 . S
C447 H442 0.950 . S
C447 C449 1.327 . S
C447 C453 1.429 . S
C448 C440 1.574 . S
C448 H443 0.949 . S
C448 C454 1.368 . S
C449 C433 1.349 . S
C449 H441 0.950 . S
C449 C447 1.327 . S
C450 C438 1.349 . S
C450 H444 0.950 . S
C450 C451 1.327 . S
C451 H445 0.950 . S
C451 C450 1.327 . S
C451 C455 1.429 . S
C452 C435 1.574 . S
C452 H446 0.949 . S
C452 C456 1.368 . S
C453 C434 1.429 . S
C453 C447 1.429 . S
C453 C454 1.523 . S
C454 C435 1.368 . S
C454 C448 1.368 . S
C454 C453 1.523 . S
C455 C439 1.429 . S
C455 C451 1.429 . S
C455 C456 1.523 . S
C456 C440 1.368 . S
C456 C452 1.368 . S
C456 C455 1.523 . S
H457 C432 0.950 . S
H458 C434 0.950 . S
H459 C435 0.949 . S
H460 C437 0.950 . S
H461 C439 0.950 . S
C462 C463 1.349 . S
C462 C464 1.327 . S
C462 H487 0.950 . S
C463 C462 1.349 . S
C463 C479 1.349 . S
C464 C462 1.327 . S
C464 C483 1.429 . S
C464 H488 0.950 . S
C465 C482 1.574 . S
C465 C484 1.368 . S
C465 H489 0.949 . S
H466 C470 0.949 . S
C467 C468 1.349 . S
C467 C469 1.327 . S
C467 H490 0.950 . S
C468 C467 1.349 . S
C468 C480 1.349 . S
C469 C467 1.327 . S
C469 C485 1.429 . S
C469 H491 0.950 . S
C470 H466 0.949 . S
C470 C478 1.574 . S
C470 C486 1.368 . S
H471 C479 0.950 . S
H472 C477 0.950 . S
H473 C478 0.949 . S
H474 C480 0.950 . S
H475 C481 0.950 . S
H476 C482 0.949 . S
C477 H472 0.950 . S
C477 C479 1.327 . S
C477 C483 1.429 . S
C478 C470 1.574 . S
C478 H473 0.949 . S
C478 C484 1.368 . S
C479 C463 1.349 . S
C479 H471 0.950 . S
C479 C477 1.327 . S
C480 C468 1.349 . S
C480 H474 0.950 . S
C480 C481 1.327 . S
C481 H475 0.950 . S
C481 C480 1.327 . S
C481 C485 1.429 . S
C482 C465 1.574 . S
C482 H476 0.949 . S
C482 C486 1.368 . S
C483 C464 1.429 . S
C483 C477 1.429 . S
C483 C484 1.523 . S
C484 C465 1.368 . S
C484 C478 1.368 . S
C484 C483 1.523 . S
C485 C469 1.429 . S
C485 C481 1.429 . S
C485 C486 1.523 . S
C486 C470 1.368 . S
C486 C482 1.368 . S
C486 C485 1.523 . S
H487 C462 0.950 . S
H488 C464 0.950 . S
H489 C465 0.949 . S
H490 C467 0.950 . S
H491 C469 0.950 . S
C492 C493 1.349 . S
C492 C494 1.327 . S
C492 H517 0.950 . S
C493 C492 1.349 . S
C493 C509 1.349 . S
C494 C492 1.327 . S
C494 C513 1.429 . S
C494 H518 0.950 . S
C495 C512 1.574 . S
C495 C514 1.368 . S
C495 H519 0.949 . S
H496 C500 0.949 . S
C497 C498 1.349 . S
C497 C499 1.327 . S
C497 H520 0.950 . S
C498 C497 1.349 . S
C498 C510 1.349 . S
C499 C497 1.327 . S
C499 C515 1.429 . S
C499 H521 0.950 . S
C500 H496 0.949 . S
C500 C508 1.574 . S
C500 C516 1.368 . S
H501 C509 0.950 . S
H502 C507 0.950 . S
H503 C508 0.949 . S
H504 C510 0.950 . S
H505 C511 0.950 . S
H506 C512 0.949 . S
C507 H502 0.950 . S
C507 C509 1.327 . S
C507 C513 1.429 . S
C508 C500 1.574 . S
C508 H503 0.949 . S
C508 C514 1.368 . S
C509 C493 1.349 . S
C509 H501 0.950 . S
C509 C507 1.327 . S
C510 C498 1.349 . S
C510 H504 0.950 . S
C510 C511 1.327 . S
C511 H505 0.950 . S
C511 C510 1.327 . S
C511 C515 1.429 . S
C512 C495 1.574 . S
C512 H506 0.949 . S
C512 C516 1.368 . S
C513 C494 1.429 . S
C513 C507 1.429 . S
C513 C514 1.523 . S
C514 C495 1.368 . S
C514 C508 1.368 . S
C514 C513 1.523 . S
C515 C499 1.429 . S
C515 C511 1.429 . S
C515 C516 1.523 . S
C516 C500 1.368 . S
C516 C512 1.368 . S
C516 C515 1.523 . S
H517 C492 0.950 . S
H518 C494 0.950 . S
H519 C495 0.949 . S
H520 C497 0.950 . S
H521 C499 0.950 . S
C522 C523 1.349 . S
C522 C524 1.327 . S
C522 H547 0.950 . S
C523 C522 1.349 . S
C523 C539 1.349 . S
C524 C522 1.327 . S
C524 C543 1.429 . S
C524 H548 0.950 . S
C525 C542 1.574 . S
C525 C544 1.368 . S
C525 H549 0.949 . S
H526 C530 0.949 . S
C527 C528 1.349 . S
C527 C529 1.327 . S
C527 H550 0.950 . S
C528 C527 1.349 . S
C528 C540 1.349 . S
C529 C527 1.327 . S
C529 C545 1.429 . S
C529 H551 0.950 . S
C530 H526 0.949 . S
C530 C538 1.574 . S
C530 C546 1.368 . S
H531 C539 0.950 . S
H532 C537 0.950 . S
H533 C538 0.949 . S
H534 C540 0.950 . S
H535 C541 0.950 . S
H536 C542 0.949 . S
C537 H532 0.950 . S
C537 C539 1.327 . S
C537 C543 1.429 . S
C538 C530 1.574 . S
C538 H533 0.949 . S
C538 C544 1.368 . S
C539 C523 1.349 . S
C539 H531 0.950 . S
C539 C537 1.327 . S
C540 C528 1.349 . S
C540 H534 0.950 . S
C540 C541 1.327 . S
C541 H535 0.950 . S
C541 C540 1.327 . S
C541 C545 1.429 . S
C542 C525 1.574 . S
C542 H536 0.949 . S
C542 C546 1.368 . S
C543 C524 1.429 . S
C543 C537 1.429 . S
C543 C544 1.523 . S
C544 C525 1.368 . S
C544 C538 1.368 . S
C544 C543 1.523 . S
C545 C529 1.429 . S
C545 C541 1.429 . S
C545 C546 1.523 . S
C546 C530 1.368 . S
C546 C542 1.368 . S
C546 C545 1.523 . S
H547 C522 0.950 . S
H548 C524 0.950 . S
H549 C525 0.949 . S
H550 C527 0.950 . S
H551 C529 0.950 . S
C552 C553 1.349 . S
C552 C554 1.327 . S
C552 H577 0.950 . S
C553 C552 1.349 . S
C553 C569 1.349 . S
C554 C552 1.327 . S
C554 C573 1.429 . S
C554 H578 0.950 . S
C555 C572 1.574 . S
C555 C574 1.368 . S
C555 H579 0.949 . S
H556 C560 0.949 . S
C557 C558 1.349 . S
C557 C559 1.327 . S
C557 H580 0.950 . S
C558 C557 1.349 . S
C558 C570 1.349 . S
C559 C557 1.327 . S
C559 C575 1.429 . S
C559 H581 0.950 . S
C560 H556 0.949 . S
C560 C568 1.574 . S
C560 C576 1.368 . S
H561 C569 0.950 . S
H562 C567 0.950 . S
H563 C568 0.949 . S
H564 C570 0.950 . S
H565 C571 0.950 . S
H566 C572 0.949 . S
C567 H562 0.950 . S
C567 C569 1.327 . S
C567 C573 1.429 . S
C568 C560 1.574 . S
C568 H563 0.949 . S
C568 C574 1.368 . S
C569 C553 1.349 . S
C569 H561 0.950 . S
C569 C567 1.327 . S
C570 C558 1.349 . S
C570 H564 0.950 . S
C570 C571 1.327 . S
C571 H565 0.950 . S
C571 C570 1.327 . S
C571 C575 1.429 . S
C572 C555 1.574 . S
C572 H566 0.949 . S
C572 C576 1.368 . S
C573 C554 1.429 . S
C573 C567 1.429 . S
C573 C574 1.523 . S
C574 C555 1.368 . S
C574 C568 1.368 . S
C574 C573 1.523 . S
C575 C559 1.429 . S
C575 C571 1.429 . S
C575 C576 1.523 . S
C576 C560 1.368 . S
C576 C572 1.368 . S
C576 C575 1.523 . S
H577 C552 0.950 . S
H578 C554 0.950 . S
H579 C555 0.949 . S
H580 C557 0.950 . S
H581 C559 0.950 . S
C582 C583 1.349 . S
C582 C584 1.327 . S
C582 H607 0.950 . S
C583 C582 1.349 . S
C583 C599 1.349 . S
C584 C582 1.327 . S
C584 C603 1.429 . S
C584 H608 0.950 . S
C585 C602 1.574 . S
C585 C604 1.368 . S
C585 H609 0.949 . S
H586 C590 0.949 . S
C587 C588 1.349 . S
C587 C589 1.327 . S
C587 H610 0.950 . S
C588 C587 1.349 . S
C588 C600 1.349 . S
C589 C587 1.327 . S
C589 C605 1.429 . S
C589 H611 0.950 . S
C590 H586 0.949 . S
C590 C598 1.574 . S
C590 C606 1.368 . S
H591 C599 0.950 . S
H592 C597 0.950 . S
H593 C598 0.949 . S
H594 C600 0.950 . S
H595 C601 0.950 . S
H596 C602 0.949 . S
C597 H592 0.950 . S
C597 C599 1.327 . S
C597 C603 1.429 . S
C598 C590 1.574 . S
C598 H593 0.949 . S
C598 C604 1.368 . S
C599 C583 1.349 . S
C599 H591 0.950 . S
C599 C597 1.327 . S
C600 C588 1.349 . S
C600 H594 0.950 . S
C600 C601 1.327 . S
C601 H595 0.950 . S
C601 C600 1.327 . S
C601 C605 1.429 . S
C602 C585 1.574 . S
C602 H596 0.949 . S
C602 C606 1.368 . S
C603 C584 1.429 . S
C603 C597 1.429 . S
C603 C604 1.523 . S
C604 C585 1.368 . S
C604 C598 1.368 . S
C604 C603 1.523 . S
C605 C589 1.429 . S
C605 C601 1.429 . S
C605 C606 1.523 . S
C606 C590 1.368 . S
C606 C602 1.368 . S
C606 C605 1.523 . S
H607 C582 0.950 . S
H608 C584 0.950 . S
H609 C585 0.949 . S
H610 C587 0.950 . S
H611 C589 0.950 . S
C612 C613 1.349 . S
C612 C614 1.327 . S
C612 H637 0.950 . S
C613 C612 1.349 . S
C613 C629 1.349 . S
C614 C612 1.327 . S
C614 C633 1.429 . S
C614 H638 0.950 . S
C615 C632 1.574 . S
C615 C634 1.368 . S
C615 H639 0.949 . S
H616 C620 0.949 . S
C617 C618 1.349 . S
C617 C619 1.327 . S
C617 H640 0.950 . S
C618 C617 1.349 . S
C618 C630 1.349 . S
C619 C617 1.327 . S
C619 C635 1.429 . S
C619 H641 0.950 . S
C620 H616 0.949 . S
C620 C628 1.574 . S
C620 C636 1.368 . S
H621 C629 0.950 . S
H622 C627 0.950 . S
H623 C628 0.949 . S
H624 C630 0.950 . S
H625 C631 0.950 . S
H626 C632 0.949 . S
C627 H622 0.950 . S
C627 C629 1.327 . S
C627 C633 1.429 . S
C628 C620 1.574 . S
C628 H623 0.949 . S
C628 C634 1.368 . S
C629 C613 1.349 . S
C629 H621 0.950 . S
C629 C627 1.327 . S
C630 C618 1.349 . S
C630 H624 0.950 . S
C630 C631 1.327 . S
C631 H625 0.950 . S
C631 C630 1.327 . S
C631 C635 1.429 . S
C632 C615 1.574 . S
C632 H626 0.949 . S
C632 C636 1.368 . S
C633 C614 1.429 . S
C633 C627 1.429 . S
C633 C634 1.523 . S
C634 C615 1.368 . S
C634 C628 1.368 . S
C634 C633 1.523 . S
C635 C619 1.429 . S
C635 C631 1.429 . S
C635 C636 1.523 . S
C636 C620 1.368 . S
C636 C632 1.368 . S
C636 C635 1.523 . S
H637 C612 0.950 . S
H638 C614 0.950 . S
H639 C615 0.949 . S
H640 C617 0.950 . S
H641 C619 0.950 . S
C642 C643 1.349 . S
C642 C644 1.327 . S
C642 H667 0.950 . S
C643 C642 1.349 . S
C643 C659 1.349 . S
C644 C642 1.327 . S
C644 C663 1.429 . S
C644 H668 0.950 . S
C645 C662 1.574 . S
C645 C664 1.368 . S
C645 H669 0.949 . S
H646 C650 0.949 . S
C647 C648 1.349 . S
C647 C649 1.327 . S
C647 H670 0.950 . S
C648 C647 1.349 . S
C648 C660 1.349 . S
C649 C647 1.327 . S
C649 C665 1.429 . S
C649 H671 0.950 . S
C650 H646 0.949 . S
C650 C658 1.574 . S
C650 C666 1.368 . S
H651 C659 0.994 . S
H652 C657 0.950 . S
H653 C658 0.949 . S
H654 C660 0.950 . S
H655 C661 0.950 . S
H656 C662 0.949 . S
C657 H652 0.950 . S
C657 C659 1.327 . S
C657 C663 1.429 . S
C658 C650 1.574 . S
C658 H653 0.949 . S
C658 C664 1.368 . S
C659 C643 1.349 . S
C659 H651 0.994 . S
C659 C657 1.327 . S
C660 C648 1.349 . S
C660 H654 0.950 . S
C660 C661 1.327 . S
C661 H655 0.950 . S
C661 C660 1.327 . S
C661 C665 1.429 . S
C662 C645 1.574 . S
C662 H656 0.949 . S
C662 C666 1.368 . S
C663 C644 1.429 . S
C663 C657 1.429 . S
C663 C664 1.523 . S
C664 C645 1.368 . S
C664 C658 1.368 . S
C664 C663 1.523 . S
C665 C649 1.429 . S
C665 C661 1.429 . S
C665 C666 1.523 . S
C666 C650 1.368 . S
C666 C662 1.368 . S
C666 C665 1.523 . S
H667 C642 0.950 . S
H668 C644 0.950 . S
H669 C645 0.949 . S
H670 C647 0.950 . S
H671 C649 0.950 . S
C672 C673 1.349 . S
C672 C674 1.327 . S
C672 H697 0.950 . S
C673 C672 1.349 . S
C673 C689 1.349 . S
C674 C672 1.327 . S
C674 C693 1.429 . S
C674 H698 0.950 . S
C675 C692 1.574 . S
C675 C694 1.368 . S
C675 H699 0.949 . S
H676 C680 0.949 . S
C677 C678 1.349 . S
C677 C679 1.327 . S
C677 H700 0.950 . S
C678 C677 1.349 . S
C678 C690 1.349 . S
C679 C677 1.327 . S
C679 C695 1.429 . S
C679 H701 0.950 . S
C680 H676 0.949 . S
C680 C688 1.574 . S
C680 C696 1.368 . S
H681 C689 0.950 . S
H682 C687 0.950 . S
H683 C688 0.949 . S
H684 C690 0.950 . S
H685 C691 0.950 . S
H686 C692 0.949 . S
C687 H682 0.950 . S
C687 C689 1.327 . S
C687 C693 1.429 . S
C688 C680 1.574 . S
C688 H683 0.949 . S
C688 C694 1.368 . S
C689 C673 1.349 . S
C689 H681 0.950 . S
C689 C687 1.327 . S
C690 C678 1.349 . S
C690 H684 0.950 . S
C690 C691 1.327 . S
C691 H685 0.950 . S
C691 C690 1.327 . S
C691 C695 1.429 . S
C692 C675 1.574 . S
C692 H686 0.949 . S
C692 C696 1.368 . S
C693 C674 1.429 . S
C693 C687 1.429 . S
C693 C694 1.523 . S
C694 C675 1.368 . S
C694 C688 1.368 . S
C694 C693 1.523 . S
C695 C679 1.429 . S
C695 C691 1.429 . S
C695 C696 1.523 . S
C696 C680 1.368 . S
C696 C692 1.368 . S
C696 C695 1.523 . S
H697 C672 0.950 . S
H698 C674 0.950 . S
H699 C675 0.949 . S
H700 C677 0.950 . S
H701 C679 0.950 . S
C702 C703 1.349 . S
C702 C704 1.327 . S
C702 H727 0.950 . S
C703 C702 1.349 . S
C703 C719 1.349 . S
C704 C702 1.327 . S
C704 C723 1.429 . S
C704 H728 0.950 . S
C705 C722 1.574 . S
C705 C724 1.368 . S
C705 H729 0.949 . S
H706 C710 0.949 . S
C707 C708 1.349 . S
C707 C709 1.327 . S
C707 H730 0.950 . S
C708 C707 1.349 . S
C708 C720 1.349 . S
C709 C707 1.327 . S
C709 C725 1.429 . S
C709 H731 0.950 . S
C710 H706 0.949 . S
C710 C718 1.574 . S
C710 C726 1.368 . S
H711 C719 0.950 . S
H712 C717 0.950 . S
H713 C718 0.949 . S
H714 C720 0.950 . S
H715 C721 0.950 . S
H716 C722 0.949 . S
C717 H712 0.950 . S
C717 C719 1.327 . S
C717 C723 1.429 . S
C718 C710 1.574 . S
C718 H713 0.949 . S
C718 C724 1.368 . S
C719 C703 1.349 . S
C719 H711 0.950 . S
C719 C717 1.327 . S
C720 C708 1.349 . S
C720 H714 0.950 . S
C720 C721 1.327 . S
C721 H715 0.950 . S
C721 C720 1.327 . S
C721 C725 1.429 . S
C722 C705 1.574 . S
C722 H716 0.949 . S
C722 C726 1.368 . S
C723 C704 1.429 . S
C723 C717 1.429 . S
C723 C724 1.523 . S
C724 C705 1.368 . S
C724 C718 1.368 . S
C724 C723 1.523 . S
C725 C709 1.429 . S
C725 C721 1.429 . S
C725 C726 1.523 . S
C726 C710 1.368 . S
C726 C722 1.368 . S
C726 C725 1.523 . S
H727 C702 0.950 . S
H728 C704 0.950 . S
H729 C705 0.949 . S
H730 C707 0.950 . S
H731 C709 0.950 . S
C732 C733 1.349 . S
C732 C734 1.327 . S
C732 H757 0.950 . S
C733 C732 1.349 . S
C733 C749 1.349 . S
C734 C732 1.327 . S
C734 C753 1.429 . S
C734 H758 0.950 . S
C735 C752 1.574 . S
C735 C754 1.368 . S
C735 H759 0.949 . S
H736 C740 0.949 . S
C737 C738 1.349 . S
C737 C739 1.327 . S
C737 H760 0.950 . S
C738 C737 1.349 . S
C738 C750 1.349 . S
C739 C737 1.327 . S
C739 C755 1.429 . S
C739 H761 0.950 . S
C740 H736 0.949 . S
C740 C748 1.574 . S
C740 C756 1.368 . S
H741 C749 0.950 . S
H742 C747 0.950 . S
H743 C748 0.949 . S
H744 C750 0.950 . S
H745 C751 0.950 . S
H746 C752 0.949 . S
C747 H742 0.950 . S
C747 C749 1.327 . S
C747 C753 1.429 . S
C748 C740 1.574 . S
C748 H743 0.949 . S
C748 C754 1.368 . S
C749 C733 1.349 . S
C749 H741 0.950 . S
C749 C747 1.327 . S
C750 C738 1.349 . S
C750 H744 0.950 . S
C750 C751 1.327 . S
C751 H745 0.950 . S
C751 C750 1.327 . S
C751 C755 1.429 . S
C752 C735 1.574 . S
C752 H746 0.949 . S
C752 C756 1.368 . S
C753 C734 1.429 . S
C753 C747 1.429 . S
C753 C754 1.523 . S
C754 C735 1.368 . S
C754 C748 1.368 . S
C754 C753 1.523 . S
C755 C739 1.429 . S
C755 C751 1.429 . S
C755 C756 1.523 . S
C756 C740 1.368 . S
C756 C752 1.368 . S
C756 C755 1.523 . S
H757 C732 0.950 . S
H758 C734 0.950 . S
H759 C735 0.949 . S
H760 C737 0.950 . S
H761 C739 0.950 . S
C762 C763 1.349 . S
C762 C764 1.327 . S
C762 H787 0.950 . S
C763 C762 1.349 . S
C763 C779 1.349 . S
C764 C762 1.327 . S
C764 C783 1.429 . S
C764 H788 0.950 . S
C765 C782 1.574 . S
C765 C784 1.368 . S
C765 H789 0.949 . S
H766 C770 0.949 . S
C767 C768 1.349 . S
C767 C769 1.327 . S
C767 H790 0.950 . S
C768 C767 1.349 . S
C768 C780 1.349 . S
C769 C767 1.327 . S
C769 C785 1.429 . S
C769 H791 0.950 . S
C770 H766 0.949 . S
C770 C778 1.574 . S
C770 C786 1.368 . S
H771 C779 0.950 . S
H772 C777 0.950 . S
H773 C778 0.949 . S
H774 C780 0.950 . S
H775 C781 0.950 . S
H776 C782 0.949 . S
C777 H772 0.950 . S
C777 C779 1.327 . S
C777 C783 1.429 . S
C778 C770 1.574 . S
C778 H773 0.949 . S
C778 C784 1.368 . S
C779 C763 1.349 . S
C779 H771 0.950 . S
C779 C777 1.327 . S
C780 C768 1.349 . S
C780 H774 0.950 . S
C780 C781 1.327 . S
C781 H775 0.950 . S
C781 C780 1.327 . S
C781 C785 1.429 . S
C782 C765 1.574 . S
C782 H776 0.949 . S
C782 C786 1.368 . S
C783 C764 1.429 . S
C783 C777 1.429 . S
C783 C784 1.523 . S
C784 C765 1.368 . S
C784 C778 1.368 . S
C784 C783 1.523 . S
C785 C769 1.429 . S
C785 C781 1.429 . S
C785 C786 1.523 . S
C786 C770 1.368 . S
C786 C782 1.368 . S
C786 C785 1.523 . S
H787 C762 0.950 . S
H788 C764 0.950 . S
H789 C765 0.949 . S
H790 C767 0.950 . S
H791 C769 0.950 . S
C792 C793 1.349 . S
C792 C794 1.327 . S
C792 H817 0.950 . S
C793 C792 1.349 . S
C793 C809 1.349 . S
C794 C792 1.327 . S
C794 C813 1.429 . S
C794 H818 0.950 . S
C795 C812 1.574 . S
C795 C814 1.368 . S
C795 H819 0.949 . S
H796 C800 0.949 . S
C797 C798 1.349 . S
C797 C799 1.327 . S
C797 H820 0.950 . S
C798 C797 1.349 . S
C798 C810 1.349 . S
C799 C797 1.327 . S
C799 C815 1.429 . S
C799 H821 0.950 . S
C800 H796 0.949 . S
C800 C808 1.574 . S
C800 C816 1.368 . S
H801 C809 0.950 . S
H802 C807 0.950 . S
H803 C808 0.949 . S
H804 C810 0.950 . S
H805 C811 0.950 . S
H806 C812 0.949 . S
C807 H802 0.950 . S
C807 C809 1.327 . S
C807 C813 1.429 . S
C808 C800 1.574 . S
C808 H803 0.949 . S
C808 C814 1.368 . S
C809 C793 1.349 . S
C809 H801 0.950 . S
C809 C807 1.327 . S
C810 C798 1.349 . S
C810 H804 0.950 . S
C810 C811 1.327 . S
C811 H805 0.950 . S
C811 C810 1.327 . S
C811 C815 1.429 . S
C812 C795 1.574 . S
C812 H806 0.949 . S
C812 C816 1.368 . S
C813 C794 1.429 . S
C813 C807 1.429 . S
C813 C814 1.523 . S
C814 C795 1.368 . S
C814 C808 1.368 . S
C814 C813 1.523 . S
C815 C799 1.429 . S
C815 C811 1.429 . S
C815 C816 1.523 . S
C816 C800 1.368 . S
C816 C812 1.368 . S
C816 C815 1.523 . S
H817 C792 0.950 . S
H818 C794 0.950 . S
H819 C795 0.949 . S
H820 C797 0.950 . S
H821 C799 0.950 . S
C822 C823 1.349 . S
C822 C824 1.327 . S
C822 H847 0.950 . S
C823 C822 1.349 . S
C823 C839 1.349 . S
C824 C822 1.327 . S
C824 C843 1.429 . S
C824 H848 0.950 . S
C825 C842 1.574 . S
C825 C844 1.368 . S
C825 H849 0.949 . S
H826 C830 0.949 . S
C827 C828 1.349 . S
C827 C829 1.327 . S
C827 H850 0.950 . S
C828 C827 1.349 . S
C828 C840 1.349 . S
C829 C827 1.327 . S
C829 C845 1.429 1_554 S
C829 H851 0.950 . S
C830 H826 0.949 . S
C830 C838 1.574 . S
C830 C846 1.368 . S
H831 C839 0.950 . S
H832 C837 0.950 . S
H833 C838 0.949 . S
H834 C840 0.950 . S
H835 C841 0.950 . S
H836 C842 0.949 . S
C837 H832 0.950 . S
C837 C839 1.327 . S
C837 C843 1.429 . S
C838 C830 1.574 . S
C838 H833 0.949 . S
C838 C844 1.368 . S
C839 C823 1.349 . S
C839 H831 0.950 . S
C839 C837 1.327 . S
C840 C828 1.349 . S
C840 H834 0.950 . S
C840 C841 1.327 1_554 S
C841 H835 0.950 . S
C841 C840 1.327 1_556 S
C841 C845 1.429 . S
C842 C825 1.574 . S
C842 H836 0.949 . S
C842 C846 1.368 . S
C843 C824 1.429 . S
C843 C837 1.429 . S
C843 C844 1.523 . S
C844 C825 1.368 . S
C844 C838 1.368 . S
C844 C843 1.523 . S
C845 C829 1.429 1_556 S
C845 C841 1.429 . S
C845 C846 1.523 . S
C846 C830 1.368 . S
C846 C842 1.368 . S
C846 C845 1.523 . S
H847 C822 0.950 . S
H848 C824 0.950 . S
H849 C825 0.949 . S
H850 C827 0.950 . S
H851 C829 0.950 . S
C852 C853 1.349 . S
C852 C854 1.327 . S
C852 H877 0.950 . S
C853 C852 1.349 . S
C853 C869 1.349 . S
C854 C852 1.327 . S
C854 C873 1.429 . S
C854 H878 0.950 . S
C855 C872 1.574 . S
C855 C874 1.368 . S
C855 H879 0.949 . S
H856 C860 0.949 . S
C857 C858 1.349 . S
C857 C859 1.327 . S
C857 H880 0.950 . S
C858 C857 1.349 . S
C858 C870 1.349 . S
C859 C857 1.327 . S
C859 C875 1.429 . S
C859 H881 0.950 . S
C860 H856 0.949 . S
C860 C868 1.574 . S
C860 C876 1.368 . S
H861 C869 0.950 . S
H862 C867 0.950 . S
H863 C868 0.949 . S
H864 C870 0.950 . S
H865 C871 0.950 . S
H866 C872 0.949 . S
C867 H862 0.950 . S
C867 C869 1.327 . S
C867 C873 1.429 . S
C868 C860 1.574 . S
C868 H863 0.949 . S
C868 C874 1.368 . S
C869 C853 1.349 . S
C869 H861 0.950 . S
C869 C867 1.327 . S
C870 C858 1.349 . S
C870 H864 0.950 . S
C870 C871 1.327 . S
C871 H865 0.950 . S
C871 C870 1.327 . S
C871 C875 1.429 . S
C872 C855 1.574 . S
C872 H866 0.949 . S
C872 C876 1.368 . S
C873 C854 1.429 . S
C873 C867 1.429 . S
C873 C874 1.523 . S
C874 C855 1.368 . S
C874 C868 1.368 . S
C874 C873 1.523 . S
C875 C859 1.429 . S
C875 C871 1.429 . S
C875 C876 1.523 . S
C876 C860 1.368 . S
C876 C872 1.368 . S
C876 C875 1.523 . S
H877 C852 0.950 . S
H878 C854 0.950 . S
H879 C855 0.949 . S
H880 C857 0.950 . S
H881 C859 0.950 . S
C882 C883 1.349 . S
C882 C884 1.327 . S
C882 H907 0.950 . S
C883 C882 1.349 . S
C883 C899 1.349 . S
C884 C882 1.327 . S
C884 C903 1.429 . S
C884 H908 0.950 . S
C885 C902 1.574 . S
C885 C904 1.368 . S
C885 H909 0.949 . S
H886 C890 0.949 . S
C887 C888 1.349 . S
C887 C889 1.327 . S
C887 H910 0.950 . S
C888 C887 1.349 . S
C888 C900 1.349 . S
C889 C887 1.327 . S
C889 C905 1.429 . S
C889 H911 0.950 . S
C890 H886 0.949 . S
C890 C898 1.574 . S
C890 C906 1.368 . S
H891 C899 0.950 . S
H892 C897 0.950 . S
H893 C898 0.949 . S
H894 C900 0.950 . S
H895 C901 0.950 . S
H896 C902 0.949 . S
C897 H892 0.950 . S
C897 C899 1.327 . S
C897 C903 1.429 . S
C898 C890 1.574 . S
C898 H893 0.949 . S
C898 C904 1.368 . S
C899 C883 1.349 . S
C899 H891 0.950 . S
C899 C897 1.327 . S
C900 C888 1.349 . S
C900 H894 0.950 . S
C900 C901 1.327 . S
C901 H895 0.950 . S
C901 C900 1.327 . S
C901 C905 1.429 . S
C902 C885 1.574 . S
C902 H896 0.949 . S
C902 C906 1.368 . S
C903 C884 1.429 . S
C903 C897 1.429 . S
C903 C904 1.523 . S
C904 C885 1.368 . S
C904 C898 1.368 . S
C904 C903 1.523 . S
C905 C889 1.429 . S
C905 C901 1.429 . S
C905 C906 1.523 . S
C906 C890 1.368 . S
C906 C902 1.368 . S
C906 C905 1.523 . S
H907 C882 0.950 . S
H908 C884 0.950 . S
H909 C885 0.949 . S
H910 C887 0.950 . S
H911 C889 0.950 . S
C912 C913 1.349 . S
C912 C914 1.327 . S
C912 H937 0.950 . S
C913 C912 1.349 . S
C913 C929 1.349 . S
C914 C912 1.327 . S
C914 C933 1.429 . S
C914 H938 0.950 . S
C915 C932 1.574 . S
C915 C934 1.368 . S
C915 H939 0.949 . S
H916 C920 0.949 . S
C917 C918 1.349 . S
C917 C919 1.327 . S
C917 H940 0.950 . S
C918 C917 1.349 . S
C918 C930 1.349 . S
C919 C917 1.327 . S
C919 C935 1.429 . S
C919 H941 0.950 . S
C920 H916 0.949 . S
C920 C928 1.574 . S
C920 C936 1.368 . S
H921 C929 0.950 . S
H922 C927 0.950 . S
H923 C928 0.949 . S
H924 C930 0.950 . S
H925 C931 0.950 . S
H926 C932 0.949 . S
C927 H922 0.950 . S
C927 C929 1.327 . S
C927 C933 1.429 . S
C928 C920 1.574 . S
C928 H923 0.949 . S
C928 C934 1.368 . S
C929 C913 1.349 . S
C929 H921 0.950 . S
C929 C927 1.327 . S
C930 C918 1.349 . S
C930 H924 0.950 . S
C930 C931 1.327 . S
C931 H925 0.950 . S
C931 C930 1.327 . S
C931 C935 1.429 . S
C932 C915 1.574 . S
C932 H926 0.949 . S
C932 C936 1.368 . S
C933 C914 1.429 . S
C933 C927 1.429 . S
C933 C934 1.523 . S
C934 C915 1.368 . S
C934 C928 1.368 . S
C934 C933 1.523 . S
C935 C919 1.429 . S
C935 C931 1.429 . S
C935 C936 1.523 . S
C936 C920 1.368 . S
C936 C932 1.368 . S
C936 C935 1.523 . S
H937 C912 0.950 . S
H938 C914 0.950 . S
H939 C915 0.949 . S
H940 C917 0.950 . S
H941 C919 0.950 . S
C942 C943 1.349 . S
C942 C944 1.327 . S
C942 H967 0.950 . S
C943 C942 1.349 . S
C943 C959 1.349 . S
C944 C942 1.327 . S
C944 C963 1.429 . S
C944 H968 0.950 . S
C945 C962 1.574 . S
C945 C964 1.368 . S
C945 H969 0.949 . S
H946 C950 0.949 . S
C947 C948 1.349 . S
C947 C949 1.327 . S
C947 H970 0.950 . S
C948 C947 1.349 . S
C948 C960 1.349 . S
C949 C947 1.327 . S
C949 C965 1.429 . S
C949 H971 0.950 . S
C950 H946 0.949 . S
C950 C958 1.574 . S
C950 C966 1.368 . S
H951 C959 0.950 . S
H952 C957 0.950 . S
H953 C958 0.949 . S
H954 C960 0.950 . S
H955 C961 0.950 . S
H956 C962 0.949 . S
C957 H952 0.950 . S
C957 C959 1.327 . S
C957 C963 1.429 . S
C958 C950 1.574 . S
C958 H953 0.949 . S
C958 C964 1.368 . S
C959 C943 1.349 . S
C959 H951 0.950 . S
C959 C957 1.327 . S
C960 C948 1.349 . S
C960 H954 0.950 . S
C960 C961 1.327 . S
C961 H955 0.950 . S
C961 C960 1.327 . S
C961 C965 1.429 . S
C962 C945 1.574 . S
C962 H956 0.949 . S
C962 C966 1.368 . S
C963 C944 1.429 . S
C963 C957 1.429 . S
C963 C964 1.523 . S
C964 C945 1.368 . S
C964 C958 1.368 . S
C964 C963 1.523 . S
C965 C949 1.429 . S
C965 C961 1.429 . S
C965 C966 1.523 . S
C966 C950 1.368 . S
C966 C962 1.368 . S
C966 C965 1.523 . S
H967 C942 0.950 . S
H968 C944 0.950 . S
H969 C945 0.949 . S
H970 C947 0.950 . S
H971 C949 0.950 . S
C972 C973 1.349 . S
C972 C974 1.327 . S
C972 H997 0.950 . S
C973 C972 1.349 . S
C973 C989 1.349 . S
C974 C972 1.327 . S
C974 C993 1.429 . S
C974 H998 0.950 . S
C975 C992 1.574 . S
C975 C994 1.368 . S
C975 H999 0.949 . S
H976 C980 0.949 . S
C977 C978 1.349 . S
C977 C979 1.327 . S
C977 H1000 0.950 . S
C978 C977 1.349 . S
C978 C990 1.349 . S
C979 C977 1.327 . S
C979 C995 1.429 . S
C979 H1001 0.950 . S
C980 H976 0.949 . S
C980 C988 1.574 . S
C980 C996 1.368 . S
H981 C989 0.950 . S
H982 C987 0.950 . S
H983 C988 0.949 . S
H984 C990 0.950 . S
H985 C991 0.950 . S
H986 C992 0.949 . S
C987 H982 0.950 . S
C987 C989 1.327 . S
C987 C993 1.429 . S
C988 C980 1.574 . S
C988 H983 0.949 . S
C988 C994 1.368 . S
C989 C973 1.349 . S
C989 H981 0.950 . S
C989 C987 1.327 . S
C990 C978 1.349 . S
C990 H984 0.950 . S
C990 C991 1.327 . S
C991 H985 0.950 . S
C991 C990 1.327 . S
C991 C995 1.429 . S
C992 C975 1.574 . S
C992 H986 0.949 . S
C992 C996 1.368 . S
C993 C974 1.429 . S
C993 C987 1.429 . S
C993 C994 1.523 . S
C994 C975 1.368 . S
C994 C988 1.368 . S
C994 C993 1.523 . S
C995 C979 1.429 . S
C995 C991 1.429 . S
C995 C996 1.523 . S
C996 C980 1.368 . S
C996 C992 1.368 . S
C996 C995 1.523 . S
H997 C972 0.950 . S
H998 C974 0.950 . S
H999 C975 0.949 . S
H1000 C977 0.950 . S
H1001 C979 0.950 . S
C1002 C1003 1.349 . S
C1002 C1004 1.327 . S
C1002 H1027 0.950 . S
C1003 C1002 1.349 . S
C1003 C1019 1.349 . S
C1004 C1002 1.327 . S
C1004 C1023 1.429 . S
C1004 H1028 0.950 . S
C1005 C1022 1.574 . S
C1005 C1024 1.368 . S
C1005 H1029 0.949 . S
H1006 C1010 0.949 . S
C1007 C1008 1.349 . S
C1007 C1009 1.327 . S
C1007 H1030 0.950 . S
C1008 C1007 1.349 . S
C1008 C1020 1.349 . S
C1009 C1007 1.327 . S
C1009 C1025 1.429 . S
C1009 H1031 0.950 . S
C1010 H1006 0.949 . S
C1010 C1018 1.574 . S
C1010 C1026 1.368 . S
H1011 C1019 0.950 . S
H1012 C1017 0.950 . S
H1013 C1018 0.949 . S
H1014 C1020 0.950 . S
H1015 C1021 0.950 . S
H1016 C1022 0.949 . S
C1017 H1012 0.950 . S
C1017 C1019 1.327 . S
C1017 C1023 1.429 . S
C1018 C1010 1.574 . S
C1018 H1013 0.949 . S
C1018 C1024 1.368 . S
C1019 C1003 1.349 . S
C1019 H1011 0.950 . S
C1019 C1017 1.327 . S
C1020 C1008 1.349 . S
C1020 H1014 0.950 . S
C1020 C1021 1.327 . S
C1021 H1015 0.950 . S
C1021 C1020 1.327 . S
C1021 C1025 1.429 . S
C1022 C1005 1.574 . S
C1022 H1016 0.949 . S
C1022 C1026 1.368 . S
C1023 C1004 1.429 . S
C1023 C1017 1.429 . S
C1023 C1024 1.523 . S
C1024 C1005 1.368 . S
C1024 C1018 1.368 . S
C1024 C1023 1.523 . S
C1025 C1009 1.429 . S
C1025 C1021 1.429 . S
C1025 C1026 1.523 . S
C1026 C1010 1.368 . S
C1026 C1022 1.368 . S
C1026 C1025 1.523 . S
H1027 C1002 0.950 . S
H1028 C1004 0.950 . S
H1029 C1005 0.949 . S
H1030 C1007 0.950 . S
H1031 C1009 0.950 . S
C1032 C1033 1.349 . S
C1032 C1034 1.327 . S
C1032 H1057 0.950 . S
C1033 C1032 1.349 . S
C1033 C1049 1.349 . S
C1034 C1032 1.327 . S
C1034 C1053 1.429 . S
C1034 H1058 0.950 . S
C1035 C1052 1.574 . S
C1035 C1054 1.368 . S
C1035 H1059 0.949 . S
H1036 C1040 0.949 . S
C1037 C1038 1.349 . S
C1037 C1039 1.327 . S
C1037 H1060 0.950 . S
C1038 C1037 1.349 . S
C1038 C1050 1.349 . S
C1039 C1037 1.327 . S
C1039 C1055 1.429 . S
C1039 H1061 0.950 . S
C1040 H1036 0.949 . S
C1040 C1048 1.574 . S
C1040 C1056 1.368 . S
H1041 C1049 0.950 . S
H1042 C1047 0.950 . S
H1043 C1048 0.949 . S
H1044 C1050 0.950 . S
H1045 C1051 0.950 . S
H1046 C1052 0.949 . S
C1047 H1042 0.950 . S
C1047 C1049 1.327 . S
C1047 C1053 1.429 . S
C1048 C1040 1.574 . S
C1048 H1043 0.949 . S
C1048 C1054 1.368 . S
C1049 C1033 1.349 . S
C1049 H1041 0.950 . S
C1049 C1047 1.327 . S
C1050 C1038 1.349 . S
C1050 H1044 0.950 . S
C1050 C1051 1.327 . S
C1051 H1045 0.950 . S
C1051 C1050 1.327 . S
C1051 C1055 1.429 . S
C1052 C1035 1.574 . S
C1052 H1046 0.949 . S
C1052 C1056 1.368 . S
C1053 C1034 1.429 . S
C1053 C1047 1.429 . S
C1053 C1054 1.523 . S
C1054 C1035 1.368 . S
C1054 C1048 1.368 . S
C1054 C1053 1.523 . S
C1055 C1039 1.429 . S
C1055 C1051 1.429 . S
C1055 C1056 1.523 1_556 S
C1056 C1040 1.368 . S
C1056 C1052 1.368 . S
C1056 C1055 1.523 1_554 S
H1057 C1032 0.950 . S
H1058 C1034 0.950 . S
H1059 C1035 0.949 . S
H1060 C1037 0.950 . S
H1061 C1039 0.950 . S
C1062 C1063 1.349 . S
C1062 C1064 1.327 . S
C1062 H1087 0.950 . S
C1063 C1062 1.349 . S
C1063 C1079 1.349 . S
C1064 C1062 1.327 . S
C1064 C1083 1.429 . S
C1064 H1088 0.950 . S
C1065 C1082 1.574 . S
C1065 C1084 1.368 . S
C1065 H1089 0.949 . S
H1066 C1070 0.949 . S
C1067 C1068 1.349 . S
C1067 C1069 1.327 . S
C1067 H1090 0.950 . S
C1068 C1067 1.349 . S
C1068 C1080 1.349 . S
C1069 C1067 1.327 . S
C1069 C1085 1.429 . S
C1069 H1091 0.950 . S
C1070 H1066 0.949 . S
C1070 C1078 1.574 . S
C1070 C1086 1.368 . S
H1071 C1079 0.950 . S
H1072 C1077 0.950 . S
H1073 C1078 0.949 . S
H1074 C1080 0.950 . S
H1075 C1081 0.950 . S
H1076 C1082 0.949 . S
C1077 H1072 0.950 . S
C1077 C1079 1.327 . S
C1077 C1083 1.429 . S
C1078 C1070 1.574 . S
C1078 H1073 0.949 . S
C1078 C1084 1.368 . S
C1079 C1063 1.349 . S
C1079 H1071 0.950 . S
C1079 C1077 1.327 . S
C1080 C1068 1.349 . S
C1080 H1074 0.950 . S
C1080 C1081 1.327 . S
C1081 H1075 0.950 . S
C1081 C1080 1.327 . S
C1081 C1085 1.429 . S
C1082 C1065 1.574 . S
C1082 H1076 0.949 . S
C1082 C1086 1.368 . S
C1083 C1064 1.429 . S
C1083 C1077 1.429 . S
C1083 C1084 1.523 . S
C1084 C1065 1.368 . S
C1084 C1078 1.368 . S
C1084 C1083 1.523 . S
C1085 C1069 1.429 . S
C1085 C1081 1.429 . S
C1085 C1086 1.523 . S
C1086 C1070 1.368 . S
C1086 C1082 1.368 . S
C1086 C1085 1.523 . S
H1087 C1062 0.950 . S
H1088 C1064 0.950 . S
H1089 C1065 0.949 . S
H1090 C1067 0.950 . S
H1091 C1069 0.950 . S
C378 C361 1.620 . S
C373 C45 1.623 . S
C403 C84 1.619 . S
C408 C291 1.621 . S
C433 C126 1.611 . S
C438 C310 1.643 . S
C463 C189 1.623 . S
C468 C319 1.620 . S
C498 C333 1.621 . S
C493 C228 1.619 . S
C523 C270 1.611 . S
C528 C352 1.643 . S
C553 C69 1.584 . S
C558 C305 1.597 . S
C583 C141 1.620 . S
C588 C324 1.618 . S
C613 C174 1.590 . S
C618 C338 1.618 . S
C648 C347 1.597 . S
C643 C213 1.584 . S
C678 C366 1.618 . S
C673 C285 1.620 . S
C708 C296 1.618 . S
C703 C30 1.590 . S
C733 C36 1.504 . S
C738 C311 1.493 . S
C763 C93 1.495 . S
C768 C323 1.472 . S
C798 C337 1.481 . S
C793 C117 1.506 . S
C823 C180 1.505 . S
C828 C353 1.493 . S
C858 C365 1.472 . S
C853 C237 1.495 . S
C888 C295 1.480 . S
C883 C261 1.506 . S
C918 C367 1.499 . S
C913 C78 1.503 . S
C943 C132 1.524 . S
C948 C297 1.515 . S
C978 C309 1.488 . S
C973 C165 1.512 . S
C1003 C222 1.503 . S
C1008 C325 1.499 . S
C1033 C276 1.524 . S
C1038 C339 1.515 . S
C1063 C21 1.512 . S
C1068 C351 1.488 . S
