# Generated by pormake.
# Topology pyr, (3,6)-cn, num edge types: 1
# Building blocks:
#     Node 0, Type 0, BuildingBlock: BETDIP_clean_linker_0, # of connection points: 3
#     Node 1, Type 0, BuildingBlock: BETDIP_clean_linker_0, # of connection points: 3
#     Node 2, Type 0, BuildingBlock: BETDIP_clean_linker_0, # of connection points: 3
#     Node 3, Type 0, BuildingBlock: BETDIP_clean_linker_0, # of connection points: 3
#     Node 4, Type 0, BuildingBlock: BETDIP_clean_linker_0, # of connection points: 3
#     Node 5, Type 0, BuildingBlock: BETDIP_clean_linker_0, # of connection points: 3
#     Node 6, Type 0, BuildingBlock: BETDIP_clean_linker_0, # of connection points: 3
#     Node 7, Type 0, BuildingBlock: BETDIP_clean_linker_0, # of connection points: 3
#     Node 8, Type 1, BuildingBlock: PAMTUU_clean_sbu_0, # of connection points: 6
#     Node 9, Type 1, BuildingBlock: PAMTUU_clean_sbu_0, # of connection points: 6
#     Node 10, Type 1, BuildingBlock: PAMTUU_clean_sbu_0, # of connection points: 6
#     Node 11, Type 1, BuildingBlock: PAMTUU_clean_sbu_0, # of connection points: 6
#     Edge 12, Type (0, 1), None
#     Edge 13, Type (0, 1), None
#     Edge 14, Type (0, 1), None
#     Edge 15, Type (0, 1), None
#     Edge 16, Type (0, 1), None
#     Edge 17, Type (0, 1), None
#     Edge 18, Type (0, 1), None
#     Edge 19, Type (0, 1), None
#     Edge 20, Type (0, 1), None
#     Edge 21, Type (0, 1), None
#     Edge 22, Type (0, 1), None
#     Edge 23, Type (0, 1), None
#     Edge 24, Type (0, 1), None
#     Edge 25, Type (0, 1), None
#     Edge 26, Type (0, 1), None
#     Edge 27, Type (0, 1), None
#     Edge 28, Type (0, 1), None
#     Edge 29, Type (0, 1), None
#     Edge 30, Type (0, 1), None
#     Edge 31, Type (0, 1), None
#     Edge 32, Type (0, 1), None
#     Edge 33, Type (0, 1), None
#     Edge 34, Type (0, 1), None
#     Edge 35, Type (0, 1), None
# Relax obj value: 0.403
# Max RMSD: 0.263
# Mean RMSD: 0.144
data_MOF--net-pyr--node1-PAMTUU_clean_sbu_0--node2-BETDIP_clean_linker_0--edge1-none
_symmetry_space_group_name_H-M    P1
_symmetry_Int_Tables_number       1
_symmetry_cell_setting            triclinic
loop_
_symmetry_equiv_pos_as_xyz
'x, y, z'
_cell_length_a     17.629651
_cell_length_b     17.124566
_cell_length_c     16.498591
_cell_angle_alpha  90.190449
_cell_angle_beta   88.822901
_cell_angle_gamma 111.27059
loop_
_atom_site_label
_atom_site_type_symbol
_atom_site_fract_x
_atom_site_fract_y
_atom_site_fract_z
_atom_type_partial_charge
H0 H 0.39111 0.28995 0.48834 0.0
H1 H 0.53171 0.36895 0.26972 0.0
H2 H 0.56205 0.17566 0.41723 0.0
H3 H 0.37033 0.41626 0.47332 0.0
C4 C 0.36024 0.4101 0.40852 0.0
C5 C 0.4407 0.28924 0.4489 0.0
C6 C 0.47945 0.2321 0.4642 0.0
C7 C 0.46148 0.34061 0.37991 0.0
C8 C 0.52013 0.33312 0.3257 0.0
C9 C 0.55435 0.27136 0.33709 0.0
C10 C 0.53725 0.2244 0.40862 0.0
N11 N 0.41548 0.38962 0.35662 0.0
H12 H 0.04236 0.96291 0.88354 0.0
H13 H 0.11439 0.80801 0.71478 0.0
H14 H 0.27848 0.94786 0.89792 0.0
H15 H 0.87501 0.8741 0.75187 0.0
C16 C 0.94001 0.90785 0.75745 0.0
C17 C 0.08709 0.93858 0.85986 0.0
C18 C 0.16118 0.95957 0.8982 0.0
C19 C 0.06912 0.8836 0.79387 0.0
C20 C 0.12762 0.85039 0.76588 0.0
C21 C 0.20453 0.87551 0.80237 0.0
C22 C 0.21989 0.92918 0.86883 0.0
N23 N 0.99144 0.85933 0.75748 0.0
H24 H 0.82404 0.61429 0.98435 0.0
H25 H 0.61072 0.39205 0.95417 0.0
H26 H 0.80196 0.38731 1.11083 0.0
H27 H 0.60872 0.4543 0.83369 0.0
C28 C 0.62819 0.52194 0.83982 0.0
C29 C 0.79027 0.54906 0.99778 0.0
C30 C 0.82329 0.50562 1.05201 0.0
C31 C 0.71462 0.50962 0.95951 0.0
C32 C 0.67015 0.42349 0.97947 0.0
C33 C 0.70104 0.378 1.03427 0.0
C34 C 0.77783 0.42046 1.06887 0.0
N35 N 0.68545 0.55815 0.90326 0.0
H36 H 0.77027 0.65183 0.46966 0.0
H37 H 0.98646 0.87241 0.4454 0.0
H38 H 0.79369 0.87082 0.61152 0.0
H39 H 1.00058 0.81344 0.32751 0.0
C40 C 0.97506 0.7455 0.33128 0.0
C41 C 0.80511 0.71499 0.48816 0.0
C42 C 0.77248 0.75474 0.54809 0.0
C43 C 0.88175 0.75556 0.44962 0.0
C44 C 0.92651 0.84012 0.47157 0.0
C45 C 0.8947 0.88339 0.52881 0.0
C46 C 0.81773 0.83945 0.56632 0.0
N47 N 0.91157 0.70888 0.39116 0.0
H48 H 0.56835 0.88624 1.03158 0.0
H49 H 0.68903 0.92822 0.80061 0.0
H50 H 0.52425 1.05412 0.86182 0.0
H51 H 0.71499 0.80445 0.83576 0.0
C52 C 0.73082 0.82528 0.89752 0.0
C53 C 0.57426 0.91222 0.97089 0.0
C54 C 0.54134 0.97399 0.95355 0.0
C55 C 0.62759 0.89514 0.91625 0.0
C56 C 0.64243 0.9352 0.84052 0.0
C57 C 0.60323 0.99086 0.81943 0.0
C58 C 0.54977 1.00692 0.87537 0.0
N59 N 0.67726 0.85227 0.94572 0.0
H60 H 0.05632 0.29467 0.40924 0.0
H61 H 0.95975 0.40799 0.5989 0.0
H62 H 0.82127 0.31043 0.38512 0.0
H63 H 0.20236 0.35846 0.56903 0.0
C64 C 0.14039 0.32642 0.54987 0.0
C65 C 1.00774 0.31247 0.43448 0.0
C66 C 0.93921 0.30004 0.38893 0.0
C67 C 1.01594 0.35077 0.51027 0.0
C68 C 0.95354 0.37747 0.5405 0.0
C69 C 0.88182 0.36118 0.49582 0.0
C70 C 0.87617 0.32348 0.41977 0.0
N71 N 0.09113 0.3716 0.55065 0.0
H72 H 0.2941 0.67501 0.33221 0.0
H73 H 0.50208 0.90452 0.35427 0.0
H74 H 0.32389 0.88499 0.17295 0.0
H75 H 0.40404 0.62166 0.3949 0.0
C76 C 0.42807 0.66896 0.44122 0.0
C77 C 0.32911 0.73805 0.3116 0.0
C78 C 0.29908 0.77421 0.24669 0.0
C79 C 0.40278 0.78457 0.35202 0.0
C80 C 0.44613 0.86815 0.32455 0.0
C81 C 0.41887 0.90528 0.25941 0.0
C82 C 0.34516 0.85737 0.22241 0.0
N83 N 0.43212 0.75356 0.42315 0.0
H84 H 0.09442 0.32808 0.86203 0.0
H85 H 0.30372 0.55674 0.84184 0.0
H86 H 0.28059 0.35098 0.68038 0.0
H87 H 0.20442 0.61048 0.90524 0.0
C88 C 0.17241 0.56302 0.94995 0.0
C89 C 0.15181 0.36479 0.83267 0.0
C90 C 0.18159 0.3294 0.76716 0.0
C91 C 0.19474 0.44708 0.86093 0.0
C92 C 0.26927 0.49477 0.81995 0.0
C93 C 0.30085 0.4613 0.75292 0.0
C94 C 0.25689 0.37787 0.72974 0.0
N95 N 0.16255 0.47726 0.93164 0.0
Tb96 Tb 0.11748 1.0809 0.63024 0.0
Tb97 Tb 0.96158 0.14271 0.64528 0.0
C98 C 0.94411 0.97155 0.55596 0.0
C99 C 0.31493 1.05824 0.61399 0.0
C100 C 0.44609 0.16934 0.52879 0.0
C101 C 0.41697 1.08408 0.50794 0.0
C102 C 0.35124 1.02818 0.55113 0.0
C103 C 0.35541 0.13848 0.64543 0.0
C104 C 0.42165 0.19396 0.60293 0.0
C105 C 0.22715 1.0196 0.62524 0.0
O106 O 0.16281 0.20209 0.56876 0.0
O107 O 1.03652 0.19295 0.53911 0.0
O108 O 0.05169 0.22306 0.73066 0.0
O109 O 0.16975 0.20204 0.69254 0.0
O110 O 0.88015 0.17838 0.57727 0.0
O111 O 0.89123 0.19998 0.70682 0.0
O112 O 0.91986 1.02609 0.7148 0.0
O113 O 0.04749 1.03129 0.73873 0.0
O114 O 1.02421 0.99918 0.5486 0.0
O115 O 0.90718 1.01562 0.59512 0.0
C116 C 0.11369 0.23839 0.54363 0.0
O117 O 0.19648 1.03672 0.69265 0.0
O118 O 0.18714 1.02776 0.56203 0.0
C119 C 0.13177 0.24526 0.73183 0.0
C120 C 0.76165 0.15586 0.65592 0.0
C121 C 0.63496 1.04734 0.74922 0.0
C122 C 0.65949 0.13443 0.76105 0.0
C123 C 0.72284 0.18875 0.71401 0.0
C124 C 0.72573 1.07175 0.63276 0.0
C125 C 0.66193 1.01754 0.67924 0.0
C126 C 0.84874 0.19895 0.64255 0.0
C127 C 0.96918 0.99049 0.74141 0.0
H128 H 0.43582 1.06298 0.45171 0.0
H129 H 0.32125 0.96562 0.52741 0.0
H130 H 0.32926 0.16232 0.69528 0.0
H131 H 0.44506 0.25884 0.62138 0.0
H132 H 0.63926 0.1601 0.81365 0.0
H133 H 0.7493 0.25406 0.73138 0.0
H134 H 0.75391 1.04537 0.58668 0.0
H135 H 0.64256 0.95121 0.66723 0.0
Tb136 Tb 0.63891 0.11894 0.16407 0.0
Tb137 Tb 0.48164 0.15662 1.11421 0.0
C138 C 0.52904 1.02435 1.02151 0.0
C139 C 0.85151 0.15007 0.18865 0.0
C140 C 0.93017 0.25707 0.31105 0.0
C141 C 0.93371 0.1766 0.30763 0.0
C142 C 0.8943 0.12274 0.24567 0.0
C143 C 0.86559 0.23576 0.18151 0.0
C144 C 0.90235 0.28878 0.2445 0.0
C145 C 0.77001 1.09291 0.1708 0.0
O146 O 0.68437 0.24784 1.10954 0.0
O147 O 0.57355 0.25717 1.04604 0.0
O148 O 0.55369 0.25094 0.19677 0.0
O149 O 0.61431 0.18014 0.27103 0.0
O150 O 0.40566 0.1941 1.0414 0.0
O151 O 0.37976 0.17233 0.16986 0.0
O152 O 0.43512 1.03197 0.178 0.0
O153 O 0.54846 1.0199 0.23498 0.0
O154 O 0.56626 1.01958 1.08732 0.0
O155 O 0.49897 1.08335 1.01228 0.0
C156 C 0.65161 0.28859 1.06127 0.0
O157 O 0.71945 1.08369 0.23216 0.0
O158 O 0.7395 1.10598 1.1029 0.0
C159 C 0.58187 0.23753 0.26536 0.0
C160 C 0.27151 0.13002 1.0793 0.0
C161 C 0.17909 1.01342 0.96956 0.0
C162 C 0.18511 1.09698 0.96263 0.0
C163 C 0.23177 0.15572 1.01784 0.0
C164 C 0.25162 1.04447 1.09493 0.0
C165 C 0.20719 0.98642 1.03896 0.0
C166 C 0.35269 0.18595 1.10021 0.0
C167 C 0.46921 0.99162 0.22551 0.0
H168 H 0.95634 0.15168 0.35812 0.0
H169 H 0.88494 1.0568 0.25098 0.0
H170 H 0.83513 0.25842 0.13608 0.0
H171 H 0.90065 0.3514 0.24553 0.0
H172 H 0.16323 0.11843 0.90937 0.0
H173 H 0.24668 0.22176 1.00525 0.0
H174 H 0.28111 1.02326 0.14248 0.0
H175 H 0.20325 0.92211 1.04513 0.0
Tb176 Tb 0.53574 0.52877 0.60017 0.0
Tb177 Tb 0.53419 0.68853 0.694 0.0
C178 C 0.4603 0.64642 0.50968 0.0
C179 C 0.65894 0.40173 0.54525 0.0
C180 C 0.80906 0.37724 0.52677 0.0
C181 C 0.73555 0.309 0.5383 0.0
C182 C 0.66205 0.32134 0.55058 0.0
C183 C 0.73292 0.47053 0.53848 0.0
C184 C 0.80751 0.45859 0.52933 0.0
C185 C 0.57878 0.4125 0.54627 0.0
O186 O 0.65129 0.62965 0.56701 0.0
O187 O 0.65928 0.74265 0.64518 0.0
O188 O 0.61226 0.64218 0.77418 0.0
O189 O 0.55395 0.50996 0.72742 0.0
O190 O 0.53237 0.81034 0.68799 0.0
O191 O 0.50036 0.73941 0.79904 0.0
O192 O 0.42337 0.58637 0.73691 0.0
O193 O 0.40822 0.48084 0.6458 0.0
O194 O 0.46368 0.5705 0.51395 0.0
O195 O 0.48884 0.69995 0.56977 0.0
C196 C 0.69072 0.70731 0.58949 0.0
O197 O 0.54474 0.41067 0.61702 0.0
O198 O 0.57137 0.47133 0.50076 0.0
C199 C 0.59973 0.56104 0.7807 0.0
C200 C 0.4181 0.81706 0.7607 0.0
C201 C 0.2722 0.85007 0.77329 0.0
C202 C 0.34535 0.91242 0.74693 0.0
C203 C 0.41678 0.89544 0.73844 0.0
C204 C 0.34417 0.75333 0.78382 0.0
C205 C 0.27163 0.76956 0.78953 0.0
C206 C 0.4965 0.80308 0.75863 0.0
C207 C 0.3806 0.51182 0.70878 0.0
H208 H 0.73435 0.24558 0.53385 0.0
H209 H 0.60745 0.26738 0.56161 0.0
H210 H 0.73277 0.53324 0.53878 0.0
H211 H 0.86303 0.51242 0.51961 0.0
H212 H 0.34834 0.97585 0.73746 0.0
H213 H 0.47162 0.94481 0.7172 0.0
H214 H 0.34285 0.69176 0.79947 0.0
H215 H 0.21634 0.72099 0.81139 0.0
Tb216 Tb 0.0695 0.7188 1.0952 0.0
Tb217 Tb 0.05425 0.56001 0.19779 0.0
C218 C 0.13767 0.58811 1.01601 0.0
C219 C 0.95932 0.82867 0.98902 0.0
C220 C 0.80782 0.82442 0.93121 0.0
C221 C 0.84476 0.771 0.89845 0.0
C222 C 0.91949 0.77263 0.92741 0.0
C223 C 0.9221 0.88205 1.02174 0.0
C224 C 0.84686 0.87955 0.99358 0.0
C225 C 1.03808 0.83074 1.02129 0.0
O226 O 0.94894 0.62592 1.06719 0.0
O227 O 0.93398 0.5099 0.14337 0.0
O228 O 0.98017 0.62147 0.2674 0.0
O229 O 0.05632 0.75049 0.22107 0.0
O230 O 0.06204 0.44086 0.20605 0.0
O231 O 0.05083 0.50779 0.31359 0.0
O232 O 0.17327 0.65259 0.23217 0.0
O233 O 0.19228 0.76427 0.14707 0.0
O234 O 0.14224 0.66667 1.0182 0.0
O235 O 0.09955 0.53577 1.07544 0.0
C236 C 0.90574 0.54892 1.08999 0.0
O237 O 1.04152 0.82806 1.09979 0.0
O238 O 0.07324 0.78384 0.98627 0.0
C239 C 1.00291 0.7038 0.27361 0.0
C240 C 0.14576 0.43862 0.31584 0.0
C241 C 0.28817 0.42202 0.37515 0.0
C242 C 0.25063 0.46959 0.41774 0.0
C243 C 0.18051 0.47854 0.38803 0.0
C244 C 0.18333 0.39046 0.27367 0.0
C245 C 0.25432 0.38296 0.3026 0.0
C246 C 0.07108 0.44725 0.2842 0.0
C247 C 0.21831 0.72785 0.20563 0.0
H248 H 0.81595 0.72813 0.85016 0.0
H249 H 0.94616 0.73027 0.90108 0.0
H250 H 0.95135 0.92584 1.06922 0.0
H251 H 0.82017 0.92212 1.01946 0.0
H252 H 0.27545 0.49971 0.47417 0.0
H253 H 0.15296 0.51576 0.42231 0.0
H254 H 0.15779 0.3584 0.21828 0.0
H255 H 0.28153 0.34492 0.26909 0.0
loop_
_geom_bond_atom_site_label_1
_geom_bond_atom_site_label_2
_geom_bond_distance
_geom_bond_site_symmetry_2
_ccdc_geom_bond_type
H0 C5 0.930 . S
H1 C8 0.930 . S
H2 C10 0.930 . S
H3 C4 1.016 . S
C4 H3 1.016 . S
C4 N11 1.286 . S
C5 H0 0.930 . S
C5 C6 1.397 . S
C5 C7 1.361 . S
C6 C5 1.397 . S
C6 C10 1.390 . S
C7 C5 1.361 . S
C7 C8 1.393 . S
C7 N11 1.413 . S
C8 H1 0.930 . S
C8 C7 1.393 . S
C8 C9 1.399 . S
C9 C8 1.399 . S
C9 C10 1.381 . S
C10 H2 0.930 . S
C10 C6 1.390 . S
C10 C9 1.381 . S
N11 C4 1.286 . S
N11 C7 1.413 . S
H12 C17 0.930 1_655 S
H13 C20 0.930 . S
H14 C22 0.930 . S
H15 C16 1.016 . S
C16 H15 1.016 . S
C16 N23 1.286 . S
C17 H12 0.930 1_455 S
C17 C18 1.397 . S
C17 C19 1.361 1_455 S
C18 C17 1.397 . S
C18 C22 1.390 . S
C19 C17 1.361 1_655 S
C19 C20 1.393 . S
C19 N23 1.413 . S
C20 H13 0.930 . S
C20 C19 1.393 . S
C20 C21 1.399 1_655 S
C21 C20 1.399 1_455 S
C21 C22 1.381 . S
C22 H14 0.930 . S
C22 C18 1.390 . S
C22 C21 1.381 . S
N23 C16 1.286 . S
N23 C19 1.413 . S
H24 C29 0.930 . S
H25 C32 0.930 . S
H26 C34 0.930 . S
H27 C28 1.016 . S
C28 H27 1.016 . S
C28 N35 1.286 . S
C29 H24 0.930 . S
C29 C30 1.397 . S
C29 C31 1.361 . S
C30 C29 1.397 . S
C30 C34 1.390 . S
C31 C29 1.361 . S
C31 C32 1.393 . S
C31 N35 1.413 . S
C32 H25 0.930 . S
C32 C31 1.393 . S
C32 C33 1.399 . S
C33 C32 1.399 . S
C33 C34 1.381 . S
C34 H26 0.930 . S
C34 C30 1.390 . S
C34 C33 1.381 . S
N35 C28 1.286 . S
N35 C31 1.413 . S
H36 C41 0.930 . S
H37 C44 0.930 . S
H38 C46 0.930 . S
H39 C40 1.016 . S
C40 H39 1.016 . S
C40 N47 1.286 . S
C41 H36 0.930 . S
C41 C42 1.397 . S
C41 C43 1.361 . S
C42 C41 1.397 . S
C42 C46 1.390 . S
C43 C41 1.361 . S
C43 C44 1.393 . S
C43 N47 1.413 . S
C44 H37 0.930 . S
C44 C43 1.393 . S
C44 C45 1.399 . S
C45 C44 1.399 . S
C45 C46 1.381 . S
C46 H38 0.930 . S
C46 C42 1.390 . S
C46 C45 1.381 . S
N47 C40 1.286 . S
N47 C43 1.413 . S
H48 C53 0.930 1_554 S
H49 C56 0.930 . S
H50 C58 0.930 . S
H51 C52 1.016 . S
C52 H51 1.016 . S
C52 N59 1.286 . S
C53 H48 0.930 1_556 S
C53 C54 1.397 . S
C53 C55 1.361 . S
C54 C53 1.397 . S
C54 C58 1.390 . S
C55 C53 1.361 . S
C55 C56 1.393 . S
C55 N59 1.413 . S
C56 H49 0.930 . S
C56 C55 1.393 . S
C56 C57 1.399 . S
C57 C56 1.399 . S
C57 C58 1.381 . S
C58 H50 0.930 . S
C58 C54 1.390 . S
C58 C57 1.381 . S
N59 C52 1.286 . S
N59 C55 1.413 . S
H60 C65 0.930 . S
H61 C68 0.930 1_455 S
H62 C70 0.930 . S
H63 C64 1.016 . S
C64 H63 1.016 . S
C64 N71 1.286 . S
C65 H60 0.930 . S
C65 C66 1.397 . S
C65 C67 1.361 . S
C66 C65 1.397 . S
C66 C70 1.390 . S
C67 C65 1.361 . S
C67 C68 1.393 . S
C67 N71 1.413 1_655 S
C68 H61 0.930 1_655 S
C68 C67 1.393 . S
C68 C69 1.399 . S
C69 C68 1.399 . S
C69 C70 1.381 . S
C70 H62 0.930 . S
C70 C66 1.390 . S
C70 C69 1.381 . S
N71 C64 1.286 . S
N71 C67 1.413 1_455 S
H72 C77 0.930 . S
H73 C80 0.930 . S
H74 C82 0.930 . S
H75 C76 1.016 . S
C76 H75 1.016 . S
C76 N83 1.286 . S
C77 H72 0.930 . S
C77 C78 1.397 . S
C77 C79 1.361 . S
C78 C77 1.397 . S
C78 C82 1.390 . S
C79 C77 1.361 . S
C79 C80 1.393 . S
C79 N83 1.413 . S
C80 H73 0.930 . S
C80 C79 1.393 . S
C80 C81 1.399 . S
C81 C80 1.399 . S
C81 C82 1.381 . S
C82 H74 0.930 . S
C82 C78 1.390 . S
C82 C81 1.381 . S
N83 C76 1.286 . S
N83 C79 1.413 . S
H84 C89 0.930 . S
H85 C92 0.930 . S
H86 C94 0.930 . S
H87 C88 1.016 . S
C88 H87 1.016 . S
C88 N95 1.286 . S
C89 H84 0.930 . S
C89 C90 1.397 . S
C89 C91 1.361 . S
C90 C89 1.397 . S
C90 C94 1.390 . S
C91 C89 1.361 . S
C91 C92 1.393 . S
C91 N95 1.413 . S
C92 H85 0.930 . S
C92 C91 1.393 . S
C92 C93 1.399 . S
C93 C92 1.399 . S
C93 C94 1.381 . S
C94 H86 0.930 . S
C94 C90 1.390 . S
C94 C93 1.381 . S
N95 C88 1.286 . S
N95 C91 1.413 . S
Tb96 C105 2.764 . S
Tb96 O106 2.325 . S
Tb96 O109 2.303 . S
Tb96 O113 2.322 1_545 S
Tb96 O114 2.349 1_545 S
Tb96 O117 2.415 . S
Tb96 O118 2.399 . S
Tb97 O107 2.322 . S
Tb97 O108 2.349 . S
Tb97 O110 2.415 1_545 S
Tb97 O111 2.399 1_545 S
Tb97 O112 2.325 1_545 S
Tb97 O115 2.303 1_545 S
Tb97 C126 2.764 1_545 S
C98 O114 1.261 1_655 S
C98 O115 1.257 . S
C99 C102 1.358 . S
C99 C103 1.332 . S
C99 C105 1.504 . S
C100 C101 1.373 . S
C100 C104 1.308 . S
C101 C100 1.373 . S
C101 C102 1.429 . S
C101 H128 0.932 . S
C102 C99 1.358 . S
C102 C101 1.429 . S
C102 H129 0.930 . S
C103 C99 1.332 . S
C103 C104 1.394 . S
C103 H130 0.932 . S
C104 C100 1.308 . S
C104 C103 1.394 . S
C104 H131 0.929 . S
C105 Tb96 2.764 . S
C105 C99 1.504 . S
C105 O117 1.239 . S
C105 O118 1.263 . S
O106 Tb96 2.325 . S
O106 C116 1.236 1_455 S
O107 Tb97 2.322 . S
O107 C116 1.257 . S
O108 Tb97 2.349 . S
O108 C119 1.261 1_655 S
O109 Tb96 2.303 . S
O109 C119 1.257 . S
O110 Tb97 2.415 1_565 S
O110 C126 1.239 . S
O111 Tb97 2.399 1_565 S
O111 C126 1.263 . S
O112 Tb97 2.325 1_565 S
O112 C127 1.236 1_655 S
O113 Tb96 2.322 1_565 S
O113 C127 1.257 . S
O114 Tb96 2.349 1_565 S
O114 C98 1.261 1_455 S
O115 Tb97 2.303 1_565 S
O115 C98 1.257 . S
C116 O106 1.236 1_655 S
C116 O107 1.257 . S
O117 Tb96 2.415 . S
O117 C105 1.239 . S
O118 Tb96 2.399 . S
O118 C105 1.263 . S
C119 O108 1.261 1_455 S
C119 O109 1.257 . S
C120 C123 1.358 . S
C120 C124 1.332 . S
C120 C126 1.504 . S
C121 C122 1.373 . S
C121 C125 1.308 . S
C122 C121 1.373 . S
C122 C123 1.429 . S
C122 H132 0.932 . S
C123 C120 1.358 . S
C123 C122 1.429 . S
C123 H133 0.930 . S
C124 C120 1.332 . S
C124 C125 1.394 . S
C124 H134 0.932 . S
C125 C121 1.308 . S
C125 C124 1.394 . S
C125 H135 0.929 . S
C126 Tb97 2.764 1_565 S
C126 O110 1.239 . S
C126 O111 1.263 . S
C126 C120 1.504 . S
C127 O112 1.236 1_455 S
C127 O113 1.257 . S
H128 C101 0.932 . S
H129 C102 0.930 . S
H130 C103 0.932 . S
H131 C104 0.929 . S
H132 C122 0.932 . S
H133 C123 0.930 . S
H134 C124 0.932 . S
H135 C125 0.929 . S
Tb136 C145 2.764 . S
Tb136 O146 2.325 1_554 S
Tb136 O149 2.303 . S
Tb136 O153 2.322 1_545 S
Tb136 O154 2.349 1_544 S
Tb136 O157 2.415 . S
Tb136 O158 2.399 . S
Tb137 O147 2.322 . S
Tb137 O148 2.349 1_556 S
Tb137 O150 2.415 1_545 S
Tb137 O151 2.399 1_545 S
Tb137 O152 2.325 1_546 S
Tb137 O155 2.303 1_545 S
Tb137 C166 2.764 1_545 S
C138 O154 1.261 . S
C138 O155 1.257 . S
C139 C142 1.358 . S
C139 C143 1.332 . S
C139 C145 1.504 . S
C140 C141 1.373 . S
C140 C144 1.308 . S
C141 C140 1.373 . S
C141 C142 1.429 . S
C141 H168 0.932 . S
C142 C139 1.358 . S
C142 C141 1.429 . S
C142 H169 0.930 . S
C143 C139 1.332 . S
C143 C144 1.394 . S
C143 H170 0.932 . S
C144 C140 1.308 . S
C144 C143 1.394 . S
C144 H171 0.929 . S
C145 Tb136 2.764 . S
C145 C139 1.504 . S
C145 O157 1.239 . S
C145 O158 1.263 . S
O146 Tb136 2.325 1_556 S
O146 C156 1.236 . S
O147 Tb137 2.322 . S
O147 C156 1.257 . S
O148 Tb137 2.349 1_554 S
O148 C159 1.261 . S
O149 Tb136 2.303 . S
O149 C159 1.257 . S
O150 Tb137 2.415 1_565 S
O150 C166 1.239 . S
O151 Tb137 2.399 1_565 S
O151 C166 1.263 . S
O152 Tb137 2.325 1_564 S
O152 C167 1.236 . S
O153 Tb136 2.322 1_565 S
O153 C167 1.257 . S
O154 Tb136 2.349 1_566 S
O154 C138 1.261 . S
O155 Tb137 2.303 1_565 S
O155 C138 1.257 . S
C156 O146 1.236 . S
C156 O147 1.257 . S
O157 Tb136 2.415 . S
O157 C145 1.239 . S
O158 Tb136 2.399 . S
O158 C145 1.263 . S
C159 O148 1.261 . S
C159 O149 1.257 . S
C160 C163 1.358 . S
C160 C164 1.332 . S
C160 C166 1.504 . S
C161 C162 1.373 . S
C161 C165 1.308 . S
C162 C161 1.373 . S
C162 C163 1.429 . S
C162 H172 0.932 . S
C163 C160 1.358 . S
C163 C162 1.429 . S
C163 H173 0.930 . S
C164 C160 1.332 . S
C164 C165 1.394 . S
C164 H174 0.932 . S
C165 C161 1.308 . S
C165 C164 1.394 . S
C165 H175 0.929 . S
C166 Tb137 2.764 1_565 S
C166 O150 1.239 . S
C166 O151 1.263 . S
C166 C160 1.504 . S
C167 O152 1.236 . S
C167 O153 1.257 . S
H168 C141 0.932 . S
H169 C142 0.930 . S
H170 C143 0.932 . S
H171 C144 0.929 . S
H172 C162 0.932 . S
H173 C163 0.930 . S
H174 C164 0.932 . S
H175 C165 0.929 . S
Tb176 C185 2.764 . S
Tb176 O186 2.325 . S
Tb176 O189 2.303 . S
Tb176 O193 2.322 . S
Tb176 O194 2.349 . S
Tb176 O197 2.415 . S
Tb176 O198 2.399 . S
Tb177 O187 2.322 . S
Tb177 O188 2.349 . S
Tb177 O190 2.415 . S
Tb177 O191 2.399 . S
Tb177 O192 2.325 . S
Tb177 O195 2.303 . S
Tb177 C206 2.764 . S
C178 O194 1.261 . S
C178 O195 1.257 . S
C179 C182 1.358 . S
C179 C183 1.332 . S
C179 C185 1.504 . S
C180 C181 1.373 . S
C180 C184 1.308 . S
C181 C180 1.373 . S
C181 C182 1.429 . S
C181 H208 0.932 . S
C182 C179 1.358 . S
C182 C181 1.429 . S
C182 H209 0.930 . S
C183 C179 1.332 . S
C183 C184 1.394 . S
C183 H210 0.932 . S
C184 C180 1.308 . S
C184 C183 1.394 . S
C184 H211 0.929 . S
C185 Tb176 2.764 . S
C185 C179 1.504 . S
C185 O197 1.239 . S
C185 O198 1.263 . S
O186 Tb176 2.325 . S
O186 C196 1.236 . S
O187 Tb177 2.322 . S
O187 C196 1.257 . S
O188 Tb177 2.349 . S
O188 C199 1.261 . S
O189 Tb176 2.303 . S
O189 C199 1.257 . S
O190 Tb177 2.415 . S
O190 C206 1.239 . S
O191 Tb177 2.399 . S
O191 C206 1.263 . S
O192 Tb177 2.325 . S
O192 C207 1.236 . S
O193 Tb176 2.322 . S
O193 C207 1.257 . S
O194 Tb176 2.349 . S
O194 C178 1.261 . S
O195 Tb177 2.303 . S
O195 C178 1.257 . S
C196 O186 1.236 . S
C196 O187 1.257 . S
O197 Tb176 2.415 . S
O197 C185 1.239 . S
O198 Tb176 2.399 . S
O198 C185 1.263 . S
C199 O188 1.261 . S
C199 O189 1.257 . S
C200 C203 1.358 . S
C200 C204 1.332 . S
C200 C206 1.504 . S
C201 C202 1.373 . S
C201 C205 1.308 . S
C202 C201 1.373 . S
C202 C203 1.429 . S
C202 H212 0.932 . S
C203 C200 1.358 . S
C203 C202 1.429 . S
C203 H213 0.930 . S
C204 C200 1.332 . S
C204 C205 1.394 . S
C204 H214 0.932 . S
C205 C201 1.308 . S
C205 C204 1.394 . S
C205 H215 0.929 . S
C206 Tb177 2.764 . S
C206 O190 1.239 . S
C206 O191 1.263 . S
C206 C200 1.504 . S
C207 O192 1.236 . S
C207 O193 1.257 . S
H208 C181 0.932 . S
H209 C182 0.930 . S
H210 C183 0.932 . S
H211 C184 0.929 . S
H212 C202 0.932 . S
H213 C203 0.930 . S
H214 C204 0.932 . S
H215 C205 0.929 . S
Tb216 C225 2.764 1_455 S
Tb216 O226 2.325 1_455 S
Tb216 O229 2.303 1_456 S
Tb216 O233 2.322 1_556 S
Tb216 O234 2.349 . S
Tb216 O237 2.415 1_455 S
Tb216 O238 2.399 1_455 S
Tb217 O227 2.322 1_455 S
Tb217 O228 2.349 1_455 S
Tb217 O230 2.415 . S
Tb217 O231 2.399 . S
Tb217 O232 2.325 . S
Tb217 O235 2.303 1_554 S
Tb217 C246 2.764 . S
C218 O234 1.261 . S
C218 O235 1.257 . S
C219 C222 1.358 . S
C219 C223 1.332 . S
C219 C225 1.504 . S
C220 C221 1.373 . S
C220 C224 1.308 . S
C221 C220 1.373 . S
C221 C222 1.429 . S
C221 H248 0.932 . S
C222 C219 1.358 . S
C222 C221 1.429 . S
C222 H249 0.930 . S
C223 C219 1.332 . S
C223 C224 1.394 . S
C223 H250 0.932 . S
C224 C220 1.308 . S
C224 C223 1.394 . S
C224 H251 0.929 . S
C225 Tb216 2.764 1_655 S
C225 C219 1.504 . S
C225 O237 1.239 . S
C225 O238 1.263 . S
O226 Tb216 2.325 1_655 S
O226 C236 1.236 . S
O227 Tb217 2.322 1_655 S
O227 C236 1.257 1_554 S
O228 Tb217 2.349 1_655 S
O228 C239 1.261 . S
O229 Tb216 2.303 1_654 S
O229 C239 1.257 . S
O230 Tb217 2.415 . S
O230 C246 1.239 . S
O231 Tb217 2.399 . S
O231 C246 1.263 . S
O232 Tb217 2.325 . S
O232 C247 1.236 . S
O233 Tb216 2.322 1_554 S
O233 C247 1.257 . S
O234 Tb216 2.349 . S
O234 C218 1.261 . S
O235 Tb217 2.303 1_556 S
O235 C218 1.257 . S
C236 O226 1.236 . S
C236 O227 1.257 1_556 S
O237 Tb216 2.415 1_655 S
O237 C225 1.239 . S
O238 Tb216 2.399 1_655 S
O238 C225 1.263 . S
C239 O228 1.261 . S
C239 O229 1.257 . S
C240 C243 1.358 . S
C240 C244 1.332 . S
C240 C246 1.504 . S
C241 C242 1.373 . S
C241 C245 1.308 . S
C242 C241 1.373 . S
C242 C243 1.429 . S
C242 H252 0.932 . S
C243 C240 1.358 . S
C243 C242 1.429 . S
C243 H253 0.930 . S
C244 C240 1.332 . S
C244 C245 1.394 . S
C244 H254 0.932 . S
C245 C241 1.308 . S
C245 C244 1.394 . S
C245 H255 0.929 . S
C246 Tb217 2.764 . S
C246 O230 1.239 . S
C246 O231 1.263 . S
C246 C240 1.504 . S
C247 O232 1.236 . S
C247 O233 1.257 . S
H248 C221 0.932 . S
H249 C222 0.930 . S
H250 C223 0.932 . S
H251 C224 0.929 . S
H252 C242 0.932 . S
H253 C243 0.930 . S
H254 C244 0.932 . S
H255 C245 0.929 . S
C6 C100 0.926 . S
C18 C161 1.430 . S
C199 C28 3.982 . S
C40 C239 2.814 . S
C159 C9 1.760 . S
C127 C16 3.043 1_455 S
C236 C30 2.526 . S
C196 C42 2.171 . S
C4 C241 2.575 . S
C156 C33 3.937 . S
C45 C98 2.904 . S
C21 C201 2.140 . S
C121 C57 1.103 . S
C66 C140 1.672 . S
C76 C178 4.074 . S
C88 C218 2.640 . S
C54 C138 1.868 . S
C116 C64 3.246 1_655 S
C247 C78 2.401 . S
C207 C93 2.340 . S
C52 C220 2.650 . S
C167 C81 3.959 . S
C119 C90 2.909 . S
C69 C180 2.107 . S
