# Generated by pormake.
# Topology pyr, (3,6)-cn, num edge types: 1
# Building blocks:
#     Node 0, Type 0, BuildingBlock: VETTIZ_charged_linker_0, # of connection points: 3
#     Node 1, Type 0, BuildingBlock: VETTIZ_charged_linker_0, # of connection points: 3
#     Node 2, Type 0, BuildingBlock: VETTIZ_charged_linker_0, # of connection points: 3
#     Node 3, Type 0, BuildingBlock: VETTIZ_charged_linker_0, # of connection points: 3
#     Node 4, Type 0, BuildingBlock: VETTIZ_charged_linker_0, # of connection points: 3
#     Node 5, Type 0, BuildingBlock: VETTIZ_charged_linker_0, # of connection points: 3
#     Node 6, Type 0, BuildingBlock: VETTIZ_charged_linker_0, # of connection points: 3
#     Node 7, Type 0, BuildingBlock: VETTIZ_charged_linker_0, # of connection points: 3
#     Node 8, Type 1, BuildingBlock: PAMTUU_clean_sbu_0, # of connection points: 6
#     Node 9, Type 1, BuildingBlock: PAMTUU_clean_sbu_0, # of connection points: 6
#     Node 10, Type 1, BuildingBlock: PAMTUU_clean_sbu_0, # of connection points: 6
#     Node 11, Type 1, BuildingBlock: PAMTUU_clean_sbu_0, # of connection points: 6
#     Edge 12, Type (0, 1), None
#     Edge 13, Type (0, 1), None
#     Edge 14, Type (0, 1), None
#     Edge 15, Type (0, 1), None
#     Edge 16, Type (0, 1), None
#     Edge 17, Type (0, 1), None
#     Edge 18, Type (0, 1), None
#     Edge 19, Type (0, 1), None
#     Edge 20, Type (0, 1), None
#     Edge 21, Type (0, 1), None
#     Edge 22, Type (0, 1), None
#     Edge 23, Type (0, 1), None
#     Edge 24, Type (0, 1), None
#     Edge 25, Type (0, 1), None
#     Edge 26, Type (0, 1), None
#     Edge 27, Type (0, 1), None
#     Edge 28, Type (0, 1), None
#     Edge 29, Type (0, 1), None
#     Edge 30, Type (0, 1), None
#     Edge 31, Type (0, 1), None
#     Edge 32, Type (0, 1), None
#     Edge 33, Type (0, 1), None
#     Edge 34, Type (0, 1), None
#     Edge 35, Type (0, 1), None
# Relax obj value: 0.226
# Max RMSD: 0.171
# Mean RMSD: 0.072
data_MOF--net-pyr--node1-PAMTUU_clean_sbu_0--node2-VETTIZ_charged_linker_0--edge1-none
_symmetry_space_group_name_H-M    P1
_symmetry_Int_Tables_number       1
_symmetry_cell_setting            triclinic
loop_
_symmetry_equiv_pos_as_xyz
'x, y, z'
_cell_length_a     25.601606
_cell_length_b     25.847148
_cell_length_c     24.077029
_cell_angle_alpha  89.8208
_cell_angle_beta   89.770296
_cell_angle_gamma 103.19862
loop_
_atom_site_label
_atom_site_type_symbol
_atom_site_fract_x
_atom_site_fract_y
_atom_site_fract_z
_atom_type_partial_charge
C0 C 0.41167 0.23537 0.49826 0.0
C1 C 0.36656 0.24237 0.52825 0.0
C2 C 0.35319 0.29232 0.52533 0.0
C3 C 0.40688 0.31166 0.44226 0.0
C4 C 0.42911 0.26873 0.45268 0.0
C5 C 0.46 0.25543 0.40344 0.0
H6 H 0.45166 0.20634 0.141 0.0
C7 C 0.41285 0.32433 0.38257 0.0
C8 C 0.44703 0.29408 0.36009 0.0
H9 H 0.57422 0.18467 0.25666 0.0
H10 H 0.54893 0.24937 0.31853 0.0
H11 H 0.47731 0.33545 0.16081 0.0
H12 H 0.35573 0.2062 0.22717 0.0
H13 H 0.32566 0.25688 0.20289 0.0
H14 H 0.36121 0.22455 0.15495 0.0
H15 H 0.4181 0.30676 0.12211 0.0
H16 H 0.41932 0.35986 0.17116 0.0
C17 C 0.52032 0.26632 0.41841 0.0
C18 C 0.437 0.19666 0.38676 0.0
C19 C 0.26034 0.39261 0.29597 0.0
C20 C 0.2382 0.38843 0.24234 0.0
C21 C 0.26643 0.36976 0.19906 0.0
C22 C 0.31425 0.3536 0.2096 0.0
C23 C 0.33351 0.35446 0.26425 0.0
C24 C 0.30703 0.37449 0.30618 0.0
C25 C 0.33132 0.37003 0.36226 0.0
C26 C 0.37782 0.34469 0.34689 0.0
C27 C 0.37845 0.33537 0.28932 0.0
C28 C 0.35201 0.42669 0.38547 0.0
C29 C 0.28798 0.33377 0.39974 0.0
C30 C 0.47258 0.21445 0.18013 0.0
C31 C 0.51292 0.18791 0.19536 0.0
C32 C 0.54137 0.20243 0.24507 0.0
C33 C 0.52619 0.23866 0.28143 0.0
C34 C 0.48111 0.25858 0.26886 0.0
C35 C 0.4578 0.25015 0.21739 0.0
C36 C 0.41477 0.28088 0.20983 0.0
C37 C 0.41462 0.30648 0.26683 0.0
C38 C 0.45173 0.29034 0.30173 0.0
C39 C 0.4328 0.32279 0.16336 0.0
C40 C 0.36138 0.24038 0.1978 0.0
H41 H 0.36242 0.36482 0.47987 0.0
H42 H 0.42544 0.19906 0.50327 0.0
H43 H 0.39313 0.18942 0.37904 0.0
H44 H 0.45601 0.18521 0.34903 0.0
H45 H 0.44397 0.16891 0.41969 0.0
H46 H 0.52783 0.27658 0.46295 0.0
H47 H 0.53709 0.23091 0.411 0.0
H48 H 0.54406 0.29992 0.39372 0.0
H49 H 0.2408 0.40802 0.33007 0.0
H50 H 0.25071 0.36583 0.15724 0.0
H51 H 0.33329 0.33905 0.17513 0.0
H52 H 0.37352 0.45394 0.35269 0.0
H53 H 0.31818 0.44317 0.40085 0.0
H54 H 0.3811 0.42777 0.41951 0.0
H55 H 0.24734 0.32456 0.38096 0.0
H56 H 0.2973 0.29446 0.40736 0.0
H57 H 0.28289 0.35279 0.44001 0.0
H58 H 0.32094 0.30086 0.55031 0.0
C59 C 0.3751 0.32818 0.48301 0.0
C60 C 0.07815 0.916 0.69259 0.0
C61 C 0.04273 0.94651 0.71196 0.0
C62 C 1.02266 0.93823 0.76666 0.0
C63 C 0.08055 0.87731 0.78368 0.0
C64 C 0.09678 0.8823 0.72897 0.0
C65 C 0.13975 0.8529 0.71629 0.0
H66 H 0.32824 0.73247 0.8134 0.0
C67 C 0.11215 0.844 0.81204 0.0
C68 C 0.14596 0.82841 0.77253 0.0
H69 H 0.3118 0.7917 0.64767 0.0
H70 H 0.22648 0.80941 0.67291 0.0
H71 H 0.31634 0.79774 0.88117 0.0
H72 H 0.19424 0.67651 0.83066 0.0
H73 H 0.18437 0.68981 0.90136 0.0
H74 H 0.24897 0.68092 0.87865 0.0
H75 H 0.27571 0.76507 0.93547 0.0
H76 H 0.26587 0.82748 0.9082 0.0
C77 C 0.19125 0.89411 0.69764 0.0
C78 C 0.11784 0.80972 0.67262 0.0
C79 C 0.1585 0.87196 1.01175 0.0
C80 C 0.19968 0.85493 1.04029 0.0
C81 C 0.20597 0.80292 1.03026 0.0
C82 C 0.18406 0.77607 0.98238 0.0
C83 C 0.15647 0.80208 0.94555 0.0
C84 C 0.13753 0.84499 0.96345 0.0
C85 C 0.1056 0.8648 0.91881 0.0
C86 C 0.11819 0.83322 0.86908 0.0
C87 C 0.15073 0.79863 0.88493 0.0
C88 C 0.12738 0.92552 0.91085 0.0
C89 C 0.0453 0.84928 0.93485 0.0
C90 C 0.3069 0.75029 0.78273 0.0
C91 C 0.32787 0.76169 0.72878 0.0
C92 C 0.29708 0.7824 0.68958 0.0
C93 C 0.24767 0.79334 0.70448 0.0
C94 C 0.22927 0.78511 0.75959 0.0
C95 C 0.2585 0.76344 0.79755 0.0
C96 C 0.2332 0.75793 0.85447 0.0
C97 C 0.18535 0.78299 0.84503 0.0
C98 C 0.18326 0.79835 0.7892 0.0
C99 C 0.27448 0.78855 0.89712 0.0
C100 C 0.21435 0.69809 0.86749 0.0
H101 H 1.02568 0.89889 0.84419 0.0
H102 H 0.09393 0.92036 0.65059 0.0
H103 H 0.07593 0.7888 0.68299 0.0
H104 H 0.14097 0.77852 0.67095 0.0
H105 H 0.11763 0.82758 0.63061 0.0
H106 H 0.19015 0.93536 0.70977 0.0
H107 H 0.19661 0.89407 0.65184 0.0
H108 H 0.22798 0.8874 0.71764 0.0
H109 H 0.14966 0.90997 1.02075 0.0
H110 H 0.23403 0.7866 1.0544 0.0
H111 H 0.19332 0.73865 0.97291 0.0
H112 H 0.17176 0.93507 0.90574 0.0
H113 H 0.11723 0.94783 0.94713 0.0
H114 H 0.11101 0.94165 0.87421 0.0
H115 H 0.03718 0.81944 0.96904 0.0
H116 H 1.02008 0.83062 0.8997 0.0
H117 H 0.03066 0.88432 0.94907 0.0
H118 H 0.99473 0.96048 0.78242 0.0
C119 C 0.04082 0.90293 0.80242 0.0
C120 C 0.62605 0.23511 1.0104 0.0
C121 C 0.58002 0.19909 0.99153 0.0
C122 C 0.55207 0.2153 0.94631 0.0
C123 C 0.61658 0.30187 0.94128 0.0
C124 C 0.64283 0.28527 0.98569 0.0
C125 C 0.68937 0.32692 1.00523 0.0
H126 H 0.86535 0.56134 0.98326 0.0
C127 C 0.64597 0.35797 0.92686 0.0
C128 C 0.68835 0.37184 0.96503 0.0
H129 H 0.85737 0.43423 0.10286 0.0
H130 H 0.77683 0.38612 1.06241 0.0
H131 H 0.72721 0.55274 0.98977 0.0
H132 H 0.82264 0.48714 0.87135 0.0
H133 H 0.77908 0.522 0.8385 0.0
H134 H 0.83249 0.55768 0.88131 0.0
H135 H 0.77726 0.59482 0.94709 0.0
H136 H 0.71157 0.56567 0.92048 0.0
C137 C 0.67694 0.3415 1.06582 0.0
C138 C 0.74061 0.30471 0.99809 0.0
C139 C 0.58949 0.46152 0.76251 0.0
C140 C 0.60726 0.5141 0.74173 0.0
C141 C 0.65102 0.54751 0.76913 0.0
C142 C 0.67678 0.52924 0.81477 0.0
C143 C 0.65847 0.47689 0.83501 0.0
C144 C 0.61487 0.44414 0.80924 0.0
C145 C 0.59848 0.39077 0.83857 0.0
C146 C 0.6398 0.39611 0.88508 0.0
C147 C 0.6757 0.44697 0.88281 0.0
C148 C 0.54112 0.38476 0.86185 0.0
C149 C 0.60351 0.34666 0.79726 0.0
C150 C 0.84579 0.52309 1.00063 0.0
C151 C 0.86892 0.50144 1.0465 0.0
C152 C 0.84142 0.45211 1.06796 0.0
C153 C 0.79398 0.42385 1.04395 0.0
C154 C 0.77221 0.44455 0.99756 0.0
C155 C 0.79699 0.49399 0.97709 0.0
C156 C 0.76505 0.5096 0.92888 0.0
C157 C 0.71901 0.45994 0.9223 0.0
C158 C 0.72436 0.42245 0.96308 0.0
C159 C 0.7442 0.55852 0.947 0.0
C160 C 0.80162 0.51997 0.87705 0.0
H161 H 0.54761 0.27601 0.88657 0.0
H162 H 0.64853 0.22536 1.04542 0.0
H163 H 0.73673 0.27683 0.96241 0.0
H164 H 0.77691 0.33576 0.98821 0.0
H165 H 0.74825 0.28266 1.03571 0.0
H166 H 0.63299 0.33446 1.07366 0.0
H167 H 0.69342 0.31745 1.09659 0.0
H168 H 0.69219 0.38421 1.07503 0.0
H169 H 0.55553 0.43474 0.74362 0.0
H170 H 0.6659 0.58801 0.75483 0.0
H171 H 0.71006 0.55678 0.83283 0.0
H172 H 0.53681 0.42228 0.88194 0.0
H173 H 0.51093 0.37538 0.82816 0.0
H174 H 0.53109 0.35374 0.89418 0.0
H175 H 0.64302 0.35692 0.77562 0.0
H176 H 0.60111 0.30806 0.81795 0.0
H177 H 0.57158 0.3415 0.76528 0.0
H178 H 0.51617 0.1888 0.9307 0.0
C179 C 0.57032 0.26615 0.92086 0.0
C180 C 0.97539 0.90741 0.46929 0.0
C181 C 0.95617 0.93158 0.51587 0.0
C182 C 0.90972 0.90328 0.54321 0.0
C183 C 0.90099 0.83 0.47932 0.0
C184 C 0.94666 0.85626 0.45154 0.0
C185 C 0.95859 0.82283 0.40295 0.0
H186 H 0.89426 0.58353 0.26281 0.0
C187 C 0.87992 0.77805 0.45277 0.0
C188 C 0.91303 0.77244 0.40768 0.0
H189 H 1.02103 0.72026 0.2232 0.0
H190 H 0.99385 0.76867 0.29997 0.0
H191 H 0.89962 0.59198 0.40246 0.0
H192 H 0.80405 0.65692 0.28422 0.0
H193 H 0.76436 0.62678 0.34067 0.0
H194 H 0.79429 0.5865 0.29499 0.0
H195 H 0.85201 0.55059 0.35741 0.0
H196 H 0.83064 0.57618 0.42069 0.0
C197 C 1.01416 0.81065 0.41221 0.0
C198 C 0.95484 0.85374 0.3487 0.0
C199 C 0.71105 0.66625 0.53765 0.0
C200 C 0.67679 0.61736 0.52528 0.0
C201 C 0.69144 0.58717 0.48115 0.0
C202 C 0.73878 0.6064 0.44957 0.0
C203 C 0.77187 0.65658 0.46183 0.0
C204 C 0.75727 0.68488 0.50566 0.0
C205 C 0.79489 0.7374 0.51358 0.0
C206 C 0.8347 0.73727 0.46688 0.0
C207 C 0.82204 0.68992 0.4363 0.0
C208 C 0.82098 0.73646 0.5718 0.0
C209 C 0.7624 0.78099 0.50518 0.0
C210 C 0.91632 0.62379 0.27084 0.0
C211 C 0.96041 0.6476 0.23666 0.0
C212 C 0.98702 0.70066 0.24835 0.0
C213 C 0.97128 0.72885 0.29324 0.0
C214 C 0.9274 0.70464 0.32696 0.0
C215 C 0.9 0.65317 0.3148 0.0
C216 C 0.85179 0.6352 0.35255 0.0
C217 C 0.85581 0.68309 0.39049 0.0
C218 C 0.90081 0.72412 0.37573 0.0
C219 C 0.85846 0.58564 0.38509 0.0
C220 C 0.80068 0.6254 0.31649 0.0
H221 H 0.84777 0.8357 0.54924 0.0
H222 H 1.01135 0.92763 0.44746 0.0
H223 H 0.91947 0.87196 0.34998 0.0
H224 H 0.94919 0.82801 0.31175 0.0
H225 H 0.99124 0.88618 0.34261 0.0
H226 H 1.01728 0.79611 0.45533 0.0
H227 H 0.0466 0.84694 0.40597 0.0
H228 H 1.02179 0.77933 0.38445 0.0
H229 H 0.70162 0.69076 0.57096 0.0
H230 H 0.66601 0.54898 0.47053 0.0
H231 H 0.74758 0.58181 0.41655 0.0
H232 H 0.82277 0.69542 0.58442 0.0
H233 H 0.7979 0.75209 0.60436 0.0
H234 H 0.86333 0.75883 0.57284 0.0
H235 H 0.72761 0.76729 0.47707 0.0
H236 H 0.786 0.81723 0.4846 0.0
H237 H 0.74638 0.79214 0.54525 0.0
H238 H 0.89456 0.91879 0.5801 0.0
C239 C 0.88243 0.85361 0.52539 0.0
C240 C 0.77619 0.74327 0.95858 0.0
C241 C 0.8076 0.71606 0.92651 0.0
C242 C 0.78812 0.69561 0.87431 0.0
C243 C 0.71638 0.74175 0.8809 0.0
C244 C 0.73021 0.75519 0.93494 0.0
C245 C 0.6921 0.78498 0.96106 0.0
H246 H 0.53293 0.95527 0.92423 0.0
C247 C 0.67413 0.76836 0.86395 0.0
C248 C 0.65679 0.79115 0.91136 0.0
H249 H 0.58364 0.89687 1.0785 0.0
H250 H 0.61628 0.82934 1.02893 0.0
H251 H 0.49219 0.82783 0.86538 0.0
H252 H 0.60896 0.96865 0.85796 0.0
H253 H 0.64141 0.93228 0.81268 0.0
H254 H 0.57725 0.94591 0.79491 0.0
H255 H 0.49134 0.89424 0.84316 0.0
H256 H 0.50939 0.84792 0.79602 0.0
C257 C 0.65993 0.75002 1.00779 0.0
C258 C 0.72538 0.83916 0.98165 0.0
C259 C 0.69965 0.85647 0.67831 0.0
C260 C 0.68213 0.90201 0.66238 0.0
C261 C 0.63047 0.90636 0.67881 0.0
C262 C 0.60306 0.87312 0.72063 0.0
C263 C 0.62903 0.83778 0.74721 0.0
C264 C 0.67357 0.82565 0.72267 0.0
C265 C 0.69682 0.78814 0.75778 0.0
C266 C 0.66238 0.78553 0.81037 0.0
C267 C 0.62447 0.81706 0.80453 0.0
C268 C 0.68856 0.73388 0.7277 0.0
C269 C 0.75694 0.81388 0.76859 0.0
C270 C 0.55062 0.92755 0.94726 0.0
C271 C 0.55689 0.93216 1.00497 0.0
C272 C 0.57946 0.89491 1.03373 0.0
C273 C 0.59881 0.85604 1.00507 0.0
C274 C 0.5973 0.8554 0.94693 0.0
C275 C 0.57179 0.88931 0.91902 0.0
C276 C 0.57214 0.8812 0.85726 0.0
C277 C 0.60331 0.83719 0.85273 0.0
C278 C 0.61904 0.8236 0.90578 0.0
C279 C 0.51315 0.86185 0.83916 0.0
C280 C 0.60133 0.93438 0.82903 0.0
H281 H 0.72711 0.69075 0.81263 0.0
H282 H 0.7886 0.7573 0.99983 0.0
H283 H 0.75075 0.8606 0.94739 0.0
H284 H 0.70045 0.86567 0.99692 0.0
H285 H 0.75219 0.83357 1.01621 0.0
H286 H 0.66389 0.70809 1.00568 0.0
H287 H 0.67381 0.76517 1.04959 0.0
H288 H 0.61624 0.74778 1.00454 0.0
H289 H 0.738 0.85087 0.6638 0.0
H290 H 0.6146 0.93952 0.66469 0.0
H291 H 0.56527 0.8794 0.7343 0.0
H292 H 0.67503 0.73596 0.68405 0.0
H293 H 0.72648 0.72002 0.72512 0.0
H294 H 0.65779 0.70274 0.749 0.0
H295 H 0.76162 0.85447 0.78605 0.0
H296 H 0.77613 0.7911 0.79755 0.0
H297 H 0.78091 0.81668 0.72974 0.0
H298 H 0.80956 0.67163 0.85035 0.0
C299 C 0.74151 0.70716 0.85207 0.0
C300 C 0.96985 0.21992 0.51822 0.0
C301 C 1.00563 0.18922 0.50027 0.0
C302 C 1.02595 0.19602 0.44561 0.0
C303 C 0.96871 0.25684 0.42605 0.0
C304 C 0.95188 0.25309 0.48059 0.0
C305 C 0.90956 0.2837 0.49172 0.0
H306 H 0.72599 0.40753 0.38869 0.0
C307 C 0.93825 0.29025 0.39628 0.0
C308 C 0.90447 0.30733 0.4347 0.0
H309 H 0.73967 0.34982 0.55574 0.0
H310 H 0.82408 0.32988 0.53209 0.0
H311 H 0.73676 0.33934 0.32311 0.0
H312 H 0.86189 0.46002 0.37071 0.0
H313 H 0.8704 0.44425 0.30033 0.0
H314 H 0.80699 0.45608 0.32312 0.0
H315 H 0.77764 0.37089 0.26835 0.0
H316 H 0.78661 0.30855 0.29654 0.0
C317 C 0.85731 0.24365 0.51049 0.0
C318 C 0.93181 0.32748 0.53468 0.0
C319 C 0.89974 0.26095 0.19439 0.0
C320 C 0.86036 0.27761 0.1627 0.0
C321 C 0.85137 0.32865 0.1729 0.0
C322 C 0.8698 0.35519 0.22216 0.0
C323 C 0.89627 0.32967 0.26067 0.0
C324 C 0.91642 0.28702 0.24426 0.0
C325 C 0.94606 0.26688 0.29048 0.0
C326 C 0.93319 0.29992 0.33886 0.0
C327 C 0.90116 0.33445 0.32132 0.0
C328 C 0.92181 0.20668 0.29944 0.0
C329 C 1.00669 0.27956 0.27585 0.0
C330 C 0.7466 0.38973 0.42004 0.0
C331 C 0.72506 0.3796 0.47399 0.0
C332 C 0.75485 0.3585 0.5139 0.0
C333 C 0.80377 0.34617 0.49993 0.0
C334 C 0.82275 0.35323 0.445 0.0
C335 C 0.79459 0.37516 0.40615 0.0
C336 C 0.8202 0.37856 0.34936 0.0
C337 C 0.86689 0.35209 0.36017 0.0
C338 C 0.86822 0.33797 0.41648 0.0
C339 C 0.77859 0.34784 0.30708 0.0
C340 C 0.84083 0.4379 0.33464 0.0
H341 H 1.02371 0.2333 0.36709 0.0
H342 H 0.9537 0.21636 0.56007 0.0
H343 H 0.97415 0.34728 0.52468 0.0
H344 H 0.90964 0.35949 0.53498 0.0
H345 H 0.93098 0.31041 0.57717 0.0
H346 H 0.85775 0.20198 0.49945 0.0
H347 H 0.85146 0.24471 0.55617 0.0
H348 H 0.82111 0.2507 0.48964 0.0
H349 H 0.91039 0.22364 0.18594 0.0
H350 H 0.82434 0.34456 0.14686 0.0
H351 H 0.85936 0.39222 0.23079 0.0
H352 H 0.87742 0.19896 0.3038 0.0
H353 H 0.93139 0.18302 0.26401 0.0
H354 H 0.93697 0.19063 0.33692 0.0
H355 H 1.01633 0.30548 0.2385 0.0
H356 H 0.03133 0.3011 0.30999 0.0
H357 H 1.02074 0.24283 0.26684 0.0
H358 H 0.05411 0.17354 0.43093 0.0
C359 C 1.00816 0.23039 0.4086 0.0
C360 C 0.46716 0.6736 0.44385 0.0
C361 C 0.44648 0.62263 0.46758 0.0
C362 C 0.40036 0.59063 0.44251 0.0
C363 C 0.3963 0.65958 0.37333 0.0
C364 C 0.44213 0.69086 0.39681 0.0
C365 C 0.46099 0.74257 0.36497 0.0
H366 H 0.41676 0.90513 0.15303 0.0
C367 C 0.37998 0.68907 0.32466 0.0
C368 C 0.4186 0.73808 0.31964 0.0
H369 H 0.55286 0.93791 0.26326 0.0
H370 H 0.51747 0.85333 0.31136 0.0
H371 H 0.33006 0.86377 0.23986 0.0
H372 H 0.42266 0.79176 0.12895 0.0
H373 H 0.36024 0.74667 0.13059 0.0
H374 H 0.36466 0.81394 0.10687 0.0
H375 H 0.31443 0.8542 0.16763 0.0
H376 H 0.28522 0.80533 0.21939 0.0
C377 C 0.46039 0.78929 0.40449 0.0
C378 C 0.51699 0.74376 0.34025 0.0
C379 C 0.20536 0.61741 0.21165 0.0
C380 C 0.18224 0.63959 0.16609 0.0
C381 C 0.21079 0.68825 0.14397 0.0
C382 C 0.25959 0.71501 0.16642 0.0
C383 C 0.28161 0.69368 0.21222 0.0
C384 C 0.25529 0.6453 0.23405 0.0
C385 C 0.28693 0.62949 0.28247 0.0
C386 C 0.33535 0.67729 0.2866 0.0
C387 C 0.33109 0.71427 0.24489 0.0
C388 C 0.25142 0.6234 0.33506 0.0
C389 C 0.30423 0.57805 0.2664 0.0
C390 C 0.4394 0.89512 0.18778 0.0
C391 C 0.48761 0.92931 0.20424 0.0
C392 C 0.51538 0.91281 0.24941 0.0
C393 C 0.4948 0.86349 0.2772 0.0
C394 C 0.44624 0.82967 0.25926 0.0
C395 C 0.42021 0.84651 0.21485 0.0
C396 C 0.37072 0.80702 0.19833 0.0
C397 C 0.36989 0.76299 0.24017 0.0
C398 C 0.4138 0.77553 0.27664 0.0
C399 C 0.32244 0.83364 0.20616 0.0
C400 C 0.37943 0.78895 0.13802 0.0
H401 H 0.34021 0.58234 0.37996 0.0
H402 H 0.50289 0.69926 0.46086 0.0
H403 H 0.51802 0.70462 0.32172 0.0
H404 H 0.52795 0.77311 0.3064 0.0
H405 H 0.54835 0.75264 0.37283 0.0
H406 H 0.42162 0.78243 0.42747 0.0
H407 H 0.49318 0.79372 0.43545 0.0
H408 H 0.46462 0.82735 0.38217 0.0
H409 H 0.18484 0.57986 0.22982 0.0
H410 H 0.19502 0.70645 0.10922 0.0
H411 H 0.27777 0.75201 0.14703 0.0
H412 H 0.23318 0.6583 0.33973 0.0
H413 H 0.21836 0.58718 0.33259 0.0
H414 H 0.27422 0.62121 0.3734 0.0
H415 H 0.31941 0.58065 0.22289 0.0
H416 H 0.33732 0.5708 0.29223 0.0
H417 H 0.26986 0.54299 0.26945 0.0
H418 H 0.38322 0.55135 0.45898 0.0
C419 C 0.37522 0.60877 0.39632 0.0
C420 C 0.07532 0.23173 0.74576 0.0
C421 C 0.09516 0.20665 0.7002 0.0
C422 C 0.14308 0.23378 0.67442 0.0
C423 C 0.15134 0.30791 0.73696 0.0
C424 C 0.10457 0.28272 0.76361 0.0
C425 C 0.09209 0.31717 0.81104 0.0
H426 H 0.15769 0.55701 0.94993 0.0
C427 C 0.17242 0.3602 0.76276 0.0
C428 C 0.13842 0.36698 0.80659 0.0
H429 H 0.02786 0.42209 0.98696 0.0
H430 H 0.05544 0.37313 0.91121 0.0
H431 H 0.15217 0.54617 0.80811 0.0
H432 H 0.24794 0.48385 0.9286 0.0
H433 H 0.28737 0.51486 0.87224 0.0
H434 H 0.25641 0.55418 0.91794 0.0
H435 H 0.19756 0.5884 0.85442 0.0
H436 H 0.22169 0.56358 0.79211 0.0
C437 C 0.03718 0.33014 0.79975 0.0
C438 C 0.09405 0.28683 0.86606 0.0
C439 C 0.3424 0.46996 0.67789 0.0
C440 C 0.37589 0.51976 0.68824 0.0
C441 C 0.3606 0.5512 0.73087 0.0
C442 C 0.31341 0.53235 0.76293 0.0
C443 C 0.28088 0.48145 0.75241 0.0
C444 C 0.29609 0.45196 0.70996 0.0
C445 C 0.2586 0.39923 0.70299 0.0
C446 C 0.21808 0.40053 0.74868 0.0
C447 C 0.23042 0.44859 0.7781 0.0
C448 C 0.23339 0.39857 0.64413 0.0
C449 C 0.29096 0.35593 0.71377 0.0
C450 C 0.13507 0.51703 0.9416 0.0
C451 C 0.09006 0.49394 0.97496 0.0
C452 C 0.06261 0.44125 0.96261 0.0
C453 C 0.07863 0.41264 0.91831 0.0
C454 C 0.12351 0.43601 0.8856 0.0
C455 C 0.15142 0.48725 0.89794 0.0
C456 C 0.1998 0.50469 0.86026 0.0
C457 C 0.19604 0.45632 0.82308 0.0
C458 C 0.15052 0.41579 0.83766 0.0
C459 C 0.19287 0.55353 0.82678 0.0
C460 C 0.25082 0.51535 0.8964 0.0
H461 H 0.2065 0.30006 0.66961 0.0
H462 H 0.03841 0.21248 0.76657 0.0
H463 H 0.12876 0.26761 0.86608 0.0
H464 H 0.09972 0.31311 0.90259 0.0
H465 H 0.05696 0.25519 0.87197 0.0
H466 H 0.03518 0.34368 0.75608 0.0
H467 H 1.00409 0.29445 0.80628 0.0
H468 H 0.02964 0.36246 0.82615 0.0
H469 H 0.35215 0.44455 0.64562 0.0
H470 H 0.38551 0.59003 0.74008 0.0
H471 H 0.30428 0.55783 0.79492 0.0
H472 H 0.23213 0.43927 0.62983 0.0
H473 H 0.25673 0.3817 0.61279 0.0
H474 H 0.19095 0.37648 0.64292 0.0
H475 H 0.32521 0.3704 0.74236 0.0
H476 H 0.26697 0.3202 0.73493 0.0
H477 H 0.30772 0.3438 0.67456 0.0
H478 H 0.15927 0.21765 0.63857 0.0
C479 C 0.17083 0.28317 0.69237 0.0
Tb480 Tb 0.08359 0.06862 0.57853 0.0
Tb481 Tb 0.96691 0.07094 0.6358 0.0
C482 C 0.98332 0.98397 0.5404 0.0
C483 C 0.23055 0.11297 0.55289 0.0
C484 C 0.3243 0.19455 0.54337 0.0
C485 C 0.3148 0.15051 0.50718 0.0
C486 C 0.26848 0.11034 0.51193 0.0
C487 C 0.24087 0.15488 0.59134 0.0
C488 C 0.28731 0.19561 0.58646 0.0
C489 C 0.18001 0.07247 0.55339 0.0
O490 O 0.04875 0.11697 0.52195 0.0
O491 O 0.99329 0.14198 0.58607 0.0
O492 O 1.01698 0.13298 0.68571 0.0
O493 O 0.09487 0.1355 0.63634 0.0
O494 O 0.89398 0.08727 0.61172 0.0
O495 O 0.90385 1.0582 0.69438 0.0
O496 O 0.99844 1.01848 0.69091 0.0
O497 O 0.06002 0.99854 0.62983 0.0
O498 O 0.03474 1.00338 0.53227 0.0
O499 O 0.95486 1.00526 0.57606 0.0
C500 C 1.01721 0.14772 0.53763 0.0
O501 O 0.15917 1.05868 0.6022 0.0
O502 O 0.14394 0.07862 0.51728 0.0
C503 C 0.06762 0.15454 0.67499 0.0
C504 C 0.819 1.03052 0.65209 0.0
C505 C 0.72379 0.95055 0.64924 0.0
C506 C 0.72808 0.99515 0.68394 0.0
C507 C 0.7754 1.03462 0.68549 0.0
C508 C 0.81353 0.98847 0.61414 0.0
C509 C 0.76638 0.94854 0.61291 0.0
C510 C 0.87021 0.06951 0.65817 0.0
C511 C 0.03223 0.98964 0.67599 0.0
H512 H 0.34124 0.14841 0.47249 0.0
H513 H 0.26134 0.07813 0.48217 0.0
H514 H 0.21243 0.15676 0.62416 0.0
H515 H 0.29326 0.2287 0.61503 0.0
H516 H 0.69659 0.99753 0.71335 0.0
H517 H 0.77872 0.06715 0.71452 0.0
H518 H 0.84638 0.9856 0.58688 0.0
H519 H 0.76437 0.91464 0.58598 0.0
Tb520 Tb 0.59664 0.07104 0.11927 0.0
Tb521 Tb 0.47396 1.05434 1.07251 0.0
C522 C 0.54704 0.97878 1.035 0.0
C523 C 0.73689 0.14195 0.13013 0.0
C524 C 0.81758 0.23594 0.13685 0.0
C525 C 0.82935 0.18902 0.11588 0.0
C526 C 0.78934 0.14215 0.1133 0.0
C527 C 0.72352 0.18997 0.1438 0.0
C528 C 0.76346 0.23649 0.14741 0.0
C529 C 0.69628 0.09182 0.13349 0.0
O530 O 0.59522 0.1349 1.05905 0.0
O531 O 0.51266 0.11845 1.01674 0.0
O532 O 0.4909 0.12811 0.11901 0.0
O533 O 0.56228 0.12109 0.17367 0.0
O534 O 0.40933 1.03614 1.01711 0.0
O535 O 0.39709 1.05263 0.10376 0.0
O536 O 0.47399 0.99229 0.13493 0.0
O537 O 0.5574 1.00723 0.17556 0.0
O538 O 0.57923 0.99591 1.07631 0.0
O539 O 0.50855 1.00188 1.02011 0.0
C540 C 0.56178 0.14718 1.0223 0.0
O541 O 0.66156 0.0876 0.17424 0.0
O542 O 0.67349 0.07543 1.08643 0.0
C543 C 0.52307 0.14387 0.16089 0.0
C544 C 0.33147 0.98663 1.06224 0.0
C545 C 0.24591 0.89609 1.06139 0.0
C546 C 0.2383 0.94484 1.0819 0.0
C547 C 0.28067 0.98989 1.08166 0.0
C548 C 0.34088 0.93699 1.04828 0.0
C549 C 0.29856 0.89223 1.04757 0.0
C550 C 0.37434 1.035 1.05711 0.0
C551 C 0.50749 0.97982 0.17147 0.0
H552 H 0.87017 0.18742 0.10566 0.0
H553 H 0.79984 0.10564 1.10056 0.0
H554 H 0.68268 0.19098 0.15488 0.0
H555 H 0.75214 0.27142 0.16356 0.0
H556 H 0.19889 0.94914 1.09452 0.0
H557 H 0.27325 1.0277 1.09459 0.0
H558 H 0.38038 0.93325 1.03511 0.0
H559 H 0.3068 0.85586 1.03146 0.0
Tb560 Tb 0.516 0.51061 0.57599 0.0
Tb561 Tb 0.53563 0.62709 0.63353 0.0
C562 C 0.47303 0.6026 0.51723 0.0
C563 C 0.56941 0.4079 0.51577 0.0
C564 C 0.6713 0.38945 0.48828 0.0
C565 C 0.62985 0.38206 0.44864 0.0
C566 C 0.57969 0.39184 0.46214 0.0
C567 C 0.61048 0.41493 0.55554 0.0
C568 C 0.66074 0.40598 0.54195 0.0
C569 C 0.51969 0.42575 0.52759 0.0
O570 O 0.59137 0.55648 0.5412 0.0
O571 O 0.61364 0.63063 0.59626 0.0
O572 O 0.58152 0.58567 0.68855 0.0
O573 O 0.55487 0.50021 0.65577 0.0
O574 O 0.54607 0.70997 0.62553 0.0
O575 O 0.53521 0.67223 0.70592 0.0
O576 O 0.45658 0.58488 0.66345 0.0
O577 O 0.44207 0.50218 0.62305 0.0
O578 O 0.4639 0.55122 0.52796 0.0
O579 O 0.50581 0.63688 0.54886 0.0
C580 C 0.62512 0.60017 0.55652 0.0
O581 O 0.50644 0.4276 0.57978 0.0
O582 O 0.51585 0.46872 0.50119 0.0
C583 C 0.57996 0.53439 0.69287 0.0
C584 C 0.4837 0.73397 0.6875 0.0
C585 C 0.382 0.75321 0.71403 0.0
C586 C 0.42358 0.76171 0.75352 0.0
C587 C 0.47369 0.75174 0.74047 0.0
C588 C 0.44273 0.7265 0.64755 0.0
C589 C 0.39254 0.73604 0.66064 0.0
C590 C 0.53266 0.71437 0.67731 0.0
C591 C 0.42726 0.53666 0.65623 0.0
H592 H 0.63599 0.36873 0.40706 0.0
H593 H 0.5492 0.38795 0.43038 0.0
H594 H 0.6045 0.42916 0.59682 0.0
H595 H 0.69169 0.41346 0.57332 0.0
H596 H 0.41735 0.77562 0.79484 0.0
H597 H 0.50414 0.75618 0.77234 0.0
H598 H 0.44864 0.71116 0.60675 0.0
H599 H 0.36148 0.72806 0.62938 0.0
Tb600 Tb 0.02941 0.62173 1.06468 0.0
Tb601 Tb 1.02149 0.51893 0.14577 0.0
C602 C 0.07085 0.52324 1.0224 0.0
C603 C 0.96461 0.70477 0.98273 0.0
C604 C 0.86145 0.71126 0.94593 0.0
C605 C 0.90563 0.72125 0.90916 0.0
C606 C 0.95668 0.71795 0.92739 0.0
C607 C 0.92053 0.69476 1.01953 0.0
C608 C 0.86962 0.69831 1.00142 0.0
C609 C 1.01662 0.69465 1.00033 0.0
O610 O 0.95269 0.56792 1.04466 0.0
O611 O 0.93955 0.50595 0.11506 0.0
O612 O 0.97807 0.56707 0.19489 0.0
O613 O 1.00065 0.64527 0.14512 0.0
O614 O 1.01388 0.43649 0.1543 0.0
O615 O 0.03304 0.48836 0.22468 0.0
O616 O 0.10201 0.56825 0.16059 0.0
O617 O 0.10779 0.64161 0.1042 0.0
O618 O 0.07984 0.57546 1.02225 0.0
O619 O 0.04212 0.49526 1.06227 0.0
C620 C 0.92255 0.52717 1.07069 0.0
O621 O 0.02862 0.70228 1.05267 0.0
O622 O 1.02578 0.64993 0.983 0.0
C623 C 0.97973 0.61814 0.18955 0.0
C624 C 0.08386 0.42473 0.2129 0.0
C625 C 0.185 0.40129 0.23223 0.0
C626 C 0.14415 0.39049 0.27304 0.0
C627 C 0.09443 0.40288 0.26371 0.0
C628 C 0.12434 0.43561 0.17208 0.0
C629 C 0.17432 0.42412 0.18164 0.0
C630 C 0.03333 0.44181 0.20445 0.0
C631 C 0.12807 0.61493 0.14216 0.0
H632 H 0.90079 0.73199 0.86628 0.0
H633 H 0.98979 0.72484 0.89807 0.0
H634 H 0.92514 0.68299 1.06213 0.0
H635 H 0.83641 0.68982 1.03059 0.0
H636 H 0.15034 0.37225 0.31226 0.0
H637 H 0.06435 0.39584 0.29633 0.0
H638 H 0.11776 0.45415 0.13311 0.0
H639 H 0.20486 0.43417 0.14969 0.0
loop_
_geom_bond_atom_site_label_1
_geom_bond_atom_site_label_2
_geom_bond_distance
_geom_bond_site_symmetry_2
_ccdc_geom_bond_type
C0 C1 1.391 . S
C0 C4 1.391 . S
C0 H42 0.948 . S
C1 C0 1.391 . S
C1 C2 1.391 . S
C2 C1 1.391 . S
C2 H58 0.947 . S
C2 C59 1.392 . S
C3 C4 1.391 . S
C3 C7 1.397 . S
C3 C59 1.419 . S
C4 C0 1.391 . S
C4 C3 1.391 . S
C4 C5 1.399 . S
C5 C4 1.399 . S
C5 C8 1.396 . S
C5 C17 1.453 . S
C5 C18 1.684 . S
H6 C30 0.948 . S
C7 C3 1.397 . S
C7 C8 1.394 . S
C7 C26 1.723 . S
C8 C5 1.396 . S
C8 C7 1.394 . S
C8 C38 1.723 . S
H9 C32 0.947 . S
H10 C33 0.948 . S
H11 C39 0.982 . S
H12 C40 0.979 . S
H13 C40 0.980 . S
H14 C40 0.983 1_556 S
H15 C39 0.979 . S
H16 C39 0.977 . S
C17 C5 1.453 . S
C17 H46 0.982 . S
C17 H47 0.979 . S
C17 H48 0.977 . S
C18 C5 1.684 . S
C18 H43 0.979 . S
C18 H44 0.980 . S
C18 H45 0.983 . S
C19 C20 1.391 . S
C19 C24 1.391 . S
C19 H49 0.948 . S
C20 C19 1.391 . S
C20 C21 1.391 . S
C21 C20 1.391 . S
C21 C22 1.392 . S
C21 H50 0.947 . S
C22 C21 1.392 . S
C22 C23 1.419 . S
C22 H51 0.948 . S
C23 C22 1.419 . S
C23 C24 1.391 . S
C23 C27 1.397 . S
C24 C19 1.391 . S
C24 C23 1.391 . S
C24 C25 1.399 . S
C25 C24 1.399 . S
C25 C26 1.396 . S
C25 C28 1.453 . S
C25 C29 1.684 . S
C26 C7 1.723 . S
C26 C25 1.396 . S
C26 C27 1.394 . S
C27 C23 1.397 . S
C27 C26 1.394 . S
C27 C37 1.723 . S
C28 C25 1.453 . S
C28 H52 0.982 . S
C28 H53 0.979 . S
C28 H54 0.977 . S
C29 C25 1.684 . S
C29 H55 0.979 . S
C29 H56 0.980 . S
C29 H57 0.983 . S
C30 H6 0.948 . S
C30 C31 1.391 . S
C30 C35 1.391 . S
C31 C30 1.391 . S
C31 C32 1.391 . S
C32 H9 0.947 . S
C32 C31 1.391 . S
C32 C33 1.392 . S
C33 H10 0.948 . S
C33 C32 1.392 . S
C33 C34 1.419 . S
C34 C33 1.419 . S
C34 C35 1.391 . S
C34 C38 1.397 . S
C35 C30 1.391 . S
C35 C34 1.391 . S
C35 C36 1.399 . S
C36 C35 1.399 . S
C36 C37 1.396 . S
C36 C39 1.453 . S
C36 C40 1.684 . S
C37 C27 1.723 . S
C37 C36 1.396 . S
C37 C38 1.394 . S
C38 C8 1.723 . S
C38 C34 1.397 . S
C38 C37 1.394 . S
C39 H11 0.982 . S
C39 H15 0.979 . S
C39 H16 0.977 . S
C39 C36 1.453 . S
C40 H12 0.979 . S
C40 H13 0.980 . S
C40 H14 0.983 1_554 S
C40 C36 1.684 . S
H41 C59 0.948 . S
H42 C0 0.948 . S
H43 C18 0.979 . S
H44 C18 0.980 . S
H45 C18 0.983 . S
H46 C17 0.982 . S
H47 C17 0.979 . S
H48 C17 0.977 . S
H49 C19 0.948 . S
H50 C21 0.947 . S
H51 C22 0.948 . S
H52 C28 0.982 . S
H53 C28 0.979 . S
H54 C28 0.977 . S
H55 C29 0.979 . S
H56 C29 0.980 . S
H57 C29 0.983 . S
H58 C2 0.947 . S
C59 C2 1.392 . S
C59 C3 1.419 . S
C59 H41 0.948 . S
C60 C61 1.391 . S
C60 C64 1.391 . S
C60 H102 0.948 . S
C61 C60 1.391 . S
C61 C62 1.391 . S
C62 C61 1.391 . S
C62 H118 0.947 . S
C62 C119 1.392 . S
C63 C64 1.391 1_455 S
C63 C67 1.397 . S
C63 C119 1.419 1_455 S
C64 C60 1.391 . S
C64 C63 1.391 1_655 S
C64 C65 1.399 1_655 S
C65 C64 1.399 1_455 S
C65 C68 1.396 . S
C65 C77 1.453 . S
C65 C78 1.684 1_455 S
H66 C90 0.948 . S
C67 C63 1.397 . S
C67 C68 1.394 . S
C67 C86 1.723 . S
C68 C65 1.396 . S
C68 C67 1.394 . S
C68 C98 1.723 . S
H69 C92 0.947 . S
H70 C93 0.948 . S
H71 C99 0.982 . S
H72 C100 0.979 . S
H73 C100 0.980 . S
H74 C100 0.983 . S
H75 C99 0.979 . S
H76 C99 0.977 . S
C77 C65 1.453 . S
C77 H106 0.982 . S
C77 H107 0.979 . S
C77 H108 0.977 . S
C78 C65 1.684 1_655 S
C78 H103 0.979 . S
C78 H104 0.980 1_655 S
C78 H105 0.983 . S
C79 C80 1.391 . S
C79 C84 1.391 . S
C79 H109 0.948 . S
C80 C79 1.391 . S
C80 C81 1.391 . S
C81 C80 1.391 . S
C81 C82 1.392 . S
C81 H110 0.947 . S
C82 C81 1.392 . S
C82 C83 1.419 . S
C82 H111 0.948 . S
C83 C82 1.419 . S
C83 C84 1.391 . S
C83 C87 1.397 . S
C84 C79 1.391 . S
C84 C83 1.391 . S
C84 C85 1.399 . S
C85 C84 1.399 . S
C85 C86 1.396 . S
C85 C88 1.453 . S
C85 C89 1.684 . S
C86 C67 1.723 . S
C86 C85 1.396 . S
C86 C87 1.394 . S
C87 C83 1.397 . S
C87 C86 1.394 . S
C87 C97 1.723 . S
C88 C85 1.453 . S
C88 H112 0.982 . S
C88 H113 0.979 . S
C88 H114 0.977 . S
C89 C85 1.684 . S
C89 H115 0.979 . S
C89 H116 0.980 . S
C89 H117 0.983 . S
C90 H66 0.948 . S
C90 C91 1.391 . S
C90 C95 1.391 . S
C91 C90 1.391 . S
C91 C92 1.391 . S
C92 H69 0.947 . S
C92 C91 1.391 . S
C92 C93 1.392 . S
C93 H70 0.948 . S
C93 C92 1.392 . S
C93 C94 1.419 . S
C94 C93 1.419 . S
C94 C95 1.391 . S
C94 C98 1.397 . S
C95 C90 1.391 . S
C95 C94 1.391 . S
C95 C96 1.399 . S
C96 C95 1.399 . S
C96 C97 1.396 . S
C96 C99 1.453 . S
C96 C100 1.684 . S
C97 C87 1.723 . S
C97 C96 1.396 . S
C97 C98 1.394 . S
C98 C68 1.723 . S
C98 C94 1.397 . S
C98 C97 1.394 . S
C99 H71 0.982 . S
C99 H75 0.979 . S
C99 H76 0.977 . S
C99 C96 1.453 . S
C100 H72 0.979 . S
C100 H73 0.980 . S
C100 H74 0.983 . S
C100 C96 1.684 . S
H101 C119 0.948 1_455 S
H102 C60 0.948 . S
H103 C78 0.979 . S
H104 C78 0.980 1_455 S
H105 C78 0.983 . S
H106 C77 0.982 . S
H107 C77 0.979 . S
H108 C77 0.977 . S
H109 C79 0.948 . S
H110 C81 0.947 . S
H111 C82 0.948 . S
H112 C88 0.982 . S
H113 C88 0.979 . S
H114 C88 0.977 . S
H115 C89 0.979 . S
H116 C89 0.980 . S
H117 C89 0.983 . S
H118 C62 0.947 . S
C119 C62 1.392 . S
C119 C63 1.419 1_655 S
C119 H101 0.948 1_655 S
C120 C121 1.391 . S
C120 C124 1.391 . S
C120 H162 0.948 . S
C121 C120 1.391 . S
C121 C122 1.391 . S
C122 C121 1.391 . S
C122 H178 0.947 . S
C122 C179 1.392 . S
C123 C124 1.391 . S
C123 C127 1.397 . S
C123 C179 1.419 . S
C124 C120 1.391 . S
C124 C123 1.391 . S
C124 C125 1.399 . S
C125 C124 1.399 . S
C125 C128 1.396 . S
C125 C137 1.453 . S
C125 C138 1.684 . S
H126 C150 0.948 . S
C127 C123 1.397 . S
C127 C128 1.394 . S
C127 C146 1.723 . S
C128 C125 1.396 . S
C128 C127 1.394 . S
C128 C158 1.723 . S
H129 C152 0.947 . S
H130 C153 0.948 . S
H131 C159 0.982 . S
H132 C160 0.979 . S
H133 C160 0.980 . S
H134 C160 0.983 . S
H135 C159 0.979 . S
H136 C159 0.977 . S
C137 C125 1.453 . S
C137 H166 0.982 . S
C137 H167 0.979 . S
C137 H168 0.977 . S
C138 C125 1.684 . S
C138 H163 0.979 . S
C138 H164 0.980 . S
C138 H165 0.983 . S
C139 C140 1.391 . S
C139 C144 1.391 . S
C139 H169 0.948 . S
C140 C139 1.391 . S
C140 C141 1.391 . S
C141 C140 1.391 . S
C141 C142 1.392 . S
C141 H170 0.947 . S
C142 C141 1.392 . S
C142 C143 1.419 . S
C142 H171 0.948 . S
C143 C142 1.419 . S
C143 C144 1.391 . S
C143 C147 1.397 . S
C144 C139 1.391 . S
C144 C143 1.391 . S
C144 C145 1.399 . S
C145 C144 1.399 . S
C145 C146 1.396 . S
C145 C148 1.453 . S
C145 C149 1.684 . S
C146 C127 1.723 . S
C146 C145 1.396 . S
C146 C147 1.394 . S
C147 C143 1.397 . S
C147 C146 1.394 . S
C147 C157 1.723 . S
C148 C145 1.453 . S
C148 H172 0.982 . S
C148 H173 0.979 . S
C148 H174 0.977 . S
C149 C145 1.684 . S
C149 H175 0.979 . S
C149 H176 0.980 . S
C149 H177 0.983 . S
C150 H126 0.948 . S
C150 C151 1.391 . S
C150 C155 1.391 . S
C151 C150 1.391 . S
C151 C152 1.391 . S
C152 H129 0.947 . S
C152 C151 1.391 . S
C152 C153 1.392 . S
C153 H130 0.948 . S
C153 C152 1.392 . S
C153 C154 1.419 . S
C154 C153 1.419 . S
C154 C155 1.391 . S
C154 C158 1.397 . S
C155 C150 1.391 . S
C155 C154 1.391 . S
C155 C156 1.399 . S
C156 C155 1.399 . S
C156 C157 1.396 . S
C156 C159 1.453 . S
C156 C160 1.684 . S
C157 C147 1.723 . S
C157 C156 1.396 . S
C157 C158 1.394 . S
C158 C128 1.723 . S
C158 C154 1.397 . S
C158 C157 1.394 . S
C159 H131 0.982 . S
C159 H135 0.979 . S
C159 H136 0.977 . S
C159 C156 1.453 . S
C160 H132 0.979 . S
C160 H133 0.980 . S
C160 H134 0.983 . S
C160 C156 1.684 . S
H161 C179 0.948 . S
H162 C120 0.948 . S
H163 C138 0.979 . S
H164 C138 0.980 . S
H165 C138 0.983 . S
H166 C137 0.982 . S
H167 C137 0.979 . S
H168 C137 0.977 . S
H169 C139 0.948 . S
H170 C141 0.947 . S
H171 C142 0.948 . S
H172 C148 0.982 . S
H173 C148 0.979 . S
H174 C148 0.977 . S
H175 C149 0.979 . S
H176 C149 0.980 . S
H177 C149 0.983 . S
H178 C122 0.947 . S
C179 C122 1.392 . S
C179 C123 1.419 . S
C179 H161 0.948 . S
C180 C181 1.391 . S
C180 C184 1.391 . S
C180 H222 0.948 . S
C181 C180 1.391 . S
C181 C182 1.391 . S
C182 C181 1.391 . S
C182 H238 0.947 . S
C182 C239 1.392 . S
C183 C184 1.391 . S
C183 C187 1.397 . S
C183 C239 1.419 . S
C184 C180 1.391 . S
C184 C183 1.391 . S
C184 C185 1.399 . S
C185 C184 1.399 . S
C185 C188 1.396 . S
C185 C197 1.453 . S
C185 C198 1.684 . S
H186 C210 0.948 . S
C187 C183 1.397 . S
C187 C188 1.394 . S
C187 C206 1.723 . S
C188 C185 1.396 . S
C188 C187 1.394 . S
C188 C218 1.723 . S
H189 C212 0.959 . S
H190 C213 0.948 . S
H191 C219 0.982 . S
H192 C220 0.979 . S
H193 C220 0.980 . S
H194 C220 0.983 . S
H195 C219 0.979 . S
H196 C219 0.977 . S
C197 C185 1.453 . S
C197 H226 0.982 . S
C197 H227 0.979 1_655 S
C197 H228 0.977 . S
C198 C185 1.684 . S
C198 H223 0.979 . S
C198 H224 0.980 . S
C198 H225 0.983 . S
C199 C200 1.391 . S
C199 C204 1.391 . S
C199 H229 0.948 . S
C200 C199 1.391 . S
C200 C201 1.391 . S
C201 C200 1.391 . S
C201 C202 1.392 . S
C201 H230 0.947 . S
C202 C201 1.392 . S
C202 C203 1.419 . S
C202 H231 0.948 . S
C203 C202 1.419 . S
C203 C204 1.391 . S
C203 C207 1.397 . S
C204 C199 1.391 . S
C204 C203 1.391 . S
C204 C205 1.399 . S
C205 C204 1.399 . S
C205 C206 1.396 . S
C205 C208 1.453 . S
C205 C209 1.684 . S
C206 C187 1.723 . S
C206 C205 1.396 . S
C206 C207 1.394 . S
C207 C203 1.397 . S
C207 C206 1.394 . S
C207 C217 1.723 . S
C208 C205 1.453 . S
C208 H232 0.982 . S
C208 H233 0.979 . S
C208 H234 0.977 . S
C209 C205 1.684 . S
C209 H235 0.979 . S
C209 H236 0.980 . S
C209 H237 0.983 . S
C210 H186 0.948 . S
C210 C211 1.391 . S
C210 C215 1.391 . S
C211 C210 1.391 . S
C211 C212 1.391 . S
C212 H189 0.959 . S
C212 C211 1.391 . S
C212 C213 1.392 . S
C213 H190 0.948 . S
C213 C212 1.392 . S
C213 C214 1.419 . S
C214 C213 1.419 . S
C214 C215 1.391 . S
C214 C218 1.397 . S
C215 C210 1.391 . S
C215 C214 1.391 . S
C215 C216 1.399 . S
C216 C215 1.399 . S
C216 C217 1.396 . S
C216 C219 1.453 . S
C216 C220 1.684 . S
C217 C207 1.723 . S
C217 C216 1.396 . S
C217 C218 1.394 . S
C218 C188 1.723 . S
C218 C214 1.397 . S
C218 C217 1.394 . S
C219 H191 0.982 . S
C219 H195 0.979 . S
C219 H196 0.977 . S
C219 C216 1.453 . S
C220 H192 0.979 . S
C220 H193 0.980 . S
C220 H194 0.983 . S
C220 C216 1.684 . S
H221 C239 0.948 . S
H222 C180 0.948 . S
H223 C198 0.979 . S
H224 C198 0.980 . S
H225 C198 0.983 . S
H226 C197 0.982 . S
H227 C197 0.979 1_455 S
H228 C197 0.977 . S
H229 C199 0.948 . S
H230 C201 0.947 . S
H231 C202 0.948 . S
H232 C208 0.982 . S
H233 C208 0.979 . S
H234 C208 0.977 . S
H235 C209 0.979 . S
H236 C209 0.980 . S
H237 C209 0.983 . S
H238 C182 0.947 . S
C239 C182 1.392 . S
C239 C183 1.419 . S
C239 H221 0.948 . S
C240 C241 1.391 . S
C240 C244 1.391 . S
C240 H282 0.948 . S
C241 C240 1.391 . S
C241 C242 1.391 . S
C242 C241 1.391 . S
C242 H298 0.947 . S
C242 C299 1.392 . S
C243 C244 1.391 . S
C243 C247 1.397 . S
C243 C299 1.419 . S
C244 C240 1.391 . S
C244 C243 1.391 . S
C244 C245 1.399 . S
C245 C244 1.399 . S
C245 C248 1.396 . S
C245 C257 1.453 . S
C245 C258 1.684 . S
H246 C270 0.948 . S
C247 C243 1.397 . S
C247 C248 1.394 . S
C247 C266 1.723 . S
C248 C245 1.396 . S
C248 C247 1.394 . S
C248 C278 1.723 . S
H249 C272 0.947 . S
H250 C273 0.948 . S
H251 C279 0.982 . S
H252 C280 0.979 . S
H253 C280 0.980 . S
H254 C280 0.983 . S
H255 C279 0.979 . S
H256 C279 0.977 . S
C257 C245 1.453 . S
C257 H286 0.982 . S
C257 H287 0.979 . S
C257 H288 0.977 . S
C258 C245 1.684 . S
C258 H283 0.979 . S
C258 H284 0.980 . S
C258 H285 0.983 1_556 S
C259 C260 1.391 . S
C259 C264 1.391 . S
C259 H289 0.948 . S
C260 C259 1.391 . S
C260 C261 1.391 . S
C261 C260 1.391 . S
C261 C262 1.392 . S
C261 H290 0.947 . S
C262 C261 1.392 . S
C262 C263 1.419 . S
C262 H291 0.948 . S
C263 C262 1.419 . S
C263 C264 1.391 . S
C263 C267 1.397 . S
C264 C259 1.391 . S
C264 C263 1.391 . S
C264 C265 1.399 . S
C265 C264 1.399 . S
C265 C266 1.396 . S
C265 C268 1.453 . S
C265 C269 1.684 . S
C266 C247 1.723 . S
C266 C265 1.396 . S
C266 C267 1.394 . S
C267 C263 1.397 . S
C267 C266 1.394 . S
C267 C277 1.723 . S
C268 C265 1.453 . S
C268 H292 0.982 . S
C268 H293 0.979 . S
C268 H294 0.977 . S
C269 C265 1.684 . S
C269 H295 0.979 . S
C269 H296 0.980 . S
C269 H297 0.983 . S
C270 H246 0.948 . S
C270 C271 1.391 . S
C270 C275 1.391 . S
C271 C270 1.391 . S
C271 C272 1.391 . S
C272 H249 0.947 . S
C272 C271 1.391 . S
C272 C273 1.392 . S
C273 H250 0.948 . S
C273 C272 1.392 . S
C273 C274 1.419 . S
C274 C273 1.419 . S
C274 C275 1.391 . S
C274 C278 1.397 . S
C275 C270 1.391 . S
C275 C274 1.391 . S
C275 C276 1.399 . S
C276 C275 1.399 . S
C276 C277 1.396 . S
C276 C279 1.453 . S
C276 C280 1.684 . S
C277 C267 1.723 . S
C277 C276 1.396 . S
C277 C278 1.394 . S
C278 C248 1.723 . S
C278 C274 1.397 . S
C278 C277 1.394 . S
C279 H251 0.982 . S
C279 H255 0.979 . S
C279 H256 0.977 . S
C279 C276 1.453 . S
C280 H252 0.979 . S
C280 H253 0.980 . S
C280 H254 0.983 . S
C280 C276 1.684 . S
H281 C299 0.948 . S
H282 C240 0.948 . S
H283 C258 0.979 . S
H284 C258 0.980 . S
H285 C258 0.983 1_554 S
H286 C257 0.982 . S
H287 C257 0.979 . S
H288 C257 0.977 . S
H289 C259 0.948 . S
H290 C261 0.947 . S
H291 C262 0.948 . S
H292 C268 0.982 . S
H293 C268 0.979 . S
H294 C268 0.977 . S
H295 C269 0.979 . S
H296 C269 0.980 . S
H297 C269 0.983 . S
H298 C242 0.947 . S
C299 C242 1.392 . S
C299 C243 1.419 . S
C299 H281 0.948 . S
C300 C301 1.391 . S
C300 C304 1.391 . S
C300 H342 0.948 . S
C301 C300 1.391 . S
C301 C302 1.391 . S
C302 C301 1.391 . S
C302 H358 0.947 . S
C302 C359 1.392 . S
C303 C304 1.391 1_655 S
C303 C307 1.397 . S
C303 C359 1.419 1_655 S
C304 C300 1.391 . S
C304 C303 1.391 1_455 S
C304 C305 1.399 1_455 S
C305 C304 1.399 1_655 S
C305 C308 1.396 . S
C305 C317 1.453 . S
C305 C318 1.684 1_655 S
H306 C330 0.948 . S
C307 C303 1.397 . S
C307 C308 1.394 . S
C307 C326 1.723 . S
C308 C305 1.396 . S
C308 C307 1.394 . S
C308 C338 1.723 . S
H309 C332 0.947 . S
H310 C333 0.948 . S
H311 C339 0.982 . S
H312 C340 0.979 . S
H313 C340 0.980 . S
H314 C340 0.983 . S
H315 C339 0.979 . S
H316 C339 0.977 . S
C317 C305 1.453 . S
C317 H346 0.982 . S
C317 H347 0.979 . S
C317 H348 0.977 . S
C318 C305 1.684 1_455 S
C318 H343 0.979 . S
C318 H344 0.980 1_455 S
C318 H345 0.983 . S
C319 C320 1.391 . S
C319 C324 1.391 . S
C319 H349 0.948 . S
C320 C319 1.391 . S
C320 C321 1.391 . S
C321 C320 1.391 . S
C321 C322 1.392 . S
C321 H350 0.947 . S
C322 C321 1.392 . S
C322 C323 1.419 . S
C322 H351 0.948 . S
C323 C322 1.419 . S
C323 C324 1.391 . S
C323 C327 1.397 . S
C324 C319 1.391 . S
C324 C323 1.391 . S
C324 C325 1.399 . S
C325 C324 1.399 . S
C325 C326 1.396 . S
C325 C328 1.453 . S
C325 C329 1.684 . S
C326 C307 1.723 . S
C326 C325 1.396 . S
C326 C327 1.394 . S
C327 C323 1.397 . S
C327 C326 1.394 . S
C327 C337 1.723 . S
C328 C325 1.453 . S
C328 H352 0.982 . S
C328 H353 0.979 . S
C328 H354 0.977 . S
C329 C325 1.684 . S
C329 H355 0.979 . S
C329 H356 0.980 . S
C329 H357 0.983 . S
C330 H306 0.948 . S
C330 C331 1.391 . S
C330 C335 1.391 . S
C331 C330 1.391 . S
C331 C332 1.391 . S
C332 H309 0.947 . S
C332 C331 1.391 . S
C332 C333 1.392 . S
C333 H310 0.948 . S
C333 C332 1.392 . S
C333 C334 1.419 . S
C334 C333 1.419 . S
C334 C335 1.391 . S
C334 C338 1.397 . S
C335 C330 1.391 . S
C335 C334 1.391 . S
C335 C336 1.399 . S
C336 C335 1.399 . S
C336 C337 1.396 . S
C336 C339 1.453 . S
C336 C340 1.684 . S
C337 C327 1.723 . S
C337 C336 1.396 . S
C337 C338 1.394 . S
C338 C308 1.723 . S
C338 C334 1.397 . S
C338 C337 1.394 . S
C339 H311 0.982 . S
C339 H315 0.979 . S
C339 H316 0.977 . S
C339 C336 1.453 . S
C340 H312 0.979 . S
C340 H313 0.980 . S
C340 H314 0.983 . S
C340 C336 1.684 . S
H341 C359 0.948 1_655 S
H342 C300 0.948 . S
H343 C318 0.979 . S
H344 C318 0.980 1_655 S
H345 C318 0.983 . S
H346 C317 0.982 . S
H347 C317 0.979 . S
H348 C317 0.977 . S
H349 C319 0.948 . S
H350 C321 0.947 . S
H351 C322 0.948 . S
H352 C328 0.982 . S
H353 C328 0.979 . S
H354 C328 0.977 . S
H355 C329 0.979 . S
H356 C329 0.980 . S
H357 C329 0.983 . S
H358 C302 0.947 . S
C359 C302 1.392 . S
C359 C303 1.419 1_455 S
C359 H341 0.948 1_455 S
C360 C361 1.391 . S
C360 C364 1.391 . S
C360 H402 0.948 . S
C361 C360 1.391 . S
C361 C362 1.391 . S
C362 C361 1.391 . S
C362 H418 0.947 . S
C362 C419 1.392 . S
C363 C364 1.391 . S
C363 C367 1.397 . S
C363 C419 1.419 . S
C364 C360 1.391 . S
C364 C363 1.391 . S
C364 C365 1.399 . S
C365 C364 1.399 . S
C365 C368 1.396 . S
C365 C377 1.453 . S
C365 C378 1.684 . S
H366 C390 0.948 . S
C367 C363 1.397 . S
C367 C368 1.394 . S
C367 C386 1.723 . S
C368 C365 1.396 . S
C368 C367 1.394 . S
C368 C398 1.723 . S
H369 C392 0.947 . S
H370 C393 0.948 . S
H371 C399 0.982 . S
H372 C400 0.979 . S
H373 C400 0.980 . S
H374 C400 0.983 . S
H375 C399 0.979 . S
H376 C399 0.977 . S
C377 C365 1.453 . S
C377 H406 0.982 . S
C377 H407 0.979 . S
C377 H408 0.977 . S
C378 C365 1.684 . S
C378 H403 0.979 . S
C378 H404 0.980 . S
C378 H405 0.983 . S
C379 C380 1.391 . S
C379 C384 1.391 . S
C379 H409 0.948 . S
C380 C379 1.391 . S
C380 C381 1.391 . S
C381 C380 1.391 . S
C381 C382 1.392 . S
C381 H410 0.947 . S
C382 C381 1.392 . S
C382 C383 1.419 . S
C382 H411 0.948 . S
C383 C382 1.419 . S
C383 C384 1.391 . S
C383 C387 1.397 . S
C384 C379 1.391 . S
C384 C383 1.391 . S
C384 C385 1.399 . S
C385 C384 1.399 . S
C385 C386 1.396 . S
C385 C388 1.453 . S
C385 C389 1.684 . S
C386 C367 1.723 . S
C386 C385 1.396 . S
C386 C387 1.394 . S
C387 C383 1.397 . S
C387 C386 1.394 . S
C387 C397 1.723 . S
C388 C385 1.453 . S
C388 H412 0.982 . S
C388 H413 0.979 . S
C388 H414 0.977 . S
C389 C385 1.684 . S
C389 H415 0.979 . S
C389 H416 0.980 . S
C389 H417 0.983 . S
C390 H366 0.948 . S
C390 C391 1.391 . S
C390 C395 1.391 . S
C391 C390 1.391 . S
C391 C392 1.391 . S
C392 H369 0.947 . S
C392 C391 1.391 . S
C392 C393 1.392 . S
C393 H370 0.948 . S
C393 C392 1.392 . S
C393 C394 1.419 . S
C394 C393 1.419 . S
C394 C395 1.391 . S
C394 C398 1.397 . S
C395 C390 1.391 . S
C395 C394 1.391 . S
C395 C396 1.399 . S
C396 C395 1.399 . S
C396 C397 1.396 . S
C396 C399 1.453 . S
C396 C400 1.684 . S
C397 C387 1.723 . S
C397 C396 1.396 . S
C397 C398 1.394 . S
C398 C368 1.723 . S
C398 C394 1.397 . S
C398 C397 1.394 . S
C399 H371 0.982 . S
C399 H375 0.979 . S
C399 H376 0.977 . S
C399 C396 1.453 . S
C400 H372 0.979 . S
C400 H373 0.980 . S
C400 H374 0.983 . S
C400 C396 1.684 . S
H401 C419 0.948 . S
H402 C360 0.948 . S
H403 C378 0.979 . S
H404 C378 0.980 . S
H405 C378 0.983 . S
H406 C377 0.982 . S
H407 C377 0.979 . S
H408 C377 0.977 . S
H409 C379 0.948 . S
H410 C381 0.947 . S
H411 C382 0.948 . S
H412 C388 0.982 . S
H413 C388 0.979 . S
H414 C388 0.977 . S
H415 C389 0.979 . S
H416 C389 0.980 . S
H417 C389 0.983 . S
H418 C362 0.947 . S
C419 C362 1.392 . S
C419 C363 1.419 . S
C419 H401 0.948 . S
C420 C421 1.391 . S
C420 C424 1.391 . S
C420 H462 0.948 . S
C421 C420 1.391 . S
C421 C422 1.391 . S
C422 C421 1.391 . S
C422 H478 0.947 . S
C422 C479 1.392 . S
C423 C424 1.391 . S
C423 C427 1.397 . S
C423 C479 1.419 . S
C424 C420 1.391 . S
C424 C423 1.391 . S
C424 C425 1.399 . S
C425 C424 1.399 . S
C425 C428 1.396 . S
C425 C437 1.453 . S
C425 C438 1.684 . S
H426 C450 0.948 . S
C427 C423 1.397 . S
C427 C428 1.394 . S
C427 C446 1.723 . S
C428 C425 1.396 . S
C428 C427 1.394 . S
C428 C458 1.723 . S
H429 C452 0.947 . S
H430 C453 0.948 . S
H431 C459 0.982 . S
H432 C460 0.979 . S
H433 C460 0.980 . S
H434 C460 0.983 . S
H435 C459 0.979 . S
H436 C459 0.977 . S
C437 C425 1.453 . S
C437 H466 0.982 . S
C437 H467 0.979 1_455 S
C437 H468 0.977 . S
C438 C425 1.684 . S
C438 H463 0.979 . S
C438 H464 0.980 . S
C438 H465 0.983 . S
C439 C440 1.391 . S
C439 C444 1.391 . S
C439 H469 0.948 . S
C440 C439 1.391 . S
C440 C441 1.391 . S
C441 C440 1.391 . S
C441 C442 1.392 . S
C441 H470 0.947 . S
C442 C441 1.392 . S
C442 C443 1.419 . S
C442 H471 0.948 . S
C443 C442 1.419 . S
C443 C444 1.391 . S
C443 C447 1.397 . S
C444 C439 1.391 . S
C444 C443 1.391 . S
C444 C445 1.399 . S
C445 C444 1.399 . S
C445 C446 1.396 . S
C445 C448 1.453 . S
C445 C449 1.684 . S
C446 C427 1.723 . S
C446 C445 1.396 . S
C446 C447 1.394 . S
C447 C443 1.397 . S
C447 C446 1.394 . S
C447 C457 1.723 . S
C448 C445 1.453 . S
C448 H472 0.982 . S
C448 H473 0.979 . S
C448 H474 0.977 . S
C449 C445 1.684 . S
C449 H475 0.979 . S
C449 H476 0.980 . S
C449 H477 0.983 . S
C450 H426 0.948 . S
C450 C451 1.391 . S
C450 C455 1.391 . S
C451 C450 1.391 . S
C451 C452 1.391 . S
C452 H429 0.947 . S
C452 C451 1.391 . S
C452 C453 1.392 . S
C453 H430 0.948 . S
C453 C452 1.392 . S
C453 C454 1.419 . S
C454 C453 1.419 . S
C454 C455 1.391 . S
C454 C458 1.397 . S
C455 C450 1.391 . S
C455 C454 1.391 . S
C455 C456 1.399 . S
C456 C455 1.399 . S
C456 C457 1.396 . S
C456 C459 1.453 . S
C456 C460 1.684 . S
C457 C447 1.723 . S
C457 C456 1.396 . S
C457 C458 1.394 . S
C458 C428 1.723 . S
C458 C454 1.397 . S
C458 C457 1.394 . S
C459 H431 0.982 . S
C459 H435 0.979 . S
C459 H436 0.977 . S
C459 C456 1.453 . S
C460 H432 0.979 . S
C460 H433 0.980 . S
C460 H434 0.983 . S
C460 C456 1.684 . S
H461 C479 0.948 . S
H462 C420 0.948 . S
H463 C438 0.979 . S
H464 C438 0.980 . S
H465 C438 0.983 . S
H466 C437 0.982 . S
H467 C437 0.979 1_655 S
H468 C437 0.977 . S
H469 C439 0.948 . S
H470 C441 0.947 . S
H471 C442 0.948 . S
H472 C448 0.982 . S
H473 C448 0.979 . S
H474 C448 0.977 . S
H475 C449 0.979 . S
H476 C449 0.980 . S
H477 C449 0.983 . S
H478 C422 0.947 . S
C479 C422 1.392 . S
C479 C423 1.419 . S
C479 H461 0.948 . S
Tb480 C489 2.764 . S
Tb480 O490 2.325 . S
Tb480 O493 2.303 . S
Tb480 O497 2.323 1_545 S
Tb480 O498 2.350 1_545 S
Tb480 O501 2.415 . S
Tb480 O502 2.399 . S
Tb481 O491 2.325 . S
Tb481 O492 2.353 . S
Tb481 O494 2.411 1_545 S
Tb481 O495 2.399 1_545 S
Tb481 O496 2.322 1_545 S
Tb481 O499 2.300 1_545 S
Tb481 C510 2.762 1_545 S
C482 O498 1.261 1_655 S
C482 O499 1.257 . S
C483 C486 1.358 . S
C483 C487 1.332 . S
C483 C489 1.504 . S
C484 C485 1.373 . S
C484 C488 1.308 . S
C485 C484 1.373 . S
C485 C486 1.429 . S
C485 H512 0.932 . S
C486 C483 1.358 . S
C486 C485 1.429 . S
C486 H513 0.930 . S
C487 C483 1.332 . S
C487 C488 1.394 . S
C487 H514 0.932 . S
C488 C484 1.308 . S
C488 C487 1.394 . S
C488 H515 0.929 . S
C489 Tb480 2.764 . S
C489 C483 1.504 . S
C489 O501 1.239 . S
C489 O502 1.263 . S
O490 Tb480 2.325 . S
O490 C500 1.236 1_455 S
O491 Tb481 2.325 . S
O491 C500 1.257 . S
O492 Tb481 2.353 . S
O492 C503 1.261 1_655 S
O493 Tb480 2.303 . S
O493 C503 1.257 . S
O494 Tb481 2.411 1_565 S
O494 C510 1.239 . S
O495 Tb481 2.399 1_565 S
O495 C510 1.263 . S
O496 Tb481 2.322 1_565 S
O496 C511 1.236 1_655 S
O497 Tb480 2.323 1_565 S
O497 C511 1.257 . S
O498 Tb480 2.350 1_565 S
O498 C482 1.261 1_455 S
O499 Tb481 2.300 1_565 S
O499 C482 1.257 . S
C500 O490 1.236 1_655 S
C500 O491 1.257 . S
O501 Tb480 2.415 . S
O501 C489 1.239 . S
O502 Tb480 2.399 . S
O502 C489 1.263 . S
C503 O492 1.261 1_455 S
C503 O493 1.257 . S
C504 C507 1.358 . S
C504 C508 1.332 . S
C504 C510 1.504 . S
C505 C506 1.373 . S
C505 C509 1.308 . S
C506 C505 1.373 . S
C506 C507 1.429 . S
C506 H516 0.932 . S
C507 C504 1.358 . S
C507 C506 1.429 . S
C507 H517 0.930 . S
C508 C504 1.332 . S
C508 C509 1.394 . S
C508 H518 0.932 . S
C509 C505 1.308 . S
C509 C508 1.394 . S
C509 H519 0.929 . S
C510 Tb481 2.762 1_565 S
C510 O494 1.239 . S
C510 O495 1.263 . S
C510 C504 1.504 . S
C511 O496 1.236 1_455 S
C511 O497 1.257 . S
H512 C485 0.932 . S
H513 C486 0.930 . S
H514 C487 0.932 . S
H515 C488 0.929 . S
H516 C506 0.932 . S
H517 C507 0.930 . S
H518 C508 0.932 . S
H519 C509 0.929 . S
Tb520 C529 2.764 . S
Tb520 O530 2.325 1_554 S
Tb520 O533 2.303 . S
Tb520 O537 2.322 1_545 S
Tb520 O538 2.349 1_544 S
Tb520 O541 2.415 . S
Tb520 O542 2.399 . S
Tb521 O531 2.322 1_565 S
Tb521 O532 2.349 1_566 S
Tb521 O534 2.415 . S
Tb521 O535 2.399 . S
Tb521 O536 2.325 1_556 S
Tb521 O539 2.303 . S
Tb521 C550 2.764 . S
C522 O538 1.261 . S
C522 O539 1.257 . S
C523 C526 1.358 . S
C523 C527 1.332 . S
C523 C529 1.504 . S
C524 C525 1.373 . S
C524 C528 1.308 . S
C525 C524 1.373 . S
C525 C526 1.429 . S
C525 H552 0.932 . S
C526 C523 1.358 . S
C526 C525 1.429 . S
C526 H553 0.930 . S
C527 C523 1.332 . S
C527 C528 1.394 . S
C527 H554 0.932 . S
C528 C524 1.308 . S
C528 C527 1.394 . S
C528 H555 0.929 . S
C529 Tb520 2.764 . S
C529 C523 1.504 . S
C529 O541 1.239 . S
C529 O542 1.263 . S
O530 Tb520 2.325 1_556 S
O530 C540 1.236 . S
O531 Tb521 2.322 1_545 S
O531 C540 1.257 . S
O532 Tb521 2.349 1_544 S
O532 C543 1.261 . S
O533 Tb520 2.303 . S
O533 C543 1.257 . S
O534 Tb521 2.415 . S
O534 C550 1.239 . S
O535 Tb521 2.399 . S
O535 C550 1.263 . S
O536 Tb521 2.325 1_554 S
O536 C551 1.236 . S
O537 Tb520 2.322 1_565 S
O537 C551 1.257 . S
O538 Tb520 2.349 1_566 S
O538 C522 1.261 . S
O539 Tb521 2.303 . S
O539 C522 1.257 . S
C540 O530 1.236 . S
C540 O531 1.257 . S
O541 Tb520 2.415 . S
O541 C529 1.239 . S
O542 Tb520 2.399 . S
O542 C529 1.263 . S
C543 O532 1.261 . S
C543 O533 1.257 . S
C544 C547 1.358 . S
C544 C548 1.332 . S
C544 C550 1.504 . S
C545 C546 1.373 . S
C545 C549 1.308 . S
C546 C545 1.373 . S
C546 C547 1.429 . S
C546 H556 0.932 . S
C547 C544 1.358 . S
C547 C546 1.429 . S
C547 H557 0.930 . S
C548 C544 1.332 . S
C548 C549 1.394 . S
C548 H558 0.932 . S
C549 C545 1.308 . S
C549 C548 1.394 . S
C549 H559 0.929 . S
C550 Tb521 2.764 . S
C550 O534 1.239 . S
C550 O535 1.263 . S
C550 C544 1.504 . S
C551 O536 1.236 . S
C551 O537 1.257 . S
H552 C525 0.932 . S
H553 C526 0.930 . S
H554 C527 0.932 . S
H555 C528 0.929 . S
H556 C546 0.932 . S
H557 C547 0.930 . S
H558 C548 0.932 . S
H559 C549 0.929 . S
Tb560 C569 2.764 . S
Tb560 O570 2.325 . S
Tb560 O573 2.303 . S
Tb560 O577 2.322 . S
Tb560 O578 2.349 . S
Tb560 O581 2.415 . S
Tb560 O582 2.399 . S
Tb561 O571 2.322 . S
Tb561 O572 2.349 . S
Tb561 O574 2.415 . S
Tb561 O575 2.399 . S
Tb561 O576 2.325 . S
Tb561 O579 2.303 . S
Tb561 C590 2.764 . S
C562 O578 1.261 . S
C562 O579 1.257 . S
C563 C566 1.358 . S
C563 C567 1.332 . S
C563 C569 1.504 . S
C564 C565 1.373 . S
C564 C568 1.308 . S
C565 C564 1.373 . S
C565 C566 1.429 . S
C565 H592 0.932 . S
C566 C563 1.358 . S
C566 C565 1.429 . S
C566 H593 0.930 . S
C567 C563 1.332 . S
C567 C568 1.394 . S
C567 H594 0.932 . S
C568 C564 1.308 . S
C568 C567 1.394 . S
C568 H595 0.929 . S
C569 Tb560 2.764 . S
C569 C563 1.504 . S
C569 O581 1.239 . S
C569 O582 1.263 . S
O570 Tb560 2.325 . S
O570 C580 1.236 . S
O571 Tb561 2.322 . S
O571 C580 1.257 . S
O572 Tb561 2.349 . S
O572 C583 1.261 . S
O573 Tb560 2.303 . S
O573 C583 1.257 . S
O574 Tb561 2.415 . S
O574 C590 1.239 . S
O575 Tb561 2.399 . S
O575 C590 1.263 . S
O576 Tb561 2.325 . S
O576 C591 1.236 . S
O577 Tb560 2.322 . S
O577 C591 1.257 . S
O578 Tb560 2.349 . S
O578 C562 1.261 . S
O579 Tb561 2.303 . S
O579 C562 1.257 . S
C580 O570 1.236 . S
C580 O571 1.257 . S
O581 Tb560 2.415 . S
O581 C569 1.239 . S
O582 Tb560 2.399 . S
O582 C569 1.263 . S
C583 O572 1.261 . S
C583 O573 1.257 . S
C584 C587 1.358 . S
C584 C588 1.332 . S
C584 C590 1.504 . S
C585 C586 1.373 . S
C585 C589 1.308 . S
C586 C585 1.373 . S
C586 C587 1.429 . S
C586 H596 0.932 . S
C587 C584 1.358 . S
C587 C586 1.429 . S
C587 H597 0.930 . S
C588 C584 1.332 . S
C588 C589 1.394 . S
C588 H598 0.932 . S
C589 C585 1.308 . S
C589 C588 1.394 . S
C589 H599 0.929 . S
C590 Tb561 2.764 . S
C590 O574 1.239 . S
C590 O575 1.263 . S
C590 C584 1.504 . S
C591 O576 1.236 . S
C591 O577 1.257 . S
H592 C565 0.932 . S
H593 C566 0.930 . S
H594 C567 0.932 . S
H595 C568 0.929 . S
H596 C586 0.932 . S
H597 C587 0.930 . S
H598 C588 0.932 . S
H599 C589 0.929 . S
Tb600 C609 2.764 . S
Tb600 O610 2.325 . S
Tb600 O613 2.303 1_556 S
Tb600 O617 2.322 1_655 S
Tb600 O618 2.349 1_655 S
Tb600 O621 2.415 . S
Tb600 O622 2.399 . S
Tb601 O611 2.322 1_455 S
Tb601 O612 2.349 1_455 S
Tb601 O614 2.415 . S
Tb601 O615 2.399 . S
Tb601 O616 2.325 . S
Tb601 O619 2.303 1_554 S
Tb601 C630 2.764 . S
C602 O618 1.261 . S
C602 O619 1.257 . S
C603 C606 1.358 . S
C603 C607 1.332 . S
C603 C609 1.504 . S
C604 C605 1.373 . S
C604 C608 1.308 . S
C605 C604 1.373 . S
C605 C606 1.429 . S
C605 H632 0.932 . S
C606 C603 1.358 . S
C606 C605 1.429 . S
C606 H633 0.930 . S
C607 C603 1.332 . S
C607 C608 1.394 . S
C607 H634 0.932 . S
C608 C604 1.308 . S
C608 C607 1.394 . S
C608 H635 0.929 . S
C609 Tb600 2.764 . S
C609 C603 1.504 . S
C609 O621 1.239 . S
C609 O622 1.263 . S
O610 Tb600 2.325 . S
O610 C620 1.236 . S
O611 Tb601 2.322 1_655 S
O611 C620 1.257 1_554 S
O612 Tb601 2.349 1_655 S
O612 C623 1.261 . S
O613 Tb600 2.303 1_554 S
O613 C623 1.257 . S
O614 Tb601 2.415 . S
O614 C630 1.239 . S
O615 Tb601 2.399 . S
O615 C630 1.263 . S
O616 Tb601 2.325 . S
O616 C631 1.236 . S
O617 Tb600 2.322 1_455 S
O617 C631 1.257 1_556 S
O618 Tb600 2.349 1_455 S
O618 C602 1.261 . S
O619 Tb601 2.303 1_556 S
O619 C602 1.257 . S
C620 O610 1.236 . S
C620 O611 1.257 1_556 S
O621 Tb600 2.415 . S
O621 C609 1.239 . S
O622 Tb600 2.399 . S
O622 C609 1.263 . S
C623 O612 1.261 . S
C623 O613 1.257 . S
C624 C627 1.358 . S
C624 C628 1.332 . S
C624 C630 1.504 . S
C625 C626 1.373 . S
C625 C629 1.308 . S
C626 C625 1.373 . S
C626 C627 1.429 . S
C626 H636 0.932 . S
C627 C624 1.358 . S
C627 C626 1.429 . S
C627 H637 0.930 . S
C628 C624 1.332 . S
C628 C629 1.394 . S
C628 H638 0.932 . S
C629 C625 1.308 . S
C629 C628 1.394 . S
C629 H639 0.929 . S
C630 Tb601 2.764 . S
C630 O614 1.239 . S
C630 O615 1.263 . S
C630 C624 1.504 . S
C631 O616 1.236 . S
C631 O617 1.257 1_554 S
H632 C605 0.932 . S
H633 C606 0.930 . S
H634 C607 0.932 . S
H635 C608 0.929 . S
H636 C626 0.932 . S
H637 C627 0.930 . S
H638 C628 0.932 . S
H639 C629 0.929 . S
C1 C484 1.595 . S
C80 C545 1.518 . S
C583 C140 3.641 . S
C211 C623 3.536 . S
C543 C31 2.916 . S
C511 C61 3.973 1_455 S
C620 C151 2.271 . S
C580 C200 2.575 . S
C20 C625 3.063 . S
C540 C121 3.455 . S
C181 C482 3.042 . S
C91 C585 3.469 . S
C505 C260 1.913 . S
C320 C524 1.519 . S
C361 C562 3.669 . S
C451 C602 3.539 . S
C271 C522 3.049 . S
C500 C301 3.974 1_655 S
C631 C380 2.290 . S
C591 C440 2.574 . S
C241 C604 2.665 . S
C551 C391 3.518 . S
C503 C421 3.042 . S
C331 C564 3.469 . S
