# Generated by pormake.
# Topology the, (3,8)-cn, num edge types: 1
# Building blocks:
#     Node 0, Type 0, BuildingBlock: BELTOD_clean_linker_0, # of connection points: 3
#     Node 1, Type 0, BuildingBlock: BELTOD_clean_linker_0, # of connection points: 3
#     Node 2, Type 0, BuildingBlock: BELTOD_clean_linker_0, # of connection points: 3
#     Node 3, Type 0, BuildingBlock: BELTOD_clean_linker_0, # of connection points: 3
#     Node 4, Type 0, BuildingBlock: BELTOD_clean_linker_0, # of connection points: 3
#     Node 5, Type 0, BuildingBlock: BELTOD_clean_linker_0, # of connection points: 3
#     Node 6, Type 0, BuildingBlock: BELTOD_clean_linker_0, # of connection points: 3
#     Node 7, Type 0, BuildingBlock: BELTOD_clean_linker_0, # of connection points: 3
#     Node 8, Type 1, BuildingBlock: GIZVER_clean_sbu_0, # of connection points: 8
#     Node 9, Type 1, BuildingBlock: GIZVER_clean_sbu_0, # of connection points: 8
#     Node 10, Type 1, BuildingBlock: GIZVER_clean_sbu_0, # of connection points: 8
#     Edge 11, Type (0, 1), BuildingBlock: MIFKUJ_clean_linker_0, # of connection points: 2
#     Edge 12, Type (0, 1), BuildingBlock: MIFKUJ_clean_linker_0, # of connection points: 2
#     Edge 13, Type (0, 1), BuildingBlock: MIFKUJ_clean_linker_0, # of connection points: 2
#     Edge 14, Type (0, 1), BuildingBlock: MIFKUJ_clean_linker_0, # of connection points: 2
#     Edge 15, Type (0, 1), BuildingBlock: MIFKUJ_clean_linker_0, # of connection points: 2
#     Edge 16, Type (0, 1), BuildingBlock: MIFKUJ_clean_linker_0, # of connection points: 2
#     Edge 17, Type (0, 1), BuildingBlock: MIFKUJ_clean_linker_0, # of connection points: 2
#     Edge 18, Type (0, 1), BuildingBlock: MIFKUJ_clean_linker_0, # of connection points: 2
#     Edge 19, Type (0, 1), BuildingBlock: MIFKUJ_clean_linker_0, # of connection points: 2
#     Edge 20, Type (0, 1), BuildingBlock: MIFKUJ_clean_linker_0, # of connection points: 2
#     Edge 21, Type (0, 1), BuildingBlock: MIFKUJ_clean_linker_0, # of connection points: 2
#     Edge 22, Type (0, 1), BuildingBlock: MIFKUJ_clean_linker_0, # of connection points: 2
#     Edge 23, Type (0, 1), BuildingBlock: MIFKUJ_clean_linker_0, # of connection points: 2
#     Edge 24, Type (0, 1), BuildingBlock: MIFKUJ_clean_linker_0, # of connection points: 2
#     Edge 25, Type (0, 1), BuildingBlock: MIFKUJ_clean_linker_0, # of connection points: 2
#     Edge 26, Type (0, 1), BuildingBlock: MIFKUJ_clean_linker_0, # of connection points: 2
#     Edge 27, Type (0, 1), BuildingBlock: MIFKUJ_clean_linker_0, # of connection points: 2
#     Edge 28, Type (0, 1), BuildingBlock: MIFKUJ_clean_linker_0, # of connection points: 2
#     Edge 29, Type (0, 1), BuildingBlock: MIFKUJ_clean_linker_0, # of connection points: 2
#     Edge 30, Type (0, 1), BuildingBlock: MIFKUJ_clean_linker_0, # of connection points: 2
#     Edge 31, Type (0, 1), BuildingBlock: MIFKUJ_clean_linker_0, # of connection points: 2
#     Edge 32, Type (0, 1), BuildingBlock: MIFKUJ_clean_linker_0, # of connection points: 2
#     Edge 33, Type (0, 1), BuildingBlock: MIFKUJ_clean_linker_0, # of connection points: 2
#     Edge 34, Type (0, 1), BuildingBlock: MIFKUJ_clean_linker_0, # of connection points: 2
# Relax obj value: 0.043
# Max RMSD: 0.142
# Mean RMSD: 0.066
data_MOF--net-the--node1-GIZVER_clean_sbu_0--node2-BELTOD_clean_linker_0--edge1-MIFKUJ_clean_linker_0
_symmetry_space_group_name_H-M    P1
_symmetry_Int_Tables_number       1
_symmetry_cell_setting            triclinic
loop_
_symmetry_equiv_pos_as_xyz
'x, y, z'
_cell_length_a     58.253753
_cell_length_b     55.30017
_cell_length_c     50.81329
_cell_angle_alpha  86.596378
_cell_angle_beta   93.460315
_cell_angle_gamma 100.04552
loop_
_atom_site_label
_atom_site_type_symbol
_atom_site_fract_x
_atom_site_fract_y
_atom_site_fract_z
_atom_type_partial_charge
P0 P 0.34254 0.36412 0.41759 0.0
H1 H 0.31166 0.36697 0.46001 0.0
H2 H 0.26967 0.36733 0.46009 0.0
H3 H 0.26277 0.35377 0.37695 0.0
H4 H 0.30464 0.35265 0.37711 0.0
H5 H 0.37745 0.34812 0.45539 0.0
H6 H 0.38918 0.30822 0.46597 0.0
H7 H 0.33867 0.27566 0.40674 0.0
H8 H 0.3268 0.31565 0.39655 0.0
H9 H 0.32777 0.40291 0.38278 0.0
H10 H 0.37824 0.35432 0.38281 0.0
O11 O 0.35467 0.38393 0.44006 0.0
H12 H 0.33873 0.41957 0.33874 0.0
H13 H 0.38969 0.37147 0.33897 0.0
C14 C 0.31132 0.36068 0.41837 0.0
C15 C 0.30105 0.3637 0.44191 0.0
C16 C 0.27708 0.36372 0.44197 0.0
C17 C 0.26314 0.36083 0.41844 0.0
C18 C 0.27325 0.35628 0.39525 0.0
C19 C 0.29714 0.3558 0.39533 0.0
C20 C 0.35111 0.33473 0.42537 0.0
C21 C 0.36882 0.33238 0.44477 0.0
C22 C 0.37559 0.30957 0.45072 0.0
C23 C 0.3648 0.28875 0.43727 0.0
C24 C 0.34705 0.29125 0.41777 0.0
C25 C 0.34033 0.3141 0.41182 0.0
C26 C 0.35166 0.37684 0.38569 0.0
C27 C 0.34113 0.39574 0.37326 0.0
C28 C 0.3474 0.40527 0.34816 0.0
C29 C 0.36485 0.39658 0.33544 0.0
C30 C 0.37612 0.37839 0.34839 0.0
C31 C 0.36951 0.36852 0.37335 0.0
P32 P 0.71482 0.29992 0.28384 0.0
H33 H 0.73189 0.29354 0.33906 0.0
H34 H 0.76299 0.31766 0.36575 0.0
H35 H 0.77303 0.37337 0.30223 0.0
H36 H 0.74215 0.34895 0.27554 0.0
H37 H 0.71716 0.24801 0.29554 0.0
H38 H 0.69163 0.21455 0.31802 0.0
H39 H 0.64614 0.26495 0.33503 0.0
H40 H 0.6717 0.29839 0.312 0.0
H41 H 0.70295 0.29763 0.22726 0.0
H42 H 0.6885 0.33974 0.29118 0.0
O43 O 0.73185 0.28693 0.26572 0.0
H44 H 0.67973 0.32044 0.19658 0.0
H45 H 0.66478 0.36248 0.26046 0.0
C46 C 0.73431 0.31969 0.3055 0.0
C47 C 0.74039 0.3112 0.3311 0.0
C48 C 0.75824 0.32503 0.34635 0.0
C49 C 0.7706 0.34745 0.33613 0.0
C50 C 0.76408 0.35608 0.31063 0.0
C51 C 0.7462 0.34227 0.29545 0.0
C52 C 0.69614 0.27566 0.30162 0.0
C53 C 0.70168 0.25193 0.30404 0.0
C54 C 0.68713 0.23278 0.31714 0.0
C55 C 0.66674 0.23697 0.32831 0.0
C56 C 0.66149 0.26096 0.32631 0.0
C57 C 0.67614 0.28015 0.3132 0.0
C58 C 0.69764 0.31713 0.26149 0.0
C59 C 0.69488 0.31189 0.2347 0.0
C60 C 0.68165 0.325 0.21712 0.0
C61 C 0.67057 0.34338 0.22605 0.0
C62 C 0.67308 0.34838 0.25302 0.0
C63 C 0.68662 0.33543 0.27057 0.0
P64 P 0.72878 0.74204 0.28974 0.0
H65 H 0.73684 0.79382 0.30196 0.0
H66 H 0.71601 0.81832 0.32704 0.0
H67 H 0.66712 0.75294 0.34869 0.0
H68 H 0.68766 0.72866 0.32229 0.0
H69 H 0.77122 0.72595 0.27618 0.0
H70 H 0.79943 0.70451 0.30109 0.0
H71 H 0.75845 0.69949 0.36991 0.0
H72 H 0.73012 0.7209 0.34469 0.0
H73 H 0.71129 0.74692 0.23493 0.0
H74 H 0.70221 0.69211 0.29915 0.0
O75 O 0.74492 0.76221 0.26961 0.0
H76 H 0.6865 0.71865 0.20574 0.0
H77 H 0.67714 0.66362 0.26994 0.0
C78 C 0.71364 0.75943 0.30988 0.0
C79 C 0.7216 0.7847 0.31201 0.0
C80 C 0.70974 0.79872 0.32669 0.0
C81 C 0.68976 0.78775 0.34004 0.0
C82 C 0.68215 0.7622 0.33835 0.0
C83 C 0.69396 0.7482 0.32338 0.0
C84 C 0.74881 0.72547 0.3087 0.0
C85 C 0.76833 0.72034 0.29667 0.0
C86 C 0.78453 0.70815 0.31098 0.0
C87 C 0.7814 0.70054 0.33762 0.0
C88 C 0.76139 0.70508 0.34943 0.0
C89 C 0.74522 0.71744 0.33507 0.0
C90 C 0.70888 0.72151 0.26914 0.0
C91 C 0.70394 0.72879 0.2428 0.0
C92 C 0.68981 0.71256 0.22606 0.0
C93 C 0.68005 0.68878 0.23542 0.0
C94 C 0.68436 0.68183 0.26213 0.0
C95 C 0.69873 0.69805 0.27884 0.0
P96 P 0.29285 0.70929 0.29267 0.0
H97 H 0.29959 0.76299 0.28837 0.0
H98 H 0.32422 0.79502 0.31291 0.0
H99 H 0.35171 0.73959 0.36278 0.0
H100 H 0.32634 0.70736 0.33823 0.0
H101 H 0.2775 0.66322 0.26687 0.0
H102 H 0.29772 0.63714 0.24264 0.0
H103 H 0.3632 0.68511 0.25961 0.0
H104 H 0.34287 0.71084 0.28425 0.0
H105 H 0.24936 0.72208 0.30799 0.0
H106 H 0.2863 0.66112 0.32224 0.0
O107 O 0.27982 0.72316 0.26736 0.0
H108 H 0.21641 0.6993 0.33156 0.0
H109 H 0.25302 0.63768 0.34484 0.0
C110 C 0.31132 0.73274 0.31126 0.0
C111 C 0.31092 0.75762 0.30452 0.0
C112 C 0.32518 0.77601 0.31854 0.0
C113 C 0.34021 0.76999 0.33969 0.0
C114 C 0.34028 0.74494 0.3467 0.0
C115 C 0.3259 0.72648 0.33262 0.0
C116 C 0.30871 0.6886 0.27807 0.0
C117 C 0.29629 0.66782 0.26589 0.0
C118 C 0.30785 0.65308 0.25174 0.0
C119 C 0.33212 0.65899 0.24912 0.0
C120 C 0.34457 0.67975 0.26158 0.0
C121 C 0.33294 0.69451 0.27575 0.0
C122 C 0.27001 0.69306 0.31276 0.0
C123 C 0.25035 0.70373 0.31618 0.0
C124 C 0.23142 0.69057 0.3295 0.0
C125 C 0.23174 0.66638 0.33969 0.0
C126 C 0.25207 0.65624 0.33733 0.0
C127 C 0.2711 0.66955 0.32418 0.0
P128 P 0.33416 0.67406 0.69153 0.0
H129 H 0.3095 0.67056 0.64041 0.0
H130 H 0.26874 0.65778 0.62621 0.0
H131 H 0.24987 0.65096 0.70765 0.0
H132 H 0.29109 0.66339 0.72171 0.0
H133 H 0.38045 0.69764 0.67671 0.0
H134 H 0.39761 0.73999 0.66479 0.0
H135 H 0.33229 0.76317 0.67793 0.0
H136 H 0.31506 0.72036 0.68947 0.0
H137 H 0.32118 0.62828 0.723 0.0
H138 H 0.36472 0.69886 0.73381 0.0
O139 O 0.347 0.65702 0.67286 0.0
H140 H 0.33723 0.61253 0.76498 0.0
H141 H 0.3808 0.68324 0.77554 0.0
C142 C 0.30339 0.66752 0.68209 0.0
C143 C 0.29657 0.66651 0.65522 0.0
C144 C 0.27315 0.65937 0.64712 0.0
C145 C 0.25587 0.65321 0.66575 0.0
C146 C 0.2627 0.65518 0.69276 0.0
C147 C 0.28627 0.66237 0.70085 0.0
C148 C 0.34638 0.70579 0.68354 0.0
C149 C 0.36977 0.71181 0.67697 0.0
C150 C 0.37965 0.73613 0.67039 0.0
C151 C 0.36637 0.75509 0.67038 0.0
C152 C 0.34294 0.74901 0.6774 0.0
C153 C 0.33307 0.72457 0.68409 0.0
C154 C 0.34151 0.66482 0.72528 0.0
C155 C 0.33367 0.64061 0.73475 0.0
C156 C 0.34289 0.6316 0.75874 0.0
C157 C 0.36045 0.64657 0.77349 0.0
C158 C 0.3675 0.67115 0.76449 0.0
C159 C 0.35815 0.68017 0.74063 0.0
P160 P 0.3318 0.32599 0.67357 0.0
H161 H 0.3783 0.34704 0.69386 0.0
H162 H 0.39372 0.36183 0.7367 0.0
H163 H 0.32587 0.3377 0.76851 0.0
H164 H 0.31042 0.32341 0.72511 0.0
H165 H 0.31469 0.29529 0.6295 0.0
H166 H 0.32577 0.258 0.61439 0.0
H167 H 0.36976 0.25288 0.68536 0.0
H168 H 0.35885 0.29037 0.70012 0.0
H169 H 0.31198 0.36997 0.66014 0.0
H170 H 0.28609 0.29299 0.67636 0.0
O171 O 0.34739 0.3451 0.65204 0.0
H172 H 0.27232 0.37735 0.65014 0.0
H173 H 0.24597 0.30026 0.66692 0.0
C174 C 0.34314 0.33454 0.70618 0.0
C175 C 0.36674 0.34485 0.71006 0.0
C176 C 0.37559 0.35314 0.73471 0.0
C177 C 0.36104 0.35109 0.75615 0.0
C178 C 0.33749 0.33995 0.75236 0.0
C179 C 0.32864 0.33165 0.72759 0.0
C180 C 0.33567 0.29549 0.6661 0.0
C181 C 0.32622 0.28575 0.64215 0.0
C182 C 0.33258 0.26439 0.63352 0.0
C183 C 0.34879 0.25246 0.64857 0.0
C184 C 0.35748 0.26175 0.67311 0.0
C185 C 0.35106 0.28311 0.68172 0.0
C186 C 0.30201 0.33087 0.66836 0.0
C187 C 0.29767 0.35465 0.66171 0.0
C188 C 0.27489 0.35887 0.65626 0.0
C189 C 0.25583 0.33939 0.65762 0.0
C190 C 0.26022 0.31563 0.66526 0.0
C191 C 0.28314 0.31143 0.67073 0.0
P192 P 0.72531 0.29511 0.72796 0.0
H193 H 0.73254 0.2479 0.71091 0.0
H194 H 0.7088 0.21653 0.6844 0.0
H195 H 0.65615 0.26277 0.67094 0.0
H196 H 0.67997 0.29393 0.69807 0.0
H197 H 0.77008 0.32167 0.74716 0.0
H198 H 0.80337 0.34575 0.7253 0.0
H199 H 0.76719 0.33182 0.64945 0.0
H200 H 0.7336 0.30833 0.67168 0.0
H201 H 0.68416 0.28384 0.75917 0.0
H202 H 0.72964 0.34904 0.73087 0.0
O203 O 0.73664 0.27901 0.75274 0.0
H204 H 0.66425 0.30903 0.78508 0.0
H205 H 0.70975 0.37431 0.75653 0.0
C206 C 0.70784 0.27303 0.70687 0.0
C207 C 0.71588 0.25129 0.70225 0.0
C208 C 0.70232 0.23341 0.68689 0.0
C209 C 0.68043 0.23697 0.67558 0.0
C210 C 0.6727 0.25917 0.67972 0.0
C211 C 0.68635 0.27709 0.69513 0.0
C212 C 0.74954 0.31289 0.71105 0.0
C213 C 0.76935 0.32375 0.72581 0.0
C214 C 0.78845 0.33742 0.71324 0.0
C215 C 0.78817 0.34054 0.68554 0.0
C216 C 0.76802 0.32995 0.6708 0.0
C217 C 0.74883 0.31633 0.68347 0.0
C218 C 0.70832 0.31448 0.74297 0.0
C219 C 0.68956 0.30363 0.75812 0.0
C220 C 0.67819 0.31807 0.77292 0.0
C221 C 0.68549 0.34372 0.77304 0.0
C222 C 0.7039 0.35459 0.75721 0.0
C223 C 0.7152 0.34012 0.74233 0.0
P224 P 0.74804 0.7273 0.69058 0.0
H225 H 0.79324 0.74728 0.66988 0.0
H226 H 0.81891 0.73065 0.64213 0.0
H227 H 0.76852 0.66337 0.63747 0.0
H228 H 0.74248 0.6808 0.66386 0.0
H229 H 0.74228 0.77853 0.6931 0.0
H230 H 0.72043 0.80477 0.66501 0.0
H231 H 0.69551 0.74426 0.6148 0.0
H232 H 0.71721 0.71788 0.64346 0.0
H233 H 0.75652 0.68147 0.71755 0.0
H234 H 0.69907 0.72128 0.70454 0.0
O235 O 0.765 0.74431 0.71265 0.0
H236 H 0.73227 0.64999 0.74443 0.0
H237 H 0.67483 0.68996 0.7316 0.0
C238 C 0.76641 0.71491 0.66968 0.0
C239 C 0.78777 0.72896 0.66283 0.0
C240 C 0.80246 0.71937 0.64704 0.0
C241 C 0.79601 0.69548 0.63789 0.0
C242 C 0.77406 0.68186 0.64401 0.0
C243 C 0.75927 0.69165 0.65948 0.0
C244 C 0.73149 0.74638 0.67017 0.0
C245 C 0.73215 0.77089 0.67606 0.0
C246 C 0.71975 0.78592 0.65987 0.0
C247 C 0.70645 0.77666 0.6375 0.0
C248 C 0.70553 0.75189 0.63193 0.0
C249 C 0.71799 0.73686 0.64818 0.0
C250 C 0.72942 0.70336 0.70849 0.0
C251 C 0.73856 0.68319 0.72006 0.0
C252 C 0.72469 0.6652 0.73536 0.0
C253 C 0.70162 0.66745 0.73986 0.0
C254 C 0.69254 0.68777 0.72836 0.0
C255 C 0.70636 0.70561 0.7128 0.0
Co256 Co 0.05238 0.47316 0.52176 0.0
Co257 Co 0.02831 0.46761 0.47636 0.0
Co258 Co 0.00744 0.50483 0.50814 0.0
O259 O 0.02041 0.4736 0.51039 0.0
H260 H 0.00973 0.45978 0.51762 0.0
O261 O 0.99447 0.53607 0.50556 0.0
Co262 Co 0.96265 0.53647 0.49272 0.0
Co263 Co 0.98518 0.54145 0.53867 0.0
H264 H 0.00539 0.54999 0.49893 0.0
O265 O 0.03587 0.4375 0.46726 0.0
O266 O 0.05989 0.46929 0.48504 0.0
O267 O 0.02729 0.49385 0.44932 0.0
O268 O 0.02937 0.52091 0.48022 0.0
O269 O 0.98353 0.49028 0.48077 0.0
O270 O 0.93427 0.53908 0.47971 0.0
O271 O 0.96579 0.56908 0.48234 0.0
O272 O 0.95489 0.50223 0.50032 0.0
O273 O 0.98562 0.4883 0.53607 0.0
O274 O 0.98384 0.51544 0.56595 0.0
O275 O 0.95458 0.5441 0.52849 0.0
O276 O 0.98255 0.57237 0.54733 0.0
C277 C 0.07133 0.44675 0.53609 0.0
C278 C 0.05308 0.5211 0.53269 0.0
C279 C 0.03323 0.51557 0.45695 0.0
C280 C 0.0568 0.4485 0.47372 0.0
C281 C 0.9439 0.56177 0.47482 0.0
C282 C 0.96179 0.48831 0.48452 0.0
C283 C 0.9801 0.49353 0.55874 0.0
C284 C 0.96095 0.56524 0.53931 0.0
O285 O 0.08112 0.46967 0.5329 0.0
O286 O 0.04918 0.44024 0.52945 0.0
O287 O 0.03126 0.51952 0.53577 0.0
O288 O 0.05994 0.50753 0.51657 0.0
Co289 Co 0.53592 0.9584 0.48887 0.0
Co290 Co 0.54668 0.97626 0.53506 0.0
Co291 Co 0.50906 0.00507 0.50578 0.0
O292 O 0.53772 0.99018 0.5029 0.0
H293 H 0.55056 1.00195 0.49622 0.0
O294 O 0.48068 0.02069 0.50823 0.0
Co295 Co 0.48393 0.05435 0.51842 0.0
Co296 Co 0.47145 0.03165 0.47416 0.0
H297 H 0.46799 0.00982 0.51644 0.0
O298 O 0.57726 0.97218 0.54194 0.0
O299 O 0.54797 0.94554 0.52321 0.0
O300 O 0.52441 0.97061 0.56208 0.0
O301 O 0.49573 0.98166 0.53569 0.0
O302 O 0.5274 0.02838 0.53146 0.0
O303 O 0.48453 0.08454 0.52877 0.0
O304 O 0.45413 0.05319 0.52828 0.0
O305 O 0.51555 0.06019 0.51049 0.0
O306 O 0.52208 0.02829 0.47577 0.0
O307 O 0.49278 0.0317 0.44654 0.0
O308 O 0.47503 0.06447 0.48195 0.0
O309 O 0.4423 0.04107 0.46607 0.0
C310 C 0.55727 0.94046 0.46899 0.0
C311 C 0.48972 0.95816 0.48414 0.0
C312 C 0.50288 0.97083 0.55681 0.0
C313 C 0.56948 0.95079 0.53254 0.0
C314 C 0.46292 0.07589 0.53368 0.0
C315 C 0.52953 0.05162 0.52716 0.0
C316 C 0.51445 0.03513 0.45288 0.0
C317 C 0.45366 0.06244 0.47234 0.0
O318 O 0.53633 0.92991 0.47476 0.0
O319 O 0.56507 0.96284 0.47626 0.0
O320 O 0.49075 0.98141 0.48045 0.0
O321 O 0.50505 0.94986 0.49923 0.0
Co322 Co 0.48369 0.51437 0.06656 0.0
Co323 Co 0.47153 0.47072 0.04733 0.0
Co324 Co 0.5118 0.50261 0.013 0.0
O325 O 0.48245 0.50178 0.03194 0.0
H326 H 0.47023 0.50713 0.02053 0.0
O327 O 0.54146 0.50359 0.99466 0.0
Co328 Co 0.54166 0.48802 0.96228 0.0
Co329 Co 0.55047 0.53223 0.97529 0.0
H330 H 0.55409 0.5004 0.00689 0.0
O331 O 0.44111 0.46121 0.05952 0.0
O332 O 0.47261 0.4811 0.08145 0.0
O333 O 0.49286 0.44779 0.04871 0.0
O334 O 0.52329 0.47578 0.03652 0.0
O335 O 0.49394 0.47759 0.98879 0.0
O336 O 0.54365 0.47214 0.93354 0.0
O337 O 0.57047 0.47956 0.96724 0.0
O338 O 0.51139 0.49425 0.95307 0.0
O339 O 0.49969 0.52902 0.98914 0.0
O340 O 0.52803 0.55342 0.96817 0.0
O341 O 0.55544 0.51961 0.94364 0.0
O342 O 0.58113 0.54384 0.97036 0.0
C343 C 0.46139 0.52922 0.08834 0.0
C344 C 0.53058 0.52441 0.06205 0.0
C345 C 0.51467 0.4547 0.04685 0.0
C346 C 0.45103 0.47017 0.08121 0.0
C347 C 0.5638 0.46959 0.94473 0.0
C348 C 0.4942 0.48062 0.96368 0.0
C349 C 0.5068 0.5476 0.9737 0.0
C350 C 0.57564 0.53374 0.94785 0.0
O351 O 0.48217 0.52672 0.09773 0.0
O352 O 0.45438 0.52164 0.06484 0.0
O353 O 0.52986 0.5278 0.03696 0.0
O354 O 0.51465 0.50918 0.07288 0.0
H355 H 0.22815 0.33971 0.45024 0.0
H356 H 0.19004 0.35246 0.45305 0.0
H357 H 0.20629 0.40622 0.38896 0.0
H358 H 0.24401 0.39308 0.38551 0.0
H359 H 0.19673 0.41995 0.44728 0.0
H360 H 0.16817 0.37437 0.37061 0.0
H361 H 0.16009 0.33729 0.34468 0.0
H362 H 0.11585 0.29982 0.40426 0.0
H363 H 0.12394 0.33655 0.43075 0.0
H364 H 0.09643 0.47449 0.45463 0.0
H365 H 0.12994 0.45873 0.44049 0.0
H366 H 0.09737 0.38485 0.4635 0.0
H367 H 0.06295 0.40061 0.47599 0.0
H368 H 0.11562 0.38227 0.42104 0.0
H369 H 0.14863 0.42474 0.50088 0.0
H370 H 0.1596 0.46045 0.52904 0.0
H371 H 0.19586 0.50212 0.46567 0.0
H372 H 0.18571 0.46665 0.43743 0.0
C373 C 0.22325 0.35376 0.43632 0.0
C374 C 0.23888 0.36541 0.41763 0.0
C375 C 0.20154 0.36094 0.43786 0.0
C376 C 0.19544 0.38009 0.42105 0.0
C377 C 0.21066 0.39115 0.40179 0.0
C378 C 0.23212 0.38363 0.39985 0.0
C379 C 0.17501 0.39108 0.42635 0.0
C380 C 0.17895 0.41195 0.44133 0.0
C381 C 0.15199 0.38024 0.41883 0.0
C382 C 0.14702 0.35813 0.40291 0.0
C383 C 0.157 0.35812 0.37838 0.0
C384 C 0.15232 0.33719 0.36352 0.0
C385 C 0.13756 0.31617 0.37288 0.0
C386 C 0.12735 0.31609 0.39707 0.0
C387 C 0.13198 0.33698 0.41202 0.0
C388 C 0.09652 0.45488 0.45675 0.0
C389 C 0.07724 0.43869 0.46639 0.0
C390 C 0.11577 0.44588 0.44882 0.0
C391 C 0.11657 0.4206 0.45135 0.0
C392 C 0.09728 0.40443 0.46129 0.0
C393 C 0.07764 0.41338 0.46847 0.0
C394 C 0.13713 0.41094 0.44293 0.0
C395 C 0.13331 0.39043 0.42708 0.0
C396 C 0.16039 0.42189 0.44998 0.0
C397 C 0.16621 0.44317 0.46701 0.0
C398 C 0.15887 0.44156 0.49299 0.0
C399 C 0.16498 0.4617 0.50895 0.0
C400 C 0.17819 0.48352 0.49908 0.0
C401 C 0.18558 0.48522 0.47329 0.0
C402 C 0.17979 0.46509 0.45737 0.0
H403 H 0.18279 0.49908 0.51146 0.0
H404 H 0.13395 0.29998 0.36133 0.0
H405 H 0.6788 0.19954 0.36118 0.0
H406 H 0.65298 0.16435 0.38076 0.0
H407 H 0.59305 0.19214 0.34519 0.0
H408 H 0.6188 0.22739 0.32538 0.0
H409 H 0.58541 0.17522 0.39516 0.0
H410 H 0.61297 0.14498 0.31875 0.0
H411 H 0.64239 0.13706 0.28893 0.0
H412 H 0.67197 0.09383 0.35072 0.0
H413 H 0.64292 0.1018 0.38105 0.0
H414 H 0.50319 0.06585 0.4117 0.0
H415 H 0.52939 0.09897 0.38933 0.0
H416 H 0.58845 0.0767 0.43335 0.0
H417 H 0.56232 0.04358 0.45618 0.0
H418 H 0.59618 0.0904 0.37872 0.0
H419 H 0.56842 0.12103 0.45507 0.0
H420 H 0.53862 0.12876 0.48444 0.0
H421 H 0.50905 0.17131 0.42224 0.0
H422 H 0.53831 0.1634 0.39213 0.0
C423 C 0.66013 0.19813 0.35738 0.0
C424 C 0.65092 0.21624 0.3415 0.0
C425 C 0.64538 0.17799 0.36863 0.0
C426 C 0.62106 0.17536 0.36414 0.0
C427 C 0.61175 0.19373 0.34892 0.0
C428 C 0.62651 0.21393 0.33767 0.0
C429 C 0.6054 0.15332 0.37511 0.0
C430 C 0.58758 0.1567 0.39123 0.0
C431 C 0.60846 0.12908 0.37045 0.0
C432 C 0.62591 0.12419 0.35225 0.0
C433 C 0.62587 0.13395 0.32605 0.0
C434 C 0.64246 0.12943 0.30904 0.0
C435 C 0.65908 0.115 0.31795 0.0
C436 C 0.65911 0.10503 0.34386 0.0
C437 C 0.64257 0.10953 0.36097 0.0
C438 C 0.52178 0.06758 0.41627 0.0
C439 C 0.53062 0.05204 0.43584 0.0
C440 C 0.53672 0.08667 0.40356 0.0
C441 C 0.56081 0.09047 0.40993 0.0
C442 C 0.56989 0.07411 0.42822 0.0
C443 C 0.55493 0.05518 0.44123 0.0
C444 C 0.57628 0.11237 0.39866 0.0
C445 C 0.59404 0.10896 0.38254 0.0
C446 C 0.57311 0.13656 0.40324 0.0
C447 C 0.55539 0.14133 0.42122 0.0
C448 C 0.55537 0.13176 0.4475 0.0
C449 C 0.53855 0.13616 0.46428 0.0
C450 C 0.52178 0.15028 0.45512 0.0
C451 C 0.52188 0.16016 0.42918 0.0
C452 C 0.53859 0.15574 0.41224 0.0
H453 H 0.50879 0.1537 0.46815 0.0
H454 H 0.6719 0.11151 0.30475 0.0
H455 H 0.82906 0.7124 0.33757 0.0
H456 H 0.858 0.69107 0.3614 0.0
H457 H 0.80269 0.63883 0.39578 0.0
H458 H 0.77366 0.66026 0.37217 0.0
H459 H 0.8358 0.65086 0.43179 0.0
H460 H 0.83303 0.62512 0.34318 0.0
H461 H 0.835 0.63058 0.2948 0.0
H462 H 0.90599 0.6677 0.30362 0.0
H463 H 0.90433 0.66274 0.35209 0.0
H464 H 0.91194 0.55041 0.43491 0.0
H465 H 0.88578 0.57607 0.41267 0.0
H466 H 0.91568 0.63593 0.46128 0.0
H467 H 0.94267 0.61035 0.48343 0.0
H468 H 0.89649 0.62127 0.38404 0.0
H469 H 0.86331 0.66206 0.47495 0.0
H470 H 0.85167 0.65046 0.52047 0.0
H471 H 0.84491 0.57407 0.50474 0.0
H472 H 0.85598 0.58515 0.459 0.0
C473 C 0.82305 0.69629 0.35011 0.0
C474 C 0.79901 0.68795 0.35282 0.0
C475 C 0.83964 0.6841 0.36374 0.0
C476 C 0.8326 0.6631 0.38016 0.0
C477 C 0.80861 0.655 0.38328 0.0
C478 C 0.79201 0.66729 0.36979 0.0
C479 C 0.85014 0.64946 0.39399 0.0
C480 C 0.84924 0.64464 0.42137 0.0
C481 C 0.86741 0.64083 0.38037 0.0
C482 C 0.86847 0.6438 0.35125 0.0
C483 C 0.849 0.63462 0.3348 0.0
C484 C 0.85007 0.63759 0.30736 0.0
C485 C 0.87059 0.64955 0.29614 0.0
C486 C 0.8901 0.65849 0.31234 0.0
C487 C 0.88911 0.65559 0.33979 0.0
C488 C 0.91316 0.56915 0.44073 0.0
C489 C 0.9295 0.57848 0.4607 0.0
C490 C 0.89819 0.58378 0.42799 0.0
C491 C 0.89877 0.6079 0.43538 0.0
C492 C 0.91503 0.61735 0.45539 0.0
C493 C 0.9305 0.60284 0.46781 0.0
C494 C 0.88228 0.62294 0.4219 0.0
C495 C 0.8834 0.62801 0.39455 0.0
C496 C 0.86482 0.63123 0.43544 0.0
C497 C 0.86086 0.62447 0.46366 0.0
C498 C 0.8596 0.64279 0.4813 0.0
C499 C 0.85297 0.6363 0.50709 0.0
C500 C 0.84756 0.61155 0.51545 0.0
C501 C 0.84917 0.59323 0.49822 0.0
C502 C 0.85573 0.59961 0.47239 0.0
H503 H 0.84189 0.60655 0.53517 0.0
H504 H 0.87139 0.65183 0.2749 0.0
H505 H 0.3511 0.77192 0.3931 0.0
H506 H 0.3755 0.80531 0.41658 0.0
H507 H 0.38808 0.8468 0.34275 0.0
H508 H 0.36449 0.81321 0.31909 0.0
H509 H 0.42744 0.84987 0.37265 0.0
H510 H 0.34799 0.85902 0.38587 0.0
H511 H 0.30783 0.8454 0.40005 0.0
H512 H 0.33418 0.83238 0.47943 0.0
H513 H 0.37452 0.84559 0.46566 0.0
H514 H 0.4501 0.96638 0.45481 0.0
H515 H 0.42291 0.93638 0.42902 0.0
H516 H 0.46375 0.88031 0.4535 0.0
H517 H 0.49037 0.90955 0.47948 0.0
H518 H 0.3963 0.8883 0.44562 0.0
H519 H 0.4691 0.8496 0.40001 0.0
H520 H 0.51036 0.8641 0.39005 0.0
H521 H 0.49681 0.93777 0.37616 0.0
H522 H 0.45547 0.92368 0.38567 0.0
C523 C 0.35927 0.78802 0.38181 0.0
C524 C 0.35564 0.78989 0.35418 0.0
C525 C 0.37303 0.80724 0.39531 0.0
C526 C 0.38336 0.8288 0.3815 0.0
C527 C 0.3802 0.83046 0.35389 0.0
C528 C 0.36651 0.81128 0.3404 0.0
C529 C 0.39748 0.84966 0.39569 0.0
C530 C 0.42052 0.85828 0.38849 0.0
C531 C 0.38855 0.86086 0.41636 0.0
C532 C 0.36428 0.85307 0.42466 0.0
C533 C 0.34523 0.85308 0.40631 0.0
C534 C 0.32243 0.84545 0.41428 0.0
C535 C 0.31846 0.83796 0.44061 0.0
C536 C 0.33728 0.83815 0.45904 0.0
C537 C 0.36011 0.84571 0.45116 0.0
C538 C 0.45317 0.94762 0.45475 0.0
C539 C 0.47252 0.94046 0.46907 0.0
C540 C 0.43761 0.93052 0.44011 0.0
C541 C 0.44148 0.9062 0.43918 0.0
C542 C 0.46059 0.89903 0.4537 0.0
C543 C 0.47581 0.91587 0.46859 0.0
C544 C 0.42609 0.88813 0.42267 0.0
C545 C 0.40298 0.87998 0.42953 0.0
C546 C 0.43489 0.87736 0.4017 0.0
C547 C 0.45923 0.88559 0.39371 0.0
C548 C 0.47486 0.86883 0.39449 0.0
C549 C 0.49828 0.87699 0.38902 0.0
C550 C 0.5062 0.90185 0.38264 0.0
C551 C 0.49067 0.91854 0.38122 0.0
C552 C 0.46725 0.91047 0.38664 0.0
H553 H 0.52439 0.90822 0.37892 0.0
H554 H 0.3008 0.83207 0.44674 0.0
H555 H 0.225 0.61587 0.68898 0.0
H556 H 0.18668 0.59659 0.67128 0.0
H557 H 0.19297 0.64816 0.60396 0.0
H558 H 0.23077 0.66827 0.62213 0.0
H559 H 0.14852 0.63784 0.61695 0.0
H560 H 0.20901 0.59117 0.60217 0.0
H561 H 0.24106 0.56849 0.61553 0.0
H562 H 0.19497 0.51745 0.66348 0.0
H563 H 0.16271 0.54006 0.65066 0.0
H564 H 0.0995 0.53205 0.52467 0.0
H565 H 0.13 0.5569 0.55081 0.0
H566 H 0.07867 0.57353 0.60154 0.0
H567 H 0.04758 0.54851 0.57502 0.0
H568 H 0.1434 0.54944 0.60072 0.0
H569 H 0.10171 0.63141 0.62686 0.0
H570 H 0.07151 0.65501 0.60895 0.0
H571 H 0.08283 0.63672 0.53034 0.0
H572 H 0.11328 0.6133 0.54776 0.0
C573 C 0.21801 0.62357 0.67077 0.0
C574 C 0.23124 0.64346 0.65683 0.0
C575 C 0.19612 0.61236 0.66053 0.0
C576 C 0.18708 0.62058 0.63598 0.0
C577 C 0.19957 0.64135 0.62284 0.0
C578 C 0.22137 0.65267 0.63314 0.0
C579 C 0.16578 0.60635 0.62281 0.0
C580 C 0.1473 0.61845 0.61363 0.0
C581 C 0.16421 0.58111 0.61807 0.0
C582 C 0.18354 0.56746 0.62571 0.0
C583 C 0.20576 0.57521 0.61571 0.0
C584 C 0.22396 0.56236 0.62316 0.0
C585 C 0.22007 0.54158 0.64041 0.0
C586 C 0.19796 0.53358 0.65017 0.0
C587 C 0.17972 0.5464 0.64282 0.0
C588 C 0.09452 0.54104 0.54128 0.0
C589 C 0.07101 0.5381 0.54782 0.0
C590 C 0.11208 0.55524 0.55629 0.0
C591 C 0.10674 0.56701 0.57826 0.0
C592 C 0.08323 0.56472 0.58458 0.0
C593 C 0.06548 0.55042 0.56943 0.0
C594 C 0.12616 0.58092 0.59466 0.0
C595 C 0.14435 0.56872 0.60448 0.0
C596 C 0.12763 0.60613 0.5994 0.0
C597 C 0.10954 0.62035 0.58867 0.0
C598 C 0.09777 0.63248 0.60576 0.0
C599 C 0.08062 0.64582 0.59569 0.0
C600 C 0.07519 0.64728 0.56854 0.0
C601 C 0.08697 0.63549 0.55138 0.0
C602 C 0.10415 0.62214 0.56135 0.0
H603 H 0.06189 0.6576 0.56079 0.0
H604 H 0.23418 0.53165 0.64615 0.0
H605 H 0.3248 0.21364 0.62102 0.0
H606 H 0.34102 0.18194 0.60024 0.0
H607 H 0.40994 0.21297 0.6306 0.0
H608 H 0.39398 0.24484 0.65089 0.0
H609 H 0.41095 0.20552 0.58037 0.0
H610 H 0.3777 0.15691 0.65557 0.0
H611 H 0.34588 0.13899 0.68444 0.0
H612 H 0.30748 0.10281 0.61887 0.0
H613 H 0.33897 0.12077 0.58953 0.0
H614 H 0.47881 0.11585 0.56217 0.0
H615 H 0.4566 0.14429 0.57931 0.0
H616 H 0.39284 0.10298 0.54594 0.0
H617 H 0.41519 0.07362 0.52952 0.0
H618 H 0.38525 0.11547 0.59261 0.0
H619 H 0.42095 0.15986 0.51916 0.0
H620 H 0.45052 0.18031 0.48858 0.0
H621 H 0.48458 0.22498 0.55051 0.0
H622 H 0.4548 0.2053 0.58112 0.0
C623 C 0.34341 0.21367 0.6233 0.0
C624 C 0.35806 0.23182 0.63768 0.0
C625 C 0.35266 0.19543 0.61151 0.0
C626 C 0.37675 0.19502 0.61375 0.0
C627 C 0.3913 0.21287 0.62849 0.0
C628 C 0.3821 0.23099 0.64034 0.0
C629 C 0.38722 0.17686 0.59988 0.0
C630 C 0.4056 0.1858 0.58339 0.0
C631 C 0.37946 0.15116 0.60272 0.0
C632 C 0.36057 0.14036 0.62033 0.0
C633 C 0.36238 0.14528 0.64728 0.0
C634 C 0.34443 0.13509 0.66373 0.0
C635 C 0.32464 0.11983 0.65348 0.0
C636 C 0.3228 0.11467 0.62677 0.0
C637 C 0.3407 0.12482 0.61023 0.0
C638 C 0.46004 0.11274 0.55847 0.0
C639 C 0.44875 0.09244 0.54452 0.0
C640 C 0.44734 0.1292 0.56812 0.0
C641 C 0.42302 0.12621 0.56351 0.0
C642 C 0.41159 0.10578 0.54974 0.0
C643 C 0.42434 0.08897 0.54041 0.0
C644 C 0.40972 0.14411 0.57386 0.0
C645 C 0.39068 0.13516 0.58953 0.0
C646 C 0.4169 0.16992 0.57029 0.0
C647 C 0.43554 0.18106 0.55234 0.0
C648 C 0.43473 0.17402 0.52616 0.0
C649 C 0.45152 0.18548 0.50885 0.0
C650 C 0.4695 0.20379 0.51763 0.0
C651 C 0.47064 0.21078 0.54371 0.0
C652 C 0.4537 0.19957 0.561 0.0
H653 H 0.48251 0.21261 0.50421 0.0
H654 H 0.31076 0.11195 0.66625 0.0
H655 H 0.83458 0.34075 0.69884 0.0
H656 H 0.8684 0.365 0.67798 0.0
H657 H 0.82273 0.39646 0.62094 0.0
H658 H 0.78873 0.37259 0.64197 0.0
H659 H 0.85908 0.38266 0.59776 0.0
H660 H 0.84878 0.42924 0.67174 0.0
H661 H 0.84445 0.43577 0.71863 0.0
H662 H 0.91181 0.41634 0.73852 0.0
H663 H 0.91641 0.40936 0.69175 0.0
H664 H 0.93424 0.48554 0.54602 0.0
H665 H 0.90335 0.45737 0.56787 0.0
H666 H 0.95454 0.43372 0.62405 0.0
H667 H 0.98564 0.4626 0.60217 0.0
H668 H 0.91724 0.44092 0.64847 0.0
H669 H 0.92856 0.39733 0.57315 0.0
H670 H 0.93229 0.391 0.52606 0.0
H671 H 0.86265 0.40491 0.50835 0.0
H672 H 0.85861 0.41177 0.55524 0.0
C673 C 0.83166 0.35301 0.68202 0.0
C674 C 0.80884 0.35479 0.67224 0.0
C675 C 0.85107 0.36681 0.67005 0.0
C676 C 0.84813 0.38275 0.64804 0.0
C677 C 0.82543 0.38425 0.63789 0.0
C678 C 0.80599 0.3705 0.6499 0.0
C679 C 0.86871 0.39792 0.63563 0.0
C680 C 0.87167 0.39559 0.60876 0.0
C681 C 0.88552 0.41428 0.65018 0.0
C682 C 0.88282 0.41851 0.67829 0.0
C683 C 0.86259 0.42616 0.68614 0.0
C684 C 0.8601 0.42998 0.71269 0.0
C685 C 0.87781 0.4264 0.73156 0.0
C686 C 0.89809 0.41906 0.72389 0.0
C687 C 0.90065 0.41518 0.69736 0.0
C688 C 0.93889 0.47413 0.56288 0.0
C689 C 0.96222 0.47589 0.57229 0.0
C690 C 0.92125 0.45799 0.57533 0.0
C691 C 0.9266 0.44299 0.59733 0.0
C692 C 0.94999 0.44496 0.607 0.0
C693 C 0.96773 0.46134 0.59453 0.0
C694 C 0.90753 0.42588 0.61044 0.0
C695 C 0.90481 0.42783 0.63746 0.0
C696 C 0.8909 0.40919 0.596 0.0
C697 C 0.89334 0.40519 0.56773 0.0
C698 C 0.9141 0.39923 0.55919 0.0
C699 C 0.91626 0.39552 0.53254 0.0
C700 C 0.8977 0.39751 0.51427 0.0
C701 C 0.87698 0.40332 0.52256 0.0
C702 C 0.87475 0.40712 0.54917 0.0
H703 H 0.89933 0.39453 0.49369 0.0
H704 H 0.87586 0.42938 0.7521 0.0
H705 H 0.66194 0.76598 0.61543 0.0
H706 H 0.63991 0.79418 0.59001 0.0
H707 H 0.69975 0.85218 0.59557 0.0
H708 H 0.7219 0.82414 0.62066 0.0
H709 H 0.66018 0.86519 0.61217 0.0
H710 H 0.68273 0.82448 0.53951 0.0
H711 H 0.68532 0.78814 0.51484 0.0
H712 H 0.61068 0.77294 0.50345 0.0
H713 H 0.60752 0.80845 0.52928 0.0
H714 H 0.6168 0.95813 0.53954 0.0
H715 H 0.64145 0.92694 0.54899 0.0
H716 H 0.58135 0.86977 0.53929 0.0
H717 H 0.5566 0.901 0.52896 0.0
H718 H 0.62088 0.85559 0.52306 0.0
H719 H 0.59704 0.88986 0.59939 0.0
H720 H 0.59169 0.92317 0.6274 0.0
H721 H 0.66583 0.94785 0.63317 0.0
H722 H 0.67159 0.91487 0.60485 0.0
C723 C 0.67052 0.78461 0.61079 0.0
C724 C 0.69358 0.79292 0.62027 0.0
C725 C 0.65792 0.80068 0.59629 0.0
C726 C 0.66824 0.82523 0.5909 0.0
C727 C 0.69146 0.83332 0.59962 0.0
C728 C 0.70403 0.81732 0.61407 0.0
C729 C 0.6544 0.84312 0.5781 0.0
C730 C 0.65193 0.86327 0.5925 0.0
C731 C 0.64292 0.84005 0.55282 0.0
C732 C 0.64487 0.819 0.53672 0.0
C733 C 0.66682 0.81321 0.53212 0.0
C734 C 0.66839 0.79269 0.51799 0.0
C735 C 0.64818 0.77821 0.50762 0.0
C736 C 0.62633 0.78415 0.51152 0.0
C737 C 0.62463 0.8044 0.52605 0.0
C738 C 0.60887 0.93892 0.539 0.0
C739 C 0.58469 0.93197 0.53423 0.0
C740 C 0.62299 0.92113 0.54431 0.0
C741 C 0.61311 0.89608 0.54552 0.0
C742 C 0.58928 0.88902 0.53865 0.0
C743 C 0.57515 0.90687 0.53293 0.0
C744 C 0.62704 0.87772 0.55708 0.0
C745 C 0.62936 0.8575 0.54261 0.0
C746 C 0.63811 0.88033 0.58257 0.0
C747 C 0.63473 0.90006 0.59979 0.0
C748 C 0.61219 0.90249 0.60649 0.0
C749 C 0.60908 0.9213 0.62243 0.0
C750 C 0.62841 0.93766 0.632 0.0
C751 C 0.65088 0.93519 0.6257 0.0
C752 C 0.65408 0.91644 0.60972 0.0
H753 H 0.62597 0.95221 0.64434 0.0
H754 H 0.64946 0.76246 0.49648 0.0
H755 H 0.33759 0.24315 0.44221 0.0
H756 H 0.35063 0.20338 0.44906 0.0
H757 H 0.42232 0.24022 0.45258 0.0
H758 H 0.40946 0.27992 0.44509 0.0
H759 H 0.416 0.20381 0.4195 0.0
H760 H 0.39806 0.21308 0.5082 0.0
H761 H 0.3746 0.22039 0.54483 0.0
H762 H 0.32345 0.15735 0.52547 0.0
H763 H 0.34646 0.14983 0.4885 0.0
H764 H 0.47532 0.11016 0.47175 0.0
H765 H 0.45751 0.14682 0.46442 0.0
H766 H 0.38932 0.10166 0.45727 0.0
H767 H 0.40717 0.06462 0.46424 0.0
H768 H 0.38998 0.13982 0.48903 0.0
H769 H 0.41455 0.1284 0.40419 0.0
H770 H 0.44113 0.12183 0.37041 0.0
H771 H 0.48438 0.19118 0.38588 0.0
H772 H 0.45862 0.19775 0.42056 0.0
C773 C 0.35613 0.24275 0.44444 0.0
C774 C 0.3725 0.26467 0.443 0.0
C775 C 0.36354 0.22004 0.44864 0.0
C776 C 0.38744 0.21886 0.45146 0.0
C777 C 0.40379 0.24073 0.45048 0.0
C778 C 0.39641 0.26341 0.44637 0.0
C779 C 0.39552 0.19481 0.45372 0.0
C780 C 0.41071 0.19 0.43504 0.0
C781 C 0.38788 0.17647 0.4734 0.0
C782 C 0.37373 0.1812 0.49524 0.0
C783 C 0.38163 0.201 0.5115 0.0
C784 C 0.36847 0.20512 0.53239 0.0
C785 C 0.34746 0.18948 0.53731 0.0
C786 C 0.33967 0.16953 0.52153 0.0
C787 C 0.35276 0.16533 0.5006 0.0
C788 C 0.45652 0.10798 0.46862 0.0
C789 C 0.44263 0.08452 0.46839 0.0
C790 C 0.44636 0.12898 0.46438 0.0
C791 C 0.4221 0.12696 0.46007 0.0
C792 C 0.40809 0.10358 0.4604 0.0
C793 C 0.41831 0.08248 0.46429 0.0
C794 C 0.41147 0.14939 0.45572 0.0
C795 C 0.39537 0.15369 0.47357 0.0
C796 C 0.41889 0.16757 0.43579 0.0
C797 C 0.43471 0.16346 0.41523 0.0
C798 C 0.42991 0.1421 0.40071 0.0
C799 C 0.44486 0.13836 0.38139 0.0
C800 C 0.46449 0.15602 0.37609 0.0
C801 C 0.46921 0.17747 0.39008 0.0
C802 C 0.45449 0.18116 0.40966 0.0
H803 H 0.47602 0.15312 0.36109 0.0
H804 H 0.33718 0.19281 0.55331 0.0
H805 H 0.77443 0.35582 0.38908 0.0
H806 H 0.80795 0.37802 0.41416 0.0
H807 H 0.84599 0.39267 0.3431 0.0
H808 H 0.81278 0.37001 0.31803 0.0
H809 H 0.87337 0.37851 0.38452 0.0
H810 H 0.8215 0.4371 0.36761 0.0
H811 H 0.78408 0.45215 0.36781 0.0
H812 H 0.78523 0.44307 0.45237 0.0
H813 H 0.82252 0.42763 0.45264 0.0
H814 H 0.9642 0.47098 0.43551 0.0
H815 H 0.93284 0.44584 0.40994 0.0
H816 H 0.88842 0.44036 0.47582 0.0
H817 H 0.91924 0.46633 0.50077 0.0
H818 H 0.86442 0.44961 0.43568 0.0
H819 H 0.91624 0.39067 0.45315 0.0
H820 H 0.95346 0.37524 0.45321 0.0
H821 H 0.95255 0.38404 0.36864 0.0
H822 H 0.91543 0.39983 0.36816 0.0
C823 C 0.78997 0.36364 0.37881 0.0
C824 C 0.79082 0.36126 0.35149 0.0
C825 C 0.80908 0.37647 0.39315 0.0
C826 C 0.82944 0.38723 0.38048 0.0
C827 C 0.83046 0.38459 0.3533 0.0
C828 C 0.81135 0.37184 0.33894 0.0
C829 C 0.84957 0.40144 0.3955 0.0
C830 C 0.87152 0.39422 0.39554 0.0
C831 C 0.84707 0.42165 0.41025 0.0
C832 C 0.82468 0.43098 0.41012 0.0
C833 C 0.81368 0.43812 0.38623 0.0
C834 C 0.79251 0.44676 0.38626 0.0
C835 C 0.78225 0.4485 0.41008 0.0
C836 C 0.79318 0.44167 0.43393 0.0
C837 C 0.81434 0.433 0.434 0.0
C838 C 0.94784 0.46406 0.4446 0.0
C839 C 0.94415 0.47064 0.4701 0.0
C840 C 0.9299 0.44956 0.43003 0.0
C841 C 0.90819 0.44076 0.44098 0.0
C842 C 0.90489 0.44683 0.46679 0.0
C843 C 0.92257 0.46167 0.48111 0.0
C844 C 0.88838 0.42647 0.4253 0.0
C845 C 0.86641 0.43379 0.42493 0.0
C846 C 0.89089 0.40626 0.41041 0.0
C847 C 0.91316 0.39666 0.41067 0.0
C848 C 0.92405 0.38947 0.43461 0.0
C849 C 0.94512 0.38064 0.4347 0.0
C850 C 0.9554 0.37872 0.41094 0.0
C851 C 0.94458 0.38557 0.38704 0.0
C852 C 0.92351 0.39444 0.38684 0.0
H853 H 0.97172 0.37189 0.41105 0.0
H854 H 0.76587 0.4552 0.41006 0.0
H855 H 0.70758 0.82799 0.36904 0.0
H856 H 0.68622 0.85467 0.39071 0.0
H857 H 0.62118 0.80862 0.36822 0.0
H858 H 0.64232 0.78272 0.34498 0.0
H859 H 0.61693 0.85437 0.35958 0.0
H860 H 0.64848 0.80884 0.43197 0.0
H861 H 0.67995 0.79315 0.45864 0.0
H862 H 0.71143 0.86683 0.47656 0.0
H863 H 0.6807 0.88309 0.44903 0.0
H864 H 0.5429 0.89812 0.44355 0.0
H865 H 0.56653 0.87348 0.42231 0.0
H866 H 0.62855 0.92554 0.44182 0.0
H867 H 0.60483 0.95038 0.46361 0.0
H868 H 0.63538 0.87824 0.45205 0.0
H869 H 0.60517 0.92365 0.37842 0.0
H870 H 0.5752 0.93975 0.34947 0.0
H871 H 0.54107 0.8661 0.335 0.0
H872 H 0.57073 0.84955 0.36405 0.0
C873 C 0.68872 0.82358 0.36842 0.0
C874 C 0.67677 0.8031 0.35505 0.0
C875 C 0.6765 0.83875 0.3812 0.0
C876 C 0.65203 0.83358 0.38147 0.0
C877 C 0.64005 0.81303 0.36841 0.0
C878 C 0.65224 0.798 0.35535 0.0
C879 C 0.63883 0.84995 0.39462 0.0
C880 C 0.6208 0.85926 0.37993 0.0
C881 C 0.64424 0.85703 0.42099 0.0
C882 C 0.66243 0.84722 0.43808 0.0
C883 C 0.66224 0.82174 0.44133 0.0
C884 C 0.68 0.81275 0.45654 0.0
C885 C 0.69773 0.82899 0.4692 0.0
C886 C 0.69773 0.85428 0.46666 0.0
C887 C 0.6802 0.8634 0.45115 0.0
C888 C 0.56157 0.90446 0.44332 0.0
C889 C 0.57197 0.92634 0.45519 0.0
C890 C 0.57506 0.89035 0.43101 0.0
C891 C 0.59931 0.89775 0.43014 0.0
C892 C 0.60985 0.91951 0.44213 0.0
C893 C 0.59628 0.93377 0.45442 0.0
C894 C 0.6135 0.88245 0.417 0.0
C895 C 0.63163 0.87333 0.43169 0.0
C896 C 0.6082 0.87546 0.39066 0.0
C897 C 0.59011 0.88537 0.37353 0.0
C898 C 0.59118 0.91089 0.36922 0.0
C899 C 0.5743 0.92009 0.35271 0.0
C900 C 0.55631 0.90396 0.34029 0.0
C901 C 0.55508 0.87858 0.3445 0.0
C902 C 0.57194 0.86927 0.36097 0.0
H903 H 0.54325 0.91112 0.32754 0.0
H904 H 0.71139 0.82197 0.4811 0.0
H905 H 0.18569 0.66577 0.32422 0.0
H906 H 0.15124 0.64119 0.3434 0.0
H907 H 0.19521 0.60807 0.40102 0.0
H908 H 0.22987 0.63308 0.38238 0.0
H909 H 0.16139 0.57385 0.37806 0.0
H910 H 0.16535 0.65041 0.41909 0.0
H911 H 0.16782 0.69528 0.42048 0.0
H912 H 0.10303 0.69113 0.37458 0.0
H913 H 0.10034 0.64624 0.37259 0.0
H914 H 0.07905 0.51949 0.46937 0.0
H915 H 0.11145 0.54545 0.44761 0.0
H916 H 0.06268 0.57389 0.39188 0.0
H917 H 0.02994 0.54762 0.41394 0.0
H918 H 0.0976 0.61055 0.41154 0.0
H919 H 0.09266 0.53345 0.3726 0.0
H920 H 0.09057 0.48867 0.37089 0.0
H921 H 0.15744 0.49375 0.41253 0.0
H922 H 0.15972 0.53849 0.41509 0.0
C923 C 0.18812 0.65361 0.34127 0.0
C924 C 0.21069 0.65159 0.35181 0.0
C925 C 0.16834 0.63945 0.35213 0.0
C926 C 0.1706 0.6229 0.37377 0.0
C927 C 0.19304 0.62069 0.38429 0.0
C928 C 0.21286 0.63496 0.37352 0.0
C929 C 0.14958 0.60756 0.38508 0.0
C930 C 0.14759 0.58187 0.3857 0.0
C931 C 0.13121 0.61802 0.3943 0.0
C932 C 0.13278 0.645 0.39544 0.0
C933 C 0.15174 0.65909 0.40908 0.0
C934 C 0.15315 0.68452 0.41003 0.0
C935 C 0.13562 0.69606 0.39756 0.0
C936 C 0.11661 0.68218 0.38418 0.0
C937 C 0.11513 0.65673 0.38316 0.0
C938 C 0.07525 0.53133 0.45251 0.0
C939 C 0.05211 0.53169 0.44327 0.0
C940 C 0.09377 0.54606 0.44001 0.0
C941 C 0.08953 0.56145 0.41795 0.0
C942 C 0.06632 0.56209 0.40884 0.0
C943 C 0.04769 0.54712 0.42133 0.0
C944 C 0.10953 0.57684 0.40474 0.0
C945 C 0.11134 0.60252 0.40377 0.0
C946 C 0.12776 0.56637 0.39522 0.0
C947 C 0.12627 0.53935 0.39421 0.0
C948 C 0.10681 0.525 0.38169 0.0
C949 C 0.1056 0.49961 0.38053 0.0
C950 C 0.12386 0.48837 0.39159 0.0
C951 C 0.14331 0.50248 0.40397 0.0
C952 C 0.14456 0.52785 0.4053 0.0
H953 H 0.12295 0.46873 0.39053 0.0
H954 H 0.13675 0.71575 0.39832 0.0
H955 H 0.41042 0.7794 0.68323 0.0
H956 H 0.42906 0.82004 0.667 0.0
H957 H 0.36508 0.83033 0.62396 0.0
H958 H 0.34652 0.78916 0.6394 0.0
H959 H 0.40055 0.84253 0.59332 0.0
H960 H 0.38543 0.86294 0.67945 0.0
H961 H 0.38507 0.85886 0.728 0.0
H962 H 0.45998 0.87011 0.73342 0.0
H963 H 0.46081 0.87391 0.68486 0.0
H964 H 0.45499 0.96217 0.54974 0.0
H965 H 0.42747 0.93004 0.57194 0.0
H966 H 0.48404 0.90915 0.6219 0.0
H967 H 0.51146 0.94153 0.60044 0.0
H968 H 0.44721 0.90539 0.64959 0.0
H969 H 0.46142 0.87936 0.56322 0.0
H970 H 0.46118 0.88044 0.51461 0.0
H971 H 0.38709 0.87881 0.50987 0.0
H972 H 0.38692 0.87796 0.55848 0.0
C973 C 0.40026 0.79028 0.67033 0.0
C974 C 0.37697 0.78088 0.66251 0.0
C975 C 0.41089 0.8137 0.6613 0.0
C976 C 0.39845 0.82847 0.64444 0.0
C977 C 0.37504 0.81937 0.63703 0.0
C978 C 0.36438 0.79587 0.64605 0.0
C979 C 0.41043 0.8526 0.63322 0.0
C980 C 0.41033 0.85652 0.60567 0.0
C981 C 0.42356 0.87073 0.64924 0.0
C982 C 0.42316 0.86854 0.67847 0.0
C983 C 0.40183 0.86437 0.69097 0.0
C984 C 0.40154 0.86213 0.71851 0.0
C985 C 0.42249 0.86418 0.73378 0.0
C986 C 0.44377 0.86852 0.72156 0.0
C987 C 0.44416 0.87075 0.69403 0.0
C988 C 0.46153 0.95108 0.56582 0.0
C989 C 0.48556 0.95442 0.57311 0.0
C990 C 0.44577 0.93252 0.57835 0.0
C991 C 0.45369 0.91671 0.59823 0.0
C992 C 0.47743 0.92095 0.60654 0.0
C993 C 0.49315 0.93956 0.59419 0.0
C994 C 0.43774 0.89505 0.60966 0.0
C995 C 0.43711 0.89158 0.63726 0.0
C996 C 0.42389 0.87731 0.59368 0.0
C997 C 0.42421 0.87892 0.56446 0.0
C998 C 0.44513 0.87957 0.5518 0.0
C999 C 0.44505 0.88008 0.52425 0.0
C1000 C 0.42413 0.87978 0.50918 0.0
C1001 C 0.40327 0.87911 0.52159 0.0
C1002 C 0.40326 0.87861 0.54913 0.0
H1003 H 0.42399 0.87985 0.48791 0.0
H1004 H 0.42223 0.86245 0.7551 0.0
H1005 H 0.23575 0.37904 0.66782 0.0
H1006 H 0.19877 0.38913 0.64937 0.0
H1007 H 0.1839 0.31985 0.61167 0.0
H1008 H 0.22145 0.31016 0.62902 0.0
H1009 H 0.17767 0.35437 0.57752 0.0
H1010 H 0.15151 0.33288 0.6636 0.0
H1011 H 0.1525 0.33264 0.71218 0.0
H1012 H 0.15035 0.40999 0.70835 0.0
H1013 H 0.14969 0.41079 0.65973 0.0
H1014 H 0.05785 0.40388 0.56569 0.0
H1015 H 0.08357 0.37696 0.58752 0.0
H1016 H 0.14297 0.42204 0.55245 0.0
H1017 H 0.1175 0.44891 0.53091 0.0
H1018 H 0.12028 0.39042 0.62409 0.0
H1019 H 0.18192 0.38606 0.53853 0.0
H1020 H 0.17999 0.37897 0.49097 0.0
H1021 H 0.10775 0.34614 0.49458 0.0
H1022 H 0.1093 0.35263 0.54228 0.0
C1023 C 0.22459 0.36586 0.6557 0.0
C1024 C 0.23178 0.34388 0.64969 0.0
C1025 C 0.20323 0.37152 0.64544 0.0
C1026 C 0.18837 0.3552 0.62922 0.0
C1027 C 0.19502 0.33275 0.62415 0.0
C1028 C 0.21646 0.32713 0.63428 0.0
C1029 C 0.16722 0.36272 0.6154 0.0
C1030 C 0.16506 0.3621 0.58778 0.0
C1031 C 0.15035 0.37227 0.62873 0.0
C1032 C 0.15069 0.37191 0.65799 0.0
C1033 C 0.15142 0.34988 0.67311 0.0
C1034 C 0.15189 0.34964 0.70066 0.0
C1035 C 0.15152 0.37129 0.71334 0.0
C1036 C 0.15063 0.39323 0.69849 0.0
C1037 C 0.15017 0.39358 0.67093 0.0
C1038 C 0.07635 0.40776 0.56236 0.0
C1039 C 0.08579 0.42857 0.54679 0.0
C1040 C 0.09102 0.39248 0.57492 0.0
C1041 C 0.1152 0.39749 0.57153 0.0
C1042 C 0.12438 0.41772 0.55513 0.0
C1043 C 0.10986 0.43312 0.54298 0.0
C1044 C 0.13138 0.38283 0.58623 0.0
C1045 C 0.13272 0.38233 0.61395 0.0
C1046 C 0.14735 0.37189 0.57306 0.0
C1047 C 0.14574 0.36987 0.544 0.0
C1048 C 0.16559 0.3774 0.52917 0.0
C1049 C 0.16458 0.37344 0.50221 0.0
C1050 C 0.1438 0.36197 0.48987 0.0
C1051 C 0.12383 0.35498 0.50425 0.0
C1052 C 0.12475 0.35886 0.53124 0.0
H1053 H 0.14323 0.35823 0.46924 0.0
H1054 H 0.15189 0.37107 0.73468 0.0
H1055 H 0.69447 0.20731 0.64036 0.0
H1056 H 0.67049 0.17436 0.61606 0.0
H1057 H 0.60891 0.18956 0.6504 0.0
H1058 H 0.63291 0.22197 0.67556 0.0
H1059 H 0.60757 0.14118 0.65035 0.0
H1060 H 0.6221 0.20914 0.58676 0.0
H1061 H 0.64616 0.24226 0.56094 0.0
H1062 H 0.68014 0.18919 0.52752 0.0
H1063 H 0.65649 0.15577 0.55343 0.0
H1064 H 0.53624 0.10152 0.52252 0.0
H1065 H 0.56338 0.13101 0.54769 0.0
H1066 H 0.58956 0.07161 0.59181 0.0
H1067 H 0.56215 0.04164 0.56635 0.0
H1068 H 0.6096 0.14108 0.5529 0.0
H1069 H 0.60418 0.09098 0.6557 0.0
H1070 H 0.57676 0.06033 0.68079 0.0
H1071 H 0.51891 0.08201 0.6345 0.0
H1072 H 0.54595 0.11297 0.60941 0.0
C1073 C 0.67585 0.20355 0.64296 0.0
C1074 C 0.66567 0.21741 0.65995 0.0
C1075 C 0.66211 0.18479 0.62885 0.0
C1076 C 0.63782 0.17954 0.63119 0.0
C1077 C 0.6276 0.19323 0.64823 0.0
C1078 C 0.64134 0.21198 0.66239 0.0
C1079 C 0.62302 0.15999 0.61567 0.0
C1080 C 0.60812 0.14111 0.62905 0.0
C1081 C 0.62347 0.15993 0.58783 0.0
C1082 C 0.63771 0.17999 0.57225 0.0
C1083 C 0.63484 0.20456 0.57407 0.0
C1084 C 0.64838 0.22338 0.55939 0.0
C1085 C 0.66472 0.21784 0.54266 0.0
C1086 C 0.66751 0.19346 0.54052 0.0
C1087 C 0.65404 0.17457 0.55519 0.0
C1088 C 0.5479 0.09459 0.53734 0.0
C1089 C 0.54703 0.06913 0.54226 0.0
C1090 C 0.56346 0.11156 0.55177 0.0
C1091 C 0.57851 0.10362 0.57174 0.0
C1092 C 0.57798 0.0782 0.57663 0.0
C1093 C 0.56236 0.06109 0.56201 0.0
C1094 C 0.59423 0.12222 0.58756 0.0
C1095 C 0.6093 0.14094 0.57424 0.0
C1096 C 0.59356 0.12242 0.61536 0.0
C1097 C 0.57712 0.10405 0.63049 0.0
C1098 C 0.5856 0.08922 0.65094 0.0
C1099 C 0.57013 0.07181 0.66515 0.0
C1100 C 0.54611 0.06916 0.65917 0.0
C1101 C 0.53752 0.084 0.63904 0.0
C1102 C 0.55291 0.10146 0.6248 0.0
H1103 H 0.53417 0.05565 0.67019 0.0
H1104 H 0.67518 0.23244 0.5313 0.0
H1105 H 0.78597 0.6647 0.5966 0.0
H1106 H 0.81303 0.64392 0.57509 0.0
H1107 H 0.87035 0.68086 0.62345 0.0
H1108 H 0.84348 0.7009 0.64582 0.0
H1109 H 0.87972 0.67999 0.56914 0.0
H1110 H 0.84889 0.62601 0.64155 0.0
H1111 H 0.81749 0.60177 0.66729 0.0
H1112 H 0.7933 0.55871 0.60035 0.0
H1113 H 0.82435 0.58293 0.57409 0.0
H1114 H 0.96806 0.60791 0.56511 0.0
H1115 H 0.93896 0.63159 0.57648 0.0
H1116 H 0.88518 0.58143 0.53594 0.0
H1117 H 0.91421 0.55714 0.52499 0.0
H1118 H 0.87205 0.58939 0.58255 0.0
H1119 H 0.90678 0.64128 0.51125 0.0
H1120 H 0.93883 0.66616 0.4868 0.0
H1121 H 0.95617 0.71338 0.55162 0.0
H1122 H 0.92461 0.68868 0.5767 0.0
C1123 C 0.80431 0.66833 0.60278 0.0
C1124 C 0.81249 0.6844 0.62309 0.0
C1125 C 0.81973 0.65658 0.59033 0.0
C1126 C 0.84359 0.66085 0.59782 0.0
C1127 C 0.85197 0.67749 0.61734 0.0
C1128 C 0.83657 0.68901 0.63 0.0
C1129 C 0.85978 0.64708 0.58635 0.0
C1130 C 0.87819 0.66019 0.57207 0.0
C1131 C 0.85736 0.62124 0.58992 0.0
C1132 C 0.83874 0.60655 0.60572 0.0
C1133 C 0.83672 0.61155 0.63223 0.0
C1134 C 0.81902 0.59777 0.64693 0.0
C1135 C 0.80334 0.57878 0.63543 0.0
C1136 C 0.8054 0.57347 0.60921 0.0
C1137 C 0.82306 0.58723 0.59441 0.0
C1138 C 0.95009 0.602 0.55832 0.0
C1139 C 0.94345 0.58059 0.54417 0.0
C1140 C 0.93347 0.61571 0.5647 0.0
C1141 C 0.90993 0.60856 0.55667 0.0
C1142 C 0.90328 0.58743 0.54211 0.0
C1143 C 0.9199 0.57356 0.53588 0.0
C1144 C 0.89214 0.62223 0.56504 0.0
C1145 C 0.87352 0.60914 0.57912 0.0
C1146 C 0.89438 0.64811 0.56118 0.0
C1147 C 0.91333 0.66303 0.54593 0.0
C1148 C 0.91748 0.65689 0.52036 0.0
C1149 C 0.93555 0.67095 0.50638 0.0
C1150 C 0.94947 0.69128 0.51763 0.0
C1151 C 0.94536 0.69763 0.54291 0.0
C1152 C 0.92738 0.68362 0.55701 0.0
H1153 H 0.96344 0.70212 0.50676 0.0
H1154 H 0.78966 0.56812 0.64685 0.0
H1155 H 0.40817 0.41527 0.31847 0.0
H1156 H 0.41839 0.43143 0.27387 0.0
H1157 H 0.34585 0.4156 0.24738 0.0
H1158 H 0.33549 0.39985 0.2921 0.0
H1159 H 0.37883 0.39772 0.21535 0.0
H1160 H 0.36517 0.47117 0.25232 0.0
H1161 H 0.36928 0.50271 0.28539 0.0
H1162 H 0.44291 0.52045 0.27427 0.0
H1163 H 0.4393 0.48873 0.24141 0.0
H1164 H 0.40482 0.4516 0.08817 0.0
H1165 H 0.38567 0.44273 0.13011 0.0
H1166 H 0.4504 0.47119 0.1722 0.0
H1167 H 0.46933 0.48079 0.13058 0.0
H1168 H 0.41614 0.48403 0.19515 0.0
H1169 H 0.43149 0.40803 0.1634 0.0
H1170 H 0.429 0.37585 0.13124 0.0
H1171 H 0.35427 0.36208 0.1336 0.0
H1172 H 0.35632 0.39442 0.16555 0.0
C1173 C 0.39445 0.4153 0.30311 0.0
C1174 C 0.37108 0.40637 0.30861 0.0
C1175 C 0.40026 0.42462 0.27776 0.0
C1176 C 0.38282 0.42481 0.25748 0.0
C1177 C 0.35949 0.41569 0.26286 0.0
C1178 C 0.35362 0.40679 0.28833 0.0
C1179 C 0.3892 0.43375 0.23047 0.0
C1180 C 0.38658 0.41669 0.21073 0.0
C1181 C 0.39972 0.45837 0.22475 0.0
C1182 C 0.40199 0.47738 0.2446 0.0
C1183 C 0.38228 0.48161 0.25713 0.0
C1184 C 0.38451 0.49957 0.27579 0.0
C1185 C 0.40635 0.51353 0.28198 0.0
C1186 C 0.42601 0.5096 0.26948 0.0
C1187 C 0.42387 0.49164 0.25082 0.0
C1188 C 0.41488 0.45614 0.10636 0.0
C1189 C 0.43867 0.46654 0.10608 0.0
C1190 C 0.40396 0.45098 0.13032 0.0
C1191 C 0.41675 0.45576 0.15435 0.0
C1192 C 0.44019 0.46721 0.15395 0.0
C1193 C 0.45103 0.47259 0.13009 0.0
C1194 C 0.40627 0.44787 0.18004 0.0
C1195 C 0.40813 0.46511 0.1996 0.0
C1196 C 0.3953 0.42332 0.1857 0.0
C1197 C 0.39404 0.40381 0.16662 0.0
C1198 C 0.41452 0.39825 0.15692 0.0
C1199 C 0.4132 0.37997 0.13875 0.0
C1200 C 0.39149 0.36698 0.13032 0.0
C1201 C 0.37107 0.37219 0.14011 0.0
C1202 C 0.3723 0.39048 0.15825 0.0
H1203 H 0.39049 0.35284 0.11625 0.0
H1204 H 0.40804 0.52744 0.29642 0.0
H1205 H 0.40735 0.65273 0.7848 0.0
H1206 H 0.42821 0.63432 0.82169 0.0
H1207 H 0.36278 0.59781 0.85176 0.0
H1208 H 0.34164 0.61634 0.81464 0.0
H1209 H 0.39469 0.61883 0.89162 0.0
H1210 H 0.39225 0.56389 0.82365 0.0
H1211 H 0.39557 0.54983 0.77913 0.0
H1212 H 0.46901 0.57864 0.78278 0.0
H1213 H 0.46607 0.59324 0.82719 0.0
H1214 H 0.45889 0.53851 0.97592 0.0
H1215 H 0.4305 0.55469 0.94517 0.0
H1216 H 0.48671 0.60061 0.90527 0.0
H1217 H 0.51512 0.58489 0.93582 0.0
H1218 H 0.45474 0.56986 0.87189 0.0
H1219 H 0.45445 0.62673 0.94101 0.0
H1220 H 0.44927 0.63732 0.98649 0.0
H1221 H 0.37818 0.5999 0.98156 0.0
H1222 H 0.38305 0.5888 0.93613 0.0
C1223 C 0.39733 0.64103 0.7994 0.0
C1224 C 0.37281 0.63609 0.79682 0.0
C1225 C 0.4093 0.63036 0.82039 0.0
C1226 C 0.39708 0.61454 0.8394 0.0
C1227 C 0.37256 0.60993 0.83729 0.0
C1228 C 0.36053 0.62043 0.81604 0.0
C1229 C 0.41023 0.60271 0.86106 0.0
C1230 C 0.40754 0.60776 0.88736 0.0
C1231 C 0.42701 0.58825 0.85555 0.0
C1232 C 0.42887 0.57993 0.82864 0.0
C1233 C 0.40906 0.56752 0.81483 0.0
C1234 C 0.41088 0.55938 0.78964 0.0
C1235 C 0.43247 0.56341 0.77809 0.0
C1236 C 0.45229 0.57557 0.79173 0.0
C1237 C 0.45055 0.58377 0.81692 0.0
C1238 C 0.46522 0.55245 0.96099 0.0
C1239 C 0.48937 0.56031 0.9584 0.0
C1240 C 0.44895 0.56164 0.94338 0.0
C1241 C 0.45652 0.57876 0.92285 0.0
C1242 C 0.4805 0.58733 0.92089 0.0
C1243 C 0.49672 0.57837 0.93853 0.0
C1244 C 0.4398 0.58673 0.90229 0.0
C1245 C 0.44179 0.58082 0.87615 0.0
C1246 C 0.42214 0.59994 0.90807 0.0
C1247 C 0.4192 0.6067 0.9353 0.0
C1248 C 0.43778 0.62057 0.94971 0.0
C1249 C 0.43488 0.6267 0.97546 0.0
C1250 C 0.41343 0.61922 0.98694 0.0
C1251 C 0.3948 0.60565 0.97266 0.0
C1252 C 0.39761 0.59945 0.94691 0.0
H1253 H 0.41122 0.62399 0.00687 0.0
H1254 H 0.43386 0.55706 0.75861 0.0
H1255 H 0.40398 0.34971 0.78104 0.0
H1256 H 0.42059 0.37002 0.82084 0.0
H1257 H 0.35585 0.39563 0.83013 0.0
H1258 H 0.33942 0.37624 0.78954 0.0
H1259 H 0.39059 0.43183 0.83676 0.0
H1260 H 0.37371 0.3495 0.87208 0.0
H1261 H 0.37329 0.30476 0.87442 0.0
H1262 H 0.44819 0.31707 0.88153 0.0
H1263 H 0.44909 0.36189 0.87886 0.0
H1264 H 0.45718 0.44452 0.9771 0.0
H1265 H 0.42811 0.42125 0.94685 0.0
H1266 H 0.46042 0.46322 0.88052 0.0
H1267 H 0.48896 0.48657 0.91024 0.0
H1268 H 0.43413 0.39167 0.90873 0.0
H1269 H 0.42156 0.47118 0.83156 0.0
H1270 H 0.42022 0.51554 0.83092 0.0
H1271 H 0.39974 0.50804 0.91115 0.0
H1272 H 0.40062 0.46357 0.91218 0.0
C1273 C 0.39323 0.35966 0.79149 0.0
C1274 C 0.37036 0.3614 0.78192 0.0
C1275 C 0.40268 0.37105 0.8145 0.0
C1276 C 0.38942 0.38418 0.82875 0.0
C1277 C 0.36642 0.38555 0.81957 0.0
C1278 C 0.35697 0.37424 0.79646 0.0
C1279 C 0.40011 0.39762 0.85228 0.0
C1280 C 0.39993 0.42298 0.85259 0.0
C1281 C 0.4119 0.38606 0.87334 0.0
C1282 C 0.41146 0.35908 0.87512 0.0
C1283 C 0.3901 0.34267 0.87398 0.0
C1284 C 0.38977 0.31729 0.87539 0.0
C1285 C 0.4107 0.30808 0.87809 0.0
C1286 C 0.43199 0.32423 0.87944 0.0
C1287 C 0.43242 0.34963 0.87802 0.0
C1288 C 0.45785 0.44896 0.9561 0.0
C1289 C 0.47541 0.46742 0.94615 0.0
C1290 C 0.44131 0.4356 0.93883 0.0
C1291 C 0.44191 0.44066 0.9114 0.0
C1292 C 0.45927 0.45925 0.90157 0.0
C1293 C 0.47571 0.47252 0.9187 0.0
C1294 C 0.42528 0.42595 0.89263 0.0
C1295 C 0.42442 0.4004 0.89314 0.0
C1296 C 0.41222 0.43728 0.87256 0.0
C1297 C 0.41125 0.464 0.87196 0.0
C1298 C 0.41661 0.47894 0.84901 0.0
C1299 C 0.41596 0.50413 0.84859 0.0
C1300 C 0.40988 0.51459 0.87098 0.0
C1301 C 0.40446 0.49991 0.89384 0.0
C1302 C 0.40506 0.47471 0.89435 0.0
H1303 H 0.40927 0.53404 0.87059 0.0
H1304 H 0.41041 0.28842 0.87917 0.0
H1305 H 0.70713 0.38141 0.8033 0.0
H1306 H 0.68933 0.40509 0.83315 0.0
H1307 H 0.62149 0.36356 0.81266 0.0
H1308 H 0.63909 0.34021 0.78232 0.0
H1309 H 0.62029 0.41249 0.81412 0.0
H1310 H 0.65152 0.3506 0.87005 0.0
H1311 H 0.6828 0.32875 0.88844 0.0
H1312 H 0.72121 0.39615 0.91761 0.0
H1313 H 0.69027 0.41847 0.89907 0.0
H1314 H 0.54972 0.43189 0.91281 0.0
H1315 H 0.57351 0.41219 0.88573 0.0
H1316 H 0.63575 0.45767 0.91713 0.0
H1317 H 0.6118 0.47698 0.94525 0.0
H1318 H 0.64354 0.4115 0.90974 0.0
H1319 H 0.61011 0.47259 0.85877 0.0
H1320 H 0.57788 0.49387 0.84257 0.0
H1321 H 0.54441 0.4296 0.80309 0.0
H1322 H 0.5759 0.40744 0.82008 0.0
C1323 C 0.68838 0.37752 0.80487 0.0
C1324 C 0.67455 0.35884 0.79041 0.0
C1325 C 0.67825 0.39094 0.82215 0.0
C1326 C 0.65409 0.38594 0.8254 0.0
C1327 C 0.64018 0.3677 0.81056 0.0
C1328 C 0.65029 0.35424 0.79335 0.0
C1329 C 0.64319 0.39942 0.84443 0.0
C1330 C 0.62525 0.41211 0.83505 0.0
C1331 C 0.65022 0.39969 0.87163 0.0
C1332 C 0.66871 0.38624 0.88293 0.0
C1333 C 0.66672 0.36079 0.88022 0.0
C1334 C 0.68437 0.34831 0.89069 0.0
C1335 C 0.70401 0.36106 0.90411 0.0
C1336 C 0.706 0.3863 0.90716 0.0
C1337 C 0.68841 0.39887 0.89669 0.0
C1338 C 0.56851 0.43751 0.91422 0.0
C1339 C 0.57891 0.4561 0.93096 0.0
C1340 C 0.58209 0.42629 0.89865 0.0
C1341 C 0.60639 0.43387 0.89885 0.0
C1342 C 0.61702 0.45163 0.91652 0.0
C1343 C 0.60337 0.46262 0.93258 0.0
C1344 C 0.62018 0.42398 0.87952 0.0
C1345 C 0.63873 0.41211 0.88878 0.0
C1346 C 0.61384 0.42462 0.85212 0.0
C1347 C 0.59536 0.43826 0.84087 0.0
C1348 C 0.59584 0.46291 0.84674 0.0
C1349 C 0.57767 0.47514 0.83745 0.0
C1350 C 0.55917 0.46316 0.82171 0.0
C1351 C 0.55878 0.43887 0.81527 0.0
C1352 C 0.57675 0.42643 0.8248 0.0
H1353 H 0.54512 0.47268 0.81453 0.0
H1354 H 0.71766 0.35137 0.91221 0.0
H1355 H 0.67701 0.6774 0.78048 0.0
H1356 H 0.65673 0.64813 0.81292 0.0
H1357 H 0.67465 0.58787 0.77297 0.0
H1358 H 0.69524 0.61719 0.74039 0.0
H1359 H 0.62427 0.58414 0.7915 0.0
H1360 H 0.70603 0.59831 0.82098 0.0
H1361 H 0.74367 0.62519 0.83076 0.0
H1362 H 0.71187 0.66143 0.88766 0.0
H1363 H 0.67395 0.63501 0.87792 0.0
H1364 H 0.58172 0.50873 0.90425 0.0
H1365 H 0.60547 0.5246 0.86661 0.0
H1366 H 0.62481 0.59445 0.90282 0.0
H1367 H 0.60288 0.57818 0.94091 0.0
H1368 H 0.6601 0.58606 0.88258 0.0
H1369 H 0.57881 0.57799 0.85198 0.0
H1370 H 0.53905 0.55645 0.84053 0.0
H1371 H 0.56628 0.51468 0.78491 0.0
H1372 H 0.6063 0.53541 0.79663 0.0
C1373 C 0.67631 0.65791 0.77834 0.0
C1374 C 0.68769 0.64953 0.75798 0.0
C1375 C 0.66482 0.64125 0.7969 0.0
C1376 C 0.66433 0.61595 0.79528 0.0
C1377 C 0.67488 0.60738 0.77443 0.0
C1378 C 0.68669 0.62409 0.75601 0.0
C1379 C 0.65392 0.59882 0.81644 0.0
C1380 C 0.63219 0.58405 0.81139 0.0
C1381 C 0.66422 0.59926 0.84229 0.0
C1382 C 0.68713 0.61477 0.8486 0.0
C1383 C 0.70704 0.61211 0.83546 0.0
C1384 C 0.72843 0.62725 0.84101 0.0
C1385 C 0.73015 0.64503 0.85979 0.0
C1386 C 0.71051 0.64765 0.87312 0.0
C1387 C 0.68908 0.63257 0.86762 0.0
C1388 C 0.59136 0.52732 0.90422 0.0
C1389 C 0.59059 0.54218 0.92555 0.0
C1390 C 0.60472 0.53646 0.88261 0.0
C1391 C 0.61665 0.5609 0.88156 0.0
C1392 C 0.61596 0.5755 0.90309 0.0
C1393 C 0.60335 0.56618 0.92492 0.0
C1394 C 0.62964 0.57192 0.8582 0.0
C1395 C 0.65212 0.58556 0.86273 0.0
C1396 C 0.61964 0.57089 0.832 0.0
C1397 C 0.59561 0.55795 0.82554 0.0
C1398 C 0.57637 0.56395 0.8376 0.0
C1399 C 0.55377 0.5519 0.83104 0.0
C1400 C 0.55015 0.53412 0.8121 0.0
C1401 C 0.56911 0.5284 0.79963 0.0
C1402 C 0.59176 0.5402 0.80633 0.0
H1403 H 0.53265 0.52484 0.80701 0.0
H1404 H 0.74672 0.65674 0.86404 0.0
H1405 H 0.68954 0.67938 0.18532 0.0
H1406 H 0.66624 0.65074 0.15523 0.0
H1407 H 0.61486 0.63016 0.21387 0.0
H1408 H 0.63842 0.65845 0.24426 0.0
H1409 H 0.62242 0.59088 0.19268 0.0
H1410 H 0.60693 0.66939 0.15742 0.0
H1411 H 0.61714 0.7122 0.1398 0.0
H1412 H 0.65081 0.68784 0.07583 0.0
H1413 H 0.64105 0.64489 0.09327 0.0
H1414 H 0.52848 0.5312 0.11438 0.0
H1415 H 0.55575 0.55755 0.14256 0.0
H1416 H 0.60129 0.57745 0.07797 0.0
H1417 H 0.57294 0.55197 0.04887 0.0
H1418 H 0.59906 0.6164 0.10118 0.0
H1419 H 0.61829 0.53838 0.1399 0.0
H1420 H 0.61047 0.49622 0.16029 0.0
H1421 H 0.56899 0.5201 0.21739 0.0
H1422 H 0.57741 0.56255 0.1981 0.0
C1423 C 0.67318 0.66887 0.19173 0.0
C1424 C 0.66577 0.67128 0.21716 0.0
C1425 C 0.65983 0.65253 0.17446 0.0
C1426 C 0.63853 0.6385 0.18202 0.0
C1427 C 0.63119 0.64075 0.2075 0.0
C1428 C 0.64468 0.65691 0.2249 0.0
C1429 C 0.62414 0.62106 0.16369 0.0
C1430 C 0.61714 0.59658 0.17275 0.0
C1431 C 0.6177 0.62816 0.13738 0.0
C1432 C 0.62346 0.65396 0.1268 0.0
C1433 C 0.61665 0.67318 0.1397 0.0
C1434 C 0.62234 0.69747 0.12973 0.0
C1435 C 0.63467 0.70275 0.10675 0.0
C1436 C 0.64129 0.68373 0.09365 0.0
C1437 C 0.63567 0.65941 0.10356 0.0
C1438 C 0.54433 0.54102 0.10606 0.0
C1439 C 0.54843 0.53949 0.07924 0.0
C1440 C 0.5602 0.55591 0.12244 0.0
C1441 C 0.58106 0.56915 0.1128 0.0
C1442 C 0.58542 0.56738 0.08605 0.0
C1443 C 0.56921 0.55281 0.0694 0.0
C1444 C 0.59725 0.58614 0.13018 0.0
C1445 C 0.60455 0.61061 0.12098 0.0
C1446 C 0.60397 0.57908 0.15642 0.0
C1447 C 0.59821 0.55348 0.16736 0.0
C1448 C 0.60736 0.53455 0.15667 0.0
C1449 C 0.60292 0.51066 0.1681 0.0
C1450 C 0.58895 0.50542 0.18982 0.0
C1451 C 0.5797 0.52414 0.20047 0.0
C1452 C 0.58449 0.54815 0.18948 0.0
H1453 H 0.58545 0.48688 0.19851 0.0
H1454 H 0.63906 0.72156 0.09906 0.0
H1455 H 0.37474 0.64472 0.25942 0.0
H1456 H 0.39495 0.62142 0.23166 0.0
H1457 H 0.33721 0.61625 0.17384 0.0
H1458 H 0.31692 0.63958 0.20144 0.0
H1459 H 0.35237 0.57321 0.18035 0.0
H1460 H 0.38725 0.65718 0.16427 0.0
H1461 H 0.40662 0.69877 0.17578 0.0
H1462 H 0.46501 0.66918 0.21186 0.0
H1463 H 0.44582 0.62735 0.2009 0.0
H1464 H 0.41704 0.53873 0.07576 0.0
H1465 H 0.39314 0.55894 0.10279 0.0
H1466 H 0.44715 0.56441 0.16512 0.0
H1467 H 0.47104 0.54455 0.13839 0.0
H1468 H 0.43268 0.60775 0.15442 0.0
H1469 H 0.39613 0.52299 0.17111 0.0
H1470 H 0.37595 0.48196 0.15857 0.0
H1471 H 0.32053 0.514 0.119 0.0
H1472 H 0.34033 0.55528 0.13122 0.0
C1473 C 0.36638 0.63874 0.24074 0.0
C1474 C 0.34422 0.64413 0.23267 0.0
C1475 C 0.37794 0.62537 0.22488 0.0
C1476 C 0.36773 0.6173 0.20047 0.0
C1477 C 0.34543 0.62222 0.19259 0.0
C1478 C 0.33383 0.63553 0.20846 0.0
C1479 C 0.38049 0.60409 0.18299 0.0
C1480 C 0.36982 0.5809 0.17442 0.0
C1481 C 0.40336 0.61396 0.17539 0.0
C1482 C 0.41498 0.6391 0.18199 0.0
C1483 C 0.40413 0.65952 0.17485 0.0
C1484 C 0.4151 0.68314 0.18124 0.0
C1485 C 0.437 0.68661 0.1946 0.0
C1486 C 0.44802 0.66646 0.20154 0.0
C1487 C 0.43712 0.64279 0.19523 0.0
C1488 C 0.42374 0.54412 0.09528 0.0
C1489 C 0.44605 0.5402 0.10478 0.0
C1490 C 0.41002 0.55557 0.11076 0.0
C1491 C 0.41834 0.56318 0.13603 0.0
C1492 C 0.44039 0.55882 0.14566 0.0
C1493 C 0.45404 0.54742 0.13029 0.0
C1494 C 0.40473 0.5767 0.15215 0.0
C1495 C 0.41523 0.60004 0.16037 0.0
C1496 C 0.38168 0.56704 0.15922 0.0
C1497 C 0.36983 0.54225 0.15184 0.0
C1498 C 0.37973 0.52132 0.15956 0.0
C1499 C 0.36836 0.49801 0.15256 0.0
C1500 C 0.34708 0.49539 0.1379 0.0
C1501 C 0.33704 0.51606 0.13031 0.0
C1502 C 0.3483 0.53941 0.13732 0.0
H1503 H 0.33834 0.47731 0.13249 0.0
H1504 H 0.44547 0.70491 0.19953 0.0
H1505 H 0.62673 0.35278 0.23244 0.0
H1506 H 0.60163 0.3719 0.20002 0.0
H1507 H 0.6563 0.38313 0.14479 0.0
H1508 H 0.68148 0.36396 0.17711 0.0
H1509 H 0.6317 0.42447 0.1475 0.0
H1510 H 0.61639 0.33665 0.13646 0.0
H1511 H 0.60645 0.29323 0.15219 0.0
H1512 H 0.5413 0.30657 0.17849 0.0
H1513 H 0.55103 0.35018 0.16326 0.0
H1514 H 0.5602 0.45356 0.03702 0.0
H1515 H 0.58783 0.43287 0.06431 0.0
H1516 H 0.53324 0.40297 0.11684 0.0
H1517 H 0.50543 0.42235 0.08892 0.0
H1518 H 0.55967 0.37098 0.11414 0.0
H1519 H 0.57308 0.4579 0.12514 0.0
H1520 H 0.58119 0.50119 0.10862 0.0
H1521 H 0.64858 0.49153 0.08558 0.0
H1522 H 0.64045 0.44782 0.10079 0.0
C1523 C 0.63352 0.35965 0.21354 0.0
C1524 C 0.65602 0.35675 0.20726 0.0
C1525 C 0.61914 0.37048 0.19501 0.0
C1526 C 0.62707 0.37881 0.16995 0.0
C1527 C 0.64986 0.37684 0.164 0.0
C1528 C 0.66414 0.36573 0.1824 0.0
C1529 C 0.61108 0.38816 0.14946 0.0
C1530 C 0.61608 0.41277 0.13992 0.0
C1531 C 0.59049 0.37298 0.14002 0.0
C1532 C 0.58454 0.34672 0.14894 0.0
C1533 C 0.60003 0.33037 0.14578 0.0
C1534 C 0.59442 0.30572 0.15458 0.0
C1535 C 0.57328 0.29716 0.16639 0.0
C1536 C 0.55768 0.31323 0.16937 0.0
C1537 C 0.56322 0.33791 0.16064 0.0
C1538 C 0.55405 0.44215 0.05411 0.0
C1539 C 0.53069 0.43968 0.0609 0.0
C1540 C 0.56987 0.43046 0.06979 0.0
C1541 C 0.56281 0.41687 0.09309 0.0
C1542 C 0.5392 0.4134 0.09908 0.0
C1543 C 0.52328 0.42453 0.08306 0.0
C1544 C 0.58004 0.40747 0.11216 0.0
C1545 C 0.57529 0.3828 0.12154 0.0
C1546 C 0.60063 0.42279 0.12175 0.0
C1547 C 0.60603 0.44942 0.11382 0.0
C1548 C 0.58955 0.46491 0.11632 0.0
C1549 C 0.59408 0.48949 0.10702 0.0
C1550 C 0.61535 0.49908 0.09599 0.0
C1551 C 0.63209 0.48406 0.09411 0.0
C1552 C 0.62748 0.45933 0.10293 0.0
H1553 H 0.61889 0.51818 0.08901 0.0
H1554 H 0.56897 0.27807 0.17319 0.0
loop_
_geom_bond_atom_site_label_1
_geom_bond_atom_site_label_2
_geom_bond_distance
_geom_bond_site_symmetry_2
_ccdc_geom_bond_type
P0 O11 1.490 . S
P0 C14 1.812 . S
P0 C20 1.803 . S
P0 C26 1.819 . S
H1 C15 0.941 . S
H2 C16 0.939 . S
H3 C18 0.940 . S
H4 C19 0.940 . S
H5 C21 0.939 . S
H6 C22 0.942 . S
H7 C24 0.940 . S
H8 C25 0.939 . S
H9 C27 0.941 . S
H10 C31 0.939 . S
O11 P0 1.490 . S
H12 C28 0.939 . S
H13 C30 0.940 . S
C14 P0 1.812 . S
C14 C15 1.389 . S
C14 C19 1.391 . S
C15 H1 0.941 . S
C15 C14 1.389 . S
C15 C16 1.397 . S
C16 H2 0.939 . S
C16 C15 1.397 . S
C16 C17 1.378 . S
C17 C16 1.378 . S
C17 C18 1.378 . S
C18 H3 0.940 . S
C18 C17 1.378 . S
C18 C19 1.396 . S
C19 H4 0.940 . S
C19 C14 1.391 . S
C19 C18 1.396 . S
C20 P0 1.803 . S
C20 C21 1.378 . S
C20 C25 1.400 . S
C21 H5 0.939 . S
C21 C20 1.378 . S
C21 C22 1.361 . S
C22 H6 0.942 . S
C22 C21 1.361 . S
C22 C23 1.369 . S
C23 C22 1.369 . S
C23 C24 1.404 . S
C24 H7 0.940 . S
C24 C23 1.404 . S
C24 C25 1.389 . S
C25 H8 0.939 . S
C25 C20 1.400 . S
C25 C24 1.389 . S
C26 P0 1.819 . S
C26 C27 1.391 . S
C26 C31 1.391 . S
C27 H9 0.941 . S
C27 C26 1.391 . S
C27 C28 1.396 . S
C28 H12 0.939 . S
C28 C27 1.396 . S
C28 C29 1.397 . S
C29 C28 1.397 . S
C29 C30 1.385 . S
C30 H13 0.940 . S
C30 C29 1.385 . S
C30 C31 1.388 . S
C31 H10 0.939 . S
C31 C26 1.391 . S
C31 C30 1.388 . S
P32 O43 1.490 . S
P32 C46 1.812 . S
P32 C52 1.803 . S
P32 C58 1.819 . S
H33 C47 0.941 . S
H34 C48 0.939 . S
H35 C50 0.940 . S
H36 C51 0.940 . S
H37 C53 0.939 . S
H38 C54 0.942 . S
H39 C56 0.940 . S
H40 C57 0.939 . S
H41 C59 0.941 . S
H42 C63 0.939 . S
O43 P32 1.490 . S
H44 C60 0.939 . S
H45 C62 0.940 . S
C46 P32 1.812 . S
C46 C47 1.389 . S
C46 C51 1.391 . S
C47 H33 0.941 . S
C47 C46 1.389 . S
C47 C48 1.397 . S
C48 H34 0.939 . S
C48 C47 1.397 . S
C48 C49 1.378 . S
C49 C48 1.378 . S
C49 C50 1.378 . S
C50 H35 0.940 . S
C50 C49 1.378 . S
C50 C51 1.396 . S
C51 H36 0.940 . S
C51 C46 1.391 . S
C51 C50 1.396 . S
C52 P32 1.803 . S
C52 C53 1.378 . S
C52 C57 1.400 . S
C53 H37 0.939 . S
C53 C52 1.378 . S
C53 C54 1.361 . S
C54 H38 0.942 . S
C54 C53 1.361 . S
C54 C55 1.369 . S
C55 C54 1.369 . S
C55 C56 1.404 . S
C56 H39 0.940 . S
C56 C55 1.404 . S
C56 C57 1.389 . S
C57 H40 0.939 . S
C57 C52 1.400 . S
C57 C56 1.389 . S
C58 P32 1.819 . S
C58 C59 1.391 . S
C58 C63 1.391 . S
C59 H41 0.941 . S
C59 C58 1.391 . S
C59 C60 1.396 . S
C60 H44 0.939 . S
C60 C59 1.396 . S
C60 C61 1.397 . S
C61 C60 1.397 . S
C61 C62 1.385 . S
C62 H45 0.940 . S
C62 C61 1.385 . S
C62 C63 1.388 . S
C63 H42 0.939 . S
C63 C58 1.391 . S
C63 C62 1.388 . S
P64 O75 1.490 . S
P64 C78 1.812 . S
P64 C84 1.803 . S
P64 C90 1.819 . S
H65 C79 0.941 . S
H66 C80 0.939 . S
H67 C82 0.940 . S
H68 C83 0.940 . S
H69 C85 0.939 . S
H70 C86 0.942 . S
H71 C88 0.940 . S
H72 C89 0.939 . S
H73 C91 0.941 . S
H74 C95 0.939 . S
O75 P64 1.490 . S
H76 C92 0.939 . S
H77 C94 0.940 . S
C78 P64 1.812 . S
C78 C79 1.389 . S
C78 C83 1.391 . S
C79 H65 0.941 . S
C79 C78 1.389 . S
C79 C80 1.397 . S
C80 H66 0.939 . S
C80 C79 1.397 . S
C80 C81 1.378 . S
C81 C80 1.378 . S
C81 C82 1.378 . S
C82 H67 0.940 . S
C82 C81 1.378 . S
C82 C83 1.396 . S
C83 H68 0.940 . S
C83 C78 1.391 . S
C83 C82 1.396 . S
C84 P64 1.803 . S
C84 C85 1.378 . S
C84 C89 1.400 . S
C85 H69 0.939 . S
C85 C84 1.378 . S
C85 C86 1.361 . S
C86 H70 0.942 . S
C86 C85 1.361 . S
C86 C87 1.369 . S
C87 C86 1.369 . S
C87 C88 1.404 . S
C88 H71 0.940 . S
C88 C87 1.404 . S
C88 C89 1.389 . S
C89 H72 0.939 . S
C89 C84 1.400 . S
C89 C88 1.389 . S
C90 P64 1.819 . S
C90 C91 1.391 . S
C90 C95 1.391 . S
C91 H73 0.941 . S
C91 C90 1.391 . S
C91 C92 1.396 . S
C92 H76 0.939 . S
C92 C91 1.396 . S
C92 C93 1.397 . S
C93 C92 1.397 . S
C93 C94 1.385 . S
C94 H77 0.940 . S
C94 C93 1.385 . S
C94 C95 1.388 . S
C95 H74 0.939 . S
C95 C90 1.391 . S
C95 C94 1.388 . S
P96 O107 1.490 . S
P96 C110 1.812 . S
P96 C116 1.803 . S
P96 C122 1.819 . S
H97 C111 0.941 . S
H98 C112 0.939 . S
H99 C114 0.940 . S
H100 C115 0.940 . S
H101 C117 0.939 . S
H102 C118 0.942 . S
H103 C120 0.940 . S
H104 C121 0.939 . S
H105 C123 0.941 . S
H106 C127 0.939 . S
O107 P96 1.490 . S
H108 C124 0.939 . S
H109 C126 0.940 . S
C110 P96 1.812 . S
C110 C111 1.389 . S
C110 C115 1.391 . S
C111 H97 0.941 . S
C111 C110 1.389 . S
C111 C112 1.397 . S
C112 H98 0.939 . S
C112 C111 1.397 . S
C112 C113 1.378 . S
C113 C112 1.378 . S
C113 C114 1.378 . S
C114 H99 0.940 . S
C114 C113 1.378 . S
C114 C115 1.396 . S
C115 H100 0.940 . S
C115 C110 1.391 . S
C115 C114 1.396 . S
C116 P96 1.803 . S
C116 C117 1.378 . S
C116 C121 1.400 . S
C117 H101 0.939 . S
C117 C116 1.378 . S
C117 C118 1.361 . S
C118 H102 0.942 . S
C118 C117 1.361 . S
C118 C119 1.369 . S
C119 C118 1.369 . S
C119 C120 1.404 . S
C120 H103 0.940 . S
C120 C119 1.404 . S
C120 C121 1.389 . S
C121 H104 0.939 . S
C121 C116 1.400 . S
C121 C120 1.389 . S
C122 P96 1.819 . S
C122 C123 1.391 . S
C122 C127 1.391 . S
C123 H105 0.941 . S
C123 C122 1.391 . S
C123 C124 1.396 . S
C124 H108 0.939 . S
C124 C123 1.396 . S
C124 C125 1.397 . S
C125 C124 1.397 . S
C125 C126 1.385 . S
C126 H109 0.940 . S
C126 C125 1.385 . S
C126 C127 1.388 . S
C127 H106 0.939 . S
C127 C122 1.391 . S
C127 C126 1.388 . S
P128 O139 1.490 . S
P128 C142 1.812 . S
P128 C148 1.803 . S
P128 C154 1.819 . S
H129 C143 0.941 . S
H130 C144 0.939 . S
H131 C146 0.940 . S
H132 C147 0.940 . S
H133 C149 0.939 . S
H134 C150 0.942 . S
H135 C152 0.940 . S
H136 C153 0.939 . S
H137 C155 0.941 . S
H138 C159 0.939 . S
O139 P128 1.490 . S
H140 C156 0.939 . S
H141 C158 0.940 . S
C142 P128 1.812 . S
C142 C143 1.389 . S
C142 C147 1.391 . S
C143 H129 0.941 . S
C143 C142 1.389 . S
C143 C144 1.397 . S
C144 H130 0.939 . S
C144 C143 1.397 . S
C144 C145 1.378 . S
C145 C144 1.378 . S
C145 C146 1.378 . S
C146 H131 0.940 . S
C146 C145 1.378 . S
C146 C147 1.396 . S
C147 H132 0.940 . S
C147 C142 1.391 . S
C147 C146 1.396 . S
C148 P128 1.803 . S
C148 C149 1.378 . S
C148 C153 1.400 . S
C149 H133 0.939 . S
C149 C148 1.378 . S
C149 C150 1.361 . S
C150 H134 0.942 . S
C150 C149 1.361 . S
C150 C151 1.369 . S
C151 C150 1.369 . S
C151 C152 1.404 . S
C152 H135 0.940 . S
C152 C151 1.404 . S
C152 C153 1.389 . S
C153 H136 0.939 . S
C153 C148 1.400 . S
C153 C152 1.389 . S
C154 P128 1.819 . S
C154 C155 1.391 . S
C154 C159 1.391 . S
C155 H137 0.941 . S
C155 C154 1.391 . S
C155 C156 1.396 . S
C156 H140 0.939 . S
C156 C155 1.396 . S
C156 C157 1.397 . S
C157 C156 1.397 . S
C157 C158 1.385 . S
C158 H141 0.940 . S
C158 C157 1.385 . S
C158 C159 1.388 . S
C159 H138 0.939 . S
C159 C154 1.391 . S
C159 C158 1.388 . S
P160 O171 1.490 . S
P160 C174 1.812 . S
P160 C180 1.803 . S
P160 C186 1.819 . S
H161 C175 0.941 . S
H162 C176 0.939 . S
H163 C178 0.940 . S
H164 C179 0.940 . S
H165 C181 0.939 . S
H166 C182 0.942 . S
H167 C184 0.940 . S
H168 C185 0.939 . S
H169 C187 0.941 . S
H170 C191 0.939 . S
O171 P160 1.490 . S
H172 C188 0.939 . S
H173 C190 0.940 . S
C174 P160 1.812 . S
C174 C175 1.389 . S
C174 C179 1.391 . S
C175 H161 0.941 . S
C175 C174 1.389 . S
C175 C176 1.397 . S
C176 H162 0.939 . S
C176 C175 1.397 . S
C176 C177 1.378 . S
C177 C176 1.378 . S
C177 C178 1.378 . S
C178 H163 0.940 . S
C178 C177 1.378 . S
C178 C179 1.396 . S
C179 H164 0.940 . S
C179 C174 1.391 . S
C179 C178 1.396 . S
C180 P160 1.803 . S
C180 C181 1.378 . S
C180 C185 1.400 . S
C181 H165 0.939 . S
C181 C180 1.378 . S
C181 C182 1.361 . S
C182 H166 0.942 . S
C182 C181 1.361 . S
C182 C183 1.369 . S
C183 C182 1.369 . S
C183 C184 1.404 . S
C184 H167 0.940 . S
C184 C183 1.404 . S
C184 C185 1.389 . S
C185 H168 0.939 . S
C185 C180 1.400 . S
C185 C184 1.389 . S
C186 P160 1.819 . S
C186 C187 1.391 . S
C186 C191 1.391 . S
C187 H169 0.941 . S
C187 C186 1.391 . S
C187 C188 1.396 . S
C188 H172 0.939 . S
C188 C187 1.396 . S
C188 C189 1.397 . S
C189 C188 1.397 . S
C189 C190 1.385 . S
C190 H173 0.940 . S
C190 C189 1.385 . S
C190 C191 1.388 . S
C191 H170 0.939 . S
C191 C186 1.391 . S
C191 C190 1.388 . S
P192 O203 1.490 . S
P192 C206 1.812 . S
P192 C212 1.803 . S
P192 C218 1.819 . S
H193 C207 0.941 . S
H194 C208 0.939 . S
H195 C210 0.940 . S
H196 C211 0.940 . S
H197 C213 0.939 . S
H198 C214 0.942 . S
H199 C216 0.940 . S
H200 C217 0.939 . S
H201 C219 0.941 . S
H202 C223 0.939 . S
O203 P192 1.490 . S
H204 C220 0.939 . S
H205 C222 0.940 . S
C206 P192 1.812 . S
C206 C207 1.389 . S
C206 C211 1.391 . S
C207 H193 0.941 . S
C207 C206 1.389 . S
C207 C208 1.397 . S
C208 H194 0.939 . S
C208 C207 1.397 . S
C208 C209 1.378 . S
C209 C208 1.378 . S
C209 C210 1.378 . S
C210 H195 0.940 . S
C210 C209 1.378 . S
C210 C211 1.396 . S
C211 H196 0.940 . S
C211 C206 1.391 . S
C211 C210 1.396 . S
C212 P192 1.803 . S
C212 C213 1.378 . S
C212 C217 1.400 . S
C213 H197 0.939 . S
C213 C212 1.378 . S
C213 C214 1.361 . S
C214 H198 0.942 . S
C214 C213 1.361 . S
C214 C215 1.369 . S
C215 C214 1.369 . S
C215 C216 1.404 . S
C216 H199 0.940 . S
C216 C215 1.404 . S
C216 C217 1.389 . S
C217 H200 0.939 . S
C217 C212 1.400 . S
C217 C216 1.389 . S
C218 P192 1.819 . S
C218 C219 1.391 . S
C218 C223 1.391 . S
C219 H201 0.941 . S
C219 C218 1.391 . S
C219 C220 1.396 . S
C220 H204 0.939 . S
C220 C219 1.396 . S
C220 C221 1.397 . S
C221 C220 1.397 . S
C221 C222 1.385 . S
C222 H205 0.940 . S
C222 C221 1.385 . S
C222 C223 1.388 . S
C223 H202 0.939 . S
C223 C218 1.391 . S
C223 C222 1.388 . S
P224 O235 1.490 . S
P224 C238 1.812 . S
P224 C244 1.803 . S
P224 C250 1.819 . S
H225 C239 0.941 . S
H226 C240 0.939 . S
H227 C242 0.940 . S
H228 C243 0.940 . S
H229 C245 0.939 . S
H230 C246 0.942 . S
H231 C248 0.940 . S
H232 C249 0.939 . S
H233 C251 0.941 . S
H234 C255 0.939 . S
O235 P224 1.490 . S
H236 C252 0.939 . S
H237 C254 0.940 . S
C238 P224 1.812 . S
C238 C239 1.389 . S
C238 C243 1.391 . S
C239 H225 0.941 . S
C239 C238 1.389 . S
C239 C240 1.397 . S
C240 H226 0.939 . S
C240 C239 1.397 . S
C240 C241 1.378 . S
C241 C240 1.378 . S
C241 C242 1.378 . S
C242 H227 0.940 . S
C242 C241 1.378 . S
C242 C243 1.396 . S
C243 H228 0.940 . S
C243 C238 1.391 . S
C243 C242 1.396 . S
C244 P224 1.803 . S
C244 C245 1.378 . S
C244 C249 1.400 . S
C245 H229 0.939 . S
C245 C244 1.378 . S
C245 C246 1.361 . S
C246 H230 0.942 . S
C246 C245 1.361 . S
C246 C247 1.369 . S
C247 C246 1.369 . S
C247 C248 1.404 . S
C248 H231 0.940 . S
C248 C247 1.404 . S
C248 C249 1.389 . S
C249 H232 0.939 . S
C249 C244 1.400 . S
C249 C248 1.389 . S
C250 P224 1.819 . S
C250 C251 1.391 . S
C250 C255 1.391 . S
C251 H233 0.941 . S
C251 C250 1.391 . S
C251 C252 1.396 . S
C252 H236 0.939 . S
C252 C251 1.396 . S
C252 C253 1.397 . S
C253 C252 1.397 . S
C253 C254 1.385 . S
C254 H237 0.940 . S
C254 C253 1.385 . S
C254 C255 1.388 . S
C255 H234 0.939 . S
C255 C250 1.391 . S
C255 C254 1.388 . S
Co256 O259 2.042 . S
Co256 O266 2.264 . S
Co256 O285 2.286 . S
Co256 O286 2.069 . S
Co256 O288 2.015 . S
Co257 O259 2.122 . S
Co257 O265 2.073 . S
Co257 O266 2.327 . S
Co257 O267 1.976 . S
Co258 O259 2.087 . S
Co258 O261 2.087 1_455 S
Co258 O268 2.111 . S
Co258 O269 2.143 1_455 S
Co258 O273 2.111 1_455 S
Co258 O287 2.143 . S
O259 Co256 2.042 . S
O259 Co257 2.122 . S
O259 Co258 2.087 . S
O259 H260 0.980 . S
H260 O259 0.980 . S
O261 Co258 2.087 1_655 S
O261 Co262 2.042 . S
O261 Co263 2.122 . S
O261 H264 0.980 . S
Co262 O261 2.042 . S
Co262 O270 2.286 . S
Co262 O271 2.069 . S
Co262 O272 2.015 . S
Co262 O275 2.264 . S
Co263 O261 2.122 . S
Co263 O274 1.976 . S
Co263 O275 2.327 . S
Co263 O276 2.073 . S
H264 O261 0.980 . S
O265 Co257 2.073 . S
O265 C280 1.245 . S
O266 Co256 2.264 . S
O266 Co257 2.327 . S
O266 C280 1.257 . S
O267 Co257 1.976 . S
O267 C279 1.251 . S
O268 Co258 2.111 . S
O268 C279 1.274 . S
O269 Co258 2.143 1_655 S
O269 C282 1.246 . S
O270 Co262 2.286 . S
O270 C281 1.259 . S
O271 Co262 2.069 . S
O271 C281 1.289 . S
O272 Co262 2.015 . S
O272 C282 1.257 . S
O273 Co258 2.111 1_655 S
O273 C283 1.274 . S
O274 Co263 1.976 . S
O274 C283 1.251 . S
O275 Co262 2.264 . S
O275 Co263 2.327 . S
O275 C284 1.257 . S
O276 Co263 2.073 . S
O276 C284 1.245 . S
C277 O285 1.259 . S
C277 O286 1.289 . S
C278 O287 1.246 . S
C278 O288 1.257 . S
C279 O267 1.251 . S
C279 O268 1.274 . S
C280 O265 1.245 . S
C280 O266 1.257 . S
C281 O270 1.259 . S
C281 O271 1.289 . S
C282 O269 1.246 . S
C282 O272 1.257 . S
C283 O273 1.274 . S
C283 O274 1.251 . S
C284 O275 1.257 . S
C284 O276 1.245 . S
O285 Co256 2.286 . S
O285 C277 1.259 . S
O286 Co256 2.069 . S
O286 C277 1.289 . S
O287 Co258 2.143 . S
O287 C278 1.246 . S
O288 Co256 2.015 . S
O288 C278 1.257 . S
Co289 O292 2.042 . S
Co289 O299 2.264 . S
Co289 O318 2.286 . S
Co289 O319 2.069 . S
Co289 O321 2.015 . S
Co290 O292 2.122 . S
Co290 O298 2.073 . S
Co290 O299 2.327 . S
Co290 O300 1.976 . S
Co291 O292 2.087 1_545 S
Co291 O294 2.087 . S
Co291 O301 2.111 1_545 S
Co291 O302 2.143 . S
Co291 O306 2.111 . S
Co291 O320 2.143 1_545 S
O292 Co289 2.042 . S
O292 Co290 2.122 . S
O292 Co291 2.087 1_565 S
O292 H293 0.980 . S
H293 O292 0.980 . S
O294 Co291 2.087 . S
O294 Co295 2.042 . S
O294 Co296 2.122 . S
O294 H297 0.980 . S
Co295 O294 2.042 . S
Co295 O303 2.286 . S
Co295 O304 2.069 . S
Co295 O305 2.015 . S
Co295 O308 2.264 . S
Co296 O294 2.122 . S
Co296 O307 1.976 . S
Co296 O308 2.327 . S
Co296 O309 2.073 . S
H297 O294 0.980 . S
O298 Co290 2.073 . S
O298 C313 1.245 . S
O299 Co289 2.264 . S
O299 Co290 2.327 . S
O299 C313 1.257 . S
O300 Co290 1.976 . S
O300 C312 1.251 . S
O301 Co291 2.111 1_565 S
O301 C312 1.274 . S
O302 Co291 2.143 . S
O302 C315 1.246 . S
O303 Co295 2.286 . S
O303 C314 1.259 . S
O304 Co295 2.069 . S
O304 C314 1.289 . S
O305 Co295 2.015 . S
O305 C315 1.257 . S
O306 Co291 2.111 . S
O306 C316 1.274 . S
O307 Co296 1.976 . S
O307 C316 1.251 . S
O308 Co295 2.264 . S
O308 Co296 2.327 . S
O308 C317 1.257 . S
O309 Co296 2.073 . S
O309 C317 1.245 . S
C310 O318 1.259 . S
C310 O319 1.289 . S
C311 O320 1.246 . S
C311 O321 1.257 . S
C312 O300 1.251 . S
C312 O301 1.274 . S
C313 O298 1.245 . S
C313 O299 1.257 . S
C314 O303 1.259 . S
C314 O304 1.289 . S
C315 O302 1.246 . S
C315 O305 1.257 . S
C316 O306 1.274 . S
C316 O307 1.251 . S
C317 O308 1.257 . S
C317 O309 1.245 . S
O318 Co289 2.286 . S
O318 C310 1.259 . S
O319 Co289 2.069 . S
O319 C310 1.289 . S
O320 Co291 2.143 1_565 S
O320 C311 1.246 . S
O321 Co289 2.015 . S
O321 C311 1.257 . S
Co322 O325 2.042 . S
Co322 O332 2.264 . S
Co322 O351 2.286 . S
Co322 O352 2.069 . S
Co322 O354 2.015 . S
Co323 O325 2.122 . S
Co323 O331 2.073 . S
Co323 O332 2.327 . S
Co323 O333 1.976 . S
Co324 O325 2.087 . S
Co324 O327 2.087 1_554 S
Co324 O334 2.111 . S
Co324 O335 2.143 1_554 S
Co324 O339 2.111 1_554 S
Co324 O353 2.143 . S
O325 Co322 2.042 . S
O325 Co323 2.122 . S
O325 Co324 2.087 . S
O325 H326 0.980 . S
H326 O325 0.980 . S
O327 Co324 2.087 1_556 S
O327 Co328 2.042 . S
O327 Co329 2.122 . S
O327 H330 0.980 . S
Co328 O327 2.042 . S
Co328 O336 2.286 . S
Co328 O337 2.069 . S
Co328 O338 2.015 . S
Co328 O341 2.264 . S
Co329 O327 2.122 . S
Co329 O340 1.976 . S
Co329 O341 2.327 . S
Co329 O342 2.073 . S
H330 O327 0.980 . S
O331 Co323 2.073 . S
O331 C346 1.245 . S
O332 Co322 2.264 . S
O332 Co323 2.327 . S
O332 C346 1.257 . S
O333 Co323 1.976 . S
O333 C345 1.251 . S
O334 Co324 2.111 . S
O334 C345 1.274 . S
O335 Co324 2.143 1_556 S
O335 C348 1.246 . S
O336 Co328 2.286 . S
O336 C347 1.259 . S
O337 Co328 2.069 . S
O337 C347 1.289 . S
O338 Co328 2.015 . S
O338 C348 1.257 . S
O339 Co324 2.111 1_556 S
O339 C349 1.274 . S
O340 Co329 1.976 . S
O340 C349 1.251 . S
O341 Co328 2.264 . S
O341 Co329 2.327 . S
O341 C350 1.257 . S
O342 Co329 2.073 . S
O342 C350 1.245 . S
C343 O351 1.259 . S
C343 O352 1.289 . S
C344 O353 1.246 . S
C344 O354 1.257 . S
C345 O333 1.251 . S
C345 O334 1.274 . S
C346 O331 1.245 . S
C346 O332 1.257 . S
C347 O336 1.259 . S
C347 O337 1.289 . S
C348 O335 1.246 . S
C348 O338 1.257 . S
C349 O339 1.274 . S
C349 O340 1.251 . S
C350 O341 1.257 . S
C350 O342 1.245 . S
O351 Co322 2.286 . S
O351 C343 1.259 . S
O352 Co322 2.069 . S
O352 C343 1.289 . S
O353 Co324 2.143 . S
O353 C344 1.246 . S
O354 Co322 2.015 . S
O354 C344 1.257 . S
H355 C373 0.951 . S
H356 C375 0.951 . S
H357 C377 0.950 . S
H358 C378 0.950 . S
H359 C380 0.950 . S
H360 C383 0.950 . S
H361 C384 0.950 . S
H362 C386 0.950 . S
H363 C387 0.950 . S
H364 C388 0.951 . S
H365 C390 0.951 . S
H366 C392 0.950 . S
H367 C393 0.950 . S
H368 C395 0.950 . S
H369 C398 0.950 . S
H370 C399 0.950 . S
H371 C401 0.950 . S
H372 C402 0.950 . S
C373 H355 0.951 . S
C373 C374 1.366 . S
C373 C375 1.388 . S
C374 C373 1.366 . S
C374 C378 1.385 . S
C375 H356 0.951 . S
C375 C373 1.388 . S
C375 C376 1.366 . S
C376 C375 1.366 . S
C376 C377 1.414 . S
C376 C379 1.499 . S
C377 H357 0.950 . S
C377 C376 1.414 . S
C377 C378 1.374 . S
C378 H358 0.950 . S
C378 C374 1.385 . S
C378 C377 1.374 . S
C379 C376 1.499 . S
C379 C380 1.373 . S
C379 C381 1.389 . S
C380 H359 0.950 . S
C380 C379 1.373 . S
C380 C396 1.377 . S
C381 C379 1.389 . S
C381 C382 1.524 . S
C381 C395 1.377 . S
C382 C381 1.524 . S
C382 C383 1.397 . S
C382 C387 1.363 . S
C383 H360 0.950 . S
C383 C382 1.397 . S
C383 C384 1.334 . S
C384 H361 0.950 . S
C384 C383 1.334 . S
C384 C385 1.287 . S
C385 C384 1.287 . S
C385 C386 1.524 . S
C385 H404 0.913 . S
C386 H362 0.950 . S
C386 C385 1.524 . S
C386 C387 1.415 . S
C387 H363 0.950 . S
C387 C382 1.363 . S
C387 C386 1.415 . S
C388 H364 0.951 . S
C388 C389 1.366 . S
C388 C390 1.388 . S
C389 C388 1.366 . S
C389 C393 1.385 . S
C390 H365 0.951 . S
C390 C388 1.388 . S
C390 C391 1.366 . S
C391 C390 1.366 . S
C391 C392 1.414 . S
C391 C394 1.499 . S
C392 H366 0.950 . S
C392 C391 1.414 . S
C392 C393 1.374 . S
C393 H367 0.950 . S
C393 C389 1.385 . S
C393 C392 1.374 . S
C394 C391 1.499 . S
C394 C395 1.373 . S
C394 C396 1.389 . S
C395 H368 0.950 . S
C395 C381 1.377 . S
C395 C394 1.373 . S
C396 C380 1.377 . S
C396 C394 1.389 . S
C396 C397 1.524 . S
C397 C396 1.524 . S
C397 C398 1.397 . S
C397 C402 1.363 . S
C398 H369 0.950 . S
C398 C397 1.397 . S
C398 C399 1.334 . S
C399 H370 0.950 . S
C399 C398 1.334 . S
C399 C400 1.287 . S
C400 C399 1.287 . S
C400 C401 1.524 . S
C400 H403 0.999 . S
C401 H371 0.950 . S
C401 C400 1.524 . S
C401 C402 1.415 . S
C402 H372 0.950 . S
C402 C397 1.363 . S
C402 C401 1.415 . S
H403 C400 0.999 . S
H404 C385 0.913 . S
H405 C423 0.951 . S
H406 C425 0.951 . S
H407 C427 0.950 . S
H408 C428 0.950 . S
H409 C430 0.950 . S
H410 C433 0.950 . S
H411 C434 0.950 . S
H412 C436 0.950 . S
H413 C437 0.950 . S
H414 C438 0.951 . S
H415 C440 0.951 . S
H416 C442 0.950 . S
H417 C443 0.950 . S
H418 C445 0.950 . S
H419 C448 0.950 . S
H420 C449 0.950 . S
H421 C451 0.950 . S
H422 C452 0.950 . S
C423 H405 0.951 . S
C423 C424 1.366 . S
C423 C425 1.388 . S
C424 C423 1.366 . S
C424 C428 1.385 . S
C425 H406 0.951 . S
C425 C423 1.388 . S
C425 C426 1.366 . S
C426 C425 1.366 . S
C426 C427 1.414 . S
C426 C429 1.499 . S
C427 H407 0.950 . S
C427 C426 1.414 . S
C427 C428 1.374 . S
C428 H408 0.950 . S
C428 C424 1.385 . S
C428 C427 1.374 . S
C429 C426 1.499 . S
C429 C430 1.373 . S
C429 C431 1.389 . S
C430 H409 0.950 . S
C430 C429 1.373 . S
C430 C446 1.377 . S
C431 C429 1.389 . S
C431 C432 1.524 . S
C431 C445 1.377 . S
C432 C431 1.524 . S
C432 C433 1.397 . S
C432 C437 1.363 . S
C433 H410 0.950 . S
C433 C432 1.397 . S
C433 C434 1.334 . S
C434 H411 0.950 . S
C434 C433 1.334 . S
C434 C435 1.287 . S
C435 C434 1.287 . S
C435 C436 1.524 . S
C435 H454 0.913 . S
C436 H412 0.950 . S
C436 C435 1.524 . S
C436 C437 1.415 . S
C437 H413 0.950 . S
C437 C432 1.363 . S
C437 C436 1.415 . S
C438 H414 0.951 . S
C438 C439 1.366 . S
C438 C440 1.388 . S
C439 C438 1.366 . S
C439 C443 1.385 . S
C440 H415 0.951 . S
C440 C438 1.388 . S
C440 C441 1.366 . S
C441 C440 1.366 . S
C441 C442 1.414 . S
C441 C444 1.499 . S
C442 H416 0.950 . S
C442 C441 1.414 . S
C442 C443 1.374 . S
C443 H417 0.950 . S
C443 C439 1.385 . S
C443 C442 1.374 . S
C444 C441 1.499 . S
C444 C445 1.373 . S
C444 C446 1.389 . S
C445 H418 0.950 . S
C445 C431 1.377 . S
C445 C444 1.373 . S
C446 C430 1.377 . S
C446 C444 1.389 . S
C446 C447 1.524 . S
C447 C446 1.524 . S
C447 C448 1.397 . S
C447 C452 1.363 . S
C448 H419 0.950 . S
C448 C447 1.397 . S
C448 C449 1.334 . S
C449 H420 0.950 . S
C449 C448 1.334 . S
C449 C450 1.287 . S
C450 C449 1.287 . S
C450 C451 1.524 . S
C450 H453 0.999 . S
C451 H421 0.950 . S
C451 C450 1.524 . S
C451 C452 1.415 . S
C452 H422 0.950 . S
C452 C447 1.363 . S
C452 C451 1.415 . S
H453 C450 0.999 . S
H454 C435 0.913 . S
H455 C473 0.951 . S
H456 C475 0.951 . S
H457 C477 0.950 . S
H458 C478 0.950 . S
H459 C480 0.950 . S
H460 C483 0.950 . S
H461 C484 0.950 . S
H462 C486 0.950 . S
H463 C487 0.950 . S
H464 C488 0.951 . S
H465 C490 0.951 . S
H466 C492 0.950 . S
H467 C493 0.950 . S
H468 C495 0.950 . S
H469 C498 0.950 . S
H470 C499 0.950 . S
H471 C501 0.950 . S
H472 C502 0.950 . S
C473 H455 0.951 . S
C473 C474 1.366 . S
C473 C475 1.388 . S
C474 C473 1.366 . S
C474 C478 1.385 . S
C475 H456 0.951 . S
C475 C473 1.388 . S
C475 C476 1.366 . S
C476 C475 1.366 . S
C476 C477 1.414 . S
C476 C479 1.499 . S
C477 H457 0.950 . S
C477 C476 1.414 . S
C477 C478 1.374 . S
C478 H458 0.950 . S
C478 C474 1.385 . S
C478 C477 1.374 . S
C479 C476 1.499 . S
C479 C480 1.373 . S
C479 C481 1.389 . S
C480 H459 0.950 . S
C480 C479 1.373 . S
C480 C496 1.377 . S
C481 C479 1.389 . S
C481 C482 1.524 . S
C481 C495 1.377 . S
C482 C481 1.524 . S
C482 C483 1.397 . S
C482 C487 1.363 . S
C483 H460 0.950 . S
C483 C482 1.397 . S
C483 C484 1.334 . S
C484 H461 0.950 . S
C484 C483 1.334 . S
C484 C485 1.287 . S
C485 C484 1.287 . S
C485 C486 1.524 . S
C485 H504 0.913 . S
C486 H462 0.950 . S
C486 C485 1.524 . S
C486 C487 1.415 . S
C487 H463 0.950 . S
C487 C482 1.363 . S
C487 C486 1.415 . S
C488 H464 0.951 . S
C488 C489 1.366 . S
C488 C490 1.388 . S
C489 C488 1.366 . S
C489 C493 1.385 . S
C490 H465 0.951 . S
C490 C488 1.388 . S
C490 C491 1.366 . S
C491 C490 1.366 . S
C491 C492 1.414 . S
C491 C494 1.499 . S
C492 H466 0.950 . S
C492 C491 1.414 . S
C492 C493 1.374 . S
C493 H467 0.950 . S
C493 C489 1.385 . S
C493 C492 1.374 . S
C494 C491 1.499 . S
C494 C495 1.373 . S
C494 C496 1.389 . S
C495 H468 0.950 . S
C495 C481 1.377 . S
C495 C494 1.373 . S
C496 C480 1.377 . S
C496 C494 1.389 . S
C496 C497 1.524 . S
C497 C496 1.524 . S
C497 C498 1.397 . S
C497 C502 1.363 . S
C498 H469 0.950 . S
C498 C497 1.397 . S
C498 C499 1.334 . S
C499 H470 0.950 . S
C499 C498 1.334 . S
C499 C500 1.287 . S
C500 C499 1.287 . S
C500 C501 1.524 . S
C500 H503 0.999 . S
C501 H471 0.950 . S
C501 C500 1.524 . S
C501 C502 1.415 . S
C502 H472 0.950 . S
C502 C497 1.363 . S
C502 C501 1.415 . S
H503 C500 0.999 . S
H504 C485 0.913 . S
H505 C523 0.951 . S
H506 C525 0.951 . S
H507 C527 0.950 . S
H508 C528 0.950 . S
H509 C530 0.950 . S
H510 C533 0.950 . S
H511 C534 0.950 . S
H512 C536 0.950 . S
H513 C537 0.950 . S
H514 C538 0.951 . S
H515 C540 0.951 . S
H516 C542 0.950 . S
H517 C543 0.950 . S
H518 C545 0.950 . S
H519 C548 0.950 . S
H520 C549 0.950 . S
H521 C551 0.950 . S
H522 C552 0.950 . S
C523 H505 0.951 . S
C523 C524 1.366 . S
C523 C525 1.388 . S
C524 C523 1.366 . S
C524 C528 1.385 . S
C525 H506 0.951 . S
C525 C523 1.388 . S
C525 C526 1.366 . S
C526 C525 1.366 . S
C526 C527 1.414 . S
C526 C529 1.499 . S
C527 H507 0.950 . S
C527 C526 1.414 . S
C527 C528 1.374 . S
C528 H508 0.950 . S
C528 C524 1.385 . S
C528 C527 1.374 . S
C529 C526 1.499 . S
C529 C530 1.373 . S
C529 C531 1.389 . S
C530 H509 0.950 . S
C530 C529 1.373 . S
C530 C546 1.377 . S
C531 C529 1.389 . S
C531 C532 1.524 . S
C531 C545 1.377 . S
C532 C531 1.524 . S
C532 C533 1.397 . S
C532 C537 1.363 . S
C533 H510 0.950 . S
C533 C532 1.397 . S
C533 C534 1.334 . S
C534 H511 0.950 . S
C534 C533 1.334 . S
C534 C535 1.287 . S
C535 C534 1.287 . S
C535 C536 1.524 . S
C535 H554 0.913 . S
C536 H512 0.950 . S
C536 C535 1.524 . S
C536 C537 1.415 . S
C537 H513 0.950 . S
C537 C532 1.363 . S
C537 C536 1.415 . S
C538 H514 0.951 . S
C538 C539 1.366 . S
C538 C540 1.388 . S
C539 C538 1.366 . S
C539 C543 1.385 . S
C540 H515 0.951 . S
C540 C538 1.388 . S
C540 C541 1.366 . S
C541 C540 1.366 . S
C541 C542 1.414 . S
C541 C544 1.499 . S
C542 H516 0.950 . S
C542 C541 1.414 . S
C542 C543 1.374 . S
C543 H517 0.950 . S
C543 C539 1.385 . S
C543 C542 1.374 . S
C544 C541 1.499 . S
C544 C545 1.373 . S
C544 C546 1.389 . S
C545 H518 0.950 . S
C545 C531 1.377 . S
C545 C544 1.373 . S
C546 C530 1.377 . S
C546 C544 1.389 . S
C546 C547 1.524 . S
C547 C546 1.524 . S
C547 C548 1.397 . S
C547 C552 1.363 . S
C548 H519 0.950 . S
C548 C547 1.397 . S
C548 C549 1.334 . S
C549 H520 0.950 . S
C549 C548 1.334 . S
C549 C550 1.287 . S
C550 C549 1.287 . S
C550 C551 1.524 . S
C550 H553 0.999 . S
C551 H521 0.950 . S
C551 C550 1.524 . S
C551 C552 1.415 . S
C552 H522 0.950 . S
C552 C547 1.363 . S
C552 C551 1.415 . S
H553 C550 0.999 . S
H554 C535 0.913 . S
H555 C573 0.951 . S
H556 C575 0.951 . S
H557 C577 0.950 . S
H558 C578 0.950 . S
H559 C580 0.950 . S
H560 C583 0.950 . S
H561 C584 0.950 . S
H562 C586 0.950 . S
H563 C587 0.950 . S
H564 C588 0.951 . S
H565 C590 0.951 . S
H566 C592 0.950 . S
H567 C593 0.950 . S
H568 C595 0.950 . S
H569 C598 0.950 . S
H570 C599 0.950 . S
H571 C601 0.950 . S
H572 C602 0.950 . S
C573 H555 0.951 . S
C573 C574 1.366 . S
C573 C575 1.388 . S
C574 C573 1.366 . S
C574 C578 1.385 . S
C575 H556 0.951 . S
C575 C573 1.388 . S
C575 C576 1.366 . S
C576 C575 1.366 . S
C576 C577 1.414 . S
C576 C579 1.499 . S
C577 H557 0.950 . S
C577 C576 1.414 . S
C577 C578 1.374 . S
C578 H558 0.950 . S
C578 C574 1.385 . S
C578 C577 1.374 . S
C579 C576 1.499 . S
C579 C580 1.373 . S
C579 C581 1.389 . S
C580 H559 0.950 . S
C580 C579 1.373 . S
C580 C596 1.377 . S
C581 C579 1.389 . S
C581 C582 1.524 . S
C581 C595 1.377 . S
C582 C581 1.524 . S
C582 C583 1.397 . S
C582 C587 1.363 . S
C583 H560 0.950 . S
C583 C582 1.397 . S
C583 C584 1.334 . S
C584 H561 0.950 . S
C584 C583 1.334 . S
C584 C585 1.287 . S
C585 C584 1.287 . S
C585 C586 1.524 . S
C585 H604 0.913 . S
C586 H562 0.950 . S
C586 C585 1.524 . S
C586 C587 1.415 . S
C587 H563 0.950 . S
C587 C582 1.363 . S
C587 C586 1.415 . S
C588 H564 0.951 . S
C588 C589 1.366 . S
C588 C590 1.388 . S
C589 C588 1.366 . S
C589 C593 1.385 . S
C590 H565 0.951 . S
C590 C588 1.388 . S
C590 C591 1.366 . S
C591 C590 1.366 . S
C591 C592 1.414 . S
C591 C594 1.499 . S
C592 H566 0.950 . S
C592 C591 1.414 . S
C592 C593 1.374 . S
C593 H567 0.950 . S
C593 C589 1.385 . S
C593 C592 1.374 . S
C594 C591 1.499 . S
C594 C595 1.373 . S
C594 C596 1.389 . S
C595 H568 0.950 . S
C595 C581 1.377 . S
C595 C594 1.373 . S
C596 C580 1.377 . S
C596 C594 1.389 . S
C596 C597 1.524 . S
C597 C596 1.524 . S
C597 C598 1.397 . S
C597 C602 1.363 . S
C598 H569 0.950 . S
C598 C597 1.397 . S
C598 C599 1.334 . S
C599 H570 0.950 . S
C599 C598 1.334 . S
C599 C600 1.287 . S
C600 C599 1.287 . S
C600 C601 1.524 . S
C600 H603 0.999 . S
C601 H571 0.950 . S
C601 C600 1.524 . S
C601 C602 1.415 . S
C602 H572 0.950 . S
C602 C597 1.363 . S
C602 C601 1.415 . S
H603 C600 0.999 . S
H604 C585 0.913 . S
H605 C623 0.951 . S
H606 C625 0.951 . S
H607 C627 0.950 . S
H608 C628 0.950 . S
H609 C630 0.950 . S
H610 C633 0.950 . S
H611 C634 0.950 . S
H612 C636 0.950 . S
H613 C637 0.950 . S
H614 C638 0.951 . S
H615 C640 0.951 . S
H616 C642 0.950 . S
H617 C643 0.950 . S
H618 C645 0.950 . S
H619 C648 0.950 . S
H620 C649 0.950 . S
H621 C651 0.950 . S
H622 C652 0.950 . S
C623 H605 0.951 . S
C623 C624 1.366 . S
C623 C625 1.388 . S
C624 C623 1.366 . S
C624 C628 1.385 . S
C625 H606 0.951 . S
C625 C623 1.388 . S
C625 C626 1.366 . S
C626 C625 1.366 . S
C626 C627 1.414 . S
C626 C629 1.499 . S
C627 H607 0.950 . S
C627 C626 1.414 . S
C627 C628 1.374 . S
C628 H608 0.950 . S
C628 C624 1.385 . S
C628 C627 1.374 . S
C629 C626 1.499 . S
C629 C630 1.373 . S
C629 C631 1.389 . S
C630 H609 0.950 . S
C630 C629 1.373 . S
C630 C646 1.377 . S
C631 C629 1.389 . S
C631 C632 1.524 . S
C631 C645 1.377 . S
C632 C631 1.524 . S
C632 C633 1.397 . S
C632 C637 1.363 . S
C633 H610 0.950 . S
C633 C632 1.397 . S
C633 C634 1.334 . S
C634 H611 0.950 . S
C634 C633 1.334 . S
C634 C635 1.287 . S
C635 C634 1.287 . S
C635 C636 1.524 . S
C635 H654 0.913 . S
C636 H612 0.950 . S
C636 C635 1.524 . S
C636 C637 1.415 . S
C637 H613 0.950 . S
C637 C632 1.363 . S
C637 C636 1.415 . S
C638 H614 0.951 . S
C638 C639 1.366 . S
C638 C640 1.388 . S
C639 C638 1.366 . S
C639 C643 1.385 . S
C640 H615 0.951 . S
C640 C638 1.388 . S
C640 C641 1.366 . S
C641 C640 1.366 . S
C641 C642 1.414 . S
C641 C644 1.499 . S
C642 H616 0.950 . S
C642 C641 1.414 . S
C642 C643 1.374 . S
C643 H617 0.950 . S
C643 C639 1.385 . S
C643 C642 1.374 . S
C644 C641 1.499 . S
C644 C645 1.373 . S
C644 C646 1.389 . S
C645 H618 0.950 . S
C645 C631 1.377 . S
C645 C644 1.373 . S
C646 C630 1.377 . S
C646 C644 1.389 . S
C646 C647 1.524 . S
C647 C646 1.524 . S
C647 C648 1.397 . S
C647 C652 1.363 . S
C648 H619 0.950 . S
C648 C647 1.397 . S
C648 C649 1.334 . S
C649 H620 0.950 . S
C649 C648 1.334 . S
C649 C650 1.287 . S
C650 C649 1.287 . S
C650 C651 1.524 . S
C650 H653 0.999 . S
C651 H621 0.950 . S
C651 C650 1.524 . S
C651 C652 1.415 . S
C652 H622 0.950 . S
C652 C647 1.363 . S
C652 C651 1.415 . S
H653 C650 0.999 . S
H654 C635 0.913 . S
H655 C673 0.951 . S
H656 C675 0.951 . S
H657 C677 0.950 . S
H658 C678 0.950 . S
H659 C680 0.950 . S
H660 C683 0.950 . S
H661 C684 0.950 . S
H662 C686 0.950 . S
H663 C687 0.950 . S
H664 C688 0.951 . S
H665 C690 0.951 . S
H666 C692 0.950 . S
H667 C693 0.950 . S
H668 C695 0.950 . S
H669 C698 0.950 . S
H670 C699 0.950 . S
H671 C701 0.950 . S
H672 C702 0.950 . S
C673 H655 0.951 . S
C673 C674 1.366 . S
C673 C675 1.388 . S
C674 C673 1.366 . S
C674 C678 1.385 . S
C675 H656 0.951 . S
C675 C673 1.388 . S
C675 C676 1.366 . S
C676 C675 1.366 . S
C676 C677 1.414 . S
C676 C679 1.499 . S
C677 H657 0.950 . S
C677 C676 1.414 . S
C677 C678 1.374 . S
C678 H658 0.950 . S
C678 C674 1.385 . S
C678 C677 1.374 . S
C679 C676 1.499 . S
C679 C680 1.373 . S
C679 C681 1.389 . S
C680 H659 0.950 . S
C680 C679 1.373 . S
C680 C696 1.377 . S
C681 C679 1.389 . S
C681 C682 1.524 . S
C681 C695 1.377 . S
C682 C681 1.524 . S
C682 C683 1.397 . S
C682 C687 1.363 . S
C683 H660 0.950 . S
C683 C682 1.397 . S
C683 C684 1.334 . S
C684 H661 0.950 . S
C684 C683 1.334 . S
C684 C685 1.287 . S
C685 C684 1.287 . S
C685 C686 1.524 . S
C685 H704 0.913 . S
C686 H662 0.950 . S
C686 C685 1.524 . S
C686 C687 1.415 . S
C687 H663 0.950 . S
C687 C682 1.363 . S
C687 C686 1.415 . S
C688 H664 0.951 . S
C688 C689 1.366 . S
C688 C690 1.388 . S
C689 C688 1.366 . S
C689 C693 1.385 . S
C690 H665 0.951 . S
C690 C688 1.388 . S
C690 C691 1.366 . S
C691 C690 1.366 . S
C691 C692 1.414 . S
C691 C694 1.499 . S
C692 H666 0.950 . S
C692 C691 1.414 . S
C692 C693 1.374 . S
C693 H667 0.950 . S
C693 C689 1.385 . S
C693 C692 1.374 . S
C694 C691 1.499 . S
C694 C695 1.373 . S
C694 C696 1.389 . S
C695 H668 0.950 . S
C695 C681 1.377 . S
C695 C694 1.373 . S
C696 C680 1.377 . S
C696 C694 1.389 . S
C696 C697 1.524 . S
C697 C696 1.524 . S
C697 C698 1.397 . S
C697 C702 1.363 . S
C698 H669 0.950 . S
C698 C697 1.397 . S
C698 C699 1.334 . S
C699 H670 0.950 . S
C699 C698 1.334 . S
C699 C700 1.287 . S
C700 C699 1.287 . S
C700 C701 1.524 . S
C700 H703 0.999 . S
C701 H671 0.950 . S
C701 C700 1.524 . S
C701 C702 1.415 . S
C702 H672 0.950 . S
C702 C697 1.363 . S
C702 C701 1.415 . S
H703 C700 0.999 . S
H704 C685 0.913 . S
H705 C723 0.951 . S
H706 C725 0.951 . S
H707 C727 0.950 . S
H708 C728 0.950 . S
H709 C730 0.950 . S
H710 C733 0.950 . S
H711 C734 0.950 . S
H712 C736 0.950 . S
H713 C737 0.950 . S
H714 C738 0.951 . S
H715 C740 0.951 . S
H716 C742 0.950 . S
H717 C743 0.950 . S
H718 C745 0.950 . S
H719 C748 0.950 . S
H720 C749 0.950 . S
H721 C751 0.950 . S
H722 C752 0.950 . S
C723 H705 0.951 . S
C723 C724 1.366 . S
C723 C725 1.388 . S
C724 C723 1.366 . S
C724 C728 1.385 . S
C725 H706 0.951 . S
C725 C723 1.388 . S
C725 C726 1.366 . S
C726 C725 1.366 . S
C726 C727 1.414 . S
C726 C729 1.499 . S
C727 H707 0.950 . S
C727 C726 1.414 . S
C727 C728 1.374 . S
C728 H708 0.950 . S
C728 C724 1.385 . S
C728 C727 1.374 . S
C729 C726 1.499 . S
C729 C730 1.373 . S
C729 C731 1.389 . S
C730 H709 0.950 . S
C730 C729 1.373 . S
C730 C746 1.377 . S
C731 C729 1.389 . S
C731 C732 1.524 . S
C731 C745 1.377 . S
C732 C731 1.524 . S
C732 C733 1.397 . S
C732 C737 1.363 . S
C733 H710 0.950 . S
C733 C732 1.397 . S
C733 C734 1.334 . S
C734 H711 0.950 . S
C734 C733 1.334 . S
C734 C735 1.287 . S
C735 C734 1.287 . S
C735 C736 1.524 . S
C735 H754 0.913 . S
C736 H712 0.950 . S
C736 C735 1.524 . S
C736 C737 1.415 . S
C737 H713 0.950 . S
C737 C732 1.363 . S
C737 C736 1.415 . S
C738 H714 0.951 . S
C738 C739 1.366 . S
C738 C740 1.388 . S
C739 C738 1.366 . S
C739 C743 1.385 . S
C740 H715 0.951 . S
C740 C738 1.388 . S
C740 C741 1.366 . S
C741 C740 1.366 . S
C741 C742 1.414 . S
C741 C744 1.499 . S
C742 H716 0.950 . S
C742 C741 1.414 . S
C742 C743 1.374 . S
C743 H717 0.950 . S
C743 C739 1.385 . S
C743 C742 1.374 . S
C744 C741 1.499 . S
C744 C745 1.373 . S
C744 C746 1.389 . S
C745 H718 0.950 . S
C745 C731 1.377 . S
C745 C744 1.373 . S
C746 C730 1.377 . S
C746 C744 1.389 . S
C746 C747 1.524 . S
C747 C746 1.524 . S
C747 C748 1.397 . S
C747 C752 1.363 . S
C748 H719 0.950 . S
C748 C747 1.397 . S
C748 C749 1.334 . S
C749 H720 0.950 . S
C749 C748 1.334 . S
C749 C750 1.287 . S
C750 C749 1.287 . S
C750 C751 1.524 . S
C750 H753 0.999 . S
C751 H721 0.950 . S
C751 C750 1.524 . S
C751 C752 1.415 . S
C752 H722 0.950 . S
C752 C747 1.363 . S
C752 C751 1.415 . S
H753 C750 0.999 . S
H754 C735 0.913 . S
H755 C773 0.951 . S
H756 C775 0.951 . S
H757 C777 0.950 . S
H758 C778 0.950 . S
H759 C780 0.950 . S
H760 C783 0.950 . S
H761 C784 0.950 . S
H762 C786 0.950 . S
H763 C787 0.950 . S
H764 C788 0.951 . S
H765 C790 0.951 . S
H766 C792 0.950 . S
H767 C793 0.950 . S
H768 C795 0.950 . S
H769 C798 0.950 . S
H770 C799 0.950 . S
H771 C801 0.950 . S
H772 C802 0.950 . S
C773 H755 0.951 . S
C773 C774 1.366 . S
C773 C775 1.388 . S
C774 C773 1.366 . S
C774 C778 1.385 . S
C775 H756 0.951 . S
C775 C773 1.388 . S
C775 C776 1.366 . S
C776 C775 1.366 . S
C776 C777 1.414 . S
C776 C779 1.499 . S
C777 H757 0.950 . S
C777 C776 1.414 . S
C777 C778 1.374 . S
C778 H758 0.950 . S
C778 C774 1.385 . S
C778 C777 1.374 . S
C779 C776 1.499 . S
C779 C780 1.373 . S
C779 C781 1.389 . S
C780 H759 0.950 . S
C780 C779 1.373 . S
C780 C796 1.377 . S
C781 C779 1.389 . S
C781 C782 1.524 . S
C781 C795 1.377 . S
C782 C781 1.524 . S
C782 C783 1.397 . S
C782 C787 1.363 . S
C783 H760 0.950 . S
C783 C782 1.397 . S
C783 C784 1.334 . S
C784 H761 0.950 . S
C784 C783 1.334 . S
C784 C785 1.287 . S
C785 C784 1.287 . S
C785 C786 1.524 . S
C785 H804 0.913 . S
C786 H762 0.950 . S
C786 C785 1.524 . S
C786 C787 1.415 . S
C787 H763 0.950 . S
C787 C782 1.363 . S
C787 C786 1.415 . S
C788 H764 0.951 . S
C788 C789 1.366 . S
C788 C790 1.388 . S
C789 C788 1.366 . S
C789 C793 1.385 . S
C790 H765 0.951 . S
C790 C788 1.388 . S
C790 C791 1.366 . S
C791 C790 1.366 . S
C791 C792 1.414 . S
C791 C794 1.499 . S
C792 H766 0.950 . S
C792 C791 1.414 . S
C792 C793 1.374 . S
C793 H767 0.950 . S
C793 C789 1.385 . S
C793 C792 1.374 . S
C794 C791 1.499 . S
C794 C795 1.373 . S
C794 C796 1.389 . S
C795 H768 0.950 . S
C795 C781 1.377 . S
C795 C794 1.373 . S
C796 C780 1.377 . S
C796 C794 1.389 . S
C796 C797 1.524 . S
C797 C796 1.524 . S
C797 C798 1.397 . S
C797 C802 1.363 . S
C798 H769 0.950 . S
C798 C797 1.397 . S
C798 C799 1.334 . S
C799 H770 0.950 . S
C799 C798 1.334 . S
C799 C800 1.287 . S
C800 C799 1.287 . S
C800 C801 1.524 . S
C800 H803 0.999 . S
C801 H771 0.950 . S
C801 C800 1.524 . S
C801 C802 1.415 . S
C802 H772 0.950 . S
C802 C797 1.363 . S
C802 C801 1.415 . S
H803 C800 0.999 . S
H804 C785 0.913 . S
H805 C823 0.951 . S
H806 C825 0.951 . S
H807 C827 0.950 . S
H808 C828 0.950 . S
H809 C830 0.950 . S
H810 C833 0.950 . S
H811 C834 0.950 . S
H812 C836 0.950 . S
H813 C837 0.950 . S
H814 C838 0.951 . S
H815 C840 0.951 . S
H816 C842 0.950 . S
H817 C843 0.950 . S
H818 C845 0.950 . S
H819 C848 0.950 . S
H820 C849 0.950 . S
H821 C851 0.950 . S
H822 C852 0.950 . S
C823 H805 0.951 . S
C823 C824 1.366 . S
C823 C825 1.388 . S
C824 C823 1.366 . S
C824 C828 1.385 . S
C825 H806 0.951 . S
C825 C823 1.388 . S
C825 C826 1.366 . S
C826 C825 1.366 . S
C826 C827 1.414 . S
C826 C829 1.499 . S
C827 H807 0.950 . S
C827 C826 1.414 . S
C827 C828 1.374 . S
C828 H808 0.950 . S
C828 C824 1.385 . S
C828 C827 1.374 . S
C829 C826 1.499 . S
C829 C830 1.373 . S
C829 C831 1.389 . S
C830 H809 0.950 . S
C830 C829 1.373 . S
C830 C846 1.377 . S
C831 C829 1.389 . S
C831 C832 1.524 . S
C831 C845 1.377 . S
C832 C831 1.524 . S
C832 C833 1.397 . S
C832 C837 1.363 . S
C833 H810 0.950 . S
C833 C832 1.397 . S
C833 C834 1.334 . S
C834 H811 0.950 . S
C834 C833 1.334 . S
C834 C835 1.287 . S
C835 C834 1.287 . S
C835 C836 1.524 . S
C835 H854 0.913 . S
C836 H812 0.950 . S
C836 C835 1.524 . S
C836 C837 1.415 . S
C837 H813 0.950 . S
C837 C832 1.363 . S
C837 C836 1.415 . S
C838 H814 0.951 . S
C838 C839 1.366 . S
C838 C840 1.388 . S
C839 C838 1.366 . S
C839 C843 1.385 . S
C840 H815 0.951 . S
C840 C838 1.388 . S
C840 C841 1.366 . S
C841 C840 1.366 . S
C841 C842 1.414 . S
C841 C844 1.499 . S
C842 H816 0.950 . S
C842 C841 1.414 . S
C842 C843 1.374 . S
C843 H817 0.950 . S
C843 C839 1.385 . S
C843 C842 1.374 . S
C844 C841 1.499 . S
C844 C845 1.373 . S
C844 C846 1.389 . S
C845 H818 0.950 . S
C845 C831 1.377 . S
C845 C844 1.373 . S
C846 C830 1.377 . S
C846 C844 1.389 . S
C846 C847 1.524 . S
C847 C846 1.524 . S
C847 C848 1.397 . S
C847 C852 1.363 . S
C848 H819 0.950 . S
C848 C847 1.397 . S
C848 C849 1.334 . S
C849 H820 0.950 . S
C849 C848 1.334 . S
C849 C850 1.287 . S
C850 C849 1.287 . S
C850 C851 1.524 . S
C850 H853 0.999 . S
C851 H821 0.950 . S
C851 C850 1.524 . S
C851 C852 1.415 . S
C852 H822 0.950 . S
C852 C847 1.363 . S
C852 C851 1.415 . S
H853 C850 0.999 . S
H854 C835 0.913 . S
H855 C873 0.951 . S
H856 C875 0.951 . S
H857 C877 0.950 . S
H858 C878 0.950 . S
H859 C880 0.950 . S
H860 C883 0.950 . S
H861 C884 0.950 . S
H862 C886 0.950 . S
H863 C887 0.950 . S
H864 C888 0.951 . S
H865 C890 0.951 . S
H866 C892 0.950 . S
H867 C893 0.950 . S
H868 C895 0.950 . S
H869 C898 0.950 . S
H870 C899 0.950 . S
H871 C901 0.950 . S
H872 C902 0.950 . S
C873 H855 0.951 . S
C873 C874 1.366 . S
C873 C875 1.388 . S
C874 C873 1.366 . S
C874 C878 1.385 . S
C875 H856 0.951 . S
C875 C873 1.388 . S
C875 C876 1.366 . S
C876 C875 1.366 . S
C876 C877 1.414 . S
C876 C879 1.499 . S
C877 H857 0.950 . S
C877 C876 1.414 . S
C877 C878 1.374 . S
C878 H858 0.950 . S
C878 C874 1.385 . S
C878 C877 1.374 . S
C879 C876 1.499 . S
C879 C880 1.373 . S
C879 C881 1.389 . S
C880 H859 0.950 . S
C880 C879 1.373 . S
C880 C896 1.377 . S
C881 C879 1.389 . S
C881 C882 1.524 . S
C881 C895 1.377 . S
C882 C881 1.524 . S
C882 C883 1.397 . S
C882 C887 1.363 . S
C883 H860 0.950 . S
C883 C882 1.397 . S
C883 C884 1.334 . S
C884 H861 0.950 . S
C884 C883 1.334 . S
C884 C885 1.287 . S
C885 C884 1.287 . S
C885 C886 1.524 . S
C885 H904 0.913 . S
C886 H862 0.950 . S
C886 C885 1.524 . S
C886 C887 1.415 . S
C887 H863 0.950 . S
C887 C882 1.363 . S
C887 C886 1.415 . S
C888 H864 0.951 . S
C888 C889 1.366 . S
C888 C890 1.388 . S
C889 C888 1.366 . S
C889 C893 1.385 . S
C890 H865 0.951 . S
C890 C888 1.388 . S
C890 C891 1.366 . S
C891 C890 1.366 . S
C891 C892 1.414 . S
C891 C894 1.499 . S
C892 H866 0.950 . S
C892 C891 1.414 . S
C892 C893 1.374 . S
C893 H867 0.950 . S
C893 C889 1.385 . S
C893 C892 1.374 . S
C894 C891 1.499 . S
C894 C895 1.373 . S
C894 C896 1.389 . S
C895 H868 0.950 . S
C895 C881 1.377 . S
C895 C894 1.373 . S
C896 C880 1.377 . S
C896 C894 1.389 . S
C896 C897 1.524 . S
C897 C896 1.524 . S
C897 C898 1.397 . S
C897 C902 1.363 . S
C898 H869 0.950 . S
C898 C897 1.397 . S
C898 C899 1.334 . S
C899 H870 0.950 . S
C899 C898 1.334 . S
C899 C900 1.287 . S
C900 C899 1.287 . S
C900 C901 1.524 . S
C900 H903 0.999 . S
C901 H871 0.950 . S
C901 C900 1.524 . S
C901 C902 1.415 . S
C902 H872 0.950 . S
C902 C897 1.363 . S
C902 C901 1.415 . S
H903 C900 0.999 . S
H904 C885 0.913 . S
H905 C923 0.951 . S
H906 C925 0.951 . S
H907 C927 0.950 . S
H908 C928 0.950 . S
H909 C930 0.950 . S
H910 C933 0.950 . S
H911 C934 0.950 . S
H912 C936 0.950 . S
H913 C937 0.950 . S
H914 C938 0.951 . S
H915 C940 0.951 . S
H916 C942 0.950 . S
H917 C943 0.950 . S
H918 C945 0.950 . S
H919 C948 0.950 . S
H920 C949 0.950 . S
H921 C951 0.950 . S
H922 C952 0.950 . S
C923 H905 0.951 . S
C923 C924 1.366 . S
C923 C925 1.388 . S
C924 C923 1.366 . S
C924 C928 1.385 . S
C925 H906 0.951 . S
C925 C923 1.388 . S
C925 C926 1.366 . S
C926 C925 1.366 . S
C926 C927 1.414 . S
C926 C929 1.499 . S
C927 H907 0.950 . S
C927 C926 1.414 . S
C927 C928 1.374 . S
C928 H908 0.950 . S
C928 C924 1.385 . S
C928 C927 1.374 . S
C929 C926 1.499 . S
C929 C930 1.373 . S
C929 C931 1.389 . S
C930 H909 0.950 . S
C930 C929 1.373 . S
C930 C946 1.377 . S
C931 C929 1.389 . S
C931 C932 1.524 . S
C931 C945 1.377 . S
C932 C931 1.524 . S
C932 C933 1.397 . S
C932 C937 1.363 . S
C933 H910 0.950 . S
C933 C932 1.397 . S
C933 C934 1.334 . S
C934 H911 0.950 . S
C934 C933 1.334 . S
C934 C935 1.287 . S
C935 C934 1.287 . S
C935 C936 1.524 . S
C935 H954 0.913 . S
C936 H912 0.950 . S
C936 C935 1.524 . S
C936 C937 1.415 . S
C937 H913 0.950 . S
C937 C932 1.363 . S
C937 C936 1.415 . S
C938 H914 0.951 . S
C938 C939 1.366 . S
C938 C940 1.388 . S
C939 C938 1.366 . S
C939 C943 1.385 . S
C940 H915 0.951 . S
C940 C938 1.388 . S
C940 C941 1.366 . S
C941 C940 1.366 . S
C941 C942 1.414 . S
C941 C944 1.499 . S
C942 H916 0.950 . S
C942 C941 1.414 . S
C942 C943 1.374 . S
C943 H917 0.950 . S
C943 C939 1.385 . S
C943 C942 1.374 . S
C944 C941 1.499 . S
C944 C945 1.373 . S
C944 C946 1.389 . S
C945 H918 0.950 . S
C945 C931 1.377 . S
C945 C944 1.373 . S
C946 C930 1.377 . S
C946 C944 1.389 . S
C946 C947 1.524 . S
C947 C946 1.524 . S
C947 C948 1.397 . S
C947 C952 1.363 . S
C948 H919 0.950 . S
C948 C947 1.397 . S
C948 C949 1.334 . S
C949 H920 0.950 . S
C949 C948 1.334 . S
C949 C950 1.287 . S
C950 C949 1.287 . S
C950 C951 1.524 . S
C950 H953 0.999 . S
C951 H921 0.950 . S
C951 C950 1.524 . S
C951 C952 1.415 . S
C952 H922 0.950 . S
C952 C947 1.363 . S
C952 C951 1.415 . S
H953 C950 0.999 . S
H954 C935 0.913 . S
H955 C973 0.951 . S
H956 C975 0.951 . S
H957 C977 0.950 . S
H958 C978 0.950 . S
H959 C980 0.950 . S
H960 C983 0.950 . S
H961 C984 0.950 . S
H962 C986 0.950 . S
H963 C987 0.950 . S
H964 C988 0.951 . S
H965 C990 0.951 . S
H966 C992 0.950 . S
H967 C993 0.950 . S
H968 C995 0.950 . S
H969 C998 0.950 . S
H970 C999 0.950 . S
H971 C1001 0.950 . S
H972 C1002 0.950 . S
C973 H955 0.951 . S
C973 C974 1.366 . S
C973 C975 1.388 . S
C974 C973 1.366 . S
C974 C978 1.385 . S
C975 H956 0.951 . S
C975 C973 1.388 . S
C975 C976 1.366 . S
C976 C975 1.366 . S
C976 C977 1.414 . S
C976 C979 1.499 . S
C977 H957 0.950 . S
C977 C976 1.414 . S
C977 C978 1.374 . S
C978 H958 0.950 . S
C978 C974 1.385 . S
C978 C977 1.374 . S
C979 C976 1.499 . S
C979 C980 1.373 . S
C979 C981 1.389 . S
C980 H959 0.950 . S
C980 C979 1.373 . S
C980 C996 1.377 . S
C981 C979 1.389 . S
C981 C982 1.524 . S
C981 C995 1.377 . S
C982 C981 1.524 . S
C982 C983 1.397 . S
C982 C987 1.363 . S
C983 H960 0.950 . S
C983 C982 1.397 . S
C983 C984 1.334 . S
C984 H961 0.950 . S
C984 C983 1.334 . S
C984 C985 1.287 . S
C985 C984 1.287 . S
C985 C986 1.524 . S
C985 H1004 0.913 . S
C986 H962 0.950 . S
C986 C985 1.524 . S
C986 C987 1.415 . S
C987 H963 0.950 . S
C987 C982 1.363 . S
C987 C986 1.415 . S
C988 H964 0.951 . S
C988 C989 1.366 . S
C988 C990 1.388 . S
C989 C988 1.366 . S
C989 C993 1.385 . S
C990 H965 0.951 . S
C990 C988 1.388 . S
C990 C991 1.366 . S
C991 C990 1.366 . S
C991 C992 1.414 . S
C991 C994 1.499 . S
C992 H966 0.950 . S
C992 C991 1.414 . S
C992 C993 1.374 . S
C993 H967 0.950 . S
C993 C989 1.385 . S
C993 C992 1.374 . S
C994 C991 1.499 . S
C994 C995 1.373 . S
C994 C996 1.389 . S
C995 H968 0.950 . S
C995 C981 1.377 . S
C995 C994 1.373 . S
C996 C980 1.377 . S
C996 C994 1.389 . S
C996 C997 1.524 . S
C997 C996 1.524 . S
C997 C998 1.397 . S
C997 C1002 1.363 . S
C998 H969 0.950 . S
C998 C997 1.397 . S
C998 C999 1.334 . S
C999 H970 0.950 . S
C999 C998 1.334 . S
C999 C1000 1.287 . S
C1000 C999 1.287 . S
C1000 C1001 1.524 . S
C1000 H1003 0.999 . S
C1001 H971 0.950 . S
C1001 C1000 1.524 . S
C1001 C1002 1.415 . S
C1002 H972 0.950 . S
C1002 C997 1.363 . S
C1002 C1001 1.415 . S
H1003 C1000 0.999 . S
H1004 C985 0.913 . S
H1005 C1023 0.951 . S
H1006 C1025 0.951 . S
H1007 C1027 0.950 . S
H1008 C1028 0.950 . S
H1009 C1030 0.950 . S
H1010 C1033 0.950 . S
H1011 C1034 0.950 . S
H1012 C1036 0.950 . S
H1013 C1037 0.950 . S
H1014 C1038 0.951 . S
H1015 C1040 0.951 . S
H1016 C1042 0.950 . S
H1017 C1043 0.950 . S
H1018 C1045 0.950 . S
H1019 C1048 0.950 . S
H1020 C1049 0.950 . S
H1021 C1051 0.950 . S
H1022 C1052 0.950 . S
C1023 H1005 0.951 . S
C1023 C1024 1.366 . S
C1023 C1025 1.388 . S
C1024 C1023 1.366 . S
C1024 C1028 1.385 . S
C1025 H1006 0.951 . S
C1025 C1023 1.388 . S
C1025 C1026 1.366 . S
C1026 C1025 1.366 . S
C1026 C1027 1.414 . S
C1026 C1029 1.499 . S
C1027 H1007 0.950 . S
C1027 C1026 1.414 . S
C1027 C1028 1.374 . S
C1028 H1008 0.950 . S
C1028 C1024 1.385 . S
C1028 C1027 1.374 . S
C1029 C1026 1.499 . S
C1029 C1030 1.373 . S
C1029 C1031 1.389 . S
C1030 H1009 0.950 . S
C1030 C1029 1.373 . S
C1030 C1046 1.377 . S
C1031 C1029 1.389 . S
C1031 C1032 1.524 . S
C1031 C1045 1.377 . S
C1032 C1031 1.524 . S
C1032 C1033 1.397 . S
C1032 C1037 1.363 . S
C1033 H1010 0.950 . S
C1033 C1032 1.397 . S
C1033 C1034 1.334 . S
C1034 H1011 0.950 . S
C1034 C1033 1.334 . S
C1034 C1035 1.287 . S
C1035 C1034 1.287 . S
C1035 C1036 1.524 . S
C1035 H1054 0.913 . S
C1036 H1012 0.950 . S
C1036 C1035 1.524 . S
C1036 C1037 1.415 . S
C1037 H1013 0.950 . S
C1037 C1032 1.363 . S
C1037 C1036 1.415 . S
C1038 H1014 0.951 . S
C1038 C1039 1.366 . S
C1038 C1040 1.388 . S
C1039 C1038 1.366 . S
C1039 C1043 1.385 . S
C1040 H1015 0.951 . S
C1040 C1038 1.388 . S
C1040 C1041 1.366 . S
C1041 C1040 1.366 . S
C1041 C1042 1.414 . S
C1041 C1044 1.499 . S
C1042 H1016 0.950 . S
C1042 C1041 1.414 . S
C1042 C1043 1.374 . S
C1043 H1017 0.950 . S
C1043 C1039 1.385 . S
C1043 C1042 1.374 . S
C1044 C1041 1.499 . S
C1044 C1045 1.373 . S
C1044 C1046 1.389 . S
C1045 H1018 0.950 . S
C1045 C1031 1.377 . S
C1045 C1044 1.373 . S
C1046 C1030 1.377 . S
C1046 C1044 1.389 . S
C1046 C1047 1.524 . S
C1047 C1046 1.524 . S
C1047 C1048 1.397 . S
C1047 C1052 1.363 . S
C1048 H1019 0.950 . S
C1048 C1047 1.397 . S
C1048 C1049 1.334 . S
C1049 H1020 0.950 . S
C1049 C1048 1.334 . S
C1049 C1050 1.287 . S
C1050 C1049 1.287 . S
C1050 C1051 1.524 . S
C1050 H1053 0.999 . S
C1051 H1021 0.950 . S
C1051 C1050 1.524 . S
C1051 C1052 1.415 . S
C1052 H1022 0.950 . S
C1052 C1047 1.363 . S
C1052 C1051 1.415 . S
H1053 C1050 0.999 . S
H1054 C1035 0.913 . S
H1055 C1073 0.951 . S
H1056 C1075 0.951 . S
H1057 C1077 0.950 . S
H1058 C1078 0.950 . S
H1059 C1080 0.950 . S
H1060 C1083 0.950 . S
H1061 C1084 0.950 . S
H1062 C1086 0.950 . S
H1063 C1087 0.950 . S
H1064 C1088 0.951 . S
H1065 C1090 0.951 . S
H1066 C1092 0.950 . S
H1067 C1093 0.950 . S
H1068 C1095 0.950 . S
H1069 C1098 0.950 . S
H1070 C1099 0.950 . S
H1071 C1101 0.950 . S
H1072 C1102 0.950 . S
C1073 H1055 0.951 . S
C1073 C1074 1.366 . S
C1073 C1075 1.388 . S
C1074 C1073 1.366 . S
C1074 C1078 1.385 . S
C1075 H1056 0.951 . S
C1075 C1073 1.388 . S
C1075 C1076 1.366 . S
C1076 C1075 1.366 . S
C1076 C1077 1.414 . S
C1076 C1079 1.499 . S
C1077 H1057 0.950 . S
C1077 C1076 1.414 . S
C1077 C1078 1.374 . S
C1078 H1058 0.950 . S
C1078 C1074 1.385 . S
C1078 C1077 1.374 . S
C1079 C1076 1.499 . S
C1079 C1080 1.373 . S
C1079 C1081 1.389 . S
C1080 H1059 0.950 . S
C1080 C1079 1.373 . S
C1080 C1096 1.377 . S
C1081 C1079 1.389 . S
C1081 C1082 1.524 . S
C1081 C1095 1.377 . S
C1082 C1081 1.524 . S
C1082 C1083 1.397 . S
C1082 C1087 1.363 . S
C1083 H1060 0.950 . S
C1083 C1082 1.397 . S
C1083 C1084 1.334 . S
C1084 H1061 0.950 . S
C1084 C1083 1.334 . S
C1084 C1085 1.287 . S
C1085 C1084 1.287 . S
C1085 C1086 1.524 . S
C1085 H1104 0.913 . S
C1086 H1062 0.950 . S
C1086 C1085 1.524 . S
C1086 C1087 1.415 . S
C1087 H1063 0.950 . S
C1087 C1082 1.363 . S
C1087 C1086 1.415 . S
C1088 H1064 0.951 . S
C1088 C1089 1.366 . S
C1088 C1090 1.388 . S
C1089 C1088 1.366 . S
C1089 C1093 1.385 . S
C1090 H1065 0.951 . S
C1090 C1088 1.388 . S
C1090 C1091 1.366 . S
C1091 C1090 1.366 . S
C1091 C1092 1.414 . S
C1091 C1094 1.499 . S
C1092 H1066 0.950 . S
C1092 C1091 1.414 . S
C1092 C1093 1.374 . S
C1093 H1067 0.950 . S
C1093 C1089 1.385 . S
C1093 C1092 1.374 . S
C1094 C1091 1.499 . S
C1094 C1095 1.373 . S
C1094 C1096 1.389 . S
C1095 H1068 0.950 . S
C1095 C1081 1.377 . S
C1095 C1094 1.373 . S
C1096 C1080 1.377 . S
C1096 C1094 1.389 . S
C1096 C1097 1.524 . S
C1097 C1096 1.524 . S
C1097 C1098 1.397 . S
C1097 C1102 1.363 . S
C1098 H1069 0.950 . S
C1098 C1097 1.397 . S
C1098 C1099 1.334 . S
C1099 H1070 0.950 . S
C1099 C1098 1.334 . S
C1099 C1100 1.287 . S
C1100 C1099 1.287 . S
C1100 C1101 1.524 . S
C1100 H1103 0.999 . S
C1101 H1071 0.950 . S
C1101 C1100 1.524 . S
C1101 C1102 1.415 . S
C1102 H1072 0.950 . S
C1102 C1097 1.363 . S
C1102 C1101 1.415 . S
H1103 C1100 0.999 . S
H1104 C1085 0.913 . S
H1105 C1123 0.951 . S
H1106 C1125 0.951 . S
H1107 C1127 0.950 . S
H1108 C1128 0.950 . S
H1109 C1130 0.950 . S
H1110 C1133 0.950 . S
H1111 C1134 0.950 . S
H1112 C1136 0.950 . S
H1113 C1137 0.950 . S
H1114 C1138 0.951 . S
H1115 C1140 0.951 . S
H1116 C1142 0.950 . S
H1117 C1143 0.950 . S
H1118 C1145 0.950 . S
H1119 C1148 0.950 . S
H1120 C1149 0.950 . S
H1121 C1151 0.950 . S
H1122 C1152 0.950 . S
C1123 H1105 0.951 . S
C1123 C1124 1.366 . S
C1123 C1125 1.388 . S
C1124 C1123 1.366 . S
C1124 C1128 1.385 . S
C1125 H1106 0.951 . S
C1125 C1123 1.388 . S
C1125 C1126 1.366 . S
C1126 C1125 1.366 . S
C1126 C1127 1.414 . S
C1126 C1129 1.499 . S
C1127 H1107 0.950 . S
C1127 C1126 1.414 . S
C1127 C1128 1.374 . S
C1128 H1108 0.950 . S
C1128 C1124 1.385 . S
C1128 C1127 1.374 . S
C1129 C1126 1.499 . S
C1129 C1130 1.373 . S
C1129 C1131 1.389 . S
C1130 H1109 0.950 . S
C1130 C1129 1.373 . S
C1130 C1146 1.377 . S
C1131 C1129 1.389 . S
C1131 C1132 1.524 . S
C1131 C1145 1.377 . S
C1132 C1131 1.524 . S
C1132 C1133 1.397 . S
C1132 C1137 1.363 . S
C1133 H1110 0.950 . S
C1133 C1132 1.397 . S
C1133 C1134 1.334 . S
C1134 H1111 0.950 . S
C1134 C1133 1.334 . S
C1134 C1135 1.287 . S
C1135 C1134 1.287 . S
C1135 C1136 1.524 . S
C1135 H1154 0.913 . S
C1136 H1112 0.950 . S
C1136 C1135 1.524 . S
C1136 C1137 1.415 . S
C1137 H1113 0.950 . S
C1137 C1132 1.363 . S
C1137 C1136 1.415 . S
C1138 H1114 0.951 . S
C1138 C1139 1.366 . S
C1138 C1140 1.388 . S
C1139 C1138 1.366 . S
C1139 C1143 1.385 . S
C1140 H1115 0.951 . S
C1140 C1138 1.388 . S
C1140 C1141 1.366 . S
C1141 C1140 1.366 . S
C1141 C1142 1.414 . S
C1141 C1144 1.499 . S
C1142 H1116 0.950 . S
C1142 C1141 1.414 . S
C1142 C1143 1.374 . S
C1143 H1117 0.950 . S
C1143 C1139 1.385 . S
C1143 C1142 1.374 . S
C1144 C1141 1.499 . S
C1144 C1145 1.373 . S
C1144 C1146 1.389 . S
C1145 H1118 0.950 . S
C1145 C1131 1.377 . S
C1145 C1144 1.373 . S
C1146 C1130 1.377 . S
C1146 C1144 1.389 . S
C1146 C1147 1.524 . S
C1147 C1146 1.524 . S
C1147 C1148 1.397 . S
C1147 C1152 1.363 . S
C1148 H1119 0.950 . S
C1148 C1147 1.397 . S
C1148 C1149 1.334 . S
C1149 H1120 0.950 . S
C1149 C1148 1.334 . S
C1149 C1150 1.287 . S
C1150 C1149 1.287 . S
C1150 C1151 1.524 . S
C1150 H1153 0.999 . S
C1151 H1121 0.950 . S
C1151 C1150 1.524 . S
C1151 C1152 1.415 . S
C1152 H1122 0.950 . S
C1152 C1147 1.363 . S
C1152 C1151 1.415 . S
H1153 C1150 0.999 . S
H1154 C1135 0.913 . S
H1155 C1173 0.951 . S
H1156 C1175 0.951 . S
H1157 C1177 0.950 . S
H1158 C1178 0.950 . S
H1159 C1180 0.950 . S
H1160 C1183 0.950 . S
H1161 C1184 0.950 . S
H1162 C1186 0.950 . S
H1163 C1187 0.950 . S
H1164 C1188 0.951 . S
H1165 C1190 0.951 . S
H1166 C1192 0.950 . S
H1167 C1193 0.950 . S
H1168 C1195 0.950 . S
H1169 C1198 0.950 . S
H1170 C1199 0.950 . S
H1171 C1201 0.950 . S
H1172 C1202 0.950 . S
C1173 H1155 0.951 . S
C1173 C1174 1.366 . S
C1173 C1175 1.388 . S
C1174 C1173 1.366 . S
C1174 C1178 1.385 . S
C1175 H1156 0.951 . S
C1175 C1173 1.388 . S
C1175 C1176 1.366 . S
C1176 C1175 1.366 . S
C1176 C1177 1.414 . S
C1176 C1179 1.499 . S
C1177 H1157 0.950 . S
C1177 C1176 1.414 . S
C1177 C1178 1.374 . S
C1178 H1158 0.950 . S
C1178 C1174 1.385 . S
C1178 C1177 1.374 . S
C1179 C1176 1.499 . S
C1179 C1180 1.373 . S
C1179 C1181 1.389 . S
C1180 H1159 0.950 . S
C1180 C1179 1.373 . S
C1180 C1196 1.377 . S
C1181 C1179 1.389 . S
C1181 C1182 1.524 . S
C1181 C1195 1.377 . S
C1182 C1181 1.524 . S
C1182 C1183 1.397 . S
C1182 C1187 1.363 . S
C1183 H1160 0.950 . S
C1183 C1182 1.397 . S
C1183 C1184 1.334 . S
C1184 H1161 0.950 . S
C1184 C1183 1.334 . S
C1184 C1185 1.287 . S
C1185 C1184 1.287 . S
C1185 C1186 1.524 . S
C1185 H1204 0.913 . S
C1186 H1162 0.950 . S
C1186 C1185 1.524 . S
C1186 C1187 1.415 . S
C1187 H1163 0.950 . S
C1187 C1182 1.363 . S
C1187 C1186 1.415 . S
C1188 H1164 0.951 . S
C1188 C1189 1.366 . S
C1188 C1190 1.388 . S
C1189 C1188 1.366 . S
C1189 C1193 1.385 . S
C1190 H1165 0.951 . S
C1190 C1188 1.388 . S
C1190 C1191 1.366 . S
C1191 C1190 1.366 . S
C1191 C1192 1.414 . S
C1191 C1194 1.499 . S
C1192 H1166 0.950 . S
C1192 C1191 1.414 . S
C1192 C1193 1.374 . S
C1193 H1167 0.950 . S
C1193 C1189 1.385 . S
C1193 C1192 1.374 . S
C1194 C1191 1.499 . S
C1194 C1195 1.373 . S
C1194 C1196 1.389 . S
C1195 H1168 0.950 . S
C1195 C1181 1.377 . S
C1195 C1194 1.373 . S
C1196 C1180 1.377 . S
C1196 C1194 1.389 . S
C1196 C1197 1.524 . S
C1197 C1196 1.524 . S
C1197 C1198 1.397 . S
C1197 C1202 1.363 . S
C1198 H1169 0.950 . S
C1198 C1197 1.397 . S
C1198 C1199 1.334 . S
C1199 H1170 0.950 . S
C1199 C1198 1.334 . S
C1199 C1200 1.287 . S
C1200 C1199 1.287 . S
C1200 C1201 1.524 . S
C1200 H1203 0.999 . S
C1201 H1171 0.950 . S
C1201 C1200 1.524 . S
C1201 C1202 1.415 . S
C1202 H1172 0.950 . S
C1202 C1197 1.363 . S
C1202 C1201 1.415 . S
H1203 C1200 0.999 . S
H1204 C1185 0.913 . S
H1205 C1223 0.951 . S
H1206 C1225 0.951 . S
H1207 C1227 0.950 . S
H1208 C1228 0.950 . S
H1209 C1230 0.950 . S
H1210 C1233 0.950 . S
H1211 C1234 0.950 . S
H1212 C1236 0.950 . S
H1213 C1237 0.950 . S
H1214 C1238 0.951 . S
H1215 C1240 0.951 . S
H1216 C1242 0.950 . S
H1217 C1243 0.950 . S
H1218 C1245 0.950 . S
H1219 C1248 0.950 . S
H1220 C1249 0.950 . S
H1221 C1251 0.950 . S
H1222 C1252 0.950 . S
C1223 H1205 0.951 . S
C1223 C1224 1.366 . S
C1223 C1225 1.388 . S
C1224 C1223 1.366 . S
C1224 C1228 1.385 . S
C1225 H1206 0.951 . S
C1225 C1223 1.388 . S
C1225 C1226 1.366 . S
C1226 C1225 1.366 . S
C1226 C1227 1.414 . S
C1226 C1229 1.499 . S
C1227 H1207 0.950 . S
C1227 C1226 1.414 . S
C1227 C1228 1.374 . S
C1228 H1208 0.950 . S
C1228 C1224 1.385 . S
C1228 C1227 1.374 . S
C1229 C1226 1.499 . S
C1229 C1230 1.373 . S
C1229 C1231 1.389 . S
C1230 H1209 0.950 . S
C1230 C1229 1.373 . S
C1230 C1246 1.377 . S
C1231 C1229 1.389 . S
C1231 C1232 1.524 . S
C1231 C1245 1.377 . S
C1232 C1231 1.524 . S
C1232 C1233 1.397 . S
C1232 C1237 1.363 . S
C1233 H1210 0.950 . S
C1233 C1232 1.397 . S
C1233 C1234 1.334 . S
C1234 H1211 0.950 . S
C1234 C1233 1.334 . S
C1234 C1235 1.287 . S
C1235 C1234 1.287 . S
C1235 C1236 1.524 . S
C1235 H1254 0.913 . S
C1236 H1212 0.950 . S
C1236 C1235 1.524 . S
C1236 C1237 1.415 . S
C1237 H1213 0.950 . S
C1237 C1232 1.363 . S
C1237 C1236 1.415 . S
C1238 H1214 0.951 . S
C1238 C1239 1.366 . S
C1238 C1240 1.388 . S
C1239 C1238 1.366 . S
C1239 C1243 1.385 . S
C1240 H1215 0.951 . S
C1240 C1238 1.388 . S
C1240 C1241 1.366 . S
C1241 C1240 1.366 . S
C1241 C1242 1.414 . S
C1241 C1244 1.499 . S
C1242 H1216 0.950 . S
C1242 C1241 1.414 . S
C1242 C1243 1.374 . S
C1243 H1217 0.950 . S
C1243 C1239 1.385 . S
C1243 C1242 1.374 . S
C1244 C1241 1.499 . S
C1244 C1245 1.373 . S
C1244 C1246 1.389 . S
C1245 H1218 0.950 . S
C1245 C1231 1.377 . S
C1245 C1244 1.373 . S
C1246 C1230 1.377 . S
C1246 C1244 1.389 . S
C1246 C1247 1.524 . S
C1247 C1246 1.524 . S
C1247 C1248 1.397 . S
C1247 C1252 1.363 . S
C1248 H1219 0.950 . S
C1248 C1247 1.397 . S
C1248 C1249 1.334 . S
C1249 H1220 0.950 . S
C1249 C1248 1.334 . S
C1249 C1250 1.287 . S
C1250 C1249 1.287 . S
C1250 C1251 1.524 . S
C1250 H1253 0.999 . S
C1251 H1221 0.950 . S
C1251 C1250 1.524 . S
C1251 C1252 1.415 . S
C1252 H1222 0.950 . S
C1252 C1247 1.363 . S
C1252 C1251 1.415 . S
H1253 C1250 0.999 . S
H1254 C1235 0.913 . S
H1255 C1273 0.951 . S
H1256 C1275 0.951 . S
H1257 C1277 0.950 . S
H1258 C1278 0.950 . S
H1259 C1280 0.950 . S
H1260 C1283 0.950 . S
H1261 C1284 0.950 . S
H1262 C1286 0.950 . S
H1263 C1287 0.950 . S
H1264 C1288 0.951 . S
H1265 C1290 0.951 . S
H1266 C1292 0.950 . S
H1267 C1293 0.950 . S
H1268 C1295 0.950 . S
H1269 C1298 0.950 . S
H1270 C1299 0.950 . S
H1271 C1301 0.950 . S
H1272 C1302 0.950 . S
C1273 H1255 0.951 . S
C1273 C1274 1.366 . S
C1273 C1275 1.388 . S
C1274 C1273 1.366 . S
C1274 C1278 1.385 . S
C1275 H1256 0.951 . S
C1275 C1273 1.388 . S
C1275 C1276 1.366 . S
C1276 C1275 1.366 . S
C1276 C1277 1.414 . S
C1276 C1279 1.499 . S
C1277 H1257 0.950 . S
C1277 C1276 1.414 . S
C1277 C1278 1.374 . S
C1278 H1258 0.950 . S
C1278 C1274 1.385 . S
C1278 C1277 1.374 . S
C1279 C1276 1.499 . S
C1279 C1280 1.373 . S
C1279 C1281 1.389 . S
C1280 H1259 0.950 . S
C1280 C1279 1.373 . S
C1280 C1296 1.377 . S
C1281 C1279 1.389 . S
C1281 C1282 1.524 . S
C1281 C1295 1.377 . S
C1282 C1281 1.524 . S
C1282 C1283 1.397 . S
C1282 C1287 1.363 . S
C1283 H1260 0.950 . S
C1283 C1282 1.397 . S
C1283 C1284 1.334 . S
C1284 H1261 0.950 . S
C1284 C1283 1.334 . S
C1284 C1285 1.287 . S
C1285 C1284 1.287 . S
C1285 C1286 1.524 . S
C1285 H1304 0.913 . S
C1286 H1262 0.950 . S
C1286 C1285 1.524 . S
C1286 C1287 1.415 . S
C1287 H1263 0.950 . S
C1287 C1282 1.363 . S
C1287 C1286 1.415 . S
C1288 H1264 0.951 . S
C1288 C1289 1.366 . S
C1288 C1290 1.388 . S
C1289 C1288 1.366 . S
C1289 C1293 1.385 . S
C1290 H1265 0.951 . S
C1290 C1288 1.388 . S
C1290 C1291 1.366 . S
C1291 C1290 1.366 . S
C1291 C1292 1.414 . S
C1291 C1294 1.499 . S
C1292 H1266 0.950 . S
C1292 C1291 1.414 . S
C1292 C1293 1.374 . S
C1293 H1267 0.950 . S
C1293 C1289 1.385 . S
C1293 C1292 1.374 . S
C1294 C1291 1.499 . S
C1294 C1295 1.373 . S
C1294 C1296 1.389 . S
C1295 H1268 0.950 . S
C1295 C1281 1.377 . S
C1295 C1294 1.373 . S
C1296 C1280 1.377 . S
C1296 C1294 1.389 . S
C1296 C1297 1.524 . S
C1297 C1296 1.524 . S
C1297 C1298 1.397 . S
C1297 C1302 1.363 . S
C1298 H1269 0.950 . S
C1298 C1297 1.397 . S
C1298 C1299 1.334 . S
C1299 H1270 0.950 . S
C1299 C1298 1.334 . S
C1299 C1300 1.287 . S
C1300 C1299 1.287 . S
C1300 C1301 1.524 . S
C1300 H1303 0.999 . S
C1301 H1271 0.950 . S
C1301 C1300 1.524 . S
C1301 C1302 1.415 . S
C1302 H1272 0.950 . S
C1302 C1297 1.363 . S
C1302 C1301 1.415 . S
H1303 C1300 0.999 . S
H1304 C1285 0.913 . S
H1305 C1323 0.951 . S
H1306 C1325 0.951 . S
H1307 C1327 0.950 . S
H1308 C1328 0.950 . S
H1309 C1330 0.950 . S
H1310 C1333 0.950 . S
H1311 C1334 0.950 . S
H1312 C1336 0.950 . S
H1313 C1337 0.950 . S
H1314 C1338 0.951 . S
H1315 C1340 0.951 . S
H1316 C1342 0.950 . S
H1317 C1343 0.950 . S
H1318 C1345 0.950 . S
H1319 C1348 0.950 . S
H1320 C1349 0.950 . S
H1321 C1351 0.950 . S
H1322 C1352 0.950 . S
C1323 H1305 0.951 . S
C1323 C1324 1.366 . S
C1323 C1325 1.388 . S
C1324 C1323 1.366 . S
C1324 C1328 1.385 . S
C1325 H1306 0.951 . S
C1325 C1323 1.388 . S
C1325 C1326 1.366 . S
C1326 C1325 1.366 . S
C1326 C1327 1.414 . S
C1326 C1329 1.499 . S
C1327 H1307 0.950 . S
C1327 C1326 1.414 . S
C1327 C1328 1.374 . S
C1328 H1308 0.950 . S
C1328 C1324 1.385 . S
C1328 C1327 1.374 . S
C1329 C1326 1.499 . S
C1329 C1330 1.373 . S
C1329 C1331 1.389 . S
C1330 H1309 0.950 . S
C1330 C1329 1.373 . S
C1330 C1346 1.377 . S
C1331 C1329 1.389 . S
C1331 C1332 1.524 . S
C1331 C1345 1.377 . S
C1332 C1331 1.524 . S
C1332 C1333 1.397 . S
C1332 C1337 1.363 . S
C1333 H1310 0.950 . S
C1333 C1332 1.397 . S
C1333 C1334 1.334 . S
C1334 H1311 0.950 . S
C1334 C1333 1.334 . S
C1334 C1335 1.287 . S
C1335 C1334 1.287 . S
C1335 C1336 1.524 . S
C1335 H1354 0.913 . S
C1336 H1312 0.950 . S
C1336 C1335 1.524 . S
C1336 C1337 1.415 . S
C1337 H1313 0.950 . S
C1337 C1332 1.363 . S
C1337 C1336 1.415 . S
C1338 H1314 0.951 . S
C1338 C1339 1.366 . S
C1338 C1340 1.388 . S
C1339 C1338 1.366 . S
C1339 C1343 1.385 . S
C1340 H1315 0.951 . S
C1340 C1338 1.388 . S
C1340 C1341 1.366 . S
C1341 C1340 1.366 . S
C1341 C1342 1.414 . S
C1341 C1344 1.499 . S
C1342 H1316 0.950 . S
C1342 C1341 1.414 . S
C1342 C1343 1.374 . S
C1343 H1317 0.950 . S
C1343 C1339 1.385 . S
C1343 C1342 1.374 . S
C1344 C1341 1.499 . S
C1344 C1345 1.373 . S
C1344 C1346 1.389 . S
C1345 H1318 0.950 . S
C1345 C1331 1.377 . S
C1345 C1344 1.373 . S
C1346 C1330 1.377 . S
C1346 C1344 1.389 . S
C1346 C1347 1.524 . S
C1347 C1346 1.524 . S
C1347 C1348 1.397 . S
C1347 C1352 1.363 . S
C1348 H1319 0.950 . S
C1348 C1347 1.397 . S
C1348 C1349 1.334 . S
C1349 H1320 0.950 . S
C1349 C1348 1.334 . S
C1349 C1350 1.287 . S
C1350 C1349 1.287 . S
C1350 C1351 1.524 . S
C1350 H1353 0.999 . S
C1351 H1321 0.950 . S
C1351 C1350 1.524 . S
C1351 C1352 1.415 . S
C1352 H1322 0.950 . S
C1352 C1347 1.363 . S
C1352 C1351 1.415 . S
H1353 C1350 0.999 . S
H1354 C1335 0.913 . S
H1355 C1373 0.951 . S
H1356 C1375 0.951 . S
H1357 C1377 0.950 . S
H1358 C1378 0.950 . S
H1359 C1380 0.950 . S
H1360 C1383 0.950 . S
H1361 C1384 0.950 . S
H1362 C1386 0.950 . S
H1363 C1387 0.950 . S
H1364 C1388 0.951 . S
H1365 C1390 0.951 . S
H1366 C1392 0.950 . S
H1367 C1393 0.950 . S
H1368 C1395 0.950 . S
H1369 C1398 0.950 . S
H1370 C1399 0.950 . S
H1371 C1401 0.950 . S
H1372 C1402 0.950 . S
C1373 H1355 0.951 . S
C1373 C1374 1.366 . S
C1373 C1375 1.388 . S
C1374 C1373 1.366 . S
C1374 C1378 1.385 . S
C1375 H1356 0.951 . S
C1375 C1373 1.388 . S
C1375 C1376 1.366 . S
C1376 C1375 1.366 . S
C1376 C1377 1.414 . S
C1376 C1379 1.499 . S
C1377 H1357 0.950 . S
C1377 C1376 1.414 . S
C1377 C1378 1.374 . S
C1378 H1358 0.950 . S
C1378 C1374 1.385 . S
C1378 C1377 1.374 . S
C1379 C1376 1.499 . S
C1379 C1380 1.373 . S
C1379 C1381 1.389 . S
C1380 H1359 0.950 . S
C1380 C1379 1.373 . S
C1380 C1396 1.377 . S
C1381 C1379 1.389 . S
C1381 C1382 1.524 . S
C1381 C1395 1.377 . S
C1382 C1381 1.524 . S
C1382 C1383 1.397 . S
C1382 C1387 1.363 . S
C1383 H1360 0.950 . S
C1383 C1382 1.397 . S
C1383 C1384 1.334 . S
C1384 H1361 0.950 . S
C1384 C1383 1.334 . S
C1384 C1385 1.287 . S
C1385 C1384 1.287 . S
C1385 C1386 1.524 . S
C1385 H1404 0.913 . S
C1386 H1362 0.950 . S
C1386 C1385 1.524 . S
C1386 C1387 1.415 . S
C1387 H1363 0.950 . S
C1387 C1382 1.363 . S
C1387 C1386 1.415 . S
C1388 H1364 0.951 . S
C1388 C1389 1.366 . S
C1388 C1390 1.388 . S
C1389 C1388 1.366 . S
C1389 C1393 1.385 . S
C1390 H1365 0.951 . S
C1390 C1388 1.388 . S
C1390 C1391 1.366 . S
C1391 C1390 1.366 . S
C1391 C1392 1.414 . S
C1391 C1394 1.499 . S
C1392 H1366 0.950 . S
C1392 C1391 1.414 . S
C1392 C1393 1.374 . S
C1393 H1367 0.950 . S
C1393 C1389 1.385 . S
C1393 C1392 1.374 . S
C1394 C1391 1.499 . S
C1394 C1395 1.373 . S
C1394 C1396 1.389 . S
C1395 H1368 0.950 . S
C1395 C1381 1.377 . S
C1395 C1394 1.373 . S
C1396 C1380 1.377 . S
C1396 C1394 1.389 . S
C1396 C1397 1.524 . S
C1397 C1396 1.524 . S
C1397 C1398 1.397 . S
C1397 C1402 1.363 . S
C1398 H1369 0.950 . S
C1398 C1397 1.397 . S
C1398 C1399 1.334 . S
C1399 H1370 0.950 . S
C1399 C1398 1.334 . S
C1399 C1400 1.287 . S
C1400 C1399 1.287 . S
C1400 C1401 1.524 . S
C1400 H1403 0.999 . S
C1401 H1371 0.950 . S
C1401 C1400 1.524 . S
C1401 C1402 1.415 . S
C1402 H1372 0.950 . S
C1402 C1397 1.363 . S
C1402 C1401 1.415 . S
H1403 C1400 0.999 . S
H1404 C1385 0.913 . S
H1405 C1423 0.951 . S
H1406 C1425 0.951 . S
H1407 C1427 0.950 . S
H1408 C1428 0.950 . S
H1409 C1430 0.950 . S
H1410 C1433 0.950 . S
H1411 C1434 0.950 . S
H1412 C1436 0.950 . S
H1413 C1437 0.950 . S
H1414 C1438 0.951 . S
H1415 C1440 0.951 . S
H1416 C1442 0.950 . S
H1417 C1443 0.950 . S
H1418 C1445 0.950 . S
H1419 C1448 0.950 . S
H1420 C1449 0.950 . S
H1421 C1451 0.950 . S
H1422 C1452 0.950 . S
C1423 H1405 0.951 . S
C1423 C1424 1.366 . S
C1423 C1425 1.388 . S
C1424 C1423 1.366 . S
C1424 C1428 1.385 . S
C1425 H1406 0.951 . S
C1425 C1423 1.388 . S
C1425 C1426 1.366 . S
C1426 C1425 1.366 . S
C1426 C1427 1.414 . S
C1426 C1429 1.499 . S
C1427 H1407 0.950 . S
C1427 C1426 1.414 . S
C1427 C1428 1.374 . S
C1428 H1408 0.950 . S
C1428 C1424 1.385 . S
C1428 C1427 1.374 . S
C1429 C1426 1.499 . S
C1429 C1430 1.373 . S
C1429 C1431 1.389 . S
C1430 H1409 0.950 . S
C1430 C1429 1.373 . S
C1430 C1446 1.377 . S
C1431 C1429 1.389 . S
C1431 C1432 1.524 . S
C1431 C1445 1.377 . S
C1432 C1431 1.524 . S
C1432 C1433 1.397 . S
C1432 C1437 1.363 . S
C1433 H1410 0.950 . S
C1433 C1432 1.397 . S
C1433 C1434 1.334 . S
C1434 H1411 0.950 . S
C1434 C1433 1.334 . S
C1434 C1435 1.287 . S
C1435 C1434 1.287 . S
C1435 C1436 1.524 . S
C1435 H1454 0.913 . S
C1436 H1412 0.950 . S
C1436 C1435 1.524 . S
C1436 C1437 1.415 . S
C1437 H1413 0.950 . S
C1437 C1432 1.363 . S
C1437 C1436 1.415 . S
C1438 H1414 0.951 . S
C1438 C1439 1.366 . S
C1438 C1440 1.388 . S
C1439 C1438 1.366 . S
C1439 C1443 1.385 . S
C1440 H1415 0.951 . S
C1440 C1438 1.388 . S
C1440 C1441 1.366 . S
C1441 C1440 1.366 . S
C1441 C1442 1.414 . S
C1441 C1444 1.499 . S
C1442 H1416 0.950 . S
C1442 C1441 1.414 . S
C1442 C1443 1.374 . S
C1443 H1417 0.950 . S
C1443 C1439 1.385 . S
C1443 C1442 1.374 . S
C1444 C1441 1.499 . S
C1444 C1445 1.373 . S
C1444 C1446 1.389 . S
C1445 H1418 0.950 . S
C1445 C1431 1.377 . S
C1445 C1444 1.373 . S
C1446 C1430 1.377 . S
C1446 C1444 1.389 . S
C1446 C1447 1.524 . S
C1447 C1446 1.524 . S
C1447 C1448 1.397 . S
C1447 C1452 1.363 . S
C1448 H1419 0.950 . S
C1448 C1447 1.397 . S
C1448 C1449 1.334 . S
C1449 H1420 0.950 . S
C1449 C1448 1.334 . S
C1449 C1450 1.287 . S
C1450 C1449 1.287 . S
C1450 C1451 1.524 . S
C1450 H1453 0.999 . S
C1451 H1421 0.950 . S
C1451 C1450 1.524 . S
C1451 C1452 1.415 . S
C1452 H1422 0.950 . S
C1452 C1447 1.363 . S
C1452 C1451 1.415 . S
H1453 C1450 0.999 . S
H1454 C1435 0.913 . S
H1455 C1473 0.951 . S
H1456 C1475 0.951 . S
H1457 C1477 0.950 . S
H1458 C1478 0.950 . S
H1459 C1480 0.950 . S
H1460 C1483 0.950 . S
H1461 C1484 0.950 . S
H1462 C1486 0.950 . S
H1463 C1487 0.950 . S
H1464 C1488 0.951 . S
H1465 C1490 0.951 . S
H1466 C1492 0.950 . S
H1467 C1493 0.950 . S
H1468 C1495 0.950 . S
H1469 C1498 0.950 . S
H1470 C1499 0.950 . S
H1471 C1501 0.950 . S
H1472 C1502 0.950 . S
C1473 H1455 0.951 . S
C1473 C1474 1.366 . S
C1473 C1475 1.388 . S
C1474 C1473 1.366 . S
C1474 C1478 1.385 . S
C1475 H1456 0.951 . S
C1475 C1473 1.388 . S
C1475 C1476 1.366 . S
C1476 C1475 1.366 . S
C1476 C1477 1.414 . S
C1476 C1479 1.499 . S
C1477 H1457 0.950 . S
C1477 C1476 1.414 . S
C1477 C1478 1.374 . S
C1478 H1458 0.950 . S
C1478 C1474 1.385 . S
C1478 C1477 1.374 . S
C1479 C1476 1.499 . S
C1479 C1480 1.373 . S
C1479 C1481 1.389 . S
C1480 H1459 0.950 . S
C1480 C1479 1.373 . S
C1480 C1496 1.377 . S
C1481 C1479 1.389 . S
C1481 C1482 1.524 . S
C1481 C1495 1.377 . S
C1482 C1481 1.524 . S
C1482 C1483 1.397 . S
C1482 C1487 1.363 . S
C1483 H1460 0.950 . S
C1483 C1482 1.397 . S
C1483 C1484 1.334 . S
C1484 H1461 0.950 . S
C1484 C1483 1.334 . S
C1484 C1485 1.287 . S
C1485 C1484 1.287 . S
C1485 C1486 1.524 . S
C1485 H1504 0.913 . S
C1486 H1462 0.950 . S
C1486 C1485 1.524 . S
C1486 C1487 1.415 . S
C1487 H1463 0.950 . S
C1487 C1482 1.363 . S
C1487 C1486 1.415 . S
C1488 H1464 0.951 . S
C1488 C1489 1.366 . S
C1488 C1490 1.388 . S
C1489 C1488 1.366 . S
C1489 C1493 1.385 . S
C1490 H1465 0.951 . S
C1490 C1488 1.388 . S
C1490 C1491 1.366 . S
C1491 C1490 1.366 . S
C1491 C1492 1.414 . S
C1491 C1494 1.499 . S
C1492 H1466 0.950 . S
C1492 C1491 1.414 . S
C1492 C1493 1.374 . S
C1493 H1467 0.950 . S
C1493 C1489 1.385 . S
C1493 C1492 1.374 . S
C1494 C1491 1.499 . S
C1494 C1495 1.373 . S
C1494 C1496 1.389 . S
C1495 H1468 0.950 . S
C1495 C1481 1.377 . S
C1495 C1494 1.373 . S
C1496 C1480 1.377 . S
C1496 C1494 1.389 . S
C1496 C1497 1.524 . S
C1497 C1496 1.524 . S
C1497 C1498 1.397 . S
C1497 C1502 1.363 . S
C1498 H1469 0.950 . S
C1498 C1497 1.397 . S
C1498 C1499 1.334 . S
C1499 H1470 0.950 . S
C1499 C1498 1.334 . S
C1499 C1500 1.287 . S
C1500 C1499 1.287 . S
C1500 C1501 1.524 . S
C1500 H1503 0.999 . S
C1501 H1471 0.950 . S
C1501 C1500 1.524 . S
C1501 C1502 1.415 . S
C1502 H1472 0.950 . S
C1502 C1497 1.363 . S
C1502 C1501 1.415 . S
H1503 C1500 0.999 . S
H1504 C1485 0.913 . S
H1505 C1523 0.951 . S
H1506 C1525 0.951 . S
H1507 C1527 0.950 . S
H1508 C1528 0.950 . S
H1509 C1530 0.950 . S
H1510 C1533 0.950 . S
H1511 C1534 0.950 . S
H1512 C1536 0.950 . S
H1513 C1537 0.950 . S
H1514 C1538 0.951 . S
H1515 C1540 0.951 . S
H1516 C1542 0.950 . S
H1517 C1543 0.950 . S
H1518 C1545 0.950 . S
H1519 C1548 0.950 . S
H1520 C1549 0.950 . S
H1521 C1551 0.950 . S
H1522 C1552 0.950 . S
C1523 H1505 0.951 . S
C1523 C1524 1.366 . S
C1523 C1525 1.388 . S
C1524 C1523 1.366 . S
C1524 C1528 1.385 . S
C1525 H1506 0.951 . S
C1525 C1523 1.388 . S
C1525 C1526 1.366 . S
C1526 C1525 1.366 . S
C1526 C1527 1.414 . S
C1526 C1529 1.499 . S
C1527 H1507 0.950 . S
C1527 C1526 1.414 . S
C1527 C1528 1.374 . S
C1528 H1508 0.950 . S
C1528 C1524 1.385 . S
C1528 C1527 1.374 . S
C1529 C1526 1.499 . S
C1529 C1530 1.373 . S
C1529 C1531 1.389 . S
C1530 H1509 0.950 . S
C1530 C1529 1.373 . S
C1530 C1546 1.377 . S
C1531 C1529 1.389 . S
C1531 C1532 1.524 . S
C1531 C1545 1.377 . S
C1532 C1531 1.524 . S
C1532 C1533 1.397 . S
C1532 C1537 1.363 . S
C1533 H1510 0.950 . S
C1533 C1532 1.397 . S
C1533 C1534 1.334 . S
C1534 H1511 0.950 . S
C1534 C1533 1.334 . S
C1534 C1535 1.287 . S
C1535 C1534 1.287 . S
C1535 C1536 1.524 . S
C1535 H1554 0.913 . S
C1536 H1512 0.950 . S
C1536 C1535 1.524 . S
C1536 C1537 1.415 . S
C1537 H1513 0.950 . S
C1537 C1532 1.363 . S
C1537 C1536 1.415 . S
C1538 H1514 0.951 . S
C1538 C1539 1.366 . S
C1538 C1540 1.388 . S
C1539 C1538 1.366 . S
C1539 C1543 1.385 . S
C1540 H1515 0.951 . S
C1540 C1538 1.388 . S
C1540 C1541 1.366 . S
C1541 C1540 1.366 . S
C1541 C1542 1.414 . S
C1541 C1544 1.499 . S
C1542 H1516 0.950 . S
C1542 C1541 1.414 . S
C1542 C1543 1.374 . S
C1543 H1517 0.950 . S
C1543 C1539 1.385 . S
C1543 C1542 1.374 . S
C1544 C1541 1.499 . S
C1544 C1545 1.373 . S
C1544 C1546 1.389 . S
C1545 H1518 0.950 . S
C1545 C1531 1.377 . S
C1545 C1544 1.373 . S
C1546 C1530 1.377 . S
C1546 C1544 1.389 . S
C1546 C1547 1.524 . S
C1547 C1546 1.524 . S
C1547 C1548 1.397 . S
C1547 C1552 1.363 . S
C1548 H1519 0.950 . S
C1548 C1547 1.397 . S
C1548 C1549 1.334 . S
C1549 H1520 0.950 . S
C1549 C1548 1.334 . S
C1549 C1550 1.287 . S
C1550 C1549 1.287 . S
C1550 C1551 1.524 . S
C1550 H1553 0.999 . S
C1551 H1521 0.950 . S
C1551 C1550 1.524 . S
C1551 C1552 1.415 . S
C1552 H1522 0.950 . S
C1552 C1547 1.363 . S
C1552 C1551 1.415 . S
H1553 C1550 0.999 . S
H1554 C1535 0.913 . S
C389 C280 0.975 . S
C374 C17 0.998 . S
C439 C316 1.610 . S
C424 C55 1.722 . S
C489 C281 1.338 . S
C474 C87 1.355 . S
C539 C311 1.481 . S
C524 C113 1.528 . S
C589 C278 1.378 . S
C574 C145 1.376 . S
C624 C183 1.564 . S
C639 C314 1.638 . S
C674 C215 1.101 . S
C689 C283 1.019 . S
C739 C313 1.362 . S
C724 C247 1.389 . S
C789 C317 1.324 . S
C774 C23 1.330 . S
C839 C282 1.461 . S
C824 C49 1.531 . S
C889 C310 1.707 . S
C874 C81 1.719 . S
C939 C279 1.063 . S
C924 C125 1.148 . S
C989 C312 1.553 . S
C974 C151 1.588 . S
C1024 C189 1.340 . S
C1039 C277 1.396 . S
C1074 C209 1.589 . S
C1089 C315 1.528 . S
C1139 C284 1.006 . S
C1124 C241 1.044 . S
C1189 C346 1.761 . S
C1174 C29 1.807 . S
C1224 C157 1.929 . S
C1239 C349 1.897 . S
C1289 C348 1.635 . S
C1274 C177 1.626 . S
C1324 C221 2.183 . S
C1339 C347 2.162 . S
C1389 C350 1.761 . S
C1374 C253 1.843 . S
C1424 C93 1.800 . S
C1439 C344 1.724 . S
C1489 C343 2.044 . S
C1474 C119 2.065 . S
C1524 C61 2.063 . S
C1539 C345 1.931 . S
