# Generated by pormake.
# Topology pth, (4,4)-cn, num edge types: 1
# Building blocks:
#     Node 0, Type 0, BuildingBlock: KUFVIS_clean_sbu_0, # of connection points: 4
#     Node 1, Type 0, BuildingBlock: KUFVIS_clean_sbu_0, # of connection points: 4
#     Node 2, Type 0, BuildingBlock: KUFVIS_clean_sbu_0, # of connection points: 4
#     Node 3, Type 1, BuildingBlock: AZAVOO_clean_linker_0, # of connection points: 4
#     Node 4, Type 1, BuildingBlock: AZAVOO_clean_linker_0, # of connection points: 4
#     Node 5, Type 1, BuildingBlock: AZAVOO_clean_linker_0, # of connection points: 4
#     Edge 6, Type (0, 1), BuildingBlock: XUDNAN_clean_linker_2, # of connection points: 2
#     Edge 7, Type (0, 1), BuildingBlock: XUDNAN_clean_linker_2, # of connection points: 2
#     Edge 8, Type (0, 1), BuildingBlock: XUDNAN_clean_linker_2, # of connection points: 2
#     Edge 9, Type (0, 1), BuildingBlock: XUDNAN_clean_linker_2, # of connection points: 2
#     Edge 10, Type (0, 1), BuildingBlock: XUDNAN_clean_linker_2, # of connection points: 2
#     Edge 11, Type (0, 1), BuildingBlock: XUDNAN_clean_linker_2, # of connection points: 2
#     Edge 12, Type (0, 1), BuildingBlock: XUDNAN_clean_linker_2, # of connection points: 2
#     Edge 13, Type (0, 1), BuildingBlock: XUDNAN_clean_linker_2, # of connection points: 2
#     Edge 14, Type (0, 1), BuildingBlock: XUDNAN_clean_linker_2, # of connection points: 2
#     Edge 15, Type (0, 1), BuildingBlock: XUDNAN_clean_linker_2, # of connection points: 2
#     Edge 16, Type (0, 1), BuildingBlock: XUDNAN_clean_linker_2, # of connection points: 2
#     Edge 17, Type (0, 1), BuildingBlock: XUDNAN_clean_linker_2, # of connection points: 2
# Relax obj value: 0.113
# Max RMSD: 0.225
# Mean RMSD: 0.161
data_MOF--net-pth--node1-KUFVIS_clean_sbu_0--node2-AZAVOO_clean_linker_0--edge1-XUDNAN_clean_linker_2
_symmetry_space_group_name_H-M    P1
_symmetry_Int_Tables_number       1
_symmetry_cell_setting            triclinic
loop_
_symmetry_equiv_pos_as_xyz
'x, y, z'
_cell_length_a     25.94658
_cell_length_b     26.246965
_cell_length_c     71.385715
_cell_angle_alpha  92.586966
_cell_angle_beta   90.997122
_cell_angle_gamma 120.20286
loop_
_atom_site_label
_atom_site_type_symbol
_atom_site_fract_x
_atom_site_fract_y
_atom_site_fract_z
_atom_type_partial_charge
Mn0 Mn 0.07765 0.09849 0.08638 0.0
Mn1 Mn 0.00938 0.14916 0.05819 0.0
C2 C 0.02039 0.04144 0.06015 0.0
C3 C 0.0819 0.05072 0.11252 0.0
C4 C 0.14128 0.19079 0.05763 0.0
O5 O 0.07907 0.16498 0.10292 0.0
O6 O 0.02851 0.19084 0.08331 0.0
C7 C 0.89742 0.1065 0.07832 0.0
N8 N 0.92571 0.10876 0.06222 0.0
C9 C 0.83206 0.05006 0.04473 0.0
C10 C 0.80191 0.04734 0.0611 0.0
C11 C 0.83475 0.07552 0.07798 0.0
C12 C 0.89456 0.08145 0.04594 0.0
H13 H 0.92246 0.12812 0.09132 0.0
C14 C 0.05457 0.19531 0.09918 0.0
O15 O 0.12982 0.08999 0.105 0.0
O16 O 0.03098 0.0396 0.10504 0.0
N17 N 0.98717 0.11221 0.03338 0.0
C18 C 0.02304 0.11768 0.01898 0.0
C19 C 0.9972 0.09231 0.00109 0.0
C20 C 0.9348 0.06146 0.99818 0.0
C21 C 0.89881 0.05662 0.01318 0.0
C22 C 0.92713 0.08381 0.03062 0.0
H23 H 0.07104 0.14169 0.02108 0.0
O24 O 0.06085 0.03227 0.06755 0.0
O25 O 0.01436 0.08321 0.06835 0.0
O26 O 0.14133 0.15751 0.07003 0.0
O27 O 0.09492 0.19274 0.05255 0.0
C28 C 0.83595 0.02563 0.01154 0.0
C29 C 0.80259 0.02212 0.02733 0.0
H30 H 0.75357 0.02343 0.0609 0.0
H31 H 0.8118 0.07342 0.09069 0.0
H32 H 0.02535 0.09658 0.98956 0.0
H33 H 0.91498 0.04157 0.98438 0.0
H34 H 0.81282 0.00377 0.99825 0.0
H35 H 0.75428 0.99749 0.02596 0.0
Mn36 Mn 0.03715 0.08975 0.41532 0.0
Mn37 Mn 0.08282 0.214 0.44313 0.0
C38 C 0.10357 0.11191 0.44039 0.0
C39 C 0.04815 0.03649 0.39035 0.0
C40 C 0.96396 0.10307 0.44651 0.0
O41 O 0.01517 0.13827 0.39894 0.0
O42 O 0.04442 0.21746 0.41924 0.0
C43 C 0.17743 0.29758 0.41941 0.0
N44 N 0.16022 0.27311 0.43624 0.0
C45 C 0.25946 0.33426 0.45007 0.0
C46 C 0.27817 0.36042 0.43292 0.0
C47 C 0.23699 0.3419 0.41752 0.0
C48 C 0.19946 0.29061 0.45115 0.0
H49 H 0.14598 0.28335 0.40753 0.0
C50 C 0.02099 0.18857 0.4035 0.0
O51 O 0.99648 0.01872 0.39742 0.0
O52 O 0.09182 0.08756 0.39664 0.0
N53 N 0.12096 0.21723 0.46669 0.0
C54 C 0.09668 0.18474 0.48183 0.0
C55 C 0.13257 0.19604 0.49818 0.0
C56 C 0.19277 0.24104 0.49889 0.0
C57 C 0.21651 0.27447 0.48324 0.0
C58 C 0.17853 0.26133 0.46734 0.0
H59 H 0.05045 0.15002 0.48135 0.0
O60 O 0.0704 0.05793 0.43361 0.0
O61 O 0.09697 0.15203 0.43238 0.0
O62 O 0.96891 0.07318 0.43278 0.0
O63 O 0.00405 0.1559 0.45158 0.0
C64 C 0.2768 0.31908 0.48258 0.0
C65 C 0.29827 0.34892 0.466 0.0
H66 H 0.32415 0.39436 0.43136 0.0
H67 H 0.25116 0.36167 0.40421 0.0
H68 H 0.11395 0.16997 0.51019 0.0
H69 H 0.22047 0.24917 0.51146 0.0
H70 H 0.30728 0.33008 0.49463 0.0
H71 H 0.34492 0.38252 0.46558 0.0
Mn72 Mn 0.07772 0.08276 0.75213 0.0
Mn73 Mn 0.03713 0.18406 0.76225 0.0
C74 C 0.1419 0.16841 0.76986 0.0
C75 C 0.12282 0.04572 0.73222 0.0
C76 C 0.98876 0.0689 0.78166 0.0
O77 O 0.00754 0.05839 0.73361 0.0
O78 O 0.98964 0.13313 0.73971 0.0
C79 C 0.08097 0.25368 0.72871 0.0
N80 N 0.08062 0.25108 0.74772 0.0
C81 C 0.14979 0.35556 0.75215 0.0
C82 C 0.15029 0.35947 0.73262 0.0
C83 C 0.11586 0.30826 0.72085 0.0
C84 C 0.11376 0.30003 0.75917 0.0
H85 H 0.05508 0.21434 0.71962 0.0
C86 C 0.97973 0.08591 0.73037 0.0
O87 O 0.0845 0.01256 0.74409 0.0
O88 O 0.13275 0.09914 0.73146 0.0
N89 N 0.08008 0.23662 0.78356 0.0
C90 C 0.07786 0.22459 0.80199 0.0
C91 C 0.11145 0.27076 0.81559 0.0
C92 C 0.14675 0.32876 0.8101 0.0
C93 C 0.14817 0.34008 0.79106 0.0
C94 C 0.11324 0.29241 0.77816 0.0
H95 H 0.05096 0.18009 0.80629 0.0
O96 O 0.14754 0.12216 0.77049 0.0
O97 O 0.09905 0.16326 0.75876 0.0
O98 O 0.02006 0.05052 0.77338 0.0
O99 O 0.99099 0.11738 0.77826 0.0
C100 C 0.18382 0.39659 0.78434 0.0
C101 C 0.18469 0.40431 0.7649 0.0
H102 H 0.17751 0.40141 0.7265 0.0
H103 H 0.11642 0.31082 0.70576 0.0
H104 H 0.11032 0.26163 0.83026 0.0
H105 H 0.17297 0.36419 0.82061 0.0
H106 H 0.21147 0.43425 0.79399 0.0
H107 H 0.21301 0.4478 0.75988 0.0
H108 H 0.97902 0.47133 0.12971 0.0
H109 H 0.09238 0.94568 0.28933 0.0
H110 H 0.91544 0.43245 0.2338 0.0
H111 H 0.91094 0.3577 0.21107 0.0
H112 H 0.10172 0.4338 0.21834 0.0
H113 H 0.10575 0.50814 0.24125 0.0
H114 H 0.93248 0.53034 0.20518 0.0
H115 H 0.93499 0.50221 0.17217 0.0
H116 H 0.12097 0.55448 0.18078 0.0
H117 H 0.11792 0.58306 0.21368 0.0
H118 H 0.94415 0.65696 0.22514 0.0
H119 H 0.9632 0.73789 0.20533 0.0
H120 H 0.14303 0.77247 0.19833 0.0
H121 H 0.12427 0.69343 0.21883 0.0
H122 H 0.92985 0.65692 0.26584 0.0
H123 H 0.93538 0.7496 0.27653 0.0
H124 H 0.12672 0.84194 0.27128 0.0
H125 H 0.12045 0.74889 0.26057 0.0
H126 H 0.93121 0.58495 0.29464 0.0
H127 H 0.94606 0.65115 0.32197 0.0
H128 H 0.13709 0.73819 0.31565 0.0
H129 H 0.1214 0.66906 0.28963 0.0
H130 H 0.91351 0.48006 0.28326 0.0
H131 H 0.89855 0.41129 0.30743 0.0
H132 H 0.07993 0.44877 0.3023 0.0
H133 H 0.09422 0.51729 0.27797 0.0
O134 O 0.97939 0.48416 0.14266 0.0
O135 O 0.07514 0.51242 0.14777 0.0
O136 O 0.98975 0.86184 0.28312 0.0
O137 O 0.08897 0.90855 0.28502 0.0
C138 C 0.01649 0.53285 0.24557 0.0
C139 C 0.02241 0.57297 0.23196 0.0
C140 C 0.02418 0.62604 0.23744 0.0
C141 C 0.02124 0.63969 0.25654 0.0
C142 C 0.01746 0.60076 0.27023 0.0
C143 C 0.01376 0.54659 0.26475 0.0
C144 C 0.01094 0.47588 0.23903 0.0
C145 C 0.95572 0.4309 0.23132 0.0
C146 C 0.95333 0.38857 0.21822 0.0
C147 C 0.00619 0.3909 0.21269 0.0
C148 C 0.06034 0.43092 0.2224 0.0
C149 C 0.06268 0.47331 0.23553 0.0
C150 C 0.0249 0.55839 0.21178 0.0
C151 C 0.97377 0.53604 0.19985 0.0
C152 C 0.97534 0.51994 0.18103 0.0
C153 C 0.02817 0.52597 0.17384 0.0
C154 C 0.07957 0.54921 0.18585 0.0
C155 C 0.07795 0.56549 0.20464 0.0
C156 C 0.03286 0.66946 0.22342 0.0
C157 C 0.98743 0.68179 0.21916 0.0
C158 C 0.99835 0.72784 0.20777 0.0
C159 C 0.05486 0.7621 0.20038 0.0
C160 C 0.09941 0.74781 0.20409 0.0
C161 C 0.08858 0.70214 0.21559 0.0
C162 C 0.02473 0.6964 0.26243 0.0
C163 C 0.97284 0.6973 0.26695 0.0
C164 C 0.97615 0.75024 0.27304 0.0
C165 C 0.03153 0.80317 0.27474 0.0
C166 C 0.08343 0.80198 0.27015 0.0
C167 C 0.07999 0.74902 0.26396 0.0
C168 C 0.02527 0.6221 0.29022 0.0
C169 C 0.97625 0.61614 0.29994 0.0
C170 C 0.98496 0.65524 0.31528 0.0
C171 C 0.04278 0.70171 0.32083 0.0
C172 C 0.09184 0.70319 0.31213 0.0
C173 C 0.08308 0.66327 0.29716 0.0
C174 C 0.005 0.50383 0.27897 0.0
C175 C 0.94995 0.47332 0.28736 0.0
C176 C 0.94155 0.43415 0.30116 0.0
C177 C 0.98814 0.42472 0.30685 0.0
C178 C 0.04296 0.45452 0.29809 0.0
C179 C 0.05133 0.49386 0.28428 0.0
C180 C 0.02927 0.50733 0.15398 0.0
C181 C 0.03524 0.85946 0.28122 0.0
H182 H 0.53547 0.98877 0.46072 0.0
H183 H 0.29457 0.19925 0.62082 0.0
H184 H 0.53448 0.92879 0.55672 0.0
H185 H 0.60405 0.9203 0.53611 0.0
H186 H 0.74792 0.08524 0.56126 0.0
H187 H 0.67705 0.09458 0.58121 0.0
H188 H 0.44875 0.96484 0.53677 0.0
H189 H 0.46833 0.961 0.50346 0.0
H190 H 0.6445 0.11388 0.51388 0.0
H191 H 0.62384 0.118 0.54704 0.0
H192 H 0.36204 0.00332 0.56444 0.0
H193 H 0.30748 0.03264 0.54462 0.0
H194 H 0.4753 0.17162 0.52494 0.0
H195 H 0.52812 0.14765 0.54763 0.0
H196 H 0.35962 0.98659 0.60317 0.0
H197 H 0.28936 0.01692 0.61381 0.0
H198 H 0.41801 0.19805 0.60364 0.0
H199 H 0.4881 0.1672 0.59322 0.0
H200 H 0.43307 0.93709 0.61943 0.0
H201 H 0.37553 0.92445 0.64729 0.0
H202 H 0.4717 0.11373 0.65918 0.0
H203 H 0.52712 0.12582 0.63082 0.0
H204 H 0.56521 0.93398 0.59987 0.0
H205 H 0.63645 0.92801 0.62113 0.0
H206 H 0.68117 0.09741 0.64799 0.0
H207 H 0.61551 0.10568 0.62538 0.0
O208 O 0.5283 0.99166 0.47387 0.0
O209 O 0.61903 0.06926 0.48012 0.0
O210 O 0.25344 0.09131 0.61827 0.0
O211 O 0.32197 0.18627 0.61707 0.0
C212 C 0.55594 0.027 0.57761 0.0
C213 C 0.52404 0.04183 0.56472 0.0
C214 C 0.48225 0.05721 0.5712 0.0
C215 C 0.47125 0.05628 0.59052 0.0
C216 C 0.50191 0.03999 0.60332 0.0
C217 C 0.54605 0.02752 0.59704 0.0
C218 C 0.60061 0.01271 0.57024 0.0
C219 C 0.58142 0.96205 0.55821 0.0
C220 C 0.62136 0.9573 0.54643 0.0
C221 C 0.68135 0.00282 0.54671 0.0
C222 C 0.70164 0.05021 0.56034 0.0
C223 C 0.66147 0.05523 0.57198 0.0
C224 C 0.53495 0.04148 0.54432 0.0
C225 C 0.4913 0.99775 0.53178 0.0
C226 C 0.50272 0.99554 0.51279 0.0
C227 C 0.55809 0.03699 0.50602 0.0
C228 C 0.60145 0.08121 0.51863 0.0
C229 C 0.58982 0.08359 0.53757 0.0
C230 C 0.4492 0.07352 0.55772 0.0
C231 C 0.3868 0.04121 0.55618 0.0
C232 C 0.35542 0.05771 0.54423 0.0
C233 C 0.38553 0.10493 0.5324 0.0
C234 C 0.4487 0.13609 0.53375 0.0
C235 C 0.47984 0.12157 0.54657 0.0
C236 C 0.42899 0.07473 0.59748 0.0
C237 C 0.37276 0.03286 0.60344 0.0
C238 C 0.33259 0.05026 0.6094 0.0
C239 C 0.34799 0.1099 0.60947 0.0
C240 C 0.40473 0.1518 0.60374 0.0
C241 C 0.44482 0.13432 0.59776 0.0
C242 C 0.4838 0.03234 0.62305 0.0
C243 C 0.44329 0.97559 0.62848 0.0
C244 C 0.41033 0.96851 0.64441 0.0
C245 C 0.41796 0.0182 0.65522 0.0
C246 C 0.4636 0.07464 0.65086 0.0
C247 C 0.49599 0.08167 0.63483 0.0
C248 C 0.58509 0.02039 0.61095 0.0
C249 C 0.59101 0.97005 0.61023 0.0
C250 C 0.63134 0.96642 0.62262 0.0
C251 C 0.66548 0.01245 0.63633 0.0
C252 C 0.65746 0.06173 0.63737 0.0
C253 C 0.61869 0.06606 0.62464 0.0
C254 C 0.57052 0.03384 0.48592 0.0
C255 C 0.30484 0.12835 0.61524 0.0
H256 H 0.67791 0.74601 0.03094 0.0
H257 H 0.31566 0.20861 0.88357 0.0
H258 H 0.63912 0.74171 0.92659 0.0
H259 H 0.70796 0.82207 0.94881 0.0
H260 H 0.81978 0.74382 0.95158 0.0
H261 H 0.75193 0.66519 0.92872 0.0
H262 H 0.56222 0.65294 0.95637 0.0
H263 H 0.59684 0.69535 0.98849 0.0
H264 H 0.72247 0.63282 0.98791 0.0
H265 H 0.68738 0.59067 0.9558 0.0
H266 H 0.44062 0.51043 0.9355 0.0
H267 H 0.37864 0.44392 0.9587 0.0
H268 H 0.52849 0.42784 0.97832 0.0
H269 H 0.5875 0.48886 0.95352 0.0
H270 H 0.42647 0.49923 0.89609 0.0
H271 H 0.34231 0.40033 0.88729 0.0
H272 H 0.45253 0.3253 0.90057 0.0
H273 H 0.53625 0.42435 0.90932 0.0
H274 H 0.50509 0.60452 0.87488 0.0
H275 H 0.4452 0.55471 0.84592 0.0
H276 H 0.51993 0.44045 0.84339 0.0
H277 H 0.5819 0.49215 0.87191 0.0
H278 H 0.58793 0.69961 0.88662 0.0
H279 H 0.64493 0.78045 0.86644 0.0
H280 H 0.78403 0.73547 0.8656 0.0
H281 H 0.72482 0.65267 0.88506 0.0
O282 O 0.6631 0.72673 0.01856 0.0
O283 O 0.72563 0.69209 0.01778 0.0
O284 O 0.28913 0.28672 0.8864 0.0
O285 O 0.34839 0.24826 0.88669 0.0
C286 C 0.63873 0.63918 0.9199 0.0
C287 C 0.60597 0.59946 0.93365 0.0
C288 C 0.55553 0.5443 0.92824 0.0
C289 C 0.5383 0.52861 0.90902 0.0
C290 C 0.56973 0.56932 0.8953 0.0
C291 C 0.61981 0.62495 0.90079 0.0
C292 C 0.69028 0.69741 0.92629 0.0
C293 C 0.68019 0.7438 0.9312 0.0
C294 C 0.71906 0.78905 0.94415 0.0
C295 C 0.76809 0.788 0.95246 0.0
C296 C 0.78232 0.74581 0.94552 0.0
C297 C 0.74371 0.70091 0.93239 0.0
C298 C 0.62209 0.61853 0.95385 0.0
C299 C 0.59651 0.64764 0.96334 0.0
C300 C 0.61662 0.67209 0.98164 0.0
C301 C 0.66261 0.6677 0.99074 0.0
C302 C 0.68701 0.63704 0.98131 0.0
C303 C 0.66687 0.61265 0.96302 0.0
C304 C 0.5186 0.50449 0.94276 0.0
C305 C 0.45963 0.49165 0.94462 0.0
C306 C 0.42455 0.45431 0.9582 0.0
C307 C 0.44829 0.43044 0.97068 0.0
C308 C 0.50788 0.44417 0.96886 0.0
C309 C 0.54226 0.48 0.95485 0.0
C310 C 0.48741 0.46886 0.9033 0.0
C311 C 0.4324 0.46139 0.89697 0.0
C312 C 0.38438 0.40489 0.89206 0.0
C313 C 0.39072 0.35495 0.89331 0.0
C314 C 0.4462 0.36281 0.89943 0.0
C315 C 0.49402 0.41927 0.90447 0.0
C316 C 0.54853 0.55254 0.87536 0.0
C317 C 0.51132 0.57123 0.86749 0.0
C318 C 0.4767 0.5424 0.85107 0.0
C319 C 0.47815 0.49392 0.8426 0.0
C320 C 0.51852 0.47802 0.84971 0.0
C321 C 0.55405 0.50765 0.86588 0.0
C322 C 0.65164 0.66953 0.88693 0.0
C323 C 0.62986 0.70616 0.88159 0.0
C324 C 0.66307 0.75301 0.87032 0.0
C325 C 0.7194 0.76488 0.86447 0.0
C326 C 0.74054 0.72721 0.8696 0.0
C327 C 0.7069 0.67995 0.88075 0.0
C328 C 0.6857 0.69598 0.00985 0.0
C329 C 0.33959 0.29475 0.88854 0.0
H330 H 0.09042 0.21127 0.13701 0.0
H331 H 0.00804 0.2671 0.09522 0.0
H332 H 0.98731 0.32121 0.11985 0.0
H333 H 0.99041 0.18933 0.1728 0.0
H334 H 0.04565 0.21913 0.19199 0.0
H335 H 0.0582 0.18653 0.1711 0.0
H336 H 0.15813 0.28301 0.16703 0.0
H337 H 0.14636 0.31565 0.18808 0.0
H338 H 0.15896 0.35201 0.1664 0.0
H339 H 0.96557 0.36042 0.14836 0.0
H340 H 0.95696 0.39647 0.17983 0.0
H341 H 0.05839 0.32327 0.2041 0.0
C342 C 0.06904 0.23577 0.13301 0.0
C343 C 0.05059 0.23431 0.11409 0.0
C344 C 0.02247 0.26692 0.10953 0.0
C345 C 0.01027 0.29789 0.12344 0.0
C346 C 0.02711 0.2968 0.14191 0.0
C347 C 0.05699 0.26785 0.1468 0.0
C348 C 0.06974 0.2743 0.1679 0.0
C349 C 0.03916 0.21371 0.17644 0.0
C350 C 0.13732 0.30828 0.17263 0.0
C351 C 0.04123 0.31035 0.17399 0.0
C352 C 0.01651 0.32212 0.15867 0.0
C353 C 0.98531 0.35217 0.16048 0.0
C354 C 0.98019 0.37199 0.17844 0.0
C355 C 0.00677 0.36245 0.19438 0.0
C356 C 0.03768 0.3311 0.19212 0.0
H357 H 0.91981 0.15695 0.46927 0.0
H358 H 0.89186 0.98451 0.45109 0.0
H359 H 0.81505 0.93879 0.47464 0.0
H360 H 0.90929 0.13717 0.51713 0.0
H361 H 0.86992 0.1764 0.5217 0.0
H362 H 0.91855 0.19488 0.50236 0.0
H363 H 0.83178 0.1764 0.47923 0.0
H364 H 0.78311 0.15899 0.49856 0.0
H365 H 0.76261 0.10681 0.47864 0.0
H366 H 0.74785 0.91377 0.5024 0.0
H367 H 0.68921 0.91041 0.52978 0.0
H368 H 0.76006 0.09933 0.52846 0.0
C369 C 0.89685 0.10941 0.46999 0.0
C370 C 0.91178 0.07426 0.45835 0.0
C371 C 0.8807 0.01222 0.45975 0.0
C372 C 0.83731 0.98594 0.47316 0.0
C373 C 0.82509 0.02227 0.48483 0.0
C374 C 0.85322 0.08255 0.4831 0.0
C375 C 0.83312 0.11215 0.49749 0.0
C376 C 0.88587 0.15783 0.51043 0.0
C377 C 0.80072 0.14023 0.4879 0.0
C378 C 0.79043 0.05939 0.50795 0.0
C379 C 0.78619 0.00787 0.50049 0.0
C380 C 0.75033 0.95379 0.50821 0.0
C381 C 0.71722 0.95232 0.52376 0.0
C382 C 0.72023 0.00463 0.53139 0.0
C383 C 0.75759 0.05869 0.5233 0.0
H384 H 0.9515 0.95302 0.78804 0.0
H385 H 0.93162 0.1013 0.80738 0.0
H386 H 0.86137 0.03989 0.83068 0.0
H387 H 0.79833 0.84151 0.79201 0.0
H388 H 0.81536 0.78701 0.79979 0.0
H389 H 0.86542 0.84302 0.78492 0.0
H390 H 0.95264 0.87471 0.80945 0.0
H391 H 0.90285 0.81877 0.8244 0.0
H392 H 0.94516 0.8948 0.83331 0.0
H393 H 0.79381 0.96286 0.85199 0.0
H394 H 0.73213 0.87494 0.86951 0.0
H395 H 0.79256 0.77536 0.83548 0.0
C396 C 0.93271 0.97278 0.79724 0.0
C397 C 0.94733 0.03216 0.79588 0.0
C398 C 0.92115 0.05597 0.80809 0.0
C399 C 0.88123 0.02147 0.82142 0.0
C400 C 0.86764 0.96312 0.82231 0.0
C401 C 0.89242 0.93886 0.81053 0.0
C402 C 0.86936 0.87463 0.81415 0.0
C403 C 0.83508 0.83416 0.79668 0.0
C404 C 0.92056 0.8652 0.82072 0.0
C405 C 0.82784 0.86663 0.82983 0.0
C406 C 0.82767 0.91828 0.83435 0.0
C407 C 0.79322 0.92201 0.84848 0.0
C408 C 0.75791 0.87159 0.85826 0.0
C409 C 0.75686 0.81783 0.8538 0.0
C410 C 0.79254 0.81571 0.83937 0.0
H411 H 0.99598 0.94302 0.1238 0.0
H412 H 0.17772 0.08519 0.13658 0.0
H413 H 0.18849 0.02864 0.16151 0.0
H414 H 0.95848 0.89828 0.17206 0.0
H415 H 0.91617 0.82073 0.16487 0.0
H416 H 0.92064 0.87464 0.14921 0.0
H417 H 0.96056 0.83209 0.12357 0.0
H418 H 0.9565 0.77831 0.13917 0.0
H419 H 0.02608 0.82719 0.12885 0.0
H420 H 0.18152 0.95557 0.18391 0.0
H421 H 0.15777 0.86978 0.20227 0.0
H422 H 0.98216 0.77235 0.17398 0.0
C423 C 0.03757 0.96263 0.13212 0.0
C424 C 0.0859 0.01863 0.12841 0.0
C425 C 0.14012 0.04239 0.13926 0.0
C426 C 0.14663 0.01069 0.15346 0.0
C427 C 0.09859 0.95514 0.15656 0.0
C428 C 0.0451 0.93119 0.14622 0.0
C429 C 0.0019 0.86905 0.15163 0.0
C430 C 0.94599 0.86549 0.15994 0.0
C431 C 0.98531 0.82402 0.1348 0.0
C432 C 0.03975 0.8617 0.16647 0.0
C433 C 0.09515 0.9121 0.16918 0.0
C434 C 0.13829 0.91579 0.18191 0.0
C435 C 0.12454 0.86656 0.19215 0.0
C436 C 0.06827 0.81401 0.18948 0.0
C437 C 0.02534 0.81195 0.1765 0.0
H438 H 0.10029 0.04983 0.47005 0.0
H439 H 0.21958 0.19958 0.43902 0.0
H440 H 0.30377 0.22022 0.46101 0.0
H441 H 0.16891 0.10557 0.51699 0.0
H442 H 0.15885 0.03526 0.52301 0.0
H443 H 0.10722 0.03809 0.50646 0.0
H444 H 0.12779 0.97527 0.48182 0.0
H445 H 0.17928 0.97238 0.49833 0.0
H446 H 0.20351 0.00019 0.47557 0.0
H447 H 0.37296 0.22591 0.48767 0.0
H448 H 0.42677 0.20657 0.51197 0.0
H449 H 0.26407 0.04012 0.52078 0.0
C450 C 0.14397 0.0877 0.46819 0.0
C451 C 0.15313 0.12582 0.45377 0.0
C452 C 0.21132 0.17257 0.45087 0.0
C453 C 0.2593 0.18415 0.46314 0.0
C454 C 0.24837 0.14698 0.47775 0.0
C455 C 0.19245 0.09875 0.47996 0.0
C456 C 0.19389 0.06135 0.4952 0.0
C457 C 0.1549 0.06001 0.51137 0.0
C458 C 0.17504 0.99861 0.48725 0.0
C459 C 0.25947 0.09588 0.50116 0.0
C460 C 0.28972 0.14595 0.49136 0.0
C461 C 0.35002 0.18591 0.49512 0.0
C462 C 0.38055 0.17365 0.50898 0.0
C463 C 0.35155 0.12037 0.51856 0.0
C464 C 0.28955 0.08157 0.5144 0.0
H465 H 0.1918 0.19262 0.80524 0.0
H466 H 0.20439 0.26992 0.75201 0.0
H467 H 0.29049 0.36433 0.76499 0.0
H468 H 0.23614 0.32582 0.83562 0.0
H469 H 0.27833 0.30916 0.85186 0.0
H470 H 0.21436 0.24993 0.83889 0.0
H471 H 0.28089 0.20916 0.82637 0.0
H472 H 0.34464 0.26836 0.83935 0.0
H473 H 0.34729 0.25701 0.81437 0.0
H474 H 0.37555 0.45055 0.78421 0.0
H475 H 0.45706 0.51855 0.80729 0.0
H476 H 0.39241 0.38109 0.84676 0.0
C477 C 0.21222 0.2299 0.79649 0.0
C478 C 0.19012 0.22548 0.77798 0.0
C479 C 0.21922 0.27388 0.76655 0.0
C480 C 0.26833 0.32731 0.77375 0.0
C481 C 0.28842 0.33083 0.79226 0.0
C482 C 0.26153 0.2832 0.80341 0.0
C483 C 0.29375 0.29711 0.82243 0.0
C484 C 0.25312 0.29528 0.83811 0.0
C485 C 0.31809 0.25544 0.82581 0.0
C486 C 0.34359 0.35952 0.82014 0.0
C487 C 0.33929 0.37876 0.80279 0.0
C488 C 0.37964 0.43579 0.79778 0.0
C489 C 0.42565 0.47398 0.81088 0.0
C490 C 0.43118 0.45427 0.82849 0.0
C491 C 0.3896 0.39652 0.83316 0.0
H492 H 0.94975 0.14825 0.70747 0.0
H493 H 0.90313 0.96976 0.71924 0.0
H494 H 0.81889 0.93024 0.69555 0.0
H495 H 0.80508 0.12455 0.70102 0.0
H496 H 0.82205 0.17221 0.68187 0.0
H497 H 0.87966 0.18597 0.69914 0.0
H498 H 0.94544 0.18139 0.67295 0.0
H499 H 0.88823 0.16819 0.65555 0.0
H500 H 0.91552 0.11734 0.65673 0.0
H501 H 0.73358 0.91136 0.67279 0.0
H502 H 0.66061 0.91412 0.6509 0.0
H503 H 0.77146 0.10534 0.65171 0.0
C504 C 0.92218 0.10084 0.70494 0.0
C505 C 0.93263 0.06197 0.7152 0.0
C506 C 0.8959 0.00022 0.71143 0.0
C507 C 0.84792 0.97745 0.69806 0.0
C508 C 0.83833 0.01711 0.68835 0.0
C509 C 0.87523 0.0775 0.69138 0.0
C510 C 0.85587 0.11084 0.67907 0.0
C511 C 0.8397 0.15072 0.69099 0.0
C512 C 0.90413 0.14653 0.66525 0.0
C513 C 0.8012 0.05986 0.66902 0.0
C514 C 0.7915 0.00614 0.67459 0.0
C515 C 0.74146 0.95316 0.66803 0.0
C516 C 0.70036 0.95523 0.65546 0.0
C517 C 0.70979 0.00992 0.64936 0.0
C518 C 0.76166 0.06264 0.65617 0.0
H519 H 0.03683 0.9941 0.02712 0.0
H520 H 0.90162 0.98652 0.06357 0.0
H521 H 0.82264 0.91838 0.04029 0.0
H522 H 0.97028 0.98588 0.98138 0.0
H523 H 0.99394 0.93712 0.97192 0.0
H524 H 0.035 0.9873 0.99175 0.0
H525 H 0.01768 0.89094 0.00772 0.0
H526 H 0.97059 0.8444 0.98799 0.0
H527 H 0.94223 0.83341 0.01121 0.0
H528 H 0.76027 0.86364 0.01195 0.0
H529 H 0.71426 0.80909 0.98177 0.0
H530 H 0.888 0.84571 0.9636 0.0
C531 C 0.99049 0.97777 0.03007 0.0
C532 C 0.9748 0.99747 0.04658 0.0
C533 C 0.91409 0.97364 0.05056 0.0
C534 C 0.86908 0.9347 0.03752 0.0
C535 C 0.88574 0.91885 0.02083 0.0
C536 C 0.94473 0.93809 0.01721 0.0
C537 C 0.94938 0.91115 0.99847 0.0
C538 C 0.9896 0.95831 0.98516 0.0
C539 C 0.97126 0.86737 0.00154 0.0
C540 C 0.88449 0.87901 0.99143 0.0
C541 C 0.84868 0.88337 0.00475 0.0
C542 C 0.78762 0.85932 0.00145 0.0
C543 C 0.76211 0.82926 0.98411 0.0
C544 C 0.79761 0.82386 0.97016 0.0
C545 C 0.85968 0.84899 0.97396 0.0
H546 H 0.97009 0.94292 0.36615 0.0
H547 H 0.15221 0.03609 0.38958 0.0
H548 H 0.16882 0.95836 0.37551 0.0
H549 H 0.93861 0.79721 0.37148 0.0
H550 H 0.89819 0.76682 0.34921 0.0
H551 H 0.89994 0.83018 0.36074 0.0
H552 H 0.94156 0.88912 0.33124 0.0
H553 H 0.93963 0.82599 0.31944 0.0
H554 H 0.00842 0.89608 0.32162 0.0
H555 H 0.16151 0.86476 0.36256 0.0
H556 H 0.13935 0.77238 0.34529 0.0
H557 H 0.96729 0.74676 0.32611 0.0
C558 C 0.01373 0.94736 0.36798 0.0
C559 C 0.05989 0.99546 0.37893 0.0
C560 C 0.11643 -7e-05 0.38107 0.0
C561 C 0.12613 0.95569 0.37331 0.0
C562 C 0.07928 0.90796 0.36307 0.0
C563 C 0.02483 0.90437 0.35984 0.0
C564 C 0.98306 0.84946 0.34758 0.0
C565 C 0.92662 0.80851 0.35788 0.0
C566 C 0.96724 0.86615 0.32885 0.0
C567 C 0.02219 0.8223 0.34481 0.0
C568 C 0.077 0.85622 0.35418 0.0
C569 C 0.11939 0.83862 0.35467 0.0
C570 C 0.10636 0.786 0.34469 0.0
C571 C 0.05201 0.75218 0.33385 0.0
C572 C 0.00911 0.77058 0.33427 0.0
H573 H 0.19604 0.10264 0.70417 0.0
H574 H 0.13101 0.9461 0.73582 0.0
H575 H 0.20029 0.92134 0.71979 0.0
H576 H 0.2165 0.03893 0.66032 0.0
H577 H 0.28254 0.10746 0.65572 0.0
H578 H 0.22442 0.10838 0.66885 0.0
H579 H 0.30379 0.17097 0.69558 0.0
H580 H 0.36096 0.16777 0.68255 0.0
H581 H 0.34722 0.14245 0.70598 0.0
H582 H 0.28209 0.91784 0.70132 0.0
H583 H 0.36293 0.93174 0.68048 0.0
H584 H 0.37039 0.08944 0.66089 0.0
C585 C 0.19565 0.06265 0.70758 0.0
C586 C 0.15813 0.02621 0.72121 0.0
C587 C 0.15916 0.97441 0.7253 0.0
C588 C 0.19856 0.9602 0.71635 0.0
C589 C 0.23615 0.99809 0.7033 0.0
C590 C 0.23432 0.04783 0.69878 0.0
C591 C 0.27965 0.08201 0.68456 0.0
C592 C 0.24885 0.08423 0.66627 0.0
C593 C 0.32561 0.14448 0.69266 0.0
C594 C 0.30771 0.04403 0.68181 0.0
C595 C 0.28238 0.99592 0.69275 0.0
C596 C 0.30189 0.95516 0.6926 0.0
C597 C 0.34778 0.96338 0.68072 0.0
C598 C 0.3735 0.01195 0.66914 0.0
C599 C 0.35297 0.05265 0.66986 0.0
H600 H 0.17551 0.29132 0.03884 0.0
H601 H 0.23096 0.16638 0.05306 0.0
H602 H 0.31793 0.21653 0.03342 0.0
H603 H 0.2137 0.30301 0.99177 0.0
H604 H 0.24154 0.38121 0.99141 0.0
H605 H 0.18542 0.33794 0.00749 0.0
H606 H 0.25315 0.40707 0.03549 0.0
H607 H 0.30929 0.45099 0.01947 0.0
H608 H 0.32805 0.42025 0.03872 0.0
H609 H 0.39166 0.27269 0.00943 0.0
H610 H 0.45343 0.33738 0.98532 0.0
H611 H 0.35674 0.43282 0.98933 0.0
C612 C 0.20643 0.27506 0.03802 0.0
C613 C 0.19648 0.22498 0.04747 0.0
C614 C 0.23795 0.205 0.04607 0.0
C615 C 0.28737 0.23302 0.03488 0.0
C616 C 0.29531 0.28162 0.02549 0.0
C617 C 0.2567 0.30323 0.02721 0.0
C618 C 0.2753 0.35595 0.01551 0.0
C619 C 0.22606 0.34376 0.00066 0.0
C620 C 0.29248 0.41188 0.02805 0.0
C621 C 0.32935 0.35945 0.00653 0.0
C622 C 0.33994 0.31604 0.0124 0.0
C623 C 0.38482 0.30789 0.00507 0.0
C624 C 0.42007 0.34536 0.99143 0.0
C625 C 0.41099 0.3912 0.9854 0.0
C626 C 0.36505 0.39821 0.99331 0.0
H627 H 0.04048 0.20059 0.36582 0.0
H628 H 0.95764 0.24211 0.41166 0.0
H629 H 0.93268 0.30008 0.3909 0.0
H630 H 0.11036 0.34174 0.34881 0.0
H631 H 0.10108 0.31806 0.32428 0.0
H632 H 0.1047 0.27227 0.34167 0.0
H633 H 0.0028 0.18476 0.32894 0.0
H634 H 0.99909 0.23015 0.31136 0.0
H635 H 0.93901 0.19462 0.32706 0.0
H636 H 0.92426 0.3599 0.36645 0.0
H637 H 0.93439 0.42014 0.33977 0.0
H638 H 0.02553 0.34351 0.30958 0.0
C639 C 0.01551 0.22049 0.37123 0.0
C640 C 1.00002 0.2163 0.3902 0.0
C641 C 0.96932 0.24455 0.39709 0.0
C642 C 0.95489 0.27741 0.38541 0.0
C643 C 0.97201 0.28208 0.36691 0.0
C644 C 0.00165 0.2545 0.3598 0.0
C645 C 0.01978 0.27138 0.33991 0.0
C646 C 0.08802 0.30273 0.3386 0.0
C647 C 0.98827 0.21698 0.32599 0.0
C648 C 0.99674 0.31355 0.33715 0.0
C649 C 0.96862 0.31832 0.35283 0.0
C650 C 0.94545 0.35599 0.35398 0.0
C651 C 0.95124 0.38988 0.33871 0.0
C652 C 0.98033 0.38629 0.32251 0.0
C653 C 0.00314 0.34732 0.32176 0.0
loop_
_geom_bond_atom_site_label_1
_geom_bond_atom_site_label_2
_geom_bond_distance
_geom_bond_site_symmetry_2
_ccdc_geom_bond_type
Mn0 O5 2.095 . S
Mn0 O15 2.162 . S
Mn0 O16 2.297 . S
Mn0 O24 2.385 . S
Mn0 O25 2.209 . S
Mn0 O26 2.094 . S
Mn1 O6 2.121 . S
Mn1 N8 2.257 1_455 S
Mn1 N17 2.282 . S
Mn1 O25 2.215 . S
Mn1 O27 2.117 . S
C2 O24 1.234 . S
C2 O25 1.283 . S
C3 O15 1.281 . S
C3 O16 1.236 . S
C4 O26 1.240 . S
C4 O27 1.264 . S
O5 Mn0 2.095 . S
O5 C14 1.250 . S
O6 Mn1 2.121 . S
O6 C14 1.258 . S
C7 N8 1.326 . S
C7 C11 1.460 . S
C7 H13 0.929 . S
N8 Mn1 2.257 1_655 S
N8 C7 1.326 . S
N8 C12 1.362 . S
C9 C10 1.258 . S
C9 C12 1.431 . S
C9 C29 1.449 . S
C10 C9 1.258 . S
C10 C11 1.477 . S
C10 H30 0.931 . S
C11 C7 1.460 . S
C11 C10 1.477 . S
C11 H31 0.930 . S
C12 N8 1.362 . S
C12 C9 1.431 . S
C12 C22 1.476 . S
H13 C7 0.929 . S
C14 O5 1.250 . S
C14 O6 1.258 . S
O15 Mn0 2.162 . S
O15 C3 1.281 . S
O16 Mn0 2.297 . S
O16 C3 1.236 . S
N17 Mn1 2.282 . S
N17 C18 1.328 . S
N17 C22 1.318 1_455 S
C18 N17 1.328 . S
C18 C19 1.457 . S
C18 H23 0.929 . S
C19 C18 1.457 . S
C19 C20 1.291 1_454 S
C19 H32 0.931 1_554 S
C20 C19 1.291 1_656 S
C20 C21 1.373 1_556 S
C20 H33 0.929 . S
C21 C20 1.373 1_554 S
C21 C22 1.396 . S
C21 C28 1.403 . S
C22 C12 1.476 . S
C22 N17 1.318 1_655 S
C22 C21 1.396 . S
H23 C18 0.929 . S
O24 Mn0 2.385 . S
O24 C2 1.234 . S
O25 Mn0 2.209 . S
O25 Mn1 2.215 . S
O25 C2 1.283 . S
O26 Mn0 2.094 . S
O26 C4 1.240 . S
O27 Mn1 2.117 . S
O27 C4 1.264 . S
C28 C21 1.403 . S
C28 C29 1.399 . S
C28 H34 0.929 1_554 S
C29 C9 1.449 . S
C29 C28 1.399 . S
C29 H35 0.930 . S
H30 C10 0.931 . S
H31 C11 0.930 . S
H32 C19 0.931 1_556 S
H33 C20 0.929 . S
H34 C28 0.929 1_556 S
H35 C29 0.930 . S
Mn36 O41 2.095 . S
Mn36 O51 2.162 1_545 S
Mn36 O52 2.297 1_645 S
Mn36 O60 2.385 1_645 S
Mn36 O61 2.209 1_655 S
Mn36 O62 2.094 . S
Mn37 O42 2.121 . S
Mn37 N44 2.257 . S
Mn37 N53 2.282 . S
Mn37 O61 2.215 . S
Mn37 O63 2.117 1_455 S
C38 O60 1.234 1_545 S
C38 O61 1.283 . S
C39 O51 1.281 . S
C39 O52 1.236 1_655 S
C40 O62 1.240 . S
C40 O63 1.264 . S
O41 Mn36 2.095 . S
O41 C50 1.250 1_655 S
O42 Mn37 2.121 . S
O42 C50 1.258 . S
C43 N44 1.326 . S
C43 C47 1.460 . S
C43 H49 0.929 . S
N44 Mn37 2.257 . S
N44 C43 1.326 . S
N44 C48 1.362 . S
C45 C46 1.258 . S
C45 C48 1.431 . S
C45 C65 1.449 . S
C46 C45 1.258 . S
C46 C47 1.477 . S
C46 H66 0.931 . S
C47 C43 1.460 . S
C47 C46 1.477 . S
C47 H67 0.930 . S
C48 N44 1.362 . S
C48 C45 1.431 . S
C48 C58 1.476 . S
H49 C43 0.929 . S
C50 O41 1.250 1_455 S
C50 O42 1.258 . S
O51 Mn36 2.162 1_565 S
O51 C39 1.281 . S
O52 Mn36 2.297 1_465 S
O52 C39 1.236 1_455 S
N53 Mn37 2.282 . S
N53 C54 1.328 . S
N53 C58 1.318 . S
C54 N53 1.328 . S
C54 C55 1.457 . S
C54 H59 0.929 . S
C55 C54 1.457 . S
C55 C56 1.291 . S
C55 H68 0.931 . S
C56 C55 1.291 . S
C56 C57 1.373 . S
C56 H69 0.929 . S
C57 C56 1.373 . S
C57 C58 1.396 . S
C57 C64 1.403 . S
C58 C48 1.476 . S
C58 N53 1.318 . S
C58 C57 1.396 . S
H59 C54 0.929 . S
O60 Mn36 2.385 1_465 S
O60 C38 1.234 1_565 S
O61 Mn36 2.209 1_455 S
O61 Mn37 2.215 . S
O61 C38 1.283 . S
O62 Mn36 2.094 . S
O62 C40 1.240 . S
O63 Mn37 2.117 1_655 S
O63 C40 1.264 . S
C64 C57 1.403 . S
C64 C65 1.399 . S
C64 H70 0.929 . S
C65 C45 1.449 . S
C65 C64 1.399 . S
C65 H71 0.930 . S
H66 C46 0.931 . S
H67 C47 0.930 . S
H68 C55 0.931 . S
H69 C56 0.929 . S
H70 C64 0.929 . S
H71 C65 0.930 . S
Mn72 O77 2.095 . S
Mn72 O87 2.162 . S
Mn72 O88 2.297 . S
Mn72 O96 2.385 . S
Mn72 O97 2.209 . S
Mn72 O98 2.094 . S
Mn73 O78 2.121 . S
Mn73 N80 2.257 . S
Mn73 N89 2.282 . S
Mn73 O97 2.215 . S
Mn73 O99 2.117 . S
C74 O96 1.234 . S
C74 O97 1.283 . S
C75 O87 1.281 . S
C75 O88 1.236 . S
C76 O98 1.240 . S
C76 O99 1.264 . S
O77 Mn72 2.095 . S
O77 C86 1.250 . S
O78 Mn73 2.121 . S
O78 C86 1.258 . S
C79 N80 1.326 . S
C79 C83 1.460 . S
C79 H85 0.929 . S
N80 Mn73 2.257 . S
N80 C79 1.326 . S
N80 C84 1.362 . S
C81 C82 1.258 . S
C81 C84 1.431 . S
C81 C101 1.449 . S
C82 C81 1.258 . S
C82 C83 1.477 . S
C82 H102 0.931 . S
C83 C79 1.460 . S
C83 C82 1.477 . S
C83 H103 0.930 . S
C84 N80 1.362 . S
C84 C81 1.431 . S
C84 C94 1.476 . S
H85 C79 0.929 . S
C86 O77 1.250 . S
C86 O78 1.258 . S
O87 Mn72 2.162 . S
O87 C75 1.281 . S
O88 Mn72 2.297 . S
O88 C75 1.236 . S
N89 Mn73 2.282 . S
N89 C90 1.328 . S
N89 C94 1.318 . S
C90 N89 1.328 . S
C90 C91 1.457 . S
C90 H95 0.929 . S
C91 C90 1.457 . S
C91 C92 1.291 . S
C91 H104 0.931 . S
C92 C91 1.291 . S
C92 C93 1.373 . S
C92 H105 0.929 . S
C93 C92 1.373 . S
C93 C94 1.396 . S
C93 C100 1.403 . S
C94 C84 1.476 . S
C94 N89 1.318 . S
C94 C93 1.396 . S
H95 C90 0.929 . S
O96 Mn72 2.385 . S
O96 C74 1.234 . S
O97 Mn72 2.209 . S
O97 Mn73 2.215 . S
O97 C74 1.283 . S
O98 Mn72 2.094 . S
O98 C76 1.240 . S
O99 Mn73 2.117 . S
O99 C76 1.264 . S
C100 C93 1.403 . S
C100 C101 1.399 . S
C100 H106 0.929 . S
C101 C81 1.449 . S
C101 C100 1.399 . S
C101 H107 0.930 . S
H102 C82 0.931 . S
H103 C83 0.930 . S
H104 C91 0.931 . S
H105 C92 0.929 . S
H106 C100 0.929 . S
H107 C101 0.930 . S
H108 O134 0.856 . S
H109 O137 0.854 . S
H110 C145 0.930 . S
H111 C146 0.930 . S
H112 C148 0.930 . S
H113 C149 0.930 . S
H114 C151 0.931 1_655 S
H115 C152 0.930 1_655 S
H116 C154 0.930 . S
H117 C155 0.929 . S
H118 C157 0.930 1_655 S
H119 C158 0.931 1_655 S
H120 C160 0.930 . S
H121 C161 0.929 . S
H122 C163 0.931 . S
H123 C164 0.930 . S
H124 C166 0.930 . S
H125 C167 0.932 . S
H126 C169 0.930 . S
H127 C170 0.929 . S
H128 C172 0.931 . S
H129 C173 0.930 . S
H130 C175 0.929 . S
H131 C176 0.931 . S
H132 C178 0.930 . S
H133 C179 0.929 . S
O134 H108 0.856 . S
O134 C180 1.300 . S
O135 C180 1.209 . S
O136 C181 1.199 1_655 S
O137 H109 0.854 . S
O137 C181 1.297 . S
C138 C139 1.404 . S
C138 C143 1.397 . S
C138 C144 1.492 . S
C139 C138 1.404 . S
C139 C140 1.396 . S
C139 C150 1.492 . S
C140 C139 1.396 . S
C140 C141 1.397 . S
C140 C156 1.509 . S
C141 C140 1.397 . S
C141 C142 1.412 . S
C141 C162 1.485 . S
C142 C141 1.412 . S
C142 C143 1.388 . S
C142 C168 1.490 . S
C143 C138 1.397 . S
C143 C142 1.388 . S
C143 C174 1.519 . S
C144 C138 1.492 . S
C144 C145 1.363 1_455 S
C144 C149 1.390 . S
C145 H110 0.930 . S
C145 C144 1.363 1_655 S
C145 C146 1.372 . S
C146 H111 0.930 . S
C146 C145 1.372 . S
C146 C147 1.383 1_655 S
C147 C146 1.383 1_455 S
C147 C148 1.395 . S
C148 H112 0.930 . S
C148 C147 1.395 . S
C148 C149 1.362 . S
C149 H113 0.930 . S
C149 C144 1.390 . S
C149 C148 1.362 . S
C150 C139 1.492 . S
C150 C151 1.377 . S
C150 C155 1.397 . S
C151 H114 0.931 1_455 S
C151 C150 1.377 . S
C151 C152 1.376 . S
C152 H115 0.930 1_455 S
C152 C151 1.376 . S
C152 C153 1.376 . S
C153 C152 1.376 . S
C153 C154 1.378 . S
C153 C180 1.486 . S
C154 H116 0.930 . S
C154 C153 1.378 . S
C154 C155 1.376 . S
C155 H117 0.929 . S
C155 C150 1.397 . S
C155 C154 1.376 . S
C156 C140 1.509 . S
C156 C157 1.391 . S
C156 C161 1.386 . S
C157 H118 0.930 1_455 S
C157 C156 1.391 . S
C157 C158 1.375 . S
C158 H119 0.931 1_455 S
C158 C157 1.375 . S
C158 C159 1.375 . S
C159 C158 1.375 . S
C159 C160 1.361 . S
C160 H120 0.930 . S
C160 C159 1.361 . S
C160 C161 1.399 . S
C161 H121 0.929 . S
C161 C156 1.386 . S
C161 C160 1.399 . S
C162 C141 1.485 . S
C162 C163 1.394 1_455 S
C162 C167 1.360 . S
C163 H122 0.931 . S
C163 C162 1.394 1_655 S
C163 C164 1.372 . S
C164 H123 0.930 . S
C164 C163 1.372 . S
C164 C165 1.397 1_655 S
C165 C164 1.397 1_455 S
C165 C166 1.390 . S
C165 C181 1.476 . S
C166 H124 0.930 . S
C166 C165 1.390 . S
C166 C167 1.366 . S
C167 H125 0.932 . S
C167 C162 1.360 . S
C167 C166 1.366 . S
C168 C142 1.490 . S
C168 C169 1.380 1_455 S
C168 C173 1.386 . S
C169 H126 0.930 . S
C169 C168 1.380 1_655 S
C169 C170 1.381 . S
C170 H127 0.929 . S
C170 C169 1.381 . S
C170 C171 1.371 . S
C171 C170 1.371 . S
C171 C172 1.380 1_655 S
C172 H128 0.931 . S
C172 C171 1.380 1_455 S
C172 C173 1.387 . S
C173 H129 0.930 . S
C173 C168 1.386 . S
C173 C172 1.387 . S
C174 C143 1.519 . S
C174 C175 1.377 1_455 S
C174 C179 1.361 . S
C175 H130 0.929 . S
C175 C174 1.377 1_655 S
C175 C176 1.386 . S
C176 H131 0.931 . S
C176 C175 1.386 . S
C176 C177 1.363 1_655 S
C177 C176 1.363 1_455 S
C177 C178 1.385 . S
C178 H132 0.930 . S
C178 C177 1.385 . S
C178 C179 1.396 . S
C179 H133 0.929 . S
C179 C174 1.361 . S
C179 C178 1.396 . S
C180 O134 1.300 . S
C180 O135 1.209 . S
C180 C153 1.486 . S
C181 O136 1.199 1_455 S
C181 O137 1.297 . S
C181 C165 1.476 . S
H182 O208 0.856 . S
H183 O211 0.854 . S
H184 C219 0.930 . S
H185 C220 0.930 . S
H186 C222 0.930 . S
H187 C223 0.930 . S
H188 C225 0.931 . S
H189 C226 0.930 . S
H190 C228 0.930 . S
H191 C229 0.929 . S
H192 C231 0.930 . S
H193 C232 0.931 . S
H194 C234 0.930 . S
H195 C235 0.929 . S
H196 C237 0.931 . S
H197 C238 0.930 . S
H198 C240 0.930 . S
H199 C241 0.932 . S
H200 C243 0.930 . S
H201 C244 0.929 . S
H202 C246 0.931 . S
H203 C247 0.930 . S
H204 C249 0.929 . S
H205 C250 0.931 . S
H206 C252 0.930 . S
H207 C253 0.929 . S
O208 H182 0.856 . S
O208 C254 1.300 . S
O209 C254 1.209 . S
O210 C255 1.199 . S
O211 H183 0.854 . S
O211 C255 1.297 . S
C212 C213 1.404 . S
C212 C217 1.397 . S
C212 C218 1.492 . S
C213 C212 1.404 . S
C213 C214 1.396 . S
C213 C224 1.492 . S
C214 C213 1.396 . S
C214 C215 1.397 . S
C214 C230 1.509 . S
C215 C214 1.397 . S
C215 C216 1.412 . S
C215 C236 1.485 . S
C216 C215 1.412 . S
C216 C217 1.388 . S
C216 C242 1.490 . S
C217 C212 1.397 . S
C217 C216 1.388 . S
C217 C248 1.519 . S
C218 C212 1.492 . S
C218 C219 1.363 . S
C218 C223 1.390 . S
C219 H184 0.930 . S
C219 C218 1.363 . S
C219 C220 1.372 . S
C220 H185 0.930 . S
C220 C219 1.372 . S
C220 C221 1.383 . S
C221 C220 1.383 . S
C221 C222 1.395 . S
C222 H186 0.930 . S
C222 C221 1.395 . S
C222 C223 1.362 . S
C223 H187 0.930 . S
C223 C218 1.390 . S
C223 C222 1.362 . S
C224 C213 1.492 . S
C224 C225 1.377 . S
C224 C229 1.397 . S
C225 H188 0.931 . S
C225 C224 1.377 . S
C225 C226 1.376 . S
C226 H189 0.930 . S
C226 C225 1.376 . S
C226 C227 1.376 . S
C227 C226 1.376 . S
C227 C228 1.378 . S
C227 C254 1.486 . S
C228 H190 0.930 . S
C228 C227 1.378 . S
C228 C229 1.376 . S
C229 H191 0.929 . S
C229 C224 1.397 . S
C229 C228 1.376 . S
C230 C214 1.509 . S
C230 C231 1.391 . S
C230 C235 1.386 . S
C231 H192 0.930 . S
C231 C230 1.391 . S
C231 C232 1.375 . S
C232 H193 0.931 . S
C232 C231 1.375 . S
C232 C233 1.375 . S
C233 C232 1.375 . S
C233 C234 1.361 . S
C234 H194 0.930 . S
C234 C233 1.361 . S
C234 C235 1.399 . S
C235 H195 0.929 . S
C235 C230 1.386 . S
C235 C234 1.399 . S
C236 C215 1.485 . S
C236 C237 1.394 . S
C236 C241 1.360 . S
C237 H196 0.931 . S
C237 C236 1.394 . S
C237 C238 1.372 . S
C238 H197 0.930 . S
C238 C237 1.372 . S
C238 C239 1.397 . S
C239 C238 1.397 . S
C239 C240 1.390 . S
C239 C255 1.476 . S
C240 H198 0.930 . S
C240 C239 1.390 . S
C240 C241 1.366 . S
C241 H199 0.932 . S
C241 C236 1.360 . S
C241 C240 1.366 . S
C242 C216 1.490 . S
C242 C243 1.380 . S
C242 C247 1.386 . S
C243 H200 0.930 . S
C243 C242 1.380 . S
C243 C244 1.381 . S
C244 H201 0.929 . S
C244 C243 1.381 . S
C244 C245 1.371 . S
C245 C244 1.371 . S
C245 C246 1.380 . S
C246 H202 0.931 . S
C246 C245 1.380 . S
C246 C247 1.387 . S
C247 H203 0.930 . S
C247 C242 1.386 . S
C247 C246 1.387 . S
C248 C217 1.519 . S
C248 C249 1.377 . S
C248 C253 1.361 . S
C249 H204 0.929 . S
C249 C248 1.377 . S
C249 C250 1.386 . S
C250 H205 0.931 . S
C250 C249 1.386 . S
C250 C251 1.363 . S
C251 C250 1.363 . S
C251 C252 1.385 . S
C252 H206 0.930 . S
C252 C251 1.385 . S
C252 C253 1.396 . S
C253 H207 0.929 . S
C253 C248 1.361 . S
C253 C252 1.396 . S
C254 O208 1.300 . S
C254 O209 1.209 . S
C254 C227 1.486 . S
C255 O210 1.199 . S
C255 O211 1.297 . S
C255 C239 1.476 . S
H256 O282 0.856 . S
H257 O285 0.854 . S
H258 C293 0.930 . S
H259 C294 0.930 . S
H260 C296 0.930 . S
H261 C297 0.930 . S
H262 C299 0.931 . S
H263 C300 0.930 . S
H264 C302 0.935 . S
H265 C303 0.929 . S
H266 C305 0.930 . S
H267 C306 0.931 . S
H268 C308 0.930 . S
H269 C309 0.929 . S
H270 C311 0.931 . S
H271 C312 0.930 . S
H272 C314 0.930 . S
H273 C315 0.932 . S
H274 C317 0.930 . S
H275 C318 0.929 . S
H276 C320 0.931 . S
H277 C321 0.930 . S
H278 C323 0.929 . S
H279 C324 0.931 . S
H280 C326 0.930 . S
H281 C327 0.929 . S
O282 H256 0.856 . S
O282 C328 1.300 . S
O283 C328 1.209 . S
O284 C329 1.199 . S
O285 H257 0.854 . S
O285 C329 1.297 . S
C286 C287 1.404 . S
C286 C291 1.397 . S
C286 C292 1.492 . S
C287 C286 1.404 . S
C287 C288 1.396 . S
C287 C298 1.492 . S
C288 C287 1.396 . S
C288 C289 1.397 . S
C288 C304 1.509 . S
C289 C288 1.397 . S
C289 C290 1.412 . S
C289 C310 1.485 . S
C290 C289 1.412 . S
C290 C291 1.388 . S
C290 C316 1.490 . S
C291 C286 1.397 . S
C291 C290 1.388 . S
C291 C322 1.519 . S
C292 C286 1.492 . S
C292 C293 1.363 . S
C292 C297 1.390 . S
C293 H258 0.930 . S
C293 C292 1.363 . S
C293 C294 1.372 . S
C294 H259 0.930 . S
C294 C293 1.372 . S
C294 C295 1.383 . S
C295 C294 1.383 . S
C295 C296 1.395 . S
C296 H260 0.930 . S
C296 C295 1.395 . S
C296 C297 1.362 . S
C297 H261 0.930 . S
C297 C292 1.390 . S
C297 C296 1.362 . S
C298 C287 1.492 . S
C298 C299 1.377 . S
C298 C303 1.397 . S
C299 H262 0.931 . S
C299 C298 1.377 . S
C299 C300 1.376 1_556 S
C300 H263 0.930 . S
C300 C299 1.376 1_554 S
C300 C301 1.376 . S
C301 C300 1.376 . S
C301 C302 1.378 1_554 S
C301 C328 1.486 . S
C302 H264 0.935 . S
C302 C301 1.378 1_556 S
C302 C303 1.376 . S
C303 H265 0.929 . S
C303 C298 1.397 . S
C303 C302 1.376 . S
C304 C288 1.509 . S
C304 C305 1.391 . S
C304 C309 1.386 . S
C305 H266 0.930 . S
C305 C304 1.391 . S
C305 C306 1.375 . S
C306 H267 0.931 . S
C306 C305 1.375 . S
C306 C307 1.375 . S
C307 C306 1.375 . S
C307 C308 1.361 . S
C308 H268 0.930 . S
C308 C307 1.361 . S
C308 C309 1.399 . S
C309 H269 0.929 . S
C309 C304 1.386 . S
C309 C308 1.399 . S
C310 C289 1.485 . S
C310 C311 1.394 . S
C310 C315 1.360 . S
C311 H270 0.931 . S
C311 C310 1.394 . S
C311 C312 1.372 . S
C312 H271 0.930 . S
C312 C311 1.372 . S
C312 C313 1.397 . S
C313 C312 1.397 . S
C313 C314 1.390 . S
C313 C329 1.476 . S
C314 H272 0.930 . S
C314 C313 1.390 . S
C314 C315 1.366 . S
C315 H273 0.932 . S
C315 C310 1.360 . S
C315 C314 1.366 . S
C316 C290 1.490 . S
C316 C317 1.380 . S
C316 C321 1.386 . S
C317 H274 0.930 . S
C317 C316 1.380 . S
C317 C318 1.381 . S
C318 H275 0.929 . S
C318 C317 1.381 . S
C318 C319 1.371 . S
C319 C318 1.371 . S
C319 C320 1.380 . S
C320 H276 0.931 . S
C320 C319 1.380 . S
C320 C321 1.387 . S
C321 H277 0.930 . S
C321 C316 1.386 . S
C321 C320 1.387 . S
C322 C291 1.519 . S
C322 C323 1.377 . S
C322 C327 1.361 . S
C323 H278 0.929 . S
C323 C322 1.377 . S
C323 C324 1.386 . S
C324 H279 0.931 . S
C324 C323 1.386 . S
C324 C325 1.363 . S
C325 C324 1.363 . S
C325 C326 1.385 . S
C326 H280 0.930 . S
C326 C325 1.385 . S
C326 C327 1.396 . S
C327 H281 0.929 . S
C327 C322 1.361 . S
C327 C326 1.396 . S
C328 O282 1.300 . S
C328 O283 1.209 . S
C328 C301 1.486 . S
C329 O284 1.199 . S
C329 O285 1.297 . S
C329 C313 1.476 . S
H330 C342 0.930 . S
H331 C344 0.930 . S
H332 C345 0.930 . S
H333 C349 0.959 1_655 S
H334 C349 0.959 . S
H335 C349 0.961 . S
H336 C350 0.960 . S
H337 C350 0.961 . S
H338 C350 0.959 . S
H339 C353 0.929 . S
H340 C354 0.931 1_655 S
H341 C356 0.930 . S
C342 H330 0.930 . S
C342 C343 1.399 . S
C342 C347 1.399 . S
C343 C342 1.399 . S
C343 C344 1.376 . S
C344 H331 0.930 . S
C344 C343 1.376 . S
C344 C345 1.388 . S
C345 H332 0.930 . S
C345 C344 1.388 . S
C345 C346 1.390 . S
C346 C345 1.390 . S
C346 C347 1.394 . S
C346 C352 1.465 . S
C347 C342 1.399 . S
C347 C346 1.394 . S
C347 C348 1.516 . S
C348 C347 1.516 . S
C348 C349 1.502 . S
C348 C350 1.561 . S
C348 C351 1.526 . S
C349 H333 0.959 1_455 S
C349 H334 0.959 . S
C349 H335 0.961 . S
C349 C348 1.502 . S
C350 H336 0.960 . S
C350 H337 0.961 . S
C350 H338 0.959 . S
C350 C348 1.561 . S
C351 C348 1.526 . S
C351 C352 1.396 . S
C351 C356 1.390 . S
C352 C346 1.465 . S
C352 C351 1.396 . S
C352 C353 1.399 . S
C353 H339 0.929 . S
C353 C352 1.399 . S
C353 C354 1.385 . S
C354 H340 0.931 1_455 S
C354 C353 1.385 . S
C354 C355 1.389 . S
C355 C354 1.389 . S
C355 C356 1.387 . S
C356 H341 0.930 . S
C356 C351 1.390 . S
C356 C355 1.387 . S
H357 C369 0.930 . S
H358 C371 0.930 . S
H359 C372 0.930 . S
H360 C376 0.959 . S
H361 C376 0.959 . S
H362 C376 0.961 . S
H363 C377 0.960 . S
H364 C377 0.961 . S
H365 C377 0.959 . S
H366 C380 0.929 . S
H367 C381 0.931 1_565 S
H368 C383 0.930 . S
C369 H357 0.930 . S
C369 C370 1.399 . S
C369 C374 1.399 . S
C370 C369 1.399 . S
C370 C371 1.376 1_545 S
C371 H358 0.930 . S
C371 C370 1.376 1_565 S
C371 C372 1.388 . S
C372 H359 0.930 . S
C372 C371 1.388 . S
C372 C373 1.390 1_565 S
C373 C372 1.390 1_545 S
C373 C374 1.394 . S
C373 C379 1.465 . S
C374 C369 1.399 . S
C374 C373 1.394 . S
C374 C375 1.516 . S
C375 C374 1.516 . S
C375 C376 1.502 . S
C375 C377 1.561 . S
C375 C378 1.526 . S
C376 H360 0.959 . S
C376 H361 0.959 . S
C376 H362 0.961 . S
C376 C375 1.502 . S
C377 H363 0.960 . S
C377 H364 0.961 . S
C377 H365 0.959 . S
C377 C375 1.561 . S
C378 C375 1.526 . S
C378 C379 1.396 . S
C378 C383 1.390 . S
C379 C373 1.465 . S
C379 C378 1.396 . S
C379 C380 1.399 1_545 S
C380 H366 0.929 . S
C380 C379 1.399 1_565 S
C380 C381 1.385 1_565 S
C381 H367 0.931 1_545 S
C381 C380 1.385 1_545 S
C381 C382 1.389 . S
C382 C381 1.389 . S
C382 C383 1.387 . S
C383 H368 0.930 . S
C383 C378 1.390 . S
C383 C382 1.387 . S
H384 C396 0.930 . S
H385 C398 0.930 . S
H386 C399 0.930 1_545 S
H387 C403 0.959 . S
H388 C403 0.959 . S
H389 C403 0.961 . S
H390 C404 0.960 . S
H391 C404 0.961 . S
H392 C404 0.959 . S
H393 C407 0.929 . S
H394 C408 0.931 . S
H395 C410 0.930 . S
C396 H384 0.930 . S
C396 C397 1.399 . S
C396 C401 1.399 . S
C397 C396 1.399 . S
C397 C398 1.376 1_565 S
C398 H385 0.930 . S
C398 C397 1.376 1_545 S
C398 C399 1.388 1_545 S
C399 H386 0.930 1_565 S
C399 C398 1.388 1_565 S
C399 C400 1.390 . S
C400 C399 1.390 . S
C400 C401 1.394 . S
C400 C406 1.465 . S
C401 C396 1.399 . S
C401 C400 1.394 . S
C401 C402 1.516 . S
C402 C401 1.516 . S
C402 C403 1.502 . S
C402 C404 1.561 . S
C402 C405 1.526 . S
C403 H387 0.959 . S
C403 H388 0.959 . S
C403 H389 0.961 . S
C403 C402 1.502 . S
C404 H390 0.960 . S
C404 H391 0.961 . S
C404 H392 0.959 . S
C404 C402 1.561 . S
C405 C402 1.526 . S
C405 C406 1.396 . S
C405 C410 1.390 . S
C406 C400 1.465 . S
C406 C405 1.396 . S
C406 C407 1.399 . S
C407 H393 0.929 . S
C407 C406 1.399 . S
C407 C408 1.385 . S
C408 H394 0.931 . S
C408 C407 1.385 . S
C408 C409 1.389 . S
C409 C408 1.389 . S
C409 C410 1.387 . S
C410 H395 0.930 . S
C410 C405 1.390 . S
C410 C409 1.387 . S
H411 C423 0.930 . S
H412 C425 0.930 . S
H413 C426 0.930 1_545 S
H414 C430 0.959 . S
H415 C430 0.959 . S
H416 C430 0.961 . S
H417 C431 0.960 . S
H418 C431 0.961 . S
H419 C431 0.959 . S
H420 C434 0.929 . S
H421 C435 0.931 . S
H422 C437 0.930 . S
C423 H411 0.930 . S
C423 C424 1.399 . S
C423 C428 1.399 . S
C424 C423 1.399 . S
C424 C425 1.376 1_565 S
C425 H412 0.930 . S
C425 C424 1.376 1_545 S
C425 C426 1.388 1_545 S
C426 H413 0.930 1_565 S
C426 C425 1.388 1_565 S
C426 C427 1.390 . S
C427 C426 1.390 . S
C427 C428 1.394 . S
C427 C433 1.465 . S
C428 C423 1.399 . S
C428 C427 1.394 . S
C428 C429 1.516 . S
C429 C428 1.516 . S
C429 C430 1.502 1_455 S
C429 C431 1.561 . S
C429 C432 1.526 . S
C430 H414 0.959 . S
C430 H415 0.959 . S
C430 H416 0.961 . S
C430 C429 1.502 1_655 S
C431 H417 0.960 . S
C431 H418 0.961 . S
C431 H419 0.959 . S
C431 C429 1.561 . S
C432 C429 1.526 . S
C432 C433 1.396 . S
C432 C437 1.390 . S
C433 C427 1.465 . S
C433 C432 1.396 . S
C433 C434 1.399 . S
C434 H420 0.929 . S
C434 C433 1.399 . S
C434 C435 1.385 . S
C435 H421 0.931 . S
C435 C434 1.385 . S
C435 C436 1.389 . S
C436 C435 1.389 . S
C436 C437 1.387 . S
C437 H422 0.930 . S
C437 C432 1.390 . S
C437 C436 1.387 . S
H438 C450 0.930 1_565 S
H439 C452 0.930 . S
H440 C453 0.930 . S
H441 C457 0.959 . S
H442 C457 0.959 . S
H443 C457 0.961 . S
H444 C458 0.960 1_565 S
H445 C458 0.961 1_565 S
H446 C458 0.959 . S
H447 C461 0.929 . S
H448 C462 0.931 . S
H449 C464 0.930 . S
C450 H438 0.930 1_545 S
C450 C451 1.399 . S
C450 C455 1.399 . S
C451 C450 1.399 . S
C451 C452 1.376 . S
C452 H439 0.930 . S
C452 C451 1.376 . S
C452 C453 1.388 . S
C453 H440 0.930 . S
C453 C452 1.388 . S
C453 C454 1.390 . S
C454 C453 1.390 . S
C454 C455 1.394 . S
C454 C460 1.465 . S
C455 C450 1.399 . S
C455 C454 1.394 . S
C455 C456 1.516 . S
C456 C455 1.516 . S
C456 C457 1.502 1_545 S
C456 C458 1.561 . S
C456 C459 1.526 . S
C457 H441 0.959 . S
C457 H442 0.959 . S
C457 H443 0.961 . S
C457 C456 1.502 1_565 S
C458 H444 0.960 1_545 S
C458 H445 0.961 1_545 S
C458 H446 0.959 . S
C458 C456 1.561 . S
C459 C456 1.526 . S
C459 C460 1.396 . S
C459 C464 1.390 . S
C460 C454 1.465 . S
C460 C459 1.396 . S
C460 C461 1.399 . S
C461 H447 0.929 . S
C461 C460 1.399 . S
C461 C462 1.385 . S
C462 H448 0.931 . S
C462 C461 1.385 . S
C462 C463 1.389 . S
C463 C462 1.389 . S
C463 C464 1.387 . S
C464 H449 0.930 . S
C464 C459 1.390 . S
C464 C463 1.387 . S
H465 C477 0.930 . S
H466 C479 0.930 . S
H467 C480 0.930 . S
H468 C484 0.959 . S
H469 C484 0.959 . S
H470 C484 0.961 . S
H471 C485 0.960 . S
H472 C485 0.961 . S
H473 C485 0.959 . S
H474 C488 0.929 . S
H475 C489 0.931 . S
H476 C491 0.930 . S
C477 H465 0.930 . S
C477 C478 1.399 . S
C477 C482 1.399 . S
C478 C477 1.399 . S
C478 C479 1.376 . S
C479 H466 0.930 . S
C479 C478 1.376 . S
C479 C480 1.388 . S
C480 H467 0.930 . S
C480 C479 1.388 . S
C480 C481 1.390 . S
C481 C480 1.390 . S
C481 C482 1.394 . S
C481 C487 1.465 . S
C482 C477 1.399 . S
C482 C481 1.394 . S
C482 C483 1.516 . S
C483 C482 1.516 . S
C483 C484 1.502 . S
C483 C485 1.561 . S
C483 C486 1.526 . S
C484 H468 0.959 . S
C484 H469 0.959 . S
C484 H470 0.961 . S
C484 C483 1.502 . S
C485 H471 0.960 . S
C485 H472 0.961 . S
C485 H473 0.959 . S
C485 C483 1.561 . S
C486 C483 1.526 . S
C486 C487 1.396 . S
C486 C491 1.390 . S
C487 C481 1.465 . S
C487 C486 1.396 . S
C487 C488 1.399 . S
C488 H474 0.929 . S
C488 C487 1.399 . S
C488 C489 1.385 . S
C489 H475 0.931 . S
C489 C488 1.385 . S
C489 C490 1.389 . S
C490 C489 1.389 . S
C490 C491 1.387 . S
C491 H476 0.930 . S
C491 C486 1.390 . S
C491 C490 1.387 . S
H492 C504 0.930 . S
H493 C506 0.930 . S
H494 C507 0.930 . S
H495 C511 0.959 . S
H496 C511 0.959 . S
H497 C511 0.961 . S
H498 C512 0.960 . S
H499 C512 0.961 . S
H500 C512 0.959 . S
H501 C515 0.929 . S
H502 C516 0.931 . S
H503 C518 0.930 . S
C504 H492 0.930 . S
C504 C505 1.399 . S
C504 C509 1.399 . S
C505 C504 1.399 . S
C505 C506 1.376 . S
C506 H493 0.930 . S
C506 C505 1.376 . S
C506 C507 1.388 . S
C507 H494 0.930 . S
C507 C506 1.388 . S
C507 C508 1.390 . S
C508 C507 1.390 . S
C508 C509 1.394 . S
C508 C514 1.465 . S
C509 C504 1.399 . S
C509 C508 1.394 . S
C509 C510 1.516 . S
C510 C509 1.516 . S
C510 C511 1.502 . S
C510 C512 1.561 . S
C510 C513 1.526 . S
C511 H495 0.959 . S
C511 H496 0.959 . S
C511 H497 0.961 . S
C511 C510 1.502 . S
C512 H498 0.960 . S
C512 H499 0.961 . S
C512 H500 0.959 . S
C512 C510 1.561 . S
C513 C510 1.526 . S
C513 C514 1.396 . S
C513 C518 1.390 . S
C514 C508 1.465 . S
C514 C513 1.396 . S
C514 C515 1.399 . S
C515 H501 0.929 . S
C515 C514 1.399 . S
C515 C516 1.385 . S
C516 H502 0.931 . S
C516 C515 1.385 . S
C516 C517 1.389 . S
C517 C516 1.389 . S
C517 C518 1.387 . S
C518 H503 0.930 . S
C518 C513 1.390 . S
C518 C517 1.387 . S
H519 C531 0.930 . S
H520 C533 0.930 . S
H521 C534 0.930 . S
H522 C538 0.959 1_554 S
H523 C538 0.959 . S
H524 C538 0.961 1_554 S
H525 C539 0.960 1_545 S
H526 C539 0.961 1_545 S
H527 C539 0.959 . S
H528 C542 0.929 1_554 S
H529 C543 0.931 . S
H530 C545 0.930 . S
C531 H519 0.930 . S
C531 C532 1.399 1_545 S
C531 C536 1.399 1_545 S
C532 C531 1.399 1_565 S
C532 C533 1.376 . S
C533 H520 0.930 . S
C533 C532 1.376 . S
C533 C534 1.388 . S
C534 H521 0.930 . S
C534 C533 1.388 . S
C534 C535 1.390 . S
C535 C534 1.390 . S
C535 C536 1.394 . S
C535 C541 1.465 . S
C536 C531 1.399 1_565 S
C536 C535 1.394 . S
C536 C537 1.516 1_554 S
C537 C536 1.516 1_556 S
C537 C538 1.502 1_565 S
C537 C539 1.561 . S
C537 C540 1.526 . S
C538 H522 0.959 1_556 S
C538 H523 0.959 . S
C538 H524 0.961 1_556 S
C538 C537 1.502 1_545 S
C539 H525 0.960 1_565 S
C539 H526 0.961 1_565 S
C539 H527 0.959 . S
C539 C537 1.561 . S
C540 C537 1.526 . S
C540 C541 1.396 1_556 S
C540 C545 1.390 . S
C541 C535 1.465 . S
C541 C540 1.396 1_554 S
C541 C542 1.399 1_554 S
C542 H528 0.929 1_556 S
C542 C541 1.399 1_556 S
C542 C543 1.385 . S
C543 H529 0.931 . S
C543 C542 1.385 . S
C543 C544 1.389 . S
C544 C543 1.389 . S
C544 C545 1.387 . S
C545 H530 0.930 . S
C545 C540 1.390 . S
C545 C544 1.387 . S
H546 C558 0.930 . S
H547 C560 0.930 . S
H548 C561 0.930 . S
H549 C565 0.959 . S
H550 C565 0.959 . S
H551 C565 0.961 . S
H552 C566 0.960 . S
H553 C566 0.961 . S
H554 C566 0.959 . S
H555 C569 0.929 . S
H556 C570 0.931 . S
H557 C572 0.930 . S
C558 H546 0.930 . S
C558 C559 1.399 . S
C558 C563 1.399 . S
C559 C558 1.399 . S
C559 C560 1.376 1_655 S
C560 H547 0.930 . S
C560 C559 1.376 1_455 S
C560 C561 1.388 . S
C561 H548 0.930 . S
C561 C560 1.388 . S
C561 C562 1.390 . S
C562 C561 1.390 . S
C562 C563 1.394 1_455 S
C562 C568 1.465 . S
C563 C558 1.399 . S
C563 C562 1.394 1_655 S
C563 C564 1.516 . S
C564 C563 1.516 . S
C564 C565 1.502 . S
C564 C566 1.561 . S
C564 C567 1.526 . S
C565 H549 0.959 . S
C565 H550 0.959 . S
C565 H551 0.961 . S
C565 C564 1.502 . S
C566 H552 0.960 . S
C566 H553 0.961 . S
C566 H554 0.959 . S
C566 C564 1.561 . S
C567 C564 1.526 . S
C567 C568 1.396 1_655 S
C567 C572 1.390 . S
C568 C562 1.465 . S
C568 C567 1.396 1_455 S
C568 C569 1.399 . S
C569 H555 0.929 . S
C569 C568 1.399 . S
C569 C570 1.385 . S
C570 H556 0.931 . S
C570 C569 1.385 . S
C570 C571 1.389 1_455 S
C571 C570 1.389 1_655 S
C571 C572 1.387 . S
C572 H557 0.930 . S
C572 C567 1.390 . S
C572 C571 1.387 . S
H573 C585 0.930 . S
H574 C587 0.930 . S
H575 C588 0.930 . S
H576 C592 0.959 . S
H577 C592 0.959 1_565 S
H578 C592 0.961 1_565 S
H579 C593 0.960 . S
H580 C593 0.961 . S
H581 C593 0.959 1_545 S
H582 C596 0.929 . S
H583 C597 0.931 . S
H584 C599 0.930 . S
C585 H573 0.930 . S
C585 C586 1.399 . S
C585 C590 1.399 . S
C586 C585 1.399 . S
C586 C587 1.376 . S
C587 H574 0.930 . S
C587 C586 1.376 . S
C587 C588 1.388 . S
C588 H575 0.930 . S
C588 C587 1.388 . S
C588 C589 1.390 . S
C589 C588 1.390 . S
C589 C590 1.394 . S
C589 C595 1.465 . S
C590 C585 1.399 . S
C590 C589 1.394 . S
C590 C591 1.516 . S
C591 C590 1.516 . S
C591 C592 1.502 . S
C591 C593 1.561 1_545 S
C591 C594 1.526 . S
C592 H576 0.959 . S
C592 H577 0.959 1_545 S
C592 H578 0.961 1_545 S
C592 C591 1.502 . S
C593 H579 0.960 . S
C593 H580 0.961 . S
C593 H581 0.959 1_565 S
C593 C591 1.561 1_565 S
C594 C591 1.526 . S
C594 C595 1.396 . S
C594 C599 1.390 . S
C595 C589 1.465 . S
C595 C594 1.396 . S
C595 C596 1.399 . S
C596 H582 0.929 . S
C596 C595 1.399 . S
C596 C597 1.385 . S
C597 H583 0.931 . S
C597 C596 1.385 . S
C597 C598 1.389 . S
C598 C597 1.389 . S
C598 C599 1.387 . S
C599 H584 0.930 . S
C599 C594 1.390 . S
C599 C598 1.387 . S
H600 C612 0.930 . S
H601 C614 0.930 . S
H602 C615 0.930 . S
H603 C619 0.959 . S
H604 C619 0.959 . S
H605 C619 0.961 . S
H606 C620 0.960 . S
H607 C620 0.961 . S
H608 C620 0.959 . S
H609 C623 0.929 . S
H610 C624 0.931 . S
H611 C626 0.930 . S
C612 H600 0.930 . S
C612 C613 1.399 . S
C612 C617 1.399 . S
C613 C612 1.399 . S
C613 C614 1.376 . S
C614 H601 0.930 . S
C614 C613 1.376 . S
C614 C615 1.388 . S
C615 H602 0.930 . S
C615 C614 1.388 . S
C615 C616 1.390 . S
C616 C615 1.390 . S
C616 C617 1.394 . S
C616 C622 1.465 . S
C617 C612 1.399 . S
C617 C616 1.394 . S
C617 C618 1.516 . S
C618 C617 1.516 . S
C618 C619 1.502 . S
C618 C620 1.561 . S
C618 C621 1.526 . S
C619 H603 0.959 . S
C619 H604 0.959 . S
C619 H605 0.961 . S
C619 C618 1.502 . S
C620 H606 0.960 . S
C620 H607 0.961 . S
C620 H608 0.959 . S
C620 C618 1.561 . S
C621 C618 1.526 . S
C621 C622 1.396 . S
C621 C626 1.390 . S
C622 C616 1.465 . S
C622 C621 1.396 . S
C622 C623 1.399 . S
C623 H609 0.929 . S
C623 C622 1.399 . S
C623 C624 1.385 1_554 S
C624 H610 0.931 . S
C624 C623 1.385 1_556 S
C624 C625 1.389 . S
C625 C624 1.389 . S
C625 C626 1.387 1_556 S
C626 H611 0.930 . S
C626 C621 1.390 . S
C626 C625 1.387 1_554 S
H627 C639 0.930 . S
H628 C641 0.930 . S
H629 C642 0.930 . S
H630 C646 0.959 . S
H631 C646 0.959 . S
H632 C646 0.961 . S
H633 C647 0.960 . S
H634 C647 0.961 . S
H635 C647 0.959 . S
H636 C650 0.929 . S
H637 C651 0.931 . S
H638 C653 0.930 . S
C639 H627 0.930 . S
C639 C640 1.399 . S
C639 C644 1.399 . S
C640 C639 1.399 . S
C640 C641 1.376 . S
C641 H628 0.930 . S
C641 C640 1.376 . S
C641 C642 1.388 . S
C642 H629 0.930 . S
C642 C641 1.388 . S
C642 C643 1.390 . S
C643 C642 1.390 . S
C643 C644 1.394 . S
C643 C649 1.465 . S
C644 C639 1.399 . S
C644 C643 1.394 . S
C644 C645 1.516 . S
C645 C644 1.516 . S
C645 C646 1.502 . S
C645 C647 1.561 1_455 S
C645 C648 1.526 . S
C646 H630 0.959 . S
C646 H631 0.959 . S
C646 H632 0.961 . S
C646 C645 1.502 . S
C647 H633 0.960 . S
C647 H634 0.961 . S
C647 H635 0.959 . S
C647 C645 1.561 1_655 S
C648 C645 1.526 . S
C648 C649 1.396 . S
C648 C653 1.390 . S
C649 C643 1.465 . S
C649 C648 1.396 . S
C649 C650 1.399 . S
C650 H636 0.929 . S
C650 C649 1.399 . S
C650 C651 1.385 . S
C651 H637 0.931 . S
C651 C650 1.385 . S
C651 C652 1.389 . S
C652 C651 1.389 . S
C652 C653 1.387 . S
C653 H638 0.930 . S
C653 C648 1.390 . S
C653 C652 1.387 . S
C355 C147 1.386 . S
C343 C14 1.505 . S
C370 C40 1.453 . S
C382 C221 1.371 . S
C397 C76 2.057 1_665 S
C409 C325 2.085 . S
C424 C3 0.802 1_565 S
C436 C159 0.812 . S
C463 C233 0.898 . S
C451 C38 0.882 . S
C478 C74 1.549 . S
C490 C319 1.490 . S
C517 C251 2.078 . S
C505 C86 2.066 1_655 S
C532 C2 1.507 1_665 S
C544 C295 1.375 . S
C571 C171 1.397 . S
C559 C39 1.550 . S
C598 C245 1.348 . S
C586 C75 1.477 . S
C625 C307 0.832 . S
C613 C4 0.856 . S
C640 C50 2.095 . S
C652 C177 2.160 . S
