# Generated by pormake.
# Topology nom, (4,4)-cn, num edge types: 1
# Building blocks:
#     Node 0, Type 0, BuildingBlock: NAWXER_clean_linker_0, # of connection points: 4
#     Node 1, Type 0, BuildingBlock: NAWXER_clean_linker_0, # of connection points: 4
#     Node 2, Type 0, BuildingBlock: NAWXER_clean_linker_0, # of connection points: 4
#     Node 3, Type 0, BuildingBlock: NAWXER_clean_linker_0, # of connection points: 4
#     Node 4, Type 0, BuildingBlock: NAWXER_clean_linker_0, # of connection points: 4
#     Node 5, Type 0, BuildingBlock: NAWXER_clean_linker_0, # of connection points: 4
#     Node 6, Type 1, BuildingBlock: AZAVOO_clean_sbu_0, # of connection points: 4
#     Node 7, Type 1, BuildingBlock: AZAVOO_clean_sbu_0, # of connection points: 4
#     Node 8, Type 1, BuildingBlock: AZAVOO_clean_sbu_0, # of connection points: 4
#     Node 9, Type 1, BuildingBlock: AZAVOO_clean_sbu_0, # of connection points: 4
#     Node 10, Type 1, BuildingBlock: AZAVOO_clean_sbu_0, # of connection points: 4
#     Node 11, Type 1, BuildingBlock: AZAVOO_clean_sbu_0, # of connection points: 4
#     Edge 12, Type (0, 1), BuildingBlock: XIVTED_clean_linker_0, # of connection points: 2
#     Edge 13, Type (0, 1), BuildingBlock: XIVTED_clean_linker_0, # of connection points: 2
#     Edge 14, Type (0, 1), BuildingBlock: XIVTED_clean_linker_0, # of connection points: 2
#     Edge 15, Type (0, 1), BuildingBlock: XIVTED_clean_linker_0, # of connection points: 2
#     Edge 16, Type (0, 1), BuildingBlock: XIVTED_clean_linker_0, # of connection points: 2
#     Edge 17, Type (0, 1), BuildingBlock: XIVTED_clean_linker_0, # of connection points: 2
#     Edge 18, Type (0, 1), BuildingBlock: XIVTED_clean_linker_0, # of connection points: 2
#     Edge 19, Type (0, 1), BuildingBlock: XIVTED_clean_linker_0, # of connection points: 2
#     Edge 20, Type (0, 1), BuildingBlock: XIVTED_clean_linker_0, # of connection points: 2
#     Edge 21, Type (0, 1), BuildingBlock: XIVTED_clean_linker_0, # of connection points: 2
#     Edge 22, Type (0, 1), BuildingBlock: XIVTED_clean_linker_0, # of connection points: 2
#     Edge 23, Type (0, 1), BuildingBlock: XIVTED_clean_linker_0, # of connection points: 2
#     Edge 24, Type (0, 1), BuildingBlock: XIVTED_clean_linker_0, # of connection points: 2
#     Edge 25, Type (0, 1), BuildingBlock: XIVTED_clean_linker_0, # of connection points: 2
#     Edge 26, Type (0, 1), BuildingBlock: XIVTED_clean_linker_0, # of connection points: 2
#     Edge 27, Type (0, 1), BuildingBlock: XIVTED_clean_linker_0, # of connection points: 2
#     Edge 28, Type (0, 1), BuildingBlock: XIVTED_clean_linker_0, # of connection points: 2
#     Edge 29, Type (0, 1), BuildingBlock: XIVTED_clean_linker_0, # of connection points: 2
#     Edge 30, Type (0, 1), BuildingBlock: XIVTED_clean_linker_0, # of connection points: 2
#     Edge 31, Type (0, 1), BuildingBlock: XIVTED_clean_linker_0, # of connection points: 2
#     Edge 32, Type (0, 1), BuildingBlock: XIVTED_clean_linker_0, # of connection points: 2
#     Edge 33, Type (0, 1), BuildingBlock: XIVTED_clean_linker_0, # of connection points: 2
#     Edge 34, Type (0, 1), BuildingBlock: XIVTED_clean_linker_0, # of connection points: 2
#     Edge 35, Type (0, 1), BuildingBlock: XIVTED_clean_linker_0, # of connection points: 2
# Relax obj value: 0.043
# Max RMSD: 0.157
# Mean RMSD: 0.130
data_MOF--net-nom--node1-AZAVOO_clean_sbu_0--node2-NAWXER_clean_linker_0--edge1-XIVTED_clean_linker_0
_symmetry_space_group_name_H-M    P1
_symmetry_Int_Tables_number       1
_symmetry_cell_setting            triclinic
loop_
_symmetry_equiv_pos_as_xyz
'x, y, z'
_cell_length_a     52.694868
_cell_length_b     53.133451
_cell_length_c     56.250841
_cell_angle_alpha  91.052638
_cell_angle_beta   91.287082
_cell_angle_gamma 119.99248
loop_
_atom_site_label
_atom_site_type_symbol
_atom_site_fract_x
_atom_site_fract_y
_atom_site_fract_z
_atom_type_partial_charge
C0 C 0.89744 0.47933 0.35494 0.0
C1 C 0.88397 0.45694 0.37111 0.0
C2 C 0.92443 0.4863 0.34586 0.0
C3 C 0.93849 0.47091 0.35261 0.0
C4 C 0.89809 0.44157 0.37802 0.0
C5 C 0.9254 0.44878 0.36903 0.0
C6 C 0.9677 0.47956 0.34359 0.0
C7 C 0.90504 0.43526 0.28131 0.0
C8 C 0.90766 0.45344 0.26253 0.0
C9 C 0.9262 0.4452 0.29991 0.0
C10 C 0.95043 0.47356 0.30015 0.0
C11 C 0.93179 0.48189 0.26293 0.0
C12 C 0.95306 0.49176 0.28144 0.0
C13 C 0.97373 0.48387 0.31921 0.0
C14 C 0.10616 0.53764 0.31884 0.0
C15 C 0.11142 0.55926 0.3025 0.0
C16 C 0.07804 0.5203 0.32737 0.0
C17 C 0.055 0.52495 0.3202 0.0
C18 C 0.08822 0.56334 0.29492 0.0
C19 C 0.06035 0.5464 0.30369 0.0
C20 C 0.025 0.50749 0.329 0.0
C21 C 0.08176 0.5494 0.39641 0.0
C22 C 0.08276 0.52864 0.41102 0.0
C23 C 0.06141 0.54066 0.37724 0.0
C24 C 0.04169 0.51103 0.37235 0.0
C25 C 0.06328 0.49894 0.40562 0.0
C26 C 0.04275 0.49029 0.38668 0.0
C27 C 0.01881 0.50147 0.35323 0.0
H28 H 0.88692 0.4913 0.34904 0.0
H29 H 0.93449 0.50399 0.3337 0.0
H30 H 0.88818 0.42427 0.39054 0.0
H31 H 0.93618 0.43697 0.37472 0.0
H32 H 0.88668 0.41326 0.28155 0.0
H33 H 0.92392 0.43049 0.31385 0.0
H34 H 0.93467 0.49628 0.24856 0.0
H35 H 0.97163 0.51364 0.28114 0.0
H36 H 0.12367 0.53386 0.32468 0.0
H37 H 0.07433 0.50318 0.33937 0.0
H38 H 0.09177 0.58002 0.28247 0.0
H39 H 0.04297 0.55034 0.29776 0.0
H40 H 0.09605 0.57244 0.40018 0.0
H41 H 0.06061 0.55703 0.36656 0.0
H42 H 0.06375 0.48227 0.41608 0.0
H43 H 0.02769 0.46732 0.38317 0.0
N44 N 0.99038 0.48795 0.35963 0.0
N45 N 0.00216 0.49813 0.31293 0.0
C46 C 0.43046 0.90634 0.51428 0.0
C47 C 0.44367 0.89539 0.52975 0.0
C48 C 0.44618 0.93481 0.50675 0.0
C49 C 0.4755 0.953 0.51442 0.0
C50 C 0.47292 0.91387 0.53782 0.0
C51 C 0.48863 0.94253 0.53033 0.0
C52 C 0.49201 0.98297 0.50592 0.0
C53 C 0.48337 0.92492 0.44398 0.0
C54 C 0.46515 0.92419 0.42503 0.0
C55 C 0.49206 0.94578 0.46248 0.0
C56 C 0.4826 0.96625 0.46246 0.0
C57 C 0.45566 0.94467 0.42506 0.0
C58 C 0.46451 0.96565 0.44352 0.0
C59 C 0.49264 0.98904 0.4816 0.0
C60 C 0.5639 0.11953 0.47772 0.0
C61 C 0.54579 0.12295 0.46091 0.0
C62 C 0.55431 0.09263 0.48814 0.0
C63 C 0.52618 0.06908 0.48235 0.0
C64 C 0.51772 0.09941 0.45526 0.0
C65 C 0.50804 0.0728 0.46586 0.0
C66 C 0.51576 0.03974 0.49159 0.0
C67 C 0.53547 0.09935 0.5564 0.0
C68 C 0.55483 0.09808 0.57338 0.0
C69 C 0.52301 0.0786 0.53766 0.0
C70 C 0.53015 0.05652 0.53521 0.0
C71 C 0.56139 0.07554 0.57105 0.0
C72 C 0.5492 0.05506 0.55222 0.0
C73 C 0.51691 0.03381 0.51592 0.0
H74 H 0.40777 0.89305 0.50824 0.0
H75 H 0.43533 0.94271 0.49498 0.0
H76 H 0.4838 0.9061 0.54966 0.0
H77 H 0.51118 0.95631 0.53657 0.0
H78 H 0.49096 0.90938 0.44449 0.0
H79 H 0.50658 0.94619 0.47661 0.0
H80 H 0.44197 0.94491 0.41052 0.0
H81 H 0.45718 0.98141 0.44303 0.0
H82 H 0.58576 0.13732 0.48216 0.0
H83 H 0.56906 0.09009 0.50028 0.0
H84 H 0.50323 0.10156 0.44253 0.0
H85 H 0.48633 0.05496 0.46101 0.0
H86 H 0.52994 0.1164 0.55753 0.0
H87 H 0.50762 0.07971 0.52524 0.0
H88 H 0.57553 0.0733 0.58405 0.0
H89 H 0.55466 0.03795 0.55096 0.0
N90 N 0.5047 0.00554 0.52214 0.0
N91 N 0.50393 0.01709 0.47543 0.0
C92 C 0.58267 0.49309 0.57048 0.0
C93 C 0.56078 0.47472 0.55361 0.0
C94 C 0.57539 0.50307 0.59091 0.0
C95 C 0.54605 0.49482 0.59487 0.0
C96 C 0.53139 0.46612 0.55778 0.0
C97 C 0.52414 0.47628 0.57813 0.0
C98 C 0.53837 0.50705 0.61549 0.0
C99 C 0.56308 0.44627 0.64883 0.0
C100 C 0.58745 0.45887 0.66486 0.0
C101 C 0.55163 0.46286 0.63962 0.0
C102 C 0.56441 0.4925 0.64604 0.0
C103 C 0.60065 0.48873 0.67086 0.0
C104 C 0.58908 0.50533 0.66167 0.0
C105 C 0.54984 0.50893 0.6388 0.0
C106 C 0.48343 0.54824 0.69882 0.0
C107 C 0.5061 0.56987 0.71351 0.0
C108 C 0.48981 0.53703 0.67866 0.0
C109 C 0.519 0.54749 0.67254 0.0
C110 C 0.53534 0.58031 0.70737 0.0
C111 C 0.54171 0.56904 0.68715 0.0
C112 C 0.526 0.53449 0.65205 0.0
C113 C 0.47783 0.57717 0.61954 0.0
C114 C 0.44922 0.55601 0.61167 0.0
C115 C 0.49875 0.5692 0.62543 0.0
C116 C 0.49156 0.54004 0.62319 0.0
C117 C 0.44232 0.52678 0.6096 0.0
C118 C 0.46339 0.519 0.61496 0.0
C119 C 0.51315 0.53101 0.62905 0.0
H120 H 0.60549 0.49996 0.56777 0.0
H121 H 0.59278 0.51784 0.6033 0.0
H122 H 0.5141 0.45227 0.54494 0.0
H123 H 0.50139 0.46982 0.58073 0.0
H124 H 0.5519 0.42324 0.64425 0.0
H125 H 0.53192 0.45211 0.62832 0.0
H126 H 0.61961 0.49918 0.68299 0.0
H127 H 0.59909 0.52808 0.66707 0.0
H128 H 0.46067 0.53991 0.7029 0.0
H129 H 0.4719 0.51974 0.66816 0.0
H130 H 0.55329 0.5967 0.71846 0.0
H131 H 0.56441 0.57708 0.68295 0.0
H132 H 0.48425 0.59994 0.62097 0.0
H133 H 0.52057 0.58579 0.6315 0.0
H134 H 0.42047 0.50967 0.60424 0.0
H135 H 0.45746 0.49635 0.61323 0.0
N136 N 0.52004 0.5177 0.61161 0.0
N137 N 0.54368 0.52307 0.6561 0.0
C138 C 0.90139 0.46282 0.8306 0.0
C139 C 0.88627 0.46597 0.81103 0.0
C140 C 0.92903 0.48543 0.83804 0.0
C141 C 0.94199 0.51193 0.82636 0.0
C142 C 0.89872 0.49285 0.7999 0.0
C143 C 0.92642 0.51555 0.80742 0.0
C144 C 0.9734 0.53345 0.83095 0.0
C145 C 0.93049 0.53001 0.89986 0.0
C146 C 0.94033 0.52024 0.91914 0.0
C147 C 0.94551 0.5371 0.87861 0.0
C148 C 0.97047 0.53429 0.87624 0.0
C149 C 0.96579 0.51828 0.9169 0.0
C150 C 0.98069 0.52527 0.89572 0.0
C151 C 0.98685 0.5415 0.85399 0.0
C152 C 0.11696 0.60422 0.83338 0.0
C153 C 0.12457 0.5879 0.84834 0.0
C154 C 0.08759 0.59689 0.83015 0.0
C155 C 0.0655 0.57302 0.84171 0.0
C156 C 0.10254 0.56515 0.86087 0.0
C157 C 0.07337 0.55786 0.85764 0.0
C158 C 0.03397 0.56242 0.83703 0.0
C159 C 0.07022 0.55321 0.76773 0.0
C160 C 0.0669 0.56909 0.74937 0.0
C161 C 0.05514 0.54881 0.78871 0.0
C162 C 0.03694 0.56076 0.792 0.0
C163 C 0.04792 0.58025 0.75247 0.0
C164 C 0.03299 0.57601 0.77357 0.0
C165 C 0.02058 0.55594 0.81399 0.0
H166 H 0.89225 0.44251 0.83974 0.0
H167 H 0.94086 0.4815 0.85212 0.0
H168 H 0.88775 0.49588 0.78464 0.0
H169 H 0.93619 0.53558 0.79783 0.0
H170 H 0.91086 0.53162 0.901 0.0
H171 H 0.93761 0.54477 0.8641 0.0
H172 H 0.97423 0.51132 0.93155 0.0
H173 H 7e-05 0.5232 0.89447 0.0
H174 H 0.13353 0.62192 0.82355 0.0
H175 H 0.08209 0.60933 0.81819 0.0
H176 H 0.10782 0.5526 0.87291 0.0
H177 H 0.05678 0.53957 0.86697 0.0
H178 H 0.08483 0.54451 0.76606 0.0
H179 H 0.05775 0.53612 0.80239 0.0
H180 H 0.04442 0.5921 0.73853 0.0
H181 H 0.0185 0.58482 0.77557 0.0
N182 N 0.99085 0.54164 0.81189 0.0
N183 N 0.01655 0.55526 0.85603 0.0
C184 C 0.46402 0.9079 0.99878 0.0
C185 C 0.44538 0.89315 0.97892 0.0
C186 C 0.46999 0.93576 0.00565 0.0
C187 C 0.45694 0.94932 0.99317 0.0
C188 C 0.43169 0.9064 0.96683 0.0
C189 C 0.43752 0.93425 0.97384 0.0
C190 C 0.46704 0.98054 0.99784 0.0
C191 C 0.42733 0.93778 0.06593 0.0
C192 C 0.44711 0.94679 0.08568 0.0
C193 C 0.43554 0.95286 0.0448 0.0
C194 C 0.46376 0.97703 0.043 0.0
C195 C 0.47501 0.97145 0.084 0.0
C196 C 0.4832 0.98642 0.06292 0.0
C197 C 0.47304 0.99355 0.02095 0.0
C198 C 0.53906 0.12326 0.00519 0.0
C199 C 0.56315 0.12984 0.02062 0.0
C200 C 0.51779 0.09423 -0.00027 0.0
C201 C 0.52044 0.07153 0.00964 0.0
C202 C 0.56517 0.107 0.03088 0.0
C203 C 0.54406 0.07825 0.02549 0.0
C204 C 0.49899 0.04052 0.00444 0.0
C205 C 0.53843 0.07808 0.93421 0.0
C206 C 0.51735 0.07416 0.91651 0.0
C207 C 0.52993 0.06313 0.95536 0.0
C208 C 0.50014 0.04438 0.9594 0.0
C209 C 0.48757 0.0549 0.92045 0.0
C210 C 0.47909 0.04005 0.94166 0.0
C211 C 0.49078 0.02768 0.9813 0.0
H212 H 0.47471 0.89826 0.00865 0.0
H213 H 0.48595 0.94715 0.02004 0.0
H214 H 0.41755 0.89588 0.95125 0.0
H215 H 0.42762 0.94442 0.96364 0.0
H216 H 0.40572 0.91875 0.06664 0.0
H217 H 0.41984 0.94564 0.02991 0.0
H218 H 0.49056 0.97922 0.09902 0.0
H219 H 0.50498 0.00522 0.0621 0.0
H220 H 0.53696 0.14047 0.99706 0.0
H221 H 0.4994 0.08955 0.98782 0.0
H222 H 0.58309 0.11134 0.04322 0.0
H223 H 0.54645 0.06113 0.03354 0.0
H224 H 0.56153 0.09292 0.93186 0.0
H225 H 0.54665 0.06611 0.96848 0.0
H226 H 0.47083 0.05102 0.90703 0.0
H227 H 0.45602 0.0252 0.94425 0.0
N228 N 0.47538 -0.00182 0.97892 0.0
N229 N 0.48928 0.02293 0.02325 0.0
C230 C 0.44949 0.57742 0.15029 0.0
C231 C 0.43015 0.56883 0.16916 0.0
C232 C 0.45436 0.55723 0.13808 0.0
C233 C 0.43968 0.52793 0.14428 0.0
C234 C 0.41453 0.53932 0.17472 0.0
C235 C 0.41943 0.51908 0.16248 0.0
C236 C 0.44933 0.50798 0.13501 0.0
C237 C 0.41078 0.52685 0.07017 0.0
C238 C 0.43124 0.54272 0.05296 0.0
C239 C 0.41867 0.51542 0.08932 0.0
C240 C 0.44712 0.51952 0.09151 0.0
C241 C 0.45977 0.54706 0.05538 0.0
C242 C 0.46754 0.53536 0.07434 0.0
C243 C 0.45544 0.50625 0.11091 0.0
C244 C 0.51014 0.42872 0.11545 0.0
C245 C 0.53403 0.44512 0.10106 0.0
C246 C 0.49106 0.43882 0.12137 0.0
C247 C 0.49615 0.46592 0.11361 0.0
C248 C 0.5381 0.47141 0.09227 0.0
C249 C 0.51936 0.48169 0.09849 0.0
C250 C 0.47835 0.47878 0.12157 0.0
C251 C 0.52095 0.46815 0.18811 0.0
C252 C 0.50095 0.44979 0.20468 0.0
C253 C 0.5114 0.47778 0.16881 0.0
C254 C 0.48155 0.46874 0.16536 0.0
C255 C 0.47111 0.44113 0.20135 0.0
C256 C 0.46155 0.45064 0.18192 0.0
C257 C 0.47136 0.47976 0.14557 0.0
H258 H 0.46157 0.59997 0.14541 0.0
H259 H 0.47085 0.56495 0.12473 0.0
H260 H 0.39963 0.53211 0.18927 0.0
H261 H 0.40826 0.49669 0.16785 0.0
H262 H 0.38865 0.52321 0.06877 0.0
H263 H 0.40237 0.50286 0.10211 0.0
H264 H 0.47589 0.55884 0.04223 0.0
H265 H 0.48956 0.53867 0.07559 0.0
H266 H 0.50627 0.40814 0.12212 0.0
H267 H 0.47272 0.42572 0.13238 0.0
H268 H 0.55641 0.48455 0.08123 0.0
H269 H 0.52365 0.50254 0.09213 0.0
H270 H 0.54404 0.47503 0.18997 0.0
H271 H 0.52739 0.49247 0.15667 0.0
H272 H 0.45521 0.42744 0.21398 0.0
H273 H 0.4385 0.44389 0.17983 0.0
N274 N 0.45716 0.49431 0.15129 0.0
N275 N 0.46998 0.49198 0.1052 0.0
Mg276 Mg 0.6097 0.36562 0.36263 0.0
O277 O 0.6024 0.39035 0.39318 0.0
O278 O 0.62346 0.43699 0.38347 0.0
Mg279 Mg 0.64278 0.44185 0.34685 0.0
C280 C 0.60933 0.41669 0.39787 0.0
C281 C 0.59729 0.30541 0.37569 0.0
O282 O 0.60277 0.30661 0.35293 0.0
O283 O 0.65744 0.38554 0.37454 0.0
O284 O 0.67679 0.4314 0.36311 0.0
O285 O 0.56814 0.35696 0.34387 0.0
O286 O 0.61147 0.39559 0.33867 0.0
C287 C 0.67931 0.41102 0.37254 0.0
C288 C 0.58367 0.38162 0.33388 0.0
O289 O 0.59774 0.32711 0.38596 0.0
Mg290 Mg 0.25694 0.63946 0.5987 0.0
O291 O 0.22779 0.61341 0.56579 0.0
O292 O 0.20151 0.56742 0.57704 0.0
Mg293 Mg 0.21333 0.56383 0.61557 0.0
C294 C 0.20844 0.58675 0.56143 0.0
C295 C 0.31007 0.69603 0.58812 0.0
O296 O 0.31488 0.68958 0.60958 0.0
O297 O 0.28674 0.62077 0.59334 0.0
O298 O 0.25994 0.57511 0.60516 0.0
O299 O 0.22206 0.64774 0.61145 0.0
O300 O 0.22636 0.60989 0.62118 0.0
C301 C 0.28368 0.59591 0.59745 0.0
C302 C 0.21194 0.62354 0.62245 0.0
O303 O 0.28626 0.67841 0.57692 0.0
Mg304 Mg 0.62431 0.26185 0.76531 0.0
O305 O 0.62077 0.23514 0.73162 0.0
O306 O 0.64253 0.20933 0.74005 0.0
Mg307 Mg 0.65706 0.21726 0.77949 0.0
C308 C 0.62903 0.21717 0.7255 0.0
C309 C 0.62476 0.31753 0.75237 0.0
O310 O 0.63833 0.3242 0.77338 0.0
O311 O 0.67309 0.29172 0.76136 0.0
O312 O 0.69233 0.26473 0.77317 0.0
O313 O 0.58118 0.22626 0.77695 0.0
O314 O 0.62393 0.23012 0.78643 0.0
C315 C 0.69517 0.28882 0.7664 0.0
C316 C 0.5958 0.21573 0.78749 0.0
O317 O 0.61503 0.29204 0.74351 0.0
Mg318 Mg 0.39863 0.66063 0.86188 0.0
O319 O 0.39898 0.63492 0.89428 0.0
O320 O 0.378 0.58823 0.88215 0.0
Mg321 Mg 0.36703 0.58449 0.8422 0.0
C322 C 0.38997 0.60823 0.89842 0.0
C323 C 0.4278 0.71444 0.89923 0.0
O324 O 0.44976 0.70933 0.89991 0.0
O325 O 0.34943 0.64155 0.86372 0.0
O326 O 0.33127 0.59612 0.84928 0.0
O327 O 0.44299 0.66876 0.85155 0.0
O328 O 0.40096 0.63054 0.8395 0.0
C329 C 0.32778 0.61682 0.85726 0.0
C330 C 0.42916 0.6441 0.83976 0.0
O331 O 0.40539 0.69857 0.88586 0.0
Mg332 Mg 0.75023 0.40093 0.0657 0.0
O333 O 0.77381 0.40338 0.10159 0.0
O334 O 0.80262 0.38467 0.0937 0.0
Mg335 Mg 0.80059 0.37407 0.05391 0.0
C336 C 0.79223 0.39565 0.10825 0.0
C337 C 0.69634 0.40487 0.06707 0.0
O338 O 0.7004 0.40025 0.04481 0.0
O339 O 0.72192 0.35176 0.06682 0.0
O340 O 0.75301 0.33688 0.05618 0.0
O341 O 0.78526 0.44567 0.0568 0.0
O342 O 0.78583 0.40543 0.04755 0.0
C343 C 0.72733 0.33155 0.06131 0.0
C344 C 0.79854 0.43332 0.04715 0.0
O345 O 0.71479 0.40668 0.08294 0.0
Mg346 Mg 0.3651 0.75675 0.23467 0.0
O347 O 0.38824 0.78285 0.26912 0.0
O348 O 0.43587 0.80962 0.26167 0.0
Mg349 Mg 0.44266 0.80269 0.22264 0.0
C350 C 0.41466 0.80118 0.27575 0.0
C351 C 0.30576 0.7047 0.24121 0.0
O352 O 0.31082 0.70373 0.21853 0.0
O353 O 0.3843 0.72727 0.23931 0.0
O354 O 0.43058 0.75535 0.22875 0.0
O355 O 0.357 0.79202 0.22273 0.0
O356 O 0.39639 0.78923 0.21469 0.0
C357 C 0.40953 0.7309 0.23495 0.0
C358 C 0.38232 0.80318 0.21309 0.0
O359 O 0.32492 0.72554 0.25437 0.0
H360 H 0.12607 0.57174 0.25636 0.0
H361 H 0.2906 0.69577 0.28795 0.0
H362 H 0.16363 0.58921 0.32781 0.0
H363 H 0.25805 0.6618 0.21659 0.0
H364 H 0.24406 0.65818 0.30323 0.0
H365 H 0.17422 0.60581 0.24159 0.0
C366 C 0.14457 0.58271 0.2689 0.0
C367 C 0.14096 0.57784 0.29331 0.0
C368 C 0.24723 0.6589 0.28425 0.0
C369 C 0.19604 0.61696 0.27663 0.0
C370 C 0.2737 0.68041 0.27551 0.0
C371 C 0.27814 0.68199 0.25095 0.0
C372 C 0.225 0.63909 0.26827 0.0
C373 C 0.25558 0.66145 0.23565 0.0
C374 C 0.17204 0.60206 0.26049 0.0
C375 C 0.16562 0.59233 0.30883 0.0
N376 N 0.22994 0.64098 0.24455 0.0
N377 N 0.19214 0.61151 0.30025 0.0
H378 H 0.54371 0.12987 0.4133 0.0
H379 H 0.59288 0.29815 0.42395 0.0
H380 H 0.5711 0.17842 0.48025 0.0
H381 H 0.58782 0.25328 0.35769 0.0
H382 H 0.58259 0.25436 0.44523 0.0
H383 H 0.55763 0.17479 0.39282 0.0
C384 C 0.55274 0.15009 0.42366 0.0
C385 C 0.55613 0.15051 0.44848 0.0
C386 C 0.58386 0.25421 0.42605 0.0
C387 C 0.57202 0.20203 0.4252 0.0
C388 C 0.58958 0.27911 0.41388 0.0
C389 C 0.5911 0.27932 0.38899 0.0
C390 C 0.57933 0.22931 0.41318 0.0
C391 C 0.58682 0.25411 0.37686 0.0
C392 C 0.56078 0.17574 0.41197 0.0
C393 C 0.56825 0.17729 0.46106 0.0
N394 N 0.58099 0.23011 0.38906 0.0
N395 N 0.57553 0.20203 0.44929 0.0
H396 H 0.40363 0.53088 0.5781 0.0
H397 H 0.34153 0.63722 0.60251 0.0
H398 H 0.44239 0.59963 0.63244 0.0
H399 H 0.28399 0.54535 0.58802 0.0
H400 H 0.38354 0.62925 0.60339 0.0
H401 H 0.36399 0.54153 0.57201 0.0
C402 C 0.40394 0.54816 0.58882 0.0
C403 C 0.42638 0.56402 0.60616 0.0
C404 C 0.3617 0.61097 0.59978 0.0
C405 C 0.38156 0.57696 0.59838 0.0
C406 C 0.33779 0.61546 0.59912 0.0
C407 C 0.30926 0.59184 0.5953 0.0
C408 C 0.35707 0.5828 0.59604 0.0
C409 C 0.30563 0.56408 0.59119 0.0
C410 C 0.38137 0.55432 0.58513 0.0
C411 C 0.42591 0.58691 0.61874 0.0
N412 N 0.32931 0.56031 0.5916 0.0
N413 N 0.40385 0.59269 0.61459 0.0
H414 H 0.83601 0.46455 0.79448 0.0
H415 H 0.7481 0.29172 0.77427 0.0
H416 H 0.87384 0.40974 0.80512 0.0
H417 H 0.70979 0.34574 0.76121 0.0
H418 H 0.79555 0.33538 0.78204 0.0
H419 H 0.79063 0.42197 0.77921 0.0
C420 C 0.83482 0.44361 0.7935 0.0
C421 C 0.85862 0.44064 0.8014 0.0
C422 C 0.77683 0.33772 0.77725 0.0
C423 C 0.80684 0.39188 0.78399 0.0
C424 C 0.7497 0.31275 0.77273 0.0
C425 C 0.72478 0.31498 0.76733 0.0
C426 C 0.77912 0.36519 0.77654 0.0
C427 C 0.72833 0.3429 0.76544 0.0
C428 C 0.80891 0.41931 0.78482 0.0
C429 C 0.85583 0.41296 0.79978 0.0
N430 N 0.75491 0.36691 0.77031 0.0
N431 N 0.83041 0.38969 0.79137 0.0
H432 H 0.48761 0.87751 0.97656 0.0
H433 H 0.38465 0.72829 0.904 0.0
H434 H 0.3958 0.8451 0.96003 0.0
H435 H 0.47421 0.75679 0.92617 0.0
H436 H 0.38796 0.77021 0.92539 0.0
H437 H 0.48264 0.83272 0.95951 0.0
C438 C 0.46627 0.86082 0.96966 0.0
C439 C 0.44205 0.86516 0.96979 0.0
C440 C 0.40686 0.76726 0.92569 0.0
C441 C 0.43641 0.81389 0.94971 0.0
C442 C 0.40502 0.74332 0.91343 0.0
C443 C 0.42928 0.73909 0.91315 0.0
C444 C 0.4332 0.78729 0.93769 0.0
C445 C 0.455 0.75922 0.92583 0.0
C446 C 0.46352 0.83529 0.95975 0.0
C447 C 0.41515 0.84292 0.96006 0.0
N448 N 0.45634 0.78254 0.93747 0.0
N449 N 0.41309 0.81832 0.95033 0.0
H450 H 0.55586 0.44306 0.058 0.0
H451 H 0.67772 0.41024 0.11128 0.0
H452 H 0.56104 0.42606 0.13212 0.0
H453 H 0.65746 0.40777 0.03617 0.0
H454 H 0.6362 0.41733 0.11984 0.0
H455 H 0.5942 0.43132 0.05001 0.0
C456 C 0.56503 0.4367 0.07257 0.0
C457 C 0.55538 0.43558 0.09574 0.0
C458 C 0.64082 0.41507 0.10151 0.0
C459 C 0.5994 0.42229 0.08682 0.0
C460 C 0.66455 0.41113 0.09662 0.0
C461 C 0.67114 0.40852 0.07298 0.0
C462 C 0.62383 0.41667 0.08261 0.0
C463 C 0.65327 0.40972 0.05467 0.0
C464 C 0.58684 0.42993 0.06801 0.0
C465 C 0.56777 0.42698 0.11396 0.0
N466 N 0.63059 0.41387 0.05987 0.0
N467 N 0.58938 0.42091 0.10916 0.0
H468 H 0.44415 0.87482 0.5741 0.0
H469 H 0.3086 0.71611 0.54374 0.0
H470 H 0.40404 0.84663 0.50366 0.0
H471 H 0.36003 0.73985 0.60966 0.0
H472 H 0.34307 0.76382 0.52861 0.0
H473 H 0.4136 0.82534 0.58737 0.0
C474 C 0.42918 0.85819 0.56134 0.0
C475 C 0.42657 0.86502 0.53775 0.0
C476 C 0.34689 0.75848 0.54633 0.0
C477 C 0.39108 0.80835 0.55297 0.0
C478 C 0.32719 0.73128 0.55498 0.0
C479 C 0.33135 0.72404 0.57804 0.0
C480 C 0.37075 0.77863 0.56092 0.0
C481 C 0.35588 0.74451 0.5918 0.0
C482 C 0.4116 0.82995 0.56897 0.0
C483 C 0.40641 0.84256 0.52213 0.0
N484 N 0.37452 0.77091 0.58309 0.0
N485 N 0.38932 0.8153 0.53006 0.0
H486 H 0.59133 0.41322 0.64518 0.0
H487 H 0.63823 0.37192 0.76815 0.0
H488 H 0.60583 0.4618 0.71136 0.0
H489 H 0.60407 0.3135 0.70649 0.0
H490 H 0.63253 0.4081 0.74616 0.0
H491 H 0.60232 0.37962 0.66596 0.0
C492 C 0.59693 0.41692 0.66405 0.0
C493 C 0.5974 0.44029 0.67655 0.0
C494 C 0.62631 0.38737 0.73744 0.0
C495 C 0.61025 0.40201 0.70039 0.0
C496 C 0.62955 0.36669 0.74997 0.0
C497 C 0.62144 0.33956 0.73918 0.0
C498 C 0.61507 0.38099 0.71387 0.0
C499 C 0.61041 0.33405 0.71556 0.0
C500 C 0.60325 0.39774 0.67588 0.0
C501 C 0.60544 0.44431 0.7009 0.0
N502 N 0.60755 0.3546 0.70369 0.0
N503 N 0.6114 0.42527 0.71203 0.0
H504 H 0.17611 0.64021 0.85338 0.0
H505 H 0.27591 0.56592 0.84978 0.0
H506 H 0.14212 0.54765 0.84699 0.0
H507 H 0.31108 0.6575 0.86564 0.0
H508 H 0.22675 0.55933 0.84806 0.0
H509 H 0.22598 0.64769 0.85669 0.0
C510 C 0.17917 0.62151 0.85262 0.0
C511 C 0.15498 0.59327 0.85009 0.0
C512 C 0.24519 0.58087 0.85202 0.0
C513 C 0.21168 0.60158 0.85391 0.0
C514 C 0.27332 0.58465 0.85301 0.0
C515 C 0.29773 0.61233 0.8578 0.0
C516 C 0.24132 0.60494 0.85569 0.0
C517 C 0.29292 0.63576 0.86191 0.0
C518 C 0.20756 0.62576 0.85465 0.0
C519 C 0.16011 0.56977 0.84932 0.0
N520 N 0.26526 0.63156 0.86063 0.0
N521 N 0.18785 0.57447 0.85119 0.0
H522 H 0.55749 0.1775 0.03143 0.0
H523 H 0.73052 0.2823 0.05362 0.0
H524 H 0.62217 0.15127 0.02233 0.0
H525 H 0.66808 0.31172 0.06172 0.0
H526 H 0.69027 0.23355 0.04392 0.0
H527 H 0.59702 0.22669 0.04308 0.0
C528 C 0.57999 0.18216 0.0317 0.0
C529 C 0.58656 0.16024 0.02609 0.0
C530 C 0.68528 0.25059 0.04792 0.0
C531 C 0.63169 0.21611 0.03963 0.0
C532 C 0.70832 0.27849 0.05357 0.0
C533 C 0.70275 0.30125 0.05838 0.0
C534 C 0.65635 0.24528 0.04695 0.0
C535 C 0.67343 0.29485 0.05813 0.0
C536 C 0.60249 0.21012 0.03852 0.0
C537 C 0.61606 0.16736 0.0269 0.0
N538 N 0.65131 0.26747 0.05233 0.0
N539 N 0.63745 0.1946 0.03359 0.0
H540 H 0.47452 0.62143 0.18593 0.0
H541 H 0.36725 0.67329 0.23649 0.0
H542 H 0.38048 0.56643 0.18611 0.0
H543 H 0.46038 0.7297 0.22931 0.0
H544 H 0.37267 0.63165 0.22525 0.0
H545 H 0.47043 0.65901 0.20807 0.0
C546 C 0.45297 0.61731 0.19059 0.0
C547 C 0.42774 0.591 0.18376 0.0
C548 C 0.39197 0.6531 0.22648 0.0
C549 C 0.42291 0.63386 0.20942 0.0
C550 C 0.38894 0.67691 0.23304 0.0
C551 C 0.41334 0.70516 0.23342 0.0
C552 C 0.41956 0.65759 0.2203 0.0
C553 C 0.44088 0.70841 0.22888 0.0
C554 C 0.45067 0.63869 0.20341 0.0
C555 C 0.40047 0.58647 0.19092 0.0
N556 N 0.44317 0.68497 0.22222 0.0
N557 N 0.39873 0.60784 0.20316 0.0
H558 H 0.8661 0.49397 0.38758 0.0
H559 H 0.69697 0.37152 0.38217 0.0
H560 H 0.83553 0.40285 0.37429 0.0
H561 H 0.72913 0.46377 0.37965 0.0
H562 H 0.74736 0.38184 0.38907 0.0
H563 H 0.81591 0.48214 0.39488 0.0
C564 C 0.84881 0.47141 0.38648 0.0
C565 C 0.85481 0.44939 0.37985 0.0
C566 C 0.74328 0.39979 0.38731 0.0
C567 C 0.79736 0.4357 0.3881 0.0
C568 C 0.71454 0.39394 0.38342 0.0
C569 C 0.7089 0.41682 0.37991 0.0
C570 C 0.76643 0.42869 0.38785 0.0
C571 C 0.7325 0.44544 0.38184 0.0
C572 C 0.82019 0.46467 0.39067 0.0
C573 C 0.83177 0.42047 0.37923 0.0
N574 N 0.76023 0.45054 0.38548 0.0
N575 N 0.8039 0.41446 0.38293 0.0
H576 H 0.13924 0.57526 0.41676 0.0
H577 H 0.16217 0.53353 0.548 0.0
H578 H 0.07266 0.50308 0.45435 0.0
H579 H 0.21707 0.61951 0.52165 0.0
H580 H 0.13319 0.51958 0.51092 0.0
H581 H 0.17141 0.58978 0.45259 0.0
C582 C 0.13129 0.56248 0.43247 0.0
C583 C 0.1031 0.53775 0.43236 0.0
C584 C 0.1516 0.5415 0.51319 0.0
C585 C 0.14009 0.55402 0.47322 0.0
C586 C 0.16831 0.54951 0.53438 0.0
C587 C 0.19209 0.57787 0.53812 0.0
C588 C 0.15867 0.56184 0.49536 0.0
C589 C 0.19886 0.59747 0.51964 0.0
C590 C 0.14976 0.57074 0.45286 0.0
C591 C 0.09433 0.52188 0.45324 0.0
N592 N 0.18219 0.5891 0.49903 0.0
N593 N 0.11273 0.53023 0.4727 0.0
H594 H 0.52878 0.12323 0.599 0.0
H595 H 0.6523 0.18816 0.70206 0.0
H596 H 0.60982 0.1218 0.59479 0.0
H597 H 0.58749 0.21471 0.69377 0.0
H598 H 0.63611 0.16229 0.66344 0.0
H599 H 0.54897 0.15569 0.63415 0.0
C600 C 0.55093 0.12997 0.60521 0.0
C601 C 0.56747 0.11944 0.59389 0.0
C602 C 0.62562 0.174 0.66998 0.0
C603 C 0.59045 0.15619 0.63456 0.0
C604 C 0.63479 0.18871 0.69206 0.0
C605 C 0.62116 0.20354 0.70125 0.0
C606 C 0.6023 0.17367 0.6571 0.0
C607 C 0.59867 0.20361 0.68739 0.0
C608 C 0.56239 0.14842 0.6254 0.0
C609 C 0.59591 0.1287 0.60316 0.0
N610 N 0.58971 0.18862 0.66614 0.0
N611 N 0.60636 0.14628 0.62304 0.0
H612 H 0.53169 0.62634 0.73097 0.0
H613 H 0.41058 0.58737 0.82768 0.0
H614 H 0.46456 0.53891 0.74577 0.0
H615 H 0.48316 0.67424 0.8204 0.0
H616 H 0.43272 0.56912 0.79989 0.0
H617 H 0.51709 0.64431 0.76547 0.0
C618 C 0.51411 0.61089 0.74162 0.0
C619 C 0.49904 0.5811 0.73526 0.0
C620 C 0.44404 0.59216 0.80448 0.0
C621 C 0.48212 0.60153 0.7746 0.0
C622 C 0.4313 0.60262 0.82034 0.0
C623 C 0.44478 0.63242 0.82606 0.0
C624 C 0.47035 0.61169 0.79394 0.0
C625 C 0.472 0.65108 0.81638 0.0
C626 C 0.50575 0.62118 0.76126 0.0
C627 C 0.47634 0.56212 0.74963 0.0
N628 N 0.48371 0.64047 0.80047 0.0
N629 N 0.46845 0.57267 0.76847 0.0
H630 H 0.9139 0.54611 0.94307 0.0
H631 H 0.83561 0.41522 0.03121 0.0
H632 H 0.92849 0.47313 0.94546 0.0
H633 H 0.82265 0.48925 0.03242 0.0
H634 H 0.87439 0.43948 0.00322 0.0
H635 H 0.88417 0.5285 0.97829 0.0
C636 C 0.91092 0.52644 0.95103 0.0
C637 C 0.92358 0.51099 0.94122 0.0
C638 C 0.86336 0.45065 0.00979 0.0
C639 C 0.88987 0.4909 0.98159 0.0
C640 C 0.8412 0.43678 0.02588 0.0
C641 C 0.82559 0.45005 0.03396 0.0
C642 C 0.86975 0.47787 0.00143 0.0
C643 C 0.83405 0.47817 0.02654 0.0
C644 C 0.89414 0.51653 0.97123 0.0
C645 C 0.9194 0.48592 0.9525 0.0
N646 N 0.85528 0.49099 0.01037 0.0
N647 N 0.90276 0.47657 0.97194 0.0
H648 H 0.48158 0.93291 0.11295 0.0
H649 H 0.35397 0.83221 0.19924 0.0
H650 H 0.39477 0.92213 0.10838 0.0
H651 H 0.43669 0.83433 0.19483 0.0
H652 H 0.37113 0.87154 0.171 0.0
H653 H 0.46789 0.90318 0.14791 0.0
C654 C 0.45971 0.92458 0.11948 0.0
C655 C 0.43923 0.92991 0.10765 0.0
C656 C 0.38561 0.86359 0.17649 0.0
C657 C 0.42324 0.89538 0.14754 0.0
C658 C 0.37591 0.84126 0.19269 0.0
C659 C 0.39383 0.82977 0.19924 0.0
C660 C 0.41345 0.87448 0.16695 0.0
C661 C 0.42202 0.8423 0.19021 0.0
C662 C 0.45185 0.90744 0.13938 0.0
C663 C 0.41108 0.91816 0.11674 0.0
N664 N 0.43085 0.8638 0.1744 0.0
N665 N 0.40384 0.90129 0.1361 0.0
H666 H 0.47414 0.39614 0.22478 0.0
H667 H 0.61037 0.43388 0.31215 0.0
H668 H 0.55137 0.48129 0.2321 0.0
H669 H 0.52653 0.35552 0.3171 0.0
H670 H 0.58897 0.45123 0.28256 0.0
H671 H 0.49259 0.38041 0.25828 0.0
C672 C 0.49484 0.41161 0.23353 0.0
C673 C 0.51132 0.44005 0.22545 0.0
C674 C 0.57513 0.43035 0.29026 0.0
C675 C 0.53271 0.42203 0.26358 0.0
C676 C 0.58735 0.42042 0.30726 0.0
C677 C 0.57022 0.39322 0.31724 0.0
C678 C 0.5456 0.41281 0.28286 0.0
C679 C 0.54055 0.37666 0.30991 0.0
C680 C 0.5054 0.40257 0.2526 0.0
C681 C 0.53818 0.459 0.23733 0.0
N682 N 0.52921 0.38662 0.293 0.0
N683 N 0.54808 0.4496 0.25568 0.0
H684 H 0.50056 0.90864 0.40184 0.0
H685 H 0.37543 0.80025 0.30758 0.0
H686 H 0.41139 0.8914 0.40218 0.0
H687 H 0.46798 0.83359 0.29902 0.0
H688 H 0.38686 0.8274 0.34566 0.0
H689 H 0.48748 0.87513 0.36748 0.0
C690 C 0.47814 0.89756 0.39483 0.0
C691 C 0.45705 0.90289 0.40483 0.0
C692 C 0.40462 0.82858 0.33549 0.0
C693 C 0.44197 0.86466 0.36538 0.0
C694 C 0.39811 0.81298 0.31381 0.0
C695 C 0.4208 0.81483 0.29996 0.0
C696 C 0.43397 0.84596 0.34346 0.0
C697 C 0.44978 0.83172 0.30896 0.0
C698 C 0.47073 0.87857 0.37513 0.0
C699 C 0.42841 0.88819 0.39482 0.0
N700 N 0.45553 0.84669 0.33007 0.0
N701 N 0.42171 0.86976 0.37561 0.0
H702 H 0.6051 0.50857 0.52451 0.0
H703 H 0.57288 0.3798 0.43114 0.0
H704 H 0.53429 0.42062 0.53153 0.0
H705 H 0.62811 0.47093 0.41741 0.0
H706 H 0.56122 0.39334 0.46951 0.0
H707 H 0.61705 0.49403 0.48688 0.0
C708 C 0.59223 0.48612 0.51821 0.0
C709 C 0.5687 0.46575 0.53116 0.0
C710 C 0.57583 0.41032 0.45804 0.0
C711 C 0.58207 0.44899 0.48798 0.0
C712 C 0.58254 0.40263 0.43615 0.0
C713 C 0.60148 0.42425 0.42097 0.0
C714 C 0.58839 0.43982 0.46488 0.0
C715 C 0.61332 0.45348 0.42843 0.0
C716 C 0.59891 0.47788 0.49664 0.0
C717 C 0.55246 0.43704 0.52198 0.0
N718 N 0.60666 0.46037 0.44986 0.0
N719 N 0.55949 0.42948 0.50095 0.0
H720 H 0.07938 0.53173 0.72469 0.0
H721 H 0.18024 0.65024 0.63217 0.0
H722 H 0.09286 0.61884 0.72383 0.0
H723 H 0.1841 0.57256 0.64609 0.0
H724 H 0.14074 0.6349 0.66019 0.0
H725 H 0.11072 0.54264 0.69061 0.0
C726 C 0.08889 0.55314 0.71735 0.0
C727 C 0.08375 0.57452 0.72739 0.0
C728 C 0.15006 0.62109 0.6569 0.0
C729 C 0.11926 0.58695 0.68811 0.0
C730 C 0.17252 0.62976 0.64085 0.0
C731 C 0.18566 0.61276 0.63691 0.0
C732 C 0.14058 0.59517 0.66899 0.0
C733 C 0.17473 0.58642 0.64862 0.0
C734 C 0.10663 0.55928 0.6978 0.0
C735 C 0.09603 0.60162 0.71666 0.0
N736 N 0.15295 0.57852 0.66425 0.0
N737 N 0.11337 0.60711 0.6977 0.0
H738 H 0.56488 0.08601 0.88998 0.0
H739 H 0.53813 0.18546 0.79932 0.0
H740 H 0.4905 0.09925 0.89201 0.0
H741 H 0.62016 0.18642 0.80861 0.0
H742 H 0.51631 0.14655 0.82784 0.0
H743 H 0.58153 0.11595 0.85505 0.0
C744 C 0.55203 0.0952 0.88309 0.0
C745 C 0.52646 0.09042 0.89418 0.0
C746 C 0.53899 0.15508 0.82338 0.0
C747 C 0.5452 0.1244 0.85395 0.0
C748 C 0.55142 0.17718 0.80703 0.0
C749 C 0.5811 0.1894 0.80172 0.0
C750 C 0.55635 0.14509 0.83437 0.0
C751 C 0.59727 0.17783 0.81224 0.0
C752 C 0.56145 0.11214 0.86305 0.0
C753 C 0.51028 0.10225 0.88402 0.0
N754 N 0.58475 0.15648 0.82818 0.0
N755 N 0.52004 0.11888 0.86459 0.0
H756 H 0.38165 0.5136 0.02441 0.0
H757 H 0.42608 0.64379 0.93519 0.0
H758 H 0.46141 0.59639 0.03348 0.0
H759 H 0.36329 0.55402 0.91691 0.0
H760 H 0.43437 0.62901 0.97429 0.0
H761 H 0.36954 0.53057 0.98804 0.0
C762 C 0.39643 0.53549 0.0189 0.0
C763 C 0.42263 0.55358 0.03191 0.0
C764 C 0.4187 0.61261 0.96172 0.0
C765 C 0.40901 0.57307 0.99027 0.0
C766 C 0.41387 0.62103 0.93944 0.0
C767 C 0.39411 0.60008 0.92266 0.0
C768 C 0.40338 0.58312 0.96736 0.0
C769 C 0.37893 0.57089 0.92917 0.0
C770 C 0.38962 0.54508 0.99806 0.0
C771 C 0.44115 0.58163 0.0238 0.0
N772 N 0.38389 0.5633 0.95098 0.0
N773 N 0.434 0.59052 0.00348 0.0
H774 H 0.88448 0.40079 0.23871 0.0
H775 H 0.7932 0.43485 0.14145 0.0
H776 H 0.88221 0.48086 0.23941 0.0
H777 H 0.81773 0.36913 0.13191 0.0
H778 H 0.81771 0.44709 0.18105 0.0
H779 H 0.85191 0.3841 0.20326 0.0
C780 C 0.87683 0.41472 0.23158 0.0
C781 C 0.88622 0.44234 0.24198 0.0
C782 C 0.81746 0.42983 0.17032 0.0
C783 C 0.84904 0.42341 0.20123 0.0
C784 C 0.80334 0.42272 0.1478 0.0
C785 C 0.80363 0.4011 0.13326 0.0
C786 C 0.83162 0.41496 0.17842 0.0
C787 C 0.81722 0.38616 0.14238 0.0
C788 C 0.85838 0.40525 0.21125 0.0
C789 C 0.87582 0.45958 0.23177 0.0
N790 N 0.8307 0.39342 0.1643 0.0
N791 N 0.85785 0.44987 0.21193 0.0
loop_
_geom_bond_atom_site_label_1
_geom_bond_atom_site_label_2
_geom_bond_distance
_geom_bond_site_symmetry_2
_ccdc_geom_bond_type
C0 C1 1.384 . S
C0 C2 1.384 . S
C0 H28 0.931 . S
C1 C0 1.384 . S
C1 C4 1.382 . S
C2 C0 1.384 . S
C2 C3 1.381 . S
C2 H29 0.930 . S
C3 C2 1.381 . S
C3 C5 1.381 . S
C3 C6 1.487 . S
C4 C1 1.382 . S
C4 C5 1.387 . S
C4 H30 0.930 . S
C5 C3 1.381 . S
C5 C4 1.387 . S
C5 H31 0.931 . S
C6 C3 1.487 . S
C6 C13 1.399 . S
C6 N44 1.343 . S
C7 C8 1.384 . S
C7 C9 1.384 . S
C7 H32 0.931 . S
C8 C7 1.384 . S
C8 C11 1.382 . S
C9 C7 1.384 . S
C9 C10 1.381 . S
C9 H33 0.930 . S
C10 C9 1.381 . S
C10 C12 1.381 . S
C10 C13 1.487 . S
C11 C8 1.382 . S
C11 C12 1.387 . S
C11 H34 0.930 . S
C12 C10 1.381 . S
C12 C11 1.387 . S
C12 H35 0.931 . S
C13 C6 1.399 . S
C13 C10 1.487 . S
C13 N45 1.343 1_655 S
C14 C15 1.384 . S
C14 C16 1.384 . S
C14 H36 0.931 . S
C15 C14 1.384 . S
C15 C18 1.382 . S
C16 C14 1.384 . S
C16 C17 1.381 . S
C16 H37 0.930 . S
C17 C16 1.381 . S
C17 C19 1.381 . S
C17 C20 1.487 . S
C18 C15 1.382 . S
C18 C19 1.387 . S
C18 H38 0.930 . S
C19 C17 1.381 . S
C19 C18 1.387 . S
C19 H39 0.931 . S
C20 C17 1.487 . S
C20 C27 1.399 . S
C20 N45 1.343 . S
C21 C22 1.384 . S
C21 C23 1.384 . S
C21 H40 0.931 . S
C22 C21 1.384 . S
C22 C25 1.382 . S
C23 C21 1.384 . S
C23 C24 1.381 . S
C23 H41 0.930 . S
C24 C23 1.381 . S
C24 C26 1.381 . S
C24 C27 1.487 . S
C25 C22 1.382 . S
C25 C26 1.387 . S
C25 H42 0.930 . S
C26 C24 1.381 . S
C26 C25 1.387 . S
C26 H43 0.931 . S
C27 C20 1.399 . S
C27 C24 1.487 . S
C27 N44 1.343 1_455 S
H28 C0 0.931 . S
H29 C2 0.930 . S
H30 C4 0.930 . S
H31 C5 0.931 . S
H32 C7 0.931 . S
H33 C9 0.930 . S
H34 C11 0.930 . S
H35 C12 0.931 . S
H36 C14 0.931 . S
H37 C16 0.930 . S
H38 C18 0.930 . S
H39 C19 0.931 . S
H40 C21 0.931 . S
H41 C23 0.930 . S
H42 C25 0.930 . S
H43 C26 0.931 . S
N44 C6 1.343 . S
N44 C27 1.343 1_655 S
N45 C13 1.343 1_455 S
N45 C20 1.343 . S
C46 C47 1.384 . S
C46 C48 1.384 . S
C46 H74 0.931 . S
C47 C46 1.384 . S
C47 C50 1.382 . S
C48 C46 1.384 . S
C48 C49 1.381 . S
C48 H75 0.930 . S
C49 C48 1.381 . S
C49 C51 1.381 . S
C49 C52 1.487 . S
C50 C47 1.382 . S
C50 C51 1.387 . S
C50 H76 0.930 . S
C51 C49 1.381 . S
C51 C50 1.387 . S
C51 H77 0.931 . S
C52 C49 1.487 . S
C52 C59 1.399 . S
C52 N90 1.343 1_565 S
C53 C54 1.384 . S
C53 C55 1.384 . S
C53 H78 0.931 . S
C54 C53 1.384 . S
C54 C57 1.382 . S
C55 C53 1.384 . S
C55 C56 1.381 . S
C55 H79 0.930 . S
C56 C55 1.381 . S
C56 C58 1.381 . S
C56 C59 1.487 . S
C57 C54 1.382 . S
C57 C58 1.387 . S
C57 H80 0.930 . S
C58 C56 1.381 . S
C58 C57 1.387 . S
C58 H81 0.931 . S
C59 C52 1.399 . S
C59 C56 1.487 . S
C59 N91 1.343 1_565 S
C60 C61 1.384 . S
C60 C62 1.384 . S
C60 H82 0.931 . S
C61 C60 1.384 . S
C61 C64 1.382 . S
C62 C60 1.384 . S
C62 C63 1.381 . S
C62 H83 0.930 . S
C63 C62 1.381 . S
C63 C65 1.381 . S
C63 C66 1.487 . S
C64 C61 1.382 . S
C64 C65 1.387 . S
C64 H84 0.930 . S
C65 C63 1.381 . S
C65 C64 1.387 . S
C65 H85 0.931 . S
C66 C63 1.487 . S
C66 C73 1.399 . S
C66 N91 1.343 . S
C67 C68 1.384 . S
C67 C69 1.384 . S
C67 H86 0.931 . S
C68 C67 1.384 . S
C68 C71 1.382 . S
C69 C67 1.384 . S
C69 C70 1.381 . S
C69 H87 0.930 . S
C70 C69 1.381 . S
C70 C72 1.381 . S
C70 C73 1.487 . S
C71 C68 1.382 . S
C71 C72 1.387 . S
C71 H88 0.930 . S
C72 C70 1.381 . S
C72 C71 1.387 . S
C72 H89 0.931 . S
C73 C66 1.399 . S
C73 C70 1.487 . S
C73 N90 1.343 . S
H74 C46 0.931 . S
H75 C48 0.930 . S
H76 C50 0.930 . S
H77 C51 0.931 . S
H78 C53 0.931 . S
H79 C55 0.930 . S
H80 C57 0.930 . S
H81 C58 0.931 . S
H82 C60 0.931 . S
H83 C62 0.930 . S
H84 C64 0.930 . S
H85 C65 0.931 . S
H86 C67 0.931 . S
H87 C69 0.930 . S
H88 C71 0.930 . S
H89 C72 0.931 . S
N90 C52 1.343 1_545 S
N90 C73 1.343 . S
N91 C59 1.343 1_545 S
N91 C66 1.343 . S
C92 C93 1.384 . S
C92 C94 1.384 . S
C92 H120 0.931 . S
C93 C92 1.384 . S
C93 C96 1.382 . S
C94 C92 1.384 . S
C94 C95 1.381 . S
C94 H121 0.930 . S
C95 C94 1.381 . S
C95 C97 1.381 . S
C95 C98 1.487 . S
C96 C93 1.382 . S
C96 C97 1.387 . S
C96 H122 0.930 . S
C97 C95 1.381 . S
C97 C96 1.387 . S
C97 H123 0.931 . S
C98 C95 1.487 . S
C98 C105 1.399 . S
C98 N136 1.343 . S
C99 C100 1.384 . S
C99 C101 1.384 . S
C99 H124 0.931 . S
C100 C99 1.384 . S
C100 C103 1.382 . S
C101 C99 1.384 . S
C101 C102 1.381 . S
C101 H125 0.930 . S
C102 C101 1.381 . S
C102 C104 1.381 . S
C102 C105 1.487 . S
C103 C100 1.382 . S
C103 C104 1.387 . S
C103 H126 0.930 . S
C104 C102 1.381 . S
C104 C103 1.387 . S
C104 H127 0.931 . S
C105 C98 1.399 . S
C105 C102 1.487 . S
C105 N137 1.343 . S
C106 C107 1.384 . S
C106 C108 1.384 . S
C106 H128 0.931 . S
C107 C106 1.384 . S
C107 C110 1.382 . S
C108 C106 1.384 . S
C108 C109 1.381 . S
C108 H129 0.930 . S
C109 C108 1.381 . S
C109 C111 1.381 . S
C109 C112 1.487 . S
C110 C107 1.382 . S
C110 C111 1.387 . S
C110 H130 0.930 . S
C111 C109 1.381 . S
C111 C110 1.387 . S
C111 H131 0.931 . S
C112 C109 1.487 . S
C112 C119 1.399 . S
C112 N137 1.343 . S
C113 C114 1.384 . S
C113 C115 1.384 . S
C113 H132 0.931 . S
C114 C113 1.384 . S
C114 C117 1.382 . S
C115 C113 1.384 . S
C115 C116 1.381 . S
C115 H133 0.930 . S
C116 C115 1.381 . S
C116 C118 1.381 . S
C116 C119 1.487 . S
C117 C114 1.382 . S
C117 C118 1.387 . S
C117 H134 0.930 . S
C118 C116 1.381 . S
C118 C117 1.387 . S
C118 H135 0.931 . S
C119 C112 1.399 . S
C119 C116 1.487 . S
C119 N136 1.343 . S
H120 C92 0.931 . S
H121 C94 0.930 . S
H122 C96 0.930 . S
H123 C97 0.931 . S
H124 C99 0.931 . S
H125 C101 0.930 . S
H126 C103 0.930 . S
H127 C104 0.931 . S
H128 C106 0.931 . S
H129 C108 0.930 . S
H130 C110 0.930 . S
H131 C111 0.931 . S
H132 C113 0.931 . S
H133 C115 0.930 . S
H134 C117 0.930 . S
H135 C118 0.931 . S
N136 C98 1.343 . S
N136 C119 1.343 . S
N137 C105 1.343 . S
N137 C112 1.343 . S
C138 C139 1.384 . S
C138 C140 1.384 . S
C138 H166 0.931 . S
C139 C138 1.384 . S
C139 C142 1.382 . S
C140 C138 1.384 . S
C140 C141 1.381 . S
C140 H167 0.930 . S
C141 C140 1.381 . S
C141 C143 1.381 . S
C141 C144 1.487 . S
C142 C139 1.382 . S
C142 C143 1.387 . S
C142 H168 0.930 . S
C143 C141 1.381 . S
C143 C142 1.387 . S
C143 H169 0.931 . S
C144 C141 1.487 . S
C144 C151 1.399 . S
C144 N182 1.343 . S
C145 C146 1.384 . S
C145 C147 1.384 . S
C145 H170 0.931 . S
C146 C145 1.384 . S
C146 C149 1.382 . S
C147 C145 1.384 . S
C147 C148 1.381 . S
C147 H171 0.930 . S
C148 C147 1.381 . S
C148 C150 1.381 . S
C148 C151 1.487 . S
C149 C146 1.382 . S
C149 C150 1.387 . S
C149 H172 0.930 . S
C150 C148 1.381 . S
C150 C149 1.387 . S
C150 H173 0.931 . S
C151 C144 1.399 . S
C151 C148 1.487 . S
C151 N183 1.343 1_655 S
C152 C153 1.384 . S
C152 C154 1.384 . S
C152 H174 0.931 . S
C153 C152 1.384 . S
C153 C156 1.382 . S
C154 C152 1.384 . S
C154 C155 1.381 . S
C154 H175 0.930 . S
C155 C154 1.381 . S
C155 C157 1.381 . S
C155 C158 1.487 . S
C156 C153 1.382 . S
C156 C157 1.387 . S
C156 H176 0.930 . S
C157 C155 1.381 . S
C157 C156 1.387 . S
C157 H177 0.931 . S
C158 C155 1.487 . S
C158 C165 1.399 . S
C158 N183 1.343 . S
C159 C160 1.384 . S
C159 C161 1.384 . S
C159 H178 0.931 . S
C160 C159 1.384 . S
C160 C163 1.382 . S
C161 C159 1.384 . S
C161 C162 1.381 . S
C161 H179 0.930 . S
C162 C161 1.381 . S
C162 C164 1.381 . S
C162 C165 1.487 . S
C163 C160 1.382 . S
C163 C164 1.387 . S
C163 H180 0.930 . S
C164 C162 1.381 . S
C164 C163 1.387 . S
C164 H181 0.931 . S
C165 C158 1.399 . S
C165 C162 1.487 . S
C165 N182 1.343 1_455 S
H166 C138 0.931 . S
H167 C140 0.930 . S
H168 C142 0.930 . S
H169 C143 0.931 . S
H170 C145 0.931 . S
H171 C147 0.930 . S
H172 C149 0.930 . S
H173 C150 0.931 . S
H174 C152 0.931 . S
H175 C154 0.930 . S
H176 C156 0.930 . S
H177 C157 0.931 . S
H178 C159 0.931 . S
H179 C161 0.930 . S
H180 C163 0.930 . S
H181 C164 0.931 . S
N182 C144 1.343 . S
N182 C165 1.343 1_655 S
N183 C151 1.343 1_455 S
N183 C158 1.343 . S
C184 C185 1.384 . S
C184 C186 1.384 . S
C184 H212 0.931 . S
C185 C184 1.384 . S
C185 C188 1.382 . S
C186 C184 1.384 . S
C186 C187 1.381 . S
C186 H213 0.918 1_556 S
C187 C186 1.381 . S
C187 C189 1.381 . S
C187 C190 1.487 . S
C188 C185 1.382 . S
C188 C189 1.387 . S
C188 H214 0.930 . S
C189 C187 1.381 . S
C189 C188 1.387 . S
C189 H215 0.931 . S
C190 C187 1.487 . S
C190 C197 1.409 1_556 S
C190 N228 1.343 1_565 S
C191 C192 1.384 . S
C191 C193 1.384 . S
C191 H216 0.931 . S
C192 C191 1.384 . S
C192 C195 1.382 . S
C193 C191 1.384 . S
C193 C194 1.381 . S
C193 H217 0.930 . S
C194 C193 1.381 . S
C194 C196 1.381 . S
C194 C197 1.508 . S
C195 C192 1.382 . S
C195 C196 1.387 . S
C195 H218 0.930 . S
C196 C194 1.381 . S
C196 C195 1.387 . S
C196 H219 0.931 1_565 S
C197 C190 1.409 1_554 S
C197 C194 1.508 . S
C197 N229 1.311 1_565 S
C198 C199 1.384 . S
C198 C200 1.384 1_554 S
C198 H220 0.932 1_554 S
C199 C198 1.384 . S
C199 C202 1.382 . S
C200 C198 1.384 1_556 S
C200 C201 1.381 1_556 S
C200 H221 0.930 . S
C201 C200 1.381 1_554 S
C201 C203 1.381 . S
C201 C204 1.487 1_554 S
C202 C199 1.382 . S
C202 C203 1.387 . S
C202 H222 0.930 . S
C203 C201 1.381 . S
C203 C202 1.387 . S
C203 H223 0.931 . S
C204 C201 1.487 1_556 S
C204 C211 1.399 . S
C204 N229 1.343 1_556 S
C205 C206 1.384 . S
C205 C207 1.384 . S
C205 H224 0.931 . S
C206 C205 1.384 . S
C206 C209 1.382 . S
C207 C205 1.384 . S
C207 C208 1.381 . S
C207 H225 0.930 . S
C208 C207 1.381 . S
C208 C210 1.381 . S
C208 C211 1.487 . S
C209 C206 1.382 . S
C209 C210 1.387 . S
C209 H226 0.930 . S
C210 C208 1.381 . S
C210 C209 1.387 . S
C210 H227 0.931 . S
C211 C204 1.399 . S
C211 C208 1.487 . S
C211 N228 1.343 . S
H212 C184 0.931 . S
H213 C186 0.918 1_554 S
H214 C188 0.930 . S
H215 C189 0.931 . S
H216 C191 0.931 . S
H217 C193 0.930 . S
H218 C195 0.930 . S
H219 C196 0.931 1_545 S
H220 C198 0.932 1_556 S
H221 C200 0.930 . S
H222 C202 0.930 . S
H223 C203 0.931 . S
H224 C205 0.931 . S
H225 C207 0.930 . S
H226 C209 0.930 . S
H227 C210 0.931 . S
N228 C190 1.343 1_545 S
N228 C211 1.343 . S
N229 C197 1.311 1_545 S
N229 C204 1.343 1_554 S
C230 C231 1.384 . S
C230 C232 1.384 . S
C230 H258 0.931 . S
C231 C230 1.384 . S
C231 C234 1.382 . S
C232 C230 1.384 . S
C232 C233 1.381 . S
C232 H259 0.930 . S
C233 C232 1.381 . S
C233 C235 1.381 . S
C233 C236 1.487 . S
C234 C231 1.382 . S
C234 C235 1.387 . S
C234 H260 0.930 . S
C235 C233 1.381 . S
C235 C234 1.387 . S
C235 H261 0.931 . S
C236 C233 1.487 . S
C236 C243 1.399 . S
C236 N274 1.343 . S
C237 C238 1.384 . S
C237 C239 1.384 . S
C237 H262 0.931 . S
C238 C237 1.384 . S
C238 C241 1.382 . S
C239 C237 1.384 . S
C239 C240 1.381 . S
C239 H263 0.930 . S
C240 C239 1.381 . S
C240 C242 1.381 . S
C240 C243 1.487 . S
C241 C238 1.382 . S
C241 C242 1.387 . S
C241 H264 0.930 . S
C242 C240 1.381 . S
C242 C241 1.387 . S
C242 H265 0.931 . S
C243 C236 1.399 . S
C243 C240 1.487 . S
C243 N275 1.343 . S
C244 C245 1.384 . S
C244 C246 1.384 . S
C244 H266 0.931 . S
C245 C244 1.384 . S
C245 C248 1.382 . S
C246 C244 1.384 . S
C246 C247 1.381 . S
C246 H267 0.930 . S
C247 C246 1.381 . S
C247 C249 1.381 . S
C247 C250 1.487 . S
C248 C245 1.382 . S
C248 C249 1.387 . S
C248 H268 0.930 . S
C249 C247 1.381 . S
C249 C248 1.387 . S
C249 H269 0.931 . S
C250 C247 1.487 . S
C250 C257 1.399 . S
C250 N275 1.343 . S
C251 C252 1.384 . S
C251 C253 1.384 . S
C251 H270 0.931 . S
C252 C251 1.384 . S
C252 C255 1.382 . S
C253 C251 1.384 . S
C253 C254 1.381 . S
C253 H271 0.930 . S
C254 C253 1.381 . S
C254 C256 1.381 . S
C254 C257 1.487 . S
C255 C252 1.382 . S
C255 C256 1.387 . S
C255 H272 0.930 . S
C256 C254 1.381 . S
C256 C255 1.387 . S
C256 H273 0.931 . S
C257 C250 1.399 . S
C257 C254 1.487 . S
C257 N274 1.343 . S
H258 C230 0.931 . S
H259 C232 0.930 . S
H260 C234 0.930 . S
H261 C235 0.931 . S
H262 C237 0.931 . S
H263 C239 0.930 . S
H264 C241 0.930 . S
H265 C242 0.931 . S
H266 C244 0.931 . S
H267 C246 0.930 . S
H268 C248 0.930 . S
H269 C249 0.931 . S
H270 C251 0.931 . S
H271 C253 0.930 . S
H272 C255 0.930 . S
H273 C256 0.931 . S
N274 C236 1.343 . S
N274 C257 1.343 . S
N275 C243 1.343 . S
N275 C250 1.343 . S
Mg276 O277 2.028 . S
Mg276 O283 1.986 . S
Mg276 O285 2.114 . S
Mg276 O286 2.251 . S
Mg276 O289 2.010 . S
O277 Mg276 2.028 . S
O277 C280 1.250 . S
O278 Mg279 2.028 . S
O278 C280 1.248 . S
Mg279 O278 2.028 . S
Mg279 O284 2.032 . S
Mg279 O286 2.079 . S
C280 O277 1.250 . S
C280 O278 1.248 . S
C281 O282 1.264 . S
C281 O289 1.249 . S
O282 C281 1.264 . S
O283 Mg276 1.986 . S
O283 C287 1.246 . S
O284 Mg279 2.032 . S
O284 C287 1.259 . S
O285 Mg276 2.114 . S
O285 C288 1.252 . S
O286 Mg276 2.251 . S
O286 Mg279 2.079 . S
O286 C288 1.273 . S
C287 O283 1.246 . S
C287 O284 1.259 . S
C288 O285 1.252 . S
C288 O286 1.273 . S
O289 Mg276 2.010 . S
O289 C281 1.249 . S
Mg290 O291 2.028 . S
Mg290 O297 1.986 . S
Mg290 O299 2.114 . S
Mg290 O300 2.251 . S
Mg290 O303 2.010 . S
O291 Mg290 2.028 . S
O291 C294 1.250 . S
O292 Mg293 2.028 . S
O292 C294 1.248 . S
Mg293 O292 2.028 . S
Mg293 O298 2.032 . S
Mg293 O300 2.079 . S
C294 O291 1.250 . S
C294 O292 1.248 . S
C295 O296 1.264 . S
C295 O303 1.249 . S
O296 C295 1.264 . S
O297 Mg290 1.986 . S
O297 C301 1.246 . S
O298 Mg293 2.032 . S
O298 C301 1.259 . S
O299 Mg290 2.114 . S
O299 C302 1.252 . S
O300 Mg290 2.251 . S
O300 Mg293 2.079 . S
O300 C302 1.273 . S
C301 O297 1.246 . S
C301 O298 1.259 . S
C302 O299 1.252 . S
C302 O300 1.273 . S
O303 Mg290 2.010 . S
O303 C295 1.249 . S
Mg304 O305 2.028 . S
Mg304 O311 1.986 . S
Mg304 O313 2.114 . S
Mg304 O314 2.251 . S
Mg304 O317 2.010 . S
O305 Mg304 2.028 . S
O305 C308 1.250 . S
O306 Mg307 2.028 . S
O306 C308 1.248 . S
Mg307 O306 2.028 . S
Mg307 O312 2.032 . S
Mg307 O314 2.079 . S
C308 O305 1.250 . S
C308 O306 1.248 . S
C309 O310 1.264 . S
C309 O317 1.249 . S
O310 C309 1.264 . S
O311 Mg304 1.986 . S
O311 C315 1.246 . S
O312 Mg307 2.032 . S
O312 C315 1.259 . S
O313 Mg304 2.114 . S
O313 C316 1.252 . S
O314 Mg304 2.251 . S
O314 Mg307 2.079 . S
O314 C316 1.273 . S
C315 O311 1.246 . S
C315 O312 1.259 . S
C316 O313 1.252 . S
C316 O314 1.273 . S
O317 Mg304 2.010 . S
O317 C309 1.249 . S
Mg318 O319 2.028 . S
Mg318 O325 1.986 . S
Mg318 O327 2.114 . S
Mg318 O328 2.251 . S
Mg318 O331 2.010 . S
O319 Mg318 2.028 . S
O319 C322 1.250 . S
O320 Mg321 2.028 . S
O320 C322 1.248 . S
Mg321 O320 2.028 . S
Mg321 O326 2.032 . S
Mg321 O328 2.079 . S
C322 O319 1.250 . S
C322 O320 1.248 . S
C323 O324 1.264 . S
C323 O331 1.249 . S
O324 C323 1.264 . S
O325 Mg318 1.986 . S
O325 C329 1.246 . S
O326 Mg321 2.032 . S
O326 C329 1.259 . S
O327 Mg318 2.114 . S
O327 C330 1.252 . S
O328 Mg318 2.251 . S
O328 Mg321 2.079 . S
O328 C330 1.273 . S
C329 O325 1.246 . S
C329 O326 1.259 . S
C330 O327 1.252 . S
C330 O328 1.273 . S
O331 Mg318 2.010 . S
O331 C323 1.249 . S
Mg332 O333 2.028 . S
Mg332 O339 1.986 . S
Mg332 O341 2.114 . S
Mg332 O342 2.251 . S
Mg332 O345 2.010 . S
O333 Mg332 2.028 . S
O333 C336 1.250 . S
O334 Mg335 2.028 . S
O334 C336 1.248 . S
Mg335 O334 2.028 . S
Mg335 O340 2.032 . S
Mg335 O342 2.079 . S
C336 O333 1.250 . S
C336 O334 1.248 . S
C337 O338 1.264 . S
C337 O345 1.249 . S
O338 C337 1.264 . S
O339 Mg332 1.986 . S
O339 C343 1.246 . S
O340 Mg335 2.032 . S
O340 C343 1.259 . S
O341 Mg332 2.114 . S
O341 C344 1.252 . S
O342 Mg332 2.251 . S
O342 Mg335 2.079 . S
O342 C344 1.273 . S
C343 O339 1.246 . S
C343 O340 1.259 . S
C344 O341 1.252 . S
C344 O342 1.273 . S
O345 Mg332 2.010 . S
O345 C337 1.249 . S
Mg346 O347 2.028 . S
Mg346 O353 1.986 . S
Mg346 O355 2.114 . S
Mg346 O356 2.251 . S
Mg346 O359 2.010 . S
O347 Mg346 2.028 . S
O347 C350 1.250 . S
O348 Mg349 2.028 . S
O348 C350 1.248 . S
Mg349 O348 2.028 . S
Mg349 O354 2.032 . S
Mg349 O356 2.079 . S
C350 O347 1.250 . S
C350 O348 1.248 . S
C351 O352 1.264 . S
C351 O359 1.249 . S
O352 C351 1.264 . S
O353 Mg346 1.986 . S
O353 C357 1.246 . S
O354 Mg349 2.032 . S
O354 C357 1.259 . S
O355 Mg346 2.114 . S
O355 C358 1.252 . S
O356 Mg346 2.251 . S
O356 Mg349 2.079 . S
O356 C358 1.273 . S
C357 O353 1.246 . S
C357 O354 1.259 . S
C358 O355 1.252 . S
C358 O356 1.273 . S
O359 Mg346 2.010 . S
O359 C351 1.249 . S
H360 C366 0.930 . S
H361 C370 0.930 . S
H362 C375 0.929 . S
H363 C373 0.929 . S
H364 C368 0.929 . S
H365 C374 0.929 . S
C366 H360 0.930 . S
C366 C367 1.367 . S
C366 C374 1.378 . S
C367 C366 1.367 . S
C367 C375 1.433 . S
C368 H364 0.929 . S
C368 C370 1.378 . S
C368 C372 1.350 . S
C369 C372 1.463 . S
C369 C374 1.350 . S
C369 N377 1.427 . S
C370 H361 0.930 . S
C370 C368 1.378 . S
C370 C371 1.367 . S
C371 C370 1.367 . S
C371 C373 1.433 . S
C372 C368 1.350 . S
C372 C369 1.463 . S
C372 N376 1.427 . S
C373 H363 0.929 . S
C373 C371 1.433 . S
C373 N376 1.384 . S
C374 H365 0.929 . S
C374 C366 1.378 . S
C374 C369 1.350 . S
C375 H362 0.929 . S
C375 C367 1.433 . S
C375 N377 1.384 . S
N376 C372 1.427 . S
N376 C373 1.384 . S
N377 C369 1.427 . S
N377 C375 1.384 . S
H378 C384 0.930 . S
H379 C388 0.930 . S
H380 C393 0.929 . S
H381 C391 0.929 . S
H382 C386 0.929 . S
H383 C392 0.929 . S
C384 H378 0.930 . S
C384 C385 1.367 . S
C384 C392 1.378 . S
C385 C384 1.367 . S
C385 C393 1.433 . S
C386 H382 0.929 . S
C386 C388 1.378 . S
C386 C390 1.350 . S
C387 C390 1.463 . S
C387 C392 1.350 . S
C387 N395 1.427 . S
C388 H379 0.930 . S
C388 C386 1.378 . S
C388 C389 1.367 . S
C389 C388 1.367 . S
C389 C391 1.433 . S
C390 C386 1.350 . S
C390 C387 1.463 . S
C390 N394 1.427 . S
C391 H381 0.929 . S
C391 C389 1.433 . S
C391 N394 1.384 . S
C392 H383 0.929 . S
C392 C384 1.378 . S
C392 C387 1.350 . S
C393 H380 0.929 . S
C393 C385 1.433 . S
C393 N395 1.384 . S
N394 C390 1.427 . S
N394 C391 1.384 . S
N395 C387 1.427 . S
N395 C393 1.384 . S
H396 C402 0.930 . S
H397 C406 0.930 . S
H398 C411 0.929 . S
H399 C409 0.929 . S
H400 C404 0.929 . S
H401 C410 0.929 . S
C402 H396 0.930 . S
C402 C403 1.367 . S
C402 C410 1.378 . S
C403 C402 1.367 . S
C403 C411 1.433 . S
C404 H400 0.929 . S
C404 C406 1.378 . S
C404 C408 1.350 . S
C405 C408 1.463 . S
C405 C410 1.350 . S
C405 N413 1.427 . S
C406 H397 0.930 . S
C406 C404 1.378 . S
C406 C407 1.367 . S
C407 C406 1.367 . S
C407 C409 1.433 . S
C408 C404 1.350 . S
C408 C405 1.463 . S
C408 N412 1.427 . S
C409 H399 0.929 . S
C409 C407 1.433 . S
C409 N412 1.384 . S
C410 H401 0.929 . S
C410 C402 1.378 . S
C410 C405 1.350 . S
C411 H398 0.929 . S
C411 C403 1.433 . S
C411 N413 1.384 . S
N412 C408 1.427 . S
N412 C409 1.384 . S
N413 C405 1.427 . S
N413 C411 1.384 . S
H414 C420 0.930 . S
H415 C424 0.930 . S
H416 C429 0.929 . S
H417 C427 0.929 . S
H418 C422 0.929 . S
H419 C428 0.929 . S
C420 H414 0.930 . S
C420 C421 1.367 . S
C420 C428 1.378 . S
C421 C420 1.367 . S
C421 C429 1.433 . S
C422 H418 0.929 . S
C422 C424 1.378 . S
C422 C426 1.350 . S
C423 C426 1.463 . S
C423 C428 1.350 . S
C423 N431 1.427 . S
C424 H415 0.930 . S
C424 C422 1.378 . S
C424 C425 1.367 . S
C425 C424 1.367 . S
C425 C427 1.433 . S
C426 C422 1.350 . S
C426 C423 1.463 . S
C426 N430 1.427 . S
C427 H417 0.929 . S
C427 C425 1.433 . S
C427 N430 1.384 . S
C428 H419 0.929 . S
C428 C420 1.378 . S
C428 C423 1.350 . S
C429 H416 0.929 . S
C429 C421 1.433 . S
C429 N431 1.384 . S
N430 C426 1.427 . S
N430 C427 1.384 . S
N431 C423 1.427 . S
N431 C429 1.384 . S
H432 C438 0.930 . S
H433 C442 0.930 . S
H434 C447 0.929 . S
H435 C445 0.929 . S
H436 C440 0.929 . S
H437 C446 0.929 . S
C438 H432 0.930 . S
C438 C439 1.367 . S
C438 C446 1.378 . S
C439 C438 1.367 . S
C439 C447 1.433 . S
C440 H436 0.929 . S
C440 C442 1.378 . S
C440 C444 1.350 . S
C441 C444 1.463 . S
C441 C446 1.350 . S
C441 N449 1.427 . S
C442 H433 0.930 . S
C442 C440 1.378 . S
C442 C443 1.367 . S
C443 C442 1.367 . S
C443 C445 1.433 . S
C444 C440 1.350 . S
C444 C441 1.463 . S
C444 N448 1.427 . S
C445 H435 0.929 . S
C445 C443 1.433 . S
C445 N448 1.384 . S
C446 H437 0.929 . S
C446 C438 1.378 . S
C446 C441 1.350 . S
C447 H434 0.929 . S
C447 C439 1.433 . S
C447 N449 1.384 . S
N448 C444 1.427 . S
N448 C445 1.384 . S
N449 C441 1.427 . S
N449 C447 1.384 . S
H450 C456 0.930 . S
H451 C460 0.930 . S
H452 C465 0.929 . S
H453 C463 0.929 . S
H454 C458 0.929 . S
H455 C464 0.929 . S
C456 H450 0.930 . S
C456 C457 1.367 . S
C456 C464 1.378 . S
C457 C456 1.367 . S
C457 C465 1.433 . S
C458 H454 0.929 . S
C458 C460 1.378 . S
C458 C462 1.350 . S
C459 C462 1.463 . S
C459 C464 1.350 . S
C459 N467 1.427 . S
C460 H451 0.930 . S
C460 C458 1.378 . S
C460 C461 1.367 . S
C461 C460 1.367 . S
C461 C463 1.433 . S
C462 C458 1.350 . S
C462 C459 1.463 . S
C462 N466 1.427 . S
C463 H453 0.929 . S
C463 C461 1.433 . S
C463 N466 1.384 . S
C464 H455 0.929 . S
C464 C456 1.378 . S
C464 C459 1.350 . S
C465 H452 0.929 . S
C465 C457 1.433 . S
C465 N467 1.384 . S
N466 C462 1.427 . S
N466 C463 1.384 . S
N467 C459 1.427 . S
N467 C465 1.384 . S
H468 C474 0.930 . S
H469 C478 0.930 . S
H470 C483 0.929 . S
H471 C481 0.929 . S
H472 C476 0.929 . S
H473 C482 0.929 . S
C474 H468 0.930 . S
C474 C475 1.367 . S
C474 C482 1.378 . S
C475 C474 1.367 . S
C475 C483 1.433 . S
C476 H472 0.929 . S
C476 C478 1.378 . S
C476 C480 1.350 . S
C477 C480 1.463 . S
C477 C482 1.350 . S
C477 N485 1.427 . S
C478 H469 0.930 . S
C478 C476 1.378 . S
C478 C479 1.367 . S
C479 C478 1.367 . S
C479 C481 1.433 . S
C480 C476 1.350 . S
C480 C477 1.463 . S
C480 N484 1.427 . S
C481 H471 0.929 . S
C481 C479 1.433 . S
C481 N484 1.384 . S
C482 H473 0.929 . S
C482 C474 1.378 . S
C482 C477 1.350 . S
C483 H470 0.929 . S
C483 C475 1.433 . S
C483 N485 1.384 . S
N484 C480 1.427 . S
N484 C481 1.384 . S
N485 C477 1.427 . S
N485 C483 1.384 . S
H486 C492 0.930 . S
H487 C496 0.930 . S
H488 C501 0.929 . S
H489 C499 0.929 . S
H490 C494 0.929 . S
H491 C500 0.929 . S
C492 H486 0.930 . S
C492 C493 1.367 . S
C492 C500 1.378 . S
C493 C492 1.367 . S
C493 C501 1.433 . S
C494 H490 0.929 . S
C494 C496 1.378 . S
C494 C498 1.350 . S
C495 C498 1.463 . S
C495 C500 1.350 . S
C495 N503 1.427 . S
C496 H487 0.930 . S
C496 C494 1.378 . S
C496 C497 1.367 . S
C497 C496 1.367 . S
C497 C499 1.433 . S
C498 C494 1.350 . S
C498 C495 1.463 . S
C498 N502 1.427 . S
C499 H489 0.929 . S
C499 C497 1.433 . S
C499 N502 1.384 . S
C500 H491 0.929 . S
C500 C492 1.378 . S
C500 C495 1.350 . S
C501 H488 0.929 . S
C501 C493 1.433 . S
C501 N503 1.384 . S
N502 C498 1.427 . S
N502 C499 1.384 . S
N503 C495 1.427 . S
N503 C501 1.384 . S
H504 C510 0.930 . S
H505 C514 0.930 . S
H506 C519 0.929 . S
H507 C517 0.929 . S
H508 C512 0.929 . S
H509 C518 0.929 . S
C510 H504 0.930 . S
C510 C511 1.367 . S
C510 C518 1.378 . S
C511 C510 1.367 . S
C511 C519 1.433 . S
C512 H508 0.929 . S
C512 C514 1.378 . S
C512 C516 1.350 . S
C513 C516 1.463 . S
C513 C518 1.350 . S
C513 N521 1.427 . S
C514 H505 0.930 . S
C514 C512 1.378 . S
C514 C515 1.367 . S
C515 C514 1.367 . S
C515 C517 1.433 . S
C516 C512 1.350 . S
C516 C513 1.463 . S
C516 N520 1.427 . S
C517 H507 0.929 . S
C517 C515 1.433 . S
C517 N520 1.384 . S
C518 H509 0.929 . S
C518 C510 1.378 . S
C518 C513 1.350 . S
C519 H506 0.929 . S
C519 C511 1.433 . S
C519 N521 1.384 . S
N520 C516 1.427 . S
N520 C517 1.384 . S
N521 C513 1.427 . S
N521 C519 1.384 . S
H522 C528 0.930 . S
H523 C532 0.930 . S
H524 C537 0.929 . S
H525 C535 0.929 . S
H526 C530 0.929 . S
H527 C536 0.929 . S
C528 H522 0.930 . S
C528 C529 1.367 . S
C528 C536 1.378 . S
C529 C528 1.367 . S
C529 C537 1.433 . S
C530 H526 0.929 . S
C530 C532 1.378 . S
C530 C534 1.350 . S
C531 C534 1.463 . S
C531 C536 1.350 . S
C531 N539 1.427 . S
C532 H523 0.930 . S
C532 C530 1.378 . S
C532 C533 1.367 . S
C533 C532 1.367 . S
C533 C535 1.433 . S
C534 C530 1.350 . S
C534 C531 1.463 . S
C534 N538 1.427 . S
C535 H525 0.929 . S
C535 C533 1.433 . S
C535 N538 1.384 . S
C536 H527 0.929 . S
C536 C528 1.378 . S
C536 C531 1.350 . S
C537 H524 0.929 . S
C537 C529 1.433 . S
C537 N539 1.384 . S
N538 C534 1.427 . S
N538 C535 1.384 . S
N539 C531 1.427 . S
N539 C537 1.384 . S
H540 C546 0.930 . S
H541 C550 0.930 . S
H542 C555 0.929 . S
H543 C553 0.929 . S
H544 C548 0.929 . S
H545 C554 0.929 . S
C546 H540 0.930 . S
C546 C547 1.367 . S
C546 C554 1.378 . S
C547 C546 1.367 . S
C547 C555 1.433 . S
C548 H544 0.929 . S
C548 C550 1.378 . S
C548 C552 1.350 . S
C549 C552 1.463 . S
C549 C554 1.350 . S
C549 N557 1.427 . S
C550 H541 0.930 . S
C550 C548 1.378 . S
C550 C551 1.367 . S
C551 C550 1.367 . S
C551 C553 1.433 . S
C552 C548 1.350 . S
C552 C549 1.463 . S
C552 N556 1.427 . S
C553 H543 0.929 . S
C553 C551 1.433 . S
C553 N556 1.384 . S
C554 H545 0.929 . S
C554 C546 1.378 . S
C554 C549 1.350 . S
C555 H542 0.929 . S
C555 C547 1.433 . S
C555 N557 1.384 . S
N556 C552 1.427 . S
N556 C553 1.384 . S
N557 C549 1.427 . S
N557 C555 1.384 . S
H558 C564 0.930 . S
H559 C568 0.930 . S
H560 C573 0.929 . S
H561 C571 0.929 . S
H562 C566 0.929 . S
H563 C572 0.929 . S
C564 H558 0.930 . S
C564 C565 1.367 . S
C564 C572 1.378 . S
C565 C564 1.367 . S
C565 C573 1.433 . S
C566 H562 0.929 . S
C566 C568 1.378 . S
C566 C570 1.350 . S
C567 C570 1.463 . S
C567 C572 1.350 . S
C567 N575 1.427 . S
C568 H559 0.930 . S
C568 C566 1.378 . S
C568 C569 1.367 . S
C569 C568 1.367 . S
C569 C571 1.433 . S
C570 C566 1.350 . S
C570 C567 1.463 . S
C570 N574 1.427 . S
C571 H561 0.929 . S
C571 C569 1.433 . S
C571 N574 1.384 . S
C572 H563 0.929 . S
C572 C564 1.378 . S
C572 C567 1.350 . S
C573 H560 0.929 . S
C573 C565 1.433 . S
C573 N575 1.384 . S
N574 C570 1.427 . S
N574 C571 1.384 . S
N575 C567 1.427 . S
N575 C573 1.384 . S
H576 C582 0.930 . S
H577 C586 0.930 . S
H578 C591 0.929 . S
H579 C589 0.929 . S
H580 C584 0.929 . S
H581 C590 0.929 . S
C582 H576 0.930 . S
C582 C583 1.367 . S
C582 C590 1.378 . S
C583 C582 1.367 . S
C583 C591 1.433 . S
C584 H580 0.929 . S
C584 C586 1.378 . S
C584 C588 1.350 . S
C585 C588 1.463 . S
C585 C590 1.350 . S
C585 N593 1.427 . S
C586 H577 0.930 . S
C586 C584 1.378 . S
C586 C587 1.367 . S
C587 C586 1.367 . S
C587 C589 1.433 . S
C588 C584 1.350 . S
C588 C585 1.463 . S
C588 N592 1.427 . S
C589 H579 0.929 . S
C589 C587 1.433 . S
C589 N592 1.384 . S
C590 H581 0.929 . S
C590 C582 1.378 . S
C590 C585 1.350 . S
C591 H578 0.929 . S
C591 C583 1.433 . S
C591 N593 1.384 . S
N592 C588 1.427 . S
N592 C589 1.384 . S
N593 C585 1.427 . S
N593 C591 1.384 . S
H594 C600 0.930 . S
H595 C604 0.930 . S
H596 C609 0.929 . S
H597 C607 0.929 . S
H598 C602 0.929 . S
H599 C608 0.929 . S
C600 H594 0.930 . S
C600 C601 1.367 . S
C600 C608 1.378 . S
C601 C600 1.367 . S
C601 C609 1.433 . S
C602 H598 0.929 . S
C602 C604 1.378 . S
C602 C606 1.350 . S
C603 C606 1.463 . S
C603 C608 1.350 . S
C603 N611 1.427 . S
C604 H595 0.930 . S
C604 C602 1.378 . S
C604 C605 1.367 . S
C605 C604 1.367 . S
C605 C607 1.433 . S
C606 C602 1.350 . S
C606 C603 1.463 . S
C606 N610 1.427 . S
C607 H597 0.929 . S
C607 C605 1.433 . S
C607 N610 1.384 . S
C608 H599 0.929 . S
C608 C600 1.378 . S
C608 C603 1.350 . S
C609 H596 0.929 . S
C609 C601 1.433 . S
C609 N611 1.384 . S
N610 C606 1.427 . S
N610 C607 1.384 . S
N611 C603 1.427 . S
N611 C609 1.384 . S
H612 C618 0.930 . S
H613 C622 0.930 . S
H614 C627 0.929 . S
H615 C625 0.929 . S
H616 C620 0.929 . S
H617 C626 0.929 . S
C618 H612 0.930 . S
C618 C619 1.367 . S
C618 C626 1.378 . S
C619 C618 1.367 . S
C619 C627 1.433 . S
C620 H616 0.929 . S
C620 C622 1.378 . S
C620 C624 1.350 . S
C621 C624 1.463 . S
C621 C626 1.350 . S
C621 N629 1.427 . S
C622 H613 0.930 . S
C622 C620 1.378 . S
C622 C623 1.367 . S
C623 C622 1.367 . S
C623 C625 1.433 . S
C624 C620 1.350 . S
C624 C621 1.463 . S
C624 N628 1.427 . S
C625 H615 0.929 . S
C625 C623 1.433 . S
C625 N628 1.384 . S
C626 H617 0.929 . S
C626 C618 1.378 . S
C626 C621 1.350 . S
C627 H614 0.929 . S
C627 C619 1.433 . S
C627 N629 1.384 . S
N628 C624 1.427 . S
N628 C625 1.384 . S
N629 C621 1.427 . S
N629 C627 1.384 . S
H630 C636 0.930 . S
H631 C640 0.930 . S
H632 C645 0.929 . S
H633 C643 0.930 . S
H634 C638 0.929 . S
H635 C644 0.929 . S
C636 H630 0.930 . S
C636 C637 1.367 . S
C636 C644 1.378 . S
C637 C636 1.367 . S
C637 C645 1.433 . S
C638 H634 0.929 . S
C638 C640 1.378 1_556 S
C638 C642 1.350 . S
C639 C642 1.463 . S
C639 C644 1.350 . S
C639 N647 1.427 . S
C640 H631 0.930 . S
C640 C638 1.378 1_554 S
C640 C641 1.367 . S
C641 C640 1.367 . S
C641 C643 1.443 . S
C642 C638 1.350 . S
C642 C639 1.463 . S
C642 N646 1.427 . S
C643 H633 0.930 . S
C643 C641 1.443 . S
C643 N646 1.372 1_554 S
C644 H635 0.929 . S
C644 C636 1.378 . S
C644 C639 1.350 . S
C645 H632 0.929 . S
C645 C637 1.433 . S
C645 N647 1.384 . S
N646 C642 1.427 . S
N646 C643 1.372 1_556 S
N647 C639 1.427 . S
N647 C645 1.384 . S
H648 C654 0.930 . S
H649 C658 0.930 . S
H650 C663 0.929 . S
H651 C661 0.929 . S
H652 C656 0.929 . S
H653 C662 0.929 . S
C654 H648 0.930 . S
C654 C655 1.367 . S
C654 C662 1.378 . S
C655 C654 1.367 . S
C655 C663 1.433 . S
C656 H652 0.929 . S
C656 C658 1.378 . S
C656 C660 1.350 . S
C657 C660 1.463 . S
C657 C662 1.350 . S
C657 N665 1.427 . S
C658 H649 0.930 . S
C658 C656 1.378 . S
C658 C659 1.367 . S
C659 C658 1.367 . S
C659 C661 1.433 . S
C660 C656 1.350 . S
C660 C657 1.463 . S
C660 N664 1.427 . S
C661 H651 0.929 . S
C661 C659 1.433 . S
C661 N664 1.384 . S
C662 H653 0.929 . S
C662 C654 1.378 . S
C662 C657 1.350 . S
C663 H650 0.929 . S
C663 C655 1.433 . S
C663 N665 1.384 . S
N664 C660 1.427 . S
N664 C661 1.384 . S
N665 C657 1.427 . S
N665 C663 1.384 . S
H666 C672 0.930 . S
H667 C676 0.930 . S
H668 C681 0.929 . S
H669 C679 0.929 . S
H670 C674 0.929 . S
H671 C680 0.929 . S
C672 H666 0.930 . S
C672 C673 1.367 . S
C672 C680 1.378 . S
C673 C672 1.367 . S
C673 C681 1.433 . S
C674 H670 0.929 . S
C674 C676 1.378 . S
C674 C678 1.350 . S
C675 C678 1.463 . S
C675 C680 1.350 . S
C675 N683 1.427 . S
C676 H667 0.930 . S
C676 C674 1.378 . S
C676 C677 1.367 . S
C677 C676 1.367 . S
C677 C679 1.433 . S
C678 C674 1.350 . S
C678 C675 1.463 . S
C678 N682 1.427 . S
C679 H669 0.929 . S
C679 C677 1.433 . S
C679 N682 1.384 . S
C680 H671 0.929 . S
C680 C672 1.378 . S
C680 C675 1.350 . S
C681 H668 0.929 . S
C681 C673 1.433 . S
C681 N683 1.384 . S
N682 C678 1.427 . S
N682 C679 1.384 . S
N683 C675 1.427 . S
N683 C681 1.384 . S
H684 C690 0.930 . S
H685 C694 0.930 . S
H686 C699 0.929 . S
H687 C697 0.929 . S
H688 C692 0.929 . S
H689 C698 0.929 . S
C690 H684 0.930 . S
C690 C691 1.367 . S
C690 C698 1.378 . S
C691 C690 1.367 . S
C691 C699 1.433 . S
C692 H688 0.929 . S
C692 C694 1.378 . S
C692 C696 1.350 . S
C693 C696 1.463 . S
C693 C698 1.350 . S
C693 N701 1.427 . S
C694 H685 0.930 . S
C694 C692 1.378 . S
C694 C695 1.367 . S
C695 C694 1.367 . S
C695 C697 1.433 . S
C696 C692 1.350 . S
C696 C693 1.463 . S
C696 N700 1.427 . S
C697 H687 0.929 . S
C697 C695 1.433 . S
C697 N700 1.384 . S
C698 H689 0.929 . S
C698 C690 1.378 . S
C698 C693 1.350 . S
C699 H686 0.929 . S
C699 C691 1.433 . S
C699 N701 1.384 . S
N700 C696 1.427 . S
N700 C697 1.384 . S
N701 C693 1.427 . S
N701 C699 1.384 . S
H702 C708 0.930 . S
H703 C712 0.930 . S
H704 C717 0.929 . S
H705 C715 0.929 . S
H706 C710 0.929 . S
H707 C716 0.929 . S
C708 H702 0.930 . S
C708 C709 1.367 . S
C708 C716 1.378 . S
C709 C708 1.367 . S
C709 C717 1.433 . S
C710 H706 0.929 . S
C710 C712 1.378 . S
C710 C714 1.350 . S
C711 C714 1.463 . S
C711 C716 1.350 . S
C711 N719 1.427 . S
C712 H703 0.930 . S
C712 C710 1.378 . S
C712 C713 1.367 . S
C713 C712 1.367 . S
C713 C715 1.433 . S
C714 C710 1.350 . S
C714 C711 1.463 . S
C714 N718 1.427 . S
C715 H705 0.929 . S
C715 C713 1.433 . S
C715 N718 1.384 . S
C716 H707 0.929 . S
C716 C708 1.378 . S
C716 C711 1.350 . S
C717 H704 0.929 . S
C717 C709 1.433 . S
C717 N719 1.384 . S
N718 C714 1.427 . S
N718 C715 1.384 . S
N719 C711 1.427 . S
N719 C717 1.384 . S
H720 C726 0.930 . S
H721 C730 0.930 . S
H722 C735 0.929 . S
H723 C733 0.929 . S
H724 C728 0.929 . S
H725 C734 0.929 . S
C726 H720 0.930 . S
C726 C727 1.367 . S
C726 C734 1.378 . S
C727 C726 1.367 . S
C727 C735 1.433 . S
C728 H724 0.929 . S
C728 C730 1.378 . S
C728 C732 1.350 . S
C729 C732 1.463 . S
C729 C734 1.350 . S
C729 N737 1.427 . S
C730 H721 0.930 . S
C730 C728 1.378 . S
C730 C731 1.367 . S
C731 C730 1.367 . S
C731 C733 1.433 . S
C732 C728 1.350 . S
C732 C729 1.463 . S
C732 N736 1.427 . S
C733 H723 0.929 . S
C733 C731 1.433 . S
C733 N736 1.384 . S
C734 H725 0.929 . S
C734 C726 1.378 . S
C734 C729 1.350 . S
C735 H722 0.929 . S
C735 C727 1.433 . S
C735 N737 1.384 . S
N736 C732 1.427 . S
N736 C733 1.384 . S
N737 C729 1.427 . S
N737 C735 1.384 . S
H738 C744 0.930 . S
H739 C748 0.930 . S
H740 C753 0.929 . S
H741 C751 0.929 . S
H742 C746 0.929 . S
H743 C752 0.929 . S
C744 H738 0.930 . S
C744 C745 1.367 . S
C744 C752 1.378 . S
C745 C744 1.367 . S
C745 C753 1.433 . S
C746 H742 0.929 . S
C746 C748 1.378 . S
C746 C750 1.350 . S
C747 C750 1.463 . S
C747 C752 1.350 . S
C747 N755 1.427 . S
C748 H739 0.930 . S
C748 C746 1.378 . S
C748 C749 1.367 . S
C749 C748 1.367 . S
C749 C751 1.433 . S
C750 C746 1.350 . S
C750 C747 1.463 . S
C750 N754 1.427 . S
C751 H741 0.929 . S
C751 C749 1.433 . S
C751 N754 1.384 . S
C752 H743 0.929 . S
C752 C744 1.378 . S
C752 C747 1.350 . S
C753 H740 0.929 . S
C753 C745 1.433 . S
C753 N755 1.384 . S
N754 C750 1.427 . S
N754 C751 1.384 . S
N755 C747 1.427 . S
N755 C753 1.384 . S
H756 C762 0.930 . S
H757 C766 0.930 . S
H758 C771 0.929 . S
H759 C769 0.929 . S
H760 C764 0.929 . S
H761 C770 0.929 . S
C762 H756 0.930 . S
C762 C763 1.367 . S
C762 C770 1.378 . S
C763 C762 1.367 . S
C763 C771 1.433 . S
C764 H760 0.929 . S
C764 C766 1.378 . S
C764 C768 1.350 . S
C765 C768 1.463 1_554 S
C765 C770 1.350 . S
C765 N773 1.427 . S
C766 H757 0.930 . S
C766 C764 1.378 . S
C766 C767 1.367 . S
C767 C766 1.367 . S
C767 C769 1.433 . S
C768 C764 1.350 . S
C768 C765 1.463 1_556 S
C768 N772 1.427 . S
C769 H759 0.929 . S
C769 C767 1.433 . S
C769 N772 1.384 . S
C770 H761 0.929 . S
C770 C762 1.378 . S
C770 C765 1.350 . S
C771 H758 0.929 . S
C771 C763 1.433 . S
C771 N773 1.384 . S
N772 C768 1.427 . S
N772 C769 1.384 . S
N773 C765 1.427 . S
N773 C771 1.384 . S
H774 C780 0.930 . S
H775 C784 0.930 . S
H776 C789 0.929 . S
H777 C787 0.929 . S
H778 C782 0.929 . S
H779 C788 0.929 . S
C780 H774 0.930 . S
C780 C781 1.367 . S
C780 C788 1.378 . S
C781 C780 1.367 . S
C781 C789 1.433 . S
C782 H778 0.929 . S
C782 C784 1.378 . S
C782 C786 1.350 . S
C783 C786 1.463 . S
C783 C788 1.350 . S
C783 N791 1.427 . S
C784 H775 0.930 . S
C784 C782 1.378 . S
C784 C785 1.367 . S
C785 C784 1.367 . S
C785 C787 1.433 . S
C786 C782 1.350 . S
C786 C783 1.463 . S
C786 N790 1.427 . S
C787 H777 0.929 . S
C787 C785 1.433 . S
C787 N790 1.384 . S
C788 H779 0.929 . S
C788 C780 1.378 . S
C788 C783 1.350 . S
C789 H776 0.929 . S
C789 C781 1.433 . S
C789 N791 1.384 . S
N790 C786 1.427 . S
N790 C787 1.384 . S
N791 C783 1.427 . S
N791 C789 1.384 . S
C371 C351 1.285 . S
C367 C15 1.510 . S
C385 C61 1.543 . S
C389 C281 1.312 . S
C403 C114 1.512 . S
C407 C301 1.547 . S
C421 C139 1.469 . S
C425 C315 1.485 . S
C443 C323 1.236 . S
C439 C185 1.498 . S
C457 C245 1.498 . S
C461 C337 1.263 . S
C475 C47 1.548 . S
C479 C295 1.297 . S
C493 C100 1.497 . S
C497 C309 1.237 . S
C511 C153 1.452 . S
C515 C329 1.473 . S
C533 C343 1.523 . S
C529 C199 1.493 . S
C551 C357 1.525 . S
C547 C231 1.503 . S
C569 C287 1.544 . S
C565 C1 1.523 . S
C583 C22 1.433 . S
C587 C294 1.414 . S
C601 C68 1.453 . S
C605 C308 1.429 . S
C623 C330 1.447 . S
C619 C107 1.445 . S
C637 C146 1.451 . S
C641 C344 1.450 . S
C659 C358 1.421 . S
C655 C192 1.419 . S
C677 C288 1.404 . S
C673 C252 1.401 . S
C695 C350 1.419 . S
C691 C54 1.438 . S
C709 C93 1.437 . S
C713 C280 1.417 . S
C731 C302 1.437 . S
C727 C160 1.436 . S
C745 C206 1.449 . S
C749 C316 1.449 . S
C763 C238 1.486 . S
C767 C322 1.468 . S
C781 C8 1.469 . S
C785 C336 1.451 . S
