# Generated by pormake.
# Topology zzz, (3,6)-cn, num edge types: 1
# Building blocks:
#     Node 0, Type 0, BuildingBlock: BETDAH_clean_linker_0, # of connection points: 3
#     Node 1, Type 0, BuildingBlock: BETDAH_clean_linker_0, # of connection points: 3
#     Node 2, Type 0, BuildingBlock: BETDAH_clean_linker_0, # of connection points: 3
#     Node 3, Type 0, BuildingBlock: BETDAH_clean_linker_0, # of connection points: 3
#     Node 4, Type 0, BuildingBlock: BETDAH_clean_linker_0, # of connection points: 3
#     Node 5, Type 0, BuildingBlock: BETDAH_clean_linker_0, # of connection points: 3
#     Node 6, Type 0, BuildingBlock: BETDAH_clean_linker_0, # of connection points: 3
#     Node 7, Type 0, BuildingBlock: BETDAH_clean_linker_0, # of connection points: 3
#     Node 8, Type 1, BuildingBlock: BETDIP_clean_sbu_0, # of connection points: 6
#     Node 9, Type 1, BuildingBlock: BETDIP_clean_sbu_0, # of connection points: 6
#     Node 10, Type 1, BuildingBlock: BETDIP_clean_sbu_0, # of connection points: 6
#     Node 11, Type 1, BuildingBlock: BETDIP_clean_sbu_0, # of connection points: 6
#     Edge 12, Type (0, 1), BuildingBlock: XUDNAN_clean_linker_2, # of connection points: 2
#     Edge 13, Type (0, 1), BuildingBlock: XUDNAN_clean_linker_2, # of connection points: 2
#     Edge 14, Type (0, 1), BuildingBlock: XUDNAN_clean_linker_2, # of connection points: 2
#     Edge 15, Type (0, 1), BuildingBlock: XUDNAN_clean_linker_2, # of connection points: 2
#     Edge 16, Type (0, 1), BuildingBlock: XUDNAN_clean_linker_2, # of connection points: 2
#     Edge 17, Type (0, 1), BuildingBlock: XUDNAN_clean_linker_2, # of connection points: 2
#     Edge 18, Type (0, 1), BuildingBlock: XUDNAN_clean_linker_2, # of connection points: 2
#     Edge 19, Type (0, 1), BuildingBlock: XUDNAN_clean_linker_2, # of connection points: 2
#     Edge 20, Type (0, 1), BuildingBlock: XUDNAN_clean_linker_2, # of connection points: 2
#     Edge 21, Type (0, 1), BuildingBlock: XUDNAN_clean_linker_2, # of connection points: 2
#     Edge 22, Type (0, 1), BuildingBlock: XUDNAN_clean_linker_2, # of connection points: 2
#     Edge 23, Type (0, 1), BuildingBlock: XUDNAN_clean_linker_2, # of connection points: 2
#     Edge 24, Type (0, 1), BuildingBlock: XUDNAN_clean_linker_2, # of connection points: 2
#     Edge 25, Type (0, 1), BuildingBlock: XUDNAN_clean_linker_2, # of connection points: 2
#     Edge 26, Type (0, 1), BuildingBlock: XUDNAN_clean_linker_2, # of connection points: 2
#     Edge 27, Type (0, 1), BuildingBlock: XUDNAN_clean_linker_2, # of connection points: 2
#     Edge 28, Type (0, 1), BuildingBlock: XUDNAN_clean_linker_2, # of connection points: 2
#     Edge 29, Type (0, 1), BuildingBlock: XUDNAN_clean_linker_2, # of connection points: 2
#     Edge 30, Type (0, 1), BuildingBlock: XUDNAN_clean_linker_2, # of connection points: 2
#     Edge 31, Type (0, 1), BuildingBlock: XUDNAN_clean_linker_2, # of connection points: 2
#     Edge 32, Type (0, 1), BuildingBlock: XUDNAN_clean_linker_2, # of connection points: 2
#     Edge 33, Type (0, 1), BuildingBlock: XUDNAN_clean_linker_2, # of connection points: 2
#     Edge 34, Type (0, 1), BuildingBlock: XUDNAN_clean_linker_2, # of connection points: 2
#     Edge 35, Type (0, 1), BuildingBlock: XUDNAN_clean_linker_2, # of connection points: 2
# Relax obj value: 0.269
# Max RMSD: 0.168
# Mean RMSD: 0.149
data_MOF--net-zzz--node1-BETDIP_clean_sbu_0--node2-BETDAH_clean_linker_0--edge1-XUDNAN_clean_linker_2
_symmetry_space_group_name_H-M    P1
_symmetry_Int_Tables_number       1
_symmetry_cell_setting            triclinic
loop_
_symmetry_equiv_pos_as_xyz
'x, y, z'
_cell_length_a     52.365891
_cell_length_b     52.59059
_cell_length_c     13.671504
_cell_angle_alpha  89.759254
_cell_angle_beta   89.713727
_cell_angle_gamma 90.208113
loop_
_atom_site_label
_atom_site_type_symbol
_atom_site_fract_x
_atom_site_fract_y
_atom_site_fract_z
_atom_type_partial_charge
H0 H 0.80684 0.47074 0.32403 0.0
H1 H 0.72971 0.48077 0.22793 0.0
H2 H 0.75735 0.52151 0.48063 0.0
C3 C 0.78834 0.4796 0.33393 0.0
C4 C 0.78509 0.49712 0.40963 0.0
C5 C 0.76852 0.47347 0.26932 0.0
C6 C 0.74474 0.48526 0.27927 0.0
C7 C 0.74034 0.50246 0.35605 0.0
C8 C 0.76057 0.5081 0.42198 0.0
N9 N 0.71594 0.51424 0.36833 0.0
C10 C 0.69616 0.51418 0.29909 0.0
H11 H 0.97238 0.80955 0.33158 0.0
H12 H 0.98227 0.73714 0.19568 0.0
H13 H 0.03171 0.75988 0.43259 0.0
C14 C 0.98217 0.79142 0.32892 0.0
C15 C 1.00325 0.78758 0.3893 0.0
C16 C 0.97469 0.77354 0.25889 0.0
C17 C 0.98751 0.7503 0.25274 0.0
C18 C 1.00758 0.74465 0.31761 0.0
C19 C 0.01556 0.76358 0.38551 0.0
N20 N 0.02064 0.72074 0.31304 0.0
C21 C 0.01443 0.70063 0.24971 0.0
H22 H 0.7258 0.05204 0.40417 0.0
H23 H 0.79842 0.03842 0.26837 0.0
H24 H 0.76858 0.98546 0.4825 0.0
C25 C 0.74324 0.041 0.40101 0.0
C26 C 0.74471 0.01826 0.45437 0.0
C27 C 0.76241 0.0483 0.33423 0.0
C28 C 0.78412 0.03308 0.32229 0.0
C29 C 0.78678 1.01058 0.37713 0.0
C30 C 0.7669 1.00319 0.44251 0.0
N31 N 0.80861 0.99456 0.36601 0.0
C32 C 0.82821 0.99732 0.29615 0.0
H33 H 0.531 0.70651 0.29099 0.0
H34 H 0.52834 0.78545 0.22277 0.0
H35 H 0.51812 0.76053 0.52256 0.0
C36 C 0.52991 0.72585 0.31756 0.0
C37 C 0.52542 0.7303 0.41735 0.0
C38 C 0.53132 0.74571 0.24891 0.0
C39 C 0.52785 0.77069 0.27813 0.0
C40 C 0.52324 0.77655 0.37657 0.0
C41 C 0.52184 0.75618 0.44652 0.0
N42 N 0.51966 0.80262 0.40453 0.0
C43 C 0.52234 0.82329 0.33888 0.0
H44 H 0.21444 0.5385 0.18321 0.0
H45 H 0.29014 0.52484 0.28935 0.0
H46 H 0.26065 0.48132 0.0468 0.0
C47 C 0.2324 0.52841 0.17732 0.0
C48 C 0.23477 0.50932 0.10707 0.0
C49 C 0.25222 0.53424 0.24237 0.0
C50 C 0.27518 0.5207 0.23732 0.0
C51 C 0.27858 0.50165 0.16638 0.0
C52 C 0.25829 0.49617 0.10072 0.0
N53 N 0.30175 0.48735 0.16127 0.0
C54 C 0.32345 0.49137 0.21944 0.0
H55 H 0.98115 0.20522 0.17497 0.0
H56 H 0.98405 0.281 0.28954 0.0
H57 H 0.03215 0.25996 0.04477 0.0
C58 C 0.98906 0.22431 0.17205 0.0
C59 C 1.00794 0.22989 0.10264 0.0
C60 C 0.98004 0.24263 0.23784 0.0
C61 C 0.99075 0.2671 0.23722 0.0
C62 C 1.00956 0.27368 0.16734 0.0
C63 C 0.01775 0.25504 0.09883 0.0
N64 N 0.02023 0.29877 0.16365 0.0
C65 C 0.01823 0.31703 0.23805 0.0
H66 H 0.31362 0.0469 0.22259 0.0
H67 H 0.23436 0.03786 0.2934 0.0
H68 H 0.26428 1.00818 0.02173 0.0
C69 C 0.29476 0.04041 0.20215 0.0
C70 C 0.29193 0.02717 0.11429 0.0
C71 C 0.27417 0.04429 0.26667 0.0
C72 C 0.24992 0.03534 0.24193 0.0
C73 C 0.24599 0.0224 0.15347 0.0
C74 C 0.2671 0.01852 0.08918 0.0
N75 N 0.22131 0.0124 0.13017 0.0
C76 C 0.19964 0.01469 0.19065 0.0
H77 H 0.55295 0.3016 0.16981 0.0
H78 H 0.54704 0.22621 0.28869 0.0
H79 H 0.4973 0.24977 0.05362 0.0
C80 C 0.54418 0.28289 0.16879 0.0
C81 C 0.52428 0.27836 0.10323 0.0
C82 C 0.55264 0.26418 0.23458 0.0
C83 C 0.54065 0.24034 0.23655 0.0
C84 C 0.52058 0.23476 0.17192 0.0
C85 C 0.51274 0.25381 0.10369 0.0
N86 N 0.508 0.21043 0.17556 0.0
C87 C 0.51147 0.19208 0.24984 0.0
Tb88 Tb 0.02914 1.00195 0.82995 0.0
Tb89 Tb 0.99923 0.01561 0.66283 0.0
C90 C 0.04013 0.99099 1.00249 0.0
C91 C 0.02809 0.97009 0.0594 0.0
C92 C 1.00227 0.97179 0.08763 0.0
C93 C 0.98806 0.94984 0.10712 0.0
C94 C 0.99937 0.92576 0.09927 0.0
C95 C 0.02603 0.92445 0.08562 0.0
C96 C 0.04024 0.9464 0.06542 0.0
C97 C 0.05791 1.0071 0.6704 0.0
C98 C 0.01394 0.95804 0.69281 0.0
C99 C 0.97528 0.02528 0.50892 0.0
C100 C 0.95774 0.04663 0.49115 0.0
C101 C 0.96037 0.06135 0.40602 0.0
C102 C 0.94875 0.0852 0.39995 0.0
C103 C 0.93459 0.09472 0.47951 0.0
C104 C 0.93022 0.07907 0.56111 0.0
C105 C 0.94156 0.05515 0.56662 0.0
C106 C 0.97254 1.01084 0.82879 0.0
C107 C 0.01769 0.06113 0.79117 0.0
O108 O 0.02505 1.00986 0.97938 0.0
O109 O 0.05408 0.98384 0.92778 0.0
O110 O 0.03898 0.02073 0.69368 0.0
O111 O 0.06275 0.99191 0.74256 0.0
O112 O 0.01618 0.96427 0.78574 0.0
O113 O 1.01098 0.97629 0.62684 0.0
O114 O 0.99911 0.03193 0.5223 0.0
O115 O 0.96764 1.00837 0.57314 0.0
O116 O 0.98977 0.99622 0.79754 0.0
O117 O 0.96991 0.02901 0.76614 0.0
O118 O 1.00815 0.05457 0.70556 0.0
O119 O 0.02612 0.04354 0.85279 0.0
H120 H 0.99234 0.98983 0.08628 0.0
H121 H 0.96784 0.95181 0.12084 0.0
H122 H 0.03579 0.90634 0.08509 0.0
H123 H 0.06025 0.94453 0.04645 0.0
H124 H 0.97283 0.05522 0.34723 0.0
H125 H 0.95261 0.097 0.33638 0.0
H126 H 0.91926 0.08592 0.62297 0.0
H127 H 0.93891 0.04411 0.63281 0.0
Tb128 Tb 0.52782 0.01901 0.89157 0.0
Tb129 Tb 0.51217 0.9947 0.70436 0.0
C130 C 0.54806 0.02589 0.05374 0.0
C131 C 0.57114 0.041 0.07594 0.0
C132 C 0.59346 0.02831 0.10393 0.0
C133 C 0.61676 0.04119 0.10575 0.0
C134 C 0.61819 0.06711 0.08072 0.0
C135 C 0.5957 0.08027 0.05861 0.0
C136 C 0.57234 0.06728 0.05547 0.0
C137 C 0.52436 0.05619 0.75722 0.0
C138 C 0.57023 1.0045 0.72864 0.0
C139 C 0.48889 0.9841 0.55119 0.0
C140 C 0.46443 0.99504 0.52027 0.0
C141 C 0.46058 0.02142 0.52704 0.0
C142 C 0.43599 0.03131 0.52839 0.0
C143 C 0.41474 0.01502 0.52376 0.0
C144 C 0.41868 0.98889 0.50789 0.0
C145 C 0.44337 0.97898 0.50631 0.0
C146 C 0.52604 0.96245 0.84515 0.0
C147 C 0.46932 0.01455 0.85382 0.0
O148 O 0.55229 1.00559 1.0005 0.0
O149 O 0.52786 0.03856 0.02491 0.0
O150 O 0.52031 0.03266 0.7453 0.0
O151 O 0.53006 0.05906 0.84825 0.0
O152 O 0.56507 1.01051 0.82089 0.0
O153 O 0.55202 0.99948 0.66531 0.0
O154 O 0.50841 0.99978 0.55292 0.0
O155 O 0.48729 0.97018 0.63065 0.0
O156 O 0.51278 0.98233 0.85534 0.0
O157 O 0.53127 0.95989 0.75304 0.0
O158 O 0.47602 1.01019 0.76178 0.0
O159 O 0.48679 0.01574 0.92326 0.0
H160 H 0.59308 1.00812 0.12012 0.0
H161 H 0.63379 0.03077 0.12565 0.0
H162 H 0.59633 0.10032 0.04031 0.0
H163 H 0.55549 0.07764 0.03333 0.0
H164 H 0.47638 0.03432 0.53904 0.0
H165 H 0.4337 0.05151 0.54055 0.0
H166 H 0.40269 0.97595 0.50036 0.0
H167 H 0.44591 0.95858 0.50117 0.0
Tb168 Tb 0.49723 0.50574 0.82209 0.0
Tb169 Tb 0.53126 0.49768 0.66287 0.0
C170 C 0.47839 0.52571 0.97065 0.0
C171 C 0.48557 0.5515 1.00052 0.0
C172 C 0.51113 0.55905 0.98783 0.0
C173 C 0.51742 0.58452 0.97752 0.0
C174 C 0.49854 0.60333 0.98496 0.0
C175 C 0.47329 0.59584 0.00778 0.0
C176 C 0.46679 0.57006 0.01396 0.0
C177 C 0.47271 0.49248 0.6604 0.0
C178 C 0.51539 0.5536 0.68867 0.0
C179 C 0.55491 0.47963 0.51905 0.0
C180 C 0.56516 0.45384 0.50505 0.0
C181 C 0.54935 0.43253 0.51926 0.0
C182 C 0.55977 0.40828 0.52381 0.0
C183 C 0.58619 0.40473 0.5135 0.0
C184 C 0.60196 0.42582 0.49395 0.0
C185 C 0.5915 0.45028 0.49046 0.0
C186 C 0.55505 0.51347 0.82222 0.0
C187 C 0.51282 0.44964 0.79757 0.0
O188 O 0.49666 0.50887 0.9752 0.0
O189 O 0.46639 0.52484 0.8872 0.0
O190 O 0.49169 0.50736 0.6663 0.0
O191 O 0.46674 0.48484 0.74795 0.0
O192 O 0.50794 0.54517 0.77603 0.0
O193 O 0.52298 0.5371 0.62213 0.0
O194 O 0.53 0.48179 0.52237 0.0
O195 O 0.56595 0.49256 0.58829 0.0
O196 O 0.53733 0.49702 0.81916 0.0
O197 O 0.55991 0.5212 0.73427 0.0
O198 O 0.52361 0.45799 0.71512 0.0
O199 O 0.50197 0.46578 0.85803 0.0
H200 H 0.52608 0.54523 0.97585 0.0
H201 H 0.53695 0.58911 0.95808 0.0
H202 H 0.45834 0.60975 0.01765 0.0
H203 H 0.44693 0.56464 0.02292 0.0
H204 H 0.52895 0.43458 0.52977 0.0
H205 H 0.54709 0.3922 0.53523 0.0
H206 H 0.62233 0.42341 0.48366 0.0
H207 H 0.60406 0.46647 0.47942 0.0
Tb208 Tb 1.00554 0.49364 0.84165 0.0
Tb209 Tb 0.015 0.51972 0.67198 0.0
C210 C 0.98503 0.47431 0.9907 0.0
C211 C 0.96125 0.45954 0.99323 0.0
C212 C 0.9467 0.45785 0.07905 0.0
C213 C 0.92213 0.44741 0.07629 0.0
C214 C 0.91178 0.43874 0.98738 0.0
C215 C 0.92696 0.43937 0.90263 0.0
C216 C 0.95153 0.4496 0.90563 0.0
C217 C 0.01982 0.4623 0.6988 0.0
C218 C 0.95899 0.50478 0.69569 0.0
C219 C 0.03547 0.53931 0.52314 0.0
C220 C 0.05957 0.55357 0.51923 0.0
C221 C 0.07379 0.55489 0.43252 0.0
C222 C 0.0986 0.56479 0.43357 0.0
C223 C 0.10952 0.57334 0.52166 0.0
C224 C 0.09467 0.57311 0.60733 0.0
C225 C 0.06988 0.56336 0.60607 0.0
C226 C 1.00115 0.55065 0.81691 0.0
C227 C 0.06153 0.50815 0.81743 0.0
O228 O 0.98222 0.49814 0.96584 0.0
O229 O 1.00384 0.46371 0.94348 0.0
O230 O 1.00418 0.4805 0.69001 0.0
O231 O 0.02783 0.46191 0.78772 0.0
O232 O 0.96642 0.50134 0.78708 0.0
O233 O 0.9765 0.50874 0.62777 0.0
O234 O 0.03786 0.51535 0.54649 0.0
O235 O 0.01713 0.55012 0.57231 0.0
O236 O 0.01686 0.53254 0.82331 0.0
O237 O 0.99255 0.55134 0.72879 0.0
O238 O 0.05412 0.51158 0.72595 0.0
O239 O 0.04398 0.50462 0.88552 0.0
H240 H 0.95384 0.46563 0.14693 0.0
H241 H 0.91067 0.44757 0.1425 0.0
H242 H 0.91946 0.43285 0.83337 0.0
H243 H 0.96251 0.4508 0.83838 0.0
H244 H 0.0662 0.54721 0.36519 0.0
H245 H 0.10974 0.5643 0.36664 0.0
H246 H 0.10256 0.57959 0.676 0.0
H247 H 0.05917 0.56242 0.67403 0.0
H248 H 0.18563 0.98636 0.35072 0.0
H249 H 0.16192 0.04918 0.16717 0.0
H250 H 0.12271 0.05412 0.26795 0.0
H251 H 0.12253 0.95945 0.38995 0.0
H252 H 0.12854 0.95054 0.51517 0.0
H253 H 0.15454 0.95203 0.42852 0.0
H254 H 0.17866 0.98336 0.54115 0.0
H255 H 0.15275 0.98194 0.62815 0.0
H256 H 0.16315 0.01221 0.57973 0.0
H257 H 0.08565 0.0521 0.39127 0.0
H258 H 0.05475 0.04356 0.5257 0.0
H259 H 0.10253 0.98196 0.62867 0.0
C260 C 0.17213 1.00113 0.332 0.0
C261 C 0.17673 0.01743 0.2512 0.0
C262 C 0.15871 0.03653 0.2288 0.0
C263 C 0.13638 0.03944 0.28567 0.0
C264 C 0.13228 0.02307 0.36501 0.0
C265 C 0.14969 1.00427 0.38817 0.0
C266 C 0.14082 0.98921 0.4773 0.0
C267 C 0.13634 0.96114 0.45114 0.0
C268 C 0.15999 0.99185 0.56157 0.0
C269 C 0.1158 1.00247 0.50102 0.0
C270 C 0.11114 0.02194 0.43535 0.0
C271 C 0.08919 0.03689 0.44294 0.0
C272 C 0.07169 0.03191 0.51956 0.0
C273 C 0.07614 0.01214 0.58801 0.0
C274 C 0.09852 0.99725 0.57777 0.0
H275 H 0.50855 0.13918 0.25272 0.0
H276 H 0.52061 0.20528 0.43553 0.0
H277 H 0.52472 0.17735 0.58022 0.0
H278 H 0.47127 0.10247 0.43114 0.0
H279 H 0.48509 0.07222 0.39998 0.0
H280 H 0.48307 0.09701 0.30892 0.0
H281 H 0.53178 0.094 0.27867 0.0
H282 H 0.53388 0.0692 0.3696 0.0
H283 H 0.55334 0.09738 0.38021 0.0
H284 H 0.52708 0.14347 0.70474 0.0
H285 H 0.52871 0.10521 0.80631 0.0
H286 H 0.51599 0.0582 0.55047 0.0
C287 C 0.51213 0.14764 0.32341 0.0
C288 C 0.51433 0.17454 0.33302 0.0
C289 C 0.51893 0.18488 0.42643 0.0
C290 C 0.52125 0.1691 0.5091 0.0
C291 C 0.51894 0.14281 0.49785 0.0
C292 C 0.51455 0.13197 0.40766 0.0
C293 C 0.51301 0.10293 0.41789 0.0
C294 C 0.48654 0.09308 0.38766 0.0
C295 C 0.53427 0.09012 0.35802 0.0
C296 C 0.51723 0.09928 0.5278 0.0
C297 C 0.52049 0.12276 0.57143 0.0
C298 C 0.52457 0.12502 0.67132 0.0
C299 C 0.52545 0.10294 0.72865 0.0
C300 C 0.52233 0.07837 0.68758 0.0
C301 C 0.51815 0.07656 0.5849 0.0
H302 H 0.33602 0.4727 0.40079 0.0
H303 H 0.3654 0.51661 0.15602 0.0
H304 H 0.40717 0.52068 0.23927 0.0
H305 H 0.36857 0.50808 0.59099 0.0
H306 H 0.37475 0.48042 0.66538 0.0
H307 H 0.34732 0.48107 0.58645 0.0
H308 H 0.36257 0.43954 0.50398 0.0
H309 H 0.39013 0.43886 0.58226 0.0
H310 H 0.39416 0.4382 0.45128 0.0
H311 H 0.44617 0.51973 0.35006 0.0
H312 H 0.47836 0.5153 0.48098 0.0
H313 H 0.42402 0.4719 0.65498 0.0
C314 C 0.35126 0.48327 0.36524 0.0
C315 C 0.34751 0.49449 0.27209 0.0
C316 C 0.36788 0.50802 0.2275 0.0
C317 C 0.39169 0.51035 0.27422 0.0
C318 C 0.39494 0.49898 0.36585 0.0
C319 C 0.37524 0.48579 0.41115 0.0
C320 C 0.38373 0.47551 0.50998 0.0
C321 C 0.36764 0.48696 0.59311 0.0
C322 C 0.38258 0.44629 0.51195 0.0
C323 C 0.41121 0.485 0.51342 0.0
C324 C 0.41732 0.49844 0.42935 0.0
C325 C 0.44152 0.50923 0.41607 0.0
C326 C 0.45976 0.50656 0.49085 0.0
C327 C 0.45387 0.49322 0.57843 0.0
C328 C 0.42925 0.48211 0.58888 0.0
H329 H 0.99456 0.36397 0.25017 0.0
H330 H 0.04611 0.31299 0.401 0.0
H331 H 0.05215 0.34501 0.53076 0.0
H332 H 0.02833 0.42237 0.30526 0.0
H333 H 1.00006 0.4412 0.32436 0.0
H334 H 0.99915 0.41439 0.24283 0.0
H335 H 0.96137 0.39516 0.34098 0.0
H336 H 0.96206 0.422 0.42245 0.0
H337 H 0.96454 0.39018 0.47091 0.0
H338 H 0.05412 0.38229 0.64033 0.0
H339 H 0.04997 0.4219 0.73273 0.0
H340 H 0.99594 0.45048 0.5192 0.0
C341 C 1.00692 0.35959 0.31118 0.0
C342 C 0.01985 0.33591 0.31611 0.0
C343 C 0.03598 0.33089 0.39627 0.0
C344 C 0.03957 0.34902 0.47011 0.0
C345 C 0.02683 0.37223 0.4632 0.0
C346 C 1.01064 0.37762 0.38648 0.0
C347 C 0.99929 0.40421 0.39841 0.0
C348 C 1.00718 0.42157 0.3126 0.0
C349 C 0.97008 0.40279 0.40882 0.0
C350 C 1.0117 0.41283 0.49365 0.0
C351 C 0.02762 0.39397 0.52865 0.0
C352 C 0.04159 0.3971 0.614 0.0
C353 C 0.03907 0.41983 0.6661 0.0
C354 C 0.02252 0.43947 0.63423 0.0
C355 C 1.00874 0.43593 0.54586 0.0
H356 H 0.85357 0.03545 0.19433 0.0
H357 H 0.85201 0.95417 0.2469 0.0
H358 H 0.88925 0.94881 0.13679 0.0
H359 H 0.871 0.03249 0.93803 0.0
H360 H 0.89182 0.05984 0.94156 0.0
H361 H 0.86528 0.05742 0.0255 0.0
H362 H 0.89616 0.06296 0.17136 0.0
H363 H 0.9228 0.0653 0.08782 0.0
H364 H 0.92292 0.04175 0.18396 0.0
H365 H 0.92669 0.95208 0.01996 0.0
H366 H 0.96128 0.96374 0.90394 0.0
H367 H 0.93869 0.04282 0.92181 0.0
C368 C 0.86111 0.01658 0.18221 0.0
C369 C 0.84988 0.99513 0.22881 0.0
C370 C 0.86028 0.97077 0.21162 0.0
C371 C 0.88147 0.96757 0.14931 0.0
C372 C 0.8922 0.98896 0.10427 0.0
C373 C 0.88239 0.01303 0.11971 0.0
C374 C 0.89756 0.03275 0.06149 0.0
C375 C 0.88039 0.04643 0.98724 0.0
C376 C 0.91063 0.05181 0.13026 0.0
C377 C 0.91715 0.016 0.01028 0.0
C378 C 0.9138 0.99082 0.03668 0.0
C379 C 0.92952 0.97177 0.99914 0.0
C380 C 0.9492 0.97856 0.93335 0.0
C381 C 0.95282 1.00416 0.90393 0.0
C382 C 0.93647 0.02307 0.94316 0.0
H383 H 0.49604 0.8683 0.30553 0.0
H384 H 0.5594 0.82274 0.20221 0.0
H385 H 0.56787 0.85416 0.0709 0.0
H386 H 0.47387 0.88864 0.06836 0.0
H387 H 0.46581 0.92048 0.10549 0.0
H388 H 0.46488 0.89488 0.19343 0.0
H389 H 0.49587 0.91976 0.30483 0.0
H390 H 0.49692 0.94541 0.21702 0.0
H391 H 0.52611 0.93053 0.25617 0.0
H392 H 0.56861 0.88921 0.94617 0.0
H393 H 0.56211 0.92598 0.83681 0.0
H394 H 0.49918 0.95125 0.01902 0.0
C395 C 0.51178 0.86511 0.25545 0.0
C396 C 0.52712 0.84296 0.26409 0.0
C397 C 0.54743 0.83945 0.19705 0.0
C398 C 0.55239 0.85726 0.12218 0.0
C399 C 0.53699 0.87881 0.115 0.0
C400 C 0.51714 0.88297 0.17994 0.0
C401 C 0.50345 0.90775 0.15425 0.0
C402 C 0.47533 0.90262 0.12888 0.0
C403 C 0.50573 0.927 0.23807 0.0
C404 C 0.51851 0.91663 0.06428 0.0
C405 C 0.53776 0.89952 0.04343 0.0
C406 C 0.55373 0.9028 0.9624 0.0
C407 C 0.54987 0.92382 0.90046 0.0
C408 C 0.53032 0.94174 0.91914 0.0
C409 C 0.51457 0.93817 1.00327 0.0
H410 H 0.65909 0.4799 0.23906 0.0
H411 H 0.68577 0.55752 0.20402 0.0
H412 H 0.65042 0.56619 0.08953 0.0
H413 H 0.64042 0.47051 0.98836 0.0
H414 H 0.61236 0.4519 0.01689 0.0
H415 H 0.63908 0.45189 0.09932 0.0
H416 H 0.6093 0.46596 0.24056 0.0
H417 H 0.58251 0.46618 0.15825 0.0
H418 H 0.59042 0.49432 0.22671 0.0
H419 H 0.61368 0.56638 0.9745 0.0
H420 H 0.57864 0.55774 0.85942 0.0
H421 H 0.57365 0.48009 0.96578 0.0
C422 C 0.65737 0.49869 0.2071 0.0
C423 C 0.67523 0.51813 0.23006 0.0
C424 C 0.67238 0.54242 0.18715 0.0
C425 C 0.65228 0.54753 0.12234 0.0
C426 C 0.63493 0.52813 0.10101 0.0
C427 C 0.6372 0.50415 0.14171 0.0
C428 C 0.61617 0.48665 0.1034 0.0
C429 C 0.6277 0.46389 0.04874 0.0
C430 C 0.59856 0.47775 0.18723 0.0
C431 C 0.60212 0.50443 0.0335 0.0
C432 C 0.61328 0.52832 0.03443 0.0
C433 C 0.6047 0.54782 0.97375 0.0
C434 C 0.58472 0.54274 0.90859 0.0
C435 C 0.57316 0.5184 0.90412 0.0
C436 C 0.58169 0.49906 0.96899 0.0
H437 H 0.04223 0.65721 0.21403 0.0
H438 H 0.97207 0.69598 0.13874 0.0
H439 H 0.96078 0.66103 0.02671 0.0
H440 H 0.05586 0.63245 0.97368 0.0
H441 H 0.06783 0.60232 0.01651 0.0
H442 H 0.0704 0.63008 0.09263 0.0
H443 H 0.04652 0.60638 0.23203 0.0
H444 H 0.04382 0.57857 0.15612 0.0
H445 H 0.01558 0.59259 0.20872 0.0
H446 H 0.95753 0.62296 0.91854 0.0
H447 H 0.96227 0.58405 0.82043 0.0
H448 H 0.03391 0.56769 0.96516 0.0
C449 C 0.02447 0.65821 0.17399 0.0
C450 C 1.00803 0.67946 0.18473 0.0
C451 C 0.985 0.68009 0.13137 0.0
C452 C 0.97839 0.66022 0.06768 0.0
C453 C 0.99492 0.63958 0.05827 0.0
C454 C 0.01748 0.63831 0.11004 0.0
C455 C 0.03184 0.61392 0.08497 0.0
C456 C 0.05804 0.62007 0.03922 0.0
C457 C 0.0346 0.59686 0.17588 0.0
C458 C 0.01396 0.6019 0.01028 0.0
C459 C 0.99279 0.61714 0.99652 0.0
C460 C 0.97393 0.61082 0.9293 0.0
C461 C 0.9768 0.58861 0.87378 0.0
C462 C 0.99829 0.57261 0.8853 0.0
C463 C 0.01703 0.57926 0.95563 0.0
H464 H 0.93552 0.21933 0.19835 0.0
H465 H 0.98224 0.24556 0.4372 0.0
H466 H 0.96064 0.21534 0.54836 0.0
H467 H 0.87783 0.1906 0.35324 0.0
H468 H 0.87712 0.16405 0.27034 0.0
H469 H 0.88462 0.1955 0.22513 0.0
H470 H 0.92651 0.17808 0.15004 0.0
H471 H 0.91959 0.14702 0.19629 0.0
H472 H 0.94922 0.16236 0.22833 0.0
H473 H 0.94764 0.17412 0.61412 0.0
H474 H 0.946 0.12749 0.62609 0.0
H475 H 0.91152 0.12359 0.33958 0.0
C476 C 0.93985 0.21968 0.2757 0.0
C477 C 0.9604 0.23455 0.30968 0.0
C478 C 0.96626 0.23452 0.41027 0.0
C479 C 0.95409 0.21724 0.47375 0.0
C480 C 0.93627 0.20018 0.43502 0.0
C481 C 0.92887 0.20155 0.33791 0.0
C482 C 0.91558 0.17732 0.30595 0.0
C483 C 0.88709 0.18216 0.28764 0.0
C484 C 0.92853 0.16553 0.21501 0.0
C485 C 0.91926 0.16107 0.39617 0.0
C486 C 0.92986 0.17501 0.47173 0.0
C487 C 0.93853 0.16326 0.55691 0.0
C488 C 0.93753 0.1367 0.56312 0.0
C489 C 0.92845 0.12212 0.4837 0.0
C490 C 0.91814 0.13451 0.40152 0.0
H491 H 0.30247 0.08513 0.31879 0.0
H492 H 0.26001 0.0217 0.43805 0.0
H493 H 0.28944 0.01911 0.57542 0.0
H494 H 0.35258 0.06026 0.30579 0.0
H495 H 0.37528 0.08426 0.34143 0.0
H496 H 0.34472 0.09365 0.29828 0.0
H497 H 0.33681 0.1187 0.45865 0.0
H498 H 0.36792 0.1092 0.50133 0.0
H499 H 0.33999 0.10294 0.57527 0.0
H500 H 0.33062 1.00694 0.63218 0.0
H501 H 0.37504 0.99245 0.62341 0.0
H502 H 0.39554 0.06011 0.45879 0.0
C503 C 0.29865 0.07204 0.37842 0.0
C504 C 0.27985 0.0531 0.36685 0.0
C505 C 0.27455 0.03627 0.44502 0.0
C506 C 0.29147 0.03458 0.52347 0.0
C507 C 0.31336 0.04983 0.52192 0.0
C508 C 0.31652 0.06923 0.45334 0.0
C509 C 0.34419 0.0779 0.44811 0.0
C510 C 0.35473 0.079 0.3422 0.0
C511 C 0.34741 0.10371 0.49893 0.0
C512 C 0.35655 0.05705 0.50746 0.0
C513 C 0.33845 0.04214 0.55488 0.0
C514 C 0.34495 0.01902 0.59839 0.0
C515 C 0.37016 1.01058 0.59084 0.0
C516 C 0.38868 0.02512 0.53946 0.0
C517 C 0.38188 0.04899 0.50059 0.0
H518 H 0.59668 0.29011 0.20224 0.0
H519 H 0.55104 0.25588 0.43206 0.0
H520 H 0.57219 0.28288 0.55318 0.0
H521 H 0.6537 0.31585 0.37242 0.0
H522 H 0.65425 0.34443 0.29925 0.0
H523 H 0.64826 0.31408 0.24254 0.0
H524 H 0.60652 0.33192 0.16916 0.0
H525 H 0.6121 0.36184 0.2259 0.0
H526 H 0.58261 0.34502 0.24983 0.0
H527 H 0.58165 0.32261 0.63101 0.0
H528 H 0.57799 0.36877 0.65417 0.0
H529 H 0.61515 0.38191 0.37551 0.0
C530 C 0.59234 0.2875 0.27913 0.0
C531 C 0.5721 0.27135 0.30793 0.0
C532 C 0.56664 0.26806 0.4084 0.0
C533 C 0.57863 0.28347 0.47786 0.0
C534 C 0.59592 0.30203 0.4455 0.0
C535 C 0.60327 0.30374 0.34804 0.0
C536 C 0.61595 0.32911 0.32587 0.0
C537 C 0.64475 0.32565 0.30909 0.0
C538 C 0.6035 0.34274 0.23776 0.0
C539 C 0.61094 0.3428 0.42114 0.0
C540 C 0.60095 0.32636 0.49132 0.0
C541 C 0.5903 0.33542 0.57818 0.0
C542 C 0.58813 0.3617 0.59064 0.0
C543 C 0.59637 0.37862 0.51626 0.0
C544 C 0.60941 0.36915 0.43401 0.0
H545 H 0.23122 0.58087 0.22566 0.0
H546 H 0.25859 0.52661 0.43826 0.0
H547 H 0.23082 0.54544 0.56347 0.0
H548 H 0.206 0.63369 0.41246 0.0
H549 H 0.17855 0.63773 0.33498 0.0
H550 H 0.20946 0.63148 0.28152 0.0
H551 H 0.19007 0.59315 0.18946 0.0
H552 H 0.15957 0.59874 0.2437 0.0
H553 H 0.17451 0.56813 0.25838 0.0
H554 H 0.19028 0.55564 0.63921 0.0
H555 H 0.14362 0.5564 0.65695 0.0
H556 H 0.13777 0.60156 0.39268 0.0
C557 C 0.2324 0.57422 0.30056 0.0
C558 C 0.24666 0.55226 0.32252 0.0
C559 C 0.24792 0.54359 0.42018 0.0
C560 C 0.232 0.55418 0.49178 0.0
C561 C 0.215 0.57333 0.46415 0.0
C562 C 0.21549 0.58372 0.37069 0.0
C563 C 0.1912 0.59832 0.34937 0.0
C564 C 0.19663 0.62701 0.34435 0.0
C565 C 0.1781 0.58897 0.25486 0.0
C566 C 0.17571 0.59171 0.43961 0.0
C567 C 0.19022 0.57856 0.50742 0.0
C568 C 0.17901 0.56674 0.58858 0.0
C569 C 0.15238 0.56722 0.59808 0.0
C570 C 0.13719 0.57909 0.5259 0.0
C571 C 0.14912 0.59257 0.44895 0.0
H572 H 0.98832 0.78179 0.07289 0.0
H573 H 0.92499 0.78911 0.27289 0.0
H574 H 0.91609 0.83168 0.20863 0.0
H575 H 0.01568 0.82893 0.11687 0.0
H576 H 0.02659 0.84156 1.00109 0.0
H577 H 0.01937 0.80849 0.01189 0.0
H578 H 0.98658 0.8108 0.87217 0.0
H579 H 0.99443 0.84395 0.85611 0.0
H580 H 0.96172 0.83441 0.875 0.0
H581 H 0.92921 0.8761 0.19766 0.0
H582 H 0.95411 0.91572 0.1981 0.0
H583 H 1.00813 0.88235 0.99429 0.0
C584 C 0.97113 0.79151 0.09582 0.0
C585 C 0.95802 0.78301 0.18002 0.0
C586 C 0.93547 0.79566 0.20898 0.0
C587 C 0.93057 0.82018 0.17373 0.0
C588 C 0.94752 0.83073 0.10555 0.0
C589 C 0.9665 0.81624 0.06169 0.0
C590 C 0.98541 0.83306 0.00695 0.0
C591 C 1.01336 0.82768 0.0362 0.0
C592 C 0.98181 0.8304 0.89599 0.0
C593 C 0.9768 0.85894 0.04138 0.0
C594 C 0.95447 0.85736 0.09536 0.0
C595 C 0.94585 0.87787 0.15089 0.0
C596 C 0.96032 0.90037 0.1513 0.0
C597 C 0.98331 0.90231 0.09661 0.0
C598 C 0.99094 0.8815 0.0384 0.0
H599 H 0.75629 0.04198 0.14241 0.0
H600 H 0.75089 0.09797 0.37091 0.0
H601 H 0.71801 0.12075 0.27836 0.0
H602 H 0.72714 0.08736 0.92574 0.0
H603 H 0.71193 0.05904 0.88034 0.0
H604 H 0.74361 0.05734 0.93024 0.0
H605 H 0.72724 0.02164 0.04596 0.0
H606 H 0.69561 0.0245 1.00019 0.0
H607 H 0.70128 0.02829 0.1294 0.0
H608 H 0.67553 0.1245 0.21258 0.0
H609 H 0.63164 0.11064 0.17585 0.0
H610 H 0.66115 0.05157 0.98838 0.0
C611 C 0.74957 0.06022 0.16813 0.0
C612 C 0.7559 0.06833 0.26285 0.0
C613 C 0.74641 0.09173 0.29752 0.0
C614 C 0.72754 0.1047 0.24527 0.0
C615 C 0.7186 0.09406 0.1584 0.0
C616 C 0.73001 0.07271 0.11792 0.0
C617 C 0.71327 0.0611 0.03965 0.0
C618 C 0.72465 0.06658 0.93797 0.0
C619 C 0.70909 0.03223 0.05507 0.0
C620 C 0.68899 0.07612 0.05556 0.0
C621 C 0.69291 0.09614 0.11946 0.0
C622 C 0.67242 0.10959 0.1596 0.0
C623 C 0.64748 0.10155 0.13884 0.0
C624 C 0.64331 0.08001 0.07982 0.0
C625 C 0.66418 0.06822 0.03322 0.0
H626 H 0.56847 0.71877 0.16378 0.0
H627 H 0.4974 0.75683 0.10558 0.0
H628 H 0.48947 0.72847 0.96716 0.0
H629 H 0.5761 0.68673 0.89034 0.0
H630 H 0.58803 0.65877 0.95126 0.0
H631 H 0.59698 0.68995 0.994 0.0
H632 H 0.58097 0.67755 0.1671 0.0
H633 H 0.57162 0.64699 0.12514 0.0
H634 H 0.5483 0.66715 0.18329 0.0
H635 H 0.47846 0.68734 0.90481 0.0
H636 H 0.46834 0.64182 0.91076 0.0
H637 H 0.54406 0.62666 0.02348 0.0
C638 C 0.5523 0.72198 0.11634 0.0
C639 C 0.53339 0.7393 0.14467 0.0
C640 C 0.51213 0.74353 0.08405 0.0
C641 C 0.50751 0.72736 0.00518 0.0
C642 C 0.52432 0.70722 0.98899 0.0
C643 C 0.54704 0.70503 0.04073 0.0
C644 C 0.55799 0.67852 0.0323 0.0
C645 C 0.58113 0.6785 0.96278 0.0
C646 C 0.56503 0.66691 0.13287 0.0
C647 C 0.53559 0.66513 0.98602 0.0
C648 C 0.51724 0.68214 0.95483 0.0
C649 C 0.49307 0.67393 0.92589 0.0
C650 C 0.48725 0.64798 0.93198 0.0
C651 C 0.50538 0.63045 0.9682 0.0
C652 C 0.53002 0.63926 0.99229 0.0
H653 H 0.79021 0.42725 0.27999 0.0
H654 H 0.76244 0.48312 0.07467 0.0
H655 H 0.7905 0.46568 0.94705 0.0
H656 H 0.84676 0.44054 0.24969 0.0
H657 H 0.86187 0.4099 0.2603 0.0
H658 H 0.8313 0.41479 0.31487 0.0
H659 H 0.81226 0.37724 0.21721 0.0
H660 H 0.84325 0.3717 0.16326 0.0
H661 H 0.81583 0.3763 0.08607 0.0
H662 H 0.83108 0.45621 0.86974 0.0
H663 H 0.87779 0.45599 0.85261 0.0
H664 H 0.88386 0.409 0.11181 0.0
C665 C 0.78899 0.43451 0.20593 0.0
C666 C 0.7745 0.45646 0.18666 0.0
C667 C 0.77327 0.46608 0.09036 0.0
C668 C 0.78933 0.45628 0.01749 0.0
C669 C 0.80642 0.43697 0.04262 0.0
C670 C 0.80597 0.42575 0.13469 0.0
C671 C 0.83034 0.41114 0.15429 0.0
C672 C 0.8433 0.41966 0.25024 0.0
C673 C 0.8251 0.38238 0.1552 0.0
C674 C 0.84583 0.41869 0.0652 0.0
C675 C 0.83125 0.43227 0.99886 0.0
C676 C 0.84241 0.44483 0.91924 0.0
C677 C 0.86905 0.44468 0.91011 0.0
C678 C 0.88427 0.43249 0.98133 0.0
C679 C 0.87245 0.41824 0.05634 0.0
H680 H 0.02149 0.18117 0.15268 0.0
H681 H 1.01059 0.23009 0.90073 0.0
H682 H 0.01415 0.19254 0.792 0.0
H683 H 0.06638 0.1358 0.03757 0.0
H684 H 0.05257 0.10903 0.10172 0.0
H685 H 0.05222 0.1401 0.15681 0.0
H686 H 1.00312 0.13688 0.17718 0.0
H687 H 1.00323 0.10599 0.12102 0.0
H688 H 0.98361 0.13096 0.07142 0.0
H689 H 1.01349 0.14816 0.71288 0.0
H690 H 1.01276 0.10258 0.66962 0.0
H691 H 0.02461 0.08262 0.97416 0.0
C692 C 0.02054 0.18412 0.07434 0.0
C693 C 0.01596 0.20878 0.03532 0.0
C694 C 0.01455 0.21163 0.93245 0.0
C695 C 0.0163 0.19028 0.87024 0.0
C696 C 0.01971 0.16614 0.91172 0.0
C697 C 0.02223 0.16308 0.01157 0.0
C698 C 0.02451 0.1351 0.03892 0.0
C699 C 0.05047 0.12969 0.08656 0.0
C700 C 1.0023 0.12675 0.10608 0.0
C701 C 0.02261 0.1227 0.93904 0.0
C702 C 0.01975 0.1409 0.86653 0.0
C703 C 0.01617 0.13389 0.76914 0.0
C704 C 0.0157 0.10783 0.74525 0.0
C705 C 0.01895 0.08878 0.818 0.0
C706 C 0.02253 0.09655 0.91624 0.0
H707 H 0.33953 1.01146 0.17642 0.0
H708 H 0.29858 0.03357 0.91474 0.0
H709 H 0.33931 0.03291 0.82117 0.0
H710 H 0.39448 0.04941 0.13525 0.0
H711 H 0.41695 0.02655 0.18204 0.0
H712 H 0.38459 0.02671 0.22718 0.0
H713 H 0.379 0.97952 0.18048 0.0
H714 H 0.41151 0.97886 0.13679 0.0
H715 H 0.38583 0.96953 0.05712 0.0
H716 H 0.38553 0.03379 0.76057 0.0
H717 H 0.43178 0.02972 0.72946 0.0
H718 H 0.44332 1.00748 0.03145 0.0
C719 C 0.339 0.01594 0.09908 0.0
C720 C 0.31558 0.02267 0.05319 0.0
C721 C 0.31598 0.02812 0.95164 0.0
C722 C 0.33916 0.02803 0.89815 0.0
C723 C 0.36192 0.02227 0.94678 0.0
C724 C 0.36193 0.01592 0.04479 0.0
C725 C 0.38898 1.01065 0.08027 0.0
C726 C 0.3967 0.02946 0.16093 0.0
C727 C 0.39147 0.983 0.11574 0.0
C728 C 0.40437 0.01518 0.98699 0.0
C729 C 0.38834 0.02195 0.91109 0.0
C730 C 0.39805 0.02763 0.81848 0.0
C731 C 0.42448 0.0254 0.80168 0.0
C732 C 0.44142 0.01797 0.87713 0.0
C733 C 0.43107 0.01317 0.97175 0.0
H734 H 0.51242 0.32741 0.15567 0.0
H735 H 0.52096 0.27939 0.90116 0.0
H736 H 0.5179 0.31756 0.79396 0.0
H737 H 0.46756 0.37355 0.04705 0.0
H738 H 0.48181 0.39998 0.11049 0.0
H739 H 0.48235 0.36866 0.16441 0.0
H740 H 0.55049 0.37799 0.0712 0.0
H741 H 0.53154 0.37164 0.17902 0.0
H742 H 0.53123 0.40279 0.12393 0.0
H743 H 0.51839 0.36278 0.71533 0.0
H744 H 0.51781 0.40864 0.67382 0.0
H745 H 0.50837 0.42692 0.98041 0.0
C746 C 0.51297 0.32479 0.07716 0.0
C747 C 0.51665 0.30013 0.03709 0.0
C748 C 0.51764 0.2978 0.93391 0.0
C749 C 0.5162 0.31952 0.87249 0.0
C750 C 0.5135 0.34361 0.91486 0.0
C751 C 0.51146 0.34621 0.01511 0.0
C752 C 0.50943 0.37411 0.04343 0.0
C753 C 0.48376 0.37938 0.09435 0.0
C754 C 0.53201 0.38209 0.10821 0.0
C755 C 0.51083 0.38701 0.94373 0.0
C756 C 0.51336 0.36915 0.87032 0.0
C757 C 0.51611 0.37674 0.77263 0.0
C758 C 0.516 0.40298 0.74956 0.0
C759 C 0.51306 0.42169 0.8232 0.0
C760 C 0.51037 0.4133 0.9217 0.0
H761 H 0.18488 0.50263 0.16531 0.0
H762 H 0.23255 0.5054 0.90545 0.0
H763 H 0.1936 0.50483 0.8023 0.0
H764 H 0.13438 0.46162 0.06762 0.0
H765 H 0.10951 0.4785 0.13145 0.0
H766 H 0.14113 0.47696 0.18235 0.0
H767 H 0.14259 0.52613 0.19035 0.0
H768 H 0.11114 0.52788 0.1382 0.0
H769 H 0.13742 0.54445 0.08057 0.0
H770 H 0.14839 0.50792 0.72836 0.0
H771 H 0.10236 0.51024 0.69035 0.0
H772 H 0.08437 0.50525 0.99998 0.0
C773 C 0.18721 0.50265 0.08655 0.0
C774 C 0.21196 0.50396 0.04362 0.0
C775 C 0.21397 0.50401 0.94025 0.0
C776 C 0.19187 0.50395 0.88116 0.0
C777 C 0.16779 0.50364 0.9263 0.0
C778 C 0.16542 0.50262 0.02688 0.0
C779 C 0.13752 0.50315 0.05821 0.0
C780 C 0.13021 0.47859 0.11314 0.0
C781 C 0.13184 0.5268 0.12049 0.0
C782 C 0.12434 0.50468 0.95963 0.0
C783 C 0.14211 0.5051 0.88433 0.0
C784 C 0.13444 0.50728 0.787 0.0
C785 C 0.10812 0.50866 0.76609 0.0
C786 C 0.08947 0.50772 0.84185 0.0
C787 C 0.09794 0.50582 0.94 0.0
H788 H 1.00796 0.83758 0.33233 0.0
H789 H 0.01677 0.78856 0.58563 0.0
H790 H 0.02256 0.82678 0.68973 0.0
H791 H 0.05177 0.88866 0.40338 0.0
H792 H 0.03123 0.91316 0.35578 0.0
H793 H 0.03116 0.88206 0.30118 0.0
H794 H 0.98239 0.87834 0.32953 0.0
H795 H 0.98242 0.90965 0.38232 0.0
H796 H 0.96949 0.88309 0.45045 0.0
H797 H 0.02397 0.87139 0.76782 0.0
H798 H 0.02132 0.91668 0.81248 0.0
H799 H 1.00945 0.93654 0.50765 0.0
C800 C 1.0115 0.83474 0.4096 0.0
C801 C 1.01187 0.8098 0.45056 0.0
C802 C 0.01671 0.80723 0.55195 0.0
C803 C 0.0198 0.82894 0.61173 0.0
C804 C 0.0181 0.85319 0.56923 0.0
C805 C 0.01423 0.85611 0.47005 0.0
C806 C 1.01135 0.88403 0.44247 0.0
C807 C 0.03266 0.89247 0.37154 0.0
C808 C 0.98483 0.88908 0.39866 0.0
C809 C 0.01415 0.8966 0.54176 0.0
C810 C 0.01814 0.87851 0.61391 0.0
C811 C 0.02077 0.88555 0.71165 0.0
C812 C 0.01924 0.91149 0.73631 0.0
C813 C 0.01515 0.93049 0.6639 0.0
C814 C 1.01262 0.92271 0.56511 0.0
H815 H 0.71208 0.0471 0.56964 0.0
H816 H 0.72355 0.97025 0.46435 0.0
H817 H 0.68141 0.95788 0.53203 0.0
H818 H 0.67705 0.0309 0.79477 0.0
H819 H 0.65524 0.05719 0.78402 0.0
H820 H 0.68711 0.05996 0.73492 0.0
H821 H 0.66968 0.07145 0.56523 0.0
H822 H 0.63757 0.06926 0.6123 0.0
H823 H 0.64687 0.05065 0.50767 0.0
H824 H 0.63531 0.95534 0.59193 0.0
H825 H 0.59127 0.96173 0.65372 0.0
H826 H 0.60977 0.0397 0.7263 0.0
C827 C 0.706 0.02751 0.5622 0.0
C828 C 0.72149 1.00963 0.51151 0.0
C829 C 0.71252 0.98425 0.50395 0.0
C830 C 0.68839 0.9771 0.5415 0.0
C831 C 0.67331 0.99543 0.58758 0.0
C832 C 0.68195 0.02005 0.59936 0.0
C833 C 0.66155 0.03644 0.64757 0.0
C834 C 0.67079 0.0467 0.74628 0.0
C835 C 0.65344 0.05823 0.57911 0.0
C836 C 0.64004 0.01724 0.6612 0.0
C837 C 0.64714 0.99374 0.62501 0.0
C838 C 0.62983 0.97351 0.62216 0.0
C839 C 0.60481 0.97732 0.65718 0.0
C840 C 0.59723 1.00103 0.69635 0.0
C841 C 0.61521 0.02119 0.69897 0.0
H842 H 0.55202 0.68448 0.4083 0.0
H843 H 0.49365 0.72253 0.57956 0.0
H844 H 0.48602 0.6824 0.67146 0.0
H845 H 0.51807 0.62676 0.37825 0.0
H846 H 0.54587 0.60672 0.38489 0.0
H847 H 0.54887 0.63892 0.34112 0.0
H848 H 0.58298 0.64834 0.47208 0.0
H849 H 0.58039 0.61608 0.51603 0.0
H850 H 0.57582 0.64221 0.59915 0.0
H851 H 0.48226 0.63587 0.73508 0.0
H852 H 0.48505 0.58992 0.77359 0.0
H853 H 0.54357 0.58154 0.55091 0.0
C854 C 0.53752 0.68465 0.46496 0.0
C855 C 0.52328 0.7072 0.485 0.0
C856 C 0.50508 0.70602 0.56226 0.0
C857 C 0.50042 0.68307 0.61446 0.0
C858 C 0.51401 0.66109 0.58914 0.0
C859 C 0.53235 0.66185 0.51639 0.0
C860 C 0.54375 0.63554 0.4999 0.0
C861 C 0.53884 0.62645 0.39481 0.0
C862 C 0.57244 0.63555 0.52319 0.0
C863 C 0.52884 0.61958 0.57398 0.0
C864 C 0.51192 0.63471 0.62539 0.0
C865 C 0.49592 0.62413 0.69694 0.0
C866 C 0.49757 0.59784 0.71794 0.0
C867 C 0.5146 0.58178 0.66598 0.0
C868 C 0.53031 0.59305 0.59238 0.0
H869 H 0.83477 0.50602 0.3506 0.0
H870 H 0.78775 0.50038 0.61178 0.0
H871 H 0.82684 0.50267 0.7137 0.0
H872 H 0.8843 0.46606 0.43332 0.0
H873 H 0.90965 0.48389 0.37507 0.0
H874 H 0.87802 0.48422 0.32403 0.0
H875 H 0.8773 0.53339 0.33273 0.0
H876 H 0.90905 0.53326 0.38285 0.0
H877 H 0.88352 0.54891 0.44754 0.0
H878 H 0.87226 0.50215 0.78637 0.0
H879 H 0.91838 0.50157 0.82318 0.0
H880 H 0.93574 0.50723 0.51318 0.0
C881 C 0.83255 0.50557 0.4294 0.0
C882 C 0.80791 0.50299 0.47288 0.0
C883 C 0.80616 0.50267 0.57636 0.0
C884 C 0.82837 0.50373 0.63479 0.0
C885 C 0.85234 0.5053 0.58903 0.0
C886 C 0.85445 0.5065 0.48844 0.0
C887 C 0.88232 0.50728 0.45636 0.0
C888 C 0.88896 0.48398 0.39349 0.0
C889 C 0.8884 0.5322 0.40164 0.0
C890 C 0.89578 0.50625 0.55453 0.0
C891 C 0.87815 0.50505 0.63027 0.0
C892 C 0.88609 0.50328 0.72736 0.0
C893 C 0.91247 0.50294 0.74765 0.0
C894 C 0.93099 0.50453 0.67147 0.0
C895 C 0.92227 0.50615 0.57355 0.0
loop_
_geom_bond_atom_site_label_1
_geom_bond_atom_site_label_2
_geom_bond_distance
_geom_bond_site_symmetry_2
_ccdc_geom_bond_type
H0 C3 0.929 . S
H1 C6 0.929 . S
H2 C8 0.930 . S
C3 H0 0.929 . S
C3 C4 1.398 . S
C3 C5 1.396 . S
C4 C3 1.398 . S
C4 C8 1.407 . S
C5 C3 1.396 . S
C5 C6 1.394 . S
C6 H1 0.929 . S
C6 C5 1.394 . S
C6 C7 1.382 . S
C7 C6 1.382 . S
C7 C8 1.392 . S
C7 N9 1.420 . S
C8 H2 0.930 . S
C8 C4 1.407 . S
C8 C7 1.392 . S
N9 C7 1.420 . S
N9 C10 1.244 . S
C10 N9 1.244 . S
H11 C14 0.929 . S
H12 C17 0.929 . S
H13 C19 0.930 . S
C14 H11 0.929 . S
C14 C15 1.395 1_655 S
C14 C16 1.395 1_655 S
C15 C14 1.395 1_455 S
C15 C19 1.413 . S
C16 C14 1.395 1_455 S
C16 C17 1.397 . S
C17 H12 0.929 . S
C17 C16 1.397 . S
C17 C18 1.382 . S
C18 C17 1.382 . S
C18 C19 1.392 . S
C18 N20 1.420 . S
C19 H13 0.930 . S
C19 C15 1.413 . S
C19 C18 1.392 . S
N20 C18 1.420 . S
N20 C21 1.232 1_455 S
C21 N20 1.232 1_655 S
H22 C25 0.929 . S
H23 C28 0.929 . S
H24 C30 0.930 . S
C25 H22 0.929 . S
C25 C26 1.395 1_565 S
C25 C27 1.395 1_565 S
C26 C25 1.395 1_545 S
C26 C30 1.413 . S
C27 C25 1.395 1_545 S
C27 C28 1.397 . S
C28 H23 0.929 . S
C28 C27 1.397 . S
C28 C29 1.382 . S
C29 C28 1.382 . S
C29 C30 1.392 . S
C29 N31 1.420 . S
C30 H24 0.930 . S
C30 C26 1.413 . S
C30 C29 1.392 . S
N31 C29 1.420 . S
N31 C32 1.232 1_545 S
C32 N31 1.232 1_565 S
H33 C36 0.929 . S
H34 C39 0.929 . S
H35 C41 0.930 . S
C36 H33 0.929 . S
C36 C37 1.398 . S
C36 C38 1.396 . S
C37 C36 1.398 . S
C37 C41 1.407 . S
C38 C36 1.396 . S
C38 C39 1.394 . S
C39 H34 0.929 . S
C39 C38 1.394 . S
C39 C40 1.382 . S
C40 C39 1.382 . S
C40 C41 1.392 . S
C40 N42 1.420 . S
C41 H35 0.930 . S
C41 C37 1.407 . S
C41 C40 1.392 . S
N42 C40 1.420 . S
N42 C43 1.244 . S
C43 N42 1.244 . S
H44 C47 0.929 . S
H45 C50 0.929 . S
H46 C52 0.930 . S
C47 H44 0.929 . S
C47 C48 1.398 1_554 S
C47 C49 1.396 . S
C48 C47 1.398 1_556 S
C48 C52 1.407 . S
C49 C47 1.396 . S
C49 C50 1.394 . S
C50 H45 0.929 . S
C50 C49 1.394 . S
C50 C51 1.382 . S
C51 C50 1.382 . S
C51 C52 1.392 1_554 S
C51 N53 1.420 . S
C52 H46 0.930 . S
C52 C48 1.407 . S
C52 C51 1.392 1_556 S
N53 C51 1.420 . S
N53 C54 1.244 . S
C54 N53 1.244 . S
H55 C58 0.929 . S
H56 C61 0.929 . S
H57 C63 0.930 . S
C58 H55 0.929 . S
C58 C59 1.395 1_654 S
C58 C60 1.394 1_655 S
C59 C58 1.395 1_456 S
C59 C63 1.416 . S
C60 C58 1.394 1_455 S
C60 C61 1.398 . S
C61 H56 0.929 . S
C61 C60 1.398 . S
C61 C62 1.382 . S
C62 C61 1.382 . S
C62 C63 1.392 1_554 S
C62 N64 1.420 . S
C63 H57 0.930 . S
C63 C59 1.416 . S
C63 C62 1.392 1_556 S
N64 C62 1.420 . S
N64 C65 1.236 1_455 S
C65 N64 1.236 1_655 S
H66 C69 0.929 . S
H67 C72 0.929 . S
H68 C74 0.930 . S
C69 H66 0.929 . S
C69 C70 1.395 1_564 S
C69 C71 1.394 1_565 S
C70 C69 1.395 1_546 S
C70 C74 1.416 . S
C71 C69 1.394 1_545 S
C71 C72 1.398 . S
C72 H67 0.929 . S
C72 C71 1.398 . S
C72 C73 1.382 . S
C73 C72 1.382 . S
C73 C74 1.392 1_554 S
C73 N75 1.420 . S
C74 H68 0.930 . S
C74 C70 1.416 . S
C74 C73 1.392 1_556 S
N75 C73 1.420 . S
N75 C76 1.237 1_545 S
C76 N75 1.237 1_565 S
H77 C80 0.929 . S
H78 C83 0.929 . S
H79 C85 0.930 . S
C80 H77 0.929 . S
C80 C81 1.398 1_554 S
C80 C82 1.396 . S
C81 C80 1.398 1_556 S
C81 C85 1.407 . S
C82 C80 1.396 . S
C82 C83 1.394 . S
C83 H78 0.929 . S
C83 C82 1.394 . S
C83 C84 1.382 . S
C84 C83 1.382 . S
C84 C85 1.392 1_554 S
C84 N86 1.420 . S
C85 H79 0.930 . S
C85 C81 1.407 . S
C85 C84 1.392 1_556 S
N86 C84 1.420 . S
N86 C87 1.244 . S
C87 N86 1.244 . S
Tb88 C90 2.809 . S
Tb88 O108 2.484 . S
Tb88 O109 2.440 . S
Tb88 O110 2.658 1_565 S
Tb88 O111 2.409 . S
Tb88 O112 2.378 . S
Tb88 O116 2.325 1_455 S
Tb88 O119 2.341 1_565 S
Tb89 C99 2.809 . S
Tb89 O110 2.325 1_655 S
Tb89 O113 2.341 1_545 S
Tb89 O114 2.484 . S
Tb89 O115 2.440 . S
Tb89 O116 2.658 1_545 S
Tb89 O117 2.409 . S
Tb89 O118 2.378 . S
C90 Tb88 2.809 . S
C90 C91 1.514 1_556 S
C90 O108 1.248 . S
C90 O109 1.266 . S
C91 C90 1.514 1_554 S
C91 C92 1.359 . S
C91 C96 1.348 . S
C92 C91 1.359 . S
C92 C93 1.380 . S
C92 H120 0.929 1_455 S
C93 C92 1.380 . S
C93 C94 1.347 . S
C93 H121 0.931 1_455 S
C94 C93 1.347 . S
C94 C95 1.369 . S
C95 C94 1.369 . S
C95 C96 1.408 . S
C95 H122 0.930 . S
C96 C91 1.348 . S
C96 C95 1.408 . S
C96 H123 0.930 1_554 S
C97 O110 1.281 1_565 S
C97 O111 1.254 . S
C98 O112 1.236 1_655 S
C98 O113 1.266 . S
C99 Tb89 2.809 . S
C99 C100 1.514 . S
C99 O114 1.248 . S
C99 O115 1.266 . S
C100 C99 1.514 . S
C100 C101 1.359 . S
C100 C105 1.348 . S
C101 C100 1.359 . S
C101 C102 1.380 . S
C101 H124 0.929 1_655 S
C102 C101 1.380 . S
C102 C103 1.347 . S
C102 H125 0.931 1_655 S
C103 C102 1.347 . S
C103 C104 1.369 . S
C104 C103 1.369 . S
C104 C105 1.408 . S
C104 H126 0.930 . S
C105 C100 1.348 . S
C105 C104 1.408 . S
C105 H127 0.930 . S
C106 O116 1.281 1_545 S
C106 O117 1.254 . S
C107 O118 1.236 1_455 S
C107 O119 1.266 . S
O108 Tb88 2.484 . S
O108 C90 1.248 . S
O109 Tb88 2.440 . S
O109 C90 1.266 . S
O110 Tb88 2.658 1_545 S
O110 Tb89 2.325 1_455 S
O110 C97 1.281 1_545 S
O111 Tb88 2.409 . S
O111 C97 1.254 . S
O112 Tb88 2.378 . S
O112 C98 1.236 1_455 S
O113 Tb89 2.341 1_565 S
O113 C98 1.266 . S
O114 Tb89 2.484 . S
O114 C99 1.248 . S
O115 Tb89 2.440 . S
O115 C99 1.266 . S
O116 Tb88 2.325 1_655 S
O116 Tb89 2.658 1_565 S
O116 C106 1.281 1_565 S
O117 Tb89 2.409 . S
O117 C106 1.254 . S
O118 Tb89 2.378 . S
O118 C107 1.236 1_655 S
O119 Tb88 2.341 1_545 S
O119 C107 1.266 . S
H120 C92 0.929 1_655 S
H121 C93 0.931 1_655 S
H122 C95 0.930 . S
H123 C96 0.930 1_556 S
H124 C101 0.929 1_455 S
H125 C102 0.931 1_455 S
H126 C104 0.930 . S
H127 C105 0.930 . S
Tb128 C130 2.809 . S
Tb128 O148 2.484 . S
Tb128 O149 2.440 . S
Tb128 O150 2.658 . S
Tb128 O151 2.409 . S
Tb128 O152 2.378 . S
Tb128 O156 2.325 1_545 S
Tb128 O159 2.341 . S
Tb129 C139 2.809 . S
Tb129 O150 2.325 1_565 S
Tb129 O153 2.341 . S
Tb129 O154 2.500 . S
Tb129 O155 2.440 . S
Tb129 O156 2.658 . S
Tb129 O157 2.409 . S
Tb129 O158 2.378 . S
C130 Tb128 2.809 . S
C130 C131 1.514 1_556 S
C130 O148 1.248 . S
C130 O149 1.266 . S
C131 C130 1.514 1_554 S
C131 C132 1.359 . S
C131 C136 1.348 . S
C132 C131 1.359 . S
C132 C133 1.380 . S
C132 H160 0.929 1_545 S
C133 C132 1.380 . S
C133 C134 1.347 . S
C133 H161 0.931 1_545 S
C134 C133 1.347 . S
C134 C135 1.369 . S
C135 C134 1.369 . S
C135 C136 1.408 . S
C135 H162 0.930 . S
C136 C131 1.348 . S
C136 C135 1.408 . S
C136 H163 0.930 1_554 S
C137 O150 1.281 . S
C137 O151 1.254 . S
C138 O152 1.236 1_565 S
C138 O153 1.266 . S
C139 Tb129 2.809 . S
C139 C140 1.514 . S
C139 O154 1.285 . S
C139 O155 1.266 . S
C140 C139 1.514 . S
C140 C141 1.359 . S
C140 C145 1.348 . S
C141 C140 1.359 . S
C141 C142 1.380 . S
C141 H164 0.929 1_565 S
C142 C141 1.380 . S
C142 C143 1.347 . S
C142 H165 0.931 1_565 S
C143 C142 1.347 . S
C143 C144 1.369 . S
C144 C143 1.369 . S
C144 C145 1.408 . S
C144 H166 0.930 . S
C145 C140 1.348 . S
C145 C144 1.408 . S
C145 H167 0.930 . S
C146 O156 1.281 . S
C146 O157 1.254 . S
C147 O158 1.236 1_545 S
C147 O159 1.266 . S
O148 Tb128 2.484 . S
O148 C130 1.248 . S
O149 Tb128 2.440 . S
O149 C130 1.266 . S
O150 Tb128 2.658 . S
O150 Tb129 2.325 1_545 S
O150 C137 1.281 . S
O151 Tb128 2.409 . S
O151 C137 1.254 . S
O152 Tb128 2.378 . S
O152 C138 1.236 1_545 S
O153 Tb129 2.341 . S
O153 C138 1.266 . S
O154 Tb129 2.500 . S
O154 C139 1.285 . S
O155 Tb129 2.440 . S
O155 C139 1.266 . S
O156 Tb128 2.325 1_565 S
O156 Tb129 2.658 . S
O156 C146 1.281 . S
O157 Tb129 2.409 . S
O157 C146 1.254 . S
O158 Tb129 2.378 . S
O158 C147 1.236 1_565 S
O159 Tb128 2.341 . S
O159 C147 1.266 . S
H160 C132 0.929 1_565 S
H161 C133 0.931 1_565 S
H162 C135 0.930 . S
H163 C136 0.930 1_556 S
H164 C141 0.929 1_545 S
H165 C142 0.931 1_545 S
H166 C144 0.930 . S
H167 C145 0.930 . S
Tb168 C170 2.809 . S
Tb168 O188 2.484 . S
Tb168 O189 2.440 . S
Tb168 O190 2.658 . S
Tb168 O191 2.409 . S
Tb168 O192 2.378 . S
Tb168 O196 2.325 . S
Tb168 O199 2.341 . S
Tb169 C179 2.809 . S
Tb169 O190 2.325 . S
Tb169 O193 2.341 . S
Tb169 O194 2.484 . S
Tb169 O195 2.440 . S
Tb169 O196 2.658 . S
Tb169 O197 2.409 . S
Tb169 O198 2.378 . S
C170 Tb168 2.809 . S
C170 C171 1.514 1_556 S
C170 O188 1.248 . S
C170 O189 1.266 . S
C171 C170 1.514 1_554 S
C171 C172 1.359 . S
C171 C176 1.348 . S
C172 C171 1.359 . S
C172 C173 1.380 . S
C172 H200 0.929 . S
C173 C172 1.380 . S
C173 C174 1.347 . S
C173 H201 0.931 . S
C174 C173 1.347 . S
C174 C175 1.369 . S
C175 C174 1.369 . S
C175 C176 1.408 . S
C175 H202 0.930 . S
C176 C171 1.348 . S
C176 C175 1.408 . S
C176 H203 0.930 1_554 S
C177 O190 1.281 . S
C177 O191 1.254 . S
C178 O192 1.236 . S
C178 O193 1.266 . S
C179 Tb169 2.809 . S
C179 C180 1.514 . S
C179 O194 1.248 . S
C179 O195 1.266 . S
C180 C179 1.514 . S
C180 C181 1.359 . S
C180 C185 1.348 . S
C181 C180 1.359 . S
C181 C182 1.380 . S
C181 H204 0.929 . S
C182 C181 1.380 . S
C182 C183 1.347 . S
C182 H205 0.931 . S
C183 C182 1.347 . S
C183 C184 1.369 . S
C184 C183 1.369 . S
C184 C185 1.408 . S
C184 H206 0.930 . S
C185 C180 1.348 . S
C185 C184 1.408 . S
C185 H207 0.930 . S
C186 O196 1.281 . S
C186 O197 1.254 . S
C187 O198 1.236 . S
C187 O199 1.266 . S
O188 Tb168 2.484 . S
O188 C170 1.248 . S
O189 Tb168 2.440 . S
O189 C170 1.266 . S
O190 Tb168 2.658 . S
O190 Tb169 2.325 . S
O190 C177 1.281 . S
O191 Tb168 2.409 . S
O191 C177 1.254 . S
O192 Tb168 2.378 . S
O192 C178 1.236 . S
O193 Tb169 2.341 . S
O193 C178 1.266 . S
O194 Tb169 2.484 . S
O194 C179 1.248 . S
O195 Tb169 2.440 . S
O195 C179 1.266 . S
O196 Tb168 2.325 . S
O196 Tb169 2.658 . S
O196 C186 1.281 . S
O197 Tb169 2.409 . S
O197 C186 1.254 . S
O198 Tb169 2.378 . S
O198 C187 1.236 . S
O199 Tb168 2.341 . S
O199 C187 1.266 . S
H200 C172 0.929 . S
H201 C173 0.931 . S
H202 C175 0.930 . S
H203 C176 0.930 1_556 S
H204 C181 0.929 . S
H205 C182 0.931 . S
H206 C184 0.930 . S
H207 C185 0.930 . S
Tb208 C210 2.809 . S
Tb208 O228 2.484 . S
Tb208 O229 2.440 . S
Tb208 O230 2.658 1_655 S
Tb208 O231 2.409 . S
Tb208 O232 2.378 . S
Tb208 O236 2.325 . S
Tb208 O239 2.341 1_655 S
Tb209 C219 2.809 . S
Tb209 O230 2.325 . S
Tb209 O233 2.341 1_455 S
Tb209 O234 2.484 . S
Tb209 O235 2.440 . S
Tb209 O236 2.658 1_455 S
Tb209 O237 2.409 . S
Tb209 O238 2.378 . S
C210 Tb208 2.809 . S
C210 C211 1.514 1_556 S
C210 O228 1.248 . S
C210 O229 1.266 . S
C211 C210 1.514 1_554 S
C211 C212 1.359 . S
C211 C216 1.348 . S
C212 C211 1.359 . S
C212 C213 1.380 . S
C212 H240 0.929 . S
C213 C212 1.380 . S
C213 C214 1.347 . S
C213 H241 0.931 . S
C214 C213 1.347 . S
C214 C215 1.369 . S
C215 C214 1.369 . S
C215 C216 1.408 . S
C215 H242 0.930 . S
C216 C211 1.348 . S
C216 C215 1.408 . S
C216 H243 0.930 1_554 S
C217 O230 1.273 1_655 S
C217 O231 1.264 . S
C218 O232 1.236 . S
C218 O233 1.266 . S
C219 Tb209 2.809 . S
C219 C220 1.514 . S
C219 O234 1.248 . S
C219 O235 1.266 . S
C220 C219 1.514 . S
C220 C221 1.359 . S
C220 C225 1.348 . S
C221 C220 1.359 . S
C221 C222 1.380 . S
C221 H244 0.929 . S
C222 C221 1.380 . S
C222 C223 1.347 . S
C222 H245 0.931 . S
C223 C222 1.347 . S
C223 C224 1.369 . S
C224 C223 1.369 . S
C224 C225 1.408 . S
C224 H246 0.930 . S
C225 C220 1.348 . S
C225 C224 1.408 . S
C225 H247 0.930 . S
C226 O236 1.270 1_455 S
C226 O237 1.269 . S
C227 O238 1.236 . S
C227 O239 1.266 . S
O228 Tb208 2.484 . S
O228 C210 1.248 . S
O229 Tb208 2.440 . S
O229 C210 1.266 . S
O230 Tb208 2.658 1_455 S
O230 Tb209 2.325 . S
O230 C217 1.273 1_455 S
O231 Tb208 2.409 . S
O231 C217 1.264 . S
O232 Tb208 2.378 . S
O232 C218 1.236 . S
O233 Tb209 2.341 1_655 S
O233 C218 1.266 . S
O234 Tb209 2.484 . S
O234 C219 1.248 . S
O235 Tb209 2.440 . S
O235 C219 1.266 . S
O236 Tb208 2.325 . S
O236 Tb209 2.658 1_655 S
O236 C226 1.270 1_655 S
O237 Tb209 2.409 . S
O237 C226 1.269 . S
O238 Tb209 2.378 . S
O238 C227 1.236 . S
O239 Tb208 2.341 1_455 S
O239 C227 1.266 . S
H240 C212 0.929 . S
H241 C213 0.931 . S
H242 C215 0.930 . S
H243 C216 0.930 1_556 S
H244 C221 0.929 . S
H245 C222 0.931 . S
H246 C224 0.930 . S
H247 C225 0.930 . S
H248 C260 0.930 . S
H249 C262 0.930 . S
H250 C263 0.930 . S
H251 C267 0.959 . S
H252 C267 0.959 . S
H253 C267 0.961 . S
H254 C268 0.960 . S
H255 C268 0.961 . S
H256 C268 0.959 1_545 S
H257 C271 0.929 . S
H258 C272 0.931 . S
H259 C274 0.930 . S
C260 H248 0.930 . S
C260 C261 1.399 1_565 S
C260 C265 1.399 . S
C261 C260 1.399 1_545 S
C261 C262 1.376 . S
C262 H249 0.930 . S
C262 C261 1.376 . S
C262 C263 1.388 . S
C263 H250 0.930 . S
C263 C262 1.388 . S
C263 C264 1.390 . S
C264 C263 1.390 . S
C264 C265 1.394 1_545 S
C264 C270 1.465 . S
C265 C260 1.399 . S
C265 C264 1.394 1_565 S
C265 C266 1.516 . S
C266 C265 1.516 . S
C266 C267 1.502 . S
C266 C268 1.561 . S
C266 C269 1.526 . S
C267 H251 0.959 . S
C267 H252 0.959 . S
C267 H253 0.961 . S
C267 C266 1.502 . S
C268 H254 0.960 . S
C268 H255 0.961 . S
C268 H256 0.959 1_565 S
C268 C266 1.561 . S
C269 C266 1.526 . S
C269 C270 1.396 1_565 S
C269 C274 1.390 . S
C270 C264 1.465 . S
C270 C269 1.396 1_545 S
C270 C271 1.399 . S
C271 H257 0.929 . S
C271 C270 1.399 . S
C271 C272 1.385 . S
C272 H258 0.931 . S
C272 C271 1.385 . S
C272 C273 1.389 . S
C273 C272 1.389 . S
C273 C274 1.387 1_545 S
C274 H259 0.930 . S
C274 C269 1.390 . S
C274 C273 1.387 1_565 S
H275 C287 0.930 . S
H276 C289 0.930 . S
H277 C290 0.930 . S
H278 C294 0.959 . S
H279 C294 0.959 . S
H280 C294 0.961 . S
H281 C295 0.960 . S
H282 C295 0.961 . S
H283 C295 0.959 . S
H284 C298 0.929 . S
H285 C299 0.931 . S
H286 C301 0.930 . S
C287 H275 0.930 . S
C287 C288 1.399 . S
C287 C292 1.399 . S
C288 C287 1.399 . S
C288 C289 1.376 . S
C289 H276 0.930 . S
C289 C288 1.376 . S
C289 C290 1.388 . S
C290 H277 0.930 . S
C290 C289 1.388 . S
C290 C291 1.390 . S
C291 C290 1.390 . S
C291 C292 1.394 . S
C291 C297 1.465 . S
C292 C287 1.399 . S
C292 C291 1.394 . S
C292 C293 1.516 . S
C293 C292 1.516 . S
C293 C294 1.502 . S
C293 C295 1.561 . S
C293 C296 1.526 . S
C294 H278 0.959 . S
C294 H279 0.959 . S
C294 H280 0.961 . S
C294 C293 1.502 . S
C295 H281 0.960 . S
C295 H282 0.961 . S
C295 H283 0.959 . S
C295 C293 1.561 . S
C296 C293 1.526 . S
C296 C297 1.396 . S
C296 C301 1.390 . S
C297 C291 1.465 . S
C297 C296 1.396 . S
C297 C298 1.399 . S
C298 H284 0.929 . S
C298 C297 1.399 . S
C298 C299 1.385 . S
C299 H285 0.931 . S
C299 C298 1.385 . S
C299 C300 1.389 . S
C300 C299 1.389 . S
C300 C301 1.387 . S
C301 H286 0.930 . S
C301 C296 1.390 . S
C301 C300 1.387 . S
H302 C314 0.930 . S
H303 C316 0.930 . S
H304 C317 0.930 . S
H305 C321 0.959 . S
H306 C321 0.959 . S
H307 C321 0.961 . S
H308 C322 0.960 . S
H309 C322 0.961 . S
H310 C322 0.959 . S
H311 C325 0.929 . S
H312 C326 0.931 . S
H313 C328 0.930 . S
C314 H302 0.930 . S
C314 C315 1.399 . S
C314 C319 1.399 . S
C315 C314 1.399 . S
C315 C316 1.376 . S
C316 H303 0.930 . S
C316 C315 1.376 . S
C316 C317 1.388 . S
C317 H304 0.930 . S
C317 C316 1.388 . S
C317 C318 1.390 . S
C318 C317 1.390 . S
C318 C319 1.394 . S
C318 C324 1.465 . S
C319 C314 1.399 . S
C319 C318 1.394 . S
C319 C320 1.516 . S
C320 C319 1.516 . S
C320 C321 1.502 . S
C320 C322 1.561 . S
C320 C323 1.526 . S
C321 H305 0.959 . S
C321 H306 0.959 . S
C321 H307 0.961 . S
C321 C320 1.502 . S
C322 H308 0.960 . S
C322 H309 0.961 . S
C322 H310 0.959 . S
C322 C320 1.561 . S
C323 C320 1.526 . S
C323 C324 1.396 . S
C323 C328 1.390 . S
C324 C318 1.465 . S
C324 C323 1.396 . S
C324 C325 1.399 . S
C325 H311 0.929 . S
C325 C324 1.399 . S
C325 C326 1.385 . S
C326 H312 0.931 . S
C326 C325 1.385 . S
C326 C327 1.389 . S
C327 C326 1.389 . S
C327 C328 1.387 . S
C328 H313 0.930 . S
C328 C323 1.390 . S
C328 C327 1.387 . S
H329 C341 0.928 1_455 S
H330 C343 0.930 . S
H331 C344 0.930 . S
H332 C348 0.959 . S
H333 C348 0.959 . S
H334 C348 0.961 . S
H335 C349 0.960 . S
H336 C349 0.961 . S
H337 C349 0.959 . S
H338 C352 0.929 . S
H339 C353 0.930 . S
H340 C355 0.930 . S
C341 H329 0.928 1_655 S
C341 C342 1.399 . S
C341 C346 1.400 . S
C342 C341 1.399 . S
C342 C343 1.380 . S
C343 H330 0.930 . S
C343 C342 1.380 . S
C343 C344 1.388 . S
C344 H331 0.930 . S
C344 C343 1.388 . S
C344 C345 1.390 . S
C345 C344 1.390 . S
C345 C346 1.394 . S
C345 C351 1.465 . S
C346 C341 1.400 . S
C346 C345 1.394 . S
C346 C347 1.516 . S
C347 C346 1.516 . S
C347 C348 1.502 1_655 S
C347 C349 1.561 . S
C347 C350 1.526 . S
C348 H332 0.959 . S
C348 H333 0.959 . S
C348 H334 0.961 . S
C348 C347 1.502 1_455 S
C349 H335 0.960 . S
C349 H336 0.961 . S
C349 H337 0.959 . S
C349 C347 1.561 . S
C350 C347 1.526 . S
C350 C351 1.396 . S
C350 C355 1.390 1_655 S
C351 C345 1.465 . S
C351 C350 1.396 . S
C351 C352 1.399 . S
C352 H338 0.929 . S
C352 C351 1.399 . S
C352 C353 1.386 . S
C353 H339 0.930 . S
C353 C352 1.386 . S
C353 C354 1.388 1_655 S
C354 C353 1.388 1_455 S
C354 C355 1.386 . S
C355 H340 0.930 . S
C355 C350 1.390 1_455 S
C355 C354 1.386 . S
H356 C368 0.930 . S
H357 C370 0.930 . S
H358 C371 0.930 . S
H359 C375 0.959 . S
H360 C375 0.959 1_556 S
H361 C375 0.961 . S
H362 C376 0.960 . S
H363 C376 0.961 . S
H364 C376 0.959 . S
H365 C379 0.929 . S
H366 C380 0.931 . S
H367 C382 0.930 . S
C368 H356 0.930 . S
C368 C369 1.399 1_545 S
C368 C373 1.399 . S
C369 C368 1.399 1_565 S
C369 C370 1.376 . S
C370 H357 0.930 . S
C370 C369 1.376 . S
C370 C371 1.388 . S
C371 H358 0.930 . S
C371 C370 1.388 . S
C371 C372 1.390 . S
C372 C371 1.390 . S
C372 C373 1.394 1_565 S
C372 C378 1.465 . S
C373 C368 1.399 . S
C373 C372 1.394 1_545 S
C373 C374 1.516 . S
C374 C373 1.516 . S
C374 C375 1.502 . S
C374 C376 1.561 . S
C374 C377 1.526 . S
C375 H359 0.959 . S
C375 H360 0.959 1_554 S
C375 H361 0.961 . S
C375 C374 1.502 . S
C376 H362 0.960 . S
C376 H363 0.961 . S
C376 H364 0.959 . S
C376 C374 1.561 . S
C377 C374 1.526 . S
C377 C378 1.396 1_545 S
C377 C382 1.390 1_554 S
C378 C372 1.465 . S
C378 C377 1.396 1_565 S
C378 C379 1.399 . S
C379 H365 0.929 . S
C379 C378 1.399 . S
C379 C380 1.385 1_554 S
C380 H366 0.931 . S
C380 C379 1.385 1_556 S
C380 C381 1.389 . S
C381 C380 1.389 . S
C381 C382 1.387 1_565 S
C382 H367 0.930 . S
C382 C377 1.390 1_556 S
C382 C381 1.387 1_545 S
H383 C395 0.930 . S
H384 C397 0.930 . S
H385 C398 0.930 . S
H386 C402 0.959 . S
H387 C402 0.959 . S
H388 C402 0.961 . S
H389 C403 0.960 . S
H390 C403 0.961 . S
H391 C403 0.959 . S
H392 C406 0.929 . S
H393 C407 0.931 . S
H394 C409 0.930 . S
C395 H383 0.930 . S
C395 C396 1.399 . S
C395 C400 1.399 . S
C396 C395 1.399 . S
C396 C397 1.376 . S
C397 H384 0.930 . S
C397 C396 1.376 . S
C397 C398 1.388 . S
C398 H385 0.930 . S
C398 C397 1.388 . S
C398 C399 1.390 . S
C399 C398 1.390 . S
C399 C400 1.394 . S
C399 C405 1.465 . S
C400 C395 1.399 . S
C400 C399 1.394 . S
C400 C401 1.516 . S
C401 C400 1.516 . S
C401 C402 1.502 . S
C401 C403 1.561 . S
C401 C404 1.526 . S
C402 H386 0.959 . S
C402 H387 0.959 . S
C402 H388 0.961 . S
C402 C401 1.502 . S
C403 H389 0.960 . S
C403 H390 0.961 . S
C403 H391 0.959 . S
C403 C401 1.561 . S
C404 C401 1.526 . S
C404 C405 1.396 . S
C404 C409 1.390 . S
C405 C399 1.465 . S
C405 C404 1.396 . S
C405 C406 1.399 1_554 S
C406 H392 0.929 . S
C406 C405 1.399 1_556 S
C406 C407 1.385 . S
C407 H393 0.931 . S
C407 C406 1.385 . S
C407 C408 1.389 . S
C408 C407 1.389 . S
C408 C409 1.387 1_556 S
C409 H394 0.930 . S
C409 C404 1.390 . S
C409 C408 1.387 1_554 S
H410 C422 0.930 . S
H411 C424 0.930 . S
H412 C425 0.930 . S
H413 C429 0.959 . S
H414 C429 0.959 1_556 S
H415 C429 0.961 . S
H416 C430 0.960 . S
H417 C430 0.961 . S
H418 C430 0.959 . S
H419 C433 0.929 . S
H420 C434 0.931 1_556 S
H421 C436 0.930 . S
C422 H410 0.930 . S
C422 C423 1.399 . S
C422 C427 1.399 . S
C423 C422 1.399 . S
C423 C424 1.376 . S
C424 H411 0.930 . S
C424 C423 1.376 . S
C424 C425 1.388 . S
C425 H412 0.930 . S
C425 C424 1.388 . S
C425 C426 1.390 . S
C426 C425 1.390 . S
C426 C427 1.394 . S
C426 C432 1.465 . S
C427 C422 1.399 . S
C427 C426 1.394 . S
C427 C428 1.516 . S
C428 C427 1.516 . S
C428 C429 1.502 . S
C428 C430 1.561 . S
C428 C431 1.526 . S
C429 H413 0.959 . S
C429 H414 0.959 1_554 S
C429 H415 0.961 . S
C429 C428 1.502 . S
C430 H416 0.960 . S
C430 H417 0.961 . S
C430 H418 0.959 . S
C430 C428 1.561 . S
C431 C428 1.526 . S
C431 C432 1.396 . S
C431 C436 1.390 1_554 S
C432 C426 1.465 . S
C432 C431 1.396 . S
C432 C433 1.399 . S
C433 H419 0.929 . S
C433 C432 1.399 . S
C433 C434 1.385 . S
C434 H420 0.931 1_554 S
C434 C433 1.385 . S
C434 C435 1.389 1_554 S
C435 C434 1.389 1_556 S
C435 C436 1.387 . S
C436 H421 0.930 . S
C436 C431 1.390 1_556 S
C436 C435 1.387 . S
H437 C449 0.930 . S
H438 C451 0.930 . S
H439 C452 0.930 . S
H440 C456 0.959 . S
H441 C456 0.959 . S
H442 C456 0.961 . S
H443 C457 0.960 . S
H444 C457 0.961 . S
H445 C457 0.959 1_655 S
H446 C460 0.929 . S
H447 C461 0.931 . S
H448 C463 0.930 . S
C449 H437 0.930 . S
C449 C450 1.399 1_455 S
C449 C454 1.399 . S
C450 C449 1.399 1_655 S
C450 C451 1.376 . S
C451 H438 0.930 . S
C451 C450 1.376 . S
C451 C452 1.388 . S
C452 H439 0.930 . S
C452 C451 1.388 . S
C452 C453 1.390 . S
C453 C452 1.390 . S
C453 C454 1.394 1_655 S
C453 C459 1.465 . S
C454 C449 1.399 . S
C454 C453 1.394 1_455 S
C454 C455 1.516 . S
C455 C454 1.516 . S
C455 C456 1.502 . S
C455 C457 1.561 . S
C455 C458 1.526 . S
C456 H440 0.959 . S
C456 H441 0.959 . S
C456 H442 0.961 . S
C456 C455 1.502 . S
C457 H443 0.960 . S
C457 H444 0.961 . S
C457 H445 0.959 1_455 S
C457 C455 1.561 . S
C458 C455 1.526 . S
C458 C459 1.396 1_455 S
C458 C463 1.390 . S
C459 C453 1.465 . S
C459 C458 1.396 1_655 S
C459 C460 1.399 1_554 S
C460 H446 0.929 . S
C460 C459 1.399 1_556 S
C460 C461 1.385 . S
C461 H447 0.931 . S
C461 C460 1.385 . S
C461 C462 1.389 . S
C462 C461 1.389 . S
C462 C463 1.387 1_656 S
C463 H448 0.930 . S
C463 C458 1.390 . S
C463 C462 1.387 1_454 S
H464 C476 0.930 . S
H465 C478 0.930 . S
H466 C479 0.930 . S
H467 C483 0.959 . S
H468 C483 0.959 . S
H469 C483 0.961 . S
H470 C484 0.960 . S
H471 C484 0.961 . S
H472 C484 0.959 . S
H473 C487 0.929 1_455 S
H474 C488 0.931 . S
H475 C490 0.930 . S
C476 H464 0.930 . S
C476 C477 1.399 1_655 S
C476 C481 1.399 . S
C477 C476 1.399 1_455 S
C477 C478 1.376 . S
C478 H465 0.930 . S
C478 C477 1.376 . S
C478 C479 1.388 . S
C479 H466 0.930 . S
C479 C478 1.388 . S
C479 C480 1.390 1_455 S
C480 C479 1.390 1_655 S
C480 C481 1.394 . S
C480 C486 1.465 . S
C481 C476 1.399 . S
C481 C480 1.394 . S
C481 C482 1.516 . S
C482 C481 1.516 . S
C482 C483 1.502 . S
C482 C484 1.561 . S
C482 C485 1.526 . S
C483 H467 0.959 . S
C483 H468 0.959 . S
C483 H469 0.961 . S
C483 C482 1.502 . S
C484 H470 0.960 . S
C484 H471 0.961 . S
C484 H472 0.959 . S
C484 C482 1.561 . S
C485 C482 1.526 . S
C485 C486 1.396 . S
C485 C490 1.390 . S
C486 C480 1.465 . S
C486 C485 1.396 . S
C486 C487 1.399 . S
C487 H473 0.929 1_655 S
C487 C486 1.399 . S
C487 C488 1.385 . S
C488 H474 0.931 . S
C488 C487 1.385 . S
C488 C489 1.389 . S
C489 C488 1.389 . S
C489 C490 1.387 . S
C490 H475 0.930 . S
C490 C485 1.390 . S
C490 C489 1.387 . S
H491 C503 0.930 . S
H492 C505 0.930 . S
H493 C506 0.930 . S
H494 C510 0.959 1_565 S
H495 C510 0.959 . S
H496 C510 0.961 . S
H497 C511 0.960 . S
H498 C511 0.961 . S
H499 C511 0.959 . S
H500 C514 0.929 . S
H501 C515 0.931 . S
H502 C517 0.930 . S
C503 H491 0.930 . S
C503 C504 1.410 . S
C503 C508 1.400 . S
C504 C503 1.410 . S
C504 C505 1.356 1_545 S
C505 H492 0.930 . S
C505 C504 1.356 1_565 S
C505 C506 1.388 . S
C506 H493 0.930 . S
C506 C505 1.388 . S
C506 C507 1.390 . S
C507 C506 1.390 . S
C507 C508 1.392 1_565 S
C507 C513 1.465 . S
C508 C503 1.400 . S
C508 C507 1.392 1_545 S
C508 C509 1.517 . S
C509 C508 1.517 . S
C509 C510 1.502 . S
C509 C511 1.561 . S
C509 C512 1.526 1_545 S
C510 H494 0.959 1_545 S
C510 H495 0.959 . S
C510 H496 0.961 . S
C510 C509 1.502 . S
C511 H497 0.960 . S
C511 H498 0.961 . S
C511 H499 0.959 . S
C511 C509 1.561 . S
C512 C509 1.526 1_565 S
C512 C513 1.396 . S
C512 C517 1.390 . S
C513 C507 1.465 . S
C513 C512 1.396 . S
C513 C514 1.399 . S
C514 H500 0.929 . S
C514 C513 1.399 . S
C514 C515 1.385 . S
C515 H501 0.931 . S
C515 C514 1.385 . S
C515 C516 1.389 . S
C516 C515 1.389 . S
C516 C517 1.387 . S
C517 H502 0.930 . S
C517 C512 1.390 . S
C517 C516 1.387 . S
H518 C530 0.930 . S
H519 C532 0.930 . S
H520 C533 0.930 . S
H521 C537 0.959 . S
H522 C537 0.959 . S
H523 C537 0.961 . S
H524 C538 0.960 . S
H525 C538 0.961 . S
H526 C538 0.959 . S
H527 C541 0.929 . S
H528 C542 0.931 . S
H529 C544 0.930 . S
C530 H518 0.930 . S
C530 C531 1.399 . S
C530 C535 1.399 . S
C531 C530 1.399 . S
C531 C532 1.376 . S
C532 H519 0.930 . S
C532 C531 1.376 . S
C532 C533 1.388 . S
C533 H520 0.930 . S
C533 C532 1.388 . S
C533 C534 1.390 . S
C534 C533 1.390 . S
C534 C535 1.394 . S
C534 C540 1.465 . S
C535 C530 1.399 . S
C535 C534 1.394 . S
C535 C536 1.516 . S
C536 C535 1.516 . S
C536 C537 1.502 . S
C536 C538 1.561 . S
C536 C539 1.526 . S
C537 H521 0.959 . S
C537 H522 0.959 . S
C537 H523 0.961 . S
C537 C536 1.502 . S
C538 H524 0.960 . S
C538 H525 0.961 . S
C538 H526 0.959 . S
C538 C536 1.561 . S
C539 C536 1.526 . S
C539 C540 1.396 . S
C539 C544 1.390 . S
C540 C534 1.465 . S
C540 C539 1.396 . S
C540 C541 1.399 . S
C541 H527 0.929 . S
C541 C540 1.399 . S
C541 C542 1.385 . S
C542 H528 0.931 . S
C542 C541 1.385 . S
C542 C543 1.389 . S
C543 C542 1.389 . S
C543 C544 1.387 . S
C544 H529 0.930 . S
C544 C539 1.390 . S
C544 C543 1.387 . S
H545 C557 0.930 . S
H546 C559 0.930 . S
H547 C560 0.930 . S
H548 C564 0.959 . S
H549 C564 0.959 . S
H550 C564 0.961 . S
H551 C565 0.960 . S
H552 C565 0.961 . S
H553 C565 0.959 . S
H554 C568 0.929 . S
H555 C569 0.931 . S
H556 C571 0.930 . S
C557 H545 0.930 . S
C557 C558 1.399 . S
C557 C562 1.399 . S
C558 C557 1.399 . S
C558 C559 1.376 . S
C559 H546 0.930 . S
C559 C558 1.376 . S
C559 C560 1.388 . S
C560 H547 0.930 . S
C560 C559 1.388 . S
C560 C561 1.390 . S
C561 C560 1.390 . S
C561 C562 1.394 . S
C561 C567 1.465 . S
C562 C557 1.399 . S
C562 C561 1.394 . S
C562 C563 1.516 . S
C563 C562 1.516 . S
C563 C564 1.502 . S
C563 C565 1.561 . S
C563 C566 1.526 . S
C564 H548 0.959 . S
C564 H549 0.959 . S
C564 H550 0.961 . S
C564 C563 1.502 . S
C565 H551 0.960 . S
C565 H552 0.961 . S
C565 H553 0.959 . S
C565 C563 1.561 . S
C566 C563 1.526 . S
C566 C567 1.396 . S
C566 C571 1.390 . S
C567 C561 1.465 . S
C567 C566 1.396 . S
C567 C568 1.399 . S
C568 H554 0.929 . S
C568 C567 1.399 . S
C568 C569 1.385 . S
C569 H555 0.931 . S
C569 C568 1.385 . S
C569 C570 1.389 . S
C570 C569 1.389 . S
C570 C571 1.387 . S
C571 H556 0.930 . S
C571 C566 1.390 . S
C571 C570 1.387 . S
H572 C584 0.930 . S
H573 C586 0.930 . S
H574 C587 0.932 . S
H575 C591 0.959 . S
H576 C591 0.959 . S
H577 C591 0.961 . S
H578 C592 0.960 . S
H579 C592 0.971 1_455 S
H580 C592 0.959 . S
H581 C595 0.929 . S
H582 C596 0.931 . S
H583 C598 0.930 . S
C584 H572 0.930 . S
C584 C585 1.399 1_455 S
C584 C589 1.399 . S
C585 C584 1.399 1_655 S
C585 C586 1.376 . S
C586 H573 0.930 . S
C586 C585 1.376 . S
C586 C587 1.394 . S
C587 H574 0.932 . S
C587 C586 1.394 . S
C587 C588 1.383 1_655 S
C588 C587 1.383 1_455 S
C588 C589 1.394 . S
C588 C594 1.465 . S
C589 C584 1.399 . S
C589 C588 1.394 . S
C589 C590 1.516 . S
C590 C589 1.516 . S
C590 C591 1.502 . S
C590 C592 1.561 1_455 S
C590 C593 1.526 . S
C591 H575 0.959 . S
C591 H576 0.959 . S
C591 H577 0.961 . S
C591 C590 1.502 . S
C592 H578 0.960 . S
C592 H579 0.971 1_655 S
C592 H580 0.959 . S
C592 C590 1.561 1_655 S
C593 C590 1.526 . S
C593 C594 1.396 . S
C593 C598 1.390 . S
C594 C588 1.465 . S
C594 C593 1.396 . S
C594 C595 1.399 . S
C595 H581 0.929 . S
C595 C594 1.399 . S
C595 C596 1.385 . S
C596 H582 0.931 . S
C596 C595 1.385 . S
C596 C597 1.389 . S
C597 C596 1.389 . S
C597 C598 1.387 . S
C598 H583 0.930 . S
C598 C593 1.390 . S
C598 C597 1.387 . S
H599 C611 0.930 . S
H600 C613 0.930 . S
H601 C614 0.930 . S
H602 C618 0.959 1_545 S
H603 C618 0.959 . S
H604 C618 0.961 . S
H605 C619 0.960 . S
H606 C619 0.961 . S
H607 C619 0.959 . S
H608 C622 0.929 . S
H609 C623 0.931 . S
H610 C625 0.930 . S
C611 H599 0.930 . S
C611 C612 1.406 . S
C611 C616 1.398 1_565 S
C612 C611 1.406 . S
C612 C613 1.362 1_565 S
C613 H600 0.930 . S
C613 C612 1.362 1_545 S
C613 C614 1.388 . S
C614 H601 0.930 . S
C614 C613 1.388 . S
C614 C615 1.390 . S
C615 C614 1.390 . S
C615 C616 1.395 . S
C615 C621 1.465 . S
C616 C611 1.398 1_545 S
C616 C615 1.395 . S
C616 C617 1.516 1_545 S
C617 C616 1.516 1_565 S
C617 C618 1.502 . S
C617 C619 1.561 . S
C617 C620 1.526 1_565 S
C618 H602 0.959 1_565 S
C618 H603 0.959 . S
C618 H604 0.961 . S
C618 C617 1.502 . S
C619 H605 0.960 . S
C619 H606 0.961 . S
C619 H607 0.959 . S
C619 C617 1.561 . S
C620 C617 1.526 1_545 S
C620 C621 1.396 . S
C620 C625 1.390 . S
C621 C615 1.465 . S
C621 C620 1.396 . S
C621 C622 1.399 . S
C622 H608 0.929 . S
C622 C621 1.399 . S
C622 C623 1.385 . S
C623 H609 0.931 . S
C623 C622 1.385 . S
C623 C624 1.389 . S
C624 C623 1.389 . S
C624 C625 1.387 . S
C625 H610 0.930 . S
C625 C620 1.390 . S
C625 C624 1.387 . S
H626 C638 0.930 . S
H627 C640 0.930 . S
H628 C641 0.930 . S
H629 C645 0.959 . S
H630 C645 0.959 . S
H631 C645 0.961 . S
H632 C646 0.960 . S
H633 C646 0.961 . S
H634 C646 0.959 . S
H635 C649 0.929 . S
H636 C650 0.931 1_556 S
H637 C652 0.930 . S
C638 H626 0.930 . S
C638 C639 1.399 . S
C638 C643 1.399 . S
C639 C638 1.399 . S
C639 C640 1.376 . S
C640 H627 0.930 . S
C640 C639 1.376 . S
C640 C641 1.388 . S
C641 H628 0.930 . S
C641 C640 1.388 . S
C641 C642 1.390 . S
C642 C641 1.390 . S
C642 C643 1.394 . S
C642 C648 1.465 . S
C643 C638 1.399 . S
C643 C642 1.394 . S
C643 C644 1.516 . S
C644 C643 1.516 . S
C644 C645 1.502 . S
C644 C646 1.561 . S
C644 C647 1.526 . S
C645 H629 0.959 . S
C645 H630 0.959 . S
C645 H631 0.961 . S
C645 C644 1.502 . S
C646 H632 0.960 . S
C646 H633 0.961 . S
C646 H634 0.959 . S
C646 C644 1.561 . S
C647 C644 1.526 . S
C647 C648 1.396 . S
C647 C652 1.390 . S
C648 C642 1.465 . S
C648 C647 1.396 . S
C648 C649 1.399 . S
C649 H635 0.929 . S
C649 C648 1.399 . S
C649 C650 1.385 . S
C650 H636 0.931 1_554 S
C650 C649 1.385 . S
C650 C651 1.389 . S
C651 C650 1.389 . S
C651 C652 1.387 . S
C652 H637 0.930 . S
C652 C647 1.390 . S
C652 C651 1.387 . S
H653 C665 0.930 . S
H654 C667 0.930 . S
H655 C668 0.930 . S
H656 C672 0.959 . S
H657 C672 0.959 . S
H658 C672 0.961 . S
H659 C673 0.960 . S
H660 C673 0.961 . S
H661 C673 0.959 . S
H662 C676 0.929 . S
H663 C677 0.931 1_556 S
H664 C679 0.930 . S
C665 H653 0.930 . S
C665 C666 1.399 . S
C665 C670 1.399 . S
C666 C665 1.399 . S
C666 C667 1.376 . S
C667 H654 0.930 . S
C667 C666 1.376 . S
C667 C668 1.388 . S
C668 H655 0.930 . S
C668 C667 1.388 . S
C668 C669 1.390 . S
C669 C668 1.390 . S
C669 C670 1.394 . S
C669 C675 1.465 . S
C670 C665 1.399 . S
C670 C669 1.394 . S
C670 C671 1.516 . S
C671 C670 1.516 . S
C671 C672 1.502 . S
C671 C673 1.561 . S
C671 C674 1.526 . S
C672 H656 0.959 . S
C672 H657 0.959 . S
C672 H658 0.961 . S
C672 C671 1.502 . S
C673 H659 0.960 . S
C673 H660 0.961 . S
C673 H661 0.959 . S
C673 C671 1.561 . S
C674 C671 1.526 . S
C674 C675 1.396 . S
C674 C679 1.390 . S
C675 C669 1.465 . S
C675 C674 1.396 . S
C675 C676 1.399 . S
C676 H662 0.929 . S
C676 C675 1.399 . S
C676 C677 1.385 . S
C677 H663 0.931 1_554 S
C677 C676 1.385 . S
C677 C678 1.389 . S
C678 C677 1.389 . S
C678 C679 1.387 . S
C679 H664 0.930 . S
C679 C674 1.390 . S
C679 C678 1.387 . S
H680 C692 0.930 1_554 S
H681 C694 0.930 . S
H682 C695 0.930 . S
H683 C699 0.959 1_556 S
H684 C699 0.959 . S
H685 C699 0.961 . S
H686 C700 0.960 . S
H687 C700 0.973 . S
H688 C700 0.959 . S
H689 C703 0.929 . S
H690 C704 0.931 . S
H691 C706 0.930 . S
C692 H680 0.930 1_556 S
C692 C693 1.396 1_455 S
C692 C697 1.399 . S
C693 C692 1.396 1_655 S
C693 C694 1.380 . S
C694 H681 0.930 . S
C694 C693 1.380 . S
C694 C695 1.388 . S
C695 H682 0.930 . S
C695 C694 1.388 . S
C695 C696 1.390 . S
C696 C695 1.390 . S
C696 C697 1.394 1_655 S
C696 C702 1.469 . S
C697 C692 1.399 . S
C697 C696 1.394 1_455 S
C697 C698 1.516 . S
C698 C697 1.516 . S
C698 C699 1.502 1_556 S
C698 C700 1.561 1_456 S
C698 C701 1.526 . S
C699 H683 0.959 1_554 S
C699 H684 0.959 . S
C699 H685 0.961 . S
C699 C698 1.502 1_554 S
C700 H686 0.960 . S
C700 H687 0.973 . S
C700 H688 0.959 . S
C700 C698 1.561 1_654 S
C701 C698 1.526 . S
C701 C702 1.379 1_455 S
C701 C706 1.390 . S
C702 C696 1.469 . S
C702 C701 1.379 1_655 S
C702 C703 1.411 . S
C703 H689 0.929 . S
C703 C702 1.411 . S
C703 C704 1.385 . S
C704 H690 0.931 . S
C704 C703 1.385 . S
C704 C705 1.389 1_655 S
C705 C704 1.389 1_455 S
C705 C706 1.387 . S
C706 H691 0.930 . S
C706 C701 1.390 . S
C706 C705 1.387 . S
H707 C719 0.930 . S
H708 C721 0.930 . S
H709 C722 0.930 . S
H710 C726 0.959 1_545 S
H711 C726 0.959 . S
H712 C726 0.961 . S
H713 C727 0.960 . S
H714 C727 0.961 . S
H715 C727 0.959 . S
H716 C730 0.929 . S
H717 C731 0.931 . S
H718 C733 0.930 . S
C719 H707 0.930 . S
C719 C720 1.399 1_565 S
C719 C724 1.399 . S
C720 C719 1.399 1_545 S
C720 C721 1.376 . S
C721 H708 0.930 . S
C721 C720 1.376 . S
C721 C722 1.388 . S
C722 H709 0.930 . S
C722 C721 1.388 . S
C722 C723 1.390 . S
C723 C722 1.390 . S
C723 C724 1.394 1_545 S
C723 C729 1.465 . S
C724 C719 1.399 . S
C724 C723 1.394 1_565 S
C724 C725 1.516 . S
C725 C724 1.516 . S
C725 C726 1.502 1_556 S
C725 C727 1.561 . S
C725 C728 1.526 . S
C726 H710 0.959 1_565 S
C726 H711 0.959 . S
C726 H712 0.961 . S
C726 C725 1.502 1_554 S
C727 H713 0.960 . S
C727 H714 0.961 . S
C727 H715 0.959 . S
C727 C725 1.561 . S
C728 C725 1.526 . S
C728 C729 1.396 1_565 S
C728 C733 1.390 . S
C729 C723 1.465 . S
C729 C728 1.396 1_545 S
C729 C730 1.399 . S
C730 H716 0.929 . S
C730 C729 1.399 . S
C730 C731 1.385 . S
C731 H717 0.931 . S
C731 C730 1.385 . S
C731 C732 1.389 . S
C732 C731 1.389 . S
C732 C733 1.387 1_545 S
C733 H718 0.930 . S
C733 C728 1.390 . S
C733 C732 1.387 1_565 S
H734 C746 0.932 . S
H735 C748 0.930 . S
H736 C749 0.930 . S
H737 C753 0.959 1_556 S
H738 C753 0.959 . S
H739 C753 0.961 . S
H740 C754 0.960 . S
H741 C754 0.961 . S
H742 C754 0.959 . S
H743 C757 0.929 . S
H744 C758 0.931 . S
H745 C760 0.930 . S
C746 H734 0.932 . S
C746 C747 1.399 . S
C746 C751 1.399 . S
C747 C746 1.399 . S
C747 C748 1.376 . S
C748 H735 0.930 . S
C748 C747 1.376 . S
C748 C749 1.388 . S
C749 H736 0.930 . S
C749 C748 1.388 . S
C749 C750 1.390 . S
C750 C749 1.390 . S
C750 C751 1.394 . S
C750 C756 1.465 . S
C751 C746 1.399 . S
C751 C750 1.394 . S
C751 C752 1.516 . S
C752 C751 1.516 . S
C752 C753 1.502 1_556 S
C752 C754 1.561 1_556 S
C752 C755 1.526 . S
C753 H737 0.959 1_554 S
C753 H738 0.959 . S
C753 H739 0.961 . S
C753 C752 1.502 1_554 S
C754 H740 0.960 . S
C754 H741 0.961 . S
C754 H742 0.959 . S
C754 C752 1.561 1_554 S
C755 C752 1.526 . S
C755 C756 1.396 . S
C755 C760 1.390 . S
C756 C750 1.465 . S
C756 C755 1.396 . S
C756 C757 1.399 . S
C757 H743 0.929 . S
C757 C756 1.399 . S
C757 C758 1.385 . S
C758 H744 0.931 . S
C758 C757 1.385 . S
C758 C759 1.389 . S
C759 C758 1.389 . S
C759 C760 1.387 . S
C760 H745 0.930 . S
C760 C755 1.390 . S
C760 C759 1.387 . S
H761 C773 0.930 . S
H762 C775 0.930 1_554 S
H763 C776 0.930 1_554 S
H764 C780 0.959 . S
H765 C780 0.959 . S
H766 C780 0.961 . S
H767 C781 0.960 . S
H768 C781 0.961 . S
H769 C781 0.959 . S
H770 C784 0.929 1_554 S
H771 C785 0.931 . S
H772 C787 0.930 . S
C773 H761 0.930 . S
C773 C774 1.399 . S
C773 C778 1.399 . S
C774 C773 1.399 . S
C774 C775 1.376 . S
C775 H762 0.930 1_556 S
C775 C774 1.376 . S
C775 C776 1.388 . S
C776 H763 0.930 1_556 S
C776 C775 1.388 . S
C776 C777 1.390 . S
C777 C776 1.390 . S
C777 C778 1.394 . S
C777 C783 1.465 . S
C778 C773 1.399 . S
C778 C777 1.394 . S
C778 C779 1.516 . S
C779 C778 1.516 . S
C779 C780 1.502 . S
C779 C781 1.561 . S
C779 C782 1.526 . S
C780 H764 0.959 . S
C780 H765 0.959 . S
C780 H766 0.961 . S
C780 C779 1.502 . S
C781 H767 0.960 . S
C781 H768 0.961 . S
C781 H769 0.959 . S
C781 C779 1.561 . S
C782 C779 1.526 . S
C782 C783 1.396 . S
C782 C787 1.390 . S
C783 C777 1.465 . S
C783 C782 1.396 . S
C783 C784 1.399 . S
C784 H770 0.929 1_556 S
C784 C783 1.399 . S
C784 C785 1.385 . S
C785 H771 0.931 . S
C785 C784 1.385 . S
C785 C786 1.389 . S
C786 C785 1.389 . S
C786 C787 1.387 . S
C787 H772 0.930 . S
C787 C782 1.390 . S
C787 C786 1.387 . S
H788 C800 0.930 . S
H789 C802 0.930 . S
H790 C803 0.930 . S
H791 C807 0.959 . S
H792 C807 0.959 . S
H793 C807 0.961 . S
H794 C808 0.960 . S
H795 C808 0.961 . S
H796 C808 0.959 . S
H797 C811 0.929 . S
H798 C812 0.931 . S
H799 C814 0.921 1_455 S
C800 H788 0.930 . S
C800 C801 1.399 1_455 S
C800 C805 1.398 . S
C801 C800 1.399 1_655 S
C801 C802 1.376 . S
C802 H789 0.930 . S
C802 C801 1.376 . S
C802 C803 1.388 . S
C803 H790 0.930 . S
C803 C802 1.388 . S
C803 C804 1.390 . S
C804 C803 1.390 . S
C804 C805 1.396 1_655 S
C804 C810 1.465 . S
C805 C800 1.398 . S
C805 C804 1.396 1_455 S
C805 C806 1.515 . S
C806 C805 1.515 . S
C806 C807 1.502 . S
C806 C808 1.561 1_455 S
C806 C809 1.526 1_455 S
C807 H791 0.959 . S
C807 H792 0.959 . S
C807 H793 0.961 . S
C807 C806 1.502 . S
C808 H794 0.960 . S
C808 H795 0.961 . S
C808 H796 0.959 . S
C808 C806 1.561 1_655 S
C809 C806 1.526 1_655 S
C809 C810 1.396 . S
C809 C814 1.391 . S
C810 C804 1.465 . S
C810 C809 1.396 . S
C810 C811 1.399 . S
C811 H797 0.929 . S
C811 C810 1.399 . S
C811 C812 1.385 . S
C812 H798 0.931 . S
C812 C811 1.385 . S
C812 C813 1.389 . S
C813 C812 1.389 . S
C813 C814 1.394 . S
C814 H799 0.921 1_655 S
C814 C809 1.391 . S
C814 C813 1.394 . S
H815 C827 0.930 . S
H816 C829 0.930 . S
H817 C830 0.930 . S
H818 C834 0.959 . S
H819 C834 0.959 . S
H820 C834 0.961 . S
H821 C835 0.960 . S
H822 C835 0.961 . S
H823 C835 0.959 . S
H824 C838 0.929 . S
H825 C839 0.931 . S
H826 C841 0.930 1_545 S
C827 H815 0.930 . S
C827 C828 1.399 1_545 S
C827 C832 1.399 . S
C828 C827 1.399 1_565 S
C828 C829 1.376 . S
C829 H816 0.930 . S
C829 C828 1.376 . S
C829 C830 1.388 . S
C830 H817 0.930 . S
C830 C829 1.388 . S
C830 C831 1.390 . S
C831 C830 1.390 . S
C831 C832 1.394 1_565 S
C831 C837 1.465 . S
C832 C827 1.399 . S
C832 C831 1.394 1_545 S
C832 C833 1.516 . S
C833 C832 1.516 . S
C833 C834 1.502 1_545 S
C833 C835 1.561 . S
C833 C836 1.526 1_545 S
C834 H818 0.959 . S
C834 H819 0.959 . S
C834 H820 0.961 . S
C834 C833 1.502 1_565 S
C835 H821 0.960 . S
C835 H822 0.961 . S
C835 H823 0.959 . S
C835 C833 1.561 . S
C836 C833 1.526 1_565 S
C836 C837 1.396 . S
C836 C841 1.390 . S
C837 C831 1.465 . S
C837 C836 1.396 . S
C837 C838 1.399 . S
C838 H824 0.929 . S
C838 C837 1.399 . S
C838 C839 1.385 . S
C839 H825 0.931 . S
C839 C838 1.385 . S
C839 C840 1.389 . S
C840 C839 1.389 . S
C840 C841 1.387 . S
C841 H826 0.930 1_565 S
C841 C836 1.390 . S
C841 C840 1.387 . S
H842 C854 0.930 . S
H843 C856 0.930 . S
H844 C857 0.930 . S
H845 C861 0.959 . S
H846 C861 0.959 . S
H847 C861 0.961 . S
H848 C862 0.960 . S
H849 C862 0.961 . S
H850 C862 0.959 . S
H851 C865 0.929 . S
H852 C866 0.931 . S
H853 C868 0.930 . S
C854 H842 0.930 . S
C854 C855 1.399 . S
C854 C859 1.399 . S
C855 C854 1.399 . S
C855 C856 1.376 . S
C856 H843 0.930 . S
C856 C855 1.376 . S
C856 C857 1.388 . S
C857 H844 0.930 . S
C857 C856 1.388 . S
C857 C858 1.390 . S
C858 C857 1.390 . S
C858 C859 1.394 . S
C858 C864 1.465 . S
C859 C854 1.399 . S
C859 C858 1.394 . S
C859 C860 1.516 . S
C860 C859 1.516 . S
C860 C861 1.502 . S
C860 C862 1.561 . S
C860 C863 1.526 . S
C861 H845 0.959 . S
C861 H846 0.959 . S
C861 H847 0.961 . S
C861 C860 1.502 . S
C862 H848 0.960 . S
C862 H849 0.961 . S
C862 H850 0.959 . S
C862 C860 1.561 . S
C863 C860 1.526 . S
C863 C864 1.396 . S
C863 C868 1.390 . S
C864 C858 1.465 . S
C864 C863 1.396 . S
C864 C865 1.399 . S
C865 H851 0.929 . S
C865 C864 1.399 . S
C865 C866 1.385 . S
C866 H852 0.931 . S
C866 C865 1.385 . S
C866 C867 1.389 . S
C867 C866 1.389 . S
C867 C868 1.387 . S
C868 H853 0.930 . S
C868 C863 1.390 . S
C868 C867 1.387 . S
H869 C881 0.930 . S
H870 C883 0.930 . S
H871 C884 0.930 . S
H872 C888 0.959 . S
H873 C888 0.959 . S
H874 C888 0.961 . S
H875 C889 0.960 . S
H876 C889 0.961 . S
H877 C889 0.959 . S
H878 C892 0.929 . S
H879 C893 0.931 . S
H880 C895 0.930 . S
C881 H869 0.930 . S
C881 C882 1.399 . S
C881 C886 1.399 . S
C882 C881 1.399 . S
C882 C883 1.376 . S
C883 H870 0.930 . S
C883 C882 1.376 . S
C883 C884 1.388 . S
C884 H871 0.930 . S
C884 C883 1.388 . S
C884 C885 1.390 . S
C885 C884 1.390 . S
C885 C886 1.394 . S
C885 C891 1.465 . S
C886 C881 1.399 . S
C886 C885 1.394 . S
C886 C887 1.516 . S
C887 C886 1.516 . S
C887 C888 1.502 . S
C887 C889 1.561 . S
C887 C890 1.526 . S
C888 H872 0.959 . S
C888 H873 0.959 . S
C888 H874 0.961 . S
C888 C887 1.502 . S
C889 H875 0.960 . S
C889 H876 0.961 . S
C889 H877 0.959 . S
C889 C887 1.561 . S
C890 C887 1.526 . S
C890 C891 1.396 . S
C890 C895 1.390 . S
C891 C885 1.465 . S
C891 C890 1.396 . S
C891 C892 1.399 . S
C892 H878 0.929 . S
C892 C891 1.399 . S
C892 C893 1.385 . S
C893 H879 0.931 . S
C893 C892 1.385 . S
C893 C894 1.389 . S
C894 C893 1.389 . S
C894 C895 1.387 . S
C895 H880 0.930 . S
C895 C890 1.390 . S
C895 C894 1.387 . S
C261 C76 1.823 1_545 S
C273 C97 1.954 1_545 S
C300 C137 1.952 . S
C288 C87 1.794 . S
C327 C177 1.967 . S
C315 C54 1.864 . S
C354 C217 1.946 1_455 S
C342 C65 1.781 . S
C381 C106 1.957 1_565 S
C369 C32 1.850 . S
C396 C43 1.791 . S
C408 C146 1.962 . S
C423 C10 1.866 . S
C435 C186 1.983 . S
C450 C21 1.807 . S
C462 C226 1.956 1_655 S
C489 C103 0.422 . S
C477 C60 0.589 . S
C516 C143 0.557 . S
C504 C71 0.585 . S
C543 C183 0.467 . S
C531 C82 0.605 . S
C558 C49 0.578 . S
C570 C223 0.425 . S
C585 C16 0.473 1_655 S
C597 C94 0.468 . S
C624 C134 0.557 . S
C612 C27 0.415 1_565 S
C651 C174 0.554 . S
C639 C38 0.553 . S
C666 C5 0.607 . S
C678 C214 0.472 . S
C693 C59 2.086 1_655 S
C705 C107 2.280 . S
C720 C70 2.061 . S
C732 C147 2.264 . S
C759 C187 2.228 . S
C747 C81 2.034 . S
C786 C227 2.268 . S
C774 C48 1.982 . S
C801 C15 2.081 1_655 S
C813 C98 2.312 . S
C840 C138 2.259 . S
C828 C26 1.968 1_565 S
C867 C178 2.218 . S
C855 C37 1.991 . S
C882 C4 2.007 . S
C894 C218 2.273 . S
