# Generated by pormake.
# Topology nom, (4,4)-cn, num edge types: 1
# Building blocks:
#     Node 0, Type 0, BuildingBlock: NAHDIM_clean_linker_0, # of connection points: 4
#     Node 1, Type 0, BuildingBlock: NAHDIM_clean_linker_0, # of connection points: 4
#     Node 2, Type 0, BuildingBlock: NAHDIM_clean_linker_0, # of connection points: 4
#     Node 3, Type 0, BuildingBlock: NAHDIM_clean_linker_0, # of connection points: 4
#     Node 4, Type 0, BuildingBlock: NAHDIM_clean_linker_0, # of connection points: 4
#     Node 5, Type 0, BuildingBlock: NAHDIM_clean_linker_0, # of connection points: 4
#     Node 6, Type 1, BuildingBlock: QUQFOY_clean_sbu_3, # of connection points: 4
#     Node 7, Type 1, BuildingBlock: QUQFOY_clean_sbu_3, # of connection points: 4
#     Node 8, Type 1, BuildingBlock: QUQFOY_clean_sbu_3, # of connection points: 4
#     Node 9, Type 1, BuildingBlock: QUQFOY_clean_sbu_3, # of connection points: 4
#     Node 10, Type 1, BuildingBlock: QUQFOY_clean_sbu_3, # of connection points: 4
#     Node 11, Type 1, BuildingBlock: QUQFOY_clean_sbu_3, # of connection points: 4
#     Edge 12, Type (0, 1), BuildingBlock: MIFKUJ_clean_linker_0, # of connection points: 2
#     Edge 13, Type (0, 1), BuildingBlock: MIFKUJ_clean_linker_0, # of connection points: 2
#     Edge 14, Type (0, 1), BuildingBlock: MIFKUJ_clean_linker_0, # of connection points: 2
#     Edge 15, Type (0, 1), BuildingBlock: MIFKUJ_clean_linker_0, # of connection points: 2
#     Edge 16, Type (0, 1), BuildingBlock: MIFKUJ_clean_linker_0, # of connection points: 2
#     Edge 17, Type (0, 1), BuildingBlock: MIFKUJ_clean_linker_0, # of connection points: 2
#     Edge 18, Type (0, 1), BuildingBlock: MIFKUJ_clean_linker_0, # of connection points: 2
#     Edge 19, Type (0, 1), BuildingBlock: MIFKUJ_clean_linker_0, # of connection points: 2
#     Edge 20, Type (0, 1), BuildingBlock: MIFKUJ_clean_linker_0, # of connection points: 2
#     Edge 21, Type (0, 1), BuildingBlock: MIFKUJ_clean_linker_0, # of connection points: 2
#     Edge 22, Type (0, 1), BuildingBlock: MIFKUJ_clean_linker_0, # of connection points: 2
#     Edge 23, Type (0, 1), BuildingBlock: MIFKUJ_clean_linker_0, # of connection points: 2
#     Edge 24, Type (0, 1), BuildingBlock: MIFKUJ_clean_linker_0, # of connection points: 2
#     Edge 25, Type (0, 1), BuildingBlock: MIFKUJ_clean_linker_0, # of connection points: 2
#     Edge 26, Type (0, 1), BuildingBlock: MIFKUJ_clean_linker_0, # of connection points: 2
#     Edge 27, Type (0, 1), BuildingBlock: MIFKUJ_clean_linker_0, # of connection points: 2
#     Edge 28, Type (0, 1), BuildingBlock: MIFKUJ_clean_linker_0, # of connection points: 2
#     Edge 29, Type (0, 1), BuildingBlock: MIFKUJ_clean_linker_0, # of connection points: 2
#     Edge 30, Type (0, 1), BuildingBlock: MIFKUJ_clean_linker_0, # of connection points: 2
#     Edge 31, Type (0, 1), BuildingBlock: MIFKUJ_clean_linker_0, # of connection points: 2
#     Edge 32, Type (0, 1), BuildingBlock: MIFKUJ_clean_linker_0, # of connection points: 2
#     Edge 33, Type (0, 1), BuildingBlock: MIFKUJ_clean_linker_0, # of connection points: 2
#     Edge 34, Type (0, 1), BuildingBlock: MIFKUJ_clean_linker_0, # of connection points: 2
#     Edge 35, Type (0, 1), BuildingBlock: MIFKUJ_clean_linker_0, # of connection points: 2
# Relax obj value: 0.047
# Max RMSD: 0.129
# Mean RMSD: 0.099
data_MOF--net-nom--node1-QUQFOY_clean_sbu_3--node2-NAHDIM_clean_linker_0--edge1-MIFKUJ_clean_linker_0
_symmetry_space_group_name_H-M    P1
_symmetry_Int_Tables_number       1
_symmetry_cell_setting            triclinic
loop_
_symmetry_equiv_pos_as_xyz
'x, y, z'
_cell_length_a     70.096422
_cell_length_b     71.775014
_cell_length_c     85.667786
_cell_angle_alpha  90.104342
_cell_angle_beta   90.152315
_cell_angle_gamma 119.98738
loop_
_atom_site_label
_atom_site_type_symbol
_atom_site_fract_x
_atom_site_fract_y
_atom_site_fract_z
_atom_type_partial_charge
C0 C 0.13859 0.57575 0.26054 0.0
C1 C 0.14643 0.58431 0.27715 0.0
C2 C 0.11055 0.57429 0.28887 0.0
C3 C 0.1028 0.55212 0.29015 0.0
C4 C 0.08071 0.53774 0.29382 0.0
C5 C 0.06609 0.54568 0.29621 0.0
C6 C 0.07399 0.56805 0.29537 0.0
C7 C 0.09622 0.58208 0.29188 0.0
C8 C 0.07284 0.51399 0.29478 0.0
C9 C 0.05882 0.57707 0.2977 0.0
C10 C 0.92785 0.47908 0.2123 0.0
C11 C 0.94109 0.49042 0.22634 0.0
C12 C 0.9693 0.4912 0.24344 0.0
C13 C 0.96964 0.5066 0.25378 0.0
C14 C 0.98198 0.51201 0.26761 0.0
C15 C 0.99372 0.50133 0.27147 0.0
C16 C 0.99339 0.48577 0.26114 0.0
C17 C 0.98135 0.48109 0.24714 0.0
C18 C 0.98256 0.52932 0.27802 0.0
C19 C 0.00567 0.47406 0.26492 0.0
C20 C 0.89678 0.44114 0.35017 0.0
C21 C 0.90352 0.4619 0.34463 0.0
C22 C 0.926 0.47719 0.34331 0.0
C23 C 0.94196 0.47139 0.34731 0.0
C24 C 0.93513 0.45063 0.3533 0.0
C25 C 0.91258 0.43588 0.35487 0.0
C26 C 0.93267 0.49951 0.3376 0.0
C27 C 0.95164 0.44393 0.35787 0.0
C28 C 0.06725 0.59922 0.41389 0.0
C29 C 0.0658 0.57744 0.41123 0.0
C30 C 0.03365 0.55006 0.39801 0.0
C31 C 0.02168 0.5563 0.38848 0.0
C32 C 0.01089 0.54438 0.3751 0.0
C33 C 0.01192 0.52565 0.37145 0.0
C34 C 0.02382 0.51916 0.38126 0.0
C35 C 0.0347 0.5316 0.39446 0.0
C36 C -0.0016 0.55178 0.36488 0.0
C37 C 0.02502 0.49918 0.37776 0.0
C38 C 0.04227 0.53042 0.29844 0.0
C39 C 0.02943 0.52144 0.28506 0.0
C40 C 0.00682 0.50714 0.2861 0.0
C41 C 0.99677 0.50088 0.3009 0.0
C42 C 0.97433 0.48547 0.30238 0.0
C43 C 0.96426 0.4804 0.31695 0.0
C44 C 0.97615 0.49092 0.33052 0.0
C45 C 0.96579 0.48694 0.34525 0.0
C46 C 0.97804 0.49809 0.35841 0.0
C47 C 0.00052 0.51298 0.35732 0.0
C48 C 0.01133 0.51673 0.3428 0.0
C49 C 0.03406 0.53122 0.34139 0.0
C50 C 0.0444 0.53525 0.32694 0.0
C51 C 0.03226 0.52548 0.31331 0.0
C52 C 0.00939 0.5106 0.31452 0.0
C53 C -0.00101 0.50594 0.32931 0.0
C54 C 0.84676 0.39908 0.33587 0.0
C55 C 0.85862 0.42267 0.341 0.0
O56 O 0.13147 0.58866 0.28448 0.0
O57 O 0.0438 0.5617 0.41087 0.0
O58 O 0.87523 0.42592 0.35137 0.0
O59 O 0.95753 0.48569 0.2299 0.0
H60 H 0.14839 0.57223 0.28402 0.0
H61 H 0.12286 0.56022 0.26082 0.0
H62 H 0.136 0.58742 0.25366 0.0
H63 H 0.15097 0.57297 0.25452 0.0
H64 H 0.11376 0.54584 0.28814 0.0
H65 H 0.10241 0.59922 0.29099 0.0
H66 H 0.06136 0.50551 0.28494 0.0
H67 H 0.08663 0.51058 0.29422 0.0
H68 H 0.06363 0.50728 0.30579 0.0
H69 H 0.06736 0.59476 0.29596 0.0
H70 H 0.04474 0.56932 0.28942 0.0
H71 H 0.05199 0.57344 0.30969 0.0
H72 H 0.94686 0.50798 0.22663 0.0
H73 H 0.9312 0.49218 0.20368 0.0
H74 H 0.93763 0.47302 0.20581 0.0
H75 H 0.89633 0.45852 0.2213 0.0
H76 H 0.96053 0.51469 0.2511 0.0
H77 H 0.98101 0.46924 0.23911 0.0
H78 H 0.97299 0.52188 0.28877 0.0
H79 H -0.00025 0.54096 0.28158 0.0
H80 H 0.97543 0.53829 0.27221 0.0
H81 H 0.00185 0.46081 0.25654 0.0
H82 H 0.02367 0.48557 0.26464 0.0
H83 H 0.00151 0.46731 0.27689 0.0
H84 H 0.86563 0.43255 0.33029 0.0
H85 H 0.89124 0.46623 0.34154 0.0
H86 H 0.90714 0.41991 0.35938 0.0
H87 H 0.93974 0.50175 0.32572 0.0
H88 H 0.9185 0.50237 0.3371 0.0
H89 H 0.94557 0.51181 0.34534 0.0
H90 H 0.94362 0.42666 0.36109 0.0
H91 H 0.9632 0.44697 0.34809 0.0
H92 H 0.96151 0.45372 0.36799 0.0
H93 H 0.07385 0.57811 0.39985 0.0
H94 H 0.08458 0.61255 0.41334 0.0
H95 H 0.0578 0.60201 0.40466 0.0
H96 H 0.06026 0.59958 0.42544 0.0
H97 H 0.02095 0.5706 0.39151 0.0
H98 H 0.04397 0.52696 0.40209 0.0
H99 H 0.00432 0.55361 0.35266 0.0
H100 H 0.98063 0.53946 0.36486 0.0
H101 H 0.00023 0.56732 0.36888 0.0
H102 H 0.03401 0.49575 0.38698 0.0
H103 H 0.00814 0.48513 0.3766 0.0
H104 H 0.0335 0.5011 0.36645 0.0
H105 H 0.03703 0.5262 0.27365 0.0
H106 H 0.9643 0.47724 0.29228 0.0
H107 H 0.94693 0.46845 0.31738 0.0
H108 H 0.96988 0.49538 0.36961 0.0
H109 H 0.04413 0.53962 0.35144 0.0
H110 H 0.06193 0.54651 0.32654 0.0
H111 H 0.83906 0.38835 0.34605 0.0
H112 H 0.83379 0.39595 0.32708 0.0
H113 H 0.85872 0.39516 0.33047 0.0
C114 C 0.39078 0.8802 0.51536 0.0
C115 C 0.40314 0.88225 0.53069 0.0
C116 C 0.44046 0.91186 0.52472 0.0
C117 C 0.46211 0.91712 0.52144 0.0
C118 C 0.4783 0.93831 0.51779 0.0
C119 C 0.47258 0.9546 0.51728 0.0
C120 C 0.45073 0.94946 0.52064 0.0
C121 C 0.43498 0.92825 0.52447 0.0
C122 C 0.50149 0.94331 0.51446 0.0
C123 C 0.44402 0.96643 0.52034 0.0
C124 C 0.54112 0.09402 0.5942 0.0
C125 C 0.5328 0.08319 0.57891 0.0
C126 C 0.53556 0.05765 0.56166 0.0
C127 C 0.51687 0.05334 0.55281 0.0
C128 C 0.50963 0.03852 0.54052 0.0
C129 C 0.52149 0.02794 0.53679 0.0
C130 C 0.54024 0.03208 0.54568 0.0
C131 C 0.54702 0.04691 0.55807 0.0
C132 C 0.48944 0.03446 0.53135 0.0
C133 C 0.55323 0.0211 0.54191 0.0
C134 C 0.56409 0.11364 0.45115 0.0
C135 C 0.54385 0.10559 0.45874 0.0
C136 C 0.53119 0.08362 0.46231 0.0
C137 C 0.53935 0.06964 0.45855 0.0
C138 C 0.55993 0.07789 0.45097 0.0
C139 C 0.57188 0.0998 0.44712 0.0
C140 C 0.50899 0.07533 0.46988 0.0
C141 C 0.56928 0.06358 0.44695 0.0
C142 C 0.41731 0.91088 0.41437 0.0
C143 C 0.44049 0.92801 0.40938 0.0
C144 C 0.45737 0.96502 0.41829 0.0
C145 C 0.45083 0.97796 0.42609 0.0
C146 C 0.46508 0.99383 0.43663 0.0
C147 C 0.48645 0.99694 0.43909 0.0
C148 C 0.49381 0.9852 0.43015 0.0
C149 C 0.47914 0.96929 0.4198 0.0
C150 C 0.45691 0.00643 0.44577 0.0
C151 C 0.51678 0.98872 0.43212 0.0
C152 C 0.48941 0.97714 0.51345 0.0
C153 C 0.5002 0.99128 0.52583 0.0
C154 C 0.51447 0.01318 0.5232 0.0
C155 C 0.51889 0.02122 0.5078 0.0
C156 C 0.53367 0.04308 0.50479 0.0
C157 C 0.53651 0.05124 0.48973 0.0
C158 C 0.52447 0.0379 0.47715 0.0
C159 C 0.52599 0.04628 0.46197 0.0
C160 C 0.5138 0.0325 0.44974 0.0
C161 C 0.49999 0.01052 0.45225 0.0
C162 C 0.49817 0.00182 0.46733 0.0
C163 C 0.48417 0.97975 0.47027 0.0
C164 C 0.48164 0.97153 0.48529 0.0
C165 C 0.49294 0.98505 0.49797 0.0
C166 C 0.50765 0.00721 0.49518 0.0
C167 C 0.5103 0.01561 0.47985 0.0
C168 C 0.60964 0.15925 0.45928 0.0
C169 C 0.58491 0.15137 0.45796 0.0
O170 O 0.4255 0.89093 0.52793 0.0
O171 O 0.44211 0.94804 0.40989 0.0
O172 O 0.57601 0.13466 0.44722 0.0
O173 O 0.54288 0.07192 0.57372 0.0
H174 H 0.40059 0.89279 0.53894 0.0
H175 H 0.37283 0.87283 0.51759 0.0
H176 H 0.39341 0.87004 0.50682 0.0
H177 H 0.39654 0.89618 0.51001 0.0
H178 H 0.4663 0.90449 0.52174 0.0
H179 H 0.41846 0.92472 0.52718 0.0
H180 H 0.51308 0.95582 0.52273 0.0
H181 H 0.50339 0.92889 0.51548 0.0
H182 H 0.50622 0.94992 0.50249 0.0
H183 H 0.42594 0.95946 0.52159 0.0
H184 H 0.45232 0.97793 0.53008 0.0
H185 H 0.4493 0.97562 0.50927 0.0
H186 H 0.5315 0.09342 0.56964 0.0
H187 H 0.51377 0.07794 0.60901 0.0
H188 H 0.55725 0.09453 0.59639 0.0
H189 H 0.549 0.11173 0.59162 0.0
H190 H 0.50781 0.06153 0.55538 0.0
H191 H 0.56139 0.05029 0.56496 0.0
H192 H 0.47806 0.01694 0.52985 0.0
H193 H 0.48037 0.04159 0.53709 0.0
H194 H 0.49445 0.0416 0.51955 0.0
H195 H 0.5677 0.02637 0.54975 0.0
H196 H 0.54244 0.00341 0.54296 0.0
H197 H 0.55903 0.02455 0.52964 0.0
H198 H 0.57742 0.14568 0.46969 0.0
H199 H 0.53783 0.11647 0.46155 0.0
H200 H 0.58754 0.10629 0.44117 0.0
H201 H 0.50953 0.07008 0.48197 0.0
H202 H 0.50397 0.08776 0.47038 0.0
H203 H 0.49622 0.06114 0.46338 0.0
H204 H 0.5865 0.07289 0.4427 0.0
H205 H 0.56885 0.05415 0.45734 0.0
H206 H 0.559 0.05198 0.43772 0.0
H207 H 0.4519 0.92701 0.41799 0.0
H208 H 0.41549 0.8946 0.41365 0.0
H209 H 0.41445 0.91384 0.42665 0.0
H210 H 0.40456 0.91131 0.4069 0.0
H211 H 0.43411 0.97477 0.42456 0.0
H212 H 0.48449 0.95985 0.4132 0.0
H213 H 0.45593 0.00228 0.45833 0.0
H214 H 0.46869 0.02393 0.44467 0.0
H215 H 0.4404 0.00308 0.44178 0.0
H216 H 0.52073 0.97994 0.42318 0.0
H217 H 0.52905 0.00615 0.43139 0.0
H218 H 0.51839 0.98311 0.44387 0.0
H219 H 0.49652 0.98539 0.53773 0.0
H220 H 0.54304 0.05418 0.51409 0.0
H221 H 0.54793 0.06823 0.48812 0.0
H222 H 0.51474 0.03903 0.43817 0.0
H223 H 0.47477 0.96858 0.46102 0.0
H224 H 0.47044 0.95448 0.48687 0.0
H225 H 0.61815 0.16696 0.44822 0.0
H226 H 0.61733 0.17085 0.46905 0.0
H227 H 0.61216 0.14541 0.46166 0.0
C228 C 0.56475 0.44692 0.71856 0.0
C229 C 0.56404 0.43835 0.70202 0.0
C230 C 0.53839 0.44791 0.6897 0.0
C231 C 0.55364 0.46978 0.68718 0.0
C232 C 0.54658 0.48411 0.68258 0.0
C233 C 0.5238 0.47654 0.68071 0.0
C234 C 0.50842 0.4545 0.68305 0.0
C235 C 0.51599 0.44042 0.68727 0.0
C236 C 0.56349 0.50746 0.67996 0.0
C237 C 0.48397 0.44592 0.68144 0.0
C238 C 0.53721 0.58096 0.76261 0.0
C239 C 0.51606 0.56457 0.75428 0.0
C240 C 0.51422 0.55898 0.72633 0.0
C241 C 0.49638 0.538 0.72499 0.0
C242 C 0.49426 0.5253 0.71191 0.0
C243 C 0.51064 0.53368 0.70019 0.0
C244 C 0.52865 0.55494 0.70157 0.0
C245 C 0.52987 0.56751 0.71448 0.0
C246 C 0.47463 0.5029 0.71068 0.0
C247 C 0.54685 0.56425 0.68962 0.0
C248 C 0.46627 0.57927 0.62086 0.0
C249 C 0.45068 0.55822 0.62523 0.0
C250 C 0.45642 0.54212 0.62599 0.0
C251 C 0.47827 0.54732 0.62255 0.0
C252 C 0.49363 0.5682 0.61729 0.0
C253 C 0.48729 0.58387 0.61632 0.0
C254 C 0.43938 0.51976 0.63102 0.0
C255 C 0.51697 0.5742 0.61334 0.0
C256 C 0.4942 0.41487 0.57076 0.0
C257 C 0.5064 0.43946 0.57017 0.0
C258 C 0.49171 0.46134 0.58047 0.0
C259 C 0.47201 0.45813 0.58683 0.0
C260 C 0.47196 0.47225 0.59813 0.0
C261 C 0.49214 0.49037 0.60272 0.0
C262 C 0.51198 0.4946 0.59536 0.0
C263 C 0.51159 0.47987 0.5844 0.0
C264 C 0.45046 0.46735 0.60557 0.0
C265 C 0.53365 0.51428 0.59946 0.0
C266 C 0.51614 0.49195 0.67708 0.0
C267 C 0.51566 0.5046 0.68931 0.0
C268 C 0.5094 0.52002 0.68678 0.0
C269 C 0.50311 0.52279 0.67166 0.0
C270 C 0.49636 0.5379 0.66877 0.0
C271 C 0.4908 0.54093 0.65377 0.0
C272 C 0.49138 0.5287 0.64112 0.0
C273 C 0.48556 0.53155 0.62585 0.0
C274 C 0.48634 0.51916 0.61353 0.0
C275 C 0.49265 0.50376 0.61608 0.0
C276 C 0.49849 0.50063 0.63128 0.0
C277 C 0.50482 0.48519 0.63426 0.0
C278 C 0.5108 0.48244 0.64921 0.0
C279 C 0.51022 0.49468 0.66182 0.0
C280 C 0.50368 0.51018 0.65912 0.0
C281 C 0.49787 0.51319 0.64382 0.0
C282 C 0.45826 0.62082 0.63707 0.0
C283 C 0.44772 0.59742 0.63164 0.0
O284 O 0.54446 0.43361 0.69466 0.0
O285 O 0.49099 0.44615 0.5707 0.0
O286 O 0.46173 0.59555 0.62118 0.0
O287 O 0.51682 0.57126 0.73903 0.0
H288 H 0.57823 0.45061 0.6952 0.0
H289 H 0.56416 0.46207 0.71811 0.0
H290 H 0.5505 0.43494 0.72549 0.0
H291 H 0.58025 0.45041 0.72459 0.0
H292 H 0.57107 0.4759 0.68879 0.0
H293 H 0.50435 0.42352 0.68917 0.0
H294 H 0.5623 0.51739 0.68943 0.0
H295 H 0.58057 0.51022 0.67982 0.0
H296 H 0.56024 0.5131 0.66873 0.0
H297 H 0.47412 0.42876 0.68491 0.0
H298 H 0.47899 0.45555 0.68877 0.0
H299 H 0.47995 0.44742 0.66914 0.0
H300 H 0.51556 0.54879 0.75456 0.0
H301 H 0.53761 0.57577 0.77476 0.0
H302 H 0.55174 0.58242 0.75633 0.0
H303 H 0.53846 0.59702 0.7629 0.0
H304 H 0.48411 0.53168 0.73413 0.0
H305 H 0.54352 0.5838 0.7157 0.0
H306 H 0.48013 0.49095 0.71224 0.0
H307 H 0.46197 0.49987 0.71963 0.0
H308 H 0.46699 0.50028 0.69891 0.0
H309 H 0.56119 0.57962 0.69365 0.0
H310 H 0.55255 0.55268 0.68695 0.0
H311 H 0.54056 0.56738 0.67862 0.0
H312 H 0.44568 0.58766 0.64228 0.0
H313 H 0.43411 0.55441 0.62821 0.0
H314 H 0.49906 0.60009 0.6127 0.0
H315 H 0.44331 0.51678 0.643 0.0
H316 H 0.4225 0.51749 0.63104 0.0
H317 H 0.43965 0.50756 0.62317 0.0
H318 H 0.5269 0.59114 0.60937 0.0
H319 H 0.52507 0.57194 0.62375 0.0
H320 H 0.51689 0.56343 0.60399 0.0
H321 H 0.51745 0.4454 0.5806 0.0
H322 H 0.50606 0.40887 0.57091 0.0
H323 H 0.48414 0.40923 0.58155 0.0
H324 H 0.48309 0.40791 0.56049 0.0
H325 H 0.45674 0.44393 0.58344 0.0
H326 H 0.52677 0.48273 0.579 0.0
H327 H 0.45158 0.46624 0.61844 0.0
H328 H 0.44712 0.48064 0.60315 0.0
H329 H 0.43635 0.45208 0.60118 0.0
H330 H 0.54674 0.51715 0.59093 0.0
H331 H 0.53175 0.52874 0.59995 0.0
H332 H 0.53907 0.51217 0.61118 0.0
H333 H 0.52059 0.50267 0.70094 0.0
H334 H 0.49541 0.54765 0.67805 0.0
H335 H 0.486 0.553 0.65227 0.0
H336 H 0.48175 0.52136 0.60186 0.0
H337 H 0.50536 0.4751 0.62508 0.0
H338 H 0.51578 0.47051 0.65076 0.0
H339 H 0.4474 0.6227 0.64559 0.0
H340 H 0.47428 0.62571 0.64287 0.0
H341 H 0.46123 0.63168 0.62701 0.0
C342 C 0.12159 0.51834 0.89418 0.0
C343 C 0.12608 0.53367 0.88049 0.0
C344 C 0.09542 0.5197 0.86197 0.0
C345 C 0.09203 0.53733 0.86088 0.0
C346 C 0.072 0.53464 0.85522 0.0
C347 C 0.05519 0.51393 0.85058 0.0
C348 C 0.0589 0.49628 0.85124 0.0
C349 C 0.07919 0.49954 0.85669 0.0
C350 C 0.06873 0.55385 0.8543 0.0
C351 C 0.04138 0.47388 0.84646 0.0
C352 C 0.93789 0.46834 0.93572 0.0
C353 C 0.95398 0.47817 0.92276 0.0
C354 C 0.95598 0.48516 0.89532 0.0
C355 C 0.95837 0.46942 0.88736 0.0
C356 C 0.9711 0.47448 0.87383 0.0
C357 C 0.98156 0.49579 0.8681 0.0
C358 C 0.97853 0.51158 0.87578 0.0
C359 C 0.96561 0.50601 0.88934 0.0
C360 C 0.97397 0.45719 0.86597 0.0
C361 C 0.98937 0.53437 0.86986 0.0
C362 C 0.89666 0.45955 0.78912 0.0
C363 C 0.90436 0.44515 0.79182 0.0
C364 C 0.92697 0.45228 0.79164 0.0
C365 C 0.94208 0.47423 0.78869 0.0
C366 C 0.93423 0.48828 0.78457 0.0
C367 C 0.91149 0.48067 0.78471 0.0
C368 C 0.93478 0.4367 0.79556 0.0
C369 C 0.94994 0.51166 0.78106 0.0
C370 C 0.10464 0.50745 0.74576 0.0
C371 C 0.08758 0.51421 0.74214 0.0
C372 C 0.04952 0.49483 0.75082 0.0
C373 C 0.03505 0.47532 0.75792 0.0
C374 C 0.01864 0.47371 0.76808 0.0
C375 C 0.0165 0.49202 0.77085 0.0
C376 C 0.02994 0.51132 0.76268 0.0
C377 C 0.04638 0.51255 0.75273 0.0
C378 C 0.00441 0.45281 0.7765 0.0
C379 C 0.02766 0.53094 0.76508 0.0
C380 C 0.03324 0.51036 0.84596 0.0
C381 C 0.01864 0.50783 0.8579 0.0
C382 C 0.99673 0.5016 0.85467 0.0
C383 C 0.98916 0.49821 0.83907 0.0
C384 C 0.96717 0.4918 0.83544 0.0
C385 C 0.95955 0.48725 0.82014 0.0
C386 C 0.97361 0.4888 0.80787 0.0
C387 C 0.96571 0.48304 0.79238 0.0
C388 C 0.98003 0.48458 0.78047 0.0
C389 C 0.00221 0.49175 0.78367 0.0
C390 C 0.01043 0.4976 0.79907 0.0
C391 C 0.03265 0.50475 0.80268 0.0
C392 C 0.04032 0.5095 0.81798 0.0
C393 C 0.02603 0.50708 0.83026 0.0
C394 C 0.00381 0.50071 0.82683 0.0
C395 C 0.996 0.49592 0.81122 0.0
C396 C 0.8514 0.45089 0.81205 0.0
C397 C 0.86178 0.43996 0.80279 0.0
O398 O 0.11432 0.52159 0.86765 0.0
O399 O 0.06671 0.49624 0.74263 0.0
O400 O 0.87524 0.45381 0.79128 0.0
O401 O 0.9449 0.48045 0.90898 0.0
H402 H 0.12082 0.54532 0.88404 0.0
H403 H 0.10363 0.50906 0.89655 0.0
H404 H 0.12737 0.50683 0.89142 0.0
H405 H 0.13005 0.52742 0.90493 0.0
H406 H 0.10504 0.55321 0.86425 0.0
H407 H 0.08226 0.48618 0.85732 0.0
H408 H 0.05623 0.55208 0.863 0.0
H409 H 0.08421 0.5692 0.85665 0.0
H410 H 0.06241 0.55466 0.84257 0.0
H411 H 0.04592 0.46157 0.84958 0.0
H412 H 0.02547 0.46957 0.85211 0.0
H413 H 0.03883 0.47331 0.83364 0.0
H414 H 0.96978 0.49294 0.92586 0.0
H415 H 0.93706 0.439 0.93978 0.0
H416 H 0.94348 0.48137 0.94484 0.0
H417 H 0.92285 0.46925 0.93227 0.0
H418 H 0.9506 0.45321 0.89185 0.0
H419 H 0.96349 0.51801 0.89556 0.0
H420 H 0.96962 0.45608 0.8534 0.0
H421 H 0.99149 0.46144 0.86677 0.0
H422 H 0.96367 0.44114 0.87137 0.0
H423 H 0.98443 0.54448 0.87664 0.0
H424 H 0.00754 0.5417 0.87058 0.0
H425 H 0.98501 0.5344 0.85739 0.0
H426 H 0.87162 0.43672 0.81149 0.0
H427 H 0.89279 0.42851 0.79452 0.0
H428 H 0.9053 0.49151 0.7823 0.0
H429 H 0.94238 0.44044 0.80738 0.0
H430 H 0.9211 0.41974 0.79544 0.0
H431 H 0.94757 0.43838 0.78715 0.0
H432 H 0.94126 0.52004 0.77673 0.0
H433 H 0.95921 0.5199 0.79182 0.0
H434 H 0.96211 0.51308 0.77218 0.0
H435 H 0.08957 0.52596 0.75142 0.0
H436 H 0.12156 0.52159 0.74528 0.0
H437 H 0.10188 0.50055 0.7577 0.0
H438 H 0.10336 0.49508 0.73733 0.0
H439 H 0.03741 0.46166 0.75612 0.0
H440 H 0.05706 0.52745 0.74672 0.0
H441 H 0.00793 0.45519 0.78922 0.0
H442 H 0.98676 0.4477 0.77479 0.0
H443 H 0.00728 0.43973 0.77239 0.0
H444 H 0.03766 0.54392 0.75664 0.0
H445 H 0.01012 0.52657 0.76389 0.0
H446 H 0.03308 0.53725 0.77709 0.0
H447 H 0.02412 0.50965 0.86996 0.0
H448 H 0.95556 0.49004 0.84444 0.0
H449 H 0.9424 0.48222 0.81811 0.0
H450 H 0.97377 0.47981 0.76868 0.0
H451 H 0.04436 0.50655 0.79376 0.0
H452 H 0.05753 0.51477 0.8201 0.0
H453 H 0.84238 0.45622 0.80425 0.0
H454 H 0.83986 0.4397 0.82093 0.0
H455 H 0.86452 0.46528 0.81818 0.0
C456 C 0.44079 0.88586 0.92302 0.0
C457 C 0.44008 0.87798 0.93976 0.0
C458 C 0.46299 0.91275 0.95296 0.0
C459 C 0.44699 0.91909 0.95363 0.0
C460 C 0.45265 0.93999 0.95833 0.0
C461 C 0.47478 0.95492 0.96224 0.0
C462 C 0.49089 0.94853 0.96168 0.0
C463 C 0.48465 0.9274 0.95728 0.0
C464 C 0.43502 0.94618 0.95897 0.0
C465 C 0.51476 0.96406 0.96547 0.0
C466 C 0.543 0.09497 0.88619 0.0
C467 C 0.54131 0.08345 0.90096 0.0
C468 C 0.51389 0.05861 0.91922 0.0
C469 C 0.52845 0.05321 0.92657 0.0
C470 C 0.52126 0.03808 0.93859 0.0
C471 C 0.49907 0.02814 0.94347 0.0
C472 C 0.48426 0.03327 0.93603 0.0
C473 C 0.49191 0.04852 0.92398 0.0
C474 C 0.5375 0.03289 0.94623 0.0
C475 C 0.46052 0.02289 0.94102 0.0
C476 C 0.53539 0.11298 0.02405 0.0
C477 C 0.55016 0.1062 0.01939 0.0
C478 C 0.54336 0.08423 0.01849 0.0
C479 C 0.52131 0.06882 0.02213 0.0
C480 C 0.50683 0.07566 0.02771 0.0
C481 C 0.51419 0.09774 0.02875 0.0
C482 C 0.55948 0.07747 0.01307 0.0
C483 C 0.48333 0.05965 0.0319 0.0
C484 C 0.48926 0.90888 0.06416 0.0
C485 C 0.48475 0.92714 0.06802 0.0
C486 C 0.50455 0.96404 0.05852 0.0
C487 C 0.52373 0.97823 0.05059 0.0
C488 C 0.52455 0.99473 0.04141 0.0
C489 C 0.50574 0.99713 0.04038 0.0
C490 C 0.48707 0.98419 0.04964 0.0
C491 C 0.48664 0.96771 0.05866 0.0
C492 C 0.54495 0.00863 0.03196 0.0
C493 C 0.46707 0.98689 0.04917 0.0
C494 C 0.48121 0.97743 0.96632 0.0
C495 C 0.48454 0.99158 0.95407 0.0
C496 C 0.49197 0.01331 0.95693 0.0
C497 C 0.49565 0.02119 0.97241 0.0
C498 C 0.50265 0.04288 0.97565 0.0
C499 C 0.50764 0.05083 0.99082 0.0
C500 C 0.50629 0.0375 0.00328 0.0
C501 C 0.5128 0.04575 0.01859 0.0
C502 C 0.51191 0.0322 0.03062 0.0
C503 C 0.50434 0.01043 0.02776 0.0
C504 C 0.49711 0.00173 0.01265 0.0
C505 C 0.48887 0.97973 0.0095 0.0
C506 C 0.48293 0.97157 0.99443 0.0
C507 C 0.48549 0.98517 0.98186 0.0
C508 C 0.49294 0.00719 0.98488 0.0
C509 C 0.49855 0.01543 0.00031 0.0
C510 C 0.54714 0.16422 0.00894 0.0
C511 C 0.55615 0.14975 0.01422 0.0
O512 O 0.45842 0.89288 0.94808 0.0
O513 O 0.50368 0.94664 0.06539 0.0
O514 O 0.54088 0.13398 0.02396 0.0
O515 O 0.52048 0.07332 0.90753 0.0
H516 H 0.42485 0.87548 0.94562 0.0
H517 H 0.44037 0.90111 0.92305 0.0
H518 H 0.4561 0.88871 0.91707 0.0
H519 H 0.42631 0.87377 0.91624 0.0
H520 H 0.43007 0.90793 0.95049 0.0
H521 H 0.49685 0.92234 0.9568 0.0
H522 H 0.43804 0.95813 0.94971 0.0
H523 H 0.41824 0.93213 0.95728 0.0
H524 H 0.43565 0.95385 0.97038 0.0
H525 H 0.52561 0.95744 0.96242 0.0
H526 H 0.52053 0.97942 0.95912 0.0
H527 H 0.51655 0.96776 0.97815 0.0
H528 H 0.55463 0.09283 0.90965 0.0
H529 H 0.54982 0.0777 0.86941 0.0
H530 H 0.52801 0.09688 0.8856 0.0
H531 H 0.55473 0.11243 0.88889 0.0
H532 H 0.54552 0.06082 0.92307 0.0
H533 H 0.48078 0.05271 0.91823 0.0
H534 H 0.53934 0.0374 0.95878 0.0
H535 H 0.53123 0.01532 0.94554 0.0
H536 H 0.554 0.04146 0.9407 0.0
H537 H 0.45089 0.02813 0.93377 0.0
H538 H 0.45274 0.00512 0.94024 0.0
H539 H 0.4597 0.02702 0.95341 0.0
H540 H 0.55843 0.14232 0.00346 0.0
H541 H 0.56689 0.118 0.01631 0.0
H542 H 0.50308 0.10319 0.03261 0.0
H543 H 0.55497 0.07068 0.00109 0.0
H544 H 0.57666 0.09117 0.01288 0.0
H545 H 0.55874 0.06471 0.02078 0.0
H546 H 0.47425 0.06758 0.03632 0.0
H547 H 0.47457 0.04985 0.02147 0.0
H548 H 0.48305 0.0485 0.04098 0.0
H549 H 0.47126 0.92511 0.06003 0.0
H550 H 0.47422 0.89303 0.06609 0.0
H551 H 0.49404 0.90986 0.0517 0.0
H552 H 0.50284 0.90994 0.07153 0.0
H553 H 0.53763 0.97554 0.05089 0.0
H554 H 0.4721 0.95737 0.0654 0.0
H555 H 0.54126 0.00467 0.01938 0.0
H556 H 0.55004 0.02586 0.03351 0.0
H557 H 0.55891 0.00626 0.0353 0.0
H558 H 0.45505 0.9775 0.05845 0.0
H559 H 0.47208 0.00413 0.0505 0.0
H560 H 0.45879 0.98139 0.03765 0.0
H561 H 0.48219 0.98579 0.94212 0.0
H562 H 0.50446 0.05401 0.96648 0.0
H563 H 0.51301 0.06769 0.99256 0.0
H564 H 0.51754 0.03874 0.04223 0.0
H565 H 0.48704 0.96855 0.01862 0.0
H566 H 0.47679 0.95456 0.9927 0.0
H567 H 0.55886 0.17679 0.00083 0.0
H568 H 0.53123 0.15446 0.0027 0.0
H569 H 0.54435 0.17215 0.01914 0.0
C570 C 0.61892 0.50122 0.10339 0.0
C571 C 0.60089 0.47764 0.10552 0.0
C572 C 0.57531 0.48018 0.12295 0.0
C573 C 0.55308 0.46437 0.1227 0.0
C574 C 0.53673 0.4696 0.12615 0.0
C575 C 0.54296 0.49117 0.12976 0.0
C576 C 0.56555 0.50718 0.12997 0.0
C577 C 0.58149 0.50133 0.12695 0.0
C578 C 0.51287 0.4521 0.126 0.0
C579 C 0.57295 0.53048 0.1334 0.0
C580 C 0.47539 0.54155 0.04132 0.0
C581 C 0.48208 0.53168 0.0539 0.0
C582 C 0.47795 0.52447 0.08141 0.0
C583 C 0.49758 0.53962 0.08866 0.0
C584 C 0.50501 0.53448 0.10227 0.0
C585 C 0.4924 0.51373 0.10879 0.0
C586 C 0.47225 0.49856 0.10174 0.0
C587 C 0.46515 0.50421 0.08812 0.0
C588 C 0.52648 0.55115 0.10957 0.0
C589 C 0.45841 0.4764 0.10853 0.0
C590 C 0.44651 0.55851 0.18716 0.0
C591 C 0.46885 0.57194 0.18354 0.0
C592 C 0.4833 0.56374 0.18313 0.0
C593 C 0.47517 0.54172 0.1864 0.0
C594 C 0.45301 0.52854 0.191 0.0
C595 C 0.43899 0.53721 0.19145 0.0
C596 C 0.50704 0.57839 0.17867 0.0
C597 C 0.44395 0.50509 0.19478 0.0
C598 C 0.59456 0.50014 0.22993 0.0
C599 C 0.57236 0.49509 0.23685 0.0
C600 C 0.55601 0.5162 0.2282 0.0
C601 C 0.5632 0.53567 0.22047 0.0
C602 C 0.54937 0.53818 0.20987 0.0
C603 C 0.52779 0.52084 0.20726 0.0
C604 C 0.51983 0.50179 0.21611 0.0
C605 C 0.53406 0.49967 0.22655 0.0
C606 C 0.55824 0.55884 0.20079 0.0
C607 C 0.4967 0.48326 0.21389 0.0
C608 C 0.52596 0.49713 0.13321 0.0
C609 C 0.51506 0.50006 0.12062 0.0
C610 C 0.50072 0.50804 0.12284 0.0
C611 C 0.49679 0.51296 0.13805 0.0
C612 C 0.48254 0.52113 0.14066 0.0
C613 C 0.4797 0.52701 0.15557 0.0
C614 C 0.49117 0.52515 0.16843 0.0
C615 C 0.48922 0.53205 0.18353 0.0
C616 C 0.50104 0.53022 0.19603 0.0
C617 C 0.51478 0.52153 0.19385 0.0
C618 C 0.51678 0.51434 0.17888 0.0
C619 C 0.53036 0.50536 0.17633 0.0
C620 C 0.53291 0.49914 0.16147 0.0
C621 C 0.52224 0.50193 0.14853 0.0
C622 C 0.50783 0.51017 0.15091 0.0
C623 C 0.50511 0.51639 0.16611 0.0
C624 C 0.41027 0.57327 0.16912 0.0
C625 C 0.4328 0.58137 0.17679 0.0
O626 O 0.59084 0.47478 0.11991 0.0
O627 O 0.57078 0.51358 0.23677 0.0
O628 O 0.4317 0.56542 0.18648 0.0
O629 O 0.47124 0.52926 0.06792 0.0
H630 H 0.58834 0.47322 0.09608 0.0
H631 H 0.61146 0.51162 0.1023 0.0
H632 H 0.63049 0.50674 0.11347 0.0
H633 H 0.62838 0.50327 0.09252 0.0
H634 H 0.54861 0.44797 0.11984 0.0
H635 H 0.59881 0.5133 0.12765 0.0
H636 H 0.50413 0.45502 0.11633 0.0
H637 H 0.51091 0.43586 0.12443 0.0
H638 H 0.50485 0.4524 0.13708 0.0
H639 H 0.59048 0.5413 0.13024 0.0
H640 H 0.56265 0.53564 0.12692 0.0
H641 H 0.57109 0.53248 0.14604 0.0
H642 H 0.48265 0.51694 0.05051 0.0
H643 H 0.50433 0.57096 0.03693 0.0
H644 H 0.46723 0.52857 0.0322 0.0
H645 H 0.45957 0.54057 0.04522 0.0
H646 H 0.50718 0.5555 0.08372 0.0
H647 H 0.44986 0.49272 0.08248 0.0
H648 H 0.52377 0.55398 0.1219 0.0
H649 H 0.53834 0.54516 0.10957 0.0
H650 H 0.53401 0.56673 0.10327 0.0
H651 H 0.44296 0.46656 0.10181 0.0
H652 H 0.46803 0.46794 0.10868 0.0
H653 H 0.45415 0.47774 0.12081 0.0
H654 H 0.44469 0.58473 0.16712 0.0
H655 H 0.47499 0.58873 0.18088 0.0
H656 H 0.42181 0.52712 0.19453 0.0
H657 H 0.5101 0.57361 0.16703 0.0
H658 H 0.51137 0.59553 0.17818 0.0
H659 H 0.51811 0.57677 0.18717 0.0
H660 H 0.42653 0.49716 0.19867 0.0
H661 H 0.44499 0.49651 0.1843 0.0
H662 H 0.45403 0.50345 0.20412 0.0
H663 H 0.55957 0.48239 0.2292 0.0
H664 H 0.59637 0.48562 0.23022 0.0
H665 H 0.5955 0.50523 0.21759 0.0
H666 H 0.60845 0.51336 0.23648 0.0
H667 H 0.58007 0.54847 0.22211 0.0
H668 H 0.52822 0.48494 0.23312 0.0
H669 H 0.55955 0.55562 0.18826 0.0
H670 H 0.54671 0.56518 0.20162 0.0
H671 H 0.57473 0.57135 0.20503 0.0
H672 H 0.49223 0.47057 0.22283 0.0
H673 H 0.48474 0.48911 0.2144 0.0
H674 H 0.49522 0.47602 0.20217 0.0
H675 H 0.51855 0.49703 0.10884 0.0
H676 H 0.47355 0.5232 0.13117 0.0
H677 H 0.46862 0.53331 0.15683 0.0
H678 H 0.49971 0.53582 0.20753 0.0
H679 H 0.53935 0.50319 0.18577 0.0
H680 H 0.54363 0.49242 0.16021 0.0
H681 H 0.41072 0.58563 0.1611 0.0
H682 H 0.40571 0.55848 0.16223 0.0
H683 H 0.3974 0.5694 0.1781 0.0
C684 C 0.67106 0.42755 0.40282 0.0
O685 O 0.67189 0.44396 0.40911 0.0
Cd686 Cd 0.63935 0.44455 0.41652 0.0
O687 O 0.65278 0.40997 0.40162 0.0
Cd688 Cd 0.61363 0.39423 0.40979 0.0
C689 C 0.60748 0.4246 0.38292 0.0
O690 O 0.61854 0.41495 0.43348 0.0
O691 O 0.58593 0.3993 0.42328 0.0
O692 O 0.61593 0.36542 0.42259 0.0
C693 C 0.59854 0.41009 0.43446 0.0
O694 O 0.61913 0.44012 0.39221 0.0
C695 C 0.59996 0.35001 0.41545 0.0
O696 O 0.60332 0.40554 0.3859 0.0
O697 O 0.5901 0.35502 0.40524 0.0
C698 C 0.24698 0.58188 0.57754 0.0
O699 O 0.22913 0.56471 0.57442 0.0
Cd700 Cd 0.19681 0.5647 0.56483 0.0
O701 O 0.24844 0.60023 0.57631 0.0
Cd702 Cd 0.22579 0.61665 0.56971 0.0
C703 C 0.18614 0.58726 0.59657 0.0
O704 O 0.209 0.59394 0.54686 0.0
O705 O 0.19772 0.61613 0.5527 0.0
O706 O 0.25945 0.64597 0.55883 0.0
C707 C 0.19674 0.60172 0.54361 0.0
O708 O 0.18081 0.57106 0.58779 0.0
C709 C 0.25901 0.66088 0.56651 0.0
O710 O 0.20253 0.60564 0.59328 0.0
O711 O 0.243 0.65528 0.57584 0.0
C712 C 0.67133 0.24995 0.74639 0.0
O713 O 0.67091 0.23275 0.74224 0.0
Cd714 Cd 0.63778 0.2015 0.73374 0.0
O715 O 0.65402 0.2515 0.74553 0.0
Cd716 Cd 0.61502 0.23107 0.73704 0.0
C717 C 0.60431 0.19462 0.76535 0.0
O718 O 0.62177 0.21401 0.71471 0.0
O719 O 0.58779 0.20386 0.71986 0.0
O720 O 0.62246 0.26598 0.72754 0.0
C721 C 0.6016 0.20256 0.71109 0.0
O722 O 0.61581 0.18883 0.7574 0.0
C723 C 0.60428 0.264 0.73197 0.0
O724 O 0.60158 0.21004 0.76093 0.0
O725 O 0.59113 0.24679 0.73907 0.0
C726 C 0.34605 0.58972 0.90081 0.0
O727 O 0.34703 0.57319 0.9047 0.0
Cd728 Cd 0.38059 0.57593 0.91399 0.0
O729 O 0.36295 0.60837 0.90145 0.0
Cd730 Cd 0.40223 0.62517 0.90786 0.0
C731 C 0.40854 0.59572 0.87994 0.0
O732 O 0.39821 0.60565 0.93194 0.0
O733 O 0.43082 0.62202 0.9219 0.0
O734 O 0.39527 0.65299 0.91711 0.0
C735 C 0.41857 0.61211 0.93337 0.0
O736 O 0.40116 0.58077 0.89005 0.0
C737 C 0.41319 0.66876 0.91238 0.0
O738 O 0.40919 0.61348 0.88268 0.0
O739 O 0.42641 0.66443 0.90527 0.0
C740 C 0.755 0.41138 0.0731 0.0
O741 O 0.77125 0.42748 0.06685 0.0
Cd742 Cd 0.80456 0.42768 0.0609 0.0
O743 O 0.75519 0.39391 0.07515 0.0
Cd744 Cd 0.7792 0.37865 0.06875 0.0
C745 C 0.81586 0.41051 0.09562 0.0
O746 O 0.79507 0.39723 0.04449 0.0
O747 O 0.8127 0.38359 0.05612 0.0
O748 O 0.75084 0.34796 0.05486 0.0
C749 C 0.81013 0.39239 0.04408 0.0
O750 O 0.82017 0.42568 0.08606 0.0
C751 C 0.74871 0.3339 0.06471 0.0
O752 O 0.80096 0.39128 0.09258 0.0
O753 O 0.7609 0.34051 0.07679 0.0
C754 C 0.35416 0.77194 0.24276 0.0
O755 O 0.35403 0.7887 0.23819 0.0
Cd756 Cd 0.38558 0.82134 0.22998 0.0
O757 O 0.37194 0.77115 0.24281 0.0
Cd758 Cd 0.41151 0.79376 0.23602 0.0
C759 C 0.41825 0.83143 0.26283 0.0
O760 O 0.40554 0.81047 0.21379 0.0
O761 O 0.43958 0.82378 0.22066 0.0
O762 O 0.41305 0.76546 0.22172 0.0
C763 C 0.4256 0.82404 0.21136 0.0
O764 O 0.40632 0.83569 0.25396 0.0
C765 C 0.4256 0.76311 0.23121 0.0
O766 O 0.42244 0.81653 0.25944 0.0
O767 O 0.43169 0.77499 0.24332 0.0
H768 H 0.15527 0.62596 0.27281 0.0
H769 H 0.19109 0.65829 0.26918 0.0
H770 H 0.2232 0.62069 0.27441 0.0
H771 H 0.18735 0.58833 0.27855 0.0
H772 H 0.24616 0.65909 0.2891 0.0
H773 H 0.21309 0.63388 0.23847 0.0
H774 H 0.18385 0.62232 0.21854 0.0
H775 H 0.18775 0.68388 0.22109 0.0
H776 H 0.21679 0.69571 0.24122 0.0
H777 H 0.34723 0.73235 0.25164 0.0
H778 H 0.31247 0.70112 0.25957 0.0
H779 H 0.27949 0.73786 0.25403 0.0
H780 H 0.31398 0.76899 0.24586 0.0
H781 H 0.25717 0.69986 0.24005 0.0
H782 H 0.29084 0.72557 0.2902 0.0
H783 H 0.32003 0.73726 0.31018 0.0
H784 H 0.3153 0.67529 0.30856 0.0
H785 H 0.28629 0.66332 0.2884 0.0
C786 C 0.16999 0.62466 0.27352 0.0
C787 C 0.16857 0.60469 0.27627 0.0
C788 C 0.19043 0.6431 0.27131 0.0
C789 C 0.20977 0.64184 0.27137 0.0
C790 C 0.20847 0.62202 0.27439 0.0
C791 C 0.18803 0.60359 0.27674 0.0
C792 C 0.23123 0.66098 0.26759 0.0
C793 C 0.24869 0.66789 0.2783 0.0
C794 C 0.23435 0.67265 0.25363 0.0
C795 C 0.21697 0.6656 0.24146 0.0
C796 C 0.2076 0.6449 0.23487 0.0
C797 C 0.19108 0.6383 0.22352 0.0
C798 C 0.18391 0.65234 0.21858 0.0
C799 C 0.19329 0.67302 0.22495 0.0
C800 C 0.20979 0.67968 0.23632 0.0
C801 C 0.3326 0.73382 0.25217 0.0
C802 C 0.33337 0.75314 0.24804 0.0
C803 C 0.31278 0.71599 0.2568 0.0
C804 C 0.29344 0.71724 0.25751 0.0
C805 C 0.29422 0.73656 0.25355 0.0
C806 C 0.31398 0.75434 0.24888 0.0
C807 C 0.27212 0.69813 0.2616 0.0
C808 C 0.25468 0.69115 0.25089 0.0
C809 C 0.26907 0.68645 0.27555 0.0
C810 C 0.28654 0.69362 0.28766 0.0
C811 C 0.29616 0.7145 0.294 0.0
C812 C 0.31264 0.72116 0.30538 0.0
C813 C 0.31956 0.70705 0.31061 0.0
C814 C 0.30996 0.68622 0.30449 0.0
C815 C 0.29348 0.67948 0.29309 0.0
H816 H 0.33232 0.71224 0.31942 0.0
H817 H 0.17112 0.64721 0.20979 0.0
H818 H 0.55855 0.15249 0.43378 0.0
H819 H 0.55306 0.18222 0.42629 0.0
H820 H 0.59607 0.22085 0.46372 0.0
H821 H 0.60027 0.19074 0.47202 0.0
H822 H 0.56496 0.22898 0.46177 0.0
H823 H 0.61227 0.2231 0.42249 0.0
H824 H 0.62054 0.20397 0.40201 0.0
H825 H 0.56421 0.19466 0.37565 0.0
H826 H 0.55552 0.21357 0.39606 0.0
H827 H 0.61715 0.33594 0.4379 0.0
H828 H 0.60678 0.29905 0.44424 0.0
H829 H 0.55738 0.27575 0.40792 0.0
H830 H 0.56782 0.31299 0.40138 0.0
H831 H 0.58274 0.25613 0.40748 0.0
H832 H 0.54082 0.26923 0.445 0.0
H833 H 0.53414 0.28956 0.46539 0.0
H834 H 0.5817 0.28632 0.49522 0.0
H835 H 0.58891 0.26623 0.47493 0.0
C836 C 0.56692 0.16729 0.44044 0.0
C837 C 0.58077 0.16947 0.45313 0.0
C838 C 0.56378 0.18437 0.43608 0.0
C839 C 0.57472 0.20411 0.44409 0.0
C840 C 0.58764 0.20593 0.45718 0.0
C841 C 0.59033 0.18874 0.46178 0.0
C842 C 0.57339 0.2232 0.43879 0.0
C843 C 0.56896 0.23494 0.44991 0.0
C844 C 0.57773 0.23065 0.42316 0.0
C845 C 0.58313 0.21953 0.41085 0.0
C846 C 0.60161 0.21689 0.41235 0.0
C847 C 0.60637 0.20609 0.40076 0.0
C848 C 0.59287 0.19805 0.38756 0.0
C849 C 0.57463 0.20086 0.38589 0.0
C850 C 0.56979 0.21163 0.39746 0.0
C851 C 0.60402 0.32303 0.43125 0.0
C852 C 0.59329 0.32741 0.41914 0.0
C853 C 0.59802 0.30191 0.43497 0.0
C854 C 0.58108 0.28463 0.42672 0.0
C855 C 0.5704 0.28887 0.4145 0.0
C856 C 0.57636 0.31012 0.41079 0.0
C857 C 0.5754 0.26233 0.43065 0.0
C858 C 0.57837 0.24995 0.41927 0.0
C859 C 0.56993 0.25439 0.44607 0.0
C860 C 0.56547 0.26628 0.4584 0.0
C861 C 0.54995 0.27295 0.45587 0.0
C862 C 0.54605 0.28442 0.46742 0.0
C863 C 0.5575 0.28924 0.48159 0.0
C864 C 0.57283 0.28256 0.48425 0.0
C865 C 0.5768 0.27109 0.47273 0.0
H866 H 0.55447 0.29814 0.49051 0.0
H867 H 0.59657 0.18968 0.37861 0.0
H868 H 0.43894 0.60615 0.60207 0.0
H869 H 0.40348 0.59927 0.59151 0.0
H870 H 0.37145 0.56717 0.63417 0.0
H871 H 0.40687 0.57385 0.64472 0.0
H872 H 0.34591 0.54748 0.60688 0.0
H873 H 0.38738 0.61802 0.63091 0.0
H874 H 0.42076 0.6535 0.63433 0.0
H875 H 0.41722 0.66848 0.58628 0.0
H876 H 0.38402 0.63292 0.58251 0.0
H877 H 0.2499 0.55687 0.60018 0.0
H878 H 0.28313 0.55671 0.60887 0.0
H879 H 0.32077 0.60324 0.57327 0.0
H880 H 0.28795 0.60472 0.56561 0.0
H881 H 0.34364 0.61446 0.59708 0.0
H882 H 0.30254 0.54509 0.57217 0.0
H883 H 0.27001 0.50931 0.56762 0.0
H884 H 0.27321 0.49158 0.615 0.0
H885 H 0.30561 0.52735 0.61988 0.0
C886 C 0.42424 0.59718 0.60902 0.0
C887 C 0.42559 0.59045 0.62418 0.0
C888 C 0.40404 0.5933 0.60302 0.0
C889 C 0.38493 0.58288 0.61214 0.0
C890 C 0.38601 0.57517 0.62694 0.0
C891 C 0.40622 0.57905 0.63296 0.0
C892 C 0.36438 0.58208 0.60693 0.0
C893 C 0.34527 0.56207 0.60479 0.0
C894 C 0.36376 0.60114 0.604 0.0
C895 C 0.38333 0.62276 0.6064 0.0
C896 C 0.39379 0.62885 0.62106 0.0
C897 C 0.41267 0.64897 0.62306 0.0
C898 C 0.42112 0.66322 0.61053 0.0
C899 C 0.41066 0.65742 0.59598 0.0
C900 C 0.3918 0.63729 0.5939 0.0
C901 C 0.26533 0.56697 0.59425 0.0
C902 C 0.26653 0.58077 0.58225 0.0
C903 C 0.28428 0.56675 0.5991 0.0
C904 C 0.30451 0.57961 0.59152 0.0
C905 C 0.30547 0.59317 0.57935 0.0
C906 C 0.28673 0.59398 0.57492 0.0
C907 C 0.32491 0.57974 0.5966 0.0
C908 C 0.34409 0.59973 0.59891 0.0
C909 C 0.3256 0.56061 0.59943 0.0
C910 C 0.3064 0.53895 0.59642 0.0
C911 C 0.29625 0.53358 0.58163 0.0
C912 C 0.27784 0.51331 0.579 0.0
C913 C 0.26952 0.49819 0.59102 0.0
C914 C 0.27966 0.5033 0.60569 0.0
C915 C 0.29807 0.52356 0.6084 0.0
H916 H 0.25524 0.48252 0.58896 0.0
H917 H 0.43576 0.67878 0.61209 0.0
H918 H 0.82939 0.43364 0.78167 0.0
H919 H 0.79924 0.39938 0.77187 0.0
H920 H 0.82577 0.36521 0.79675 0.0
H921 H 0.85544 0.39935 0.80721 0.0
H922 H 0.80601 0.35707 0.75793 0.0
H923 H 0.79271 0.35248 0.8152 0.0
H924 H 0.7915 0.36939 0.84 0.0
H925 H 0.74625 0.38643 0.81966 0.0
H926 H 0.74755 0.36992 0.79465 0.0
H927 H 0.71123 0.25229 0.75072 0.0
H928 H 0.74548 0.28313 0.76011 0.0
H929 H 0.71275 0.32027 0.76427 0.0
H930 H 0.67842 0.28952 0.75516 0.0
H931 H 0.73749 0.32567 0.78934 0.0
H932 H 0.74662 0.32736 0.73365 0.0
H933 H 0.74761 0.31247 0.7079 0.0
H934 H 0.80016 0.30268 0.7236 0.0
H935 H 0.79928 0.31726 0.74953 0.0
C936 C 0.82875 0.41883 0.78508 0.0
C937 C 0.8444 0.41909 0.79552 0.0
C938 C 0.81168 0.39935 0.77939 0.0
C939 C 0.81032 0.37992 0.78374 0.0
C940 C 0.82658 0.38013 0.79339 0.0
C941 C 0.84343 0.39959 0.79936 0.0
C942 C 0.79089 0.35943 0.7791 0.0
C943 C 0.79112 0.34986 0.76489 0.0
C944 C 0.77144 0.35055 0.78803 0.0
C945 C 0.77046 0.36026 0.80305 0.0
C946 C 0.78271 0.36005 0.81599 0.0
C947 C 0.78197 0.36951 0.83008 0.0
C948 C 0.76887 0.37905 0.83139 0.0
C949 C 0.75644 0.37909 0.81862 0.0
C950 C 0.75717 0.36968 0.80448 0.0
C951 C 0.71131 0.26702 0.75364 0.0
C952 C 0.6921 0.26846 0.75214 0.0
C953 C 0.73092 0.28464 0.75895 0.0
C954 C 0.73169 0.30404 0.76274 0.0
C955 C 0.71249 0.30544 0.76142 0.0
C956 C 0.6929 0.28785 0.75616 0.0
C957 C 0.75244 0.32296 0.76811 0.0
C958 C 0.75243 0.33246 0.78244 0.0
C959 C 0.77203 0.33177 0.75919 0.0
C960 C 0.77272 0.32318 0.74358 0.0
C961 C 0.75828 0.32188 0.73165 0.0
C962 C 0.75884 0.31353 0.71701 0.0
C963 C 0.7739 0.30658 0.71413 0.0
C964 C 0.78848 0.30804 0.72586 0.0
C965 C 0.78797 0.31636 0.74052 0.0
H966 H 0.7743 0.3001 0.70279 0.0
H967 H 0.76831 0.38636 0.84231 0.0
H968 H 0.40383 0.83794 0.93784 0.0
H969 H 0.40219 0.8033 0.93495 0.0
H970 H 0.47314 0.83513 0.93721 0.0
H971 H 0.47487 0.86994 0.93948 0.0
H972 H 0.45862 0.80722 0.91435 0.0
H973 H 0.43972 0.80425 0.96833 0.0
H974 H 0.41937 0.80671 0.99095 0.0
H975 H 0.35878 0.75607 0.97186 0.0
H976 H 0.37871 0.75348 0.94903 0.0
H977 H 0.45368 0.70508 0.91474 0.0
H978 H 0.46148 0.74146 0.92143 0.0
H979 H 0.39167 0.71882 0.92276 0.0
H980 H 0.38392 0.68242 0.91695 0.0
H981 H 0.40983 0.74341 0.94628 0.0
H982 H 0.42784 0.74935 0.89106 0.0
H983 H 0.44776 0.74689 0.86816 0.0
H984 H 0.5095 0.79182 0.88946 0.0
H985 H 0.48993 0.79438 0.91255 0.0
C986 C 0.41904 0.83748 0.93796 0.0
C987 C 0.43941 0.85658 0.93931 0.0
C988 C 0.41811 0.81769 0.93636 0.0
C989 C 0.43753 0.81654 0.93622 0.0
C990 C 0.45794 0.8356 0.93746 0.0
C991 C 0.45889 0.85546 0.93888 0.0
C992 C 0.43649 0.79554 0.93395 0.0
C993 C 0.44824 0.79334 0.92151 0.0
C994 C 0.42271 0.77734 0.94312 0.0
C995 C 0.41071 0.77877 0.95692 0.0
C996 C 0.42204 0.79372 0.96891 0.0
C997 C 0.41058 0.79513 0.98178 0.0
C998 C 0.3878 0.78158 0.98283 0.0
C999 C 0.37643 0.76656 0.97103 0.0
C1000 C 0.3878 0.76509 0.95814 0.0
C1001 C 0.44007 0.70798 0.91638 0.0
C1002 C 0.41822 0.69101 0.91531 0.0
C1003 C 0.44451 0.72876 0.92015 0.0
C1004 C 0.42716 0.73299 0.92244 0.0
C1005 C 0.40535 0.716 0.92114 0.0
C1006 C 0.40093 0.69522 0.91774 0.0
C1007 C 0.4314 0.75492 0.92638 0.0
C1008 C 0.42035 0.75732 0.9392 0.0
C1009 C 0.44573 0.77327 0.91752 0.0
C1010 C 0.45744 0.7719 0.90357 0.0
C1011 C 0.44567 0.75862 0.89088 0.0
C1012 C 0.45689 0.75722 0.87787 0.0
C1013 C 0.47988 0.76915 0.87737 0.0
C1014 C 0.49169 0.78257 0.88986 0.0
C1015 C 0.48055 0.78402 0.9029 0.0
H1016 H 0.48854 0.76803 0.8673 0.0
H1017 H 0.37896 0.78271 0.99279 0.0
H1018 H 0.61218 0.45785 0.12888 0.0
H1019 H 0.63213 0.43833 0.12597 0.0
H1020 H 0.63433 0.44752 0.07608 0.0
H1021 H 0.61291 0.46568 0.07884 0.0
H1022 H 0.63096 0.41086 0.08121 0.0
H1023 H 0.67724 0.48258 0.10252 0.0
H1024 H 0.68736 0.51158 0.12186 0.0
H1025 H 0.68936 0.47113 0.15795 0.0
H1026 H 0.67899 0.44179 0.13882 0.0
H1027 H 0.74166 0.43835 0.06165 0.0
H1028 H 0.71019 0.44169 0.07009 0.0
H1029 H 0.69391 0.39229 0.1045 0.0
H1030 H 0.72507 0.3883 0.09579 0.0
H1031 H 0.7012 0.44242 0.11097 0.0
H1032 H 0.65871 0.37176 0.08676 0.0
H1033 H 0.65144 0.34586 0.06545 0.0
H1034 H 0.64527 0.38799 0.03291 0.0
H1035 H 0.65287 0.41431 0.054 0.0
C1036 C 0.61637 0.45523 0.11724 0.0
C1037 C 0.61091 0.46329 0.10403 0.0
C1038 C 0.62798 0.44422 0.11561 0.0
C1039 C 0.63521 0.44188 0.10084 0.0
C1040 C 0.62897 0.4491 0.08761 0.0
C1041 C 0.61683 0.45957 0.08919 0.0
C1042 C 0.6507 0.43356 0.09915 0.0
C1043 C 0.64623 0.4177 0.08781 0.0
C1044 C 0.67059 0.44224 0.10786 0.0
C1045 C 0.67712 0.45995 0.1193 0.0
C1046 C 0.67975 0.47986 0.1146 0.0
C1047 C 0.68553 0.49635 0.12551 0.0
C1048 C 0.68894 0.49318 0.14113 0.0
C1049 C 0.68667 0.47354 0.14585 0.0
C1050 C 0.68086 0.45699 0.13498 0.0
C1051 C 0.73133 0.42811 0.07096 0.0
C1052 C 0.73576 0.41304 0.07805 0.0
C1053 C 0.71338 0.43001 0.07572 0.0
C1054 C 0.6998 0.41715 0.08781 0.0
C1055 C 0.7042 0.4022 0.09506 0.0
C1056 C 0.72192 0.39994 0.09006 0.0
C1057 C 0.68145 0.42009 0.09298 0.0
C1058 C 0.68554 0.43512 0.10481 0.0
C1059 C 0.66144 0.41095 0.08457 0.0
C1060 C 0.65658 0.39508 0.07192 0.0
C1061 C 0.65603 0.37559 0.07503 0.0
C1062 C 0.65179 0.36081 0.063 0.0
C1063 C 0.64795 0.3653 0.04783 0.0
C1064 C 0.64827 0.38455 0.04466 0.0
C1065 C 0.65251 0.39939 0.05665 0.0
H1066 H 0.64469 0.35384 0.03853 0.0
H1067 H 0.6934 0.50596 0.14957 0.0
H1068 H 0.41023 0.84916 0.52223 0.0
H1069 H 0.3898 0.81164 0.53084 0.0
H1070 H 0.35362 0.82783 0.56353 0.0
H1071 H 0.37398 0.86533 0.55497 0.0
H1072 H 0.36346 0.79643 0.57509 0.0
H1073 H 0.33217 0.81083 0.52957 0.0
H1074 H 0.33396 0.82464 0.50297 0.0
H1075 H 0.35259 0.78012 0.48502 0.0
H1076 H 0.35132 0.76633 0.5116 0.0
H1077 H 0.26327 0.69632 0.58185 0.0
H1078 H 0.29141 0.73398 0.57777 0.0
H1079 H 0.32178 0.71457 0.54247 0.0
H1080 H 0.29369 0.67697 0.54638 0.0
H1081 H 0.31692 0.74746 0.53264 0.0
H1082 H 0.34567 0.73102 0.57783 0.0
H1083 H 0.34454 0.71751 0.60445 0.0
H1084 H 0.33102 0.7653 0.62305 0.0
H1085 H 0.33175 0.7789 0.5965 0.0
C1086 C 0.39836 0.84481 0.53155 0.0
C1087 C 0.39376 0.86019 0.53797 0.0
C1088 C 0.38667 0.8234 0.53643 0.0
C1089 C 0.37009 0.81696 0.54773 0.0
C1090 C 0.36641 0.8325 0.55485 0.0
C1091 C 0.37802 0.85389 0.54993 0.0
C1092 C 0.35481 0.79381 0.55073 0.0
C1093 C 0.35316 0.78571 0.56586 0.0
C1094 C 0.34164 0.77982 0.53862 0.0
C1095 C 0.34187 0.7877 0.52258 0.0
C1096 C 0.33678 0.80408 0.51996 0.0
C1097 C 0.3377 0.81191 0.50489 0.0
C1098 C 0.34343 0.8033 0.49231 0.0
C1099 C 0.34819 0.78679 0.49478 0.0
C1100 C 0.34737 0.77897 0.50985 0.0
C1101 C 0.276 0.70007 0.57327 0.0
C1102 C 0.27624 0.68366 0.56444 0.0
C1103 C 0.29213 0.72158 0.57101 0.0
C1104 C 0.30881 0.72707 0.5599 0.0
C1105 C 0.30909 0.7107 0.55111 0.0
C1106 C 0.29303 0.68922 0.55339 0.0
C1107 C 0.3255 0.74991 0.55703 0.0
C1108 C 0.32734 0.75804 0.54188 0.0
C1109 C 0.33882 0.76385 0.56914 0.0
C1110 C 0.33856 0.75585 0.58515 0.0
C1111 C 0.34229 0.73855 0.58758 0.0
C1112 C 0.34175 0.73089 0.60266 0.0
C1113 C 0.33766 0.74051 0.61543 0.0
C1114 C 0.33417 0.75785 0.61314 0.0
C1115 C 0.33466 0.76556 0.59808 0.0
H1116 H 0.33723 0.73455 0.62709 0.0
H1117 H 0.34415 0.80938 0.48065 0.0
H1118 H 0.60187 0.43642 0.70249 0.0
H1119 H 0.60626 0.40501 0.70603 0.0
H1120 H 0.53563 0.36411 0.70765 0.0
H1121 H 0.53121 0.39567 0.70472 0.0
H1122 H 0.55407 0.35409 0.73016 0.0
H1123 H 0.56673 0.36515 0.67517 0.0
H1124 H 0.58373 0.38584 0.65124 0.0
H1125 H 0.64751 0.39966 0.66748 0.0
H1126 H 0.63094 0.37928 0.69159 0.0
H1127 H 0.56331 0.25958 0.73074 0.0
H1128 H 0.55389 0.28711 0.72392 0.0
H1129 H 0.62301 0.33386 0.71935 0.0
H1130 H 0.63236 0.30612 0.72538 0.0
H1131 H 0.60189 0.33847 0.69652 0.0
H1132 H 0.58984 0.33047 0.75242 0.0
H1133 H 0.57316 0.31017 0.77656 0.0
H1134 H 0.5086 0.29098 0.7587 0.0
H1135 H 0.5249 0.31098 0.73438 0.0
C1136 C 0.58729 0.42067 0.70336 0.0
C1137 C 0.56622 0.41844 0.7029 0.0
C1138 C 0.5898 0.40272 0.70532 0.0
C1139 C 0.57126 0.38211 0.70675 0.0
C1140 C 0.55016 0.37982 0.70641 0.0
C1141 C 0.54765 0.39784 0.70461 0.0
C1142 C 0.57404 0.36318 0.70943 0.0
C1143 C 0.56422 0.35043 0.72264 0.0
C1144 C 0.58761 0.35865 0.6998 0.0
C1145 C 0.5976 0.3708 0.68524 0.0
C1146 C 0.5844 0.37271 0.67368 0.0
C1147 C 0.59396 0.38437 0.66007 0.0
C1148 C 0.61669 0.39409 0.65785 0.0
C1149 C 0.6299 0.39212 0.66921 0.0
C1150 C 0.62043 0.38049 0.68284 0.0
C1151 C 0.57646 0.27577 0.72835 0.0
C1152 C 0.59856 0.28077 0.72864 0.0
C1153 C 0.57108 0.29151 0.72451 0.0
C1154 C 0.58775 0.31268 0.72134 0.0
C1155 C 0.60984 0.31766 0.72172 0.0
C1156 C 0.61519 0.30183 0.72522 0.0
C1157 C 0.58235 0.32969 0.71745 0.0
C1158 C 0.59162 0.34202 0.70397 0.0
C1159 C 0.56834 0.33389 0.72687 0.0
C1160 C 0.55857 0.32204 0.74154 0.0
C1161 C 0.57208 0.32182 0.75361 0.0
C1162 C 0.5627 0.31039 0.76733 0.0
C1163 C 0.53983 0.29925 0.76915 0.0
C1164 C 0.5263 0.29959 0.75727 0.0
C1165 C 0.5356 0.31099 0.74353 0.0
H1166 H 0.5326 0.2904 0.77977 0.0
H1167 H 0.62406 0.40311 0.64731 0.0
H1168 H 0.14871 0.52907 0.85538 0.0
H1169 H 0.18834 0.54516 0.85256 0.0
H1170 H 0.19844 0.58107 0.89519 0.0
H1171 H 0.15863 0.56595 0.89765 0.0
H1172 H 0.23218 0.6031 0.8747 0.0
H1173 H 0.19091 0.52969 0.8956 0.0
H1174 H 0.162 0.49151 0.89357 0.0
H1175 H 0.19154 0.48488 0.85162 0.0
H1176 H 0.22045 0.52311 0.85331 0.0
H1177 H 0.32462 0.6094 0.91208 0.0
H1178 H 0.28928 0.60462 0.90316 0.0
H1179 H 0.2869 0.56168 0.86676 0.0
H1180 H 0.32133 0.5651 0.87666 0.0
H1181 H 0.25031 0.54473 0.87879 0.0
H1182 H 0.29607 0.61617 0.86043 0.0
H1183 H 0.32498 0.65437 0.86187 0.0
H1184 H 0.28843 0.66563 0.89711 0.0
H1185 H 0.25944 0.62746 0.89604 0.0
C1186 C 0.15927 0.54085 0.86395 0.0
C1187 C 0.15048 0.546 0.87695 0.0
C1188 C 0.18198 0.55003 0.86229 0.0
C1189 C 0.19625 0.56386 0.87386 0.0
C1190 C 0.18768 0.57034 0.88616 0.0
C1191 C 0.16497 0.56156 0.88763 0.0
C1192 C 0.21942 0.56891 0.87455 0.0
C1193 C 0.23629 0.59043 0.87557 0.0
C1194 C 0.22473 0.55233 0.87526 0.0
C1195 C 0.20769 0.52924 0.87451 0.0
C1196 C 0.19119 0.52007 0.88594 0.0
C1197 C 0.1748 0.49844 0.88484 0.0
C1198 C 0.17492 0.48578 0.87246 0.0
C1199 C 0.19146 0.49471 0.86119 0.0
C1200 C 0.20785 0.51634 0.86221 0.0
C1201 C 0.31643 0.59898 0.90218 0.0
C1202 C 0.32531 0.58741 0.8951 0.0
C1203 C 0.29644 0.59649 0.89691 0.0
C1204 C 0.28556 0.58315 0.88403 0.0
C1205 C 0.29492 0.57206 0.87671 0.0
C1206 C 0.31449 0.57394 0.88235 0.0
C1207 C 0.26345 0.5791 0.87919 0.0
C1208 C 0.24661 0.55763 0.87749 0.0
C1209 C 0.25834 0.59581 0.87769 0.0
C1210 C 0.27561 0.61889 0.8782 0.0
C1211 C 0.29424 0.62677 0.86854 0.0
C1212 C 0.31064 0.64843 0.86929 0.0
C1213 C 0.30855 0.66241 0.87959 0.0
C1214 C 0.29002 0.65479 0.88913 0.0
C1215 C 0.27357 0.63314 0.88843 0.0
H1216 H 0.32129 0.67916 0.88017 0.0
H1217 H 0.1622 0.46905 0.87162 0.0
H1218 H 0.56398 0.16084 0.04544 0.0
H1219 H 0.59885 0.18678 0.05769 0.0
H1220 H 0.63203 0.1961 0.01361 0.0
H1221 H 0.59726 0.16957 0.00142 0.0
H1222 H 0.6589 0.19926 0.03707 0.0
H1223 H 0.61279 0.22858 0.02427 0.0
H1224 H 0.57848 0.23021 0.0242 0.0
H1225 H 0.58205 0.23722 0.07409 0.0
H1226 H 0.61622 0.23526 0.07447 0.0
H1227 H 0.73398 0.3134 0.03699 0.0
H1228 H 0.70359 0.27682 0.03247 0.0
H1229 H 0.69477 0.26676 0.08214 0.0
H1230 H 0.72584 0.3033 0.08678 0.0
H1231 H 0.65623 0.26158 0.05981 0.0
H1232 H 0.70819 0.23767 0.07004 0.0
H1233 H 0.74372 0.23886 0.06683 0.0
H1234 H 0.7306 0.22534 0.01789 0.0
H1235 H 0.69511 0.22439 0.02077 0.0
C1236 C 0.57882 0.16794 0.03848 0.0
C1237 C 0.57798 0.16308 0.02249 0.0
C1238 C 0.59872 0.18284 0.04547 0.0
C1239 C 0.61798 0.19358 0.03651 0.0
C1240 C 0.61739 0.18795 0.02075 0.0
C1241 C 0.59754 0.17288 0.01379 0.0
C1242 C 0.63803 0.21229 0.04305 0.0
C1243 C 0.65831 0.21285 0.04209 0.0
C1244 C 0.63728 0.23005 0.04959 0.0
C1245 C 0.61689 0.2315 0.04942 0.0
C1246 C 0.60616 0.23031 0.03524 0.0
C1247 C 0.58676 0.23131 0.03514 0.0
C1248 C 0.57805 0.23375 0.04914 0.0
C1249 C 0.58879 0.23527 0.06326 0.0
C1250 C 0.60817 0.23422 0.06342 0.0
C1251 C 0.72584 0.30325 0.04695 0.0
C1252 C 0.73216 0.31111 0.06223 0.0
C1253 C 0.70857 0.28239 0.04435 0.0
C1254 C 0.69709 0.2692 0.05698 0.0
C1255 C 0.70363 0.27675 0.07228 0.0
C1256 C 0.72133 0.29752 0.0749 0.0
C1257 C 0.67696 0.24843 0.05392 0.0
C1258 C 0.65668 0.24767 0.05528 0.0
C1259 C 0.67785 0.23082 0.04736 0.0
C1260 C 0.69905 0.23112 0.04561 0.0
C1261 C 0.71295 0.23513 0.05857 0.0
C1262 C 0.73307 0.23572 0.05682 0.0
C1263 C 0.73943 0.23222 0.04216 0.0
C1264 C 0.72565 0.22805 0.02924 0.0
C1265 C 0.70551 0.22745 0.03093 0.0
H1266 H 0.75502 0.2327 0.04082 0.0
H1267 H 0.56302 0.23453 0.04904 0.0
H1268 H 0.42149 0.5854 0.20689 0.0
H1269 H 0.42686 0.61805 0.21988 0.0
H1270 H 0.46231 0.65558 0.17979 0.0
H1271 H 0.45745 0.62298 0.16691 0.0
H1272 H 0.47925 0.6785 0.20678 0.0
H1273 H 0.409 0.63716 0.18202 0.0
H1274 H 0.37386 0.6042 0.1762 0.0
H1275 H 0.35468 0.60008 0.22421 0.0
H1276 H 0.38994 0.63285 0.23036 0.0
H1277 H 0.43062 0.749 0.20301 0.0
H1278 H 0.43857 0.72006 0.19766 0.0
H1279 H 0.44242 0.71102 0.24705 0.0
H1280 H 0.43533 0.74069 0.25252 0.0
H1281 H 0.40778 0.67415 0.2184 0.0
H1282 H 0.48132 0.71931 0.24156 0.0
H1283 H 0.51633 0.75358 0.24406 0.0
H1284 H 0.52838 0.7521 0.19508 0.0
H1285 H 0.4932 0.71798 0.19225 0.0
C1286 C 0.43101 0.6007 0.20106 0.0
C1287 C 0.43921 0.60171 0.18593 0.0
C1288 C 0.434 0.61932 0.20845 0.0
C1289 C 0.44477 0.63919 0.20072 0.0
C1290 C 0.45403 0.64043 0.18599 0.0
C1291 C 0.45118 0.62182 0.17862 0.0
C1292 C 0.44396 0.65799 0.2071 0.0
C1293 C 0.46364 0.67751 0.20941 0.0
C1294 C 0.42357 0.65677 0.21038 0.0
C1295 C 0.4022 0.6373 0.20669 0.0
C1296 C 0.39735 0.62914 0.19136 0.0
C1297 C 0.37741 0.6105 0.188 0.0
C1298 C 0.36207 0.60002 0.19984 0.0
C1299 C 0.36661 0.6082 0.21505 0.0
C1300 C 0.38657 0.6268 0.21849 0.0
C1301 C 0.43355 0.7411 0.21273 0.0
C1302 C 0.43234 0.74701 0.22818 0.0
C1303 C 0.43817 0.72468 0.20965 0.0
C1304 C 0.4413 0.71366 0.22196 0.0
C1305 C 0.44043 0.71967 0.23742 0.0
C1306 C 0.43634 0.73652 0.24052 0.0
C1307 C 0.44303 0.69443 0.21843 0.0
C1308 C 0.42341 0.6749 0.21628 0.0
C1309 C 0.46339 0.69581 0.215 0.0
C1310 C 0.48449 0.71629 0.21666 0.0
C1311 C 0.49128 0.72645 0.23128 0.0
C1312 C 0.51119 0.74581 0.23277 0.0
C1313 C 0.52453 0.75506 0.21972 0.0
C1314 C 0.51801 0.74494 0.20517 0.0
C1315 C 0.49808 0.7256 0.20362 0.0
H1316 H 0.53996 0.77003 0.2209 0.0
H1317 H 0.34664 0.58558 0.19722 0.0
H1318 H 0.82925 0.43085 0.32612 0.0
H1319 H 0.79952 0.43488 0.33732 0.0
H1320 H 0.82151 0.43081 0.38365 0.0
H1321 H 0.85043 0.42549 0.37246 0.0
H1322 H 0.78028 0.40654 0.38268 0.0
H1323 H 0.82725 0.47948 0.36715 0.0
H1324 H 0.85048 0.50947 0.34954 0.0
H1325 H 0.79505 0.49158 0.31922 0.0
H1326 H 0.77155 0.46133 0.33655 0.0
H1327 H 0.71359 0.45757 0.41001 0.0
H1328 H 0.74733 0.45948 0.40019 0.0
H1329 H 0.70849 0.40307 0.37193 0.0
H1330 H 0.67466 0.40066 0.38195 0.0
H1331 H 0.75959 0.46024 0.36586 0.0
H1332 H 0.72096 0.37765 0.38031 0.0
H1333 H 0.6993 0.35084 0.4005 0.0
H1334 H 0.7427 0.39315 0.43609 0.0
H1335 H 0.76429 0.42033 0.41608 0.0
C1336 C 0.82791 0.43115 0.3387 0.0
C1337 C 0.84236 0.42812 0.34836 0.0
C1338 C 0.81099 0.43359 0.34511 0.0
C1339 C 0.8084 0.4335 0.36137 0.0
C1340 C 0.82316 0.43099 0.37107 0.0
C1341 C 0.83983 0.42812 0.36465 0.0
C1342 C 0.78935 0.43435 0.36819 0.0
C1343 C 0.77599 0.41845 0.379 0.0
C1344 C 0.78357 0.44988 0.36358 0.0
C1345 C 0.79768 0.46803 0.3531 0.0
C1346 C 0.82005 0.48184 0.35667 0.0
C1347 C 0.83326 0.49891 0.34674 0.0
C1348 C 0.82426 0.5024 0.33325 0.0
C1349 C 0.80201 0.48885 0.32967 0.0
C1350 C 0.78873 0.47176 0.33955 0.0
C1351 C 0.71223 0.44554 0.40173 0.0
C1352 C 0.69146 0.42886 0.39684 0.0
C1353 C 0.7315 0.44669 0.39614 0.0
C1354 C 0.73031 0.43126 0.38553 0.0
C1355 C 0.70967 0.41485 0.38038 0.0
C1356 C 0.69039 0.41353 0.38609 0.0
C1357 C 0.75066 0.43223 0.37984 0.0
C1358 C 0.76416 0.44848 0.36939 0.0
C1359 C 0.75684 0.41732 0.38488 0.0
C1360 C 0.74403 0.40098 0.39679 0.0
C1361 C 0.72576 0.38122 0.39246 0.0
C1362 C 0.7135 0.36599 0.40386 0.0
C1363 C 0.71959 0.37031 0.41957 0.0
C1364 C 0.73795 0.38986 0.42392 0.0
C1365 C 0.75014 0.40519 0.41257 0.0
H1366 H 0.71011 0.35849 0.42838 0.0
H1367 H 0.83451 0.51562 0.32559 0.0
H1368 H 0.0494 0.54514 0.43391 0.0
H1369 H 0.06951 0.54053 0.45533 0.0
H1370 H 0.12971 0.59536 0.43931 0.0
H1371 H 0.10996 0.59915 0.41716 0.0
H1372 H 0.13915 0.56773 0.45091 0.0
H1373 H 0.09424 0.59848 0.46827 0.0
H1374 H 0.05906 0.59799 0.47177 0.0
H1375 H 0.03341 0.53934 0.49788 0.0
H1376 H 0.06839 0.5394 0.49438 0.0
H1377 H 0.17803 0.62232 0.52914 0.0
H1378 H 0.15331 0.60996 0.50656 0.0
H1379 H 0.15566 0.55105 0.50555 0.0
H1380 H 0.18118 0.56372 0.52781 0.0
H1381 H 0.11182 0.57258 0.50328 0.0
H1382 H 0.15764 0.54034 0.47722 0.0
H1383 H 0.19496 0.54538 0.47406 0.0
H1384 H 0.22077 0.61271 0.46548 0.0
H1385 H 0.18361 0.60804 0.46887 0.0
C1386 C 0.06697 0.55608 0.43475 0.0
C1387 C 0.07802 0.57294 0.42397 0.0
C1388 C 0.07845 0.55343 0.44708 0.0
C1389 C 0.10101 0.56795 0.4492 0.0
C1390 C 0.11227 0.58401 0.438 0.0
C1391 C 0.10093 0.58634 0.42544 0.0
C1392 C 0.11262 0.56775 0.46365 0.0
C1393 C 0.13295 0.56846 0.46235 0.0
C1394 C 0.10466 0.56869 0.47866 0.0
C1395 C 0.0838 0.56884 0.48094 0.0
C1396 C 0.08105 0.58545 0.47471 0.0
C1397 C 0.06116 0.58525 0.47669 0.0
C1398 C 0.04399 0.56862 0.48501 0.0
C1399 C 0.04671 0.55219 0.49142 0.0
C1400 C 0.06656 0.55231 0.48945 0.0
C1401 C 0.17334 0.60676 0.52407 0.0
C1402 C 0.18165 0.59405 0.53011 0.0
C1403 C 0.15921 0.59971 0.51122 0.0
C1404 C 0.15293 0.57974 0.50427 0.0
C1405 C 0.16079 0.56676 0.51048 0.0
C1406 C 0.17525 0.57397 0.52323 0.0
C1407 C 0.13834 0.57294 0.49043 0.0
C1408 C 0.11753 0.57103 0.49185 0.0
C1409 C 0.14589 0.57111 0.47557 0.0
C1410 C 0.16803 0.57388 0.47339 0.0
C1411 C 0.17133 0.5562 0.47468 0.0
C1412 C 0.19242 0.55899 0.47289 0.0
C1413 C 0.21024 0.57936 0.4696 0.0
C1414 C 0.20698 0.59697 0.46809 0.0
C1415 C 0.18594 0.59427 0.47 0.0
H1416 H 0.22655 0.58149 0.4682 0.0
H1417 H 0.02859 0.56847 0.48652 0.0
H1418 H 0.52575 0.04476 0.59986 0.0
H1419 H 0.54697 0.07169 0.62678 0.0
H1420 H 0.52079 0.12251 0.61128 0.0
H1421 H 0.49932 0.0972 0.58381 0.0
H1422 H 0.56263 0.14284 0.61969 0.0
H1423 H 0.50373 0.08247 0.64521 0.0
H1424 H 0.48002 0.04436 0.6523 0.0
H1425 H 0.53575 0.04307 0.67196 0.0
H1426 H 0.55988 0.08112 0.6648 0.0
H1427 H 0.56349 0.18778 0.69482 0.0
H1428 H 0.55096 0.16312 0.67248 0.0
H1429 H 0.61018 0.159 0.67493 0.0
H1430 H 0.62326 0.18434 0.69704 0.0
H1431 H 0.55823 0.11675 0.67389 0.0
H1432 H 0.61674 0.17991 0.64813 0.0
H1433 H 0.63722 0.21866 0.64211 0.0
H1434 H 0.5782 0.21477 0.62388 0.0
H1435 H 0.55729 0.17604 0.63007 0.0
C1436 C 0.52397 0.05859 0.60239 0.0
C1437 C 0.51363 0.07039 0.58755 0.0
C1438 C 0.53781 0.07592 0.61877 0.0
C1439 C 0.53712 0.10054 0.62155 0.0
C1440 C 0.52143 0.10803 0.6089 0.0
C1441 C 0.50708 0.09185 0.59221 0.0
C1442 C 0.54916 0.115 0.63462 0.0
C1443 C 0.56163 0.13708 0.63153 0.0
C1444 C 0.5481 0.10744 0.65001 0.0
C1445 C 0.53367 0.08455 0.65426 0.0
C1446 C 0.51097 0.074 0.65091 0.0
C1447 C 0.49745 0.05242 0.65497 0.0
C1448 C 0.50639 0.04128 0.66252 0.0
C1449 C 0.52887 0.05171 0.66607 0.0
C1450 C 0.54247 0.07328 0.66202 0.0
C1451 C 0.57388 0.18169 0.69056 0.0
C1452 C 0.59434 0.18795 0.69757 0.0
C1453 C 0.56672 0.16767 0.67784 0.0
C1454 C 0.57973 0.15941 0.67215 0.0
C1455 C 0.60005 0.16537 0.6792 0.0
C1456 C 0.60748 0.17983 0.69174 0.0
C1457 C 0.57164 0.14439 0.65887 0.0
C1458 C 0.55966 0.1223 0.66195 0.0
C1459 C 0.57291 0.15191 0.6435 0.0
C1460 C 0.58541 0.17516 0.63975 0.0
C1461 C 0.60808 0.18738 0.64302 0.0
C1462 C 0.61977 0.20932 0.63954 0.0
C1463 C 0.609 0.21919 0.63267 0.0
C1464 C 0.58651 0.20712 0.62924 0.0
C1465 C 0.57474 0.18517 0.63272 0.0
H1466 H 0.61809 0.23618 0.62997 0.0
H1467 H 0.49589 0.02457 0.66566 0.0
H1468 H 0.49729 0.54156 0.78051 0.0
H1469 H 0.47022 0.54309 0.7974 0.0
H1470 H 0.46279 0.58428 0.76423 0.0
H1471 H 0.49093 0.58381 0.74775 0.0
H1472 H 0.47024 0.60196 0.79048 0.0
H1473 H 0.41862 0.5312 0.77437 0.0
H1474 H 0.40386 0.4929 0.76793 0.0
H1475 H 0.41417 0.48027 0.81525 0.0
H1476 H 0.42926 0.51852 0.82195 0.0
H1477 H 0.40712 0.61267 0.85169 0.0
H1478 H 0.41642 0.60403 0.82615 0.0
H1479 H 0.43511 0.56149 0.84831 0.0
H1480 H 0.42475 0.56921 0.87364 0.0
H1481 H 0.41347 0.54349 0.82288 0.0
H1482 H 0.47347 0.61651 0.83594 0.0
H1483 H 0.4881 0.65497 0.84193 0.0
H1484 H 0.46054 0.6625 0.79919 0.0
H1485 H 0.44563 0.62406 0.79303 0.0
C1486 C 0.48948 0.55052 0.77667 0.0
C1487 C 0.4962 0.56247 0.76281 0.0
C1488 C 0.4738 0.55122 0.78625 0.0
C1489 C 0.46415 0.56358 0.78204 0.0
C1490 C 0.46994 0.57458 0.76774 0.0
C1491 C 0.48599 0.57424 0.75828 0.0
C1492 C 0.45085 0.56759 0.79363 0.0
C1493 C 0.45739 0.58906 0.79726 0.0
C1494 C 0.43418 0.55089 0.80263 0.0
C1495 C 0.42517 0.52781 0.79864 0.0
C1496 C 0.41789 0.5203 0.78338 0.0
C1497 C 0.40943 0.49858 0.77969 0.0
C1498 C 0.40809 0.48417 0.79116 0.0
C1499 C 0.41519 0.49144 0.80637 0.0
C1500 C 0.42366 0.51314 0.81013 0.0
C1501 C 0.41334 0.60157 0.85107 0.0
C1502 C 0.41542 0.59174 0.86463 0.0
C1503 C 0.41862 0.59663 0.83648 0.0
C1504 C 0.42673 0.58229 0.83529 0.0
C1505 C 0.42879 0.57251 0.84888 0.0
C1506 C 0.42303 0.57705 0.86337 0.0
C1507 C 0.4338 0.57776 0.82011 0.0
C1508 C 0.42595 0.55623 0.81579 0.0
C1509 C 0.44921 0.59436 0.8104 0.0
C1510 C 0.45826 0.61743 0.81412 0.0
C1511 C 0.47046 0.62638 0.82787 0.0
C1512 C 0.47881 0.64816 0.83129 0.0
C1513 C 0.4752 0.66115 0.82097 0.0
C1514 C 0.46329 0.65242 0.80718 0.0
C1515 C 0.45491 0.63065 0.80372 0.0
H1516 H 0.48166 0.67801 0.82363 0.0
H1517 H 0.40154 0.46736 0.78828 0.0
H1518 H 0.98384 0.47334 0.94569 0.0
H1519 H 0.95275 0.45967 0.97106 0.0
H1520 H 0.88914 0.4223 0.93409 0.0
H1521 H 0.91837 0.43481 0.90763 0.0
H1522 H 0.88332 0.44668 0.95749 0.0
H1523 H 0.91233 0.3988 0.96077 0.0
H1524 H 0.94149 0.3892 0.9626 0.0
H1525 H 0.9634 0.42325 0.00616 0.0
H1526 H 0.93455 0.4333 0.00449 0.0
H1527 H 0.80042 0.38769 0.01321 0.0
H1528 H 0.82633 0.39922 0.99143 0.0
H1529 H 0.88073 0.42612 0.02415 0.0
H1530 H 0.85467 0.41279 0.04585 0.0
H1531 H 0.89025 0.40837 0.00335 0.0
H1532 H 0.86134 0.45681 0.00041 0.0
H1533 H 0.83235 0.46665 -0.00155 0.0
H1534 H 0.81077 0.43297 0.95474 0.0
H1535 H 0.83945 0.42272 0.95652 0.0
C1536 C 0.9664 0.46296 0.94359 0.0
C1537 C 0.95419 0.45877 0.92372 0.0
C1538 C 0.94686 0.45533 0.9592 0.0
C1539 C 0.91764 0.44073 0.95522 0.0
C1540 C 0.90674 0.43192 0.93584 0.0
C1541 C 0.92483 0.43869 0.9194 0.0
C1542 C 0.90205 0.43388 0.96827 0.0
C1543 C 0.88469 0.43821 0.96752 0.0
C1544 C 0.90417 0.42314 0.98137 0.0
C1545 C 0.92144 0.417 0.98241 0.0
C1546 C 0.92347 0.40438 0.97068 0.0
C1547 C 0.93993 0.39883 0.9717 0.0
C1548 C 0.95433 0.40567 0.98446 0.0
C1549 C 0.95226 0.418 0.99626 0.0
C1550 C 0.93585 0.42361 0.99529 0.0
C1551 C 0.81795 0.39599 0.01565 0.0
C1552 C 0.8257 0.39936 0.03107 0.0
C1553 C 0.83276 0.40282 0.00323 0.0
C1554 C 0.8556 0.41409 0.00607 0.0
C1555 C 0.86325 0.41749 0.02159 0.0
C1556 C 0.84841 0.40991 0.03398 0.0
C1557 C 0.87158 0.42166 0.99296 0.0
C1558 C 0.88894 0.4172 0.99353 0.0
C1559 C 0.86958 0.43255 0.9798 0.0
C1560 C 0.85244 0.43886 0.97867 0.0
C1561 C 0.85034 0.45141 0.99042 0.0
C1562 C 0.83397 0.45707 0.98934 0.0
C1563 C 0.8197 0.4504 0.9765 0.0
C1564 C 0.82182 0.43811 0.96468 0.0
C1565 C 0.83814 0.4324 0.96572 0.0
H1566 H 0.80703 0.45478 0.97569 0.0
H1567 H 0.96706 0.40137 0.98523 0.0
H1568 H 0.51091 0.94019 0.09425 0.0
H1569 H 0.49911 0.93058 0.1213 0.0
H1570 H 0.43119 0.89997 0.10663 0.0
H1571 H 0.44287 0.90957 0.07948 0.0
H1572 H 0.45868 0.92904 0.14378 0.0
H1573 H 0.42135 0.85626 0.11165 0.0
H1574 H 0.42417 0.83987 0.087 0.0
H1575 H 0.49381 0.86747 0.09421 0.0
H1576 H 0.4913 0.88402 0.11889 0.0
H1577 H 0.39983 0.83704 0.19661 0.0
H1578 H 0.41005 0.86203 0.17464 0.0
H1579 H 0.47592 0.87176 0.17579 0.0
H1580 H 0.46602 0.8472 0.19801 0.0
H1581 H 0.44807 0.85525 0.14596 0.0
H1582 H 0.4757 0.9111 0.18562 0.0
H1583 H 0.47241 0.9289 0.20927 0.0
H1584 H 0.42126 0.93605 0.18739 0.0
H1585 H 0.42402 0.91798 0.16368 0.0
C1586 C 0.49348 0.93219 0.09688 0.0
C1587 C 0.47776 0.9256 0.08482 0.0
C1588 C 0.48679 0.9269 0.11232 0.0
C1589 C 0.46434 0.91482 0.11588 0.0
C1590 C 0.4486 0.90965 0.10406 0.0
C1591 C 0.45527 0.91495 0.08859 0.0
C1592 C 0.45781 0.90298 0.13069 0.0
C1593 C 0.45609 0.91284 0.14433 0.0
C1594 C 0.45469 0.88202 0.1313 0.0
C1595 C 0.4561 0.87112 0.11707 0.0
C1596 C 0.43719 0.85859 0.10802 0.0
C1597 C 0.43875 0.84938 0.09403 0.0
C1598 C 0.45915 0.85258 0.08907 0.0
C1599 C 0.47802 0.86496 0.0981 0.0
C1600 C 0.47654 0.87422 0.11208 0.0
C1601 C 0.41656 0.84471 0.19229 0.0
C1602 C 0.43213 0.8401 0.19888 0.0
C1603 C 0.42237 0.85906 0.17986 0.0
C1604 C 0.44371 0.8687 0.17375 0.0
C1605 C 0.45941 0.86451 0.1805 0.0
C1606 C 0.45374 0.85049 0.19313 0.0
C1607 C 0.44892 0.88121 0.15926 0.0
C1608 C 0.4504 0.87138 0.14555 0.0
C1609 C 0.45153 0.90206 0.15871 0.0
C1610 C 0.44988 0.91295 0.17295 0.0
C1611 C 0.46357 0.91624 0.18591 0.0
C1612 C 0.46185 0.92644 0.19931 0.0
C1613 C 0.44658 0.93354 0.19985 0.0
C1614 C 0.43305 0.93051 0.18697 0.0
C1615 C 0.4347 0.92031 0.17354 0.0
H1616 H 0.44528 0.94144 0.21024 0.0
H1617 H 0.46035 0.84551 0.0782 0.0
H1618 H 0.54357 0.45461 0.2478 0.0
H1619 H 0.54284 0.44003 0.27383 0.0
H1620 H 0.59556 0.50199 0.28869 0.0
H1621 H 0.59597 0.51683 0.26288 0.0
H1622 H 0.60039 0.46074 0.28891 0.0
H1623 H 0.55746 0.49304 0.3059 0.0
H1624 H 0.52575 0.49899 0.30513 0.0
H1625 H 0.48172 0.43174 0.31324 0.0
H1626 H 0.5132 0.42534 0.31382 0.0
H1627 H 0.62319 0.46331 0.3687 0.0
H1628 H 0.61064 0.47114 0.3443 0.0
H1629 H 0.56029 0.40452 0.33988 0.0
H1630 H 0.57309 0.39631 0.36432 0.0
H1631 H 0.54956 0.44281 0.33379 0.0
H1632 H 0.59224 0.41045 0.31782 0.0
H1633 H 0.62394 0.40448 0.3188 0.0
H1634 H 0.66774 0.47107 0.30828 0.0
H1635 H 0.63629 0.4775 0.3075 0.0
C1636 C 0.55467 0.4652 0.25673 0.0
C1637 C 0.57002 0.48677 0.25331 0.0
C1638 C 0.55416 0.45689 0.27156 0.0
C1639 C 0.5691 0.47 0.28308 0.0
C1640 C 0.58384 0.49172 0.2799 0.0
C1641 C 0.58413 0.50012 0.26519 0.0
C1642 C 0.5715 0.4605 0.29765 0.0
C1643 C 0.5893 0.45686 0.29874 0.0
C1644 C 0.55659 0.45489 0.3102 0.0
C1645 C 0.53765 0.45866 0.30963 0.0
C1646 C 0.541 0.47946 0.30728 0.0
C1647 C 0.52307 0.48294 0.30695 0.0
C1648 C 0.50172 0.46574 0.30906 0.0
C1649 C 0.49826 0.44504 0.31156 0.0
C1650 C 0.51614 0.44148 0.31189 0.0
C1651 C 0.60935 0.4503 0.36264 0.0
C1652 C 0.5992 0.42916 0.36838 0.0
C1653 C 0.60219 0.45483 0.34873 0.0
C1654 C 0.58456 0.43841 0.34041 0.0
C1655 C 0.57388 0.41738 0.34626 0.0
C1656 C 0.58131 0.41272 0.3601 0.0
C1657 C 0.57865 0.4434 0.32508 0.0
C1658 C 0.56033 0.44628 0.32383 0.0
C1659 C 0.59297 0.44822 0.31226 0.0
C1660 C 0.61195 0.4445 0.31279 0.0
C1661 C 0.60866 0.42387 0.31591 0.0
C1662 C 0.62657 0.42039 0.31638 0.0
C1663 C 0.64785 0.4374 0.31366 0.0
C1664 C 0.65125 0.45792 0.31042 0.0
C1665 C 0.63339 0.46148 0.30996 0.0
H1666 H 0.6617 0.43467 0.31401 0.0
H1667 H 0.48787 0.46846 0.30883 0.0
H1668 H 0.47172 0.9177 0.40051 0.0
H1669 H 0.47689 0.90628 0.37461 0.0
H1670 H 0.42531 0.91603 0.35611 0.0
H1671 H 0.4206 0.92821 0.38177 0.0
H1672 H 0.43109 0.86866 0.35906 0.0
H1673 H 0.44789 0.93993 0.33544 0.0
H1674 H 0.47037 0.97952 0.33468 0.0
H1675 H 0.52936 0.97536 0.33283 0.0
H1676 H 0.50714 0.93571 0.33389 0.0
H1677 H 0.401 0.85238 0.27849 0.0
H1678 H 0.41361 0.87195 0.30312 0.0
H1679 H 0.46693 0.85839 0.30497 0.0
H1680 H 0.45402 0.83806 0.28032 0.0
H1681 H 0.468 0.90854 0.31084 0.0
H1682 H 0.44872 0.83565 0.32878 0.0
H1683 H 0.42447 0.79623 0.32849 0.0
H1684 H 0.36931 0.80355 0.34107 0.0
H1685 H 0.3932 0.84306 0.34113 0.0
C1686 C 0.46187 0.91789 0.39082 0.0
C1687 C 0.44556 0.92356 0.39314 0.0
C1688 C 0.46492 0.9115 0.37606 0.0
C1689 C 0.45175 0.91072 0.36348 0.0
C1690 C 0.43604 0.91712 0.36562 0.0
C1691 C 0.43317 0.92379 0.3803 0.0
C1692 C 0.45171 0.89986 0.34889 0.0
C1693 C 0.43941 0.87735 0.34856 0.0
C1694 C 0.46263 0.91124 0.33531 0.0
C1695 C 0.47593 0.93497 0.33511 0.0
C1696 C 0.46566 0.94749 0.33517 0.0
C1697 C 0.47834 0.96992 0.33461 0.0
C1698 C 0.50129 0.97996 0.33381 0.0
C1699 C 0.51159 0.96758 0.33355 0.0
C1700 C 0.49897 0.94513 0.33416 0.0
C1701 C 0.41548 0.8536 0.28406 0.0
C1702 C 0.4265 0.84363 0.27753 0.0
C1703 C 0.42265 0.86481 0.29809 0.0
C1704 C 0.44111 0.86651 0.30575 0.0
C1705 C 0.45257 0.85708 0.29916 0.0
C1706 C 0.44514 0.84547 0.28518 0.0
C1707 C 0.44732 0.87734 0.32103 0.0
C1708 C 0.46042 0.89982 0.32149 0.0
C1709 C 0.43703 0.86594 0.33476 0.0
C1710 C 0.42267 0.84225 0.33474 0.0
C1711 C 0.43136 0.82884 0.33128 0.0
C1712 C 0.4177 0.80649 0.3312 0.0
C1713 C 0.39534 0.79739 0.3347 0.0
C1714 C 0.38661 0.81062 0.33832 0.0
C1715 C 0.40021 0.83299 0.33838 0.0
H1716 H 0.38479 0.78008 0.33466 0.0
H1717 H 0.51108 0.99733 0.33331 0.0
H1718 H 0.49655 0.45175 0.5419 0.0
H1719 H 0.51589 0.45733 0.51719 0.0
H1720 H 0.56532 0.44807 0.54024 0.0
H1721 H 0.54664 0.44359 0.56518 0.0
H1722 H 0.583 0.47586 0.51597 0.0
H1723 H 0.51769 0.40516 0.52517 0.0
H1724 H 0.47809 0.38213 0.53078 0.0
H1725 H 0.46181 0.40564 0.48972 0.0
H1726 H 0.50134 0.42901 0.484 0.0
H1727 H 0.61552 0.4215 0.46374 0.0
H1728 H 0.60224 0.43476 0.48495 0.0
H1729 H 0.55211 0.4328 0.45441 0.0
H1730 H 0.56457 0.41826 0.43348 0.0
H1731 H 0.5344 0.41659 0.47996 0.0
H1732 H 0.59953 0.48184 0.46756 0.0
H1733 H 0.63897 0.50533 0.4618 0.0
H1734 H 0.65593 0.49396 0.5076 0.0
H1735 H 0.61661 0.47016 0.51358 0.0
C1736 C 0.51194 0.45165 0.54183 0.0
C1737 C 0.52008 0.44715 0.55549 0.0
C1738 C 0.52294 0.45477 0.52767 0.0
C1739 C 0.54176 0.45263 0.52683 0.0
C1740 C 0.55081 0.44976 0.54062 0.0
C1741 C 0.54007 0.44709 0.55483 0.0
C1742 C 0.55004 0.44998 0.51158 0.0
C1743 C 0.57245 0.46296 0.50803 0.0
C1744 C 0.53611 0.43349 0.50106 0.0
C1745 C 0.5124 0.41891 0.50423 0.0
C1746 C 0.50564 0.40541 0.51736 0.0
C1747 C 0.48323 0.39233 0.52057 0.0
C1748 C 0.46744 0.39244 0.51063 0.0
C1749 C 0.47405 0.40557 0.49742 0.0
C1750 C 0.49644 0.41873 0.49418 0.0
C1751 C 0.60173 0.42401 0.46158 0.0
C1752 C 0.59098 0.41878 0.44705 0.0
C1753 C 0.59429 0.43182 0.47364 0.0
C1754 C 0.57643 0.43525 0.47122 0.0
C1755 C 0.56594 0.43035 0.45657 0.0
C1756 C 0.57302 0.42201 0.44464 0.0
C1757 C 0.56761 0.44223 0.48433 0.0
C1758 C 0.54502 0.42993 0.48756 0.0
C1759 C 0.58141 0.45948 0.49442 0.0
C1760 C 0.60509 0.47412 0.49099 0.0
C1761 C 0.61167 0.48427 0.47639 0.0
C1762 C 0.63401 0.49765 0.47308 0.0
C1763 C 0.64994 0.50112 0.48432 0.0
C1764 C 0.64357 0.49127 0.49891 0.0
C1765 C 0.62125 0.47787 0.50227 0.0
H1766 H 0.66723 0.51145 0.48172 0.0
H1767 H 0.4501 0.38234 0.51315 0.0
H1768 H 0.10364 0.55684 0.73532 0.0
H1769 H 0.1157 0.5745 0.70987 0.0
H1770 H 0.09422 0.51296 0.68807 0.0
H1771 H 0.08163 0.49516 0.71336 0.0
H1772 H 0.14708 0.55783 0.69121 0.0
H1773 H 0.06974 0.52046 0.67115 0.0
H1774 H 0.03123 0.51249 0.6724 0.0
H1775 H 0.05318 0.58007 0.67149 0.0
H1776 H 0.09188 0.5884 0.67048 0.0
H1777 H 0.15779 0.54925 0.61031 0.0
H1778 H 0.13831 0.54352 0.63489 0.0
H1779 H 0.16552 0.6119 0.6403 0.0
H1780 H 0.1857 0.618 0.61563 0.0
H1781 H 0.11052 0.57125 0.64642 0.0
H1782 H 0.18826 0.60813 0.66271 0.0
H1783 H 0.22633 0.61492 0.66086 0.0
H1784 H 0.20343 0.54806 0.6693 0.0
H1785 H 0.16517 0.54085 0.6709 0.0
C1786 C 0.10091 0.54705 0.72501 0.0
C1787 C 0.09177 0.52466 0.72627 0.0
C1788 C 0.10768 0.55713 0.71052 0.0
C1789 C 0.10544 0.54495 0.69713 0.0
C1790 C 0.09554 0.52252 0.69825 0.0
C1791 C 0.08854 0.51242 0.71268 0.0
C1792 C 0.11712 0.55572 0.68272 0.0
C1793 C 0.13917 0.56099 0.68148 0.0
C1794 C 0.10681 0.56004 0.67019 0.0
C1795 C 0.08366 0.55504 0.67106 0.0
C1796 C 0.06636 0.53361 0.67149 0.0
C1797 C 0.0445 0.52903 0.67207 0.0
C1798 C 0.03976 0.54577 0.67211 0.0
C1799 C 0.05688 0.56712 0.67153 0.0
C1800 C 0.07877 0.57178 0.67096 0.0
C1801 C 0.15955 0.56315 0.61658 0.0
C1802 C 0.17344 0.58412 0.61106 0.0
C1803 C 0.14832 0.55979 0.6306 0.0
C1804 C 0.15051 0.57727 0.6393 0.0
C1805 C 0.16367 0.59824 0.63365 0.0
C1806 C 0.17524 0.60167 0.61965 0.0
C1807 C 0.14043 0.57316 0.65491 0.0
C1808 C 0.11865 0.56883 0.65636 0.0
C1809 C 0.15095 0.56967 0.66771 0.0
C1810 C 0.17388 0.57393 0.66671 0.0
C1811 C 0.19134 0.59485 0.66397 0.0
C1812 C 0.21294 0.59878 0.66301 0.0
C1813 C 0.21729 0.58192 0.6649 0.0
C1814 C 0.20004 0.5611 0.66779 0.0
C1815 C 0.1784 0.55708 0.66872 0.0
H1816 H 0.23404 0.585 0.66418 0.0
H1817 H 0.02283 0.54219 0.67253 0.0
H1818 H 0.50436 0.04687 0.88076 0.0
H1819 H 0.50964 0.07515 0.85506 0.0
H1820 H 0.59045 0.12066 0.86618 0.0
H1821 H 0.58722 0.09393 0.89233 0.0
H1822 H 0.5721 0.14425 0.85991 0.0
H1823 H 0.55902 0.07963 0.83345 0.0
H1824 H 0.53851 0.04101 0.82678 0.0
H1825 H 0.48377 0.04719 0.81091 0.0
H1826 H 0.5039 0.08583 0.81766 0.0
H1827 H 0.62076 0.17673 0.7851 0.0
H1828 H 0.60377 0.1562 0.80877 0.0
H1829 H 0.54804 0.16538 0.80207 0.0
H1830 H 0.56541 0.18675 0.77849 0.0
H1831 H 0.54522 0.1178 0.80628 0.0
H1832 H 0.56467 0.1864 0.82923 0.0
H1833 H 0.58939 0.22499 0.83459 0.0
H1834 H 0.63631 0.21102 0.85592 0.0
H1835 H 0.61204 0.17236 0.85045 0.0
C1836 C 0.52044 0.06 0.87762 0.0
C1837 C 0.54467 0.06985 0.89095 0.0
C1838 C 0.52375 0.07823 0.86209 0.0
C1839 C 0.55031 0.10167 0.85839 0.0
C1840 C 0.57468 0.10701 0.86921 0.0
C1841 C 0.5731 0.08984 0.88496 0.0
C1842 C 0.55317 0.11629 0.84546 0.0
C1843 C 0.56608 0.13846 0.8482 0.0
C1844 C 0.54496 0.10872 0.83027 0.0
C1845 C 0.53281 0.08551 0.82629 0.0
C1846 C 0.54253 0.0727 0.82867 0.0
C1847 C 0.531 0.05083 0.82484 0.0
C1848 C 0.50981 0.04163 0.81849 0.0
C1849 C 0.50015 0.05432 0.81588 0.0
C1850 C 0.51161 0.0762 0.8197 0.0
C1851 C 0.60498 0.17455 0.78873 0.0
C1852 C 0.59434 0.18324 0.77999 0.0
C1853 C 0.59536 0.16291 0.80224 0.0
C1854 C 0.57477 0.15943 0.80709 0.0
C1855 C 0.56404 0.1681 0.79848 0.0
C1856 C 0.57395 0.18027 0.7851 0.0
C1857 C 0.5644 0.14563 0.82074 0.0
C1858 C 0.55039 0.12358 0.81812 0.0
C1859 C 0.5719 0.15327 0.83599 0.0
C1860 C 0.58661 0.1765 0.83928 0.0
C1861 C 0.58037 0.19158 0.8349 0.0
C1862 C 0.59428 0.21346 0.838 0.0
C1863 C 0.61443 0.22046 0.84555 0.0
C1864 C 0.62071 0.20558 0.85005 0.0
C1865 C 0.60687 0.18368 0.84697 0.0
H1866 H 0.62517 0.23741 0.84796 0.0
H1867 H 0.5009 0.02469 0.81553 0.0
H1868 H 0.51573 0.5367 0.03 0.0
H1869 H 0.49727 0.55038 0.00546 0.0
H1870 H 0.47369 0.58747 0.04391 0.0
H1871 H 0.49153 0.57485 0.06959 0.0
H1872 H 0.44202 0.56385 0.02141 0.0
H1873 H 0.5194 0.61115 0.01539 0.0
H1874 H 0.55826 0.62085 0.01235 0.0
H1875 H 0.54252 0.58547 0.96925 0.0
H1876 H 0.5035 0.57532 0.97214 0.0
H1877 H 0.41499 0.61883 0.9641 0.0
H1878 H 0.43043 0.60896 0.98616 0.0
H1879 H 0.45472 0.57896 0.95422 0.0
H1880 H 0.44097 0.59058 0.9322 0.0
H1881 H 0.48429 0.59941 0.97362 0.0
H1882 H 0.4059 0.55081 0.98009 0.0
H1883 H 0.3672 0.54159 0.98343 0.0
H1884 H 0.38444 0.5792 0.02554 0.0
H1885 H 0.42328 0.58883 0.02235 0.0
C1886 C 0.50903 0.54707 0.0325 0.0
C1887 C 0.50207 0.5511 0.05269 0.0
C1888 C 0.49649 0.55474 0.01743 0.0
C1889 C 0.48237 0.56926 0.02212 0.0
C1890 C 0.48143 0.57793 0.04172 0.0
C1891 C 0.49343 0.57109 0.05767 0.0
C1892 C 0.47291 0.57593 0.00946 0.0
C1893 C 0.45124 0.57175 0.01097 0.0
C1894 C 0.48499 0.58605 0.99587 0.0
C1895 C 0.50848 0.59228 0.99407 0.0
C1896 C 0.5242 0.60531 0.00532 0.0
C1897 C 0.54626 0.61091 0.00362 0.0
C1898 C 0.55284 0.60373 0.99064 0.0
C1899 C 0.53739 0.591 0.97931 0.0
C1900 C 0.51531 0.58534 0.98096 0.0
C1901 C 0.42366 0.61013 0.96192 0.0
C1902 C 0.42694 0.60543 0.94661 0.0
C1903 C 0.43228 0.60428 0.97449 0.0
C1904 C 0.44339 0.59278 0.97194 0.0
C1905 C 0.44629 0.58785 0.95654 0.0
C1906 C 0.43841 0.59441 0.94397 0.0
C1907 C 0.45289 0.5866 0.98514 0.0
C1908 C 0.4748 0.5912 0.98389 0.0
C1909 C 0.44092 0.5767 -0.0011 0.0
C1910 C 0.41751 0.57068 0.00091 0.0
C1911 C 0.40144 0.55719 0.99002 0.0
C1912 C 0.37949 0.55188 0.99189 0.0
C1913 C 0.37338 0.55984 0.00467 0.0
C1914 C 0.3892 0.57306 0.01564 0.0
C1915 C 0.41117 0.57842 0.01382 0.0
H1916 H 0.35638 0.55574 0.00609 0.0
H1917 H 0.56993 0.60807 0.98935 0.0
H1918 H 0.92486 0.44235 0.23466 0.0
H1919 H 0.90361 0.42603 0.20466 0.0
H1920 H 0.88542 0.48498 0.20022 0.0
H1921 H 0.90626 0.503 0.2299 0.0
H1922 H 0.85298 0.44505 0.19167 0.0
H1923 H 0.9287 0.48159 0.17381 0.0
H1924 H 0.96774 0.4911 0.17471 0.0
H1925 H 0.9486 0.42436 0.17046 0.0
H1926 H 0.90941 0.4145 0.16962 0.0
H1927 H 0.83674 0.44912 0.11062 0.0
H1928 H 0.85537 0.45727 0.13596 0.0
H1929 H 0.84149 0.39178 0.13971 0.0
H1930 H 0.8222 0.38324 0.11443 0.0
H1931 H 0.88941 0.43095 0.14725 0.0
H1932 H 0.81242 0.39625 0.16044 0.0
H1933 H 0.77446 0.38964 0.15822 0.0
H1934 H 0.79671 0.45526 0.17095 0.0
H1935 H 0.83491 0.46236 0.17298 0.0
C1936 C 0.91686 0.44975 0.22854 0.0
C1937 C 0.92128 0.47682 0.23404 0.0
C1938 C 0.90464 0.44041 0.20953 0.0
C1939 C 0.89371 0.45463 0.19873 0.0
C1940 C 0.89307 0.47757 0.20677 0.0
C1941 C 0.90491 0.48821 0.22558 0.0
C1942 C 0.88257 0.44597 0.1837 0.0
C1943 C 0.861 0.44207 0.18195 0.0
C1944 C 0.89284 0.44161 0.17118 0.0
C1945 C 0.91621 0.44731 0.17192 0.0
C1946 C 0.93285 0.46895 0.17319 0.0
C1947 C 0.95499 0.47441 0.17365 0.0
C1948 C 0.96065 0.45833 0.17272 0.0
C1949 C 0.94418 0.43678 0.17125 0.0
C1950 C 0.92201 0.43125 0.17078 0.0
C1951 C 0.83774 0.43646 0.11677 0.0
C1952 C 0.82794 0.41551 0.1106 0.0
C1953 C 0.84838 0.44115 0.13122 0.0
C1954 C 0.84973 0.4251 0.13961 0.0
C1955 C 0.84058 0.40433 0.13332 0.0
C1956 C 0.8295 0.39948 0.11897 0.0
C1957 C 0.85989 0.43011 0.15527 0.0
C1958 C 0.88128 0.43351 0.1571 0.0
C1959 C 0.84946 0.43405 0.1679 0.0
C1960 C 0.82655 0.4299 0.16667 0.0
C1961 C 0.80926 0.40934 0.16258 0.0
C1962 C 0.78769 0.40548 0.1614 0.0
C1963 C 0.78318 0.42204 0.16439 0.0
C1964 C 0.80024 0.44247 0.16861 0.0
C1965 C 0.82185 0.44641 0.16978 0.0
H1966 H 0.76647 0.41902 0.16349 0.0
H1967 H 0.97779 0.46258 0.17308 0.0
loop_
_geom_bond_atom_site_label_1
_geom_bond_atom_site_label_2
_geom_bond_distance
_geom_bond_site_symmetry_2
_ccdc_geom_bond_type
C0 C1 1.560 . S
C0 H61 0.959 . S
C0 H62 0.959 . S
C0 H63 0.960 . S
C1 C0 1.560 . S
C1 O56 1.426 . S
C1 H60 0.980 . S
C2 C3 1.407 . S
C2 C7 1.418 . S
C2 O56 1.334 . S
C3 C2 1.407 . S
C3 C4 1.360 . S
C3 H64 0.929 . S
C4 C3 1.360 . S
C4 C5 1.401 . S
C4 C8 1.527 . S
C5 C4 1.401 . S
C5 C6 1.405 . S
C5 C38 1.587 . S
C6 C5 1.405 . S
C6 C7 1.332 . S
C6 C9 1.496 . S
C7 C2 1.418 . S
C7 C6 1.332 . S
C7 H65 0.929 . S
C8 C4 1.527 . S
C8 H66 0.959 . S
C8 H67 0.961 . S
C8 H68 0.961 . S
C9 C6 1.496 . S
C9 H69 0.960 . S
C9 H70 0.960 . S
C9 H71 0.961 . S
C10 C11 1.517 . S
C10 H73 0.961 . S
C10 H74 0.960 . S
C10 H75 0.959 . S
C11 C10 1.517 . S
C11 O59 1.468 . S
C11 H72 0.980 . S
C12 C13 1.349 . S
C12 C17 1.367 . S
C12 O59 1.408 . S
C13 C12 1.349 . S
C13 C14 1.407 . S
C13 H76 0.930 . S
C14 C13 1.407 . S
C14 C15 1.449 . S
C14 C18 1.535 . S
C15 C14 1.449 . S
C15 C16 1.384 . S
C15 C40 1.553 1_655 S
C16 C15 1.384 . S
C16 C17 1.364 . S
C16 C19 1.450 . S
C17 C12 1.367 . S
C17 C16 1.364 . S
C17 H77 0.931 . S
C18 C14 1.535 . S
C18 H78 0.959 1_655 S
C18 H79 0.961 1_655 S
C18 H80 0.959 . S
C19 C16 1.450 . S
C19 H81 0.960 . S
C19 H82 0.960 1_655 S
C19 H83 0.960 . S
C20 C21 1.309 . S
C20 C25 1.304 . S
C20 O58 1.435 . S
C21 C20 1.309 . S
C21 C22 1.476 . S
C21 H85 0.930 . S
C22 C21 1.476 . S
C22 C23 1.400 . S
C22 C26 1.567 . S
C23 C22 1.400 . S
C23 C24 1.373 . S
C23 C45 1.432 . S
C24 C23 1.373 . S
C24 C25 1.339 . S
C24 C27 1.530 . S
C25 C20 1.304 . S
C25 C24 1.339 . S
C25 H86 0.930 . S
C26 C22 1.567 . S
C26 H87 0.961 . S
C26 H88 0.960 . S
C26 H89 0.958 . S
C27 C24 1.530 . S
C27 H90 0.961 . S
C27 H91 0.960 . S
C27 H92 0.960 . S
C28 C29 1.530 . S
C28 H94 0.961 . S
C28 H95 0.961 . S
C28 H96 0.959 . S
C29 C28 1.530 . S
C29 O57 1.412 . S
C29 H93 0.980 . S
C30 C31 1.288 . S
C30 C35 1.377 . S
C30 O57 1.393 . S
C31 C30 1.288 . S
C31 C32 1.369 . S
C31 H97 0.932 . S
C32 C31 1.369 . S
C32 C33 1.398 . S
C32 C36 1.527 . S
C33 C32 1.398 . S
C33 C34 1.380 . S
C33 C47 1.497 . S
C34 C33 1.380 . S
C34 C35 1.383 . S
C34 C37 1.603 . S
C35 C30 1.377 . S
C35 C34 1.383 . S
C35 H98 0.929 . S
C36 C32 1.527 . S
C36 H99 0.961 . S
C36 H100 0.959 1_455 S
C36 H101 0.959 . S
C37 C34 1.603 . S
C37 H102 0.960 . S
C37 H103 0.962 . S
C37 H104 0.961 . S
C38 C5 1.587 . S
C38 C39 1.360 . S
C38 C51 1.412 . S
C39 C38 1.360 . S
C39 C40 1.365 . S
C39 H105 0.929 . S
C40 C15 1.553 1_455 S
C40 C39 1.365 . S
C40 C41 1.404 . S
C41 C40 1.404 . S
C41 C42 1.395 1_455 S
C41 C52 1.451 . S
C42 C41 1.395 1_655 S
C42 C43 1.322 . S
C42 H106 0.930 . S
C43 C42 1.322 . S
C43 C44 1.459 . S
C43 H107 0.929 . S
C44 C43 1.459 . S
C44 C45 1.445 . S
C44 C53 1.395 1_655 S
C45 C23 1.432 . S
C45 C44 1.445 . S
C45 C46 1.370 . S
C46 C45 1.370 . S
C46 C47 1.438 1_655 S
C46 H108 0.930 . S
C47 C33 1.497 . S
C47 C46 1.438 1_455 S
C47 C48 1.360 . S
C48 C47 1.360 . S
C48 C49 1.401 . S
C48 C53 1.446 . S
C49 C48 1.401 . S
C49 C50 1.347 . S
C49 H109 0.929 . S
C50 C49 1.347 . S
C50 C51 1.455 . S
C50 H110 0.930 . S
C51 C38 1.412 . S
C51 C50 1.455 . S
C51 C52 1.331 . S
C52 C41 1.451 . S
C52 C51 1.331 . S
C52 C53 1.497 . S
C53 C44 1.395 1_455 S
C53 C48 1.446 . S
C53 C52 1.497 . S
C54 C55 1.582 . S
C54 H111 0.962 . S
C54 H112 0.959 . S
C54 H113 0.958 . S
C55 C54 1.582 . S
C55 O58 1.458 . S
C55 H84 0.980 . S
O56 C1 1.426 . S
O56 C2 1.334 . S
O57 C29 1.412 . S
O57 C30 1.393 . S
O58 C20 1.435 . S
O58 C55 1.458 . S
O59 C11 1.468 . S
O59 C12 1.408 . S
H60 C1 0.980 . S
H61 C0 0.959 . S
H62 C0 0.959 . S
H63 C0 0.960 . S
H64 C3 0.929 . S
H65 C7 0.929 . S
H66 C8 0.959 . S
H67 C8 0.961 . S
H68 C8 0.961 . S
H69 C9 0.960 . S
H70 C9 0.960 . S
H71 C9 0.961 . S
H72 C11 0.980 . S
H73 C10 0.961 . S
H74 C10 0.960 . S
H75 C10 0.959 . S
H76 C13 0.930 . S
H77 C17 0.931 . S
H78 C18 0.959 1_455 S
H79 C18 0.961 1_455 S
H80 C18 0.959 . S
H81 C19 0.960 . S
H82 C19 0.960 1_455 S
H83 C19 0.960 . S
H84 C55 0.980 . S
H85 C21 0.930 . S
H86 C25 0.930 . S
H87 C26 0.961 . S
H88 C26 0.960 . S
H89 C26 0.958 . S
H90 C27 0.961 . S
H91 C27 0.960 . S
H92 C27 0.960 . S
H93 C29 0.980 . S
H94 C28 0.961 . S
H95 C28 0.961 . S
H96 C28 0.959 . S
H97 C31 0.932 . S
H98 C35 0.929 . S
H99 C36 0.961 . S
H100 C36 0.959 1_655 S
H101 C36 0.959 . S
H102 C37 0.960 . S
H103 C37 0.962 . S
H104 C37 0.961 . S
H105 C39 0.929 . S
H106 C42 0.930 . S
H107 C43 0.929 . S
H108 C46 0.930 . S
H109 C49 0.929 . S
H110 C50 0.930 . S
H111 C54 0.962 . S
H112 C54 0.959 . S
H113 C54 0.958 . S
C114 C115 1.560 . S
C114 H175 0.959 . S
C114 H176 0.959 . S
C114 H177 0.960 . S
C115 C114 1.560 . S
C115 O170 1.426 . S
C115 H174 0.980 . S
C116 C117 1.407 . S
C116 C121 1.418 . S
C116 O170 1.334 . S
C117 C116 1.407 . S
C117 C118 1.360 . S
C117 H178 0.929 . S
C118 C117 1.360 . S
C118 C119 1.401 . S
C118 C122 1.527 . S
C119 C118 1.401 . S
C119 C120 1.405 . S
C119 C152 1.587 . S
C120 C119 1.405 . S
C120 C121 1.332 . S
C120 C123 1.496 . S
C121 C116 1.418 . S
C121 C120 1.332 . S
C121 H179 0.929 . S
C122 C118 1.527 . S
C122 H180 0.959 . S
C122 H181 0.961 . S
C122 H182 0.961 . S
C123 C120 1.496 . S
C123 H183 0.960 . S
C123 H184 0.960 . S
C123 H185 0.961 . S
C124 C125 1.517 . S
C124 H187 0.961 . S
C124 H188 0.960 . S
C124 H189 0.959 . S
C125 C124 1.517 . S
C125 O173 1.468 . S
C125 H186 0.980 . S
C126 C127 1.349 . S
C126 C131 1.367 . S
C126 O173 1.408 . S
C127 C126 1.349 . S
C127 C128 1.407 . S
C127 H190 0.930 . S
C128 C127 1.407 . S
C128 C129 1.449 . S
C128 C132 1.535 . S
C129 C128 1.449 . S
C129 C130 1.384 . S
C129 C154 1.553 . S
C130 C129 1.384 . S
C130 C131 1.364 . S
C130 C133 1.450 . S
C131 C126 1.367 . S
C131 C130 1.364 . S
C131 H191 0.931 . S
C132 C128 1.535 . S
C132 H192 0.959 . S
C132 H193 0.961 . S
C132 H194 0.959 . S
C133 C130 1.450 . S
C133 H195 0.960 . S
C133 H196 0.960 . S
C133 H197 0.960 . S
C134 C135 1.309 . S
C134 C139 1.304 . S
C134 O172 1.435 . S
C135 C134 1.309 . S
C135 C136 1.476 . S
C135 H199 0.930 . S
C136 C135 1.476 . S
C136 C137 1.400 . S
C136 C140 1.567 . S
C137 C136 1.400 . S
C137 C138 1.373 . S
C137 C159 1.432 . S
C138 C137 1.373 . S
C138 C139 1.339 . S
C138 C141 1.530 . S
C139 C134 1.304 . S
C139 C138 1.339 . S
C139 H200 0.930 . S
C140 C136 1.567 . S
C140 H201 0.961 . S
C140 H202 0.960 . S
C140 H203 0.958 . S
C141 C138 1.530 . S
C141 H204 0.961 . S
C141 H205 0.960 . S
C141 H206 0.960 . S
C142 C143 1.530 . S
C142 H208 0.961 . S
C142 H209 0.961 . S
C142 H210 0.959 . S
C143 C142 1.530 . S
C143 O171 1.412 . S
C143 H207 0.980 . S
C144 C145 1.288 . S
C144 C149 1.377 . S
C144 O171 1.393 . S
C145 C144 1.288 . S
C145 C146 1.369 . S
C145 H211 0.932 . S
C146 C145 1.369 . S
C146 C147 1.398 . S
C146 C150 1.527 1_565 S
C147 C146 1.398 . S
C147 C148 1.380 . S
C147 C161 1.497 1_565 S
C148 C147 1.380 . S
C148 C149 1.383 . S
C148 C151 1.603 . S
C149 C144 1.377 . S
C149 C148 1.383 . S
C149 H212 0.929 . S
C150 C146 1.527 1_545 S
C150 H213 0.961 . S
C150 H214 0.959 . S
C150 H215 0.959 1_545 S
C151 C148 1.603 . S
C151 H216 0.960 . S
C151 H217 0.962 . S
C151 H218 0.961 . S
C152 C119 1.587 . S
C152 C153 1.360 . S
C152 C165 1.412 . S
C153 C152 1.360 . S
C153 C154 1.365 1_565 S
C153 H219 0.929 . S
C154 C129 1.553 . S
C154 C153 1.365 1_545 S
C154 C155 1.404 . S
C155 C154 1.404 . S
C155 C156 1.395 . S
C155 C166 1.451 . S
C156 C155 1.395 . S
C156 C157 1.322 . S
C156 H220 0.930 . S
C157 C156 1.322 . S
C157 C158 1.459 . S
C157 H221 0.929 . S
C158 C157 1.459 . S
C158 C159 1.445 . S
C158 C167 1.395 . S
C159 C137 1.432 . S
C159 C158 1.445 . S
C159 C160 1.370 . S
C160 C159 1.370 . S
C160 C161 1.438 . S
C160 H222 0.930 . S
C161 C147 1.497 1_545 S
C161 C160 1.438 . S
C161 C162 1.351 1_545 S
C162 C161 1.351 1_565 S
C162 C163 1.420 . S
C162 C167 1.435 1_565 S
C163 C162 1.420 . S
C163 C164 1.347 . S
C163 H223 0.929 . S
C164 C163 1.347 . S
C164 C165 1.455 . S
C164 H224 0.930 . S
C165 C152 1.412 . S
C165 C164 1.455 . S
C165 C166 1.331 1_565 S
C166 C155 1.451 . S
C166 C165 1.331 1_545 S
C166 C167 1.497 . S
C167 C158 1.395 . S
C167 C162 1.435 1_545 S
C167 C166 1.497 . S
C168 C169 1.582 . S
C168 H225 0.962 . S
C168 H226 0.959 . S
C168 H227 0.958 . S
C169 C168 1.582 . S
C169 O172 1.458 . S
C169 H198 0.980 . S
O170 C115 1.426 . S
O170 C116 1.334 . S
O171 C143 1.412 . S
O171 C144 1.393 . S
O172 C134 1.435 . S
O172 C169 1.458 . S
O173 C125 1.468 . S
O173 C126 1.408 . S
H174 C115 0.980 . S
H175 C114 0.959 . S
H176 C114 0.959 . S
H177 C114 0.960 . S
H178 C117 0.929 . S
H179 C121 0.929 . S
H180 C122 0.959 . S
H181 C122 0.961 . S
H182 C122 0.961 . S
H183 C123 0.960 . S
H184 C123 0.960 . S
H185 C123 0.961 . S
H186 C125 0.980 . S
H187 C124 0.961 . S
H188 C124 0.960 . S
H189 C124 0.959 . S
H190 C127 0.930 . S
H191 C131 0.931 . S
H192 C132 0.959 . S
H193 C132 0.961 . S
H194 C132 0.959 . S
H195 C133 0.960 . S
H196 C133 0.960 . S
H197 C133 0.960 . S
H198 C169 0.980 . S
H199 C135 0.930 . S
H200 C139 0.930 . S
H201 C140 0.961 . S
H202 C140 0.960 . S
H203 C140 0.958 . S
H204 C141 0.961 . S
H205 C141 0.960 . S
H206 C141 0.960 . S
H207 C143 0.980 . S
H208 C142 0.961 . S
H209 C142 0.961 . S
H210 C142 0.959 . S
H211 C145 0.932 . S
H212 C149 0.929 . S
H213 C150 0.961 . S
H214 C150 0.959 . S
H215 C150 0.959 1_565 S
H216 C151 0.960 . S
H217 C151 0.962 . S
H218 C151 0.961 . S
H219 C153 0.929 . S
H220 C156 0.930 . S
H221 C157 0.929 . S
H222 C160 0.930 . S
H223 C163 0.929 . S
H224 C164 0.930 . S
H225 C168 0.962 . S
H226 C168 0.959 . S
H227 C168 0.958 . S
C228 C229 1.560 . S
C228 H289 0.959 . S
C228 H290 0.959 . S
C228 H291 0.960 . S
C229 C228 1.560 . S
C229 O284 1.426 . S
C229 H288 0.980 . S
C230 C231 1.407 . S
C230 C235 1.418 . S
C230 O284 1.334 . S
C231 C230 1.407 . S
C231 C232 1.360 . S
C231 H292 0.929 . S
C232 C231 1.360 . S
C232 C233 1.401 . S
C232 C236 1.527 . S
C233 C232 1.401 . S
C233 C234 1.405 . S
C233 C266 1.587 . S
C234 C233 1.405 . S
C234 C235 1.332 . S
C234 C237 1.496 . S
C235 C230 1.418 . S
C235 C234 1.332 . S
C235 H293 0.929 . S
C236 C232 1.527 . S
C236 H294 0.959 . S
C236 H295 0.961 . S
C236 H296 0.961 . S
C237 C234 1.496 . S
C237 H297 0.960 . S
C237 H298 0.960 . S
C237 H299 0.961 . S
C238 C239 1.517 . S
C238 H301 0.961 . S
C238 H302 0.960 . S
C238 H303 0.959 . S
C239 C238 1.517 . S
C239 O287 1.468 . S
C239 H300 0.980 . S
C240 C241 1.349 . S
C240 C245 1.367 . S
C240 O287 1.408 . S
C241 C240 1.349 . S
C241 C242 1.407 . S
C241 H304 0.930 . S
C242 C241 1.407 . S
C242 C243 1.449 . S
C242 C246 1.535 . S
C243 C242 1.449 . S
C243 C244 1.384 . S
C243 C268 1.553 . S
C244 C243 1.384 . S
C244 C245 1.364 . S
C244 C247 1.450 . S
C245 C240 1.367 . S
C245 C244 1.364 . S
C245 H305 0.931 . S
C246 C242 1.535 . S
C246 H306 0.959 . S
C246 H307 0.961 . S
C246 H308 0.959 . S
C247 C244 1.450 . S
C247 H309 0.960 . S
C247 H310 0.960 . S
C247 H311 0.960 . S
C248 C249 1.309 . S
C248 C253 1.304 . S
C248 O286 1.435 . S
C249 C248 1.309 . S
C249 C250 1.476 . S
C249 H313 0.930 . S
C250 C249 1.476 . S
C250 C251 1.400 . S
C250 C254 1.567 . S
C251 C250 1.400 . S
C251 C252 1.373 . S
C251 C273 1.432 . S
C252 C251 1.373 . S
C252 C253 1.339 . S
C252 C255 1.530 . S
C253 C248 1.304 . S
C253 C252 1.339 . S
C253 H314 0.930 . S
C254 C250 1.567 . S
C254 H315 0.961 . S
C254 H316 0.960 . S
C254 H317 0.958 . S
C255 C252 1.530 . S
C255 H318 0.961 . S
C255 H319 0.960 . S
C255 H320 0.960 . S
C256 C257 1.530 . S
C256 H322 0.961 . S
C256 H323 0.961 . S
C256 H324 0.959 . S
C257 C256 1.530 . S
C257 O285 1.412 . S
C257 H321 0.980 . S
C258 C259 1.288 . S
C258 C263 1.377 . S
C258 O285 1.393 . S
C259 C258 1.288 . S
C259 C260 1.369 . S
C259 H325 0.932 . S
C260 C259 1.369 . S
C260 C261 1.398 . S
C260 C264 1.527 . S
C261 C260 1.398 . S
C261 C262 1.380 . S
C261 C275 1.497 . S
C262 C261 1.380 . S
C262 C263 1.383 . S
C262 C265 1.603 . S
C263 C258 1.377 . S
C263 C262 1.383 . S
C263 H326 0.929 . S
C264 C260 1.527 . S
C264 H327 0.961 . S
C264 H328 0.959 . S
C264 H329 0.959 . S
C265 C262 1.603 . S
C265 H330 0.960 . S
C265 H331 0.962 . S
C265 H332 0.961 . S
C266 C233 1.587 . S
C266 C267 1.360 . S
C266 C279 1.412 . S
C267 C266 1.360 . S
C267 C268 1.365 . S
C267 H333 0.929 . S
C268 C243 1.553 . S
C268 C267 1.365 . S
C268 C269 1.404 . S
C269 C268 1.404 . S
C269 C270 1.395 . S
C269 C280 1.451 . S
C270 C269 1.395 . S
C270 C271 1.322 . S
C270 H334 0.930 . S
C271 C270 1.322 . S
C271 C272 1.459 . S
C271 H335 0.929 . S
C272 C271 1.459 . S
C272 C273 1.445 . S
C272 C281 1.395 . S
C273 C251 1.432 . S
C273 C272 1.445 . S
C273 C274 1.370 . S
C274 C273 1.370 . S
C274 C275 1.438 . S
C274 H336 0.930 . S
C275 C261 1.497 . S
C275 C274 1.438 . S
C275 C276 1.360 . S
C276 C275 1.360 . S
C276 C277 1.401 . S
C276 C281 1.446 . S
C277 C276 1.401 . S
C277 C278 1.347 . S
C277 H337 0.929 . S
C278 C277 1.347 . S
C278 C279 1.455 . S
C278 H338 0.930 . S
C279 C266 1.412 . S
C279 C278 1.455 . S
C279 C280 1.331 . S
C280 C269 1.451 . S
C280 C279 1.331 . S
C280 C281 1.497 . S
C281 C272 1.395 . S
C281 C276 1.446 . S
C281 C280 1.497 . S
C282 C283 1.582 . S
C282 H339 0.962 . S
C282 H340 0.959 . S
C282 H341 0.958 . S
C283 C282 1.582 . S
C283 O286 1.458 . S
C283 H312 0.980 . S
O284 C229 1.426 . S
O284 C230 1.334 . S
O285 C257 1.412 . S
O285 C258 1.393 . S
O286 C248 1.435 . S
O286 C283 1.458 . S
O287 C239 1.468 . S
O287 C240 1.408 . S
H288 C229 0.980 . S
H289 C228 0.959 . S
H290 C228 0.959 . S
H291 C228 0.960 . S
H292 C231 0.929 . S
H293 C235 0.929 . S
H294 C236 0.959 . S
H295 C236 0.961 . S
H296 C236 0.961 . S
H297 C237 0.960 . S
H298 C237 0.960 . S
H299 C237 0.961 . S
H300 C239 0.980 . S
H301 C238 0.961 . S
H302 C238 0.960 . S
H303 C238 0.959 . S
H304 C241 0.930 . S
H305 C245 0.931 . S
H306 C246 0.959 . S
H307 C246 0.961 . S
H308 C246 0.959 . S
H309 C247 0.960 . S
H310 C247 0.960 . S
H311 C247 0.960 . S
H312 C283 0.980 . S
H313 C249 0.930 . S
H314 C253 0.930 . S
H315 C254 0.961 . S
H316 C254 0.960 . S
H317 C254 0.958 . S
H318 C255 0.961 . S
H319 C255 0.960 . S
H320 C255 0.960 . S
H321 C257 0.980 . S
H322 C256 0.961 . S
H323 C256 0.961 . S
H324 C256 0.959 . S
H325 C259 0.932 . S
H326 C263 0.929 . S
H327 C264 0.961 . S
H328 C264 0.959 . S
H329 C264 0.959 . S
H330 C265 0.960 . S
H331 C265 0.962 . S
H332 C265 0.961 . S
H333 C267 0.929 . S
H334 C270 0.930 . S
H335 C271 0.929 . S
H336 C274 0.930 . S
H337 C277 0.929 . S
H338 C278 0.930 . S
H339 C282 0.962 . S
H340 C282 0.959 . S
H341 C282 0.958 . S
C342 C343 1.560 . S
C342 H403 0.959 . S
C342 H404 0.959 . S
C342 H405 0.960 . S
C343 C342 1.560 . S
C343 O398 1.426 . S
C343 H402 0.980 . S
C344 C345 1.407 . S
C344 C349 1.418 . S
C344 O398 1.334 . S
C345 C344 1.407 . S
C345 C346 1.360 . S
C345 H406 0.929 . S
C346 C345 1.360 . S
C346 C347 1.401 . S
C346 C350 1.527 . S
C347 C346 1.401 . S
C347 C348 1.405 . S
C347 C380 1.587 . S
C348 C347 1.405 . S
C348 C349 1.332 . S
C348 C351 1.496 . S
C349 C344 1.418 . S
C349 C348 1.332 . S
C349 H407 0.929 . S
C350 C346 1.527 . S
C350 H408 0.959 . S
C350 H409 0.961 . S
C350 H410 0.961 . S
C351 C348 1.496 . S
C351 H411 0.960 . S
C351 H412 0.960 . S
C351 H413 0.961 . S
C352 C353 1.517 . S
C352 H415 0.961 . S
C352 H416 0.960 . S
C352 H417 0.959 . S
C353 C352 1.517 . S
C353 O401 1.468 . S
C353 H414 0.980 . S
C354 C355 1.349 . S
C354 C359 1.367 . S
C354 O401 1.408 . S
C355 C354 1.349 . S
C355 C356 1.407 . S
C355 H418 0.930 . S
C356 C355 1.407 . S
C356 C357 1.449 . S
C356 C360 1.535 . S
C357 C356 1.449 . S
C357 C358 1.384 . S
C357 C382 1.553 1_655 S
C358 C357 1.384 . S
C358 C359 1.364 . S
C358 C361 1.450 . S
C359 C354 1.367 . S
C359 C358 1.364 . S
C359 H419 0.931 . S
C360 C356 1.535 . S
C360 H420 0.959 1_655 S
C360 H421 0.970 . S
C360 H422 0.959 . S
C361 C358 1.450 . S
C361 H423 0.960 . S
C361 H424 0.960 1_655 S
C361 H425 0.960 . S
C362 C363 1.309 . S
C362 C367 1.304 . S
C362 O400 1.435 . S
C363 C362 1.309 . S
C363 C364 1.476 . S
C363 H427 0.930 . S
C364 C363 1.476 . S
C364 C365 1.400 . S
C364 C368 1.567 . S
C365 C364 1.400 . S
C365 C366 1.373 . S
C365 C387 1.432 . S
C366 C365 1.373 . S
C366 C367 1.339 . S
C366 C369 1.530 . S
C367 C362 1.304 . S
C367 C366 1.339 . S
C367 H428 0.930 . S
C368 C364 1.567 . S
C368 H429 0.961 . S
C368 H430 0.960 . S
C368 H431 0.958 . S
C369 C366 1.530 . S
C369 H432 0.961 . S
C369 H433 0.960 . S
C369 H434 0.960 . S
C370 C371 1.530 . S
C370 H436 0.961 . S
C370 H437 0.961 . S
C370 H438 0.959 . S
C371 C370 1.530 . S
C371 O399 1.412 . S
C371 H435 0.980 . S
C372 C373 1.288 . S
C372 C377 1.377 . S
C372 O399 1.393 . S
C373 C372 1.288 . S
C373 C374 1.369 . S
C373 H439 0.932 . S
C374 C373 1.369 . S
C374 C375 1.398 . S
C374 C378 1.527 . S
C375 C374 1.398 . S
C375 C376 1.380 . S
C375 C389 1.497 . S
C376 C375 1.380 . S
C376 C377 1.383 . S
C376 C379 1.603 . S
C377 C372 1.377 . S
C377 C376 1.383 . S
C377 H440 0.929 . S
C378 C374 1.527 . S
C378 H441 0.961 . S
C378 H442 0.959 1_455 S
C378 H443 0.959 . S
C379 C376 1.603 . S
C379 H444 0.960 . S
C379 H445 0.962 . S
C379 H446 0.961 . S
C380 C347 1.587 . S
C380 C381 1.360 . S
C380 C393 1.412 . S
C381 C380 1.360 . S
C381 C382 1.365 . S
C381 H447 0.929 . S
C382 C357 1.553 1_455 S
C382 C381 1.365 . S
C382 C383 1.404 1_455 S
C383 C382 1.404 1_655 S
C383 C384 1.395 . S
C383 C394 1.451 1_655 S
C384 C383 1.395 . S
C384 C385 1.322 . S
C384 H448 0.930 . S
C385 C384 1.322 . S
C385 C386 1.459 . S
C385 H449 0.929 . S
C386 C385 1.459 . S
C386 C387 1.445 . S
C386 C395 1.395 1_655 S
C387 C365 1.432 . S
C387 C386 1.445 . S
C387 C388 1.370 . S
C388 C387 1.370 . S
C388 C389 1.438 1_655 S
C388 H450 0.930 . S
C389 C375 1.497 . S
C389 C388 1.438 1_455 S
C389 C390 1.360 . S
C390 C389 1.360 . S
C390 C391 1.401 . S
C390 C395 1.446 . S
C391 C390 1.401 . S
C391 C392 1.347 . S
C391 H451 0.929 . S
C392 C391 1.347 . S
C392 C393 1.455 . S
C392 H452 0.930 . S
C393 C380 1.412 . S
C393 C392 1.455 . S
C393 C394 1.331 . S
C394 C383 1.451 1_455 S
C394 C393 1.331 . S
C394 C395 1.497 . S
C395 C386 1.395 1_455 S
C395 C390 1.446 . S
C395 C394 1.497 . S
C396 C397 1.582 . S
C396 H453 0.962 . S
C396 H454 0.959 . S
C396 H455 0.958 . S
C397 C396 1.582 . S
C397 O400 1.458 . S
C397 H426 0.980 . S
O398 C343 1.426 . S
O398 C344 1.334 . S
O399 C371 1.412 . S
O399 C372 1.393 . S
O400 C362 1.435 . S
O400 C397 1.458 . S
O401 C353 1.468 . S
O401 C354 1.408 . S
H402 C343 0.980 . S
H403 C342 0.959 . S
H404 C342 0.959 . S
H405 C342 0.960 . S
H406 C345 0.929 . S
H407 C349 0.929 . S
H408 C350 0.959 . S
H409 C350 0.961 . S
H410 C350 0.961 . S
H411 C351 0.960 . S
H412 C351 0.960 . S
H413 C351 0.961 . S
H414 C353 0.980 . S
H415 C352 0.961 . S
H416 C352 0.960 . S
H417 C352 0.959 . S
H418 C355 0.930 . S
H419 C359 0.931 . S
H420 C360 0.959 1_455 S
H421 C360 0.970 . S
H422 C360 0.959 . S
H423 C361 0.960 . S
H424 C361 0.960 1_455 S
H425 C361 0.960 . S
H426 C397 0.980 . S
H427 C363 0.930 . S
H428 C367 0.930 . S
H429 C368 0.961 . S
H430 C368 0.960 . S
H431 C368 0.958 . S
H432 C369 0.961 . S
H433 C369 0.960 . S
H434 C369 0.960 . S
H435 C371 0.980 . S
H436 C370 0.961 . S
H437 C370 0.961 . S
H438 C370 0.959 . S
H439 C373 0.932 . S
H440 C377 0.929 . S
H441 C378 0.961 . S
H442 C378 0.959 1_655 S
H443 C378 0.959 . S
H444 C379 0.960 . S
H445 C379 0.962 . S
H446 C379 0.961 . S
H447 C381 0.929 . S
H448 C384 0.930 . S
H449 C385 0.929 . S
H450 C388 0.930 . S
H451 C391 0.929 . S
H452 C392 0.930 . S
H453 C396 0.962 . S
H454 C396 0.959 . S
H455 C396 0.958 . S
C456 C457 1.560 . S
C456 H517 0.959 . S
C456 H518 0.959 . S
C456 H519 0.960 . S
C457 C456 1.560 . S
C457 O512 1.426 . S
C457 H516 0.980 . S
C458 C459 1.407 . S
C458 C463 1.418 . S
C458 O512 1.334 . S
C459 C458 1.407 . S
C459 C460 1.360 . S
C459 H520 0.929 . S
C460 C459 1.360 . S
C460 C461 1.401 . S
C460 C464 1.527 . S
C461 C460 1.401 . S
C461 C462 1.405 . S
C461 C494 1.587 . S
C462 C461 1.405 . S
C462 C463 1.332 . S
C462 C465 1.496 . S
C463 C458 1.418 . S
C463 C462 1.332 . S
C463 H521 0.929 . S
C464 C460 1.527 . S
C464 H522 0.959 . S
C464 H523 0.961 . S
C464 H524 0.961 . S
C465 C462 1.496 . S
C465 H525 0.960 . S
C465 H526 0.960 . S
C465 H527 0.961 . S
C466 C467 1.517 . S
C466 H529 0.961 . S
C466 H530 0.960 . S
C466 H531 0.959 . S
C467 C466 1.517 . S
C467 O515 1.468 . S
C467 H528 0.980 . S
C468 C469 1.349 . S
C468 C473 1.367 . S
C468 O515 1.408 . S
C469 C468 1.349 . S
C469 C470 1.407 . S
C469 H532 0.930 . S
C470 C469 1.407 . S
C470 C471 1.449 . S
C470 C474 1.535 . S
C471 C470 1.449 . S
C471 C472 1.384 . S
C471 C496 1.553 . S
C472 C471 1.384 . S
C472 C473 1.364 . S
C472 C475 1.450 . S
C473 C468 1.367 . S
C473 C472 1.364 . S
C473 H533 0.931 . S
C474 C470 1.535 . S
C474 H534 0.959 . S
C474 H535 0.961 . S
C474 H536 0.959 . S
C475 C472 1.450 . S
C475 H537 0.960 . S
C475 H538 0.960 . S
C475 H539 0.960 . S
C476 C477 1.309 . S
C476 C481 1.304 . S
C476 O514 1.435 . S
C477 C476 1.309 . S
C477 C478 1.476 . S
C477 H541 0.930 . S
C478 C477 1.476 . S
C478 C479 1.400 . S
C478 C482 1.567 . S
C479 C478 1.400 . S
C479 C480 1.373 . S
C479 C501 1.432 . S
C480 C479 1.373 . S
C480 C481 1.339 . S
C480 C483 1.530 . S
C481 C476 1.304 . S
C481 C480 1.339 . S
C481 H542 0.930 . S
C482 C478 1.567 . S
C482 H543 0.961 . S
C482 H544 0.960 . S
C482 H545 0.958 . S
C483 C480 1.530 . S
C483 H546 0.961 . S
C483 H547 0.960 . S
C483 H548 0.960 . S
C484 C485 1.530 . S
C484 H550 0.961 . S
C484 H551 0.961 . S
C484 H552 0.959 . S
C485 C484 1.530 . S
C485 O513 1.412 . S
C485 H549 0.980 . S
C486 C487 1.288 . S
C486 C491 1.377 . S
C486 O513 1.393 . S
C487 C486 1.288 . S
C487 C488 1.369 . S
C487 H553 0.932 . S
C488 C487 1.369 . S
C488 C489 1.398 . S
C488 C492 1.527 1_565 S
C489 C488 1.398 . S
C489 C490 1.380 . S
C489 C503 1.497 1_565 S
C490 C489 1.380 . S
C490 C491 1.383 . S
C490 C493 1.603 . S
C491 C486 1.377 . S
C491 C490 1.383 . S
C491 H554 0.929 . S
C492 C488 1.527 1_545 S
C492 H555 0.961 . S
C492 H556 0.959 . S
C492 H557 0.959 1_545 S
C493 C490 1.603 . S
C493 H558 0.960 . S
C493 H559 0.962 . S
C493 H560 0.961 . S
C494 C461 1.587 . S
C494 C495 1.360 . S
C494 C507 1.412 . S
C495 C494 1.360 . S
C495 C496 1.365 1_565 S
C495 H561 0.929 . S
C496 C471 1.553 . S
C496 C495 1.365 1_545 S
C496 C497 1.404 . S
C497 C496 1.404 . S
C497 C498 1.395 . S
C497 C508 1.477 . S
C498 C497 1.395 . S
C498 C499 1.322 . S
C498 H562 0.930 . S
C499 C498 1.322 . S
C499 C500 1.498 . S
C499 H563 0.929 . S
C500 C499 1.498 . S
C500 C501 1.400 1_556 S
C500 C509 1.402 . S
C501 C479 1.432 . S
C501 C500 1.400 1_554 S
C501 C502 1.370 . S
C502 C501 1.370 . S
C502 C503 1.438 . S
C502 H564 0.930 . S
C503 C489 1.497 1_545 S
C503 C502 1.438 . S
C503 C504 1.360 1_545 S
C504 C503 1.360 1_565 S
C504 C505 1.401 . S
C504 C509 1.446 1_564 S
C505 C504 1.401 . S
C505 C506 1.347 1_554 S
C505 H565 0.929 . S
C506 C505 1.347 1_556 S
C506 C507 1.455 . S
C506 H566 0.930 . S
C507 C494 1.412 . S
C507 C506 1.455 . S
C507 C508 1.295 1_565 S
C508 C497 1.477 . S
C508 C507 1.295 1_545 S
C508 C509 1.510 . S
C509 C500 1.402 . S
C509 C504 1.446 1_546 S
C509 C508 1.510 . S
C510 C511 1.582 . S
C510 H567 0.962 . S
C510 H568 0.959 . S
C510 H569 0.958 . S
C511 C510 1.582 . S
C511 O514 1.458 . S
C511 H540 0.980 . S
O512 C457 1.426 . S
O512 C458 1.334 . S
O513 C485 1.412 . S
O513 C486 1.393 . S
O514 C476 1.435 . S
O514 C511 1.458 . S
O515 C467 1.468 . S
O515 C468 1.408 . S
H516 C457 0.980 . S
H517 C456 0.959 . S
H518 C456 0.959 . S
H519 C456 0.960 . S
H520 C459 0.929 . S
H521 C463 0.929 . S
H522 C464 0.959 . S
H523 C464 0.961 . S
H524 C464 0.961 . S
H525 C465 0.960 . S
H526 C465 0.960 . S
H527 C465 0.961 . S
H528 C467 0.980 . S
H529 C466 0.961 . S
H530 C466 0.960 . S
H531 C466 0.959 . S
H532 C469 0.930 . S
H533 C473 0.931 . S
H534 C474 0.959 . S
H535 C474 0.961 . S
H536 C474 0.959 . S
H537 C475 0.960 . S
H538 C475 0.960 . S
H539 C475 0.960 . S
H540 C511 0.980 . S
H541 C477 0.930 . S
H542 C481 0.930 . S
H543 C482 0.961 . S
H544 C482 0.960 . S
H545 C482 0.958 . S
H546 C483 0.961 . S
H547 C483 0.960 . S
H548 C483 0.960 . S
H549 C485 0.980 . S
H550 C484 0.961 . S
H551 C484 0.961 . S
H552 C484 0.959 . S
H553 C487 0.932 . S
H554 C491 0.929 . S
H555 C492 0.961 . S
H556 C492 0.959 . S
H557 C492 0.959 1_565 S
H558 C493 0.960 . S
H559 C493 0.962 . S
H560 C493 0.961 . S
H561 C495 0.929 . S
H562 C498 0.930 . S
H563 C499 0.929 . S
H564 C502 0.930 . S
H565 C505 0.929 . S
H566 C506 0.930 . S
H567 C510 0.962 . S
H568 C510 0.959 . S
H569 C510 0.958 . S
C570 C571 1.560 . S
C570 H631 0.959 . S
C570 H632 0.959 . S
C570 H633 0.960 . S
C571 C570 1.560 . S
C571 O626 1.426 . S
C571 H630 0.980 . S
C572 C573 1.407 . S
C572 C577 1.418 . S
C572 O626 1.334 . S
C573 C572 1.407 . S
C573 C574 1.360 . S
C573 H634 0.929 . S
C574 C573 1.360 . S
C574 C575 1.401 . S
C574 C578 1.527 . S
C575 C574 1.401 . S
C575 C576 1.405 . S
C575 C608 1.587 . S
C576 C575 1.405 . S
C576 C577 1.332 . S
C576 C579 1.496 . S
C577 C572 1.418 . S
C577 C576 1.332 . S
C577 H635 0.929 . S
C578 C574 1.527 . S
C578 H636 0.959 . S
C578 H637 0.961 . S
C578 H638 0.961 . S
C579 C576 1.496 . S
C579 H639 0.960 . S
C579 H640 0.960 . S
C579 H641 0.961 . S
C580 C581 1.517 . S
C580 H643 0.961 . S
C580 H644 0.960 . S
C580 H645 0.959 . S
C581 C580 1.517 . S
C581 O629 1.468 . S
C581 H642 0.980 . S
C582 C583 1.349 . S
C582 C587 1.367 . S
C582 O629 1.408 . S
C583 C582 1.349 . S
C583 C584 1.407 . S
C583 H646 0.930 . S
C584 C583 1.407 . S
C584 C585 1.449 . S
C584 C588 1.535 . S
C585 C584 1.449 . S
C585 C586 1.384 . S
C585 C610 1.553 . S
C586 C585 1.384 . S
C586 C587 1.364 . S
C586 C589 1.450 . S
C587 C582 1.367 . S
C587 C586 1.364 . S
C587 H647 0.931 . S
C588 C584 1.535 . S
C588 H648 0.959 . S
C588 H649 0.961 . S
C588 H650 0.959 . S
C589 C586 1.450 . S
C589 H651 0.960 . S
C589 H652 0.960 . S
C589 H653 0.960 . S
C590 C591 1.309 . S
C590 C595 1.304 . S
C590 O628 1.435 . S
C591 C590 1.309 . S
C591 C592 1.476 . S
C591 H655 0.930 . S
C592 C591 1.476 . S
C592 C593 1.400 . S
C592 C596 1.567 . S
C593 C592 1.400 . S
C593 C594 1.373 . S
C593 C615 1.432 . S
C594 C593 1.373 . S
C594 C595 1.339 . S
C594 C597 1.530 . S
C595 C590 1.304 . S
C595 C594 1.339 . S
C595 H656 0.930 . S
C596 C592 1.567 . S
C596 H657 0.961 . S
C596 H658 0.960 . S
C596 H659 0.958 . S
C597 C594 1.530 . S
C597 H660 0.961 . S
C597 H661 0.960 . S
C597 H662 0.960 . S
C598 C599 1.530 . S
C598 H664 0.961 . S
C598 H665 0.961 . S
C598 H666 0.959 . S
C599 C598 1.530 . S
C599 O627 1.412 . S
C599 H663 0.980 . S
C600 C601 1.288 . S
C600 C605 1.377 . S
C600 O627 1.393 . S
C601 C600 1.288 . S
C601 C602 1.369 . S
C601 H667 0.932 . S
C602 C601 1.369 . S
C602 C603 1.398 . S
C602 C606 1.527 . S
C603 C602 1.398 . S
C603 C604 1.380 . S
C603 C617 1.497 . S
C604 C603 1.380 . S
C604 C605 1.383 . S
C604 C607 1.603 . S
C605 C600 1.377 . S
C605 C604 1.383 . S
C605 H668 0.929 . S
C606 C602 1.527 . S
C606 H669 0.961 . S
C606 H670 0.959 . S
C606 H671 0.959 . S
C607 C604 1.603 . S
C607 H672 0.960 . S
C607 H673 0.962 . S
C607 H674 0.961 . S
C608 C575 1.587 . S
C608 C609 1.360 . S
C608 C621 1.412 . S
C609 C608 1.360 . S
C609 C610 1.365 . S
C609 H675 0.929 . S
C610 C585 1.553 . S
C610 C609 1.365 . S
C610 C611 1.404 . S
C611 C610 1.404 . S
C611 C612 1.395 . S
C611 C622 1.451 . S
C612 C611 1.395 . S
C612 C613 1.322 . S
C612 H676 0.930 . S
C613 C612 1.322 . S
C613 C614 1.459 . S
C613 H677 0.929 . S
C614 C613 1.459 . S
C614 C615 1.445 . S
C614 C623 1.395 . S
C615 C593 1.432 . S
C615 C614 1.445 . S
C615 C616 1.370 . S
C616 C615 1.370 . S
C616 C617 1.438 . S
C616 H678 0.930 . S
C617 C603 1.497 . S
C617 C616 1.438 . S
C617 C618 1.360 . S
C618 C617 1.360 . S
C618 C619 1.401 . S
C618 C623 1.446 . S
C619 C618 1.401 . S
C619 C620 1.347 . S
C619 H679 0.929 . S
C620 C619 1.347 . S
C620 C621 1.455 . S
C620 H680 0.930 . S
C621 C608 1.412 . S
C621 C620 1.455 . S
C621 C622 1.331 . S
C622 C611 1.451 . S
C622 C621 1.331 . S
C622 C623 1.497 . S
C623 C614 1.395 . S
C623 C618 1.446 . S
C623 C622 1.497 . S
C624 C625 1.582 . S
C624 H681 0.962 . S
C624 H682 0.959 . S
C624 H683 0.958 . S
C625 C624 1.582 . S
C625 O628 1.458 . S
C625 H654 0.980 . S
O626 C571 1.426 . S
O626 C572 1.334 . S
O627 C599 1.412 . S
O627 C600 1.393 . S
O628 C590 1.435 . S
O628 C625 1.458 . S
O629 C581 1.468 . S
O629 C582 1.408 . S
H630 C571 0.980 . S
H631 C570 0.959 . S
H632 C570 0.959 . S
H633 C570 0.960 . S
H634 C573 0.929 . S
H635 C577 0.929 . S
H636 C578 0.959 . S
H637 C578 0.961 . S
H638 C578 0.961 . S
H639 C579 0.960 . S
H640 C579 0.960 . S
H641 C579 0.961 . S
H642 C581 0.980 . S
H643 C580 0.961 . S
H644 C580 0.960 . S
H645 C580 0.959 . S
H646 C583 0.930 . S
H647 C587 0.931 . S
H648 C588 0.959 . S
H649 C588 0.961 . S
H650 C588 0.959 . S
H651 C589 0.960 . S
H652 C589 0.960 . S
H653 C589 0.960 . S
H654 C625 0.980 . S
H655 C591 0.930 . S
H656 C595 0.930 . S
H657 C596 0.961 . S
H658 C596 0.960 . S
H659 C596 0.958 . S
H660 C597 0.961 . S
H661 C597 0.960 . S
H662 C597 0.960 . S
H663 C599 0.980 . S
H664 C598 0.961 . S
H665 C598 0.961 . S
H666 C598 0.959 . S
H667 C601 0.932 . S
H668 C605 0.929 . S
H669 C606 0.961 . S
H670 C606 0.959 . S
H671 C606 0.959 . S
H672 C607 0.960 . S
H673 C607 0.962 . S
H674 C607 0.961 . S
H675 C609 0.929 . S
H676 C612 0.930 . S
H677 C613 0.929 . S
H678 C616 0.930 . S
H679 C619 0.929 . S
H680 C620 0.930 . S
H681 C624 0.962 . S
H682 C624 0.959 . S
H683 C624 0.958 . S
C684 O685 1.306 . S
C684 O687 1.160 . S
O685 C684 1.306 . S
O685 Cd686 2.228 . S
Cd686 O685 2.228 . S
Cd686 O690 2.273 . S
Cd686 O694 2.277 . S
O687 C684 1.160 . S
O687 Cd688 2.203 . S
Cd688 O687 2.203 . S
Cd688 O690 2.411 . S
Cd688 O691 2.333 . S
Cd688 O692 2.352 . S
Cd688 O696 2.277 . S
Cd688 O697 2.356 . S
C689 O694 1.209 . S
C689 O696 1.226 . S
O690 Cd686 2.273 . S
O690 Cd688 2.411 . S
O690 C693 1.320 . S
O691 Cd688 2.333 . S
O691 C693 1.214 . S
O692 Cd688 2.352 . S
O692 C695 1.258 . S
C693 O690 1.320 . S
C693 O691 1.214 . S
O694 Cd686 2.277 . S
O694 C689 1.209 . S
C695 O692 1.258 . S
C695 O697 1.282 . S
O696 Cd688 2.277 . S
O696 C689 1.226 . S
O697 Cd688 2.356 . S
O697 C695 1.282 . S
C698 O699 1.306 . S
C698 O701 1.160 . S
O699 C698 1.306 . S
O699 Cd700 2.228 . S
Cd700 O699 2.228 . S
Cd700 O704 2.273 . S
Cd700 O708 2.277 . S
O701 C698 1.160 . S
O701 Cd702 2.203 . S
Cd702 O701 2.203 . S
Cd702 O704 2.411 . S
Cd702 O705 2.333 . S
Cd702 O706 2.352 . S
Cd702 O710 2.277 . S
Cd702 O711 2.356 . S
C703 O708 1.209 . S
C703 O710 1.226 . S
O704 Cd700 2.273 . S
O704 Cd702 2.411 . S
O704 C707 1.320 . S
O705 Cd702 2.333 . S
O705 C707 1.214 . S
O706 Cd702 2.352 . S
O706 C709 1.258 . S
C707 O704 1.320 . S
C707 O705 1.214 . S
O708 Cd700 2.277 . S
O708 C703 1.209 . S
C709 O706 1.258 . S
C709 O711 1.282 . S
O710 Cd702 2.277 . S
O710 C703 1.226 . S
O711 Cd702 2.356 . S
O711 C709 1.282 . S
C712 O713 1.306 . S
C712 O715 1.160 . S
O713 C712 1.306 . S
O713 Cd714 2.228 . S
Cd714 O713 2.228 . S
Cd714 O718 2.273 . S
Cd714 O722 2.277 . S
O715 C712 1.160 . S
O715 Cd716 2.203 . S
Cd716 O715 2.203 . S
Cd716 O718 2.411 . S
Cd716 O719 2.333 . S
Cd716 O720 2.352 . S
Cd716 O724 2.277 . S
Cd716 O725 2.356 . S
C717 O722 1.209 . S
C717 O724 1.226 . S
O718 Cd714 2.273 . S
O718 Cd716 2.411 . S
O718 C721 1.320 . S
O719 Cd716 2.333 . S
O719 C721 1.214 . S
O720 Cd716 2.352 . S
O720 C723 1.258 . S
C721 O718 1.320 . S
C721 O719 1.214 . S
O722 Cd714 2.277 . S
O722 C717 1.209 . S
C723 O720 1.258 . S
C723 O725 1.282 . S
O724 Cd716 2.277 . S
O724 C717 1.226 . S
O725 Cd716 2.356 . S
O725 C723 1.282 . S
C726 O727 1.306 . S
C726 O729 1.160 . S
O727 C726 1.306 . S
O727 Cd728 2.228 . S
Cd728 O727 2.228 . S
Cd728 O732 2.273 . S
Cd728 O736 2.277 . S
O729 C726 1.160 . S
O729 Cd730 2.203 . S
Cd730 O729 2.203 . S
Cd730 O732 2.411 . S
Cd730 O733 2.333 . S
Cd730 O734 2.352 . S
Cd730 O738 2.277 . S
Cd730 O739 2.356 . S
C731 O736 1.209 . S
C731 O738 1.226 . S
O732 Cd728 2.273 . S
O732 Cd730 2.411 . S
O732 C735 1.320 . S
O733 Cd730 2.333 . S
O733 C735 1.214 . S
O734 Cd730 2.352 . S
O734 C737 1.258 . S
C735 O732 1.320 . S
C735 O733 1.214 . S
O736 Cd728 2.277 . S
O736 C731 1.209 . S
C737 O734 1.258 . S
C737 O739 1.282 . S
O738 Cd730 2.277 . S
O738 C731 1.226 . S
O739 Cd730 2.356 . S
O739 C737 1.282 . S
C740 O741 1.306 . S
C740 O743 1.160 . S
O741 C740 1.306 . S
O741 Cd742 2.228 . S
Cd742 O741 2.228 . S
Cd742 O746 2.273 . S
Cd742 O750 2.277 . S
O743 C740 1.160 . S
O743 Cd744 2.203 . S
Cd744 O743 2.203 . S
Cd744 O746 2.411 . S
Cd744 O747 2.333 . S
Cd744 O748 2.352 . S
Cd744 O752 2.277 . S
Cd744 O753 2.356 . S
C745 O750 1.209 . S
C745 O752 1.226 . S
O746 Cd742 2.273 . S
O746 Cd744 2.411 . S
O746 C749 1.320 . S
O747 Cd744 2.333 . S
O747 C749 1.214 . S
O748 Cd744 2.352 . S
O748 C751 1.258 . S
C749 O746 1.320 . S
C749 O747 1.214 . S
O750 Cd742 2.277 . S
O750 C745 1.209 . S
C751 O748 1.258 . S
C751 O753 1.282 . S
O752 Cd744 2.277 . S
O752 C745 1.226 . S
O753 Cd744 2.356 . S
O753 C751 1.282 . S
C754 O755 1.306 . S
C754 O757 1.160 . S
O755 C754 1.306 . S
O755 Cd756 2.228 . S
Cd756 O755 2.228 . S
Cd756 O760 2.273 . S
Cd756 O764 2.277 . S
O757 C754 1.160 . S
O757 Cd758 2.203 . S
Cd758 O757 2.203 . S
Cd758 O760 2.411 . S
Cd758 O761 2.333 . S
Cd758 O762 2.352 . S
Cd758 O766 2.277 . S
Cd758 O767 2.356 . S
C759 O764 1.209 . S
C759 O766 1.226 . S
O760 Cd756 2.273 . S
O760 Cd758 2.411 . S
O760 C763 1.320 . S
O761 Cd758 2.333 . S
O761 C763 1.214 . S
O762 Cd758 2.352 . S
O762 C765 1.258 . S
C763 O760 1.320 . S
C763 O761 1.214 . S
O764 Cd756 2.277 . S
O764 C759 1.209 . S
C765 O762 1.258 . S
C765 O767 1.282 . S
O766 Cd758 2.277 . S
O766 C759 1.226 . S
O767 Cd758 2.356 . S
O767 C765 1.282 . S
H768 C786 0.951 . S
H769 C788 0.951 . S
H770 C790 0.950 . S
H771 C791 0.950 . S
H772 C793 0.950 . S
H773 C796 0.950 . S
H774 C797 0.950 . S
H775 C799 0.950 . S
H776 C800 0.950 . S
H777 C801 0.951 . S
H778 C803 0.951 . S
H779 C805 0.950 . S
H780 C806 0.950 . S
H781 C808 0.950 . S
H782 C811 0.950 . S
H783 C812 0.950 . S
H784 C814 0.950 . S
H785 C815 0.950 . S
C786 H768 0.951 . S
C786 C787 1.366 . S
C786 C788 1.388 . S
C787 C786 1.366 . S
C787 C791 1.385 . S
C788 H769 0.951 . S
C788 C786 1.388 . S
C788 C789 1.366 . S
C789 C788 1.366 . S
C789 C790 1.414 . S
C789 C792 1.499 . S
C790 H770 0.950 . S
C790 C789 1.414 . S
C790 C791 1.374 . S
C791 H771 0.950 . S
C791 C787 1.385 . S
C791 C790 1.374 . S
C792 C789 1.499 . S
C792 C793 1.373 . S
C792 C794 1.389 . S
C793 H772 0.950 . S
C793 C792 1.373 . S
C793 C809 1.377 . S
C794 C792 1.389 . S
C794 C795 1.524 . S
C794 C808 1.377 . S
C795 C794 1.524 . S
C795 C796 1.397 . S
C795 C800 1.363 . S
C796 H773 0.950 . S
C796 C795 1.397 . S
C796 C797 1.334 . S
C797 H774 0.950 . S
C797 C796 1.334 . S
C797 C798 1.287 . S
C798 C797 1.287 . S
C798 C799 1.524 . S
C798 H817 0.913 . S
C799 H775 0.950 . S
C799 C798 1.524 . S
C799 C800 1.415 . S
C800 H776 0.950 . S
C800 C795 1.363 . S
C800 C799 1.415 . S
C801 H777 0.951 . S
C801 C802 1.366 . S
C801 C803 1.388 . S
C802 C801 1.366 . S
C802 C806 1.385 . S
C803 H778 0.951 . S
C803 C801 1.388 . S
C803 C804 1.366 . S
C804 C803 1.366 . S
C804 C805 1.414 . S
C804 C807 1.499 . S
C805 H779 0.950 . S
C805 C804 1.414 . S
C805 C806 1.374 . S
C806 H780 0.950 . S
C806 C802 1.385 . S
C806 C805 1.374 . S
C807 C804 1.499 . S
C807 C808 1.373 . S
C807 C809 1.389 . S
C808 H781 0.950 . S
C808 C794 1.377 . S
C808 C807 1.373 . S
C809 C793 1.377 . S
C809 C807 1.389 . S
C809 C810 1.524 . S
C810 C809 1.524 . S
C810 C811 1.397 . S
C810 C815 1.363 . S
C811 H782 0.950 . S
C811 C810 1.397 . S
C811 C812 1.334 . S
C812 H783 0.950 . S
C812 C811 1.334 . S
C812 C813 1.287 . S
C813 C812 1.287 . S
C813 C814 1.524 . S
C813 H816 0.999 . S
C814 H784 0.950 . S
C814 C813 1.524 . S
C814 C815 1.415 . S
C815 H785 0.950 . S
C815 C810 1.363 . S
C815 C814 1.415 . S
H816 C813 0.999 . S
H817 C798 0.913 . S
H818 C836 0.951 . S
H819 C838 0.951 . S
H820 C840 0.950 . S
H821 C841 0.950 . S
H822 C843 0.950 . S
H823 C846 0.950 . S
H824 C847 0.950 . S
H825 C849 0.950 . S
H826 C850 0.950 . S
H827 C851 0.951 . S
H828 C853 0.951 . S
H829 C855 0.950 . S
H830 C856 0.950 . S
H831 C858 0.950 . S
H832 C861 0.950 . S
H833 C862 0.950 . S
H834 C864 0.950 . S
H835 C865 0.950 . S
C836 H818 0.951 . S
C836 C837 1.366 . S
C836 C838 1.388 . S
C837 C836 1.366 . S
C837 C841 1.385 . S
C838 H819 0.951 . S
C838 C836 1.388 . S
C838 C839 1.366 . S
C839 C838 1.366 . S
C839 C840 1.414 . S
C839 C842 1.499 . S
C840 H820 0.950 . S
C840 C839 1.414 . S
C840 C841 1.374 . S
C841 H821 0.950 . S
C841 C837 1.385 . S
C841 C840 1.374 . S
C842 C839 1.499 . S
C842 C843 1.373 . S
C842 C844 1.389 . S
C843 H822 0.950 . S
C843 C842 1.373 . S
C843 C859 1.377 . S
C844 C842 1.389 . S
C844 C845 1.524 . S
C844 C858 1.377 . S
C845 C844 1.524 . S
C845 C846 1.397 . S
C845 C850 1.363 . S
C846 H823 0.950 . S
C846 C845 1.397 . S
C846 C847 1.334 . S
C847 H824 0.950 . S
C847 C846 1.334 . S
C847 C848 1.287 . S
C848 C847 1.287 . S
C848 C849 1.524 . S
C848 H867 0.913 . S
C849 H825 0.950 . S
C849 C848 1.524 . S
C849 C850 1.415 . S
C850 H826 0.950 . S
C850 C845 1.363 . S
C850 C849 1.415 . S
C851 H827 0.951 . S
C851 C852 1.366 . S
C851 C853 1.388 . S
C852 C851 1.366 . S
C852 C856 1.385 . S
C853 H828 0.951 . S
C853 C851 1.388 . S
C853 C854 1.366 . S
C854 C853 1.366 . S
C854 C855 1.414 . S
C854 C857 1.499 . S
C855 H829 0.950 . S
C855 C854 1.414 . S
C855 C856 1.374 . S
C856 H830 0.950 . S
C856 C852 1.385 . S
C856 C855 1.374 . S
C857 C854 1.499 . S
C857 C858 1.373 . S
C857 C859 1.389 . S
C858 H831 0.950 . S
C858 C844 1.377 . S
C858 C857 1.373 . S
C859 C843 1.377 . S
C859 C857 1.389 . S
C859 C860 1.524 . S
C860 C859 1.524 . S
C860 C861 1.397 . S
C860 C865 1.363 . S
C861 H832 0.950 . S
C861 C860 1.397 . S
C861 C862 1.334 . S
C862 H833 0.950 . S
C862 C861 1.334 . S
C862 C863 1.287 . S
C863 C862 1.287 . S
C863 C864 1.524 . S
C863 H866 0.999 . S
C864 H834 0.950 . S
C864 C863 1.524 . S
C864 C865 1.415 . S
C865 H835 0.950 . S
C865 C860 1.363 . S
C865 C864 1.415 . S
H866 C863 0.999 . S
H867 C848 0.913 . S
H868 C886 0.951 . S
H869 C888 0.951 . S
H870 C890 0.950 . S
H871 C891 0.950 . S
H872 C893 0.950 . S
H873 C896 0.950 . S
H874 C897 0.950 . S
H875 C899 0.950 . S
H876 C900 0.950 . S
H877 C901 0.951 . S
H878 C903 0.951 . S
H879 C905 0.950 . S
H880 C906 0.950 . S
H881 C908 0.950 . S
H882 C911 0.950 . S
H883 C912 0.950 . S
H884 C914 0.950 . S
H885 C915 0.950 . S
C886 H868 0.951 . S
C886 C887 1.366 . S
C886 C888 1.388 . S
C887 C886 1.366 . S
C887 C891 1.385 . S
C888 H869 0.951 . S
C888 C886 1.388 . S
C888 C889 1.366 . S
C889 C888 1.366 . S
C889 C890 1.414 . S
C889 C892 1.499 . S
C890 H870 0.950 . S
C890 C889 1.414 . S
C890 C891 1.374 . S
C891 H871 0.950 . S
C891 C887 1.385 . S
C891 C890 1.374 . S
C892 C889 1.499 . S
C892 C893 1.373 . S
C892 C894 1.389 . S
C893 H872 0.950 . S
C893 C892 1.373 . S
C893 C909 1.377 . S
C894 C892 1.389 . S
C894 C895 1.524 . S
C894 C908 1.377 . S
C895 C894 1.524 . S
C895 C896 1.397 . S
C895 C900 1.363 . S
C896 H873 0.950 . S
C896 C895 1.397 . S
C896 C897 1.334 . S
C897 H874 0.950 . S
C897 C896 1.334 . S
C897 C898 1.287 . S
C898 C897 1.287 . S
C898 C899 1.524 . S
C898 H917 0.913 . S
C899 H875 0.950 . S
C899 C898 1.524 . S
C899 C900 1.415 . S
C900 H876 0.950 . S
C900 C895 1.363 . S
C900 C899 1.415 . S
C901 H877 0.951 . S
C901 C902 1.366 . S
C901 C903 1.388 . S
C902 C901 1.366 . S
C902 C906 1.385 . S
C903 H878 0.951 . S
C903 C901 1.388 . S
C903 C904 1.366 . S
C904 C903 1.366 . S
C904 C905 1.414 . S
C904 C907 1.499 . S
C905 H879 0.950 . S
C905 C904 1.414 . S
C905 C906 1.374 . S
C906 H880 0.950 . S
C906 C902 1.385 . S
C906 C905 1.374 . S
C907 C904 1.499 . S
C907 C908 1.373 . S
C907 C909 1.389 . S
C908 H881 0.950 . S
C908 C894 1.377 . S
C908 C907 1.373 . S
C909 C893 1.377 . S
C909 C907 1.389 . S
C909 C910 1.524 . S
C910 C909 1.524 . S
C910 C911 1.397 . S
C910 C915 1.363 . S
C911 H882 0.950 . S
C911 C910 1.397 . S
C911 C912 1.334 . S
C912 H883 0.950 . S
C912 C911 1.334 . S
C912 C913 1.287 . S
C913 C912 1.287 . S
C913 C914 1.524 . S
C913 H916 0.999 . S
C914 H884 0.950 . S
C914 C913 1.524 . S
C914 C915 1.415 . S
C915 H885 0.950 . S
C915 C910 1.363 . S
C915 C914 1.415 . S
H916 C913 0.999 . S
H917 C898 0.913 . S
H918 C936 0.951 . S
H919 C938 0.951 . S
H920 C940 0.950 . S
H921 C941 0.950 . S
H922 C943 0.950 . S
H923 C946 0.950 . S
H924 C947 0.950 . S
H925 C949 0.950 . S
H926 C950 0.950 . S
H927 C951 0.951 . S
H928 C953 0.951 . S
H929 C955 0.950 . S
H930 C956 0.950 . S
H931 C958 0.950 . S
H932 C961 0.950 . S
H933 C962 0.950 . S
H934 C964 0.950 . S
H935 C965 0.950 . S
C936 H918 0.951 . S
C936 C937 1.366 . S
C936 C938 1.388 . S
C937 C936 1.366 . S
C937 C941 1.385 . S
C938 H919 0.951 . S
C938 C936 1.388 . S
C938 C939 1.366 . S
C939 C938 1.366 . S
C939 C940 1.414 . S
C939 C942 1.499 . S
C940 H920 0.950 . S
C940 C939 1.414 . S
C940 C941 1.374 . S
C941 H921 0.950 . S
C941 C937 1.385 . S
C941 C940 1.374 . S
C942 C939 1.499 . S
C942 C943 1.373 . S
C942 C944 1.389 . S
C943 H922 0.950 . S
C943 C942 1.373 . S
C943 C959 1.377 . S
C944 C942 1.389 . S
C944 C945 1.524 . S
C944 C958 1.377 . S
C945 C944 1.524 . S
C945 C946 1.397 . S
C945 C950 1.363 . S
C946 H923 0.950 . S
C946 C945 1.397 . S
C946 C947 1.334 . S
C947 H924 0.950 . S
C947 C946 1.334 . S
C947 C948 1.287 . S
C948 C947 1.287 . S
C948 C949 1.524 . S
C948 H967 0.913 . S
C949 H925 0.950 . S
C949 C948 1.524 . S
C949 C950 1.415 . S
C950 H926 0.950 . S
C950 C945 1.363 . S
C950 C949 1.415 . S
C951 H927 0.951 . S
C951 C952 1.366 . S
C951 C953 1.388 . S
C952 C951 1.366 . S
C952 C956 1.385 . S
C953 H928 0.951 . S
C953 C951 1.388 . S
C953 C954 1.366 . S
C954 C953 1.366 . S
C954 C955 1.414 . S
C954 C957 1.499 . S
C955 H929 0.950 . S
C955 C954 1.414 . S
C955 C956 1.374 . S
C956 H930 0.950 . S
C956 C952 1.385 . S
C956 C955 1.374 . S
C957 C954 1.499 . S
C957 C958 1.373 . S
C957 C959 1.389 . S
C958 H931 0.950 . S
C958 C944 1.377 . S
C958 C957 1.373 . S
C959 C943 1.377 . S
C959 C957 1.389 . S
C959 C960 1.524 . S
C960 C959 1.524 . S
C960 C961 1.397 . S
C960 C965 1.363 . S
C961 H932 0.950 . S
C961 C960 1.397 . S
C961 C962 1.334 . S
C962 H933 0.950 . S
C962 C961 1.334 . S
C962 C963 1.287 . S
C963 C962 1.287 . S
C963 C964 1.524 . S
C963 H966 0.999 . S
C964 H934 0.950 . S
C964 C963 1.524 . S
C964 C965 1.415 . S
C965 H935 0.950 . S
C965 C960 1.363 . S
C965 C964 1.415 . S
H966 C963 0.999 . S
H967 C948 0.913 . S
H968 C986 0.951 . S
H969 C988 0.951 . S
H970 C990 0.950 . S
H971 C991 0.950 . S
H972 C993 0.950 . S
H973 C996 0.950 . S
H974 C997 0.950 . S
H975 C999 0.950 . S
H976 C1000 0.950 . S
H977 C1001 0.951 . S
H978 C1003 0.951 . S
H979 C1005 0.950 . S
H980 C1006 0.950 . S
H981 C1008 0.950 . S
H982 C1011 0.950 . S
H983 C1012 0.950 . S
H984 C1014 0.950 . S
H985 C1015 0.950 . S
C986 H968 0.951 . S
C986 C987 1.366 . S
C986 C988 1.388 . S
C987 C986 1.366 . S
C987 C991 1.385 . S
C988 H969 0.951 . S
C988 C986 1.388 . S
C988 C989 1.366 . S
C989 C988 1.366 . S
C989 C990 1.414 . S
C989 C992 1.499 . S
C990 H970 0.950 . S
C990 C989 1.414 . S
C990 C991 1.374 . S
C991 H971 0.950 . S
C991 C987 1.385 . S
C991 C990 1.374 . S
C992 C989 1.499 . S
C992 C993 1.373 . S
C992 C994 1.389 . S
C993 H972 0.950 . S
C993 C992 1.373 . S
C993 C1009 1.377 . S
C994 C992 1.389 . S
C994 C995 1.524 . S
C994 C1008 1.377 . S
C995 C994 1.524 . S
C995 C996 1.397 . S
C995 C1000 1.363 . S
C996 H973 0.950 . S
C996 C995 1.397 . S
C996 C997 1.334 . S
C997 H974 0.950 . S
C997 C996 1.334 . S
C997 C998 1.287 . S
C998 C997 1.287 . S
C998 C999 1.524 . S
C998 H1017 0.913 . S
C999 H975 0.950 . S
C999 C998 1.524 . S
C999 C1000 1.415 . S
C1000 H976 0.950 . S
C1000 C995 1.363 . S
C1000 C999 1.415 . S
C1001 H977 0.951 . S
C1001 C1002 1.366 . S
C1001 C1003 1.388 . S
C1002 C1001 1.366 . S
C1002 C1006 1.385 . S
C1003 H978 0.951 . S
C1003 C1001 1.388 . S
C1003 C1004 1.366 . S
C1004 C1003 1.366 . S
C1004 C1005 1.414 . S
C1004 C1007 1.499 . S
C1005 H979 0.950 . S
C1005 C1004 1.414 . S
C1005 C1006 1.374 . S
C1006 H980 0.950 . S
C1006 C1002 1.385 . S
C1006 C1005 1.374 . S
C1007 C1004 1.499 . S
C1007 C1008 1.373 . S
C1007 C1009 1.389 . S
C1008 H981 0.950 . S
C1008 C994 1.377 . S
C1008 C1007 1.373 . S
C1009 C993 1.377 . S
C1009 C1007 1.389 . S
C1009 C1010 1.524 . S
C1010 C1009 1.524 . S
C1010 C1011 1.397 . S
C1010 C1015 1.363 . S
C1011 H982 0.950 . S
C1011 C1010 1.397 . S
C1011 C1012 1.334 . S
C1012 H983 0.950 . S
C1012 C1011 1.334 . S
C1012 C1013 1.287 . S
C1013 C1012 1.287 . S
C1013 C1014 1.524 . S
C1013 H1016 0.999 . S
C1014 H984 0.950 . S
C1014 C1013 1.524 . S
C1014 C1015 1.415 . S
C1015 H985 0.950 . S
C1015 C1010 1.363 . S
C1015 C1014 1.415 . S
H1016 C1013 0.999 . S
H1017 C998 0.913 . S
H1018 C1036 0.951 . S
H1019 C1038 0.951 . S
H1020 C1040 0.950 . S
H1021 C1041 0.950 . S
H1022 C1043 0.950 . S
H1023 C1046 0.950 . S
H1024 C1047 0.950 . S
H1025 C1049 0.950 . S
H1026 C1050 0.950 . S
H1027 C1051 0.951 . S
H1028 C1053 0.951 . S
H1029 C1055 0.950 . S
H1030 C1056 0.950 . S
H1031 C1058 0.950 . S
H1032 C1061 0.950 . S
H1033 C1062 0.950 . S
H1034 C1064 0.950 . S
H1035 C1065 0.950 . S
C1036 H1018 0.951 . S
C1036 C1037 1.366 . S
C1036 C1038 1.388 . S
C1037 C1036 1.366 . S
C1037 C1041 1.385 . S
C1038 H1019 0.951 . S
C1038 C1036 1.388 . S
C1038 C1039 1.366 . S
C1039 C1038 1.366 . S
C1039 C1040 1.414 . S
C1039 C1042 1.499 . S
C1040 H1020 0.950 . S
C1040 C1039 1.414 . S
C1040 C1041 1.374 . S
C1041 H1021 0.950 . S
C1041 C1037 1.385 . S
C1041 C1040 1.374 . S
C1042 C1039 1.499 . S
C1042 C1043 1.373 . S
C1042 C1044 1.389 . S
C1043 H1022 0.950 . S
C1043 C1042 1.373 . S
C1043 C1059 1.377 . S
C1044 C1042 1.389 . S
C1044 C1045 1.524 . S
C1044 C1058 1.377 . S
C1045 C1044 1.524 . S
C1045 C1046 1.397 . S
C1045 C1050 1.363 . S
C1046 H1023 0.950 . S
C1046 C1045 1.397 . S
C1046 C1047 1.334 . S
C1047 H1024 0.950 . S
C1047 C1046 1.334 . S
C1047 C1048 1.287 . S
C1048 C1047 1.287 . S
C1048 C1049 1.524 . S
C1048 H1067 0.913 . S
C1049 H1025 0.950 . S
C1049 C1048 1.524 . S
C1049 C1050 1.415 . S
C1050 H1026 0.950 . S
C1050 C1045 1.363 . S
C1050 C1049 1.415 . S
C1051 H1027 0.951 . S
C1051 C1052 1.366 . S
C1051 C1053 1.388 . S
C1052 C1051 1.366 . S
C1052 C1056 1.385 . S
C1053 H1028 0.951 . S
C1053 C1051 1.388 . S
C1053 C1054 1.366 . S
C1054 C1053 1.366 . S
C1054 C1055 1.414 . S
C1054 C1057 1.499 . S
C1055 H1029 0.950 . S
C1055 C1054 1.414 . S
C1055 C1056 1.374 . S
C1056 H1030 0.950 . S
C1056 C1052 1.385 . S
C1056 C1055 1.374 . S
C1057 C1054 1.499 . S
C1057 C1058 1.373 . S
C1057 C1059 1.389 . S
C1058 H1031 0.950 . S
C1058 C1044 1.377 . S
C1058 C1057 1.373 . S
C1059 C1043 1.377 . S
C1059 C1057 1.389 . S
C1059 C1060 1.524 . S
C1060 C1059 1.524 . S
C1060 C1061 1.397 . S
C1060 C1065 1.363 . S
C1061 H1032 0.950 . S
C1061 C1060 1.397 . S
C1061 C1062 1.334 . S
C1062 H1033 0.950 . S
C1062 C1061 1.334 . S
C1062 C1063 1.287 . S
C1063 C1062 1.287 . S
C1063 C1064 1.524 . S
C1063 H1066 0.999 . S
C1064 H1034 0.950 . S
C1064 C1063 1.524 . S
C1064 C1065 1.415 . S
C1065 H1035 0.950 . S
C1065 C1060 1.363 . S
C1065 C1064 1.415 . S
H1066 C1063 0.999 . S
H1067 C1048 0.913 . S
H1068 C1086 0.951 . S
H1069 C1088 0.951 . S
H1070 C1090 0.950 . S
H1071 C1091 0.950 . S
H1072 C1093 0.950 . S
H1073 C1096 0.950 . S
H1074 C1097 0.950 . S
H1075 C1099 0.950 . S
H1076 C1100 0.950 . S
H1077 C1101 0.951 . S
H1078 C1103 0.951 . S
H1079 C1105 0.950 . S
H1080 C1106 0.950 . S
H1081 C1108 0.950 . S
H1082 C1111 0.950 . S
H1083 C1112 0.950 . S
H1084 C1114 0.950 . S
H1085 C1115 0.950 . S
C1086 H1068 0.951 . S
C1086 C1087 1.366 . S
C1086 C1088 1.388 . S
C1087 C1086 1.366 . S
C1087 C1091 1.385 . S
C1088 H1069 0.951 . S
C1088 C1086 1.388 . S
C1088 C1089 1.366 . S
C1089 C1088 1.366 . S
C1089 C1090 1.414 . S
C1089 C1092 1.499 . S
C1090 H1070 0.950 . S
C1090 C1089 1.414 . S
C1090 C1091 1.374 . S
C1091 H1071 0.950 . S
C1091 C1087 1.385 . S
C1091 C1090 1.374 . S
C1092 C1089 1.499 . S
C1092 C1093 1.373 . S
C1092 C1094 1.389 . S
C1093 H1072 0.950 . S
C1093 C1092 1.373 . S
C1093 C1109 1.377 . S
C1094 C1092 1.389 . S
C1094 C1095 1.524 . S
C1094 C1108 1.377 . S
C1095 C1094 1.524 . S
C1095 C1096 1.397 . S
C1095 C1100 1.363 . S
C1096 H1073 0.950 . S
C1096 C1095 1.397 . S
C1096 C1097 1.334 . S
C1097 H1074 0.950 . S
C1097 C1096 1.334 . S
C1097 C1098 1.287 . S
C1098 C1097 1.287 . S
C1098 C1099 1.524 . S
C1098 H1117 0.913 . S
C1099 H1075 0.950 . S
C1099 C1098 1.524 . S
C1099 C1100 1.415 . S
C1100 H1076 0.950 . S
C1100 C1095 1.363 . S
C1100 C1099 1.415 . S
C1101 H1077 0.951 . S
C1101 C1102 1.366 . S
C1101 C1103 1.388 . S
C1102 C1101 1.366 . S
C1102 C1106 1.385 . S
C1103 H1078 0.951 . S
C1103 C1101 1.388 . S
C1103 C1104 1.366 . S
C1104 C1103 1.366 . S
C1104 C1105 1.414 . S
C1104 C1107 1.499 . S
C1105 H1079 0.950 . S
C1105 C1104 1.414 . S
C1105 C1106 1.374 . S
C1106 H1080 0.950 . S
C1106 C1102 1.385 . S
C1106 C1105 1.374 . S
C1107 C1104 1.499 . S
C1107 C1108 1.373 . S
C1107 C1109 1.389 . S
C1108 H1081 0.950 . S
C1108 C1094 1.377 . S
C1108 C1107 1.373 . S
C1109 C1093 1.377 . S
C1109 C1107 1.389 . S
C1109 C1110 1.524 . S
C1110 C1109 1.524 . S
C1110 C1111 1.397 . S
C1110 C1115 1.363 . S
C1111 H1082 0.950 . S
C1111 C1110 1.397 . S
C1111 C1112 1.334 . S
C1112 H1083 0.950 . S
C1112 C1111 1.334 . S
C1112 C1113 1.287 . S
C1113 C1112 1.287 . S
C1113 C1114 1.524 . S
C1113 H1116 0.999 . S
C1114 H1084 0.950 . S
C1114 C1113 1.524 . S
C1114 C1115 1.415 . S
C1115 H1085 0.950 . S
C1115 C1110 1.363 . S
C1115 C1114 1.415 . S
H1116 C1113 0.999 . S
H1117 C1098 0.913 . S
H1118 C1136 0.951 . S
H1119 C1138 0.951 . S
H1120 C1140 0.950 . S
H1121 C1141 0.950 . S
H1122 C1143 0.950 . S
H1123 C1146 0.950 . S
H1124 C1147 0.950 . S
H1125 C1149 0.950 . S
H1126 C1150 0.950 . S
H1127 C1151 0.951 . S
H1128 C1153 0.951 . S
H1129 C1155 0.950 . S
H1130 C1156 0.950 . S
H1131 C1158 0.950 . S
H1132 C1161 0.950 . S
H1133 C1162 0.950 . S
H1134 C1164 0.950 . S
H1135 C1165 0.950 . S
C1136 H1118 0.951 . S
C1136 C1137 1.366 . S
C1136 C1138 1.388 . S
C1137 C1136 1.366 . S
C1137 C1141 1.385 . S
C1138 H1119 0.951 . S
C1138 C1136 1.388 . S
C1138 C1139 1.366 . S
C1139 C1138 1.366 . S
C1139 C1140 1.414 . S
C1139 C1142 1.499 . S
C1140 H1120 0.950 . S
C1140 C1139 1.414 . S
C1140 C1141 1.374 . S
C1141 H1121 0.950 . S
C1141 C1137 1.385 . S
C1141 C1140 1.374 . S
C1142 C1139 1.499 . S
C1142 C1143 1.373 . S
C1142 C1144 1.389 . S
C1143 H1122 0.950 . S
C1143 C1142 1.373 . S
C1143 C1159 1.377 . S
C1144 C1142 1.389 . S
C1144 C1145 1.524 . S
C1144 C1158 1.377 . S
C1145 C1144 1.524 . S
C1145 C1146 1.397 . S
C1145 C1150 1.363 . S
C1146 H1123 0.950 . S
C1146 C1145 1.397 . S
C1146 C1147 1.334 . S
C1147 H1124 0.950 . S
C1147 C1146 1.334 . S
C1147 C1148 1.287 . S
C1148 C1147 1.287 . S
C1148 C1149 1.524 . S
C1148 H1167 0.913 . S
C1149 H1125 0.950 . S
C1149 C1148 1.524 . S
C1149 C1150 1.415 . S
C1150 H1126 0.950 . S
C1150 C1145 1.363 . S
C1150 C1149 1.415 . S
C1151 H1127 0.951 . S
C1151 C1152 1.366 . S
C1151 C1153 1.388 . S
C1152 C1151 1.366 . S
C1152 C1156 1.385 . S
C1153 H1128 0.951 . S
C1153 C1151 1.388 . S
C1153 C1154 1.366 . S
C1154 C1153 1.366 . S
C1154 C1155 1.414 . S
C1154 C1157 1.499 . S
C1155 H1129 0.950 . S
C1155 C1154 1.414 . S
C1155 C1156 1.374 . S
C1156 H1130 0.950 . S
C1156 C1152 1.385 . S
C1156 C1155 1.374 . S
C1157 C1154 1.499 . S
C1157 C1158 1.373 . S
C1157 C1159 1.389 . S
C1158 H1131 0.950 . S
C1158 C1144 1.377 . S
C1158 C1157 1.373 . S
C1159 C1143 1.377 . S
C1159 C1157 1.389 . S
C1159 C1160 1.524 . S
C1160 C1159 1.524 . S
C1160 C1161 1.397 . S
C1160 C1165 1.363 . S
C1161 H1132 0.950 . S
C1161 C1160 1.397 . S
C1161 C1162 1.334 . S
C1162 H1133 0.950 . S
C1162 C1161 1.334 . S
C1162 C1163 1.287 . S
C1163 C1162 1.287 . S
C1163 C1164 1.524 . S
C1163 H1166 0.999 . S
C1164 H1134 0.950 . S
C1164 C1163 1.524 . S
C1164 C1165 1.415 . S
C1165 H1135 0.950 . S
C1165 C1160 1.363 . S
C1165 C1164 1.415 . S
H1166 C1163 0.999 . S
H1167 C1148 0.913 . S
H1168 C1186 0.951 . S
H1169 C1188 0.951 . S
H1170 C1190 0.950 . S
H1171 C1191 0.950 . S
H1172 C1193 0.950 . S
H1173 C1196 0.950 . S
H1174 C1197 0.950 . S
H1175 C1199 0.950 . S
H1176 C1200 0.950 . S
H1177 C1201 0.951 . S
H1178 C1203 0.951 . S
H1179 C1205 0.950 . S
H1180 C1206 0.950 . S
H1181 C1208 0.950 . S
H1182 C1211 0.950 . S
H1183 C1212 0.950 . S
H1184 C1214 0.950 . S
H1185 C1215 0.950 . S
C1186 H1168 0.951 . S
C1186 C1187 1.366 . S
C1186 C1188 1.388 . S
C1187 C1186 1.366 . S
C1187 C1191 1.385 . S
C1188 H1169 0.951 . S
C1188 C1186 1.388 . S
C1188 C1189 1.366 . S
C1189 C1188 1.366 . S
C1189 C1190 1.414 . S
C1189 C1192 1.499 . S
C1190 H1170 0.950 . S
C1190 C1189 1.414 . S
C1190 C1191 1.374 . S
C1191 H1171 0.950 . S
C1191 C1187 1.385 . S
C1191 C1190 1.374 . S
C1192 C1189 1.499 . S
C1192 C1193 1.373 . S
C1192 C1194 1.389 . S
C1193 H1172 0.950 . S
C1193 C1192 1.373 . S
C1193 C1209 1.377 . S
C1194 C1192 1.389 . S
C1194 C1195 1.524 . S
C1194 C1208 1.377 . S
C1195 C1194 1.524 . S
C1195 C1196 1.397 . S
C1195 C1200 1.363 . S
C1196 H1173 0.950 . S
C1196 C1195 1.397 . S
C1196 C1197 1.334 . S
C1197 H1174 0.950 . S
C1197 C1196 1.334 . S
C1197 C1198 1.287 . S
C1198 C1197 1.287 . S
C1198 C1199 1.524 . S
C1198 H1217 0.913 . S
C1199 H1175 0.950 . S
C1199 C1198 1.524 . S
C1199 C1200 1.415 . S
C1200 H1176 0.950 . S
C1200 C1195 1.363 . S
C1200 C1199 1.415 . S
C1201 H1177 0.951 . S
C1201 C1202 1.366 . S
C1201 C1203 1.388 . S
C1202 C1201 1.366 . S
C1202 C1206 1.385 . S
C1203 H1178 0.951 . S
C1203 C1201 1.388 . S
C1203 C1204 1.366 . S
C1204 C1203 1.366 . S
C1204 C1205 1.414 . S
C1204 C1207 1.499 . S
C1205 H1179 0.950 . S
C1205 C1204 1.414 . S
C1205 C1206 1.374 . S
C1206 H1180 0.950 . S
C1206 C1202 1.385 . S
C1206 C1205 1.374 . S
C1207 C1204 1.499 . S
C1207 C1208 1.373 . S
C1207 C1209 1.389 . S
C1208 H1181 0.950 . S
C1208 C1194 1.377 . S
C1208 C1207 1.373 . S
C1209 C1193 1.377 . S
C1209 C1207 1.389 . S
C1209 C1210 1.524 . S
C1210 C1209 1.524 . S
C1210 C1211 1.397 . S
C1210 C1215 1.363 . S
C1211 H1182 0.950 . S
C1211 C1210 1.397 . S
C1211 C1212 1.334 . S
C1212 H1183 0.950 . S
C1212 C1211 1.334 . S
C1212 C1213 1.287 . S
C1213 C1212 1.287 . S
C1213 C1214 1.524 . S
C1213 H1216 0.999 . S
C1214 H1184 0.950 . S
C1214 C1213 1.524 . S
C1214 C1215 1.415 . S
C1215 H1185 0.950 . S
C1215 C1210 1.363 . S
C1215 C1214 1.415 . S
H1216 C1213 0.999 . S
H1217 C1198 0.913 . S
H1218 C1236 0.951 . S
H1219 C1238 0.951 . S
H1220 C1240 0.950 . S
H1221 C1241 0.950 . S
H1222 C1243 0.950 . S
H1223 C1246 0.950 . S
H1224 C1247 0.950 . S
H1225 C1249 0.950 . S
H1226 C1250 0.950 . S
H1227 C1251 0.951 . S
H1228 C1253 0.951 . S
H1229 C1255 0.950 . S
H1230 C1256 0.950 . S
H1231 C1258 0.950 . S
H1232 C1261 0.950 . S
H1233 C1262 0.950 . S
H1234 C1264 0.950 . S
H1235 C1265 0.950 . S
C1236 H1218 0.951 . S
C1236 C1237 1.366 . S
C1236 C1238 1.388 . S
C1237 C1236 1.366 . S
C1237 C1241 1.385 . S
C1238 H1219 0.951 . S
C1238 C1236 1.388 . S
C1238 C1239 1.366 . S
C1239 C1238 1.366 . S
C1239 C1240 1.414 . S
C1239 C1242 1.499 . S
C1240 H1220 0.950 . S
C1240 C1239 1.414 . S
C1240 C1241 1.374 . S
C1241 H1221 0.950 . S
C1241 C1237 1.385 . S
C1241 C1240 1.374 . S
C1242 C1239 1.499 . S
C1242 C1243 1.373 . S
C1242 C1244 1.389 . S
C1243 H1222 0.950 . S
C1243 C1242 1.373 . S
C1243 C1259 1.377 . S
C1244 C1242 1.389 . S
C1244 C1245 1.524 . S
C1244 C1258 1.377 . S
C1245 C1244 1.524 . S
C1245 C1246 1.397 . S
C1245 C1250 1.363 . S
C1246 H1223 0.950 . S
C1246 C1245 1.397 . S
C1246 C1247 1.334 . S
C1247 H1224 0.950 . S
C1247 C1246 1.334 . S
C1247 C1248 1.287 . S
C1248 C1247 1.287 . S
C1248 C1249 1.524 . S
C1248 H1267 0.913 . S
C1249 H1225 0.950 . S
C1249 C1248 1.524 . S
C1249 C1250 1.415 . S
C1250 H1226 0.950 . S
C1250 C1245 1.363 . S
C1250 C1249 1.415 . S
C1251 H1227 0.951 . S
C1251 C1252 1.366 . S
C1251 C1253 1.388 . S
C1252 C1251 1.366 . S
C1252 C1256 1.385 . S
C1253 H1228 0.951 . S
C1253 C1251 1.388 . S
C1253 C1254 1.366 . S
C1254 C1253 1.366 . S
C1254 C1255 1.414 . S
C1254 C1257 1.499 . S
C1255 H1229 0.950 . S
C1255 C1254 1.414 . S
C1255 C1256 1.374 . S
C1256 H1230 0.950 . S
C1256 C1252 1.385 . S
C1256 C1255 1.374 . S
C1257 C1254 1.499 . S
C1257 C1258 1.373 . S
C1257 C1259 1.389 . S
C1258 H1231 0.950 . S
C1258 C1244 1.377 . S
C1258 C1257 1.373 . S
C1259 C1243 1.377 . S
C1259 C1257 1.389 . S
C1259 C1260 1.524 . S
C1260 C1259 1.524 . S
C1260 C1261 1.397 . S
C1260 C1265 1.363 . S
C1261 H1232 0.950 . S
C1261 C1260 1.397 . S
C1261 C1262 1.334 . S
C1262 H1233 0.950 . S
C1262 C1261 1.334 . S
C1262 C1263 1.287 . S
C1263 C1262 1.287 . S
C1263 C1264 1.524 . S
C1263 H1266 0.999 . S
C1264 H1234 0.950 . S
C1264 C1263 1.524 . S
C1264 C1265 1.415 . S
C1265 H1235 0.950 . S
C1265 C1260 1.363 . S
C1265 C1264 1.415 . S
H1266 C1263 0.999 . S
H1267 C1248 0.913 . S
H1268 C1286 0.951 . S
H1269 C1288 0.951 . S
H1270 C1290 0.950 . S
H1271 C1291 0.950 . S
H1272 C1293 0.950 . S
H1273 C1296 0.950 . S
H1274 C1297 0.950 . S
H1275 C1299 0.950 . S
H1276 C1300 0.950 . S
H1277 C1301 0.951 . S
H1278 C1303 0.951 . S
H1279 C1305 0.950 . S
H1280 C1306 0.950 . S
H1281 C1308 0.950 . S
H1282 C1311 0.950 . S
H1283 C1312 0.950 . S
H1284 C1314 0.950 . S
H1285 C1315 0.950 . S
C1286 H1268 0.951 . S
C1286 C1287 1.366 . S
C1286 C1288 1.388 . S
C1287 C1286 1.366 . S
C1287 C1291 1.385 . S
C1288 H1269 0.951 . S
C1288 C1286 1.388 . S
C1288 C1289 1.366 . S
C1289 C1288 1.366 . S
C1289 C1290 1.414 . S
C1289 C1292 1.499 . S
C1290 H1270 0.950 . S
C1290 C1289 1.414 . S
C1290 C1291 1.374 . S
C1291 H1271 0.950 . S
C1291 C1287 1.385 . S
C1291 C1290 1.374 . S
C1292 C1289 1.499 . S
C1292 C1293 1.373 . S
C1292 C1294 1.389 . S
C1293 H1272 0.950 . S
C1293 C1292 1.373 . S
C1293 C1309 1.377 . S
C1294 C1292 1.389 . S
C1294 C1295 1.524 . S
C1294 C1308 1.377 . S
C1295 C1294 1.524 . S
C1295 C1296 1.397 . S
C1295 C1300 1.363 . S
C1296 H1273 0.950 . S
C1296 C1295 1.397 . S
C1296 C1297 1.334 . S
C1297 H1274 0.950 . S
C1297 C1296 1.334 . S
C1297 C1298 1.287 . S
C1298 C1297 1.287 . S
C1298 C1299 1.524 . S
C1298 H1317 0.913 . S
C1299 H1275 0.950 . S
C1299 C1298 1.524 . S
C1299 C1300 1.415 . S
C1300 H1276 0.950 . S
C1300 C1295 1.363 . S
C1300 C1299 1.415 . S
C1301 H1277 0.951 . S
C1301 C1302 1.366 . S
C1301 C1303 1.388 . S
C1302 C1301 1.366 . S
C1302 C1306 1.385 . S
C1303 H1278 0.951 . S
C1303 C1301 1.388 . S
C1303 C1304 1.366 . S
C1304 C1303 1.366 . S
C1304 C1305 1.414 . S
C1304 C1307 1.499 . S
C1305 H1279 0.950 . S
C1305 C1304 1.414 . S
C1305 C1306 1.374 . S
C1306 H1280 0.950 . S
C1306 C1302 1.385 . S
C1306 C1305 1.374 . S
C1307 C1304 1.499 . S
C1307 C1308 1.373 . S
C1307 C1309 1.389 . S
C1308 H1281 0.950 . S
C1308 C1294 1.377 . S
C1308 C1307 1.373 . S
C1309 C1293 1.377 . S
C1309 C1307 1.389 . S
C1309 C1310 1.524 . S
C1310 C1309 1.524 . S
C1310 C1311 1.397 . S
C1310 C1315 1.363 . S
C1311 H1282 0.950 . S
C1311 C1310 1.397 . S
C1311 C1312 1.334 . S
C1312 H1283 0.950 . S
C1312 C1311 1.334 . S
C1312 C1313 1.287 . S
C1313 C1312 1.287 . S
C1313 C1314 1.524 . S
C1313 H1316 0.999 . S
C1314 H1284 0.950 . S
C1314 C1313 1.524 . S
C1314 C1315 1.415 . S
C1315 H1285 0.950 . S
C1315 C1310 1.363 . S
C1315 C1314 1.415 . S
H1316 C1313 0.999 . S
H1317 C1298 0.913 . S
H1318 C1336 0.951 . S
H1319 C1338 0.951 . S
H1320 C1340 0.950 . S
H1321 C1341 0.950 . S
H1322 C1343 0.950 . S
H1323 C1346 0.950 . S
H1324 C1347 0.950 . S
H1325 C1349 0.950 . S
H1326 C1350 0.950 . S
H1327 C1351 0.951 . S
H1328 C1353 0.951 . S
H1329 C1355 0.950 . S
H1330 C1356 0.950 . S
H1331 C1358 0.950 . S
H1332 C1361 0.950 . S
H1333 C1362 0.950 . S
H1334 C1364 0.950 . S
H1335 C1365 0.950 . S
C1336 H1318 0.951 . S
C1336 C1337 1.366 . S
C1336 C1338 1.388 . S
C1337 C1336 1.366 . S
C1337 C1341 1.385 . S
C1338 H1319 0.951 . S
C1338 C1336 1.388 . S
C1338 C1339 1.366 . S
C1339 C1338 1.366 . S
C1339 C1340 1.414 . S
C1339 C1342 1.499 . S
C1340 H1320 0.950 . S
C1340 C1339 1.414 . S
C1340 C1341 1.374 . S
C1341 H1321 0.950 . S
C1341 C1337 1.385 . S
C1341 C1340 1.374 . S
C1342 C1339 1.499 . S
C1342 C1343 1.373 . S
C1342 C1344 1.389 . S
C1343 H1322 0.950 . S
C1343 C1342 1.373 . S
C1343 C1359 1.377 . S
C1344 C1342 1.389 . S
C1344 C1345 1.524 . S
C1344 C1358 1.377 . S
C1345 C1344 1.524 . S
C1345 C1346 1.397 . S
C1345 C1350 1.363 . S
C1346 H1323 0.950 . S
C1346 C1345 1.397 . S
C1346 C1347 1.334 . S
C1347 H1324 0.950 . S
C1347 C1346 1.334 . S
C1347 C1348 1.287 . S
C1348 C1347 1.287 . S
C1348 C1349 1.524 . S
C1348 H1367 0.913 . S
C1349 H1325 0.950 . S
C1349 C1348 1.524 . S
C1349 C1350 1.415 . S
C1350 H1326 0.950 . S
C1350 C1345 1.363 . S
C1350 C1349 1.415 . S
C1351 H1327 0.951 . S
C1351 C1352 1.366 . S
C1351 C1353 1.388 . S
C1352 C1351 1.366 . S
C1352 C1356 1.385 . S
C1353 H1328 0.951 . S
C1353 C1351 1.388 . S
C1353 C1354 1.366 . S
C1354 C1353 1.366 . S
C1354 C1355 1.414 . S
C1354 C1357 1.499 . S
C1355 H1329 0.950 . S
C1355 C1354 1.414 . S
C1355 C1356 1.374 . S
C1356 H1330 0.950 . S
C1356 C1352 1.385 . S
C1356 C1355 1.374 . S
C1357 C1354 1.499 . S
C1357 C1358 1.373 . S
C1357 C1359 1.389 . S
C1358 H1331 0.950 . S
C1358 C1344 1.377 . S
C1358 C1357 1.373 . S
C1359 C1343 1.377 . S
C1359 C1357 1.389 . S
C1359 C1360 1.524 . S
C1360 C1359 1.524 . S
C1360 C1361 1.397 . S
C1360 C1365 1.363 . S
C1361 H1332 0.950 . S
C1361 C1360 1.397 . S
C1361 C1362 1.334 . S
C1362 H1333 0.950 . S
C1362 C1361 1.334 . S
C1362 C1363 1.287 . S
C1363 C1362 1.287 . S
C1363 C1364 1.524 . S
C1363 H1366 0.999 . S
C1364 H1334 0.950 . S
C1364 C1363 1.524 . S
C1364 C1365 1.415 . S
C1365 H1335 0.950 . S
C1365 C1360 1.363 . S
C1365 C1364 1.415 . S
H1366 C1363 0.999 . S
H1367 C1348 0.913 . S
H1368 C1386 0.951 . S
H1369 C1388 0.951 . S
H1370 C1390 0.950 . S
H1371 C1391 0.950 . S
H1372 C1393 0.950 . S
H1373 C1396 0.950 . S
H1374 C1397 0.950 . S
H1375 C1399 0.950 . S
H1376 C1400 0.950 . S
H1377 C1401 0.951 . S
H1378 C1403 0.951 . S
H1379 C1405 0.950 . S
H1380 C1406 0.950 . S
H1381 C1408 0.950 . S
H1382 C1411 0.950 . S
H1383 C1412 0.950 . S
H1384 C1414 0.950 . S
H1385 C1415 0.950 . S
C1386 H1368 0.951 . S
C1386 C1387 1.366 . S
C1386 C1388 1.388 . S
C1387 C1386 1.366 . S
C1387 C1391 1.385 . S
C1388 H1369 0.951 . S
C1388 C1386 1.388 . S
C1388 C1389 1.366 . S
C1389 C1388 1.366 . S
C1389 C1390 1.414 . S
C1389 C1392 1.499 . S
C1390 H1370 0.950 . S
C1390 C1389 1.414 . S
C1390 C1391 1.374 . S
C1391 H1371 0.950 . S
C1391 C1387 1.385 . S
C1391 C1390 1.374 . S
C1392 C1389 1.499 . S
C1392 C1393 1.373 . S
C1392 C1394 1.389 . S
C1393 H1372 0.950 . S
C1393 C1392 1.373 . S
C1393 C1409 1.377 . S
C1394 C1392 1.389 . S
C1394 C1395 1.524 . S
C1394 C1408 1.377 . S
C1395 C1394 1.524 . S
C1395 C1396 1.397 . S
C1395 C1400 1.363 . S
C1396 H1373 0.950 . S
C1396 C1395 1.397 . S
C1396 C1397 1.334 . S
C1397 H1374 0.950 . S
C1397 C1396 1.334 . S
C1397 C1398 1.287 . S
C1398 C1397 1.287 . S
C1398 C1399 1.524 . S
C1398 H1417 0.913 . S
C1399 H1375 0.950 . S
C1399 C1398 1.524 . S
C1399 C1400 1.415 . S
C1400 H1376 0.950 . S
C1400 C1395 1.363 . S
C1400 C1399 1.415 . S
C1401 H1377 0.951 . S
C1401 C1402 1.366 . S
C1401 C1403 1.388 . S
C1402 C1401 1.366 . S
C1402 C1406 1.385 . S
C1403 H1378 0.951 . S
C1403 C1401 1.388 . S
C1403 C1404 1.366 . S
C1404 C1403 1.366 . S
C1404 C1405 1.414 . S
C1404 C1407 1.499 . S
C1405 H1379 0.950 . S
C1405 C1404 1.414 . S
C1405 C1406 1.374 . S
C1406 H1380 0.950 . S
C1406 C1402 1.385 . S
C1406 C1405 1.374 . S
C1407 C1404 1.499 . S
C1407 C1408 1.373 . S
C1407 C1409 1.389 . S
C1408 H1381 0.950 . S
C1408 C1394 1.377 . S
C1408 C1407 1.373 . S
C1409 C1393 1.377 . S
C1409 C1407 1.389 . S
C1409 C1410 1.524 . S
C1410 C1409 1.524 . S
C1410 C1411 1.397 . S
C1410 C1415 1.363 . S
C1411 H1382 0.950 . S
C1411 C1410 1.397 . S
C1411 C1412 1.334 . S
C1412 H1383 0.950 . S
C1412 C1411 1.334 . S
C1412 C1413 1.287 . S
C1413 C1412 1.287 . S
C1413 C1414 1.524 . S
C1413 H1416 0.999 . S
C1414 H1384 0.950 . S
C1414 C1413 1.524 . S
C1414 C1415 1.415 . S
C1415 H1385 0.950 . S
C1415 C1410 1.363 . S
C1415 C1414 1.415 . S
H1416 C1413 0.999 . S
H1417 C1398 0.913 . S
H1418 C1436 0.951 . S
H1419 C1438 0.951 . S
H1420 C1440 0.950 . S
H1421 C1441 0.950 . S
H1422 C1443 0.950 . S
H1423 C1446 0.950 . S
H1424 C1447 0.950 . S
H1425 C1449 0.950 . S
H1426 C1450 0.950 . S
H1427 C1451 0.951 . S
H1428 C1453 0.951 . S
H1429 C1455 0.950 . S
H1430 C1456 0.950 . S
H1431 C1458 0.950 . S
H1432 C1461 0.950 . S
H1433 C1462 0.950 . S
H1434 C1464 0.950 . S
H1435 C1465 0.950 . S
C1436 H1418 0.951 . S
C1436 C1437 1.366 . S
C1436 C1438 1.388 . S
C1437 C1436 1.366 . S
C1437 C1441 1.385 . S
C1438 H1419 0.951 . S
C1438 C1436 1.388 . S
C1438 C1439 1.366 . S
C1439 C1438 1.366 . S
C1439 C1440 1.414 . S
C1439 C1442 1.499 . S
C1440 H1420 0.950 . S
C1440 C1439 1.414 . S
C1440 C1441 1.374 . S
C1441 H1421 0.950 . S
C1441 C1437 1.385 . S
C1441 C1440 1.374 . S
C1442 C1439 1.499 . S
C1442 C1443 1.373 . S
C1442 C1444 1.389 . S
C1443 H1422 0.950 . S
C1443 C1442 1.373 . S
C1443 C1459 1.377 . S
C1444 C1442 1.389 . S
C1444 C1445 1.524 . S
C1444 C1458 1.377 . S
C1445 C1444 1.524 . S
C1445 C1446 1.397 . S
C1445 C1450 1.363 . S
C1446 H1423 0.950 . S
C1446 C1445 1.397 . S
C1446 C1447 1.334 . S
C1447 H1424 0.950 . S
C1447 C1446 1.334 . S
C1447 C1448 1.287 . S
C1448 C1447 1.287 . S
C1448 C1449 1.524 . S
C1448 H1467 0.913 . S
C1449 H1425 0.950 . S
C1449 C1448 1.524 . S
C1449 C1450 1.415 . S
C1450 H1426 0.950 . S
C1450 C1445 1.363 . S
C1450 C1449 1.415 . S
C1451 H1427 0.951 . S
C1451 C1452 1.366 . S
C1451 C1453 1.388 . S
C1452 C1451 1.366 . S
C1452 C1456 1.385 . S
C1453 H1428 0.951 . S
C1453 C1451 1.388 . S
C1453 C1454 1.366 . S
C1454 C1453 1.366 . S
C1454 C1455 1.414 . S
C1454 C1457 1.499 . S
C1455 H1429 0.950 . S
C1455 C1454 1.414 . S
C1455 C1456 1.374 . S
C1456 H1430 0.950 . S
C1456 C1452 1.385 . S
C1456 C1455 1.374 . S
C1457 C1454 1.499 . S
C1457 C1458 1.373 . S
C1457 C1459 1.389 . S
C1458 H1431 0.950 . S
C1458 C1444 1.377 . S
C1458 C1457 1.373 . S
C1459 C1443 1.377 . S
C1459 C1457 1.389 . S
C1459 C1460 1.524 . S
C1460 C1459 1.524 . S
C1460 C1461 1.397 . S
C1460 C1465 1.363 . S
C1461 H1432 0.950 . S
C1461 C1460 1.397 . S
C1461 C1462 1.334 . S
C1462 H1433 0.950 . S
C1462 C1461 1.334 . S
C1462 C1463 1.287 . S
C1463 C1462 1.287 . S
C1463 C1464 1.524 . S
C1463 H1466 0.999 . S
C1464 H1434 0.950 . S
C1464 C1463 1.524 . S
C1464 C1465 1.415 . S
C1465 H1435 0.950 . S
C1465 C1460 1.363 . S
C1465 C1464 1.415 . S
H1466 C1463 0.999 . S
H1467 C1448 0.913 . S
H1468 C1486 0.951 . S
H1469 C1488 0.951 . S
H1470 C1490 0.950 . S
H1471 C1491 0.950 . S
H1472 C1493 0.950 . S
H1473 C1496 0.950 . S
H1474 C1497 0.950 . S
H1475 C1499 0.950 . S
H1476 C1500 0.950 . S
H1477 C1501 0.951 . S
H1478 C1503 0.951 . S
H1479 C1505 0.950 . S
H1480 C1506 0.950 . S
H1481 C1508 0.950 . S
H1482 C1511 0.950 . S
H1483 C1512 0.950 . S
H1484 C1514 0.950 . S
H1485 C1515 0.950 . S
C1486 H1468 0.951 . S
C1486 C1487 1.366 . S
C1486 C1488 1.388 . S
C1487 C1486 1.366 . S
C1487 C1491 1.385 . S
C1488 H1469 0.951 . S
C1488 C1486 1.388 . S
C1488 C1489 1.366 . S
C1489 C1488 1.366 . S
C1489 C1490 1.414 . S
C1489 C1492 1.499 . S
C1490 H1470 0.950 . S
C1490 C1489 1.414 . S
C1490 C1491 1.374 . S
C1491 H1471 0.950 . S
C1491 C1487 1.385 . S
C1491 C1490 1.374 . S
C1492 C1489 1.499 . S
C1492 C1493 1.373 . S
C1492 C1494 1.389 . S
C1493 H1472 0.950 . S
C1493 C1492 1.373 . S
C1493 C1509 1.377 . S
C1494 C1492 1.389 . S
C1494 C1495 1.524 . S
C1494 C1508 1.377 . S
C1495 C1494 1.524 . S
C1495 C1496 1.397 . S
C1495 C1500 1.363 . S
C1496 H1473 0.950 . S
C1496 C1495 1.397 . S
C1496 C1497 1.334 . S
C1497 H1474 0.950 . S
C1497 C1496 1.334 . S
C1497 C1498 1.287 . S
C1498 C1497 1.287 . S
C1498 C1499 1.524 . S
C1498 H1517 0.913 . S
C1499 H1475 0.950 . S
C1499 C1498 1.524 . S
C1499 C1500 1.415 . S
C1500 H1476 0.950 . S
C1500 C1495 1.363 . S
C1500 C1499 1.415 . S
C1501 H1477 0.951 . S
C1501 C1502 1.366 . S
C1501 C1503 1.388 . S
C1502 C1501 1.366 . S
C1502 C1506 1.385 . S
C1503 H1478 0.951 . S
C1503 C1501 1.388 . S
C1503 C1504 1.366 . S
C1504 C1503 1.366 . S
C1504 C1505 1.414 . S
C1504 C1507 1.499 . S
C1505 H1479 0.950 . S
C1505 C1504 1.414 . S
C1505 C1506 1.374 . S
C1506 H1480 0.950 . S
C1506 C1502 1.385 . S
C1506 C1505 1.374 . S
C1507 C1504 1.499 . S
C1507 C1508 1.373 . S
C1507 C1509 1.389 . S
C1508 H1481 0.950 . S
C1508 C1494 1.377 . S
C1508 C1507 1.373 . S
C1509 C1493 1.377 . S
C1509 C1507 1.389 . S
C1509 C1510 1.524 . S
C1510 C1509 1.524 . S
C1510 C1511 1.397 . S
C1510 C1515 1.363 . S
C1511 H1482 0.950 . S
C1511 C1510 1.397 . S
C1511 C1512 1.334 . S
C1512 H1483 0.950 . S
C1512 C1511 1.334 . S
C1512 C1513 1.287 . S
C1513 C1512 1.287 . S
C1513 C1514 1.524 . S
C1513 H1516 0.999 . S
C1514 H1484 0.950 . S
C1514 C1513 1.524 . S
C1514 C1515 1.415 . S
C1515 H1485 0.950 . S
C1515 C1510 1.363 . S
C1515 C1514 1.415 . S
H1516 C1513 0.999 . S
H1517 C1498 0.913 . S
H1518 C1536 0.951 . S
H1519 C1538 0.951 . S
H1520 C1540 0.950 . S
H1521 C1541 0.950 . S
H1522 C1543 0.950 . S
H1523 C1546 0.950 . S
H1524 C1547 0.950 . S
H1525 C1549 0.950 1_554 S
H1526 C1550 0.924 1_554 S
H1527 C1551 0.951 . S
H1528 C1553 0.991 . S
H1529 C1555 0.950 . S
H1530 C1556 0.950 . S
H1531 C1558 0.950 1_554 S
H1532 C1561 0.950 . S
H1533 C1562 0.950 . S
H1534 C1564 0.950 . S
H1535 C1565 0.950 . S
C1536 H1518 0.951 . S
C1536 C1537 1.366 . S
C1536 C1538 1.388 . S
C1537 C1536 1.366 . S
C1537 C1541 1.385 . S
C1538 H1519 0.951 . S
C1538 C1536 1.388 . S
C1538 C1539 1.366 . S
C1539 C1538 1.366 . S
C1539 C1540 1.414 . S
C1539 C1542 1.499 . S
C1540 H1520 0.950 . S
C1540 C1539 1.414 . S
C1540 C1541 1.374 . S
C1541 H1521 0.950 . S
C1541 C1537 1.385 . S
C1541 C1540 1.374 . S
C1542 C1539 1.499 . S
C1542 C1543 1.373 . S
C1542 C1544 1.389 . S
C1543 H1522 0.950 . S
C1543 C1542 1.373 . S
C1543 C1559 1.377 . S
C1544 C1542 1.389 . S
C1544 C1545 1.524 . S
C1544 C1558 1.377 . S
C1545 C1544 1.524 . S
C1545 C1546 1.397 . S
C1545 C1550 1.363 . S
C1546 H1523 0.950 . S
C1546 C1545 1.397 . S
C1546 C1547 1.334 . S
C1547 H1524 0.950 . S
C1547 C1546 1.334 . S
C1547 C1548 1.287 . S
C1548 C1547 1.287 . S
C1548 C1549 1.524 . S
C1548 H1567 0.913 . S
C1549 H1525 0.950 1_556 S
C1549 C1548 1.524 . S
C1549 C1550 1.415 . S
C1550 H1526 0.924 1_556 S
C1550 C1545 1.363 . S
C1550 C1549 1.415 . S
C1551 H1527 0.951 . S
C1551 C1552 1.366 . S
C1551 C1553 1.388 . S
C1552 C1551 1.366 . S
C1552 C1556 1.385 . S
C1553 H1528 0.991 . S
C1553 C1551 1.388 . S
C1553 C1554 1.366 . S
C1554 C1553 1.366 . S
C1554 C1555 1.414 . S
C1554 C1557 1.499 1_554 S
C1555 H1529 0.950 . S
C1555 C1554 1.414 . S
C1555 C1556 1.374 . S
C1556 H1530 0.950 . S
C1556 C1552 1.385 . S
C1556 C1555 1.374 . S
C1557 C1554 1.499 1_556 S
C1557 C1558 1.373 . S
C1557 C1559 1.389 . S
C1558 H1531 0.950 1_556 S
C1558 C1544 1.377 . S
C1558 C1557 1.373 . S
C1559 C1543 1.377 . S
C1559 C1557 1.389 . S
C1559 C1560 1.524 . S
C1560 C1559 1.524 . S
C1560 C1561 1.397 . S
C1560 C1565 1.363 . S
C1561 H1532 0.950 . S
C1561 C1560 1.397 . S
C1561 C1562 1.334 . S
C1562 H1533 0.950 . S
C1562 C1561 1.334 . S
C1562 C1563 1.287 . S
C1563 C1562 1.287 . S
C1563 C1564 1.524 . S
C1563 H1566 0.999 . S
C1564 H1534 0.950 . S
C1564 C1563 1.524 . S
C1564 C1565 1.415 . S
C1565 H1535 0.950 . S
C1565 C1560 1.363 . S
C1565 C1564 1.415 . S
H1566 C1563 0.999 . S
H1567 C1548 0.913 . S
H1568 C1586 0.951 . S
H1569 C1588 0.951 . S
H1570 C1590 0.950 . S
H1571 C1591 0.950 . S
H1572 C1593 0.950 . S
H1573 C1596 0.950 . S
H1574 C1597 0.950 . S
H1575 C1599 0.950 . S
H1576 C1600 0.950 . S
H1577 C1601 0.951 . S
H1578 C1603 0.951 . S
H1579 C1605 0.950 . S
H1580 C1606 0.950 . S
H1581 C1608 0.950 . S
H1582 C1611 0.950 . S
H1583 C1612 0.950 . S
H1584 C1614 0.950 . S
H1585 C1615 0.950 . S
C1586 H1568 0.951 . S
C1586 C1587 1.366 . S
C1586 C1588 1.388 . S
C1587 C1586 1.366 . S
C1587 C1591 1.385 . S
C1588 H1569 0.951 . S
C1588 C1586 1.388 . S
C1588 C1589 1.366 . S
C1589 C1588 1.366 . S
C1589 C1590 1.414 . S
C1589 C1592 1.499 . S
C1590 H1570 0.950 . S
C1590 C1589 1.414 . S
C1590 C1591 1.374 . S
C1591 H1571 0.950 . S
C1591 C1587 1.385 . S
C1591 C1590 1.374 . S
C1592 C1589 1.499 . S
C1592 C1593 1.373 . S
C1592 C1594 1.389 . S
C1593 H1572 0.950 . S
C1593 C1592 1.373 . S
C1593 C1609 1.377 . S
C1594 C1592 1.389 . S
C1594 C1595 1.524 . S
C1594 C1608 1.377 . S
C1595 C1594 1.524 . S
C1595 C1596 1.397 . S
C1595 C1600 1.363 . S
C1596 H1573 0.950 . S
C1596 C1595 1.397 . S
C1596 C1597 1.334 . S
C1597 H1574 0.950 . S
C1597 C1596 1.334 . S
C1597 C1598 1.287 . S
C1598 C1597 1.287 . S
C1598 C1599 1.524 . S
C1598 H1617 0.913 . S
C1599 H1575 0.950 . S
C1599 C1598 1.524 . S
C1599 C1600 1.415 . S
C1600 H1576 0.950 . S
C1600 C1595 1.363 . S
C1600 C1599 1.415 . S
C1601 H1577 0.951 . S
C1601 C1602 1.366 . S
C1601 C1603 1.388 . S
C1602 C1601 1.366 . S
C1602 C1606 1.385 . S
C1603 H1578 0.951 . S
C1603 C1601 1.388 . S
C1603 C1604 1.366 . S
C1604 C1603 1.366 . S
C1604 C1605 1.414 . S
C1604 C1607 1.499 . S
C1605 H1579 0.950 . S
C1605 C1604 1.414 . S
C1605 C1606 1.374 . S
C1606 H1580 0.950 . S
C1606 C1602 1.385 . S
C1606 C1605 1.374 . S
C1607 C1604 1.499 . S
C1607 C1608 1.373 . S
C1607 C1609 1.389 . S
C1608 H1581 0.950 . S
C1608 C1594 1.377 . S
C1608 C1607 1.373 . S
C1609 C1593 1.377 . S
C1609 C1607 1.389 . S
C1609 C1610 1.524 . S
C1610 C1609 1.524 . S
C1610 C1611 1.397 . S
C1610 C1615 1.363 . S
C1611 H1582 0.950 . S
C1611 C1610 1.397 . S
C1611 C1612 1.334 . S
C1612 H1583 0.950 . S
C1612 C1611 1.334 . S
C1612 C1613 1.287 . S
C1613 C1612 1.287 . S
C1613 C1614 1.524 . S
C1613 H1616 0.999 . S
C1614 H1584 0.950 . S
C1614 C1613 1.524 . S
C1614 C1615 1.415 . S
C1615 H1585 0.950 . S
C1615 C1610 1.363 . S
C1615 C1614 1.415 . S
H1616 C1613 0.999 . S
H1617 C1598 0.913 . S
H1618 C1636 0.951 . S
H1619 C1638 0.951 . S
H1620 C1640 0.950 . S
H1621 C1641 0.950 . S
H1622 C1643 0.950 . S
H1623 C1646 0.950 . S
H1624 C1647 0.950 . S
H1625 C1649 0.950 . S
H1626 C1650 0.950 . S
H1627 C1651 0.951 . S
H1628 C1653 0.951 . S
H1629 C1655 0.950 . S
H1630 C1656 0.950 . S
H1631 C1658 0.950 . S
H1632 C1661 0.950 . S
H1633 C1662 0.950 . S
H1634 C1664 0.950 . S
H1635 C1665 0.950 . S
C1636 H1618 0.951 . S
C1636 C1637 1.366 . S
C1636 C1638 1.388 . S
C1637 C1636 1.366 . S
C1637 C1641 1.385 . S
C1638 H1619 0.951 . S
C1638 C1636 1.388 . S
C1638 C1639 1.366 . S
C1639 C1638 1.366 . S
C1639 C1640 1.414 . S
C1639 C1642 1.499 . S
C1640 H1620 0.950 . S
C1640 C1639 1.414 . S
C1640 C1641 1.374 . S
C1641 H1621 0.950 . S
C1641 C1637 1.385 . S
C1641 C1640 1.374 . S
C1642 C1639 1.499 . S
C1642 C1643 1.373 . S
C1642 C1644 1.389 . S
C1643 H1622 0.950 . S
C1643 C1642 1.373 . S
C1643 C1659 1.377 . S
C1644 C1642 1.389 . S
C1644 C1645 1.524 . S
C1644 C1658 1.377 . S
C1645 C1644 1.524 . S
C1645 C1646 1.397 . S
C1645 C1650 1.363 . S
C1646 H1623 0.950 . S
C1646 C1645 1.397 . S
C1646 C1647 1.334 . S
C1647 H1624 0.950 . S
C1647 C1646 1.334 . S
C1647 C1648 1.287 . S
C1648 C1647 1.287 . S
C1648 C1649 1.524 . S
C1648 H1667 0.913 . S
C1649 H1625 0.950 . S
C1649 C1648 1.524 . S
C1649 C1650 1.415 . S
C1650 H1626 0.950 . S
C1650 C1645 1.363 . S
C1650 C1649 1.415 . S
C1651 H1627 0.951 . S
C1651 C1652 1.366 . S
C1651 C1653 1.388 . S
C1652 C1651 1.366 . S
C1652 C1656 1.385 . S
C1653 H1628 0.951 . S
C1653 C1651 1.388 . S
C1653 C1654 1.366 . S
C1654 C1653 1.366 . S
C1654 C1655 1.414 . S
C1654 C1657 1.499 . S
C1655 H1629 0.950 . S
C1655 C1654 1.414 . S
C1655 C1656 1.374 . S
C1656 H1630 0.950 . S
C1656 C1652 1.385 . S
C1656 C1655 1.374 . S
C1657 C1654 1.499 . S
C1657 C1658 1.373 . S
C1657 C1659 1.389 . S
C1658 H1631 0.950 . S
C1658 C1644 1.377 . S
C1658 C1657 1.373 . S
C1659 C1643 1.377 . S
C1659 C1657 1.389 . S
C1659 C1660 1.524 . S
C1660 C1659 1.524 . S
C1660 C1661 1.397 . S
C1660 C1665 1.363 . S
C1661 H1632 0.950 . S
C1661 C1660 1.397 . S
C1661 C1662 1.334 . S
C1662 H1633 0.950 . S
C1662 C1661 1.334 . S
C1662 C1663 1.287 . S
C1663 C1662 1.287 . S
C1663 C1664 1.524 . S
C1663 H1666 0.999 . S
C1664 H1634 0.950 . S
C1664 C1663 1.524 . S
C1664 C1665 1.415 . S
C1665 H1635 0.950 . S
C1665 C1660 1.363 . S
C1665 C1664 1.415 . S
H1666 C1663 0.999 . S
H1667 C1648 0.913 . S
H1668 C1686 0.951 . S
H1669 C1688 0.951 . S
H1670 C1690 0.950 . S
H1671 C1691 0.950 . S
H1672 C1693 0.950 . S
H1673 C1696 0.950 . S
H1674 C1697 0.950 . S
H1675 C1699 0.950 . S
H1676 C1700 0.950 . S
H1677 C1701 0.951 . S
H1678 C1703 0.951 . S
H1679 C1705 0.950 . S
H1680 C1706 0.950 . S
H1681 C1708 0.950 . S
H1682 C1711 0.950 . S
H1683 C1712 0.950 . S
H1684 C1714 0.950 . S
H1685 C1715 0.950 . S
C1686 H1668 0.951 . S
C1686 C1687 1.366 . S
C1686 C1688 1.388 . S
C1687 C1686 1.366 . S
C1687 C1691 1.385 . S
C1688 H1669 0.951 . S
C1688 C1686 1.388 . S
C1688 C1689 1.366 . S
C1689 C1688 1.366 . S
C1689 C1690 1.414 . S
C1689 C1692 1.499 . S
C1690 H1670 0.950 . S
C1690 C1689 1.414 . S
C1690 C1691 1.374 . S
C1691 H1671 0.950 . S
C1691 C1687 1.385 . S
C1691 C1690 1.374 . S
C1692 C1689 1.499 . S
C1692 C1693 1.373 . S
C1692 C1694 1.389 . S
C1693 H1672 0.950 . S
C1693 C1692 1.373 . S
C1693 C1709 1.377 . S
C1694 C1692 1.389 . S
C1694 C1695 1.524 . S
C1694 C1708 1.377 . S
C1695 C1694 1.524 . S
C1695 C1696 1.397 . S
C1695 C1700 1.363 . S
C1696 H1673 0.950 . S
C1696 C1695 1.397 . S
C1696 C1697 1.334 . S
C1697 H1674 0.950 . S
C1697 C1696 1.334 . S
C1697 C1698 1.287 . S
C1698 C1697 1.287 . S
C1698 C1699 1.524 . S
C1698 H1717 0.913 . S
C1699 H1675 0.950 . S
C1699 C1698 1.524 . S
C1699 C1700 1.415 . S
C1700 H1676 0.950 . S
C1700 C1695 1.363 . S
C1700 C1699 1.415 . S
C1701 H1677 0.951 . S
C1701 C1702 1.366 . S
C1701 C1703 1.388 . S
C1702 C1701 1.366 . S
C1702 C1706 1.385 . S
C1703 H1678 0.951 . S
C1703 C1701 1.388 . S
C1703 C1704 1.366 . S
C1704 C1703 1.366 . S
C1704 C1705 1.414 . S
C1704 C1707 1.499 . S
C1705 H1679 0.950 . S
C1705 C1704 1.414 . S
C1705 C1706 1.374 . S
C1706 H1680 0.950 . S
C1706 C1702 1.385 . S
C1706 C1705 1.374 . S
C1707 C1704 1.499 . S
C1707 C1708 1.373 . S
C1707 C1709 1.389 . S
C1708 H1681 0.950 . S
C1708 C1694 1.377 . S
C1708 C1707 1.373 . S
C1709 C1693 1.377 . S
C1709 C1707 1.389 . S
C1709 C1710 1.524 . S
C1710 C1709 1.524 . S
C1710 C1711 1.397 . S
C1710 C1715 1.363 . S
C1711 H1682 0.950 . S
C1711 C1710 1.397 . S
C1711 C1712 1.334 . S
C1712 H1683 0.950 . S
C1712 C1711 1.334 . S
C1712 C1713 1.287 . S
C1713 C1712 1.287 . S
C1713 C1714 1.524 . S
C1713 H1716 0.999 . S
C1714 H1684 0.950 . S
C1714 C1713 1.524 . S
C1714 C1715 1.415 . S
C1715 H1685 0.950 . S
C1715 C1710 1.363 . S
C1715 C1714 1.415 . S
H1716 C1713 0.999 . S
H1717 C1698 0.913 . S
H1718 C1736 0.951 . S
H1719 C1738 0.951 . S
H1720 C1740 0.950 . S
H1721 C1741 0.950 . S
H1722 C1743 0.950 . S
H1723 C1746 0.950 . S
H1724 C1747 0.950 . S
H1725 C1749 0.950 . S
H1726 C1750 0.950 . S
H1727 C1751 0.951 . S
H1728 C1753 0.951 . S
H1729 C1755 0.950 . S
H1730 C1756 0.950 . S
H1731 C1758 0.950 . S
H1732 C1761 0.950 . S
H1733 C1762 0.950 . S
H1734 C1764 0.950 . S
H1735 C1765 0.950 . S
C1736 H1718 0.951 . S
C1736 C1737 1.366 . S
C1736 C1738 1.388 . S
C1737 C1736 1.366 . S
C1737 C1741 1.385 . S
C1738 H1719 0.951 . S
C1738 C1736 1.388 . S
C1738 C1739 1.366 . S
C1739 C1738 1.366 . S
C1739 C1740 1.414 . S
C1739 C1742 1.499 . S
C1740 H1720 0.950 . S
C1740 C1739 1.414 . S
C1740 C1741 1.374 . S
C1741 H1721 0.950 . S
C1741 C1737 1.385 . S
C1741 C1740 1.374 . S
C1742 C1739 1.499 . S
C1742 C1743 1.373 . S
C1742 C1744 1.389 . S
C1743 H1722 0.950 . S
C1743 C1742 1.373 . S
C1743 C1759 1.377 . S
C1744 C1742 1.389 . S
C1744 C1745 1.524 . S
C1744 C1758 1.377 . S
C1745 C1744 1.524 . S
C1745 C1746 1.397 . S
C1745 C1750 1.363 . S
C1746 H1723 0.950 . S
C1746 C1745 1.397 . S
C1746 C1747 1.334 . S
C1747 H1724 0.950 . S
C1747 C1746 1.334 . S
C1747 C1748 1.287 . S
C1748 C1747 1.287 . S
C1748 C1749 1.524 . S
C1748 H1767 0.913 . S
C1749 H1725 0.950 . S
C1749 C1748 1.524 . S
C1749 C1750 1.415 . S
C1750 H1726 0.950 . S
C1750 C1745 1.363 . S
C1750 C1749 1.415 . S
C1751 H1727 0.951 . S
C1751 C1752 1.366 . S
C1751 C1753 1.388 . S
C1752 C1751 1.366 . S
C1752 C1756 1.385 . S
C1753 H1728 0.951 . S
C1753 C1751 1.388 . S
C1753 C1754 1.366 . S
C1754 C1753 1.366 . S
C1754 C1755 1.414 . S
C1754 C1757 1.499 . S
C1755 H1729 0.950 . S
C1755 C1754 1.414 . S
C1755 C1756 1.374 . S
C1756 H1730 0.950 . S
C1756 C1752 1.385 . S
C1756 C1755 1.374 . S
C1757 C1754 1.499 . S
C1757 C1758 1.373 . S
C1757 C1759 1.389 . S
C1758 H1731 0.950 . S
C1758 C1744 1.377 . S
C1758 C1757 1.373 . S
C1759 C1743 1.377 . S
C1759 C1757 1.389 . S
C1759 C1760 1.524 . S
C1760 C1759 1.524 . S
C1760 C1761 1.397 . S
C1760 C1765 1.363 . S
C1761 H1732 0.950 . S
C1761 C1760 1.397 . S
C1761 C1762 1.334 . S
C1762 H1733 0.950 . S
C1762 C1761 1.334 . S
C1762 C1763 1.287 . S
C1763 C1762 1.287 . S
C1763 C1764 1.524 . S
C1763 H1766 0.999 . S
C1764 H1734 0.950 . S
C1764 C1763 1.524 . S
C1764 C1765 1.415 . S
C1765 H1735 0.950 . S
C1765 C1760 1.363 . S
C1765 C1764 1.415 . S
H1766 C1763 0.999 . S
H1767 C1748 0.913 . S
H1768 C1786 0.951 . S
H1769 C1788 0.951 . S
H1770 C1790 0.950 . S
H1771 C1791 0.950 . S
H1772 C1793 0.950 . S
H1773 C1796 0.950 . S
H1774 C1797 0.950 . S
H1775 C1799 0.950 . S
H1776 C1800 0.950 . S
H1777 C1801 0.951 . S
H1778 C1803 0.951 . S
H1779 C1805 0.950 . S
H1780 C1806 0.950 . S
H1781 C1808 0.950 . S
H1782 C1811 0.950 . S
H1783 C1812 0.950 . S
H1784 C1814 0.950 . S
H1785 C1815 0.950 . S
C1786 H1768 0.951 . S
C1786 C1787 1.366 . S
C1786 C1788 1.388 . S
C1787 C1786 1.366 . S
C1787 C1791 1.385 . S
C1788 H1769 0.951 . S
C1788 C1786 1.388 . S
C1788 C1789 1.366 . S
C1789 C1788 1.366 . S
C1789 C1790 1.414 . S
C1789 C1792 1.499 . S
C1790 H1770 0.950 . S
C1790 C1789 1.414 . S
C1790 C1791 1.374 . S
C1791 H1771 0.950 . S
C1791 C1787 1.385 . S
C1791 C1790 1.374 . S
C1792 C1789 1.499 . S
C1792 C1793 1.373 . S
C1792 C1794 1.389 . S
C1793 H1772 0.950 . S
C1793 C1792 1.373 . S
C1793 C1809 1.377 . S
C1794 C1792 1.389 . S
C1794 C1795 1.524 . S
C1794 C1808 1.377 . S
C1795 C1794 1.524 . S
C1795 C1796 1.397 . S
C1795 C1800 1.363 . S
C1796 H1773 0.950 . S
C1796 C1795 1.397 . S
C1796 C1797 1.334 . S
C1797 H1774 0.950 . S
C1797 C1796 1.334 . S
C1797 C1798 1.287 . S
C1798 C1797 1.287 . S
C1798 C1799 1.524 . S
C1798 H1817 0.913 . S
C1799 H1775 0.950 . S
C1799 C1798 1.524 . S
C1799 C1800 1.415 . S
C1800 H1776 0.950 . S
C1800 C1795 1.363 . S
C1800 C1799 1.415 . S
C1801 H1777 0.951 . S
C1801 C1802 1.366 . S
C1801 C1803 1.388 . S
C1802 C1801 1.366 . S
C1802 C1806 1.385 . S
C1803 H1778 0.951 . S
C1803 C1801 1.388 . S
C1803 C1804 1.366 . S
C1804 C1803 1.366 . S
C1804 C1805 1.414 . S
C1804 C1807 1.499 . S
C1805 H1779 0.950 . S
C1805 C1804 1.414 . S
C1805 C1806 1.374 . S
C1806 H1780 0.950 . S
C1806 C1802 1.385 . S
C1806 C1805 1.374 . S
C1807 C1804 1.499 . S
C1807 C1808 1.373 . S
C1807 C1809 1.389 . S
C1808 H1781 0.950 . S
C1808 C1794 1.377 . S
C1808 C1807 1.373 . S
C1809 C1793 1.377 . S
C1809 C1807 1.389 . S
C1809 C1810 1.524 . S
C1810 C1809 1.524 . S
C1810 C1811 1.397 . S
C1810 C1815 1.363 . S
C1811 H1782 0.950 . S
C1811 C1810 1.397 . S
C1811 C1812 1.334 . S
C1812 H1783 0.950 . S
C1812 C1811 1.334 . S
C1812 C1813 1.287 . S
C1813 C1812 1.287 . S
C1813 C1814 1.524 . S
C1813 H1816 0.999 . S
C1814 H1784 0.950 . S
C1814 C1813 1.524 . S
C1814 C1815 1.415 . S
C1815 H1785 0.950 . S
C1815 C1810 1.363 . S
C1815 C1814 1.415 . S
H1816 C1813 0.999 . S
H1817 C1798 0.913 . S
H1818 C1836 0.951 . S
H1819 C1838 0.951 . S
H1820 C1840 0.950 . S
H1821 C1841 0.950 . S
H1822 C1843 0.950 . S
H1823 C1846 0.950 . S
H1824 C1847 0.950 . S
H1825 C1849 0.950 . S
H1826 C1850 0.950 . S
H1827 C1851 0.951 . S
H1828 C1853 0.951 . S
H1829 C1855 0.950 . S
H1830 C1856 0.950 . S
H1831 C1858 0.950 . S
H1832 C1861 0.950 . S
H1833 C1862 0.950 . S
H1834 C1864 0.950 . S
H1835 C1865 0.950 . S
C1836 H1818 0.951 . S
C1836 C1837 1.366 . S
C1836 C1838 1.388 . S
C1837 C1836 1.366 . S
C1837 C1841 1.385 . S
C1838 H1819 0.951 . S
C1838 C1836 1.388 . S
C1838 C1839 1.366 . S
C1839 C1838 1.366 . S
C1839 C1840 1.414 . S
C1839 C1842 1.499 . S
C1840 H1820 0.950 . S
C1840 C1839 1.414 . S
C1840 C1841 1.374 . S
C1841 H1821 0.950 . S
C1841 C1837 1.385 . S
C1841 C1840 1.374 . S
C1842 C1839 1.499 . S
C1842 C1843 1.373 . S
C1842 C1844 1.389 . S
C1843 H1822 0.950 . S
C1843 C1842 1.373 . S
C1843 C1859 1.377 . S
C1844 C1842 1.389 . S
C1844 C1845 1.524 . S
C1844 C1858 1.377 . S
C1845 C1844 1.524 . S
C1845 C1846 1.397 . S
C1845 C1850 1.363 . S
C1846 H1823 0.950 . S
C1846 C1845 1.397 . S
C1846 C1847 1.334 . S
C1847 H1824 0.950 . S
C1847 C1846 1.334 . S
C1847 C1848 1.287 . S
C1848 C1847 1.287 . S
C1848 C1849 1.524 . S
C1848 H1867 0.913 . S
C1849 H1825 0.950 . S
C1849 C1848 1.524 . S
C1849 C1850 1.415 . S
C1850 H1826 0.950 . S
C1850 C1845 1.363 . S
C1850 C1849 1.415 . S
C1851 H1827 0.951 . S
C1851 C1852 1.366 . S
C1851 C1853 1.388 . S
C1852 C1851 1.366 . S
C1852 C1856 1.385 . S
C1853 H1828 0.951 . S
C1853 C1851 1.388 . S
C1853 C1854 1.366 . S
C1854 C1853 1.366 . S
C1854 C1855 1.414 . S
C1854 C1857 1.499 . S
C1855 H1829 0.950 . S
C1855 C1854 1.414 . S
C1855 C1856 1.374 . S
C1856 H1830 0.950 . S
C1856 C1852 1.385 . S
C1856 C1855 1.374 . S
C1857 C1854 1.499 . S
C1857 C1858 1.373 . S
C1857 C1859 1.389 . S
C1858 H1831 0.950 . S
C1858 C1844 1.377 . S
C1858 C1857 1.373 . S
C1859 C1843 1.377 . S
C1859 C1857 1.389 . S
C1859 C1860 1.524 . S
C1860 C1859 1.524 . S
C1860 C1861 1.397 . S
C1860 C1865 1.363 . S
C1861 H1832 0.950 . S
C1861 C1860 1.397 . S
C1861 C1862 1.334 . S
C1862 H1833 0.950 . S
C1862 C1861 1.334 . S
C1862 C1863 1.287 . S
C1863 C1862 1.287 . S
C1863 C1864 1.524 . S
C1863 H1866 0.999 . S
C1864 H1834 0.950 . S
C1864 C1863 1.524 . S
C1864 C1865 1.415 . S
C1865 H1835 0.950 . S
C1865 C1860 1.363 . S
C1865 C1864 1.415 . S
H1866 C1863 0.999 . S
H1867 C1848 0.913 . S
H1868 C1886 0.951 . S
H1869 C1888 0.951 . S
H1870 C1890 0.950 . S
H1871 C1891 0.950 . S
H1872 C1893 0.950 . S
H1873 C1896 0.950 . S
H1874 C1897 0.950 . S
H1875 C1899 0.950 . S
H1876 C1900 0.950 . S
H1877 C1901 0.951 . S
H1878 C1903 0.951 . S
H1879 C1905 0.950 . S
H1880 C1906 0.950 . S
H1881 C1908 0.950 . S
H1882 C1911 0.950 . S
H1883 C1912 0.950 . S
H1884 C1914 0.950 . S
H1885 C1915 0.950 . S
C1886 H1868 0.951 . S
C1886 C1887 1.366 . S
C1886 C1888 1.388 . S
C1887 C1886 1.366 . S
C1887 C1891 1.385 . S
C1888 H1869 0.951 . S
C1888 C1886 1.388 . S
C1888 C1889 1.366 . S
C1889 C1888 1.366 . S
C1889 C1890 1.414 . S
C1889 C1892 1.499 . S
C1890 H1870 0.950 . S
C1890 C1889 1.414 . S
C1890 C1891 1.374 . S
C1891 H1871 0.950 . S
C1891 C1887 1.385 . S
C1891 C1890 1.374 . S
C1892 C1889 1.499 . S
C1892 C1893 1.373 . S
C1892 C1894 1.451 . S
C1893 H1872 0.950 . S
C1893 C1892 1.373 . S
C1893 C1909 1.377 . S
C1894 C1892 1.451 . S
C1894 C1895 1.521 1_554 S
C1894 C1908 1.317 1_554 S
C1895 C1894 1.521 1_556 S
C1895 C1896 1.392 1_556 S
C1895 C1900 1.368 . S
C1896 H1873 0.950 . S
C1896 C1895 1.392 1_554 S
C1896 C1897 1.334 . S
C1897 H1874 0.950 . S
C1897 C1896 1.334 . S
C1897 C1898 1.287 1_554 S
C1898 C1897 1.287 1_556 S
C1898 C1899 1.524 . S
C1898 H1917 0.913 . S
C1899 H1875 0.950 . S
C1899 C1898 1.524 . S
C1899 C1900 1.415 . S
C1900 H1876 0.950 . S
C1900 C1895 1.368 . S
C1900 C1899 1.415 . S
C1901 H1877 0.951 . S
C1901 C1902 1.366 . S
C1901 C1903 1.388 . S
C1902 C1901 1.366 . S
C1902 C1906 1.385 . S
C1903 H1878 0.951 . S
C1903 C1901 1.388 . S
C1903 C1904 1.366 . S
C1904 C1903 1.366 . S
C1904 C1905 1.414 . S
C1904 C1907 1.499 . S
C1905 H1879 0.950 . S
C1905 C1904 1.414 . S
C1905 C1906 1.374 . S
C1906 H1880 0.950 . S
C1906 C1902 1.385 . S
C1906 C1905 1.374 . S
C1907 C1904 1.499 . S
C1907 C1908 1.373 . S
C1907 C1909 1.389 1_556 S
C1908 H1881 0.950 . S
C1908 C1894 1.317 1_556 S
C1908 C1907 1.373 . S
C1909 C1893 1.377 . S
C1909 C1907 1.389 1_554 S
C1909 C1910 1.524 . S
C1910 C1909 1.524 . S
C1910 C1911 1.397 1_554 S
C1910 C1915 1.363 . S
C1911 H1882 0.950 . S
C1911 C1910 1.397 1_556 S
C1911 C1912 1.334 . S
C1912 H1883 0.950 . S
C1912 C1911 1.334 . S
C1912 C1913 1.287 1_556 S
C1913 C1912 1.287 1_554 S
C1913 C1914 1.524 . S
C1913 H1916 0.999 . S
C1914 H1884 0.950 . S
C1914 C1913 1.524 . S
C1914 C1915 1.415 . S
C1915 H1885 0.950 . S
C1915 C1910 1.363 . S
C1915 C1914 1.415 . S
H1916 C1913 0.999 . S
H1917 C1898 0.913 . S
H1918 C1936 0.951 . S
H1919 C1938 0.951 . S
H1920 C1940 0.950 . S
H1921 C1941 0.950 . S
H1922 C1943 0.950 . S
H1923 C1946 0.950 . S
H1924 C1947 0.950 . S
H1925 C1949 0.950 . S
H1926 C1950 0.950 . S
H1927 C1951 0.951 . S
H1928 C1953 0.951 . S
H1929 C1955 0.950 . S
H1930 C1956 0.950 . S
H1931 C1958 0.950 . S
H1932 C1961 0.950 . S
H1933 C1962 0.950 . S
H1934 C1964 0.950 . S
H1935 C1965 0.950 . S
C1936 H1918 0.951 . S
C1936 C1937 1.366 . S
C1936 C1938 1.388 . S
C1937 C1936 1.366 . S
C1937 C1941 1.385 . S
C1938 H1919 0.951 . S
C1938 C1936 1.388 . S
C1938 C1939 1.366 . S
C1939 C1938 1.366 . S
C1939 C1940 1.414 . S
C1939 C1942 1.499 . S
C1940 H1920 0.950 . S
C1940 C1939 1.414 . S
C1940 C1941 1.374 . S
C1941 H1921 0.950 . S
C1941 C1937 1.385 . S
C1941 C1940 1.374 . S
C1942 C1939 1.499 . S
C1942 C1943 1.373 . S
C1942 C1944 1.389 . S
C1943 H1922 0.950 . S
C1943 C1942 1.373 . S
C1943 C1959 1.377 . S
C1944 C1942 1.389 . S
C1944 C1945 1.524 . S
C1944 C1958 1.377 . S
C1945 C1944 1.524 . S
C1945 C1946 1.397 . S
C1945 C1950 1.363 . S
C1946 H1923 0.950 . S
C1946 C1945 1.397 . S
C1946 C1947 1.334 . S
C1947 H1924 0.950 . S
C1947 C1946 1.334 . S
C1947 C1948 1.287 . S
C1948 C1947 1.287 . S
C1948 C1949 1.524 . S
C1948 H1967 0.913 . S
C1949 H1925 0.950 . S
C1949 C1948 1.524 . S
C1949 C1950 1.415 . S
C1950 H1926 0.950 . S
C1950 C1945 1.363 . S
C1950 C1949 1.415 . S
C1951 H1927 0.951 . S
C1951 C1952 1.366 . S
C1951 C1953 1.388 . S
C1952 C1951 1.366 . S
C1952 C1956 1.385 . S
C1953 H1928 0.951 . S
C1953 C1951 1.388 . S
C1953 C1954 1.366 . S
C1954 C1953 1.366 . S
C1954 C1955 1.414 . S
C1954 C1957 1.499 . S
C1955 H1929 0.950 . S
C1955 C1954 1.414 . S
C1955 C1956 1.374 . S
C1956 H1930 0.950 . S
C1956 C1952 1.385 . S
C1956 C1955 1.374 . S
C1957 C1954 1.499 . S
C1957 C1958 1.373 . S
C1957 C1959 1.389 . S
C1958 H1931 0.950 . S
C1958 C1944 1.377 . S
C1958 C1957 1.373 . S
C1959 C1943 1.377 . S
C1959 C1957 1.389 . S
C1959 C1960 1.524 . S
C1960 C1959 1.524 . S
C1960 C1961 1.397 . S
C1960 C1965 1.363 . S
C1961 H1932 0.950 . S
C1961 C1960 1.397 . S
C1961 C1962 1.334 . S
C1962 H1933 0.950 . S
C1962 C1961 1.334 . S
C1962 C1963 1.287 . S
C1963 C1962 1.287 . S
C1963 C1964 1.524 . S
C1963 H1966 0.999 . S
C1964 H1934 0.950 . S
C1964 C1963 1.524 . S
C1964 C1965 1.415 . S
C1965 H1935 0.950 . S
C1965 C1960 1.363 . S
C1965 C1964 1.415 . S
H1966 C1963 0.999 . S
H1967 C1948 0.913 . S
C802 C754 1.691 . S
C787 C1 1.271 . S
C837 C169 1.444 . S
C852 C695 1.781 . S
C887 C283 1.454 . S
C902 C698 1.795 . S
C937 C397 1.252 . S
C952 C712 1.583 . S
C1002 C737 1.538 . S
C987 C457 1.147 . S
C1037 C571 1.103 . S
C1052 C740 1.456 . S
C1087 C115 1.184 . S
C1102 C709 1.576 . S
C1137 C229 1.133 . S
C1152 C723 1.526 . S
C1187 C343 1.064 . S
C1202 C726 1.387 . S
C1252 C751 1.632 . S
C1237 C511 1.326 . S
C1302 C765 1.708 . S
C1287 C625 1.371 . S
C1352 C684 1.785 . S
C1337 C55 1.444 . S
C1387 C29 1.119 . S
C1402 C707 1.378 . S
C1437 C125 0.953 . S
C1452 C721 1.523 . S
C1502 C731 1.457 . S
C1487 C239 0.908 . S
C1537 C353 0.876 . S
C1552 C749 1.413 . S
C1602 C763 1.351 . S
C1587 C485 1.074 . S
C1652 C689 1.418 . S
C1637 C599 1.142 . S
C1702 C759 1.465 . S
C1687 C143 1.174 . S
C1737 C257 1.134 . S
C1752 C693 1.423 . S
C1802 C703 1.355 . S
C1787 C371 1.096 . S
C1837 C467 0.960 . S
C1852 C717 1.497 . S
C1887 C581 0.910 . S
C1902 C735 1.458 . S
C1937 C11 0.954 . S
C1952 C745 1.531 . S
