# Generated by pormake.
# Topology zzz, (3,6)-cn, num edge types: 1
# Building blocks:
#     Node 0, Type 0, BuildingBlock: ESEHIV_clean_linker_0, # of connection points: 3
#     Node 1, Type 0, BuildingBlock: ESEHIV_clean_linker_0, # of connection points: 3
#     Node 2, Type 0, BuildingBlock: ESEHIV_clean_linker_0, # of connection points: 3
#     Node 3, Type 0, BuildingBlock: ESEHIV_clean_linker_0, # of connection points: 3
#     Node 4, Type 0, BuildingBlock: ESEHIV_clean_linker_0, # of connection points: 3
#     Node 5, Type 0, BuildingBlock: ESEHIV_clean_linker_0, # of connection points: 3
#     Node 6, Type 0, BuildingBlock: ESEHIV_clean_linker_0, # of connection points: 3
#     Node 7, Type 0, BuildingBlock: ESEHIV_clean_linker_0, # of connection points: 3
#     Node 8, Type 1, BuildingBlock: LEVNOQ01_clean_sbu_1, # of connection points: 6
#     Node 9, Type 1, BuildingBlock: LEVNOQ01_clean_sbu_1, # of connection points: 6
#     Node 10, Type 1, BuildingBlock: LEVNOQ01_clean_sbu_1, # of connection points: 6
#     Node 11, Type 1, BuildingBlock: LEVNOQ01_clean_sbu_1, # of connection points: 6
#     Edge 12, Type (0, 1), BuildingBlock: EYOCIG_clean_linker_4, # of connection points: 2
#     Edge 13, Type (0, 1), BuildingBlock: EYOCIG_clean_linker_4, # of connection points: 2
#     Edge 14, Type (0, 1), BuildingBlock: EYOCIG_clean_linker_4, # of connection points: 2
#     Edge 15, Type (0, 1), BuildingBlock: EYOCIG_clean_linker_4, # of connection points: 2
#     Edge 16, Type (0, 1), BuildingBlock: EYOCIG_clean_linker_4, # of connection points: 2
#     Edge 17, Type (0, 1), BuildingBlock: EYOCIG_clean_linker_4, # of connection points: 2
#     Edge 18, Type (0, 1), BuildingBlock: EYOCIG_clean_linker_4, # of connection points: 2
#     Edge 19, Type (0, 1), BuildingBlock: EYOCIG_clean_linker_4, # of connection points: 2
#     Edge 20, Type (0, 1), BuildingBlock: EYOCIG_clean_linker_4, # of connection points: 2
#     Edge 21, Type (0, 1), BuildingBlock: EYOCIG_clean_linker_4, # of connection points: 2
#     Edge 22, Type (0, 1), BuildingBlock: EYOCIG_clean_linker_4, # of connection points: 2
#     Edge 23, Type (0, 1), BuildingBlock: EYOCIG_clean_linker_4, # of connection points: 2
#     Edge 24, Type (0, 1), BuildingBlock: EYOCIG_clean_linker_4, # of connection points: 2
#     Edge 25, Type (0, 1), BuildingBlock: EYOCIG_clean_linker_4, # of connection points: 2
#     Edge 26, Type (0, 1), BuildingBlock: EYOCIG_clean_linker_4, # of connection points: 2
#     Edge 27, Type (0, 1), BuildingBlock: EYOCIG_clean_linker_4, # of connection points: 2
#     Edge 28, Type (0, 1), BuildingBlock: EYOCIG_clean_linker_4, # of connection points: 2
#     Edge 29, Type (0, 1), BuildingBlock: EYOCIG_clean_linker_4, # of connection points: 2
#     Edge 30, Type (0, 1), BuildingBlock: EYOCIG_clean_linker_4, # of connection points: 2
#     Edge 31, Type (0, 1), BuildingBlock: EYOCIG_clean_linker_4, # of connection points: 2
#     Edge 32, Type (0, 1), BuildingBlock: EYOCIG_clean_linker_4, # of connection points: 2
#     Edge 33, Type (0, 1), BuildingBlock: EYOCIG_clean_linker_4, # of connection points: 2
#     Edge 34, Type (0, 1), BuildingBlock: EYOCIG_clean_linker_4, # of connection points: 2
#     Edge 35, Type (0, 1), BuildingBlock: EYOCIG_clean_linker_4, # of connection points: 2
# Relax obj value: 0.309
# Max RMSD: 0.220
# Mean RMSD: 0.206
data_MOF--net-zzz--node1-LEVNOQ01_clean_sbu_1--node2-ESEHIV_clean_linker_0--edge1-EYOCIG_clean_linker_4
_symmetry_space_group_name_H-M    P1
_symmetry_Int_Tables_number       1
_symmetry_cell_setting            triclinic
loop_
_symmetry_equiv_pos_as_xyz
'x, y, z'
_cell_length_a     32.452934
_cell_length_b     34.09619
_cell_length_c     12.789886
_cell_angle_alpha  89.9135
_cell_angle_beta   90.049981
_cell_angle_gamma 88.317984
loop_
_atom_site_label
_atom_site_type_symbol
_atom_site_fract_x
_atom_site_fract_y
_atom_site_fract_z
_atom_type_partial_charge
H0 H 0.8364 0.58911 0.26977 0.0
H1 H 0.74274 0.57962 0.03685 0.0
H2 H 0.70965 0.61494 0.35084 0.0
C3 C 0.80435 0.59379 0.24665 0.0
C4 C 0.77497 0.60445 0.3214 0.0
C5 C 0.79266 0.58408 0.14606 0.0
C6 C 0.75158 0.58846 0.11505 0.0
C7 C 0.72131 0.60043 0.18762 0.0
C8 C 0.73294 0.60838 0.2923 0.0
H9 H 0.00707 0.848 0.25175 0.0
H10 H 0.02795 0.75993 0.01759 0.0
H11 H 0.9449 0.73827 0.274 0.0
C12 C 1.00142 0.81882 0.22189 0.0
C13 C 0.97408 0.79466 0.27398 0.0
C14 C 0.0207 0.80643 0.13024 0.0
C15 C 0.01324 0.76922 0.08998 0.0
C16 C 0.98591 0.7444 0.14122 0.0
C17 C 0.96611 0.75713 0.23399 0.0
H18 H 0.67483 0.92255 0.2752 0.0
H19 H 0.76501 0.92998 0.03315 0.0
H20 H 0.80379 0.91396 0.35378 0.0
C21 C 0.7069 0.91957 0.25099 0.0
C22 C 0.73774 0.91596 0.32634 0.0
C23 C 0.71671 0.9256 0.14693 0.0
C24 C 0.75772 0.92368 0.11417 0.0
C25 C 0.78954 0.9185 0.18788 0.0
C26 C 0.77959 0.91477 0.29533 0.0
H27 H 0.49627 0.6727 0.24538 0.0
H28 H 0.55896 0.78232 0.26105 0.0
H29 H 0.4754 0.75924 0.00648 0.0
C30 C 0.50188 0.70172 0.21412 0.0
C31 C 0.48256 0.71355 0.12184 0.0
C32 C 0.52942 0.72608 0.26468 0.0
C33 C 0.53747 0.76335 0.22249 0.0
C34 C 0.51757 0.77554 0.12906 0.0
C35 C 0.49006 0.75048 0.07951 0.0
H36 H 0.17474 0.43193 0.16379 0.0
H37 H 0.2685 0.44119 0.39652 0.0
H38 H 0.30133 0.40519 0.08287 0.0
C39 C 0.20676 0.42712 0.18691 0.0
C40 C 0.23607 0.41615 0.11226 0.0
C41 C 0.21853 0.43688 0.2874 0.0
C42 C 0.2596 0.43232 0.3184 0.0
C43 C 0.28978 0.42005 0.24592 0.0
C44 C 0.27808 0.41201 0.14136 0.0
H45 H 1.00374 0.17306 0.18161 0.0
H46 H 0.98294 0.26106 0.41601 0.0
H47 H 0.066 0.28275 0.15965 0.0
C48 C 0.0094 0.20223 0.21154 0.0
C49 C 0.03676 0.22639 0.15952 0.0
C50 C 0.99014 0.2146 0.30324 0.0
C51 C 0.99763 0.25179 0.34358 0.0
C52 C 0.02498 0.2766 0.2924 0.0
C53 C 0.04477 0.2639 0.1996 0.0
H54 H 0.33657 0.09857 0.15998 0.0
H55 H 0.2463 0.09112 0.40182 0.0
H56 H 0.20764 0.10723 0.08114 0.0
C57 C 0.30449 0.10156 0.18413 0.0
C58 C 0.27367 0.1052 0.10872 0.0
C59 C 0.29465 0.09551 0.28816 0.0
C60 C 0.25362 0.09745 0.32083 0.0
C61 C 0.22182 0.10266 0.24705 0.0
C62 C 0.23181 0.10641 0.13965 0.0
H63 H 0.51465 0.34737 0.18782 0.0
H64 H 0.4517 0.23787 0.17313 0.0
H65 H 0.53552 0.26098 0.4271 0.0
C66 C 0.50901 0.31838 0.21927 0.0
C67 C 0.52837 0.30659 0.31152 0.0
C68 C 0.48137 0.29404 0.16901 0.0
C69 C 0.47326 0.25683 0.21145 0.0
C70 C 0.49322 0.24467 0.30484 0.0
C71 C 0.52083 0.26972 0.3541 0.0
O72 O 0.10335 0.95054 0.76512 0.0
Mg73 Mg 0.07407 0.96427 0.62265 0.0
O74 O 0.0411 0.96519 0.82318 0.0
Mg75 Mg 0.00549 0.01053 0.71682 0.0
O76 O 0.0586 0.02208 0.59182 0.0
O77 O 0.1107 0.98822 0.51392 0.0
O78 O 0.96988 0.05587 0.61042 0.0
O79 O 0.03421 0.06238 0.81048 0.0
Mg80 Mg 0.93689 0.05676 0.8108 0.0
O81 O 0.95241 0.99897 0.8419 0.0
O82 O 0.90757 0.07039 0.66833 0.0
O83 O 0.97993 0.09746 0.86572 0.0
O84 O 0.90033 0.03288 0.91977 0.0
C85 C 0.99238 0.92851 0.57721 0.0
C86 C 0.07631 0.94831 0.83526 0.0
C87 C 0.08959 0.02048 0.52639 0.0
C88 C 0.93463 0.07268 0.59826 0.0
C89 C 0.01857 0.09257 0.8562 0.0
C90 C 0.92145 1.00061 0.90741 0.0
O91 O 0.03101 0.92363 0.56752 0.0
O92 O 0.97677 0.95868 0.62313 0.0
O93 O 0.39661 0.99761 0.77062 0.0
Mg94 Mg 0.43087 0.95046 0.69756 0.0
O95 O 0.44741 0.03907 0.80209 0.0
Mg96 Mg 0.50565 0.01041 0.71757 0.0
O97 O 0.48673 0.94905 0.77063 0.0
O98 O 0.44529 0.89859 0.77785 0.0
O99 O 0.56393 0.9818 0.63308 0.0
O100 O 0.5449 0.00803 0.86452 0.0
Mg101 Mg 0.58043 0.07054 0.73756 0.0
O102 O 0.52458 0.07173 0.66454 0.0
O103 O 0.61467 0.02334 0.66459 0.0
O104 O 0.57325 0.06408 0.90137 0.0
O105 O 0.5658 0.12231 0.65689 0.0
C106 C 0.4451 0.99208 0.51032 0.0
C107 C 0.40935 0.02984 0.80679 0.0
C108 C 0.47908 0.91442 0.80607 0.0
C109 C 0.60198 0.99109 0.62842 0.0
C110 C 0.56614 0.02887 0.9248 0.0
C111 C 0.53206 0.10636 0.62888 0.0
O112 O 0.43791 0.95688 0.53371 0.0
O113 O 0.4664 0.01284 0.5706 0.0
O114 O 0.53391 0.42457 0.86946 0.0
Mg115 Mg 0.57466 0.46705 0.81298 0.0
O116 O 0.47846 0.45752 0.81262 0.0
Mg117 Mg 0.50559 0.50998 0.71681 0.0
O118 O 0.55767 0.52457 0.84355 0.0
O119 O 0.61027 0.49147 0.92248 0.0
O120 O 0.53268 0.56245 0.62097 0.0
O121 O 0.46778 0.55453 0.82058 0.0
Mg122 Mg 0.43647 0.5528 0.62103 0.0
O123 O 0.45352 0.49534 0.5901 0.0
O124 O 0.47714 0.59539 0.56475 0.0
O125 O 0.40515 0.56599 0.76067 0.0
O126 O 0.40092 0.52847 0.51126 0.0
C127 C 0.57938 0.45001 0.60255 0.0
C128 C 0.49517 0.42805 0.85973 0.0
C129 C 0.58855 0.52337 0.90964 0.0
C130 C 0.51589 0.59194 0.57415 0.0
C131 C 0.43176 0.56984 0.83127 0.0
C132 C 0.42266 0.49658 0.52396 0.0
O133 O 0.60594 0.45371 0.67337 0.0
O134 O 0.54341 0.46544 0.61305 0.0
O135 O 0.93468 0.44831 0.87151 0.0
Mg136 Mg 0.93264 0.45114 0.70668 0.0
O137 O 0.96262 0.50592 0.85754 0.0
Mg138 Mg 0.00561 0.51045 0.717 0.0
O139 O 0.99013 0.4508 0.64188 0.0
O140 O 0.94666 0.40225 0.61737 0.0
O141 O 0.04863 0.51499 0.57644 0.0
O142 O 0.06171 0.47828 0.80285 0.0
Mg143 Mg 0.07862 0.56971 0.7277 0.0
O144 O 0.02109 0.57008 0.79225 0.0
O145 O 0.07665 0.57259 0.56289 0.0
O146 O 0.11278 0.52061 0.7913 0.0
O147 O 0.06459 0.61858 0.81708 0.0
C148 C 0.91162 0.53369 0.61813 0.0
C149 C 0.94069 0.48211 0.90752 0.0
C150 C 0.98186 0.4174 0.59926 0.0
C151 C 0.07061 0.53882 0.52666 0.0
C152 C 0.09955 0.48711 0.81597 0.0
C153 C 0.02935 0.60347 0.83493 0.0
O154 O 0.89844 0.50019 0.643 0.0
O155 O 0.94946 0.54257 0.63112 0.0
C156 C 0.14962 0.08986 0.3341 0.0
C157 C 0.18008 0.09677 0.28321 0.0
C158 C 0.12029 0.07411 0.40409 0.0
C159 C 0.10175 0.05377 0.46484 0.0
C160 C 0.4857 0.17852 0.41003 0.0
C161 C 0.48593 0.2072 0.35405 0.0
C162 C 0.49314 0.1482 0.4846 0.0
C163 C 0.50696 0.12572 0.55003 0.0
C164 C 0.36325 0.42791 0.33004 0.0
C165 C 0.33241 0.42217 0.27931 0.0
C166 C 0.39279 0.44303 0.40056 0.0
C167 C 0.41119 0.4632 0.46197 0.0
C168 C 0.03194 0.34394 0.39151 0.0
C169 C 0.03191 0.31463 0.3383 0.0
C170 C 0.02383 0.37502 0.46288 0.0
C171 C 0.00906 0.39782 0.52584 0.0
C172 C 0.86167 0.93131 0.10048 0.0
C173 C 0.83126 0.92439 0.15159 0.0
C174 C 0.8909 0.94705 0.0302 0.0
C175 C 0.90936 0.96736 0.96923 0.0
C176 C 0.52509 0.84184 0.02445 0.0
C177 C 0.52483 0.81308 0.08013 0.0
C178 C 0.51776 0.87228 0.95017 0.0
C179 C 0.50407 0.89488 0.88486 0.0
C180 C 0.6479 0.59218 0.10342 0.0
C181 C 0.67871 0.59807 0.15418 0.0
C182 C 0.61841 0.57698 0.0329 0.0
C183 C 0.60002 0.55677 0.97155 0.0
C184 C 0.97907 0.67701 0.04227 0.0
C185 C 0.97904 0.70635 0.09542 0.0
C186 C 0.98726 0.64591 0.97099 0.0
C187 C 1.00209 0.62309 0.90815 0.0
C188 C 0.94721 0.16132 0.40062 0.0
C189 C 0.96624 0.18695 0.36004 0.0
C190 C 0.93378 0.12917 0.45904 0.0
C191 C 0.93087 0.10392 0.52402 0.0
C192 C 0.35638 0.06061 0.38444 0.0
C193 C 0.32583 0.07672 0.35086 0.0
C194 C 0.38954 0.03587 0.41445 0.0
C195 C 0.4138 0.01343 0.45487 0.0
C196 C 0.57072 0.36068 0.40697 0.0
C197 C 0.55195 0.33471 0.3673 0.0
C198 C 0.58322 0.39327 0.46481 0.0
C199 C 0.58497 0.41876 0.52924 0.0
C200 C 0.16075 0.47754 0.38416 0.0
C201 C 0.18938 0.45919 0.34807 0.0
C202 C 0.12808 0.50157 0.4203 0.0
C203 C 0.10293 0.52115 0.46668 0.0
C204 C 0.06366 0.85968 0.03287 0.0
C205 C 0.04462 0.83406 0.07344 0.0
C206 C 0.07712 0.89183 0.97448 0.0
C207 C 0.08004 0.91707 0.9095 0.0
C208 C 0.65493 0.96043 0.05068 0.0
C209 C 0.6855 0.94435 0.08425 0.0
C210 C 0.62175 0.98514 0.02067 0.0
C211 C 0.59746 0.00755 0.98026 0.0
C212 C 0.44036 0.65941 0.02617 0.0
C213 C 0.45905 0.68543 0.06586 0.0
C214 C 0.42792 0.62674 0.96854 0.0
C215 C 0.42617 0.60117 0.90434 0.0
C216 C 0.85058 0.54356 0.04948 0.0
C217 C 0.82188 0.56185 0.08544 0.0
C218 C 0.88325 0.51947 0.01363 0.0
C219 C 0.90837 0.49979 0.96746 0.0
C220 C 0.06177 0.18598 -0.00096 0.0
C221 C 0.05551 0.2103 0.06618 0.0
C222 C 0.05718 0.15189 0.93756 0.0
C223 C 0.04418 0.12278 0.89683 0.0
C224 C 0.31345 0.09051 0.93722 0.0
C225 C 0.2878 0.09901 0.00275 0.0
C226 C 0.34895 0.07445 0.88598 0.0
C227 C 0.37871 0.05642 0.85169 0.0
C228 C 0.45538 0.33393 0.00776 0.0
C229 C 0.46213 0.30986 0.07561 0.0
C230 C 0.45891 0.36788 0.9447 0.0
C231 C 0.47075 0.3972 0.90223 0.0
C232 C 0.19461 0.4238 0.9406 0.0
C233 C 0.22094 0.41698 0.00592 0.0
C234 C 0.15888 0.43983 0.88989 0.0
C235 C 0.12936 0.45872 0.8571 0.0
C236 C 0.94912 0.83511 0.43444 0.0
C237 C 0.95535 0.81077 0.36733 0.0
C238 C 0.95374 0.8692 0.49588 0.0
C239 C 0.96675 0.89831 0.53662 0.0
C240 C 0.69799 0.93059 0.49791 0.0
C241 C 0.72363 0.92213 0.43234 0.0
C242 C 0.66246 0.94659 0.54918 0.0
C243 C 0.63266 0.96456 0.58349 0.0
C244 C 0.55538 0.68615 0.42592 0.0
C245 C 0.54861 0.71023 0.35811 0.0
C246 C 0.55195 0.65218 0.48899 0.0
C247 C 0.54021 0.62284 0.53151 0.0
C248 C 0.81643 0.5967 0.49309 0.0
C249 C 0.79009 0.60349 0.42776 0.0
C250 C 0.85219 0.58078 0.54389 0.0
C251 C 0.88177 0.56199 0.5768 0.0
loop_
_geom_bond_atom_site_label_1
_geom_bond_atom_site_label_2
_geom_bond_distance
_geom_bond_site_symmetry_2
_ccdc_geom_bond_type
H0 C3 0.931 . S
H1 C6 0.928 . S
H2 C8 0.930 . S
C3 H0 0.931 . S
C3 C4 1.413 . S
C3 C5 1.360 . S
C4 C3 1.413 . S
C4 C8 1.429 . S
C5 C3 1.360 . S
C5 C6 1.372 1_554 S
C6 H1 0.928 . S
C6 C5 1.372 1_556 S
C6 C7 1.404 1_556 S
C7 C6 1.404 1_554 S
C7 C8 1.391 . S
C8 H2 0.930 . S
C8 C4 1.429 . S
C8 C7 1.391 . S
H9 C12 0.931 . S
H10 C15 0.928 1_556 S
H11 C17 0.930 . S
C12 H9 0.931 . S
C12 C13 1.413 . S
C12 C14 1.360 . S
C13 C12 1.413 . S
C13 C17 1.429 1_655 S
C14 C12 1.360 . S
C14 C15 1.373 . S
C15 H10 0.928 1_554 S
C15 C14 1.373 . S
C15 C16 1.404 . S
C16 C15 1.404 . S
C16 C17 1.390 1_655 S
C17 H11 0.930 . S
C17 C13 1.429 1_455 S
C17 C16 1.390 1_455 S
H18 C21 0.931 . S
H19 C24 0.928 1_556 S
H20 C26 0.930 . S
C21 H18 0.931 . S
C21 C22 1.413 . S
C21 C23 1.360 . S
C22 C21 1.413 . S
C22 C26 1.429 . S
C23 C21 1.360 . S
C23 C24 1.372 . S
C24 H19 0.928 1_554 S
C24 C23 1.372 . S
C24 C25 1.404 . S
C25 C24 1.404 . S
C25 C26 1.391 . S
C26 H20 0.930 . S
C26 C22 1.429 . S
C26 C25 1.391 . S
H27 C30 0.931 . S
H28 C33 0.928 . S
H29 C35 0.930 1_556 S
C30 H27 0.931 . S
C30 C31 1.413 . S
C30 C32 1.360 . S
C31 C30 1.413 . S
C31 C35 1.429 . S
C32 C30 1.360 . S
C32 C33 1.372 . S
C33 H28 0.928 . S
C33 C32 1.372 . S
C33 C34 1.404 . S
C34 C33 1.404 . S
C34 C35 1.391 . S
C35 H29 0.930 1_554 S
C35 C31 1.429 . S
C35 C34 1.391 . S
H36 C39 0.931 . S
H37 C42 0.928 . S
H38 C44 0.930 . S
C39 H36 0.931 . S
C39 C40 1.413 . S
C39 C41 1.360 . S
C40 C39 1.413 . S
C40 C44 1.429 . S
C41 C39 1.360 . S
C41 C42 1.372 . S
C42 H37 0.928 . S
C42 C41 1.372 . S
C42 C43 1.404 . S
C43 C42 1.404 . S
C43 C44 1.391 . S
C44 H38 0.930 . S
C44 C40 1.429 . S
C44 C43 1.391 . S
H45 C48 0.930 . S
H46 C51 0.928 . S
H47 C53 0.931 . S
C48 H45 0.930 . S
C48 C49 1.413 . S
C48 C50 1.360 . S
C49 C48 1.413 . S
C49 C53 1.429 1_655 S
C50 C48 1.360 . S
C50 C51 1.372 . S
C51 H46 0.928 . S
C51 C50 1.372 . S
C51 C52 1.404 . S
C52 C51 1.404 . S
C52 C53 1.391 1_655 S
C53 H47 0.931 . S
C53 C49 1.429 1_455 S
C53 C52 1.391 1_455 S
H54 C57 0.931 . S
H55 C60 0.928 . S
H56 C62 0.930 . S
C57 H54 0.931 . S
C57 C58 1.413 . S
C57 C59 1.360 . S
C58 C57 1.413 . S
C58 C62 1.429 . S
C59 C57 1.360 . S
C59 C60 1.372 . S
C60 H55 0.928 . S
C60 C59 1.372 . S
C60 C61 1.404 . S
C61 C60 1.404 . S
C61 C62 1.391 . S
C62 H56 0.930 . S
C62 C58 1.429 . S
C62 C61 1.391 . S
H63 C66 0.931 . S
H64 C69 0.928 . S
H65 C71 0.930 . S
C66 H63 0.931 . S
C66 C67 1.413 . S
C66 C68 1.360 . S
C67 C66 1.413 . S
C67 C71 1.429 . S
C68 C66 1.360 . S
C68 C69 1.372 . S
C69 H64 0.928 . S
C69 C68 1.372 . S
C69 C70 1.404 . S
C70 C69 1.404 . S
C70 C71 1.391 . S
C71 H65 0.930 . S
C71 C67 1.429 . S
C71 C70 1.391 . S
O72 Mg73 1.990 . S
O72 C86 1.253 . S
Mg73 O72 1.990 . S
Mg73 O76 2.180 1_565 S
Mg73 O77 2.117 . S
Mg73 O91 2.030 . S
O74 Mg75 2.072 1_465 S
O74 C86 1.260 . S
Mg75 O74 2.072 1_645 S
Mg75 O76 2.099 1_655 S
Mg75 O78 2.079 . S
Mg75 O79 2.072 1_655 S
Mg75 O81 2.099 . S
Mg75 O92 2.079 1_545 S
O76 Mg73 2.180 1_545 S
O76 Mg75 2.099 1_455 S
O76 C87 1.279 . S
O77 Mg73 2.117 . S
O77 C87 1.250 1_565 S
O78 Mg75 2.079 . S
O78 C88 1.264 . S
O79 Mg75 2.072 1_455 S
O79 C89 1.260 . S
Mg80 O81 2.180 . S
Mg80 O82 2.030 . S
Mg80 O83 1.990 . S
Mg80 O84 2.117 . S
O81 Mg75 2.099 . S
O81 Mg80 2.180 . S
O81 C90 1.279 . S
O82 Mg80 2.030 . S
O82 C88 1.248 . S
O83 Mg80 1.990 . S
O83 C89 1.253 1_655 S
O84 Mg80 2.117 . S
O84 C90 1.250 . S
C85 O91 1.248 1_655 S
C85 O92 1.264 . S
C86 O72 1.253 . S
C86 O74 1.260 . S
C87 O76 1.279 . S
C87 O77 1.250 1_545 S
C88 O78 1.264 . S
C88 O82 1.248 . S
C89 O79 1.260 . S
C89 O83 1.253 1_455 S
C90 O81 1.279 . S
C90 O84 1.250 . S
O91 Mg73 2.030 . S
O91 C85 1.248 1_455 S
O92 Mg75 2.079 1_565 S
O92 C85 1.264 . S
O93 Mg94 1.990 1_545 S
O93 C107 1.253 . S
Mg94 O93 1.990 1_565 S
Mg94 O97 2.180 . S
Mg94 O98 2.117 . S
Mg94 O112 2.030 1_565 S
O95 Mg96 2.072 . S
O95 C107 1.260 . S
Mg96 O95 2.072 . S
Mg96 O97 2.099 1_545 S
Mg96 O99 2.079 1_545 S
Mg96 O100 2.072 1_545 S
Mg96 O102 2.099 . S
Mg96 O113 2.079 . S
O97 Mg94 2.180 . S
O97 Mg96 2.099 1_565 S
O97 C108 1.279 . S
O98 Mg94 2.117 . S
O98 C108 1.250 . S
O99 Mg96 2.079 1_565 S
O99 C109 1.264 . S
O100 Mg96 2.072 1_565 S
O100 C110 1.260 1_565 S
Mg101 O102 2.180 . S
Mg101 O103 2.030 1_545 S
Mg101 O104 1.990 . S
Mg101 O105 2.117 . S
O102 Mg96 2.099 . S
O102 Mg101 2.180 . S
O102 C111 1.279 . S
O103 Mg101 2.030 1_565 S
O103 C109 1.248 . S
O104 Mg101 1.990 . S
O104 C110 1.253 . S
O105 Mg101 2.117 . S
O105 C111 1.250 . S
C106 O112 1.248 . S
C106 O113 1.264 . S
C107 O93 1.253 . S
C107 O95 1.260 . S
C108 O97 1.279 . S
C108 O98 1.250 . S
C109 O99 1.264 . S
C109 O103 1.248 . S
C110 O100 1.260 1_545 S
C110 O104 1.253 . S
C111 O102 1.279 . S
C111 O105 1.250 . S
O112 Mg94 2.030 1_545 S
O112 C106 1.248 . S
O113 Mg96 2.079 . S
O113 C106 1.264 . S
O114 Mg115 1.990 . S
O114 C128 1.253 . S
Mg115 O114 1.990 . S
Mg115 O118 2.180 . S
Mg115 O119 2.117 . S
Mg115 O133 2.030 . S
O116 Mg117 2.072 . S
O116 C128 1.260 . S
Mg117 O116 2.072 . S
Mg117 O118 2.099 . S
Mg117 O120 2.079 . S
Mg117 O121 2.072 . S
Mg117 O123 2.099 . S
Mg117 O134 2.079 . S
O118 Mg115 2.180 . S
O118 Mg117 2.099 . S
O118 C129 1.279 . S
O119 Mg115 2.117 . S
O119 C129 1.250 . S
O120 Mg117 2.079 . S
O120 C130 1.264 . S
O121 Mg117 2.072 . S
O121 C131 1.260 . S
Mg122 O123 2.180 . S
Mg122 O124 2.030 . S
Mg122 O125 1.990 . S
Mg122 O126 2.117 . S
O123 Mg117 2.099 . S
O123 Mg122 2.180 . S
O123 C132 1.279 . S
O124 Mg122 2.030 . S
O124 C130 1.248 . S
O125 Mg122 1.990 . S
O125 C131 1.253 . S
O126 Mg122 2.117 . S
O126 C132 1.250 . S
C127 O133 1.248 . S
C127 O134 1.264 . S
C128 O114 1.253 . S
C128 O116 1.260 . S
C129 O118 1.279 . S
C129 O119 1.250 . S
C130 O120 1.264 . S
C130 O124 1.248 . S
C131 O121 1.260 . S
C131 O125 1.253 . S
C132 O123 1.279 . S
C132 O126 1.250 . S
O133 Mg115 2.030 . S
O133 C127 1.248 . S
O134 Mg117 2.079 . S
O134 C127 1.264 . S
O135 Mg136 1.990 . S
O135 C149 1.253 . S
Mg136 O135 1.990 . S
Mg136 O139 2.180 . S
Mg136 O140 2.117 . S
Mg136 O154 2.030 . S
O137 Mg138 2.072 1_655 S
O137 C149 1.260 . S
Mg138 O137 2.072 1_455 S
Mg138 O139 2.099 1_455 S
Mg138 O141 2.079 . S
Mg138 O142 2.072 . S
Mg138 O144 2.099 . S
Mg138 O155 2.079 1_455 S
O139 Mg136 2.180 . S
O139 Mg138 2.099 1_655 S
O139 C150 1.279 . S
O140 Mg136 2.117 . S
O140 C150 1.250 . S
O141 Mg138 2.079 . S
O141 C151 1.264 . S
O142 Mg138 2.072 . S
O142 C152 1.260 . S
Mg143 O144 2.180 . S
Mg143 O145 2.030 . S
Mg143 O146 1.990 . S
Mg143 O147 2.117 . S
O144 Mg138 2.099 . S
O144 Mg143 2.180 . S
O144 C153 1.279 . S
O145 Mg143 2.030 . S
O145 C151 1.248 . S
O146 Mg143 1.990 . S
O146 C152 1.253 . S
O147 Mg143 2.117 . S
O147 C153 1.250 . S
C148 O154 1.248 . S
C148 O155 1.264 . S
C149 O135 1.253 . S
C149 O137 1.260 . S
C150 O139 1.279 . S
C150 O140 1.250 . S
C151 O141 1.264 . S
C151 O145 1.248 . S
C152 O142 1.260 . S
C152 O146 1.253 . S
C153 O144 1.279 . S
C153 O147 1.250 . S
O154 Mg136 2.030 . S
O154 C148 1.248 . S
O155 Mg138 2.079 1_655 S
O155 C148 1.264 . S
C156 C157 1.170 . S
C156 C158 1.380 . S
C157 C156 1.170 . S
C158 C156 1.380 . S
C158 C159 1.170 . S
C159 C158 1.170 . S
C160 C161 1.170 . S
C160 C162 1.380 . S
C161 C160 1.170 . S
C162 C160 1.380 . S
C162 C163 1.170 . S
C163 C162 1.170 . S
C164 C165 1.170 . S
C164 C166 1.380 . S
C165 C164 1.170 . S
C166 C164 1.380 . S
C166 C167 1.170 . S
C167 C166 1.170 . S
C168 C169 1.170 . S
C168 C170 1.380 . S
C169 C168 1.170 . S
C170 C168 1.380 . S
C170 C171 1.170 . S
C171 C170 1.170 . S
C172 C173 1.170 1_556 S
C172 C174 1.380 . S
C173 C172 1.170 1_554 S
C174 C172 1.380 . S
C174 C175 1.170 . S
C175 C174 1.170 . S
C176 C177 1.170 1_556 S
C176 C178 1.380 . S
C177 C176 1.170 1_554 S
C178 C176 1.380 . S
C178 C179 1.170 . S
C179 C178 1.170 . S
C180 C181 1.170 1_556 S
C180 C182 1.380 . S
C181 C180 1.170 1_554 S
C182 C180 1.380 . S
C182 C183 1.170 . S
C183 C182 1.170 . S
C184 C185 1.170 1_556 S
C184 C186 1.380 . S
C185 C184 1.170 1_554 S
C186 C184 1.380 . S
C186 C187 1.170 . S
C187 C186 1.170 . S
C188 C189 1.163 1_655 S
C188 C190 1.380 . S
C189 C188 1.163 1_455 S
C190 C188 1.380 . S
C190 C191 1.170 . S
C191 C190 1.170 . S
C192 C193 1.170 . S
C192 C194 1.380 . S
C193 C192 1.170 . S
C194 C192 1.380 . S
C194 C195 1.170 . S
C195 C194 1.170 . S
C196 C197 1.170 . S
C196 C198 1.380 . S
C197 C196 1.170 . S
C198 C196 1.380 . S
C198 C199 1.170 . S
C199 C198 1.170 . S
C200 C201 1.170 . S
C200 C202 1.380 . S
C201 C200 1.170 . S
C202 C200 1.380 . S
C202 C203 1.170 . S
C203 C202 1.170 . S
C204 C205 1.168 1_456 S
C204 C206 1.380 . S
C205 C204 1.168 1_654 S
C206 C204 1.380 . S
C206 C207 1.170 . S
C207 C206 1.170 . S
C208 C209 1.170 . S
C208 C210 1.380 . S
C209 C208 1.170 . S
C210 C208 1.380 . S
C210 C211 1.170 . S
C211 C210 1.170 . S
C212 C213 1.170 1_556 S
C212 C214 1.380 . S
C213 C212 1.170 1_554 S
C214 C212 1.380 . S
C214 C215 1.170 . S
C215 C214 1.170 . S
C216 C217 1.170 . S
C216 C218 1.380 . S
C217 C216 1.170 . S
C218 C216 1.380 . S
C218 C219 1.170 . S
C219 C218 1.170 . S
C220 C221 1.170 . S
C220 C222 1.380 . S
C221 C220 1.170 . S
C222 C220 1.380 . S
C222 C223 1.170 1_554 S
C223 C222 1.170 1_556 S
C224 C225 1.170 . S
C224 C226 1.380 . S
C225 C224 1.170 . S
C226 C224 1.380 . S
C226 C227 1.170 1_554 S
C227 C226 1.170 1_556 S
C228 C229 1.170 . S
C228 C230 1.380 1_554 S
C229 C228 1.170 . S
C230 C228 1.380 1_556 S
C230 C231 1.170 . S
C231 C230 1.170 . S
C232 C233 1.170 . S
C232 C234 1.380 . S
C233 C232 1.170 . S
C234 C232 1.380 . S
C234 C235 1.170 1_554 S
C235 C234 1.170 1_556 S
C236 C237 1.171 . S
C236 C238 1.380 . S
C237 C236 1.171 . S
C238 C236 1.380 . S
C238 C239 1.170 . S
C239 C238 1.170 . S
C240 C241 1.170 . S
C240 C242 1.380 . S
C241 C240 1.170 . S
C242 C240 1.380 . S
C242 C243 1.170 . S
C243 C242 1.170 . S
C244 C245 1.170 . S
C244 C246 1.380 . S
C245 C244 1.170 . S
C246 C244 1.380 . S
C246 C247 1.170 . S
C247 C246 1.170 . S
C248 C249 1.170 . S
C248 C250 1.380 . S
C249 C248 1.170 . S
C250 C248 1.380 . S
C250 C251 1.170 . S
C251 C250 1.170 . S
C157 C61 1.685 . S
C159 C87 1.628 . S
C163 C111 1.363 . S
C161 C70 1.563 . S
C167 C132 1.609 . S
C165 C43 1.688 . S
C171 C150 1.406 . S
C169 C52 1.569 . S
C175 C90 1.468 1_565 S
C173 C25 1.575 . S
C177 C34 1.403 . S
C179 C108 1.293 . S
C181 C7 1.568 . S
C183 C129 1.444 . S
C185 C16 1.412 1_455 S
C187 C153 1.290 . S
C191 C88 0.757 . S
C189 C50 0.692 1_455 S
C195 C106 0.838 . S
C193 C59 0.890 . S
C199 C127 0.725 . S
C197 C67 0.686 . S
C201 C41 0.828 . S
C203 C151 0.843 . S
C205 C14 0.765 . S
C207 C86 0.810 . S
C211 C110 0.948 1_565 S
C209 C23 0.890 1_556 S
C215 C131 0.782 . S
C213 C31 0.794 . S
C217 C5 0.865 1_556 S
C219 C149 0.962 . S
C221 C49 1.552 1_455 S
C223 C89 1.563 . S
C225 C58 1.695 . S
C227 C107 1.659 . S
C231 C128 1.511 . S
C229 C68 1.575 . S
C235 C152 1.651 . S
C233 C40 1.708 . S
C237 C13 1.468 . S
C239 C85 1.407 . S
C243 C109 1.514 . S
C241 C22 1.548 . S
C247 C130 1.376 . S
C245 C32 1.441 . S
C249 C4 1.567 . S
C251 C148 1.532 . S
