# Generated by pormake.
# Topology zzz, (3,6)-cn, num edge types: 1
# Building blocks:
#     Node 0, Type 0, BuildingBlock: KAKCAD_clean_linker_0, # of connection points: 3
#     Node 1, Type 0, BuildingBlock: KAKCAD_clean_linker_0, # of connection points: 3
#     Node 2, Type 0, BuildingBlock: KAKCAD_clean_linker_0, # of connection points: 3
#     Node 3, Type 0, BuildingBlock: KAKCAD_clean_linker_0, # of connection points: 3
#     Node 4, Type 0, BuildingBlock: KAKCAD_clean_linker_0, # of connection points: 3
#     Node 5, Type 0, BuildingBlock: KAKCAD_clean_linker_0, # of connection points: 3
#     Node 6, Type 0, BuildingBlock: KAKCAD_clean_linker_0, # of connection points: 3
#     Node 7, Type 0, BuildingBlock: KAKCAD_clean_linker_0, # of connection points: 3
#     Node 8, Type 1, BuildingBlock: MIFKUJ_clean_sbu_0, # of connection points: 6
#     Node 9, Type 1, BuildingBlock: MIFKUJ_clean_sbu_0, # of connection points: 6
#     Node 10, Type 1, BuildingBlock: MIFKUJ_clean_sbu_0, # of connection points: 6
#     Node 11, Type 1, BuildingBlock: MIFKUJ_clean_sbu_0, # of connection points: 6
#     Edge 12, Type (0, 1), BuildingBlock: CIFDUS_clean_linker_0, # of connection points: 2
#     Edge 13, Type (0, 1), BuildingBlock: CIFDUS_clean_linker_0, # of connection points: 2
#     Edge 14, Type (0, 1), BuildingBlock: CIFDUS_clean_linker_0, # of connection points: 2
#     Edge 15, Type (0, 1), BuildingBlock: CIFDUS_clean_linker_0, # of connection points: 2
#     Edge 16, Type (0, 1), BuildingBlock: CIFDUS_clean_linker_0, # of connection points: 2
#     Edge 17, Type (0, 1), BuildingBlock: CIFDUS_clean_linker_0, # of connection points: 2
#     Edge 18, Type (0, 1), BuildingBlock: CIFDUS_clean_linker_0, # of connection points: 2
#     Edge 19, Type (0, 1), BuildingBlock: CIFDUS_clean_linker_0, # of connection points: 2
#     Edge 20, Type (0, 1), BuildingBlock: CIFDUS_clean_linker_0, # of connection points: 2
#     Edge 21, Type (0, 1), BuildingBlock: CIFDUS_clean_linker_0, # of connection points: 2
#     Edge 22, Type (0, 1), BuildingBlock: CIFDUS_clean_linker_0, # of connection points: 2
#     Edge 23, Type (0, 1), BuildingBlock: CIFDUS_clean_linker_0, # of connection points: 2
#     Edge 24, Type (0, 1), BuildingBlock: CIFDUS_clean_linker_0, # of connection points: 2
#     Edge 25, Type (0, 1), BuildingBlock: CIFDUS_clean_linker_0, # of connection points: 2
#     Edge 26, Type (0, 1), BuildingBlock: CIFDUS_clean_linker_0, # of connection points: 2
#     Edge 27, Type (0, 1), BuildingBlock: CIFDUS_clean_linker_0, # of connection points: 2
#     Edge 28, Type (0, 1), BuildingBlock: CIFDUS_clean_linker_0, # of connection points: 2
#     Edge 29, Type (0, 1), BuildingBlock: CIFDUS_clean_linker_0, # of connection points: 2
#     Edge 30, Type (0, 1), BuildingBlock: CIFDUS_clean_linker_0, # of connection points: 2
#     Edge 31, Type (0, 1), BuildingBlock: CIFDUS_clean_linker_0, # of connection points: 2
#     Edge 32, Type (0, 1), BuildingBlock: CIFDUS_clean_linker_0, # of connection points: 2
#     Edge 33, Type (0, 1), BuildingBlock: CIFDUS_clean_linker_0, # of connection points: 2
#     Edge 34, Type (0, 1), BuildingBlock: CIFDUS_clean_linker_0, # of connection points: 2
#     Edge 35, Type (0, 1), BuildingBlock: CIFDUS_clean_linker_0, # of connection points: 2
# Relax obj value: 0.313
# Max RMSD: 0.211
# Mean RMSD: 0.191
data_MOF--net-zzz--node1-MIFKUJ_clean_sbu_0--node2-KAKCAD_clean_linker_0--edge1-CIFDUS_clean_linker_0
_symmetry_space_group_name_H-M    P1
_symmetry_Int_Tables_number       1
_symmetry_cell_setting            triclinic
loop_
_symmetry_equiv_pos_as_xyz
'x, y, z'
_cell_length_a     51.229226
_cell_length_b     53.084297
_cell_length_c     19.260235
_cell_angle_alpha  89.406247
_cell_angle_beta   89.910103
_cell_angle_gamma 91.797565
loop_
_atom_site_label
_atom_site_type_symbol
_atom_site_fract_x
_atom_site_fract_y
_atom_site_fract_z
_atom_type_partial_charge
C0 C 0.79837 0.59691 0.8768 0.0
C1 C 0.79656 0.5738 0.84154 0.0
C2 C 0.77979 0.60278 0.92661 0.0
C3 C 0.75871 0.58602 0.93997 0.0
C4 C 0.75536 0.56429 0.89968 0.0
C5 C 0.77421 0.55813 0.85117 0.0
C6 C 0.74297 0.58817 0.00331 0.0
C7 C 0.71587 0.58658 -0.00086 0.0
C8 C 0.70054 0.58057 0.05787 0.0
C9 C 0.71306 0.57635 0.12238 0.0
C10 C 0.7406 0.57876 0.12708 0.0
C11 C 0.75514 0.58536 0.0675 0.0
C12 C 0.75554 0.571 0.18941 0.0
C13 C 0.75549 0.58507 0.25077 0.0
C14 C 0.77367 0.55182 0.18255 0.0
C15 C 0.79232 0.5477 0.23383 0.0
C16 C 0.7932 0.56246 0.29384 0.0
C17 C 0.67255 0.57409 0.04472 0.0
C18 C 0.65819 0.58974 0.00046 0.0
C19 C 0.66303 0.54941 0.0575 0.0
C20 C 0.64178 0.53961 0.01959 0.0
C21 C 0.62987 0.55418 0.96746 0.0
C22 C 0.63728 0.57985 0.96168 0.0
C23 C 0.7741 0.58071 0.30288 0.0
H24 H 0.81497 0.60978 0.86898 0.0
H25 H 0.78258 0.61966 0.95721 0.0
H26 H 0.73933 0.55096 0.90992 0.0
H27 H 0.77221 0.54011 0.82554 0.0
H28 H 0.70688 0.5877 0.94825 0.0
H29 H 0.77632 0.5859 0.06987 0.0
H30 H 0.70171 0.5701 0.16719 0.0
H31 H 0.742 0.6002 0.25684 0.0
H32 H 0.77416 0.54072 0.13568 0.0
H33 H 0.80636 0.53315 0.22603 0.0
H34 H 0.66504 0.60892 0.98986 0.0
H35 H 0.67361 0.53688 0.09123 0.0
H36 H 0.77426 0.5923 0.34884 0.0
H37 H 0.62865 0.59184 0.92274 0.0
H38 H 0.63596 0.52001 0.02761 0.0
C39 C 0.00112 0.77478 0.85717 0.0
C40 C 0.01967 0.79396 0.87201 0.0
C41 C 0.99568 0.7557 0.90614 0.0
C42 C 0.00875 0.75574 0.97022 0.0
C43 C 0.02861 0.77399 0.98248 0.0
C44 C 0.03391 0.79303 0.9339 0.0
C45 C 0.00092 0.73786 0.02624 0.0
C46 C 0.99776 0.71213 0.01337 0.0
C47 C 0.99283 0.69492 0.06798 0.0
C48 C 0.99056 0.70375 0.13666 0.0
C49 C 0.99278 0.72988 0.14925 0.0
C50 C 0.99782 0.7466 0.09386 0.0
C51 C 0.99212 0.74103 0.21926 0.0
C52 C 0.96891 0.75114 0.24388 0.0
C53 C 0.01586 0.74855 0.25003 0.0
C54 C 0.01662 0.76703 0.30126 0.0
C55 C 0.99359 0.77848 0.3232 0.0
C56 C 0.99311 0.66793 0.05025 0.0
C57 C 0.97193 0.65714 0.0136 0.0
C58 C 0.01727 0.65622 0.04841 0.0
C59 C 0.02095 0.6357 0.00485 0.0
C60 C 0.00042 0.62638 0.9631 0.0
C61 C 0.9755 0.63632 0.9708 0.0
C62 C 0.9696 0.76956 0.29568 0.0
H63 H 0.98972 0.77547 0.80989 0.0
H64 H 0.98031 0.74179 0.89555 0.0
H65 H 0.0394 0.77406 0.03082 0.0
H66 H 0.04827 0.80776 0.94604 0.0
H67 H 0.00049 0.70527 0.96105 0.0
H68 H -0.00013 0.76664 0.10392 0.0
H69 H 0.98756 0.69055 0.17941 0.0
H70 H 0.95044 0.74614 0.21955 0.0
H71 H 0.0341 0.74168 0.23019 0.0
H72 H 0.03555 0.77354 0.31995 0.0
H73 H 0.95331 0.66627 0.01284 0.0
H74 H 0.03401 0.66457 0.07487 0.0
H75 H 0.95143 0.77756 0.31196 0.0
H76 H 0.95942 0.62959 0.9388 0.0
H77 H 0.04033 0.62831 -0.00014 0.0
C78 C 0.69999 0.90825 0.86275 0.0
C79 C 0.6823 0.92765 0.87329 0.0
C80 C 0.72064 0.90481 0.90907 0.0
C81 C 0.72361 0.9206 0.96658 0.0
C82 C 0.70669 0.94061 0.97515 0.0
C83 C 0.68623 0.94406 0.9292 0.0
C84 C 0.74326 0.91599 0.0206 0.0
C85 C 0.76985 0.91586 0.00467 0.0
C86 C 0.78867 0.91705 0.05783 0.0
C87 C 0.78035 0.91818 0.12795 0.0
C88 C 0.75342 0.91682 0.14377 0.0
C89 C 0.73529 0.91532 0.08984 0.0
C90 C 0.74239 0.92039 0.21387 0.0
C91 C 0.72985 0.89979 0.24765 0.0
C92 C 0.73566 0.94483 0.23248 0.0
C93 C 0.71496 0.94859 0.27838 0.0
C94 C 0.70063 0.92795 0.3075 0.0
C95 C 0.81648 0.92034 0.03686 0.0
C96 C 0.8272 0.90381 0.9887 0.0
C97 C 0.8306 0.94249 0.05364 0.0
C98 C 0.85398 0.94894 0.01895 0.0
C99 C 0.8639 0.93324 0.96711 0.0
C100 C 0.8507 0.91008 0.95462 0.0
C101 C 0.70937 0.90352 0.29447 0.0
H102 H 0.69756 0.89549 0.81956 0.0
H103 H 0.73362 0.88935 0.90147 0.0
H104 H 0.7089 0.95326 0.01872 0.0
H105 H 0.67284 0.95898 0.93938 0.0
H106 H 0.77593 0.91681 0.9507 0.0
H107 H 0.71457 0.91533 0.1019 0.0
H108 H 0.79455 0.9204 0.16924 0.0
H109 H 0.73425 0.88073 0.23296 0.0
H110 H 0.74444 0.961 0.20552 0.0
H111 H 0.70891 0.96771 0.28603 0.0
H112 H 0.81665 0.88658 0.97483 0.0
H113 H 0.82259 0.95576 0.08967 0.0
H114 H 0.6994 0.88713 0.31712 0.0
H115 H 0.85799 0.89716 0.91657 0.0
H116 H 0.8633 0.96705 0.02981 0.0
C117 C 0.46029 0.71979 0.33695 0.0
C118 C 0.48516 0.70935 0.33928 0.0
C119 C 0.45515 0.73927 0.29013 0.0
C120 C 0.47475 0.74847 0.24468 0.0
C121 C 0.50043 0.74056 0.25403 0.0
C122 C 0.50563 0.72108 0.30117 0.0
C123 C 0.4669 0.75671 0.17459 0.0
C124 C 0.47259 0.7809 0.14711 0.0
C125 C 0.46675 0.78614 0.07704 0.0
C126 C 0.45692 0.7668 0.03414 0.0
C127 C 0.45223 0.7424 0.06079 0.0
C128 C 0.45603 0.73804 0.13173 0.0
C129 C 0.44625 0.72076 0.0145 0.0
C130 C 0.43016 0.72313 0.95578 0.0
C131 C 0.45777 0.69747 0.02795 0.0
C132 C 0.45318 0.67708 0.98456 0.0
C133 C 0.43745 0.67952 0.92568 0.0
C134 C 0.47209 0.81117 0.04541 0.0
C135 C 0.45117 0.8262 0.02649 0.0
C136 C 0.49737 0.818 0.02284 0.0
C137 C 0.50152 0.83897 0.9791 0.0
C138 C 0.4804 0.85342 0.95719 0.0
C139 C 0.45531 0.84724 0.98317 0.0
C140 C 0.42598 0.70268 0.9113 0.0
H141 H 0.44424 0.7113 0.36657 0.0
H142 H 0.43513 0.74483 0.28323 0.0
H143 H 0.51575 0.74706 0.21873 0.0
H144 H 0.52498 0.71341 0.30205 0.0
H145 H 0.48142 0.79536 0.17957 0.0
H146 H 0.4519 0.71939 0.15345 0.0
H147 H 0.45418 0.77061 0.97926 0.0
H148 H 0.42095 0.74074 0.94399 0.0
H149 H 0.47108 0.69509 0.07097 0.0
H150 H 0.46291 0.65964 0.99548 0.0
H151 H 0.43147 0.82103 0.0429 0.0
H152 H 0.51365 0.80629 0.03577 0.0
H153 H 0.41401 0.70498 0.86549 0.0
H154 H 0.43871 0.85824 0.96839 0.0
H155 H 0.52105 0.84304 0.95957 0.0
C156 C 0.21524 0.41058 0.35077 0.0
C157 C 0.19139 0.39769 0.3386 0.0
C158 C 0.23628 0.40762 0.30617 0.0
C159 C 0.2339 0.39155 0.24877 0.0
C160 C 0.21106 0.37641 0.24164 0.0
C161 C 0.18989 0.37953 0.28611 0.0
C162 C 0.25251 0.3949 0.19013 0.0
C163 C 0.2789 0.40025 0.20268 0.0
C164 C 0.29491 0.41163 0.15144 0.0
C165 C 0.28473 0.41578 0.08417 0.0
C166 C 0.25836 0.40884 0.06934 0.0
C167 C 0.2427 0.39853 0.1232 0.0
C168 C 0.24489 0.41564 0.00306 0.0
C169 C 0.24862 0.43959 0.97238 0.0
C170 C 0.22423 0.40003 0.97846 0.0
C171 C 0.20565 0.40932 0.93253 0.0
C172 C 0.20771 0.43427 0.90699 0.0
C173 C 0.32028 0.42269 0.17515 0.0
C174 C 0.31993 0.44046 0.22875 0.0
C175 C 0.34421 0.41251 0.15603 0.0
C176 C 0.36717 0.41915 0.19255 0.0
C177 C 0.36626 0.43563 0.24929 0.0
C178 C 0.34256 0.4467 0.26563 0.0
C179 C 0.23051 0.44862 0.92416 0.0
H180 H 0.21706 0.42425 0.39201 0.0
H181 H 0.25349 0.41968 0.31327 0.0
H182 H 0.20885 0.36359 0.1985 0.0
H183 H 0.17175 0.36921 0.27591 0.0
H184 H 0.28653 0.39766 0.25471 0.0
H185 H 0.2219 0.39575 0.11486 0.0
H186 H 0.29679 0.42527 0.04509 0.0
H187 H 0.26442 0.45211 0.98914 0.0
H188 H 0.22114 0.38114 -0.00066 0.0
H189 H 0.18885 0.39723 0.92132 0.0
H190 H 0.3017 0.44846 0.24477 0.0
H191 H 0.34489 0.39849 0.11567 0.0
H192 H 0.23393 0.4674 0.90314 0.0
H193 H 0.34141 0.45977 0.30828 0.0
H194 H 0.38531 0.4105 0.17876 0.0
C195 C 0.97951 0.20198 0.28533 0.0
C196 C 0.99742 0.18246 0.28591 0.0
C197 C 0.98551 0.22452 0.25002 0.0
C198 C 0.00941 0.22771 0.21477 0.0
C199 C 0.02813 0.20911 0.22049 0.0
C200 C 0.02223 0.18671 0.25607 0.0
C201 C 0.01293 0.24808 0.16291 0.0
C202 C 0.00817 0.27301 0.17932 0.0
C203 C 0.00857 0.2919 0.12758 0.0
C204 C 0.01362 0.28537 0.0578 0.0
C205 C 0.01852 0.26005 0.04139 0.0
C206 C 0.01845 0.24185 0.09445 0.0
C207 C 0.02081 0.25035 0.96986 0.0
C208 C 0.99782 0.24521 0.93237 0.0
C209 C 0.04353 0.23772 0.95181 0.0
C210 C 0.04254 0.21828 0.90318 0.0
C211 C 0.01876 0.21104 0.87169 0.0
C212 C 0.00352 0.31798 0.15002 0.0
C213 C 0.98202 0.32199 0.19337 0.0
C214 C 0.02272 0.33725 0.14248 0.0
C215 C 0.0216 0.35913 0.18269 0.0
C216 C 0.00144 0.36196 0.23193 0.0
C217 C 0.98111 0.34346 0.23428 0.0
C218 C 0.99679 0.22573 0.88375 0.0
H219 H 0.96028 0.19924 0.30811 0.0
H220 H 0.97074 0.23863 0.24587 0.0
H221 H 0.0468 0.21138 0.19425 0.0
H222 H 0.03667 0.17224 0.25757 0.0
H223 H 0.0041 0.27767 0.23289 0.0
H224 H 0.02113 0.22224 0.0815 0.0
H225 H 0.01325 0.29958 0.01706 0.0
H226 H 0.97991 0.25429 0.94616 0.0
H227 H 0.06136 0.24092 0.98109 0.0
H228 H 0.05983 0.20741 0.89541 0.0
H229 H 0.9669 0.30742 0.20005 0.0
H230 H 0.03955 0.33461 0.10953 0.0
H231 H 0.97828 0.221 0.8593 0.0
H232 H 0.96529 0.34441 0.27131 0.0
H233 H 0.03721 0.37322 0.17732 0.0
C234 C 0.29061 0.05924 0.34272 0.0
C235 C 0.31592 0.06814 0.32534 0.0
C236 C 0.26945 0.06504 0.30083 0.0
C237 C 0.27296 0.08048 0.24147 0.0
C238 C 0.29769 0.092 0.22949 0.0
C239 C 0.31903 0.08556 0.27018 0.0
C240 C 0.25261 0.08031 0.18634 0.0
C241 C 0.22619 0.07655 0.20324 0.0
C242 C 0.20802 0.06795 0.15361 0.0
C243 C 0.21616 0.0653 0.08384 0.0
C244 C 0.24239 0.07116 0.06505 0.0
C245 C 0.26019 0.07852 0.11674 0.0
C246 C 0.25366 0.06606 0.99549 0.0
C247 C 0.25438 0.04121 0.97147 0.0
C248 C 0.26995 0.08461 0.96335 0.0
C249 C 0.28817 0.0781 0.91285 0.0
C250 C 0.29048 0.05288 0.89285 0.0
C251 C 0.18223 0.05824 0.17982 0.0
C252 C 0.18178 0.04041 0.23442 0.0
C253 C 0.15853 0.06833 0.15779 0.0
C254 C 0.13497 0.06127 0.1917 0.0
C255 C 0.13494 0.04395 0.24755 0.0
C256 C 0.15847 0.03337 0.26775 0.0
C257 C 0.27258 0.03469 0.92062 0.0
H258 H 0.28727 0.04665 0.38663 0.0
H259 H 0.25084 0.05572 0.31242 0.0
H260 H 0.30099 0.10466 0.18568 0.0
H261 H 0.33815 0.09306 0.25534 0.0
H262 H 0.21997 0.07839 0.25673 0.0
H263 H 0.2807 0.08041 0.1031 0.0
H264 H 0.20262 0.05782 0.04552 0.0
H265 H 0.24251 0.02644 0.99622 0.0
H266 H 0.26997 0.10389 0.9813 0.0
H267 H 0.30119 0.09269 0.89157 0.0
H268 H 0.19973 0.03231 0.25254 0.0
H269 H 0.15837 0.08224 0.11627 0.0
H270 H 0.27378 0.01506 0.90665 0.0
H271 H 0.15885 0.01983 0.31022 0.0
H272 H 0.1169 0.06942 0.17483 0.0
C273 C 0.50144 0.27025 0.90791 0.0
C274 C 0.5228 0.27925 0.86772 0.0
C275 C 0.505 0.25253 0.96116 0.0
C276 C 0.52988 0.24331 0.97464 0.0
C277 C 0.55081 0.25086 0.9316 0.0
C278 C 0.54733 0.2686 0.8786 0.0
C279 C 0.53549 0.23227 0.04329 0.0
C280 C 0.53474 0.20615 0.05645 0.0
C281 C 0.54053 0.19713 0.12348 0.0
C282 C 0.54687 0.21415 0.17648 0.0
C283 C 0.54666 0.24017 0.16433 0.0
C284 C 0.54125 0.24901 0.09724 0.0
C285 C 0.54884 0.25817 0.22256 0.0
C286 C 0.53602 0.25274 0.28581 0.0
C287 C 0.56078 0.28212 0.21244 0.0
C288 C 0.55761 0.301 0.26122 0.0
C289 C 0.54278 0.29618 0.32165 0.0
C290 C 0.53753 0.17033 0.14314 0.0
C291 C 0.51279 0.16084 0.16353 0.0
C292 C 0.55974 0.15666 0.15953 0.0
C293 C 0.55737 0.13446 0.19907 0.0
C294 C 0.53282 0.12605 0.22402 0.0
C295 C 0.51046 0.13892 0.20417 0.0
C296 C 0.53322 0.27151 0.3351 0.0
H297 H 0.48221 0.27773 0.90035 0.0
H298 H 0.48872 0.24736 0.99492 0.0
H299 H 0.57031 0.24453 0.94248 0.0
H300 H 0.56435 0.27527 0.84959 0.0
H301 H 0.52949 0.1931 0.01551 0.0
H302 H 0.54043 0.2691 0.08704 0.0
H303 H 0.55094 0.20699 0.22817 0.0
H304 H 0.52654 0.23452 0.29548 0.0
H305 H 0.57135 0.2867 0.165 0.0
H306 H 0.56526 0.31978 0.24903 0.0
H307 H 0.49552 0.17147 0.15279 0.0
H308 H 0.57904 0.16407 0.14582 0.0
H309 H 0.52229 0.26702 0.38203 0.0
H310 H 0.49135 0.13264 0.22273 0.0
H311 H 0.57486 0.12485 0.21417 0.0
Zn312 Zn 0.98444 0.03576 0.62443 0.0
Zn313 Zn -0.00097 0.95728 0.58206 0.0
C314 C 0.98273 0.07401 0.72046 0.0
O315 O 0.95853 0.06534 0.7148 0.0
C316 C -0.00055 0.91324 0.50642 0.0
O317 O 0.02356 0.91692 0.52813 0.0
O318 O 0.96396 0.05746 0.5616 0.0
O319 O 0.01048 0.01619 0.56367 0.0
O320 O 0.02472 0.97946 0.52802 0.0
C321 C 0.96589 0.05715 0.49608 0.0
O322 O 0.97787 0.03853 0.46659 0.0
O323 O 0.00056 0.06269 0.68794 0.0
C324 C -9e-05 0.9257 0.6931 0.0
O325 O 0.97504 0.92886 0.68128 0.0
O326 O 0.01679 0.93745 0.6558 0.0
O327 O 0.97592 0.98088 0.6323 0.0
O328 O 0.95867 0.01339 0.67917 0.0
O329 O 0.98281 0.93001 0.51933 0.0
C330 C 0.02621 0.00353 0.527 0.0
C331 C 0.9589 0.98969 0.67247 0.0
Zn332 Zn 0.471 0.01081 0.62879 0.0
Zn333 Zn 0.52335 0.9759 0.56033 0.0
C334 C 0.4233 0.01777 0.69829 0.0
O335 O 0.41855 -0.00176 0.65836 0.0
C336 C 0.57107 0.97729 0.49215 0.0
O337 O 0.56885 -0.00044 0.52037 0.0
O338 O 0.44906 0.01228 0.54244 0.0
O339 O 0.50351 0.03216 0.60187 0.0
O340 O 0.51194 0.00739 0.51375 0.0
C341 C 0.44529 0.03539 0.52853 0.0
O342 O 0.45624 0.05272 0.56803 0.0
O343 O 0.44648 0.02745 0.69894 0.0
C344 C 0.55433 0.96135 0.66359 0.0
O345 O 0.54572 0.94076 0.63269 0.0
O346 O 0.54502 0.98234 0.64524 0.0
O347 O 0.49526 0.95054 0.59019 0.0
O348 O 0.47565 0.97527 0.66564 0.0
O349 O 0.55161 0.9617 0.4966 0.0
C350 C 0.51157 0.02926 0.53978 0.0
C351 C 0.48214 0.95358 0.64553 0.0
Zn352 Zn 0.51 0.45888 0.61095 0.0
Zn353 Zn 0.48366 0.53455 0.58351 0.0
C354 C 0.51616 0.41419 0.685 0.0
O355 O 0.53907 0.41856 0.65581 0.0
C356 C 0.47599 0.56674 0.47164 0.0
O357 O 0.45274 0.55643 0.48334 0.0
O358 O 0.52728 0.44165 0.5325 0.0
O359 O 0.48147 0.47937 0.57292 0.0
O360 O 0.45691 0.50994 0.54148 0.0
C361 C 0.51173 0.42487 0.50822 0.0
O362 O 0.48725 0.42439 0.52883 0.0
O363 O 0.49852 0.43039 0.67724 0.0
C364 C 0.47765 0.5794 0.65289 0.0
O365 O 0.50014 0.5833 0.62119 0.0
O366 O 0.46616 0.55786 0.64942 0.0
O367 O 0.51351 0.51724 0.63588 0.0
O368 O 0.53452 0.48261 0.66133 0.0
O369 O 0.49539 0.55838 0.50509 0.0
C370 C 0.46142 0.48664 0.54117 0.0
C371 C 0.53189 0.50628 0.66794 0.0
Zn372 Zn 0.04012 0.48623 0.60529 0.0
Zn373 Zn 0.9588 0.50635 0.5935 0.0
C374 C 0.07969 0.4773 0.70088 0.0
O375 O 0.08456 0.50032 0.67756 0.0
C376 C 0.91628 0.52129 0.51509 0.0
O377 O 0.90704 0.50288 0.55497 0.0
O378 O 0.06676 0.48551 0.52938 0.0
O379 O 0.00535 0.47061 0.56342 0.0
O380 O 0.96222 0.47198 0.55314 0.0
C381 C 0.07208 0.4625 0.52073 0.0
O382 O 0.05893 0.44513 0.55657 0.0
O383 O 0.05872 0.46583 0.6812 0.0
C384 C 0.93203 0.53085 0.69227 0.0
O385 O 0.94631 0.54873 0.66176 0.0
O386 O 0.93494 0.50807 0.67511 0.0
O387 O 0.99546 0.51594 0.61963 0.0
O388 O 0.03602 0.52096 0.6482 0.0
O389 O 0.94062 0.52725 0.5183 0.0
C390 C 0.98372 0.46159 0.53898 0.0
C391 C 0.01267 0.52764 0.6551 0.0
H392 H 0.11026 0.06801 0.35236 0.0
H393 H 0.10666 0.00095 0.2283 0.0
H394 H 0.07199 0.98288 0.30276 0.0
H395 H 0.0455 0.9846 0.40825 0.0
H396 H 0.04788 0.05155 0.5332 0.0
H397 H 0.08018 0.07129 0.45364 0.0
C398 C 0.10134 0.04972 0.34096 0.0
C399 C 0.1107 0.03583 0.28466 0.0
C400 C 0.08161 0.03929 0.38486 0.0
C401 C 0.09947 0.01199 0.27088 0.0
C402 C 0.07984 0.0016 0.31378 0.0
C403 C 0.05303 0.00354 0.41818 0.0
C404 C 0.04465 0.0164 0.47741 0.0
C405 C 0.07125 0.0148 0.37186 0.0
C406 C 0.05418 0.04116 0.4884 0.0
C407 C 0.07264 0.05243 0.44286 0.0
H408 H 0.5143 0.12857 0.35512 0.0
H409 H 0.54779 0.07773 0.20907 0.0
H410 H 0.54518 0.0436 0.29572 0.0
H411 H 0.53267 0.02831 0.41131 0.0
H412 H 0.50124 0.07938 0.56073 0.0
H413 H 0.50409 0.11361 0.47456 0.0
C414 C 0.52086 0.10993 0.34248 0.0
C415 C 0.53086 0.10538 0.27584 0.0
C416 C 0.51982 0.09065 0.39303 0.0
C417 C 0.53987 0.08145 0.26 0.0
C418 C 0.53842 0.06204 0.30948 0.0
C419 C 0.52648 0.04693 0.42542 0.0
C420 C 0.51616 0.05109 0.49208 0.0
C421 C 0.52837 0.06645 0.37599 0.0
C422 C 0.50885 0.07551 0.50961 0.0
C423 C 0.51044 0.09508 0.46028 0.0
H424 H 0.37045 0.42853 0.38821 0.0
H425 H 0.41374 0.45561 0.2091 0.0
H426 H 0.44904 0.47141 0.28455 0.0
H427 H 0.46476 0.48209 0.40244 0.0
H428 H 0.42156 0.45477 0.58124 0.0
H429 H 0.38912 0.43411 0.50537 0.0
C430 C 0.38785 0.43754 0.36582 0.0
C431 C 0.38946 0.44121 0.29337 0.0
C432 C 0.40793 0.44657 0.40956 0.0
C433 C 0.41213 0.45262 0.26469 0.0
C434 C 0.4322 0.46175 0.30786 0.0
C435 C 0.44856 0.47103 0.42447 0.0
C436 C 0.44542 0.46977 0.497 0.0
C437 C 0.42995 0.45948 0.38043 0.0
C438 C 0.42436 0.45571 0.52549 0.0
C439 C 0.40576 0.4441 0.48211 0.0
H440 H 0.96071 0.38494 0.29672 0.0
H441 H 0.04509 0.38529 0.28955 0.0
H442 H 0.04711 0.41589 0.38267 0.0
H443 H 0.02486 0.44212 0.46789 0.0
H444 H 0.94096 0.43703 0.48492 0.0
H445 H 0.93895 0.40824 0.38749 0.0
C446 C 0.97966 0.39122 0.31587 0.0
C447 C 0.00266 0.38247 0.28512 0.0
C448 C 0.98081 0.40782 0.37227 0.0
C449 C 0.0269 0.39185 0.31021 0.0
C450 C 0.02815 0.40916 0.36457 0.0
C451 C 0.00626 0.43407 0.45226 0.0
C452 C 0.98327 0.44148 0.48542 0.0
C453 C 0.00523 0.41704 0.39661 0.0
C454 C 0.95912 0.4316 0.46137 0.0
C455 C 0.95789 0.41517 0.40519 0.0
H456 H 0.87132 0.92529 0.8279 0.0
H457 H 0.90748 0.96132 0.0051 0.0
H458 H 0.94075 0.98086 0.92965 0.0
H459 H 0.9575 -0.0094 0.81213 0.0
H460 H 0.92302 0.95321 0.63575 0.0
H461 H 0.89149 0.9308 0.71232 0.0
C462 C 0.88679 0.93688 0.85063 0.0
C463 C 0.88643 0.94208 0.92246 0.0
C464 C 0.90613 0.94791 0.80691 0.0
C465 C 0.90668 0.95745 0.95006 0.0
C466 C 0.92587 0.96856 0.90692 0.0
C467 C 0.94328 0.97724 0.79079 0.0
C468 C 0.9424 0.97352 0.71867 0.0
C469 C 0.92539 0.96444 0.83512 0.0
C470 C 0.92403 0.95621 0.69125 0.0
C471 C 0.90598 0.94353 0.73499 0.0
H472 H 0.44938 0.86363 0.84625 0.0
H473 H 0.52044 0.88873 0.94798 0.0
H474 H 0.52765 0.92114 0.85841 0.0
H475 H 0.51317 0.94304 0.75291 0.0
H476 H 0.44249 0.91817 0.65036 0.0
H477 H 0.43524 0.88522 0.73957 0.0
C478 C 0.46627 0.87639 0.8494 0.0
C479 C 0.48427 0.87381 0.90413 0.0
C480 C 0.47031 0.89496 0.79762 0.0
C481 C 0.50636 0.89017 0.90636 0.0
C482 C 0.51046 0.90877 0.85528 0.0
C483 C 0.49648 0.93005 0.74957 0.0
C484 C 0.47865 0.93246 0.69482 0.0
C485 C 0.49258 0.91131 0.80075 0.0
C486 C 0.45665 0.91616 0.69161 0.0
C487 C 0.45249 0.89751 0.74271 0.0
H488 H 0.58758 0.57352 0.89792 0.0
H489 H 0.6346 0.50744 0.9119 0.0
H490 H 0.6093 0.48769 0.81997 0.0
H491 H 0.57418 0.48873 0.73514 0.0
H492 H 0.52736 0.5546 0.71648 0.0
H493 H 0.55287 0.57512 0.80863 0.0
C494 C 0.59238 0.55483 0.88086 0.0
C495 C 0.61283 0.54194 0.91351 0.0
C496 C 0.57804 0.54361 0.82616 0.0
C497 C 0.61854 0.51765 0.89013 0.0
C498 C 0.60428 0.50639 0.83654 0.0
C499 C 0.56955 0.50765 0.75076 0.0
C500 C 0.54879 0.52005 0.71869 0.0
C501 C 0.58403 0.51915 0.80422 0.0
C502 C 0.54329 0.54462 0.73976 0.0
C503 C 0.55777 0.5563 0.79292 0.0
H504 H 0.97766 0.58056 0.93133 0.0
H505 H 0.03552 0.63572 0.86063 0.0
H506 H 0.04359 0.61087 0.75717 0.0
H507 H 0.03412 0.5734 0.68598 0.0
H508 H 0.97892 0.51656 0.76008 0.0
H509 H 0.97036 0.54152 0.86344 0.0
C510 C 0.99211 0.58696 0.89333 0.0
C511 C 0.00606 0.60984 0.9036 0.0
C512 C 0.99696 0.57234 0.83424 0.0
C513 C 0.02478 0.61799 0.85415 0.0
C514 C 0.02929 0.60389 0.79478 0.0
C515 C 0.01981 0.56684 0.72417 0.0
C516 C 0.00601 0.54394 0.71376 0.0
C517 C 0.01539 0.58111 0.78399 0.0
C518 C 0.98854 0.5349 0.76514 0.0
C519 C 0.98393 0.54901 0.82464 0.0
H520 H 0.97035 0.17029 0.40404 0.0
H521 H 0.00643 0.13772 0.22477 0.0
H522 H 0.99592 0.0955 0.2692 0.0
H523 H 0.98036 0.06805 0.36363 0.0
H524 H 0.94487 0.10033 0.5443 0.0
H525 H 0.95033 0.14237 0.49324 0.0
C526 C 0.97558 0.15393 0.37438 0.0
C527 C 0.98966 0.15707 0.31213 0.0
C528 C 0.96941 0.12966 0.40008 0.0
C529 C 0.99628 0.13574 0.274 0.0
C530 C 0.99005 0.1116 0.29893 0.0
C531 C 0.97323 0.08418 0.39117 0.0
C532 C 0.9626 0.08107 0.45796 0.0
C533 C 0.97714 0.10835 0.3626 0.0
C534 C 0.95332 0.10221 0.49283 0.0
C535 C 0.95663 0.12631 0.464 0.0
H536 H 0.36232 0.09236 0.35563 0.0
H537 H 0.32185 0.0199 0.37335 0.0
H538 H 0.35927 0.00258 0.43228 0.0
H539 H 0.40288 0.00841 0.48352 0.0
H540 H 0.4438 0.08033 0.46164 0.0
H541 H 0.40733 0.09699 0.39615 0.0
C542 C 0.36174 0.07267 0.37123 0.0
C543 C 0.33899 0.0577 0.36095 0.0
C544 C 0.38362 0.06254 0.40338 0.0
C545 C 0.33869 0.03224 0.3825 0.0
C546 C 0.36026 0.02213 0.41538 0.0
C547 C 0.40401 0.02751 0.46293 0.0
C548 C 0.42579 0.04319 0.47756 0.0
C549 C 0.38275 0.03715 0.42661 0.0
C550 C 0.42702 0.068 0.45131 0.0
C551 C 0.40615 0.07758 0.41426 0.0
H552 H 0.57119 0.33836 0.35911 0.0
H553 H 0.49485 0.30201 0.3797 0.0
H554 H 0.47879 0.33867 0.43847 0.0
H555 H 0.48541 0.38167 0.47803 0.0
H556 H 0.561 0.41919 0.45607 0.0
H557 H 0.57808 0.38168 0.40133 0.0
C558 C 0.55105 0.33847 0.37643 0.0
C559 C 0.53434 0.31738 0.36497 0.0
C560 C 0.54161 0.35999 0.40847 0.0
C561 C 0.50838 0.3177 0.38887 0.0
C562 C 0.499 0.33883 0.42166 0.0
C563 C 0.50558 0.3818 0.46078 0.0
C564 C 0.52183 0.40328 0.47025 0.0
C565 C 0.5153 0.36019 0.43052 0.0
C566 C 0.54802 0.40295 0.44861 0.0
C567 C 0.55783 0.38148 0.41778 0.0
H568 H 0.17662 0.44539 0.35939 0.0
H569 H 0.15222 0.36774 0.39474 0.0
H570 H 0.11193 0.38135 0.44923 0.0
H571 H 0.08469 0.4151 0.48948 0.0
H572 H 0.10946 0.49287 0.45737 0.0
H573 H 0.14883 0.47933 0.39799 0.0
C574 C 0.16266 0.43144 0.38 0.0
C575 C 0.1675 0.4056 0.37423 0.0
C576 C 0.13969 0.4394 0.41107 0.0
C577 C 0.14891 0.38772 0.39899 0.0
C578 C 0.12594 0.39549 0.43001 0.0
C579 C 0.09862 0.42915 0.46926 0.0
C580 C 0.0943 0.45495 0.4781 0.0
C581 C 0.12124 0.42125 0.43653 0.0
C582 C 0.11237 0.4729 0.45103 0.0
C583 C 0.13491 0.46517 0.41754 0.0
H584 H 0.00517 0.83906 0.91289 0.0
H585 H 0.03613 0.8001 0.73745 0.0
H586 H 0.03629 0.83934 0.66825 0.0
H587 H 0.02477 0.88407 0.65684 0.0
H588 H 0.98897 0.92094 0.82925 0.0
H589 H 0.99394 0.88328 0.90191 0.0
C590 C 0.01223 0.83936 0.85971 0.0
C591 C 0.02087 0.81715 0.82993 0.0
C592 C 0.01156 0.86158 0.82048 0.0
C593 C 0.02951 0.81725 0.76086 0.0
C594 C 0.02964 0.83958 0.72168 0.0
C595 C 0.0188 0.88391 0.71093 0.0
C596 C 0.00724 0.90515 0.739 0.0
C597 C 0.02047 0.8618 0.75087 0.0
C598 C 0.99847 0.90478 0.80786 0.0
C599 C 0.00109 0.88327 0.84891 0.0
H600 H 0.66103 0.9706 0.82388 0.0
H601 H 0.65004 0.88961 0.82745 0.0
H602 H 0.60862 0.89325 0.76651 0.0
H603 H 0.57534 0.91925 0.71481 0.0
H604 H 0.58563 0.00029 0.71128 0.0
H605 H 0.62718 -0.00316 0.7728 0.0
C606 C 0.64952 0.95376 0.81147 0.0
C607 C 0.65862 0.92986 0.83004 0.0
C608 C 0.62545 0.95601 0.77791 0.0
C609 C 0.64371 0.90818 0.81268 0.0
C610 C 0.61987 0.91026 0.77868 0.0
C611 C 0.58655 0.93622 0.72784 0.0
C612 C 0.57744 0.95999 0.70865 0.0
C613 C 0.6105 0.93406 0.76166 0.0
C614 C 0.59214 0.98178 0.72613 0.0
C615 C 0.61598 0.9798 0.76062 0.0
H616 H 0.44978 0.68137 0.78998 0.0
H617 H 0.42292 0.63063 0.95279 0.0
H618 H 0.42989 0.59443 0.87796 0.0
H619 H 0.44934 0.57727 0.77203 0.0
H620 H 0.48003 0.62839 0.61447 0.0
H621 H 0.46556 0.6644 0.68053 0.0
C622 C 0.44471 0.66241 0.80807 0.0
C623 C 0.43581 0.65851 0.87628 0.0
C624 C 0.44984 0.64178 0.76598 0.0
C625 C 0.42976 0.63391 0.90011 0.0
C626 C 0.43389 0.61327 0.85759 0.0
C627 C 0.45238 0.59631 0.75193 0.0
C628 C 0.46592 0.60036 0.68933 0.0
C629 C 0.44482 0.61695 0.79135 0.0
C630 C 0.46997 0.625 0.66339 0.0
C631 C 0.46166 0.64555 0.70094 0.0
H632 H 0.84751 0.5802 0.87577 0.0
H633 H 0.79683 0.54535 0.72284 0.0
H634 H 0.83439 0.52595 0.66922 0.0
H635 H 0.88173 0.51954 0.66523 0.0
H636 H 0.93234 0.55999 0.80658 0.0
H637 H 0.89455 0.57637 0.86662 0.0
C638 C 0.8446 0.5689 0.8297 0.0
C639 C 0.81933 0.56435 0.80333 0.0
C640 C 0.86621 0.55836 0.79829 0.0
C641 C 0.81603 0.54898 0.7447 0.0
C642 C 0.83747 0.53788 0.71402 0.0
C643 C 0.88433 0.53162 0.70985 0.0
C644 C 0.90955 0.53795 0.73339 0.0
C645 C 0.86261 0.54233 0.74074 0.0
C646 C 0.913 0.55428 0.78947 0.0
C647 C 0.89144 0.5639 0.823 0.0
H648 H 0.97944 0.17591 0.88492 0.0
H649 H 0.05259 0.19018 0.77839 0.0
H650 H 0.04915 0.14836 0.72571 0.0
H651 H 0.02467 0.10767 0.70847 0.0
H652 H 0.95139 0.09468 0.81597 0.0
H653 H 0.95564 0.13589 0.86937 0.0
C654 C 0.99445 0.17013 0.84921 0.0
C655 C 0.01605 0.18642 0.83496 0.0
C656 C 0.99245 0.14605 0.81965 0.0
C657 C 0.03569 0.17812 0.79019 0.0
C658 C 0.03375 0.15416 0.76011 0.0
C659 C 0.00985 0.11375 0.74432 0.0
C660 C 0.98776 0.09798 0.75816 0.0
C661 C 0.01221 0.13788 0.77457 0.0
C662 C 0.96859 0.10634 0.80418 0.0
C663 C 0.97093 0.13001 0.83469 0.0
H664 H 0.34176 0.06941 0.89626 0.0
H665 H 0.28893 0.01889 0.78686 0.0
H666 H 0.3252 0.00405 0.71756 0.0
H667 H 0.37185 0.0044 0.69008 0.0
H668 H 0.4252 0.05492 0.79754 0.0
H669 H 0.38872 0.07096 0.86499 0.0
C670 C 0.33808 0.05542 0.85656 0.0
C671 C 0.31249 0.04525 0.84715 0.0
C672 C 0.35916 0.04686 0.8168 0.0
C673 C 0.30833 0.02684 0.79604 0.0
C674 C 0.32909 0.01839 0.75617 0.0
C675 C 0.37564 0.01892 0.72828 0.0
C676 C 0.40141 0.02825 0.73902 0.0
C677 C 0.3546 0.02804 0.76665 0.0
C678 C 0.40568 0.04728 0.78829 0.0
C679 C 0.38478 0.05646 0.82688 0.0
H680 H 0.49422 0.32144 0.88632 0.0
H681 H 0.54627 0.28699 0.74112 0.0
H682 H 0.54794 0.32554 0.67124 0.0
H683 H 0.53727 0.36983 0.65567 0.0
H684 H 0.48381 0.40423 0.79644 0.0
H685 H 0.47957 0.36461 0.86316 0.0
C686 C 0.50544 0.32208 0.83853 0.0
C687 C 0.5204 0.30131 0.81972 0.0
C688 C 0.5062 0.34434 0.79812 0.0
C689 C 0.53501 0.30276 0.75784 0.0
C690 C 0.53593 0.3248 0.71764 0.0
C691 C 0.52459 0.36863 0.70084 0.0
C692 C 0.51119 0.38997 0.72196 0.0
C693 C 0.52212 0.34586 0.7382 0.0
C694 C 0.49438 0.38804 0.7795 0.0
C695 C 0.49204 0.36543 0.81765 0.0
H696 H 0.16844 0.41089 0.82817 0.0
H697 H 0.19491 0.48434 0.90053 0.0
H698 H 0.15817 0.50333 0.84439 0.0
H699 H 0.11788 0.4997 0.77698 0.0
H700 H 0.08841 0.42655 0.7136 0.0
H701 H 0.12615 0.40686 0.7677 0.0
C702 C 0.16622 0.431 0.83309 0.0
C703 C 0.18528 0.44588 0.86872 0.0
C704 C 0.14402 0.44195 0.80339 0.0
C705 C 0.18162 0.47209 0.87206 0.0
C706 C 0.16015 0.48311 0.84078 0.0
C707 C 0.11955 0.47939 0.77549 0.0
C708 C 0.10029 0.46463 0.74133 0.0
C709 C 0.14119 0.46826 0.8067 0.0
C710 C 0.10276 0.43834 0.74019 0.0
C711 C 0.1245 0.42712 0.77054 0.0
H712 H 0.96409 0.82095 0.31936 0.0
H713 H 0.02676 0.78677 0.43277 0.0
H714 H 0.03353 0.8252 0.49904 0.0
H715 H 0.02343 0.86907 0.521 0.0
H716 H 0.95959 0.90329 0.41367 0.0
H717 H 0.95109 0.86401 0.34997 0.0
C718 C 0.97887 0.82162 0.35956 0.0
C719 C 0.99513 0.80087 0.36996 0.0
C720 C 0.98253 0.84384 0.39843 0.0
C721 C 0.01433 0.80246 0.42209 0.0
C722 C 0.01816 0.82445 0.46042 0.0
C723 C 0.00758 0.86798 0.48376 0.0
C724 C 0.99239 0.88922 0.47128 0.0
C725 C 0.00274 0.84538 0.4481 0.0
C726 C 0.97161 0.88726 0.42399 0.0
C727 C 0.96683 0.86482 0.38748 0.0
H728 H 0.68761 0.96721 0.39101 0.0
H729 H 0.65575 0.89783 0.3063 0.0
H730 H 0.61336 0.90611 0.35734 0.0
H731 H 0.5842 0.93439 0.42131 0.0
H732 H 0.61631 0.00505 0.49742 0.0
H733 H 0.65903 -0.00481 0.45284 0.0
C734 C 0.67145 0.95389 0.38303 0.0
C735 C 0.67526 0.9319 0.34449 0.0
C736 C 0.64675 0.95917 0.41037 0.0
C737 C 0.65389 0.91473 0.33664 0.0
C738 C 0.62938 0.9196 0.36516 0.0
C739 C 0.60054 0.94761 0.42797 0.0
C740 C 0.59677 0.97051 0.46248 0.0
C741 C 0.62542 0.94196 0.40138 0.0
C742 C 0.61833 0.98735 0.47074 0.0
C743 C 0.64296 0.98172 0.44544 0.0
H744 H 0.45493 0.66815 0.31494 0.0
H745 H 0.52315 0.69311 0.42867 0.0
H746 H 0.52822 0.65018 0.47474 0.0
H747 H 0.51172 0.60585 0.48621 0.0
H748 H 0.44327 0.58199 0.37093 0.0
H749 H 0.44007 0.62411 0.32095 0.0
C750 C 0.47075 0.66426 0.35047 0.0
C751 C 0.48829 0.68383 0.36981 0.0
C752 C 0.47368 0.63966 0.37562 0.0
C753 C 0.50922 0.67837 0.4139 0.0
C754 C 0.51215 0.65384 0.43992 0.0
C755 C 0.49648 0.60977 0.44898 0.0
C756 C 0.47776 0.59079 0.43221 0.0
C757 C 0.4944 0.63432 0.42136 0.0
C758 C 0.45791 0.59625 0.38463 0.0
C759 C 0.45595 0.62038 0.35636 0.0
H760 H 0.8456 0.56004 0.27078 0.0
H761 H 0.78788 0.5562 0.43409 0.0
H762 H 0.82155 0.54509 0.51815 0.0
H763 H 0.86651 0.53275 0.5428 0.0
H764 H 0.92484 0.5379 0.3814 0.0
H765 H 0.89189 0.55238 0.29878 0.0
C766 C 0.84046 0.55692 0.32491 0.0
C767 C 0.81418 0.55858 0.34605 0.0
C768 C 0.85999 0.55068 0.37299 0.0
C769 C 0.8079 0.55499 0.41653 0.0
C770 C 0.82713 0.54853 0.46449 0.0
C771 C 0.87208 0.53739 0.48971 0.0
C772 C 0.89799 0.53407 0.46789 0.0
C773 C 0.8531 0.54579 0.44298 0.0
C774 C 0.90505 0.54042 0.39935 0.0
C775 C 0.88616 0.5485 0.3521 0.0
loop_
_geom_bond_atom_site_label_1
_geom_bond_atom_site_label_2
_geom_bond_distance
_geom_bond_site_symmetry_2
_ccdc_geom_bond_type
C0 C1 1.386 . S
C0 C2 1.397 . S
C0 H24 0.931 . S
C1 C0 1.386 . S
C1 C5 1.397 . S
C2 C0 1.397 . S
C2 C3 1.384 . S
C2 H25 0.930 . S
C3 C2 1.384 . S
C3 C4 1.377 . S
C3 C6 1.481 . S
C4 C3 1.377 . S
C4 C5 1.389 . S
C4 H26 0.929 . S
C5 C1 1.397 . S
C5 C4 1.389 . S
C5 H27 0.931 . S
C6 C3 1.481 . S
C6 C7 1.387 . S
C6 C11 1.390 1_556 S
C7 C6 1.387 . S
C7 C8 1.401 1_556 S
C7 H28 0.930 . S
C8 C7 1.401 1_554 S
C8 C9 1.376 . S
C8 C17 1.511 1_554 S
C9 C8 1.376 . S
C9 C10 1.392 . S
C9 H30 0.931 . S
C10 C9 1.392 . S
C10 C11 1.361 . S
C10 C12 1.500 . S
C11 C6 1.390 1_554 S
C11 C10 1.361 . S
C11 H29 0.931 . S
C12 C10 1.500 . S
C12 C13 1.371 . S
C12 C14 1.365 . S
C13 C12 1.371 . S
C13 C23 1.386 . S
C13 H31 0.931 . S
C14 C12 1.365 . S
C14 C15 1.409 . S
C14 H32 0.929 . S
C15 C14 1.409 . S
C15 C16 1.380 . S
C15 H33 0.930 . S
C16 C15 1.380 . S
C16 C23 1.357 . S
C17 C8 1.511 1_556 S
C17 C18 1.341 . S
C17 C19 1.371 1_556 S
C18 C17 1.341 . S
C18 C22 1.394 . S
C18 H34 0.930 . S
C19 C17 1.371 1_554 S
C19 C20 1.392 . S
C19 H35 0.931 . S
C20 C19 1.392 . S
C20 C21 1.331 1_554 S
C20 H38 0.932 . S
C21 C20 1.331 1_556 S
C21 C22 1.336 . S
C22 C18 1.394 . S
C22 C21 1.336 . S
C22 H37 0.929 . S
C23 C13 1.386 . S
C23 C16 1.357 . S
C23 H36 0.928 . S
H24 C0 0.931 . S
H25 C2 0.930 . S
H26 C4 0.929 . S
H27 C5 0.931 . S
H28 C7 0.930 . S
H29 C11 0.931 . S
H30 C9 0.931 . S
H31 C13 0.931 . S
H32 C14 0.929 . S
H33 C15 0.930 . S
H34 C18 0.930 . S
H35 C19 0.931 . S
H36 C23 0.928 . S
H37 C22 0.929 . S
H38 C20 0.932 . S
C39 C40 1.394 . S
C39 C41 1.397 . S
C39 H63 0.931 . S
C40 C39 1.394 . S
C40 C44 1.389 1_655 S
C41 C39 1.397 . S
C41 C42 1.389 . S
C41 H64 0.930 . S
C42 C41 1.389 . S
C42 C43 1.373 1_655 S
C42 C45 1.481 . S
C43 C42 1.373 1_455 S
C43 C44 1.389 . S
C43 H65 0.929 . S
C44 C40 1.389 1_455 S
C44 C43 1.389 . S
C44 H66 0.931 . S
C45 C42 1.481 . S
C45 C46 1.388 . S
C45 C50 1.390 1_556 S
C46 C45 1.388 . S
C46 C47 1.403 1_556 S
C46 H67 0.930 . S
C47 C46 1.403 1_554 S
C47 C48 1.377 . S
C47 C56 1.512 . S
C48 C47 1.377 . S
C48 C49 1.392 . S
C48 H69 0.931 . S
C49 C48 1.392 . S
C49 C50 1.361 . S
C49 C51 1.499 1_655 S
C50 C45 1.390 1_554 S
C50 C49 1.361 . S
C50 H68 0.931 . S
C51 C49 1.499 1_455 S
C51 C52 1.362 1_455 S
C51 C53 1.375 . S
C52 C51 1.362 1_655 S
C52 C62 1.386 . S
C52 H70 0.931 . S
C53 C51 1.375 . S
C53 C54 1.409 . S
C53 H71 0.929 . S
C54 C53 1.409 . S
C54 C55 1.380 . S
C54 H72 0.930 . S
C55 C54 1.380 . S
C55 C62 1.358 1_455 S
C56 C47 1.512 . S
C56 C57 1.341 1_554 S
C56 C58 1.371 1_655 S
C57 C56 1.341 1_556 S
C57 C61 1.394 . S
C57 H73 0.930 . S
C58 C56 1.371 1_455 S
C58 C59 1.392 . S
C58 H74 0.931 . S
C59 C58 1.392 . S
C59 C60 1.322 1_454 S
C59 H77 0.932 . S
C60 C59 1.322 1_656 S
C60 C61 1.346 . S
C61 C57 1.394 . S
C61 C60 1.346 . S
C61 H76 0.929 . S
C62 C52 1.386 . S
C62 C55 1.358 1_655 S
C62 H75 0.928 . S
H63 C39 0.931 . S
H64 C41 0.930 . S
H65 C43 0.929 . S
H66 C44 0.931 . S
H67 C46 0.930 . S
H68 C50 0.931 . S
H69 C48 0.931 . S
H70 C52 0.931 . S
H71 C53 0.929 . S
H72 C54 0.930 . S
H73 C57 0.930 . S
H74 C58 0.931 . S
H75 C62 0.928 . S
H76 C61 0.929 . S
H77 C59 0.932 . S
C78 C79 1.386 . S
C78 C80 1.397 . S
C78 H102 0.931 . S
C79 C78 1.386 . S
C79 C83 1.397 . S
C80 C78 1.397 . S
C80 C81 1.384 . S
C80 H103 0.930 . S
C81 C80 1.384 . S
C81 C82 1.377 . S
C81 C84 1.481 . S
C82 C81 1.377 . S
C82 C83 1.389 . S
C82 H104 0.929 . S
C83 C79 1.397 . S
C83 C82 1.389 . S
C83 H105 0.931 . S
C84 C81 1.481 . S
C84 C85 1.387 . S
C84 C89 1.390 1_556 S
C85 C84 1.387 . S
C85 C86 1.401 1_556 S
C85 H106 0.930 . S
C86 C85 1.401 1_554 S
C86 C87 1.376 . S
C86 C95 1.511 . S
C87 C86 1.376 . S
C87 C88 1.392 . S
C87 H108 0.931 . S
C88 C87 1.392 . S
C88 C89 1.361 . S
C88 C90 1.500 . S
C89 C84 1.390 1_554 S
C89 C88 1.361 . S
C89 H107 0.931 . S
C90 C88 1.500 . S
C90 C91 1.371 . S
C90 C92 1.365 . S
C91 C90 1.371 . S
C91 C101 1.386 . S
C91 H109 0.931 . S
C92 C90 1.365 . S
C92 C93 1.409 . S
C92 H110 0.929 . S
C93 C92 1.409 . S
C93 C94 1.380 . S
C93 H111 0.930 . S
C94 C93 1.380 . S
C94 C101 1.357 . S
C95 C86 1.511 . S
C95 C96 1.341 1_554 S
C95 C97 1.371 . S
C96 C95 1.341 1_556 S
C96 C100 1.394 . S
C96 H112 0.930 . S
C97 C95 1.371 . S
C97 C98 1.392 . S
C97 H113 0.931 . S
C98 C97 1.392 . S
C98 C99 1.331 1_554 S
C98 H116 0.932 . S
C99 C98 1.331 1_556 S
C99 C100 1.336 . S
C100 C96 1.394 . S
C100 C99 1.336 . S
C100 H115 0.929 . S
C101 C91 1.386 . S
C101 C94 1.357 . S
C101 H114 0.928 . S
H102 C78 0.931 . S
H103 C80 0.930 . S
H104 C82 0.929 . S
H105 C83 0.931 . S
H106 C85 0.930 . S
H107 C89 0.931 . S
H108 C87 0.931 . S
H109 C91 0.931 . S
H110 C92 0.929 . S
H111 C93 0.930 . S
H112 C96 0.930 . S
H113 C97 0.931 . S
H114 C101 0.928 . S
H115 C100 0.929 . S
H116 C98 0.932 . S
C117 C118 1.386 . S
C117 C119 1.397 . S
C117 H141 0.931 . S
C118 C117 1.386 . S
C118 C122 1.397 . S
C119 C117 1.397 . S
C119 C120 1.384 . S
C119 H142 0.930 . S
C120 C119 1.384 . S
C120 C121 1.377 . S
C120 C123 1.481 . S
C121 C120 1.377 . S
C121 C122 1.389 . S
C121 H143 0.929 . S
C122 C118 1.397 . S
C122 C121 1.389 . S
C122 H144 0.931 . S
C123 C120 1.481 . S
C123 C124 1.387 . S
C123 C128 1.390 . S
C124 C123 1.387 . S
C124 C125 1.401 . S
C124 H145 0.930 . S
C125 C124 1.401 . S
C125 C126 1.376 1_554 S
C125 C134 1.511 . S
C126 C125 1.376 1_556 S
C126 C127 1.392 . S
C126 H147 0.931 . S
C127 C126 1.392 . S
C127 C128 1.361 1_556 S
C127 C129 1.500 . S
C128 C123 1.390 . S
C128 C127 1.361 1_554 S
C128 H146 0.931 . S
C129 C127 1.500 . S
C129 C130 1.371 . S
C129 C131 1.365 . S
C130 C129 1.371 . S
C130 C140 1.386 . S
C130 H148 0.931 . S
C131 C129 1.365 . S
C131 C132 1.409 . S
C131 H149 0.929 . S
C132 C131 1.409 . S
C132 C133 1.380 . S
C132 H150 0.930 . S
C133 C132 1.380 . S
C133 C140 1.357 . S
C134 C125 1.511 . S
C134 C135 1.341 . S
C134 C136 1.371 1_554 S
C135 C134 1.341 . S
C135 C139 1.394 . S
C135 H151 0.930 . S
C136 C134 1.371 1_556 S
C136 C137 1.392 . S
C136 H152 0.931 . S
C137 C136 1.392 . S
C137 C138 1.331 . S
C137 H155 0.932 . S
C138 C137 1.331 . S
C138 C139 1.336 1_556 S
C139 C135 1.394 . S
C139 C138 1.336 1_554 S
C139 H154 0.929 . S
C140 C130 1.386 . S
C140 C133 1.357 . S
C140 H153 0.928 . S
H141 C117 0.931 . S
H142 C119 0.930 . S
H143 C121 0.929 . S
H144 C122 0.931 . S
H145 C124 0.930 . S
H146 C128 0.931 . S
H147 C126 0.931 . S
H148 C130 0.931 . S
H149 C131 0.929 . S
H150 C132 0.930 . S
H151 C135 0.930 . S
H152 C136 0.931 . S
H153 C140 0.928 . S
H154 C139 0.929 . S
H155 C137 0.932 . S
C156 C157 1.386 . S
C156 C158 1.397 . S
C156 H180 0.931 . S
C157 C156 1.386 . S
C157 C161 1.397 . S
C158 C156 1.397 . S
C158 C159 1.384 . S
C158 H181 0.930 . S
C159 C158 1.384 . S
C159 C160 1.377 . S
C159 C162 1.481 . S
C160 C159 1.377 . S
C160 C161 1.389 . S
C160 H182 0.929 . S
C161 C157 1.397 . S
C161 C160 1.389 . S
C161 H183 0.931 . S
C162 C159 1.481 . S
C162 C163 1.387 . S
C162 C167 1.390 . S
C163 C162 1.387 . S
C163 C164 1.401 . S
C163 H184 0.930 . S
C164 C163 1.401 . S
C164 C165 1.376 . S
C164 C173 1.511 . S
C165 C164 1.376 . S
C165 C166 1.392 . S
C165 H186 0.931 . S
C166 C165 1.392 . S
C166 C167 1.361 . S
C166 C168 1.500 . S
C167 C162 1.390 . S
C167 C166 1.361 . S
C167 H185 0.931 . S
C168 C166 1.500 . S
C168 C169 1.371 1_554 S
C168 C170 1.365 . S
C169 C168 1.371 1_556 S
C169 C179 1.386 . S
C169 H187 0.931 . S
C170 C168 1.365 . S
C170 C171 1.409 1_554 S
C170 H188 0.929 . S
C171 C170 1.409 1_556 S
C171 C172 1.380 . S
C171 H189 0.930 . S
C172 C171 1.380 . S
C172 C179 1.357 . S
C173 C164 1.511 . S
C173 C174 1.341 . S
C173 C175 1.371 . S
C174 C173 1.341 . S
C174 C178 1.394 . S
C174 H190 0.930 . S
C175 C173 1.371 . S
C175 C176 1.392 . S
C175 H191 0.931 . S
C176 C175 1.392 . S
C176 C177 1.331 . S
C176 H194 0.932 . S
C177 C176 1.331 . S
C177 C178 1.336 . S
C178 C174 1.394 . S
C178 C177 1.336 . S
C178 H193 0.929 . S
C179 C169 1.386 . S
C179 C172 1.357 . S
C179 H192 0.928 . S
H180 C156 0.931 . S
H181 C158 0.930 . S
H182 C160 0.929 . S
H183 C161 0.931 . S
H184 C163 0.930 . S
H185 C167 0.931 . S
H186 C165 0.931 . S
H187 C169 0.931 . S
H188 C170 0.929 . S
H189 C171 0.930 . S
H190 C174 0.930 . S
H191 C175 0.931 . S
H192 C179 0.928 . S
H193 C178 0.929 . S
H194 C176 0.932 . S
C195 C196 1.388 . S
C195 C197 1.397 . S
C195 H219 0.931 . S
C196 C195 1.388 . S
C196 C200 1.395 1_655 S
C197 C195 1.397 . S
C197 C198 1.383 . S
C197 H220 0.930 . S
C198 C197 1.383 . S
C198 C199 1.379 1_655 S
C198 C201 1.480 . S
C199 C198 1.379 1_455 S
C199 C200 1.389 . S
C199 H221 0.929 . S
C200 C196 1.395 1_455 S
C200 C199 1.389 . S
C200 H222 0.931 . S
C201 C198 1.480 . S
C201 C202 1.388 . S
C201 C206 1.390 . S
C202 C201 1.388 . S
C202 C203 1.401 . S
C202 H223 0.930 . S
C203 C202 1.401 . S
C203 C204 1.376 . S
C203 C212 1.513 . S
C204 C203 1.376 . S
C204 C205 1.391 1_655 S
C204 H225 0.934 . S
C205 C204 1.391 1_455 S
C205 C206 1.361 1_455 S
C205 C207 1.499 . S
C206 C201 1.390 . S
C206 C205 1.361 1_655 S
C206 H224 0.931 . S
C207 C205 1.499 . S
C207 C208 1.356 1_454 S
C207 C209 1.381 1_554 S
C208 C207 1.356 1_656 S
C208 C218 1.386 . S
C208 H226 0.931 . S
C209 C207 1.381 1_556 S
C209 C210 1.409 . S
C209 H227 0.929 1_556 S
C210 C209 1.409 . S
C210 C211 1.384 . S
C210 H228 0.930 . S
C211 C210 1.384 . S
C211 C218 1.353 1_455 S
C212 C203 1.513 . S
C212 C213 1.341 . S
C212 C214 1.371 1_655 S
C213 C212 1.341 . S
C213 C217 1.394 . S
C213 H229 0.930 . S
C214 C212 1.371 1_455 S
C214 C215 1.392 . S
C214 H230 0.931 . S
C215 C214 1.392 . S
C215 C216 1.325 1_455 S
C215 H233 0.932 . S
C216 C215 1.325 1_655 S
C216 C217 1.342 . S
C217 C213 1.394 . S
C217 C216 1.342 . S
C217 H232 0.929 . S
C218 C208 1.386 . S
C218 C211 1.353 1_655 S
C218 H231 0.928 . S
H219 C195 0.931 . S
H220 C197 0.930 . S
H221 C199 0.929 . S
H222 C200 0.931 . S
H223 C202 0.930 . S
H224 C206 0.931 . S
H225 C204 0.934 . S
H226 C208 0.931 . S
H227 C209 0.929 1_554 S
H228 C210 0.930 . S
H229 C213 0.930 . S
H230 C214 0.931 . S
H231 C218 0.928 . S
H232 C217 0.929 . S
H233 C215 0.932 . S
C234 C235 1.386 . S
C234 C236 1.397 . S
C234 H258 0.931 . S
C235 C234 1.386 . S
C235 C239 1.397 . S
C236 C234 1.397 . S
C236 C237 1.384 . S
C236 H259 0.930 . S
C237 C236 1.384 . S
C237 C238 1.377 . S
C237 C240 1.481 . S
C238 C237 1.377 . S
C238 C239 1.389 . S
C238 H260 0.929 . S
C239 C235 1.397 . S
C239 C238 1.389 . S
C239 H261 0.931 . S
C240 C237 1.481 . S
C240 C241 1.387 . S
C240 C245 1.390 . S
C241 C240 1.387 . S
C241 C242 1.401 . S
C241 H262 0.930 . S
C242 C241 1.401 . S
C242 C243 1.376 . S
C242 C251 1.511 . S
C243 C242 1.376 . S
C243 C244 1.392 . S
C243 H264 0.931 . S
C244 C243 1.392 . S
C244 C245 1.361 . S
C244 C246 1.500 . S
C245 C240 1.390 . S
C245 C244 1.361 . S
C245 H263 0.931 . S
C246 C244 1.500 . S
C246 C247 1.371 1_554 S
C246 C248 1.365 1_554 S
C247 C246 1.371 1_556 S
C247 C257 1.386 . S
C247 H265 0.931 . S
C248 C246 1.365 1_556 S
C248 C249 1.409 . S
C248 H266 0.929 1_556 S
C249 C248 1.409 . S
C249 C250 1.380 . S
C249 H267 0.930 . S
C250 C249 1.380 . S
C250 C257 1.357 . S
C251 C242 1.511 . S
C251 C252 1.341 . S
C251 C253 1.371 . S
C252 C251 1.341 . S
C252 C256 1.394 . S
C252 H268 0.930 . S
C253 C251 1.371 . S
C253 C254 1.392 . S
C253 H269 0.931 . S
C254 C253 1.392 . S
C254 C255 1.331 . S
C254 H272 0.932 . S
C255 C254 1.331 . S
C255 C256 1.336 . S
C256 C252 1.394 . S
C256 C255 1.336 . S
C256 H271 0.929 . S
C257 C247 1.386 . S
C257 C250 1.357 . S
C257 H270 0.928 . S
H258 C234 0.931 . S
H259 C236 0.930 . S
H260 C238 0.929 . S
H261 C239 0.931 . S
H262 C241 0.930 . S
H263 C245 0.931 . S
H264 C243 0.931 . S
H265 C247 0.931 . S
H266 C248 0.929 1_554 S
H267 C249 0.930 . S
H268 C252 0.930 . S
H269 C253 0.931 . S
H270 C257 0.928 . S
H271 C256 0.929 . S
H272 C254 0.932 . S
C273 C274 1.386 . S
C273 C275 1.397 . S
C273 H297 0.931 . S
C274 C273 1.386 . S
C274 C278 1.397 . S
C275 C273 1.397 . S
C275 C276 1.384 1_556 S
C275 H298 0.930 . S
C276 C275 1.384 1_554 S
C276 C277 1.377 1_554 S
C276 C279 1.481 . S
C277 C276 1.377 1_556 S
C277 C278 1.389 . S
C277 H299 0.929 1_556 S
C278 C274 1.397 . S
C278 C277 1.389 . S
C278 H300 0.931 . S
C279 C276 1.481 . S
C279 C280 1.387 . S
C279 C284 1.390 . S
C280 C279 1.387 . S
C280 C281 1.401 . S
C280 H301 0.930 . S
C281 C280 1.401 . S
C281 C282 1.376 . S
C281 C290 1.511 . S
C282 C281 1.376 . S
C282 C283 1.392 . S
C282 H303 0.931 . S
C283 C282 1.392 . S
C283 C284 1.361 . S
C283 C285 1.500 . S
C284 C279 1.390 . S
C284 C283 1.361 . S
C284 H302 0.931 . S
C285 C283 1.500 . S
C285 C286 1.371 . S
C285 C287 1.365 . S
C286 C285 1.371 . S
C286 C296 1.386 . S
C286 H304 0.931 . S
C287 C285 1.365 . S
C287 C288 1.409 . S
C287 H305 0.929 . S
C288 C287 1.409 . S
C288 C289 1.380 . S
C288 H306 0.930 . S
C289 C288 1.380 . S
C289 C296 1.357 . S
C290 C281 1.511 . S
C290 C291 1.341 . S
C290 C292 1.371 . S
C291 C290 1.341 . S
C291 C295 1.394 . S
C291 H307 0.930 . S
C292 C290 1.371 . S
C292 C293 1.392 . S
C292 H308 0.931 . S
C293 C292 1.392 . S
C293 C294 1.331 . S
C293 H311 0.932 . S
C294 C293 1.331 . S
C294 C295 1.336 . S
C295 C291 1.394 . S
C295 C294 1.336 . S
C295 H310 0.929 . S
C296 C286 1.386 . S
C296 C289 1.357 . S
C296 H309 0.928 . S
H297 C273 0.931 . S
H298 C275 0.930 . S
H299 C277 0.929 1_554 S
H300 C278 0.931 . S
H301 C280 0.930 . S
H302 C284 0.931 . S
H303 C282 0.931 . S
H304 C286 0.931 . S
H305 C287 0.929 . S
H306 C288 0.930 . S
H307 C291 0.930 . S
H308 C292 0.931 . S
H309 C296 0.928 . S
H310 C295 0.929 . S
H311 C293 0.932 . S
Zn312 O318 1.969 . S
Zn312 O319 1.965 1_655 S
Zn312 O323 2.024 1_655 S
Zn312 O328 1.969 . S
Zn313 O320 1.969 . S
Zn313 O326 1.969 . S
Zn313 O327 1.965 1_455 S
Zn313 O329 2.024 1_455 S
C314 O315 1.229 1_455 S
C314 O323 1.058 . S
O315 C314 1.229 1_655 S
C316 O317 1.229 1_655 S
C316 O329 1.058 . S
O317 C316 1.229 1_455 S
O318 Zn312 1.969 . S
O318 C321 1.267 . S
O319 Zn312 1.965 1_455 S
O319 C330 1.260 . S
O320 Zn313 1.969 . S
O320 C330 1.258 1_565 S
C321 O318 1.267 . S
C321 O322 1.228 1_655 S
O322 C321 1.228 1_455 S
O323 Zn312 2.024 1_455 S
O323 C314 1.058 . S
C324 O325 1.228 1_455 S
C324 O326 1.267 . S
O325 C324 1.228 1_655 S
O326 Zn313 1.969 . S
O326 C324 1.267 . S
O327 Zn313 1.965 1_655 S
O327 C331 1.272 . S
O328 Zn312 1.969 . S
O328 C331 1.237 1_545 S
O329 Zn313 2.024 1_655 S
O329 C316 1.058 . S
C330 O319 1.260 . S
C330 O320 1.258 1_545 S
C331 O327 1.272 . S
C331 O328 1.237 1_565 S
Zn332 O338 1.969 1_545 S
Zn332 O339 1.965 . S
Zn332 O343 2.024 . S
Zn332 O348 1.969 1_545 S
Zn333 O340 1.969 1_565 S
Zn333 O346 1.969 1_565 S
Zn333 O347 1.965 . S
Zn333 O349 2.024 . S
C334 O335 1.229 . S
C334 O343 1.058 . S
O335 C334 1.229 . S
C336 O337 1.229 . S
C336 O349 1.058 . S
O337 C336 1.229 . S
O338 Zn332 1.969 1_565 S
O338 C341 1.267 1_565 S
O339 Zn332 1.965 . S
O339 C350 1.260 . S
O340 Zn333 1.969 1_545 S
O340 C350 1.258 . S
C341 O338 1.267 1_545 S
C341 O342 1.228 . S
O342 C341 1.228 . S
O343 Zn332 2.024 . S
O343 C334 1.058 . S
C344 O345 1.228 . S
C344 O346 1.267 1_565 S
O345 C344 1.228 . S
O346 Zn333 1.969 1_545 S
O346 C344 1.267 1_545 S
O347 Zn333 1.965 . S
O347 C351 1.260 . S
O348 Zn332 1.969 1_565 S
O348 C351 1.258 . S
O349 Zn333 2.024 . S
O349 C336 1.058 . S
C350 O339 1.260 . S
C350 O340 1.258 . S
C351 O347 1.260 . S
C351 O348 1.258 . S
Zn352 O358 1.969 . S
Zn352 O359 1.965 . S
Zn352 O363 2.024 . S
Zn352 O368 1.969 . S
Zn353 O360 1.969 . S
Zn353 O366 1.969 . S
Zn353 O367 1.965 . S
Zn353 O369 2.024 . S
C354 O355 1.229 . S
C354 O363 1.058 . S
O355 C354 1.229 . S
C356 O357 1.229 . S
C356 O369 1.058 . S
O357 C356 1.229 . S
O358 Zn352 1.969 . S
O358 C361 1.267 . S
O359 Zn352 1.965 . S
O359 C370 1.260 . S
O360 Zn353 1.969 . S
O360 C370 1.258 . S
C361 O358 1.267 . S
C361 O362 1.228 . S
O362 C361 1.228 . S
O363 Zn352 2.024 . S
O363 C354 1.058 . S
C364 O365 1.228 . S
C364 O366 1.267 . S
O365 C364 1.228 . S
O366 Zn353 1.969 . S
O366 C364 1.267 . S
O367 Zn353 1.965 . S
O367 C371 1.260 . S
O368 Zn352 1.969 . S
O368 C371 1.258 . S
O369 Zn353 2.024 . S
O369 C356 1.058 . S
C370 O359 1.260 . S
C370 O360 1.258 . S
C371 O367 1.260 . S
C371 O368 1.258 . S
Zn372 O378 1.969 . S
Zn372 O379 1.965 . S
Zn372 O383 2.024 . S
Zn372 O388 1.969 . S
Zn373 O380 1.969 . S
Zn373 O386 1.969 . S
Zn373 O387 1.965 . S
Zn373 O389 2.024 . S
C374 O375 1.229 . S
C374 O383 1.058 . S
O375 C374 1.229 . S
C376 O377 1.229 . S
C376 O389 1.058 . S
O377 C376 1.229 . S
O378 Zn372 1.969 . S
O378 C381 1.267 . S
O379 Zn372 1.965 . S
O379 C390 1.260 1_455 S
O380 Zn373 1.969 . S
O380 C390 1.258 . S
C381 O378 1.267 . S
C381 O382 1.228 . S
O382 C381 1.228 . S
O383 Zn372 2.024 . S
O383 C374 1.058 . S
C384 O385 1.228 . S
C384 O386 1.267 . S
O385 C384 1.228 . S
O386 Zn373 1.969 . S
O386 C384 1.267 . S
O387 Zn373 1.965 . S
O387 C391 1.260 1_655 S
O388 Zn372 1.969 . S
O388 C391 1.258 . S
O389 Zn373 2.024 . S
O389 C376 1.058 . S
C390 O379 1.260 1_655 S
C390 O380 1.258 . S
C391 O387 1.260 1_455 S
C391 O388 1.258 . S
H392 C398 0.930 . S
H393 C401 0.930 . S
H394 C402 0.930 . S
H395 C403 0.930 1_565 S
H396 C406 0.930 . S
H397 C407 0.930 . S
C398 H392 0.930 . S
C398 C399 1.355 . S
C398 C400 1.415 . S
C399 C398 1.355 . S
C399 C401 1.419 . S
C400 C398 1.415 . S
C400 C405 1.425 . S
C400 C407 1.409 . S
C401 H393 0.930 . S
C401 C399 1.419 . S
C401 C402 1.362 . S
C402 H394 0.930 . S
C402 C401 1.362 . S
C402 C405 1.409 . S
C403 H395 0.930 1_545 S
C403 C404 1.355 . S
C403 C405 1.415 . S
C404 C403 1.355 . S
C404 C406 1.419 . S
C405 C400 1.425 . S
C405 C402 1.409 . S
C405 C403 1.415 . S
C406 H396 0.930 . S
C406 C404 1.419 . S
C406 C407 1.362 . S
C407 H397 0.930 . S
C407 C400 1.409 . S
C407 C406 1.362 . S
H408 C414 0.930 . S
H409 C417 0.930 . S
H410 C418 0.930 . S
H411 C419 0.930 . S
H412 C422 0.930 . S
H413 C423 0.930 . S
C414 H408 0.930 . S
C414 C415 1.355 . S
C414 C416 1.415 . S
C415 C414 1.355 . S
C415 C417 1.419 . S
C416 C414 1.415 . S
C416 C421 1.425 . S
C416 C423 1.409 . S
C417 H409 0.930 . S
C417 C415 1.419 . S
C417 C418 1.362 . S
C418 H410 0.930 . S
C418 C417 1.362 . S
C418 C421 1.409 . S
C419 H411 0.930 . S
C419 C420 1.355 . S
C419 C421 1.415 . S
C420 C419 1.355 . S
C420 C422 1.419 . S
C421 C416 1.425 . S
C421 C418 1.409 . S
C421 C419 1.415 . S
C422 H412 0.930 . S
C422 C420 1.419 . S
C422 C423 1.362 . S
C423 H413 0.930 . S
C423 C416 1.409 . S
C423 C422 1.362 . S
H424 C430 0.930 . S
H425 C433 0.930 . S
H426 C434 0.930 . S
H427 C435 0.930 . S
H428 C438 0.930 . S
H429 C439 0.930 . S
C430 H424 0.930 . S
C430 C431 1.355 . S
C430 C432 1.415 . S
C431 C430 1.355 . S
C431 C433 1.419 . S
C432 C430 1.415 . S
C432 C437 1.425 . S
C432 C439 1.409 . S
C433 H425 0.930 . S
C433 C431 1.419 . S
C433 C434 1.362 . S
C434 H426 0.930 . S
C434 C433 1.362 . S
C434 C437 1.409 . S
C435 H427 0.930 . S
C435 C436 1.355 . S
C435 C437 1.415 . S
C436 C435 1.355 . S
C436 C438 1.419 . S
C437 C432 1.425 . S
C437 C434 1.409 . S
C437 C435 1.415 . S
C438 H428 0.930 . S
C438 C436 1.419 . S
C438 C439 1.362 . S
C439 H429 0.930 . S
C439 C432 1.409 . S
C439 C438 1.362 . S
H440 C446 0.930 . S
H441 C449 0.930 . S
H442 C450 0.930 . S
H443 C451 0.930 . S
H444 C454 0.930 . S
H445 C455 0.930 . S
C446 H440 0.930 . S
C446 C447 1.355 1_655 S
C446 C448 1.415 . S
C447 C446 1.355 1_455 S
C447 C449 1.419 . S
C448 C446 1.415 . S
C448 C453 1.425 1_655 S
C448 C455 1.409 . S
C449 H441 0.930 . S
C449 C447 1.419 . S
C449 C450 1.362 . S
C450 H442 0.930 . S
C450 C449 1.362 . S
C450 C453 1.409 . S
C451 H443 0.930 . S
C451 C452 1.355 1_455 S
C451 C453 1.415 . S
C452 C451 1.355 1_655 S
C452 C454 1.419 . S
C453 C448 1.425 1_455 S
C453 C450 1.409 . S
C453 C451 1.415 . S
C454 H444 0.930 . S
C454 C452 1.419 . S
C454 C455 1.362 . S
C455 H445 0.930 . S
C455 C448 1.409 . S
C455 C454 1.362 . S
H456 C462 0.930 . S
H457 C465 0.930 . S
H458 C466 0.930 . S
H459 C467 0.930 . S
H460 C470 0.930 . S
H461 C471 0.930 . S
C462 H456 0.930 . S
C462 C463 1.355 . S
C462 C464 1.415 . S
C463 C462 1.355 . S
C463 C465 1.419 . S
C464 C462 1.415 . S
C464 C469 1.425 . S
C464 C471 1.409 . S
C465 H457 0.930 . S
C465 C463 1.419 . S
C465 C466 1.362 . S
C466 H458 0.930 . S
C466 C465 1.362 . S
C466 C469 1.409 . S
C467 H459 0.930 . S
C467 C468 1.355 . S
C467 C469 1.415 . S
C468 C467 1.355 . S
C468 C470 1.419 . S
C469 C464 1.425 . S
C469 C466 1.409 . S
C469 C467 1.415 . S
C470 H460 0.930 . S
C470 C468 1.419 . S
C470 C471 1.362 . S
C471 H461 0.930 . S
C471 C464 1.409 . S
C471 C470 1.362 . S
H472 C478 0.930 . S
H473 C481 0.930 . S
H474 C482 0.930 . S
H475 C483 0.930 . S
H476 C486 0.930 . S
H477 C487 0.930 . S
C478 H472 0.930 . S
C478 C479 1.355 . S
C478 C480 1.415 . S
C479 C478 1.355 . S
C479 C481 1.419 . S
C480 C478 1.415 . S
C480 C485 1.425 . S
C480 C487 1.409 . S
C481 H473 0.930 . S
C481 C479 1.419 . S
C481 C482 1.362 . S
C482 H474 0.930 . S
C482 C481 1.362 . S
C482 C485 1.409 . S
C483 H475 0.930 . S
C483 C484 1.355 . S
C483 C485 1.415 . S
C484 C483 1.355 . S
C484 C486 1.419 . S
C485 C480 1.425 . S
C485 C482 1.409 . S
C485 C483 1.415 . S
C486 H476 0.930 . S
C486 C484 1.419 . S
C486 C487 1.362 . S
C487 H477 0.930 . S
C487 C480 1.409 . S
C487 C486 1.362 . S
H488 C494 0.930 . S
H489 C497 0.930 . S
H490 C498 0.930 . S
H491 C499 0.930 . S
H492 C502 0.930 . S
H493 C503 0.930 . S
C494 H488 0.930 . S
C494 C495 1.355 . S
C494 C496 1.415 . S
C495 C494 1.355 . S
C495 C497 1.419 . S
C496 C494 1.415 . S
C496 C501 1.425 . S
C496 C503 1.409 . S
C497 H489 0.930 . S
C497 C495 1.419 . S
C497 C498 1.362 . S
C498 H490 0.930 . S
C498 C497 1.362 . S
C498 C501 1.409 . S
C499 H491 0.930 . S
C499 C500 1.355 . S
C499 C501 1.415 . S
C500 C499 1.355 . S
C500 C502 1.419 . S
C501 C496 1.425 . S
C501 C498 1.409 . S
C501 C499 1.415 . S
C502 H492 0.930 . S
C502 C500 1.419 . S
C502 C503 1.362 . S
C503 H493 0.930 . S
C503 C496 1.409 . S
C503 C502 1.362 . S
H504 C510 0.930 . S
H505 C513 0.930 . S
H506 C514 0.930 . S
H507 C515 0.930 . S
H508 C518 0.930 . S
H509 C519 0.930 . S
C510 H504 0.930 . S
C510 C511 1.355 1_655 S
C510 C512 1.415 . S
C511 C510 1.355 1_455 S
C511 C513 1.419 . S
C512 C510 1.415 . S
C512 C517 1.425 1_655 S
C512 C519 1.409 . S
C513 H505 0.930 . S
C513 C511 1.419 . S
C513 C514 1.362 . S
C514 H506 0.930 . S
C514 C513 1.362 . S
C514 C517 1.409 . S
C515 H507 0.930 . S
C515 C516 1.355 . S
C515 C517 1.415 . S
C516 C515 1.355 . S
C516 C518 1.419 1_455 S
C517 C512 1.425 1_455 S
C517 C514 1.409 . S
C517 C515 1.415 . S
C518 H508 0.930 . S
C518 C516 1.419 1_655 S
C518 C519 1.362 . S
C519 H509 0.930 . S
C519 C512 1.409 . S
C519 C518 1.362 . S
H520 C526 0.930 . S
H521 C529 0.930 . S
H522 C530 0.930 . S
H523 C531 0.930 . S
H524 C534 0.940 . S
H525 C535 0.930 . S
C526 H520 0.930 . S
C526 C527 1.356 1_455 S
C526 C528 1.415 1_455 S
C527 C526 1.356 1_655 S
C527 C529 1.417 . S
C528 C526 1.415 1_655 S
C528 C533 1.425 . S
C528 C535 1.409 1_655 S
C529 H521 0.930 . S
C529 C527 1.417 . S
C529 C530 1.362 . S
C530 H522 0.930 . S
C530 C529 1.362 . S
C530 C533 1.409 . S
C531 H523 0.930 . S
C531 C532 1.355 . S
C531 C533 1.415 . S
C532 C531 1.355 . S
C532 C534 1.419 . S
C533 C528 1.425 . S
C533 C530 1.409 . S
C533 C531 1.415 . S
C534 H524 0.940 . S
C534 C532 1.419 . S
C534 C535 1.362 1_655 S
C535 H525 0.930 . S
C535 C528 1.409 1_455 S
C535 C534 1.362 1_455 S
H536 C542 0.930 . S
H537 C545 0.930 . S
H538 C546 0.930 . S
H539 C547 0.930 1_565 S
H540 C550 0.930 . S
H541 C551 0.930 . S
C542 H536 0.930 . S
C542 C543 1.355 . S
C542 C544 1.415 . S
C543 C542 1.355 . S
C543 C545 1.419 . S
C544 C542 1.415 . S
C544 C549 1.425 . S
C544 C551 1.409 . S
C545 H537 0.930 . S
C545 C543 1.419 . S
C545 C546 1.362 . S
C546 H538 0.930 . S
C546 C545 1.362 . S
C546 C549 1.409 . S
C547 H539 0.930 1_545 S
C547 C548 1.355 . S
C547 C549 1.415 . S
C548 C547 1.355 . S
C548 C550 1.419 . S
C549 C544 1.425 . S
C549 C546 1.409 . S
C549 C547 1.415 . S
C550 H540 0.930 . S
C550 C548 1.419 . S
C550 C551 1.362 . S
C551 H541 0.930 . S
C551 C544 1.409 . S
C551 C550 1.362 . S
H552 C558 0.930 . S
H553 C561 0.930 . S
H554 C562 0.930 . S
H555 C563 0.930 . S
H556 C566 0.930 . S
H557 C567 0.930 . S
C558 H552 0.930 . S
C558 C559 1.355 . S
C558 C560 1.415 . S
C559 C558 1.355 . S
C559 C561 1.419 . S
C560 C558 1.415 . S
C560 C565 1.425 . S
C560 C567 1.409 . S
C561 H553 0.930 . S
C561 C559 1.419 . S
C561 C562 1.362 . S
C562 H554 0.930 . S
C562 C561 1.362 . S
C562 C565 1.409 . S
C563 H555 0.930 . S
C563 C564 1.355 . S
C563 C565 1.415 . S
C564 C563 1.355 . S
C564 C566 1.419 . S
C565 C560 1.425 . S
C565 C562 1.409 . S
C565 C563 1.415 . S
C566 H556 0.930 . S
C566 C564 1.419 . S
C566 C567 1.362 . S
C567 H557 0.930 . S
C567 C560 1.409 . S
C567 C566 1.362 . S
H568 C574 0.930 . S
H569 C577 0.930 . S
H570 C578 0.930 . S
H571 C579 0.930 . S
H572 C582 0.930 . S
H573 C583 0.930 . S
C574 H568 0.930 . S
C574 C575 1.355 . S
C574 C576 1.415 . S
C575 C574 1.355 . S
C575 C577 1.419 . S
C576 C574 1.415 . S
C576 C581 1.425 . S
C576 C583 1.409 . S
C577 H569 0.930 . S
C577 C575 1.419 . S
C577 C578 1.362 . S
C578 H570 0.930 . S
C578 C577 1.362 . S
C578 C581 1.409 . S
C579 H571 0.930 . S
C579 C580 1.355 . S
C579 C581 1.415 . S
C580 C579 1.355 . S
C580 C582 1.419 . S
C581 C576 1.425 . S
C581 C578 1.409 . S
C581 C579 1.415 . S
C582 H572 0.930 . S
C582 C580 1.419 . S
C582 C583 1.362 . S
C583 H573 0.930 . S
C583 C576 1.409 . S
C583 C582 1.362 . S
H584 C590 0.930 . S
H585 C593 0.930 . S
H586 C594 0.930 . S
H587 C595 0.930 . S
H588 C598 0.930 . S
H589 C599 0.930 . S
C590 H584 0.930 . S
C590 C591 1.337 1_655 S
C590 C592 1.415 . S
C591 C590 1.337 1_455 S
C591 C593 1.450 . S
C592 C590 1.415 . S
C592 C597 1.425 1_655 S
C592 C599 1.409 . S
C593 H585 0.930 . S
C593 C591 1.450 . S
C593 C594 1.362 . S
C594 H586 0.930 . S
C594 C593 1.362 . S
C594 C597 1.409 . S
C595 H587 0.930 . S
C595 C596 1.355 . S
C595 C597 1.415 . S
C596 C595 1.355 . S
C596 C598 1.419 1_455 S
C597 C592 1.425 1_455 S
C597 C594 1.409 . S
C597 C595 1.415 . S
C598 H588 0.930 . S
C598 C596 1.419 1_655 S
C598 C599 1.362 . S
C599 H589 0.930 . S
C599 C592 1.409 . S
C599 C598 1.362 . S
H600 C606 0.930 . S
H601 C609 0.930 . S
H602 C610 0.930 . S
H603 C611 0.930 . S
H604 C614 0.930 . S
H605 C615 0.930 1_545 S
C606 H600 0.930 . S
C606 C607 1.355 . S
C606 C608 1.415 . S
C607 C606 1.355 . S
C607 C609 1.419 . S
C608 C606 1.415 . S
C608 C613 1.425 . S
C608 C615 1.409 . S
C609 H601 0.930 . S
C609 C607 1.419 . S
C609 C610 1.362 . S
C610 H602 0.930 . S
C610 C609 1.362 . S
C610 C613 1.409 . S
C611 H603 0.930 . S
C611 C612 1.355 . S
C611 C613 1.415 . S
C612 C611 1.355 . S
C612 C614 1.419 1_565 S
C613 C608 1.425 . S
C613 C610 1.409 . S
C613 C611 1.415 . S
C614 H604 0.930 . S
C614 C612 1.419 1_545 S
C614 C615 1.362 1_545 S
C615 H605 0.930 1_565 S
C615 C608 1.409 . S
C615 C614 1.362 1_565 S
H616 C622 0.930 . S
H617 C625 0.930 . S
H618 C626 0.930 . S
H619 C627 0.930 . S
H620 C630 0.930 . S
H621 C631 0.930 . S
C622 H616 0.930 . S
C622 C623 1.355 . S
C622 C624 1.415 . S
C623 C622 1.355 . S
C623 C625 1.419 . S
C624 C622 1.415 . S
C624 C629 1.425 . S
C624 C631 1.409 . S
C625 H617 0.930 . S
C625 C623 1.419 . S
C625 C626 1.362 . S
C626 H618 0.930 . S
C626 C625 1.362 . S
C626 C629 1.409 . S
C627 H619 0.930 . S
C627 C628 1.355 . S
C627 C629 1.415 . S
C628 C627 1.355 . S
C628 C630 1.419 . S
C629 C624 1.425 . S
C629 C626 1.409 . S
C629 C627 1.415 . S
C630 H620 0.930 . S
C630 C628 1.419 . S
C630 C631 1.362 . S
C631 H621 0.930 . S
C631 C624 1.409 . S
C631 C630 1.362 . S
H632 C638 0.930 . S
H633 C641 0.930 . S
H634 C642 0.930 . S
H635 C643 0.930 . S
H636 C646 0.930 . S
H637 C647 0.930 . S
C638 H632 0.930 . S
C638 C639 1.355 . S
C638 C640 1.415 . S
C639 C638 1.355 . S
C639 C641 1.419 . S
C640 C638 1.415 . S
C640 C645 1.425 . S
C640 C647 1.409 . S
C641 H633 0.930 . S
C641 C639 1.419 . S
C641 C642 1.362 . S
C642 H634 0.930 . S
C642 C641 1.362 . S
C642 C645 1.409 . S
C643 H635 0.930 . S
C643 C644 1.355 . S
C643 C645 1.415 . S
C644 C643 1.355 . S
C644 C646 1.419 . S
C645 C640 1.425 . S
C645 C642 1.409 . S
C645 C643 1.415 . S
C646 H636 0.930 . S
C646 C644 1.419 . S
C646 C647 1.362 . S
C647 H637 0.930 . S
C647 C640 1.409 . S
C647 C646 1.362 . S
H648 C654 0.930 . S
H649 C657 0.930 . S
H650 C658 0.930 . S
H651 C659 0.930 . S
H652 C662 0.930 . S
H653 C663 0.930 . S
C654 H648 0.930 . S
C654 C655 1.355 1_655 S
C654 C656 1.415 . S
C655 C654 1.355 1_455 S
C655 C657 1.419 . S
C656 C654 1.415 . S
C656 C661 1.425 1_655 S
C656 C663 1.409 . S
C657 H649 0.930 . S
C657 C655 1.419 . S
C657 C658 1.362 . S
C658 H650 0.930 . S
C658 C657 1.362 . S
C658 C661 1.409 . S
C659 H651 0.930 . S
C659 C660 1.355 . S
C659 C661 1.415 . S
C660 C659 1.355 . S
C660 C662 1.419 1_455 S
C661 C656 1.425 1_455 S
C661 C658 1.409 . S
C661 C659 1.415 . S
C662 H652 0.930 . S
C662 C660 1.419 1_655 S
C662 C663 1.362 . S
C663 H653 0.930 . S
C663 C656 1.409 . S
C663 C662 1.362 . S
H664 C670 0.930 . S
H665 C673 0.930 . S
H666 C674 0.930 . S
H667 C675 0.930 . S
H668 C678 0.930 . S
H669 C679 0.930 . S
C670 H664 0.930 . S
C670 C671 1.355 . S
C670 C672 1.415 . S
C671 C670 1.355 . S
C671 C673 1.419 . S
C672 C670 1.415 . S
C672 C677 1.425 . S
C672 C679 1.409 . S
C673 H665 0.930 . S
C673 C671 1.419 . S
C673 C674 1.362 . S
C674 H666 0.930 . S
C674 C673 1.362 . S
C674 C677 1.409 . S
C675 H667 0.930 . S
C675 C676 1.355 . S
C675 C677 1.415 . S
C676 C675 1.355 . S
C676 C678 1.419 . S
C677 C672 1.425 . S
C677 C674 1.409 . S
C677 C675 1.415 . S
C678 H668 0.930 . S
C678 C676 1.419 . S
C678 C679 1.362 . S
C679 H669 0.930 . S
C679 C672 1.409 . S
C679 C678 1.362 . S
H680 C686 0.930 . S
H681 C689 0.930 . S
H682 C690 0.930 . S
H683 C691 0.930 . S
H684 C694 0.930 . S
H685 C695 0.930 . S
C686 H680 0.930 . S
C686 C687 1.355 . S
C686 C688 1.415 . S
C687 C686 1.355 . S
C687 C689 1.419 . S
C688 C686 1.415 . S
C688 C693 1.425 . S
C688 C695 1.409 . S
C689 H681 0.930 . S
C689 C687 1.419 . S
C689 C690 1.362 . S
C690 H682 0.930 . S
C690 C689 1.362 . S
C690 C693 1.409 . S
C691 H683 0.930 . S
C691 C692 1.355 . S
C691 C693 1.415 . S
C692 C691 1.355 . S
C692 C694 1.419 . S
C693 C688 1.425 . S
C693 C690 1.409 . S
C693 C691 1.415 . S
C694 H684 0.930 . S
C694 C692 1.419 . S
C694 C695 1.362 . S
C695 H685 0.930 . S
C695 C688 1.409 . S
C695 C694 1.362 . S
H696 C702 0.930 . S
H697 C705 0.930 . S
H698 C706 0.930 . S
H699 C707 0.930 . S
H700 C710 0.930 . S
H701 C711 0.930 . S
C702 H696 0.930 . S
C702 C703 1.355 . S
C702 C704 1.415 . S
C703 C702 1.355 . S
C703 C705 1.419 . S
C704 C702 1.415 . S
C704 C709 1.425 . S
C704 C711 1.409 . S
C705 H697 0.930 . S
C705 C703 1.419 . S
C705 C706 1.362 . S
C706 H698 0.930 . S
C706 C705 1.362 . S
C706 C709 1.409 . S
C707 H699 0.930 . S
C707 C708 1.355 . S
C707 C709 1.415 . S
C708 C707 1.355 . S
C708 C710 1.419 . S
C709 C704 1.425 . S
C709 C706 1.409 . S
C709 C707 1.415 . S
C710 H700 0.930 . S
C710 C708 1.419 . S
C710 C711 1.362 . S
C711 H701 0.930 . S
C711 C704 1.409 . S
C711 C710 1.362 . S
H712 C718 0.930 . S
H713 C721 0.930 . S
H714 C722 0.930 . S
H715 C723 0.930 . S
H716 C726 0.930 . S
H717 C727 0.930 . S
C718 H712 0.930 . S
C718 C719 1.328 1_655 S
C718 C720 1.415 . S
C719 C718 1.328 1_455 S
C719 C721 1.450 . S
C720 C718 1.415 . S
C720 C725 1.425 1_655 S
C720 C727 1.409 . S
C721 H713 0.930 . S
C721 C719 1.450 . S
C721 C722 1.362 . S
C722 H714 0.930 . S
C722 C721 1.362 . S
C722 C725 1.409 . S
C723 H715 0.930 . S
C723 C724 1.355 1_455 S
C723 C725 1.415 . S
C724 C723 1.355 1_655 S
C724 C726 1.419 . S
C725 C720 1.425 1_455 S
C725 C722 1.409 . S
C725 C723 1.415 . S
C726 H716 0.930 . S
C726 C724 1.419 . S
C726 C727 1.362 . S
C727 H717 0.930 . S
C727 C720 1.409 . S
C727 C726 1.362 . S
H728 C734 0.930 . S
H729 C737 0.930 . S
H730 C738 0.930 . S
H731 C739 0.930 . S
H732 C742 0.930 . S
H733 C743 0.930 . S
C734 H728 0.930 . S
C734 C735 1.355 . S
C734 C736 1.415 . S
C735 C734 1.355 . S
C735 C737 1.419 . S
C736 C734 1.415 . S
C736 C741 1.425 . S
C736 C743 1.409 . S
C737 H729 0.930 . S
C737 C735 1.419 . S
C737 C738 1.362 . S
C738 H730 0.930 . S
C738 C737 1.362 . S
C738 C741 1.409 . S
C739 H731 0.930 . S
C739 C740 1.355 . S
C739 C741 1.415 . S
C740 C739 1.355 . S
C740 C742 1.419 . S
C741 C736 1.425 . S
C741 C738 1.409 . S
C741 C739 1.415 . S
C742 H732 0.930 . S
C742 C740 1.419 . S
C742 C743 1.362 . S
C743 H733 0.930 . S
C743 C736 1.409 . S
C743 C742 1.362 . S
H744 C750 0.930 . S
H745 C753 0.930 . S
H746 C754 0.930 . S
H747 C755 0.930 . S
H748 C758 0.930 . S
H749 C759 0.930 . S
C750 H744 0.930 . S
C750 C751 1.355 . S
C750 C752 1.415 . S
C751 C750 1.355 . S
C751 C753 1.419 . S
C752 C750 1.415 . S
C752 C757 1.425 . S
C752 C759 1.409 . S
C753 H745 0.930 . S
C753 C751 1.419 . S
C753 C754 1.362 . S
C754 H746 0.930 . S
C754 C753 1.362 . S
C754 C757 1.409 . S
C755 H747 0.930 . S
C755 C756 1.355 . S
C755 C757 1.415 . S
C756 C755 1.355 . S
C756 C758 1.419 . S
C757 C752 1.425 . S
C757 C754 1.409 . S
C757 C755 1.415 . S
C758 H748 0.930 . S
C758 C756 1.419 . S
C758 C759 1.362 . S
C759 H749 0.930 . S
C759 C752 1.409 . S
C759 C758 1.362 . S
H760 C766 0.930 . S
H761 C769 0.930 . S
H762 C770 0.930 . S
H763 C771 0.930 . S
H764 C774 0.930 . S
H765 C775 0.930 . S
C766 H760 0.930 . S
C766 C767 1.355 . S
C766 C768 1.415 . S
C767 C766 1.355 . S
C767 C769 1.419 . S
C768 C766 1.415 . S
C768 C773 1.425 . S
C768 C775 1.409 . S
C769 H761 0.930 . S
C769 C767 1.419 . S
C769 C770 1.362 . S
C770 H762 0.930 . S
C770 C769 1.362 . S
C770 C773 1.409 . S
C771 H763 0.930 . S
C771 C772 1.355 . S
C771 C773 1.415 . S
C772 C771 1.355 . S
C772 C774 1.419 . S
C773 C768 1.425 . S
C773 C770 1.409 . S
C773 C771 1.415 . S
C774 H764 0.930 . S
C774 C772 1.419 . S
C774 C775 1.362 . S
C775 H765 0.930 . S
C775 C768 1.409 . S
C775 C774 1.362 . S
C399 C255 1.846 . S
C404 C330 1.925 . S
C420 C350 1.672 . S
C415 C294 1.674 . S
C436 C370 1.926 . S
C431 C177 1.848 . S
C452 C390 1.614 . S
C447 C216 1.643 1_455 S
C468 C331 1.980 . S
C463 C99 1.929 . S
C479 C138 1.624 . S
C484 C351 1.605 . S
C495 C21 1.826 . S
C500 C371 1.894 . S
C511 C60 1.613 1_455 S
C516 C391 1.599 . S
C532 C321 0.646 . S
C527 C196 0.650 . S
C548 C341 0.835 . S
C543 C235 0.884 . S
C564 C361 0.837 . S
C559 C289 0.788 . S
C575 C157 0.987 . S
C580 C381 0.962 . S
C591 C40 0.766 1_455 S
C596 C324 0.758 . S
C612 C344 0.947 . S
C607 C79 0.969 . S
C628 C364 0.659 . S
C623 C133 0.697 . S
C639 C1 0.982 . S
C644 C384 0.940 . S
C655 C211 2.058 . S
C660 C314 2.016 . S
C671 C250 2.152 . S
C676 C334 2.141 . S
C692 C354 2.026 . S
C687 C274 2.068 . S
C708 C374 2.201 . S
C703 C172 2.192 . S
C719 C55 2.084 . S
C724 C316 2.079 . S
C740 C336 2.074 . S
C735 C94 2.111 . S
C756 C356 1.984 . S
C751 C118 2.044 . S
C767 C16 2.224 . S
C772 C376 2.214 . S
