# Generated by pormake.
# Topology dag, (6,3)-cn, num edge types: 1
# Building blocks:
#     Node 0, Type 0, BuildingBlock: OJICUG_clean_sbu_0, # of connection points: 6
#     Node 1, Type 0, BuildingBlock: OJICUG_clean_sbu_0, # of connection points: 6
#     Node 2, Type 0, BuildingBlock: OJICUG_clean_sbu_0, # of connection points: 6
#     Node 3, Type 0, BuildingBlock: OJICUG_clean_sbu_0, # of connection points: 6
#     Node 4, Type 1, BuildingBlock: KAKCAD_clean_linker_0, # of connection points: 3
#     Node 5, Type 1, BuildingBlock: KAKCAD_clean_linker_0, # of connection points: 3
#     Node 6, Type 1, BuildingBlock: KAKCAD_clean_linker_0, # of connection points: 3
#     Node 7, Type 1, BuildingBlock: KAKCAD_clean_linker_0, # of connection points: 3
#     Node 8, Type 1, BuildingBlock: KAKCAD_clean_linker_0, # of connection points: 3
#     Node 9, Type 1, BuildingBlock: KAKCAD_clean_linker_0, # of connection points: 3
#     Node 10, Type 1, BuildingBlock: KAKCAD_clean_linker_0, # of connection points: 3
#     Node 11, Type 1, BuildingBlock: KAKCAD_clean_linker_0, # of connection points: 3
#     Edge 12, Type (0, 1), BuildingBlock: ZUJKAS_clean_linker_0, # of connection points: 2
#     Edge 13, Type (0, 1), BuildingBlock: ZUJKAS_clean_linker_0, # of connection points: 2
#     Edge 14, Type (0, 1), BuildingBlock: ZUJKAS_clean_linker_0, # of connection points: 2
#     Edge 15, Type (0, 1), BuildingBlock: ZUJKAS_clean_linker_0, # of connection points: 2
#     Edge 16, Type (0, 1), BuildingBlock: ZUJKAS_clean_linker_0, # of connection points: 2
#     Edge 17, Type (0, 1), BuildingBlock: ZUJKAS_clean_linker_0, # of connection points: 2
#     Edge 18, Type (0, 1), BuildingBlock: ZUJKAS_clean_linker_0, # of connection points: 2
#     Edge 19, Type (0, 1), BuildingBlock: ZUJKAS_clean_linker_0, # of connection points: 2
#     Edge 20, Type (0, 1), BuildingBlock: ZUJKAS_clean_linker_0, # of connection points: 2
#     Edge 21, Type (0, 1), BuildingBlock: ZUJKAS_clean_linker_0, # of connection points: 2
#     Edge 22, Type (0, 1), BuildingBlock: ZUJKAS_clean_linker_0, # of connection points: 2
#     Edge 23, Type (0, 1), BuildingBlock: ZUJKAS_clean_linker_0, # of connection points: 2
#     Edge 24, Type (0, 1), BuildingBlock: ZUJKAS_clean_linker_0, # of connection points: 2
#     Edge 25, Type (0, 1), BuildingBlock: ZUJKAS_clean_linker_0, # of connection points: 2
#     Edge 26, Type (0, 1), BuildingBlock: ZUJKAS_clean_linker_0, # of connection points: 2
#     Edge 27, Type (0, 1), BuildingBlock: ZUJKAS_clean_linker_0, # of connection points: 2
#     Edge 28, Type (0, 1), BuildingBlock: ZUJKAS_clean_linker_0, # of connection points: 2
#     Edge 29, Type (0, 1), BuildingBlock: ZUJKAS_clean_linker_0, # of connection points: 2
#     Edge 30, Type (0, 1), BuildingBlock: ZUJKAS_clean_linker_0, # of connection points: 2
#     Edge 31, Type (0, 1), BuildingBlock: ZUJKAS_clean_linker_0, # of connection points: 2
#     Edge 32, Type (0, 1), BuildingBlock: ZUJKAS_clean_linker_0, # of connection points: 2
#     Edge 33, Type (0, 1), BuildingBlock: ZUJKAS_clean_linker_0, # of connection points: 2
#     Edge 34, Type (0, 1), BuildingBlock: ZUJKAS_clean_linker_0, # of connection points: 2
#     Edge 35, Type (0, 1), BuildingBlock: ZUJKAS_clean_linker_0, # of connection points: 2
# Relax obj value: 0.252
# Max RMSD: 0.198
# Mean RMSD: 0.164
data_MOF--net-dag--node1-OJICUG_clean_sbu_0--node2-KAKCAD_clean_linker_0--edge1-ZUJKAS_clean_linker_0
_symmetry_space_group_name_H-M    P1
_symmetry_Int_Tables_number       1
_symmetry_cell_setting            triclinic
loop_
_symmetry_equiv_pos_as_xyz
'x, y, z'
_cell_length_a     54.524138
_cell_length_b     56.987018
_cell_length_c     55.981166
_cell_angle_alpha  95.167102
_cell_angle_beta   90.08994
_cell_angle_gamma 90.06606
loop_
_atom_site_label
_atom_site_type_symbol
_atom_site_fract_x
_atom_site_fract_y
_atom_site_fract_z
_atom_type_partial_charge
Sc0 Sc 0.13196 0.84654 0.04683 0.0
Sc1 Sc 0.14512 0.78612 0.04821 0.0
Sc2 Sc 0.18427 0.82917 0.07751 0.0
O3 O 0.1538 0.82059 0.0575 0.0
C4 C 0.1852 0.86901 0.0411 0.0
C5 C 0.13346 0.81015 -2e-05 0.0
C6 C 0.20352 0.78604 0.04225 0.0
C7 C 0.09215 0.80819 0.05918 0.0
C8 C 0.1449 0.86613 0.10055 0.0
C9 C 0.16321 0.78487 0.10231 0.0
O10 O 0.16239 0.8675 0.03653 0.0
O11 O 0.13839 0.79222 0.01116 0.0
O12 O 0.20705 0.80486 0.05582 0.0
O13 O 0.09872 0.82904 0.05589 0.0
O14 O 0.1648 0.85458 0.10139 0.0
O15 O 0.15081 0.77646 0.08425 0.0
O16 O 0.13108 0.86484 0.08216 0.0
O17 O 0.10685 0.79084 0.05709 0.0
O18 O 0.17623 0.80337 0.10212 0.0
O19 O 0.13074 0.8307 0.01052 0.0
O20 O 0.19581 0.85611 0.05533 0.0
O21 O 0.18234 0.77717 0.03822 0.0
Sc22 Sc 0.68373 0.67155 0.47545 0.0
Sc23 Sc 0.64399 0.71376 0.50491 0.0
Sc24 Sc 0.62951 0.65321 0.50214 0.0
O25 O 0.65241 0.67953 0.49419 0.0
C26 C 0.64539 0.63604 0.44844 0.0
C27 C 0.66538 0.71793 0.45249 0.0
C28 C 0.59136 0.69274 0.48944 0.0
C29 C 0.7019 0.71238 0.51414 0.0
C30 C 0.6818 0.62985 0.50981 0.0
C31 C 0.62817 0.68751 0.55058 0.0
O32 O 0.66512 0.64801 0.44896 0.0
O33 O 0.65193 0.7254 0.4701 0.0
O34 O 0.59747 0.6715 0.49149 0.0
O35 O 0.70567 0.69406 0.49995 0.0
O36 O 0.6589 0.63168 0.51375 0.0
O37 O 0.63509 0.70581 0.54097 0.0
O38 O 0.69319 0.64293 0.49632 0.0
O39 O 0.68083 0.7217 0.5173 0.0
O40 O 0.62534 0.66758 0.53874 0.0
O41 O 0.678 0.69917 0.45233 0.0
O42 O 0.63099 0.63612 0.4663 0.0
O43 O 0.60608 0.70993 0.49378 0.0
Sc44 Sc 0.85779 0.21413 0.00833 0.0
Sc45 Sc 0.8181 0.17261 0.97755 0.0
Sc46 Sc 0.87041 0.1533 0.00684 0.0
O47 O 0.84877 0.18003 0.99758 0.0
C48 C 0.91037 0.19163 0.99534 0.0
C49 C 0.83914 0.2182 0.95494 0.0
C50 C 0.85625 0.13578 0.95268 0.0
C51 C 0.79948 0.21427 0.01488 0.0
C52 C 0.87047 0.18813 0.05496 0.0
C53 C 0.81711 0.13138 0.0126 0.0
O54 O 0.89606 0.20917 -0.00075 0.0
O55 O 0.82571 0.19992 0.95454 0.0
O56 O 0.86963 0.1355 0.97127 0.0
O57 O 0.82066 0.22322 0.01866 0.0
O58 O 0.87364 0.16815 0.04336 0.0
O59 O 0.80688 0.14431 0.99815 0.0
O60 O 0.8643 0.20642 0.04493 0.0
O61 O 0.79576 0.19572 0.00096 0.0
O62 O 0.8398 0.13293 0.01778 0.0
O63 O 0.85219 0.22546 0.97297 0.0
O64 O 0.90348 0.17053 0.99699 0.0
O65 O 0.83719 0.14857 0.95204 0.0
Sc66 Sc 0.36908 0.34285 0.54118 0.0
Sc67 Sc 0.31866 0.32545 0.57445 0.0
Sc68 Sc 0.35632 0.28249 0.54336 0.0
O69 O 0.348 0.3169 0.55299 0.0
C70 C 0.36596 0.30675 0.49464 0.0
C71 C 0.31538 0.36523 0.5383 0.0
C72 C 0.29794 0.2824 0.53949 0.0
C73 C 0.35944 0.36228 0.59542 0.0
C74 C 0.40946 0.30439 0.55203 0.0
C75 C 0.34011 0.28093 0.5981 0.0
O76 O 0.3674 0.32758 0.50479 0.0
O77 O 0.30539 0.35173 0.55231 0.0
O78 O 0.31893 0.27419 0.53339 0.0
O79 O 0.37269 0.36042 0.57666 0.0
O80 O 0.39454 0.28729 0.55254 0.0
O81 O 0.3284 0.30025 0.59907 0.0
O82 O 0.4029 0.32484 0.54724 0.0
O83 O 0.33914 0.35143 0.59688 0.0
O84 O 0.35061 0.27206 0.57912 0.0
O85 O 0.33812 0.36433 0.53336 0.0
O86 O 0.3631 0.28873 0.50627 0.0
O87 O 0.29508 0.30038 0.55441 0.0
C88 C 0.98451 0.1799 0.29395 0.0
C89 C 0.96343 0.16797 0.2849 0.0
C90 C 0.00045 0.16927 0.30926 0.0
C91 C 0.99574 0.14641 0.31565 0.0
C92 C 0.97406 0.13493 0.30753 0.0
C93 C 0.95798 0.14567 0.29239 0.0
C94 C 0.01456 0.1338 0.32873 0.0
C95 C 0.02694 0.14522 0.34847 0.0
C96 C 0.04678 0.13432 0.35908 0.0
C97 C 0.05379 0.1115 0.35003 0.0
C98 C 0.04179 0.09988 0.33008 0.0
C99 C 0.02198 0.11112 0.31977 0.0
C100 C 0.0515 0.07731 0.31828 0.0
C101 C 0.07694 0.07369 0.31601 0.0
C102 C 0.03554 0.06005 0.3075 0.0
C103 C 0.04475 0.04032 0.29376 0.0
C104 C 0.07018 0.03724 0.29065 0.0
C105 C 0.06188 0.14764 0.37782 0.0
C106 C 0.0685 0.17112 0.37524 0.0
C107 C 0.07127 0.13661 0.39735 0.0
C108 C 0.08763 0.14853 0.41346 0.0
C109 C 0.09498 0.1717 0.41028 0.0
C110 C 0.08484 0.18301 0.39129 0.0
C111 C 0.08614 0.05385 0.30251 0.0
H112 H 0.98906 0.19717 0.28855 0.0
H113 H 0.01712 0.17846 0.31509 0.0
H114 H 0.96994 0.11735 0.31231 0.0
H115 H 0.94197 0.13599 0.28554 0.0
H116 H 0.02141 0.16283 0.35527 0.0
H117 H 0.01334 0.10292 0.30368 0.0
H118 H 0.06934 0.1032 0.35788 0.0
H119 H 0.08986 0.08666 0.32378 0.0
H120 H 0.01585 0.06208 0.30916 0.0
H121 H 0.03186 0.02802 0.28479 0.0
H122 H 0.06184 0.18007 0.36025 0.0
H123 H 0.06633 0.11859 0.39993 0.0
H124 H 0.10584 0.05184 0.30091 0.0
H125 H 0.0899 0.20096 0.38856 0.0
H126 H 0.09522 0.13931 0.42786 0.0
C127 C 0.41491 0.55045 0.79601 0.0
C128 C 0.43245 0.53512 0.7848 0.0
C129 C 0.42217 0.57079 0.81 0.0
C130 C 0.44718 0.57622 0.81338 0.0
C131 C 0.46473 0.56021 0.80327 0.0
C132 C 0.45746 0.53994 0.78909 0.0
C133 C 0.45473 0.59944 0.82553 0.0
C134 C 0.44121 0.61003 0.84492 0.0
C135 C 0.44587 0.6334 0.85408 0.0
C136 C 0.465 0.64597 0.84422 0.0
C137 C 0.4791 0.63545 0.8252 0.0
C138 C 0.4739 0.61221 0.81606 0.0
C139 C 0.49734 0.64928 0.81274 0.0
C140 C 0.49075 0.67102 0.80461 0.0
C141 C 0.5203 0.63951 0.80633 0.0
C142 C 0.53577 0.65056 0.7909 0.0
C143 C 0.52843 0.67144 0.7814 0.0
C144 C 0.4293 0.6452 0.87243 0.0
C145 C 0.4038 0.6422 0.87013 0.0
C146 C 0.43858 0.65986 0.8919 0.0
C147 C 0.42263 0.67118 0.9088 0.0
C148 C 0.3971 0.6681 0.90648 0.0
C149 C 0.38792 0.65351 0.8869 0.0
C150 C 0.50611 0.68194 0.78897 0.0
H151 H 0.39549 0.54706 0.79348 0.0
H152 H 0.40809 0.58276 0.81726 0.0
H153 H 0.48415 0.56366 0.80579 0.0
H154 H 0.47149 0.52861 0.78066 0.0
H155 H 0.42661 0.60023 0.85261 0.0
H156 H 0.48378 0.60467 0.80043 0.0
H157 H 0.46836 0.66418 0.85072 0.0
H158 H 0.47308 0.67885 0.80914 0.0
H159 H 0.52583 0.6228 0.81245 0.0
H160 H 0.55277 0.64196 0.78525 0.0
H161 H 0.39604 0.63147 0.85503 0.0
H162 H 0.45816 0.6624 0.89418 0.0
H163 H 0.50009 0.69812 0.78202 0.0
H164 H 0.36836 0.6512 0.88421 0.0
H165 H 0.43029 0.68216 0.92378 0.0
C166 C 0.81914 0.8038 0.09935 0.0
C167 C 0.83733 0.8021 0.11696 0.0
C168 C 0.79551 0.81141 0.10579 0.0
C169 C 0.78951 0.81737 0.12997 0.0
C170 C 0.80732 0.81456 0.14766 0.0
C171 C 0.83097 0.80704 0.14123 0.0
C172 C 0.76555 0.82845 0.1366 0.0
C173 C 0.75255 0.82224 0.15672 0.0
C174 C 0.73113 0.83442 0.1644 0.0
C175 C 0.72279 0.85301 0.15161 0.0
C176 C 0.73567 0.8595 0.13153 0.0
C177 C 0.75682 0.84692 0.12398 0.0
C178 C 0.72884 0.8809 0.11985 0.0
C179 C 0.72943 0.88085 0.09476 0.0
C180 C 0.72434 0.90218 0.13383 0.0
C181 C 0.72211 0.92324 0.12302 0.0
C182 C 0.72423 0.92343 0.09801 0.0
C183 C 0.71851 0.82868 0.18668 0.0
C184 C 0.71618 0.80517 0.19209 0.0
C185 C 0.70984 0.84673 0.2033 0.0
C186 C 0.69977 0.84144 0.22511 0.0
C187 C 0.69827 0.81799 0.2309 0.0
C188 C 0.70627 0.79989 0.21396 0.0
C189 C 0.72707 0.90188 0.08395 0.0
H190 H 0.82331 0.79971 0.08053 0.0
H191 H 0.78205 0.81311 0.0918 0.0
H192 H 0.80335 0.81932 0.16643 0.0
H193 H 0.84459 0.80623 0.15523 0.0
H194 H 0.75959 0.80835 0.16681 0.0
H195 H 0.76742 0.85254 0.10914 0.0
H196 H 0.70638 0.86262 0.15736 0.0
H197 H 0.73255 0.86462 0.08355 0.0
H198 H 0.72404 0.90279 0.15322 0.0
H199 H 0.72019 0.93952 0.13442 0.0
H200 H 0.72237 0.79082 0.17956 0.0
H201 H 0.71155 0.86506 0.19984 0.0
H202 H 0.72827 0.90135 0.06459 0.0
H203 H 0.70566 0.78164 0.21788 0.0
H204 H 0.69349 0.85579 0.2376 0.0
C205 C 0.67082 0.3043 0.64566 0.0
C206 C 0.66259 0.30426 0.62183 0.0
C207 C 0.69439 0.31215 0.65213 0.0
C208 C 0.71059 0.31975 0.63485 0.0
C209 C 0.7029 0.31827 0.61077 0.0
C210 C 0.67917 0.31085 0.60437 0.0
C211 C 0.73456 0.33084 0.64216 0.0
C212 C 0.74788 0.32343 0.66163 0.0
C213 C 0.76902 0.33558 0.67015 0.0
C214 C 0.77751 0.3548 0.65849 0.0
C215 C 0.76449 0.36251 0.639 0.0
C216 C 0.74311 0.35041 0.63099 0.0
C217 C 0.77137 0.38466 0.62857 0.0
C218 C 0.77766 0.40489 0.64358 0.0
C219 C 0.76923 0.3864 0.60378 0.0
C220 C 0.77171 0.40816 0.59439 0.0
C221 C 0.77649 0.42867 0.60959 0.0
C222 C 0.78057 0.32983 0.69281 0.0
C223 C 0.76595 0.3284 0.71325 0.0
C224 C 0.80605 0.32668 0.69454 0.0
C225 C 0.81667 0.32192 0.71638 0.0
C226 C 0.80199 0.3208 0.73686 0.0
C227 C 0.77656 0.32406 0.73506 0.0
C228 C 0.78024 0.42665 0.63418 0.0
H229 H 0.65885 0.29883 0.65955 0.0
H230 H 0.69945 0.31317 0.6709 0.0
H231 H 0.715 0.32347 0.59685 0.0
H232 H 0.67358 0.31128 0.58586 0.0
H233 H 0.74161 0.30844 0.67057 0.0
H234 H 0.73225 0.35722 0.61695 0.0
H235 H 0.79363 0.36437 0.66528 0.0
H236 H 0.7793 0.40421 0.66279 0.0
H237 H 0.7647 0.37106 0.59172 0.0
H238 H 0.76852 0.40906 0.5754 0.0
H239 H 0.7463 0.33105 0.71244 0.0
H240 H 0.81766 0.32775 0.679 0.0
H241 H 0.7843 0.44206 0.64632 0.0
H242 H 0.76483 0.323 0.75053 0.0
H243 H 0.83632 0.31943 0.71737 0.0
C244 C 0.57008 0.45703 0.24311 0.0
C245 C 0.56733 0.46076 0.26813 0.0
C246 C 0.56198 0.436 0.2307 0.0
C247 C 0.55106 0.4183 0.24309 0.0
C248 C 0.54858 0.42204 0.26813 0.0
C249 C 0.55655 0.443 0.28047 0.0
C250 C 0.5427 0.39573 0.23022 0.0
C251 C 0.55732 0.3839 0.21235 0.0
C252 C 0.55056 0.36151 0.20161 0.0
C253 C 0.52883 0.35101 0.20912 0.0
C254 C 0.51412 0.36259 0.22702 0.0
C255 C 0.52092 0.38507 0.2371 0.0
C256 C 0.49318 0.3504 0.23738 0.0
C257 C 0.47084 0.36217 0.24192 0.0
C258 C 0.49654 0.32809 0.24566 0.0
C259 C 0.47866 0.31854 0.25982 0.0
C260 C 0.45696 0.33105 0.26581 0.0
C261 C 0.56707 0.34857 0.18379 0.0
C262 C 0.58047 0.36071 0.16732 0.0
C263 C 0.57036 0.32409 0.18376 0.0
C264 C 0.58692 0.31217 0.16802 0.0
C265 C 0.60096 0.32443 0.15212 0.0
C266 C 0.59731 0.34884 0.15181 0.0
C267 C 0.45283 0.35252 0.25584 0.0
H268 H 0.5782 0.47046 0.23311 0.0
H269 H 0.56402 0.43371 0.21139 0.0
H270 H 0.54086 0.40855 0.27833 0.0
H271 H 0.55468 0.44511 0.29981 0.0
H272 H 0.57465 0.39163 0.20774 0.0
H273 H 0.50968 0.3939 0.25111 0.0
H274 H 0.52336 0.33374 0.20123 0.0
H275 H 0.4677 0.37929 0.23549 0.0
H276 H 0.5137 0.31874 0.2426 0.0
H277 H 0.48262 0.3021 0.26732 0.0
H278 H 0.57816 0.3795 0.16653 0.0
H279 H 0.56066 0.31412 0.19635 0.0
H280 H 0.43609 0.36236 0.25961 0.0
H281 H 0.60792 0.35898 0.14004 0.0
H282 H 0.58885 0.29331 0.1685 0.0
C283 C 0.17015 0.19205 0.90517 0.0
C284 C 0.163 0.19613 0.9293 0.0
C285 C 0.1939 0.1845 0.89922 0.0
C286 C 0.21113 0.18096 0.91726 0.0
C287 C 0.20434 0.18615 0.94138 0.0
C288 C 0.18054 0.19364 0.94733 0.0
C289 C 0.23531 0.17006 0.91091 0.0
C290 C 0.24808 0.17587 0.89051 0.0
C291 C 0.26941 0.1636 0.88287 0.0
C292 C 0.27834 0.14566 0.89614 0.0
C293 C 0.26579 0.1396 0.91661 0.0
C294 C 0.24447 0.15205 0.92397 0.0
C295 C 0.27288 0.11851 0.92872 0.0
C296 C 0.27762 0.09704 0.91513 0.0
C297 C 0.27209 0.11897 0.95384 0.0
C298 C 0.27435 0.09814 0.96504 0.0
C299 C 0.27733 0.07641 0.95135 0.0
C300 C 0.28099 0.16817 0.85984 0.0
C301 C 0.26641 0.16885 0.83922 0.0
C302 C 0.30643 0.17159 0.85815 0.0
C303 C 0.31702 0.17609 0.83625 0.0
C304 C 0.30236 0.17679 0.81565 0.0
C305 C 0.27699 0.17302 0.81736 0.0
C306 C 0.2798 0.0762 0.92633 0.0
H307 H 0.15719 0.19413 0.89084 0.0
H308 H 0.19839 0.18047 0.88046 0.0
H309 H 0.21727 0.18388 0.95569 0.0
H310 H 0.17562 0.19649 0.96611 0.0
H311 H 0.24122 0.18973 0.88025 0.0
H312 H 0.23404 0.14658 0.93898 0.0
H313 H 0.29445 0.13578 0.88997 0.0
H314 H 0.27806 0.09608 0.89573 0.0
H315 H 0.26881 0.13533 0.96477 0.0
H316 H 0.27285 0.09895 0.98439 0.0
H317 H 0.24679 0.16599 0.83998 0.0
H318 H 0.31803 0.17114 0.87383 0.0
H319 H 0.28186 0.05976 0.91523 0.0
H320 H 0.26521 0.17375 0.80184 0.0
H321 H 0.33663 0.17892 0.83537 0.0
C322 C 0.321 0.70547 0.42371 0.0
C323 C 0.34008 0.68911 0.42543 0.0
C324 C 0.29686 0.69772 0.41947 0.0
C325 C 0.29136 0.67351 0.41719 0.0
C326 C 0.31046 0.65724 0.419 0.0
C327 C 0.33449 0.66494 0.42307 0.0
C328 C 0.26597 0.66489 0.41238 0.0
C329 C 0.25172 0.67386 0.39442 0.0
C330 C 0.22895 0.66363 0.38772 0.0
C331 C 0.22034 0.6444 0.39941 0.0
C332 C 0.23409 0.63575 0.41792 0.0
C333 C 0.25676 0.64619 0.42437 0.0
C334 C 0.22625 0.61456 0.42936 0.0
C335 C 0.22753 0.61429 0.45437 0.0
C336 C 0.22047 0.59365 0.41524 0.0
C337 C 0.21796 0.57246 0.42583 0.0
C338 C 0.22104 0.57188 0.45073 0.0
C339 C 0.21519 0.67213 0.36736 0.0
C340 C 0.21215 0.69638 0.36568 0.0
C341 C 0.20654 0.65615 0.34866 0.0
C342 C 0.19606 0.66433 0.32816 0.0
C343 C 0.1939 0.68865 0.32604 0.0
C344 C 0.2015 0.70455 0.34531 0.0
C345 C 0.22482 0.59319 0.46496 0.0
H346 H 0.32479 0.72421 0.42538 0.0
H347 H 0.28247 0.71064 0.41818 0.0
H348 H 0.30689 0.63847 0.41697 0.0
H349 H 0.34871 0.65191 0.42465 0.0
H350 H 0.25898 0.68792 0.38467 0.0
H351 H 0.26773 0.63912 0.43821 0.0
H352 H 0.20296 0.63621 0.39415 0.0
H353 H 0.23166 0.63026 0.46566 0.0
H354 H 0.21955 0.59339 0.39589 0.0
H355 H 0.2152 0.55636 0.41431 0.0
H356 H 0.21836 0.70906 0.38001 0.0
H357 H 0.20888 0.63736 0.34939 0.0
H358 H 0.22672 0.59342 0.48425 0.0
H359 H 0.19961 0.72338 0.34451 0.0
H360 H 0.19066 0.65159 0.31357 0.0
C361 C 0.04748 0.85031 0.75809 0.0
C362 C 0.04402 0.82899 0.76853 0.0
C363 C 0.02901 0.85928 0.74419 0.0
C364 C 0.00682 0.847 0.74022 0.0
C365 C 0.00421 0.82473 0.74883 0.0
C366 C 0.0226 0.81584 0.76292 0.0
C367 C 0.98522 0.85879 0.73056 0.0
C368 C 0.96974 0.84683 0.71346 0.0
C369 C 0.9474 0.85692 0.70723 0.0
C370 C 0.94062 0.87911 0.71815 0.0
C371 C 0.95593 0.89131 0.73523 0.0
C372 C 0.97841 0.88118 0.74094 0.0
C373 C 0.94747 0.91349 0.74872 0.0
C374 C 0.9349 0.93081 0.73715 0.0
C375 C 0.95115 0.91702 0.77364 0.0
C376 C 0.94231 0.93721 0.78672 0.0
C377 C 0.92938 0.95435 0.77528 0.0
C378 C 0.93017 0.84353 0.69074 0.0
C379 C 0.93775 0.83426 0.66785 0.0
C380 C 0.90589 0.84 0.69795 0.0
C381 C 0.88945 0.82741 0.68256 0.0
C382 C 0.89687 0.8184 0.65954 0.0
C383 C 0.92113 0.82199 0.65225 0.0
C384 C 0.92598 0.95107 0.7503 0.0
H385 H 0.064 0.86062 0.76159 0.0
H386 H 0.03158 0.87637 0.7375 0.0
H387 H 0.9872 0.81498 0.74622 0.0
H388 H 0.01919 0.79947 0.77078 0.0
H389 H 0.97462 0.82934 0.70572 0.0
H390 H 0.99017 0.89027 0.75441 0.0
H391 H 0.92298 0.88647 0.71393 0.0
H392 H 0.93191 0.92868 0.71795 0.0
H393 H 0.9604 0.9039 0.78322 0.0
H394 H 0.94561 0.93935 0.80587 0.0
H395 H 0.95639 0.83682 0.66194 0.0
H396 H 0.89969 0.84684 0.71559 0.0
H397 H 0.91598 0.9639 0.74098 0.0
H398 H 0.92727 0.81511 0.6346 0.0
H399 H 0.87079 0.82501 0.68851 0.0
H400 H 0.1007 0.88799 0.10887 0.0
H401 H 0.08911 0.91537 0.14299 0.0
H402 H 0.16073 0.90813 0.17425 0.0
H403 H 0.17241 0.88025 0.14038 0.0
H404 H 0.12369 0.90764 0.20763 0.0
H405 H 0.11262 0.98316 0.15265 0.0
H406 H 0.09418 0.95817 0.14232 0.0
H407 H 0.12709 0.95597 0.14128 0.0
C408 C 0.11404 0.89218 0.12297 0.0
C409 C 0.1376 0.88209 0.12172 0.0
C410 C 0.10739 0.90792 0.14243 0.0
C411 C 0.12423 0.91415 0.16089 0.0
C412 C 0.14751 0.90365 0.1601 0.0
H413 H 0.10887 0.03892 0.25977 0.0
H414 H 0.12347 0.00802 0.23038 0.0
C415 C 0.15415 0.88775 0.1407 0.0
C416 C 0.11762 0.93188 0.18085 0.0
H417 H 0.09833 0.98864 0.19282 0.0
C418 C 0.11825 0.9254 0.20445 0.0
C419 C 0.11091 0.95513 0.17666 0.0
C420 C 0.11138 0.96364 0.15189 0.0
C421 C 0.11189 0.94146 0.22398 0.0
C422 C 0.10424 0.96442 0.21968 0.0
C423 C 0.104 0.97097 0.19609 0.0
C424 C 0.09664 0.98219 0.23926 0.0
C425 C 0.11385 0.9338 0.24902 0.0
C426 C 0.07682 0.9779 0.25424 0.0
C427 C 0.06865 0.99547 0.27145 0.0
C428 C 0.07995 0.01778 0.27379 0.0
C429 C 0.09999 0.02186 0.25889 0.0
C430 C 0.10825 0.00426 0.24187 0.0
H431 H 0.12651 0.91861 0.24972 0.0
H432 H 0.12041 0.94844 0.26188 0.0
H433 H 0.0955 0.92823 0.25492 0.0
H434 H 0.06724 0.96119 0.25223 0.0
H435 H 0.05331 0.99163 0.28274 0.0
H436 H 0.60321 0.65586 0.57507 0.0
H437 H 0.59206 0.65924 0.61728 0.0
H438 H 0.62919 0.72628 0.62764 0.0
H439 H 0.63986 0.7234 0.58495 0.0
H440 H 0.61969 0.66212 0.65692 0.0
H441 H 0.56261 0.74282 0.65566 0.0
H442 H 0.57344 0.72664 0.62857 0.0
H443 H 0.59388 0.74583 0.64638 0.0
C444 C 0.60907 0.67137 0.58624 0.0
C445 C 0.62232 0.68944 0.57654 0.0
C446 C 0.60268 0.67325 0.61044 0.0
C447 C 0.60949 0.69315 0.62559 0.0
C448 C 0.62324 0.71102 0.61618 0.0
H449 H 0.57811 0.6784 0.7783 0.0
H450 H 0.60121 0.68791 0.74282 0.0
C451 C 0.62944 0.70928 0.5918 0.0
C452 C 0.60187 0.6948 0.65113 0.0
H453 H 0.56528 0.7257 0.69222 0.0
C454 C 0.60799 0.67614 0.66477 0.0
C455 C 0.58654 0.71309 0.66125 0.0
C456 C 0.57851 0.73315 0.64721 0.0
C457 C 0.59825 0.6746 0.68775 0.0
C458 C 0.5826 0.6927 0.69776 0.0
C459 C 0.57741 0.71194 0.68457 0.0
C460 C 0.56906 0.69051 0.72045 0.0
C461 C 0.60362 0.65283 0.70038 0.0
C462 C 0.54332 0.69023 0.7201 0.0
C463 C 0.53015 0.6853 0.7404 0.0
C464 C 0.54246 0.6804 0.76145 0.0
C465 C 0.5682 0.68186 0.76221 0.0
C466 C 0.58139 0.68715 0.74193 0.0
H467 H 0.61141 0.63841 0.688 0.0
H468 H 0.61721 0.65723 0.71487 0.0
H469 H 0.58674 0.64619 0.70857 0.0
H470 H 0.53339 0.69279 0.70375 0.0
H471 H 0.51036 0.68406 0.73918 0.0
H472 H 0.76803 0.12206 0.00608 0.0
H473 H 0.74421 0.09045 0.02172 0.0
H474 H 0.8085 0.06757 0.05807 0.0
H475 H 0.83237 0.09919 0.04291 0.0
H476 H 0.7523 0.04322 0.01288 0.0
H477 H 0.757 0.06855 0.11045 0.0
H478 H 0.76451 0.08876 0.08848 0.0
H479 H 0.78683 0.06775 0.09694 0.0
C480 C 0.77707 0.11049 0.01765 0.0
C481 C 0.80217 0.1132 0.02321 0.0
C482 C 0.76339 0.09245 0.02657 0.0
C483 C 0.77448 0.0769 0.04135 0.0
C484 C 0.79941 0.07972 0.04717 0.0
H485 H 0.75566 0.93433 0.06283 0.0
H486 H 0.76246 0.97255 0.04784 0.0
C487 C 0.81309 0.09774 0.03831 0.0
C488 C 0.76068 0.05658 0.04922 0.0
H489 H 0.74815 0.02762 0.09854 0.0
C490 C 0.75098 0.04 0.03164 0.0
C491 C 0.75853 0.0526 0.07371 0.0
C492 C 0.76704 0.0705 0.09348 0.0
C493 C 0.74065 0.01882 0.03781 0.0
C494 C 0.74041 0.01398 0.06214 0.0
C495 C 0.74861 0.03123 0.07985 0.0
C496 C 0.73404 0.99039 0.06942 0.0
C497 C 0.73055 0.00163 0.01816 0.0
C498 C 0.71586 0.9877 0.08669 0.0
C499 C 0.71186 0.96572 0.09533 0.0
C500 C 0.72614 0.94612 0.08697 0.0
C501 C 0.74393 0.94885 0.06926 0.0
C502 C 0.74787 0.97075 0.06066 0.0
H503 H 0.72441 0.01082 0.00253 0.0
H504 H 0.74518 0.98904 0.01189 0.0
H505 H 0.71488 0.99148 0.02463 0.0
H506 H 0.70509 0.00269 0.09379 0.0
H507 H 0.69792 0.96417 0.10886 0.0
H508 H 0.4487 0.32821 0.53644 0.0
H509 H 0.49175 0.32372 0.54701 0.0
H510 H 0.4723 0.26871 0.59171 0.0
H511 H 0.4292 0.2724 0.58026 0.0
H512 H 0.51178 0.33204 0.58874 0.0
H513 H 0.52995 0.23871 0.55755 0.0
H514 H 0.50248 0.25375 0.54944 0.0
H515 H 0.50475 0.24193 0.57813 0.0
C516 C 0.45363 0.31494 0.54829 0.0
C517 C 0.4356 0.30064 0.55752 0.0
C518 C 0.47825 0.31238 0.55431 0.0
C519 C 0.48538 0.29569 0.56995 0.0
C520 C 0.4674 0.28125 0.57909 0.0
H521 H 0.6218 0.31492 0.64941 0.0
H522 H 0.57898 0.31021 0.63784 0.0
C523 C 0.44275 0.28349 0.57268 0.0
C524 C 0.51134 0.29479 0.5779 0.0
H525 H 0.56034 0.25823 0.58293 0.0
C526 C 0.5224 0.31589 0.58732 0.0
C527 C 0.52533 0.27378 0.57584 0.0
C528 C 0.51511 0.25082 0.56446 0.0
C529 C 0.54697 0.31664 0.59471 0.0
C530 C 0.56066 0.29548 0.59364 0.0
C531 C 0.54971 0.27436 0.58408 0.0
C532 C 0.58658 0.29519 0.60173 0.0
C533 C 0.55812 0.34029 0.60292 0.0
C534 C 0.60511 0.28679 0.58584 0.0
C535 C 0.62976 0.2887 0.59268 0.0
C536 C 0.63639 0.29925 0.61551 0.0
C537 C 0.61761 0.30653 0.63176 0.0
C538 C 0.593 0.30423 0.62504 0.0
H539 H 0.5478 0.35497 0.59582 0.0
H540 H 0.5575 0.34295 0.62278 0.0
H541 H 0.57752 0.34135 0.59712 0.0
H542 H 0.60056 0.27945 0.56785 0.0
H543 H 0.64361 0.28231 0.57988 0.0
H544 H 0.60328 0.6107 0.43918 0.0
H545 H 0.59302 0.58506 0.40332 0.0
H546 H 0.66196 0.60187 0.37129 0.0
H547 H 0.67261 0.62758 0.40727 0.0
H548 H 0.59029 0.59638 0.35393 0.0
H549 H 0.66087 0.52861 0.36907 0.0
H550 H 0.65136 0.55052 0.39252 0.0
H551 H 0.67115 0.55861 0.36903 0.0
C552 C 0.61634 0.60902 0.42456 0.0
C553 C 0.63889 0.6211 0.42624 0.0
C554 C 0.61037 0.5944 0.40403 0.0
C555 C 0.62683 0.59143 0.38481 0.0
C556 C 0.64915 0.60374 0.38611 0.0
H557 H 0.61058 0.4843 0.2628 0.0
H558 H 0.626 0.5189 0.28759 0.0
C559 C 0.65515 0.61847 0.40666 0.0
C560 C 0.62057 0.57498 0.36371 0.0
H561 H 0.63434 0.5207 0.33628 0.0
C562 C 0.60006 0.57994 0.34987 0.0
C563 C 0.63349 0.55365 0.35841 0.0
C564 C 0.65537 0.54732 0.37305 0.0
C565 C 0.59169 0.5638 0.33122 0.0
C566 C 0.60387 0.54196 0.32668 0.0
C567 C 0.62504 0.53746 0.33983 0.0
C568 C 0.59372 0.52267 0.31004 0.0
C569 C 0.56971 0.57018 0.31675 0.0
C570 C 0.57047 0.51341 0.31441 0.0
C571 C 0.56163 0.49379 0.30029 0.0
C572 C 0.57595 0.48286 0.28162 0.0
C573 C 0.59903 0.49248 0.27689 0.0
C574 C 0.6079 0.51215 0.29109 0.0
H575 H 0.56776 0.58959 0.31681 0.0
H576 H 0.57099 0.56238 0.29789 0.0
H577 H 0.55286 0.56334 0.32482 0.0
H578 H 0.55943 0.52092 0.32924 0.0
H579 H 0.5437 0.48693 0.30424 0.0
H580 H 0.9331 0.2339 0.98967 0.0
H581 H 0.97609 0.24034 0.97939 0.0
H582 H 0.98916 0.16551 0.97583 0.0
H583 H 0.94651 0.15883 0.98625 0.0
H584 H 0.02429 0.19336 0.00299 0.0
H585 H 0.00824 0.22446 0.91281 0.0
H586 H 0.99171 0.23946 0.93742 0.0
H587 H 0.98506 0.20911 0.92837 0.0
C588 C 0.94508 0.21879 0.98664 0.0
C589 C 0.93626 0.19583 0.98877 0.0
C590 C 0.96962 0.22252 0.98067 0.0
C591 C 0.9857 0.20337 0.97666 0.0
C592 C 0.97701 0.18051 0.97884 0.0
H593 H 0.12223 0.17589 0.90786 0.0
H594 H 0.07956 0.18145 0.92003 0.0
C595 C 0.95257 0.17675 0.98477 0.0
C596 C 0.01174 0.20689 0.97046 0.0
H597 H 0.04927 0.22213 0.92559 0.0
C598 C 0.02982 0.19989 0.9862 0.0
C599 C 0.01877 0.21528 0.94846 0.0
C600 C 0.0 0.22238 0.93064 0.0
C601 C 0.05478 0.20047 0.98026 0.0
C602 C 0.06182 0.20858 0.95813 0.0
C603 C 0.04377 0.21612 0.94263 0.0
C604 C 0.08757 0.2072 0.9498 0.0
C605 C 0.07334 0.19139 0.99722 0.0
C606 C 0.10618 0.22027 0.9622 0.0
C607 C 0.13069 0.21721 0.95522 0.0
C608 C 0.13694 0.20111 0.93563 0.0
C609 C 0.11808 0.18868 0.9228 0.0
C610 C 0.09366 0.19175 0.92979 0.0
H611 H 0.06452 0.18179 0.01135 0.0
H612 H 0.08661 0.1794 0.98729 0.0
H613 H 0.08377 0.20646 0.00615 0.0
H614 H 0.10178 0.23257 0.97747 0.0
H615 H 0.14474 0.22729 0.96526 0.0
H616 H 0.33045 0.39882 0.50959 0.0
H617 H 0.30611 0.43017 0.49456 0.0
H618 H 0.24144 0.40403 0.52767 0.0
H619 H 0.26576 0.37267 0.54325 0.0
H620 H 0.26484 0.42888 0.465 0.0
H621 H 0.24514 0.47288 0.55581 0.0
H622 H 0.26802 0.45013 0.55083 0.0
H623 H 0.23605 0.44253 0.55054 0.0
C624 C 0.31104 0.39959 0.51367 0.0
C625 C 0.30015 0.38331 0.52788 0.0
C626 C 0.29714 0.41752 0.50498 0.0
C627 C 0.27206 0.4196 0.51028 0.0
C628 C 0.26087 0.40297 0.52375 0.0
H629 H 0.19372 0.53142 0.44085 0.0
H630 H 0.20106 0.49276 0.45566 0.0
C631 C 0.27481 0.38502 0.53255 0.0
C632 C 0.25814 0.43976 0.50222 0.0
H633 H 0.23131 0.49178 0.52279 0.0
C634 C 0.25715 0.4425 0.47757 0.0
C635 C 0.24827 0.4575 0.51874 0.0
C636 C 0.2495 0.45583 0.54548 0.0
C637 C 0.24753 0.46299 0.46902 0.0
C638 C 0.23829 0.48102 0.4856 0.0
C639 C 0.23826 0.47782 0.51016 0.0
C640 C 0.23179 0.50453 0.47817 0.0
C641 C 0.2487 0.46579 0.44249 0.0
C642 C 0.24607 0.52403 0.48656 0.0
C643 C 0.24191 0.546 0.47824 0.0
C644 C 0.22328 0.54901 0.46138 0.0
C645 C 0.20838 0.52961 0.45363 0.0
C646 C 0.21255 0.50754 0.46204 0.0
H647 H 0.26003 0.45189 0.43267 0.0
H648 H 0.2299 0.46468 0.43486 0.0
H649 H 0.25642 0.48327 0.43928 0.0
H650 H 0.26108 0.52206 0.49893 0.0
H651 H 0.25405 0.56039 0.48429 0.0
H652 H 0.12992 0.76888 0.9706 0.0
H653 H 0.12267 0.76458 0.92717 0.0
H654 H 0.12251 0.84016 0.92634 0.0
H655 H 0.12985 0.84468 0.96938 0.0
H656 H 0.08191 0.78236 0.9042 0.0
H657 H 0.16757 0.81901 0.8701 0.0
H658 H 0.16515 0.80922 0.89983 0.0
H659 H 0.15438 0.838 0.89398 0.0
C660 C 0.12865 0.78458 0.96112 0.0
C661 C 0.13041 0.80713 0.97354 0.0
C662 C 0.12453 0.78207 0.93632 0.0
C663 C 0.12248 0.80204 0.92349 0.0
C664 C 0.1246 0.8245 0.93578 0.0
H665 H 0.06576 0.85792 0.80387 0.0
H666 H 0.08845 0.84676 0.83851 0.0
C667 C 0.12856 0.82704 0.96049 0.0
C668 C 0.11593 0.79984 0.8977 0.0
H669 H 0.13194 0.82016 0.84437 0.0
C670 C 0.09307 0.79005 0.8909 0.0
C671 C 0.13061 0.80982 0.88044 0.0
C672 C 0.15591 0.81939 0.88639 0.0
C673 C 0.08363 0.7917 0.86777 0.0
C674 C 0.09766 0.80309 0.85096 0.0
C675 C 0.1212 0.81149 0.85731 0.0
C676 C 0.08688 0.80932 0.82807 0.0
C677 C 0.05802 0.78276 0.86205 0.0
C678 C 0.07918 0.79196 0.81025 0.0
C679 C 0.06624 0.79831 0.79018 0.0
C680 C 0.06091 0.82213 0.78761 0.0
C681 C 0.06983 0.83945 0.80497 0.0
C682 C 0.08271 0.8331 0.82492 0.0
H683 H 0.04832 0.77752 0.87818 0.0
H684 H 0.047 0.79645 0.85406 0.0
H685 H 0.059 0.76714 0.84874 0.0
H686 H 0.0826 0.77351 0.81218 0.0
H687 H 0.05993 0.78456 0.77698 0.0
H688 H 0.83535 0.13347 0.9078 0.0
H689 H 0.84597 0.10658 0.87277 0.0
H690 H 0.90259 0.07566 0.91368 0.0
H691 H 0.89255 0.10263 0.94852 0.0
H692 H 0.91782 0.08403 0.86836 0.0
H693 H 0.8284 0.03671 0.86524 0.0
H694 H 0.82667 0.068 0.86356 0.0
H695 H 0.8376 0.05665 0.89053 0.0
C696 C 0.85009 0.12097 0.90935 0.0
C697 C 0.86296 0.12012 0.93108 0.0
C698 C 0.85606 0.10556 0.88932 0.0
C699 C 0.87481 0.0889 0.89075 0.0
C700 C 0.88801 0.08836 0.91221 0.0
H701 H 0.90671 0.95571 0.8188 0.0
H702 H 0.8927 0.99025 0.84391 0.0
C703 C 0.88218 0.10379 0.93215 0.0
C704 C 0.88064 0.0716 0.87019 0.0
H705 H 0.85781 0.02363 0.8364 0.0
C706 C 0.90466 0.07095 0.86116 0.0
C707 C 0.86343 0.05449 0.861 0.0
C708 C 0.83763 0.05376 0.87065 0.0
C709 C 0.91219 0.05319 0.84373 0.0
C710 C 0.89506 0.03591 0.83476 0.0
C711 C 0.87083 0.03702 0.84322 0.0
C712 C 0.90253 0.01516 0.81855 0.0
C713 C 0.93871 0.05239 0.836 0.0
C714 C 0.91232 0.01766 0.79574 0.0
C715 C 0.92069 0.9979 0.78141 0.0
C716 C 0.91927 0.97532 0.78964 0.0
C717 C 0.90859 0.97288 0.81214 0.0
C718 C 0.90035 0.99259 0.82643 0.0
H719 H 0.95048 0.0641 0.84813 0.0
H720 H 0.94599 0.03416 0.8355 0.0
H721 H 0.94015 0.05824 0.81768 0.0
H722 H 0.91375 0.0349 0.78915 0.0
H723 H 0.92883 0.00037 0.76418 0.0
H724 H 0.3648 0.3408 0.46338 0.0
H725 H 0.37258 0.33641 0.42045 0.0
H726 H 0.38084 0.26138 0.42257 0.0
H727 H 0.37326 0.26559 0.46592 0.0
H728 H 0.41946 0.28227 0.40046 0.0
H729 H 0.33176 0.31076 0.36303 0.0
H730 H 0.34246 0.3314 0.38686 0.0
H731 H 0.33436 0.30193 0.39313 0.0
C732 C 0.36796 0.32327 0.45477 0.0
C733 C 0.36851 0.30355 0.46818 0.0
C734 C 0.37216 0.32078 0.43012 0.0
C735 C 0.37686 0.29853 0.41823 0.0
C736 C 0.37697 0.27868 0.43139 0.0
H737 H 0.44287 0.28579 0.27332 0.0
H738 H 0.42034 0.27321 0.30788 0.0
C739 C 0.37264 0.28114 0.45614 0.0
C740 C 0.38418 0.29671 0.39266 0.0
H741 H 0.36796 0.31558 0.33867 0.0
C742 C 0.40799 0.28893 0.38673 0.0
C743 C 0.36915 0.30535 0.3748 0.0
C744 C 0.34291 0.3126 0.37972 0.0
C745 C 0.41787 0.29134 0.36394 0.0
C746 C 0.40338 0.30151 0.34661 0.0
C747 C 0.37904 0.30786 0.35204 0.0
C748 C 0.41425 0.3086 0.32415 0.0
C749 C 0.44427 0.28456 0.3591 0.0
C750 C 0.41752 0.33262 0.32154 0.0
C751 C 0.43045 0.33985 0.30202 0.0
C752 C 0.44028 0.32318 0.28456 0.0
C753 C 0.43588 0.29908 0.28662 0.0
C754 C 0.42297 0.29185 0.30629 0.0
H755 H 0.45383 0.27957 0.37544 0.0
H756 H 0.445 0.26934 0.34529 0.0
H757 H 0.4544 0.29938 0.35205 0.0
H758 H 0.411 0.3458 0.33521 0.0
H759 H 0.43378 0.35851 0.30135 0.0
H760 H 0.23466 0.87776 0.04537 0.0
H761 H 0.25775 0.9098 0.02959 0.0
H762 H 0.19185 0.93389 0.99688 0.0
H763 H 0.16871 0.90182 0.01212 0.0
H764 H 0.23266 0.93409 0.96716 0.0
H765 H 0.25219 0.97842 0.05789 0.0
H766 H 0.26223 0.94838 0.05266 0.0
H767 H 0.23002 0.95495 0.05297 0.0
C768 C 0.22508 0.88978 0.0347 0.0
C769 C 0.19974 0.88731 0.03023 0.0
C770 C 0.23831 0.90814 0.02579 0.0
C771 C 0.22641 0.92443 0.01242 0.0
C772 C 0.20136 0.92154 0.00724 0.0
H773 H 0.24477 0.06612 0.98576 0.0
H774 H 0.23714 0.02808 0.00097 0.0
C775 C 0.18815 0.90319 0.01603 0.0
C776 C 0.2396 0.94502 0.00435 0.0
H777 H 0.26606 0.99734 0.02485 0.0
C778 C 0.24028 0.94782 0.97971 0.0
C779 C 0.24932 0.96291 0.02085 0.0
C780 C 0.24831 0.96123 0.04759 0.0
C781 C 0.24962 0.96842 0.97114 0.0
C782 C 0.25895 0.9865 0.98768 0.0
C783 C 0.25908 0.98334 0.01225 0.0
C784 C 0.26584 0.00986 0.98012 0.0
C785 C 0.24819 0.9712 0.94461 0.0
C786 C 0.28503 0.01239 0.96386 0.0
C787 C 0.28951 0.03425 0.95512 0.0
C788 C 0.27499 0.05393 0.96268 0.0
C789 C 0.25655 0.05146 0.97982 0.0
C790 C 0.25206 0.02967 0.98845 0.0
H791 H 0.23643 0.9575 0.93494 0.0
H792 H 0.24082 0.9888 0.94141 0.0
H793 H 0.26687 0.96968 0.93679 0.0
H794 H 0.29618 0.99739 0.95757 0.0
H795 H 0.30405 0.03566 0.94217 0.0
H796 H 0.55461 0.66067 0.47971 0.0
H797 H 0.51228 0.66811 0.46887 0.0
H798 H 0.52717 0.74263 0.4719 0.0
H799 H 0.56994 0.73542 0.48273 0.0
H800 H 0.4784 0.69809 0.49695 0.0
H801 H 0.49364 0.72551 0.40506 0.0
H802 H 0.51635 0.70927 0.42033 0.0
H803 H 0.51142 0.7399 0.42928 0.0
C804 C 0.54906 0.67868 0.478 0.0
C805 C 0.56578 0.69745 0.48213 0.0
C806 C 0.52479 0.68288 0.47182 0.0
C807 C 0.51667 0.70588 0.46948 0.0
C808 C 0.5332 0.72472 0.47339 0.0
H809 H 0.3567 0.72455 0.45784 0.0
H810 H 0.39949 0.73393 0.46854 0.0
C811 C 0.5576 0.72055 0.47965 0.0
C812 C 0.49065 0.70977 0.46349 0.0
H813 H 0.45276 0.72215 0.41768 0.0
C814 C 0.47271 0.70372 0.47979 0.0
C815 C 0.48345 0.71699 0.44102 0.0
C816 C 0.50212 0.7232 0.42276 0.0
C817 C 0.44772 0.70378 0.47387 0.0
C818 C 0.4405 0.7104 0.45114 0.0
C819 C 0.4584 0.71728 0.43515 0.0
C820 C 0.41485 0.70748 0.44268 0.0
C821 C 0.42936 0.69547 0.49145 0.0
C822 C 0.40944 0.69026 0.42393 0.0
C823 C 0.38514 0.68499 0.4177 0.0
C824 C 0.36576 0.6969 0.43009 0.0
C825 C 0.37124 0.7151 0.44797 0.0
C826 C 0.39564 0.72035 0.45422 0.0
H827 H 0.43836 0.68728 0.50645 0.0
H828 H 0.41843 0.71072 0.49917 0.0
H829 H 0.4165 0.68247 0.48227 0.0
H830 H 0.42402 0.6802 0.41473 0.0
H831 H 0.3815 0.67118 0.40355 0.0
H832 H 0.40477 0.38235 0.60258 0.0
H833 H 0.41861 0.40882 0.63664 0.0
H834 H 0.34741 0.40469 0.66947 0.0
H835 H 0.33354 0.37773 0.63574 0.0
H836 H 0.40129 0.45157 0.65114 0.0
H837 H 0.39202 0.39378 0.72506 0.0
H838 H 0.39077 0.38259 0.69387 0.0
H839 H 0.36415 0.39598 0.70833 0.0
C840 C 0.39207 0.38691 0.61711 0.0
C841 C 0.36802 0.37789 0.6164 0.0
C842 C 0.40005 0.40202 0.6366 0.0
C843 C 0.38418 0.40846 0.65577 0.0
C844 C 0.36018 0.39949 0.65517 0.0
H845 H 0.39537 0.53476 0.75184 0.0
H846 H 0.38397 0.50317 0.72163 0.0
C847 C 0.35222 0.3842 0.63576 0.0
C848 C 0.39229 0.42576 0.6756 0.0
H849 H 0.39757 0.43493 0.73654 0.0
C850 C 0.40065 0.44784 0.66979 0.0
C851 C 0.39178 0.42079 0.69991 0.0
C852 C 0.38444 0.39691 0.70718 0.0
C853 C 0.40793 0.4653 0.68764 0.0
C854 C 0.40622 0.46075 0.71202 0.0
C855 C 0.39853 0.43846 0.71784 0.0
C856 C 0.41207 0.47911 0.73164 0.0
C857 C 0.41759 0.48837 0.68018 0.0
C858 C 0.43097 0.47567 0.748 0.0
C859 C 0.43728 0.4936 0.76568 0.0
C860 C 0.42472 0.51525 0.76734 0.0
C861 C 0.40528 0.51827 0.75133 0.0
C862 C 0.39894 0.50033 0.73379 0.0
H863 H 0.4244 0.48653 0.66141 0.0
H864 H 0.40256 0.50154 0.68126 0.0
H865 H 0.43271 0.49528 0.69214 0.0
H866 H 0.44117 0.45931 0.74676 0.0
H867 H 0.45209 0.49056 0.77793 0.0
H868 H 0.0693 0.76601 0.06488 0.0
H869 H 0.02634 0.75971 0.07535 0.0
H870 H 0.0134 0.83454 0.07863 0.0
H871 H 0.05614 0.84112 0.06838 0.0
H872 H 0.99495 0.81178 0.11852 0.0
H873 H 0.9664 0.76702 0.03032 0.0
H874 H 0.99284 0.75527 0.04437 0.0
H875 H 0.99425 0.78416 0.03406 0.0
C876 C 0.05733 0.78115 0.06781 0.0
C877 C 0.06622 0.80408 0.06566 0.0
C878 C 0.03277 0.77747 0.07369 0.0
C879 C 0.0167 0.79664 0.07751 0.0
C880 C 0.02554 0.81952 0.07567 0.0
H881 H 0.86276 0.81867 0.07995 0.0
H882 H 0.90627 0.81377 0.07076 0.0
C883 C 0.04999 0.82321 0.06975 0.0
C884 C 0.99063 0.79315 0.0836 0.0
H885 H 0.93603 0.77256 0.06018 0.0
C886 C 0.98208 0.80299 0.1059 0.0
C887 C 0.97395 0.78183 0.06696 0.0
C888 C 0.98215 0.77157 0.04249 0.0
C889 C 0.95712 0.80225 0.11186 0.0
C890 C 0.94038 0.79113 0.09514 0.0
C891 C 0.949 0.78088 0.073 0.0
C892 C 0.91362 0.79183 0.09952 0.0
C893 C 0.94871 0.81423 0.13558 0.0
C894 C 0.90323 0.78058 0.11837 0.0
C895 C 0.87825 0.78322 0.12361 0.0
C896 C 0.86325 0.79712 0.11002 0.0
C897 C 0.87364 0.80759 0.09058 0.0
C898 C 0.89856 0.80491 0.08536 0.0
H899 H 0.96325 0.82556 0.14451 0.0
H900 H 0.93227 0.82524 0.13307 0.0
H901 H 0.94361 0.80067 0.14772 0.0
H902 H 0.91453 0.77011 0.12926 0.0
H903 H 0.87075 0.77463 0.13846 0.0
H904 H 0.73151 0.62226 0.50915 0.0
H905 H 0.75383 0.58994 0.52532 0.0
H906 H 0.68602 0.56286 0.5513 0.0
H907 H 0.66347 0.59495 0.53527 0.0
H908 H 0.75435 0.57571 0.57482 0.0
H909 H 0.71748 0.50749 0.50706 0.0
H910 H 0.71684 0.53857 0.50297 0.0
H911 H 0.69468 0.52624 0.52201 0.0
C912 C 0.72131 0.60949 0.51836 0.0
C913 C 0.69563 0.61113 0.52073 0.0
C914 C 0.73413 0.59108 0.52762 0.0
C915 C 0.72148 0.57393 0.53918 0.0
C916 C 0.69601 0.57581 0.54213 0.0
H917 H 0.75483 0.46833 0.63091 0.0
H918 H 0.74668 0.50509 0.61333 0.0
C919 C 0.68319 0.59423 0.53301 0.0
C920 C 0.73471 0.55375 0.54789 0.0
H921 H 0.7377 0.49378 0.54084 0.0
C922 C 0.75098 0.55779 0.56726 0.0
C923 C 0.73055 0.5305 0.53768 0.0
C924 C 0.71411 0.52535 0.51614 0.0
C925 C 0.76232 0.53896 0.57748 0.0
C926 C 0.75702 0.51561 0.56815 0.0
C927 C 0.74167 0.5117 0.54803 0.0
C928 C 0.76546 0.49487 0.57999 0.0
C929 C 0.77963 0.54418 0.59833 0.0
C930 C 0.77887 0.47692 0.56714 0.0
C931 C 0.78364 0.45581 0.57719 0.0
C932 C 0.77488 0.4522 0.60021 0.0
C933 C 0.76228 0.47063 0.61336 0.0
C934 C 0.75758 0.49171 0.60332 0.0
H935 H 0.78755 0.56216 0.59846 0.0
H936 H 0.76941 0.54321 0.61534 0.0
H937 H 0.79482 0.53118 0.59782 0.0
H938 H 0.785 0.479 0.54905 0.0
H939 H 0.79361 0.44207 0.5667 0.0
H940 H 0.89305 0.15625 0.08102 0.0
H941 H 0.90061 0.15916 0.12395 0.0
H942 H 0.86458 0.22675 0.13187 0.0
H943 H 0.85747 0.22431 0.08843 0.0
H944 H 0.9061 0.22804 0.15682 0.0
H945 H 0.85463 0.14931 0.1777 0.0
H946 H 0.87596 0.14141 0.15405 0.0
H947 H 0.85147 0.16175 0.14932 0.0
C948 C 0.88649 0.17169 0.09182 0.0
C949 C 0.87452 0.19 0.08125 0.0
C950 C 0.89067 0.17323 0.11647 0.0
C951 C 0.88256 0.19286 0.13126 0.0
C952 C 0.87073 0.2113 0.12082 0.0
H953 H 0.91335 0.17085 0.28144 0.0
H954 H 0.88951 0.18238 0.24717 0.0
C955 C 0.86673 0.20989 0.09601 0.0
C956 C 0.88799 0.19444 0.15732 0.0
H957 H 0.88838 0.161 0.20483 0.0
C958 C 0.90177 0.21363 0.16751 0.0
C959 C 0.88171 0.17607 0.1716 0.0
C960 C 0.86487 0.15615 0.16264 0.0
C961 C 0.91118 0.21393 0.1909 0.0
C962 C 0.90735 0.19418 0.20408 0.0
C963 C 0.89181 0.17598 0.19463 0.0
C964 C 0.92128 0.19069 0.22631 0.0
C965 C 0.92551 0.23524 0.20097 0.0
C966 C 0.94702 0.19172 0.22613 0.0
C967 C 0.96056 0.18545 0.24572 0.0
C968 C 0.9487 0.17752 0.26574 0.0
C969 C 0.92293 0.17689 0.2662 0.0
C970 C 0.90934 0.18351 0.24667 0.0
H971 H 0.91837 0.25151 0.19388 0.0
H972 H 0.92476 0.23747 0.22086 0.0
H973 H 0.94495 0.23328 0.1953 0.0
H974 H 0.95676 0.19631 0.21037 0.0
H975 H 0.98039 0.18563 0.24464 0.0
H976 H 0.13695 0.74537 0.11145 0.0
H977 H 0.1349 0.72686 0.14928 0.0
H978 H 0.1852 0.77885 0.18167 0.0
H979 H 0.18724 0.79755 0.14435 0.0
H980 H 0.17338 0.70798 0.17515 0.0
H981 H 0.12816 0.78159 0.22926 0.0
H982 H 0.12863 0.77936 0.19687 0.0
H983 H 0.15471 0.79102 0.2138 0.0
C984 C 0.14753 0.75291 0.12664 0.0
C985 C 0.16217 0.77305 0.12484 0.0
C986 C 0.1463 0.74231 0.14823 0.0
C987 C 0.1595 0.7518 0.16837 0.0
C988 C 0.17439 0.77161 0.1665 0.0
H989 H 0.21206 0.7258 0.30401 0.0
H990 H 0.19946 0.73945 0.26583 0.0
C991 C 0.17566 0.78218 0.14504 0.0
C992 C 0.15868 0.7407 0.19125 0.0
H993 H 0.14977 0.75361 0.25132 0.0
C994 C 0.16773 0.71771 0.19177 0.0
C995 C 0.15114 0.75343 0.21284 0.0
C996 C 0.13987 0.77763 0.21318 0.0
C997 C 0.17102 0.70772 0.21359 0.0
C998 C 0.16485 0.72105 0.23527 0.0
C999 C 0.15459 0.74353 0.23462 0.0
C1000 C 0.17126 0.713 0.25885 0.0
C1001 C 0.18233 0.68356 0.21348 0.0
C1002 C 0.15926 0.6938 0.26768 0.0
C1003 C 0.16625 0.68606 0.28972 0.0
C1004 C 0.18533 0.69744 0.30324 0.0
C1005 C 0.197 0.71689 0.29435 0.0
C1006 C 0.18995 0.72463 0.27244 0.0
H1007 H 0.18862 0.67667 0.19533 0.0
H1008 H 0.19818 0.68404 0.22599 0.0
H1009 H 0.16861 0.67111 0.21976 0.0
H1010 H 0.14459 0.6848 0.2575 0.0
H1011 H 0.15669 0.67122 0.29618 0.0
H1012 H 0.74569 0.69175 0.5235 0.0
H1013 H 0.77966 0.70883 0.54774 0.0
H1014 H 0.74011 0.77437 0.55946 0.0
H1015 H 0.70568 0.75715 0.53599 0.0
H1016 H 0.80927 0.74501 0.54284 0.0
H1017 H 0.75657 0.76247 0.62703 0.0
H1018 H 0.74439 0.74504 0.60123 0.0
H1019 H 0.74345 0.77673 0.60277 0.0
C1020 C 0.7442 0.7098 0.53125 0.0
C1021 C 0.72289 0.72303 0.528 0.0
C1022 C 0.76365 0.71954 0.5451 0.0
C1023 C 0.76224 0.74272 0.55583 0.0
C1024 C 0.74131 0.75622 0.55197 0.0
H1025 H 0.88596 0.82648 0.61345 0.0
H1026 H 0.85411 0.80733 0.58763 0.0
C1027 C 0.7217 0.74639 0.53842 0.0
C1028 C 0.78276 0.75278 0.57093 0.0
H1029 H 0.79624 0.77984 0.62624 0.0
C1030 C 0.80647 0.75251 0.56113 0.0
C1031 C 0.77917 0.76217 0.59494 0.0
C1032 C 0.75457 0.76142 0.6072 0.0
C1033 C 0.82662 0.76169 0.57456 0.0
C1034 C 0.82281 0.7721 0.59818 0.0
C1035 C 0.79915 0.77207 0.60806 0.0
C1036 C 0.84301 0.78298 0.61318 0.0
C1037 C 0.85181 0.75963 0.56344 0.0
C1038 C 0.84704 0.77607 0.63631 0.0
C1039 C 0.86483 0.78732 0.65122 0.0
C1040 C 0.87909 0.80557 0.64319 0.0
C1041 C 0.87542 0.81222 0.6199 0.0
C1042 C 0.85732 0.8012 0.60511 0.0
H1043 H 0.85266 0.74497 0.54897 0.0
H1044 H 0.85622 0.77618 0.55532 0.0
H1045 H 0.86606 0.75667 0.57704 0.0
H1046 H 0.83621 0.76209 0.64295 0.0
H1047 H 0.8674 0.78183 0.66909 0.0
H1048 H 0.79625 0.2595 0.03554 0.0
H1049 H 0.76157 0.27794 0.05749 0.0
H1050 H 0.72044 0.2132 0.04577 0.0
H1051 H 0.7547 0.19488 0.02303 0.0
H1052 H 0.69213 0.24996 0.03922 0.0
H1053 H 0.74267 0.26766 0.12486 0.0
H1054 H 0.75697 0.28112 0.1007 0.0
H1055 H 0.75509 0.2495 0.09973 0.0
C1056 C 0.77982 0.24918 0.03764 0.0
C1057 C 0.77829 0.22567 0.02768 0.0
C1058 C 0.76006 0.25971 0.05032 0.0
C1059 C 0.73862 0.24679 0.05377 0.0
C1060 C 0.73686 0.22347 0.04344 0.0
H1061 H 0.63107 0.28839 0.16306 0.0
H1062 H 0.66269 0.26853 0.13816 0.0
C1063 C 0.75647 0.21303 0.03045 0.0
C1064 C 0.71796 0.25757 0.06805 0.0
H1065 H 0.70351 0.28569 0.1226 0.0
C1066 C 0.69457 0.25767 0.0575 0.0
C1067 C 0.72107 0.26727 0.09204 0.0
C1068 C 0.74524 0.26618 0.10509 0.0
C1069 C 0.67428 0.26745 0.07018 0.0
C1070 C 0.67763 0.27809 0.0938 0.0
C1071 C 0.70097 0.27775 0.10441 0.0
C1072 C 0.65722 0.28933 0.10811 0.0
C1073 C 0.64939 0.26573 0.0583 0.0
C1074 C 0.64348 0.30763 0.09951 0.0
C1075 C 0.62487 0.31867 0.1135 0.0
C1076 C 0.61994 0.31198 0.13663 0.0
C1077 C 0.63389 0.29372 0.14519 0.0
C1078 C 0.65222 0.28248 0.13105 0.0
H1079 H 0.64864 0.25102 0.04387 0.0
H1080 H 0.63468 0.26307 0.07148 0.0
H1081 H 0.6456 0.28231 0.04998 0.0
H1082 H 0.64738 0.31365 0.08211 0.0
H1083 H 0.61441 0.33249 0.10618 0.0
H1084 H 0.35993 0.23731 0.60341 0.0
H1085 H 0.35832 0.21534 0.63908 0.0
H1086 H 0.32073 0.27339 0.67779 0.0
H1087 H 0.32203 0.2954 0.64248 0.0
H1088 H 0.37518 0.22788 0.68839 0.0
H1089 H 0.27442 0.2156 0.68062 0.0
H1090 H 0.29305 0.22418 0.65621 0.0
H1091 H 0.28424 0.24566 0.68015 0.0
C1092 C 0.35144 0.24547 0.61955 0.0
C1093 C 0.34083 0.26803 0.61994 0.0
C1094 C 0.3506 0.2329 0.6399 0.0
C1095 C 0.33909 0.24266 0.66086 0.0
C1096 C 0.32935 0.26545 0.66161 0.0
H1097 H 0.33369 0.21262 0.80764 0.0
H1098 H 0.34596 0.22537 0.76881 0.0
C1099 C 0.33015 0.27799 0.64137 0.0
C1100 C 0.33629 0.22888 0.68183 0.0
H1101 H 0.29271 0.20723 0.7175 0.0
C1102 C 0.35721 0.22309 0.69468 0.0
C1103 C 0.31284 0.22235 0.68968 0.0
C1104 C 0.28985 0.22704 0.67585 0.0
C1105 C 0.35517 0.21175 0.71588 0.0
C1106 C 0.33159 0.20644 0.72446 0.0
C1107 C 0.31079 0.21142 0.711 0.0
C1108 C 0.32766 0.1967 0.74783 0.0
C1109 C 0.37822 0.20563 0.72887 0.0
C1110 C 0.31339 0.17632 0.74897 0.0
C1111 C 0.30612 0.16921 0.7711 0.0
C1112 C 0.31302 0.18234 0.79251 0.0
C1113 C 0.32835 0.20205 0.79141 0.0
C1114 C 0.33545 0.20928 0.76923 0.0
H1115 H 0.39416 0.20384 0.7165 0.0
H1116 H 0.38243 0.21997 0.74303 0.0
H1117 H 0.37599 0.18897 0.73751 0.0
H1118 H 0.30713 0.16639 0.73268 0.0
H1119 H 0.29449 0.15382 0.77146 0.0
H1120 H 0.68976 0.70616 0.41053 0.0
H1121 H 0.69203 0.72831 0.37541 0.0
H1122 H 0.64606 0.78249 0.41037 0.0
H1123 H 0.64333 0.76024 0.44576 0.0
H1124 H 0.63274 0.76928 0.36248 0.0
H1125 H 0.73213 0.7884 0.37057 0.0
H1126 H 0.72541 0.7576 0.37092 0.0
H1127 H 0.7144 0.77815 0.39479 0.0
C1128 C 0.68015 0.72282 0.41091 0.0
C1129 C 0.66652 0.73149 0.43113 0.0
C1130 C 0.68158 0.7355 0.3908 0.0
C1131 C 0.66961 0.75723 0.3905 0.0
C1132 C 0.65559 0.76582 0.41038 0.0
H1133 H 0.70804 0.84239 0.27426 0.0
H1134 H 0.69757 0.83132 0.31409 0.0
C1135 C 0.65409 0.75309 0.43057 0.0
C1136 C 0.67165 0.77063 0.36915 0.0
H1137 H 0.71379 0.79291 0.33234 0.0
C1138 C 0.65039 0.77477 0.35602 0.0
C1139 C 0.69465 0.77815 0.36102 0.0
C1140 C 0.71791 0.77558 0.37519 0.0
C1141 C 0.6517 0.7852 0.33425 0.0
C1142 C 0.67492 0.79119 0.32529 0.0
C1143 C 0.69601 0.78809 0.33907 0.0
C1144 C 0.67813 0.79956 0.30117 0.0
C1145 C 0.62824 0.78958 0.32107 0.0
C1146 C 0.67037 0.78555 0.28063 0.0
C1147 C 0.67602 0.79201 0.25779 0.0
C1148 C 0.68987 0.81244 0.25502 0.0
C1149 C 0.69704 0.82675 0.27566 0.0
C1150 C 0.69122 0.82036 0.29848 0.0
H1151 H 0.61242 0.79162 0.33358 0.0
H1152 H 0.62962 0.8056 0.31123 0.0
H1153 H 0.62439 0.77426 0.30792 0.0
H1154 H 0.66072 0.76915 0.28224 0.0
H1155 H 0.66997 0.78072 0.2423 0.0
H1156 H 0.86174 0.26049 0.94906 0.0
H1157 H 0.86008 0.28293 0.91371 0.0
H1158 H 0.81576 0.22837 0.87679 0.0
H1159 H 0.81703 0.20601 0.91181 0.0
H1160 H 0.87397 0.27015 0.86471 0.0
H1161 H 0.77458 0.28874 0.87441 0.0
H1162 H 0.79285 0.27847 0.89829 0.0
H1163 H 0.78173 0.258 0.87436 0.0
C1164 C 0.85167 0.25325 0.93341 0.0
C1165 C 0.83926 0.23157 0.93342 0.0
C1166 C 0.8508 0.26608 0.91324 0.0
C1167 C 0.83746 0.25745 0.89287 0.0
C1168 C 0.82575 0.23552 0.89255 0.0
H1169 H 0.83244 0.28463 0.74561 0.0
H1170 H 0.84462 0.27266 0.78484 0.0
C1171 C 0.82655 0.22275 0.91262 0.0
C1172 C 0.83518 0.27135 0.87193 0.0
H1173 H 0.7924 0.29461 0.83648 0.0
C1174 C 0.85622 0.27582 0.85864 0.0
C1175 C 0.81206 0.27909 0.86436 0.0
C1176 C 0.78904 0.27606 0.87872 0.0
C1177 C 0.85452 0.28687 0.83724 0.0
C1178 C 0.83115 0.29316 0.82884 0.0
C1179 C 0.81032 0.28964 0.84279 0.0
C1180 C 0.82739 0.30233 0.80516 0.0
C1181 C 0.87773 0.29158 0.82384 0.0
C1182 C 0.81371 0.32298 0.80349 0.0
C1183 C 0.80639 0.32956 0.78116 0.0
C1184 C 0.81275 0.31568 0.76008 0.0
C1185 C 0.82755 0.29573 0.76162 0.0
C1186 C 0.83462 0.28897 0.78402 0.0
H1187 H 0.89379 0.29328 0.83613 0.0
H1188 H 0.88128 0.27656 0.81026 0.0
H1189 H 0.87619 0.30788 0.81448 0.0
H1190 H 0.80789 0.33352 0.81955 0.0
H1191 H 0.79514 0.34512 0.78039 0.0
H1192 H 0.29604 0.24616 0.50388 0.0
H1193 H 0.25963 0.22784 0.48484 0.0
H1194 H 0.2134 0.2732 0.53117 0.0
H1195 H 0.24968 0.29199 0.55013 0.0
H1196 H 0.22096 0.20411 0.50427 0.0
H1197 H 0.18866 0.28432 0.46417 0.0
H1198 H 0.21901 0.28205 0.47663 0.0
H1199 H 0.19313 0.28793 0.49608 0.0
C1200 C 0.27816 0.25229 0.51009 0.0
C1201 C 0.27584 0.2707 0.52845 0.0
C1202 C 0.25736 0.24175 0.49918 0.0
C1203 C 0.23385 0.2494 0.50637 0.0
C1204 C 0.2314 0.26737 0.52504 0.0
H1205 H 0.0999 0.17275 0.45918 0.0
H1206 H 0.13257 0.19172 0.48419 0.0
C1207 C 0.25219 0.27801 0.53592 0.0
C1208 C 0.21198 0.23862 0.4941 0.0
H1209 H 0.16314 0.25073 0.45906 0.0
C1210 C 0.20823 0.21428 0.49445 0.0
C1211 C 0.19559 0.25195 0.48114 0.0
C1212 C 0.19933 0.27797 0.47924 0.0
C1213 C 0.18861 0.20284 0.482 0.0
C1214 C 0.17211 0.21622 0.46921 0.0
C1215 C 0.17572 0.24059 0.46906 0.0
C1216 C 0.15194 0.20507 0.45451 0.0
C1217 C 0.18622 0.17645 0.48193 0.0
C1218 C 0.15172 0.20679 0.42968 0.0
C1219 C 0.1331 0.19612 0.41544 0.0
C1220 C 0.11424 0.18357 0.42576 0.0
C1221 C 0.11434 0.18207 0.4507 0.0
C1222 C 0.13298 0.19285 0.46498 0.0
H1223 H 0.20333 0.16827 0.48809 0.0
H1224 H 0.1712 0.1723 0.49422 0.0
H1225 H 0.18163 0.16829 0.4637 0.0
H1226 H 0.16621 0.21611 0.42126 0.0
H1227 H 0.13377 0.19731 0.39625 0.0
H1228 H 0.25059 0.80268 0.03966 0.0
H1229 H 0.28525 0.78363 0.01809 0.0
H1230 H 0.23986 0.72338 0.99655 0.0
H1231 H 0.205 0.74239 0.01756 0.0
H1232 H 0.30882 0.74162 0.02293 0.0
H1233 H 0.26631 0.74084 0.93287 0.0
H1234 H 0.25397 0.75785 0.95884 0.0
H1235 H 0.24757 0.72681 0.95373 0.0
C1236 C 0.24795 0.78536 0.03035 0.0
C1237 C 0.22491 0.77417 0.03016 0.0
C1238 C 0.2678 0.77451 0.01804 0.0
C1239 C 0.26498 0.75231 0.00533 0.0
C1240 C 0.24226 0.74078 0.00573 0.0
H1241 H 0.35522 0.65053 0.92499 0.0
H1242 H 0.32462 0.67185 0.95032 0.0
C1243 C 0.22237 0.75165 0.01786 0.0
C1244 C 0.28576 0.74113 0.99161 0.0
H1245 H 0.30226 0.71745 0.93577 0.0
C1246 C 0.3075 0.73652 0.00384 0.0
C1247 C 0.28403 0.73468 0.96664 0.0
C1248 C 0.26181 0.74051 0.95219 0.0
C1249 C 0.32727 0.72489 0.99187 0.0
C1250 C 0.32515 0.7178 0.96714 0.0
C1251 C 0.30365 0.72279 0.95482 0.0
C1252 C 0.34479 0.70467 0.95365 0.0
C1253 C 0.35005 0.71967 0.00573 0.0
C1254 C 0.3663 0.7161 0.94736 0.0
C1255 C 0.38374 0.70405 0.93262 0.0
C1256 C 0.37985 0.68038 0.92393 0.0
C1257 C 0.35858 0.66885 0.931 0.0
C1258 C 0.34115 0.68093 0.94559 0.0
H1259 H 0.34773 0.72395 0.02535 0.0
H1260 H 0.355 0.70078 0.00226 0.0
H1261 H 0.36558 0.73021 -0.00041 0.0
H1262 H 0.36924 0.73453 0.95324 0.0
H1263 H 0.39976 0.71353 0.9273 0.0
loop_
_geom_bond_atom_site_label_1
_geom_bond_atom_site_label_2
_geom_bond_distance
_geom_bond_site_symmetry_2
_ccdc_geom_bond_type
Sc0 O3 2.025 . S
Sc0 O10 2.105 . S
Sc0 O13 2.105 . S
Sc0 O16 2.105 . S
Sc0 O19 2.105 . S
Sc1 O3 2.025 . S
Sc1 O11 2.105 . S
Sc1 O15 2.105 . S
Sc1 O17 2.105 . S
Sc1 O21 2.105 . S
Sc2 O3 2.025 . S
Sc2 O12 2.105 . S
Sc2 O14 2.105 . S
Sc2 O18 2.105 . S
Sc2 O20 2.105 . S
O3 Sc0 2.025 . S
O3 Sc1 2.025 . S
O3 Sc2 2.025 . S
C4 O10 1.268 . S
C4 O20 1.268 . S
C5 O11 1.257 1_556 S
C5 O19 1.259 1_556 S
C6 O12 1.268 . S
C6 O21 1.268 . S
C7 O13 1.268 . S
C7 O17 1.268 . S
C8 O14 1.268 . S
C8 O16 1.268 . S
C9 O15 1.268 . S
C9 O18 1.268 . S
O10 Sc0 2.105 . S
O10 C4 1.268 . S
O11 Sc1 2.105 . S
O11 C5 1.257 1_554 S
O12 Sc2 2.105 . S
O12 C6 1.268 . S
O13 Sc0 2.105 . S
O13 C7 1.268 . S
O14 Sc2 2.105 . S
O14 C8 1.268 . S
O15 Sc1 2.105 . S
O15 C9 1.268 . S
O16 Sc0 2.105 . S
O16 C8 1.268 . S
O17 Sc1 2.105 . S
O17 C7 1.268 . S
O18 Sc2 2.105 . S
O18 C9 1.268 . S
O19 Sc0 2.105 . S
O19 C5 1.259 1_554 S
O20 Sc2 2.105 . S
O20 C4 1.268 . S
O21 Sc1 2.105 . S
O21 C6 1.268 . S
Sc22 O25 2.025 . S
Sc22 O32 2.105 . S
Sc22 O35 2.105 . S
Sc22 O38 2.105 . S
Sc22 O41 2.105 . S
Sc23 O25 2.025 . S
Sc23 O33 2.105 . S
Sc23 O37 2.105 . S
Sc23 O39 2.105 . S
Sc23 O43 2.105 . S
Sc24 O25 2.025 . S
Sc24 O34 2.105 . S
Sc24 O36 2.105 . S
Sc24 O40 2.105 . S
Sc24 O42 2.105 . S
O25 Sc22 2.025 . S
O25 Sc23 2.025 . S
O25 Sc24 2.025 . S
C26 O32 1.268 . S
C26 O42 1.268 . S
C27 O33 1.268 . S
C27 O41 1.268 . S
C28 O34 1.268 . S
C28 O43 1.268 . S
C29 O35 1.268 . S
C29 O39 1.268 . S
C30 O36 1.268 . S
C30 O38 1.268 . S
C31 O37 1.268 . S
C31 O40 1.268 . S
O32 Sc22 2.105 . S
O32 C26 1.268 . S
O33 Sc23 2.105 . S
O33 C27 1.268 . S
O34 Sc24 2.105 . S
O34 C28 1.268 . S
O35 Sc22 2.105 . S
O35 C29 1.268 . S
O36 Sc24 2.105 . S
O36 C30 1.268 . S
O37 Sc23 2.105 . S
O37 C31 1.268 . S
O38 Sc22 2.105 . S
O38 C30 1.268 . S
O39 Sc23 2.105 . S
O39 C29 1.268 . S
O40 Sc24 2.105 . S
O40 C31 1.268 . S
O41 Sc22 2.105 . S
O41 C27 1.268 . S
O42 Sc24 2.105 . S
O42 C26 1.268 . S
O43 Sc23 2.105 . S
O43 C28 1.268 . S
Sc44 O47 2.025 . S
Sc44 O54 2.105 1_554 S
Sc44 O57 2.105 . S
Sc44 O60 2.105 . S
Sc44 O63 2.105 1_554 S
Sc45 O47 2.025 1_556 S
Sc45 O55 2.105 . S
Sc45 O59 2.105 1_556 S
Sc45 O61 2.105 1_556 S
Sc45 O65 2.105 . S
Sc46 O47 2.025 . S
Sc46 O56 2.105 1_554 S
Sc46 O58 2.105 . S
Sc46 O62 2.105 . S
Sc46 O64 2.105 1_554 S
O47 Sc44 2.025 . S
O47 Sc45 2.025 1_554 S
O47 Sc46 2.025 . S
C48 O54 1.268 . S
C48 O64 1.268 . S
C49 O55 1.268 . S
C49 O63 1.268 . S
C50 O56 1.268 . S
C50 O65 1.268 . S
C51 O57 1.268 . S
C51 O61 1.268 . S
C52 O58 1.268 . S
C52 O60 1.268 . S
C53 O59 1.268 . S
C53 O62 1.268 . S
O54 Sc44 2.105 1_556 S
O54 C48 1.268 . S
O55 Sc45 2.105 . S
O55 C49 1.268 . S
O56 Sc46 2.105 1_556 S
O56 C50 1.268 . S
O57 Sc44 2.105 . S
O57 C51 1.268 . S
O58 Sc46 2.105 . S
O58 C52 1.268 . S
O59 Sc45 2.105 1_554 S
O59 C53 1.268 . S
O60 Sc44 2.105 . S
O60 C52 1.268 . S
O61 Sc45 2.105 1_554 S
O61 C51 1.268 . S
O62 Sc46 2.105 . S
O62 C53 1.268 . S
O63 Sc44 2.105 1_556 S
O63 C49 1.268 . S
O64 Sc46 2.105 1_556 S
O64 C48 1.268 . S
O65 Sc45 2.105 . S
O65 C50 1.268 . S
Sc66 O69 2.025 . S
Sc66 O76 2.105 . S
Sc66 O79 2.105 . S
Sc66 O82 2.105 . S
Sc66 O85 2.105 . S
Sc67 O69 2.025 . S
Sc67 O77 2.105 . S
Sc67 O81 2.105 . S
Sc67 O83 2.105 . S
Sc67 O87 2.105 . S
Sc68 O69 2.025 . S
Sc68 O78 2.105 . S
Sc68 O80 2.105 . S
Sc68 O84 2.105 . S
Sc68 O86 2.105 . S
O69 Sc66 2.025 . S
O69 Sc67 2.025 . S
O69 Sc68 2.025 . S
C70 O76 1.268 . S
C70 O86 1.268 . S
C71 O77 1.268 . S
C71 O85 1.268 . S
C72 O78 1.268 . S
C72 O87 1.268 . S
C73 O79 1.268 . S
C73 O83 1.268 . S
C74 O80 1.268 . S
C74 O82 1.268 . S
C75 O81 1.268 . S
C75 O84 1.268 . S
O76 Sc66 2.105 . S
O76 C70 1.268 . S
O77 Sc67 2.105 . S
O77 C71 1.268 . S
O78 Sc68 2.105 . S
O78 C72 1.268 . S
O79 Sc66 2.105 . S
O79 C73 1.268 . S
O80 Sc68 2.105 . S
O80 C74 1.268 . S
O81 Sc67 2.105 . S
O81 C75 1.268 . S
O82 Sc66 2.105 . S
O82 C74 1.268 . S
O83 Sc67 2.105 . S
O83 C73 1.268 . S
O84 Sc68 2.105 . S
O84 C75 1.268 . S
O85 Sc66 2.105 . S
O85 C71 1.268 . S
O86 Sc68 2.105 . S
O86 C70 1.268 . S
O87 Sc67 2.105 . S
O87 C72 1.268 . S
C88 C89 1.352 1_455 S
C88 C90 1.429 . S
C88 H112 0.934 . S
C89 C88 1.352 1_655 S
C89 C93 1.397 . S
C90 C88 1.429 . S
C90 C91 1.384 . S
C90 H113 0.930 . S
C91 C90 1.384 . S
C91 C92 1.377 1_455 S
C91 C94 1.481 . S
C92 C91 1.377 1_655 S
C92 C93 1.389 . S
C92 H114 0.929 . S
C93 C89 1.397 . S
C93 C92 1.389 . S
C93 H115 0.931 . S
C94 C91 1.481 . S
C94 C95 1.387 . S
C94 C99 1.390 . S
C95 C94 1.387 . S
C95 C96 1.401 . S
C95 H116 0.930 . S
C96 C95 1.401 . S
C96 C97 1.376 . S
C96 C105 1.511 . S
C97 C96 1.376 . S
C97 C98 1.392 . S
C97 H118 0.931 . S
C98 C97 1.392 . S
C98 C99 1.361 . S
C98 C100 1.500 . S
C99 C94 1.390 . S
C99 C98 1.361 . S
C99 H117 0.931 . S
C100 C98 1.500 . S
C100 C101 1.371 . S
C100 C102 1.365 . S
C101 C100 1.371 . S
C101 C111 1.386 . S
C101 H119 0.931 . S
C102 C100 1.365 . S
C102 C103 1.409 . S
C102 H120 0.929 . S
C103 C102 1.409 . S
C103 C104 1.380 . S
C103 H121 0.930 . S
C104 C103 1.380 . S
C104 C111 1.357 . S
C105 C96 1.511 . S
C105 C106 1.341 . S
C105 C107 1.371 . S
C106 C105 1.341 . S
C106 C110 1.394 . S
C106 H122 0.930 . S
C107 C105 1.371 . S
C107 C108 1.392 . S
C107 H123 0.931 . S
C108 C107 1.392 . S
C108 C109 1.331 . S
C108 H126 0.932 . S
C109 C108 1.331 . S
C109 C110 1.336 . S
C110 C106 1.394 . S
C110 C109 1.336 . S
C110 H125 0.929 . S
C111 C101 1.386 . S
C111 C104 1.357 . S
C111 H124 0.928 . S
H112 C88 0.934 . S
H113 C90 0.930 . S
H114 C92 0.929 . S
H115 C93 0.931 . S
H116 C95 0.930 . S
H117 C99 0.931 . S
H118 C97 0.931 . S
H119 C101 0.931 . S
H120 C102 0.929 . S
H121 C103 0.930 . S
H122 C106 0.930 . S
H123 C107 0.931 . S
H124 C111 0.928 . S
H125 C110 0.929 . S
H126 C108 0.932 . S
C127 C128 1.386 . S
C127 C129 1.397 . S
C127 H151 0.931 . S
C128 C127 1.386 . S
C128 C132 1.397 . S
C129 C127 1.397 . S
C129 C130 1.384 . S
C129 H152 0.930 . S
C130 C129 1.384 . S
C130 C131 1.377 . S
C130 C133 1.481 . S
C131 C130 1.377 . S
C131 C132 1.389 . S
C131 H153 0.929 . S
C132 C128 1.397 . S
C132 C131 1.389 . S
C132 H154 0.931 . S
C133 C130 1.481 . S
C133 C134 1.387 . S
C133 C138 1.390 . S
C134 C133 1.387 . S
C134 C135 1.401 . S
C134 H155 0.930 . S
C135 C134 1.401 . S
C135 C136 1.376 . S
C135 C144 1.511 . S
C136 C135 1.376 . S
C136 C137 1.392 . S
C136 H157 0.931 . S
C137 C136 1.392 . S
C137 C138 1.361 . S
C137 C139 1.500 . S
C138 C133 1.390 . S
C138 C137 1.361 . S
C138 H156 0.931 . S
C139 C137 1.500 . S
C139 C140 1.371 . S
C139 C141 1.365 . S
C140 C139 1.371 . S
C140 C150 1.386 . S
C140 H158 0.931 . S
C141 C139 1.365 . S
C141 C142 1.409 . S
C141 H159 0.929 . S
C142 C141 1.409 . S
C142 C143 1.380 . S
C142 H160 0.930 . S
C143 C142 1.380 . S
C143 C150 1.357 . S
C144 C135 1.511 . S
C144 C145 1.341 . S
C144 C146 1.371 . S
C145 C144 1.341 . S
C145 C149 1.394 . S
C145 H161 0.930 . S
C146 C144 1.371 . S
C146 C147 1.392 . S
C146 H162 0.931 . S
C147 C146 1.392 . S
C147 C148 1.331 . S
C147 H165 0.932 . S
C148 C147 1.331 . S
C148 C149 1.336 . S
C149 C145 1.394 . S
C149 C148 1.336 . S
C149 H164 0.929 . S
C150 C140 1.386 . S
C150 C143 1.357 . S
C150 H163 0.928 . S
H151 C127 0.931 . S
H152 C129 0.930 . S
H153 C131 0.929 . S
H154 C132 0.931 . S
H155 C134 0.930 . S
H156 C138 0.931 . S
H157 C136 0.931 . S
H158 C140 0.931 . S
H159 C141 0.929 . S
H160 C142 0.930 . S
H161 C145 0.930 . S
H162 C146 0.931 . S
H163 C150 0.928 . S
H164 C149 0.929 . S
H165 C147 0.932 . S
C166 C167 1.386 . S
C166 C168 1.397 . S
C166 H190 0.931 . S
C167 C166 1.386 . S
C167 C171 1.397 . S
C168 C166 1.397 . S
C168 C169 1.384 . S
C168 H191 0.930 . S
C169 C168 1.384 . S
C169 C170 1.377 . S
C169 C172 1.481 . S
C170 C169 1.377 . S
C170 C171 1.389 . S
C170 H192 0.929 . S
C171 C167 1.397 . S
C171 C170 1.389 . S
C171 H193 0.931 . S
C172 C169 1.481 . S
C172 C173 1.387 . S
C172 C177 1.390 . S
C173 C172 1.387 . S
C173 C174 1.401 . S
C173 H194 0.930 . S
C174 C173 1.401 . S
C174 C175 1.376 . S
C174 C183 1.511 . S
C175 C174 1.376 . S
C175 C176 1.392 . S
C175 H196 0.931 . S
C176 C175 1.392 . S
C176 C177 1.361 . S
C176 C178 1.500 . S
C177 C172 1.390 . S
C177 C176 1.361 . S
C177 H195 0.931 . S
C178 C176 1.500 . S
C178 C179 1.371 . S
C178 C180 1.365 . S
C179 C178 1.371 . S
C179 C189 1.386 . S
C179 H197 0.931 . S
C180 C178 1.365 . S
C180 C181 1.409 . S
C180 H198 0.929 . S
C181 C180 1.409 . S
C181 C182 1.380 . S
C181 H199 0.930 . S
C182 C181 1.380 . S
C182 C189 1.357 . S
C183 C174 1.511 . S
C183 C184 1.341 . S
C183 C185 1.371 . S
C184 C183 1.341 . S
C184 C188 1.394 . S
C184 H200 0.930 . S
C185 C183 1.371 . S
C185 C186 1.392 . S
C185 H201 0.931 . S
C186 C185 1.392 . S
C186 C187 1.331 . S
C186 H204 0.932 . S
C187 C186 1.331 . S
C187 C188 1.336 . S
C188 C184 1.394 . S
C188 C187 1.336 . S
C188 H203 0.929 . S
C189 C179 1.386 . S
C189 C182 1.357 . S
C189 H202 0.928 . S
H190 C166 0.931 . S
H191 C168 0.930 . S
H192 C170 0.929 . S
H193 C171 0.931 . S
H194 C173 0.930 . S
H195 C177 0.931 . S
H196 C175 0.931 . S
H197 C179 0.931 . S
H198 C180 0.929 . S
H199 C181 0.930 . S
H200 C184 0.930 . S
H201 C185 0.931 . S
H202 C189 0.928 . S
H203 C188 0.929 . S
H204 C186 0.932 . S
C205 C206 1.386 . S
C205 C207 1.397 . S
C205 H229 0.931 . S
C206 C205 1.386 . S
C206 C210 1.397 . S
C207 C205 1.397 . S
C207 C208 1.384 . S
C207 H230 0.930 . S
C208 C207 1.384 . S
C208 C209 1.377 . S
C208 C211 1.481 . S
C209 C208 1.377 . S
C209 C210 1.389 . S
C209 H231 0.929 . S
C210 C206 1.397 . S
C210 C209 1.389 . S
C210 H232 0.931 . S
C211 C208 1.481 . S
C211 C212 1.387 . S
C211 C216 1.390 . S
C212 C211 1.387 . S
C212 C213 1.401 . S
C212 H233 0.930 . S
C213 C212 1.401 . S
C213 C214 1.376 . S
C213 C222 1.511 . S
C214 C213 1.376 . S
C214 C215 1.392 . S
C214 H235 0.931 . S
C215 C214 1.392 . S
C215 C216 1.361 . S
C215 C217 1.500 . S
C216 C211 1.390 . S
C216 C215 1.361 . S
C216 H234 0.931 . S
C217 C215 1.500 . S
C217 C218 1.371 . S
C217 C219 1.365 . S
C218 C217 1.371 . S
C218 C228 1.386 . S
C218 H236 0.931 . S
C219 C217 1.365 . S
C219 C220 1.409 . S
C219 H237 0.929 . S
C220 C219 1.409 . S
C220 C221 1.380 . S
C220 H238 0.930 . S
C221 C220 1.380 . S
C221 C228 1.357 . S
C222 C213 1.511 . S
C222 C223 1.341 . S
C222 C224 1.371 . S
C223 C222 1.341 . S
C223 C227 1.394 . S
C223 H239 0.930 . S
C224 C222 1.371 . S
C224 C225 1.392 . S
C224 H240 0.931 . S
C225 C224 1.392 . S
C225 C226 1.331 . S
C225 H243 0.932 . S
C226 C225 1.331 . S
C226 C227 1.336 . S
C227 C223 1.394 . S
C227 C226 1.336 . S
C227 H242 0.929 . S
C228 C218 1.386 . S
C228 C221 1.357 . S
C228 H241 0.928 . S
H229 C205 0.931 . S
H230 C207 0.930 . S
H231 C209 0.929 . S
H232 C210 0.931 . S
H233 C212 0.930 . S
H234 C216 0.931 . S
H235 C214 0.931 . S
H236 C218 0.931 . S
H237 C219 0.929 . S
H238 C220 0.930 . S
H239 C223 0.930 . S
H240 C224 0.931 . S
H241 C228 0.928 . S
H242 C227 0.929 . S
H243 C225 0.932 . S
C244 C245 1.386 . S
C244 C246 1.397 . S
C244 H268 0.931 . S
C245 C244 1.386 . S
C245 C249 1.397 . S
C246 C244 1.397 . S
C246 C247 1.384 . S
C246 H269 0.930 . S
C247 C246 1.384 . S
C247 C248 1.377 . S
C247 C250 1.481 . S
C248 C247 1.377 . S
C248 C249 1.389 . S
C248 H270 0.929 . S
C249 C245 1.397 . S
C249 C248 1.389 . S
C249 H271 0.931 . S
C250 C247 1.481 . S
C250 C251 1.387 . S
C250 C255 1.390 . S
C251 C250 1.387 . S
C251 C252 1.401 . S
C251 H272 0.930 . S
C252 C251 1.401 . S
C252 C253 1.376 . S
C252 C261 1.511 . S
C253 C252 1.376 . S
C253 C254 1.392 . S
C253 H274 0.931 . S
C254 C253 1.392 . S
C254 C255 1.361 . S
C254 C256 1.500 . S
C255 C250 1.390 . S
C255 C254 1.361 . S
C255 H273 0.931 . S
C256 C254 1.500 . S
C256 C257 1.371 . S
C256 C258 1.365 . S
C257 C256 1.371 . S
C257 C267 1.386 . S
C257 H275 0.931 . S
C258 C256 1.365 . S
C258 C259 1.409 . S
C258 H276 0.929 . S
C259 C258 1.409 . S
C259 C260 1.380 . S
C259 H277 0.930 . S
C260 C259 1.380 . S
C260 C267 1.357 . S
C261 C252 1.511 . S
C261 C262 1.341 . S
C261 C263 1.371 . S
C262 C261 1.341 . S
C262 C266 1.394 . S
C262 H278 0.930 . S
C263 C261 1.371 . S
C263 C264 1.392 . S
C263 H279 0.931 . S
C264 C263 1.392 . S
C264 C265 1.331 . S
C264 H282 0.932 . S
C265 C264 1.331 . S
C265 C266 1.336 . S
C266 C262 1.394 . S
C266 C265 1.336 . S
C266 H281 0.929 . S
C267 C257 1.386 . S
C267 C260 1.357 . S
C267 H280 0.928 . S
H268 C244 0.931 . S
H269 C246 0.930 . S
H270 C248 0.929 . S
H271 C249 0.931 . S
H272 C251 0.930 . S
H273 C255 0.931 . S
H274 C253 0.931 . S
H275 C257 0.931 . S
H276 C258 0.929 . S
H277 C259 0.930 . S
H278 C262 0.930 . S
H279 C263 0.931 . S
H280 C267 0.928 . S
H281 C266 0.929 . S
H282 C264 0.932 . S
C283 C284 1.386 . S
C283 C285 1.397 . S
C283 H307 0.931 . S
C284 C283 1.386 . S
C284 C288 1.397 . S
C285 C283 1.397 . S
C285 C286 1.384 . S
C285 H308 0.930 . S
C286 C285 1.384 . S
C286 C287 1.377 . S
C286 C289 1.481 . S
C287 C286 1.377 . S
C287 C288 1.389 . S
C287 H309 0.929 . S
C288 C284 1.397 . S
C288 C287 1.389 . S
C288 H310 0.931 . S
C289 C286 1.481 . S
C289 C290 1.387 . S
C289 C294 1.390 . S
C290 C289 1.387 . S
C290 C291 1.401 . S
C290 H311 0.930 . S
C291 C290 1.401 . S
C291 C292 1.376 . S
C291 C300 1.511 . S
C292 C291 1.376 . S
C292 C293 1.392 . S
C292 H313 0.931 . S
C293 C292 1.392 . S
C293 C294 1.361 . S
C293 C295 1.500 . S
C294 C289 1.390 . S
C294 C293 1.361 . S
C294 H312 0.931 . S
C295 C293 1.500 . S
C295 C296 1.371 . S
C295 C297 1.365 . S
C296 C295 1.371 . S
C296 C306 1.386 . S
C296 H314 0.931 . S
C297 C295 1.365 . S
C297 C298 1.409 . S
C297 H315 0.929 . S
C298 C297 1.409 . S
C298 C299 1.380 . S
C298 H316 0.930 . S
C299 C298 1.380 . S
C299 C306 1.357 . S
C300 C291 1.511 . S
C300 C301 1.341 . S
C300 C302 1.371 . S
C301 C300 1.341 . S
C301 C305 1.394 . S
C301 H317 0.930 . S
C302 C300 1.371 . S
C302 C303 1.392 . S
C302 H318 0.931 . S
C303 C302 1.392 . S
C303 C304 1.331 . S
C303 H321 0.932 . S
C304 C303 1.331 . S
C304 C305 1.336 . S
C305 C301 1.394 . S
C305 C304 1.336 . S
C305 H320 0.929 . S
C306 C296 1.386 . S
C306 C299 1.357 . S
C306 H319 0.928 . S
H307 C283 0.931 . S
H308 C285 0.930 . S
H309 C287 0.929 . S
H310 C288 0.931 . S
H311 C290 0.930 . S
H312 C294 0.931 . S
H313 C292 0.931 . S
H314 C296 0.931 . S
H315 C297 0.929 . S
H316 C298 0.930 . S
H317 C301 0.930 . S
H318 C302 0.931 . S
H319 C306 0.928 . S
H320 C305 0.929 . S
H321 C303 0.932 . S
C322 C323 1.386 . S
C322 C324 1.397 . S
C322 H346 0.931 . S
C323 C322 1.386 . S
C323 C327 1.397 . S
C324 C322 1.397 . S
C324 C325 1.384 . S
C324 H347 0.930 . S
C325 C324 1.384 . S
C325 C326 1.377 . S
C325 C328 1.481 . S
C326 C325 1.377 . S
C326 C327 1.389 . S
C326 H348 0.929 . S
C327 C323 1.397 . S
C327 C326 1.389 . S
C327 H349 0.931 . S
C328 C325 1.481 . S
C328 C329 1.387 . S
C328 C333 1.390 . S
C329 C328 1.387 . S
C329 C330 1.401 . S
C329 H350 0.930 . S
C330 C329 1.401 . S
C330 C331 1.376 . S
C330 C339 1.511 . S
C331 C330 1.376 . S
C331 C332 1.392 . S
C331 H352 0.931 . S
C332 C331 1.392 . S
C332 C333 1.361 . S
C332 C334 1.500 . S
C333 C328 1.390 . S
C333 C332 1.361 . S
C333 H351 0.931 . S
C334 C332 1.500 . S
C334 C335 1.371 . S
C334 C336 1.365 . S
C335 C334 1.371 . S
C335 C345 1.386 . S
C335 H353 0.931 . S
C336 C334 1.365 . S
C336 C337 1.409 . S
C336 H354 0.929 . S
C337 C336 1.409 . S
C337 C338 1.380 . S
C337 H355 0.930 . S
C338 C337 1.380 . S
C338 C345 1.357 . S
C339 C330 1.511 . S
C339 C340 1.341 . S
C339 C341 1.371 . S
C340 C339 1.341 . S
C340 C344 1.394 . S
C340 H356 0.930 . S
C341 C339 1.371 . S
C341 C342 1.392 . S
C341 H357 0.931 . S
C342 C341 1.392 . S
C342 C343 1.331 . S
C342 H360 0.932 . S
C343 C342 1.331 . S
C343 C344 1.336 . S
C344 C340 1.394 . S
C344 C343 1.336 . S
C344 H359 0.929 . S
C345 C335 1.386 . S
C345 C338 1.357 . S
C345 H358 0.928 . S
H346 C322 0.931 . S
H347 C324 0.930 . S
H348 C326 0.929 . S
H349 C327 0.931 . S
H350 C329 0.930 . S
H351 C333 0.931 . S
H352 C331 0.931 . S
H353 C335 0.931 . S
H354 C336 0.929 . S
H355 C337 0.930 . S
H356 C340 0.930 . S
H357 C341 0.931 . S
H358 C345 0.928 . S
H359 C344 0.929 . S
H360 C342 0.932 . S
C361 C362 1.386 . S
C361 C363 1.397 1_455 S
C361 H385 0.931 . S
C362 C361 1.386 . S
C362 C366 1.397 . S
C363 C361 1.397 1_655 S
C363 C364 1.384 . S
C363 H386 0.930 . S
C364 C363 1.384 . S
C364 C365 1.377 . S
C364 C367 1.481 . S
C365 C364 1.377 . S
C365 C366 1.389 1_655 S
C365 H387 0.929 . S
C366 C362 1.397 . S
C366 C365 1.389 1_455 S
C366 H388 0.931 . S
C367 C364 1.481 . S
C367 C368 1.387 . S
C367 C372 1.390 . S
C368 C367 1.387 . S
C368 C369 1.401 . S
C368 H389 0.930 . S
C369 C368 1.401 . S
C369 C370 1.376 . S
C369 C378 1.511 . S
C370 C369 1.376 . S
C370 C371 1.392 . S
C370 H391 0.931 . S
C371 C370 1.392 . S
C371 C372 1.361 . S
C371 C373 1.500 . S
C372 C367 1.390 . S
C372 C371 1.361 . S
C372 H390 0.931 . S
C373 C371 1.500 . S
C373 C374 1.371 . S
C373 C375 1.365 . S
C374 C373 1.371 . S
C374 C384 1.386 . S
C374 H392 0.931 . S
C375 C373 1.365 . S
C375 C376 1.409 . S
C375 H393 0.929 . S
C376 C375 1.409 . S
C376 C377 1.380 . S
C376 H394 0.930 . S
C377 C376 1.380 . S
C377 C384 1.357 . S
C378 C369 1.511 . S
C378 C379 1.341 . S
C378 C380 1.371 . S
C379 C378 1.341 . S
C379 C383 1.394 . S
C379 H395 0.930 . S
C380 C378 1.371 . S
C380 C381 1.392 . S
C380 H396 0.931 . S
C381 C380 1.392 . S
C381 C382 1.331 . S
C381 H399 0.932 . S
C382 C381 1.331 . S
C382 C383 1.336 . S
C383 C379 1.394 . S
C383 C382 1.336 . S
C383 H398 0.929 . S
C384 C374 1.386 . S
C384 C377 1.357 . S
C384 H397 0.928 . S
H385 C361 0.931 . S
H386 C363 0.930 . S
H387 C365 0.929 . S
H388 C366 0.931 . S
H389 C368 0.930 . S
H390 C372 0.931 . S
H391 C370 0.931 . S
H392 C374 0.931 . S
H393 C375 0.929 . S
H394 C376 0.930 . S
H395 C379 0.930 . S
H396 C380 0.931 . S
H397 C384 0.928 . S
H398 C383 0.929 . S
H399 C381 0.932 . S
H400 C408 0.929 . S
H401 C410 0.930 . S
H402 C412 0.930 . S
H403 C415 0.929 . S
H404 C418 0.930 . S
H405 C420 0.960 . S
H406 C420 0.960 . S
H407 C420 0.960 . S
C408 H400 0.929 . S
C408 C409 1.377 . S
C408 C410 1.384 . S
C409 C408 1.377 . S
C409 C415 1.390 . S
C410 H401 0.930 . S
C410 C408 1.384 . S
C410 C411 1.372 . S
C411 C410 1.372 . S
C411 C412 1.400 . S
C411 C416 1.490 . S
C412 H402 0.930 . S
C412 C411 1.400 . S
C412 C415 1.386 . S
H413 C429 0.930 . S
H414 C430 0.931 . S
C415 H403 0.929 . S
C415 C409 1.390 . S
C415 C412 1.386 . S
C416 C411 1.490 . S
C416 C418 1.395 . S
C416 C419 1.403 . S
H417 C423 0.930 . S
C418 H404 0.930 . S
C418 C416 1.395 . S
C418 C421 1.403 . S
C419 C416 1.403 . S
C419 C420 1.524 . S
C419 C423 1.400 . S
C420 H405 0.960 . S
C420 H406 0.960 . S
C420 H407 0.960 . S
C420 C419 1.524 . S
C421 C418 1.403 . S
C421 C422 1.392 . S
C421 C425 1.495 . S
C422 C421 1.392 . S
C422 C423 1.385 . S
C422 C424 1.478 . S
C423 H417 0.930 . S
C423 C419 1.400 . S
C423 C422 1.385 . S
C424 C422 1.478 . S
C424 C426 1.381 . S
C424 C430 1.383 . S
C425 C421 1.495 . S
C425 H431 0.959 . S
C425 H432 0.961 . S
C425 H433 0.960 . S
C426 C424 1.381 . S
C426 C427 1.394 . S
C426 H434 0.930 . S
C427 C426 1.394 . S
C427 C428 1.383 1_565 S
C427 H435 0.929 . S
C428 C427 1.383 1_545 S
C428 C429 1.377 . S
C429 H413 0.930 . S
C429 C428 1.377 . S
C429 C430 1.379 1_545 S
C430 H414 0.931 . S
C430 C424 1.383 . S
C430 C429 1.379 1_565 S
H431 C425 0.959 . S
H432 C425 0.961 . S
H433 C425 0.960 . S
H434 C426 0.930 . S
H435 C427 0.929 . S
H436 C444 0.929 . S
H437 C446 0.930 . S
H438 C448 0.930 . S
H439 C451 0.929 . S
H440 C454 0.930 . S
H441 C456 0.960 . S
H442 C456 0.960 . S
H443 C456 0.960 . S
C444 H436 0.929 . S
C444 C445 1.377 . S
C444 C446 1.384 . S
C445 C444 1.377 . S
C445 C451 1.390 . S
C446 H437 0.930 . S
C446 C444 1.384 . S
C446 C447 1.372 . S
C447 C446 1.372 . S
C447 C448 1.400 . S
C447 C452 1.490 . S
C448 H438 0.930 . S
C448 C447 1.400 . S
C448 C451 1.386 . S
H449 C465 0.930 . S
H450 C466 0.931 . S
C451 H439 0.929 . S
C451 C445 1.390 . S
C451 C448 1.386 . S
C452 C447 1.490 . S
C452 C454 1.395 . S
C452 C455 1.403 . S
H453 C459 0.930 . S
C454 H440 0.930 . S
C454 C452 1.395 . S
C454 C457 1.403 . S
C455 C452 1.403 . S
C455 C456 1.524 . S
C455 C459 1.400 . S
C456 H441 0.960 . S
C456 H442 0.960 . S
C456 H443 0.960 . S
C456 C455 1.524 . S
C457 C454 1.403 . S
C457 C458 1.392 . S
C457 C461 1.495 . S
C458 C457 1.392 . S
C458 C459 1.385 . S
C458 C460 1.478 . S
C459 H453 0.930 . S
C459 C455 1.400 . S
C459 C458 1.385 . S
C460 C458 1.478 . S
C460 C462 1.381 . S
C460 C466 1.383 . S
C461 C457 1.495 . S
C461 H467 0.959 . S
C461 H468 0.961 . S
C461 H469 0.960 . S
C462 C460 1.381 . S
C462 C463 1.394 . S
C462 H470 0.930 . S
C463 C462 1.394 . S
C463 C464 1.383 . S
C463 H471 0.929 . S
C464 C463 1.383 . S
C464 C465 1.377 . S
C465 H449 0.930 . S
C465 C464 1.377 . S
C465 C466 1.379 . S
C466 H450 0.931 . S
C466 C460 1.383 . S
C466 C465 1.379 . S
H467 C461 0.959 . S
H468 C461 0.961 . S
H469 C461 0.960 . S
H470 C462 0.930 . S
H471 C463 0.929 . S
H472 C480 0.929 . S
H473 C482 0.930 . S
H474 C484 0.930 . S
H475 C487 0.929 . S
H476 C490 0.930 . S
H477 C492 0.960 . S
H478 C492 0.960 . S
H479 C492 0.960 . S
C480 H472 0.929 . S
C480 C481 1.377 . S
C480 C482 1.384 . S
C481 C480 1.377 . S
C481 C487 1.390 . S
C482 H473 0.930 . S
C482 C480 1.384 . S
C482 C483 1.372 . S
C483 C482 1.372 . S
C483 C484 1.400 . S
C483 C488 1.490 . S
C484 H474 0.930 . S
C484 C483 1.400 . S
C484 C487 1.386 . S
H485 C501 0.930 . S
H486 C502 0.931 . S
C487 H475 0.929 . S
C487 C481 1.390 . S
C487 C484 1.386 . S
C488 C483 1.490 . S
C488 C490 1.395 . S
C488 C491 1.403 . S
H489 C495 0.930 . S
C490 H476 0.930 . S
C490 C488 1.395 . S
C490 C493 1.403 . S
C491 C488 1.403 . S
C491 C492 1.524 . S
C491 C495 1.400 . S
C492 H477 0.960 . S
C492 H478 0.960 . S
C492 H479 0.960 . S
C492 C491 1.524 . S
C493 C490 1.403 . S
C493 C494 1.392 . S
C493 C497 1.495 . S
C494 C493 1.392 . S
C494 C495 1.385 . S
C494 C496 1.478 1_545 S
C495 H489 0.930 . S
C495 C491 1.400 . S
C495 C494 1.385 . S
C496 C494 1.478 1_565 S
C496 C498 1.381 . S
C496 C502 1.383 . S
C497 C493 1.495 . S
C497 H503 0.959 . S
C497 H504 0.961 . S
C497 H505 0.960 . S
C498 C496 1.381 . S
C498 C499 1.394 . S
C498 H506 0.930 1_565 S
C499 C498 1.394 . S
C499 C500 1.383 . S
C499 H507 0.929 . S
C500 C499 1.383 . S
C500 C501 1.377 . S
C501 H485 0.930 . S
C501 C500 1.377 . S
C501 C502 1.379 . S
C502 H486 0.931 . S
C502 C496 1.383 . S
C502 C501 1.379 . S
H503 C497 0.959 . S
H504 C497 0.961 . S
H505 C497 0.960 . S
H506 C498 0.930 1_545 S
H507 C499 0.929 . S
H508 C516 0.929 . S
H509 C518 0.930 . S
H510 C520 0.930 . S
H511 C523 0.929 . S
H512 C526 0.930 . S
H513 C528 0.960 . S
H514 C528 0.960 . S
H515 C528 0.960 . S
C516 H508 0.929 . S
C516 C517 1.377 . S
C516 C518 1.384 . S
C517 C516 1.377 . S
C517 C523 1.390 . S
C518 H509 0.930 . S
C518 C516 1.384 . S
C518 C519 1.372 . S
C519 C518 1.372 . S
C519 C520 1.400 . S
C519 C524 1.490 . S
C520 H510 0.930 . S
C520 C519 1.400 . S
C520 C523 1.386 . S
H521 C537 0.930 . S
H522 C538 0.931 . S
C523 H511 0.929 . S
C523 C517 1.390 . S
C523 C520 1.386 . S
C524 C519 1.490 . S
C524 C526 1.395 . S
C524 C527 1.403 . S
H525 C531 0.930 . S
C526 H512 0.930 . S
C526 C524 1.395 . S
C526 C529 1.403 . S
C527 C524 1.403 . S
C527 C528 1.524 . S
C527 C531 1.400 . S
C528 H513 0.960 . S
C528 H514 0.960 . S
C528 H515 0.960 . S
C528 C527 1.524 . S
C529 C526 1.403 . S
C529 C530 1.392 . S
C529 C533 1.495 . S
C530 C529 1.392 . S
C530 C531 1.385 . S
C530 C532 1.478 . S
C531 H525 0.930 . S
C531 C527 1.400 . S
C531 C530 1.385 . S
C532 C530 1.478 . S
C532 C534 1.381 . S
C532 C538 1.383 . S
C533 C529 1.495 . S
C533 H539 0.959 . S
C533 H540 0.961 . S
C533 H541 0.960 . S
C534 C532 1.381 . S
C534 C535 1.394 . S
C534 H542 0.930 . S
C535 C534 1.394 . S
C535 C536 1.383 . S
C535 H543 0.929 . S
C536 C535 1.383 . S
C536 C537 1.377 . S
C537 H521 0.930 . S
C537 C536 1.377 . S
C537 C538 1.379 . S
C538 H522 0.931 . S
C538 C532 1.383 . S
C538 C537 1.379 . S
H539 C533 0.959 . S
H540 C533 0.961 . S
H541 C533 0.960 . S
H542 C534 0.930 . S
H543 C535 0.929 . S
H544 C552 0.929 . S
H545 C554 0.930 . S
H546 C556 0.930 . S
H547 C559 0.929 . S
H548 C562 0.930 . S
H549 C564 0.960 . S
H550 C564 0.960 . S
H551 C564 0.960 . S
C552 H544 0.929 . S
C552 C553 1.377 . S
C552 C554 1.384 . S
C553 C552 1.377 . S
C553 C559 1.390 . S
C554 H545 0.930 . S
C554 C552 1.384 . S
C554 C555 1.372 . S
C555 C554 1.372 . S
C555 C556 1.400 . S
C555 C560 1.490 . S
C556 H546 0.930 . S
C556 C555 1.400 . S
C556 C559 1.386 . S
H557 C573 0.930 . S
H558 C574 0.931 . S
C559 H547 0.929 . S
C559 C553 1.390 . S
C559 C556 1.386 . S
C560 C555 1.490 . S
C560 C562 1.395 . S
C560 C563 1.403 . S
H561 C567 0.930 . S
C562 H548 0.930 . S
C562 C560 1.395 . S
C562 C565 1.403 . S
C563 C560 1.403 . S
C563 C564 1.524 . S
C563 C567 1.400 . S
C564 H549 0.960 . S
C564 H550 0.960 . S
C564 H551 0.960 . S
C564 C563 1.524 . S
C565 C562 1.403 . S
C565 C566 1.392 . S
C565 C569 1.495 . S
C566 C565 1.392 . S
C566 C567 1.385 . S
C566 C568 1.478 . S
C567 H561 0.930 . S
C567 C563 1.400 . S
C567 C566 1.385 . S
C568 C566 1.478 . S
C568 C570 1.381 . S
C568 C574 1.383 . S
C569 C565 1.495 . S
C569 H575 0.959 . S
C569 H576 0.961 . S
C569 H577 0.960 . S
C570 C568 1.381 . S
C570 C571 1.394 . S
C570 H578 0.930 . S
C571 C570 1.394 . S
C571 C572 1.383 . S
C571 H579 0.929 . S
C572 C571 1.383 . S
C572 C573 1.377 . S
C573 H557 0.930 . S
C573 C572 1.377 . S
C573 C574 1.379 . S
C574 H558 0.931 . S
C574 C568 1.383 . S
C574 C573 1.379 . S
H575 C569 0.959 . S
H576 C569 0.961 . S
H577 C569 0.960 . S
H578 C570 0.930 . S
H579 C571 0.929 . S
H580 C588 0.929 1_554 S
H581 C590 0.949 . S
H582 C592 0.930 . S
H583 C595 0.929 . S
H584 C598 0.930 . S
H585 C600 0.960 1_455 S
H586 C600 0.960 . S
H587 C600 0.960 . S
C588 H580 0.929 1_556 S
C588 C589 1.377 . S
C588 C590 1.384 . S
C589 C588 1.377 . S
C589 C595 1.390 . S
C590 H581 0.949 . S
C590 C588 1.384 . S
C590 C591 1.372 . S
C591 C590 1.372 . S
C591 C592 1.400 . S
C591 C596 1.490 1_655 S
C592 H582 0.930 . S
C592 C591 1.400 . S
C592 C595 1.386 . S
H593 C609 0.930 . S
H594 C610 0.931 . S
C595 H583 0.929 . S
C595 C589 1.390 . S
C595 C592 1.386 . S
C596 C591 1.490 1_455 S
C596 C598 1.395 . S
C596 C599 1.403 . S
H597 C603 0.930 . S
C598 H584 0.930 . S
C598 C596 1.395 . S
C598 C601 1.403 . S
C599 C596 1.403 . S
C599 C600 1.524 1_455 S
C599 C603 1.400 . S
C600 H585 0.960 1_655 S
C600 H586 0.960 . S
C600 H587 0.960 . S
C600 C599 1.524 1_655 S
C601 C598 1.403 . S
C601 C602 1.392 . S
C601 C605 1.495 . S
C602 C601 1.392 . S
C602 C603 1.385 . S
C602 C604 1.478 . S
C603 H597 0.930 . S
C603 C599 1.400 . S
C603 C602 1.385 . S
C604 C602 1.478 . S
C604 C606 1.381 . S
C604 C610 1.383 . S
C605 C601 1.495 . S
C605 H611 0.959 1_556 S
C605 H612 0.961 . S
C605 H613 0.974 . S
C606 C604 1.381 . S
C606 C607 1.394 . S
C606 H614 0.930 . S
C607 C606 1.394 . S
C607 C608 1.383 . S
C607 H615 0.929 . S
C608 C607 1.383 . S
C608 C609 1.377 . S
C609 H593 0.930 . S
C609 C608 1.377 . S
C609 C610 1.379 . S
C610 H594 0.931 . S
C610 C604 1.383 . S
C610 C609 1.379 . S
H611 C605 0.959 1_554 S
H612 C605 0.961 . S
H613 C605 0.974 . S
H614 C606 0.930 . S
H615 C607 0.929 . S
H616 C624 0.929 . S
H617 C626 0.930 . S
H618 C628 0.930 . S
H619 C631 0.929 . S
H620 C634 0.930 . S
H621 C636 0.960 . S
H622 C636 0.960 . S
H623 C636 0.960 . S
C624 H616 0.929 . S
C624 C625 1.377 . S
C624 C626 1.384 . S
C625 C624 1.377 . S
C625 C631 1.390 . S
C626 H617 0.930 . S
C626 C624 1.384 . S
C626 C627 1.372 . S
C627 C626 1.372 . S
C627 C628 1.400 . S
C627 C632 1.490 . S
C628 H618 0.930 . S
C628 C627 1.400 . S
C628 C631 1.386 . S
H629 C645 0.930 . S
H630 C646 0.931 . S
C631 H619 0.929 . S
C631 C625 1.390 . S
C631 C628 1.386 . S
C632 C627 1.490 . S
C632 C634 1.395 . S
C632 C635 1.403 . S
H633 C639 0.930 . S
C634 H620 0.930 . S
C634 C632 1.395 . S
C634 C637 1.403 . S
C635 C632 1.403 . S
C635 C636 1.524 . S
C635 C639 1.400 . S
C636 H621 0.960 . S
C636 H622 0.960 . S
C636 H623 0.960 . S
C636 C635 1.524 . S
C637 C634 1.403 . S
C637 C638 1.392 . S
C637 C641 1.495 . S
C638 C637 1.392 . S
C638 C639 1.385 . S
C638 C640 1.478 . S
C639 H633 0.930 . S
C639 C635 1.400 . S
C639 C638 1.385 . S
C640 C638 1.478 . S
C640 C642 1.381 . S
C640 C646 1.383 . S
C641 C637 1.495 . S
C641 H647 0.959 . S
C641 H648 0.961 . S
C641 H649 0.960 . S
C642 C640 1.381 . S
C642 C643 1.394 . S
C642 H650 0.930 . S
C643 C642 1.394 . S
C643 C644 1.383 . S
C643 H651 0.929 . S
C644 C643 1.383 . S
C644 C645 1.377 . S
C645 H629 0.930 . S
C645 C644 1.377 . S
C645 C646 1.379 . S
C646 H630 0.931 . S
C646 C640 1.383 . S
C646 C645 1.379 . S
H647 C641 0.959 . S
H648 C641 0.961 . S
H649 C641 0.960 . S
H650 C642 0.930 . S
H651 C643 0.929 . S
H652 C660 0.929 . S
H653 C662 0.930 . S
H654 C664 0.930 . S
H655 C667 0.929 . S
H656 C670 0.930 . S
H657 C672 0.960 . S
H658 C672 0.960 . S
H659 C672 0.960 . S
C660 H652 0.929 . S
C660 C661 1.377 . S
C660 C662 1.384 . S
C661 C660 1.377 . S
C661 C667 1.390 . S
C662 H653 0.930 . S
C662 C660 1.384 . S
C662 C663 1.372 . S
C663 C662 1.372 . S
C663 C664 1.400 . S
C663 C668 1.490 . S
C664 H654 0.930 . S
C664 C663 1.400 . S
C664 C667 1.386 . S
H665 C681 0.930 . S
H666 C682 0.931 . S
C667 H655 0.929 . S
C667 C661 1.390 . S
C667 C664 1.386 . S
C668 C663 1.490 . S
C668 C670 1.395 . S
C668 C671 1.403 . S
H669 C675 0.930 . S
C670 H656 0.930 . S
C670 C668 1.395 . S
C670 C673 1.403 . S
C671 C668 1.403 . S
C671 C672 1.524 . S
C671 C675 1.400 . S
C672 H657 0.960 . S
C672 H658 0.960 . S
C672 H659 0.960 . S
C672 C671 1.524 . S
C673 C670 1.403 . S
C673 C674 1.392 . S
C673 C677 1.495 . S
C674 C673 1.392 . S
C674 C675 1.385 . S
C674 C676 1.478 . S
C675 H669 0.930 . S
C675 C671 1.400 . S
C675 C674 1.385 . S
C676 C674 1.478 . S
C676 C678 1.381 . S
C676 C682 1.383 . S
C677 C673 1.495 . S
C677 H683 0.959 . S
C677 H684 0.961 . S
C677 H685 0.960 . S
C678 C676 1.381 . S
C678 C679 1.394 . S
C678 H686 0.930 . S
C679 C678 1.394 . S
C679 C680 1.383 . S
C679 H687 0.929 . S
C680 C679 1.383 . S
C680 C681 1.377 . S
C681 H665 0.930 . S
C681 C680 1.377 . S
C681 C682 1.379 . S
C682 H666 0.931 . S
C682 C676 1.383 . S
C682 C681 1.379 . S
H683 C677 0.959 . S
H684 C677 0.961 . S
H685 C677 0.960 . S
H686 C678 0.930 . S
H687 C679 0.929 . S
H688 C696 0.929 . S
H689 C698 0.930 . S
H690 C700 0.930 . S
H691 C703 0.929 . S
H692 C706 0.930 . S
H693 C708 0.960 . S
H694 C708 0.960 . S
H695 C708 0.960 . S
C696 H688 0.929 . S
C696 C697 1.377 . S
C696 C698 1.384 . S
C697 C696 1.377 . S
C697 C703 1.390 . S
C698 H689 0.930 . S
C698 C696 1.384 . S
C698 C699 1.372 . S
C699 C698 1.372 . S
C699 C700 1.400 . S
C699 C704 1.490 . S
C700 H690 0.930 . S
C700 C699 1.400 . S
C700 C703 1.386 . S
H701 C717 0.930 . S
H702 C718 0.930 . S
C703 H691 0.929 . S
C703 C697 1.390 . S
C703 C700 1.386 . S
C704 C699 1.490 . S
C704 C706 1.395 . S
C704 C707 1.403 . S
H705 C711 0.930 . S
C706 H692 0.930 . S
C706 C704 1.395 . S
C706 C709 1.403 . S
C707 C704 1.403 . S
C707 C708 1.524 . S
C707 C711 1.400 . S
C708 H693 0.960 . S
C708 H694 0.960 . S
C708 H695 0.960 . S
C708 C707 1.524 . S
C709 C706 1.403 . S
C709 C710 1.392 . S
C709 C713 1.495 . S
C710 C709 1.392 . S
C710 C711 1.385 . S
C710 C712 1.478 . S
C711 H705 0.930 . S
C711 C707 1.400 . S
C711 C710 1.385 . S
C712 C710 1.478 . S
C712 C714 1.381 . S
C712 C718 1.384 1_545 S
C713 C709 1.495 . S
C713 H719 0.959 . S
C713 H720 0.961 . S
C713 H721 0.960 . S
C714 C712 1.381 . S
C714 C715 1.394 . S
C714 H722 0.930 . S
C715 C714 1.394 . S
C715 C716 1.383 1_545 S
C715 H723 0.929 . S
C716 C715 1.383 1_565 S
C716 C717 1.377 . S
C717 H701 0.930 . S
C717 C716 1.377 . S
C717 C718 1.379 . S
C718 H702 0.930 . S
C718 C712 1.384 1_565 S
C718 C717 1.379 . S
H719 C713 0.959 . S
H720 C713 0.961 . S
H721 C713 0.960 . S
H722 C714 0.930 . S
H723 C715 0.929 . S
H724 C732 0.929 . S
H725 C734 0.930 . S
H726 C736 0.930 . S
H727 C739 0.929 . S
H728 C742 0.930 . S
H729 C744 0.960 . S
H730 C744 0.960 . S
H731 C744 0.960 . S
C732 H724 0.929 . S
C732 C733 1.377 . S
C732 C734 1.384 . S
C733 C732 1.377 . S
C733 C739 1.390 . S
C734 H725 0.930 . S
C734 C732 1.384 . S
C734 C735 1.372 . S
C735 C734 1.372 . S
C735 C736 1.400 . S
C735 C740 1.490 . S
C736 H726 0.930 . S
C736 C735 1.400 . S
C736 C739 1.386 . S
H737 C753 0.930 . S
H738 C754 0.931 . S
C739 H727 0.929 . S
C739 C733 1.390 . S
C739 C736 1.386 . S
C740 C735 1.490 . S
C740 C742 1.395 . S
C740 C743 1.403 . S
H741 C747 0.930 . S
C742 H728 0.930 . S
C742 C740 1.395 . S
C742 C745 1.403 . S
C743 C740 1.403 . S
C743 C744 1.524 . S
C743 C747 1.400 . S
C744 H729 0.960 . S
C744 H730 0.960 . S
C744 H731 0.960 . S
C744 C743 1.524 . S
C745 C742 1.403 . S
C745 C746 1.392 . S
C745 C749 1.495 . S
C746 C745 1.392 . S
C746 C747 1.385 . S
C746 C748 1.478 . S
C747 H741 0.930 . S
C747 C743 1.400 . S
C747 C746 1.385 . S
C748 C746 1.478 . S
C748 C750 1.381 . S
C748 C754 1.383 . S
C749 C745 1.495 . S
C749 H755 0.959 . S
C749 H756 0.961 . S
C749 H757 0.960 . S
C750 C748 1.381 . S
C750 C751 1.394 . S
C750 H758 0.930 . S
C751 C750 1.394 . S
C751 C752 1.383 . S
C751 H759 0.929 . S
C752 C751 1.383 . S
C752 C753 1.377 . S
C753 H737 0.930 . S
C753 C752 1.377 . S
C753 C754 1.379 . S
C754 H738 0.931 . S
C754 C748 1.383 . S
C754 C753 1.379 . S
H755 C749 0.959 . S
H756 C749 0.961 . S
H757 C749 0.960 . S
H758 C750 0.930 . S
H759 C751 0.929 . S
H760 C768 0.929 . S
H761 C770 0.930 . S
H762 C772 0.930 . S
H763 C775 0.929 . S
H764 C778 0.930 . S
H765 C780 0.960 . S
H766 C780 0.960 . S
H767 C780 0.960 . S
C768 H760 0.929 . S
C768 C769 1.377 1_556 S
C768 C770 1.384 . S
C769 C768 1.377 1_554 S
C769 C775 1.390 . S
C770 H761 0.930 . S
C770 C768 1.384 . S
C770 C771 1.372 . S
C771 C770 1.372 . S
C771 C772 1.400 1_556 S
C771 C776 1.490 . S
C772 H762 0.930 . S
C772 C771 1.400 1_554 S
C772 C775 1.386 . S
H773 C789 0.930 . S
H774 C790 0.931 . S
C775 H763 0.929 . S
C775 C769 1.390 . S
C775 C772 1.386 . S
C776 C771 1.490 . S
C776 C778 1.395 . S
C776 C779 1.403 . S
H777 C783 0.930 . S
C778 H764 0.930 . S
C778 C776 1.395 . S
C778 C781 1.403 . S
C779 C776 1.403 . S
C779 C780 1.524 1_556 S
C779 C783 1.400 . S
C780 H765 0.960 . S
C780 H766 0.960 . S
C780 H767 0.960 . S
C780 C779 1.524 1_554 S
C781 C778 1.403 . S
C781 C782 1.392 . S
C781 C785 1.495 . S
C782 C781 1.392 . S
C782 C783 1.385 . S
C782 C784 1.478 1_565 S
C783 H777 0.930 . S
C783 C779 1.400 . S
C783 C782 1.385 . S
C784 C782 1.478 1_545 S
C784 C786 1.381 . S
C784 C790 1.383 . S
C785 C781 1.495 . S
C785 H791 0.959 . S
C785 H792 0.961 . S
C785 H793 0.960 . S
C786 C784 1.381 . S
C786 C787 1.394 . S
C786 H794 0.930 1_545 S
C787 C786 1.394 . S
C787 C788 1.383 . S
C787 H795 0.929 . S
C788 C787 1.383 . S
C788 C789 1.377 . S
C789 H773 0.930 . S
C789 C788 1.377 . S
C789 C790 1.379 . S
C790 H774 0.931 . S
C790 C784 1.383 . S
C790 C789 1.379 . S
H791 C785 0.959 . S
H792 C785 0.961 . S
H793 C785 0.960 . S
H794 C786 0.930 1_565 S
H795 C787 0.929 . S
H796 C804 0.929 . S
H797 C806 0.930 . S
H798 C808 0.930 . S
H799 C811 0.929 . S
H800 C814 0.930 . S
H801 C816 0.960 . S
H802 C816 0.960 . S
H803 C816 0.960 . S
C804 H796 0.929 . S
C804 C805 1.377 . S
C804 C806 1.384 . S
C805 C804 1.377 . S
C805 C811 1.390 . S
C806 H797 0.930 . S
C806 C804 1.384 . S
C806 C807 1.372 . S
C807 C806 1.372 . S
C807 C808 1.400 . S
C807 C812 1.490 . S
C808 H798 0.930 . S
C808 C807 1.400 . S
C808 C811 1.386 . S
H809 C825 0.930 . S
H810 C826 0.931 . S
C811 H799 0.929 . S
C811 C805 1.390 . S
C811 C808 1.386 . S
C812 C807 1.490 . S
C812 C814 1.395 . S
C812 C815 1.403 . S
H813 C819 0.930 . S
C814 H800 0.930 . S
C814 C812 1.395 . S
C814 C817 1.403 . S
C815 C812 1.403 . S
C815 C816 1.524 . S
C815 C819 1.400 . S
C816 H801 0.960 . S
C816 H802 0.960 . S
C816 H803 0.960 . S
C816 C815 1.524 . S
C817 C814 1.403 . S
C817 C818 1.392 . S
C817 C821 1.495 . S
C818 C817 1.392 . S
C818 C819 1.385 . S
C818 C820 1.478 . S
C819 H813 0.930 . S
C819 C815 1.400 . S
C819 C818 1.385 . S
C820 C818 1.478 . S
C820 C822 1.381 . S
C820 C826 1.383 . S
C821 C817 1.495 . S
C821 H827 0.959 . S
C821 H828 0.961 . S
C821 H829 0.960 . S
C822 C820 1.381 . S
C822 C823 1.394 . S
C822 H830 0.930 . S
C823 C822 1.394 . S
C823 C824 1.383 . S
C823 H831 0.929 . S
C824 C823 1.383 . S
C824 C825 1.377 . S
C825 H809 0.930 . S
C825 C824 1.377 . S
C825 C826 1.379 . S
C826 H810 0.931 . S
C826 C820 1.383 . S
C826 C825 1.379 . S
H827 C821 0.959 . S
H828 C821 0.961 . S
H829 C821 0.960 . S
H830 C822 0.930 . S
H831 C823 0.929 . S
H832 C840 0.929 . S
H833 C842 0.930 . S
H834 C844 0.930 . S
H835 C847 0.929 . S
H836 C850 0.930 . S
H837 C852 0.960 . S
H838 C852 0.960 . S
H839 C852 0.960 . S
C840 H832 0.929 . S
C840 C841 1.377 . S
C840 C842 1.384 . S
C841 C840 1.377 . S
C841 C847 1.390 . S
C842 H833 0.930 . S
C842 C840 1.384 . S
C842 C843 1.372 . S
C843 C842 1.372 . S
C843 C844 1.400 . S
C843 C848 1.490 . S
C844 H834 0.930 . S
C844 C843 1.400 . S
C844 C847 1.386 . S
H845 C861 0.930 . S
H846 C862 0.931 . S
C847 H835 0.929 . S
C847 C841 1.390 . S
C847 C844 1.386 . S
C848 C843 1.490 . S
C848 C850 1.395 . S
C848 C851 1.403 . S
H849 C855 0.930 . S
C850 H836 0.930 . S
C850 C848 1.395 . S
C850 C853 1.403 . S
C851 C848 1.403 . S
C851 C852 1.524 . S
C851 C855 1.400 . S
C852 H837 0.960 . S
C852 H838 0.960 . S
C852 H839 0.960 . S
C852 C851 1.524 . S
C853 C850 1.403 . S
C853 C854 1.392 . S
C853 C857 1.495 . S
C854 C853 1.392 . S
C854 C855 1.385 . S
C854 C856 1.478 . S
C855 H849 0.930 . S
C855 C851 1.400 . S
C855 C854 1.385 . S
C856 C854 1.478 . S
C856 C858 1.381 . S
C856 C862 1.383 . S
C857 C853 1.495 . S
C857 H863 0.959 . S
C857 H864 0.961 . S
C857 H865 0.960 . S
C858 C856 1.381 . S
C858 C859 1.394 . S
C858 H866 0.930 . S
C859 C858 1.394 . S
C859 C860 1.383 . S
C859 H867 0.929 . S
C860 C859 1.383 . S
C860 C861 1.377 . S
C861 H845 0.930 . S
C861 C860 1.377 . S
C861 C862 1.379 . S
C862 H846 0.931 . S
C862 C856 1.383 . S
C862 C861 1.379 . S
H863 C857 0.959 . S
H864 C857 0.961 . S
H865 C857 0.960 . S
H866 C858 0.930 . S
H867 C859 0.929 . S
H868 C876 0.929 . S
H869 C878 0.930 . S
H870 C880 0.930 . S
H871 C883 0.929 . S
H872 C886 0.930 . S
H873 C888 0.960 . S
H874 C888 0.960 1_455 S
H875 C888 0.973 . S
C876 H868 0.929 . S
C876 C877 1.377 . S
C876 C878 1.384 . S
C877 C876 1.377 . S
C877 C883 1.390 . S
C878 H869 0.930 . S
C878 C876 1.384 . S
C878 C879 1.372 . S
C879 C878 1.372 . S
C879 C880 1.400 . S
C879 C884 1.490 1_455 S
C880 H870 0.930 . S
C880 C879 1.400 . S
C880 C883 1.386 . S
H881 C897 0.930 . S
H882 C898 0.931 . S
C883 H871 0.929 . S
C883 C877 1.390 . S
C883 C880 1.386 . S
C884 C879 1.490 1_655 S
C884 C886 1.395 . S
C884 C887 1.403 . S
H885 C891 0.930 . S
C886 H872 0.930 . S
C886 C884 1.395 . S
C886 C889 1.403 . S
C887 C884 1.403 . S
C887 C888 1.524 . S
C887 C891 1.400 . S
C888 H873 0.960 . S
C888 H874 0.960 1_655 S
C888 H875 0.973 . S
C888 C887 1.524 . S
C889 C886 1.403 . S
C889 C890 1.392 . S
C889 C893 1.495 . S
C890 C889 1.392 . S
C890 C891 1.385 . S
C890 C892 1.478 . S
C891 H885 0.930 . S
C891 C887 1.400 . S
C891 C890 1.385 . S
C892 C890 1.478 . S
C892 C894 1.381 . S
C892 C898 1.383 . S
C893 C889 1.495 . S
C893 H899 0.959 . S
C893 H900 0.961 . S
C893 H901 0.960 . S
C894 C892 1.381 . S
C894 C895 1.394 . S
C894 H902 0.930 . S
C895 C894 1.394 . S
C895 C896 1.383 . S
C895 H903 0.929 . S
C896 C895 1.383 . S
C896 C897 1.377 . S
C897 H881 0.930 . S
C897 C896 1.377 . S
C897 C898 1.379 . S
C898 H882 0.931 . S
C898 C892 1.383 . S
C898 C897 1.379 . S
H899 C893 0.959 . S
H900 C893 0.961 . S
H901 C893 0.960 . S
H902 C894 0.930 . S
H903 C895 0.929 . S
H904 C912 0.929 . S
H905 C914 0.930 . S
H906 C916 0.930 . S
H907 C919 0.929 . S
H908 C922 0.930 . S
H909 C924 0.960 . S
H910 C924 0.960 . S
H911 C924 0.960 . S
C912 H904 0.929 . S
C912 C913 1.377 . S
C912 C914 1.384 . S
C913 C912 1.377 . S
C913 C919 1.390 . S
C914 H905 0.930 . S
C914 C912 1.384 . S
C914 C915 1.372 . S
C915 C914 1.372 . S
C915 C916 1.400 . S
C915 C920 1.490 . S
C916 H906 0.930 . S
C916 C915 1.400 . S
C916 C919 1.386 . S
H917 C933 0.930 . S
H918 C934 0.931 . S
C919 H907 0.929 . S
C919 C913 1.390 . S
C919 C916 1.386 . S
C920 C915 1.490 . S
C920 C922 1.395 . S
C920 C923 1.403 . S
H921 C927 0.930 . S
C922 H908 0.930 . S
C922 C920 1.395 . S
C922 C925 1.403 . S
C923 C920 1.403 . S
C923 C924 1.524 . S
C923 C927 1.400 . S
C924 H909 0.960 . S
C924 H910 0.960 . S
C924 H911 0.960 . S
C924 C923 1.524 . S
C925 C922 1.403 . S
C925 C926 1.392 . S
C925 C929 1.495 . S
C926 C925 1.392 . S
C926 C927 1.385 . S
C926 C928 1.478 . S
C927 H921 0.930 . S
C927 C923 1.400 . S
C927 C926 1.385 . S
C928 C926 1.478 . S
C928 C930 1.381 . S
C928 C934 1.383 . S
C929 C925 1.495 . S
C929 H935 0.959 . S
C929 H936 0.961 . S
C929 H937 0.960 . S
C930 C928 1.381 . S
C930 C931 1.394 . S
C930 H938 0.930 . S
C931 C930 1.394 . S
C931 C932 1.383 . S
C931 H939 0.929 . S
C932 C931 1.383 . S
C932 C933 1.377 . S
C933 H917 0.930 . S
C933 C932 1.377 . S
C933 C934 1.379 . S
C934 H918 0.931 . S
C934 C928 1.383 . S
C934 C933 1.379 . S
H935 C929 0.959 . S
H936 C929 0.961 . S
H937 C929 0.960 . S
H938 C930 0.930 . S
H939 C931 0.929 . S
H940 C948 0.929 . S
H941 C950 0.930 . S
H942 C952 0.930 . S
H943 C955 0.929 . S
H944 C958 0.930 . S
H945 C960 0.960 . S
H946 C960 0.960 . S
H947 C960 0.960 . S
C948 H940 0.929 . S
C948 C949 1.377 . S
C948 C950 1.384 . S
C949 C948 1.377 . S
C949 C955 1.390 . S
C950 H941 0.930 . S
C950 C948 1.384 . S
C950 C951 1.372 . S
C951 C950 1.372 . S
C951 C952 1.400 . S
C951 C956 1.490 . S
C952 H942 0.930 . S
C952 C951 1.400 . S
C952 C955 1.386 . S
H953 C969 0.930 . S
H954 C970 0.931 . S
C955 H943 0.929 . S
C955 C949 1.390 . S
C955 C952 1.386 . S
C956 C951 1.490 . S
C956 C958 1.395 . S
C956 C959 1.403 . S
H957 C963 0.930 . S
C958 H944 0.930 . S
C958 C956 1.395 . S
C958 C961 1.403 . S
C959 C956 1.403 . S
C959 C960 1.524 . S
C959 C963 1.400 . S
C960 H945 0.960 . S
C960 H946 0.960 . S
C960 H947 0.960 . S
C960 C959 1.524 . S
C961 C958 1.403 . S
C961 C962 1.392 . S
C961 C965 1.495 . S
C962 C961 1.392 . S
C962 C963 1.385 . S
C962 C964 1.478 . S
C963 H957 0.930 . S
C963 C959 1.400 . S
C963 C962 1.385 . S
C964 C962 1.478 . S
C964 C966 1.381 . S
C964 C970 1.383 . S
C965 C961 1.495 . S
C965 H971 0.959 . S
C965 H972 0.961 . S
C965 H973 0.960 . S
C966 C964 1.381 . S
C966 C967 1.394 . S
C966 H974 0.930 . S
C967 C966 1.394 . S
C967 C968 1.383 . S
C967 H975 0.929 . S
C968 C967 1.383 . S
C968 C969 1.377 . S
C969 H953 0.930 . S
C969 C968 1.377 . S
C969 C970 1.379 . S
C970 H954 0.931 . S
C970 C964 1.383 . S
C970 C969 1.379 . S
H971 C965 0.959 . S
H972 C965 0.961 . S
H973 C965 0.960 . S
H974 C966 0.930 . S
H975 C967 0.929 . S
H976 C984 0.929 . S
H977 C986 0.930 . S
H978 C988 0.930 . S
H979 C991 0.929 . S
H980 C994 0.930 . S
H981 C996 0.960 . S
H982 C996 0.960 . S
H983 C996 0.960 . S
C984 H976 0.929 . S
C984 C985 1.377 . S
C984 C986 1.384 . S
C985 C984 1.377 . S
C985 C991 1.390 . S
C986 H977 0.930 . S
C986 C984 1.384 . S
C986 C987 1.372 . S
C987 C986 1.372 . S
C987 C988 1.400 . S
C987 C992 1.490 . S
C988 H978 0.930 . S
C988 C987 1.400 . S
C988 C991 1.386 . S
H989 C1005 0.930 . S
H990 C1006 0.931 . S
C991 H979 0.929 . S
C991 C985 1.390 . S
C991 C988 1.386 . S
C992 C987 1.490 . S
C992 C994 1.395 . S
C992 C995 1.403 . S
H993 C999 0.930 . S
C994 H980 0.930 . S
C994 C992 1.395 . S
C994 C997 1.403 . S
C995 C992 1.403 . S
C995 C996 1.524 . S
C995 C999 1.400 . S
C996 H981 0.960 . S
C996 H982 0.960 . S
C996 H983 0.960 . S
C996 C995 1.524 . S
C997 C994 1.403 . S
C997 C998 1.392 . S
C997 C1001 1.495 . S
C998 C997 1.392 . S
C998 C999 1.385 . S
C998 C1000 1.478 . S
C999 H993 0.930 . S
C999 C995 1.400 . S
C999 C998 1.385 . S
C1000 C998 1.478 . S
C1000 C1002 1.381 . S
C1000 C1006 1.383 . S
C1001 C997 1.495 . S
C1001 H1007 0.959 . S
C1001 H1008 0.961 . S
C1001 H1009 0.960 . S
C1002 C1000 1.381 . S
C1002 C1003 1.394 . S
C1002 H1010 0.930 . S
C1003 C1002 1.394 . S
C1003 C1004 1.383 . S
C1003 H1011 0.929 . S
C1004 C1003 1.383 . S
C1004 C1005 1.377 . S
C1005 H989 0.930 . S
C1005 C1004 1.377 . S
C1005 C1006 1.379 . S
C1006 H990 0.931 . S
C1006 C1000 1.383 . S
C1006 C1005 1.379 . S
H1007 C1001 0.959 . S
H1008 C1001 0.961 . S
H1009 C1001 0.960 . S
H1010 C1002 0.930 . S
H1011 C1003 0.929 . S
H1012 C1020 0.929 . S
H1013 C1022 0.930 . S
H1014 C1024 0.930 . S
H1015 C1027 0.929 . S
H1016 C1030 0.930 . S
H1017 C1032 0.960 . S
H1018 C1032 0.960 . S
H1019 C1032 0.960 . S
C1020 H1012 0.929 . S
C1020 C1021 1.377 . S
C1020 C1022 1.384 . S
C1021 C1020 1.377 . S
C1021 C1027 1.390 . S
C1022 H1013 0.930 . S
C1022 C1020 1.384 . S
C1022 C1023 1.372 . S
C1023 C1022 1.372 . S
C1023 C1024 1.400 . S
C1023 C1028 1.490 . S
C1024 H1014 0.930 . S
C1024 C1023 1.400 . S
C1024 C1027 1.386 . S
H1025 C1041 0.930 . S
H1026 C1042 0.931 . S
C1027 H1015 0.929 . S
C1027 C1021 1.390 . S
C1027 C1024 1.386 . S
C1028 C1023 1.490 . S
C1028 C1030 1.395 . S
C1028 C1031 1.403 . S
H1029 C1035 0.930 . S
C1030 H1016 0.930 . S
C1030 C1028 1.395 . S
C1030 C1033 1.403 . S
C1031 C1028 1.403 . S
C1031 C1032 1.524 . S
C1031 C1035 1.400 . S
C1032 H1017 0.960 . S
C1032 H1018 0.960 . S
C1032 H1019 0.960 . S
C1032 C1031 1.524 . S
C1033 C1030 1.403 . S
C1033 C1034 1.392 . S
C1033 C1037 1.495 . S
C1034 C1033 1.392 . S
C1034 C1035 1.385 . S
C1034 C1036 1.478 . S
C1035 H1029 0.930 . S
C1035 C1031 1.400 . S
C1035 C1034 1.385 . S
C1036 C1034 1.478 . S
C1036 C1038 1.381 . S
C1036 C1042 1.383 . S
C1037 C1033 1.495 . S
C1037 H1043 0.959 . S
C1037 H1044 0.961 . S
C1037 H1045 0.960 . S
C1038 C1036 1.381 . S
C1038 C1039 1.394 . S
C1038 H1046 0.930 . S
C1039 C1038 1.394 . S
C1039 C1040 1.383 . S
C1039 H1047 0.929 . S
C1040 C1039 1.383 . S
C1040 C1041 1.377 . S
C1041 H1025 0.930 . S
C1041 C1040 1.377 . S
C1041 C1042 1.379 . S
C1042 H1026 0.931 . S
C1042 C1036 1.383 . S
C1042 C1041 1.379 . S
H1043 C1037 0.959 . S
H1044 C1037 0.961 . S
H1045 C1037 0.960 . S
H1046 C1038 0.930 . S
H1047 C1039 0.929 . S
H1048 C1056 0.929 . S
H1049 C1058 0.930 . S
H1050 C1060 0.930 . S
H1051 C1063 0.929 . S
H1052 C1066 0.930 . S
H1053 C1068 0.960 . S
H1054 C1068 0.960 . S
H1055 C1068 0.960 . S
C1056 H1048 0.929 . S
C1056 C1057 1.377 . S
C1056 C1058 1.384 . S
C1057 C1056 1.377 . S
C1057 C1063 1.390 . S
C1058 H1049 0.930 . S
C1058 C1056 1.384 . S
C1058 C1059 1.372 . S
C1059 C1058 1.372 . S
C1059 C1060 1.400 . S
C1059 C1064 1.490 . S
C1060 H1050 0.930 . S
C1060 C1059 1.400 . S
C1060 C1063 1.386 . S
H1061 C1077 0.930 . S
H1062 C1078 0.931 . S
C1063 H1051 0.929 . S
C1063 C1057 1.390 . S
C1063 C1060 1.386 . S
C1064 C1059 1.490 . S
C1064 C1066 1.395 . S
C1064 C1067 1.403 . S
H1065 C1071 0.930 . S
C1066 H1052 0.930 . S
C1066 C1064 1.395 . S
C1066 C1069 1.403 . S
C1067 C1064 1.403 . S
C1067 C1068 1.524 . S
C1067 C1071 1.400 . S
C1068 H1053 0.960 . S
C1068 H1054 0.960 . S
C1068 H1055 0.960 . S
C1068 C1067 1.524 . S
C1069 C1066 1.403 . S
C1069 C1070 1.392 . S
C1069 C1073 1.495 . S
C1070 C1069 1.392 . S
C1070 C1071 1.385 . S
C1070 C1072 1.478 . S
C1071 H1065 0.930 . S
C1071 C1067 1.400 . S
C1071 C1070 1.385 . S
C1072 C1070 1.478 . S
C1072 C1074 1.381 . S
C1072 C1078 1.383 . S
C1073 C1069 1.495 . S
C1073 H1079 0.959 . S
C1073 H1080 0.961 . S
C1073 H1081 0.960 . S
C1074 C1072 1.381 . S
C1074 C1075 1.394 . S
C1074 H1082 0.930 . S
C1075 C1074 1.394 . S
C1075 C1076 1.383 . S
C1075 H1083 0.929 . S
C1076 C1075 1.383 . S
C1076 C1077 1.377 . S
C1077 H1061 0.930 . S
C1077 C1076 1.377 . S
C1077 C1078 1.379 . S
C1078 H1062 0.931 . S
C1078 C1072 1.383 . S
C1078 C1077 1.379 . S
H1079 C1073 0.959 . S
H1080 C1073 0.961 . S
H1081 C1073 0.960 . S
H1082 C1074 0.930 . S
H1083 C1075 0.929 . S
H1084 C1092 0.929 . S
H1085 C1094 0.930 . S
H1086 C1096 0.930 . S
H1087 C1099 0.929 . S
H1088 C1102 0.930 . S
H1089 C1104 0.960 . S
H1090 C1104 0.960 . S
H1091 C1104 0.960 . S
C1092 H1084 0.929 . S
C1092 C1093 1.377 . S
C1092 C1094 1.384 . S
C1093 C1092 1.377 . S
C1093 C1099 1.390 . S
C1094 H1085 0.930 . S
C1094 C1092 1.384 . S
C1094 C1095 1.372 . S
C1095 C1094 1.372 . S
C1095 C1096 1.400 . S
C1095 C1100 1.490 . S
C1096 H1086 0.930 . S
C1096 C1095 1.400 . S
C1096 C1099 1.386 . S
H1097 C1113 0.930 . S
H1098 C1114 0.931 . S
C1099 H1087 0.929 . S
C1099 C1093 1.390 . S
C1099 C1096 1.386 . S
C1100 C1095 1.490 . S
C1100 C1102 1.395 . S
C1100 C1103 1.403 . S
H1101 C1107 0.930 . S
C1102 H1088 0.930 . S
C1102 C1100 1.395 . S
C1102 C1105 1.403 . S
C1103 C1100 1.403 . S
C1103 C1104 1.524 . S
C1103 C1107 1.400 . S
C1104 H1089 0.960 . S
C1104 H1090 0.960 . S
C1104 H1091 0.960 . S
C1104 C1103 1.524 . S
C1105 C1102 1.403 . S
C1105 C1106 1.392 . S
C1105 C1109 1.495 . S
C1106 C1105 1.392 . S
C1106 C1107 1.385 . S
C1106 C1108 1.478 . S
C1107 H1101 0.930 . S
C1107 C1103 1.400 . S
C1107 C1106 1.385 . S
C1108 C1106 1.478 . S
C1108 C1110 1.381 . S
C1108 C1114 1.383 . S
C1109 C1105 1.495 . S
C1109 H1115 0.959 . S
C1109 H1116 0.961 . S
C1109 H1117 0.960 . S
C1110 C1108 1.381 . S
C1110 C1111 1.394 . S
C1110 H1118 0.930 . S
C1111 C1110 1.394 . S
C1111 C1112 1.383 . S
C1111 H1119 0.929 . S
C1112 C1111 1.383 . S
C1112 C1113 1.377 . S
C1113 H1097 0.930 . S
C1113 C1112 1.377 . S
C1113 C1114 1.379 . S
C1114 H1098 0.931 . S
C1114 C1108 1.383 . S
C1114 C1113 1.379 . S
H1115 C1109 0.959 . S
H1116 C1109 0.961 . S
H1117 C1109 0.960 . S
H1118 C1110 0.930 . S
H1119 C1111 0.929 . S
H1120 C1128 0.929 . S
H1121 C1130 0.930 . S
H1122 C1132 0.930 . S
H1123 C1135 0.929 . S
H1124 C1138 0.930 . S
H1125 C1140 0.960 . S
H1126 C1140 0.960 . S
H1127 C1140 0.960 . S
C1128 H1120 0.929 . S
C1128 C1129 1.377 . S
C1128 C1130 1.384 . S
C1129 C1128 1.377 . S
C1129 C1135 1.390 . S
C1130 H1121 0.930 . S
C1130 C1128 1.384 . S
C1130 C1131 1.372 . S
C1131 C1130 1.372 . S
C1131 C1132 1.400 . S
C1131 C1136 1.490 . S
C1132 H1122 0.930 . S
C1132 C1131 1.400 . S
C1132 C1135 1.386 . S
H1133 C1149 0.930 . S
H1134 C1150 0.931 . S
C1135 H1123 0.929 . S
C1135 C1129 1.390 . S
C1135 C1132 1.386 . S
C1136 C1131 1.490 . S
C1136 C1138 1.395 . S
C1136 C1139 1.403 . S
H1137 C1143 0.930 . S
C1138 H1124 0.930 . S
C1138 C1136 1.395 . S
C1138 C1141 1.403 . S
C1139 C1136 1.403 . S
C1139 C1140 1.524 . S
C1139 C1143 1.400 . S
C1140 H1125 0.960 . S
C1140 H1126 0.960 . S
C1140 H1127 0.960 . S
C1140 C1139 1.524 . S
C1141 C1138 1.403 . S
C1141 C1142 1.392 . S
C1141 C1145 1.495 . S
C1142 C1141 1.392 . S
C1142 C1143 1.385 . S
C1142 C1144 1.478 . S
C1143 H1137 0.930 . S
C1143 C1139 1.400 . S
C1143 C1142 1.385 . S
C1144 C1142 1.478 . S
C1144 C1146 1.381 . S
C1144 C1150 1.383 . S
C1145 C1141 1.495 . S
C1145 H1151 0.959 . S
C1145 H1152 0.961 . S
C1145 H1153 0.960 . S
C1146 C1144 1.381 . S
C1146 C1147 1.394 . S
C1146 H1154 0.930 . S
C1147 C1146 1.394 . S
C1147 C1148 1.383 . S
C1147 H1155 0.929 . S
C1148 C1147 1.383 . S
C1148 C1149 1.377 . S
C1149 H1133 0.930 . S
C1149 C1148 1.377 . S
C1149 C1150 1.379 . S
C1150 H1134 0.931 . S
C1150 C1144 1.383 . S
C1150 C1149 1.379 . S
H1151 C1145 0.959 . S
H1152 C1145 0.961 . S
H1153 C1145 0.960 . S
H1154 C1146 0.930 . S
H1155 C1147 0.929 . S
H1156 C1164 0.929 . S
H1157 C1166 0.930 . S
H1158 C1168 0.930 . S
H1159 C1171 0.929 . S
H1160 C1174 0.930 . S
H1161 C1176 0.960 . S
H1162 C1176 0.960 . S
H1163 C1176 0.960 . S
C1164 H1156 0.929 . S
C1164 C1165 1.377 . S
C1164 C1166 1.384 . S
C1165 C1164 1.377 . S
C1165 C1171 1.390 . S
C1166 H1157 0.930 . S
C1166 C1164 1.384 . S
C1166 C1167 1.372 . S
C1167 C1166 1.372 . S
C1167 C1168 1.400 . S
C1167 C1172 1.490 . S
C1168 H1158 0.930 . S
C1168 C1167 1.400 . S
C1168 C1171 1.386 . S
H1169 C1185 0.930 . S
H1170 C1186 0.931 . S
C1171 H1159 0.929 . S
C1171 C1165 1.390 . S
C1171 C1168 1.386 . S
C1172 C1167 1.490 . S
C1172 C1174 1.395 . S
C1172 C1175 1.403 . S
H1173 C1179 0.930 . S
C1174 H1160 0.930 . S
C1174 C1172 1.395 . S
C1174 C1177 1.403 . S
C1175 C1172 1.403 . S
C1175 C1176 1.524 . S
C1175 C1179 1.400 . S
C1176 H1161 0.960 . S
C1176 H1162 0.960 . S
C1176 H1163 0.960 . S
C1176 C1175 1.524 . S
C1177 C1174 1.403 . S
C1177 C1178 1.392 . S
C1177 C1181 1.495 . S
C1178 C1177 1.392 . S
C1178 C1179 1.385 . S
C1178 C1180 1.478 . S
C1179 H1173 0.930 . S
C1179 C1175 1.400 . S
C1179 C1178 1.385 . S
C1180 C1178 1.478 . S
C1180 C1182 1.381 . S
C1180 C1186 1.383 . S
C1181 C1177 1.495 . S
C1181 H1187 0.959 . S
C1181 H1188 0.961 . S
C1181 H1189 0.960 . S
C1182 C1180 1.381 . S
C1182 C1183 1.394 . S
C1182 H1190 0.930 . S
C1183 C1182 1.394 . S
C1183 C1184 1.383 . S
C1183 H1191 0.929 . S
C1184 C1183 1.383 . S
C1184 C1185 1.377 . S
C1185 H1169 0.930 . S
C1185 C1184 1.377 . S
C1185 C1186 1.379 . S
C1186 H1170 0.931 . S
C1186 C1180 1.383 . S
C1186 C1185 1.379 . S
H1187 C1181 0.959 . S
H1188 C1181 0.961 . S
H1189 C1181 0.960 . S
H1190 C1182 0.930 . S
H1191 C1183 0.929 . S
H1192 C1200 0.929 . S
H1193 C1202 0.930 . S
H1194 C1204 0.930 . S
H1195 C1207 0.929 . S
H1196 C1210 0.930 . S
H1197 C1212 0.960 . S
H1198 C1212 0.960 . S
H1199 C1212 0.960 . S
C1200 H1192 0.929 . S
C1200 C1201 1.377 . S
C1200 C1202 1.384 . S
C1201 C1200 1.377 . S
C1201 C1207 1.390 . S
C1202 H1193 0.930 . S
C1202 C1200 1.384 . S
C1202 C1203 1.372 . S
C1203 C1202 1.372 . S
C1203 C1204 1.400 . S
C1203 C1208 1.490 . S
C1204 H1194 0.930 . S
C1204 C1203 1.400 . S
C1204 C1207 1.386 . S
H1205 C1221 0.930 . S
H1206 C1222 0.931 . S
C1207 H1195 0.929 . S
C1207 C1201 1.390 . S
C1207 C1204 1.386 . S
C1208 C1203 1.490 . S
C1208 C1210 1.395 . S
C1208 C1211 1.403 . S
H1209 C1215 0.930 . S
C1210 H1196 0.930 . S
C1210 C1208 1.395 . S
C1210 C1213 1.403 . S
C1211 C1208 1.403 . S
C1211 C1212 1.524 . S
C1211 C1215 1.400 . S
C1212 H1197 0.960 . S
C1212 H1198 0.960 . S
C1212 H1199 0.960 . S
C1212 C1211 1.524 . S
C1213 C1210 1.403 . S
C1213 C1214 1.392 . S
C1213 C1217 1.495 . S
C1214 C1213 1.392 . S
C1214 C1215 1.385 . S
C1214 C1216 1.478 . S
C1215 H1209 0.930 . S
C1215 C1211 1.400 . S
C1215 C1214 1.385 . S
C1216 C1214 1.478 . S
C1216 C1218 1.381 . S
C1216 C1222 1.383 . S
C1217 C1213 1.495 . S
C1217 H1223 0.959 . S
C1217 H1224 0.961 . S
C1217 H1225 0.960 . S
C1218 C1216 1.381 . S
C1218 C1219 1.394 . S
C1218 H1226 0.930 . S
C1219 C1218 1.394 . S
C1219 C1220 1.383 . S
C1219 H1227 0.929 . S
C1220 C1219 1.383 . S
C1220 C1221 1.377 . S
C1221 H1205 0.930 . S
C1221 C1220 1.377 . S
C1221 C1222 1.379 . S
C1222 H1206 0.931 . S
C1222 C1216 1.383 . S
C1222 C1221 1.379 . S
H1223 C1217 0.959 . S
H1224 C1217 0.961 . S
H1225 C1217 0.960 . S
H1226 C1218 0.930 . S
H1227 C1219 0.929 . S
H1228 C1236 0.929 . S
H1229 C1238 0.930 . S
H1230 C1240 0.930 . S
H1231 C1243 0.929 . S
H1232 C1246 0.930 . S
H1233 C1248 0.960 . S
H1234 C1248 0.960 . S
H1235 C1248 0.960 . S
C1236 H1228 0.929 . S
C1236 C1237 1.377 1_556 S
C1236 C1238 1.384 . S
C1237 C1236 1.377 1_554 S
C1237 C1243 1.390 . S
C1238 H1229 0.930 . S
C1238 C1236 1.384 . S
C1238 C1239 1.372 . S
C1239 C1238 1.372 . S
C1239 C1240 1.400 1_556 S
C1239 C1244 1.490 . S
C1240 H1230 0.930 . S
C1240 C1239 1.400 1_554 S
C1240 C1243 1.386 . S
H1241 C1257 0.930 . S
H1242 C1258 0.931 . S
C1243 H1231 0.929 . S
C1243 C1237 1.390 . S
C1243 C1240 1.386 . S
C1244 C1239 1.490 . S
C1244 C1246 1.395 . S
C1244 C1247 1.403 . S
H1245 C1251 0.930 . S
C1246 H1232 0.930 . S
C1246 C1244 1.395 . S
C1246 C1249 1.403 . S
C1247 C1244 1.403 . S
C1247 C1248 1.524 . S
C1247 C1251 1.400 . S
C1248 H1233 0.960 . S
C1248 H1234 0.960 . S
C1248 H1235 0.960 . S
C1248 C1247 1.524 . S
C1249 C1246 1.403 . S
C1249 C1250 1.392 . S
C1249 C1253 1.495 . S
C1250 C1249 1.392 . S
C1250 C1251 1.385 . S
C1250 C1252 1.478 . S
C1251 H1245 0.930 . S
C1251 C1247 1.400 . S
C1251 C1250 1.385 . S
C1252 C1250 1.478 . S
C1252 C1254 1.381 . S
C1252 C1258 1.383 . S
C1253 C1249 1.495 . S
C1253 H1259 0.959 . S
C1253 H1260 0.961 . S
C1253 H1261 0.960 . S
C1254 C1252 1.381 . S
C1254 C1255 1.394 . S
C1254 H1262 0.930 . S
C1255 C1254 1.394 . S
C1255 C1256 1.383 . S
C1255 H1263 0.929 . S
C1256 C1255 1.383 . S
C1256 C1257 1.377 . S
C1257 H1241 0.930 . S
C1257 C1256 1.377 . S
C1257 C1258 1.379 . S
C1258 H1242 0.931 . S
C1258 C1252 1.383 . S
C1258 C1257 1.379 . S
H1259 C1253 0.959 . S
H1260 C1253 0.961 . S
H1261 C1253 0.960 . S
H1262 C1254 0.930 . S
H1263 C1255 0.929 . S
C409 C8 1.485 . S
C428 C104 1.470 . S
C445 C31 1.328 . S
C464 C143 1.239 . S
C481 C53 1.665 . S
C500 C182 1.613 . S
C536 C206 1.327 . S
C517 C74 1.348 . S
C572 C245 1.463 . S
C553 C26 1.479 . S
C589 C48 1.356 . S
C608 C284 1.345 . S
C625 C71 1.647 . S
C644 C338 1.546 . S
C661 C5 1.352 . S
C680 C362 1.234 . S
C697 C50 1.489 . S
C716 C377 1.437 . S
C752 C260 1.227 . S
C733 C70 1.332 . S
C788 C299 1.575 . S
C769 C4 1.661 . S
C805 C28 1.357 . S
C824 C323 1.330 . S
C860 C128 1.425 . S
C841 C73 1.484 . S
C877 C7 1.359 . S
C896 C167 1.332 . S
C932 C221 1.597 . S
C913 C30 1.647 . S
C968 C89 1.263 . S
C949 C52 1.327 . S
C1004 C343 1.379 . S
C985 C9 1.435 . S
C1040 C382 1.298 . S
C1021 C29 1.299 . S
C1057 C51 1.289 . S
C1076 C265 1.306 . S
C1112 C304 1.396 . S
C1093 C75 1.444 . S
C1148 C187 1.427 . S
C1129 C27 1.444 . S
C1165 C49 1.434 . S
C1184 C226 1.395 . S
C1220 C109 1.264 . S
C1201 C72 1.299 . S
C1256 C148 1.294 . S
C1237 C6 1.294 . S
