# Generated by pormake.
# Topology zzz, (3,6)-cn, num edge types: 1
# Building blocks:
#     Node 0, Type 0, BuildingBlock: BETDAH_clean_linker_0, # of connection points: 3
#     Node 1, Type 0, BuildingBlock: BETDAH_clean_linker_0, # of connection points: 3
#     Node 2, Type 0, BuildingBlock: BETDAH_clean_linker_0, # of connection points: 3
#     Node 3, Type 0, BuildingBlock: BETDAH_clean_linker_0, # of connection points: 3
#     Node 4, Type 0, BuildingBlock: BETDAH_clean_linker_0, # of connection points: 3
#     Node 5, Type 0, BuildingBlock: BETDAH_clean_linker_0, # of connection points: 3
#     Node 6, Type 0, BuildingBlock: BETDAH_clean_linker_0, # of connection points: 3
#     Node 7, Type 0, BuildingBlock: BETDAH_clean_linker_0, # of connection points: 3
#     Node 8, Type 1, BuildingBlock: KUMJIN_clean_sbu_0, # of connection points: 6
#     Node 9, Type 1, BuildingBlock: KUMJIN_clean_sbu_0, # of connection points: 6
#     Node 10, Type 1, BuildingBlock: KUMJIN_clean_sbu_0, # of connection points: 6
#     Node 11, Type 1, BuildingBlock: KUMJIN_clean_sbu_0, # of connection points: 6
#     Edge 12, Type (0, 1), BuildingBlock: AJUNOK_clean_linker_0, # of connection points: 2
#     Edge 13, Type (0, 1), BuildingBlock: AJUNOK_clean_linker_0, # of connection points: 2
#     Edge 14, Type (0, 1), BuildingBlock: AJUNOK_clean_linker_0, # of connection points: 2
#     Edge 15, Type (0, 1), BuildingBlock: AJUNOK_clean_linker_0, # of connection points: 2
#     Edge 16, Type (0, 1), BuildingBlock: AJUNOK_clean_linker_0, # of connection points: 2
#     Edge 17, Type (0, 1), BuildingBlock: AJUNOK_clean_linker_0, # of connection points: 2
#     Edge 18, Type (0, 1), BuildingBlock: AJUNOK_clean_linker_0, # of connection points: 2
#     Edge 19, Type (0, 1), BuildingBlock: AJUNOK_clean_linker_0, # of connection points: 2
#     Edge 20, Type (0, 1), BuildingBlock: AJUNOK_clean_linker_0, # of connection points: 2
#     Edge 21, Type (0, 1), BuildingBlock: AJUNOK_clean_linker_0, # of connection points: 2
#     Edge 22, Type (0, 1), BuildingBlock: AJUNOK_clean_linker_0, # of connection points: 2
#     Edge 23, Type (0, 1), BuildingBlock: AJUNOK_clean_linker_0, # of connection points: 2
#     Edge 24, Type (0, 1), BuildingBlock: AJUNOK_clean_linker_0, # of connection points: 2
#     Edge 25, Type (0, 1), BuildingBlock: AJUNOK_clean_linker_0, # of connection points: 2
#     Edge 26, Type (0, 1), BuildingBlock: AJUNOK_clean_linker_0, # of connection points: 2
#     Edge 27, Type (0, 1), BuildingBlock: AJUNOK_clean_linker_0, # of connection points: 2
#     Edge 28, Type (0, 1), BuildingBlock: AJUNOK_clean_linker_0, # of connection points: 2
#     Edge 29, Type (0, 1), BuildingBlock: AJUNOK_clean_linker_0, # of connection points: 2
#     Edge 30, Type (0, 1), BuildingBlock: AJUNOK_clean_linker_0, # of connection points: 2
#     Edge 31, Type (0, 1), BuildingBlock: AJUNOK_clean_linker_0, # of connection points: 2
#     Edge 32, Type (0, 1), BuildingBlock: AJUNOK_clean_linker_0, # of connection points: 2
#     Edge 33, Type (0, 1), BuildingBlock: AJUNOK_clean_linker_0, # of connection points: 2
#     Edge 34, Type (0, 1), BuildingBlock: AJUNOK_clean_linker_0, # of connection points: 2
#     Edge 35, Type (0, 1), BuildingBlock: AJUNOK_clean_linker_0, # of connection points: 2
# Relax obj value: 0.232
# Max RMSD: 0.183
# Mean RMSD: 0.120
data_MOF--net-zzz--node1-KUMJIN_clean_sbu_0--node2-BETDAH_clean_linker_0--edge1-AJUNOK_clean_linker_0
_symmetry_space_group_name_H-M    P1
_symmetry_Int_Tables_number       1
_symmetry_cell_setting            triclinic
loop_
_symmetry_equiv_pos_as_xyz
'x, y, z'
_cell_length_a     37.169414
_cell_length_b     37.18841
_cell_length_c     11.095979
_cell_angle_alpha  91.929827
_cell_angle_beta   89.78289
_cell_angle_gamma 90.040953
loop_
_atom_site_label
_atom_site_type_symbol
_atom_site_fract_x
_atom_site_fract_y
_atom_site_fract_z
_atom_type_partial_charge
H0 H 0.84471 0.60164 0.28246 0.0
H1 H 0.7389 0.58558 0.14322 0.0
H2 H 0.77055 0.53521 0.47236 0.0
C3 C 0.81823 0.59074 0.29441 0.0
C4 C 0.81222 0.5685 0.39228 0.0
C5 C 0.79251 0.59645 0.20398 0.0
C6 C 0.75827 0.58141 0.214 0.0
C7 C 0.74966 0.55933 0.30983 0.0
C8 C 0.77695 0.55259 0.39901 0.0
N9 N 0.71451 0.54275 0.31453 0.0
C10 C 0.6862 0.54559 0.229 0.0
H11 H 0.10008 0.84793 0.35379 0.0
H12 H 0.07623 0.74864 0.16322 0.0
H13 H 0.9962 0.79906 0.39838 0.0
C14 C 0.0816 0.82578 0.33682 0.0
C15 C 0.04722 0.82805 0.38829 0.0
C16 C 0.09193 0.79781 0.25551 0.0
C17 C 0.06821 0.76939 0.22879 0.0
C18 C 0.03374 0.76864 0.2807 0.0
C19 C 0.02314 0.79846 0.36099 0.0
N20 N 1.00922 0.73949 0.24822 0.0
C21 C 1.01599 0.70862 0.17086 0.0
H22 H 0.69597 0.02343 0.25606 0.0
H23 H 0.80832 1.01604 0.17932 0.0
H24 H 0.7721 0.03003 0.54912 0.0
C25 C 0.72322 0.02154 0.2901 0.0
C26 C 0.72919 0.0253 0.41485 0.0
C27 C 0.75191 1.01884 0.20749 0.0
C28 C 0.78716 1.0177 0.24673 0.0
C29 C 0.79556 0.0221 0.36838 0.0
C30 C 0.7662 0.02574 0.45427 0.0
N31 N 0.83312 0.02504 0.40111 0.0
C32 C 0.86225 0.02506 0.31667 0.0
H33 H 0.58597 0.71017 0.32845 0.0
H34 H 0.56986 0.81637 0.19442 0.0
H35 H 0.51456 0.78385 0.5123 0.0
C36 C 0.57449 0.73677 0.33575 0.0
C37 C 0.55076 0.74359 0.43284 0.0
C38 C 0.58053 0.76171 0.24383 0.0
C39 C 0.56494 0.7961 0.25897 0.0
C40 C 0.54082 0.80449 0.35319 0.0
C41 C 0.53352 0.77786 0.44005 0.0
N42 N 0.52266 0.83879 0.35804 0.0
C43 C 0.52509 0.86564 0.27043 0.0
H44 H 0.20342 0.46096 0.17424 0.0
H45 H 0.30596 0.48322 0.334 0.0
H46 H 0.26956 0.54451 0.03326 0.0
C47 C 0.22858 0.47541 0.17272 0.0
C48 C 0.23284 0.50225 0.08769 0.0
C49 C 0.25424 0.46912 0.26302 0.0
C50 C 0.28651 0.48833 0.26437 0.0
C51 C 0.29261 0.51576 0.1834 0.0
C52 C 0.26536 0.52303 0.09524 0.0
N53 N 0.32507 0.53697 0.1932 0.0
C54 C 0.35331 0.53283 0.27783 0.0
H55 H 0.98944 0.19155 0.19218 0.0
H56 H 1.00239 0.29847 0.33866 0.0
H57 H 0.05347 0.26765 0.99872 0.0
C58 C 1.00031 0.21832 0.18118 0.0
C59 C 0.02101 0.22548 0.07861 0.0
C60 C 0.99305 0.24459 0.27146 0.0
C61 C 1.00817 0.27887 0.26673 0.0
C62 C 0.03043 0.28794 0.17035 0.0
C63 C 0.03686 0.26091 0.07507 0.0
N64 N 0.046 0.3237 0.16823 0.0
C65 C 0.04068 0.353 0.25344 0.0
H66 H 0.36081 0.98819 0.14194 0.0
H67 H 0.25649 1.00629 0.29335 0.0
H68 H 0.28725 0.0592 0.96611 0.0
C69 C 0.33474 1.00101 0.13432 0.0
C70 C 0.32798 0.02322 0.03727 0.0
C71 C 0.30884 0.99448 0.22278 0.0
C72 C 0.27571 1.01177 0.22263 0.0
C73 C 0.26722 0.03563 0.13228 0.0
C74 C 0.29363 0.04137 0.03809 0.0
N75 N 0.23247 0.05322 0.13537 0.0
C76 C 0.20503 0.0493 0.22451 0.0
H77 H 0.43953 0.35756 0.15418 0.0
H78 H 0.45319 0.25341 0.30012 0.0
H79 H 0.51461 0.2837 0.98782 0.0
C80 C 0.45138 0.33109 0.1479 0.0
C81 C 0.47746 0.32464 0.05836 0.0
C82 C 0.4438 0.30641 0.23853 0.0
C83 C 0.45916 0.27212 0.23035 0.0
C84 C 0.48434 0.26306 0.13994 0.0
C85 C 0.49419 0.2899 0.05514 0.0
N86 N 0.5013 0.22815 0.13779 0.0
C87 C 0.49485 0.20015 0.21923 0.0
Eu88 Eu 0.06646 1.01833 0.85991 0.0
C89 C 0.96825 0.9588 0.51836 0.0
C90 C 0.98432 0.9604 0.30685 0.0
C91 C 0.9517 0.90907 0.38086 0.0
C92 C 0.98367 0.97664 0.42379 0.0
C93 C 0.95209 0.92474 0.49771 0.0
C94 C 0.96804 0.92674 0.28576 0.0
C95 C 0.94047 0.92251 0.71115 0.0
N96 N 0.97097 0.97365 0.63149 0.0
C97 C 0.95753 0.9558 0.72754 0.0
C98 C 0.93768 0.90689 0.5957 0.0
Eu99 Eu 0.99684 0.03232 0.64886 0.0
N100 N 0.9993 1.00918 0.44651 0.0
C101 C 1.01302 0.02818 0.35347 0.0
C102 C 1.00245 0.97796 0.21539 0.0
C103 C 1.01705 1.01194 0.23973 0.0
H104 H 0.96081 0.96638 0.81776 0.0
H105 H 0.03161 0.02585 0.17205 0.0
H106 H 0.9683 0.91398 0.19651 0.0
H107 H 0.93012 0.90859 0.78808 0.0
H108 H 0.02295 0.05532 0.36889 0.0
H109 H 0.04806 0.12857 0.19229 0.0
H110 H 1.00507 0.96566 0.12589 0.0
H111 H 0.14479 0.98602 0.7397 0.0
H112 H 0.02983 0.07725 0.06161 0.0
H113 H 0.20835 1.00396 0.7267 0.0
H114 H 0.93958 0.8829 0.36365 0.0
H115 H 0.11 0.1524 0.1791 0.0
H116 H 0.17162 0.1477 0.08847 0.0
H117 H 0.9251 0.88073 0.58357 0.0
H118 H 0.21477 0.11462 0.95839 0.0
N119 N 0.08058 0.07111 0.97605 0.0
C120 C 0.05694 0.08675 0.05625 0.0
C121 C 0.10213 0.12951 0.12219 0.0
C122 C 0.12661 0.11298 0.04183 0.0
C123 C 0.06722 0.11609 0.13024 0.0
C124 C 0.11504 0.08317 0.96962 0.0
H125 H 0.22879 0.06095 0.82476 0.0
N126 N 0.1283 0.03391 0.83599 0.0
C127 C 0.1892 0.02139 0.77347 0.0
C128 C 0.13949 0.06427 0.89688 0.0
C129 C 0.15303 1.01141 0.78055 0.0
C130 C 0.20061 0.05359 0.82886 0.0
C131 C 0.17592 0.07504 0.89391 0.0
O132 O 0.08865 1.01 0.03929 0.0
O133 O 0.02798 0.98853 0.73257 0.0
O134 O 0.96652 0.03075 0.82977 0.0
O135 O 1.01212 0.02123 0.96732 0.0
O136 O 0.08108 0.97249 0.72472 0.0
O137 O 0.0706 0.96437 0.93305 0.0
O138 O 0.93926 0.04213 0.67586 0.0
O139 O 0.02594 0.05961 0.80591 0.0
O140 O 0.09479 0.04173 0.69553 0.0
O141 O 0.05186 0.03287 0.5468 0.0
O142 O 0.02054 0.08945 0.6562 0.0
O143 O 0.96715 0.06622 0.52797 0.0
C144 C 0.04969 0.96626 0.67966 0.0
C145 C 0.12463 0.95743 0.04058 0.0
C146 C 0.15908 0.90164 0.04994 0.0
C147 C 0.12598 0.9199 0.04306 0.0
C148 C 0.19118 0.92153 0.05294 0.0
C149 C 0.15703 0.97699 0.04687 0.0
C150 C 0.19005 0.95908 0.05151 0.0
C151 C 0.9774 0.02594 0.94164 0.0
C152 C 0.08942 0.97527 0.02552 0.0
C153 C 0.18696 0.10588 0.96029 0.0
C154 C 0.16241 0.12469 0.03452 0.0
C155 C 0.03253 0.09077 0.76549 0.0
C156 C 0.91852 0.09898 0.61686 0.0
C157 C 0.93352 0.13157 0.58183 0.0
C158 C 0.9145 0.16387 0.59782 0.0
C159 C 0.88037 0.16381 0.65178 0.0
C160 C 0.8845 0.09917 0.67248 0.0
C161 C 0.86569 0.13152 0.69071 0.0
C162 C 0.08554 0.03971 0.58052 0.0
C163 C 0.93726 0.06473 0.58927 0.0
H164 H 0.10092 0.90492 0.04266 0.0
H165 H 0.21695 0.90814 0.05864 0.0
H166 H 0.157 1.00606 0.04766 0.0
H167 H 0.21482 0.97437 0.0552 0.0
H168 H 0.95942 0.13184 0.53653 0.0
H169 H 0.86502 0.18848 0.66196 0.0
H170 H 0.87227 0.07429 0.70004 0.0
H171 H 0.83933 0.13143 0.73248 0.0
Eu172 Eu 0.53282 0.06491 0.82872 0.0
C173 C 0.59123 0.95291 0.50625 0.0
C174 C 0.60921 0.98056 0.321 0.0
C175 C 0.64047 0.92744 0.38451 0.0
C176 C 0.58591 0.97896 0.42237 0.0
C177 C 0.61906 0.92718 0.48865 0.0
C178 C 0.63582 0.95435 0.30162 0.0
C179 C 0.60572 0.90484 0.68434 0.0
N180 N 0.57182 0.95489 0.61044 0.0
C181 C 0.57878 0.93078 0.69836 0.0
C182 C 0.62584 0.90287 0.57878 0.0
Eu183 Eu 0.52018 0.99399 0.61395 0.0
N184 N 0.56191 1.00569 0.44927 0.0
C185 C 0.56456 0.03679 0.38671 0.0
C186 C 0.60726 1.01008 0.24724 0.0
C187 C 0.58565 0.03891 0.28275 0.0
H188 H 0.56244 0.92933 0.77725 0.0
H189 H 0.58667 0.06361 0.23395 0.0
H190 H 0.6541 0.95564 0.22558 0.0
H191 H 0.61044 0.88588 0.75447 0.0
H192 H 0.55388 0.06155 0.42153 0.0
H193 H 0.4325 0.03008 0.17374 0.0
H194 H 0.62459 1.01223 0.169 0.0
H195 H 0.55006 0.14576 0.71488 0.0
H196 H 0.48114 1.01857 0.03167 0.0
H197 H 0.52865 0.2084 0.73723 0.0
H198 H 0.66181 0.90793 0.36997 0.0
H199 H 0.40472 0.09025 0.19162 0.0
H200 H 0.40267 0.15371 0.12655 0.0
H201 H 0.64686 0.88281 0.56844 0.0
H202 H 0.42831 0.20195 1.00724 0.0
N203 N 0.48286 0.07175 0.96506 0.0
C204 C 0.47044 0.04519 0.03707 0.0
C205 C 0.42656 0.08544 0.12817 0.0
C206 C 0.4393 0.11279 0.05605 0.0
C207 C 0.44224 0.05153 0.11862 0.0
C208 C 0.46792 0.10518 0.97458 0.0
H209 H 0.47605 0.22284 0.86683 0.0
N210 N 0.51001 0.12471 0.83089 0.0
C211 C 0.51511 0.18728 0.78457 0.0
C212 C 0.48189 0.13234 0.90581 0.0
C213 C 0.52706 0.15176 0.77188 0.0
C214 C 0.48541 0.19529 0.85765 0.0
C215 C 0.46838 0.16778 0.91921 0.0
O216 O 0.5581 0.10762 0.94059 0.0
O217 O 0.56429 0.02613 0.70437 0.0
O218 O 0.51615 0.96955 0.80252 0.0
O219 O 0.53702 1.01339 0.93882 0.0
O220 O 0.57415 0.08021 0.68639 0.0
O221 O 0.57841 0.05383 0.94511 0.0
O222 O 0.50819 0.93723 0.62527 0.0
O223 O 0.49248 0.02355 0.77044 0.0
O224 O 0.50903 0.08975 0.65772 0.0
O225 O 0.50147 0.04388 0.51095 0.0
O226 O 0.46146 1.01364 0.62173 0.0
O227 O 0.49116 0.96489 0.46809 0.0
C228 C 0.58519 0.04848 0.65402 0.0
C229 C 0.62069 0.09943 0.9163 0.0
C230 C 0.68113 0.0807 0.85696 0.0
C231 C 0.64957 0.0759 0.9243 0.0
C232 C 0.68427 0.11066 0.7842 0.0
C233 C 0.62432 0.12984 0.84495 0.0
C234 C 0.65594 0.13527 0.77908 0.0
C235 C 0.52793 0.97952 0.91154 0.0
C236 C 0.58561 0.08777 0.96373 0.0
C237 C 0.43919 0.17498 0.99674 0.0
C238 C 0.42467 0.14755 0.06492 0.0
C239 C 0.46078 0.02824 0.7294 0.0
C240 C 0.45674 0.91446 0.53395 0.0
C241 C 0.42383 0.92997 0.5053 0.0
C242 C 0.39174 0.91049 0.51685 0.0
C243 C 0.39256 0.87543 0.55939 0.0
C244 C 0.45739 0.87926 0.5764 0.0
C245 C 0.4254 0.85998 0.58975 0.0
C246 C 0.49967 0.07854 0.54703 0.0
C247 C 0.49055 0.93473 0.52526 0.0
H248 H 0.64718 0.05349 0.98394 0.0
H249 H 0.7088 0.11541 0.73417 0.0
H250 H 0.60253 0.14884 0.83723 0.0
H251 H 0.6584 0.15849 0.72338 0.0
H252 H 0.42318 0.95689 0.4707 0.0
H253 H 0.36801 0.85996 0.56707 0.0
H254 H 0.48264 0.86679 0.5998 0.0
H255 H 0.42613 0.83288 0.62234 0.0
Eu256 Eu 0.55521 0.52151 0.66084 0.0
C257 C 0.40828 0.51212 0.92674 0.0
C258 C 0.36241 0.53026 0.78617 0.0
C259 C 0.34755 0.48786 0.94022 0.0
C260 C 0.39844 0.53103 0.82647 0.0
C261 C 0.38261 0.49096 0.98606 0.0
C262 C 0.33735 0.50776 0.84122 0.0
C263 C 0.42623 0.4818 0.14226 0.0
N264 N 0.44218 0.51629 0.97108 0.0
C265 C 0.45088 0.50283 0.08048 0.0
C266 C 0.39234 0.47501 0.09329 0.0
Eu267 Eu 0.48223 0.55136 0.85568 0.0
N268 N 0.42331 0.55228 0.7739 0.0
C269 C 0.41301 0.57606 0.68924 0.0
C270 C 0.35234 0.55297 0.69416 0.0
C271 C 0.37759 0.57653 0.64736 0.0
H272 H 0.47684 0.5079 0.12038 0.0
H273 H 0.3699 0.59488 0.5783 0.0
H274 H 0.30978 0.50632 0.81006 0.0
H275 H 0.43296 0.47168 0.22935 0.0
H276 H 0.43221 0.5945 0.65283 0.0
H277 H 0.66099 0.46593 0.94078 0.0
H278 H 0.32496 0.55317 0.66092 0.0
H279 H 0.5651 0.57382 0.42052 0.0
H280 H 0.60035 0.47092 0.8557 0.0
H281 H 0.61146 0.61167 0.32816 0.0
H282 H 0.32769 0.4713 0.98381 0.0
H283 H 0.70928 0.50699 0.87656 0.0
H284 H 0.7294 0.55556 0.73972 0.0
H285 H 0.37311 0.45925 0.1425 0.0
H286 H 0.71591 0.59518 0.57269 0.0
N287 N 0.61318 0.51502 0.74698 0.0
C288 C 0.62092 0.48892 0.8264 0.0
C289 C 0.68257 0.50925 0.83874 0.0
C290 C 0.67521 0.53427 0.75085 0.0
C291 C 0.65543 0.486 0.87496 0.0
C292 C 0.63989 0.5362 0.70495 0.0
H293 H 0.67219 0.61593 0.41779 0.0
N294 N 0.59888 0.55738 0.56325 0.0
C295 C 0.61768 0.59697 0.40803 0.0
C296 C 0.63245 0.55823 0.61053 0.0
C297 C 0.59153 0.57536 0.46041 0.0
C298 C 0.65187 0.5994 0.45913 0.0
C299 C 0.65986 0.57938 0.56017 0.0
O300 O 0.57117 0.49886 0.48577 0.0
O301 O 0.49492 0.52657 0.67376 0.0
O302 O 0.48039 0.48963 0.85471 0.0
O303 O 0.53898 0.47625 0.79293 0.0
O304 O 0.51698 0.536 0.50836 0.0
O305 O 0.55841 0.46326 0.63044 0.0
O306 O 0.49592 0.591 0.99887 0.0
O307 O 0.54268 0.54804 0.8381 0.0
O308 O 0.55598 0.58338 0.67376 0.0
O309 O 0.49599 0.59434 0.71584 0.0
O310 O 0.52183 0.53693 1.00481 0.0
O311 O 0.44612 0.59595 0.90315 0.0
C312 C 0.48701 0.53421 0.56593 0.0
C313 C 0.53635 0.44828 0.435 0.0
C314 C 0.48034 0.41525 0.40219 0.0
C315 C 0.50691 0.42905 0.48076 0.0
C316 C 0.48325 0.4218 0.27817 0.0
C317 C 0.5391 0.45322 0.31088 0.0
C318 C 0.51234 0.44074 0.23324 0.0
C319 C 0.50744 0.46645 0.84064 0.0
C320 C 0.56287 0.4662 0.51455 0.0
C321 C 0.69457 0.57897 0.60964 0.0
C322 C 0.70225 0.55641 0.70474 0.0
C323 C 0.55146 0.53956 0.94429 0.0
C324 C 0.47828 0.64926 0.94002 0.0
C325 C 0.51422 0.66055 0.92961 0.0
C326 C 0.52291 0.69658 0.90551 0.0
C327 C 0.49414 0.71994 0.87905 0.0
C328 C 0.45053 0.67321 0.91431 0.0
C329 C 0.45854 0.70808 0.88141 0.0
C330 C 0.52785 0.60538 0.67649 0.0
C331 C 0.46943 0.61213 0.9723 0.0
H332 H 0.50489 0.42415 0.5763 0.0
H333 H 0.46377 0.41116 0.21444 0.0
H334 H 0.56184 0.46738 0.27505 0.0
H335 H 0.51441 0.44541 0.13788 0.0
H336 H 0.53517 0.64111 0.94373 0.0
H337 H 0.49816 0.74806 0.86279 0.0
H338 H 0.42264 0.66485 0.91904 0.0
H339 H 0.43694 0.72649 0.8619 0.0
Eu340 Eu 0.0416 0.56236 0.62004 0.0
C341 C 0.03745 0.414 0.85017 0.0
C342 C 1.00827 0.37572 0.69941 0.0
C343 C 0.05164 0.35005 0.83489 0.0
C344 C 1.01408 0.41008 0.75455 0.0
C345 C 0.05588 0.38385 0.89326 0.0
C346 C 0.02777 0.34597 0.73823 0.0
C347 C 0.0773 0.42138 0.05894 0.0
N348 N 0.0405 0.44684 0.90595 0.0
C349 C 0.05856 0.45045 1.01298 0.0
C350 C 0.0769 0.38823 0.99676 0.0
Eu351 Eu 1.00929 0.49577 0.82031 0.0
N352 N 0.9959 0.43949 0.71854 0.0
C353 C 0.96961 0.43552 0.63311 0.0
C354 C 0.98249 0.37209 0.60859 0.0
C355 C 0.9627 0.40205 0.57667 0.0
H356 H 0.05897 0.47619 0.06124 0.0
H357 H 0.9425 0.39957 0.50687 0.0
H358 H 0.02398 0.31955 0.6959 0.0
H359 H 0.09176 0.42426 0.14281 0.0
H360 H 0.95499 0.45818 0.60229 0.0
H361 H 0.10551 0.66861 0.90361 0.0
H362 H 0.97733 0.34625 0.56385 0.0
H363 H 0.99702 0.57494 0.36318 0.0
H364 H 0.09797 0.6082 0.81634 0.0
H365 H 0.96584 0.62371 0.25899 0.0
H366 H 0.06582 0.3267 0.86617 0.0
H367 H 0.06674 0.71819 0.83861 0.0
H368 H 0.01993 0.7398 0.69635 0.0
H369 H 0.09171 0.36587 0.03214 0.0
H370 H 0.98157 0.72747 0.51969 0.0
N371 N 0.05339 0.62139 0.70498 0.0
C372 C 0.08024 0.62875 0.78636 0.0
C373 C 0.06295 0.69131 0.79992 0.0
C374 C 0.03761 0.6845 0.7094 0.0
C375 C 0.08493 0.66345 0.83644 0.0
C376 C 0.03367 0.6489 0.66233 0.0
H377 H 0.96163 0.68427 0.3548 0.0
N378 N 1.01155 0.60823 0.51483 0.0
C379 C 0.97779 0.62889 0.34638 0.0
C380 C 1.01209 0.64208 0.56369 0.0
C381 C 0.99581 0.60156 0.40504 0.0
C382 C 0.97578 0.66322 0.40028 0.0
C383 C 0.9938 0.67045 0.50872 0.0
O384 O 0.06362 0.56643 0.43877 0.0
O385 O 0.0366 0.50209 0.64258 0.0
O386 O 0.07115 0.49328 0.8286 0.0
O387 O 0.086 0.54962 0.76109 0.0
O388 O 0.02153 0.52065 0.47855 0.0
O389 O 0.09972 0.5628 0.58979 0.0
O390 O 0.99178 0.48875 1.00521 0.0
O391 O 1.01422 0.5559 0.79705 0.0
O392 O 0.97956 0.56706 0.61335 0.0
O393 O 0.96164 0.51387 0.69945 0.0
O394 O 0.02743 0.53812 0.96388 0.0
O395 O 0.95242 0.48831 0.8618 0.0
C396 C 0.02617 0.49181 0.53752 0.0
C397 C 0.1123 0.52698 0.41391 0.0
C398 C 0.14556 0.47021 0.42195 0.0
C399 C 0.13055 0.50098 0.48025 0.0
C400 C 0.13841 0.46452 0.29755 0.0
C401 C 0.10762 0.52126 0.28965 0.0
C402 C 0.12058 0.49025 0.23224 0.0
C403 C 0.09471 0.51985 0.81788 0.0
C404 C 0.09607 0.55909 0.4733 0.0
C405 C 0.99569 0.70542 0.55998 0.0
C406 C 1.01754 0.71243 0.66047 0.0
C407 C 0.02404 0.56671 0.9023 0.0
C408 C 0.93907 0.52087 0.04298 0.0
C409 C 0.9195 0.54691 0.98128 0.0
C410 C 0.90387 0.57628 0.04456 0.0
C411 C 0.91111 0.58068 0.16907 0.0
C412 C 0.94358 0.52471 0.16791 0.0
C413 C 0.93002 0.5547 0.23016 0.0
C414 C 0.95411 0.54307 0.63756 0.0
C415 C 0.95795 0.4916 0.97772 0.0
H416 H 0.13374 0.50513 0.57647 0.0
H417 H 0.14856 0.44133 0.24698 0.0
H418 H 0.09327 0.54042 0.23701 0.0
H419 H 0.11763 0.48652 0.13584 0.0
H420 H 0.9158 0.54404 0.88476 0.0
H421 H 0.90096 0.60344 0.22161 0.0
H422 H 0.95859 0.50504 0.2167 0.0
H423 H 0.93396 0.55768 0.32635 0.0
C424 C 0.15931 1.01403 0.34435 0.0
C425 C 0.17472 0.04727 0.31343 0.0
C426 C 0.13019 1.01189 0.42782 0.0
C427 C 0.11504 0.04284 0.48572 0.0
H428 H 0.16999 0.98929 0.30445 0.0
H429 H 0.1199 0.98559 0.44893 0.0
S430 S 0.14515 0.13647 0.43784 0.0
N431 N 0.17184 0.11196 0.34837 0.0
N432 N 0.1183 0.10786 0.50511 0.0
C433 C 0.13028 0.07615 0.45588 0.0
C434 C 0.15963 0.07836 0.37009 0.0
C435 C 0.50412 0.13454 0.25893 0.0
C436 C 0.49136 0.16869 0.29779 0.0
C437 C 0.50296 0.10449 0.3345 0.0
C438 C 0.49145 0.10757 0.45639 0.0
H439 H 0.5154 0.13094 0.16921 0.0
H440 H 0.51223 0.07903 0.29675 0.0
S441 S 0.44475 0.18809 0.58858 0.0
N442 N 0.45887 0.20139 0.45606 0.0
N443 N 0.45867 0.14613 0.59963 0.0
C444 C 0.47568 0.1409 0.49201 0.0
C445 C 0.47553 0.1711 0.4132 0.0
C446 C 0.41395 0.55704 0.33595 0.0
C447 C 0.38585 0.53245 0.35573 0.0
C448 C 0.44584 0.55737 0.40548 0.0
C449 C 0.45134 0.53344 0.50002 0.0
H450 H 0.41146 0.57618 0.26495 0.0
H451 H 0.46649 0.57686 0.38518 0.0
S452 S 0.38706 0.46227 0.58665 0.0
N453 N 0.36625 0.48267 0.47647 0.0
N454 N 0.42633 0.48266 0.6038 0.0
C455 C 0.42387 0.50797 0.51891 0.0
C456 C 0.39114 0.50777 0.44828 0.0
C457 C 1.01228 0.41379 0.3004 0.0
C458 C 0.03708 0.38685 0.3305 0.0
C459 C 1.00926 0.44684 0.36816 0.0
C460 C 0.03048 0.45507 0.47135 0.0
H461 H 0.99508 0.40949 0.22264 0.0
H462 H 0.98956 0.46616 0.34005 0.0
S463 S 0.10202 0.3952 0.58399 0.0
N464 N 0.08496 0.37188 0.46827 0.0
N465 N 0.0794 0.43346 0.59377 0.0
C466 C 0.05608 0.42867 0.50084 0.0
C467 C 0.05924 0.3949 0.43142 0.0
C468 C 0.89691 0.99654 0.14096 0.0
C469 C 0.8921 0.02531 0.22584 0.0
C470 C 0.92441 0.99685 0.05125 0.0
C471 C 0.94897 0.02578 0.0418 0.0
H472 H 0.87904 0.97356 0.1431 0.0
H473 H 0.9264 0.97393 0.98908 0.0
S474 S 0.94787 0.10821 0.24151 0.0
N475 N 0.91441 0.08381 0.29346 0.0
N476 N 0.96542 0.08447 0.1273 0.0
C477 C 0.94437 0.05466 0.12683 0.0
C478 C 0.9163 0.05438 0.21783 0.0
C479 C 0.49513 0.91424 0.15312 0.0
C480 C 0.52633 0.89476 0.18221 0.0
C481 C 0.49585 0.94174 0.06721 0.0
C482 C 0.52802 0.95184 1.00886 0.0
H483 H 0.46977 0.90787 0.19586 0.0
H484 H 0.47087 0.95501 0.04579 0.0
S485 S 0.6165 0.90745 0.04694 0.0
N486 N 0.58971 0.88618 0.13974 0.0
N487 N 0.59173 0.93887 0.98592 0.0
C488 C 0.55938 0.9327 0.03852 0.0
C489 C 0.55839 0.90405 0.12313 0.0
C490 C 0.62709 0.51799 0.16678 0.0
C491 C 0.65356 0.54461 0.15079 0.0
C492 C 0.59524 0.51645 0.09674 0.0
C493 C 0.58786 0.54115 1.00642 0.0
H494 H 0.63089 0.49809 0.23469 0.0
H495 H 0.5761 0.49523 0.11144 0.0
S496 S 0.64777 0.61697 0.92859 0.0
N497 N 0.66981 0.59685 0.03661 0.0
N498 N 0.61005 0.59406 0.90736 0.0
C499 C 0.61405 0.56808 0.98925 0.0
C500 C 0.64671 0.56971 0.06063 0.0
C501 C 0.99476 0.66437 1.00377 0.0
C502 C 1.0193 0.67408 0.09709 0.0
C503 C 0.99678 0.6306 0.93793 0.0
C504 C 0.02333 0.60454 0.96246 0.0
H505 H 0.97345 0.68287 0.98203 0.0
H506 H 0.97687 0.62459 0.86914 0.0
S507 S 0.09492 0.61705 0.19361 0.0
N508 N 0.07152 0.65469 0.20655 0.0
N509 N 0.0752 0.59223 0.08661 0.0
C510 C 0.04787 0.6142 0.0555 0.0
C511 C 0.04601 0.64853 0.12106 0.0
C512 C 0.93373 0.22447 0.3462 0.0
C513 C 0.9693 0.23497 0.37165 0.0
C514 C 0.91369 0.20527 0.42937 0.0
C515 C 0.92891 0.1957 0.5393 0.0
H516 H 0.92246 0.2286 0.25779 0.0
H517 H 0.88768 0.19464 0.40223 0.0
S518 S 1.01897 0.22144 0.65479 0.0
N519 N 1.01726 0.23856 0.51942 0.0
N520 N 0.97968 0.20173 0.6755 0.0
C521 C 0.9631 0.20908 0.5703 0.0
C522 C 0.98336 0.22895 0.48617 0.0
C523 C 0.32837 0.98248 0.43033 0.0
C524 C 0.31762 0.96913 0.31639 0.0
C525 C 0.34878 0.96107 0.5055 0.0
C526 C 0.3588 0.92597 0.46785 0.0
H527 H 0.32416 1.01054 0.45601 0.0
H528 H 0.35994 0.97321 0.58736 0.0
S529 S 0.33107 0.87717 0.18696 0.0
N530 N 0.31328 0.91764 0.17711 0.0
N531 N 0.35191 0.87723 0.31822 0.0
C532 C 0.34429 0.91108 0.36086 0.0
C533 C 0.32365 0.93287 0.28454 0.0
C534 C 0.45588 0.32229 0.44778 0.0
C535 C 0.42962 0.32078 0.35651 0.0
C536 C 0.46931 0.3559 0.48709 0.0
C537 C 0.45456 0.38751 0.44138 0.0
H538 H 0.47216 0.29885 0.46474 0.0
H539 H 0.49487 0.35662 0.53372 0.0
S540 S 0.36731 0.39356 0.28332 0.0
N541 N 0.37571 0.35 0.28711 0.0
N542 N 0.40105 0.41383 0.35448 0.0
C543 C 0.42019 0.38491 0.38904 0.0
C544 C 0.40648 0.35047 0.35275 0.0
C545 C 0.22025 0.41929 0.35463 0.0
C546 C 0.24255 0.44971 0.37129 0.0
C547 C 0.18706 0.41803 0.41569 0.0
C548 C 0.17513 0.4493 0.47968 0.0
H549 H 0.22482 0.40065 0.27899 0.0
H550 H 0.16765 0.39806 0.38473 0.0
S551 S 0.23693 0.51406 0.63273 0.0
N552 N 0.2608 0.49556 0.52105 0.0
N553 N 0.19739 0.49377 0.62815 0.0
C554 C 0.20271 0.46989 0.53454 0.0
C555 C 0.23698 0.47069 0.47741 0.0
C556 C 0.11668 0.81199 0.05767 0.0
C557 C 0.12373 0.80442 0.17859 0.0
C558 C 0.13389 0.84088 1.0039 0.0
C559 C 0.15844 0.86248 0.07013 0.0
H560 H 0.09355 0.80018 1.01223 0.0
H561 H 0.12382 0.84968 0.91823 0.0
S562 S 0.19747 0.842 0.36671 0.0
N563 N 0.16591 0.81124 0.34406 0.0
N564 N 0.19762 0.86649 0.24525 0.0
C565 C 0.1718 0.8494 0.17851 0.0
C566 C 0.15469 0.81956 0.23197 0.0
C567 C 0.75773 0.06012 0.04 0.0
C568 C 0.74579 0.02677 0.08111 0.0
C569 C 0.74127 0.07546 0.94143 0.0
C570 C 0.71218 0.05793 0.88473 0.0
H571 H 0.77643 0.07638 0.09309 0.0
H572 H 0.74712 0.10339 0.92427 0.0
S573 S 0.68251 0.96419 0.92844 0.0
N574 N 0.71196 0.97229 0.03704 0.0
N575 N 0.68125 1.00096 0.84942 0.0
C576 C 0.70627 0.02141 0.90809 0.0
C577 C 0.72251 1.00602 1.00952 0.0
C578 C 0.60177 0.7118 0.10347 0.0
C579 C 0.59546 0.74895 0.12234 0.0
C580 C 0.5824 0.69271 0.01427 0.0
C581 C 0.55979 0.71121 0.93484 0.0
H582 H 0.61606 0.69647 0.16918 0.0
H583 H 0.58232 0.66382 0.01935 0.0
S584 S 0.57533 0.80681 0.8643 0.0
N585 N 0.59306 0.80233 0.99935 0.0
N586 N 0.55926 0.76678 0.82363 0.0
C587 C 0.56819 0.74779 0.92162 0.0
C588 C 0.58634 0.76698 0.01669 0.0
C589 C 0.83142 0.63786 0.0923 0.0
C590 C 0.80546 0.61019 0.08711 0.0
C591 C 0.86588 0.63124 0.04409 0.0
C592 C 0.87381 0.59708 0.99151 0.0
H593 H 0.82824 0.66012 0.15698 0.0
H594 H 0.88759 0.64901 0.0726 0.0
S595 S 0.80574 0.53315 0.86762 0.0
N596 N 0.78308 0.56056 0.96027 0.0
N597 N 0.84764 0.54798 0.86935 0.0
C598 C 0.84436 0.57727 0.94512 0.0
C599 C 0.80947 0.58412 0.99365 0.0
C600 C 0.05702 0.18264 0.93016 0.0
C601 C 0.02396 0.19461 0.98168 0.0
C602 C 0.05979 0.14979 0.8589 0.0
C603 C 0.03002 0.12634 0.83926 0.0
H604 H 0.08125 0.198 0.94855 0.0
H605 H 0.08582 0.14209 0.82241 0.0
S606 S 0.93612 0.14807 0.92908 0.0
N607 N 0.95957 0.18239 0.98507 0.0
N608 N 0.96562 0.12076 0.86265 0.0
C609 C 0.99672 0.13909 0.88352 0.0
C610 C 0.99356 0.17283 0.95165 0.0
C611 C 0.37257 0.05785 0.90044 0.0
C612 C 0.35807 0.02511 0.94104 0.0
C613 C 0.40518 0.05901 0.83111 0.0
C614 C 0.42588 0.02773 0.80298 0.0
H615 H 0.35944 0.08295 0.9261 0.0
H616 H 0.41474 0.08482 0.80192 0.0
S617 S 0.39692 0.93463 0.86413 0.0
N618 N 0.36488 0.95994 0.92597 0.0
N619 N 0.42616 0.96278 0.80663 0.0
C620 C 0.41051 0.99491 0.83608 0.0
C621 C 0.37698 0.99349 0.90227 0.0
C622 C 0.45975 0.37915 0.93673 0.0
C623 C 0.48733 0.35671 0.98053 0.0
C624 C 0.46666 0.41361 0.89059 0.0
C625 C 0.50177 0.42795 0.88248 0.0
H626 H 0.43196 0.37059 0.94289 0.0
H627 H 0.44391 0.42945 0.86259 0.0
S628 S 0.58437 0.38064 0.98019 0.0
N629 N 0.55174 0.35205 1.01004 0.0
N630 N 0.56487 0.41555 0.91951 0.0
C631 C 0.52989 0.40518 0.92017 0.0
C632 C 0.52272 0.37014 0.96956 0.0
C633 C 0.18426 0.54205 0.99012 0.0
C634 C 0.20124 0.50821 1.00076 0.0
C635 C 0.15082 0.54597 0.92829 0.0
C636 C 0.13206 0.51623 0.87492 0.0
H637 H 0.19605 0.56557 0.03455 0.0
H638 H 0.13888 0.57246 0.92695 0.0
S639 S 0.1664 0.42239 0.86281 0.0
N640 N 0.1975 0.44492 0.93977 0.0
N641 N 0.1354 0.45215 0.82935 0.0
C642 C 0.14947 0.48263 0.881 0.0
C643 C 0.18359 0.47872 0.94178 0.0
C644 C 0.0492 0.89684 0.41107 0.0
C645 C 0.03893 0.86348 0.46025 0.0
C646 C 0.05139 0.92953 0.48091 0.0
C647 C 0.04178 0.93186 0.604 0.0
H648 H 0.05751 0.89744 0.31746 0.0
H649 H 0.06115 0.95333 0.43768 0.0
S650 S 1.01395 0.85343 0.78196 0.0
N651 N 0.01987 0.83572 0.64462 0.0
N652 N 0.02268 0.89688 0.77363 0.0
C653 C 0.03076 0.89909 0.65473 0.0
C654 C 0.02919 0.86537 0.58371 0.0
C655 C 0.6792 1.0065 0.56433 0.0
C656 C 0.69573 0.03301 0.49378 0.0
C657 C 0.64412 1.01132 0.61668 0.0
C658 C 0.62296 0.04235 0.59869 0.0
H659 H 0.69306 0.98131 0.57686 0.0
H660 H 0.6335 0.99037 0.67181 0.0
S661 S 0.65322 0.12009 0.42166 0.0
N662 N 0.68745 0.09189 0.41122 0.0
N663 N 0.62273 0.10049 0.5058 0.0
C664 C 0.6396 0.06917 0.53007 0.0
C665 C 0.67521 0.0645 0.47825 0.0
C666 C 0.57221 0.69136 0.55743 0.0
C667 C 0.54332 0.71253 0.51648 0.0
C668 C 0.56685 0.65778 0.61129 0.0
C669 C 0.53222 0.64309 0.62816 0.0
H670 H 0.59962 0.70026 0.5435 0.0
H671 H 0.59038 0.64284 0.63774 0.0
S672 S 0.44681 0.68849 0.54761 0.0
N673 N 0.47831 0.71672 0.50455 0.0
N674 N 0.46816 0.65439 0.60656 0.0
C675 C 0.50292 0.66485 0.59407 0.0
C676 C 0.50844 0.69918 0.53862 0.0
C677 C 0.87093 0.58947 0.49734 0.0
C678 C 0.84489 0.56187 0.47589 0.0
C679 C 0.905 0.58328 0.55074 0.0
C680 C 0.91555 0.54918 0.59052 0.0
H681 H 0.86549 0.61651 0.46923 0.0
H682 H 0.92354 0.60569 0.5591 0.0
S683 S 0.85604 0.46835 0.57829 0.0
N684 N 0.83184 0.49922 0.5122 0.0
N685 N 0.89404 0.48824 0.61903 0.0
C686 C 0.88873 0.52193 0.57965 0.0
C687 C 0.85415 0.52806 0.52182 0.0
loop_
_geom_bond_atom_site_label_1
_geom_bond_atom_site_label_2
_geom_bond_distance
_geom_bond_site_symmetry_2
_ccdc_geom_bond_type
H0 C3 0.929 . S
H1 C6 0.929 . S
H2 C8 0.930 . S
C3 H0 0.929 . S
C3 C4 1.398 . S
C3 C5 1.396 . S
C4 C3 1.398 . S
C4 C8 1.407 . S
C5 C3 1.396 . S
C5 C6 1.394 . S
C6 H1 0.929 . S
C6 C5 1.394 . S
C6 C7 1.382 . S
C7 C6 1.382 . S
C7 C8 1.392 . S
C7 N9 1.420 . S
C8 H2 0.930 . S
C8 C4 1.407 . S
C8 C7 1.392 . S
N9 C7 1.420 . S
N9 C10 1.244 . S
C10 N9 1.244 . S
H11 C14 0.929 . S
H12 C17 0.929 . S
H13 C19 0.930 . S
C14 H11 0.929 . S
C14 C15 1.398 . S
C14 C16 1.396 . S
C15 C14 1.398 . S
C15 C19 1.407 . S
C16 C14 1.396 . S
C16 C17 1.394 . S
C17 H12 0.929 . S
C17 C16 1.394 . S
C17 C18 1.382 . S
C18 C17 1.382 . S
C18 C19 1.392 . S
C18 N20 1.420 . S
C19 H13 0.930 . S
C19 C15 1.407 . S
C19 C18 1.392 . S
N20 C18 1.420 . S
N20 C21 1.244 . S
C21 N20 1.244 . S
H22 C25 0.929 . S
H23 C28 0.929 . S
H24 C30 0.930 . S
C25 H22 0.929 . S
C25 C26 1.398 . S
C25 C27 1.396 . S
C26 C25 1.398 . S
C26 C30 1.407 . S
C27 C25 1.396 . S
C27 C28 1.394 . S
C28 H23 0.929 . S
C28 C27 1.394 . S
C28 C29 1.382 . S
C29 C28 1.382 . S
C29 C30 1.392 . S
C29 N31 1.420 . S
C30 H24 0.930 . S
C30 C26 1.407 . S
C30 C29 1.392 . S
N31 C29 1.420 . S
N31 C32 1.244 . S
C32 N31 1.244 . S
H33 C36 0.929 . S
H34 C39 0.929 . S
H35 C41 0.930 . S
C36 H33 0.929 . S
C36 C37 1.398 . S
C36 C38 1.396 . S
C37 C36 1.398 . S
C37 C41 1.407 . S
C38 C36 1.396 . S
C38 C39 1.394 . S
C39 H34 0.929 . S
C39 C38 1.394 . S
C39 C40 1.382 . S
C40 C39 1.382 . S
C40 C41 1.392 . S
C40 N42 1.420 . S
C41 H35 0.930 . S
C41 C37 1.407 . S
C41 C40 1.392 . S
N42 C40 1.420 . S
N42 C43 1.244 . S
C43 N42 1.244 . S
H44 C47 0.929 . S
H45 C50 0.929 . S
H46 C52 0.930 . S
C47 H44 0.929 . S
C47 C48 1.398 . S
C47 C49 1.396 1_556 S
C48 C47 1.398 . S
C48 C52 1.407 . S
C49 C47 1.396 1_554 S
C49 C50 1.394 . S
C50 H45 0.929 . S
C50 C49 1.394 . S
C50 C51 1.382 . S
C51 C50 1.382 . S
C51 C52 1.392 1_554 S
C51 N53 1.420 . S
C52 H46 0.930 . S
C52 C48 1.407 . S
C52 C51 1.392 1_556 S
N53 C51 1.420 . S
N53 C54 1.244 . S
C54 N53 1.244 . S
H55 C58 0.929 . S
H56 C61 0.929 . S
H57 C63 0.930 . S
C58 H55 0.929 . S
C58 C59 1.398 . S
C58 C60 1.396 1_556 S
C59 C58 1.398 . S
C59 C63 1.407 . S
C60 C58 1.396 1_554 S
C60 C61 1.394 . S
C61 H56 0.929 . S
C61 C60 1.394 . S
C61 C62 1.382 . S
C62 C61 1.382 . S
C62 C63 1.392 1_554 S
C62 N64 1.420 . S
C63 H57 0.930 . S
C63 C59 1.407 . S
C63 C62 1.392 1_556 S
N64 C62 1.420 . S
N64 C65 1.244 . S
C65 N64 1.244 . S
H66 C69 0.929 . S
H67 C72 0.929 . S
H68 C74 0.930 . S
C69 H66 0.929 . S
C69 C70 1.398 . S
C69 C71 1.396 1_556 S
C70 C69 1.398 . S
C70 C74 1.407 . S
C71 C69 1.396 1_554 S
C71 C72 1.394 . S
C72 H67 0.929 . S
C72 C71 1.394 . S
C72 C73 1.382 . S
C73 C72 1.382 . S
C73 C74 1.392 1_554 S
C73 N75 1.420 . S
C74 H68 0.930 . S
C74 C70 1.407 . S
C74 C73 1.392 1_556 S
N75 C73 1.420 . S
N75 C76 1.244 . S
C76 N75 1.244 . S
H77 C80 0.929 . S
H78 C83 0.929 . S
H79 C85 0.930 . S
C80 H77 0.929 . S
C80 C81 1.398 . S
C80 C82 1.396 1_556 S
C81 C80 1.398 . S
C81 C85 1.407 . S
C82 C80 1.396 1_554 S
C82 C83 1.394 . S
C83 H78 0.929 . S
C83 C82 1.394 . S
C83 C84 1.382 . S
C84 C83 1.382 . S
C84 C85 1.392 1_554 S
C84 N86 1.420 . S
C85 H79 0.930 . S
C85 C81 1.407 . S
C85 C84 1.392 1_556 S
N86 C84 1.420 . S
N86 C87 1.244 . S
C87 N86 1.244 . S
Eu88 N119 2.657 1_566 S
Eu88 N126 2.609 1_565 S
Eu88 O132 2.558 . S
Eu88 O133 2.612 1_455 S
Eu88 O135 2.339 1_455 S
Eu88 O136 2.563 . S
Eu88 O137 2.419 1_556 S
Eu88 O139 2.380 1_565 S
Eu88 O140 2.432 . S
Eu88 C152 2.848 . S
C89 C92 1.429 . S
C89 C93 1.411 . S
C89 N96 1.377 1_565 S
C90 C92 1.420 . S
C90 C94 1.423 . S
C90 C102 1.392 . S
C91 C93 1.420 . S
C91 C94 1.351 . S
C91 H114 0.931 . S
C92 C89 1.429 . S
C92 C90 1.420 . S
C92 N100 1.362 . S
C93 C89 1.411 . S
C93 C91 1.420 . S
C93 C98 1.395 1_565 S
C94 C90 1.423 . S
C94 C91 1.351 . S
C94 H106 0.930 . S
C95 C97 1.400 . S
C95 C98 1.386 . S
C95 H107 0.930 . S
N96 C89 1.377 1_545 S
N96 C97 1.321 . S
N96 Eu99 2.609 . S
C97 C95 1.400 . S
C97 N96 1.321 . S
C97 H104 0.930 . S
C98 C93 1.395 1_545 S
C98 C95 1.386 . S
C98 H117 0.930 . S
Eu99 N96 2.609 . S
Eu99 N100 2.657 1_545 S
Eu99 O133 2.380 1_545 S
Eu99 O134 2.432 . S
Eu99 O138 2.558 . S
Eu99 O139 2.612 1_655 S
Eu99 O141 2.339 1_655 S
Eu99 O142 2.563 1_655 S
Eu99 O143 2.419 . S
Eu99 C163 2.848 . S
N100 C92 1.362 . S
N100 Eu99 2.657 1_565 S
N100 C101 1.334 1_655 S
C101 N100 1.334 1_455 S
C101 C103 1.413 . S
C101 H108 0.929 . S
C102 C90 1.392 . S
C102 C103 1.367 1_655 S
C102 H110 0.930 . S
C103 C101 1.413 . S
C103 C102 1.367 1_455 S
C103 H105 0.930 . S
H104 C97 0.930 . S
H105 C103 0.930 . S
H106 C94 0.930 . S
H107 C95 0.930 . S
H108 C101 0.929 . S
H109 C123 0.930 1_655 S
H110 C102 0.930 . S
H111 C129 0.930 . S
H112 C120 0.929 1_655 S
H113 C127 0.930 . S
H114 C91 0.931 . S
H115 C121 0.930 . S
H116 C154 0.930 . S
H117 C98 0.930 . S
H118 C153 0.931 . S
N119 Eu88 2.657 1_544 S
N119 C120 1.334 . S
N119 C124 1.362 . S
C120 H112 0.929 1_455 S
C120 N119 1.334 . S
C120 C123 1.413 . S
C121 H115 0.930 . S
C121 C122 1.392 . S
C121 C123 1.367 . S
C122 C121 1.392 . S
C122 C124 1.420 . S
C122 C154 1.423 . S
C123 H109 0.930 1_455 S
C123 C120 1.413 . S
C123 C121 1.367 . S
C124 N119 1.362 . S
C124 C122 1.420 . S
C124 C128 1.429 . S
H125 C130 0.930 . S
N126 Eu88 2.609 1_545 S
N126 C128 1.377 1_556 S
N126 C129 1.321 1_545 S
C127 H113 0.930 . S
C127 C129 1.400 . S
C127 C130 1.386 1_566 S
C128 C124 1.429 . S
C128 N126 1.377 1_554 S
C128 C131 1.411 . S
C129 H111 0.930 . S
C129 N126 1.321 1_565 S
C129 C127 1.400 . S
C130 H125 0.930 . S
C130 C127 1.386 1_544 S
C130 C131 1.395 . S
C131 C128 1.411 . S
C131 C130 1.395 . S
C131 C153 1.420 . S
O132 Eu88 2.558 . S
O132 C152 1.257 . S
O133 Eu88 2.612 1_655 S
O133 Eu99 2.380 1_565 S
O133 C144 1.276 . S
O134 Eu99 2.432 . S
O134 C151 1.264 . S
O135 Eu88 2.339 1_655 S
O135 C151 1.254 1_565 S
O136 Eu88 2.563 . S
O136 C144 1.235 1_455 S
O137 Eu88 2.419 1_554 S
O137 C152 1.249 1_554 S
O138 Eu99 2.558 . S
O138 C163 1.257 . S
O139 Eu88 2.380 1_545 S
O139 Eu99 2.612 1_455 S
O139 C155 1.276 . S
O140 Eu88 2.432 . S
O140 C162 1.264 1_565 S
O141 Eu99 2.339 1_455 S
O141 C162 1.254 . S
O142 Eu99 2.563 1_455 S
O142 C155 1.235 . S
O143 Eu99 2.419 . S
O143 C163 1.249 . S
C144 O133 1.276 . S
C144 O136 1.235 1_655 S
C145 C147 1.393 . S
C145 C149 1.395 . S
C145 C152 1.492 1_554 S
C146 C147 1.392 . S
C146 C148 1.386 . S
C147 C145 1.393 . S
C147 C146 1.392 . S
C147 H164 0.930 . S
C148 C146 1.386 . S
C148 C150 1.395 . S
C148 H165 0.930 . S
C149 C145 1.395 . S
C149 C150 1.379 . S
C149 H166 0.930 . S
C150 C148 1.395 . S
C150 C149 1.379 . S
C150 H167 0.930 . S
C151 O134 1.264 . S
C151 O135 1.254 1_545 S
C152 Eu88 2.848 . S
C152 O132 1.257 . S
C152 O137 1.249 1_556 S
C152 C145 1.492 1_556 S
C153 H118 0.931 . S
C153 C131 1.420 . S
C153 C154 1.351 . S
C154 H116 0.930 . S
C154 C122 1.423 . S
C154 C153 1.351 . S
C155 O139 1.276 . S
C155 O142 1.235 . S
C156 C157 1.393 . S
C156 C160 1.395 . S
C156 C163 1.492 . S
C157 C156 1.393 . S
C157 C158 1.392 . S
C157 H168 0.930 1_655 S
C158 C157 1.392 . S
C158 C159 1.386 . S
C159 C158 1.386 . S
C159 C161 1.395 . S
C159 H169 0.930 . S
C160 C156 1.395 . S
C160 C161 1.379 . S
C160 H170 0.930 . S
C161 C159 1.395 . S
C161 C160 1.379 . S
C161 H171 0.930 . S
C162 O140 1.264 1_545 S
C162 O141 1.254 . S
C163 Eu99 2.848 . S
C163 O138 1.257 . S
C163 O143 1.249 . S
C163 C156 1.492 . S
H164 C147 0.930 . S
H165 C148 0.930 . S
H166 C149 0.930 . S
H167 C150 0.930 . S
H168 C157 0.930 1_455 S
H169 C159 0.930 . S
H170 C160 0.930 . S
H171 C161 0.930 . S
Eu172 N203 2.657 1_556 S
Eu172 N210 2.609 . S
Eu172 O216 2.558 . S
Eu172 O217 2.612 1_545 S
Eu172 O219 2.339 1_545 S
Eu172 O220 2.563 . S
Eu172 O221 2.419 1_556 S
Eu172 O223 2.380 . S
Eu172 O224 2.432 . S
Eu172 C236 2.848 . S
C173 C176 1.429 . S
C173 C177 1.411 . S
C173 N180 1.377 . S
C174 C176 1.420 . S
C174 C178 1.423 . S
C174 C186 1.392 . S
C175 C177 1.420 . S
C175 C178 1.351 . S
C175 H198 0.931 . S
C176 C173 1.429 . S
C176 C174 1.420 . S
C176 N184 1.362 . S
C177 C173 1.411 . S
C177 C175 1.420 . S
C177 C182 1.395 . S
C178 C174 1.423 . S
C178 C175 1.351 . S
C178 H190 0.930 . S
C179 C181 1.400 . S
C179 C182 1.386 . S
C179 H191 0.930 . S
N180 C173 1.377 . S
N180 C181 1.321 . S
N180 Eu183 2.609 . S
C181 C179 1.400 . S
C181 N180 1.321 . S
C181 H188 0.930 . S
C182 C177 1.395 . S
C182 C179 1.386 . S
C182 H201 0.930 . S
Eu183 N180 2.609 . S
Eu183 N184 2.657 . S
Eu183 O217 2.380 . S
Eu183 O218 2.432 . S
Eu183 O222 2.558 . S
Eu183 O223 2.612 1_565 S
Eu183 O225 2.339 1_565 S
Eu183 O226 2.563 1_565 S
Eu183 O227 2.419 . S
Eu183 C247 2.848 . S
N184 C176 1.362 . S
N184 Eu183 2.657 . S
N184 C185 1.334 1_565 S
C185 N184 1.334 1_545 S
C185 C187 1.413 . S
C185 H192 0.929 . S
C186 C174 1.392 . S
C186 C187 1.367 1_565 S
C186 H194 0.930 . S
C187 C185 1.413 . S
C187 C186 1.367 1_545 S
C187 H189 0.930 . S
H188 C181 0.930 . S
H189 C187 0.930 . S
H190 C178 0.930 . S
H191 C179 0.930 . S
H192 C185 0.929 . S
H193 C207 0.930 1_565 S
H194 C186 0.930 . S
H195 C213 0.930 . S
H196 C204 0.929 1_565 S
H197 C211 0.930 . S
H198 C175 0.931 . S
H199 C205 0.930 . S
H200 C238 0.930 . S
H201 C182 0.930 . S
H202 C237 0.931 . S
N203 Eu172 2.657 1_554 S
N203 C204 1.334 . S
N203 C208 1.362 . S
C204 H196 0.929 1_545 S
C204 N203 1.334 . S
C204 C207 1.413 . S
C205 H199 0.930 . S
C205 C206 1.392 . S
C205 C207 1.367 . S
C206 C205 1.392 . S
C206 C208 1.420 . S
C206 C238 1.423 . S
C207 H193 0.930 1_545 S
C207 C204 1.413 . S
C207 C205 1.367 . S
C208 N203 1.362 . S
C208 C206 1.420 . S
C208 C212 1.429 . S
H209 C214 0.930 . S
N210 Eu172 2.609 . S
N210 C212 1.377 1_556 S
N210 C213 1.321 . S
C211 H197 0.930 . S
C211 C213 1.400 . S
C211 C214 1.386 1_556 S
C212 C208 1.429 . S
C212 N210 1.377 1_554 S
C212 C215 1.411 . S
C213 H195 0.930 . S
C213 N210 1.321 . S
C213 C211 1.400 . S
C214 H209 0.930 . S
C214 C211 1.386 1_554 S
C214 C215 1.395 . S
C215 C212 1.411 . S
C215 C214 1.395 . S
C215 C237 1.420 . S
O216 Eu172 2.558 . S
O216 C236 1.257 . S
O217 Eu172 2.612 1_565 S
O217 Eu183 2.380 . S
O217 C228 1.276 . S
O218 Eu183 2.432 . S
O218 C235 1.264 . S
O219 Eu172 2.339 1_565 S
O219 C235 1.254 . S
O220 Eu172 2.563 . S
O220 C228 1.235 1_545 S
O221 Eu172 2.419 1_554 S
O221 C236 1.249 1_554 S
O222 Eu183 2.558 . S
O222 C247 1.257 . S
O223 Eu172 2.380 . S
O223 Eu183 2.612 1_545 S
O223 C239 1.276 . S
O224 Eu172 2.432 . S
O224 C246 1.264 . S
O225 Eu183 2.339 1_545 S
O225 C246 1.254 . S
O226 Eu183 2.563 1_545 S
O226 C239 1.235 . S
O227 Eu183 2.419 . S
O227 C247 1.249 . S
C228 O217 1.276 . S
C228 O220 1.235 1_565 S
C229 C231 1.393 . S
C229 C233 1.395 . S
C229 C236 1.492 1_554 S
C230 C231 1.392 . S
C230 C232 1.386 . S
C231 C229 1.393 . S
C231 C230 1.392 . S
C231 H248 0.930 . S
C232 C230 1.386 . S
C232 C234 1.395 . S
C232 H249 0.930 . S
C233 C229 1.395 . S
C233 C234 1.379 . S
C233 H250 0.930 . S
C234 C232 1.395 . S
C234 C233 1.379 . S
C234 H251 0.930 . S
C235 O218 1.264 . S
C235 O219 1.254 . S
C236 Eu172 2.848 . S
C236 O216 1.257 . S
C236 O221 1.249 1_556 S
C236 C229 1.492 1_556 S
C237 H202 0.931 . S
C237 C215 1.420 . S
C237 C238 1.351 . S
C238 H200 0.930 . S
C238 C206 1.423 . S
C238 C237 1.351 . S
C239 O223 1.276 . S
C239 O226 1.235 . S
C240 C241 1.393 . S
C240 C244 1.395 . S
C240 C247 1.492 . S
C241 C240 1.393 . S
C241 C242 1.392 . S
C241 H252 0.930 1_565 S
C242 C241 1.392 . S
C242 C243 1.386 . S
C243 C242 1.386 . S
C243 C245 1.395 . S
C243 H253 0.930 . S
C244 C240 1.395 . S
C244 C245 1.379 . S
C244 H254 0.930 . S
C245 C243 1.395 . S
C245 C244 1.379 . S
C245 H255 0.930 . S
C246 O224 1.264 . S
C246 O225 1.254 . S
C247 Eu183 2.848 . S
C247 O222 1.257 . S
C247 O227 1.249 . S
C247 C240 1.492 . S
H248 C231 0.930 . S
H249 C232 0.930 . S
H250 C233 0.930 . S
H251 C234 0.930 . S
H252 C241 0.930 1_545 S
H253 C243 0.930 . S
H254 C244 0.930 . S
H255 C245 0.930 . S
Eu256 N287 2.657 . S
Eu256 N294 2.609 . S
Eu256 O300 2.558 . S
Eu256 O301 2.612 . S
Eu256 O303 2.339 . S
Eu256 O304 2.563 . S
Eu256 O305 2.419 . S
Eu256 O307 2.380 . S
Eu256 O308 2.432 . S
Eu256 C320 2.848 . S
C257 C260 1.429 . S
C257 C261 1.411 . S
C257 N264 1.377 . S
C258 C260 1.420 . S
C258 C262 1.423 . S
C258 C270 1.392 . S
C259 C261 1.420 . S
C259 C262 1.351 . S
C259 H282 0.931 . S
C260 C257 1.429 . S
C260 C258 1.420 . S
C260 N268 1.362 . S
C261 C257 1.411 . S
C261 C259 1.420 . S
C261 C266 1.395 1_556 S
C262 C258 1.423 . S
C262 C259 1.351 . S
C262 H274 0.930 . S
C263 C265 1.400 . S
C263 C266 1.386 . S
C263 H275 0.930 . S
N264 C257 1.377 . S
N264 C265 1.321 1_556 S
N264 Eu267 2.609 . S
C265 C263 1.400 . S
C265 N264 1.321 1_554 S
C265 H272 0.930 . S
C266 C261 1.395 1_554 S
C266 C263 1.386 . S
C266 H285 0.930 . S
Eu267 N264 2.609 . S
Eu267 N268 2.657 . S
Eu267 O301 2.380 . S
Eu267 O302 2.432 . S
Eu267 O306 2.558 1_556 S
Eu267 O307 2.612 . S
Eu267 O309 2.339 . S
Eu267 O310 2.563 . S
Eu267 O311 2.419 . S
Eu267 C331 2.848 1_556 S
N268 C260 1.362 . S
N268 Eu267 2.657 . S
N268 C269 1.334 . S
C269 N268 1.334 . S
C269 C271 1.413 . S
C269 H276 0.929 . S
C270 C258 1.392 . S
C270 C271 1.367 . S
C270 H278 0.930 . S
C271 C269 1.413 . S
C271 C270 1.367 . S
C271 H273 0.930 . S
H272 C265 0.930 . S
H273 C271 0.930 . S
H274 C262 0.930 . S
H275 C263 0.930 . S
H276 C269 0.929 . S
H277 C291 0.930 . S
H278 C270 0.930 . S
H279 C297 0.930 . S
H280 C288 0.929 . S
H281 C295 0.930 . S
H282 C259 0.931 . S
H283 C289 0.930 . S
H284 C322 0.930 . S
H285 C266 0.930 . S
H286 C321 0.931 . S
N287 Eu256 2.657 . S
N287 C288 1.334 . S
N287 C292 1.362 . S
C288 H280 0.929 . S
C288 N287 1.334 . S
C288 C291 1.413 . S
C289 H283 0.930 . S
C289 C290 1.392 . S
C289 C291 1.367 . S
C290 C289 1.392 . S
C290 C292 1.420 . S
C290 C322 1.423 . S
C291 H277 0.930 . S
C291 C288 1.413 . S
C291 C289 1.367 . S
C292 N287 1.362 . S
C292 C290 1.420 . S
C292 C296 1.429 . S
H293 C298 0.930 . S
N294 Eu256 2.609 . S
N294 C296 1.377 . S
N294 C297 1.321 . S
C295 H281 0.930 . S
C295 C297 1.400 . S
C295 C298 1.386 . S
C296 C292 1.429 . S
C296 N294 1.377 . S
C296 C299 1.411 . S
C297 H279 0.930 . S
C297 N294 1.321 . S
C297 C295 1.400 . S
C298 H293 0.930 . S
C298 C295 1.386 . S
C298 C299 1.395 . S
C299 C296 1.411 . S
C299 C298 1.395 . S
C299 C321 1.420 . S
O300 Eu256 2.558 . S
O300 C320 1.257 . S
O301 Eu256 2.612 . S
O301 Eu267 2.380 . S
O301 C312 1.276 . S
O302 Eu267 2.432 . S
O302 C319 1.264 . S
O303 Eu256 2.339 . S
O303 C319 1.254 . S
O304 Eu256 2.563 . S
O304 C312 1.235 . S
O305 Eu256 2.419 . S
O305 C320 1.249 . S
O306 Eu267 2.558 1_554 S
O306 C331 1.257 . S
O307 Eu256 2.380 . S
O307 Eu267 2.612 . S
O307 C323 1.276 . S
O308 Eu256 2.432 . S
O308 C330 1.264 . S
O309 Eu267 2.339 . S
O309 C330 1.254 . S
O310 Eu267 2.563 . S
O310 C323 1.235 . S
O311 Eu267 2.419 . S
O311 C331 1.249 1_556 S
C312 O301 1.276 . S
C312 O304 1.235 . S
C313 C315 1.393 . S
C313 C317 1.395 . S
C313 C320 1.492 . S
C314 C315 1.392 . S
C314 C316 1.386 . S
C315 C313 1.393 . S
C315 C314 1.392 . S
C315 H332 0.930 . S
C316 C314 1.386 . S
C316 C318 1.395 . S
C316 H333 0.930 . S
C317 C313 1.395 . S
C317 C318 1.379 . S
C317 H334 0.930 . S
C318 C316 1.395 . S
C318 C317 1.379 . S
C318 H335 0.930 . S
C319 O302 1.264 . S
C319 O303 1.254 . S
C320 Eu256 2.848 . S
C320 O300 1.257 . S
C320 O305 1.249 . S
C320 C313 1.492 . S
C321 H286 0.931 . S
C321 C299 1.420 . S
C321 C322 1.351 . S
C322 H284 0.930 . S
C322 C290 1.423 . S
C322 C321 1.351 . S
C323 O307 1.276 . S
C323 O310 1.235 . S
C324 C325 1.393 . S
C324 C328 1.395 . S
C324 C331 1.492 . S
C325 C324 1.393 . S
C325 C326 1.392 . S
C325 H336 0.930 . S
C326 C325 1.392 . S
C326 C327 1.386 . S
C327 C326 1.386 . S
C327 C329 1.395 . S
C327 H337 0.930 . S
C328 C324 1.395 . S
C328 C329 1.379 . S
C328 H338 0.930 . S
C329 C327 1.395 . S
C329 C328 1.379 . S
C329 H339 0.930 . S
C330 O308 1.264 . S
C330 O309 1.254 . S
C331 Eu267 2.848 1_554 S
C331 O306 1.257 . S
C331 O311 1.249 1_554 S
C331 C324 1.492 . S
H332 C315 0.930 . S
H333 C316 0.930 . S
H334 C317 0.930 . S
H335 C318 0.930 . S
H336 C325 0.930 . S
H337 C327 0.930 . S
H338 C328 0.930 . S
H339 C329 0.930 . S
Eu340 N371 2.657 . S
Eu340 N378 2.609 . S
Eu340 O384 2.558 . S
Eu340 O385 2.612 . S
Eu340 O387 2.339 . S
Eu340 O388 2.563 . S
Eu340 O389 2.419 . S
Eu340 O391 2.380 . S
Eu340 O392 2.432 1_455 S
Eu340 C404 2.848 . S
C341 C344 1.429 . S
C341 C345 1.411 . S
C341 N348 1.383 . S
C342 C344 1.420 . S
C342 C346 1.423 . S
C342 C354 1.392 . S
C343 C345 1.420 . S
C343 C346 1.351 . S
C343 H366 0.931 . S
C344 C341 1.429 . S
C344 C342 1.420 . S
C344 N352 1.362 . S
C345 C341 1.411 . S
C345 C343 1.420 . S
C345 C350 1.395 1_656 S
C346 C342 1.423 . S
C346 C343 1.351 . S
C346 H358 0.930 . S
C347 C349 1.400 . S
C347 C350 1.386 . S
C347 H359 0.930 . S
N348 C341 1.383 . S
N348 C349 1.314 1_656 S
N348 Eu351 2.612 . S
C349 C347 1.400 . S
C349 N348 1.314 1_454 S
C349 H356 0.930 . S
C350 C345 1.395 1_454 S
C350 C347 1.386 . S
C350 H369 0.930 . S
Eu351 N348 2.612 . S
Eu351 N352 2.657 . S
Eu351 O385 2.380 1_655 S
Eu351 O386 2.432 1_655 S
Eu351 O390 2.558 1_556 S
Eu351 O391 2.612 1_655 S
Eu351 O393 2.339 . S
Eu351 O394 2.563 . S
Eu351 O395 2.419 . S
Eu351 C415 2.848 1_556 S
N352 C344 1.362 . S
N352 Eu351 2.657 . S
N352 C353 1.334 . S
C353 N352 1.334 . S
C353 C355 1.413 . S
C353 H360 0.929 . S
C354 C342 1.392 . S
C354 C355 1.367 . S
C354 H362 0.930 . S
C355 C353 1.413 . S
C355 C354 1.367 . S
C355 H357 0.930 . S
H356 C349 0.930 . S
H357 C355 0.930 . S
H358 C346 0.930 . S
H359 C347 0.930 . S
H360 C353 0.929 . S
H361 C375 0.930 . S
H362 C354 0.930 . S
H363 C381 0.930 . S
H364 C372 0.929 . S
H365 C379 0.930 . S
H366 C343 0.931 . S
H367 C373 0.930 . S
H368 C406 0.930 . S
H369 C350 0.930 . S
H370 C405 0.931 . S
N371 Eu340 2.657 . S
N371 C372 1.334 . S
N371 C376 1.362 . S
C372 H364 0.929 . S
C372 N371 1.334 . S
C372 C375 1.413 . S
C373 H367 0.930 . S
C373 C374 1.392 . S
C373 C375 1.367 . S
C374 C373 1.392 . S
C374 C376 1.420 . S
C374 C406 1.423 . S
C375 H361 0.930 . S
C375 C372 1.413 . S
C375 C373 1.367 . S
C376 N371 1.362 . S
C376 C374 1.420 . S
C376 C380 1.429 . S
H377 C382 0.929 . S
N378 Eu340 2.609 . S
N378 C380 1.377 . S
N378 C381 1.321 1_455 S
C379 H365 0.930 . S
C379 C381 1.400 . S
C379 C382 1.386 1_655 S
C380 C376 1.429 . S
C380 N378 1.377 . S
C380 C383 1.411 . S
C381 H363 0.930 . S
C381 N378 1.321 1_655 S
C381 C379 1.400 . S
C382 H377 0.929 . S
C382 C379 1.386 1_455 S
C382 C383 1.395 . S
C383 C380 1.411 . S
C383 C382 1.395 . S
C383 C405 1.420 . S
O384 Eu340 2.558 . S
O384 C404 1.257 . S
O385 Eu340 2.612 . S
O385 Eu351 2.380 1_455 S
O385 C396 1.276 . S
O386 Eu351 2.432 1_455 S
O386 C403 1.264 . S
O387 Eu340 2.339 . S
O387 C403 1.254 . S
O388 Eu340 2.563 . S
O388 C396 1.235 . S
O389 Eu340 2.419 . S
O389 C404 1.249 . S
O390 Eu351 2.558 1_554 S
O390 C415 1.257 . S
O391 Eu340 2.380 . S
O391 Eu351 2.612 1_455 S
O391 C407 1.276 1_455 S
O392 Eu340 2.432 1_655 S
O392 C414 1.264 . S
O393 Eu351 2.339 . S
O393 C414 1.254 . S
O394 Eu351 2.563 . S
O394 C407 1.235 . S
O395 Eu351 2.419 . S
O395 C415 1.249 1_556 S
C396 O385 1.276 . S
C396 O388 1.235 . S
C397 C399 1.393 . S
C397 C401 1.395 . S
C397 C404 1.492 . S
C398 C399 1.392 . S
C398 C400 1.386 . S
C399 C397 1.393 . S
C399 C398 1.392 . S
C399 H416 0.930 . S
C400 C398 1.386 . S
C400 C402 1.395 . S
C400 H417 0.930 . S
C401 C397 1.395 . S
C401 C402 1.379 . S
C401 H418 0.930 . S
C402 C400 1.395 . S
C402 C401 1.379 . S
C402 H419 0.930 . S
C403 O386 1.264 . S
C403 O387 1.254 . S
C404 Eu340 2.848 . S
C404 O384 1.257 . S
C404 O389 1.249 . S
C404 C397 1.492 . S
C405 H370 0.931 . S
C405 C383 1.420 . S
C405 C406 1.351 . S
C406 H368 0.930 . S
C406 C374 1.423 . S
C406 C405 1.351 . S
C407 O391 1.276 1_655 S
C407 O394 1.235 . S
C408 C409 1.393 . S
C408 C412 1.395 . S
C408 C415 1.492 . S
C409 C408 1.393 . S
C409 C410 1.392 . S
C409 H420 0.930 . S
C410 C409 1.392 . S
C410 C411 1.386 . S
C411 C410 1.386 . S
C411 C413 1.395 . S
C411 H421 0.930 . S
C412 C408 1.395 . S
C412 C413 1.379 . S
C412 H422 0.930 . S
C413 C411 1.395 . S
C413 C412 1.379 . S
C413 H423 0.930 . S
C414 O392 1.264 . S
C414 O393 1.254 . S
C415 Eu351 2.848 1_554 S
C415 O390 1.257 . S
C415 O395 1.249 1_554 S
C415 C408 1.492 . S
H416 C399 0.930 . S
H417 C400 0.930 . S
H418 C401 0.930 . S
H419 C402 0.930 . S
H420 C409 0.930 . S
H421 C411 0.930 . S
H422 C412 0.930 . S
H423 C413 0.930 . S
C424 C425 1.369 . S
C424 C426 1.419 . S
C424 H428 0.930 . S
C425 C424 1.369 . S
C425 C434 1.429 . S
C426 C424 1.419 . S
C426 C427 1.363 . S
C426 H429 0.929 . S
C427 C426 1.363 . S
C427 C433 1.428 . S
H428 C424 0.930 . S
H429 C426 0.929 . S
S430 N431 1.613 . S
S430 N432 1.610 . S
N431 S430 1.613 . S
N431 C434 1.350 . S
N432 S430 1.610 . S
N432 C433 1.351 . S
C433 C427 1.428 . S
C433 N432 1.351 . S
C433 C434 1.434 . S
C434 C425 1.429 . S
C434 N431 1.350 . S
C434 C433 1.434 . S
C435 C436 1.369 . S
C435 C437 1.419 . S
C435 H439 0.930 . S
C436 C435 1.369 . S
C436 C445 1.429 . S
C437 C435 1.419 . S
C437 C438 1.363 . S
C437 H440 0.929 . S
C438 C437 1.363 . S
C438 C444 1.428 . S
H439 C435 0.930 . S
H440 C437 0.929 . S
S441 N442 1.613 . S
S441 N443 1.610 . S
N442 S441 1.613 . S
N442 C445 1.350 . S
N443 S441 1.610 . S
N443 C444 1.351 . S
C444 C438 1.428 . S
C444 N443 1.351 . S
C444 C445 1.434 . S
C445 C436 1.429 . S
C445 N442 1.350 . S
C445 C444 1.434 . S
C446 C447 1.369 . S
C446 C448 1.419 . S
C446 H450 0.930 . S
C447 C446 1.369 . S
C447 C456 1.429 . S
C448 C446 1.419 . S
C448 C449 1.363 . S
C448 H451 0.929 . S
C449 C448 1.363 . S
C449 C455 1.428 . S
H450 C446 0.930 . S
H451 C448 0.929 . S
S452 N453 1.613 . S
S452 N454 1.610 . S
N453 S452 1.613 . S
N453 C456 1.350 . S
N454 S452 1.610 . S
N454 C455 1.351 . S
C455 C449 1.428 . S
C455 N454 1.351 . S
C455 C456 1.434 . S
C456 C447 1.429 . S
C456 N453 1.350 . S
C456 C455 1.434 . S
C457 C458 1.369 . S
C457 C459 1.419 . S
C457 H461 0.930 . S
C458 C457 1.369 . S
C458 C467 1.429 . S
C459 C457 1.419 . S
C459 C460 1.363 . S
C459 H462 0.929 1_455 S
C460 C459 1.363 . S
C460 C466 1.428 . S
H461 C457 0.930 . S
H462 C459 0.929 1_655 S
S463 N464 1.613 . S
S463 N465 1.610 . S
N464 S463 1.613 . S
N464 C467 1.350 . S
N465 S463 1.610 . S
N465 C466 1.351 . S
C466 C460 1.428 . S
C466 N465 1.351 . S
C466 C467 1.434 . S
C467 C458 1.429 . S
C467 N464 1.350 . S
C467 C466 1.434 . S
C468 C469 1.369 . S
C468 C470 1.419 . S
C468 H472 0.930 . S
C469 C468 1.369 . S
C469 C478 1.429 1_565 S
C470 C468 1.419 . S
C470 C471 1.363 1_554 S
C470 H473 0.929 1_554 S
C471 C470 1.363 1_556 S
C471 C477 1.428 1_566 S
H472 C468 0.930 . S
H473 C470 0.929 1_556 S
S474 N475 1.613 . S
S474 N476 1.610 . S
N475 S474 1.613 . S
N475 C478 1.350 . S
N476 S474 1.610 . S
N476 C477 1.351 . S
C477 C471 1.428 1_544 S
C477 N476 1.351 . S
C477 C478 1.434 . S
C478 C469 1.429 1_545 S
C478 N475 1.350 . S
C478 C477 1.434 . S
C479 C480 1.369 . S
C479 C481 1.419 . S
C479 H483 0.930 . S
C480 C479 1.369 . S
C480 C489 1.429 . S
C481 C479 1.419 . S
C481 C482 1.363 1_554 S
C481 H484 0.929 . S
C482 C481 1.363 1_556 S
C482 C488 1.428 1_556 S
H483 C479 0.930 . S
H484 C481 0.929 . S
S485 N486 1.613 . S
S485 N487 1.610 1_554 S
N486 S485 1.613 . S
N486 C489 1.350 . S
N487 S485 1.610 1_556 S
N487 C488 1.351 1_556 S
C488 C482 1.428 1_554 S
C488 N487 1.351 1_554 S
C488 C489 1.434 . S
C489 C480 1.429 . S
C489 N486 1.350 . S
C489 C488 1.434 . S
C490 C491 1.369 . S
C490 C492 1.419 . S
C490 H494 0.930 . S
C491 C490 1.369 . S
C491 C500 1.429 . S
C492 C490 1.419 . S
C492 C493 1.363 1_554 S
C492 H495 0.929 . S
C493 C492 1.363 1_556 S
C493 C499 1.428 1_556 S
H494 C490 0.930 . S
H495 C492 0.929 . S
S496 N497 1.613 1_556 S
S496 N498 1.610 . S
N497 S496 1.613 1_554 S
N497 C500 1.350 . S
N498 S496 1.610 . S
N498 C499 1.351 1_556 S
C499 C493 1.428 1_554 S
C499 N498 1.351 1_554 S
C499 C500 1.434 . S
C500 C491 1.429 . S
C500 N497 1.350 . S
C500 C499 1.434 . S
C501 C502 1.369 . S
C501 C503 1.419 . S
C501 H505 0.930 . S
C502 C501 1.369 . S
C502 C511 1.429 . S
C503 C501 1.419 . S
C503 C504 1.363 1_554 S
C503 H506 0.929 . S
C504 C503 1.363 1_556 S
C504 C510 1.428 1_656 S
H505 C501 0.930 . S
H506 C503 0.929 . S
S507 N508 1.613 . S
S507 N509 1.610 1_554 S
N508 S507 1.613 . S
N508 C511 1.350 1_455 S
N509 S507 1.610 1_556 S
N509 C510 1.351 1_556 S
C510 C504 1.428 1_454 S
C510 N509 1.351 1_554 S
C510 C511 1.434 1_455 S
C511 C502 1.429 . S
C511 N508 1.350 1_655 S
C511 C510 1.434 1_655 S
C512 C513 1.369 . S
C512 C514 1.419 1_455 S
C512 H516 0.930 . S
C513 C512 1.369 . S
C513 C522 1.429 . S
C514 C512 1.419 1_655 S
C514 C515 1.369 . S
C514 H517 0.929 . S
C515 C514 1.369 . S
C515 C521 1.405 1_655 S
H516 C512 0.930 . S
H517 C514 0.929 . S
S518 N519 1.613 . S
S518 N520 1.610 . S
N519 S518 1.613 . S
N519 C522 1.350 . S
N520 S518 1.610 . S
N520 C521 1.351 . S
C521 C515 1.405 1_455 S
C521 N520 1.351 . S
C521 C522 1.434 . S
C522 C513 1.429 . S
C522 N519 1.350 . S
C522 C521 1.434 . S
C523 C524 1.369 . S
C523 C525 1.419 . S
C523 H527 0.930 . S
C524 C523 1.369 . S
C524 C533 1.429 . S
C525 C523 1.419 . S
C525 C526 1.363 1_545 S
C525 H528 0.929 . S
C526 C525 1.363 1_565 S
C526 C532 1.428 1_565 S
H527 C523 0.930 . S
H528 C525 0.929 . S
S529 N530 1.613 . S
S529 N531 1.610 1_546 S
N530 S529 1.613 . S
N530 C533 1.350 1_556 S
N531 S529 1.610 1_564 S
N531 C532 1.351 1_565 S
C532 C526 1.428 1_545 S
C532 N531 1.351 1_545 S
C532 C533 1.434 . S
C533 C524 1.429 . S
C533 N530 1.350 1_554 S
C533 C532 1.434 . S
C534 C535 1.369 . S
C534 C536 1.419 . S
C534 H538 0.930 . S
C535 C534 1.369 . S
C535 C544 1.429 . S
C536 C534 1.419 . S
C536 C537 1.363 . S
C536 H539 0.929 . S
C537 C536 1.363 . S
C537 C543 1.428 . S
H538 C534 0.930 . S
H539 C536 0.929 . S
S540 N541 1.613 . S
S540 N542 1.610 . S
N541 S540 1.613 . S
N541 C544 1.350 . S
N542 S540 1.610 . S
N542 C543 1.351 . S
C543 C537 1.428 . S
C543 N542 1.351 . S
C543 C544 1.434 . S
C544 C535 1.429 . S
C544 N541 1.350 . S
C544 C543 1.434 . S
C545 C546 1.369 . S
C545 C547 1.419 . S
C545 H549 0.930 . S
C546 C545 1.369 . S
C546 C555 1.429 . S
C547 C545 1.419 . S
C547 C548 1.363 . S
C547 H550 0.929 . S
C548 C547 1.363 . S
C548 C554 1.428 . S
H549 C545 0.930 . S
H550 C547 0.929 . S
S551 N552 1.613 . S
S551 N553 1.610 . S
N552 S551 1.613 . S
N552 C555 1.350 . S
N553 S551 1.610 . S
N553 C554 1.351 . S
C554 C548 1.428 . S
C554 N553 1.351 . S
C554 C555 1.434 . S
C555 C546 1.429 . S
C555 N552 1.350 . S
C555 C554 1.434 . S
C556 C557 1.369 . S
C556 C558 1.419 . S
C556 H560 0.930 . S
C557 C556 1.369 . S
C557 C566 1.429 . S
C558 C556 1.419 . S
C558 C559 1.363 1_655 S
C558 H561 0.929 . S
C559 C558 1.363 1_455 S
C559 C565 1.428 . S
H560 C556 0.930 . S
H561 C558 0.929 . S
S562 N563 1.613 1_455 S
S562 N564 1.610 . S
N563 S562 1.613 1_655 S
N563 C566 1.350 . S
N564 S562 1.610 . S
N564 C565 1.351 . S
C565 C559 1.428 . S
C565 N564 1.351 . S
C565 C566 1.434 1_455 S
C566 C557 1.429 . S
C566 N563 1.350 . S
C566 C565 1.434 1_655 S
C567 C568 1.369 1_545 S
C567 C569 1.419 . S
C567 H571 0.930 . S
C568 C567 1.369 1_565 S
C568 C577 1.429 . S
C569 C567 1.419 . S
C569 C570 1.363 . S
C569 H572 0.929 . S
C570 C569 1.363 . S
C570 C576 1.428 1_545 S
H571 C567 0.930 . S
H572 C569 0.929 . S
S573 N574 1.611 1_556 S
S573 N575 1.610 1_556 S
N574 S573 1.611 1_554 S
N574 C577 1.350 . S
N575 S573 1.610 1_554 S
N575 C576 1.351 . S
C576 C570 1.428 1_565 S
C576 N575 1.351 . S
C576 C577 1.434 . S
C577 C568 1.429 . S
C577 N574 1.350 . S
C577 C576 1.434 . S
C578 C579 1.369 . S
C578 C580 1.419 . S
C578 H582 0.930 . S
C579 C578 1.369 . S
C579 C588 1.429 . S
C580 C578 1.419 . S
C580 C581 1.363 . S
C580 H583 0.929 . S
C581 C580 1.363 . S
C581 C587 1.428 . S
H582 C578 0.930 . S
H583 C580 0.929 . S
S584 N585 1.613 . S
S584 N586 1.610 . S
N585 S584 1.613 . S
N585 C588 1.350 . S
N586 S584 1.610 . S
N586 C587 1.351 . S
C587 C581 1.428 . S
C587 N586 1.351 . S
C587 C588 1.434 . S
C588 C579 1.429 . S
C588 N585 1.350 . S
C588 C587 1.434 . S
C589 C590 1.369 . S
C589 C591 1.419 . S
C589 H593 0.930 . S
C590 C589 1.369 . S
C590 C599 1.429 . S
C591 C589 1.419 . S
C591 C592 1.363 . S
C591 H594 0.929 . S
C592 C591 1.363 . S
C592 C598 1.428 . S
H593 C589 0.930 . S
H594 C591 0.929 . S
S595 N596 1.613 . S
S595 N597 1.610 . S
N596 S595 1.613 . S
N596 C599 1.350 . S
N597 S595 1.610 . S
N597 C598 1.351 . S
C598 C592 1.428 . S
C598 N597 1.351 . S
C598 C599 1.434 . S
C599 C590 1.429 . S
C599 N596 1.350 . S
C599 C598 1.434 . S
C600 C601 1.369 . S
C600 C602 1.419 . S
C600 H604 0.930 . S
C601 C600 1.369 . S
C601 C610 1.429 . S
C602 C600 1.419 . S
C602 C603 1.363 . S
C602 H605 0.929 . S
C603 C602 1.363 . S
C603 C609 1.428 . S
H604 C600 0.930 . S
H605 C602 0.929 . S
S606 N607 1.613 1_654 S
S606 N608 1.610 1_554 S
N607 S606 1.613 1_456 S
N607 C610 1.350 . S
N608 S606 1.610 1_556 S
N608 C609 1.351 1_655 S
C609 C603 1.428 . S
C609 N608 1.351 1_455 S
C609 C610 1.434 . S
C610 C601 1.429 . S
C610 N607 1.350 . S
C610 C609 1.434 . S
C611 C612 1.369 . S
C611 C613 1.419 . S
C611 H615 0.930 . S
C612 C611 1.369 . S
C612 C621 1.429 . S
C613 C611 1.419 . S
C613 C614 1.363 . S
C613 H616 0.929 . S
C614 C613 1.363 . S
C614 C620 1.428 . S
H615 C611 0.930 . S
H616 C613 0.929 . S
S617 N618 1.613 1_565 S
S617 N619 1.618 . S
N618 S617 1.613 1_545 S
N618 C621 1.350 . S
N619 S617 1.618 . S
N619 C620 1.338 1_565 S
C620 C614 1.428 . S
C620 N619 1.338 1_545 S
C620 C621 1.434 . S
C621 C612 1.429 . S
C621 N618 1.350 . S
C621 C620 1.434 . S
C622 C623 1.369 . S
C622 C624 1.419 . S
C622 H626 0.930 . S
C623 C622 1.369 . S
C623 C632 1.429 . S
C624 C622 1.419 . S
C624 C625 1.363 . S
C624 H627 0.929 . S
C625 C624 1.363 . S
C625 C631 1.428 . S
H626 C622 0.930 . S
H627 C624 0.929 . S
S628 N629 1.613 . S
S628 N630 1.610 . S
N629 S628 1.613 . S
N629 C632 1.350 . S
N630 S628 1.610 . S
N630 C631 1.351 . S
C631 C625 1.428 . S
C631 N630 1.351 . S
C631 C632 1.434 . S
C632 C623 1.429 . S
C632 N629 1.350 . S
C632 C631 1.434 . S
C633 C634 1.369 . S
C633 C635 1.419 . S
C633 H637 0.930 . S
C634 C633 1.369 . S
C634 C643 1.429 . S
C635 C633 1.419 . S
C635 C636 1.363 . S
C635 H638 0.929 . S
C636 C635 1.363 . S
C636 C642 1.428 . S
H637 C633 0.930 . S
H638 C635 0.929 . S
S639 N640 1.613 . S
S639 N641 1.610 . S
N640 S639 1.613 . S
N640 C643 1.350 . S
N641 S639 1.610 . S
N641 C642 1.351 . S
C642 C636 1.428 . S
C642 N641 1.351 . S
C642 C643 1.434 . S
C643 C634 1.429 . S
C643 N640 1.350 . S
C643 C642 1.434 . S
C644 C645 1.369 . S
C644 C646 1.419 . S
C644 H648 0.930 . S
C645 C644 1.369 . S
C645 C654 1.429 . S
C646 C644 1.419 . S
C646 C647 1.363 . S
C646 H649 0.929 . S
C647 C646 1.363 . S
C647 C653 1.428 . S
H648 C644 0.930 . S
H649 C646 0.929 . S
S650 N651 1.613 . S
S650 N652 1.610 . S
N651 S650 1.613 . S
N651 C654 1.350 . S
N652 S650 1.610 . S
N652 C653 1.351 . S
C653 C647 1.428 . S
C653 N652 1.351 . S
C653 C654 1.434 . S
C654 C645 1.429 . S
C654 N651 1.350 . S
C654 C653 1.434 . S
C655 C656 1.369 . S
C655 C657 1.419 . S
C655 H659 0.930 . S
C656 C655 1.369 . S
C656 C665 1.429 1_565 S
C657 C655 1.419 . S
C657 C658 1.363 . S
C657 H660 0.929 . S
C658 C657 1.363 . S
C658 C664 1.428 1_565 S
H659 C655 0.930 . S
H660 C657 0.929 . S
S661 N662 1.613 . S
S661 N663 1.610 . S
N662 S661 1.613 . S
N662 C665 1.350 . S
N663 S661 1.610 . S
N663 C664 1.351 . S
C664 C658 1.428 1_545 S
C664 N663 1.351 . S
C664 C665 1.434 . S
C665 C656 1.429 1_545 S
C665 N662 1.350 . S
C665 C664 1.434 . S
C666 C667 1.369 . S
C666 C668 1.419 . S
C666 H670 0.930 . S
C667 C666 1.369 . S
C667 C676 1.429 . S
C668 C666 1.419 . S
C668 C669 1.363 . S
C668 H671 0.929 . S
C669 C668 1.363 . S
C669 C675 1.428 . S
H670 C666 0.930 . S
H671 C668 0.929 . S
S672 N673 1.613 . S
S672 N674 1.610 . S
N673 S672 1.613 . S
N673 C676 1.350 . S
N674 S672 1.610 . S
N674 C675 1.351 . S
C675 C669 1.428 . S
C675 N674 1.351 . S
C675 C676 1.434 . S
C676 C667 1.429 . S
C676 N673 1.350 . S
C676 C675 1.434 . S
C677 C678 1.369 . S
C677 C679 1.419 . S
C677 H681 0.930 . S
C678 C677 1.369 . S
C678 C687 1.429 . S
C679 C677 1.419 . S
C679 C680 1.363 . S
C679 H682 0.929 . S
C680 C679 1.363 . S
C680 C686 1.428 . S
H681 C677 0.930 . S
H682 C679 0.929 . S
S683 N684 1.613 . S
S683 N685 1.610 . S
N684 S683 1.613 . S
N684 C687 1.350 . S
N685 S683 1.610 . S
N685 C686 1.351 . S
C686 C680 1.428 . S
C686 N685 1.351 . S
C686 C687 1.434 . S
C687 C678 1.429 . S
C687 N684 1.350 . S
C687 C686 1.434 . S
C425 C76 1.960 . S
C427 C162 2.087 . S
C438 C246 2.099 . S
C436 C87 1.959 . S
C449 C312 2.013 . S
C447 C54 2.031 . S
C460 C396 2.004 . S
C458 C65 2.024 . S
C471 C151 2.086 1_565 S
C469 C32 1.961 . S
C480 C43 1.972 . S
C482 C235 2.099 . S
C491 C10 2.040 . S
C493 C323 2.013 . S
C502 C21 2.032 . S
C504 C407 2.005 . S
C515 C158 0.954 . S
C513 C60 0.890 . S
C526 C242 0.897 . S
C524 C71 0.850 . S
C537 C314 0.869 . S
C535 C82 0.834 . S
C546 C49 0.864 . S
C548 C398 0.909 . S
C557 C16 0.870 . S
C559 C146 0.933 . S
C570 C230 0.898 . S
C568 C27 0.865 . S
C581 C326 0.870 . S
C579 C38 0.820 . S
C590 C5 0.850 . S
C592 C410 0.908 . S
C601 C59 2.099 . S
C603 C155 2.215 . S
C612 C70 2.085 . S
C614 C239 2.190 . S
C625 C319 2.278 . S
C623 C81 2.004 . S
C636 C403 2.302 . S
C634 C48 2.029 . S
C645 C15 2.101 . S
C647 C144 2.214 . S
C658 C228 2.191 . S
C656 C26 2.074 . S
C669 C330 2.279 . S
C667 C37 1.990 . S
C678 C4 2.014 . S
C680 C414 2.298 . S
