# Generated by pormake.
# Topology eea, (3,6)-cn, num edge types: 1
# Building blocks:
#     Node 0, Type 0, BuildingBlock: BELTOD_clean_linker_0, # of connection points: 3
#     Node 1, Type 0, BuildingBlock: BELTOD_clean_linker_0, # of connection points: 3
#     Node 2, Type 0, BuildingBlock: BELTOD_clean_linker_0, # of connection points: 3
#     Node 3, Type 0, BuildingBlock: BELTOD_clean_linker_0, # of connection points: 3
#     Node 4, Type 0, BuildingBlock: BELTOD_clean_linker_0, # of connection points: 3
#     Node 5, Type 0, BuildingBlock: BELTOD_clean_linker_0, # of connection points: 3
#     Node 6, Type 0, BuildingBlock: BELTOD_clean_linker_0, # of connection points: 3
#     Node 7, Type 0, BuildingBlock: BELTOD_clean_linker_0, # of connection points: 3
#     Node 8, Type 0, BuildingBlock: BELTOD_clean_linker_0, # of connection points: 3
#     Node 9, Type 0, BuildingBlock: BELTOD_clean_linker_0, # of connection points: 3
#     Node 10, Type 0, BuildingBlock: BELTOD_clean_linker_0, # of connection points: 3
#     Node 11, Type 0, BuildingBlock: BELTOD_clean_linker_0, # of connection points: 3
#     Node 12, Type 0, BuildingBlock: BELTOD_clean_linker_0, # of connection points: 3
#     Node 13, Type 0, BuildingBlock: BELTOD_clean_linker_0, # of connection points: 3
#     Node 14, Type 0, BuildingBlock: BELTOD_clean_linker_0, # of connection points: 3
#     Node 15, Type 0, BuildingBlock: BELTOD_clean_linker_0, # of connection points: 3
#     Node 16, Type 0, BuildingBlock: BELTOD_clean_linker_0, # of connection points: 3
#     Node 17, Type 0, BuildingBlock: BELTOD_clean_linker_0, # of connection points: 3
#     Node 18, Type 1, BuildingBlock: CUWYAW_clean_sbu_0, # of connection points: 6
#     Node 19, Type 1, BuildingBlock: CUWYAW_clean_sbu_0, # of connection points: 6
#     Node 20, Type 1, BuildingBlock: CUWYAW_clean_sbu_0, # of connection points: 6
#     Node 21, Type 1, BuildingBlock: CUWYAW_clean_sbu_0, # of connection points: 6
#     Node 22, Type 1, BuildingBlock: CUWYAW_clean_sbu_0, # of connection points: 6
#     Node 23, Type 1, BuildingBlock: CUWYAW_clean_sbu_0, # of connection points: 6
#     Node 24, Type 1, BuildingBlock: CUWYAW_clean_sbu_0, # of connection points: 6
#     Node 25, Type 1, BuildingBlock: CUWYAW_clean_sbu_0, # of connection points: 6
#     Node 26, Type 1, BuildingBlock: CUWYAW_clean_sbu_0, # of connection points: 6
#     Edge 27, Type (0, 1), BuildingBlock: EZIPEK_clean_linker_0, # of connection points: 2
#     Edge 28, Type (0, 1), BuildingBlock: EZIPEK_clean_linker_0, # of connection points: 2
#     Edge 29, Type (0, 1), BuildingBlock: EZIPEK_clean_linker_0, # of connection points: 2
#     Edge 30, Type (0, 1), BuildingBlock: EZIPEK_clean_linker_0, # of connection points: 2
#     Edge 31, Type (0, 1), BuildingBlock: EZIPEK_clean_linker_0, # of connection points: 2
#     Edge 32, Type (0, 1), BuildingBlock: EZIPEK_clean_linker_0, # of connection points: 2
#     Edge 33, Type (0, 1), BuildingBlock: EZIPEK_clean_linker_0, # of connection points: 2
#     Edge 34, Type (0, 1), BuildingBlock: EZIPEK_clean_linker_0, # of connection points: 2
#     Edge 35, Type (0, 1), BuildingBlock: EZIPEK_clean_linker_0, # of connection points: 2
#     Edge 36, Type (0, 1), BuildingBlock: EZIPEK_clean_linker_0, # of connection points: 2
#     Edge 37, Type (0, 1), BuildingBlock: EZIPEK_clean_linker_0, # of connection points: 2
#     Edge 38, Type (0, 1), BuildingBlock: EZIPEK_clean_linker_0, # of connection points: 2
#     Edge 39, Type (0, 1), BuildingBlock: EZIPEK_clean_linker_0, # of connection points: 2
#     Edge 40, Type (0, 1), BuildingBlock: EZIPEK_clean_linker_0, # of connection points: 2
#     Edge 41, Type (0, 1), BuildingBlock: EZIPEK_clean_linker_0, # of connection points: 2
#     Edge 42, Type (0, 1), BuildingBlock: EZIPEK_clean_linker_0, # of connection points: 2
#     Edge 43, Type (0, 1), BuildingBlock: EZIPEK_clean_linker_0, # of connection points: 2
#     Edge 44, Type (0, 1), BuildingBlock: EZIPEK_clean_linker_0, # of connection points: 2
#     Edge 45, Type (0, 1), BuildingBlock: EZIPEK_clean_linker_0, # of connection points: 2
#     Edge 46, Type (0, 1), BuildingBlock: EZIPEK_clean_linker_0, # of connection points: 2
#     Edge 47, Type (0, 1), BuildingBlock: EZIPEK_clean_linker_0, # of connection points: 2
#     Edge 48, Type (0, 1), BuildingBlock: EZIPEK_clean_linker_0, # of connection points: 2
#     Edge 49, Type (0, 1), BuildingBlock: EZIPEK_clean_linker_0, # of connection points: 2
#     Edge 50, Type (0, 1), BuildingBlock: EZIPEK_clean_linker_0, # of connection points: 2
#     Edge 51, Type (0, 1), BuildingBlock: EZIPEK_clean_linker_0, # of connection points: 2
#     Edge 52, Type (0, 1), BuildingBlock: EZIPEK_clean_linker_0, # of connection points: 2
#     Edge 53, Type (0, 1), BuildingBlock: EZIPEK_clean_linker_0, # of connection points: 2
#     Edge 54, Type (0, 1), BuildingBlock: EZIPEK_clean_linker_0, # of connection points: 2
#     Edge 55, Type (0, 1), BuildingBlock: EZIPEK_clean_linker_0, # of connection points: 2
#     Edge 56, Type (0, 1), BuildingBlock: EZIPEK_clean_linker_0, # of connection points: 2
#     Edge 57, Type (0, 1), BuildingBlock: EZIPEK_clean_linker_0, # of connection points: 2
#     Edge 58, Type (0, 1), BuildingBlock: EZIPEK_clean_linker_0, # of connection points: 2
#     Edge 59, Type (0, 1), BuildingBlock: EZIPEK_clean_linker_0, # of connection points: 2
#     Edge 60, Type (0, 1), BuildingBlock: EZIPEK_clean_linker_0, # of connection points: 2
#     Edge 61, Type (0, 1), BuildingBlock: EZIPEK_clean_linker_0, # of connection points: 2
#     Edge 62, Type (0, 1), BuildingBlock: EZIPEK_clean_linker_0, # of connection points: 2
#     Edge 63, Type (0, 1), BuildingBlock: EZIPEK_clean_linker_0, # of connection points: 2
#     Edge 64, Type (0, 1), BuildingBlock: EZIPEK_clean_linker_0, # of connection points: 2
#     Edge 65, Type (0, 1), BuildingBlock: EZIPEK_clean_linker_0, # of connection points: 2
#     Edge 66, Type (0, 1), BuildingBlock: EZIPEK_clean_linker_0, # of connection points: 2
#     Edge 67, Type (0, 1), BuildingBlock: EZIPEK_clean_linker_0, # of connection points: 2
#     Edge 68, Type (0, 1), BuildingBlock: EZIPEK_clean_linker_0, # of connection points: 2
#     Edge 69, Type (0, 1), BuildingBlock: EZIPEK_clean_linker_0, # of connection points: 2
#     Edge 70, Type (0, 1), BuildingBlock: EZIPEK_clean_linker_0, # of connection points: 2
#     Edge 71, Type (0, 1), BuildingBlock: EZIPEK_clean_linker_0, # of connection points: 2
#     Edge 72, Type (0, 1), BuildingBlock: EZIPEK_clean_linker_0, # of connection points: 2
#     Edge 73, Type (0, 1), BuildingBlock: EZIPEK_clean_linker_0, # of connection points: 2
#     Edge 74, Type (0, 1), BuildingBlock: EZIPEK_clean_linker_0, # of connection points: 2
#     Edge 75, Type (0, 1), BuildingBlock: EZIPEK_clean_linker_0, # of connection points: 2
#     Edge 76, Type (0, 1), BuildingBlock: EZIPEK_clean_linker_0, # of connection points: 2
#     Edge 77, Type (0, 1), BuildingBlock: EZIPEK_clean_linker_0, # of connection points: 2
#     Edge 78, Type (0, 1), BuildingBlock: EZIPEK_clean_linker_0, # of connection points: 2
#     Edge 79, Type (0, 1), BuildingBlock: EZIPEK_clean_linker_0, # of connection points: 2
#     Edge 80, Type (0, 1), BuildingBlock: EZIPEK_clean_linker_0, # of connection points: 2
# Relax obj value: 0.032
# Max RMSD: 0.127
# Mean RMSD: 0.096
data_MOF--net-eea--node1-CUWYAW_clean_sbu_0--node2-BELTOD_clean_linker_0--edge1-EZIPEK_clean_linker_0
_symmetry_space_group_name_H-M    P1
_symmetry_Int_Tables_number       1
_symmetry_cell_setting            triclinic
loop_
_symmetry_equiv_pos_as_xyz
'x, y, z'
_cell_length_a     44.479108
_cell_length_b     43.854127
_cell_length_c     68.203712
_cell_angle_alpha  93.95506
_cell_angle_beta   93.505124
_cell_angle_gamma 119.86348
loop_
_atom_site_label
_atom_site_type_symbol
_atom_site_fract_x
_atom_site_fract_y
_atom_site_fract_z
_atom_type_partial_charge
P0 P 0.28015 0.15186 0.39977 0.0
H1 H 0.28088 0.11878 0.36152 0.0
H2 H 0.25141 0.05722 0.34649 0.0
H3 H 0.19969 0.02325 0.3989 0.0
H4 H 0.22693 0.08522 0.41327 0.0
H5 H 0.27934 0.17498 0.36121 0.0
H6 H 0.24959 0.20259 0.34551 0.0
H7 H 0.20306 0.20348 0.39908 0.0
H8 H 0.22979 0.17208 0.41403 0.0
H9 H 0.29228 0.10946 0.42679 0.0
H10 H 0.2862 0.20483 0.43158 0.0
O11 O 0.32019 0.17106 0.39266 0.0
H12 H 0.30232 0.11438 0.46282 0.0
H13 H 0.29539 0.20913 0.46775 0.0
C14 C 0.25708 0.10647 0.3888 0.0
C15 C 0.26292 0.09819 0.36972 0.0
C16 C 0.24612 0.0631 0.36114 0.0
C17 C 0.22378 0.03562 0.3717 0.0
C18 C 0.21703 0.04402 0.39057 0.0
C19 C 0.23289 0.07933 0.39884 0.0
C20 C 0.25809 0.17289 0.38912 0.0
C21 C 0.26261 0.18089 0.36959 0.0
C22 C 0.24566 0.19668 0.36062 0.0
C23 C 0.22466 0.2058 0.37124 0.0
C24 C 0.21951 0.1971 0.39069 0.0
C25 C 0.23527 0.17975 0.39935 0.0
C26 C 0.28583 0.15528 0.42644 0.0
C27 C 0.29192 0.1308 0.43554 0.0
C28 C 0.29797 0.13372 0.45608 0.0
C29 C 0.29876 0.16162 0.46786 0.0
C30 C 0.294 0.18695 0.45884 0.0
C31 C 0.28827 0.18417 0.43822 0.0
P32 P 0.92445 0.11116 0.43672 0.0
H33 H 0.91149 0.04683 0.41312 0.0
H34 H 0.85969 0.99925 0.39276 0.0
H35 H 0.80431 0.0551 0.40356 0.0
H36 H 0.8561 0.10267 0.42428 0.0
H37 H 0.99885 0.14708 0.43218 0.0
H38 H 0.03474 0.19204 0.41136 0.0
H39 H 0.94616 0.20125 0.39115 0.0
H40 H 0.90975 0.15553 0.41184 0.0
H41 H 0.89088 0.07101 0.46839 0.0
H42 H 0.92257 0.17526 0.45201 0.0
O43 O 0.94771 0.0931 0.44453 0.0
H44 H 0.86732 0.08344 0.49745 0.0
H45 H 0.89862 0.18761 0.48118 0.0
C46 C 0.88739 0.07794 0.42044 0.0
C47 C 0.8883 0.04896 0.41111 0.0
C48 C 0.85885 0.02189 0.39948 0.0
C49 C 0.82829 0.02369 0.39684 0.0
C50 C 0.82772 0.05332 0.40554 0.0
C51 C 0.85717 0.08033 0.41732 0.0
C52 C 0.95151 0.14771 0.42344 0.0
C53 C 0.98703 0.1588 0.42342 0.0
C54 C 0.00755 0.18442 0.41152 0.0
C55 C 0.99294 0.19956 0.39959 0.0
C56 C 0.95775 0.18962 0.40019 0.0
C57 C 0.93707 0.16364 0.41199 0.0
C58 C 0.90882 0.12234 0.4582 0.0
C59 C 0.89298 0.09666 0.47113 0.0
C60 C 0.87948 0.10367 0.48765 0.0
C61 C 0.88143 0.13645 0.49146 0.0
C62 C 0.89711 0.16223 0.47848 0.0
C63 C 0.91074 0.15518 0.46189 0.0
P64 P 0.86461 0.71931 0.41464 0.0
H65 H 0.79088 0.69653 0.41256 0.0
H66 H 0.7556 0.7197 0.39798 0.0
H67 H 0.84738 0.80389 0.37771 0.0
H68 H 0.88289 0.78125 0.39267 0.0
H69 H 0.88915 0.69067 0.38363 0.0
H70 H 0.94524 0.71363 0.3701 0.0
H71 H 0.98798 0.8091 0.41051 0.0
H72 H 0.93172 0.78573 0.42446 0.0
H73 H 0.83616 0.74925 0.44339 0.0
H74 H 0.90091 0.70168 0.44475 0.0
O75 O 0.84205 0.67564 0.40817 0.0
H76 H 0.8319 0.74543 0.47881 0.0
H77 H 0.89715 0.69863 0.48045 0.0
C78 C 0.83947 0.73704 0.40366 0.0
C79 C 0.80345 0.71999 0.40499 0.0
C80 C 0.78334 0.73317 0.3967 0.0
C81 C 0.79889 0.76343 0.38674 0.0
C82 C 0.83494 0.7805 0.38535 0.0
C83 C 0.85517 0.76753 0.39387 0.0
C84 C 0.90644 0.7363 0.40526 0.0
C85 C 0.9106 0.71638 0.38979 0.0
C86 C 0.94254 0.72945 0.38201 0.0
C87 C 0.97069 0.76293 0.38937 0.0
C88 C 0.96653 0.78313 0.40472 0.0
C89 C 0.93457 0.76981 0.41268 0.0
C90 C 0.86878 0.72557 0.44132 0.0
C91 C 0.85013 0.73872 0.45128 0.0
C92 C 0.84773 0.73668 0.47156 0.0
C93 C 0.86412 0.72167 0.48217 0.0
C94 C 0.88447 0.71044 0.47249 0.0
C95 C 0.88665 0.71226 0.45216 0.0
P96 P 0.13031 0.27913 0.59717 0.0
H97 H 0.08707 0.30925 0.60655 0.0
H98 H 0.03054 0.28541 0.61962 0.0
H99 H 0.0218 0.18275 0.61786 0.0
H100 H 0.07755 0.20619 0.60359 0.0
H101 H 0.1905 0.27871 0.58264 0.0
H102 H 0.22756 0.25578 0.59474 0.0
H103 H 0.16332 0.21391 0.64185 0.0
H104 H 0.12708 0.23805 0.63033 0.0
H105 H 0.13146 0.33124 0.57246 0.0
H106 H 0.12227 0.22843 0.56378 0.0
O107 O 0.15305 0.32092 0.60775 0.0
H108 H 0.13589 0.33656 0.53707 0.0
H109 H 0.12743 0.23412 0.52832 0.0
C110 C 0.08717 0.25984 0.60491 0.0
C111 C 0.07293 0.28154 0.60882 0.0
C112 C 0.04069 0.26797 0.61626 0.0
C113 C 0.02232 0.23251 0.6201 0.0
C114 C 0.03577 0.2103 0.61524 0.0
C115 C 0.06767 0.22374 0.60727 0.0
C116 C 0.15476 0.25846 0.60491 0.0
C117 C 0.18377 0.26386 0.59528 0.0
C118 C 0.20506 0.25098 0.60221 0.0
C119 C 0.19771 0.23263 0.61893 0.0
C120 C 0.16889 0.22739 0.62867 0.0
C121 C 0.14799 0.24085 0.62194 0.0
C122 C 0.12764 0.27993 0.57078 0.0
C123 C 0.13004 0.30967 0.56292 0.0
C124 C 0.13241 0.31267 0.54275 0.0
C125 C 0.13234 0.2859 0.53019 0.0
C126 C 0.12763 0.25507 0.53783 0.0
C127 C 0.12488 0.25194 0.55802 0.0
P128 P 0.79939 0.88702 0.58642 0.0
H129 H 0.82619 0.91961 0.62698 0.0
H130 H 0.82646 0.96877 0.6465 0.0
H131 H 0.76873 0.98036 0.5973 0.0
H132 H 0.76741 0.93039 0.57792 0.0
H133 H 0.8183 0.8329 0.57999 0.0
H134 H 0.82077 0.79153 0.60155 0.0
H135 H 0.76797 0.81953 0.64395 0.0
H136 H 0.76406 0.85974 0.62198 0.0
H137 H 0.81363 0.89751 0.54549 0.0
H138 H 0.7233 0.84519 0.57712 0.0
O139 O 0.84064 0.90618 0.58118 0.0
H140 H 0.77574 0.88181 0.51457 0.0
H141 H 0.68509 0.82959 0.54588 0.0
C142 C 0.7958 0.92049 0.60122 0.0
C143 C 0.81267 0.93197 0.62055 0.0
C144 C 0.81299 0.9601 0.63165 0.0
C145 C 0.79734 0.97791 0.62338 0.0
C146 C 0.78052 0.96659 0.60401 0.0
C147 C 0.77976 0.93803 0.59299 0.0
C148 C 0.79216 0.85029 0.59973 0.0
C149 C 0.80635 0.82941 0.59365 0.0
C150 C 0.80772 0.8058 0.60591 0.0
C151 C 0.79511 0.80302 0.62447 0.0
C152 C 0.77804 0.82153 0.62974 0.0
C153 C 0.77614 0.84471 0.61728 0.0
C154 C 0.77121 0.87222 0.56356 0.0
C155 C 0.78566 0.88224 0.54577 0.0
C156 C 0.76409 0.87336 0.52812 0.0
C157 C 0.72775 0.85448 0.528 0.0
C158 C 0.71314 0.84398 0.54574 0.0
C159 C 0.73484 0.8528 0.56347 0.0
P160 P 0.13888 0.84053 0.60055 0.0
H161 H 0.18287 0.87685 0.63761 0.0
H162 H 0.2161 0.93949 0.65114 0.0
H163 H 0.17626 0.96698 0.60026 0.0
H164 H 0.14319 0.90426 0.58655 0.0
H165 H 0.09691 0.77069 0.61343 0.0
H166 H 0.04064 0.74241 0.627 0.0
H167 H 0.02946 0.83279 0.61798 0.0
H168 H 0.08595 0.8613 0.60446 0.0
H169 H 0.19423 0.85459 0.57616 0.0
H170 H 0.08525 0.82292 0.56705 0.0
O171 O 0.1608 0.82172 0.60933 0.0
H172 H 0.19733 0.85451 0.5404 0.0
H173 H 0.08844 0.82287 0.53112 0.0
C174 C 0.16132 0.88614 0.61089 0.0
C175 C 0.18119 0.89629 0.62937 0.0
C176 C 0.19991 0.93187 0.63714 0.0
C177 C 0.19853 0.9576 0.62664 0.0
C178 C 0.17748 0.94733 0.60853 0.0
C179 C 0.1589 0.9117 0.60069 0.0
C180 C 0.09582 0.81832 0.60827 0.0
C181 C 0.08234 0.7844 0.61425 0.0
C182 C 0.0503 0.76826 0.62198 0.0
C183 C 0.03126 0.78576 0.62366 0.0
C184 C 0.04404 0.81909 0.61692 0.0
C185 C 0.07618 0.83529 0.60923 0.0
C186 C 0.13942 0.83823 0.57418 0.0
C187 C 0.17091 0.84729 0.56644 0.0
C188 C 0.17273 0.84735 0.54611 0.0
C189 C 0.14311 0.83861 0.53323 0.0
C190 C 0.1115 0.82958 0.54092 0.0
C191 C 0.1097 0.82953 0.56135 0.0
P192 P 0.94983 0.48742 0.73977 0.0
H193 H 0.96535 0.44932 0.70897 0.0
H194 H 0.93575 0.38693 0.69532 0.0
H195 H 0.85357 0.36336 0.73252 0.0
H196 H 0.88318 0.4262 0.74616 0.0
H197 H 0.9582 0.51956 0.70334 0.0
H198 H 0.93105 0.54987 0.68774 0.0
H199 H 0.86867 0.53375 0.73619 0.0
H200 H 0.89487 0.50194 0.75144 0.0
H201 H 0.95195 0.44044 0.76736 0.0
H202 H 0.95642 0.5413 0.77069 0.0
O203 O 0.99089 0.50657 0.73422 0.0
H204 H 0.96164 0.44622 0.80346 0.0
H205 H 0.96536 0.54658 0.80695 0.0
C206 C 0.92674 0.44211 0.72883 0.0
C207 C 0.94091 0.43087 0.71415 0.0
C208 C 0.92401 0.39536 0.70632 0.0
C209 C 0.89262 0.37071 0.71298 0.0
C210 C 0.87777 0.38212 0.72722 0.0
C211 C 0.89467 0.41778 0.735 0.0
C212 C 0.92945 0.50969 0.72888 0.0
C213 C 0.93878 0.52262 0.71067 0.0
C214 C 0.92326 0.5398 0.70174 0.0
C215 C 0.89822 0.54441 0.71095 0.0
C216 C 0.88819 0.53069 0.72898 0.0
C217 C 0.90332 0.51286 0.73773 0.0
C218 C 0.95203 0.48977 0.76632 0.0
C219 C 0.95396 0.46331 0.77582 0.0
C220 C 0.95967 0.46664 0.7964 0.0
C221 C 0.96382 0.49661 0.80776 0.0
C222 C 0.96171 0.52305 0.79835 0.0
C223 C 0.95638 0.51988 0.77771 0.0
P224 P 0.57884 0.44394 0.76339 0.0
H225 H 0.56599 0.4188 0.72117 0.0
H226 H 0.51675 0.36773 0.70158 0.0
H227 H 0.4565 0.34775 0.75119 0.0
H228 H 0.50628 0.39837 0.77121 0.0
H229 H 0.62889 0.44519 0.73783 0.0
H230 H 0.67165 0.49069 0.71972 0.0
H231 H 0.63928 0.56351 0.74114 0.0
H232 H 0.59564 0.51754 0.75897 0.0
H233 H 0.59758 0.44718 0.80556 0.0
H234 H 0.53648 0.47753 0.76891 0.0
O235 O 0.59746 0.4211 0.77074 0.0
H236 H 0.57691 0.4623 0.83503 0.0
H237 H 0.51669 0.4939 0.7987 0.0
C238 C 0.53984 0.41289 0.74764 0.0
C239 C 0.54205 0.40425 0.7278 0.0
C240 C 0.51393 0.37506 0.71657 0.0
C241 C 0.4832 0.35413 0.725 0.0
C242 C 0.48003 0.36389 0.74445 0.0
C243 C 0.50843 0.39284 0.75581 0.0
C244 C 0.60934 0.47805 0.74994 0.0
C245 C 0.6307 0.47081 0.73855 0.0
C246 C 0.65491 0.49663 0.72811 0.0
C247 C 0.65843 0.5303 0.72905 0.0
C248 C 0.63665 0.53751 0.74014 0.0
C249 C 0.61196 0.51136 0.75041 0.0
C250 C 0.5684 0.46108 0.78504 0.0
C251 C 0.58025 0.4577 0.80384 0.0
C252 C 0.56852 0.46633 0.82067 0.0
C253 C 0.54515 0.47889 0.81894 0.0
C254 C 0.53473 0.48418 0.80023 0.0
C255 C 0.54609 0.47499 0.78332 0.0
P256 P 0.5326 0.05291 0.75296 0.0
H257 H 0.46485 0.01671 0.72874 0.0
H258 H 0.43012 0.03855 0.71203 0.0
H259 H 0.51037 0.14603 0.73214 0.0
H260 H 0.54528 0.12419 0.74894 0.0
H261 H 0.55351 0.02326 0.72065 0.0
H262 H 0.6081 0.04519 0.70544 0.0
H263 H 0.65528 0.14073 0.74613 0.0
H264 H 0.6005 0.11873 0.76145 0.0
H265 H 0.49277 0.07153 0.77887 0.0
H266 H 0.58102 0.05646 0.78512 0.0
O267 O 0.51104 0.00875 0.7495 0.0
H268 H 0.49523 0.08114 0.81401 0.0
H269 H 0.58401 0.06555 0.82039 0.0
C270 C 0.50764 0.06889 0.74006 0.0
C271 C 0.47514 0.04497 0.7295 0.0
C272 C 0.45534 0.05737 0.71995 0.0
C273 C 0.46781 0.09383 0.72085 0.0
C274 C 0.50048 0.11781 0.73124 0.0
C275 C 0.5203 0.10537 0.7408 0.0
C276 C 0.5733 0.069 0.74249 0.0
C277 C 0.57564 0.04879 0.72644 0.0
C278 C 0.60664 0.06133 0.71768 0.0
C279 C 0.63561 0.09447 0.72473 0.0
C280 C 0.63313 0.11505 0.74056 0.0
C281 C 0.60204 0.10244 0.74934 0.0
C282 C 0.53823 0.0657 0.77922 0.0
C283 C 0.51412 0.07237 0.78789 0.0
C284 C 0.51621 0.07874 0.80843 0.0
C285 C 0.54317 0.07968 0.82117 0.0
C286 C 0.56562 0.07015 0.81204 0.0
C287 C 0.56352 0.06391 0.79145 0.0
P288 P 0.80794 0.62627 0.93296 0.0
H289 H 0.77114 0.66187 0.94664 0.0
H290 H 0.71453 0.64064 0.95947 0.0
H291 H 0.69458 0.53353 0.95091 0.0
H292 H 0.75083 0.55469 0.93745 0.0
H293 H 0.86251 0.61638 0.91693 0.0
H294 H 0.89662 0.59039 0.92946 0.0
H295 H 0.8368 0.56045 0.97923 0.0
H296 H 0.80315 0.58702 0.96701 0.0
H297 H 0.81608 0.68087 0.90822 0.0
H298 H 0.7921 0.57276 0.89943 0.0
O299 O 0.83365 0.66798 0.94322 0.0
H300 H 0.8123 0.68286 0.87312 0.0
H301 H 0.78891 0.57408 0.86432 0.0
C302 C 0.76564 0.60996 0.94167 0.0
C303 C 0.75466 0.63381 0.94754 0.0
C304 C 0.7224 0.62175 0.95487 0.0
C305 C 0.70065 0.58561 0.95651 0.0
C306 C 0.71119 0.56159 0.95003 0.0
C307 C 0.74327 0.57364 0.94241 0.0
C308 C 0.82922 0.60237 0.94056 0.0
C309 C 0.85605 0.60343 0.93026 0.0
C310 C 0.87565 0.58881 0.93744 0.0
C311 C 0.86887 0.57318 0.95512 0.0
C312 C 0.842 0.57195 0.9654 0.0
C313 C 0.82263 0.58687 0.95831 0.0
C314 C 0.80363 0.62644 0.90649 0.0
C315 C 0.80885 0.65702 0.89859 0.0
C316 C 0.80559 0.65764 0.87814 0.0
C317 C 0.7952 0.62709 0.8647 0.0
C318 C 0.79234 0.59711 0.87309 0.0
C319 C 0.79536 0.59648 0.89362 0.0
P320 P 0.4752 0.22478 0.9159 0.0
H321 H 0.49174 0.25033 0.95814 0.0
H322 H 0.49335 0.30048 0.97727 0.0
H323 H 0.45409 0.32474 0.92485 0.0
H324 H 0.45117 0.27362 0.90572 0.0
H325 H 0.50761 0.18128 0.91383 0.0
H326 H 0.50908 0.13956 0.93547 0.0
H327 H 0.43405 0.14785 0.96923 0.0
H328 H 0.43175 0.18886 0.94716 0.0
H329 H 0.48621 0.22783 0.87418 0.0
H330 H 0.39884 0.18525 0.90869 0.0
O331 O 0.51592 0.24578 0.9098 0.0
H332 H 0.4462 0.20967 0.84392 0.0
H333 H 0.35852 0.16686 0.87809 0.0
C334 C 0.47014 0.25735 0.93062 0.0
C335 C 0.482 0.26536 0.95087 0.0
C336 C 0.48308 0.29407 0.96179 0.0
C337 C 0.47339 0.31591 0.95249 0.0
C338 C 0.46106 0.30774 0.93231 0.0
C339 C 0.45942 0.27859 0.92144 0.0
C340 C 0.47055 0.18909 0.92939 0.0
C341 C 0.491 0.17368 0.92567 0.0
C342 C 0.49179 0.14984 0.93794 0.0
C343 C 0.4721 0.14116 0.95409 0.0
C344 C 0.44956 0.15446 0.9569 0.0
C345 C 0.44844 0.17797 0.94441 0.0
C346 C 0.44541 0.20787 0.89366 0.0
C347 C 0.45843 0.21418 0.87525 0.0
C348 C 0.43566 0.20381 0.85798 0.0
C349 C 0.39957 0.18693 0.85886 0.0
C350 C 0.38635 0.17971 0.87721 0.0
C351 C 0.40926 0.19017 0.89457 0.0
P352 P 0.8056 0.17603 0.93531 0.0
H353 H 0.85359 0.21411 0.97098 0.0
H354 H 0.88762 0.27707 0.98364 0.0
H355 H 0.84446 0.30262 0.93332 0.0
H356 H 0.8104 0.23941 0.92048 0.0
H357 H 0.74865 0.10298 0.92978 0.0
H358 H 0.69165 0.0731 0.94272 0.0
H359 H 0.70951 0.17377 0.96904 0.0
H360 H 0.76633 0.20366 0.95624 0.0
H361 H 0.85914 0.17758 0.91257 0.0
H362 H 0.75756 0.16633 0.90048 0.0
O363 O 0.82465 0.1557 0.94575 0.0
H364 H 0.86451 0.17432 0.87703 0.0
H365 H 0.763 0.16307 0.86474 0.0
C366 C 0.83009 0.22225 0.9446 0.0
C367 C 0.85149 0.23317 0.9626 0.0
C368 C 0.87075 0.26899 0.96987 0.0
C369 C 0.8685 0.29428 0.95935 0.0
C370 C 0.84645 0.28335 0.94157 0.0
C371 C 0.82725 0.24744 0.93425 0.0
C372 C 0.76173 0.15548 0.94201 0.0
C373 C 0.74005 0.11868 0.93806 0.0
C374 C 0.70769 0.10165 0.94546 0.0
C375 C 0.69662 0.12131 0.95689 0.0
C376 C 0.71772 0.15825 0.96025 0.0
C377 C 0.75012 0.17525 0.95289 0.0
C378 C 0.80767 0.17146 0.90909 0.0
C379 C 0.83784 0.174 0.90225 0.0
C380 C 0.84097 0.17227 0.88202 0.0
C381 C 0.81411 0.16832 0.86834 0.0
C382 C 0.7839 0.16595 0.87514 0.0
C383 C 0.78077 0.16769 0.89546 0.0
P384 P 0.6133 0.82052 0.07209 0.0
H385 H 0.64284 0.77659 0.05993 0.0
H386 H 0.61608 0.7143 0.04618 0.0
H387 H 0.51384 0.70116 0.04934 0.0
H388 H 0.54056 0.76369 0.06286 0.0
H389 H 0.58666 0.81582 0.03146 0.0
H390 H 0.55857 0.84479 0.01521 0.0
H391 H 0.56205 0.89804 0.07159 0.0
H392 H 0.58989 0.86877 0.08796 0.0
H393 H 0.57391 0.77096 0.10044 0.0
H394 H 0.65825 0.87878 0.10242 0.0
O395 O 0.65387 0.84228 0.06583 0.0
H396 H 0.58239 0.77505 0.13657 0.0
H397 H 0.66643 0.88284 0.13867 0.0
C398 C 0.59363 0.7748 0.06209 0.0
C399 C 0.61469 0.76043 0.05756 0.0
C400 C 0.5995 0.72498 0.04978 0.0
C401 C 0.5631 0.70341 0.04672 0.0
C402 C 0.54199 0.71758 0.05157 0.0
C403 C 0.55721 0.75314 0.0592 0.0
C404 C 0.58986 0.8397 0.06094 0.0
C405 C 0.58093 0.8333 0.04039 0.0
C406 C 0.56504 0.84986 0.03111 0.0
C407 C 0.55825 0.87342 0.04223 0.0
C408 C 0.56701 0.87979 0.06282 0.0
C409 C 0.58283 0.86305 0.07213 0.0
C410 C 0.6159 0.82442 0.0987 0.0
C411 C 0.59396 0.79561 0.10857 0.0
C412 C 0.59866 0.79792 0.12919 0.0
C413 C 0.62509 0.82918 0.14016 0.0
C414 C 0.64591 0.85853 0.13038 0.0
C415 C 0.6413 0.85615 0.10976 0.0
P416 P 0.26251 0.77514 0.09963 0.0
H417 H 0.24484 0.70475 0.08199 0.0
H418 H 0.19254 0.65693 0.06215 0.0
H419 H 0.14615 0.72295 0.0621 0.0
H420 H 0.19858 0.771 0.08212 0.0
H421 H 0.32874 0.79571 0.08404 0.0
H422 H 0.364 0.84189 0.06365 0.0
H423 H 0.28915 0.87716 0.06272 0.0
H424 H 0.25377 0.83092 0.08344 0.0
H425 H 0.20246 0.7386 0.12141 0.0
H426 H 0.29255 0.84338 0.12453 0.0
O427 O 0.28596 0.75811 0.10866 0.0
H428 H 0.18527 0.75635 0.15154 0.0
H429 H 0.27517 0.86109 0.1549 0.0
C430 C 0.22538 0.74124 0.08366 0.0
C431 C 0.2236 0.70913 0.07764 0.0
C432 C 0.19385 0.6819 0.06631 0.0
C433 C 0.16566 0.68656 0.06075 0.0
C434 C 0.16778 0.71904 0.06627 0.0
C435 C 0.1976 0.74632 0.07763 0.0
C436 C 0.28891 0.81025 0.08545 0.0
C437 C 0.31998 0.81352 0.07966 0.0
C438 C 0.34004 0.83974 0.06799 0.0
C439 C 0.32916 0.86289 0.06182 0.0
C440 C 0.29795 0.85957 0.06748 0.0
C441 C 0.27788 0.8333 0.07925 0.0
C442 C 0.24821 0.78998 0.1204 0.0
C443 C 0.21815 0.76563 0.12831 0.0
C444 C 0.20842 0.77564 0.14555 0.0
C445 C 0.22891 0.80998 0.1553 0.0
C446 C 0.25899 0.83453 0.14742 0.0
C447 C 0.26874 0.82446 0.1301 0.0
P448 P 0.19793 0.37701 0.07811 0.0
H449 H 0.17148 0.37867 0.03835 0.0
H450 H 0.13629 0.40336 0.02553 0.0
H451 H 0.1368 0.44485 0.08482 0.0
H452 H 0.17251 0.42082 0.09762 0.0
H453 H 0.25351 0.36101 0.08496 0.0
H454 H 0.31127 0.38468 0.0731 0.0
H455 H 0.29728 0.4631 0.04567 0.0
H456 H 0.23988 0.43986 0.05767 0.0
H457 H 0.14262 0.32888 0.09983 0.0
H458 H 0.24639 0.41903 0.11373 0.0
O459 O 0.17823 0.33581 0.0667 0.0
H460 H 0.13698 0.32436 0.1352 0.0
H461 H 0.24076 0.41431 0.14928 0.0
C462 C 0.17426 0.39754 0.06893 0.0
C463 C 0.16422 0.39328 0.04858 0.0
C464 C 0.14421 0.40732 0.04127 0.0
C465 C 0.13382 0.42569 0.05426 0.0
C466 C 0.14452 0.43065 0.0746 0.0
C467 C 0.16482 0.41686 0.08188 0.0
C468 C 0.24234 0.39855 0.07216 0.0
C469 C 0.26314 0.38371 0.0767 0.0
C470 C 0.29598 0.39711 0.06993 0.0
C471 C 0.30834 0.42545 0.05842 0.0
C472 C 0.28811 0.44117 0.05451 0.0
C473 C 0.25532 0.42784 0.06135 0.0
C474 C 0.19516 0.3738 0.10419 0.0
C475 C 0.16429 0.34749 0.11049 0.0
C476 C 0.16101 0.34496 0.13062 0.0
C477 C 0.18849 0.36891 0.14477 0.0
C478 C 0.21935 0.39555 0.13852 0.0
C479 C 0.22258 0.39812 0.1183 0.0
P480 P 0.45832 0.93982 0.25494 0.0
H481 H 0.43639 0.97371 0.2846 0.0
H482 H 0.38205 0.9536 0.29979 0.0
H483 H 0.33705 0.85193 0.26502 0.0
H484 H 0.39133 0.87246 0.24927 0.0
H485 H 0.53297 0.97369 0.26747 0.0
H486 H 0.56925 0.95268 0.28318 0.0
H487 H 0.47803 0.85021 0.28425 0.0
H488 H 0.44159 0.87111 0.26837 0.0
H489 H 0.41072 0.9399 0.22369 0.0
H490 H 0.49518 0.91868 0.22795 0.0
O491 O 0.48042 0.98398 0.25847 0.0
H492 H 0.40787 0.93374 0.18838 0.0
H493 H 0.49293 0.91208 0.19273 0.0
C494 C 0.41778 0.92469 0.26565 0.0
C495 C 0.41481 0.94721 0.28004 0.0
C496 C 0.38386 0.93576 0.28876 0.0
C497 C 0.35561 0.90136 0.2835 0.0
C498 C 0.35862 0.8786 0.26924 0.0
C499 C 0.38949 0.89029 0.26028 0.0
C500 C 0.48443 0.92421 0.26713 0.0
C501 C 0.52062 0.94679 0.27121 0.0
C502 C 0.54137 0.93482 0.2801 0.0
C503 C 0.52626 0.89999 0.28494 0.0
C504 C 0.49009 0.87723 0.28068 0.0
C505 C 0.46933 0.88921 0.27171 0.0
C506 C 0.45168 0.92764 0.22857 0.0
C507 C 0.42733 0.93173 0.21686 0.0
C508 C 0.42532 0.92726 0.19619 0.0
C509 C 0.44691 0.91729 0.1864 0.0
C510 C 0.47265 0.9153 0.19869 0.0
C511 C 0.47463 0.91987 0.21931 0.0
P512 P 0.12786 0.55561 0.25476 0.0
H513 H 0.1609 0.59094 0.29394 0.0
H514 H 0.16355 0.64108 0.31385 0.0
H515 H 0.09186 0.644 0.26957 0.0
H516 H 0.08899 0.59363 0.24959 0.0
H517 H 0.14977 0.50383 0.24818 0.0
H518 H 0.15204 0.46153 0.26908 0.0
H519 H 0.09512 0.48459 0.31088 0.0
H520 H 0.09226 0.52649 0.2898 0.0
H521 H 0.14016 0.57262 0.21446 0.0
H522 H 0.05225 0.50772 0.24547 0.0
O523 O 0.16883 0.57535 0.24902 0.0
H524 H 0.10145 0.55518 0.18374 0.0
H525 H 0.01312 0.49047 0.21444 0.0
C526 C 0.12446 0.58827 0.27042 0.0
C527 C 0.14503 0.60172 0.28872 0.0
C528 C 0.14652 0.63023 0.30008 0.0
C529 C 0.12765 0.64589 0.29322 0.0
C530 C 0.10618 0.63184 0.27518 0.0
C531 C 0.10466 0.60318 0.2638 0.0
C532 C 0.12169 0.51891 0.26773 0.0
C533 C 0.13705 0.49918 0.2616 0.0
C534 C 0.13829 0.47505 0.27346 0.0
C535 C 0.12406 0.47032 0.29157 0.0
C536 C 0.10628 0.48801 0.29696 0.0
C537 C 0.10486 0.51203 0.285 0.0
C538 C 0.09908 0.54101 0.23216 0.0
C539 C 0.11258 0.55433 0.21464 0.0
C540 C 0.09053 0.54447 0.19711 0.0
C541 C 0.05459 0.52138 0.19685 0.0
C542 C 0.04089 0.50808 0.21439 0.0
C543 C 0.06312 0.51786 0.232 0.0
P544 P 0.46491 0.51517 0.26671 0.0
H545 H 0.51721 0.55217 0.30093 0.0
H546 H 0.55341 0.61497 0.31359 0.0
H547 H 0.50376 0.64214 0.26721 0.0
H548 H 0.46748 0.5791 0.25438 0.0
H549 H 0.40768 0.44255 0.2592 0.0
H550 H 0.35043 0.41139 0.27172 0.0
H551 H 0.36794 0.51025 0.30072 0.0
H552 H 0.42525 0.54141 0.28845 0.0
H553 H 0.51742 0.51458 0.24382 0.0
H554 H 0.41955 0.5117 0.23219 0.0
O555 O 0.48318 0.49369 0.27661 0.0
H556 H 0.52408 0.51443 0.20842 0.0
H557 H 0.42636 0.51167 0.19657 0.0
C558 C 0.49003 0.56109 0.27657 0.0
C559 C 0.51402 0.57152 0.29345 0.0
C560 C 0.53464 0.60727 0.30068 0.0
C561 C 0.53128 0.63297 0.29123 0.0
C562 C 0.5067 0.62255 0.27461 0.0
C563 C 0.48613 0.58672 0.26732 0.0
C564 C 0.42069 0.49424 0.27286 0.0
C565 C 0.39893 0.45763 0.26793 0.0
C566 C 0.36638 0.43987 0.27506 0.0
C567 C 0.35515 0.45861 0.28712 0.0
C568 C 0.37623 0.49546 0.29136 0.0
C569 C 0.40891 0.51319 0.28433 0.0
C570 C 0.46761 0.51231 0.24052 0.0
C571 C 0.49716 0.51345 0.23362 0.0
C572 C 0.50108 0.51357 0.21348 0.0
C573 C 0.47569 0.51297 0.19999 0.0
C574 C 0.44613 0.51203 0.20684 0.0
C575 C 0.44219 0.51185 0.22707 0.0
C576 C 0.5385 0.02104 0.06435 0.0
Eu577 Eu 0.51858 0.01885 0.02733 0.0
C578 C 0.52194 0.00039 0.08064 0.0
C579 C 0.53434 0.01573 0.10029 0.0
C580 C 0.51809 0.9969 0.1159 0.0
C581 C 0.48915 0.96255 0.11205 0.0
C582 C 0.47674 0.9471 0.09241 0.0
C583 C 0.49303 0.9659 0.0768 0.0
C584 C 0.50065 0.06104 0.00904 0.0
C585 C 0.43426 0.96095 0.01829 0.0
C586 C 0.461 0.98714 0.94693 0.0
Eu587 Eu 0.48199 0.98984 0.9838 0.0
C588 C 0.47681 0.00636 0.93001 0.0
C589 C 0.47088 0.98734 0.91141 0.0
C590 C 0.48564 0.00508 0.8952 0.0
C591 C 0.50657 0.04208 0.89738 0.0
C592 C 0.51274 0.0612 0.91598 0.0
C593 C 0.49785 0.04349 0.93217 0.0
C594 C 0.50042 0.94837 0.00257 0.0
C595 C 0.56684 0.04714 0.99224 0.0
O596 O 0.54477 0.00454 0.04982 0.0
O597 O 0.52573 0.04031 0.05815 0.0
O598 O 0.52582 0.07289 0.02334 0.0
O599 O 0.48391 0.02766 0.00727 0.0
O600 O 0.46352 0.97526 0.0304 0.0
O601 O 0.43375 0.96635 0.99949 0.0
O602 O 0.45669 0.00518 0.9615 0.0
O603 O 0.47224 0.96654 0.95306 0.0
O604 O 0.4731 0.93561 0.98957 0.0
O605 O 0.51769 0.98165 0.00362 0.0
O606 O 0.53803 0.02969 0.9797 0.0
O607 O 0.56673 0.04604 0.01162 0.0
H608 H 0.55647 0.04234 0.10354 0.0
H609 H 0.52799 0.00915 0.13099 0.0
H610 H 0.45443 0.92058 0.0892 0.0
H611 H 0.48299 0.95355 0.06176 0.0
H612 H 0.45477 0.95875 0.90942 0.0
H613 H 0.4807 0.98997 0.88093 0.0
H614 H 0.52888 0.08979 0.91791 0.0
H615 H 0.50271 0.05884 0.94633 0.0
C616 C 0.9591 0.49932 0.05724 0.0
Eu617 Eu 0.98376 0.49448 0.0241 0.0
C618 C 0.96731 0.49631 0.07794 0.0
C619 C 0.94647 0.49731 0.0923 0.0
C620 C 0.9561 0.4978 0.1123 0.0
C621 C 0.98693 0.49775 0.1181 0.0
C622 C 0.00708 0.49551 0.10363 0.0
C623 C 0.99724 0.49462 0.08367 0.0
C624 C 0.96016 0.43484 0.99851 0.0
C625 C 0.04465 0.4761 0.02242 0.0
C626 C 0.03697 0.50732 0.95143 0.0
Eu627 Eu 0.01965 0.50605 0.98724 0.0
C628 C 0.02235 0.50549 0.93107 0.0
C629 C 0.01468 0.53135 0.92538 0.0
C630 C 0.00324 0.53044 0.90569 0.0
C631 C 0.99905 0.50355 0.89148 0.0
C632 C 0.00575 0.47721 0.89719 0.0
C633 C 0.01745 0.47826 0.91684 0.0
C634 C 0.05726 0.55734 0.01783 0.0
C635 C 0.95651 0.52261 0.98858 0.0
O636 O 0.98349 0.52641 0.0499 0.0
O637 O 0.94528 0.47033 0.04499 0.0
O638 O 0.96377 0.43597 0.01759 0.0
O639 O 0.96764 0.46494 0.99378 0.0
O640 O 0.02938 0.48788 0.03425 0.0
O641 O 0.04037 0.47533 0.00302 0.0
O642 O 0.02198 0.47831 0.96006 0.0
O643 O 0.04594 0.53583 0.96342 0.0
O644 O 0.07052 0.54531 0.00521 0.0
O645 O 0.0248 0.54294 0.01312 0.0
O646 O 0.98155 0.52396 0.97862 0.0
O647 O 0.9511 0.51094 0.00606 0.0
H648 H 0.92327 0.49858 0.0881 0.0
H649 H 0.94023 0.49941 0.1233 0.0
H650 H 0.03087 0.49533 0.10785 0.0
H651 H 0.01349 0.49355 0.07277 0.0
H652 H 0.01809 0.55263 0.93603 0.0
H653 H 0.99823 0.55098 0.90144 0.0
H654 H 0.00277 0.4564 0.88633 0.0
H655 H 0.02328 0.45813 0.92085 0.0
C656 C 0.45842 0.48768 0.95021 0.0
Eu657 Eu 0.48377 0.49976 0.98717 0.0
C658 C 0.47116 0.48856 0.93071 0.0
C659 C 0.46296 0.50516 0.91614 0.0
C660 C 0.47451 0.50592 0.89748 0.0
C661 C 0.49467 0.49035 0.89328 0.0
C662 C 0.50314 0.47401 0.90785 0.0
C663 C 0.49127 0.4729 0.9264 0.0
C664 C 0.50243 0.55738 0.01333 0.0
C665 C 0.56825 0.53088 0.99023 0.0
C666 C 0.54622 0.51252 0.06324 0.0
Eu667 Eu 0.52164 0.50191 0.02617 0.0
C668 C 0.53411 0.51556 0.08249 0.0
C669 C 0.49863 0.50323 0.08413 0.0
C670 C 0.48711 0.50398 0.10267 0.0
C671 C 0.51095 0.51706 0.11979 0.0
C672 C 0.54652 0.53029 0.11812 0.0
C673 C 0.55803 0.52954 0.09956 0.0
C674 C 0.50678 0.44593 1.0001 0.0
C675 C 0.43701 0.47347 0.02209 0.0
O676 O 0.45645 0.46295 0.96069 0.0
O677 O 0.47059 0.51823 0.96084 0.0
O678 O 0.47368 0.54152 0.00139 0.0
O679 O 0.52065 0.5433 0.01011 0.0
O680 O 0.53884 0.52099 0.97908 0.0
O681 O 0.56889 0.52796 0.00944 0.0
O682 O 0.55347 0.53824 0.05235 0.0
O683 O 0.529 0.48127 0.05299 0.0
O684 O 0.53403 0.4616 0.01308 0.0
O685 O 0.48682 0.4584 0.00274 0.0
O686 O 0.4667 0.48648 0.03368 0.0
O687 O 0.43606 0.47243 0.00274 0.0
H688 H 0.44738 0.51728 0.91917 0.0
H689 H 0.46761 0.51841 0.88629 0.0
H690 H 0.51844 0.46161 0.90472 0.0
H691 H 0.49752 0.45947 0.93727 0.0
H692 H 0.47972 0.49232 0.07117 0.0
H693 H 0.45958 0.49369 0.10373 0.0
H694 H 0.56521 0.54046 0.13123 0.0
H695 H 0.58548 0.53918 0.09858 0.0
C696 C 0.20624 0.35312 0.39589 0.0
Eu697 Eu 0.18181 0.35056 0.35985 0.0
C698 C 0.19163 0.33908 0.41425 0.0
C699 C 0.16463 0.34316 0.42134 0.0
C700 C 0.15285 0.33179 0.43946 0.0
C701 C 0.16756 0.31579 0.45062 0.0
C702 C 0.1934 0.31027 0.44312 0.0
C703 C 0.20545 0.32199 0.42511 0.0
C704 C 0.1588 0.39065 0.34371 0.0
C705 C 0.09765 0.29302 0.35353 0.0
C706 C 0.11759 0.31897 0.28117 0.0
Eu707 Eu 0.14213 0.32146 0.31727 0.0
C708 C 0.13096 0.32743 0.26191 0.0
C709 C 0.16656 0.34143 0.25988 0.0
C710 C 0.17888 0.35006 0.24148 0.0
C711 C 0.15566 0.34463 0.22493 0.0
C712 C 0.12014 0.33074 0.22702 0.0
C713 C 0.10788 0.32222 0.2454 0.0
C714 C 0.16514 0.28166 0.33376 0.0
C715 C 0.22729 0.37892 0.32355 0.0
O716 O 0.203 0.32988 0.38155 0.0
O717 O 0.20078 0.37773 0.38966 0.0
O718 O 0.18529 0.4034 0.35721 0.0
O719 O 0.14342 0.3573 0.34171 0.0
O720 O 0.12769 0.30743 0.36492 0.0
O721 O 0.09572 0.2987 0.3348 0.0
O722 O 0.12808 0.34608 0.29461 0.0
O723 O 0.11754 0.29193 0.28828 0.0
O724 O 0.13676 0.26815 0.32154 0.0
O725 O 0.18105 0.31502 0.33515 0.0
O726 O 0.19807 0.35925 0.31154 0.0
O727 O 0.22818 0.37928 0.34301 0.0
H728 H 0.15312 0.35579 0.41311 0.0
H729 H 0.13286 0.3362 0.44502 0.0
H730 H 0.20502 0.29796 0.45155 0.0
H731 H 0.22607 0.31834 0.41985 0.0
H732 H 0.18478 0.34569 0.27247 0.0
H733 H 0.20639 0.36085 0.24012 0.0
H734 H 0.10193 0.32645 0.21439 0.0
H735 H 0.08038 0.31162 0.24674 0.0
C736 C 0.62483 0.83369 0.38977 0.0
Eu737 Eu 0.64946 0.83133 0.35623 0.0
C738 C 0.6351 0.83194 0.41034 0.0
C739 C 0.61713 0.83604 0.42554 0.0
C740 C 0.62853 0.83709 0.44529 0.0
C741 C 0.65823 0.83436 0.44999 0.0
C742 C 0.67564 0.82935 0.43473 0.0
C743 C 0.66407 0.82803 0.41502 0.0
C744 C 0.62681 0.7729 0.32981 0.0
C745 C 0.71096 0.81432 0.35336 0.0
C746 C 0.70451 0.85159 0.28418 0.0
Eu747 Eu 0.68535 0.84604 0.31971 0.0
C748 C 0.68974 0.84829 0.26374 0.0
C749 C 0.71186 0.86862 0.25022 0.0
C750 C 0.69894 0.86505 0.23051 0.0
C751 C 0.6637 0.84105 0.22405 0.0
C752 C 0.6413 0.82113 0.23764 0.0
C753 C 0.65423 0.82481 0.25742 0.0
C754 C 0.72233 0.89596 0.35112 0.0
C755 C 0.61895 0.85758 0.32131 0.0
O756 O 0.64688 0.86176 0.38206 0.0
O757 O 0.61294 0.8048 0.37765 0.0
O758 O 0.63142 0.77351 0.34882 0.0
O759 O 0.63355 0.80307 0.32554 0.0
O760 O 0.6961 0.82596 0.3656 0.0
O761 O 0.7058 0.81383 0.33403 0.0
O762 O 0.69263 0.82242 0.29264 0.0
O763 O 0.70877 0.87848 0.29605 0.0
O764 O 0.73593 0.8849 0.33823 0.0
O765 O 0.6899 0.88135 0.34631 0.0
O766 O 0.64486 0.86106 0.31143 0.0
O767 O 0.61411 0.84507 0.33859 0.0
H768 H 0.59473 0.83912 0.42216 0.0
H769 H 0.61483 0.84095 0.45693 0.0
H770 H 0.69859 0.8272 0.43811 0.0
H771 H 0.67818 0.82471 0.40346 0.0
H772 H 0.73927 0.88693 0.25487 0.0
H773 H 0.71655 0.88054 0.22019 0.0
H774 H 0.61405 0.80242 0.23284 0.0
H775 H 0.6367 0.80902 0.26769 0.0
C776 C 0.12136 0.80237 0.28007 0.0
Eu777 Eu 0.1447 0.82543 0.31706 0.0
C778 C 0.13771 0.80843 0.26152 0.0
C779 C 0.16236 0.8427 0.25764 0.0
C780 C 0.17934 0.84761 0.24055 0.0
C781 C 0.17201 0.8183 0.22727 0.0
C782 C 0.14723 0.78417 0.23103 0.0
C783 C 0.13015 0.77927 0.24804 0.0
C784 C 0.16785 0.89155 0.33509 0.0
C785 C 0.22945 0.85803 0.32204 0.0
C786 C 0.21021 0.86708 0.39528 0.0
Eu787 Eu 0.18445 0.84252 0.35857 0.0
C788 C 0.19735 0.86124 0.41477 0.0
C789 C 0.1621 0.8375 0.41652 0.0
C790 C 0.15013 0.83224 0.43517 0.0
C791 C 0.17337 0.85072 0.45224 0.0
C792 C 0.20857 0.87455 0.45046 0.0
C793 C 0.22049 0.87976 0.43182 0.0
C794 C 0.16277 0.77693 0.34018 0.0
C795 C 0.09949 0.81042 0.35326 0.0
O796 O 0.12986 0.78516 0.29207 0.0
O797 O 0.12041 0.82903 0.2893 0.0
O798 O 0.13901 0.87384 0.32335 0.0
O799 O 0.18384 0.87467 0.33551 0.0
O800 O 0.19933 0.83799 0.31089 0.0
O801 O 0.23061 0.86828 0.34093 0.0
O802 O 0.19788 0.88193 0.38378 0.0
O803 O 0.21148 0.8408 0.38584 0.0
O804 O 0.19099 0.79463 0.3524 0.0
O805 O 0.14608 0.79317 0.33988 0.0
O806 O 0.12951 0.82922 0.36471 0.0
O807 O 0.09818 0.80097 0.33426 0.0
H808 H 0.16886 0.86562 0.2679 0.0
H809 H 0.19851 0.87409 0.23783 0.0
H810 H 0.14135 0.76133 0.22086 0.0
H811 H 0.11145 0.75266 0.25084 0.0
H812 H 0.14394 0.82314 0.40348 0.0
H813 H 0.12287 0.81381 0.43631 0.0
H814 H 0.22678 0.88901 0.46352 0.0
H815 H 0.24775 0.89823 0.4307 0.0
C816 C 0.88087 0.69541 0.73402 0.0
Eu817 Eu 0.85836 0.69192 0.69726 0.0
C818 C 0.86473 0.68484 0.75247 0.0
C819 C 0.88508 0.68689 0.7696 0.0
C820 C 0.8697 0.67545 0.78698 0.0
C821 C 0.83371 0.66159 0.78737 0.0
C822 C 0.81333 0.65946 0.77021 0.0
C823 C 0.82876 0.67118 0.75292 0.0
C824 C 0.8349 0.73034 0.67935 0.0
C825 C 0.77462 0.63108 0.69071 0.0
C826 C 0.79524 0.65725 0.61789 0.0
Eu827 Eu 0.819 0.66093 0.65434 0.0
C828 C 0.80959 0.6708 0.59931 0.0
C829 C 0.83434 0.6639 0.59132 0.0
C830 C 0.84543 0.67446 0.57294 0.0
C831 C 0.83221 0.69233 0.56234 0.0
C832 C 0.80857 0.70049 0.57061 0.0
C833 C 0.79729 0.68972 0.58894 0.0
C834 C 0.84281 0.62208 0.67141 0.0
C835 C 0.9037 0.71701 0.6611 0.0
O836 O 0.87374 0.66929 0.72054 0.0
O837 O 0.87967 0.72161 0.72656 0.0
O838 O 0.8627 0.74448 0.6921 0.0
O839 O 0.8195 0.69704 0.67838 0.0
O840 O 0.80353 0.65216 0.70252 0.0
O841 O 0.77273 0.63112 0.67124 0.0
O842 O 0.79765 0.6805 0.63197 0.0
O843 O 0.80131 0.63331 0.62458 0.0
O844 O 0.81633 0.60861 0.65784 0.0
O845 O 0.85749 0.65539 0.67316 0.0
O846 O 0.87379 0.70396 0.64964 0.0
O847 O 0.90488 0.71216 0.68002 0.0
H848 H 0.91282 0.69713 0.76951 0.0
H849 H 0.88578 0.67722 0.80008 0.0
H850 H 0.78551 0.64879 0.77023 0.0
H851 H 0.81256 0.66942 0.73992 0.0
H852 H 0.84457 0.64965 0.59903 0.0
H853 H 0.86369 0.66798 0.56676 0.0
H854 H 0.79807 0.7142 0.56258 0.0
H855 H 0.77834 0.69548 0.59482 0.0
C856 C 0.30266 0.17261 0.72108 0.0
Eu857 Eu 0.32071 0.16205 0.68678 0.0
C858 C 0.31012 0.16714 0.74139 0.0
C859 C 0.29023 0.16883 0.75615 0.0
C860 C 0.29984 0.16788 0.77592 0.0
C861 C 0.32966 0.16561 0.78109 0.0
C862 C 0.34857 0.16226 0.7662 0.0
C863 C 0.33881 0.1629 0.74645 0.0
C864 C 0.2943 0.09941 0.66329 0.0
C865 C 0.37991 0.14192 0.68407 0.0
C866 C 0.36463 0.16349 0.61135 0.0
Eu867 Eu 0.35164 0.16746 0.64782 0.0
C868 C 0.34956 0.16167 0.59114 0.0
C869 C 0.33877 0.18563 0.58616 0.0
C870 C 0.3282 0.1859 0.56647 0.0
C871 C 0.32789 0.162 0.55159 0.0
C872 C 0.33731 0.13717 0.55663 0.0
C873 C 0.34818 0.1371 0.57628 0.0
C874 C 0.39162 0.2224 0.67599 0.0
C875 C 0.28992 0.18637 0.651 0.0
O876 O 0.32954 0.19671 0.71343 0.0
O877 O 0.28322 0.14419 0.70865 0.0
O878 O 0.29943 0.10292 0.68243 0.0
O879 O 0.3014 0.12873 0.65751 0.0
O880 O 0.36764 0.15735 0.69578 0.0
O881 O 0.37287 0.138 0.66463 0.0
O882 O 0.34833 0.13559 0.62077 0.0
O883 O 0.3766 0.19333 0.62272 0.0
O884 O 0.40416 0.20952 0.66337 0.0
O885 O 0.35889 0.20705 0.67242 0.0
O886 O 0.31215 0.18413 0.63982 0.0
O887 O 0.28782 0.17875 0.66941 0.0
H888 H 0.26801 0.17206 0.75247 0.0
H889 H 0.28496 0.17042 0.78727 0.0
H890 H 0.37159 0.1604 0.76994 0.0
H891 H 0.3544 0.16143 0.73523 0.0
H892 H 0.33939 0.20474 0.59736 0.0
H893 H 0.32098 0.2052 0.56277 0.0
H894 H 0.33726 0.11862 0.54527 0.0
H895 H 0.35642 0.11846 0.5798 0.0
C896 C 0.78243 0.1522 0.618 0.0
Eu897 Eu 0.81411 0.1667 0.65354 0.0
C898 C 0.79419 0.14877 0.59865 0.0
C899 C 0.78729 0.16384 0.58273 0.0
C900 C 0.80095 0.16333 0.56484 0.0
C901 C 0.82153 0.14755 0.56261 0.0
C902 C 0.82818 0.1322 0.57846 0.0
C903 C 0.8148 0.13296 0.59637 0.0
C904 C 0.8457 0.22955 0.67666 0.0
C905 C 0.89441 0.18815 0.65692 0.0
C906 C 0.87708 0.17462 0.72895 0.0
Eu907 Eu 0.84555 0.16451 0.69351 0.0
C908 C 0.86591 0.17147 0.74893 0.0
C909 C 0.83033 0.15246 0.75163 0.0
C910 C 0.81986 0.15084 0.77064 0.0
C911 C 0.84483 0.16824 0.78716 0.0
C912 C 0.88036 0.18715 0.78445 0.0
C913 C 0.89083 0.18876 0.76544 0.0
C914 C 0.81485 0.10271 0.66928 0.0
C915 C 0.76496 0.14163 0.68958 0.0
O916 O 0.77773 0.12786 0.62955 0.0
O917 O 0.79873 0.1841 0.6275 0.0
O918 O 0.84536 0.22624 0.65762 0.0
O919 O 0.82718 0.19968 0.68262 0.0
O920 O 0.86592 0.17742 0.6448 0.0
O921 O 0.89359 0.18845 0.67638 0.0
O922 O 0.87661 0.1998 0.72006 0.0
O923 O 0.86427 0.14512 0.71721 0.0
O924 O 0.81303 0.10468 0.68817 0.0
O925 O 0.8338 0.13313 0.66436 0.0
O926 O 0.79324 0.153 0.702 0.0
O927 O 0.76607 0.14184 0.67024 0.0
H928 H 0.77187 0.17656 0.58428 0.0
H929 H 0.7957 0.17541 0.55276 0.0
H930 H 0.84415 0.12007 0.57704 0.0
H931 H 0.82102 0.12167 0.60852 0.0
H932 H 0.81068 0.13912 0.73903 0.0
H933 H 0.79234 0.13621 0.77249 0.0
H934 H 0.89993 0.20077 0.79706 0.0
H935 H 0.91834 0.20374 0.76361 0.0
C936 C 0.35103 0.87925 0.02906 0.0
C937 C 0.35064 0.89003 0.04906 0.0
C938 C 0.39612 0.95027 0.04528 0.0
C939 C 0.40144 0.93782 0.02678 0.0
N940 N 0.38471 0.88915 0.0013 0.0
N941 N 0.37395 0.93537 0.07689 0.0
C942 C 0.37867 0.90212 0.01848 0.0
C943 C 0.37318 0.92557 0.05732 0.0
N944 N 0.32494 0.84704 0.02025 0.0
N945 N 0.41277 0.98583 0.05116 0.0
H946 H 0.35729 0.91813 0.08618 0.0
H947 H 0.39271 0.95989 0.08424 0.0
H948 H 0.42889 0.00461 0.04232 0.0
H949 H 0.40773 0.99673 0.06371 0.0
H950 H 0.32179 0.83909 0.00516 0.0
H951 H 0.30442 0.82966 0.0277 0.0
H952 H 0.37172 0.86232 0.99609 0.0
H953 H 0.40444 0.90451 0.99288 0.0
C954 C 0.07544 0.41418 0.0395 0.0
C955 C 0.11079 0.43878 0.04657 0.0
C956 C 0.10137 0.48793 0.04013 0.0
C957 C 0.06717 0.46326 0.03111 0.0
N958 N 0.02262 0.40283 0.02021 0.0
N959 N 0.15916 0.49874 0.05095 0.0
C960 C 0.05454 0.42635 0.03016 0.0
C961 C 0.12423 0.47561 0.04623 0.0
N962 N 0.06143 0.37936 0.04245 0.0
N963 N 0.11197 0.52313 0.04308 0.0
H964 H 0.17676 0.49071 0.05538 0.0
H965 H 0.17122 0.52542 0.04888 0.0
H966 H 0.0964 0.53328 0.03834 0.0
H967 H 0.135 0.54187 0.05157 0.0
H968 H 0.03493 0.36083 0.0396 0.0
H969 H 0.07577 0.36948 0.04944 0.0
H970 H 0.01382 0.37598 0.01684 0.0
H971 H 0.00574 0.41049 0.01413 0.0
C972 C 0.54101 0.63958 0.05099 0.0
C973 C 0.54712 0.66589 0.03828 0.0
C974 C 0.52726 0.62164 0.00929 0.0
C975 C 0.51815 0.59473 0.02202 0.0
N976 N 0.51366 0.57713 0.05491 0.0
N977 N 0.54234 0.68208 0.00566 0.0
C978 C 0.5244 0.60346 0.04287 0.0
C979 C 0.53908 0.65692 0.01751 0.0
N980 N 0.55177 0.64928 0.07079 0.0
N981 N 0.52631 0.61381 0.98941 0.0
H982 H 0.5521 0.70852 0.01104 0.0
H983 H 0.53298 0.67633 0.99071 0.0
H984 H 0.51859 0.58849 0.9828 0.0
H985 H 0.53625 0.63292 0.97966 0.0
H986 H 0.55191 0.63213 0.08056 0.0
H987 H 0.56278 0.67529 0.07737 0.0
H988 H 0.51349 0.58109 0.07012 0.0
H989 H 0.50282 0.55063 0.04949 0.0
C990 C 0.87722 0.34902 0.97928 0.0
C991 C 0.8905 0.33234 0.96683 0.0
C992 C 0.94906 0.38443 0.97341 0.0
C993 C 0.93589 0.4013 0.98586 0.0
N994 N 0.88651 0.40348 0.99698 0.0
N995 N 0.93653 0.33641 0.94834 0.0
C996 C 0.89959 0.38477 0.98761 0.0
C997 C 0.92566 0.35087 0.96268 0.0
N998 N 0.8436 0.33022 0.98371 0.0
N999 N 0.98411 0.39974 0.9725 0.0
H1000 H 0.92015 0.31161 0.9404 0.0
H1001 H 0.96078 0.3501 0.94309 0.0
H1002 H 0.00182 0.42472 0.97958 0.0
H1003 H 0.99586 0.3869 0.96582 0.0
H1004 H 0.83351 0.33935 0.99452 0.0
H1005 H 0.82619 0.30437 0.97737 0.0
H1006 H 0.85995 0.39423 0.99706 0.0
H1007 H 0.90215 0.42971 0.00324 0.0
C1008 C 0.66564 0.58348 0.98473 0.0
C1009 C 0.6666 0.57285 0.96477 0.0
C1010 C 0.6032 0.53331 0.96132 0.0
C1011 C 0.60176 0.54629 0.98087 0.0
N1012 N 0.63161 0.59348 0.00783 0.0
N1013 N 0.6351 0.54537 0.93259 0.0
C1014 C 0.63299 0.5742 0.99165 0.0
C1015 C 0.63499 0.55019 0.9526 0.0
N1016 N 0.69574 0.60172 0.9973 0.0
N1017 N 0.57512 0.50386 0.95124 0.0
H1018 H 0.65778 0.55768 0.92561 0.0
H1019 H 0.61233 0.53225 0.9228 0.0
H1020 H 0.55163 0.48898 0.95695 0.0
H1021 H 0.57644 0.49161 0.93794 0.0
H1022 H 0.69592 0.607 0.01246 0.0
H1023 H 0.72019 0.60846 0.99297 0.0
H1024 H 0.6536 0.61589 0.01514 0.0
H1025 H 0.60826 0.59016 0.01229 0.0
C1026 C 0.51092 0.13799 0.98101 0.0
C1027 C 0.47831 0.12156 0.96923 0.0
C1028 C 0.45818 0.07006 0.98751 0.0
C1029 C 0.49287 0.0833 0.99639 0.0
N1030 N 0.55413 0.1293 0.99855 0.0
N1031 N 0.42203 0.06963 0.95937 0.0
C1032 C 0.5198 0.11727 0.9925 0.0
C1033 C 0.45222 0.08687 0.9719 0.0
N1034 N 0.53333 0.17357 0.98148 0.0
N1035 N 0.43057 0.04282 0.99468 0.0
H1036 H 0.41673 0.08116 0.94777 0.0
H1037 H 0.4038 0.0429 0.95948 0.0
H1038 H 0.43316 0.03222 0.00745 0.0
H1039 H 0.4047 0.03412 0.98957 0.0
H1040 H 0.55579 0.18753 0.99145 0.0
H1041 H 0.52763 0.1898 0.97343 0.0
H1042 H 0.57442 0.15232 0.99424 0.0
H1043 H 0.56321 0.11459 0.00542 0.0
C1044 C 0.6625 0.08563 0.98308 0.0
C1045 C 0.66364 0.10301 0.96615 0.0
C1046 C 0.60317 0.0883 0.96812 0.0
C1047 C 0.60065 0.06738 0.98375 0.0
N1048 N 0.62652 0.03966 0.00262 0.0
N1049 N 0.63354 0.11575 0.94032 0.0
C1050 C 0.62998 0.06438 0.99038 0.0
C1051 C 0.63352 0.10284 0.95801 0.0
N1052 N 0.69262 0.08979 0.99242 0.0
N1053 N 0.57731 0.09561 0.96337 0.0
H1054 H 0.65543 0.12702 0.93261 0.0
H1055 H 0.61107 0.11243 0.93247 0.0
H1056 H 0.5549 0.08635 0.97051 0.0
H1057 H 0.57958 0.11377 0.95364 0.0
H1058 H 0.69384 0.08097 0.00609 0.0
H1059 H 0.71696 0.10484 0.98743 0.0
H1060 H 0.64616 0.03388 0.00604 0.0
H1061 H 0.60304 0.02206 0.00765 0.0
C1062 C 0.88365 0.52502 0.95761 0.0
C1063 C 0.89141 0.56009 0.96356 0.0
C1064 C 0.94319 0.57112 0.98487 0.0
C1065 C 0.93407 0.53539 0.97994 0.0
N1066 N 0.89429 0.47697 0.9635 0.0
N1067 N 0.92601 0.61564 0.98423 0.0
C1068 C 0.90392 0.51193 0.96679 0.0
C1069 C 0.9205 0.58291 0.9776 0.0
N1070 N 0.85726 0.50453 0.94292 0.0
N1071 N 0.97411 0.59402 0.99607 0.0
H1072 H 0.91092 0.62586 0.97865 0.0
H1073 H 0.94409 0.63193 0.99612 0.0
H1074 H 0.991 0.58615 0.00202 0.0
H1075 H 0.98435 0.62126 0.99837 0.0
H1076 H 0.85258 0.48024 0.9363 0.0
H1077 H 0.84117 0.51284 0.93636 0.0
H1078 H 0.8707 0.45756 0.95581 0.0
H1079 H 0.90901 0.46673 0.96963 0.0
C1080 C 0.51554 0.37908 0.96544 0.0
C1081 C 0.48097 0.34992 0.96337 0.0
C1082 C 0.46404 0.38223 0.98668 0.0
C1083 C 0.49762 0.41283 0.98732 0.0
N1084 N 0.55535 0.44099 0.97646 0.0
N1085 N 0.42086 0.32513 0.96935 0.0
C1086 C 0.52342 0.41136 0.97651 0.0
C1087 C 0.4547 0.35207 0.97304 0.0
N1088 N 0.54109 0.37561 0.95712 0.0
N1089 N 0.44227 0.38054 1.00038 0.0
H1090 H 0.4133 0.30214 0.95994 0.0
H1091 H 0.40003 0.32691 0.9743 0.0
H1092 H 0.44953 0.40043 0.012 0.0
H1093 H 0.41883 0.35771 0.0018 0.0
H1094 H 0.56763 0.39369 0.96037 0.0
H1095 H 0.53605 0.35343 0.94771 0.0
H1096 H 0.57362 0.44289 0.96705 0.0
H1097 H 0.56307 0.46498 0.98473 0.0
C1098 C 0.11007 0.62925 0.06068 0.0
C1099 C 0.13334 0.6564 0.04998 0.0
C1100 C 0.09822 0.62235 0.01892 0.0
C1101 C 0.07899 0.59277 0.0293 0.0
N1102 N 0.06619 0.56758 0.06012 0.0
N1103 N 0.15065 0.6794 0.01896 0.0
C1104 C 0.08437 0.59625 0.05025 0.0
C1105 C 0.12747 0.65336 0.0291 0.0
N1106 N 0.11253 0.63519 0.08082 0.0
N1107 N 0.08806 0.62085 0.99938 0.0
H1108 H 0.17185 0.70287 0.02599 0.0
H1109 H 0.15015 0.67688 0.00364 0.0
H1110 H 0.06618 0.59874 0.9917 0.0
H1111 H 0.09901 0.64253 0.99135 0.0
H1112 H 0.09425 0.61783 0.08938 0.0
H1113 H 0.13128 0.65906 0.08889 0.0
H1114 H 0.07194 0.56691 0.07506 0.0
H1115 H 0.0463 0.54362 0.05299 0.0
C1116 C 0.34276 0.41596 0.03322 0.0
C1117 C 0.34149 0.43732 0.04939 0.0
C1118 C 0.40087 0.48398 0.04572 0.0
C1119 C 0.40381 0.46103 0.03121 0.0
N1120 N 0.37872 0.40293 0.01303 0.0
N1121 N 0.37132 0.48912 0.07334 0.0
C1122 C 0.37504 0.42637 0.02545 0.0
C1123 C 0.37121 0.47055 0.05638 0.0
N1124 N 0.31285 0.38635 0.02477 0.0
N1125 N 0.42517 0.51922 0.04834 0.0
H1126 H 0.34998 0.48014 0.0815 0.0
H1127 H 0.39361 0.51172 0.08023 0.0
H1128 H 0.44523 0.53052 0.03939 0.0
H1129 H 0.42288 0.53778 0.05753 0.0
H1130 H 0.31143 0.37201 0.01158 0.0
H1131 H 0.28864 0.37782 0.02995 0.0
H1132 H 0.36005 0.37613 0.01023 0.0
H1133 H 0.4016 0.40953 0.00673 0.0
C1134 C 0.56364 0.91946 0.02059 0.0
C1135 C 0.54292 0.89222 0.03207 0.0
C1136 C 0.49358 0.90128 0.02417 0.0
C1137 C 0.51374 0.92699 0.01168 0.0
N1138 N 0.56424 0.95294 0.99375 0.0
N1139 N 0.48658 0.85274 0.0422 0.0
C1140 C 0.54777 0.93398 0.0087 0.0
C1141 C 0.50739 0.88185 0.03315 0.0
N1142 N 0.59875 0.93219 0.02145 0.0
N1143 N 0.4617 0.89615 0.02797 0.0
H1144 H 0.49584 0.83801 0.04906 0.0
H1145 H 0.45963 0.84147 0.04159 0.0
H1146 H 0.45005 0.90855 0.02098 0.0
H1147 H 0.44779 0.88138 0.03892 0.0
H1148 H 0.61568 0.95464 0.01508 0.0
H1149 H 0.61146 0.92235 0.03007 0.0
H1150 H 0.58759 0.95579 0.98961 0.0
H1151 H 0.55287 0.96276 0.98412 0.0
C1152 C 0.03797 0.26103 0.39377 0.0
C1153 C 0.01484 0.2252 0.38619 0.0
C1154 C 0.04212 0.2349 0.35525 0.0
C1155 C 0.06551 0.27081 0.36291 0.0
N1156 N 0.07904 0.32032 0.38675 0.0
N1157 N 0.98923 0.17978 0.35843 0.0
C1158 C 0.06128 0.28456 0.38135 0.0
C1159 C 0.01494 0.21282 0.36643 0.0
N1160 N 0.03842 0.2723 0.41304 0.0
N1161 N 0.04718 0.22109 0.33801 0.0
H1162 H 0.9697 0.16239 0.3664 0.0
H1163 H 0.98549 0.17064 0.34348 0.0
H1164 H 0.06632 0.23605 0.32915 0.0
H1165 H 0.034 0.19415 0.33309 0.0
H1166 H 0.05773 0.29673 0.4202 0.0
H1167 H 0.02056 0.25629 0.42229 0.0
H1168 H 0.07487 0.33232 0.39917 0.0
H1169 H 0.09548 0.33835 0.37769 0.0
C1170 C 0.75157 0.75673 0.36158 0.0
C1171 C 0.77718 0.77709 0.37779 0.0
C1172 C 0.76246 0.82387 0.37614 0.0
C1173 C 0.73403 0.80165 0.36158 0.0
N1174 N 0.69707 0.74358 0.3437 0.0
N1175 N 0.80252 0.82716 0.403 0.0
C1176 C 0.72739 0.76716 0.35512 0.0
C1177 C 0.78138 0.80989 0.3858 0.0
N1178 N 0.75081 0.72787 0.35204 0.0
N1179 N 0.77245 0.85877 0.38016 0.0
H1180 H 0.81654 0.81763 0.41068 0.0
H1181 H 0.80358 0.84917 0.41061 0.0
H1182 H 0.76029 0.8704 0.37279 0.0
H1183 H 0.79503 0.87696 0.38922 0.0
H1184 H 0.73498 0.71422 0.3389 0.0
H1185 H 0.76838 0.71964 0.35616 0.0
H1186 H 0.68937 0.71703 0.34016 0.0
H1187 H 0.67778 0.7495 0.33963 0.0
C1188 C 0.17244 0.97481 0.35969 0.0
C1189 C 0.20903 0.99812 0.36324 0.0
C1190 C 0.21833 0.95315 0.34618 0.0
C1191 C 0.18203 0.92823 0.34486 0.0
N1192 N 0.12616 0.91372 0.35577 0.0
N1193 N 0.2666 0.0051 0.3649 0.0
C1194 C 0.15944 0.93854 0.35315 0.0
C1195 C 0.23194 0.9859 0.3581 0.0
N1196 N 0.15004 0.98729 0.36192 0.0
N1197 N 0.2397 0.94689 0.33514 0.0
H1198 H 0.27744 0.02862 0.37437 0.0
H1199 H 0.28362 0.99555 0.36292 0.0
H1200 H 0.23047 0.92508 0.32459 0.0
H1201 H 0.26579 0.96575 0.33455 0.0
H1202 H 0.12328 0.9718 0.35769 0.0
H1203 H 0.15849 0.01389 0.36607 0.0
H1204 H 0.10974 0.91978 0.36328 0.0
H1205 H 0.11656 0.88668 0.35271 0.0
C1206 C 0.54261 0.68724 0.31271 0.0
C1207 C 0.55412 0.6709 0.29878 0.0
C1208 C 0.6127 0.72331 0.30339 0.0
C1209 C 0.60126 0.73966 0.31738 0.0
N1210 N 0.55378 0.74142 0.33165 0.0
N1211 N 0.59711 0.67538 0.27753 0.0
C1212 C 0.56565 0.72292 0.32086 0.0
C1213 C 0.58826 0.68968 0.29302 0.0
N1214 N 0.51011 0.66821 0.31868 0.0
N1215 N 0.64718 0.73927 0.3006 0.0
H1216 H 0.57992 0.65056 0.26982 0.0
H1217 H 0.62031 0.68911 0.27123 0.0
H1218 H 0.66545 0.76431 0.30749 0.0
H1219 H 0.65811 0.72701 0.2925 0.0
H1220 H 0.50168 0.67711 0.33052 0.0
H1221 H 0.49212 0.64238 0.31257 0.0
H1222 H 0.52752 0.73197 0.33308 0.0
H1223 H 0.56989 0.76769 0.33772 0.0
C1224 C 0.32147 0.8785 0.31246 0.0
C1225 C 0.32306 0.88931 0.29323 0.0
C1226 C 0.26567 0.88416 0.29417 0.0
C1227 C 0.26246 0.8701 0.31265 0.0
N1228 N 0.28566 0.84907 0.33806 0.0
N1229 N 0.29498 0.89774 0.26445 0.0
C1230 C 0.29001 0.86618 0.32152 0.0
C1231 C 0.29455 0.89054 0.28366 0.0
N1232 N 0.35023 0.88028 0.32217 0.0
N1233 N 0.24227 0.8935 0.28715 0.0
H1234 H 0.31626 0.90413 0.2565 0.0
H1235 H 0.27326 0.8947 0.25588 0.0
H1236 H 0.22152 0.89083 0.29463 0.0
H1237 H 0.24535 0.90733 0.27491 0.0
H1238 H 0.35244 0.87741 0.33713 0.0
H1239 H 0.37298 0.88695 0.31562 0.0
H1240 H 0.3029 0.84143 0.34365 0.0
H1241 H 0.26346 0.83967 0.34543 0.0
C1242 C 0.16645 0.46602 0.31532 0.0
C1243 C 0.13201 0.45068 0.30592 0.0
C1244 C 0.11399 0.39982 0.32464 0.0
C1245 C 0.14956 0.41222 0.33138 0.0
N1246 N 0.21065 0.45525 0.32953 0.0
N1247 N 0.07352 0.40084 0.2996 0.0
C1248 C 0.17613 0.44495 0.32589 0.0
C1249 C 0.10588 0.41691 0.30997 0.0
N1250 N 0.18993 0.50096 0.31437 0.0
N1251 N 0.08784 0.37304 0.33297 0.0
H1252 H 0.06656 0.41283 0.28893 0.0
H1253 H 0.05466 0.37458 0.30044 0.0
H1254 H 0.09242 0.36175 0.3449 0.0
H1255 H 0.0616 0.36509 0.32971 0.0
H1256 H 0.21421 0.51445 0.32279 0.0
H1257 H 0.18387 0.51742 0.30681 0.0
H1258 H 0.23039 0.4771 0.32397 0.0
H1259 H 0.21973 0.43992 0.33565 0.0
C1260 C 0.29088 0.43497 0.28793 0.0
C1261 C 0.3226 0.43916 0.29664 0.0
C1262 C 0.29182 0.40167 0.32198 0.0
C1263 C 0.26042 0.4003 0.31455 0.0
N1264 N 0.23268 0.42265 0.29262 0.0
N1265 N 0.35488 0.43236 0.324 0.0
C1266 C 0.26061 0.41881 0.29808 0.0
C1267 C 0.32355 0.42441 0.31433 0.0
N1268 N 0.28948 0.4459 0.26978 0.0
N1269 N 0.29135 0.37977 0.33543 0.0
H1270 H 0.37871 0.44818 0.31864 0.0
H1271 H 0.35744 0.42585 0.33817 0.0
H1272 H 0.26895 0.36155 0.34112 0.0
H1273 H 0.3127 0.37687 0.33944 0.0
H1274 H 0.2662 0.43963 0.26158 0.0
H1275 H 0.31136 0.45874 0.26218 0.0
H1276 H 0.23307 0.43902 0.28216 0.0
H1277 H 0.21029 0.41264 0.29984 0.0
C1278 C 0.55645 0.86432 0.28352 0.0
C1279 C 0.54858 0.88762 0.29455 0.0
C1280 C 0.58839 0.8928 0.32279 0.0
C1281 C 0.59399 0.86721 0.31236 0.0
N1282 N 0.57753 0.82298 0.28445 0.0
N1283 N 0.55152 0.91863 0.32586 0.0
C1284 C 0.57638 0.85136 0.29316 0.0
C1285 C 0.56287 0.90021 0.31457 0.0
N1286 N 0.5459 0.85549 0.26369 0.0
N1287 N 0.60864 0.91139 0.34006 0.0
H1288 H 0.53283 0.92454 0.32035 0.0
H1289 H 0.55822 0.92522 0.34108 0.0
H1290 H 0.62826 0.90751 0.34637 0.0
H1291 H 0.60829 0.93299 0.34717 0.0
H1292 H 0.55425 0.84191 0.25447 0.0
H1293 H 0.53114 0.86431 0.2561 0.0
H1294 H 0.56248 0.8082 0.27132 0.0
H1295 H 0.59087 0.81193 0.29129 0.0
C1296 C 0.16541 0.7111 0.30155 0.0
C1297 C 0.13422 0.6797 0.30382 0.0
C1298 C 0.11926 0.71281 0.32795 0.0
C1299 C 0.15265 0.74339 0.32751 0.0
N1300 N 0.20955 0.76973 0.31553 0.0
N1301 N 0.08233 0.64906 0.32002 0.0
C1302 C 0.1763 0.74197 0.3148 0.0
C1303 C 0.11118 0.68014 0.31713 0.0
N1304 N 0.18431 0.71164 0.28634 0.0
N1305 N 0.09539 0.71473 0.33889 0.0
H1306 H 0.07527 0.62492 0.31197 0.0
H1307 H 0.0666 0.64667 0.33118 0.0
H1308 H 0.10099 0.737 0.34833 0.0
H1309 H 0.06934 0.69484 0.33786 0.0
H1310 H 0.20498 0.73478 0.28242 0.0
H1311 H 0.17728 0.68946 0.27635 0.0
H1312 H 0.22908 0.76834 0.30853 0.0
H1313 H 0.21868 0.7934 0.32435 0.0
C1314 C 0.7916 0.99205 0.36462 0.0
C1315 C 0.79664 0.99361 0.38547 0.0
C1316 C 0.74801 0.93278 0.38427 0.0
C1317 C 0.74361 0.93076 0.36334 0.0
N1318 N 0.7539 0.96098 0.33416 0.0
N1319 N 0.77534 0.96936 0.41565 0.0
C1320 C 0.76314 0.96129 0.35369 0.0
C1321 C 0.77326 0.96522 0.39546 0.0
N1322 N 0.81474 0.01948 0.35525 0.0
N1323 N 0.72932 0.90322 0.39339 0.0
H1324 H 0.79412 0.99248 0.42431 0.0
H1325 H 0.75691 0.95116 0.4238 0.0
H1326 H 0.70972 0.87965 0.38571 0.0
H1327 H 0.7343 0.90137 0.40824 0.0
H1328 H 0.8151 0.01828 0.33997 0.0
H1329 H 0.83499 0.043 0.36286 0.0
H1330 H 0.76502 0.98326 0.32662 0.0
H1331 H 0.73256 0.9391 0.32595 0.0
C1332 C 0.00864 0.79298 0.36291 0.0
C1333 C 0.0043 0.77673 0.38062 0.0
C1334 C 0.06055 0.77942 0.37922 0.0
C1335 C 0.06635 0.79832 0.3624 0.0
N1336 N 0.04794 0.82743 0.33975 0.0
N1337 N 0.02794 0.75912 0.40739 0.0
C1338 C 0.04087 0.80616 0.35459 0.0
C1339 C 0.0309 0.7715 0.38934 0.0
N1340 N 0.98167 0.79531 0.35385 0.0
N1341 N 0.0822 0.76707 0.38484 0.0
H1342 H 0.00605 0.75176 0.41493 0.0
H1343 H 0.04828 0.75882 0.41562 0.0
H1344 H 0.10368 0.77133 0.37759 0.0
H1345 H 0.07717 0.74983 0.39556 0.0
H1346 H 0.98138 0.80261 0.33967 0.0
H1347 H 0.95839 0.78773 0.36001 0.0
H1348 H 0.03241 0.83773 0.33514 0.0
H1349 H 0.07078 0.83721 0.33293 0.0
C1350 C 0.23052 0.25732 0.35421 0.0
C1351 C 0.20881 0.22504 0.3619 0.0
C1352 C 0.15813 0.23119 0.35257 0.0
C1353 C 0.17943 0.26098 0.34275 0.0
N1354 N 0.2338 0.29413 0.32885 0.0
N1355 N 0.15037 0.17688 0.36387 0.0
C1356 C 0.21507 0.27175 0.34202 0.0
C1357 C 0.17208 0.21063 0.3598 0.0
N1358 N 0.26584 0.27496 0.35901 0.0
N1359 N 0.12509 0.22315 0.35569 0.0
H1360 H 0.15939 0.16033 0.36835 0.0
H1361 H 0.12333 0.16412 0.36076 0.0
H1362 H 0.11425 0.23805 0.35112 0.0
H1363 H 0.10985 0.20386 0.36452 0.0
H1364 H 0.28221 0.30011 0.35498 0.0
H1365 H 0.27823 0.26637 0.3688 0.0
H1366 H 0.25899 0.29992 0.32657 0.0
H1367 H 0.2229 0.30361 0.31868 0.0
C1368 C 0.72202 0.57015 0.7278 0.0
C1369 C 0.68743 0.55858 0.71993 0.0
C1370 C 0.70972 0.59865 0.69437 0.0
C1371 C 0.74403 0.60565 0.7003 0.0
N1372 N 0.78053 0.59 0.72029 0.0
N1373 N 0.64767 0.5581 0.69408 0.0
C1374 C 0.74962 0.58927 0.71641 0.0
C1375 C 0.68101 0.57177 0.70273 0.0
N1376 N 0.72865 0.56321 0.74631 0.0
N1377 N 0.70453 0.61869 0.68161 0.0
H1378 H 0.62601 0.53865 0.6999 0.0
H1379 H 0.64184 0.56404 0.68033 0.0
H1380 H 0.72482 0.63988 0.67596 0.0
H1381 H 0.6804 0.61675 0.67834 0.0
H1382 H 0.75381 0.57431 0.75351 0.0
H1383 H 0.70903 0.54961 0.75528 0.0
H1384 H 0.78421 0.57547 0.73068 0.0
H1385 H 0.80115 0.60134 0.71172 0.0
C1386 C 0.4165 0.10295 0.72039 0.0
C1387 C 0.44588 0.10672 0.71146 0.0
C1388 C 0.43431 0.13672 0.68553 0.0
C1389 C 0.40246 0.12919 0.69313 0.0
N1390 N 0.35982 0.09748 0.7155 0.0
N1391 N 0.47973 0.12168 0.68375 0.0
C1392 C 0.39264 0.11028 0.70998 0.0
C1393 C 0.45388 0.12195 0.69348 0.0
N1394 N 0.41166 0.09299 0.73903 0.0
N1395 N 0.44706 0.1595 0.67151 0.0
H1396 H 0.49494 0.11152 0.68924 0.0
H1397 H 0.48406 0.12872 0.66947 0.0
H1398 H 0.43464 0.17217 0.6657 0.0
H1399 H 0.4719 0.16879 0.66712 0.0
H1400 H 0.39289 0.09374 0.74715 0.0
H1401 H 0.42851 0.08722 0.74714 0.0
H1402 H 0.35033 0.08055 0.7264 0.0
H1403 H 0.34065 0.10034 0.7078 0.0
C1404 C 0.89335 0.31417 0.71246 0.0
C1405 C 0.87686 0.33264 0.70577 0.0
C1406 C 0.83497 0.28018 0.68329 0.0
C1407 C 0.85469 0.26371 0.68792 0.0
N1408 N 0.90581 0.26739 0.70473 0.0
N1409 N 0.8336 0.33487 0.68383 0.0
C1410 C 0.88454 0.28118 0.70208 0.0
C1411 C 0.84784 0.31599 0.69104 0.0
N1412 N 0.9173 0.3281 0.72884 0.0
N1413 N 0.8038 0.26145 0.67165 0.0
H1414 H 0.84198 0.36094 0.68939 0.0
H1415 H 0.81512 0.3256 0.6715 0.0
H1416 H 0.79385 0.23537 0.66549 0.0
H1417 H 0.78647 0.27065 0.66942 0.0
H1418 H 0.9276 0.31418 0.73558 0.0
H1419 H 0.92437 0.3523 0.73684 0.0
H1420 H 0.93012 0.28087 0.71308 0.0
H1421 H 0.90034 0.24355 0.69711 0.0
C1422 C 0.2097 0.01326 0.64667 0.0
C1423 C 0.22161 0.99553 0.63397 0.0
C1424 C 0.2808 0.04663 0.63937 0.0
C1425 C 0.26897 0.06485 0.65184 0.0
N1426 N 0.22105 0.0689 0.66389 0.0
N1427 N 0.26598 0.99748 0.61464 0.0
C1428 C 0.233 0.04919 0.6544 0.0
C1429 C 0.25638 0.01299 0.62915 0.0
N1430 N 0.17646 0.9954 0.65179 0.0
N1431 N 0.31556 0.06066 0.63796 0.0
H1432 H 0.24901 0.97244 0.60713 0.0
H1433 H 0.28977 0.01055 0.60884 0.0
H1434 H 0.33406 0.08561 0.64462 0.0
H1435 H 0.3263 0.04674 0.63131 0.0
H1436 H 0.16739 0.00537 0.66278 0.0
H1437 H 0.15841 0.96948 0.64584 0.0
H1438 H 0.19471 0.0602 0.66452 0.0
H1439 H 0.23734 0.09529 0.6697 0.0
C1440 C 0.95742 0.19193 0.62024 0.0
C1441 C 0.98979 0.21939 0.62997 0.0
C1442 C 0.95942 0.22859 0.65643 0.0
C1443 C 0.92762 0.19825 0.64808 0.0
N1444 N 0.89931 0.1456 0.62426 0.0
N1445 N 0.0223 0.25727 0.66006 0.0
C1446 C 0.92743 0.17826 0.63062 0.0
C1447 C 0.99103 0.23556 0.64897 0.0
N1448 N 0.95483 0.17977 0.60086 0.0
N1449 N 0.95942 0.25235 0.67043 0.0
H1450 H 0.04606 0.26224 0.65537 0.0
H1451 H 0.0242 0.26715 0.67471 0.0
H1452 H 0.93653 0.25041 0.6746 0.0
H1453 H 0.98173 0.27634 0.67575 0.0
H1454 H 0.931 0.16245 0.59256 0.0
H1455 H 0.97598 0.18966 0.59255 0.0
H1456 H 0.89942 0.12891 0.61265 0.0
H1457 H 0.87747 0.13338 0.63188 0.0
C1458 C 0.84006 0.79992 0.64672 0.0
C1459 C 0.80454 0.78511 0.63936 0.0
C1460 C 0.78866 0.73868 0.6613 0.0
C1461 C 0.82459 0.75014 0.66615 0.0
N1462 N 0.88426 0.78788 0.65926 0.0
N1463 N 0.74505 0.73741 0.63757 0.0
C1464 C 0.8503 0.77985 0.65781 0.0
C1465 C 0.77877 0.75359 0.64605 0.0
N1466 N 0.8641 0.83355 0.64349 0.0
N1467 N 0.76408 0.71486 0.67185 0.0
H1468 H 0.73692 0.74769 0.62641 0.0
H1469 H 0.72594 0.71238 0.64042 0.0
H1470 H 0.77036 0.70509 0.68398 0.0
H1471 H 0.73794 0.70797 0.67002 0.0
H1472 H 0.88968 0.84678 0.65028 0.0
H1473 H 0.85764 0.84961 0.63579 0.0
H1474 H 0.90297 0.80695 0.65158 0.0
H1475 H 0.893 0.77293 0.6661 0.0
C1476 C 0.9976 0.78247 0.65249 0.0
C1477 C 0.99835 0.76933 0.63305 0.0
C1478 C 0.93921 0.71965 0.6333 0.0
C1479 C 0.93671 0.735 0.65178 0.0
N1480 N 0.96222 0.78478 0.67742 0.0
N1481 N 0.96764 0.72964 0.60334 0.0
C1482 C 0.96555 0.76745 0.661 0.0
C1483 C 0.96841 0.73925 0.62294 0.0
N1484 N 0.02773 0.80853 0.66313 0.0
N1485 N 0.91493 0.6855 0.62615 0.0
H1486 H 0.98863 0.74341 0.59525 0.0
H1487 H 0.94506 0.71021 0.59473 0.0
H1488 H 0.8944 0.66893 0.63381 0.0
H1489 H 0.91749 0.67218 0.61369 0.0
H1490 H 0.0295 0.81625 0.67814 0.0
H1491 H 0.05175 0.82036 0.65743 0.0
H1492 H 0.98113 0.81043 0.68323 0.0
H1493 H 0.93948 0.77513 0.68431 0.0
C1494 C 0.21923 0.18934 0.61814 0.0
C1495 C 0.22152 0.22081 0.62699 0.0
C1496 C 0.27016 0.23078 0.65074 0.0
C1497 C 0.26646 0.19822 0.64265 0.0
N1498 N 0.2347 0.1438 0.62079 0.0
N1499 N 0.24677 0.27032 0.65253 0.0
C1500 C 0.24038 0.17683 0.62683 0.0
C1501 C 0.2463 0.24117 0.64356 0.0
N1502 N 0.19697 0.17157 0.60133 0.0
N1503 N 0.29737 0.25243 0.66479 0.0
H1504 H 0.23145 0.28028 0.64697 0.0
H1505 H 0.26088 0.28367 0.66611 0.0
H1506 H 0.31482 0.24538 0.67083 0.0
H1507 H 0.30428 0.27835 0.66959 0.0
H1508 H 0.19699 0.151 0.59278 0.0
H1509 H 0.17973 0.1788 0.59515 0.0
H1510 H 0.21373 0.12526 0.61085 0.0
H1511 H 0.24945 0.13361 0.62692 0.0
C1512 C 0.83462 0.0406 0.63881 0.0
C1513 C 0.80101 0.01007 0.63461 0.0
C1514 C 0.77577 0.04133 0.65206 0.0
C1515 C 0.80985 0.07036 0.65783 0.0
N1516 N 0.87207 0.09337 0.66121 0.0
N1517 N 0.74011 0.97904 0.63974 0.0
C1518 C 0.83943 0.06885 0.65249 0.0
C1519 C 0.77162 0.00975 0.6419 0.0
N1520 N 0.86181 0.04311 0.62931 0.0
N1521 N 0.74743 0.0442 0.65593 0.0
H1522 H 0.73615 0.95541 0.63246 0.0
H1523 H 0.71865 0.97622 0.64652 0.0
H1524 H 0.74959 0.0667 0.66367 0.0
H1525 H 0.72197 0.02543 0.65025 0.0
H1526 H 0.88594 0.06634 0.63035 0.0
H1527 H 0.85924 0.02326 0.61881 0.0
H1528 H 0.8941 0.09139 0.65921 0.0
H1529 H 0.87672 0.11372 0.672 0.0
C1530 C 0.45832 0.28914 0.71732 0.0
C1531 C 0.45646 0.31974 0.71407 0.0
C1532 C 0.41019 0.28615 0.68665 0.0
C1533 C 0.41358 0.25597 0.68918 0.0
N1534 N 0.44544 0.2308 0.70448 0.0
N1535 N 0.43194 0.34889 0.69607 0.0
C1536 C 0.4388 0.258 0.70389 0.0
C1537 C 0.43245 0.31856 0.69896 0.0
N1538 N 0.47878 0.2898 0.73337 0.0
N1539 N 0.38673 0.28419 0.67196 0.0
H1540 H 0.44685 0.37245 0.70542 0.0
H1541 H 0.41769 0.35145 0.6843 0.0
H1542 H 0.37353 0.26286 0.66096 0.0
H1543 H 0.37984 0.30342 0.67055 0.0
H1544 H 0.47764 0.2672 0.73809 0.0
H1545 H 0.49505 0.31252 0.74306 0.0
H1546 H 0.46641 0.23241 0.71311 0.0
H1547 H 0.43201 0.20747 0.69501 0.0
C1548 C 0.69021 0.09249 0.72048 0.0
C1549 C 0.66883 0.10701 0.71575 0.0
C1550 C 0.71139 0.14589 0.69464 0.0
C1551 C 0.73111 0.12893 0.69788 0.0
N1552 N 0.73553 0.08127 0.71081 0.0
N1553 N 0.6559 0.1435 0.69608 0.0
C1554 C 0.71951 0.10092 0.70999 0.0
C1555 C 0.67849 0.13256 0.70215 0.0
N1556 N 0.68302 0.07128 0.73536 0.0
N1557 N 0.72482 0.17578 0.68525 0.0
H1558 H 0.63182 0.13472 0.70149 0.0
H1559 H 0.65976 0.15903 0.68456 0.0
H1560 H 0.74903 0.18673 0.67984 0.0
H1561 H 0.71345 0.19151 0.68437 0.0
H1562 H 0.69989 0.0632 0.74099 0.0
H1563 H 0.66165 0.0643 0.74332 0.0
H1564 H 0.72601 0.05824 0.7177 0.0
H1565 H 0.75636 0.08585 0.70287 0.0
C1566 C 0.90534 0.60021 0.6991 0.0
C1567 C 0.88315 0.56422 0.70165 0.0
C1568 C 0.83336 0.56677 0.68618 0.0
C1569 C 0.85651 0.60149 0.68135 0.0
N1570 N 0.91627 0.6451 0.67767 0.0
N1571 N 0.82713 0.51089 0.6938 0.0
C1572 C 0.89303 0.61667 0.68633 0.0
C1573 C 0.84743 0.54675 0.69409 0.0
N1574 N 0.93817 0.61887 0.70894 0.0
N1575 N 0.79807 0.55313 0.68401 0.0
H1576 H 0.83651 0.49519 0.69922 0.0
H1577 H 0.80198 0.49636 0.68646 0.0
H1578 H 0.78616 0.56694 0.67918 0.0
H1579 H 0.78067 0.52954 0.68928 0.0
H1580 H 0.95409 0.64611 0.70887 0.0
H1581 H 0.94797 0.6079 0.71877 0.0
H1582 H 0.94314 0.65532 0.67985 0.0
H1583 H 0.90872 0.65498 0.66611 0.0
C1584 C 0.42734 0.92474 0.15153 0.0
C1585 C 0.44674 0.91451 0.16392 0.0
C1586 C 0.48476 0.92259 0.13787 0.0
C1587 C 0.47205 0.94266 0.12869 0.0
N1588 N 0.42859 0.96032 0.1257 0.0
N1589 N 0.47253 0.87794 0.16004 0.0
C1590 C 0.44226 0.94268 0.13504 0.0
C1591 C 0.4694 0.90564 0.15456 0.0
N1592 N 0.39294 0.91214 0.15345 0.0
N1593 N 0.51198 0.92047 0.13107 0.0
H1594 H 0.45769 0.86244 0.17057 0.0
H1595 H 0.48614 0.86797 0.15261 0.0
H1596 H 0.52311 0.93153 0.11848 0.0
H1597 H 0.5246 0.9094 0.13862 0.0
H1598 H 0.37664 0.91617 0.14367 0.0
H1599 H 0.37999 0.89332 0.16307 0.0
H1600 H 0.40891 0.96377 0.13109 0.0
H1601 H 0.43842 0.9733 0.11335 0.0
C1602 C 0.02629 0.53934 0.17094 0.0
C1603 C 0.03167 0.51267 0.17811 0.0
C1604 C 0.99985 0.47336 0.14765 0.0
C1605 C 0.99946 0.50197 0.13935 0.0
N1606 N 0.01602 0.56374 0.14224 0.0
N1607 N 0.0261 0.45503 0.17301 0.0
C1608 C 0.01333 0.53533 0.15082 0.0
C1609 C 0.01881 0.47967 0.16648 0.0
N1610 N 0.03342 0.56842 0.18344 0.0
N1611 N 0.98172 0.44013 0.13761 0.0
H1612 H 0.03946 0.45848 0.18684 0.0
H1613 H 0.02102 0.43225 0.16423 0.0
H1614 H 0.96746 0.43468 0.12382 0.0
H1615 H 0.97819 0.41755 0.14366 0.0
H1616 H 0.02681 0.5871 0.17962 0.0
H1617 H 0.04287 0.57207 0.19831 0.0
H1618 H 0.02957 0.58954 0.14929 0.0
H1619 H 0.00729 0.56221 0.12748 0.0
C1620 C 0.4732 0.48158 0.16733 0.0
C1621 C 0.48057 0.51335 0.17865 0.0
C1622 C 0.50191 0.54612 0.15007 0.0
C1623 C 0.49857 0.51529 0.13963 0.0
N1624 N 0.48412 0.45434 0.13859 0.0
N1625 N 0.50426 0.57651 0.18174 0.0
C1626 C 0.4848 0.48308 0.14828 0.0
C1627 C 0.49532 0.54581 0.17024 0.0
N1628 N 0.45466 0.44994 0.17476 0.0
N1629 N 0.51084 0.57545 0.14057 0.0
H1630 H 0.49907 0.5772 0.19643 0.0
H1631 H 0.5188 0.60154 0.17721 0.0
H1632 H 0.51618 0.57661 0.12587 0.0
H1633 H 0.51025 0.59755 0.14667 0.0
H1634 H 0.44527 0.42548 0.16651 0.0
H1635 H 0.44599 0.44798 0.18874 0.0
H1636 H 0.47828 0.43145 0.14505 0.0
H1637 H 0.49186 0.45417 0.12448 0.0
C1638 C 0.94549 0.48426 0.84177 0.0
C1639 C 0.97251 0.50102 0.82949 0.0
C1640 C 0.01681 0.52029 0.85796 0.0
C1641 C 0.98978 0.50411 0.87031 0.0
N1642 N 0.92886 0.47525 0.8751 0.0
N1643 N 0.03334 0.53908 0.82574 0.0
C1644 C 0.9542 0.48749 0.86254 0.0
C1645 C 0.00804 0.52038 0.83757 0.0
N1646 N 0.91161 0.46452 0.83344 0.0
N1647 N 0.05086 0.53465 0.86566 0.0
H1648 H 0.02814 0.53859 0.81057 0.0
H1649 H 0.05922 0.55699 0.83103 0.0
H1650 H 0.05845 0.53659 0.88069 0.0
H1651 H 0.07162 0.54294 0.85716 0.0
H1652 H 0.89095 0.44823 0.84108 0.0
H1653 H 0.90419 0.46292 0.81843 0.0
H1654 H 0.90267 0.46615 0.8708 0.0
H1655 H 0.93433 0.47629 0.89031 0.0
C1656 C 0.49698 0.45691 0.84075 0.0
C1657 C 0.53013 0.48423 0.83679 0.0
C1658 C 0.53719 0.51826 0.86855 0.0
C1659 C 0.50565 0.48947 0.87327 0.0
N1660 N 0.45559 0.4311 0.86475 0.0
N1661 N 0.58245 0.54046 0.84638 0.0
C1662 C 0.48536 0.45884 0.85952 0.0
C1663 C 0.55032 0.51497 0.85049 0.0
N1664 N 0.47666 0.42914 0.82654 0.0
N1665 N 0.55434 0.54874 0.88134 0.0
H1666 H 0.59196 0.53976 0.83285 0.0
H1667 H 0.60043 0.56158 0.85651 0.0
H1668 H 0.54597 0.55157 0.89495 0.0
H1669 H 0.57562 0.57205 0.87813 0.0
H1670 H 0.45074 0.4104 0.8275 0.0
H1671 H 0.48493 0.42574 0.81301 0.0
H1672 H 0.44174 0.40627 0.85659 0.0
H1673 H 0.44533 0.43223 0.87796 0.0
C1674 C 0.56586 0.0788 0.85672 0.0
C1675 C 0.54404 0.08504 0.84362 0.0
C1676 C 0.50624 0.07713 0.86972 0.0
C1677 C 0.52197 0.06074 0.88008 0.0
N1678 N 0.56989 0.04976 0.88485 0.0
N1679 N 0.51424 0.11803 0.84577 0.0
C1680 C 0.55297 0.06298 0.87412 0.0
C1681 C 0.52009 0.09263 0.85242 0.0
N1682 N 0.60034 0.09328 0.85432 0.0
N1683 N 0.47744 0.07679 0.87585 0.0
H1684 H 0.52798 0.13289 0.83473 0.0
H1685 H 0.49951 0.12711 0.85274 0.0
H1686 H 0.46674 0.06611 0.88861 0.0
H1687 H 0.46304 0.08518 0.86753 0.0
H1688 H 0.61831 0.0923 0.86442 0.0
H1689 H 0.61143 0.11058 0.84369 0.0
H1690 H 0.59048 0.04751 0.87988 0.0
H1691 H 0.56215 0.03946 0.89818 0.0
C1692 C 0.11498 0.27395 0.4933 0.0
C1693 C 0.14104 0.29211 0.50961 0.0
C1694 C 0.18301 0.32771 0.48737 0.0
C1695 C 0.15805 0.30743 0.47088 0.0
N1696 N 0.10198 0.25769 0.45776 0.0
N1697 N 0.20176 0.33065 0.52183 0.0
C1698 C 0.12443 0.27949 0.47373 0.0
C1699 C 0.17564 0.31733 0.50653 0.0
N1700 N 0.08109 0.25229 0.49655 0.0
N1701 N 0.21323 0.3578 0.48485 0.0
H1702 H 0.19759 0.32339 0.53609 0.0
H1703 H 0.22805 0.34619 0.51994 0.0
H1704 H 0.21943 0.3669 0.47111 0.0
H1705 H 0.23057 0.37563 0.4966 0.0
H1706 H 0.06031 0.24128 0.48541 0.0
H1707 H 0.07335 0.24747 0.51069 0.0
H1708 H 0.07852 0.23473 0.45895 0.0
H1709 H 0.10807 0.26096 0.44325 0.0
C1710 C 0.70376 0.87625 0.50187 0.0
C1711 C 0.70548 0.84766 0.50925 0.0
C1712 C 0.66979 0.8087 0.47939 0.0
C1713 C 0.67237 0.83847 0.47092 0.0
N1714 N 0.6955 0.9016 0.47304 0.0
N1715 N 0.69285 0.78725 0.5047 0.0
C1716 C 0.6901 0.87252 0.48192 0.0
C1717 C 0.68897 0.81389 0.498 0.0
N1718 N 0.71485 0.90684 0.51404 0.0
N1719 N 0.64855 0.77547 0.46976 0.0
H1720 H 0.70618 0.7899 0.51841 0.0
H1721 H 0.68494 0.76336 0.49617 0.0
H1722 H 0.63413 0.77082 0.45612 0.0
H1723 H 0.64283 0.75243 0.47601 0.0
H1724 H 0.71101 0.9273 0.51014 0.0
H1725 H 0.72498 0.91042 0.52876 0.0
H1726 H 0.71169 0.92748 0.47963 0.0
H1727 H 0.68617 0.90017 0.4584 0.0
C1728 C 0.15048 0.86946 0.50268 0.0
C1729 C 0.14584 0.8394 0.51168 0.0
C1730 C 0.15732 0.8156 0.48129 0.0
C1731 C 0.16115 0.84525 0.47214 0.0
N1732 N 0.15427 0.89638 0.47232 0.0
N1733 N 0.13741 0.78054 0.50872 0.0
C1734 C 0.15543 0.87092 0.48229 0.0
C1735 C 0.14687 0.81136 0.50068 0.0
N1736 N 0.15168 0.89727 0.51382 0.0
N1737 N 0.16511 0.79232 0.47178 0.0
H1738 H 0.12975 0.7767 0.52293 0.0
H1739 H 0.13421 0.75776 0.50081 0.0
H1740 H 0.17227 0.79419 0.45744 0.0
H1741 H 0.16683 0.77258 0.47853 0.0
H1742 H 0.1591 0.92162 0.50874 0.0
H1743 H 0.1475 0.89692 0.52871 0.0
H1744 H 0.14667 0.91367 0.47829 0.0
H1745 H 0.15802 0.89829 0.4574 0.0
C1746 C 0.65424 0.81683 0.1686 0.0
C1747 C 0.63291 0.83034 0.16176 0.0
C1748 C 0.63111 0.85064 0.19587 0.0
C1749 C 0.65105 0.83559 0.20273 0.0
N1750 N 0.67555 0.79818 0.1962 0.0
N1751 N 0.59612 0.85472 0.16852 0.0
C1752 C 0.6608 0.81681 0.18924 0.0
C1753 C 0.6198 0.8456 0.17532 0.0
N1754 N 0.66922 0.8051 0.15539 0.0
N1755 N 0.62415 0.87084 0.20892 0.0
H1756 H 0.58778 0.85189 0.15353 0.0
H1757 H 0.58273 0.8625 0.17773 0.0
H1758 H 0.63163 0.87469 0.22409 0.0
H1759 H 0.61312 0.88575 0.20463 0.0
H1760 H 0.68833 0.79896 0.15954 0.0
H1761 H 0.66457 0.80401 0.14011 0.0
H1762 H 0.67986 0.78093 0.18716 0.0
H1763 H 0.68065 0.79745 0.21124 0.0
C1764 C 0.19105 0.82626 0.17367 0.0
C1765 C 0.21893 0.81925 0.17417 0.0
C1766 C 0.22152 0.82129 0.21027 0.0
C1767 C 0.1904 0.82288 0.20936 0.0
N1768 N 0.14477 0.82651 0.19065 0.0
N1769 N 0.26042 0.80877 0.19247 0.0
C1770 C 0.17514 0.82569 0.1912 0.0
C1771 C 0.23449 0.81694 0.19239 0.0
N1772 N 0.18012 0.83373 0.15642 0.0
N1773 N 0.23856 0.82393 0.22825 0.0
H1774 H 0.27117 0.80618 0.17973 0.0
H1775 H 0.26998 0.80247 0.20493 0.0
H1776 H 0.22925 0.82625 0.24162 0.0
H1777 H 0.26326 0.82674 0.23006 0.0
H1778 H 0.16211 0.84227 0.15536 0.0
H1779 H 0.19134 0.83426 0.14336 0.0
H1780 H 0.13 0.82427 0.17763 0.0
H1781 H 0.13321 0.8276 0.20334 0.0
C1782 C 0.1767 0.38855 0.17755 0.0
C1783 C 0.18451 0.36557 0.16614 0.0
C1784 C 0.17489 0.32956 0.19359 0.0
C1785 C 0.16822 0.3532 0.20524 0.0
N1786 N 0.16991 0.409 0.21007 0.0
N1787 N 0.19852 0.31906 0.16442 0.0
C1788 C 0.1714 0.38395 0.19775 0.0
C1789 C 0.18597 0.33758 0.17455 0.0
N1790 N 0.17282 0.41374 0.16886 0.0
N1791 N 0.16917 0.29869 0.20038 0.0
H1792 H 0.20685 0.32428 0.15043 0.0
H1793 H 0.2036 0.30076 0.17053 0.0
H1794 H 0.16144 0.29203 0.21434 0.0
H1795 H 0.16958 0.27846 0.19169 0.0
H1796 H 0.16318 0.42853 0.17572 0.0
H1797 H 0.1769 0.41822 0.15418 0.0
H1798 H 0.17557 0.43366 0.2061 0.0
H1799 H 0.16597 0.40637 0.22493 0.0
C1800 C 0.79192 0.60374 0.82823 0.0
C1801 C 0.79185 0.62894 0.8424 0.0
C1802 C 0.80783 0.67064 0.81752 0.0
C1803 C 0.8172 0.64934 0.80576 0.0
N1804 N 0.8156 0.59366 0.79911 0.0
N1805 N 0.77272 0.67146 0.84306 0.0
C1806 C 0.80845 0.61524 0.81085 0.0
C1807 C 0.79174 0.65828 0.8349 0.0
N1808 N 0.77049 0.56854 0.82931 0.0
N1809 N 0.81546 0.70322 0.81261 0.0
H1810 H 0.75734 0.65971 0.85433 0.0
H1811 H 0.76886 0.69067 0.83713 0.0
H1812 H 0.82716 0.71327 0.79996 0.0
H1813 H 0.81245 0.72118 0.82189 0.0
H1814 H 0.76732 0.54887 0.8185 0.0
H1815 H 0.75157 0.55976 0.83917 0.0
H1816 H 0.81284 0.57009 0.80336 0.0
H1817 H 0.82613 0.60034 0.78575 0.0
C1818 C 0.37341 0.20738 0.83324 0.0
C1819 C 0.37627 0.17931 0.84047 0.0
C1820 C 0.34136 0.14012 0.81052 0.0
C1821 C 0.343 0.16959 0.80215 0.0
N1822 N 0.36407 0.23241 0.80458 0.0
N1823 N 0.36492 0.11938 0.83602 0.0
C1824 C 0.35961 0.2035 0.81332 0.0
C1825 C 0.36048 0.14562 0.82919 0.0
N1826 N 0.38385 0.23774 0.84549 0.0
N1827 N 0.32112 0.10689 0.80068 0.0
H1828 H 0.37785 0.12222 0.84991 0.0
H1829 H 0.35764 0.09562 0.82754 0.0
H1830 H 0.30679 0.10209 0.78699 0.0
H1831 H 0.31615 0.0839 0.80675 0.0
H1832 H 0.3791 0.2577 0.84175 0.0
H1833 H 0.39441 0.24157 0.86015 0.0
H1834 H 0.37953 0.25831 0.81128 0.0
H1835 H 0.35473 0.23097 0.78995 0.0
C1836 C 0.82888 0.19804 0.83725 0.0
C1837 C 0.81827 0.16715 0.84689 0.0
C1838 C 0.82467 0.13668 0.81729 0.0
C1839 C 0.83391 0.16707 0.80739 0.0
N1840 N 0.83821 0.22391 0.80629 0.0
N1841 N 0.7994 0.10505 0.84523 0.0
C1842 C 0.83397 0.19693 0.81688 0.0
C1843 C 0.81408 0.1358 0.83661 0.0
N1844 N 0.83547 0.22883 0.84777 0.0
N1845 N 0.82733 0.10924 0.80853 0.0
H1846 H 0.79148 0.10356 0.85939 0.0
H1847 H 0.7923 0.08048 0.8378 0.0
H1848 H 0.83457 0.10872 0.79431 0.0
H1849 H 0.82487 0.08816 0.81584 0.0
H1850 H 0.8472 0.25322 0.84223 0.0
H1851 H 0.83149 0.23057 0.86262 0.0
H1852 H 0.83485 0.24465 0.81175 0.0
H1853 H 0.84222 0.22406 0.79137 0.0
C1854 C 0.27781 0.14461 0.5009 0.0
C1855 C 0.30566 0.16456 0.48966 0.0
C1856 C 0.34785 0.18395 0.5192 0.0
C1857 C 0.31996 0.16436 0.53049 0.0
N1858 N 0.25836 0.13053 0.53332 0.0
N1859 N 0.36618 0.2073 0.48808 0.0
C1860 C 0.28486 0.14609 0.52169 0.0
C1861 C 0.34041 0.18557 0.49884 0.0
N1862 N 0.2448 0.12351 0.49153 0.0
N1863 N 0.38154 0.20016 0.52787 0.0
H1864 H 0.36194 0.20823 0.47298 0.0
H1865 H 0.39127 0.22621 0.49422 0.0
H1866 H 0.38801 0.20105 0.54294 0.0
H1867 H 0.40327 0.21116 0.52009 0.0
H1868 H 0.22397 0.10509 0.4983 0.0
H1869 H 0.23842 0.12304 0.47649 0.0
H1870 H 0.23214 0.11996 0.52832 0.0
H1871 H 0.26267 0.1302 0.54849 0.0
C1872 C 0.82949 0.12575 0.50872 0.0
C1873 C 0.86627 0.14299 0.50898 0.0
C1874 C 0.87327 0.16834 0.54327 0.0
C1875 C 0.83667 0.14737 0.54378 0.0
N1876 N 0.7801 0.1025 0.52783 0.0
N1877 N 0.92362 0.17767 0.52694 0.0
C1878 C 0.81473 0.12526 0.52668 0.0
C1879 C 0.88835 0.16368 0.52635 0.0
N1880 N 0.8087 0.11027 0.49122 0.0
N1881 N 0.89348 0.19323 0.55882 0.0
H1882 H 0.9357 0.1753 0.51477 0.0
H1883 H 0.94068 0.18939 0.53987 0.0
H1884 H 0.88329 0.19754 0.5714 0.0
H1885 H 0.91975 0.21172 0.55854 0.0
H1886 H 0.7819 0.10044 0.48971 0.0
H1887 H 0.81869 0.11018 0.47777 0.0
H1888 H 0.76365 0.08293 0.51648 0.0
H1889 H 0.76828 0.10108 0.54074 0.0
C1890 C 0.82819 0.68108 0.50615 0.0
C1891 C 0.85676 0.7142 0.50284 0.0
C1892 C 0.87094 0.73208 0.53867 0.0
C1893 C 0.84096 0.69998 0.54188 0.0
N1894 N 0.78883 0.64536 0.52901 0.0
N1895 N 0.9035 0.77269 0.51529 0.0
C1896 C 0.81899 0.67485 0.52569 0.0
C1897 C 0.87769 0.74013 0.51894 0.0
N1898 N 0.81027 0.65528 0.4906 0.0
N1899 N 0.89324 0.75448 0.55453 0.0
H1900 H 0.90978 0.77899 0.50107 0.0
H1901 H 0.91732 0.79416 0.52612 0.0
H1902 H 0.88851 0.74986 0.56914 0.0
H1903 H 0.91747 0.77643 0.55335 0.0
H1904 H 0.79201 0.6292 0.4922 0.0
H1905 H 0.81524 0.65918 0.47596 0.0
H1906 H 0.76949 0.62819 0.51784 0.0
H1907 H 0.78184 0.63905 0.54312 0.0
loop_
_geom_bond_atom_site_label_1
_geom_bond_atom_site_label_2
_geom_bond_distance
_geom_bond_site_symmetry_2
_ccdc_geom_bond_type
P0 O11 1.490 . S
P0 C14 1.812 . S
P0 C20 1.803 . S
P0 C26 1.819 . S
H1 C15 0.941 . S
H2 C16 0.939 . S
H3 C18 0.940 . S
H4 C19 0.940 . S
H5 C21 0.939 . S
H6 C22 0.942 . S
H7 C24 0.940 . S
H8 C25 0.939 . S
H9 C27 0.941 . S
H10 C31 0.939 . S
O11 P0 1.490 . S
H12 C28 0.939 . S
H13 C30 0.940 . S
C14 P0 1.812 . S
C14 C15 1.389 . S
C14 C19 1.391 . S
C15 H1 0.941 . S
C15 C14 1.389 . S
C15 C16 1.397 . S
C16 H2 0.939 . S
C16 C15 1.397 . S
C16 C17 1.378 . S
C17 C16 1.378 . S
C17 C18 1.378 . S
C18 H3 0.940 . S
C18 C17 1.378 . S
C18 C19 1.396 . S
C19 H4 0.940 . S
C19 C14 1.391 . S
C19 C18 1.396 . S
C20 P0 1.803 . S
C20 C21 1.378 . S
C20 C25 1.400 . S
C21 H5 0.939 . S
C21 C20 1.378 . S
C21 C22 1.361 . S
C22 H6 0.942 . S
C22 C21 1.361 . S
C22 C23 1.369 . S
C23 C22 1.369 . S
C23 C24 1.404 . S
C24 H7 0.940 . S
C24 C23 1.404 . S
C24 C25 1.389 . S
C25 H8 0.939 . S
C25 C20 1.400 . S
C25 C24 1.389 . S
C26 P0 1.819 . S
C26 C27 1.391 . S
C26 C31 1.391 . S
C27 H9 0.941 . S
C27 C26 1.391 . S
C27 C28 1.396 . S
C28 H12 0.939 . S
C28 C27 1.396 . S
C28 C29 1.397 . S
C29 C28 1.397 . S
C29 C30 1.385 . S
C30 H13 0.940 . S
C30 C29 1.385 . S
C30 C31 1.388 . S
C31 H10 0.939 . S
C31 C26 1.391 . S
C31 C30 1.388 . S
P32 O43 1.490 . S
P32 C46 1.812 . S
P32 C52 1.803 . S
P32 C58 1.819 . S
H33 C47 0.941 . S
H34 C48 0.939 . S
H35 C50 0.940 . S
H36 C51 0.940 . S
H37 C53 0.939 . S
H38 C54 0.942 1_455 S
H39 C56 0.940 . S
H40 C57 0.939 . S
H41 C59 0.941 . S
H42 C63 0.939 . S
O43 P32 1.490 . S
H44 C60 0.939 . S
H45 C62 0.940 . S
C46 P32 1.812 . S
C46 C47 1.389 . S
C46 C51 1.391 . S
C47 H33 0.941 . S
C47 C46 1.389 . S
C47 C48 1.397 . S
C48 H34 0.939 . S
C48 C47 1.397 . S
C48 C49 1.378 . S
C49 C48 1.378 . S
C49 C50 1.378 . S
C50 H35 0.940 . S
C50 C49 1.378 . S
C50 C51 1.396 . S
C51 H36 0.940 . S
C51 C46 1.391 . S
C51 C50 1.396 . S
C52 P32 1.803 . S
C52 C53 1.378 . S
C52 C57 1.400 . S
C53 H37 0.939 . S
C53 C52 1.378 . S
C53 C54 1.361 . S
C54 H38 0.942 1_655 S
C54 C53 1.361 . S
C54 C55 1.369 . S
C55 C54 1.369 . S
C55 C56 1.404 . S
C56 H39 0.940 . S
C56 C55 1.404 . S
C56 C57 1.389 . S
C57 H40 0.939 . S
C57 C52 1.400 . S
C57 C56 1.389 . S
C58 P32 1.819 . S
C58 C59 1.391 . S
C58 C63 1.391 . S
C59 H41 0.941 . S
C59 C58 1.391 . S
C59 C60 1.396 . S
C60 H44 0.939 . S
C60 C59 1.396 . S
C60 C61 1.397 . S
C61 C60 1.397 . S
C61 C62 1.385 . S
C62 H45 0.940 . S
C62 C61 1.385 . S
C62 C63 1.388 . S
C63 H42 0.939 . S
C63 C58 1.391 . S
C63 C62 1.388 . S
P64 O75 1.490 . S
P64 C78 1.812 . S
P64 C84 1.803 . S
P64 C90 1.819 . S
H65 C79 0.941 . S
H66 C80 0.939 . S
H67 C82 0.940 . S
H68 C83 0.940 . S
H69 C85 0.939 . S
H70 C86 0.942 . S
H71 C88 0.940 . S
H72 C89 0.939 . S
H73 C91 0.941 . S
H74 C95 0.939 . S
O75 P64 1.490 . S
H76 C92 0.939 . S
H77 C94 0.940 . S
C78 P64 1.812 . S
C78 C79 1.389 . S
C78 C83 1.391 . S
C79 H65 0.941 . S
C79 C78 1.389 . S
C79 C80 1.397 . S
C80 H66 0.939 . S
C80 C79 1.397 . S
C80 C81 1.378 . S
C81 C80 1.378 . S
C81 C82 1.378 . S
C82 H67 0.940 . S
C82 C81 1.378 . S
C82 C83 1.396 . S
C83 H68 0.940 . S
C83 C78 1.391 . S
C83 C82 1.396 . S
C84 P64 1.803 . S
C84 C85 1.378 . S
C84 C89 1.400 . S
C85 H69 0.939 . S
C85 C84 1.378 . S
C85 C86 1.361 . S
C86 H70 0.942 . S
C86 C85 1.361 . S
C86 C87 1.369 . S
C87 C86 1.369 . S
C87 C88 1.404 . S
C88 H71 0.940 . S
C88 C87 1.404 . S
C88 C89 1.389 . S
C89 H72 0.939 . S
C89 C84 1.400 . S
C89 C88 1.389 . S
C90 P64 1.819 . S
C90 C91 1.391 . S
C90 C95 1.391 . S
C91 H73 0.941 . S
C91 C90 1.391 . S
C91 C92 1.396 . S
C92 H76 0.939 . S
C92 C91 1.396 . S
C92 C93 1.397 . S
C93 C92 1.397 . S
C93 C94 1.385 . S
C94 H77 0.940 . S
C94 C93 1.385 . S
C94 C95 1.388 . S
C95 H74 0.939 . S
C95 C90 1.391 . S
C95 C94 1.388 . S
P96 O107 1.490 . S
P96 C110 1.812 . S
P96 C116 1.803 . S
P96 C122 1.819 . S
H97 C111 0.941 . S
H98 C112 0.939 . S
H99 C114 0.940 . S
H100 C115 0.940 . S
H101 C117 0.939 . S
H102 C118 0.942 . S
H103 C120 0.940 . S
H104 C121 0.939 . S
H105 C123 0.941 . S
H106 C127 0.939 . S
O107 P96 1.490 . S
H108 C124 0.939 . S
H109 C126 0.940 . S
C110 P96 1.812 . S
C110 C111 1.389 . S
C110 C115 1.391 . S
C111 H97 0.941 . S
C111 C110 1.389 . S
C111 C112 1.397 . S
C112 H98 0.939 . S
C112 C111 1.397 . S
C112 C113 1.378 . S
C113 C112 1.378 . S
C113 C114 1.378 . S
C114 H99 0.940 . S
C114 C113 1.378 . S
C114 C115 1.396 . S
C115 H100 0.940 . S
C115 C110 1.391 . S
C115 C114 1.396 . S
C116 P96 1.803 . S
C116 C117 1.378 . S
C116 C121 1.400 . S
C117 H101 0.939 . S
C117 C116 1.378 . S
C117 C118 1.361 . S
C118 H102 0.942 . S
C118 C117 1.361 . S
C118 C119 1.369 . S
C119 C118 1.369 . S
C119 C120 1.404 . S
C120 H103 0.940 . S
C120 C119 1.404 . S
C120 C121 1.389 . S
C121 H104 0.939 . S
C121 C116 1.400 . S
C121 C120 1.389 . S
C122 P96 1.819 . S
C122 C123 1.391 . S
C122 C127 1.391 . S
C123 H105 0.941 . S
C123 C122 1.391 . S
C123 C124 1.396 . S
C124 H108 0.939 . S
C124 C123 1.396 . S
C124 C125 1.397 . S
C125 C124 1.397 . S
C125 C126 1.385 . S
C126 H109 0.940 . S
C126 C125 1.385 . S
C126 C127 1.388 . S
C127 H106 0.939 . S
C127 C122 1.391 . S
C127 C126 1.388 . S
P128 O139 1.490 . S
P128 C142 1.812 . S
P128 C148 1.803 . S
P128 C154 1.819 . S
H129 C143 0.941 . S
H130 C144 0.939 . S
H131 C146 0.940 . S
H132 C147 0.940 . S
H133 C149 0.939 . S
H134 C150 0.942 . S
H135 C152 0.940 . S
H136 C153 0.939 . S
H137 C155 0.941 . S
H138 C159 0.939 . S
O139 P128 1.490 . S
H140 C156 0.939 . S
H141 C158 0.940 . S
C142 P128 1.812 . S
C142 C143 1.389 . S
C142 C147 1.391 . S
C143 H129 0.941 . S
C143 C142 1.389 . S
C143 C144 1.397 . S
C144 H130 0.939 . S
C144 C143 1.397 . S
C144 C145 1.378 . S
C145 C144 1.378 . S
C145 C146 1.378 . S
C146 H131 0.940 . S
C146 C145 1.378 . S
C146 C147 1.396 . S
C147 H132 0.940 . S
C147 C142 1.391 . S
C147 C146 1.396 . S
C148 P128 1.803 . S
C148 C149 1.378 . S
C148 C153 1.400 . S
C149 H133 0.939 . S
C149 C148 1.378 . S
C149 C150 1.361 . S
C150 H134 0.942 . S
C150 C149 1.361 . S
C150 C151 1.369 . S
C151 C150 1.369 . S
C151 C152 1.404 . S
C152 H135 0.940 . S
C152 C151 1.404 . S
C152 C153 1.389 . S
C153 H136 0.939 . S
C153 C148 1.400 . S
C153 C152 1.389 . S
C154 P128 1.819 . S
C154 C155 1.391 . S
C154 C159 1.391 . S
C155 H137 0.941 . S
C155 C154 1.391 . S
C155 C156 1.396 . S
C156 H140 0.939 . S
C156 C155 1.396 . S
C156 C157 1.397 . S
C157 C156 1.397 . S
C157 C158 1.385 . S
C158 H141 0.940 . S
C158 C157 1.385 . S
C158 C159 1.388 . S
C159 H138 0.939 . S
C159 C154 1.391 . S
C159 C158 1.388 . S
P160 O171 1.490 . S
P160 C174 1.812 . S
P160 C180 1.803 . S
P160 C186 1.819 . S
H161 C175 0.941 . S
H162 C176 0.939 . S
H163 C178 0.940 . S
H164 C179 0.940 . S
H165 C181 0.939 . S
H166 C182 0.942 . S
H167 C184 0.940 . S
H168 C185 0.939 . S
H169 C187 0.941 . S
H170 C191 0.939 . S
O171 P160 1.490 . S
H172 C188 0.939 . S
H173 C190 0.940 . S
C174 P160 1.812 . S
C174 C175 1.389 . S
C174 C179 1.391 . S
C175 H161 0.941 . S
C175 C174 1.389 . S
C175 C176 1.397 . S
C176 H162 0.939 . S
C176 C175 1.397 . S
C176 C177 1.378 . S
C177 C176 1.378 . S
C177 C178 1.378 . S
C178 H163 0.940 . S
C178 C177 1.378 . S
C178 C179 1.396 . S
C179 H164 0.940 . S
C179 C174 1.391 . S
C179 C178 1.396 . S
C180 P160 1.803 . S
C180 C181 1.378 . S
C180 C185 1.400 . S
C181 H165 0.939 . S
C181 C180 1.378 . S
C181 C182 1.361 . S
C182 H166 0.942 . S
C182 C181 1.361 . S
C182 C183 1.369 . S
C183 C182 1.369 . S
C183 C184 1.404 . S
C184 H167 0.940 . S
C184 C183 1.404 . S
C184 C185 1.389 . S
C185 H168 0.939 . S
C185 C180 1.400 . S
C185 C184 1.389 . S
C186 P160 1.819 . S
C186 C187 1.391 . S
C186 C191 1.391 . S
C187 H169 0.941 . S
C187 C186 1.391 . S
C187 C188 1.396 . S
C188 H172 0.939 . S
C188 C187 1.396 . S
C188 C189 1.397 . S
C189 C188 1.397 . S
C189 C190 1.385 . S
C190 H173 0.940 . S
C190 C189 1.385 . S
C190 C191 1.388 . S
C191 H170 0.939 . S
C191 C186 1.391 . S
C191 C190 1.388 . S
P192 O203 1.490 . S
P192 C206 1.812 1_455 S
P192 C212 1.803 1_455 S
P192 C218 1.816 1_455 S
H193 C207 0.941 1_455 S
H194 C208 0.939 . S
H195 C210 0.940 . S
H196 C211 0.940 . S
H197 C213 0.939 1_455 S
H198 C214 0.942 . S
H199 C216 0.940 . S
H200 C217 0.939 . S
H201 C219 0.941 . S
H202 C223 0.939 . S
O203 P192 1.490 . S
H204 C220 0.939 . S
H205 C222 0.940 . S
C206 P192 1.812 1_655 S
C206 C207 1.389 . S
C206 C211 1.391 . S
C207 H193 0.941 1_655 S
C207 C206 1.389 . S
C207 C208 1.397 . S
C208 H194 0.939 . S
C208 C207 1.397 . S
C208 C209 1.378 . S
C209 C208 1.378 . S
C209 C210 1.378 . S
C210 H195 0.940 . S
C210 C209 1.378 . S
C210 C211 1.396 . S
C211 H196 0.940 . S
C211 C206 1.391 . S
C211 C210 1.396 . S
C212 P192 1.803 1_655 S
C212 C213 1.378 . S
C212 C217 1.400 . S
C213 H197 0.939 1_655 S
C213 C212 1.378 . S
C213 C214 1.361 . S
C214 H198 0.942 . S
C214 C213 1.361 . S
C214 C215 1.369 . S
C215 C214 1.369 . S
C215 C216 1.404 . S
C216 H199 0.940 . S
C216 C215 1.404 . S
C216 C217 1.389 . S
C217 H200 0.939 . S
C217 C212 1.400 . S
C217 C216 1.389 . S
C218 P192 1.816 1_655 S
C218 C219 1.379 1_655 S
C218 C223 1.406 . S
C219 H201 0.941 . S
C219 C218 1.379 1_455 S
C219 C220 1.396 . S
C220 H204 0.939 . S
C220 C219 1.396 . S
C220 C221 1.397 1_455 S
C221 C220 1.397 1_655 S
C221 C222 1.385 . S
C222 H205 0.940 . S
C222 C221 1.385 . S
C222 C223 1.388 . S
C223 H202 0.939 . S
C223 C218 1.406 . S
C223 C222 1.388 . S
P224 O235 1.490 . S
P224 C238 1.812 . S
P224 C244 1.803 . S
P224 C250 1.819 . S
H225 C239 0.941 . S
H226 C240 0.939 . S
H227 C242 0.940 . S
H228 C243 0.940 . S
H229 C245 0.939 . S
H230 C246 0.942 . S
H231 C248 0.940 . S
H232 C249 0.939 . S
H233 C251 0.941 . S
H234 C255 0.939 . S
O235 P224 1.490 . S
H236 C252 0.939 . S
H237 C254 0.940 . S
C238 P224 1.812 . S
C238 C239 1.389 . S
C238 C243 1.391 . S
C239 H225 0.941 . S
C239 C238 1.389 . S
C239 C240 1.397 . S
C240 H226 0.939 . S
C240 C239 1.397 . S
C240 C241 1.378 . S
C241 C240 1.378 . S
C241 C242 1.378 . S
C242 H227 0.940 . S
C242 C241 1.378 . S
C242 C243 1.396 . S
C243 H228 0.940 . S
C243 C238 1.391 . S
C243 C242 1.396 . S
C244 P224 1.803 . S
C244 C245 1.378 . S
C244 C249 1.400 . S
C245 H229 0.939 . S
C245 C244 1.378 . S
C245 C246 1.361 . S
C246 H230 0.942 . S
C246 C245 1.361 . S
C246 C247 1.369 . S
C247 C246 1.369 . S
C247 C248 1.404 . S
C248 H231 0.940 . S
C248 C247 1.404 . S
C248 C249 1.389 . S
C249 H232 0.939 . S
C249 C244 1.400 . S
C249 C248 1.389 . S
C250 P224 1.819 . S
C250 C251 1.391 . S
C250 C255 1.391 . S
C251 H233 0.941 . S
C251 C250 1.391 . S
C251 C252 1.396 . S
C252 H236 0.939 . S
C252 C251 1.396 . S
C252 C253 1.397 . S
C253 C252 1.397 . S
C253 C254 1.385 . S
C254 H237 0.940 . S
C254 C253 1.385 . S
C254 C255 1.388 . S
C255 H234 0.939 . S
C255 C250 1.391 . S
C255 C254 1.388 . S
P256 O267 1.490 1_545 S
P256 C270 1.812 . S
P256 C276 1.803 . S
P256 C282 1.819 . S
H257 C271 0.941 . S
H258 C272 0.939 . S
H259 C274 0.940 . S
H260 C275 0.940 . S
H261 C277 0.939 . S
H262 C278 0.942 . S
H263 C280 0.940 . S
H264 C281 0.939 . S
H265 C283 0.941 1_565 S
H266 C287 0.939 . S
O267 P256 1.490 1_565 S
H268 C284 0.936 1_565 S
H269 C286 0.940 . S
C270 P256 1.812 . S
C270 C271 1.389 . S
C270 C275 1.391 . S
C271 H257 0.941 . S
C271 C270 1.389 . S
C271 C272 1.397 . S
C272 H258 0.939 . S
C272 C271 1.397 . S
C272 C273 1.378 . S
C273 C272 1.378 . S
C273 C274 1.378 . S
C274 H259 0.940 . S
C274 C273 1.378 . S
C274 C275 1.396 . S
C275 H260 0.940 . S
C275 C270 1.391 . S
C275 C274 1.396 . S
C276 P256 1.803 . S
C276 C277 1.378 . S
C276 C281 1.400 . S
C277 H261 0.939 . S
C277 C276 1.378 . S
C277 C278 1.361 . S
C278 H262 0.942 . S
C278 C277 1.361 . S
C278 C279 1.369 . S
C279 C278 1.369 . S
C279 C280 1.404 . S
C280 H263 0.940 . S
C280 C279 1.404 . S
C280 C281 1.389 . S
C281 H264 0.939 . S
C281 C276 1.400 . S
C281 C280 1.389 . S
C282 P256 1.819 . S
C282 C283 1.391 . S
C282 C287 1.391 . S
C283 H265 0.941 1_545 S
C283 C282 1.391 . S
C283 C284 1.396 . S
C284 H268 0.936 1_545 S
C284 C283 1.396 . S
C284 C285 1.397 . S
C285 C284 1.397 . S
C285 C286 1.385 . S
C286 H269 0.940 . S
C286 C285 1.385 . S
C286 C287 1.388 . S
C287 H266 0.939 . S
C287 C282 1.391 . S
C287 C286 1.388 . S
P288 O299 1.490 . S
P288 C302 1.812 . S
P288 C308 1.803 . S
P288 C314 1.819 . S
H289 C303 0.941 . S
H290 C304 0.939 . S
H291 C306 0.940 . S
H292 C307 0.940 . S
H293 C309 0.939 . S
H294 C310 0.942 . S
H295 C312 0.940 . S
H296 C313 0.939 . S
H297 C315 0.941 . S
H298 C319 0.939 . S
O299 P288 1.490 . S
H300 C316 0.939 . S
H301 C318 0.940 . S
C302 P288 1.812 . S
C302 C303 1.389 . S
C302 C307 1.391 . S
C303 H289 0.941 . S
C303 C302 1.389 . S
C303 C304 1.397 . S
C304 H290 0.939 . S
C304 C303 1.397 . S
C304 C305 1.378 . S
C305 C304 1.378 . S
C305 C306 1.378 . S
C306 H291 0.940 . S
C306 C305 1.378 . S
C306 C307 1.396 . S
C307 H292 0.940 . S
C307 C302 1.391 . S
C307 C306 1.396 . S
C308 P288 1.803 . S
C308 C309 1.378 . S
C308 C313 1.400 . S
C309 H293 0.939 . S
C309 C308 1.378 . S
C309 C310 1.361 . S
C310 H294 0.942 . S
C310 C309 1.361 . S
C310 C311 1.369 . S
C311 C310 1.369 . S
C311 C312 1.404 . S
C312 H295 0.940 . S
C312 C311 1.404 . S
C312 C313 1.389 . S
C313 H296 0.939 . S
C313 C308 1.400 . S
C313 C312 1.389 . S
C314 P288 1.819 . S
C314 C315 1.391 . S
C314 C319 1.391 . S
C315 H297 0.941 . S
C315 C314 1.391 . S
C315 C316 1.396 . S
C316 H300 0.939 . S
C316 C315 1.396 . S
C316 C317 1.397 . S
C317 C316 1.397 . S
C317 C318 1.385 . S
C318 H301 0.940 . S
C318 C317 1.385 . S
C318 C319 1.388 . S
C319 H298 0.939 . S
C319 C314 1.391 . S
C319 C318 1.388 . S
P320 O331 1.490 . S
P320 C334 1.812 . S
P320 C340 1.803 . S
P320 C346 1.819 . S
H321 C335 0.941 . S
H322 C336 0.939 . S
H323 C338 0.940 . S
H324 C339 0.940 . S
H325 C341 0.939 . S
H326 C342 0.942 . S
H327 C344 0.940 . S
H328 C345 0.939 . S
H329 C347 0.941 . S
H330 C351 0.939 . S
O331 P320 1.490 . S
H332 C348 0.939 . S
H333 C350 0.940 . S
C334 P320 1.812 . S
C334 C335 1.389 . S
C334 C339 1.391 . S
C335 H321 0.941 . S
C335 C334 1.389 . S
C335 C336 1.397 . S
C336 H322 0.939 . S
C336 C335 1.397 . S
C336 C337 1.378 . S
C337 C336 1.378 . S
C337 C338 1.378 . S
C338 H323 0.940 . S
C338 C337 1.378 . S
C338 C339 1.396 . S
C339 H324 0.940 . S
C339 C334 1.391 . S
C339 C338 1.396 . S
C340 P320 1.803 . S
C340 C341 1.378 . S
C340 C345 1.400 . S
C341 H325 0.939 . S
C341 C340 1.378 . S
C341 C342 1.361 . S
C342 H326 0.942 . S
C342 C341 1.361 . S
C342 C343 1.369 . S
C343 C342 1.369 . S
C343 C344 1.404 . S
C344 H327 0.940 . S
C344 C343 1.404 . S
C344 C345 1.389 . S
C345 H328 0.939 . S
C345 C340 1.400 . S
C345 C344 1.389 . S
C346 P320 1.819 . S
C346 C347 1.391 . S
C346 C351 1.391 . S
C347 H329 0.941 . S
C347 C346 1.391 . S
C347 C348 1.396 . S
C348 H332 0.939 . S
C348 C347 1.396 . S
C348 C349 1.397 . S
C349 C348 1.397 . S
C349 C350 1.385 . S
C350 H333 0.940 . S
C350 C349 1.385 . S
C350 C351 1.388 . S
C351 H330 0.939 . S
C351 C346 1.391 . S
C351 C350 1.388 . S
P352 O363 1.490 . S
P352 C366 1.812 . S
P352 C372 1.803 . S
P352 C378 1.819 . S
H353 C367 0.941 . S
H354 C368 0.939 . S
H355 C370 0.940 . S
H356 C371 0.940 . S
H357 C373 0.939 . S
H358 C374 0.942 . S
H359 C376 0.940 . S
H360 C377 0.939 . S
H361 C379 0.941 . S
H362 C383 0.939 . S
O363 P352 1.490 . S
H364 C380 0.939 . S
H365 C382 0.940 . S
C366 P352 1.812 . S
C366 C367 1.389 . S
C366 C371 1.391 . S
C367 H353 0.941 . S
C367 C366 1.389 . S
C367 C368 1.397 . S
C368 H354 0.939 . S
C368 C367 1.397 . S
C368 C369 1.378 . S
C369 C368 1.378 . S
C369 C370 1.378 . S
C370 H355 0.940 . S
C370 C369 1.378 . S
C370 C371 1.396 . S
C371 H356 0.940 . S
C371 C366 1.391 . S
C371 C370 1.396 . S
C372 P352 1.803 . S
C372 C373 1.378 . S
C372 C377 1.400 . S
C373 H357 0.939 . S
C373 C372 1.378 . S
C373 C374 1.361 . S
C374 H358 0.942 . S
C374 C373 1.361 . S
C374 C375 1.369 . S
C375 C374 1.369 . S
C375 C376 1.404 . S
C376 H359 0.940 . S
C376 C375 1.404 . S
C376 C377 1.389 . S
C377 H360 0.939 . S
C377 C372 1.400 . S
C377 C376 1.389 . S
C378 P352 1.819 . S
C378 C379 1.391 . S
C378 C383 1.391 . S
C379 H361 0.941 . S
C379 C378 1.391 . S
C379 C380 1.396 . S
C380 H364 0.939 . S
C380 C379 1.396 . S
C380 C381 1.397 . S
C381 C380 1.397 . S
C381 C382 1.385 . S
C382 H365 0.940 . S
C382 C381 1.385 . S
C382 C383 1.388 . S
C383 H362 0.939 . S
C383 C378 1.391 . S
C383 C382 1.388 . S
P384 O395 1.490 . S
P384 C398 1.812 . S
P384 C404 1.803 . S
P384 C410 1.819 . S
H385 C399 0.941 . S
H386 C400 0.939 . S
H387 C402 0.940 . S
H388 C403 0.940 . S
H389 C405 0.939 . S
H390 C406 0.942 . S
H391 C408 0.940 . S
H392 C409 0.939 . S
H393 C411 0.941 . S
H394 C415 0.939 . S
O395 P384 1.490 . S
H396 C412 0.939 . S
H397 C414 0.940 . S
C398 P384 1.812 . S
C398 C399 1.389 . S
C398 C403 1.391 . S
C399 H385 0.941 . S
C399 C398 1.389 . S
C399 C400 1.397 . S
C400 H386 0.939 . S
C400 C399 1.397 . S
C400 C401 1.378 . S
C401 C400 1.378 . S
C401 C402 1.378 . S
C402 H387 0.940 . S
C402 C401 1.378 . S
C402 C403 1.396 . S
C403 H388 0.940 . S
C403 C398 1.391 . S
C403 C402 1.396 . S
C404 P384 1.803 . S
C404 C405 1.378 . S
C404 C409 1.400 . S
C405 H389 0.939 . S
C405 C404 1.378 . S
C405 C406 1.361 . S
C406 H390 0.942 . S
C406 C405 1.361 . S
C406 C407 1.369 . S
C407 C406 1.369 . S
C407 C408 1.404 . S
C408 H391 0.940 . S
C408 C407 1.404 . S
C408 C409 1.389 . S
C409 H392 0.939 . S
C409 C404 1.400 . S
C409 C408 1.389 . S
C410 P384 1.819 . S
C410 C411 1.391 . S
C410 C415 1.391 . S
C411 H393 0.941 . S
C411 C410 1.391 . S
C411 C412 1.396 . S
C412 H396 0.939 . S
C412 C411 1.396 . S
C412 C413 1.397 . S
C413 C412 1.397 . S
C413 C414 1.385 . S
C414 H397 0.940 . S
C414 C413 1.385 . S
C414 C415 1.388 . S
C415 H394 0.939 . S
C415 C410 1.391 . S
C415 C414 1.388 . S
P416 O427 1.490 . S
P416 C430 1.812 . S
P416 C436 1.803 . S
P416 C442 1.819 . S
H417 C431 0.941 . S
H418 C432 0.939 . S
H419 C434 0.940 . S
H420 C435 0.940 . S
H421 C437 0.939 . S
H422 C438 0.942 . S
H423 C440 0.940 . S
H424 C441 0.939 . S
H425 C443 0.941 . S
H426 C447 0.939 . S
O427 P416 1.490 . S
H428 C444 0.939 . S
H429 C446 0.940 . S
C430 P416 1.812 . S
C430 C431 1.389 . S
C430 C435 1.391 . S
C431 H417 0.941 . S
C431 C430 1.389 . S
C431 C432 1.397 . S
C432 H418 0.939 . S
C432 C431 1.397 . S
C432 C433 1.378 . S
C433 C432 1.378 . S
C433 C434 1.378 . S
C434 H419 0.940 . S
C434 C433 1.378 . S
C434 C435 1.396 . S
C435 H420 0.940 . S
C435 C430 1.391 . S
C435 C434 1.396 . S
C436 P416 1.803 . S
C436 C437 1.378 . S
C436 C441 1.400 . S
C437 H421 0.939 . S
C437 C436 1.378 . S
C437 C438 1.361 . S
C438 H422 0.942 . S
C438 C437 1.361 . S
C438 C439 1.369 . S
C439 C438 1.369 . S
C439 C440 1.404 . S
C440 H423 0.940 . S
C440 C439 1.404 . S
C440 C441 1.389 . S
C441 H424 0.939 . S
C441 C436 1.400 . S
C441 C440 1.389 . S
C442 P416 1.819 . S
C442 C443 1.391 . S
C442 C447 1.391 . S
C443 H425 0.941 . S
C443 C442 1.391 . S
C443 C444 1.396 . S
C444 H428 0.939 . S
C444 C443 1.396 . S
C444 C445 1.397 . S
C445 C444 1.397 . S
C445 C446 1.385 . S
C446 H429 0.940 . S
C446 C445 1.385 . S
C446 C447 1.388 . S
C447 H426 0.939 . S
C447 C442 1.391 . S
C447 C446 1.388 . S
P448 O459 1.490 . S
P448 C462 1.812 . S
P448 C468 1.803 . S
P448 C474 1.819 . S
H449 C463 0.941 . S
H450 C464 0.939 . S
H451 C466 0.940 . S
H452 C467 0.940 . S
H453 C469 0.939 . S
H454 C470 0.942 . S
H455 C472 0.940 . S
H456 C473 0.939 . S
H457 C475 0.941 . S
H458 C479 0.939 . S
O459 P448 1.490 . S
H460 C476 0.939 . S
H461 C478 0.940 . S
C462 P448 1.812 . S
C462 C463 1.389 . S
C462 C467 1.391 . S
C463 H449 0.941 . S
C463 C462 1.389 . S
C463 C464 1.397 . S
C464 H450 0.939 . S
C464 C463 1.397 . S
C464 C465 1.378 . S
C465 C464 1.378 . S
C465 C466 1.378 . S
C466 H451 0.940 . S
C466 C465 1.378 . S
C466 C467 1.396 . S
C467 H452 0.940 . S
C467 C462 1.391 . S
C467 C466 1.396 . S
C468 P448 1.803 . S
C468 C469 1.378 . S
C468 C473 1.400 . S
C469 H453 0.939 . S
C469 C468 1.378 . S
C469 C470 1.361 . S
C470 H454 0.942 . S
C470 C469 1.361 . S
C470 C471 1.369 . S
C471 C470 1.369 . S
C471 C472 1.404 . S
C472 H455 0.940 . S
C472 C471 1.404 . S
C472 C473 1.389 . S
C473 H456 0.939 . S
C473 C468 1.400 . S
C473 C472 1.389 . S
C474 P448 1.819 . S
C474 C475 1.391 . S
C474 C479 1.391 . S
C475 H457 0.941 . S
C475 C474 1.391 . S
C475 C476 1.396 . S
C476 H460 0.939 . S
C476 C475 1.396 . S
C476 C477 1.397 . S
C477 C476 1.397 . S
C477 C478 1.385 . S
C478 H461 0.940 . S
C478 C477 1.385 . S
C478 C479 1.388 . S
C479 H458 0.939 . S
C479 C474 1.391 . S
C479 C478 1.388 . S
P480 O491 1.490 1_565 S
P480 C494 1.812 . S
P480 C500 1.803 . S
P480 C506 1.819 . S
H481 C495 0.941 . S
H482 C496 0.939 . S
H483 C498 0.940 . S
H484 C499 0.940 . S
H485 C501 0.939 . S
H486 C502 0.942 . S
H487 C504 0.940 . S
H488 C505 0.939 . S
H489 C507 0.941 1_545 S
H490 C511 0.939 . S
O491 P480 1.490 1_545 S
H492 C508 0.939 1_545 S
H493 C510 0.940 . S
C494 P480 1.812 . S
C494 C495 1.389 . S
C494 C499 1.391 . S
C495 H481 0.941 . S
C495 C494 1.389 . S
C495 C496 1.397 . S
C496 H482 0.939 . S
C496 C495 1.397 . S
C496 C497 1.378 . S
C497 C496 1.378 . S
C497 C498 1.378 . S
C498 H483 0.940 . S
C498 C497 1.378 . S
C498 C499 1.396 . S
C499 H484 0.940 . S
C499 C494 1.391 . S
C499 C498 1.396 . S
C500 P480 1.803 . S
C500 C501 1.378 . S
C500 C505 1.400 . S
C501 H485 0.939 . S
C501 C500 1.378 . S
C501 C502 1.361 . S
C502 H486 0.942 . S
C502 C501 1.361 . S
C502 C503 1.369 . S
C503 C502 1.369 . S
C503 C504 1.404 . S
C504 H487 0.940 . S
C504 C503 1.404 . S
C504 C505 1.389 . S
C505 H488 0.939 . S
C505 C500 1.400 . S
C505 C504 1.389 . S
C506 P480 1.819 . S
C506 C507 1.391 . S
C506 C511 1.391 . S
C507 H489 0.941 1_565 S
C507 C506 1.391 . S
C507 C508 1.396 . S
C508 H492 0.939 1_565 S
C508 C507 1.396 . S
C508 C509 1.397 . S
C509 C508 1.397 . S
C509 C510 1.385 . S
C510 H493 0.940 . S
C510 C509 1.385 . S
C510 C511 1.388 . S
C511 H490 0.939 . S
C511 C506 1.391 . S
C511 C510 1.388 . S
P512 O523 1.490 . S
P512 C526 1.812 . S
P512 C532 1.803 . S
P512 C538 1.819 . S
H513 C527 0.941 . S
H514 C528 0.939 . S
H515 C530 0.940 . S
H516 C531 0.940 . S
H517 C533 0.939 . S
H518 C534 0.942 . S
H519 C536 0.940 . S
H520 C537 0.939 . S
H521 C539 0.941 . S
H522 C543 0.939 . S
O523 P512 1.490 . S
H524 C540 0.939 . S
H525 C542 0.940 1_655 S
C526 P512 1.812 . S
C526 C527 1.389 . S
C526 C531 1.391 . S
C527 H513 0.941 . S
C527 C526 1.389 . S
C527 C528 1.397 . S
C528 H514 0.939 . S
C528 C527 1.397 . S
C528 C529 1.378 . S
C529 C528 1.378 . S
C529 C530 1.378 . S
C530 H515 0.940 . S
C530 C529 1.378 . S
C530 C531 1.396 . S
C531 H516 0.940 . S
C531 C526 1.391 . S
C531 C530 1.396 . S
C532 P512 1.803 . S
C532 C533 1.378 . S
C532 C537 1.400 . S
C533 H517 0.939 . S
C533 C532 1.378 . S
C533 C534 1.361 . S
C534 H518 0.942 . S
C534 C533 1.361 . S
C534 C535 1.369 . S
C535 C534 1.369 . S
C535 C536 1.404 . S
C536 H519 0.940 . S
C536 C535 1.404 . S
C536 C537 1.389 . S
C537 H520 0.939 . S
C537 C532 1.400 . S
C537 C536 1.389 . S
C538 P512 1.819 . S
C538 C539 1.391 . S
C538 C543 1.391 . S
C539 H521 0.941 . S
C539 C538 1.391 . S
C539 C540 1.396 . S
C540 H524 0.939 . S
C540 C539 1.396 . S
C540 C541 1.397 . S
C541 C540 1.397 . S
C541 C542 1.385 . S
C542 H525 0.940 1_455 S
C542 C541 1.385 . S
C542 C543 1.388 . S
C543 H522 0.939 . S
C543 C538 1.391 . S
C543 C542 1.388 . S
P544 O555 1.490 . S
P544 C558 1.812 . S
P544 C564 1.803 . S
P544 C570 1.819 . S
H545 C559 0.941 . S
H546 C560 0.939 . S
H547 C562 0.940 . S
H548 C563 0.940 . S
H549 C565 0.939 . S
H550 C566 0.942 . S
H551 C568 0.940 . S
H552 C569 0.939 . S
H553 C571 0.941 . S
H554 C575 0.939 . S
O555 P544 1.490 . S
H556 C572 0.939 . S
H557 C574 0.940 . S
C558 P544 1.812 . S
C558 C559 1.389 . S
C558 C563 1.391 . S
C559 H545 0.941 . S
C559 C558 1.389 . S
C559 C560 1.397 . S
C560 H546 0.939 . S
C560 C559 1.397 . S
C560 C561 1.378 . S
C561 C560 1.378 . S
C561 C562 1.378 . S
C562 H547 0.940 . S
C562 C561 1.378 . S
C562 C563 1.396 . S
C563 H548 0.940 . S
C563 C558 1.391 . S
C563 C562 1.396 . S
C564 P544 1.803 . S
C564 C565 1.378 . S
C564 C569 1.400 . S
C565 H549 0.939 . S
C565 C564 1.378 . S
C565 C566 1.361 . S
C566 H550 0.942 . S
C566 C565 1.361 . S
C566 C567 1.369 . S
C567 C566 1.369 . S
C567 C568 1.404 . S
C568 H551 0.940 . S
C568 C567 1.404 . S
C568 C569 1.389 . S
C569 H552 0.939 . S
C569 C564 1.400 . S
C569 C568 1.389 . S
C570 P544 1.819 . S
C570 C571 1.391 . S
C570 C575 1.391 . S
C571 H553 0.941 . S
C571 C570 1.391 . S
C571 C572 1.396 . S
C572 H556 0.939 . S
C572 C571 1.396 . S
C572 C573 1.397 . S
C573 C572 1.397 . S
C573 C574 1.385 . S
C574 H557 0.940 . S
C574 C573 1.385 . S
C574 C575 1.388 . S
C575 H554 0.939 . S
C575 C570 1.391 . S
C575 C574 1.388 . S
C576 Eu577 2.835 . S
C576 C578 1.500 . S
C576 O596 1.257 1_545 S
C576 O597 1.260 . S
Eu577 C576 2.835 . S
Eu577 O596 2.473 1_545 S
Eu577 O597 2.480 . S
Eu577 O598 2.430 . S
Eu577 O599 2.670 1_554 S
Eu577 O600 2.394 1_545 S
Eu577 O605 2.355 1_545 S
Eu577 O607 2.374 . S
C578 C576 1.500 . S
C578 C579 1.377 . S
C578 C583 1.377 1_545 S
C579 C578 1.377 . S
C579 C580 1.395 . S
C579 H608 0.931 . S
C580 C579 1.395 . S
C580 C581 1.383 1_545 S
C580 H609 0.931 . S
C581 C580 1.383 1_565 S
C581 C582 1.394 . S
C582 C581 1.394 . S
C582 C583 1.378 . S
C582 H610 0.931 . S
C583 C578 1.377 1_565 S
C583 C582 1.378 . S
C583 H611 0.931 . S
C584 O598 1.306 . S
C584 O599 1.254 1_554 S
C585 O600 1.251 . S
C585 O601 1.251 1_554 S
C586 Eu587 2.835 . S
C586 C588 1.500 . S
C586 O602 1.257 1_565 S
C586 O603 1.260 . S
Eu587 C586 2.835 . S
Eu587 O599 2.355 1_565 S
Eu587 O601 2.374 . S
Eu587 O602 2.473 1_565 S
Eu587 O603 2.480 . S
Eu587 O604 2.430 . S
Eu587 O605 2.670 1_556 S
Eu587 O606 2.394 1_565 S
C588 C586 1.500 . S
C588 C589 1.377 . S
C588 C593 1.377 1_565 S
C589 C588 1.377 . S
C589 C590 1.395 . S
C589 H612 0.931 . S
C590 C589 1.395 . S
C590 C591 1.383 1_565 S
C590 H613 0.931 . S
C591 C590 1.383 1_545 S
C591 C592 1.394 . S
C592 C591 1.394 . S
C592 C593 1.378 . S
C592 H614 0.931 . S
C593 C588 1.377 1_545 S
C593 C592 1.378 . S
C593 H615 0.931 . S
C594 O604 1.259 1_554 S
C594 O605 1.270 . S
C595 O606 1.251 . S
C595 O607 1.251 1_556 S
O596 C576 1.257 1_565 S
O596 Eu577 2.473 1_565 S
O597 C576 1.260 . S
O597 Eu577 2.480 . S
O598 Eu577 2.430 . S
O598 C584 1.306 . S
O599 Eu577 2.670 1_556 S
O599 C584 1.254 1_556 S
O599 Eu587 2.355 1_545 S
O600 Eu577 2.394 1_565 S
O600 C585 1.251 . S
O601 C585 1.251 1_556 S
O601 Eu587 2.374 . S
O602 C586 1.257 1_545 S
O602 Eu587 2.473 1_545 S
O603 C586 1.260 . S
O603 Eu587 2.480 . S
O604 Eu587 2.430 . S
O604 C594 1.259 1_556 S
O605 Eu577 2.355 1_565 S
O605 Eu587 2.670 1_554 S
O605 C594 1.270 . S
O606 Eu587 2.394 1_545 S
O606 C595 1.251 . S
O607 Eu577 2.374 . S
O607 C595 1.251 1_554 S
H608 C579 0.931 . S
H609 C580 0.931 . S
H610 C582 0.931 . S
H611 C583 0.931 . S
H612 C589 0.931 . S
H613 C590 0.931 . S
H614 C592 0.931 . S
H615 C593 0.931 . S
C616 Eu617 2.835 . S
C616 C618 1.500 1_655 S
C616 O636 1.257 1_655 S
C616 O637 1.260 . S
Eu617 C616 2.835 . S
Eu617 O636 2.473 1_655 S
Eu617 O637 2.480 . S
Eu617 O638 2.430 . S
Eu617 O639 2.670 1_554 S
Eu617 O640 2.394 1_655 S
Eu617 O645 2.355 1_655 S
Eu617 O647 2.374 . S
C618 C616 1.500 1_455 S
C618 C619 1.377 1_455 S
C618 C623 1.377 . S
C619 C618 1.377 1_655 S
C619 C620 1.395 . S
C619 H648 0.931 . S
C620 C619 1.395 . S
C620 C621 1.383 1_655 S
C620 H649 0.931 . S
C621 C620 1.383 1_455 S
C621 C622 1.394 . S
C622 C621 1.394 . S
C622 C623 1.378 . S
C622 H650 0.931 . S
C623 C618 1.377 . S
C623 C622 1.378 . S
C623 H651 0.931 . S
C624 O638 1.259 1_556 S
C624 O639 1.270 . S
C625 O640 1.251 . S
C625 O641 1.251 . S
C626 Eu627 2.835 . S
C626 C628 1.500 1_455 S
C626 O642 1.257 1_455 S
C626 O643 1.260 . S
Eu627 C626 2.835 . S
Eu627 O639 2.355 1_455 S
Eu627 O641 2.374 1_556 S
Eu627 O642 2.473 1_455 S
Eu627 O643 2.480 . S
Eu627 O644 2.430 . S
Eu627 O645 2.670 1_556 S
Eu627 O646 2.394 1_455 S
C628 C626 1.500 1_655 S
C628 C629 1.377 1_655 S
C628 C633 1.377 . S
C629 C628 1.377 1_455 S
C629 C630 1.395 . S
C629 H652 0.931 . S
C630 C629 1.395 . S
C630 C631 1.383 1_455 S
C630 H653 0.931 . S
C631 C630 1.383 1_655 S
C631 C632 1.394 . S
C632 C631 1.394 . S
C632 C633 1.378 . S
C632 H654 0.931 . S
C633 C628 1.377 . S
C633 C632 1.378 . S
C633 H655 0.931 . S
C634 O644 1.259 1_554 S
C634 O645 1.270 . S
C635 O646 1.251 . S
C635 O647 1.251 1_556 S
O636 C616 1.257 1_455 S
O636 Eu617 2.473 1_455 S
O637 C616 1.260 . S
O637 Eu617 2.480 . S
O638 Eu617 2.430 . S
O638 C624 1.259 1_554 S
O639 Eu617 2.670 1_556 S
O639 C624 1.270 . S
O639 Eu627 2.355 1_655 S
O640 Eu617 2.394 1_455 S
O640 C625 1.251 . S
O641 C625 1.251 . S
O641 Eu627 2.374 1_554 S
O642 C626 1.257 1_655 S
O642 Eu627 2.473 1_655 S
O643 C626 1.260 . S
O643 Eu627 2.480 . S
O644 Eu627 2.430 . S
O644 C634 1.259 1_556 S
O645 Eu617 2.355 1_455 S
O645 Eu627 2.670 1_554 S
O645 C634 1.270 . S
O646 Eu627 2.394 1_655 S
O646 C635 1.251 . S
O647 Eu617 2.374 . S
O647 C635 1.251 1_554 S
H648 C619 0.931 . S
H649 C620 0.931 . S
H650 C622 0.931 . S
H651 C623 0.931 . S
H652 C629 0.931 . S
H653 C630 0.931 . S
H654 C632 0.931 . S
H655 C633 0.931 . S
C656 Eu657 2.835 . S
C656 C658 1.500 . S
C656 O676 1.257 . S
C656 O677 1.260 . S
Eu657 C656 2.835 . S
Eu657 O676 2.473 . S
Eu657 O677 2.480 . S
Eu657 O678 2.430 . S
Eu657 O679 2.670 1_556 S
Eu657 O680 2.394 . S
Eu657 O685 2.355 . S
Eu657 O687 2.337 1_556 S
C658 C656 1.500 . S
C658 C659 1.377 . S
C658 C663 1.377 . S
C659 C658 1.377 . S
C659 C660 1.395 . S
C659 H688 0.931 . S
C660 C659 1.395 . S
C660 C661 1.383 . S
C660 H689 0.931 . S
C661 C660 1.383 . S
C661 C662 1.394 . S
C662 C661 1.394 . S
C662 C663 1.378 . S
C662 H690 0.931 . S
C663 C658 1.377 . S
C663 C662 1.378 . S
C663 H691 0.931 . S
C664 O678 1.259 1_554 S
C664 O679 1.270 . S
C665 O680 1.251 . S
C665 O681 1.251 1_556 S
C666 Eu667 2.835 . S
C666 C668 1.500 . S
C666 O682 1.257 . S
C666 O683 1.260 . S
Eu667 C666 2.835 . S
Eu667 O679 2.355 . S
Eu667 O681 2.374 . S
Eu667 O682 2.473 . S
Eu667 O683 2.480 . S
Eu667 O684 2.430 . S
Eu667 O685 2.670 1_554 S
Eu667 O686 2.394 . S
C668 C666 1.500 . S
C668 C669 1.377 . S
C668 C673 1.377 . S
C669 C668 1.377 . S
C669 C670 1.395 . S
C669 H692 0.931 . S
C670 C669 1.395 . S
C670 C671 1.383 . S
C670 H693 0.931 . S
C671 C670 1.383 . S
C671 C672 1.394 . S
C672 C671 1.394 . S
C672 C673 1.378 . S
C672 H694 0.931 . S
C673 C668 1.377 . S
C673 C672 1.378 . S
C673 H695 0.931 . S
C674 O684 1.259 1_556 S
C674 O685 1.270 . S
C675 O686 1.251 . S
C675 O687 1.300 . S
O676 C656 1.257 . S
O676 Eu657 2.473 . S
O677 C656 1.260 . S
O677 Eu657 2.480 . S
O678 Eu657 2.430 . S
O678 C664 1.259 1_556 S
O679 Eu657 2.670 1_554 S
O679 C664 1.270 . S
O679 Eu667 2.355 . S
O680 Eu657 2.394 . S
O680 C665 1.251 . S
O681 C665 1.251 1_554 S
O681 Eu667 2.374 . S
O682 C666 1.257 . S
O682 Eu667 2.473 . S
O683 C666 1.260 . S
O683 Eu667 2.480 . S
O684 Eu667 2.430 . S
O684 C674 1.259 1_554 S
O685 Eu657 2.355 . S
O685 Eu667 2.670 1_556 S
O685 C674 1.270 . S
O686 Eu667 2.394 . S
O686 C675 1.251 . S
O687 Eu657 2.337 1_554 S
O687 C675 1.300 . S
H688 C659 0.931 . S
H689 C660 0.931 . S
H690 C662 0.931 . S
H691 C663 0.931 . S
H692 C669 0.931 . S
H693 C670 0.931 . S
H694 C672 0.931 . S
H695 C673 0.931 . S
C696 Eu697 2.835 . S
C696 C698 1.500 . S
C696 O716 1.257 . S
C696 O717 1.260 . S
Eu697 C696 2.835 . S
Eu697 O716 2.473 . S
Eu697 O717 2.480 . S
Eu697 O718 2.430 . S
Eu697 O719 2.670 . S
Eu697 O720 2.394 . S
Eu697 O725 2.355 . S
Eu697 O727 2.374 . S
C698 C696 1.500 . S
C698 C699 1.377 . S
C698 C703 1.377 . S
C699 C698 1.377 . S
C699 C700 1.395 . S
C699 H728 0.931 . S
C700 C699 1.395 . S
C700 C701 1.383 . S
C700 H729 0.931 . S
C701 C700 1.383 . S
C701 C702 1.394 . S
C702 C701 1.394 . S
C702 C703 1.378 . S
C702 H730 0.931 . S
C703 C698 1.377 . S
C703 C702 1.378 . S
C703 H731 0.931 . S
C704 O718 1.259 . S
C704 O719 1.270 . S
C705 O720 1.251 . S
C705 O721 1.251 . S
C706 Eu707 2.835 . S
C706 C708 1.500 . S
C706 O722 1.257 . S
C706 O723 1.260 . S
Eu707 C706 2.835 . S
Eu707 O719 2.355 . S
Eu707 O721 2.374 . S
Eu707 O722 2.473 . S
Eu707 O723 2.480 . S
Eu707 O724 2.430 . S
Eu707 O725 2.670 . S
Eu707 O726 2.394 . S
C708 C706 1.500 . S
C708 C709 1.377 . S
C708 C713 1.377 . S
C709 C708 1.377 . S
C709 C710 1.395 . S
C709 H732 0.931 . S
C710 C709 1.395 . S
C710 C711 1.383 . S
C710 H733 0.931 . S
C711 C710 1.383 . S
C711 C712 1.394 . S
C712 C711 1.394 . S
C712 C713 1.378 . S
C712 H734 0.931 . S
C713 C708 1.377 . S
C713 C712 1.378 . S
C713 H735 0.931 . S
C714 O724 1.259 . S
C714 O725 1.270 . S
C715 O726 1.251 . S
C715 O727 1.251 . S
O716 C696 1.257 . S
O716 Eu697 2.473 . S
O717 C696 1.260 . S
O717 Eu697 2.480 . S
O718 Eu697 2.430 . S
O718 C704 1.259 . S
O719 Eu697 2.670 . S
O719 C704 1.270 . S
O719 Eu707 2.355 . S
O720 Eu697 2.394 . S
O720 C705 1.251 . S
O721 C705 1.251 . S
O721 Eu707 2.374 . S
O722 C706 1.257 . S
O722 Eu707 2.473 . S
O723 C706 1.260 . S
O723 Eu707 2.480 . S
O724 Eu707 2.430 . S
O724 C714 1.259 . S
O725 Eu697 2.355 . S
O725 Eu707 2.670 . S
O725 C714 1.270 . S
O726 Eu707 2.394 . S
O726 C715 1.251 . S
O727 Eu697 2.374 . S
O727 C715 1.251 . S
H728 C699 0.931 . S
H729 C700 0.931 . S
H730 C702 0.931 . S
H731 C703 0.931 . S
H732 C709 0.931 . S
H733 C710 0.931 . S
H734 C712 0.931 . S
H735 C713 0.931 . S
C736 Eu737 2.835 . S
C736 C738 1.500 . S
C736 O756 1.257 . S
C736 O757 1.260 . S
Eu737 C736 2.835 . S
Eu737 O756 2.473 . S
Eu737 O757 2.480 . S
Eu737 O758 2.430 . S
Eu737 O759 2.670 . S
Eu737 O760 2.394 . S
Eu737 O765 2.355 . S
Eu737 O767 2.374 . S
C738 C736 1.500 . S
C738 C739 1.377 . S
C738 C743 1.377 . S
C739 C738 1.377 . S
C739 C740 1.395 . S
C739 H768 0.931 . S
C740 C739 1.395 . S
C740 C741 1.383 . S
C740 H769 0.931 . S
C741 C740 1.383 . S
C741 C742 1.394 . S
C742 C741 1.394 . S
C742 C743 1.378 . S
C742 H770 0.931 . S
C743 C738 1.377 . S
C743 C742 1.378 . S
C743 H771 0.931 . S
C744 O758 1.259 . S
C744 O759 1.270 . S
C745 O760 1.251 . S
C745 O761 1.251 . S
C746 Eu747 2.835 . S
C746 C748 1.500 . S
C746 O762 1.257 . S
C746 O763 1.260 . S
Eu747 C746 2.835 . S
Eu747 O759 2.355 . S
Eu747 O761 2.374 . S
Eu747 O762 2.473 . S
Eu747 O763 2.480 . S
Eu747 O764 2.430 . S
Eu747 O765 2.670 . S
Eu747 O766 2.394 . S
C748 C746 1.500 . S
C748 C749 1.377 . S
C748 C753 1.377 . S
C749 C748 1.377 . S
C749 C750 1.395 . S
C749 H772 0.931 . S
C750 C749 1.395 . S
C750 C751 1.383 . S
C750 H773 0.931 . S
C751 C750 1.383 . S
C751 C752 1.394 . S
C752 C751 1.394 . S
C752 C753 1.378 . S
C752 H774 0.931 . S
C753 C748 1.377 . S
C753 C752 1.378 . S
C753 H775 0.931 . S
C754 O764 1.259 . S
C754 O765 1.270 . S
C755 O766 1.251 . S
C755 O767 1.251 . S
O756 C736 1.257 . S
O756 Eu737 2.473 . S
O757 C736 1.260 . S
O757 Eu737 2.480 . S
O758 Eu737 2.430 . S
O758 C744 1.259 . S
O759 Eu737 2.670 . S
O759 C744 1.270 . S
O759 Eu747 2.355 . S
O760 Eu737 2.394 . S
O760 C745 1.251 . S
O761 C745 1.251 . S
O761 Eu747 2.374 . S
O762 C746 1.257 . S
O762 Eu747 2.473 . S
O763 C746 1.260 . S
O763 Eu747 2.480 . S
O764 Eu747 2.430 . S
O764 C754 1.259 . S
O765 Eu737 2.355 . S
O765 Eu747 2.670 . S
O765 C754 1.270 . S
O766 Eu747 2.394 . S
O766 C755 1.251 . S
O767 Eu737 2.374 . S
O767 C755 1.251 . S
H768 C739 0.931 . S
H769 C740 0.931 . S
H770 C742 0.931 . S
H771 C743 0.931 . S
H772 C749 0.931 . S
H773 C750 0.931 . S
H774 C752 0.931 . S
H775 C753 0.931 . S
C776 Eu777 2.835 . S
C776 C778 1.500 . S
C776 O796 1.257 . S
C776 O797 1.260 . S
Eu777 C776 2.835 . S
Eu777 O796 2.473 . S
Eu777 O797 2.480 . S
Eu777 O798 2.430 . S
Eu777 O799 2.670 . S
Eu777 O800 2.394 . S
Eu777 O805 2.355 . S
Eu777 O807 2.374 . S
C778 C776 1.500 . S
C778 C779 1.377 . S
C778 C783 1.377 . S
C779 C778 1.377 . S
C779 C780 1.395 . S
C779 H808 0.931 . S
C780 C779 1.395 . S
C780 C781 1.383 . S
C780 H809 0.931 . S
C781 C780 1.383 . S
C781 C782 1.394 . S
C782 C781 1.394 . S
C782 C783 1.378 . S
C782 H810 0.931 . S
C783 C778 1.377 . S
C783 C782 1.378 . S
C783 H811 0.931 . S
C784 O798 1.259 . S
C784 O799 1.270 . S
C785 O800 1.251 . S
C785 O801 1.251 . S
C786 Eu787 2.835 . S
C786 C788 1.500 . S
C786 O802 1.257 . S
C786 O803 1.260 . S
Eu787 C786 2.835 . S
Eu787 O799 2.355 . S
Eu787 O801 2.374 . S
Eu787 O802 2.473 . S
Eu787 O803 2.480 . S
Eu787 O804 2.430 . S
Eu787 O805 2.670 . S
Eu787 O806 2.394 . S
C788 C786 1.500 . S
C788 C789 1.377 . S
C788 C793 1.377 . S
C789 C788 1.377 . S
C789 C790 1.395 . S
C789 H812 0.931 . S
C790 C789 1.395 . S
C790 C791 1.383 . S
C790 H813 0.931 . S
C791 C790 1.383 . S
C791 C792 1.394 . S
C792 C791 1.394 . S
C792 C793 1.378 . S
C792 H814 0.931 . S
C793 C788 1.377 . S
C793 C792 1.378 . S
C793 H815 0.931 . S
C794 O804 1.259 . S
C794 O805 1.270 . S
C795 O806 1.251 . S
C795 O807 1.251 . S
O796 C776 1.257 . S
O796 Eu777 2.473 . S
O797 C776 1.260 . S
O797 Eu777 2.480 . S
O798 Eu777 2.430 . S
O798 C784 1.259 . S
O799 Eu777 2.670 . S
O799 C784 1.270 . S
O799 Eu787 2.355 . S
O800 Eu777 2.394 . S
O800 C785 1.251 . S
O801 C785 1.251 . S
O801 Eu787 2.374 . S
O802 C786 1.257 . S
O802 Eu787 2.473 . S
O803 C786 1.260 . S
O803 Eu787 2.480 . S
O804 Eu787 2.430 . S
O804 C794 1.259 . S
O805 Eu777 2.355 . S
O805 Eu787 2.670 . S
O805 C794 1.270 . S
O806 Eu787 2.394 . S
O806 C795 1.251 . S
O807 Eu777 2.374 . S
O807 C795 1.251 . S
H808 C779 0.931 . S
H809 C780 0.931 . S
H810 C782 0.931 . S
H811 C783 0.931 . S
H812 C789 0.931 . S
H813 C790 0.931 . S
H814 C792 0.931 . S
H815 C793 0.931 . S
C816 Eu817 2.835 . S
C816 C818 1.500 . S
C816 O836 1.257 . S
C816 O837 1.260 . S
Eu817 C816 2.835 . S
Eu817 O836 2.473 . S
Eu817 O837 2.480 . S
Eu817 O838 2.430 . S
Eu817 O839 2.670 . S
Eu817 O840 2.394 . S
Eu817 O845 2.355 . S
Eu817 O847 2.374 . S
C818 C816 1.500 . S
C818 C819 1.377 . S
C818 C823 1.377 . S
C819 C818 1.377 . S
C819 C820 1.395 . S
C819 H848 0.931 . S
C820 C819 1.395 . S
C820 C821 1.383 . S
C820 H849 0.931 . S
C821 C820 1.383 . S
C821 C822 1.394 . S
C822 C821 1.394 . S
C822 C823 1.378 . S
C822 H850 0.931 . S
C823 C818 1.377 . S
C823 C822 1.378 . S
C823 H851 0.931 . S
C824 O838 1.259 . S
C824 O839 1.270 . S
C825 O840 1.251 . S
C825 O841 1.251 . S
C826 Eu827 2.835 . S
C826 C828 1.500 . S
C826 O842 1.257 . S
C826 O843 1.260 . S
Eu827 C826 2.835 . S
Eu827 O839 2.355 . S
Eu827 O841 2.374 . S
Eu827 O842 2.473 . S
Eu827 O843 2.480 . S
Eu827 O844 2.430 . S
Eu827 O845 2.670 . S
Eu827 O846 2.394 . S
C828 C826 1.500 . S
C828 C829 1.377 . S
C828 C833 1.377 . S
C829 C828 1.377 . S
C829 C830 1.395 . S
C829 H852 0.931 . S
C830 C829 1.395 . S
C830 C831 1.383 . S
C830 H853 0.931 . S
C831 C830 1.383 . S
C831 C832 1.394 . S
C832 C831 1.394 . S
C832 C833 1.378 . S
C832 H854 0.931 . S
C833 C828 1.377 . S
C833 C832 1.378 . S
C833 H855 0.931 . S
C834 O844 1.259 . S
C834 O845 1.270 . S
C835 O846 1.251 . S
C835 O847 1.251 . S
O836 C816 1.257 . S
O836 Eu817 2.473 . S
O837 C816 1.260 . S
O837 Eu817 2.480 . S
O838 Eu817 2.430 . S
O838 C824 1.259 . S
O839 Eu817 2.670 . S
O839 C824 1.270 . S
O839 Eu827 2.355 . S
O840 Eu817 2.394 . S
O840 C825 1.251 . S
O841 C825 1.251 . S
O841 Eu827 2.374 . S
O842 C826 1.257 . S
O842 Eu827 2.473 . S
O843 C826 1.260 . S
O843 Eu827 2.480 . S
O844 Eu827 2.430 . S
O844 C834 1.259 . S
O845 Eu817 2.355 . S
O845 Eu827 2.670 . S
O845 C834 1.270 . S
O846 Eu827 2.394 . S
O846 C835 1.251 . S
O847 Eu817 2.374 . S
O847 C835 1.251 . S
H848 C819 0.931 . S
H849 C820 0.931 . S
H850 C822 0.931 . S
H851 C823 0.931 . S
H852 C829 0.931 . S
H853 C830 0.931 . S
H854 C832 0.931 . S
H855 C833 0.931 . S
C856 Eu857 2.835 . S
C856 C858 1.500 . S
C856 O876 1.257 . S
C856 O877 1.260 . S
Eu857 C856 2.835 . S
Eu857 O876 2.473 . S
Eu857 O877 2.480 . S
Eu857 O878 2.430 . S
Eu857 O879 2.670 . S
Eu857 O880 2.394 . S
Eu857 O885 2.355 . S
Eu857 O887 2.374 . S
C858 C856 1.500 . S
C858 C859 1.377 . S
C858 C863 1.377 . S
C859 C858 1.377 . S
C859 C860 1.395 . S
C859 H888 0.931 . S
C860 C859 1.395 . S
C860 C861 1.383 . S
C860 H889 0.931 . S
C861 C860 1.383 . S
C861 C862 1.394 . S
C862 C861 1.394 . S
C862 C863 1.378 . S
C862 H890 0.931 . S
C863 C858 1.377 . S
C863 C862 1.378 . S
C863 H891 0.931 . S
C864 O878 1.259 . S
C864 O879 1.270 . S
C865 O880 1.251 . S
C865 O881 1.251 . S
C866 Eu867 2.835 . S
C866 C868 1.500 . S
C866 O882 1.257 . S
C866 O883 1.260 . S
Eu867 C866 2.835 . S
Eu867 O879 2.355 . S
Eu867 O881 2.374 . S
Eu867 O882 2.473 . S
Eu867 O883 2.480 . S
Eu867 O884 2.430 . S
Eu867 O885 2.670 . S
Eu867 O886 2.394 . S
C868 C866 1.500 . S
C868 C869 1.377 . S
C868 C873 1.377 . S
C869 C868 1.377 . S
C869 C870 1.395 . S
C869 H892 0.931 . S
C870 C869 1.395 . S
C870 C871 1.383 . S
C870 H893 0.931 . S
C871 C870 1.383 . S
C871 C872 1.394 . S
C872 C871 1.394 . S
C872 C873 1.378 . S
C872 H894 0.931 . S
C873 C868 1.377 . S
C873 C872 1.378 . S
C873 H895 0.931 . S
C874 O884 1.259 . S
C874 O885 1.270 . S
C875 O886 1.251 . S
C875 O887 1.251 . S
O876 C856 1.257 . S
O876 Eu857 2.473 . S
O877 C856 1.260 . S
O877 Eu857 2.480 . S
O878 Eu857 2.430 . S
O878 C864 1.259 . S
O879 Eu857 2.670 . S
O879 C864 1.270 . S
O879 Eu867 2.355 . S
O880 Eu857 2.394 . S
O880 C865 1.251 . S
O881 C865 1.251 . S
O881 Eu867 2.374 . S
O882 C866 1.257 . S
O882 Eu867 2.473 . S
O883 C866 1.260 . S
O883 Eu867 2.480 . S
O884 Eu867 2.430 . S
O884 C874 1.259 . S
O885 Eu857 2.355 . S
O885 Eu867 2.670 . S
O885 C874 1.270 . S
O886 Eu867 2.394 . S
O886 C875 1.251 . S
O887 Eu857 2.374 . S
O887 C875 1.251 . S
H888 C859 0.931 . S
H889 C860 0.931 . S
H890 C862 0.931 . S
H891 C863 0.931 . S
H892 C869 0.931 . S
H893 C870 0.931 . S
H894 C872 0.931 . S
H895 C873 0.931 . S
C896 Eu897 2.835 . S
C896 C898 1.500 . S
C896 O916 1.257 . S
C896 O917 1.260 . S
Eu897 C896 2.835 . S
Eu897 O916 2.473 . S
Eu897 O917 2.480 . S
Eu897 O918 2.430 . S
Eu897 O919 2.670 . S
Eu897 O920 2.394 . S
Eu897 O925 2.355 . S
Eu897 O927 2.374 . S
C898 C896 1.500 . S
C898 C899 1.377 . S
C898 C903 1.377 . S
C899 C898 1.377 . S
C899 C900 1.395 . S
C899 H928 0.931 . S
C900 C899 1.395 . S
C900 C901 1.383 . S
C900 H929 0.931 . S
C901 C900 1.383 . S
C901 C902 1.394 . S
C902 C901 1.394 . S
C902 C903 1.378 . S
C902 H930 0.931 . S
C903 C898 1.377 . S
C903 C902 1.378 . S
C903 H931 0.931 . S
C904 O918 1.259 . S
C904 O919 1.270 . S
C905 O920 1.251 . S
C905 O921 1.251 . S
C906 Eu907 2.835 . S
C906 C908 1.500 . S
C906 O922 1.257 . S
C906 O923 1.260 . S
Eu907 C906 2.835 . S
Eu907 O919 2.355 . S
Eu907 O921 2.374 . S
Eu907 O922 2.473 . S
Eu907 O923 2.480 . S
Eu907 O924 2.430 . S
Eu907 O925 2.670 . S
Eu907 O926 2.394 . S
C908 C906 1.500 . S
C908 C909 1.377 . S
C908 C913 1.377 . S
C909 C908 1.377 . S
C909 C910 1.395 . S
C909 H932 0.931 . S
C910 C909 1.395 . S
C910 C911 1.383 . S
C910 H933 0.931 . S
C911 C910 1.383 . S
C911 C912 1.394 . S
C912 C911 1.394 . S
C912 C913 1.378 . S
C912 H934 0.931 . S
C913 C908 1.377 . S
C913 C912 1.378 . S
C913 H935 0.931 . S
C914 O924 1.259 . S
C914 O925 1.270 . S
C915 O926 1.251 . S
C915 O927 1.251 . S
O916 C896 1.257 . S
O916 Eu897 2.473 . S
O917 C896 1.260 . S
O917 Eu897 2.480 . S
O918 Eu897 2.430 . S
O918 C904 1.259 . S
O919 Eu897 2.670 . S
O919 C904 1.270 . S
O919 Eu907 2.355 . S
O920 Eu897 2.394 . S
O920 C905 1.251 . S
O921 C905 1.251 . S
O921 Eu907 2.374 . S
O922 C906 1.257 . S
O922 Eu907 2.473 . S
O923 C906 1.260 . S
O923 Eu907 2.480 . S
O924 Eu907 2.430 . S
O924 C914 1.259 . S
O925 Eu897 2.355 . S
O925 Eu907 2.670 . S
O925 C914 1.270 . S
O926 Eu907 2.394 . S
O926 C915 1.251 . S
O927 Eu897 2.374 . S
O927 C915 1.251 . S
H928 C899 0.931 . S
H929 C900 0.931 . S
H930 C902 0.931 . S
H931 C903 0.931 . S
H932 C909 0.931 . S
H933 C910 0.931 . S
H934 C912 0.931 . S
H935 C913 0.931 . S
C936 C937 1.363 . S
C936 C942 1.379 . S
C936 N944 1.356 . S
C937 C936 1.363 . S
C937 C943 1.363 . S
C938 C939 1.363 . S
C938 C943 1.379 . S
C938 N945 1.356 . S
C939 C938 1.363 . S
C939 C942 1.363 . S
N940 C942 1.356 . S
N940 H952 0.984 1_554 S
N940 H953 0.985 . S
N941 C943 1.356 . S
N941 H946 0.984 . S
N941 H947 0.985 . S
C942 C936 1.379 . S
C942 C939 1.363 . S
C942 N940 1.356 . S
C943 C937 1.363 . S
C943 C938 1.379 . S
C943 N941 1.356 . S
N944 C936 1.356 . S
N944 H950 0.984 . S
N944 H951 0.984 . S
N945 C938 1.356 . S
N945 H948 0.984 . S
N945 H949 0.985 1_565 S
H946 N941 0.984 . S
H947 N941 0.985 . S
H948 N945 0.984 . S
H949 N945 0.985 1_545 S
H950 N944 0.984 . S
H951 N944 0.984 . S
H952 N940 0.984 1_556 S
H953 N940 0.985 . S
C954 C955 1.363 . S
C954 C960 1.379 . S
C954 N962 1.356 . S
C955 C954 1.363 . S
C955 C961 1.363 . S
C956 C957 1.363 . S
C956 C961 1.379 . S
C956 N963 1.356 . S
C957 C956 1.363 . S
C957 C960 1.363 . S
N958 C960 1.356 . S
N958 H970 0.986 . S
N958 H971 0.985 . S
N959 C961 1.356 . S
N959 H964 0.984 . S
N959 H965 0.985 . S
C960 C954 1.379 . S
C960 C957 1.363 . S
C960 N958 1.356 . S
C961 C955 1.363 . S
C961 C956 1.379 . S
C961 N959 1.356 . S
N962 C954 1.356 . S
N962 H968 0.984 . S
N962 H969 0.984 . S
N963 C956 1.356 . S
N963 H966 0.984 . S
N963 H967 0.985 . S
H964 N959 0.984 . S
H965 N959 0.985 . S
H966 N963 0.984 . S
H967 N963 0.985 . S
H968 N962 0.984 . S
H969 N962 0.984 . S
H970 N958 0.986 . S
H971 N958 0.985 . S
C972 C973 1.363 . S
C972 C978 1.379 . S
C972 N980 1.356 . S
C973 C972 1.363 . S
C973 C979 1.363 . S
C974 C975 1.363 . S
C974 C979 1.379 . S
C974 N981 1.356 1_554 S
C975 C974 1.363 . S
C975 C978 1.363 . S
N976 C978 1.356 . S
N976 H988 0.984 . S
N976 H989 0.985 . S
N977 C979 1.356 1_556 S
N977 H982 0.984 . S
N977 H983 0.985 . S
C978 C972 1.379 . S
C978 C975 1.363 . S
C978 N976 1.356 . S
C979 C973 1.363 . S
C979 C974 1.379 . S
C979 N977 1.356 1_554 S
N980 C972 1.356 . S
N980 H986 0.984 . S
N980 H987 0.984 . S
N981 C974 1.356 1_556 S
N981 H984 0.984 . S
N981 H985 0.985 . S
H982 N977 0.984 . S
H983 N977 0.985 . S
H984 N981 0.984 . S
H985 N981 0.985 . S
H986 N980 0.984 . S
H987 N980 0.984 . S
H988 N976 0.984 . S
H989 N976 0.985 . S
C990 C991 1.363 . S
C990 C996 1.379 . S
C990 N998 1.356 1_556 S
C991 C990 1.363 . S
C991 C997 1.363 . S
C992 C993 1.363 . S
C992 C997 1.379 . S
C992 N999 1.356 . S
C993 C992 1.363 . S
C993 C996 1.363 . S
N994 C996 1.356 1_554 S
N994 H1006 0.984 . S
N994 H1007 0.985 . S
N995 C997 1.356 . S
N995 H1000 0.984 . S
N995 H1001 0.985 . S
C996 C990 1.379 . S
C996 C993 1.363 . S
C996 N994 1.356 1_556 S
C997 C991 1.363 . S
C997 C992 1.379 . S
C997 N995 1.356 . S
N998 C990 1.356 1_554 S
N998 H1004 0.984 . S
N998 H1005 0.984 1_554 S
N999 C992 1.356 . S
N999 H1002 0.984 . S
N999 H1003 0.985 . S
H1000 N995 0.984 . S
H1001 N995 0.985 . S
H1002 N999 0.984 . S
H1003 N999 0.985 . S
H1004 N998 0.984 . S
H1005 N998 0.984 1_556 S
H1006 N994 0.984 . S
H1007 N994 0.985 . S
C1008 C1009 1.363 . S
C1008 C1014 1.379 . S
C1008 N1016 1.356 . S
C1009 C1008 1.363 . S
C1009 C1015 1.363 . S
C1010 C1011 1.363 . S
C1010 C1015 1.379 . S
C1010 N1017 1.356 . S
C1011 C1010 1.363 . S
C1011 C1014 1.363 . S
N1012 C1014 1.356 1_554 S
N1012 H1024 0.984 . S
N1012 H1025 0.985 . S
N1013 C1015 1.356 . S
N1013 H1018 0.984 . S
N1013 H1019 0.985 . S
C1014 C1008 1.379 . S
C1014 C1011 1.363 . S
C1014 N1012 1.356 1_556 S
C1015 C1009 1.363 . S
C1015 C1010 1.379 . S
C1015 N1013 1.356 . S
N1016 C1008 1.356 . S
N1016 H1022 0.984 1_556 S
N1016 H1023 0.984 . S
N1017 C1010 1.356 . S
N1017 H1020 0.984 . S
N1017 H1021 0.985 . S
H1018 N1013 0.984 . S
H1019 N1013 0.985 . S
H1020 N1017 0.984 . S
H1021 N1017 0.985 . S
H1022 N1016 0.984 1_554 S
H1023 N1016 0.984 . S
H1024 N1012 0.984 . S
H1025 N1012 0.985 . S
C1026 C1027 1.363 1_554 S
C1026 C1032 1.379 . S
C1026 N1034 1.356 . S
C1027 C1026 1.363 1_556 S
C1027 C1033 1.363 . S
C1028 C1029 1.363 . S
C1028 C1033 1.379 . S
C1028 N1035 1.356 . S
C1029 C1028 1.363 . S
C1029 C1032 1.363 1_556 S
N1030 C1032 1.356 . S
N1030 H1042 0.984 . S
N1030 H1043 0.985 . S
N1031 C1033 1.356 . S
N1031 H1036 0.984 . S
N1031 H1037 0.985 . S
C1032 C1026 1.379 . S
C1032 C1029 1.363 1_554 S
C1032 N1030 1.356 . S
C1033 C1027 1.363 . S
C1033 C1028 1.379 . S
C1033 N1031 1.356 . S
N1034 C1026 1.356 . S
N1034 H1040 0.984 . S
N1034 H1041 0.984 . S
N1035 C1028 1.356 . S
N1035 H1038 0.984 . S
N1035 H1039 0.985 . S
H1036 N1031 0.984 . S
H1037 N1031 0.985 . S
H1038 N1035 0.984 . S
H1039 N1035 0.985 . S
H1040 N1034 0.984 . S
H1041 N1034 0.984 . S
H1042 N1030 0.984 . S
H1043 N1030 0.985 . S
C1044 C1045 1.363 . S
C1044 C1050 1.379 . S
C1044 N1052 1.356 1_556 S
C1045 C1044 1.363 . S
C1045 C1051 1.363 . S
C1046 C1047 1.363 . S
C1046 C1051 1.379 . S
C1046 N1053 1.356 . S
C1047 C1046 1.363 . S
C1047 C1050 1.363 . S
N1048 C1050 1.356 1_554 S
N1048 H1060 0.984 . S
N1048 H1061 0.985 . S
N1049 C1051 1.356 . S
N1049 H1054 0.984 . S
N1049 H1055 0.985 . S
C1050 C1044 1.379 . S
C1050 C1047 1.363 . S
C1050 N1048 1.356 1_556 S
C1051 C1045 1.363 . S
C1051 C1046 1.379 . S
C1051 N1049 1.356 . S
N1052 C1044 1.356 1_554 S
N1052 H1058 0.984 . S
N1052 H1059 0.984 1_554 S
N1053 C1046 1.356 . S
N1053 H1056 0.984 . S
N1053 H1057 0.985 . S
H1054 N1049 0.984 . S
H1055 N1049 0.985 . S
H1056 N1053 0.984 . S
H1057 N1053 0.985 . S
H1058 N1052 0.984 . S
H1059 N1052 0.984 1_556 S
H1060 N1048 0.984 . S
H1061 N1048 0.985 . S
C1062 C1063 1.363 . S
C1062 C1068 1.379 . S
C1062 N1070 1.356 . S
C1063 C1062 1.363 . S
C1063 C1069 1.363 . S
C1064 C1065 1.363 . S
C1064 C1069 1.379 . S
C1064 N1071 1.356 1_556 S
C1065 C1064 1.363 . S
C1065 C1068 1.363 . S
N1066 C1068 1.356 . S
N1066 H1078 0.984 . S
N1066 H1079 0.985 . S
N1067 C1069 1.356 . S
N1067 H1072 0.984 . S
N1067 H1073 0.985 1_556 S
C1068 C1062 1.379 . S
C1068 C1065 1.363 . S
C1068 N1066 1.356 . S
C1069 C1063 1.363 . S
C1069 C1064 1.379 . S
C1069 N1067 1.356 . S
N1070 C1062 1.356 . S
N1070 H1076 0.984 . S
N1070 H1077 0.984 . S
N1071 C1064 1.356 1_554 S
N1071 H1074 0.984 . S
N1071 H1075 0.985 . S
H1072 N1067 0.984 . S
H1073 N1067 0.985 1_554 S
H1074 N1071 0.984 . S
H1075 N1071 0.985 . S
H1076 N1070 0.984 . S
H1077 N1070 0.984 . S
H1078 N1066 0.984 . S
H1079 N1066 0.985 . S
C1080 C1081 1.363 . S
C1080 C1086 1.379 . S
C1080 N1088 1.356 . S
C1081 C1080 1.363 . S
C1081 C1087 1.351 1_556 S
C1082 C1083 1.363 1_554 S
C1082 C1087 1.378 . S
C1082 N1089 1.356 . S
C1083 C1082 1.363 1_556 S
C1083 C1086 1.363 . S
N1084 C1086 1.356 . S
N1084 H1096 0.984 . S
N1084 H1097 0.985 . S
N1085 C1087 1.366 . S
N1085 H1090 0.984 . S
N1085 H1091 0.985 . S
C1086 C1080 1.379 . S
C1086 C1083 1.363 . S
C1086 N1084 1.356 . S
C1087 C1081 1.351 1_554 S
C1087 C1082 1.378 . S
C1087 N1085 1.366 . S
N1088 C1080 1.356 . S
N1088 H1094 0.984 . S
N1088 H1095 0.984 . S
N1089 C1082 1.356 . S
N1089 H1092 0.984 . S
N1089 H1093 0.985 . S
H1090 N1085 0.984 . S
H1091 N1085 0.985 . S
H1092 N1089 0.984 . S
H1093 N1089 0.985 . S
H1094 N1088 0.984 . S
H1095 N1088 0.984 . S
H1096 N1084 0.984 . S
H1097 N1084 0.985 . S
C1098 C1099 1.363 . S
C1098 C1104 1.379 . S
C1098 N1106 1.356 . S
C1099 C1098 1.363 . S
C1099 C1105 1.363 . S
C1100 C1101 1.363 . S
C1100 C1105 1.379 . S
C1100 N1107 1.356 1_554 S
C1101 C1100 1.363 . S
C1101 C1104 1.363 . S
N1102 C1104 1.356 . S
N1102 H1114 0.984 . S
N1102 H1115 0.985 . S
N1103 C1105 1.356 . S
N1103 H1108 0.984 . S
N1103 H1109 0.985 1_554 S
C1104 C1098 1.379 . S
C1104 C1101 1.363 . S
C1104 N1102 1.356 . S
C1105 C1099 1.363 . S
C1105 C1100 1.379 . S
C1105 N1103 1.356 . S
N1106 C1098 1.356 . S
N1106 H1112 0.984 . S
N1106 H1113 0.984 . S
N1107 C1100 1.356 1_556 S
N1107 H1110 0.984 . S
N1107 H1111 0.985 . S
H1108 N1103 0.984 . S
H1109 N1103 0.985 1_556 S
H1110 N1107 0.984 . S
H1111 N1107 0.985 . S
H1112 N1106 0.984 . S
H1113 N1106 0.984 . S
H1114 N1102 0.984 . S
H1115 N1102 0.985 . S
C1116 C1117 1.363 . S
C1116 C1122 1.379 . S
C1116 N1124 1.356 . S
C1117 C1116 1.363 . S
C1117 C1123 1.363 . S
C1118 C1119 1.363 . S
C1118 C1123 1.379 . S
C1118 N1125 1.356 . S
C1119 C1118 1.363 . S
C1119 C1122 1.363 . S
N1120 C1122 1.356 . S
N1120 H1132 0.984 . S
N1120 H1133 0.985 . S
N1121 C1123 1.356 . S
N1121 H1126 0.984 . S
N1121 H1127 0.985 . S
C1122 C1116 1.379 . S
C1122 C1119 1.363 . S
C1122 N1120 1.356 . S
C1123 C1117 1.363 . S
C1123 C1118 1.379 . S
C1123 N1121 1.356 . S
N1124 C1116 1.356 . S
N1124 H1130 0.984 . S
N1124 H1131 0.984 . S
N1125 C1118 1.356 . S
N1125 H1128 0.984 . S
N1125 H1129 0.985 . S
H1126 N1121 0.984 . S
H1127 N1121 0.985 . S
H1128 N1125 0.984 . S
H1129 N1125 0.985 . S
H1130 N1124 0.984 . S
H1131 N1124 0.984 . S
H1132 N1120 0.984 . S
H1133 N1120 0.985 . S
C1134 C1135 1.363 . S
C1134 C1140 1.379 . S
C1134 N1142 1.356 . S
C1135 C1134 1.363 . S
C1135 C1141 1.363 . S
C1136 C1137 1.363 . S
C1136 C1141 1.379 . S
C1136 N1143 1.356 . S
C1137 C1136 1.363 . S
C1137 C1140 1.363 . S
N1138 C1140 1.356 . S
N1138 H1150 0.984 1_565 S
N1138 H1151 0.985 . S
N1139 C1141 1.356 . S
N1139 H1144 0.984 . S
N1139 H1145 0.985 . S
C1140 C1134 1.379 . S
C1140 C1137 1.363 . S
C1140 N1138 1.356 . S
C1141 C1135 1.363 . S
C1141 C1136 1.379 . S
C1141 N1139 1.356 . S
N1142 C1134 1.356 . S
N1142 H1148 0.984 . S
N1142 H1149 0.984 . S
N1143 C1136 1.356 . S
N1143 H1146 0.984 . S
N1143 H1147 0.985 . S
H1144 N1139 0.984 . S
H1145 N1139 0.985 . S
H1146 N1143 0.984 . S
H1147 N1143 0.985 . S
H1148 N1142 0.984 . S
H1149 N1142 0.984 . S
H1150 N1138 0.984 1_545 S
H1151 N1138 0.985 . S
C1152 C1153 1.363 1_455 S
C1152 C1158 1.379 . S
C1152 N1160 1.356 . S
C1153 C1152 1.363 1_655 S
C1153 C1159 1.363 1_655 S
C1154 C1155 1.363 . S
C1154 C1159 1.379 . S
C1154 N1161 1.356 . S
C1155 C1154 1.363 . S
C1155 C1158 1.363 . S
N1156 C1158 1.356 . S
N1156 H1168 0.984 . S
N1156 H1169 0.985 . S
N1157 C1159 1.356 1_655 S
N1157 H1162 0.984 . S
N1157 H1163 0.985 . S
C1158 C1152 1.379 . S
C1158 C1155 1.363 . S
C1158 N1156 1.356 . S
C1159 C1153 1.363 1_455 S
C1159 C1154 1.379 . S
C1159 N1157 1.356 1_455 S
N1160 C1152 1.356 . S
N1160 H1166 0.984 . S
N1160 H1167 0.984 1_455 S
N1161 C1154 1.356 . S
N1161 H1164 0.984 . S
N1161 H1165 0.985 . S
H1162 N1157 0.984 . S
H1163 N1157 0.985 . S
H1164 N1161 0.984 . S
H1165 N1161 0.985 . S
H1166 N1160 0.984 . S
H1167 N1160 0.984 1_655 S
H1168 N1156 0.984 . S
H1169 N1156 0.985 . S
C1170 C1171 1.363 . S
C1170 C1176 1.379 . S
C1170 N1178 1.356 . S
C1171 C1170 1.363 . S
C1171 C1177 1.363 . S
C1172 C1173 1.363 . S
C1172 C1177 1.379 . S
C1172 N1179 1.356 . S
C1173 C1172 1.363 . S
C1173 C1176 1.363 . S
N1174 C1176 1.356 . S
N1174 H1186 0.984 . S
N1174 H1187 0.985 . S
N1175 C1177 1.356 . S
N1175 H1180 0.984 . S
N1175 H1181 0.985 . S
C1176 C1170 1.379 . S
C1176 C1173 1.363 . S
C1176 N1174 1.356 . S
C1177 C1171 1.363 . S
C1177 C1172 1.379 . S
C1177 N1175 1.356 . S
N1178 C1170 1.356 . S
N1178 H1184 0.984 . S
N1178 H1185 0.984 . S
N1179 C1172 1.356 . S
N1179 H1182 0.984 . S
N1179 H1183 0.985 . S
H1180 N1175 0.984 . S
H1181 N1175 0.985 . S
H1182 N1179 0.984 . S
H1183 N1179 0.985 . S
H1184 N1178 0.984 . S
H1185 N1178 0.984 . S
H1186 N1174 0.984 . S
H1187 N1174 0.985 . S
C1188 C1189 1.367 . S
C1188 C1194 1.350 1_545 S
C1188 N1196 1.387 . S
C1189 C1188 1.367 . S
C1189 C1195 1.363 1_545 S
C1190 C1191 1.363 . S
C1190 C1195 1.379 . S
C1190 N1197 1.356 . S
C1191 C1190 1.363 . S
C1191 C1194 1.363 . S
N1192 C1194 1.356 . S
N1192 H1204 0.984 . S
N1192 H1205 0.985 . S
N1193 C1195 1.356 1_545 S
N1193 H1198 0.984 . S
N1193 H1199 0.985 . S
C1194 C1188 1.350 1_565 S
C1194 C1191 1.363 . S
C1194 N1192 1.356 . S
C1195 C1189 1.363 1_565 S
C1195 C1190 1.379 . S
C1195 N1193 1.356 1_565 S
N1196 C1188 1.387 . S
N1196 H1202 0.984 . S
N1196 H1203 0.984 . S
N1197 C1190 1.356 . S
N1197 H1200 0.984 . S
N1197 H1201 0.985 . S
H1198 N1193 0.984 . S
H1199 N1193 0.985 . S
H1200 N1197 0.984 . S
H1201 N1197 0.985 . S
H1202 N1196 0.984 . S
H1203 N1196 0.984 . S
H1204 N1192 0.984 . S
H1205 N1192 0.985 . S
C1206 C1207 1.363 . S
C1206 C1212 1.379 . S
C1206 N1214 1.356 . S
C1207 C1206 1.363 . S
C1207 C1213 1.363 . S
C1208 C1209 1.363 . S
C1208 C1213 1.379 . S
C1208 N1215 1.356 . S
C1209 C1208 1.363 . S
C1209 C1212 1.363 . S
N1210 C1212 1.356 . S
N1210 H1222 0.984 . S
N1210 H1223 0.985 . S
N1211 C1213 1.356 . S
N1211 H1216 0.984 . S
N1211 H1217 0.985 . S
C1212 C1206 1.379 . S
C1212 C1209 1.363 . S
C1212 N1210 1.356 . S
C1213 C1207 1.363 . S
C1213 C1208 1.379 . S
C1213 N1211 1.356 . S
N1214 C1206 1.356 . S
N1214 H1220 0.984 . S
N1214 H1221 0.984 . S
N1215 C1208 1.356 . S
N1215 H1218 0.984 . S
N1215 H1219 0.985 . S
H1216 N1211 0.984 . S
H1217 N1211 0.985 . S
H1218 N1215 0.984 . S
H1219 N1215 0.985 . S
H1220 N1214 0.984 . S
H1221 N1214 0.984 . S
H1222 N1210 0.984 . S
H1223 N1210 0.985 . S
C1224 C1225 1.363 . S
C1224 C1230 1.379 . S
C1224 N1232 1.356 . S
C1225 C1224 1.363 . S
C1225 C1231 1.363 . S
C1226 C1227 1.363 . S
C1226 C1231 1.379 . S
C1226 N1233 1.356 . S
C1227 C1226 1.363 . S
C1227 C1230 1.363 . S
N1228 C1230 1.356 . S
N1228 H1240 0.984 . S
N1228 H1241 0.985 . S
N1229 C1231 1.356 . S
N1229 H1234 0.984 . S
N1229 H1235 0.985 . S
C1230 C1224 1.379 . S
C1230 C1227 1.363 . S
C1230 N1228 1.356 . S
C1231 C1225 1.363 . S
C1231 C1226 1.379 . S
C1231 N1229 1.356 . S
N1232 C1224 1.356 . S
N1232 H1238 0.984 . S
N1232 H1239 0.984 . S
N1233 C1226 1.356 . S
N1233 H1236 0.984 . S
N1233 H1237 0.985 . S
H1234 N1229 0.984 . S
H1235 N1229 0.985 . S
H1236 N1233 0.984 . S
H1237 N1233 0.985 . S
H1238 N1232 0.984 . S
H1239 N1232 0.984 . S
H1240 N1228 0.984 . S
H1241 N1228 0.985 . S
C1242 C1243 1.363 . S
C1242 C1248 1.379 . S
C1242 N1250 1.356 . S
C1243 C1242 1.363 . S
C1243 C1249 1.363 . S
C1244 C1245 1.363 . S
C1244 C1249 1.379 . S
C1244 N1251 1.356 . S
C1245 C1244 1.363 . S
C1245 C1248 1.363 . S
N1246 C1248 1.356 . S
N1246 H1258 0.984 . S
N1246 H1259 0.985 . S
N1247 C1249 1.356 . S
N1247 H1252 0.984 . S
N1247 H1253 0.985 . S
C1248 C1242 1.379 . S
C1248 C1245 1.363 . S
C1248 N1246 1.356 . S
C1249 C1243 1.363 . S
C1249 C1244 1.379 . S
C1249 N1247 1.356 . S
N1250 C1242 1.356 . S
N1250 H1256 0.984 . S
N1250 H1257 0.984 . S
N1251 C1244 1.356 . S
N1251 H1254 0.984 . S
N1251 H1255 0.985 . S
H1252 N1247 0.984 . S
H1253 N1247 0.985 . S
H1254 N1251 0.984 . S
H1255 N1251 0.985 . S
H1256 N1250 0.984 . S
H1257 N1250 0.984 . S
H1258 N1246 0.984 . S
H1259 N1246 0.985 . S
C1260 C1261 1.363 . S
C1260 C1266 1.379 . S
C1260 N1268 1.356 . S
C1261 C1260 1.363 . S
C1261 C1267 1.363 . S
C1262 C1263 1.363 . S
C1262 C1267 1.379 . S
C1262 N1269 1.356 . S
C1263 C1262 1.363 . S
C1263 C1266 1.363 . S
N1264 C1266 1.356 . S
N1264 H1276 0.984 . S
N1264 H1277 0.985 . S
N1265 C1267 1.356 . S
N1265 H1270 0.984 . S
N1265 H1271 0.985 . S
C1266 C1260 1.379 . S
C1266 C1263 1.363 . S
C1266 N1264 1.356 . S
C1267 C1261 1.363 . S
C1267 C1262 1.379 . S
C1267 N1265 1.356 . S
N1268 C1260 1.356 . S
N1268 H1274 0.984 . S
N1268 H1275 0.984 . S
N1269 C1262 1.356 . S
N1269 H1272 0.984 . S
N1269 H1273 0.985 . S
H1270 N1265 0.984 . S
H1271 N1265 0.985 . S
H1272 N1269 0.984 . S
H1273 N1269 0.985 . S
H1274 N1268 0.984 . S
H1275 N1268 0.984 . S
H1276 N1264 0.984 . S
H1277 N1264 0.985 . S
C1278 C1279 1.363 . S
C1278 C1284 1.379 . S
C1278 N1286 1.356 . S
C1279 C1278 1.363 . S
C1279 C1285 1.363 . S
C1280 C1281 1.363 . S
C1280 C1285 1.379 . S
C1280 N1287 1.356 . S
C1281 C1280 1.363 . S
C1281 C1284 1.363 . S
N1282 C1284 1.356 . S
N1282 H1294 0.984 . S
N1282 H1295 0.985 . S
N1283 C1285 1.356 . S
N1283 H1288 0.984 . S
N1283 H1289 0.985 . S
C1284 C1278 1.379 . S
C1284 C1281 1.363 . S
C1284 N1282 1.356 . S
C1285 C1279 1.363 . S
C1285 C1280 1.379 . S
C1285 N1283 1.356 . S
N1286 C1278 1.356 . S
N1286 H1292 0.984 . S
N1286 H1293 0.984 . S
N1287 C1280 1.356 . S
N1287 H1290 0.984 . S
N1287 H1291 0.985 . S
H1288 N1283 0.984 . S
H1289 N1283 0.985 . S
H1290 N1287 0.984 . S
H1291 N1287 0.985 . S
H1292 N1286 0.984 . S
H1293 N1286 0.984 . S
H1294 N1282 0.984 . S
H1295 N1282 0.985 . S
C1296 C1297 1.363 . S
C1296 C1302 1.379 . S
C1296 N1304 1.356 . S
C1297 C1296 1.363 . S
C1297 C1303 1.363 . S
C1298 C1299 1.363 . S
C1298 C1303 1.379 . S
C1298 N1305 1.356 . S
C1299 C1298 1.363 . S
C1299 C1302 1.363 . S
N1300 C1302 1.356 . S
N1300 H1312 0.984 . S
N1300 H1313 0.985 . S
N1301 C1303 1.356 . S
N1301 H1306 0.984 . S
N1301 H1307 0.985 . S
C1302 C1296 1.379 . S
C1302 C1299 1.363 . S
C1302 N1300 1.356 . S
C1303 C1297 1.363 . S
C1303 C1298 1.379 . S
C1303 N1301 1.356 . S
N1304 C1296 1.356 . S
N1304 H1310 0.984 . S
N1304 H1311 0.984 . S
N1305 C1298 1.356 . S
N1305 H1308 0.984 . S
N1305 H1309 0.985 . S
H1306 N1301 0.984 . S
H1307 N1301 0.985 . S
H1308 N1305 0.984 . S
H1309 N1305 0.985 . S
H1310 N1304 0.984 . S
H1311 N1304 0.984 . S
H1312 N1300 0.984 . S
H1313 N1300 0.985 . S
C1314 C1315 1.363 1_565 S
C1314 C1320 1.379 . S
C1314 N1322 1.356 1_565 S
C1315 C1314 1.363 1_545 S
C1315 C1321 1.363 1_545 S
C1316 C1317 1.363 . S
C1316 C1321 1.379 . S
C1316 N1323 1.356 . S
C1317 C1316 1.363 . S
C1317 C1320 1.363 . S
N1318 C1320 1.356 . S
N1318 H1330 0.984 . S
N1318 H1331 0.985 . S
N1319 C1321 1.356 1_545 S
N1319 H1324 0.984 . S
N1319 H1325 0.985 . S
C1320 C1314 1.379 . S
C1320 C1317 1.363 . S
C1320 N1318 1.356 . S
C1321 C1315 1.363 1_565 S
C1321 C1316 1.379 . S
C1321 N1319 1.356 1_565 S
N1322 C1314 1.356 1_545 S
N1322 H1328 0.984 . S
N1322 H1329 0.984 . S
N1323 C1316 1.356 . S
N1323 H1326 0.984 . S
N1323 H1327 0.985 . S
H1324 N1319 0.984 . S
H1325 N1319 0.985 . S
H1326 N1323 0.984 . S
H1327 N1323 0.985 . S
H1328 N1322 0.984 . S
H1329 N1322 0.984 . S
H1330 N1318 0.984 . S
H1331 N1318 0.985 . S
C1332 C1333 1.363 . S
C1332 C1338 1.379 . S
C1332 N1340 1.356 1_455 S
C1333 C1332 1.363 . S
C1333 C1339 1.363 . S
C1334 C1335 1.363 . S
C1334 C1339 1.379 . S
C1334 N1341 1.356 . S
C1335 C1334 1.363 . S
C1335 C1338 1.363 . S
N1336 C1338 1.356 . S
N1336 H1348 0.984 . S
N1336 H1349 0.985 . S
N1337 C1339 1.356 . S
N1337 H1342 0.984 1_455 S
N1337 H1343 0.985 . S
C1338 C1332 1.379 . S
C1338 C1335 1.363 . S
C1338 N1336 1.356 . S
C1339 C1333 1.363 . S
C1339 C1334 1.379 . S
C1339 N1337 1.356 . S
N1340 C1332 1.356 1_655 S
N1340 H1346 0.984 . S
N1340 H1347 0.984 . S
N1341 C1334 1.356 . S
N1341 H1344 0.984 . S
N1341 H1345 0.985 . S
H1342 N1337 0.984 1_655 S
H1343 N1337 0.985 . S
H1344 N1341 0.984 . S
H1345 N1341 0.985 . S
H1346 N1340 0.984 . S
H1347 N1340 0.984 . S
H1348 N1336 0.984 . S
H1349 N1336 0.985 . S
C1350 C1351 1.363 . S
C1350 C1356 1.379 . S
C1350 N1358 1.356 . S
C1351 C1350 1.363 . S
C1351 C1357 1.363 . S
C1352 C1353 1.363 . S
C1352 C1357 1.379 . S
C1352 N1359 1.356 . S
C1353 C1352 1.363 . S
C1353 C1356 1.363 . S
N1354 C1356 1.356 . S
N1354 H1366 0.984 . S
N1354 H1367 0.985 . S
N1355 C1357 1.356 . S
N1355 H1360 0.984 . S
N1355 H1361 0.985 . S
C1356 C1350 1.379 . S
C1356 C1353 1.363 . S
C1356 N1354 1.356 . S
C1357 C1351 1.363 . S
C1357 C1352 1.379 . S
C1357 N1355 1.356 . S
N1358 C1350 1.356 . S
N1358 H1364 0.984 . S
N1358 H1365 0.984 . S
N1359 C1352 1.356 . S
N1359 H1362 0.984 . S
N1359 H1363 0.985 . S
H1360 N1355 0.984 . S
H1361 N1355 0.985 . S
H1362 N1359 0.984 . S
H1363 N1359 0.985 . S
H1364 N1358 0.984 . S
H1365 N1358 0.984 . S
H1366 N1354 0.984 . S
H1367 N1354 0.985 . S
C1368 C1369 1.363 . S
C1368 C1374 1.379 . S
C1368 N1376 1.356 . S
C1369 C1368 1.363 . S
C1369 C1375 1.363 . S
C1370 C1371 1.363 . S
C1370 C1375 1.379 . S
C1370 N1377 1.356 . S
C1371 C1370 1.363 . S
C1371 C1374 1.363 . S
N1372 C1374 1.356 . S
N1372 H1384 0.984 . S
N1372 H1385 0.985 . S
N1373 C1375 1.356 . S
N1373 H1378 0.984 . S
N1373 H1379 0.985 . S
C1374 C1368 1.379 . S
C1374 C1371 1.363 . S
C1374 N1372 1.356 . S
C1375 C1369 1.363 . S
C1375 C1370 1.379 . S
C1375 N1373 1.356 . S
N1376 C1368 1.356 . S
N1376 H1382 0.984 . S
N1376 H1383 0.984 . S
N1377 C1370 1.356 . S
N1377 H1380 0.984 . S
N1377 H1381 0.985 . S
H1378 N1373 0.984 . S
H1379 N1373 0.985 . S
H1380 N1377 0.984 . S
H1381 N1377 0.985 . S
H1382 N1376 0.984 . S
H1383 N1376 0.984 . S
H1384 N1372 0.984 . S
H1385 N1372 0.985 . S
C1386 C1387 1.363 . S
C1386 C1392 1.379 . S
C1386 N1394 1.356 . S
C1387 C1386 1.363 . S
C1387 C1393 1.363 . S
C1388 C1389 1.363 . S
C1388 C1393 1.379 . S
C1388 N1395 1.356 . S
C1389 C1388 1.363 . S
C1389 C1392 1.363 . S
N1390 C1392 1.356 . S
N1390 H1402 0.984 . S
N1390 H1403 0.985 . S
N1391 C1393 1.356 . S
N1391 H1396 0.984 . S
N1391 H1397 0.985 . S
C1392 C1386 1.379 . S
C1392 C1389 1.363 . S
C1392 N1390 1.356 . S
C1393 C1387 1.363 . S
C1393 C1388 1.379 . S
C1393 N1391 1.356 . S
N1394 C1386 1.356 . S
N1394 H1400 0.984 . S
N1394 H1401 0.984 . S
N1395 C1388 1.356 . S
N1395 H1398 0.984 . S
N1395 H1399 0.985 . S
H1396 N1391 0.984 . S
H1397 N1391 0.985 . S
H1398 N1395 0.984 . S
H1399 N1395 0.985 . S
H1400 N1394 0.984 . S
H1401 N1394 0.984 . S
H1402 N1390 0.984 . S
H1403 N1390 0.985 . S
C1404 C1405 1.363 . S
C1404 C1410 1.379 . S
C1404 N1412 1.356 . S
C1405 C1404 1.363 . S
C1405 C1411 1.363 . S
C1406 C1407 1.363 . S
C1406 C1411 1.379 . S
C1406 N1413 1.356 . S
C1407 C1406 1.363 . S
C1407 C1410 1.363 . S
N1408 C1410 1.356 . S
N1408 H1420 0.984 . S
N1408 H1421 0.985 . S
N1409 C1411 1.356 . S
N1409 H1414 0.984 . S
N1409 H1415 0.985 . S
C1410 C1404 1.379 . S
C1410 C1407 1.363 . S
C1410 N1408 1.356 . S
C1411 C1405 1.363 . S
C1411 C1406 1.379 . S
C1411 N1409 1.356 . S
N1412 C1404 1.356 . S
N1412 H1418 0.984 . S
N1412 H1419 0.984 . S
N1413 C1406 1.356 . S
N1413 H1416 0.984 . S
N1413 H1417 0.985 . S
H1414 N1409 0.984 . S
H1415 N1409 0.985 . S
H1416 N1413 0.984 . S
H1417 N1413 0.985 . S
H1418 N1412 0.984 . S
H1419 N1412 0.984 . S
H1420 N1408 0.984 . S
H1421 N1408 0.985 . S
C1422 C1423 1.363 1_545 S
C1422 C1428 1.379 . S
C1422 N1430 1.356 1_545 S
C1423 C1422 1.363 1_565 S
C1423 C1429 1.363 1_565 S
C1424 C1425 1.363 . S
C1424 C1429 1.379 . S
C1424 N1431 1.356 . S
C1425 C1424 1.363 . S
C1425 C1428 1.363 . S
N1426 C1428 1.356 . S
N1426 H1438 0.984 . S
N1426 H1439 0.985 . S
N1427 C1429 1.356 1_565 S
N1427 H1432 0.984 . S
N1427 H1433 0.985 . S
C1428 C1422 1.379 . S
C1428 C1425 1.363 . S
C1428 N1426 1.356 . S
C1429 C1423 1.363 1_545 S
C1429 C1424 1.379 . S
C1429 N1427 1.356 1_545 S
N1430 C1422 1.356 1_565 S
N1430 H1436 0.984 . S
N1430 H1437 0.984 . S
N1431 C1424 1.356 . S
N1431 H1434 0.984 . S
N1431 H1435 0.985 . S
H1432 N1427 0.984 . S
H1433 N1427 0.985 . S
H1434 N1431 0.984 . S
H1435 N1431 0.985 . S
H1436 N1430 0.984 . S
H1437 N1430 0.984 . S
H1438 N1426 0.984 . S
H1439 N1426 0.985 . S
C1440 C1441 1.363 . S
C1440 C1446 1.379 . S
C1440 N1448 1.356 . S
C1441 C1440 1.363 . S
C1441 C1447 1.363 . S
C1442 C1443 1.363 . S
C1442 C1447 1.379 . S
C1442 N1449 1.356 . S
C1443 C1442 1.363 . S
C1443 C1446 1.363 . S
N1444 C1446 1.356 . S
N1444 H1456 0.984 . S
N1444 H1457 0.985 . S
N1445 C1447 1.356 1_455 S
N1445 H1450 0.984 . S
N1445 H1451 0.985 . S
C1446 C1440 1.379 . S
C1446 C1443 1.363 . S
C1446 N1444 1.356 . S
C1447 C1441 1.363 . S
C1447 C1442 1.379 . S
C1447 N1445 1.356 1_655 S
N1448 C1440 1.356 . S
N1448 H1454 0.984 . S
N1448 H1455 0.987 . S
N1449 C1442 1.356 . S
N1449 H1452 0.984 . S
N1449 H1453 0.985 . S
H1450 N1445 0.984 . S
H1451 N1445 0.985 . S
H1452 N1449 0.984 . S
H1453 N1449 0.985 . S
H1454 N1448 0.984 . S
H1455 N1448 0.987 . S
H1456 N1444 0.984 . S
H1457 N1444 0.985 . S
C1458 C1459 1.363 . S
C1458 C1464 1.379 . S
C1458 N1466 1.356 . S
C1459 C1458 1.363 . S
C1459 C1465 1.363 . S
C1460 C1461 1.363 . S
C1460 C1465 1.379 . S
C1460 N1467 1.356 . S
C1461 C1460 1.363 . S
C1461 C1464 1.363 . S
N1462 C1464 1.356 . S
N1462 H1474 0.984 . S
N1462 H1475 0.985 . S
N1463 C1465 1.356 . S
N1463 H1468 0.984 . S
N1463 H1469 0.985 . S
C1464 C1458 1.379 . S
C1464 C1461 1.363 . S
C1464 N1462 1.356 . S
C1465 C1459 1.363 . S
C1465 C1460 1.379 . S
C1465 N1463 1.356 . S
N1466 C1458 1.356 . S
N1466 H1472 0.984 . S
N1466 H1473 0.984 . S
N1467 C1460 1.356 . S
N1467 H1470 0.984 . S
N1467 H1471 0.985 . S
H1468 N1463 0.984 . S
H1469 N1463 0.985 . S
H1470 N1467 0.984 . S
H1471 N1467 0.985 . S
H1472 N1466 0.984 . S
H1473 N1466 0.984 . S
H1474 N1462 0.984 . S
H1475 N1462 0.985 . S
C1476 C1477 1.363 1_655 S
C1476 C1482 1.379 . S
C1476 N1484 1.356 1_655 S
C1477 C1476 1.363 1_455 S
C1477 C1483 1.363 1_455 S
C1478 C1479 1.363 . S
C1478 C1483 1.379 . S
C1478 N1485 1.356 . S
C1479 C1478 1.363 . S
C1479 C1482 1.363 . S
N1480 C1482 1.356 . S
N1480 H1492 0.984 . S
N1480 H1493 0.985 . S
N1481 C1483 1.356 . S
N1481 H1486 0.984 1_655 S
N1481 H1487 0.985 . S
C1482 C1476 1.379 . S
C1482 C1479 1.363 . S
C1482 N1480 1.356 . S
C1483 C1477 1.363 1_655 S
C1483 C1478 1.379 . S
C1483 N1481 1.356 . S
N1484 C1476 1.356 1_455 S
N1484 H1490 0.984 . S
N1484 H1491 0.984 . S
N1485 C1478 1.356 . S
N1485 H1488 0.984 . S
N1485 H1489 0.985 . S
H1486 N1481 0.984 1_455 S
H1487 N1481 0.985 . S
H1488 N1485 0.984 . S
H1489 N1485 0.985 . S
H1490 N1484 0.984 . S
H1491 N1484 0.984 . S
H1492 N1480 0.984 . S
H1493 N1480 0.985 . S
C1494 C1495 1.363 . S
C1494 C1500 1.379 . S
C1494 N1502 1.356 . S
C1495 C1494 1.363 . S
C1495 C1501 1.363 . S
C1496 C1497 1.363 . S
C1496 C1501 1.379 . S
C1496 N1503 1.356 . S
C1497 C1496 1.363 . S
C1497 C1500 1.363 . S
N1498 C1500 1.356 . S
N1498 H1510 0.984 . S
N1498 H1511 0.985 . S
N1499 C1501 1.356 . S
N1499 H1504 0.984 . S
N1499 H1505 0.985 . S
C1500 C1494 1.379 . S
C1500 C1497 1.363 . S
C1500 N1498 1.356 . S
C1501 C1495 1.363 . S
C1501 C1496 1.379 . S
C1501 N1499 1.356 . S
N1502 C1494 1.356 . S
N1502 H1508 0.984 . S
N1502 H1509 0.984 . S
N1503 C1496 1.356 . S
N1503 H1506 0.984 . S
N1503 H1507 0.985 . S
H1504 N1499 0.984 . S
H1505 N1499 0.985 . S
H1506 N1503 0.984 . S
H1507 N1503 0.985 . S
H1508 N1502 0.984 . S
H1509 N1502 0.984 . S
H1510 N1498 0.984 . S
H1511 N1498 0.985 . S
C1512 C1513 1.361 1_545 S
C1512 C1518 1.389 . S
C1512 N1520 1.346 1_545 S
C1513 C1512 1.361 1_565 S
C1513 C1519 1.363 1_565 S
C1514 C1515 1.363 . S
C1514 C1519 1.379 . S
C1514 N1521 1.356 . S
C1515 C1514 1.363 . S
C1515 C1518 1.363 . S
N1516 C1518 1.356 . S
N1516 H1528 0.984 . S
N1516 H1529 0.985 . S
N1517 C1519 1.356 1_565 S
N1517 H1522 0.984 . S
N1517 H1523 0.985 . S
C1518 C1512 1.389 . S
C1518 C1515 1.363 . S
C1518 N1516 1.356 . S
C1519 C1513 1.363 1_545 S
C1519 C1514 1.379 . S
C1519 N1517 1.356 1_545 S
N1520 C1512 1.346 1_565 S
N1520 H1526 0.984 . S
N1520 H1527 0.984 . S
N1521 C1514 1.356 . S
N1521 H1524 0.984 . S
N1521 H1525 0.985 . S
H1522 N1517 0.984 . S
H1523 N1517 0.985 . S
H1524 N1521 0.984 . S
H1525 N1521 0.985 . S
H1526 N1520 0.984 . S
H1527 N1520 0.984 . S
H1528 N1516 0.984 . S
H1529 N1516 0.985 . S
C1530 C1531 1.363 . S
C1530 C1536 1.379 . S
C1530 N1538 1.356 . S
C1531 C1530 1.363 . S
C1531 C1537 1.363 . S
C1532 C1533 1.363 . S
C1532 C1537 1.379 . S
C1532 N1539 1.356 . S
C1533 C1532 1.363 . S
C1533 C1536 1.363 . S
N1534 C1536 1.356 . S
N1534 H1546 0.984 . S
N1534 H1547 0.985 . S
N1535 C1537 1.356 . S
N1535 H1540 0.984 . S
N1535 H1541 0.985 . S
C1536 C1530 1.379 . S
C1536 C1533 1.363 . S
C1536 N1534 1.356 . S
C1537 C1531 1.363 . S
C1537 C1532 1.379 . S
C1537 N1535 1.356 . S
N1538 C1530 1.356 . S
N1538 H1544 0.984 . S
N1538 H1545 0.984 . S
N1539 C1532 1.356 . S
N1539 H1542 0.984 . S
N1539 H1543 0.985 . S
H1540 N1535 0.984 . S
H1541 N1535 0.985 . S
H1542 N1539 0.984 . S
H1543 N1539 0.985 . S
H1544 N1538 0.984 . S
H1545 N1538 0.984 . S
H1546 N1534 0.984 . S
H1547 N1534 0.985 . S
C1548 C1549 1.363 . S
C1548 C1554 1.379 . S
C1548 N1556 1.356 . S
C1549 C1548 1.363 . S
C1549 C1555 1.363 . S
C1550 C1551 1.363 . S
C1550 C1555 1.379 . S
C1550 N1557 1.356 . S
C1551 C1550 1.363 . S
C1551 C1554 1.363 . S
N1552 C1554 1.356 . S
N1552 H1564 0.984 . S
N1552 H1565 0.985 . S
N1553 C1555 1.356 . S
N1553 H1558 0.984 . S
N1553 H1559 0.985 . S
C1554 C1548 1.379 . S
C1554 C1551 1.363 . S
C1554 N1552 1.356 . S
C1555 C1549 1.363 . S
C1555 C1550 1.379 . S
C1555 N1553 1.356 . S
N1556 C1548 1.356 . S
N1556 H1562 0.984 . S
N1556 H1563 0.984 . S
N1557 C1550 1.356 . S
N1557 H1560 0.984 . S
N1557 H1561 0.985 . S
H1558 N1553 0.984 . S
H1559 N1553 0.985 . S
H1560 N1557 0.984 . S
H1561 N1557 0.985 . S
H1562 N1556 0.984 . S
H1563 N1556 0.984 . S
H1564 N1552 0.984 . S
H1565 N1552 0.985 . S
C1566 C1567 1.363 . S
C1566 C1572 1.379 . S
C1566 N1574 1.356 . S
C1567 C1566 1.363 . S
C1567 C1573 1.363 . S
C1568 C1569 1.363 . S
C1568 C1573 1.379 . S
C1568 N1575 1.356 . S
C1569 C1568 1.363 . S
C1569 C1572 1.363 . S
N1570 C1572 1.356 . S
N1570 H1582 0.984 . S
N1570 H1583 0.985 . S
N1571 C1573 1.356 . S
N1571 H1576 0.984 . S
N1571 H1577 0.985 . S
C1572 C1566 1.379 . S
C1572 C1569 1.363 . S
C1572 N1570 1.356 . S
C1573 C1567 1.363 . S
C1573 C1568 1.379 . S
C1573 N1571 1.356 . S
N1574 C1566 1.356 . S
N1574 H1580 0.984 . S
N1574 H1581 0.984 . S
N1575 C1568 1.356 . S
N1575 H1578 0.984 . S
N1575 H1579 0.985 . S
H1576 N1571 0.984 . S
H1577 N1571 0.985 . S
H1578 N1575 0.984 . S
H1579 N1575 0.985 . S
H1580 N1574 0.984 . S
H1581 N1574 0.984 . S
H1582 N1570 0.984 . S
H1583 N1570 0.985 . S
C1584 C1585 1.363 . S
C1584 C1590 1.375 1_565 S
C1584 N1592 1.356 . S
C1585 C1584 1.363 . S
C1585 C1591 1.363 . S
C1586 C1587 1.363 . S
C1586 C1591 1.379 . S
C1586 N1593 1.356 . S
C1587 C1586 1.363 . S
C1587 C1590 1.357 1_565 S
N1588 C1590 1.365 . S
N1588 H1600 0.984 . S
N1588 H1601 0.985 . S
N1589 C1591 1.356 . S
N1589 H1594 0.984 . S
N1589 H1595 0.985 . S
C1590 C1584 1.375 1_545 S
C1590 C1587 1.357 1_545 S
C1590 N1588 1.365 . S
C1591 C1585 1.363 . S
C1591 C1586 1.379 . S
C1591 N1589 1.356 . S
N1592 C1584 1.356 . S
N1592 H1598 0.984 1_565 S
N1592 H1599 0.984 . S
N1593 C1586 1.356 . S
N1593 H1596 0.984 . S
N1593 H1597 0.985 . S
H1594 N1589 0.984 . S
H1595 N1589 0.985 . S
H1596 N1593 0.984 . S
H1597 N1593 0.985 . S
H1598 N1592 0.984 1_545 S
H1599 N1592 0.984 . S
H1600 N1588 0.984 . S
H1601 N1588 0.985 . S
C1602 C1603 1.363 . S
C1602 C1608 1.379 . S
C1602 N1610 1.356 . S
C1603 C1602 1.363 . S
C1603 C1609 1.363 . S
C1604 C1605 1.363 . S
C1604 C1609 1.379 . S
C1604 N1611 1.356 . S
C1605 C1604 1.363 . S
C1605 C1608 1.363 . S
N1606 C1608 1.356 . S
N1606 H1618 0.984 . S
N1606 H1619 0.985 . S
N1607 C1609 1.356 . S
N1607 H1612 0.984 . S
N1607 H1613 0.985 . S
C1608 C1602 1.379 . S
C1608 C1605 1.363 . S
C1608 N1606 1.356 . S
C1609 C1603 1.363 . S
C1609 C1604 1.379 . S
C1609 N1607 1.356 . S
N1610 C1602 1.356 . S
N1610 H1616 0.984 . S
N1610 H1617 0.984 . S
N1611 C1604 1.356 . S
N1611 H1614 0.984 . S
N1611 H1615 0.985 . S
H1612 N1607 0.984 . S
H1613 N1607 0.985 . S
H1614 N1611 0.984 . S
H1615 N1611 0.985 . S
H1616 N1610 0.984 . S
H1617 N1610 0.984 . S
H1618 N1606 0.984 . S
H1619 N1606 0.985 . S
C1620 C1621 1.363 . S
C1620 C1626 1.379 . S
C1620 N1628 1.356 . S
C1621 C1620 1.363 . S
C1621 C1627 1.363 . S
C1622 C1623 1.363 . S
C1622 C1627 1.379 . S
C1622 N1629 1.356 . S
C1623 C1622 1.363 . S
C1623 C1626 1.363 . S
N1624 C1626 1.356 . S
N1624 H1636 0.984 . S
N1624 H1637 0.985 . S
N1625 C1627 1.356 . S
N1625 H1630 0.984 . S
N1625 H1631 0.985 . S
C1626 C1620 1.379 . S
C1626 C1623 1.363 . S
C1626 N1624 1.356 . S
C1627 C1621 1.363 . S
C1627 C1622 1.379 . S
C1627 N1625 1.356 . S
N1628 C1620 1.356 . S
N1628 H1634 0.984 . S
N1628 H1635 0.984 . S
N1629 C1622 1.356 . S
N1629 H1632 0.984 . S
N1629 H1633 0.985 . S
H1630 N1625 0.984 . S
H1631 N1625 0.985 . S
H1632 N1629 0.984 . S
H1633 N1629 0.985 . S
H1634 N1628 0.984 . S
H1635 N1628 0.984 . S
H1636 N1624 0.984 . S
H1637 N1624 0.985 . S
C1638 C1639 1.363 . S
C1638 C1644 1.379 . S
C1638 N1646 1.356 . S
C1639 C1638 1.363 . S
C1639 C1645 1.363 1_655 S
C1640 C1641 1.363 1_455 S
C1640 C1645 1.379 . S
C1640 N1647 1.356 . S
C1641 C1640 1.363 1_655 S
C1641 C1644 1.363 . S
N1642 C1644 1.356 . S
N1642 H1654 0.984 . S
N1642 H1655 0.985 . S
N1643 C1645 1.356 . S
N1643 H1648 0.984 . S
N1643 H1649 0.985 . S
C1644 C1638 1.379 . S
C1644 C1641 1.363 . S
C1644 N1642 1.356 . S
C1645 C1639 1.363 1_455 S
C1645 C1640 1.379 . S
C1645 N1643 1.356 . S
N1646 C1638 1.356 . S
N1646 H1652 0.984 . S
N1646 H1653 0.984 . S
N1647 C1640 1.356 . S
N1647 H1650 0.984 . S
N1647 H1651 0.985 . S
H1648 N1643 0.984 . S
H1649 N1643 0.985 . S
H1650 N1647 0.984 . S
H1651 N1647 0.985 . S
H1652 N1646 0.984 . S
H1653 N1646 0.984 . S
H1654 N1642 0.984 . S
H1655 N1642 0.985 . S
C1656 C1657 1.363 . S
C1656 C1662 1.379 . S
C1656 N1664 1.356 . S
C1657 C1656 1.363 . S
C1657 C1663 1.363 . S
C1658 C1659 1.363 . S
C1658 C1663 1.379 . S
C1658 N1665 1.356 . S
C1659 C1658 1.363 . S
C1659 C1662 1.363 . S
N1660 C1662 1.356 . S
N1660 H1672 0.984 . S
N1660 H1673 0.985 . S
N1661 C1663 1.356 . S
N1661 H1666 0.984 . S
N1661 H1667 0.985 . S
C1662 C1656 1.379 . S
C1662 C1659 1.363 . S
C1662 N1660 1.356 . S
C1663 C1657 1.363 . S
C1663 C1658 1.379 . S
C1663 N1661 1.356 . S
N1664 C1656 1.356 . S
N1664 H1670 0.984 . S
N1664 H1671 0.984 . S
N1665 C1658 1.356 . S
N1665 H1668 0.984 . S
N1665 H1669 0.985 . S
H1666 N1661 0.984 . S
H1667 N1661 0.985 . S
H1668 N1665 0.984 . S
H1669 N1665 0.985 . S
H1670 N1664 0.984 . S
H1671 N1664 0.984 . S
H1672 N1660 0.984 . S
H1673 N1660 0.985 . S
C1674 C1675 1.363 . S
C1674 C1680 1.379 . S
C1674 N1682 1.356 . S
C1675 C1674 1.363 . S
C1675 C1681 1.363 . S
C1676 C1677 1.363 1_565 S
C1676 C1681 1.379 1_565 S
C1676 N1683 1.356 . S
C1677 C1676 1.363 1_545 S
C1677 C1680 1.363 . S
N1678 C1680 1.356 . S
N1678 H1690 0.984 . S
N1678 H1691 0.985 . S
N1679 C1681 1.356 1_565 S
N1679 H1684 0.984 1_565 S
N1679 H1685 0.985 . S
C1680 C1674 1.379 . S
C1680 C1677 1.363 . S
C1680 N1678 1.356 . S
C1681 C1675 1.363 . S
C1681 C1676 1.379 1_545 S
C1681 N1679 1.356 1_545 S
N1682 C1674 1.356 . S
N1682 H1688 0.984 . S
N1682 H1689 0.984 . S
N1683 C1676 1.356 . S
N1683 H1686 0.984 . S
N1683 H1687 0.985 . S
H1684 N1679 0.984 1_545 S
H1685 N1679 0.985 . S
H1686 N1683 0.984 . S
H1687 N1683 0.985 . S
H1688 N1682 0.984 . S
H1689 N1682 0.984 . S
H1690 N1678 0.984 . S
H1691 N1678 0.985 . S
C1692 C1693 1.363 . S
C1692 C1698 1.379 . S
C1692 N1700 1.356 . S
C1693 C1692 1.363 . S
C1693 C1699 1.363 . S
C1694 C1695 1.363 . S
C1694 C1699 1.379 . S
C1694 N1701 1.356 . S
C1695 C1694 1.363 . S
C1695 C1698 1.363 . S
N1696 C1698 1.356 . S
N1696 H1708 0.984 . S
N1696 H1709 0.985 . S
N1697 C1699 1.356 . S
N1697 H1702 0.984 . S
N1697 H1703 0.985 . S
C1698 C1692 1.379 . S
C1698 C1695 1.363 . S
C1698 N1696 1.356 . S
C1699 C1693 1.363 . S
C1699 C1694 1.379 . S
C1699 N1697 1.356 . S
N1700 C1692 1.356 . S
N1700 H1706 0.984 . S
N1700 H1707 0.984 . S
N1701 C1694 1.356 . S
N1701 H1704 0.984 . S
N1701 H1705 0.985 . S
H1702 N1697 0.984 . S
H1703 N1697 0.985 . S
H1704 N1701 0.984 . S
H1705 N1701 0.985 . S
H1706 N1700 0.984 . S
H1707 N1700 0.984 . S
H1708 N1696 0.984 . S
H1709 N1696 0.985 . S
C1710 C1711 1.363 . S
C1710 C1716 1.379 . S
C1710 N1718 1.356 . S
C1711 C1710 1.363 . S
C1711 C1717 1.363 . S
C1712 C1713 1.363 . S
C1712 C1717 1.379 . S
C1712 N1719 1.356 . S
C1713 C1712 1.363 . S
C1713 C1716 1.363 . S
N1714 C1716 1.356 . S
N1714 H1726 0.984 . S
N1714 H1727 0.985 . S
N1715 C1717 1.356 . S
N1715 H1720 0.984 . S
N1715 H1721 0.985 . S
C1716 C1710 1.379 . S
C1716 C1713 1.363 . S
C1716 N1714 1.356 . S
C1717 C1711 1.363 . S
C1717 C1712 1.379 . S
C1717 N1715 1.356 . S
N1718 C1710 1.356 . S
N1718 H1724 0.984 . S
N1718 H1725 0.984 . S
N1719 C1712 1.356 . S
N1719 H1722 0.984 . S
N1719 H1723 0.985 . S
H1720 N1715 0.984 . S
H1721 N1715 0.985 . S
H1722 N1719 0.984 . S
H1723 N1719 0.985 . S
H1724 N1718 0.984 . S
H1725 N1718 0.984 . S
H1726 N1714 0.984 . S
H1727 N1714 0.985 . S
C1728 C1729 1.363 . S
C1728 C1734 1.379 . S
C1728 N1736 1.356 . S
C1729 C1728 1.363 . S
C1729 C1735 1.363 . S
C1730 C1731 1.363 . S
C1730 C1735 1.379 . S
C1730 N1737 1.356 . S
C1731 C1730 1.363 . S
C1731 C1734 1.363 . S
N1732 C1734 1.356 . S
N1732 H1744 0.984 . S
N1732 H1745 0.985 . S
N1733 C1735 1.356 . S
N1733 H1738 0.984 . S
N1733 H1739 0.985 . S
C1734 C1728 1.379 . S
C1734 C1731 1.363 . S
C1734 N1732 1.356 . S
C1735 C1729 1.363 . S
C1735 C1730 1.379 . S
C1735 N1733 1.356 . S
N1736 C1728 1.356 . S
N1736 H1742 0.984 . S
N1736 H1743 0.984 . S
N1737 C1730 1.356 . S
N1737 H1740 0.984 . S
N1737 H1741 0.985 . S
H1738 N1733 0.984 . S
H1739 N1733 0.985 . S
H1740 N1737 0.984 . S
H1741 N1737 0.985 . S
H1742 N1736 0.984 . S
H1743 N1736 0.984 . S
H1744 N1732 0.984 . S
H1745 N1732 0.985 . S
C1746 C1747 1.363 . S
C1746 C1752 1.379 . S
C1746 N1754 1.356 . S
C1747 C1746 1.363 . S
C1747 C1753 1.363 . S
C1748 C1749 1.363 . S
C1748 C1753 1.379 . S
C1748 N1755 1.356 . S
C1749 C1748 1.363 . S
C1749 C1752 1.363 . S
N1750 C1752 1.356 . S
N1750 H1762 0.984 . S
N1750 H1763 0.985 . S
N1751 C1753 1.356 . S
N1751 H1756 0.984 . S
N1751 H1757 0.985 . S
C1752 C1746 1.379 . S
C1752 C1749 1.363 . S
C1752 N1750 1.356 . S
C1753 C1747 1.363 . S
C1753 C1748 1.379 . S
C1753 N1751 1.356 . S
N1754 C1746 1.356 . S
N1754 H1760 0.984 . S
N1754 H1761 0.984 . S
N1755 C1748 1.356 . S
N1755 H1758 0.984 . S
N1755 H1759 0.985 . S
H1756 N1751 0.984 . S
H1757 N1751 0.985 . S
H1758 N1755 0.984 . S
H1759 N1755 0.985 . S
H1760 N1754 0.984 . S
H1761 N1754 0.984 . S
H1762 N1750 0.984 . S
H1763 N1750 0.985 . S
C1764 C1765 1.363 . S
C1764 C1770 1.379 . S
C1764 N1772 1.356 . S
C1765 C1764 1.363 . S
C1765 C1771 1.363 . S
C1766 C1767 1.363 . S
C1766 C1771 1.379 . S
C1766 N1773 1.356 . S
C1767 C1766 1.363 . S
C1767 C1770 1.363 . S
N1768 C1770 1.356 . S
N1768 H1780 0.984 . S
N1768 H1781 0.985 . S
N1769 C1771 1.356 . S
N1769 H1774 0.984 . S
N1769 H1775 0.985 . S
C1770 C1764 1.379 . S
C1770 C1767 1.363 . S
C1770 N1768 1.356 . S
C1771 C1765 1.363 . S
C1771 C1766 1.379 . S
C1771 N1769 1.356 . S
N1772 C1764 1.356 . S
N1772 H1778 0.984 . S
N1772 H1779 0.984 . S
N1773 C1766 1.356 . S
N1773 H1776 0.984 . S
N1773 H1777 0.985 . S
H1774 N1769 0.984 . S
H1775 N1769 0.985 . S
H1776 N1773 0.984 . S
H1777 N1773 0.985 . S
H1778 N1772 0.984 . S
H1779 N1772 0.984 . S
H1780 N1768 0.984 . S
H1781 N1768 0.985 . S
C1782 C1783 1.363 . S
C1782 C1788 1.379 . S
C1782 N1790 1.356 . S
C1783 C1782 1.363 . S
C1783 C1789 1.363 . S
C1784 C1785 1.363 . S
C1784 C1789 1.379 . S
C1784 N1791 1.356 . S
C1785 C1784 1.363 . S
C1785 C1788 1.363 . S
N1786 C1788 1.356 . S
N1786 H1798 0.984 . S
N1786 H1799 0.985 . S
N1787 C1789 1.356 . S
N1787 H1792 0.984 . S
N1787 H1793 0.985 . S
C1788 C1782 1.379 . S
C1788 C1785 1.363 . S
C1788 N1786 1.356 . S
C1789 C1783 1.363 . S
C1789 C1784 1.379 . S
C1789 N1787 1.356 . S
N1790 C1782 1.356 . S
N1790 H1796 0.984 . S
N1790 H1797 0.984 . S
N1791 C1784 1.356 . S
N1791 H1794 0.984 . S
N1791 H1795 0.985 . S
H1792 N1787 0.984 . S
H1793 N1787 0.985 . S
H1794 N1791 0.984 . S
H1795 N1791 0.985 . S
H1796 N1790 0.984 . S
H1797 N1790 0.984 . S
H1798 N1786 0.984 . S
H1799 N1786 0.985 . S
C1800 C1801 1.363 . S
C1800 C1806 1.379 . S
C1800 N1808 1.356 . S
C1801 C1800 1.363 . S
C1801 C1807 1.363 . S
C1802 C1803 1.363 . S
C1802 C1807 1.379 . S
C1802 N1809 1.356 . S
C1803 C1802 1.363 . S
C1803 C1806 1.363 . S
N1804 C1806 1.356 . S
N1804 H1816 0.984 . S
N1804 H1817 0.985 . S
N1805 C1807 1.356 . S
N1805 H1810 0.984 . S
N1805 H1811 0.985 . S
C1806 C1800 1.379 . S
C1806 C1803 1.363 . S
C1806 N1804 1.356 . S
C1807 C1801 1.363 . S
C1807 C1802 1.379 . S
C1807 N1805 1.356 . S
N1808 C1800 1.356 . S
N1808 H1814 0.984 . S
N1808 H1815 0.984 . S
N1809 C1802 1.356 . S
N1809 H1812 0.984 . S
N1809 H1813 0.985 . S
H1810 N1805 0.984 . S
H1811 N1805 0.985 . S
H1812 N1809 0.984 . S
H1813 N1809 0.985 . S
H1814 N1808 0.984 . S
H1815 N1808 0.984 . S
H1816 N1804 0.984 . S
H1817 N1804 0.985 . S
C1818 C1819 1.363 . S
C1818 C1824 1.379 . S
C1818 N1826 1.356 . S
C1819 C1818 1.363 . S
C1819 C1825 1.363 . S
C1820 C1821 1.363 . S
C1820 C1825 1.379 . S
C1820 N1827 1.356 . S
C1821 C1820 1.363 . S
C1821 C1824 1.363 . S
N1822 C1824 1.356 . S
N1822 H1834 0.984 . S
N1822 H1835 0.985 . S
N1823 C1825 1.356 . S
N1823 H1828 0.984 . S
N1823 H1829 0.985 . S
C1824 C1818 1.379 . S
C1824 C1821 1.363 . S
C1824 N1822 1.356 . S
C1825 C1819 1.363 . S
C1825 C1820 1.379 . S
C1825 N1823 1.356 . S
N1826 C1818 1.356 . S
N1826 H1832 0.984 . S
N1826 H1833 0.984 . S
N1827 C1820 1.356 . S
N1827 H1830 0.984 . S
N1827 H1831 0.985 . S
H1828 N1823 0.984 . S
H1829 N1823 0.985 . S
H1830 N1827 0.984 . S
H1831 N1827 0.985 . S
H1832 N1826 0.984 . S
H1833 N1826 0.984 . S
H1834 N1822 0.984 . S
H1835 N1822 0.985 . S
C1836 C1837 1.363 . S
C1836 C1842 1.379 . S
C1836 N1844 1.356 . S
C1837 C1836 1.363 . S
C1837 C1843 1.363 . S
C1838 C1839 1.363 . S
C1838 C1843 1.379 . S
C1838 N1845 1.356 . S
C1839 C1838 1.363 . S
C1839 C1842 1.363 . S
N1840 C1842 1.356 . S
N1840 H1852 0.984 . S
N1840 H1853 0.985 . S
N1841 C1843 1.356 . S
N1841 H1846 0.984 . S
N1841 H1847 0.985 . S
C1842 C1836 1.379 . S
C1842 C1839 1.363 . S
C1842 N1840 1.356 . S
C1843 C1837 1.363 . S
C1843 C1838 1.379 . S
C1843 N1841 1.356 . S
N1844 C1836 1.356 . S
N1844 H1850 0.984 . S
N1844 H1851 0.984 . S
N1845 C1838 1.356 . S
N1845 H1848 0.984 . S
N1845 H1849 0.985 . S
H1846 N1841 0.984 . S
H1847 N1841 0.985 . S
H1848 N1845 0.984 . S
H1849 N1845 0.985 . S
H1850 N1844 0.984 . S
H1851 N1844 0.984 . S
H1852 N1840 0.984 . S
H1853 N1840 0.985 . S
C1854 C1855 1.363 . S
C1854 C1860 1.379 . S
C1854 N1862 1.356 . S
C1855 C1854 1.363 . S
C1855 C1861 1.363 . S
C1856 C1857 1.363 . S
C1856 C1861 1.379 . S
C1856 N1863 1.356 . S
C1857 C1856 1.363 . S
C1857 C1860 1.363 . S
N1858 C1860 1.356 . S
N1858 H1870 0.984 . S
N1858 H1871 0.985 . S
N1859 C1861 1.356 . S
N1859 H1864 0.984 . S
N1859 H1865 0.985 . S
C1860 C1854 1.379 . S
C1860 C1857 1.363 . S
C1860 N1858 1.356 . S
C1861 C1855 1.363 . S
C1861 C1856 1.379 . S
C1861 N1859 1.356 . S
N1862 C1854 1.356 . S
N1862 H1868 0.984 . S
N1862 H1869 0.984 . S
N1863 C1856 1.356 . S
N1863 H1866 0.984 . S
N1863 H1867 0.985 . S
H1864 N1859 0.984 . S
H1865 N1859 0.985 . S
H1866 N1863 0.984 . S
H1867 N1863 0.985 . S
H1868 N1862 0.984 . S
H1869 N1862 0.984 . S
H1870 N1858 0.984 . S
H1871 N1858 0.985 . S
C1872 C1873 1.363 . S
C1872 C1878 1.379 . S
C1872 N1880 1.356 . S
C1873 C1872 1.363 . S
C1873 C1879 1.363 . S
C1874 C1875 1.363 . S
C1874 C1879 1.379 . S
C1874 N1881 1.356 . S
C1875 C1874 1.363 . S
C1875 C1878 1.363 . S
N1876 C1878 1.356 . S
N1876 H1888 0.984 . S
N1876 H1889 0.985 . S
N1877 C1879 1.356 . S
N1877 H1882 0.984 . S
N1877 H1883 0.985 . S
C1878 C1872 1.379 . S
C1878 C1875 1.363 . S
C1878 N1876 1.356 . S
C1879 C1873 1.363 . S
C1879 C1874 1.379 . S
C1879 N1877 1.356 . S
N1880 C1872 1.356 . S
N1880 H1886 0.984 . S
N1880 H1887 0.984 . S
N1881 C1874 1.356 . S
N1881 H1884 0.984 . S
N1881 H1885 0.985 . S
H1882 N1877 0.984 . S
H1883 N1877 0.985 . S
H1884 N1881 0.984 . S
H1885 N1881 0.985 . S
H1886 N1880 0.984 . S
H1887 N1880 0.984 . S
H1888 N1876 0.984 . S
H1889 N1876 0.985 . S
C1890 C1891 1.363 . S
C1890 C1896 1.379 . S
C1890 N1898 1.356 . S
C1891 C1890 1.363 . S
C1891 C1897 1.363 . S
C1892 C1893 1.363 . S
C1892 C1897 1.379 . S
C1892 N1899 1.356 . S
C1893 C1892 1.363 . S
C1893 C1896 1.363 . S
N1894 C1896 1.356 . S
N1894 H1906 0.984 . S
N1894 H1907 0.985 . S
N1895 C1897 1.356 . S
N1895 H1900 0.984 . S
N1895 H1901 0.985 . S
C1896 C1890 1.379 . S
C1896 C1893 1.363 . S
C1896 N1894 1.356 . S
C1897 C1891 1.363 . S
C1897 C1892 1.379 . S
C1897 N1895 1.356 . S
N1898 C1890 1.356 . S
N1898 H1904 0.984 . S
N1898 H1905 0.984 . S
N1899 C1892 1.356 . S
N1899 H1902 0.984 . S
N1899 H1903 0.985 . S
H1900 N1895 0.984 . S
H1901 N1895 0.985 . S
H1902 N1899 0.984 . S
H1903 N1899 0.985 . S
H1904 N1898 0.984 . S
H1905 N1898 0.984 . S
H1906 N1894 0.984 . S
H1907 N1894 0.985 . S
C937 C439 1.520 . S
C939 C585 1.613 . S
C955 C465 1.787 . S
C957 C625 1.733 . S
C973 C401 1.766 . S
C975 C664 1.721 . S
C991 C369 1.619 . S
C993 C624 1.574 . S
C1011 C665 1.516 . S
C1009 C305 1.554 . S
C1027 C343 1.334 . S
C1029 C584 1.478 1_556 S
C1047 C595 1.643 . S
C1045 C375 1.723 . S
C1065 C635 1.702 . S
C1063 C311 1.757 . S
C1081 C337 1.595 . S
C1083 C674 1.723 . S
C1099 C433 1.479 . S
C1101 C634 1.574 . S
C1117 C471 1.527 . S
C1119 C675 1.484 . S
C1137 C594 1.532 . S
C1135 C407 1.551 . S
C1155 C705 1.614 . S
C1153 C55 1.520 . S
C1171 C81 1.787 . S
C1173 C745 1.733 . S
C1189 C17 1.767 . S
C1191 C784 1.721 . S
C1207 C561 1.619 . S
C1209 C744 1.574 . S
C1225 C497 1.554 . S
C1227 C785 1.516 . S
C1243 C535 1.334 . S
C1245 C704 1.497 . S
C1261 C567 1.723 . S
C1263 C715 1.643 . S
C1279 C503 1.757 . S
C1281 C755 1.702 . S
C1299 C794 1.724 . S
C1297 C529 1.595 . S
C1315 C49 1.479 . S
C1317 C754 1.575 . S
C1335 C795 1.483 . S
C1333 C87 1.527 1_455 S
C1351 C23 1.551 . S
C1353 C714 1.532 . S
C1371 C825 1.614 . S
C1369 C247 1.520 . S
C1387 C273 1.787 . S
C1389 C865 1.732 . S
C1407 C904 1.721 . S
C1405 C209 1.767 . S
C1425 C864 1.574 . S
C1423 C177 1.619 . S
C1443 C905 1.516 . S
C1441 C113 1.554 1_655 S
C1459 C151 1.334 . S
C1461 C824 1.497 . S
C1477 C183 1.723 . S
C1479 C835 1.643 . S
C1495 C119 1.758 . S
C1497 C875 1.702 . S
C1515 C914 1.723 . S
C1513 C145 1.595 . S
C1531 C241 1.479 . S
C1533 C874 1.574 . S
C1549 C279 1.527 . S
C1551 C915 1.483 . S
C1567 C215 1.551 . S
C1569 C834 1.532 . S
C1585 C509 1.417 . S
C1587 C581 1.432 . S
C1605 C621 1.767 . S
C1603 C541 1.647 . S
C1621 C573 1.556 . S
C1623 C671 1.562 . S
C1639 C221 1.797 . S
C1641 C631 1.783 . S
C1657 C253 1.464 . S
C1659 C661 1.541 . S
C1677 C591 1.429 . S
C1675 C285 1.408 . S
C1693 C125 1.418 . S
C1695 C701 1.432 . S
C1711 C157 1.647 . S
C1713 C741 1.767 . S
C1729 C189 1.556 . S
C1731 C791 1.562 . S
C1747 C413 1.797 . S
C1749 C751 1.783 . S
C1767 C781 1.541 . S
C1765 C445 1.464 . S
C1783 C477 1.408 . S
C1785 C711 1.429 . S
C1801 C317 1.417 . S
C1803 C821 1.432 . S
C1819 C349 1.647 . S
C1821 C861 1.767 . S
C1839 C911 1.562 . S
C1837 C381 1.556 . S
C1855 C29 1.797 . S
C1857 C871 1.783 . S
C1873 C61 1.464 . S
C1875 C901 1.541 . S
C1891 C93 1.408 . S
C1893 C831 1.429 . S
