# Generated by pormake.
# Topology tsx, (6,3)-cn, num edge types: 1
# Building blocks:
#     Node 0, Type 0, BuildingBlock: FUNLAD_clean_sbu_0, # of connection points: 6
#     Node 1, Type 0, BuildingBlock: FUNLAD_clean_sbu_0, # of connection points: 6
#     Node 2, Type 1, BuildingBlock: QEWDON_clean_linker_0, # of connection points: 3
#     Node 3, Type 1, BuildingBlock: QEWDON_clean_linker_0, # of connection points: 3
#     Node 4, Type 1, BuildingBlock: QEWDON_clean_linker_0, # of connection points: 3
#     Node 5, Type 1, BuildingBlock: QEWDON_clean_linker_0, # of connection points: 3
#     Edge 6, Type (0, 1), BuildingBlock: FUNLAD_clean_linker_1, # of connection points: 2
#     Edge 7, Type (0, 1), BuildingBlock: FUNLAD_clean_linker_1, # of connection points: 2
#     Edge 8, Type (0, 1), BuildingBlock: FUNLAD_clean_linker_1, # of connection points: 2
#     Edge 9, Type (0, 1), BuildingBlock: FUNLAD_clean_linker_1, # of connection points: 2
#     Edge 10, Type (0, 1), BuildingBlock: FUNLAD_clean_linker_1, # of connection points: 2
#     Edge 11, Type (0, 1), BuildingBlock: FUNLAD_clean_linker_1, # of connection points: 2
#     Edge 12, Type (0, 1), BuildingBlock: FUNLAD_clean_linker_1, # of connection points: 2
#     Edge 13, Type (0, 1), BuildingBlock: FUNLAD_clean_linker_1, # of connection points: 2
#     Edge 14, Type (0, 1), BuildingBlock: FUNLAD_clean_linker_1, # of connection points: 2
#     Edge 15, Type (0, 1), BuildingBlock: FUNLAD_clean_linker_1, # of connection points: 2
#     Edge 16, Type (0, 1), BuildingBlock: FUNLAD_clean_linker_1, # of connection points: 2
#     Edge 17, Type (0, 1), BuildingBlock: FUNLAD_clean_linker_1, # of connection points: 2
# Relax obj value: 0.119
# Max RMSD: 0.176
# Mean RMSD: 0.151
data_MOF--net-tsx--node1-FUNLAD_clean_sbu_0--node2-QEWDON_clean_linker_0--edge1-FUNLAD_clean_linker_1
_symmetry_space_group_name_H-M    P1
_symmetry_Int_Tables_number       1
_symmetry_cell_setting            triclinic
loop_
_symmetry_equiv_pos_as_xyz
'x, y, z'
_cell_length_a     20.118724
_cell_length_b     23.360044
_cell_length_c     37.551168
_cell_angle_alpha  89.74184
_cell_angle_beta   105.17021
_cell_angle_gamma 90.291328
loop_
_atom_site_label
_atom_site_type_symbol
_atom_site_fract_x
_atom_site_fract_y
_atom_site_fract_z
_atom_type_partial_charge
C0 C 0.96398 0.90682 1.02916 0.0
N1 N 0.08026 0.98598 0.12646 0.0
C2 C 1.0216 0.98333 0.13805 0.0
C3 C 1.02482 0.98293 0.1757 0.0
C4 C 0.0888 0.98627 0.20188 0.0
C5 C 0.14872 0.98881 0.18922 0.0
C6 C 0.14318 0.98853 0.15123 0.0
Zn7 Zn 0.07201 0.98732 0.07041 0.0
C8 C 0.16897 0.90614 0.04953 0.0
N9 N 0.05189 0.99384 0.95252 0.0
C10 C 0.98696 0.99411 0.92973 0.0
C11 C 0.10757 1.00027 0.93856 0.0
C12 C 0.09898 0.00824 0.9005 0.0
C13 C 1.03221 0.00972 0.8764 0.0
C14 C 0.97609 1.00171 0.89165 0.0
Zn15 Zn 0.06268 0.98959 1.00918 0.0
O16 O 0.99334 0.92426 0.06147 0.0
C17 C 0.97141 0.0739 0.03216 0.0
O18 O 0.98403 0.92549 1.00176 0.0
H19 H 0.15886 1.00006 0.957 0.0
H20 H 0.97199 0.98162 0.11805 0.0
H21 H 0.94314 0.98945 0.94115 0.0
O22 O 0.99841 0.05231 0.06368 0.0
O23 O 0.98704 0.05448 1.00387 0.0
H24 H 0.18927 0.99025 0.14155 0.0
O25 O 0.13808 0.05453 1.01795 0.0
O26 O 0.14935 0.05121 0.07783 0.0
O27 O 0.14249 0.92544 1.01705 0.0
O28 O 0.14693 0.92345 0.07634 0.0
C29 C 0.1656 0.07314 0.05023 0.0
H30 H 0.97749 0.98055 0.18429 0.0
H31 H 0.19944 0.98981 0.20823 0.0
H32 H 0.14438 0.01297 0.89045 0.0
H33 H 0.92379 1.00216 0.87426 0.0
C34 C 0.49045 0.40943 0.54255 0.0
N35 N 0.61179 0.49188 0.63744 0.0
C36 C 0.55475 0.49239 0.65054 0.0
C37 C 0.56086 0.49668 0.68841 0.0
C38 C 0.62657 0.5008 0.71329 0.0
C39 C 0.68445 0.49885 0.69897 0.0
C40 C 0.67596 0.49451 0.66088 0.0
Zn41 Zn 0.59926 0.49187 0.58116 0.0
C42 C 0.69507 0.41355 0.55701 0.0
N43 N 0.56772 0.49858 0.46258 0.0
C44 C 0.50228 0.49739 0.44042 0.0
C45 C 0.62242 0.50532 0.44785 0.0
C46 C 0.61232 0.51216 0.40964 0.0
C47 C 0.54502 0.51215 0.38617 0.0
C48 C 0.4899 0.50383 0.40217 0.0
Zn49 Zn 0.58218 0.49521 0.51946 0.0
O50 O 0.52251 0.42702 0.57444 0.0
C51 C 0.49109 0.57665 0.54446 0.0
O52 O 0.50627 0.42927 0.51418 0.0
H53 H 0.67413 0.50613 0.4658 0.0
H54 H 0.50412 0.49023 0.63151 0.0
H55 H 0.4593 0.49234 0.45246 0.0
O56 O 0.5226 0.55601 0.57564 0.0
O57 O 0.50447 0.55799 0.51538 0.0
H58 H 0.7207 0.49416 0.65 0.0
O59 O 0.65578 0.56113 0.52598 0.0
O60 O 0.67462 0.55765 0.58633 0.0
O61 O 0.66321 0.43393 0.52567 0.0
O62 O 0.67748 0.42852 0.5858 0.0
C63 C 0.68726 0.57951 0.55773 0.0
H64 H 0.51428 0.49671 0.6976 0.0
H65 H 0.73604 0.5015 0.71708 0.0
H66 H 0.65699 0.51714 0.399 0.0
H67 H 0.43726 0.50317 0.38523 0.0
H68 H 0.16245 0.1044 0.50042 0.0
C69 C 0.18353 0.06451 0.51265 0.0
C70 C 0.18656 0.0179 0.48975 0.0
C71 C 0.21006 0.06103 0.5511 0.0
H72 H 0.22418 0.93235 0.48857 0.0
C73 C 0.21629 0.96676 0.5061 0.0
C74 C 0.24181 0.96154 0.54469 0.0
C75 C 0.23915 0.00935 0.56706 0.0
C76 C 0.21331 0.11382 0.57336 0.0
H77 H 0.2613 0.00686 0.59662 0.0
C78 C 0.15764 0.12984 0.5873 0.0
C79 C 0.15288 0.18606 0.60009 0.0
C80 C 0.26751 0.15273 0.57545 0.0
H81 H 0.31034 0.14165 0.56436 0.0
C82 C 0.26554 0.20708 0.59053 0.0
H83 H 0.11579 0.09992 0.5854 0.0
C84 C 0.20824 0.22407 0.60229 0.0
H85 H 0.20678 0.2672 0.61249 0.0
H86 H 0.30732 0.237 0.59171 0.0
H87 H 0.99492 0.12425 0.5686 0.0
C88 C 0.97834 0.08059 0.56249 0.0
C89 C 0.97496 0.04278 0.59141 0.0
C90 C 0.95938 0.06228 0.5254 0.0
H91 H 0.95183 0.95659 0.60468 0.0
C92 C 0.95097 0.98677 0.58262 0.0
C93 C 0.92899 0.96853 0.54586 0.0
C94 C 0.93497 0.00593 0.5176 0.0
C95 C 0.96484 0.10097 0.4944 0.0
H96 H 0.92053 0.99085 0.48934 0.0
C97 C 1.02332 0.13591 0.49688 0.0
C98 C 1.03074 0.16861 0.46626 0.0
C99 C 0.91272 0.10048 0.4611 0.0
H100 H 0.86643 0.07515 0.45836 0.0
C101 C 0.91974 0.13233 0.4308 0.0
H102 H 0.06341 0.13587 0.52222 0.0
C103 C 0.97861 0.16544 0.43314 0.0
H104 H 0.98281 0.18951 0.40909 0.0
H105 H 0.87935 0.13121 0.40529 0.0
H106 H 0.62297 0.59062 1.01405 0.0
C107 C 0.66196 0.55865 1.02344 0.0
C108 C 0.67778 0.52318 0.99672 0.0
C109 C 0.69657 0.55314 0.06135 0.0
H110 H 0.73025 0.44739 0.98787 0.0
C111 C 0.72378 0.47803 1.00819 0.0
C112 C 0.75748 0.47008 0.04554 0.0
C113 C 0.7453 0.50859 0.07166 0.0
C114 C 0.68039 0.59205 0.09004 0.0
H115 H 0.77409 0.50272 0.10005 0.0
C116 C 0.64712 0.64524 0.08019 0.0
C117 C 0.62334 0.67777 0.10585 0.0
C118 C 0.69513 0.57541 0.12753 0.0
H119 H 0.71824 0.53467 0.1371 0.0
C120 C 0.67842 0.61067 0.1538 0.0
H121 H 0.63651 0.66077 0.05219 0.0
C122 C 0.64201 0.66118 0.14311 0.0
H123 H 0.62724 0.68621 0.16395 0.0
H124 H 0.69081 0.59731 0.18242 0.0
H125 H 0.51531 0.59891 0.07631 0.0
C126 C 0.47471 0.56739 0.06993 0.0
C127 C 0.45843 0.53808 0.09952 0.0
C128 C 0.43878 0.55595 0.03278 0.0
H129 H 0.39971 0.4688 0.11403 0.0
C130 C 0.40991 0.49346 0.09166 0.0
C131 C 0.37597 0.47936 0.05521 0.0
C132 C 0.38715 0.51316 1.02644 0.0
C133 C 0.45667 0.58544 1.00048 0.0
H134 H 0.3563 0.50401 0.99888 0.0
C135 C 0.49334 0.63799 1.00436 0.0
C136 C 0.51573 0.66172 0.97477 0.0
C137 C 0.43959 0.55962 0.9652 0.0
H138 H 0.41516 0.51813 0.96025 0.0
C139 C 0.45523 0.58616 0.93509 0.0
H140 H 0.50715 0.65953 0.03057 0.0
C141 C 0.49303 0.63677 0.93971 0.0
H142 H 0.50606 0.65524 0.91592 0.0
H143 H 0.4404 0.56604 0.90823 0.0
H144 H 0.23797 0.13549 0.08361 0.0
C145 C 0.21029 0.124 0.05561 0.0
H146 H 0.1789 0.15132 0.99996 0.0
H147 H 0.20857 0.40904 0.05747 0.0
H148 H 0.08447 0.39793 0.03946 0.0
H149 H 1.031 0.30435 1.01906 0.0
H150 H 0.10146 0.22109 1.01716 0.0
C151 C 0.21005 0.16022 1.02772 0.0
C152 C 0.24245 0.21754 0.03532 0.0
C153 C 0.20042 0.26605 0.03535 0.0
C154 C 0.23124 0.32032 0.04616 0.0
C155 C 0.18808 0.3673 0.04809 0.0
C156 C 0.11665 0.36143 0.03809 0.0
C157 C 0.08653 0.30872 1.02666 0.0
C158 C 0.12763 0.2613 1.02565 0.0
H159 H 0.2982 0.42391 1.01807 0.0
C160 C 0.33182 0.42738 0.04586 0.0
H161 H 0.37493 0.38158 0.09523 0.0
H162 H 0.33657 0.13377 0.03466 0.0
H163 H 0.46076 0.14526 0.0495 0.0
H164 H 0.51467 0.23977 0.06666 0.0
H165 H 0.44496 0.32313 0.06927 0.0
C166 C 0.33779 0.38173 0.06847 0.0
C167 C 0.30402 0.32608 0.05566 0.0
C168 C 0.34583 0.27782 0.05413 0.0
C169 C 0.31493 0.22343 0.04407 0.0
C170 C 0.35761 0.17595 0.04257 0.0
C171 C 0.42892 0.182 0.05084 0.0
C172 C 0.45925 0.23519 0.06051 0.0
C173 C 0.41852 0.28269 0.06208 0.0
H174 H 0.24217 0.84798 0.08549 0.0
C175 C 0.22793 0.86647 0.0579 0.0
H176 H 0.25811 0.87787 1.00856 0.0
H177 H 0.57237 0.83843 0.09482 0.0
H178 H 0.57431 0.93416 0.07008 0.0
H179 H 0.46693 0.98114 0.03587 0.0
H180 H 0.35695 0.93256 1.02611 0.0
C181 C 0.26886 0.8571 0.0354 0.0
C182 C 0.33461 0.82463 0.04937 0.0
C183 C 0.39888 0.85305 0.05409 0.0
C184 C 0.46116 0.8255 0.07334 0.0
C185 C 0.52394 0.85623 0.07926 0.0
C186 C 0.52572 0.91154 0.06553 0.0
C187 C 0.46525 0.93803 0.04632 0.0
C188 C 0.4024 0.90957 0.04087 0.0
H189 H 0.56951 0.74114 0.06449 0.0
C190 C 0.57302 0.72455 0.09188 0.0
H191 H 0.5231 0.72091 0.13474 0.0
H192 H 0.22262 0.75366 0.03774 0.0
H193 H 0.22038 0.65647 0.0605 0.0
H194 H 0.32687 0.61026 0.09662 0.0
H195 H 0.43588 0.66047 0.10959 0.0
C196 C 0.52337 0.73925 0.10819 0.0
C197 C 0.45919 0.76908 0.08731 0.0
C198 C 0.39502 0.73987 0.08113 0.0
C199 C 0.33314 0.76713 0.06143 0.0
C200 C 0.2706 0.73573 0.05388 0.0
C201 C 0.26868 0.67975 0.06648 0.0
C202 C 0.32862 0.65369 0.0867 0.0
C203 C 0.39106 0.68311 0.09394 0.0
H204 H 0.89675 0.84529 0.0481 0.0
C205 C 0.90498 0.86706 1.02395 0.0
H206 H 0.86418 0.88442 0.96723 0.0
H207 H 0.70762 0.63959 0.98346 0.0
H208 H 0.82088 0.59659 0.99784 0.0
H209 H 0.92482 0.65693 1.00578 0.0
H210 H 0.91565 0.7601 1.00025 0.0
C211 C 0.85909 0.86002 0.9911 0.0
C212 C 0.79681 0.82311 0.98692 0.0
C213 C 0.80316 0.76274 0.98931 0.0
C214 C 0.74319 0.72784 0.98341 0.0
C215 C 0.75128 0.66783 0.98714 0.0
C216 C 0.8161 0.64268 0.99534 0.0
C217 C 0.8745 0.67662 0.99985 0.0
C218 C 0.86845 0.73593 0.99678 0.0
H219 H 0.57174 0.73631 1.00547 0.0
C220 C 0.56749 0.70914 0.9817 0.0
H221 H 0.61509 0.68485 0.94024 0.0
H222 H 0.76688 0.93732 0.9836 0.0
H223 H 0.65306 0.97983 0.96902 0.0
H224 H 0.5488 0.91914 0.95526 0.0
H225 H 0.55757 0.81575 0.95628 0.0
C226 C 0.61496 0.7147 0.9623 0.0
C227 C 0.67664 0.7529 0.97384 0.0
C228 C 0.67033 0.81338 0.97217 0.0
C229 C 0.73055 0.84845 0.97912 0.0
C230 C 0.72291 0.90872 0.97797 0.0
C231 C 0.6579 0.93367 0.96969 0.0
C232 C 0.5992 0.8995 0.96201 0.0
C233 C 0.605 0.84007 0.96293 0.0
H234 H 0.91094 0.14539 1.00176 0.0
C235 C 0.92942 0.12593 1.0289 0.0
H236 H 0.9423 0.13552 0.08623 0.0
H237 H 0.9486 0.4049 0.08045 0.0
H238 H 0.06329 0.38242 0.1182 0.0
H239 H 0.10283 0.28234 0.12736 0.0
H240 H 1.02805 0.20419 0.09925 0.0
C241 C 0.92142 0.15349 0.05885 0.0
C242 C 0.89518 0.21308 0.05597 0.0
C243 C 0.93989 0.25817 0.07284 0.0
C244 C 0.91757 0.31592 0.06728 0.0
C245 C 0.96315 0.36029 0.08396 0.0
C246 C 1.02903 0.34798 0.10567 0.0
C247 C 0.05127 0.29162 0.11085 0.0
C248 C 1.00764 0.2471 0.09456 0.0
H249 H 0.80108 0.4012 0.08543 0.0
C250 C 0.7993 0.41805 0.05815 0.0
H251 H 0.82998 0.40423 1.009 0.0
H252 H 0.79281 0.1364 1.02536 0.0
H253 H 0.67791 0.15915 0.98825 0.0
H254 H 0.64112 0.25958 0.97615 0.0
H255 H 0.71865 0.33771 1.00149 0.0
C256 C 0.82909 0.38821 0.03603 0.0
C257 C 0.85105 0.32825 0.04474 0.0
C258 C 0.80545 0.28319 1.02902 0.0
C259 C 0.82717 0.22543 0.03516 0.0
C260 C 0.77973 0.18112 1.02045 0.0
C261 C 0.71343 0.19357 0.99935 0.0
C262 C 0.69268 0.25009 0.99259 0.0
C263 C 0.73782 0.29455 1.00726 0.0
H264 H 0.75476 0.64711 0.58871 0.0
C265 C 0.73396 0.62907 0.56139 0.0
H266 H 0.72386 0.63857 0.50423 0.0
H267 H 0.7513 0.90773 0.51581 0.0
H268 H 0.63269 0.8956 0.48011 0.0
H269 H 0.58034 0.79941 0.46913 0.0
H270 H 0.64594 0.71489 0.49385 0.0
C271 C 0.74626 0.65518 0.53178 0.0
C272 C 0.7805 0.71208 0.53523 0.0
C273 C 0.74139 0.7609 0.52004 0.0
C274 C 0.77139 0.81633 0.52642 0.0
C275 C 0.73096 0.86459 0.51171 0.0
C276 C 0.66286 0.85825 0.49116 0.0
C277 C 0.63342 0.80409 0.48493 0.0
C278 C 0.67179 0.75587 0.49928 0.0
H279 H 0.90395 0.8915 0.51034 0.0
C280 C 0.901 0.91003 0.5364 0.0
H281 H 0.86136 0.8988 0.58308 0.0
H282 H 0.87257 0.62678 0.56314 0.0
H283 H 0.99152 0.63919 0.59844 0.0
H284 H 1.0422 0.73577 0.61132 0.0
H285 H 0.97476 0.82044 0.58836 0.0
C286 C 0.869 0.88055 0.55793 0.0
C287 C 0.84029 0.82263 0.54778 0.0
C288 C 0.88029 0.77379 0.56163 0.0
C289 C 0.85057 0.71828 0.555 0.0
C290 C 0.8921 0.67003 0.56831 0.0
C291 C 0.96053 0.67654 0.58839 0.0
C292 C 0.98914 0.73091 0.59555 0.0
C293 C 0.94981 0.77914 0.58231 0.0
H294 H 0.78548 0.38691 0.53916 0.0
C295 C 0.75777 0.37906 0.55997 0.0
H296 H 0.75414 0.33341 0.60767 0.0
H297 H 1.00546 0.24456 0.52863 0.0
H298 H 0.91622 0.23961 0.47082 0.0
H299 H 0.79476 0.25561 0.46906 0.0
H300 H 0.76224 0.28369 0.52429 0.0
C301 C 0.78266 0.3408 0.58721 0.0
C302 C 0.85052 0.31079 0.59116 0.0
C303 C 0.86743 0.28686 0.55992 0.0
C304 C 0.93659 0.27113 0.56188 0.0
C305 C 0.95331 0.25466 0.52907 0.0
C306 C 0.90265 0.25093 0.49581 0.0
C307 C 0.83422 0.26075 0.4947 0.0
C308 C 0.81643 0.27784 0.52642 0.0
H309 H 0.05676 0.17481 0.61807 0.0
C310 C 0.08742 0.20559 0.60766 0.0
H311 H 0.08809 0.28817 0.58483 0.0
H312 H 0.83543 0.34563 0.65855 0.0
H313 H 0.92092 0.34053 0.71716 0.0
H314 H 1.03706 0.30299 0.72146 0.0
H315 H 0.06884 0.27137 0.6667 0.0
C316 C 0.06031 0.25765 0.5974 0.0
C317 C 0.98725 0.2718 0.59617 0.0
C318 C 0.96842 0.28838 0.62844 0.0
C319 C 0.90055 0.30901 0.62592 0.0
C320 C 0.88513 0.32849 0.65853 0.0
C321 C 0.93399 0.32601 0.69251 0.0
C322 C 0.99942 0.30489 0.69494 0.0
C323 C 1.01691 0.2867 0.66333 0.0
H324 H 0.42324 0.35097 0.56397 0.0
C325 C 0.43171 0.36963 0.53893 0.0
H326 H 0.39283 0.37856 0.4812 0.0
H327 H 0.20474 0.15748 0.4607 0.0
H328 H 0.29731 0.12328 0.43665 0.0
H329 H 0.4024 0.18138 0.44261 0.0
H330 H 0.41504 0.27366 0.47302 0.0
C331 C 0.38517 0.36037 0.50652 0.0
C332 C 0.32201 0.32507 0.50393 0.0
C333 C 0.31467 0.2716 0.48564 0.0
C334 C 0.25402 0.23802 0.48231 0.0
C335 C 0.24929 0.18448 0.46439 0.0
C336 C 0.30224 0.16444 0.45026 0.0
C337 C 0.3613 0.19714 0.45358 0.0
C338 C 0.36775 0.25012 0.47102 0.0
H339 H 0.09882 0.22056 0.44063 0.0
C340 C 0.09224 0.20532 0.46692 0.0
H341 H 0.13196 0.21054 0.52451 0.0
H342 H 0.31632 0.42805 0.5378 0.0
H343 H 0.22363 0.4619 0.56225 0.0
H344 H 0.1187 0.40369 0.55655 0.0
H345 H 0.10588 0.31155 0.52608 0.0
C346 C 0.13964 0.22101 0.49782 0.0
C347 C 0.2005 0.25798 0.49739 0.0
C348 C 0.20741 0.31212 0.51499 0.0
C349 C 0.26799 0.3457 0.51824 0.0
C350 C 0.27236 0.40009 0.53527 0.0
C351 C 0.21923 0.4203 0.54922 0.0
C352 C 0.16019 0.38755 0.54604 0.0
C353 C 0.15382 0.33438 0.52885 0.0
H354 H 0.42083 0.64352 0.51478 0.0
C355 C 0.44365 0.62535 0.54192 0.0
H356 H 0.45438 0.63323 0.59935 0.0
H357 H 0.38382 0.89657 0.53399 0.0
H358 H 0.50271 0.89667 0.53162 0.0
H359 H 0.57417 0.8102 0.54801 0.0
H360 H 0.52595 0.7223 0.56524 0.0
C361 C 0.43265 0.65076 0.57194 0.0
C362 C 0.39305 0.70506 0.56855 0.0
C363 C 0.42286 0.75692 0.56028 0.0
C364 C 0.38267 0.80768 0.55298 0.0
C365 C 0.41242 0.85747 0.54172 0.0
C366 C 0.48072 0.85805 0.53991 0.0
C367 C 0.52085 0.80929 0.54888 0.0
C368 C 0.49245 0.7591 0.55872 0.0
H369 H 0.31856 0.9124 0.58706 0.0
C370 C 0.27873 0.90867 0.56126 0.0
H371 H 0.22516 0.85163 0.51989 0.0
H372 H 0.32274 0.61393 0.58673 0.0
H373 H 0.20524 0.61429 0.59248 0.0
H374 H 0.13663 0.70292 0.58221 0.0
H375 H 0.18495 0.79187 0.56619 0.0
C376 C 0.26823 0.85762 0.54398 0.0
C377 C 0.31364 0.80711 0.55598 0.0
C378 C 0.28523 0.75581 0.56621 0.0
C379 C 0.32495 0.70475 0.57244 0.0
C380 C 0.29481 0.65391 0.58185 0.0
C381 C 0.2275 0.65354 0.58526 0.0
C382 C 0.18885 0.70347 0.57947 0.0
C383 C 0.21711 0.75414 0.57012 0.0
H384 H 0.04745 0.96536 0.24962 0.0
C385 C 0.09092 0.98474 0.24186 0.0
H386 H 0.18602 0.02792 0.26181 0.0
H387 H 1.0391 0.04266 0.40215 0.0
H388 H 0.95116 0.10027 0.36111 0.0
H389 H 0.95268 0.11651 0.29652 0.0
H390 H 1.04072 0.07373 0.27191 0.0
C391 C 0.14228 0.00755 0.2686 0.0
C392 C 0.14387 1.00225 0.30853 0.0
C393 C 0.09378 0.02975 0.32299 0.0
C394 C 0.09493 0.02275 0.36091 0.0
C395 C 1.04212 0.04815 0.374 0.0
C396 C 0.99124 0.08123 0.35077 0.0
C397 C 0.99186 0.09012 0.31428 0.0
C398 C 1.04245 0.06493 0.30042 0.0
H399 H 0.16827 0.06888 0.43805 0.0
C400 C 0.16668 0.02588 0.44883 0.0
H401 H 0.14723 0.93888 0.4342 0.0
H402 H 0.24812 0.94433 0.29016 0.0
H403 H 0.33873 0.89004 0.33155 0.0
H404 H 0.34395 0.88165 0.39772 0.0
H405 H 0.25834 0.92706 0.42285 0.0
C406 C 0.15066 0.98239 0.42459 0.0
C407 C 0.14789 0.99026 0.38471 0.0
C408 C 0.19895 0.96403 0.37043 0.0
C409 C 0.19674 0.96979 0.33237 0.0
C410 C 0.24779 0.94216 0.3189 0.0
C411 C 0.3001 0.91071 0.34234 0.0
C412 C 0.30297 0.90591 0.37958 0.0
C413 C 0.25324 0.93213 0.39361 0.0
H414 H 0.96566 0.01049 0.81905 0.0
C415 C 1.018 0.01843 0.83551 0.0
H416 H 0.11758 0.0445 0.83241 0.0
H417 H 0.06153 0.95908 0.66617 0.0
H418 H 0.13988 0.88584 0.69831 0.0
H419 H 0.17668 0.88301 0.76633 0.0
H420 H 0.13508 0.95323 0.80268 0.0
C421 C 0.06456 0.0361 0.81759 0.0
C422 C 1.04605 0.04095 0.77632 0.0
C423 C 0.07189 1.00035 0.75538 0.0
C424 C 0.05071 1.00204 0.71606 0.0
C425 C 0.0759 0.95987 0.69601 0.0
C426 C 0.12099 0.91761 0.71411 0.0
C427 C 0.14173 0.91603 0.75241 0.0
C428 C 0.11752 0.95667 0.77295 0.0
H429 H 0.04719 0.08538 0.63931 0.0
C430 C 1.00081 0.05958 0.63101 0.0
H431 H 0.92421 0.01465 0.64915 0.0
H432 H 0.99504 0.13051 0.80752 0.0
H433 H 0.91988 0.2058 0.77511 0.0
H434 H 0.8826 0.20797 0.70707 0.0
H435 H 0.92096 0.13527 0.6709 0.0
C436 C 0.97164 0.03935 0.65711 0.0
C437 C 1.00419 0.04467 0.69757 0.0
C438 C 0.98165 0.08729 0.71841 0.0
C439 C 1.00267 0.08559 0.75776 0.0
C440 C 0.97974 0.12919 0.77769 0.0
C441 C 0.93686 0.17276 0.75942 0.0
C442 C 0.91592 0.17404 0.72109 0.0
C443 C 0.93796 0.13195 0.70067 0.0
H444 H 0.69007 0.50317 0.77118 0.0
C445 C 0.63753 0.50686 0.75402 0.0
H446 H 0.5341 0.52177 0.75556 0.0
H447 H 0.59811 0.43165 0.92159 0.0
H448 H 0.52844 0.35358 0.88911 0.0
H449 H 0.49167 0.35199 0.82108 0.0
H450 H 0.5247 0.4284 0.78508 0.0
C451 C 0.58751 0.51778 0.77095 0.0
C452 C 0.6035 0.5222 0.81197 0.0
C453 C 0.58218 0.47805 0.83263 0.0
C454 C 0.60303 0.47917 0.87191 0.0
C455 C 0.58322 0.43333 0.89178 0.0
C456 C 0.54327 0.38817 0.87346 0.0
C457 C 0.52258 0.38727 0.83516 0.0
C458 C 0.54184 0.43144 0.81483 0.0
H459 H 0.59208 0.54793 0.94846 0.0
C460 C 0.64428 0.53183 0.95674 0.0
H461 H 0.7316 0.5086 0.93881 0.0
H462 H 0.64262 0.61863 0.78094 0.0
H463 H 0.70876 0.69858 0.81357 0.0
H464 H 0.74643 0.69959 0.88166 0.0
H465 H 0.71788 0.62064 0.91734 0.0
C466 C 0.67763 0.52063 0.93078 0.0
C467 C 0.64459 0.52476 0.89045 0.0
C468 C 0.66218 0.57063 0.86981 0.0
C469 C 0.6412 0.56964 0.83056 0.0
C470 C 0.65849 0.61666 0.81076 0.0
C471 C 0.69611 0.66293 0.82915 0.0
C472 C 0.71729 0.66353 0.86747 0.0
C473 C 0.70074 0.61798 0.88766 0.0
H474 H 0.47707 0.51048 0.32922 0.0
C475 C 0.52938 0.51987 0.34518 0.0
H476 H 0.62718 0.54917 0.34106 0.0
H477 H 0.56803 0.46673 0.17397 0.0
H478 H 0.65752 0.40112 0.2046 0.0
H479 H 0.70133 0.40065 0.27238 0.0
H480 H 0.65529 0.46574 0.30997 0.0
C481 C 0.57436 0.5391 0.32669 0.0
C482 C 0.55385 0.54485 0.28545 0.0
C483 C 0.5828 0.50794 0.26364 0.0
C484 C 0.55812 0.50884 0.22436 0.0
C485 C 0.58554 0.46911 0.20366 0.0
C486 C 0.63691 0.43089 0.22095 0.0
C487 C 0.66154 0.43059 0.25911 0.0
C488 C 0.63473 0.46829 0.28036 0.0
H489 H 0.54701 0.56912 0.14429 0.0
C490 C 0.49553 0.55136 0.13862 0.0
H491 H 0.41413 0.52787 0.16168 0.0
H492 H 0.49704 0.62909 0.3183 0.0
H493 H 0.41174 0.69858 0.28752 0.0
H494 H 0.369 0.70015 0.21965 0.0
H495 H 0.41152 0.63231 0.18209 0.0
C496 C 0.46779 0.54063 0.16708 0.0
C497 C 0.50531 0.5476 0.20686 0.0
C498 C 0.48033 0.58746 0.22858 0.0
C499 C 0.50466 0.58626 0.2678 0.0
C500 C 0.4792 0.6272 0.28854 0.0
C501 C 0.43058 0.66758 0.2712 0.0
C502 C 0.40651 0.66848 0.23298 0.0
C503 C 0.431 0.62909 0.21177 0.0
loop_
_geom_bond_atom_site_label_1
_geom_bond_atom_site_label_2
_geom_bond_distance
_geom_bond_site_symmetry_2
_ccdc_geom_bond_type
C0 O16 1.251 . S
C0 O18 1.254 1_554 S
N1 C2 1.333 1_545 S
N1 C6 1.307 . S
N1 Zn7 2.020 . S
C2 N1 1.333 1_565 S
C2 C3 1.379 . S
C2 H20 0.952 1_455 S
C3 C2 1.379 . S
C3 C4 1.390 1_565 S
C3 H30 0.949 1_455 S
C4 C3 1.390 1_545 S
C4 C5 1.357 . S
C5 C4 1.357 . S
C5 C6 1.370 . S
C5 H31 0.950 . S
C6 N1 1.307 . S
C6 C5 1.370 . S
C6 H24 0.948 . S
Zn7 N1 2.020 . S
Zn7 O16 2.039 1_445 S
Zn7 O22 2.034 1_455 S
Zn7 O26 2.025 . S
Zn7 O28 2.024 1_545 S
C8 O27 1.246 1_554 S
C8 O28 1.249 . S
N9 C10 1.307 1_445 S
N9 C11 1.333 . S
N9 Zn15 2.020 . S
C10 N9 1.307 1_665 S
C10 C14 1.370 . S
C10 H21 0.948 . S
C11 N9 1.333 . S
C11 C12 1.379 . S
C11 H19 0.952 . S
C12 C11 1.379 . S
C12 C13 1.390 1_455 S
C12 H32 0.949 . S
C13 C12 1.390 1_655 S
C13 C14 1.357 1_545 S
C14 C10 1.370 . S
C14 C13 1.357 1_565 S
C14 H33 0.950 . S
Zn15 N9 2.020 . S
Zn15 O18 2.025 1_445 S
Zn15 O23 2.024 1_455 S
Zn15 O25 2.039 . S
Zn15 O27 2.034 1_545 S
O16 C0 1.251 . S
O16 Zn7 2.039 1_665 S
C17 O22 1.246 . S
C17 O23 1.249 1_554 S
O18 C0 1.254 1_556 S
O18 Zn15 2.025 1_665 S
H19 C11 0.952 . S
H20 C2 0.952 1_655 S
H21 C10 0.948 . S
O22 Zn7 2.034 1_655 S
O22 C17 1.246 . S
O23 Zn15 2.024 1_655 S
O23 C17 1.249 1_556 S
H24 C6 0.948 . S
O25 Zn15 2.039 . S
O25 C29 1.251 1_556 S
O26 Zn7 2.025 . S
O26 C29 1.254 . S
O27 C8 1.246 1_556 S
O27 Zn15 2.034 1_565 S
O28 Zn7 2.024 1_565 S
O28 C8 1.249 . S
C29 O25 1.251 1_554 S
C29 O26 1.254 . S
H30 C3 0.949 1_655 S
H31 C5 0.950 . S
H32 C12 0.949 . S
H33 C14 0.950 . S
C34 O50 1.251 . S
C34 O52 1.254 . S
N35 C36 1.333 . S
N35 C40 1.307 . S
N35 Zn41 2.020 . S
C36 N35 1.333 . S
C36 C37 1.379 . S
C36 H54 0.952 . S
C37 C36 1.379 . S
C37 C38 1.390 . S
C37 H64 0.949 . S
C38 C37 1.390 . S
C38 C39 1.357 . S
C39 C38 1.357 . S
C39 C40 1.370 . S
C39 H65 0.950 . S
C40 N35 1.307 . S
C40 C39 1.370 . S
C40 H58 0.948 . S
Zn41 N35 2.020 . S
Zn41 O50 2.039 . S
Zn41 O56 2.034 . S
Zn41 O60 2.025 . S
Zn41 O62 2.024 . S
C42 O61 1.246 . S
C42 O62 1.249 . S
N43 C44 1.307 . S
N43 C45 1.333 . S
N43 Zn49 2.020 . S
C44 N43 1.307 . S
C44 C48 1.370 . S
C44 H55 0.948 . S
C45 N43 1.333 . S
C45 C46 1.379 . S
C45 H53 0.952 . S
C46 C45 1.379 . S
C46 C47 1.390 . S
C46 H66 0.949 . S
C47 C46 1.390 . S
C47 C48 1.357 . S
C48 C44 1.370 . S
C48 C47 1.357 . S
C48 H67 0.950 . S
Zn49 N43 2.020 . S
Zn49 O52 2.025 . S
Zn49 O57 2.024 . S
Zn49 O59 2.039 . S
Zn49 O61 2.034 . S
O50 C34 1.251 . S
O50 Zn41 2.039 . S
C51 O56 1.246 . S
C51 O57 1.249 . S
O52 C34 1.254 . S
O52 Zn49 2.025 . S
H53 C45 0.952 . S
H54 C36 0.952 . S
H55 C44 0.948 . S
O56 Zn41 2.034 . S
O56 C51 1.246 . S
O57 Zn49 2.024 . S
O57 C51 1.249 . S
H58 C40 0.948 . S
O59 Zn49 2.039 . S
O59 C63 1.251 . S
O60 Zn41 2.025 . S
O60 C63 1.254 . S
O61 C42 1.246 . S
O61 Zn49 2.034 . S
O62 Zn41 2.024 . S
O62 C42 1.249 . S
C63 O59 1.251 . S
C63 O60 1.254 . S
H64 C37 0.949 . S
H65 C39 0.950 . S
H66 C46 0.949 . S
H67 C48 0.950 . S
H68 C69 0.949 . S
C69 H68 0.949 . S
C69 C70 1.395 . S
C69 C71 1.391 . S
C70 C69 1.395 . S
C70 C73 1.390 1_545 S
C71 C69 1.391 . S
C71 C75 1.387 1_545 S
C71 C76 1.491 . S
H72 C73 0.950 . S
C73 C70 1.390 1_565 S
C73 H72 0.950 . S
C73 C74 1.378 . S
C74 C73 1.378 . S
C74 C75 1.409 . S
C75 C71 1.387 1_565 S
C75 C74 1.409 . S
C75 H77 0.951 . S
C76 C71 1.491 . S
C76 C78 1.382 1_455 S
C76 C80 1.404 . S
H77 C75 0.951 . S
C78 C76 1.382 1_655 S
C78 C79 1.390 . S
C78 H83 0.949 . S
C79 C78 1.390 . S
C79 C84 1.399 1_655 S
C80 C76 1.404 . S
C80 H81 0.950 . S
C80 C82 1.375 . S
H81 C80 0.950 . S
C82 C80 1.375 . S
C82 C84 1.382 . S
C82 H86 0.950 . S
H83 C78 0.949 . S
C84 C79 1.399 1_455 S
C84 C82 1.382 . S
C84 H85 0.952 . S
H85 C84 0.952 . S
H86 C82 0.950 . S
H87 C88 0.944 1_455 S
C88 H87 0.944 1_655 S
C88 C89 1.400 . S
C88 C90 1.391 . S
C89 C88 1.400 . S
C89 C92 1.390 1_545 S
C90 C88 1.391 . S
C90 C94 1.387 1_545 S
C90 C95 1.491 1_655 S
H91 C92 0.950 . S
C92 C89 1.390 1_565 S
C92 H91 0.950 . S
C92 C93 1.378 . S
C93 C92 1.378 . S
C93 C94 1.409 . S
C94 C90 1.387 1_565 S
C94 C93 1.409 . S
C94 H96 0.951 . S
C95 C90 1.491 1_455 S
C95 C97 1.382 . S
C95 C99 1.404 1_455 S
H96 C94 0.951 . S
C97 C95 1.382 . S
C97 C98 1.390 . S
C97 H102 0.949 . S
C98 C97 1.390 . S
C98 C103 1.399 . S
C99 C95 1.404 1_655 S
C99 H100 0.950 . S
C99 C101 1.375 . S
H100 C99 0.950 . S
C101 C99 1.375 . S
C101 C103 1.382 1_655 S
C101 H105 0.950 . S
H102 C97 0.949 . S
C103 C98 1.399 . S
C103 C101 1.382 1_455 S
C103 H104 0.952 . S
H104 C103 0.952 . S
H105 C101 0.950 . S
H106 C107 0.949 . S
C107 H106 0.949 . S
C107 C108 1.395 . S
C107 C109 1.391 . S
C108 C107 1.395 . S
C108 C111 1.390 . S
C109 C107 1.391 . S
C109 C113 1.387 1_556 S
C109 C114 1.491 1_556 S
H110 C111 0.950 . S
C111 C108 1.390 . S
C111 H110 0.950 . S
C111 C112 1.378 . S
C112 C111 1.378 . S
C112 C113 1.409 1_556 S
C113 C109 1.387 1_554 S
C113 C112 1.409 1_554 S
C113 H115 0.951 . S
C114 C109 1.491 1_554 S
C114 C116 1.382 . S
C114 C118 1.404 . S
H115 C113 0.951 . S
C116 C114 1.382 . S
C116 C117 1.390 . S
C116 H121 0.949 1_554 S
C117 C116 1.390 . S
C117 C122 1.399 . S
C118 C114 1.404 . S
C118 H119 0.950 . S
C118 C120 1.375 . S
H119 C118 0.950 . S
C120 C118 1.375 . S
C120 C122 1.382 . S
C120 H124 0.950 . S
H121 C116 0.949 1_556 S
C122 C117 1.399 . S
C122 C120 1.382 . S
C122 H123 0.952 . S
H123 C122 0.952 . S
H124 C120 0.950 . S
H125 C126 0.949 . S
C126 H125 0.949 . S
C126 C127 1.395 . S
C126 C128 1.391 . S
C127 C126 1.395 . S
C127 C130 1.390 . S
C128 C126 1.391 . S
C128 C132 1.387 . S
C128 C133 1.491 . S
H129 C130 0.950 . S
C130 C127 1.390 . S
C130 H129 0.950 . S
C130 C131 1.378 . S
C131 C130 1.378 . S
C131 C132 1.409 . S
C132 C128 1.387 . S
C132 C131 1.409 . S
C132 H134 0.951 1_554 S
C133 C128 1.491 . S
C133 C135 1.382 . S
C133 C137 1.404 1_554 S
H134 C132 0.951 1_556 S
C135 C133 1.382 . S
C135 C136 1.391 . S
C135 H140 0.949 . S
C136 C135 1.391 . S
C136 C141 1.398 1_554 S
C137 C133 1.404 1_556 S
C137 H138 0.950 . S
C137 C139 1.375 . S
H138 C137 0.950 . S
C139 C137 1.375 . S
C139 C141 1.382 . S
C139 H143 0.950 . S
H140 C135 0.949 . S
C141 C136 1.398 1_556 S
C141 C139 1.382 . S
C141 H142 0.952 . S
H142 C141 0.952 . S
H143 C139 0.950 . S
H144 C145 0.951 . S
C145 H144 0.951 . S
C145 C151 1.265 . S
H146 C151 0.950 . S
H147 C155 0.949 . S
H148 C156 0.950 . S
H149 C157 0.951 . S
H150 C158 0.951 . S
C151 C145 1.265 . S
C151 H146 0.950 . S
C151 C152 1.478 . S
C152 C151 1.478 . S
C152 C153 1.397 . S
C152 C169 1.394 1_554 S
C153 C152 1.397 . S
C153 C154 1.438 . S
C153 C158 1.429 . S
C154 C153 1.438 . S
C154 C155 1.428 . S
C154 C167 1.394 . S
C155 H147 0.949 . S
C155 C154 1.428 . S
C155 C156 1.345 . S
C156 H148 0.950 . S
C156 C155 1.345 . S
C156 C157 1.424 . S
C157 H149 0.951 . S
C157 C156 1.424 . S
C157 C158 1.347 . S
C158 H150 0.951 . S
C158 C153 1.429 . S
C158 C157 1.347 . S
H159 C160 0.951 . S
C160 H159 0.951 . S
C160 C166 1.265 . S
H161 C166 0.950 . S
H162 C170 0.949 . S
H163 C171 0.950 . S
H164 C172 0.951 . S
H165 C173 0.951 . S
C166 C160 1.265 . S
C166 H161 0.950 . S
C166 C167 1.478 . S
C167 C154 1.394 . S
C167 C166 1.478 . S
C167 C168 1.397 1_554 S
C168 C167 1.397 1_556 S
C168 C169 1.438 . S
C168 C173 1.429 . S
C169 C152 1.394 1_556 S
C169 C168 1.438 . S
C169 C170 1.428 . S
C170 H162 0.949 . S
C170 C169 1.428 . S
C170 C171 1.345 . S
C171 H163 0.950 . S
C171 C170 1.345 . S
C171 C172 1.424 . S
C172 H164 0.951 . S
C172 C171 1.424 . S
C172 C173 1.347 . S
C173 H165 0.951 . S
C173 C168 1.429 . S
C173 C172 1.347 . S
H174 C175 0.951 . S
C175 H174 0.951 . S
C175 C181 1.265 . S
H176 C181 0.950 . S
H177 C185 0.949 . S
H178 C186 0.950 . S
H179 C187 0.951 . S
H180 C188 0.951 . S
C181 C175 1.265 . S
C181 H176 0.950 . S
C181 C182 1.478 . S
C182 C181 1.478 . S
C182 C183 1.397 . S
C182 C199 1.394 1_554 S
C183 C182 1.397 . S
C183 C184 1.438 . S
C183 C188 1.429 . S
C184 C183 1.438 . S
C184 C185 1.428 . S
C184 C197 1.394 . S
C185 H177 0.949 . S
C185 C184 1.428 . S
C185 C186 1.345 . S
C186 H178 0.950 . S
C186 C185 1.345 . S
C186 C187 1.424 . S
C187 H179 0.951 . S
C187 C186 1.424 . S
C187 C188 1.347 . S
C188 H180 0.951 . S
C188 C183 1.429 . S
C188 C187 1.347 . S
H189 C190 0.951 . S
C190 H189 0.951 . S
C190 C196 1.265 . S
H191 C196 0.950 . S
H192 C200 0.949 . S
H193 C201 0.950 . S
H194 C202 0.951 . S
H195 C203 0.951 . S
C196 C190 1.265 . S
C196 H191 0.950 . S
C196 C197 1.478 . S
C197 C184 1.394 . S
C197 C196 1.478 . S
C197 C198 1.397 1_554 S
C198 C197 1.397 1_556 S
C198 C199 1.438 . S
C198 C203 1.429 . S
C199 C182 1.394 1_556 S
C199 C198 1.438 . S
C199 C200 1.428 . S
C200 H192 0.949 . S
C200 C199 1.428 . S
C200 C201 1.345 . S
C201 H193 0.950 . S
C201 C200 1.345 . S
C201 C202 1.424 . S
C202 H194 0.951 . S
C202 C201 1.424 . S
C202 C203 1.347 . S
C203 H195 0.951 . S
C203 C198 1.429 . S
C203 C202 1.347 . S
H204 C205 0.951 . S
C205 H204 0.951 . S
C205 C211 1.265 1_554 S
H206 C211 0.950 . S
H207 C215 0.949 . S
H208 C216 0.950 . S
H209 C217 0.951 . S
H210 C218 0.951 . S
C211 C205 1.265 1_556 S
C211 H206 0.950 . S
C211 C212 1.477 1_556 S
C212 C211 1.477 1_554 S
C212 C213 1.397 . S
C212 C229 1.400 1_554 S
C213 C212 1.397 . S
C213 C214 1.438 . S
C213 C218 1.429 . S
C214 C213 1.438 . S
C214 C215 1.428 . S
C214 C227 1.394 . S
C215 H207 0.949 . S
C215 C214 1.428 . S
C215 C216 1.345 . S
C216 H208 0.950 . S
C216 C215 1.345 . S
C216 C217 1.424 . S
C217 H209 0.951 . S
C217 C216 1.424 . S
C217 C218 1.347 . S
C218 H210 0.951 . S
C218 C213 1.429 . S
C218 C217 1.347 . S
H219 C220 0.951 1_556 S
C220 H219 0.951 1_554 S
C220 C226 1.265 . S
H221 C226 0.950 . S
H222 C230 0.949 . S
H223 C231 0.950 . S
H224 C232 0.951 . S
H225 C233 0.951 . S
C226 C220 1.265 . S
C226 H221 0.950 . S
C226 C227 1.478 . S
C227 C214 1.394 . S
C227 C226 1.478 . S
C227 C228 1.397 . S
C228 C227 1.397 . S
C228 C229 1.430 1_554 S
C228 C233 1.429 . S
C229 C212 1.400 1_556 S
C229 C228 1.430 1_556 S
C229 C230 1.431 . S
C230 H222 0.949 . S
C230 C229 1.431 . S
C230 C231 1.345 . S
C231 H223 0.950 . S
C231 C230 1.345 . S
C231 C232 1.424 . S
C232 H224 0.951 . S
C232 C231 1.424 . S
C232 C233 1.347 1_556 S
C233 H225 0.951 . S
C233 C228 1.429 . S
C233 C232 1.347 1_554 S
H234 C235 0.951 . S
C235 H234 0.951 . S
C235 C241 1.265 . S
H236 C241 0.950 . S
H237 C245 0.949 . S
H238 C246 0.950 . S
H239 C247 0.951 . S
H240 C248 0.951 . S
C241 C235 1.265 . S
C241 H236 0.950 . S
C241 C242 1.478 . S
C242 C241 1.478 . S
C242 C243 1.397 . S
C242 C259 1.394 1_554 S
C243 C242 1.397 . S
C243 C244 1.438 . S
C243 C248 1.429 . S
C244 C243 1.438 . S
C244 C245 1.428 . S
C244 C257 1.385 1_554 S
C245 H237 0.949 . S
C245 C244 1.428 . S
C245 C246 1.345 . S
C246 H238 0.950 . S
C246 C245 1.345 . S
C246 C247 1.424 . S
C247 H239 0.951 . S
C247 C246 1.424 . S
C247 C248 1.347 . S
C248 H240 0.951 . S
C248 C243 1.429 . S
C248 C247 1.347 . S
H249 C250 0.951 . S
C250 H249 0.951 . S
C250 C256 1.265 . S
H251 C256 0.950 . S
H252 C260 0.949 . S
H253 C261 0.950 . S
H254 C262 0.951 . S
H255 C263 0.951 . S
C256 C250 1.265 . S
C256 H251 0.950 . S
C256 C257 1.478 . S
C257 C244 1.385 1_556 S
C257 C256 1.478 . S
C257 C258 1.406 . S
C258 C257 1.406 . S
C258 C259 1.438 . S
C258 C263 1.429 . S
C259 C242 1.394 1_556 S
C259 C258 1.438 . S
C259 C260 1.428 . S
C260 H252 0.949 . S
C260 C259 1.428 . S
C260 C261 1.345 . S
C261 H253 0.950 . S
C261 C260 1.345 . S
C261 C262 1.424 . S
C262 H254 0.951 . S
C262 C261 1.424 . S
C262 C263 1.347 . S
C263 H255 0.951 . S
C263 C258 1.429 . S
C263 C262 1.347 . S
H264 C265 0.951 . S
C265 H264 0.951 . S
C265 C271 1.265 . S
H266 C271 0.950 . S
H267 C275 0.949 . S
H268 C276 0.950 . S
H269 C277 0.951 . S
H270 C278 0.951 . S
C271 C265 1.265 . S
C271 H266 0.950 . S
C271 C272 1.478 . S
C272 C271 1.478 . S
C272 C273 1.397 . S
C272 C289 1.394 . S
C273 C272 1.397 . S
C273 C274 1.438 . S
C273 C278 1.429 . S
C274 C273 1.438 . S
C274 C275 1.428 . S
C274 C287 1.394 . S
C275 H267 0.949 . S
C275 C274 1.428 . S
C275 C276 1.345 . S
C276 H268 0.950 . S
C276 C275 1.345 . S
C276 C277 1.424 . S
C277 H269 0.951 . S
C277 C276 1.424 . S
C277 C278 1.347 . S
C278 H270 0.951 . S
C278 C273 1.429 . S
C278 C277 1.347 . S
H279 C280 0.951 . S
C280 H279 0.951 . S
C280 C286 1.265 . S
H281 C286 0.950 . S
H282 C290 0.949 . S
H283 C291 0.950 . S
H284 C292 0.951 . S
H285 C293 0.951 . S
C286 C280 1.265 . S
C286 H281 0.950 . S
C286 C287 1.478 . S
C287 C274 1.394 . S
C287 C286 1.478 . S
C287 C288 1.397 . S
C288 C287 1.397 . S
C288 C289 1.438 . S
C288 C293 1.429 . S
C289 C272 1.394 . S
C289 C288 1.438 . S
C289 C290 1.428 . S
C290 H282 0.949 . S
C290 C289 1.428 . S
C290 C291 1.345 . S
C291 H283 0.950 . S
C291 C290 1.345 . S
C291 C292 1.424 . S
C292 H284 0.951 . S
C292 C291 1.424 . S
C292 C293 1.347 . S
C293 H285 0.951 . S
C293 C288 1.429 . S
C293 C292 1.347 . S
H294 C295 0.951 . S
C295 H294 0.951 . S
C295 C301 1.265 . S
H296 C301 0.950 . S
H297 C305 0.949 . S
H298 C306 0.950 . S
H299 C307 0.951 . S
H300 C308 0.951 . S
C301 C295 1.265 . S
C301 H296 0.950 . S
C301 C302 1.478 . S
C302 C301 1.478 . S
C302 C303 1.397 . S
C302 C319 1.394 . S
C303 C302 1.397 . S
C303 C304 1.438 . S
C303 C308 1.429 . S
C304 C303 1.438 . S
C304 C305 1.428 . S
C304 C317 1.394 . S
C305 H297 0.949 . S
C305 C304 1.428 . S
C305 C306 1.345 . S
C306 H298 0.950 . S
C306 C305 1.345 . S
C306 C307 1.424 . S
C307 H299 0.951 . S
C307 C306 1.424 . S
C307 C308 1.347 . S
C308 H300 0.951 . S
C308 C303 1.429 . S
C308 C307 1.347 . S
H309 C310 0.951 . S
C310 H309 0.951 . S
C310 C316 1.265 . S
H311 C316 0.950 . S
H312 C320 0.949 . S
H313 C321 0.950 . S
H314 C322 0.951 . S
H315 C323 0.951 . S
C316 C310 1.265 . S
C316 H311 0.950 . S
C316 C317 1.478 . S
C317 C304 1.394 . S
C317 C316 1.478 . S
C317 C318 1.397 . S
C318 C317 1.397 . S
C318 C319 1.438 . S
C318 C323 1.429 . S
C319 C302 1.394 . S
C319 C318 1.438 . S
C319 C320 1.428 . S
C320 H312 0.949 . S
C320 C319 1.428 . S
C320 C321 1.345 . S
C321 H313 0.950 . S
C321 C320 1.345 . S
C321 C322 1.424 . S
C322 H314 0.951 . S
C322 C321 1.424 . S
C322 C323 1.347 . S
C323 H315 0.951 . S
C323 C318 1.429 . S
C323 C322 1.347 . S
H324 C325 0.951 . S
C325 H324 0.951 . S
C325 C331 1.265 . S
H326 C331 0.950 . S
H327 C335 0.949 . S
H328 C336 0.950 . S
H329 C337 0.951 . S
H330 C338 0.951 . S
C331 C325 1.265 . S
C331 H326 0.950 . S
C331 C332 1.478 . S
C332 C331 1.478 . S
C332 C333 1.397 . S
C332 C349 1.394 . S
C333 C332 1.397 . S
C333 C334 1.438 . S
C333 C338 1.429 . S
C334 C333 1.438 . S
C334 C335 1.428 . S
C334 C347 1.394 . S
C335 H327 0.949 . S
C335 C334 1.428 . S
C335 C336 1.345 . S
C336 H328 0.950 . S
C336 C335 1.345 . S
C336 C337 1.424 . S
C337 H329 0.951 . S
C337 C336 1.424 . S
C337 C338 1.347 . S
C338 H330 0.951 . S
C338 C333 1.429 . S
C338 C337 1.347 . S
H339 C340 0.951 . S
C340 H339 0.951 . S
C340 C346 1.265 . S
H341 C346 0.950 . S
H342 C350 0.949 . S
H343 C351 0.950 . S
H344 C352 0.951 . S
H345 C353 0.951 . S
C346 C340 1.265 . S
C346 H341 0.950 . S
C346 C347 1.478 . S
C347 C334 1.394 . S
C347 C346 1.478 . S
C347 C348 1.397 . S
C348 C347 1.397 . S
C348 C349 1.438 . S
C348 C353 1.429 . S
C349 C332 1.394 . S
C349 C348 1.438 . S
C349 C350 1.428 . S
C350 H342 0.949 . S
C350 C349 1.428 . S
C350 C351 1.345 . S
C351 H343 0.950 . S
C351 C350 1.345 . S
C351 C352 1.424 . S
C352 H344 0.951 . S
C352 C351 1.424 . S
C352 C353 1.347 . S
C353 H345 0.951 . S
C353 C348 1.429 . S
C353 C352 1.347 . S
H354 C355 0.951 . S
C355 H354 0.951 . S
C355 C361 1.265 . S
H356 C361 0.950 . S
H357 C365 0.949 . S
H358 C366 0.950 . S
H359 C367 0.951 . S
H360 C368 0.951 . S
C361 C355 1.265 . S
C361 H356 0.950 . S
C361 C362 1.478 . S
C362 C361 1.478 . S
C362 C363 1.397 . S
C362 C379 1.394 . S
C363 C362 1.397 . S
C363 C364 1.438 . S
C363 C368 1.429 . S
C364 C363 1.438 . S
C364 C365 1.428 . S
C364 C377 1.394 . S
C365 H357 0.949 . S
C365 C364 1.428 . S
C365 C366 1.345 . S
C366 H358 0.950 . S
C366 C365 1.345 . S
C366 C367 1.424 . S
C367 H359 0.951 . S
C367 C366 1.424 . S
C367 C368 1.347 . S
C368 H360 0.951 . S
C368 C363 1.429 . S
C368 C367 1.347 . S
H369 C370 0.951 . S
C370 H369 0.951 . S
C370 C376 1.265 . S
H371 C376 0.950 . S
H372 C380 0.949 . S
H373 C381 0.950 . S
H374 C382 0.951 . S
H375 C383 0.951 . S
C376 C370 1.265 . S
C376 H371 0.950 . S
C376 C377 1.478 . S
C377 C364 1.394 . S
C377 C376 1.478 . S
C377 C378 1.397 . S
C378 C377 1.397 . S
C378 C379 1.438 . S
C378 C383 1.429 . S
C379 C362 1.394 . S
C379 C378 1.438 . S
C379 C380 1.428 . S
C380 H372 0.949 . S
C380 C379 1.428 . S
C380 C381 1.345 . S
C381 H373 0.950 . S
C381 C380 1.345 . S
C381 C382 1.424 . S
C382 H374 0.951 . S
C382 C381 1.424 . S
C382 C383 1.347 . S
C383 H375 0.951 . S
C383 C378 1.429 . S
C383 C382 1.347 . S
H384 C385 0.951 . S
C385 H384 0.951 . S
C385 C391 1.265 . S
H386 C391 0.950 . S
H387 C395 0.949 . S
H388 C396 0.950 . S
H389 C397 0.951 . S
H390 C398 0.951 . S
C391 C385 1.265 . S
C391 H386 0.950 . S
C391 C392 1.478 . S
C392 C391 1.478 . S
C392 C393 1.397 . S
C392 C409 1.394 1_545 S
C393 C392 1.397 . S
C393 C394 1.438 . S
C393 C398 1.429 . S
C394 C393 1.438 . S
C394 C395 1.428 . S
C394 C407 1.394 . S
C395 H387 0.949 . S
C395 C394 1.428 . S
C395 C396 1.345 . S
C396 H388 0.950 . S
C396 C395 1.345 . S
C396 C397 1.424 . S
C397 H389 0.951 . S
C397 C396 1.424 . S
C397 C398 1.347 . S
C398 H390 0.951 . S
C398 C393 1.429 . S
C398 C397 1.347 . S
H399 C400 0.951 . S
C400 H399 0.951 . S
C400 C406 1.265 . S
H401 C406 0.946 1_565 S
H402 C410 0.949 . S
H403 C411 0.950 . S
H404 C412 0.951 1_655 S
H405 C413 0.951 . S
C406 C400 1.265 . S
C406 H401 0.946 1_545 S
C406 C407 1.478 . S
C407 C394 1.394 . S
C407 C406 1.478 . S
C407 C408 1.397 1_545 S
C408 C407 1.397 1_565 S
C408 C409 1.438 . S
C408 C413 1.429 . S
C409 C392 1.394 1_565 S
C409 C408 1.438 . S
C409 C410 1.428 . S
C410 H402 0.949 . S
C410 C409 1.428 . S
C410 C411 1.345 . S
C411 H403 0.950 . S
C411 C410 1.345 . S
C411 C412 1.424 . S
C412 H404 0.951 1_455 S
C412 C411 1.424 . S
C412 C413 1.347 . S
C413 H405 0.951 . S
C413 C408 1.429 . S
C413 C412 1.347 . S
H414 C415 0.951 . S
C415 H414 0.951 . S
C415 C421 1.265 1_655 S
H416 C421 0.950 . S
H417 C425 0.950 1_655 S
H418 C426 0.950 . S
H419 C427 0.951 . S
H420 C428 0.951 . S
C421 C415 1.265 1_455 S
C421 H416 0.950 . S
C421 C422 1.477 . S
C422 C421 1.477 . S
C422 C423 1.403 1_545 S
C422 C439 1.389 1_455 S
C423 C422 1.403 1_565 S
C423 C424 1.438 1_455 S
C423 C428 1.429 . S
C424 C423 1.438 1_655 S
C424 C425 1.428 1_655 S
C424 C437 1.394 1_565 S
C425 H417 0.950 1_455 S
C425 C424 1.428 1_455 S
C425 C426 1.345 . S
C426 H418 0.950 . S
C426 C425 1.345 . S
C426 C427 1.424 . S
C427 H419 0.951 . S
C427 C426 1.424 . S
C427 C428 1.347 . S
C428 H420 0.951 . S
C428 C423 1.429 . S
C428 C427 1.347 . S
H429 C430 0.951 1_455 S
C430 H429 0.951 1_655 S
C430 C436 1.265 . S
H431 C436 0.950 . S
H432 C440 0.949 . S
H433 C441 0.950 . S
H434 C442 0.951 . S
H435 C443 0.951 . S
C436 C430 1.265 . S
C436 H431 0.950 . S
C436 C437 1.478 . S
C437 C424 1.394 1_545 S
C437 C436 1.478 . S
C437 C438 1.397 . S
C438 C437 1.397 . S
C438 C439 1.438 . S
C438 C443 1.429 . S
C439 C422 1.389 1_655 S
C439 C438 1.438 . S
C439 C440 1.428 . S
C440 H432 0.949 . S
C440 C439 1.428 . S
C440 C441 1.345 . S
C441 H433 0.950 . S
C441 C440 1.345 . S
C441 C442 1.424 . S
C442 H434 0.951 . S
C442 C441 1.424 . S
C442 C443 1.347 . S
C443 H435 0.951 . S
C443 C438 1.429 . S
C443 C442 1.347 . S
H444 C445 0.951 . S
C445 H444 0.951 . S
C445 C451 1.265 . S
H446 C451 0.950 . S
H447 C455 0.949 . S
H448 C456 0.950 . S
H449 C457 0.951 . S
H450 C458 0.951 . S
C451 C445 1.265 . S
C451 H446 0.950 . S
C451 C452 1.478 . S
C452 C451 1.478 . S
C452 C453 1.397 . S
C452 C469 1.394 . S
C453 C452 1.397 . S
C453 C454 1.438 . S
C453 C458 1.429 . S
C454 C453 1.438 . S
C454 C455 1.428 . S
C454 C467 1.394 . S
C455 H447 0.949 . S
C455 C454 1.428 . S
C455 C456 1.345 . S
C456 H448 0.950 . S
C456 C455 1.345 . S
C456 C457 1.424 . S
C457 H449 0.951 . S
C457 C456 1.424 . S
C457 C458 1.347 . S
C458 H450 0.951 . S
C458 C453 1.429 . S
C458 C457 1.347 . S
H459 C460 0.951 . S
C460 H459 0.951 . S
C460 C466 1.265 . S
H461 C466 0.950 . S
H462 C470 0.949 . S
H463 C471 0.950 . S
H464 C472 0.951 . S
H465 C473 0.951 . S
C466 C460 1.265 . S
C466 H461 0.950 . S
C466 C467 1.478 . S
C467 C454 1.394 . S
C467 C466 1.478 . S
C467 C468 1.397 . S
C468 C467 1.397 . S
C468 C469 1.438 . S
C468 C473 1.429 . S
C469 C452 1.394 . S
C469 C468 1.438 . S
C469 C470 1.428 . S
C470 H462 0.949 . S
C470 C469 1.428 . S
C470 C471 1.345 . S
C471 H463 0.950 . S
C471 C470 1.345 . S
C471 C472 1.424 . S
C472 H464 0.951 . S
C472 C471 1.424 . S
C472 C473 1.347 . S
C473 H465 0.951 . S
C473 C468 1.429 . S
C473 C472 1.347 . S
H474 C475 0.951 . S
C475 H474 0.951 . S
C475 C481 1.265 . S
H476 C481 0.950 . S
H477 C485 0.949 . S
H478 C486 0.950 . S
H479 C487 0.951 . S
H480 C488 0.951 . S
C481 C475 1.265 . S
C481 H476 0.950 . S
C481 C482 1.478 . S
C482 C481 1.478 . S
C482 C483 1.397 . S
C482 C499 1.394 . S
C483 C482 1.397 . S
C483 C484 1.438 . S
C483 C488 1.429 . S
C484 C483 1.438 . S
C484 C485 1.428 . S
C484 C497 1.394 . S
C485 H477 0.949 . S
C485 C484 1.428 . S
C485 C486 1.345 . S
C486 H478 0.950 . S
C486 C485 1.345 . S
C486 C487 1.424 . S
C487 H479 0.951 . S
C487 C486 1.424 . S
C487 C488 1.347 . S
C488 H480 0.951 . S
C488 C483 1.429 . S
C488 C487 1.347 . S
H489 C490 0.951 . S
C490 H489 0.951 . S
C490 C496 1.265 . S
H491 C496 0.950 . S
H492 C500 0.949 . S
H493 C501 0.950 . S
H494 C502 0.951 . S
H495 C503 0.951 . S
C496 C490 1.265 . S
C496 H491 0.950 . S
C496 C497 1.478 . S
C497 C484 1.394 . S
C497 C496 1.478 . S
C497 C498 1.397 . S
C498 C497 1.397 . S
C498 C499 1.438 . S
C498 C503 1.429 . S
C499 C482 1.394 . S
C499 C498 1.438 . S
C499 C500 1.428 . S
C500 H492 0.949 . S
C500 C499 1.428 . S
C500 C501 1.345 . S
C501 H493 0.950 . S
C501 C500 1.345 . S
C501 C502 1.424 . S
C502 H494 0.951 . S
C502 C501 1.424 . S
C502 C503 1.347 . S
C503 H495 0.951 . S
C503 C498 1.429 . S
C503 C502 1.347 . S
C160 C131 1.523 . S
C145 C29 1.558 . S
C175 C8 1.420 . S
C190 C117 1.343 . S
C205 C0 1.400 . S
C220 C136 1.366 . S
C235 C17 1.556 . S
C250 C112 1.525 . S
C265 C63 1.543 . S
C280 C93 1.525 . S
C295 C42 1.386 . S
C310 C79 1.407 . S
C340 C98 1.341 . S
C325 C34 1.419 . S
C370 C74 1.528 . S
C355 C51 1.553 . S
C385 C4 1.539 . S
C400 C70 1.519 . S
C415 C13 1.538 . S
C430 C89 1.534 . S
C460 C108 1.546 . S
C445 C38 1.548 . S
C475 C47 1.538 . S
C490 C127 1.535 . S
