# Generated by pormake.
# Topology ctn, (3,4)-cn, num edge types: 1
# Building blocks:
#     Node 0, Type 0, BuildingBlock: BETDIP_clean_linker_0, # of connection points: 3
#     Node 1, Type 0, BuildingBlock: BETDIP_clean_linker_0, # of connection points: 3
#     Node 2, Type 0, BuildingBlock: BETDIP_clean_linker_0, # of connection points: 3
#     Node 3, Type 0, BuildingBlock: BETDIP_clean_linker_0, # of connection points: 3
#     Node 4, Type 0, BuildingBlock: BETDIP_clean_linker_0, # of connection points: 3
#     Node 5, Type 0, BuildingBlock: BETDIP_clean_linker_0, # of connection points: 3
#     Node 6, Type 0, BuildingBlock: BETDIP_clean_linker_0, # of connection points: 3
#     Node 7, Type 0, BuildingBlock: BETDIP_clean_linker_0, # of connection points: 3
#     Node 8, Type 0, BuildingBlock: BETDIP_clean_linker_0, # of connection points: 3
#     Node 9, Type 0, BuildingBlock: BETDIP_clean_linker_0, # of connection points: 3
#     Node 10, Type 0, BuildingBlock: BETDIP_clean_linker_0, # of connection points: 3
#     Node 11, Type 0, BuildingBlock: BETDIP_clean_linker_0, # of connection points: 3
#     Node 12, Type 0, BuildingBlock: BETDIP_clean_linker_0, # of connection points: 3
#     Node 13, Type 0, BuildingBlock: BETDIP_clean_linker_0, # of connection points: 3
#     Node 14, Type 0, BuildingBlock: BETDIP_clean_linker_0, # of connection points: 3
#     Node 15, Type 0, BuildingBlock: BETDIP_clean_linker_0, # of connection points: 3
#     Node 16, Type 1, BuildingBlock: TATPOV_clean_sbu_0, # of connection points: 4
#     Node 17, Type 1, BuildingBlock: TATPOV_clean_sbu_0, # of connection points: 4
#     Node 18, Type 1, BuildingBlock: TATPOV_clean_sbu_0, # of connection points: 4
#     Node 19, Type 1, BuildingBlock: TATPOV_clean_sbu_0, # of connection points: 4
#     Node 20, Type 1, BuildingBlock: TATPOV_clean_sbu_0, # of connection points: 4
#     Node 21, Type 1, BuildingBlock: TATPOV_clean_sbu_0, # of connection points: 4
#     Node 22, Type 1, BuildingBlock: TATPOV_clean_sbu_0, # of connection points: 4
#     Node 23, Type 1, BuildingBlock: TATPOV_clean_sbu_0, # of connection points: 4
#     Node 24, Type 1, BuildingBlock: TATPOV_clean_sbu_0, # of connection points: 4
#     Node 25, Type 1, BuildingBlock: TATPOV_clean_sbu_0, # of connection points: 4
#     Node 26, Type 1, BuildingBlock: TATPOV_clean_sbu_0, # of connection points: 4
#     Node 27, Type 1, BuildingBlock: TATPOV_clean_sbu_0, # of connection points: 4
#     Edge 28, Type (0, 1), BuildingBlock: XIVTED_clean_linker_0, # of connection points: 2
#     Edge 29, Type (0, 1), BuildingBlock: XIVTED_clean_linker_0, # of connection points: 2
#     Edge 30, Type (0, 1), BuildingBlock: XIVTED_clean_linker_0, # of connection points: 2
#     Edge 31, Type (0, 1), BuildingBlock: XIVTED_clean_linker_0, # of connection points: 2
#     Edge 32, Type (0, 1), BuildingBlock: XIVTED_clean_linker_0, # of connection points: 2
#     Edge 33, Type (0, 1), BuildingBlock: XIVTED_clean_linker_0, # of connection points: 2
#     Edge 34, Type (0, 1), BuildingBlock: XIVTED_clean_linker_0, # of connection points: 2
#     Edge 35, Type (0, 1), BuildingBlock: XIVTED_clean_linker_0, # of connection points: 2
#     Edge 36, Type (0, 1), BuildingBlock: XIVTED_clean_linker_0, # of connection points: 2
#     Edge 37, Type (0, 1), BuildingBlock: XIVTED_clean_linker_0, # of connection points: 2
#     Edge 38, Type (0, 1), BuildingBlock: XIVTED_clean_linker_0, # of connection points: 2
#     Edge 39, Type (0, 1), BuildingBlock: XIVTED_clean_linker_0, # of connection points: 2
#     Edge 40, Type (0, 1), BuildingBlock: XIVTED_clean_linker_0, # of connection points: 2
#     Edge 41, Type (0, 1), BuildingBlock: XIVTED_clean_linker_0, # of connection points: 2
#     Edge 42, Type (0, 1), BuildingBlock: XIVTED_clean_linker_0, # of connection points: 2
#     Edge 43, Type (0, 1), BuildingBlock: XIVTED_clean_linker_0, # of connection points: 2
#     Edge 44, Type (0, 1), BuildingBlock: XIVTED_clean_linker_0, # of connection points: 2
#     Edge 45, Type (0, 1), BuildingBlock: XIVTED_clean_linker_0, # of connection points: 2
#     Edge 46, Type (0, 1), BuildingBlock: XIVTED_clean_linker_0, # of connection points: 2
#     Edge 47, Type (0, 1), BuildingBlock: XIVTED_clean_linker_0, # of connection points: 2
#     Edge 48, Type (0, 1), BuildingBlock: XIVTED_clean_linker_0, # of connection points: 2
#     Edge 49, Type (0, 1), BuildingBlock: XIVTED_clean_linker_0, # of connection points: 2
#     Edge 50, Type (0, 1), BuildingBlock: XIVTED_clean_linker_0, # of connection points: 2
#     Edge 51, Type (0, 1), BuildingBlock: XIVTED_clean_linker_0, # of connection points: 2
#     Edge 52, Type (0, 1), BuildingBlock: XIVTED_clean_linker_0, # of connection points: 2
#     Edge 53, Type (0, 1), BuildingBlock: XIVTED_clean_linker_0, # of connection points: 2
#     Edge 54, Type (0, 1), BuildingBlock: XIVTED_clean_linker_0, # of connection points: 2
#     Edge 55, Type (0, 1), BuildingBlock: XIVTED_clean_linker_0, # of connection points: 2
#     Edge 56, Type (0, 1), BuildingBlock: XIVTED_clean_linker_0, # of connection points: 2
#     Edge 57, Type (0, 1), BuildingBlock: XIVTED_clean_linker_0, # of connection points: 2
#     Edge 58, Type (0, 1), BuildingBlock: XIVTED_clean_linker_0, # of connection points: 2
#     Edge 59, Type (0, 1), BuildingBlock: XIVTED_clean_linker_0, # of connection points: 2
#     Edge 60, Type (0, 1), BuildingBlock: XIVTED_clean_linker_0, # of connection points: 2
#     Edge 61, Type (0, 1), BuildingBlock: XIVTED_clean_linker_0, # of connection points: 2
#     Edge 62, Type (0, 1), BuildingBlock: XIVTED_clean_linker_0, # of connection points: 2
#     Edge 63, Type (0, 1), BuildingBlock: XIVTED_clean_linker_0, # of connection points: 2
#     Edge 64, Type (0, 1), BuildingBlock: XIVTED_clean_linker_0, # of connection points: 2
#     Edge 65, Type (0, 1), BuildingBlock: XIVTED_clean_linker_0, # of connection points: 2
#     Edge 66, Type (0, 1), BuildingBlock: XIVTED_clean_linker_0, # of connection points: 2
#     Edge 67, Type (0, 1), BuildingBlock: XIVTED_clean_linker_0, # of connection points: 2
#     Edge 68, Type (0, 1), BuildingBlock: XIVTED_clean_linker_0, # of connection points: 2
#     Edge 69, Type (0, 1), BuildingBlock: XIVTED_clean_linker_0, # of connection points: 2
#     Edge 70, Type (0, 1), BuildingBlock: XIVTED_clean_linker_0, # of connection points: 2
#     Edge 71, Type (0, 1), BuildingBlock: XIVTED_clean_linker_0, # of connection points: 2
#     Edge 72, Type (0, 1), BuildingBlock: XIVTED_clean_linker_0, # of connection points: 2
#     Edge 73, Type (0, 1), BuildingBlock: XIVTED_clean_linker_0, # of connection points: 2
#     Edge 74, Type (0, 1), BuildingBlock: XIVTED_clean_linker_0, # of connection points: 2
#     Edge 75, Type (0, 1), BuildingBlock: XIVTED_clean_linker_0, # of connection points: 2
# Relax obj value: 0.069
# Max RMSD: 0.195
# Mean RMSD: 0.113
data_MOF--net-ctn--node1-TATPOV_clean_sbu_0--node2-BETDIP_clean_linker_0--edge1-XIVTED_clean_linker_0
_symmetry_space_group_name_H-M    P1
_symmetry_Int_Tables_number       1
_symmetry_cell_setting            triclinic
loop_
_symmetry_equiv_pos_as_xyz
'x, y, z'
_cell_length_a     52.167888
_cell_length_b     52.480954
_cell_length_c     57.635904
_cell_angle_alpha  94.918568
_cell_angle_beta   94.790093
_cell_angle_gamma 94.31333
loop_
_atom_site_label
_atom_site_type_symbol
_atom_site_fract_x
_atom_site_fract_y
_atom_site_fract_z
_atom_type_partial_charge
H0 H 0.00446 0.04697 0.05096 0.0
H1 H 0.0655 0.01522 0.01539 0.0
H2 H 0.04405 0.98549 0.07877 0.0
H3 H 0.06891 0.05217 0.00047 0.0
C4 C 0.04987 0.05921 0.99914 0.0
C5 C 0.01902 0.03333 0.04989 0.0
C6 C 0.02199 0.01594 0.06703 0.0
C7 C 0.03511 0.03386 0.03163 0.0
C8 C 0.05395 0.01612 0.0301 0.0
C9 C 0.05757 0.99873 0.04712 0.0
C10 C 0.04148 0.99881 0.06558 0.0
N11 N 0.03158 0.0522 0.01498 0.0
H12 H 0.22329 0.69564 0.22774 0.0
H13 H 0.2982 0.73623 0.23392 0.0
H14 H 0.28383 0.67363 0.27576 0.0
H15 H 0.27292 0.76998 0.22744 0.0
C16 C 0.26049 0.76063 0.21258 0.0
C17 C 0.24284 0.69843 0.23602 0.0
C18 C 0.25152 0.68189 0.25243 0.0
C19 C 0.25926 0.71863 0.22999 0.0
C20 C 0.28503 0.72167 0.23971 0.0
C21 C 0.29422 0.70546 0.25618 0.0
C22 C 0.2772 0.68573 0.26257 0.0
N23 N 0.2498 0.73503 0.2134 0.0
H24 H 0.99773 0.45427 0.01014 0.0
H25 H 0.04404 0.42469 0.06447 0.0
H26 H 0.00995 0.49625 0.07819 0.0
H27 H 0.06596 0.4125 0.02928 0.0
C28 C 0.04844 0.40381 0.01926 0.0
C29 C 0.00606 0.45633 0.02812 0.0
C30 C 0.00143 0.47751 0.04338 0.0
C31 C 0.02193 0.43783 0.03552 0.0
C32 C 0.03306 0.44001 0.05864 0.0
C33 C 0.02895 0.46105 0.07439 0.0
C34 C 0.01329 0.4799 0.06641 0.0
N35 N 0.0254 0.41655 0.01953 0.0
H36 H 0.75061 0.7158 0.18226 0.0
H37 H 0.76326 0.78506 0.22841 0.0
H38 H 0.80754 0.77558 0.16923 0.0
H39 H 0.75276 0.75703 0.25513 0.0
C40 C 0.73599 0.7463 0.24552 0.0
C41 C 0.761 0.73441 0.18709 0.0
C42 C 0.7796 0.744 0.17298 0.0
C43 C 0.7556 0.74871 0.20749 0.0
C44 C 0.76834 0.77329 0.21341 0.0
C45 C 0.78704 0.78323 0.19964 0.0
C46 C 0.79259 0.76838 0.17952 0.0
N47 N 0.73664 0.73845 0.22134 0.0
H48 H 0.05604 0.97218 0.424 0.0
H49 H 0.13469 0.98263 0.45413 0.0
H50 H 0.11019 0.0255 0.39709 0.0
H51 H 0.12393 0.94941 0.47445 0.0
C52 C 0.10309 0.94771 0.47457 0.0
C53 C 0.07543 0.9813 0.42422 0.0
C54 C 0.08081 0.99943 0.40839 0.0
C55 C 0.09459 0.97488 0.4406 0.0
C56 C 0.11975 0.98669 0.44112 0.0
C57 C 0.12543 0.00501 0.42544 0.0
C58 C 0.10593 0.01116 0.409 0.0
N59 N 0.08701 0.95774 0.45703 0.0
H60 H 0.21544 0.76283 0.7994 0.0
H61 H 0.2437 0.7071 0.75105 0.0
H62 H 0.27243 0.7134 0.82341 0.0
H63 H 0.22733 0.73048 0.72371 0.0
C64 C 0.21116 0.73917 0.73095 0.0
C65 C 0.22842 0.74805 0.79599 0.0
C66 C 0.24404 0.73975 0.81448 0.0
C67 C 0.2286 0.73695 0.77303 0.0
C68 C 0.24437 0.71683 0.76842 0.0
C69 C 0.25996 0.70801 0.78662 0.0
C70 C 0.25995 0.71983 0.80949 0.0
N71 N 0.21127 0.74538 0.75546 0.0
H72 H 0.95536 0.5952 0.46659 0.0
H73 H 0.91133 0.52186 0.45579 0.0
H74 H 0.90304 0.57265 0.51659 0.0
H75 H 0.92253 0.52161 0.41964 0.0
C76 C 0.94139 0.53212 0.4209 0.0
C77 C 0.94115 0.58142 0.47217 0.0
C78 C 0.92987 0.58685 0.49314 0.0
C79 C 0.93466 0.55816 0.45847 0.0
C80 C 0.9163 0.54023 0.46575 0.0
C81 C 0.90483 0.54542 0.48664 0.0
C82 C 0.91197 0.56857 0.5005 0.0
N83 N 0.94803 0.55296 0.4383 0.0
H84 H 0.82852 0.87596 0.80822 0.0
H85 H 0.8742 0.81939 0.83609 0.0
H86 H 0.8086 0.84287 0.87063 0.0
H87 H 0.90459 0.83548 0.81487 0.0
C88 C 0.89379 0.84172 0.79976 0.0
C89 C 0.83265 0.86355 0.82192 0.0
C90 C 0.81584 0.86096 0.83949 0.0
C91 C 0.85416 0.8493 0.82101 0.0
C92 C 0.85876 0.83183 0.83778 0.0
C93 C 0.84244 0.8292 0.85588 0.0
C94 C 0.82123 0.84426 0.85673 0.0
N95 N 0.86934 0.85153 0.80182 0.0
H96 H 0.33552 0.3889 0.31374 0.0
H97 H 0.38401 0.33244 0.3382 0.0
H98 H 0.30943 0.33854 0.36363 0.0
H99 H 0.41507 0.35432 0.32152 0.0
C100 C 0.40459 0.36124 0.30657 0.0
C101 C 0.33902 0.374 0.32524 0.0
C102 C 0.3198 0.36559 0.33917 0.0
C103 C 0.36224 0.36236 0.32483 0.0
C104 C 0.36643 0.34205 0.33873 0.0
C105 C 0.34749 0.33338 0.35287 0.0
C106 C 0.32433 0.34543 0.35314 0.0
N107 N 0.37959 0.36984 0.30842 0.0
H108 H 0.49072 0.96875 0.51486 0.0
H109 H 0.52689 0.92812 0.56819 0.0
H110 H 0.51166 0.00721 0.58333 0.0
H111 H 0.52369 0.89479 0.54173 0.0
C112 C 0.51768 0.90069 0.52468 0.0
C113 C 0.49926 0.96866 0.53266 0.0
C114 C 0.49971 0.99059 0.54842 0.0
C115 C 0.50926 0.94627 0.53948 0.0
C116 C 0.51977 0.9456 0.56264 0.0
C117 C 0.52077 0.9675 0.57884 0.0
C118 C 0.51064 0.98996 0.57143 0.0
N119 N 0.50863 0.92526 0.52213 0.0
H120 H 0.25218 0.21905 0.67141 0.0
H121 H 0.2587 0.28383 0.72293 0.0
H122 H 0.30865 0.28229 0.6672 0.0
H123 H 0.24936 0.24646 0.74583 0.0
C124 C 0.232 0.24014 0.73441 0.0
C125 C 0.2614 0.23771 0.67814 0.0
C126 C 0.28159 0.24911 0.66684 0.0
C127 C 0.25365 0.24979 0.69873 0.0
C128 C 0.26549 0.27402 0.7076 0.0
C129 C 0.28518 0.2861 0.69616 0.0
C130 C 0.29325 0.27332 0.67595 0.0
N131 N 0.23324 0.23774 0.70978 0.0
H132 H 0.73021 0.19793 0.72796 0.0
H133 H 0.8049 0.23901 0.74143 0.0
H134 H 0.78461 0.17657 0.78181 0.0
H135 H 0.72149 0.2266 0.70279 0.0
C136 C 0.73905 0.23805 0.70026 0.0
C137 C 0.74875 0.20117 0.73804 0.0
C138 C 0.7551 0.18487 0.75549 0.0
C139 C 0.76671 0.22094 0.73323 0.0
C140 C 0.791 0.22417 0.7458 0.0
C141 C 0.79781 0.20815 0.7632 0.0
C142 C 0.77968 0.18861 0.76802 0.0
N143 N 0.76196 0.23748 0.71535 0.0
H144 H 0.50836 0.55516 0.55501 0.0
H145 H 0.56147 0.51712 0.5138 0.0
H146 H 0.54555 0.491 0.58017 0.0
H147 H 0.565 0.553 0.49698 0.0
C148 C 0.547 0.56195 0.49794 0.0
C149 C 0.52165 0.5404 0.55287 0.0
C150 C 0.52502 0.52305 0.56998 0.0
C151 C 0.53512 0.53889 0.53284 0.0
C152 C 0.55191 0.51935 0.52967 0.0
C153 C 0.55598 0.502 0.54668 0.0
C154 C 0.54226 0.50391 0.56673 0.0
N155 N 0.53095 0.55706 0.51616 0.0
H156 H 0.55641 0.48161 0.92382 0.0
H157 H 0.63261 0.49567 0.95831 0.0
H158 H 0.614 0.52647 0.89243 0.0
H159 H 0.62173 0.46097 0.97704 0.0
C160 C 0.60094 0.4603 0.97751 0.0
C161 C 0.5761 0.48995 0.92401 0.0
C162 C 0.58308 0.50489 0.90616 0.0
C163 C 0.59403 0.48575 0.94232 0.0
C164 C 0.61931 0.49729 0.94322 0.0
C165 C 0.62698 0.51215 0.9253 0.0
C166 C 0.60869 0.51527 0.90648 0.0
N167 N 0.58528 0.471 0.96009 0.0
H168 H 0.71405 0.26092 0.29553 0.0
H169 H 0.74155 0.20399 0.24781 0.0
H170 H 0.76986 0.21071 0.32028 0.0
H171 H 0.7195 0.22155 0.22018 0.0
C172 C 0.70658 0.23454 0.22771 0.0
C173 C 0.72672 0.24581 0.29234 0.0
C174 C 0.74207 0.2375 0.31098 0.0
C175 C 0.72663 0.2343 0.2695 0.0
C176 C 0.74206 0.21383 0.26511 0.0
C177 C 0.75741 0.205 0.28349 0.0
C178 C 0.75756 0.21717 0.30625 0.0
N179 N 0.7096 0.24314 0.25192 0.0
H180 H 0.45786 0.10701 0.97277 0.0
H181 H 0.42686 0.02831 0.96463 0.0
H182 H 0.40972 0.07801 0.0235 0.0
H183 H 0.43044 0.03358 0.92623 0.0
C184 C 0.44946 0.04383 0.92743 0.0
C185 C 0.44607 0.09148 0.97885 0.0
C186 C 0.43404 0.09545 0.99963 0.0
C187 C 0.44331 0.0675 0.96592 0.0
C188 C 0.42865 0.04715 0.97413 0.0
C189 C 0.41636 0.0508 0.99478 0.0
C190 C 0.41907 0.07505 0.00749 0.0
N191 N 0.45646 0.06401 0.9454 0.0
Zn192 Zn 0.29241 0.84025 0.01872 0.0
Zn193 Zn 0.24977 0.86515 0.01791 0.0
O194 O 0.24945 0.84646 0.0484 0.0
O195 O 0.2866 0.829 0.05026 0.0
O196 O 0.21825 0.88568 0.01873 0.0
O197 O 0.3142 0.87311 0.01693 0.0
O198 O 0.27929 0.89401 0.01855 0.0
C199 C 0.2659 0.83376 0.0591 0.0
C200 C 0.25744 0.82399 0.97813 0.0
O201 O 0.24455 0.84188 0.98642 0.0
O202 O 0.278 0.81868 0.98931 0.0
C203 C 0.19741 0.87827 0.02708 0.0
O204 O 0.19514 0.85543 0.03477 0.0
C205 C 0.30366 0.89407 0.01773 0.0
Zn206 Zn 0.09452 0.43122 0.28588 0.0
Zn207 Zn 0.11893 0.47928 0.28888 0.0
O208 O 0.09113 0.48492 0.31121 0.0
O209 O 0.06969 0.44674 0.30769 0.0
O210 O 0.13969 0.5132 0.28958 0.0
O211 O 0.12743 0.41733 0.29906 0.0
O212 O 0.14669 0.45616 0.29964 0.0
C213 C 0.0725 0.46994 0.31636 0.0
C214 C 0.09326 0.45356 0.24195 0.0
O215 O 0.10434 0.47293 0.25468 0.0
O216 O 0.08794 0.43268 0.25071 0.0
C217 C 0.13028 0.5336 0.28374 0.0
O218 O 0.10535 0.53328 0.27793 0.0
C219 C 0.14761 0.4326 0.30313 0.0
Zn220 Zn 0.85468 0.62039 0.93816 0.0
Zn221 Zn 0.84427 0.63978 0.98069 0.0
O222 O 0.87485 0.61862 0.98902 0.0
O223 O 0.88062 0.5996 0.95448 0.0
O224 O 0.83593 0.65697 0.01145 0.0
O225 O 0.86509 0.65573 0.92896 0.0
O226 O 0.85098 0.67092 0.9619 0.0
C227 C 0.88629 0.60271 0.97641 0.0
C228 C 0.803 0.60597 0.94902 0.0
O229 O 0.81125 0.6172 0.969 0.0
O230 O 0.81719 0.60595 0.93221 0.0
C231 C 0.8283 0.64502 0.02821 0.0
O232 O 0.82613 0.61981 0.02605 0.0
C233 C 0.85977 0.67459 0.94239 0.0
Zn234 Zn 0.87355 0.00522 0.2861 0.0
Zn235 Zn 0.89655 0.01299 0.24897 0.0
O236 O 0.87193 0.04304 0.25068 0.0
O237 O 0.85079 0.03317 0.2806 0.0
O238 O 0.91697 0.01767 0.22082 0.0
O239 O 0.90575 0.01262 0.30744 0.0
O240 O 0.92627 0.016 0.27591 0.0
C241 C 0.85445 0.04754 0.26446 0.0
C242 C 0.86588 0.9611 0.25396 0.0
O243 O 0.87819 0.97591 0.24145 0.0
O244 O 0.86181 0.96909 0.27454 0.0
C245 C 0.90751 0.01457 0.1996 0.0
O246 O 0.88254 0.00895 0.19494 0.0
C247 C 0.92666 0.01603 0.29809 0.0
Zn248 Zn 0.35212 0.11625 0.43301 0.0
Zn249 Zn 0.33836 0.13981 0.47336 0.0
O250 O 0.36996 0.12119 0.48431 0.0
O251 O 0.38274 0.10401 0.45146 0.0
O252 O 0.3269 0.15633 0.50318 0.0
O253 O 0.35517 0.15114 0.42039 0.0
O254 O 0.34546 0.17003 0.45377 0.0
C255 C 0.38574 0.10821 0.47353 0.0
C256 C 0.30118 0.09906 0.4435 0.0
O257 O 0.30651 0.11608 0.46068 0.0
O258 O 0.31774 0.09456 0.42913 0.0
C259 C 0.34269 0.16822 0.51917 0.0
O260 O 0.36743 0.17016 0.51617 0.0
C261 C 0.35159 0.17137 0.43293 0.0
Zn262 Zn 0.37442 0.50636 0.78725 0.0
Zn263 Zn 0.39538 0.51428 0.7488 0.0
O264 O 0.37151 0.54477 0.75186 0.0
O265 O 0.35179 0.53465 0.78253 0.0
O266 O 0.41209 0.51667 0.71831 0.0
O267 O 0.40822 0.51408 0.80627 0.0
O268 O 0.42705 0.51757 0.77379 0.0
C269 C 0.35479 0.54922 0.76641 0.0
C270 C 0.36421 0.46271 0.75565 0.0
O271 O 0.37603 0.47769 0.74299 0.0
O272 O 0.36142 0.4702 0.77665 0.0
C273 C 0.42751 0.53519 0.71381 0.0
O274 O 0.4325 0.55525 0.72924 0.0
C275 C 0.4285 0.51773 0.79602 0.0
Zn276 Zn 0.7856 0.33807 0.51692 0.0
Zn277 Zn 0.74073 0.35981 0.51476 0.0
O278 O 0.74065 0.34063 0.54513 0.0
O279 O 0.77851 0.32457 0.54718 0.0
O280 O 0.70846 0.37937 0.51478 0.0
O281 O 0.80592 0.37224 0.51763 0.0
O282 O 0.76891 0.38988 0.5154 0.0
C283 C 0.75735 0.32808 0.55571 0.0
C284 C 0.75228 0.32052 0.4751 0.0
O285 O 0.73734 0.33654 0.48338 0.0
O286 O 0.77349 0.31729 0.48641 0.0
C287 C 0.68861 0.37381 0.52538 0.0
O288 O 0.68737 0.35289 0.53635 0.0
C289 C 0.79351 0.39198 0.51666 0.0
Zn290 Zn 0.59408 0.93506 0.78871 0.0
Zn291 Zn 0.61946 0.98247 0.79042 0.0
O292 O 0.59258 0.98927 0.81352 0.0
O293 O 0.57038 0.95154 0.81095 0.0
O294 O 0.64081 0.01597 0.79026 0.0
O295 O 0.62682 0.92062 0.80145 0.0
O296 O 0.64697 0.95889 0.80088 0.0
C297 C 0.5739 0.97482 0.81932 0.0
C298 C 0.59173 0.95636 0.74436 0.0
O299 O 0.60368 0.97569 0.75655 0.0
O300 O 0.58629 0.93582 0.75361 0.0
C301 C 0.63213 0.03599 0.78274 0.0
O302 O 0.60754 0.03563 0.77548 0.0
C303 C 0.64738 0.9354 0.8048 0.0
Zn304 Zn 0.03316 0.26878 0.83064 0.0
Zn305 Zn 0.03389 0.22594 0.85191 0.0
O306 O 0.06328 0.22336 0.82959 0.0
O307 O 0.05844 0.25625 0.80876 0.0
O308 O 0.03575 0.19449 0.86987 0.0
O309 O 0.04587 0.29015 0.86081 0.0
O310 O 0.04048 0.25494 0.87864 0.0
C311 C 0.06973 0.23643 0.81299 0.0
C312 C 0.98377 0.23945 0.8259 0.0
O313 O 0.99642 0.22309 0.83616 0.0
O314 O 0.99497 0.26081 0.82228 0.0
C315 C 0.01982 0.19061 0.88501 0.0
O316 O 0.00178 0.2065 0.88777 0.0
C317 C 0.04582 0.2791 0.87948 0.0
Zn318 Zn 0.52568 0.77252 0.32995 0.0
Zn319 Zn 0.52786 0.73041 0.35184 0.0
O320 O 0.56044 0.7308 0.33299 0.0
O321 O 0.55942 0.76737 0.31691 0.0
O322 O 0.5306 0.69909 0.36993 0.0
O323 O 0.52549 0.79425 0.36012 0.0
O324 O 0.52882 0.75959 0.3787 0.0
C325 C 0.57046 0.74728 0.32061 0.0
C326 C 0.48082 0.73748 0.3177 0.0
O327 O 0.49214 0.72421 0.3324 0.0
O328 O 0.4918 0.75848 0.3129 0.0
C329 C 0.51536 0.6949 0.38556 0.0
O330 O 0.4972 0.7105 0.38898 0.0
C331 C 0.52731 0.78377 0.37908 0.0
Zn332 Zn 0.9649 0.81302 0.59457 0.0
Zn333 Zn 0.0086 0.79752 0.61511 0.0
O334 O 0.02231 0.82565 0.59528 0.0
O335 O 0.98653 0.83985 0.58014 0.0
O336 O 0.04044 0.78745 0.63307 0.0
O337 O 0.95133 0.82127 0.62594 0.0
O338 O 0.98759 0.80922 0.64212 0.0
C339 C 0.01096 0.84092 0.58261 0.0
C340 C 0.97295 0.7598 0.58143 0.0
O341 O 0.99312 0.76441 0.5957 0.0
O342 O 0.95809 0.77734 0.57776 0.0
C343 C 0.06011 0.77913 0.62431 0.0
O344 O 0.0605 0.77627 0.60148 0.0
C345 C 0.96561 0.81782 0.64408 0.0
Zn346 Zn 0.46363 0.3232 0.09793 0.0
Zn347 Zn 0.50837 0.30873 0.11788 0.0
O348 O 0.52092 0.33605 0.09682 0.0
O349 O 0.48454 0.34893 0.08152 0.0
O350 O 0.54108 0.29874 0.13453 0.0
O351 O 0.4522 0.33335 0.12988 0.0
O352 O 0.48901 0.32191 0.14552 0.0
C353 C 0.509 0.35044 0.08362 0.0
C354 C 0.47111 0.26966 0.0866 0.0
O355 O 0.49188 0.27514 0.09995 0.0
O356 O 0.45587 0.28683 0.08276 0.0
C357 C 0.55701 0.28477 0.1252 0.0
O358 O 0.55252 0.27608 0.10305 0.0
C359 C 0.46724 0.33087 0.14781 0.0
H360 H 0.24752 0.71588 0.85522 0.0
H361 H 0.23045 0.84114 0.94026 0.0
H362 H 0.23812 0.79008 0.82995 0.0
H363 H 0.26819 0.77589 0.9626 0.0
H364 H 0.22437 0.81999 0.90017 0.0
H365 H 0.24718 0.73533 0.89516 0.0
C366 C 0.24554 0.73628 0.85798 0.0
C367 C 0.24317 0.75134 0.839 0.0
C368 C 0.23374 0.81026 0.91395 0.0
C369 C 0.242 0.77361 0.88492 0.0
C370 C 0.237 0.8222 0.93682 0.0
C371 C 0.24996 0.8103 0.95473 0.0
C372 C 0.24313 0.78612 0.90913 0.0
C373 C 0.25827 0.78584 0.94928 0.0
C374 C 0.24512 0.74732 0.88084 0.0
C375 C 0.23981 0.77757 0.84388 0.0
N376 N 0.25475 0.7746 0.92701 0.0
N377 N 0.23936 0.78786 0.86633 0.0
H378 H 0.93614 0.49023 0.38943 0.0
H379 H 0.07444 0.51698 0.34157 0.0
H380 H 0.98963 0.55495 0.41578 0.0
H381 H 0.02731 0.44527 0.32661 0.0
H382 H 0.04234 0.53283 0.36661 0.0
H383 H 0.96798 0.47517 0.36369 0.0
C384 C 0.95457 0.5013 0.38969 0.0
C385 C 0.96031 0.52377 0.40474 0.0
C386 C 0.03908 0.51361 0.35787 0.0
C387 C 0.99681 0.50675 0.37545 0.0
C388 C 0.05738 0.50455 0.34356 0.0
C389 C 0.05361 0.47972 0.33199 0.0
C390 C 0.01674 0.49782 0.36048 0.0
C391 C 0.03111 0.46449 0.33523 0.0
C392 C 0.97276 0.49267 0.37509 0.0
C393 C 0.98444 0.53745 0.40448 0.0
N394 N 0.01351 0.47381 0.3491 0.0
N395 N 0.00182 0.52872 0.39004 0.0
H396 H 0.80582 0.80068 0.87689 0.0
H397 H 0.89235 0.69397 0.91227 0.0
H398 H 0.88837 0.81204 0.87344 0.0
H399 H 0.82996 0.71368 0.95326 0.0
H400 H 0.89028 0.73485 0.89475 0.0
H401 H 0.81273 0.76656 0.90219 0.0
C402 C 0.82545 0.79646 0.88167 0.0
C403 C 0.84653 0.80947 0.87276 0.0
C404 C 0.87736 0.73034 0.90786 0.0
C405 C 0.85429 0.76949 0.90112 0.0
C406 C 0.87847 0.70706 0.91779 0.0
C407 C 0.86126 0.70048 0.93417 0.0
C408 C 0.85841 0.7467 0.91386 0.0
C409 C 0.84363 0.7181 0.94075 0.0
C410 C 0.8293 0.77679 0.89605 0.0
C411 C 0.8714 0.80228 0.87927 0.0
N412 N 0.8423 0.74022 0.93022 0.0
N413 N 0.87456 0.7825 0.89273 0.0
H414 H 0.0333 0.01237 0.41865 0.0
H415 H 0.97631 0.01257 0.28549 0.0
H416 H 0.08043 0.00289 0.36102 0.0
H417 H 0.93294 0.02557 0.3454 0.0
H418 H 0.01567 0.01253 0.31212 0.0
H419 H 0.99728 0.0207 0.39149 0.0
C420 C 0.03603 0.0121 0.40021 0.0
C421 C 0.05972 0.00662 0.392 0.0
C422 C 0.99754 0.01563 0.31935 0.0
C423 C 0.01848 0.0161 0.36061 0.0
C424 C 0.97511 0.01572 0.30418 0.0
C425 C 0.95124 0.01875 0.31324 0.0
C426 C 0.99598 0.01865 0.34366 0.0
C427 C 0.9508 0.02279 0.33758 0.0
C428 C 0.01549 0.01695 0.38467 0.0
C429 C 0.0624 0.007 0.36799 0.0
N430 N 0.97273 0.02244 0.35187 0.0
N431 N 0.04189 0.01136 0.35304 0.0
H432 H 0.33144 0.24539 0.65629 0.0
H433 H 0.29277 0.16824 0.53074 0.0
H434 H 0.2527 0.2227 0.62903 0.0
H435 H 0.37111 0.19387 0.55738 0.0
H436 H 0.27771 0.18692 0.56694 0.0
H437 H 0.34628 0.22542 0.62059 0.0
C438 C 0.31725 0.23627 0.64274 0.0
C439 C 0.29076 0.23591 0.6456 0.0
C440 C 0.29819 0.18844 0.56488 0.0
C441 C 0.30767 0.21272 0.60466 0.0
C442 C 0.30682 0.17779 0.54419 0.0
C443 C 0.33327 0.17951 0.54098 0.0
C444 C 0.31612 0.2009 0.58253 0.0
C445 C 0.35056 0.1921 0.55905 0.0
C446 C 0.32575 0.22476 0.62239 0.0
C447 C 0.2733 0.22331 0.62765 0.0
N448 N 0.34167 0.20231 0.57902 0.0
N449 N 0.28206 0.21231 0.60791 0.0
H450 H 0.51732 0.56657 0.59759 0.0
H451 H 0.42745 0.49368 0.6814 0.0
H452 H 0.50003 0.48445 0.59095 0.0
H453 H 0.45826 0.57257 0.69652 0.0
H454 H 0.451 0.49067 0.64644 0.0
H455 H 0.49304 0.5698 0.63212 0.0
C456 C 0.50833 0.54921 0.60334 0.0
C457 C 0.5107 0.52519 0.5913 0.0
C458 C 0.4526 0.50865 0.6574 0.0
C459 C 0.48285 0.52876 0.63093 0.0
C460 C 0.43906 0.51043 0.67733 0.0
C461 C 0.44086 0.53343 0.692 0.0
C462 C 0.46795 0.53007 0.65189 0.0
C463 C 0.45631 0.55444 0.6858 0.0
C464 C 0.49458 0.55106 0.62314 0.0
C465 C 0.49891 0.50333 0.59979 0.0
N466 N 0.46919 0.55226 0.66623 0.0
N467 N 0.48542 0.50565 0.61898 0.0
H468 H 0.69992 0.24333 0.66663 0.0
H469 H 0.79391 0.31845 0.58914 0.0
H470 H 0.77951 0.26907 0.68834 0.0
H471 H 0.71123 0.31428 0.57371 0.0
H472 H 0.78803 0.29896 0.62516 0.0
H473 H 0.70244 0.26791 0.63219 0.0
C474 C 0.71781 0.25426 0.66423 0.0
C475 C 0.73957 0.25396 0.68024 0.0
C476 C 0.77106 0.30239 0.61407 0.0
C477 C 0.74261 0.28185 0.64113 0.0
C478 C 0.77442 0.31346 0.59339 0.0
C479 C 0.75302 0.31784 0.57831 0.0
C480 C 0.74608 0.29519 0.61978 0.0
C481 C 0.72824 0.31121 0.58489 0.0
C482 C 0.71921 0.26829 0.64467 0.0
C483 C 0.76226 0.26848 0.67643 0.0
N484 N 0.72541 0.2999 0.60509 0.0
N485 N 0.7632 0.28163 0.65724 0.0
H486 H 0.50691 0.99303 0.61923 0.0
H487 H 0.58566 0.91802 0.70868 0.0
H488 H 0.56102 0.94045 0.59491 0.0
H489 H 0.578 0.9989 0.72391 0.0
H490 H 0.56961 0.92143 0.66785 0.0
H491 H 0.52607 0.99149 0.65914 0.0
C492 C 0.5229 0.98133 0.62208 0.0
C493 C 0.53225 0.96685 0.60338 0.0
C494 C 0.57161 0.93839 0.68018 0.0
C495 C 0.55346 0.96434 0.6493 0.0
C496 C 0.58063 0.93647 0.7034 0.0
C497 C 0.58318 0.95824 0.71958 0.0
C498 C 0.56438 0.96205 0.67338 0.0
C499 C 0.57646 0.98171 0.71189 0.0
C500 C 0.53367 0.98038 0.64494 0.0
C501 C 0.55261 0.9515 0.6086 0.0
N502 N 0.56701 0.98295 0.68936 0.0
N503 N 0.56233 0.95044 0.63109 0.0
H504 H 0.82997 0.17116 0.77529 0.0
H505 H 0.95036 0.27361 0.81174 0.0
H506 H 0.82578 0.25323 0.77961 0.0
H507 H 0.95336 0.19363 0.82329 0.0
H508 H 0.90473 0.26557 0.79905 0.0
H509 H 0.87479 0.17802 0.79269 0.0
C510 C 0.83833 0.1906 0.78016 0.0
C511 C 0.82414 0.21167 0.77572 0.0
C512 C 0.91524 0.24972 0.80442 0.0
C513 C 0.87545 0.2196 0.79526 0.0
C514 C 0.94143 0.25427 0.81159 0.0
C515 C 0.95583 0.23423 0.8185 0.0
C516 C 0.90315 0.22485 0.80386 0.0
C517 C 0.94301 0.20964 0.81808 0.0
C518 C 0.86395 0.19448 0.78997 0.0
C519 C 0.83609 0.23641 0.78221 0.0
N520 N 0.91738 0.20558 0.81071 0.0
N521 N 0.86103 0.23966 0.79145 0.0
H522 H 0.50695 0.90981 0.47898 0.0
H523 H 0.53168 0.76951 0.42423 0.0
H524 H 0.53116 0.85116 0.52216 0.0
H525 H 0.52175 0.83499 0.38477 0.0
H526 H 0.52949 0.79738 0.46045 0.0
H527 H 0.50967 0.88079 0.4444 0.0
C528 C 0.51282 0.89075 0.48124 0.0
C529 C 0.51887 0.88287 0.50354 0.0
C530 C 0.52789 0.80554 0.44382 0.0
C531 C 0.5221 0.84934 0.4637 0.0
C532 C 0.52913 0.78968 0.42317 0.0
C533 C 0.52688 0.7999 0.4014 0.0
C534 C 0.52419 0.83166 0.44257 0.0
C535 C 0.52357 0.82616 0.40107 0.0
C536 C 0.51444 0.87415 0.46139 0.0
C537 C 0.52636 0.85792 0.50523 0.0
N538 N 0.52226 0.84102 0.42127 0.0
N539 N 0.52776 0.84194 0.48553 0.0
H540 H 0.22605 0.23379 0.77993 0.0
H541 H 0.07586 0.24502 0.76786 0.0
H542 H 0.18257 0.23303 0.71284 0.0
H543 H 0.11362 0.21425 0.82748 0.0
H544 H 0.11474 0.24099 0.74742 0.0
H545 H 0.18548 0.22715 0.79809 0.0
C546 C 0.20794 0.23197 0.76902 0.0
C547 C 0.20761 0.23402 0.74491 0.0
C548 C 0.11443 0.23474 0.76483 0.0
C549 C 0.16124 0.22678 0.76551 0.0
C550 C 0.09226 0.23706 0.77652 0.0
C551 C 0.09159 0.23004 0.79942 0.0
C552 C 0.13637 0.22592 0.77632 0.0
C553 C 0.11334 0.21979 0.8098 0.0
C554 C 0.18484 0.22809 0.77936 0.0
C555 C 0.1837 0.23154 0.73151 0.0
N556 N 0.13506 0.21846 0.79832 0.0
N557 N 0.16144 0.2284 0.74204 0.0
H558 H 0.50551 0.59163 0.49504 0.0
H559 H 0.55273 0.66073 0.38529 0.0
H560 H 0.57437 0.5749 0.46213 0.0
H561 H 0.48638 0.68099 0.4207 0.0
H562 H 0.55954 0.62756 0.41194 0.0
H563 H 0.49685 0.62294 0.4668 0.0
C564 C 0.51878 0.5945 0.48185 0.0
C565 C 0.54076 0.58071 0.48094 0.0
C566 C 0.54344 0.63921 0.41384 0.0
C567 C 0.53096 0.61647 0.44854 0.0
C568 C 0.5395 0.65814 0.39858 0.0
C569 C 0.51899 0.67377 0.40077 0.0
C570 C 0.52675 0.6358 0.43146 0.0
C571 C 0.50249 0.66947 0.41836 0.0
C572 C 0.51384 0.61239 0.46572 0.0
C573 C 0.55725 0.58519 0.46345 0.0
N574 N 0.50677 0.65096 0.43304 0.0
N575 N 0.55205 0.60268 0.44797 0.0
H576 H 0.87293 0.85542 0.75771 0.0
H577 H 0.98969 0.81011 0.6868 0.0
H578 H 0.93988 0.82433 0.79001 0.0
H579 H 0.92039 0.8374 0.65474 0.0
H580 H 0.97309 0.81734 0.72504 0.0
H581 H 0.89131 0.8511 0.72018 0.0
C582 C 0.89157 0.84776 0.75693 0.0
C583 C 0.90494 0.84015 0.77698 0.0
C584 C 0.96156 0.82181 0.70964 0.0
C585 C 0.92608 0.83509 0.73399 0.0
C586 C 0.97104 0.81772 0.68779 0.0
C587 C 0.95638 0.82307 0.66748 0.0
C588 C 0.93726 0.83135 0.71123 0.0
C589 C 0.93235 0.83291 0.66987 0.0
C590 C 0.90206 0.84527 0.73546 0.0
C591 C 0.92899 0.83038 0.77491 0.0
N592 N 0.92354 0.83667 0.69132 0.0
N593 N 0.9388 0.82806 0.75376 0.0
H594 H 0.12629 0.9191 0.50657 0.0
H595 H 0.99272 0.879 0.55823 0.0
H596 H 0.05226 0.94405 0.48331 0.0
H597 H 0.06312 0.84437 0.57709 0.0
H598 H 0.01612 0.90645 0.53395 0.0
H599 H 0.10524 0.89461 0.53534 0.0
C600 C 0.10567 0.91946 0.50757 0.0
C601 C 0.09099 0.9334 0.49242 0.0
C602 C 0.02657 0.89294 0.54342 0.0
C603 C 0.06692 0.9058 0.52519 0.0
C604 C 0.01318 0.87723 0.55737 0.0
C605 C 0.0259 0.85914 0.56959 0.0
C606 C 0.05295 0.89062 0.54148 0.0
C607 C 0.05252 0.85799 0.56791 0.0
C608 C 0.0937 0.90552 0.52394 0.0
C609 C 0.06438 0.93339 0.49444 0.0
N610 N 0.06517 0.8734 0.55395 0.0
N611 N 0.05326 0.9198 0.51046 0.0
H612 H 0.2059 0.73165 0.68341 0.0
H613 H 0.06564 0.78445 0.67208 0.0
H614 H 0.16669 0.76047 0.742 0.0
H615 H 0.10543 0.76017 0.6123 0.0
H616 H 0.10243 0.77491 0.69778 0.0
H617 H 0.16931 0.74123 0.65687 0.0
C618 C 0.18961 0.74004 0.69065 0.0
C619 C 0.18933 0.7453 0.71488 0.0
C620 C 0.10318 0.77166 0.67905 0.0
C621 C 0.14748 0.75621 0.68478 0.0
C622 C 0.08212 0.77709 0.66432 0.0
C623 C 0.08241 0.77312 0.63995 0.0
C624 C 0.1248 0.76212 0.66943 0.0
C625 C 0.10436 0.76353 0.63097 0.0
C626 C 0.16876 0.74549 0.67553 0.0
C627 C 0.16778 0.75612 0.72342 0.0
N628 N 0.12468 0.75834 0.64572 0.0
N629 N 0.14774 0.76117 0.70839 0.0
H630 H 0.94556 0.59625 0.53988 0.0
H631 H 0.94141 0.74747 0.54133 0.0
H632 H 0.92895 0.63429 0.47759 0.0
H633 H 0.99034 0.71373 0.59241 0.0
H634 H 0.93106 0.70515 0.52021 0.0
H635 H 0.95667 0.6384 0.56201 0.0
C636 C 0.94418 0.61349 0.53094 0.0
C637 C 0.93642 0.61192 0.50693 0.0
C638 C 0.94409 0.70701 0.53602 0.0
C639 C 0.94876 0.65983 0.53198 0.0
C640 C 0.94994 0.73113 0.54815 0.0
C641 C 0.96679 0.73413 0.56866 0.0
C642 C 0.95481 0.68559 0.54463 0.0
C643 C 0.97735 0.71227 0.57661 0.0
C644 C 0.95065 0.63743 0.54349 0.0
C645 C 0.93505 0.63474 0.49606 0.0
N646 N 0.97103 0.68882 0.56465 0.0
N647 N 0.94099 0.65776 0.50869 0.0
H648 H 0.80061 0.82098 0.17137 0.0
H649 H 0.84967 0.92298 0.27961 0.0
H650 H 0.80508 0.80431 0.24359 0.0
H651 H 0.86035 0.93824 0.20847 0.0
H652 H 0.83243 0.87965 0.26589 0.0
H653 H 0.82192 0.86385 0.18368 0.0
C654 C 0.80624 0.82622 0.18978 0.0
C655 C 0.8008 0.80902 0.20649 0.0
C656 C 0.8386 0.89233 0.25319 0.0
C657 C 0.82491 0.85811 0.22065 0.0
C658 C 0.84841 0.91722 0.26102 0.0
C659 C 0.85637 0.93441 0.24515 0.0
C660 C 0.83641 0.88435 0.2292 0.0
C661 C 0.85443 0.92562 0.2213 0.0
C662 C 0.81831 0.85073 0.19677 0.0
C663 C 0.80833 0.81701 0.2301 0.0
N664 N 0.84445 0.9012 0.21399 0.0
N665 N 0.81985 0.84093 0.23643 0.0
H666 H 0.75885 0.16399 0.30926 0.0
H667 H 0.86159 0.09032 0.23963 0.0
H668 H 0.78844 0.19319 0.24817 0.0
H669 H 0.81183 0.05628 0.28683 0.0
H670 H 0.83761 0.1291 0.24265 0.0
H671 H 0.78169 0.12569 0.30246 0.0
C672 C 0.77035 0.16241 0.29448 0.0
C673 C 0.77185 0.18189 0.27935 0.0
C674 C 0.83193 0.11296 0.25214 0.0
C675 C 0.79801 0.13772 0.27121 0.0
C676 C 0.84552 0.09083 0.25036 0.0
C677 C 0.83894 0.07008 0.26319 0.0
C678 C 0.81184 0.11424 0.26695 0.0
C679 C 0.81794 0.07184 0.27684 0.0
C680 C 0.78324 0.1404 0.29045 0.0
C681 C 0.78672 0.17854 0.2602 0.0
N682 N 0.80539 0.09349 0.27849 0.0
N683 N 0.79938 0.15691 0.25672 0.0
H684 H 0.43065 0.00268 0.99995 0.0
H685 H 0.28869 0.9434 0.01783 0.0
H686 H 0.36665 0.04927 0.00718 0.0
H687 H 0.35595 0.90023 0.01699 0.0
H688 H 0.31655 0.98281 0.01572 0.0
H689 H 0.40344 0.96536 0.00832 0.0
C690 C 0.41085 0.00502 0.00349 0.0
C691 C 0.40078 0.02898 0.0027 0.0
C692 C 0.32516 0.96469 0.01615 0.0
C693 C 0.36932 0.98628 0.01211 0.0
C694 C 0.30927 0.9422 0.01731 0.0
C695 C 0.31994 0.91841 0.01741 0.0
C696 C 0.35184 0.96333 0.01503 0.0
C697 C 0.34676 0.91804 0.01679 0.0
C698 C 0.39529 0.98373 0.00829 0.0
C699 C 0.3751 0.03109 0.00768 0.0
N700 N 0.36169 0.94008 0.01552 0.0
N701 N 0.36011 0.00991 0.01192 0.0
H702 H 0.3097 0.41603 0.33781 0.0
H703 H 0.157 0.38354 0.31222 0.0
H704 H 0.27179 0.33983 0.33625 0.0
H705 H 0.19489 0.45965 0.31261 0.0
H706 H 0.19856 0.36772 0.32383 0.0
H707 H 0.26751 0.43291 0.33138 0.0
C708 C 0.29249 0.40287 0.33623 0.0
C709 C 0.29431 0.37647 0.3375 0.0
C710 C 0.19777 0.38791 0.32148 0.0
C711 C 0.24593 0.39564 0.33015 0.0
C712 C 0.17403 0.39697 0.31484 0.0
C713 C 0.17244 0.42295 0.31128 0.0
C714 C 0.22016 0.40492 0.32455 0.0
C715 C 0.19518 0.43944 0.31504 0.0
C716 C 0.26841 0.41252 0.33262 0.0
C717 C 0.27134 0.36035 0.33564 0.0
N718 N 0.21809 0.43012 0.32136 0.0
N719 N 0.24814 0.37017 0.33191 0.0
H720 H 0.13718 0.05667 0.43085 0.0
H721 H 0.28746 0.05205 0.41944 0.0
H722 H 0.17223 0.98488 0.42427 0.0
H723 H 0.25647 0.11346 0.46018 0.0
H724 H 0.24452 0.02868 0.41455 0.0
H725 H 0.18025 0.07965 0.43495 0.0
C726 C 0.154 0.04581 0.4301 0.0
C727 C 0.15131 0.01893 0.42721 0.0
C728 C 0.24722 0.04726 0.42457 0.0
C729 C 0.20036 0.04493 0.43171 0.0
C730 C 0.27162 0.06064 0.42728 0.0
C731 C 0.2755 0.08469 0.44027 0.0
C732 C 0.22653 0.05831 0.43447 0.0
C733 C 0.25435 0.0949 0.45014 0.0
C734 C 0.17848 0.05887 0.43258 0.0
C735 C 0.17362 0.00565 0.42656 0.0
N736 N 0.2307 0.08175 0.44688 0.0
N737 N 0.1973 0.01881 0.42864 0.0
H738 H 0.70243 0.18494 0.75662 0.0
H739 H 0.68463 0.04091 0.79184 0.0
H740 H 0.76492 0.13611 0.76536 0.0
H741 H 0.62063 0.08283 0.76859 0.0
H742 H 0.71427 0.07754 0.78613 0.0
H743 H 0.67212 0.14937 0.76421 0.0
C744 C 0.7098 0.16675 0.76003 0.0
C745 C 0.73634 0.16359 0.76034 0.0
C746 C 0.69374 0.07877 0.78231 0.0
C747 C 0.70175 0.12294 0.76942 0.0
C748 C 0.67676 0.05788 0.78564 0.0
C749 C 0.65007 0.05873 0.78059 0.0
C750 C 0.68403 0.10082 0.77396 0.0
C751 C 0.64106 0.08128 0.77263 0.0
C752 C 0.69248 0.1465 0.76449 0.0
C753 C 0.74474 0.13966 0.76529 0.0
N754 N 0.65801 0.10144 0.76953 0.0
N755 N 0.72753 0.12031 0.76963 0.0
H756 H 0.46687 0.02049 0.57111 0.0
H757 H 0.42785 0.08829 0.45634 0.0
H758 H 0.50556 0.01296 0.50789 0.0
H759 H 0.39157 0.10148 0.52043 0.0
H760 H 0.45971 0.06468 0.47678 0.0
H761 H 0.44267 0.05424 0.55502 0.0
C762 C 0.47062 0.02628 0.55403 0.0
C763 C 0.48794 0.01365 0.54065 0.0
C764 C 0.44496 0.07291 0.4865 0.0
C765 C 0.46017 0.05191 0.52205 0.0
C766 C 0.4267 0.08639 0.4748 0.0
C767 C 0.40679 0.09659 0.48661 0.0
C768 C 0.44321 0.06925 0.51019 0.0
C769 C 0.40651 0.09379 0.51061 0.0
C770 C 0.4567 0.04543 0.54481 0.0
C771 C 0.49197 0.02182 0.51859 0.0
N772 N 0.42424 0.08006 0.52156 0.0
N773 N 0.478 0.0402 0.5099 0.0
H774 H 0.55249 0.45168 0.55754 0.0
H775 H 0.68725 0.42092 0.50829 0.0
H776 H 0.60298 0.5073 0.52866 0.0
H777 H 0.64329 0.3682 0.54629 0.0
H778 H 0.6547 0.45155 0.5131 0.0
H779 H 0.584 0.41991 0.55175 0.0
C780 C 0.5702 0.45729 0.55009 0.0
C781 C 0.57494 0.48228 0.54351 0.0
C782 C 0.65211 0.43326 0.52035 0.0
C783 C 0.61098 0.4458 0.53653 0.0
C784 C 0.67068 0.41569 0.51753 0.0
C785 C 0.6681 0.39191 0.52694 0.0
C786 C 0.63064 0.42709 0.53262 0.0
C787 C 0.64615 0.3863 0.53877 0.0
C788 C 0.58813 0.43907 0.54666 0.0
C789 C 0.59817 0.48822 0.53363 0.0
N790 N 0.62831 0.40375 0.5413 0.0
N791 N 0.61522 0.47017 0.53043 0.0
H792 H 0.73658 0.28814 0.32568 0.0
H793 H 0.7663 0.27339 0.46045 0.0
H794 H 0.74552 0.21447 0.35224 0.0
H795 H 0.72515 0.33584 0.43645 0.0
H796 H 0.76137 0.25243 0.42064 0.0
H797 H 0.73495 0.30713 0.3657 0.0
C798 C 0.738 0.27584 0.33981 0.0
C799 C 0.74129 0.24954 0.33536 0.0
C800 C 0.75314 0.27057 0.42409 0.0
C801 C 0.73996 0.27149 0.38138 0.0
C802 C 0.75595 0.28256 0.4468 0.0
C803 C 0.74612 0.3064 0.45173 0.0
C804 C 0.74092 0.28275 0.40599 0.0
C805 C 0.73287 0.3174 0.4334 0.0
C806 C 0.73712 0.28678 0.36268 0.0
C807 C 0.74354 0.23487 0.35464 0.0
N808 N 0.73099 0.30566 0.41122 0.0
N809 N 0.74303 0.24607 0.37674 0.0
H810 H 0.49823 0.0656 0.92234 0.0
H811 H 0.52865 0.95134 0.83057 0.0
H812 H 0.44288 0.00262 0.89539 0.0
H813 H 0.5776 0.02203 0.84459 0.0
H814 H 0.49839 0.96886 0.85642 0.0
H815 H 0.52881 0.04922 0.89581 0.0
C816 C 0.49249 0.04838 0.91078 0.0
C817 C 0.46803 0.03535 0.91101 0.0
C818 C 0.51573 0.98058 0.85384 0.0
C819 C 0.50288 0.01648 0.88087 0.0
C820 C 0.5331 0.97054 0.83913 0.0
C821 C 0.55575 0.98523 0.83539 0.0
C822 C 0.52104 0.00544 0.86508 0.0
C823 C 0.56038 0.01003 0.84694 0.0
C824 C 0.50993 0.03907 0.89565 0.0
C825 C 0.46157 0.01319 0.8957 0.0
N826 N 0.5432 0.01935 0.86134 0.0
N827 N 0.47893 0.00437 0.88133 0.0
H828 H 0.36708 0.28859 0.33777 0.0
H829 H 0.34043 0.21847 0.45248 0.0
H830 H 0.3355 0.32574 0.39747 0.0
H831 H 0.36734 0.18135 0.39033 0.0
H832 H 0.34167 0.25893 0.4342 0.0
H833 H 0.37072 0.25027 0.35844 0.0
C834 C 0.36121 0.28883 0.35537 0.0
C835 C 0.351 0.31047 0.36591 0.0
C836 C 0.3474 0.24194 0.42464 0.0
C837 C 0.35469 0.26632 0.3896 0.0
C838 C 0.34675 0.21884 0.43507 0.0
C839 C 0.35364 0.19641 0.42288 0.0
C840 C 0.35506 0.24261 0.40188 0.0
C841 C 0.3617 0.19807 0.40037 0.0
C842 C 0.36311 0.26682 0.36712 0.0
C843 C 0.34323 0.3094 0.38859 0.0
N844 N 0.3621 0.22071 0.39061 0.0
N845 N 0.34517 0.28766 0.39966 0.0
H846 H 0.58329 0.5008 0.85813 0.0
H847 H 0.43676 0.53614 0.84152 0.0
H848 H 0.53704 0.52311 0.91388 0.0
H849 H 0.47702 0.50775 0.78346 0.0
H850 H 0.47625 0.53728 0.86707 0.0
H851 H 0.54746 0.50834 0.82951 0.0
C852 C 0.56571 0.50751 0.86429 0.0
C853 C 0.56288 0.51098 0.88834 0.0
C854 C 0.47666 0.53091 0.84874 0.0
C855 C 0.52218 0.51973 0.85599 0.0
C856 C 0.45405 0.53028 0.8341 0.0
C857 C 0.45352 0.52149 0.8104 0.0
C858 C 0.49905 0.52238 0.8398 0.0
C859 C 0.47662 0.51455 0.80169 0.0
C860 C 0.54531 0.51174 0.84801 0.0
C861 C 0.53981 0.51972 0.89549 0.0
N862 N 0.49847 0.51479 0.8165 0.0
N863 N 0.5204 0.52367 0.87943 0.0
H864 H 0.78425 0.69203 0.1665 0.0
H865 H 0.8272 0.69699 0.03672 0.0
H866 H 0.78904 0.76083 0.13051 0.0
H867 H 0.81309 0.62624 0.06842 0.0
H868 H 0.81477 0.72069 0.07169 0.0
H869 H 0.79564 0.66754 0.13132 0.0
C870 C 0.78749 0.70198 0.15117 0.0
C871 C 0.78575 0.7286 0.15154 0.0
C872 C 0.81436 0.69998 0.07103 0.0
C873 C 0.79918 0.70069 0.11131 0.0
C874 C 0.82153 0.68641 0.05105 0.0
C875 C 0.8212 0.65954 0.04959 0.0
C876 C 0.80687 0.68668 0.08982 0.0
C877 C 0.81362 0.64693 0.06875 0.0
C878 C 0.79415 0.68799 0.13113 0.0
C879 C 0.79056 0.74045 0.13122 0.0
N880 N 0.80679 0.66061 0.08809 0.0
N881 N 0.7971 0.72645 0.112 0.0
H882 H 0.96958 0.01908 0.06458 0.0
H883 H 0.9605 0.01959 0.20281 0.0
H884 H 0.03524 0.01277 0.11384 0.0
H885 H 0.89378 0.01244 0.15238 0.0
H886 H 0.98838 0.02014 0.17074 0.0
H887 H 0.94179 0.01961 0.09675 0.0
C888 C 0.97818 0.0179 0.08218 0.0
C889 C 0.00483 0.01588 0.08648 0.0
C890 C 0.96764 0.01848 0.16669 0.0
C891 C 0.97302 0.0164 0.12348 0.0
C892 C 0.95168 0.01825 0.18501 0.0
C893 C 0.92469 0.01593 0.18033 0.0
C894 C 0.95662 0.01655 0.14345 0.0
C895 C 0.91445 0.0142 0.15686 0.0
C896 C 0.96227 0.01807 0.10054 0.0
C897 C 0.01479 0.01408 0.10964 0.0
N898 N 0.93039 0.01457 0.13934 0.0
N899 N 0.99893 0.01447 0.12725 0.0
H900 H 0.28849 0.80323 0.20326 0.0
H901 H 0.22068 0.81628 0.07626 0.0
H902 H 0.22661 0.74815 0.17303 0.0
H903 H 0.30246 0.83239 0.0949 0.0
H904 H 0.21647 0.79991 0.11484 0.0
H905 H 0.2873 0.82357 0.16657 0.0
C906 C 0.27447 0.79561 0.18894 0.0
C907 C 0.25786 0.77386 0.191 0.0
C908 C 0.23523 0.80722 0.11039 0.0
C909 C 0.25618 0.79714 0.14921 0.0
C910 C 0.23761 0.81662 0.08855 0.0
C911 C 0.26198 0.82547 0.08244 0.0
C912 C 0.25724 0.80751 0.12625 0.0
C913 C 0.28338 0.82548 0.09887 0.0
C914 C 0.27384 0.80716 0.16806 0.0
C915 C 0.23995 0.76475 0.172 0.0
N916 N 0.28049 0.81677 0.12004 0.0
N917 N 0.23957 0.77646 0.15178 0.0
H918 H 0.00884 0.48181 0.11405 0.0
H919 H 0.09306 0.41671 0.20555 0.0
H920 H 0.07465 0.44367 0.09205 0.0
H921 H 0.07628 0.49513 0.22193 0.0
H922 H 0.07925 0.42041 0.16421 0.0
H923 H 0.02661 0.48206 0.15461 0.0
C924 C 0.02712 0.47377 0.11752 0.0
C925 C 0.0401 0.4626 0.09927 0.0
C926 C 0.07876 0.43678 0.17692 0.0
C927 C 0.05975 0.4619 0.14589 0.0
C928 C 0.08647 0.43466 0.2004 0.0
C929 C 0.08582 0.45568 0.21702 0.0
C930 C 0.06956 0.45975 0.17028 0.0
C931 C 0.0772 0.47857 0.20954 0.0
C932 C 0.03708 0.47378 0.14075 0.0
C933 C 0.06344 0.45188 0.10532 0.0
N934 N 0.06899 0.47991 0.1867 0.0
N935 N 0.07229 0.45144 0.12812 0.0
H936 H 0.32351 0.75091 0.2686 0.0
H937 H 0.45004 0.69287 0.32123 0.0
H938 H 0.32745 0.6689 0.26768 0.0
H939 H 0.44994 0.76566 0.29148 0.0
H940 H 0.40419 0.6838 0.30671 0.0
H941 H 0.36893 0.75711 0.28292 0.0
C942 C 0.3339 0.73414 0.27126 0.0
C943 C 0.32157 0.7093 0.2665 0.0
C944 C 0.4144 0.70163 0.30331 0.0
C945 C 0.37376 0.7164 0.28351 0.0
C946 C 0.44051 0.70681 0.31154 0.0
C947 C 0.45391 0.73008 0.30763 0.0
C948 C 0.40165 0.72006 0.2915 0.0
C949 C 0.44055 0.74747 0.29499 0.0
C950 C 0.35987 0.73773 0.27955 0.0
C951 C 0.33604 0.68842 0.27117 0.0
N952 N 0.4152 0.7422 0.28761 0.0
N953 N 0.36141 0.69242 0.27941 0.0
H954 H 0.01011 0.36756 0.00117 0.0
H955 H 0.07621 0.32388 0.89016 0.0
H956 H 0.0903 0.39157 0.99678 0.0
H957 H 0.02495 0.26997 0.92015 0.0
H958 H 0.07957 0.35182 0.92685 0.0
H959 H 0.0124 0.33408 0.96915 0.0
C960 C 0.02822 0.36564 0.99351 0.0
C961 C 0.05004 0.38231 0.0014 0.0
C962 C 0.06789 0.3337 0.92545 0.0
C963 C 0.05262 0.34461 0.96474 0.0
C964 C 0.06588 0.31784 0.90456 0.0
C965 C 0.05024 0.29467 0.90219 0.0
C966 C 0.05354 0.32665 0.94375 0.0
C967 C 0.03728 0.28767 0.92136 0.0
C968 C 0.02954 0.34651 0.9754 0.0
C969 C 0.0731 0.37901 0.99109 0.0
N970 N 0.03882 0.30386 0.94123 0.0
N971 N 0.0737 0.36079 0.97292 0.0
H972 H 0.6916 0.71455 0.23157 0.0
H973 H 0.60921 0.78437 0.32132 0.0
H974 H 0.72648 0.77003 0.2869 0.0
H975 H 0.5892 0.70424 0.29931 0.0
H976 H 0.65038 0.78151 0.30441 0.0
H977 H 0.65182 0.71189 0.25183 0.0
C978 C 0.69092 0.72604 0.248 0.0
C979 C 0.71222 0.7427 0.25757 0.0
C980 C 0.6371 0.76448 0.30342 0.0
C981 C 0.66703 0.73996 0.28044 0.0
C982 C 0.61361 0.76611 0.31298 0.0
C983 C 0.5959 0.74449 0.3117 0.0
C984 C 0.64273 0.74123 0.29189 0.0
C985 C 0.60251 0.72127 0.30074 0.0
C986 C 0.66834 0.72439 0.25957 0.0
C987 C 0.71043 0.75704 0.27893 0.0
N988 N 0.62535 0.7203 0.29087 0.0
N989 N 0.68812 0.75563 0.28948 0.0
H990 H 0.08077 0.0741 0.96648 0.0
H991 H 0.988 0.17605 0.91789 0.0
H992 H 0.00662 0.08585 0.99167 0.0
H993 H 0.05808 0.15752 0.88775 0.0
H994 H 0.99424 0.14316 0.94493 0.0
H995 H 0.07272 0.10474 0.9376 0.0
C996 C 0.06276 0.08313 0.96587 0.0
C997 C 0.04438 0.07748 0.98149 0.0
C998 C 0.00818 0.14619 0.93233 0.0
C999 C 0.03499 0.11266 0.94851 0.0
C1000 C 0.00464 0.16499 0.91685 0.0
C1001 C 0.02259 0.16965 0.90053 0.0
C1002 C 0.02992 0.13199 0.93161 0.0
C1003 C 0.04375 0.15464 0.90003 0.0
C1004 C 0.05814 0.10059 0.94936 0.0
C1005 C 0.02133 0.08967 0.97997 0.0
N1006 N 0.04688 0.13661 0.91541 0.0
N1007 N 0.01734 0.10677 0.96382 0.0
H1008 H 0.45048 0.34354 0.29664 0.0
H1009 H 0.42354 0.35308 0.15902 0.0
H1010 H 0.38388 0.3755 0.26469 0.0
H1011 H 0.49256 0.32464 0.19042 0.0
H1012 H 0.4097 0.36295 0.1979 0.0
H1013 H 0.46739 0.33816 0.25823 0.0
C1014 C 0.43955 0.34961 0.28155 0.0
C1015 C 0.41575 0.35985 0.2838 0.0
C1016 C 0.42793 0.35465 0.19632 0.0
C1017 C 0.43475 0.35364 0.23989 0.0
C1018 C 0.43585 0.34897 0.17409 0.0
C1019 C 0.45921 0.33788 0.1714 0.0
C1020 C 0.44339 0.34912 0.21611 0.0
C1021 C 0.47438 0.33311 0.19163 0.0
C1022 C 0.44916 0.3465 0.25966 0.0
C1023 C 0.40229 0.36741 0.26377 0.0
N1024 N 0.46614 0.33864 0.21312 0.0
N1025 N 0.41191 0.36402 0.24265 0.0
H1026 H 0.62377 0.43132 0.00924 0.0
H1027 H 0.48932 0.38584 0.05666 0.0
H1028 H 0.54981 0.45602 0.98544 0.0
H1029 H 0.56133 0.35622 0.07939 0.0
H1030 H 0.51232 0.41384 0.03254 0.0
H1031 H 0.6024 0.40572 0.03699 0.0
C1032 C 0.60308 0.43141 0.00994 0.0
C1033 C 0.58853 0.44562 0.99494 0.0
C1034 C 0.52319 0.40131 0.04282 0.0
C1035 C 0.56404 0.4166 0.02649 0.0
C1036 C 0.51003 0.38526 0.05666 0.0
C1037 C 0.52337 0.36849 0.07 0.0
C1038 C 0.54997 0.40066 0.04216 0.0
C1039 C 0.55026 0.36879 0.06934 0.0
C1040 C 0.59092 0.41682 0.02572 0.0
C1041 C 0.56182 0.4452 0.99652 0.0
N1042 N 0.56269 0.38454 0.05553 0.0
N1043 N 0.55048 0.4309 0.01195 0.0
H1044 H 0.67047 0.26771 0.23953 0.0
H1045 H 0.59462 0.25408 0.11178 0.0
H1046 H 0.69423 0.2209 0.18118 0.0
H1047 H 0.57184 0.29993 0.17124 0.0
H1048 H 0.63186 0.2425 0.13625 0.0
H1049 H 0.63496 0.28053 0.21415 0.0
C1050 C 0.66827 0.26015 0.22133 0.0
C1051 C 0.68531 0.24314 0.21242 0.0
C1052 C 0.61872 0.25513 0.14389 0.0
C1053 C 0.6445 0.25777 0.18319 0.0
C1054 C 0.59746 0.26176 0.12994 0.0
C1055 C 0.58001 0.27796 0.13946 0.0
C1056 C 0.62256 0.26477 0.16754 0.0
C1057 C 0.5847 0.28735 0.16311 0.0
C1058 C 0.64793 0.26749 0.20682 0.0
C1059 C 0.68147 0.23404 0.18869 0.0
N1060 N 0.60546 0.28059 0.1763 0.0
N1061 N 0.66142 0.24141 0.17488 0.0
H1062 H 0.42555 0.1418 0.98386 0.0
H1063 H 0.49165 0.22508 0.09769 0.0
H1064 H 0.45091 0.1068 0.04584 0.0
H1065 H 0.4365 0.25456 0.0489 0.0
H1066 H 0.48128 0.18204 0.07732 0.0
H1067 H 0.43371 0.18411 0.00583 0.0
C1068 C 0.43277 0.1431 0.00214 0.0
C1069 C 0.43755 0.12091 0.01313 0.0
C1070 C 0.4714 0.19797 0.07122 0.0
C1071 C 0.44724 0.16908 0.03822 0.0
C1072 C 0.47737 0.22251 0.08273 0.0
C1073 C 0.46491 0.24343 0.07497 0.0
C1074 C 0.45324 0.19449 0.05158 0.0
C1075 C 0.44651 0.23898 0.05554 0.0
C1076 C 0.43734 0.16717 0.01466 0.0
C1077 C 0.44683 0.12352 0.03685 0.0
N1078 N 0.4414 0.21506 0.0444 0.0
N1079 N 0.45164 0.14724 0.04859 0.0
H1080 H 0.29813 0.30549 0.74177 0.0
H1081 H 0.36001 0.44116 0.71004 0.0
H1082 H 0.29974 0.32608 0.67093 0.0
H1083 H 0.344 0.42462 0.77976 0.0
H1084 H 0.34118 0.39798 0.69527 0.0
H1085 H 0.3178 0.34824 0.75598 0.0
C1086 C 0.30247 0.31902 0.72919 0.0
C1087 C 0.29722 0.31209 0.7051 0.0
C1088 C 0.34182 0.40386 0.7138 0.0
C1089 C 0.32017 0.36108 0.72128 0.0
C1090 C 0.35263 0.42847 0.72224 0.0
C1091 C 0.35353 0.43658 0.74616 0.0
C1092 C 0.33206 0.38723 0.72943 0.0
C1093 C 0.34364 0.4193 0.76116 0.0
C1094 C 0.31385 0.34341 0.73732 0.0
C1095 C 0.30376 0.33037 0.68963 0.0
N1096 N 0.33338 0.3955 0.75256 0.0
N1097 N 0.3149 0.35399 0.69798 0.0
H1098 H 0.29037 0.69697 0.75069 0.0
H1099 H 0.31305 0.55763 0.79015 0.0
H1100 H 0.2626 0.66676 0.81209 0.0
H1101 H 0.36107 0.59245 0.74203 0.0
H1102 H 0.2902 0.59601 0.79366 0.0
H1103 H 0.31298 0.65791 0.74337 0.0
C1104 C 0.28906 0.68216 0.76262 0.0
C1105 C 0.27469 0.68518 0.78212 0.0
C1106 C 0.30569 0.59538 0.78228 0.0
C1107 C 0.30016 0.64057 0.77371 0.0
C1108 C 0.31878 0.57334 0.78017 0.0
C1109 C 0.33932 0.57183 0.76596 0.0
C1110 C 0.31295 0.61636 0.77008 0.0
C1111 C 0.34544 0.59281 0.75324 0.0
C1112 C 0.30201 0.65997 0.75846 0.0
C1113 C 0.27371 0.66547 0.79705 0.0
N1114 N 0.33237 0.61436 0.7557 0.0
N1115 N 0.28613 0.64405 0.79247 0.0
H1116 H 0.85954 0.5259 0.46259 0.0
H1117 H 0.84259 0.4071 0.53524 0.0
H1118 H 0.90695 0.52124 0.52675 0.0
H1119 H 0.77721 0.43404 0.49648 0.0
H1120 H 0.86769 0.44744 0.53091 0.0
H1121 H 0.8299 0.49096 0.47293 0.0
C1122 C 0.86348 0.51763 0.47897 0.0
C1123 C 0.88561 0.52628 0.49387 0.0
C1124 C 0.84776 0.44464 0.52361 0.0
C1125 C 0.85228 0.48623 0.50556 0.0
C1126 C 0.83347 0.42162 0.52597 0.0
C1127 C 0.80785 0.41723 0.51609 0.0
C1128 C 0.83655 0.46313 0.51077 0.0
C1129 C 0.79691 0.43671 0.50438 0.0
C1130 C 0.84659 0.49783 0.48489 0.0
C1131 C 0.88999 0.51506 0.51489 0.0
N1132 N 0.81148 0.4587 0.50169 0.0
N1133 N 0.87367 0.49528 0.51997 0.0
H1134 H 0.80884 0.91059 0.83038 0.0
H1135 H 0.65496 0.88739 0.818 0.0
H1136 H 0.76734 0.84066 0.84572 0.0
H1137 H 0.69597 0.96021 0.80984 0.0
H1138 H 0.69597 0.8705 0.82958 0.0
H1139 H 0.76778 0.9298 0.82434 0.0
C1140 C 0.79109 0.89936 0.83265 0.0
C1141 C 0.79151 0.87396 0.83848 0.0
C1142 C 0.696 0.89022 0.82538 0.0
C1143 C 0.74445 0.89574 0.8315 0.0
C1144 C 0.67257 0.89988 0.81871 0.0
C1145 C 0.672 0.92524 0.81279 0.0
C1146 C 0.7191 0.90595 0.82601 0.0
C1147 C 0.69546 0.94053 0.81417 0.0
C1148 C 0.76767 0.91034 0.82926 0.0
C1149 C 0.76796 0.86037 0.84145 0.0
N1150 N 0.71806 0.9306 0.82049 0.0
N1151 N 0.74539 0.87135 0.83772 0.0
H1152 H 0.64239 0.55873 0.90957 0.0
H1153 H 0.77769 0.57992 0.98038 0.0
H1154 H 0.67253 0.49665 0.9454 0.0
H1155 H 0.76958 0.60105 0.90959 0.0
H1156 H 0.73496 0.55601 0.97356 0.0
H1157 H 0.68553 0.58096 0.91426 0.0
C1158 C 0.65793 0.54949 0.91816 0.0
C1159 C 0.65347 0.52556 0.92708 0.0
C1160 C 0.74264 0.56594 0.9596 0.0
C1161 C 0.70264 0.55179 0.93341 0.0
C1162 C 0.76681 0.57966 0.96349 0.0
C1163 C 0.77705 0.59236 0.94548 0.0
C1164 C 0.72842 0.56566 0.93782 0.0
C1165 C 0.76233 0.59136 0.92385 0.0
C1166 C 0.68251 0.56242 0.92098 0.0
C1167 C 0.67461 0.51525 0.93869 0.0
N1168 N 0.73853 0.57844 0.92068 0.0
N1169 N 0.69818 0.52858 0.94179 0.0
H1170 H 0.26294 0.63305 0.26057 0.0
H1171 H 0.11729 0.58122 0.27295 0.0
H1172 H 0.19976 0.68171 0.25867 0.0
H1173 H 0.18304 0.53852 0.28924 0.0
H1174 H 0.14679 0.61807 0.26681 0.0
H1175 H 0.23362 0.59795 0.27027 0.0
C1176 C 0.24296 0.63647 0.2624 0.0
C1177 C 0.23387 0.66046 0.25877 0.0
C1178 C 0.15473 0.60068 0.27187 0.0
C1179 C 0.19999 0.62005 0.2695 0.0
C1180 C 0.1379 0.57963 0.27537 0.0
C1181 C 0.14769 0.5567 0.28153 0.0
C1182 C 0.18151 0.59869 0.27435 0.0
C1183 C 0.17459 0.55577 0.28447 0.0
C1184 C 0.22618 0.61634 0.26783 0.0
C1185 C 0.20759 0.66348 0.26093 0.0
N1186 N 0.19052 0.57638 0.2807 0.0
N1187 N 0.19157 0.6435 0.26606 0.0
H1188 H 0.95721 0.46863 0.01366 0.0
H1189 H 0.91294 0.60974 0.02019 0.0
H1190 H 0.00502 0.53015 0.05446 0.0
H1191 H 0.9011 0.55756 0.95741 0.0
H1192 H 0.94145 0.57991 0.03791 0.0
H1193 H 0.93024 0.50009 0.998 0.0
C1194 C 0.96222 0.48874 0.01927 0.0
C1195 C 0.98387 0.49667 0.03511 0.0
C1196 C 0.93264 0.57523 0.02022 0.0
C1197 C 0.95231 0.53279 0.01769 0.0
C1198 C 0.9164 0.59213 0.01013 0.0
C1199 C 0.90468 0.58614 0.98727 0.0
C1200 C 0.93653 0.552 0.00753 0.0
C1201 C 0.9098 0.56307 0.97501 0.0
C1202 C 0.94666 0.50667 0.01039 0.0
C1203 C 0.98855 0.52305 0.04237 0.0
N1204 N 0.92509 0.54675 0.98538 0.0
N1205 N 0.97288 0.54022 0.03359 0.0
H1206 H 0.05565 0.94773 0.05568 0.0
H1207 H 0.19716 0.92804 0.01598 0.0
H1208 H 0.10664 0.00833 0.03442 0.0
H1209 H 0.15013 0.86872 0.04375 0.0
H1210 H 0.16336 0.95717 0.0214 0.0
H1211 H 0.08943 0.91818 0.05092 0.0
C1212 C 0.07398 0.9549 0.05019 0.0
C1213 C 0.07818 0.98059 0.04533 0.0
C1214 C 0.16039 0.93778 0.0263 0.0
C1215 C 0.11685 0.94672 0.03953 0.0
C1216 C 0.17969 0.92107 0.02314 0.0
C1217 C 0.17654 0.89584 0.02942 0.0
C1218 C 0.13764 0.92926 0.03578 0.0
C1219 C 0.15344 0.88799 0.03866 0.0
C1220 C 0.09321 0.93796 0.04733 0.0
C1221 C 0.10228 0.98863 0.03799 0.0
N1222 N 0.1349 0.90462 0.04156 0.0
N1223 N 0.12059 0.97179 0.03526 0.0
loop_
_geom_bond_atom_site_label_1
_geom_bond_atom_site_label_2
_geom_bond_distance
_geom_bond_site_symmetry_2
_ccdc_geom_bond_type
H0 C5 0.930 . S
H1 C8 0.930 . S
H2 C10 0.930 . S
H3 C4 1.016 1_556 S
C4 H3 1.016 1_554 S
C4 N11 1.286 . S
C5 H0 0.930 . S
C5 C6 1.397 . S
C5 C7 1.361 . S
C6 C5 1.397 . S
C6 C10 1.390 . S
C7 C5 1.361 . S
C7 C8 1.393 . S
C7 N11 1.413 . S
C8 H1 0.930 . S
C8 C7 1.393 . S
C8 C9 1.399 . S
C9 C8 1.399 . S
C9 C10 1.381 . S
C10 H2 0.930 . S
C10 C6 1.390 . S
C10 C9 1.381 . S
N11 C4 1.286 . S
N11 C7 1.413 . S
H12 C17 0.930 . S
H13 C20 0.930 . S
H14 C22 0.930 . S
H15 C16 1.016 . S
C16 H15 1.016 . S
C16 N23 1.286 . S
C17 H12 0.930 . S
C17 C18 1.397 . S
C17 C19 1.361 . S
C18 C17 1.397 . S
C18 C22 1.390 . S
C19 C17 1.361 . S
C19 C20 1.393 . S
C19 N23 1.413 . S
C20 H13 0.930 . S
C20 C19 1.393 . S
C20 C21 1.399 . S
C21 C20 1.399 . S
C21 C22 1.381 . S
C22 H14 0.930 . S
C22 C18 1.390 . S
C22 C21 1.381 . S
N23 C16 1.286 . S
N23 C19 1.413 . S
H24 C29 0.930 . S
H25 C32 0.930 . S
H26 C34 0.930 . S
H27 C28 1.016 . S
C28 H27 1.016 . S
C28 N35 1.286 . S
C29 H24 0.930 . S
C29 C30 1.397 . S
C29 C31 1.361 . S
C30 C29 1.397 . S
C30 C34 1.390 . S
C31 C29 1.361 . S
C31 C32 1.393 . S
C31 N35 1.413 . S
C32 H25 0.930 . S
C32 C31 1.393 . S
C32 C33 1.399 . S
C33 C32 1.399 . S
C33 C34 1.381 . S
C34 H26 0.930 . S
C34 C30 1.390 . S
C34 C33 1.381 . S
N35 C28 1.286 . S
N35 C31 1.413 . S
H36 C41 0.930 . S
H37 C44 0.930 . S
H38 C46 0.930 . S
H39 C40 1.016 . S
C40 H39 1.016 . S
C40 N47 1.286 . S
C41 H36 0.930 . S
C41 C42 1.397 . S
C41 C43 1.361 . S
C42 C41 1.397 . S
C42 C46 1.390 . S
C43 C41 1.361 . S
C43 C44 1.393 . S
C43 N47 1.413 . S
C44 H37 0.930 . S
C44 C43 1.393 . S
C44 C45 1.399 . S
C45 C44 1.399 . S
C45 C46 1.381 . S
C46 H38 0.930 . S
C46 C42 1.390 . S
C46 C45 1.381 . S
N47 C40 1.286 . S
N47 C43 1.413 . S
H48 C53 0.930 . S
H49 C56 0.930 . S
H50 C58 0.930 . S
H51 C52 1.016 . S
C52 H51 1.016 . S
C52 N59 1.286 . S
C53 H48 0.930 . S
C53 C54 1.397 . S
C53 C55 1.361 . S
C54 C53 1.397 . S
C54 C58 1.390 . S
C55 C53 1.361 . S
C55 C56 1.393 . S
C55 N59 1.413 . S
C56 H49 0.930 . S
C56 C55 1.393 . S
C56 C57 1.399 . S
C57 C56 1.399 . S
C57 C58 1.381 . S
C58 H50 0.930 . S
C58 C54 1.390 . S
C58 C57 1.381 . S
N59 C52 1.286 . S
N59 C55 1.413 . S
H60 C65 0.930 . S
H61 C68 0.930 . S
H62 C70 0.930 . S
H63 C64 1.016 . S
C64 H63 1.016 . S
C64 N71 1.286 . S
C65 H60 0.930 . S
C65 C66 1.397 . S
C65 C67 1.361 . S
C66 C65 1.397 . S
C66 C70 1.390 . S
C67 C65 1.361 . S
C67 C68 1.393 . S
C67 N71 1.413 . S
C68 H61 0.930 . S
C68 C67 1.393 . S
C68 C69 1.399 . S
C69 C68 1.399 . S
C69 C70 1.381 . S
C70 H62 0.930 . S
C70 C66 1.390 . S
C70 C69 1.381 . S
N71 C64 1.286 . S
N71 C67 1.413 . S
H72 C77 0.930 . S
H73 C80 0.930 . S
H74 C82 0.930 . S
H75 C76 1.024 . S
C76 H75 1.024 . S
C76 N83 1.296 . S
C77 H72 0.930 . S
C77 C78 1.397 . S
C77 C79 1.361 . S
C78 C77 1.397 . S
C78 C82 1.390 . S
C79 C77 1.361 . S
C79 C80 1.393 . S
C79 N83 1.413 . S
C80 H73 0.930 . S
C80 C79 1.393 . S
C80 C81 1.399 . S
C81 C80 1.399 . S
C81 C82 1.381 . S
C82 H74 0.930 . S
C82 C78 1.390 . S
C82 C81 1.381 . S
N83 C76 1.296 . S
N83 C79 1.413 . S
H84 C89 0.930 . S
H85 C92 0.930 . S
H86 C94 0.930 . S
H87 C88 1.016 . S
C88 H87 1.016 . S
C88 N95 1.286 . S
C89 H84 0.930 . S
C89 C90 1.397 . S
C89 C91 1.361 . S
C90 C89 1.397 . S
C90 C94 1.390 . S
C91 C89 1.361 . S
C91 C92 1.393 . S
C91 N95 1.413 . S
C92 H85 0.930 . S
C92 C91 1.393 . S
C92 C93 1.399 . S
C93 C92 1.399 . S
C93 C94 1.381 . S
C94 H86 0.930 . S
C94 C90 1.390 . S
C94 C93 1.381 . S
N95 C88 1.286 . S
N95 C91 1.413 . S
H96 C101 0.930 . S
H97 C104 0.930 . S
H98 C106 0.930 . S
H99 C100 1.016 . S
C100 H99 1.016 . S
C100 N107 1.286 . S
C101 H96 0.930 . S
C101 C102 1.397 . S
C101 C103 1.361 . S
C102 C101 1.397 . S
C102 C106 1.390 . S
C103 C101 1.361 . S
C103 C104 1.393 . S
C103 N107 1.413 . S
C104 H97 0.930 . S
C104 C103 1.393 . S
C104 C105 1.399 . S
C105 C104 1.399 . S
C105 C106 1.381 . S
C106 H98 0.930 . S
C106 C102 1.390 . S
C106 C105 1.381 . S
N107 C100 1.286 . S
N107 C103 1.413 . S
H108 C113 0.930 . S
H109 C116 0.930 . S
H110 C118 0.930 1_545 S
H111 C112 1.016 . S
C112 H111 1.016 . S
C112 N119 1.286 . S
C113 H108 0.930 . S
C113 C114 1.397 . S
C113 C115 1.361 . S
C114 C113 1.397 . S
C114 C118 1.390 . S
C115 C113 1.361 . S
C115 C116 1.393 . S
C115 N119 1.413 . S
C116 H109 0.930 . S
C116 C115 1.393 . S
C116 C117 1.399 . S
C117 C116 1.399 . S
C117 C118 1.381 . S
C118 H110 0.930 1_565 S
C118 C114 1.390 . S
C118 C117 1.381 . S
N119 C112 1.286 . S
N119 C115 1.413 . S
H120 C125 0.930 . S
H121 C128 0.930 . S
H122 C130 0.930 . S
H123 C124 1.016 . S
C124 H123 1.016 . S
C124 N131 1.286 . S
C125 H120 0.930 . S
C125 C126 1.397 . S
C125 C127 1.361 . S
C126 C125 1.397 . S
C126 C130 1.390 . S
C127 C125 1.361 . S
C127 C128 1.393 . S
C127 N131 1.413 . S
C128 H121 0.930 . S
C128 C127 1.393 . S
C128 C129 1.399 . S
C129 C128 1.399 . S
C129 C130 1.381 . S
C130 H122 0.930 . S
C130 C126 1.390 . S
C130 C129 1.381 . S
N131 C124 1.286 . S
N131 C127 1.413 . S
H132 C137 0.930 . S
H133 C140 0.930 . S
H134 C142 0.930 . S
H135 C136 1.016 . S
C136 H135 1.016 . S
C136 N143 1.286 . S
C137 H132 0.930 . S
C137 C138 1.397 . S
C137 C139 1.361 . S
C138 C137 1.397 . S
C138 C142 1.390 . S
C139 C137 1.361 . S
C139 C140 1.393 . S
C139 N143 1.413 . S
C140 H133 0.930 . S
C140 C139 1.393 . S
C140 C141 1.399 . S
C141 C140 1.399 . S
C141 C142 1.381 . S
C142 H134 0.930 . S
C142 C138 1.390 . S
C142 C141 1.381 . S
N143 C136 1.286 . S
N143 C139 1.413 . S
H144 C149 0.930 . S
H145 C152 0.930 . S
H146 C154 0.930 . S
H147 C148 1.016 . S
C148 H147 1.016 . S
C148 N155 1.286 . S
C149 H144 0.930 . S
C149 C150 1.397 . S
C149 C151 1.361 . S
C150 C149 1.397 . S
C150 C154 1.390 . S
C151 C149 1.361 . S
C151 C152 1.393 . S
C151 N155 1.413 . S
C152 H145 0.930 . S
C152 C151 1.393 . S
C152 C153 1.399 . S
C153 C152 1.399 . S
C153 C154 1.381 . S
C154 H146 0.930 . S
C154 C150 1.390 . S
C154 C153 1.381 . S
N155 C148 1.286 . S
N155 C151 1.413 . S
H156 C161 0.930 . S
H157 C164 0.930 . S
H158 C166 0.930 . S
H159 C160 1.016 1_554 S
C160 H159 1.016 1_556 S
C160 N167 1.286 . S
C161 H156 0.930 . S
C161 C162 1.397 . S
C161 C163 1.361 . S
C162 C161 1.397 . S
C162 C166 1.390 . S
C163 C161 1.361 . S
C163 C164 1.393 . S
C163 N167 1.413 . S
C164 H157 0.930 . S
C164 C163 1.393 . S
C164 C165 1.399 . S
C165 C164 1.399 . S
C165 C166 1.381 . S
C166 H158 0.930 . S
C166 C162 1.390 . S
C166 C165 1.381 . S
N167 C160 1.286 . S
N167 C163 1.413 . S
H168 C173 0.930 . S
H169 C176 0.930 . S
H170 C178 0.930 . S
H171 C172 1.016 . S
C172 H171 1.016 . S
C172 N179 1.286 . S
C173 H168 0.930 . S
C173 C174 1.397 . S
C173 C175 1.361 . S
C174 C173 1.397 . S
C174 C178 1.390 . S
C175 C173 1.361 . S
C175 C176 1.393 . S
C175 N179 1.413 . S
C176 H169 0.930 . S
C176 C175 1.393 . S
C176 C177 1.399 . S
C177 C176 1.399 . S
C177 C178 1.381 . S
C178 H170 0.930 . S
C178 C174 1.390 . S
C178 C177 1.381 . S
N179 C172 1.286 . S
N179 C175 1.413 . S
H180 C185 0.930 . S
H181 C188 0.930 . S
H182 C190 0.930 . S
H183 C184 1.016 . S
C184 H183 1.016 . S
C184 N191 1.286 . S
C185 H180 0.930 . S
C185 C186 1.397 . S
C185 C187 1.361 . S
C186 C185 1.397 . S
C186 C190 1.390 . S
C187 C185 1.361 . S
C187 C188 1.393 . S
C187 N191 1.413 . S
C188 H181 0.930 . S
C188 C187 1.393 . S
C188 C189 1.399 . S
C189 C188 1.399 . S
C189 C190 1.381 . S
C190 H182 0.930 . S
C190 C186 1.390 . S
C190 C189 1.381 . S
N191 C184 1.286 . S
N191 C187 1.413 . S
Zn192 O195 2.031 . S
Zn192 O197 2.064 . S
Zn192 O202 2.067 1_554 S
Zn193 O194 1.962 . S
Zn193 O196 1.986 . S
Zn193 O198 1.996 . S
Zn193 O201 1.943 1_554 S
O194 Zn193 1.962 . S
O194 C199 1.254 . S
O195 Zn192 2.031 . S
O195 C199 1.269 . S
O196 Zn193 1.986 . S
O196 C203 1.262 . S
O197 Zn192 2.064 . S
O197 C205 1.270 . S
O198 Zn193 1.996 . S
O198 C205 1.257 . S
C199 O194 1.254 . S
C199 O195 1.269 . S
C200 O201 1.249 . S
C200 O202 1.270 . S
O201 Zn193 1.943 1_556 S
O201 C200 1.249 . S
O202 Zn192 2.067 1_556 S
O202 C200 1.270 . S
C203 O196 1.262 . S
C203 O204 1.232 . S
O204 C203 1.232 . S
C205 O197 1.270 . S
C205 O198 1.257 . S
Zn206 O209 2.031 . S
Zn206 O211 2.049 . S
Zn206 O216 2.067 . S
Zn207 O208 1.962 . S
Zn207 O210 1.986 . S
Zn207 O212 1.996 . S
Zn207 O215 1.943 . S
O208 Zn207 1.962 . S
O208 C213 1.254 . S
O209 Zn206 2.031 . S
O209 C213 1.269 . S
O210 Zn207 1.986 . S
O210 C217 1.262 . S
O211 Zn206 2.049 . S
O211 C219 1.260 . S
O212 Zn207 1.996 . S
O212 C219 1.257 . S
C213 O208 1.254 . S
C213 O209 1.269 . S
C214 O215 1.249 . S
C214 O216 1.270 . S
O215 Zn207 1.943 . S
O215 C214 1.249 . S
O216 Zn206 2.067 . S
O216 C214 1.270 . S
C217 O210 1.262 . S
C217 O218 1.232 . S
O218 C217 1.232 . S
C219 O211 1.260 . S
C219 O212 1.257 . S
Zn220 O223 2.031 . S
Zn220 O225 2.049 . S
Zn220 O230 2.067 . S
Zn221 O222 1.962 . S
Zn221 O224 1.986 . S
Zn221 O226 1.996 1_554 S
Zn221 O229 1.943 . S
O222 Zn221 1.962 . S
O222 C227 1.254 . S
O223 Zn220 2.031 . S
O223 C227 1.269 1_556 S
O224 Zn221 1.986 . S
O224 C231 1.262 . S
O225 Zn220 2.049 . S
O225 C233 1.260 . S
O226 Zn221 1.996 1_556 S
O226 C233 1.257 . S
C227 O222 1.254 . S
C227 O223 1.269 1_554 S
C228 O229 1.249 1_556 S
C228 O230 1.270 . S
O229 Zn221 1.943 . S
O229 C228 1.249 1_554 S
O230 Zn220 2.067 . S
O230 C228 1.270 . S
C231 O224 1.262 . S
C231 O232 1.232 . S
O232 C231 1.232 . S
C233 O225 1.260 . S
C233 O226 1.257 . S
Zn234 O237 2.031 . S
Zn234 O239 2.049 . S
Zn234 O244 2.067 1_545 S
Zn235 O236 1.962 . S
Zn235 O238 1.986 . S
Zn235 O240 1.996 . S
Zn235 O243 1.943 1_545 S
O236 Zn235 1.962 . S
O236 C241 1.254 . S
O237 Zn234 2.031 . S
O237 C241 1.269 . S
O238 Zn235 1.986 . S
O238 C245 1.262 . S
O239 Zn234 2.049 . S
O239 C247 1.260 . S
O240 Zn235 1.996 . S
O240 C247 1.257 . S
C241 O236 1.254 . S
C241 O237 1.269 . S
C242 O243 1.249 . S
C242 O244 1.270 . S
O243 Zn235 1.943 1_565 S
O243 C242 1.249 . S
O244 Zn234 2.067 1_565 S
O244 C242 1.270 . S
C245 O238 1.262 . S
C245 O246 1.232 . S
O246 C245 1.232 . S
C247 O239 1.260 . S
C247 O240 1.257 . S
Zn248 O251 2.031 . S
Zn248 O253 2.049 . S
Zn248 O258 2.067 . S
Zn249 O250 1.962 . S
Zn249 O252 1.986 . S
Zn249 O254 1.996 . S
Zn249 O257 1.943 . S
O250 Zn249 1.962 . S
O250 C255 1.254 . S
O251 Zn248 2.031 . S
O251 C255 1.269 . S
O252 Zn249 1.986 . S
O252 C259 1.262 . S
O253 Zn248 2.049 . S
O253 C261 1.260 . S
O254 Zn249 1.996 . S
O254 C261 1.257 . S
C255 O250 1.254 . S
C255 O251 1.269 . S
C256 O257 1.249 . S
C256 O258 1.270 . S
O257 Zn249 1.943 . S
O257 C256 1.249 . S
O258 Zn248 2.067 . S
O258 C256 1.270 . S
C259 O252 1.262 . S
C259 O260 1.232 . S
O260 C259 1.232 . S
C261 O253 1.260 . S
C261 O254 1.257 . S
Zn262 O265 2.031 . S
Zn262 O267 2.049 . S
Zn262 O272 2.067 . S
Zn263 O264 1.962 . S
Zn263 O266 1.986 . S
Zn263 O268 1.996 . S
Zn263 O271 1.943 . S
O264 Zn263 1.962 . S
O264 C269 1.254 . S
O265 Zn262 2.031 . S
O265 C269 1.269 . S
O266 Zn263 1.986 . S
O266 C273 1.262 . S
O267 Zn262 2.049 . S
O267 C275 1.260 . S
O268 Zn263 1.996 . S
O268 C275 1.257 . S
C269 O264 1.254 . S
C269 O265 1.269 . S
C270 O271 1.249 . S
C270 O272 1.270 . S
O271 Zn263 1.943 . S
O271 C270 1.249 . S
O272 Zn262 2.067 . S
O272 C270 1.270 . S
C273 O266 1.262 . S
C273 O274 1.232 . S
O274 C273 1.232 . S
C275 O267 1.260 . S
C275 O268 1.257 . S
Zn276 O279 2.031 . S
Zn276 O281 2.049 . S
Zn276 O286 2.067 . S
Zn277 O278 1.962 . S
Zn277 O280 1.986 . S
Zn277 O282 1.996 . S
Zn277 O285 1.943 . S
O278 Zn277 1.962 . S
O278 C283 1.254 . S
O279 Zn276 2.031 . S
O279 C283 1.269 . S
O280 Zn277 1.986 . S
O280 C287 1.262 . S
O281 Zn276 2.049 . S
O281 C289 1.260 . S
O282 Zn277 1.996 . S
O282 C289 1.257 . S
C283 O278 1.254 . S
C283 O279 1.269 . S
C284 O285 1.249 . S
C284 O286 1.270 . S
O285 Zn277 1.943 . S
O285 C284 1.249 . S
O286 Zn276 2.067 . S
O286 C284 1.270 . S
C287 O280 1.262 . S
C287 O288 1.232 . S
O288 C287 1.232 . S
C289 O281 1.260 . S
C289 O282 1.257 . S
Zn290 O293 2.031 . S
Zn290 O295 2.049 . S
Zn290 O300 2.067 . S
Zn291 O292 1.962 . S
Zn291 O294 1.986 . S
Zn291 O296 1.996 1_545 S
Zn291 O299 1.943 . S
O292 Zn291 1.962 . S
O292 C297 1.254 . S
O293 Zn290 2.031 . S
O293 C297 1.269 1_565 S
O294 Zn291 1.986 . S
O294 C301 1.262 . S
O295 Zn290 2.049 . S
O295 C303 1.260 . S
O296 Zn291 1.996 1_565 S
O296 C303 1.257 . S
C297 O292 1.254 . S
C297 O293 1.269 1_545 S
C298 O299 1.249 1_565 S
C298 O300 1.270 . S
O299 Zn291 1.943 . S
O299 C298 1.249 1_545 S
O300 Zn290 2.067 . S
O300 C298 1.270 . S
C301 O294 1.262 . S
C301 O302 1.232 . S
O302 C301 1.232 . S
C303 O295 1.260 . S
C303 O296 1.257 . S
Zn304 O307 2.031 . S
Zn304 O309 2.049 1_455 S
Zn304 O314 2.067 1_455 S
Zn305 O306 1.962 . S
Zn305 O308 1.986 . S
Zn305 O310 1.996 . S
Zn305 O313 1.943 1_455 S
O306 Zn305 1.962 . S
O306 C311 1.254 . S
O307 Zn304 2.031 . S
O307 C311 1.269 . S
O308 Zn305 1.986 . S
O308 C315 1.262 . S
O309 Zn304 2.049 1_655 S
O309 C317 1.269 . S
O310 Zn305 1.996 . S
O310 C317 1.238 1_455 S
C311 O306 1.254 . S
C311 O307 1.269 . S
C312 O313 1.249 . S
C312 O314 1.270 . S
O313 Zn305 1.943 1_655 S
O313 C312 1.249 . S
O314 Zn304 2.067 1_655 S
O314 C312 1.270 . S
C315 O308 1.262 . S
C315 O316 1.232 . S
O316 C315 1.232 . S
C317 O309 1.269 . S
C317 O310 1.238 1_655 S
Zn318 O321 2.031 . S
Zn318 O323 2.049 . S
Zn318 O328 2.067 . S
Zn319 O320 1.962 . S
Zn319 O322 1.986 . S
Zn319 O324 1.996 . S
Zn319 O327 1.943 . S
O320 Zn319 1.962 . S
O320 C325 1.254 . S
O321 Zn318 2.031 . S
O321 C325 1.269 . S
O322 Zn319 1.986 . S
O322 C329 1.262 . S
O323 Zn318 2.049 . S
O323 C331 1.260 . S
O324 Zn319 1.996 . S
O324 C331 1.257 . S
C325 O320 1.254 . S
C325 O321 1.269 . S
C326 O327 1.249 . S
C326 O328 1.270 . S
O327 Zn319 1.943 . S
O327 C326 1.249 . S
O328 Zn318 2.067 . S
O328 C326 1.270 . S
C329 O322 1.262 . S
C329 O330 1.232 . S
O330 C329 1.232 . S
C331 O323 1.260 . S
C331 O324 1.257 . S
Zn332 O335 2.031 1_655 S
Zn332 O337 2.049 . S
Zn332 O342 2.067 . S
Zn333 O334 1.962 . S
Zn333 O336 1.986 . S
Zn333 O338 1.996 1_455 S
Zn333 O341 1.943 . S
O334 Zn333 1.962 . S
O334 C339 1.254 . S
O335 Zn332 2.031 1_455 S
O335 C339 1.269 . S
O336 Zn333 1.986 . S
O336 C343 1.262 . S
O337 Zn332 2.049 . S
O337 C345 1.260 . S
O338 Zn333 1.996 1_655 S
O338 C345 1.257 . S
C339 O334 1.254 . S
C339 O335 1.269 . S
C340 O341 1.249 . S
C340 O342 1.270 1_455 S
O341 Zn333 1.943 . S
O341 C340 1.249 . S
O342 Zn332 2.067 . S
O342 C340 1.270 1_655 S
C343 O336 1.262 . S
C343 O344 1.232 . S
O344 C343 1.232 . S
C345 O337 1.260 . S
C345 O338 1.257 . S
Zn346 O349 2.031 . S
Zn346 O351 2.049 . S
Zn346 O356 2.067 . S
Zn347 O348 1.962 . S
Zn347 O350 1.986 . S
Zn347 O352 1.996 . S
Zn347 O355 1.943 . S
O348 Zn347 1.962 . S
O348 C353 1.254 . S
O349 Zn346 2.031 . S
O349 C353 1.269 . S
O350 Zn347 1.986 . S
O350 C357 1.262 . S
O351 Zn346 2.049 . S
O351 C359 1.260 . S
O352 Zn347 1.996 . S
O352 C359 1.257 . S
C353 O348 1.254 . S
C353 O349 1.269 . S
C354 O355 1.249 . S
C354 O356 1.270 . S
O355 Zn347 1.943 . S
O355 C354 1.249 . S
O356 Zn346 2.067 . S
O356 C354 1.270 . S
C357 O350 1.262 . S
C357 O358 1.232 . S
O358 C357 1.232 . S
C359 O351 1.260 . S
C359 O352 1.257 . S
H360 C366 0.930 . S
H361 C370 0.930 . S
H362 C375 0.929 . S
H363 C373 0.929 . S
H364 C368 0.929 . S
H365 C374 0.929 . S
C366 H360 0.930 . S
C366 C367 1.367 . S
C366 C374 1.378 . S
C367 C366 1.367 . S
C367 C375 1.433 . S
C368 H364 0.929 . S
C368 C370 1.378 . S
C368 C372 1.350 . S
C369 C372 1.463 . S
C369 C374 1.350 . S
C369 N377 1.427 . S
C370 H361 0.930 . S
C370 C368 1.378 . S
C370 C371 1.367 . S
C371 C370 1.367 . S
C371 C373 1.433 . S
C372 C368 1.350 . S
C372 C369 1.463 . S
C372 N376 1.427 . S
C373 H363 0.929 . S
C373 C371 1.433 . S
C373 N376 1.384 . S
C374 H365 0.929 . S
C374 C366 1.378 . S
C374 C369 1.350 . S
C375 H362 0.929 . S
C375 C367 1.433 . S
C375 N377 1.384 . S
N376 C372 1.427 . S
N376 C373 1.384 . S
N377 C369 1.427 . S
N377 C375 1.384 . S
H378 C384 0.930 . S
H379 C388 0.930 . S
H380 C393 0.929 . S
H381 C391 0.929 . S
H382 C386 0.929 . S
H383 C392 0.929 . S
C384 H378 0.930 . S
C384 C385 1.367 . S
C384 C392 1.378 . S
C385 C384 1.367 . S
C385 C393 1.433 . S
C386 H382 0.929 . S
C386 C388 1.378 . S
C386 C390 1.350 . S
C387 C390 1.463 . S
C387 C392 1.350 . S
C387 N395 1.427 . S
C388 H379 0.930 . S
C388 C386 1.378 . S
C388 C389 1.367 . S
C389 C388 1.367 . S
C389 C391 1.433 . S
C390 C386 1.350 . S
C390 C387 1.463 . S
C390 N394 1.427 . S
C391 H381 0.929 . S
C391 C389 1.433 . S
C391 N394 1.384 . S
C392 H383 0.929 . S
C392 C384 1.378 . S
C392 C387 1.350 . S
C393 H380 0.929 . S
C393 C385 1.433 . S
C393 N395 1.384 . S
N394 C390 1.427 . S
N394 C391 1.384 . S
N395 C387 1.427 . S
N395 C393 1.384 . S
H396 C402 0.930 . S
H397 C406 0.930 . S
H398 C411 0.929 . S
H399 C409 0.929 . S
H400 C404 0.929 . S
H401 C410 0.929 . S
C402 H396 0.930 . S
C402 C403 1.367 . S
C402 C410 1.378 . S
C403 C402 1.367 . S
C403 C411 1.433 . S
C404 H400 0.929 . S
C404 C406 1.378 . S
C404 C408 1.350 . S
C405 C408 1.463 . S
C405 C410 1.350 . S
C405 N413 1.427 . S
C406 H397 0.930 . S
C406 C404 1.378 . S
C406 C407 1.367 . S
C407 C406 1.367 . S
C407 C409 1.433 . S
C408 C404 1.350 . S
C408 C405 1.463 . S
C408 N412 1.427 . S
C409 H399 0.929 . S
C409 C407 1.433 . S
C409 N412 1.384 . S
C410 H401 0.929 . S
C410 C402 1.378 . S
C410 C405 1.350 . S
C411 H398 0.929 . S
C411 C403 1.433 . S
C411 N413 1.384 . S
N412 C408 1.427 . S
N412 C409 1.384 . S
N413 C405 1.427 . S
N413 C411 1.384 . S
H414 C420 0.930 . S
H415 C424 0.930 . S
H416 C429 0.929 . S
H417 C427 0.929 . S
H418 C422 0.930 1_545 S
H419 C428 0.929 1_655 S
C420 H414 0.930 . S
C420 C421 1.367 . S
C420 C428 1.378 . S
C421 C420 1.367 . S
C421 C429 1.433 . S
C422 H418 0.930 1_565 S
C422 C424 1.373 1_565 S
C422 C426 1.354 . S
C423 C426 1.463 . S
C423 C428 1.350 . S
C423 N431 1.427 . S
C424 H415 0.930 . S
C424 C422 1.373 1_545 S
C424 C425 1.367 1_455 S
C425 C424 1.367 1_655 S
C425 C427 1.433 1_545 S
C426 C422 1.354 . S
C426 C423 1.463 . S
C426 N430 1.427 1_455 S
C427 H417 0.929 . S
C427 C425 1.433 1_565 S
C427 N430 1.384 . S
C428 H419 0.929 1_455 S
C428 C420 1.378 . S
C428 C423 1.350 . S
C429 H416 0.929 . S
C429 C421 1.433 . S
C429 N431 1.384 . S
N430 C426 1.427 1_655 S
N430 C427 1.384 . S
N431 C423 1.427 . S
N431 C429 1.384 . S
H432 C438 0.930 . S
H433 C442 0.930 . S
H434 C447 0.929 . S
H435 C445 0.929 . S
H436 C440 0.929 . S
H437 C446 0.929 . S
C438 H432 0.930 . S
C438 C439 1.367 . S
C438 C446 1.378 . S
C439 C438 1.367 . S
C439 C447 1.433 . S
C440 H436 0.929 . S
C440 C442 1.378 . S
C440 C444 1.350 . S
C441 C444 1.463 . S
C441 C446 1.350 . S
C441 N449 1.427 . S
C442 H433 0.930 . S
C442 C440 1.378 . S
C442 C443 1.367 . S
C443 C442 1.367 . S
C443 C445 1.433 . S
C444 C440 1.350 . S
C444 C441 1.463 . S
C444 N448 1.427 . S
C445 H435 0.929 . S
C445 C443 1.433 . S
C445 N448 1.384 . S
C446 H437 0.929 . S
C446 C438 1.378 . S
C446 C441 1.350 . S
C447 H434 0.929 . S
C447 C439 1.433 . S
C447 N449 1.384 . S
N448 C444 1.427 . S
N448 C445 1.384 . S
N449 C441 1.427 . S
N449 C447 1.384 . S
H450 C456 0.930 . S
H451 C460 0.930 . S
H452 C465 0.929 . S
H453 C463 0.929 . S
H454 C458 0.929 . S
H455 C464 0.929 . S
C456 H450 0.930 . S
C456 C457 1.367 . S
C456 C464 1.378 . S
C457 C456 1.367 . S
C457 C465 1.433 . S
C458 H454 0.929 . S
C458 C460 1.378 . S
C458 C462 1.350 . S
C459 C462 1.463 . S
C459 C464 1.350 . S
C459 N467 1.427 . S
C460 H451 0.930 . S
C460 C458 1.378 . S
C460 C461 1.367 . S
C461 C460 1.367 . S
C461 C463 1.433 . S
C462 C458 1.350 . S
C462 C459 1.463 . S
C462 N466 1.427 . S
C463 H453 0.929 . S
C463 C461 1.433 . S
C463 N466 1.384 . S
C464 H455 0.929 . S
C464 C456 1.378 . S
C464 C459 1.350 . S
C465 H452 0.929 . S
C465 C457 1.433 . S
C465 N467 1.384 . S
N466 C462 1.427 . S
N466 C463 1.384 . S
N467 C459 1.427 . S
N467 C465 1.384 . S
H468 C474 0.930 . S
H469 C478 0.930 . S
H470 C483 0.929 . S
H471 C481 0.929 . S
H472 C476 0.929 . S
H473 C482 0.929 . S
C474 H468 0.930 . S
C474 C475 1.367 . S
C474 C482 1.378 . S
C475 C474 1.367 . S
C475 C483 1.433 . S
C476 H472 0.929 . S
C476 C478 1.378 . S
C476 C480 1.350 . S
C477 C480 1.463 . S
C477 C482 1.350 . S
C477 N485 1.427 . S
C478 H469 0.930 . S
C478 C476 1.378 . S
C478 C479 1.367 . S
C479 C478 1.367 . S
C479 C481 1.433 . S
C480 C476 1.350 . S
C480 C477 1.463 . S
C480 N484 1.427 . S
C481 H471 0.929 . S
C481 C479 1.433 . S
C481 N484 1.384 . S
C482 H473 0.929 . S
C482 C474 1.378 . S
C482 C477 1.350 . S
C483 H470 0.929 . S
C483 C475 1.433 . S
C483 N485 1.384 . S
N484 C480 1.427 . S
N484 C481 1.384 . S
N485 C477 1.427 . S
N485 C483 1.384 . S
H486 C492 0.930 1_545 S
H487 C496 0.930 . S
H488 C501 0.929 . S
H489 C499 0.929 . S
H490 C494 0.929 . S
H491 C500 0.929 1_545 S
C492 H486 0.930 1_565 S
C492 C493 1.367 . S
C492 C500 1.378 . S
C493 C492 1.367 . S
C493 C501 1.433 . S
C494 H490 0.929 . S
C494 C496 1.378 . S
C494 C498 1.350 . S
C495 C498 1.463 . S
C495 C500 1.350 . S
C495 N503 1.427 . S
C496 H487 0.930 . S
C496 C494 1.378 . S
C496 C497 1.367 . S
C497 C496 1.367 . S
C497 C499 1.433 1_565 S
C498 C494 1.350 . S
C498 C495 1.463 . S
C498 N502 1.427 1_565 S
C499 H489 0.929 . S
C499 C497 1.433 1_545 S
C499 N502 1.384 . S
C500 H491 0.929 1_565 S
C500 C492 1.378 . S
C500 C495 1.350 . S
C501 H488 0.929 . S
C501 C493 1.433 . S
C501 N503 1.384 . S
N502 C498 1.427 1_545 S
N502 C499 1.384 . S
N503 C495 1.427 . S
N503 C501 1.384 . S
H504 C510 0.930 . S
H505 C514 0.930 . S
H506 C519 0.929 . S
H507 C517 0.929 . S
H508 C512 0.929 . S
H509 C518 0.929 . S
C510 H504 0.930 . S
C510 C511 1.367 . S
C510 C518 1.378 . S
C511 C510 1.367 . S
C511 C519 1.433 . S
C512 H508 0.929 . S
C512 C514 1.378 . S
C512 C516 1.350 . S
C513 C516 1.463 . S
C513 C518 1.350 . S
C513 N521 1.427 . S
C514 H505 0.930 . S
C514 C512 1.378 . S
C514 C515 1.367 . S
C515 C514 1.367 . S
C515 C517 1.433 . S
C516 C512 1.350 . S
C516 C513 1.463 . S
C516 N520 1.427 . S
C517 H507 0.929 . S
C517 C515 1.433 . S
C517 N520 1.384 . S
C518 H509 0.929 . S
C518 C510 1.378 . S
C518 C513 1.350 . S
C519 H506 0.929 . S
C519 C511 1.433 . S
C519 N521 1.384 . S
N520 C516 1.427 . S
N520 C517 1.384 . S
N521 C513 1.427 . S
N521 C519 1.384 . S
H522 C528 0.930 . S
H523 C532 0.930 . S
H524 C537 0.929 . S
H525 C535 0.929 . S
H526 C530 0.929 . S
H527 C536 0.929 . S
C528 H522 0.930 . S
C528 C529 1.367 . S
C528 C536 1.378 . S
C529 C528 1.367 . S
C529 C537 1.433 . S
C530 H526 0.929 . S
C530 C532 1.378 . S
C530 C534 1.350 . S
C531 C534 1.463 . S
C531 C536 1.350 . S
C531 N539 1.427 . S
C532 H523 0.930 . S
C532 C530 1.378 . S
C532 C533 1.367 . S
C533 C532 1.367 . S
C533 C535 1.433 . S
C534 C530 1.350 . S
C534 C531 1.463 . S
C534 N538 1.427 . S
C535 H525 0.929 . S
C535 C533 1.433 . S
C535 N538 1.384 . S
C536 H527 0.929 . S
C536 C528 1.378 . S
C536 C531 1.350 . S
C537 H524 0.929 . S
C537 C529 1.433 . S
C537 N539 1.384 . S
N538 C534 1.427 . S
N538 C535 1.384 . S
N539 C531 1.427 . S
N539 C537 1.384 . S
H540 C546 0.930 . S
H541 C550 0.930 . S
H542 C555 0.929 . S
H543 C553 0.929 . S
H544 C548 0.929 . S
H545 C554 0.929 . S
C546 H540 0.930 . S
C546 C547 1.367 . S
C546 C554 1.378 . S
C547 C546 1.367 . S
C547 C555 1.433 . S
C548 H544 0.929 . S
C548 C550 1.378 . S
C548 C552 1.350 . S
C549 C552 1.463 . S
C549 C554 1.350 . S
C549 N557 1.427 . S
C550 H541 0.930 . S
C550 C548 1.378 . S
C550 C551 1.367 . S
C551 C550 1.367 . S
C551 C553 1.433 . S
C552 C548 1.350 . S
C552 C549 1.463 . S
C552 N556 1.427 . S
C553 H543 0.929 . S
C553 C551 1.433 . S
C553 N556 1.384 . S
C554 H545 0.929 . S
C554 C546 1.378 . S
C554 C549 1.350 . S
C555 H542 0.929 . S
C555 C547 1.433 . S
C555 N557 1.384 . S
N556 C552 1.427 . S
N556 C553 1.384 . S
N557 C549 1.427 . S
N557 C555 1.384 . S
H558 C564 0.930 . S
H559 C568 0.930 . S
H560 C573 0.929 . S
H561 C571 0.929 . S
H562 C566 0.929 . S
H563 C572 0.929 . S
C564 H558 0.930 . S
C564 C565 1.367 . S
C564 C572 1.378 . S
C565 C564 1.367 . S
C565 C573 1.433 . S
C566 H562 0.929 . S
C566 C568 1.378 . S
C566 C570 1.350 . S
C567 C570 1.463 . S
C567 C572 1.350 . S
C567 N575 1.427 . S
C568 H559 0.930 . S
C568 C566 1.378 . S
C568 C569 1.367 . S
C569 C568 1.367 . S
C569 C571 1.433 . S
C570 C566 1.350 . S
C570 C567 1.463 . S
C570 N574 1.427 . S
C571 H561 0.929 . S
C571 C569 1.433 . S
C571 N574 1.384 . S
C572 H563 0.929 . S
C572 C564 1.378 . S
C572 C567 1.350 . S
C573 H560 0.929 . S
C573 C565 1.433 . S
C573 N575 1.384 . S
N574 C570 1.427 . S
N574 C571 1.384 . S
N575 C567 1.427 . S
N575 C573 1.384 . S
H576 C582 0.930 . S
H577 C586 0.930 . S
H578 C591 0.929 . S
H579 C589 0.929 . S
H580 C584 0.929 . S
H581 C590 0.929 . S
C582 H576 0.930 . S
C582 C583 1.367 . S
C582 C590 1.378 . S
C583 C582 1.367 . S
C583 C591 1.433 . S
C584 H580 0.929 . S
C584 C586 1.378 . S
C584 C588 1.350 . S
C585 C588 1.463 . S
C585 C590 1.350 . S
C585 N593 1.427 . S
C586 H577 0.930 . S
C586 C584 1.378 . S
C586 C587 1.367 . S
C587 C586 1.367 . S
C587 C589 1.433 . S
C588 C584 1.350 . S
C588 C585 1.463 . S
C588 N592 1.427 . S
C589 H579 0.929 . S
C589 C587 1.433 . S
C589 N592 1.384 . S
C590 H581 0.929 . S
C590 C582 1.378 . S
C590 C585 1.350 . S
C591 H578 0.929 . S
C591 C583 1.433 . S
C591 N593 1.384 . S
N592 C588 1.427 . S
N592 C589 1.384 . S
N593 C585 1.427 . S
N593 C591 1.384 . S
H594 C600 0.930 . S
H595 C604 0.930 . S
H596 C609 0.929 . S
H597 C607 0.929 . S
H598 C602 0.929 . S
H599 C608 0.929 . S
C600 H594 0.930 . S
C600 C601 1.367 . S
C600 C608 1.378 . S
C601 C600 1.367 . S
C601 C609 1.433 . S
C602 H598 0.929 . S
C602 C604 1.378 . S
C602 C606 1.350 . S
C603 C606 1.463 . S
C603 C608 1.350 . S
C603 N611 1.427 . S
C604 H595 0.930 . S
C604 C602 1.378 . S
C604 C605 1.367 . S
C605 C604 1.367 . S
C605 C607 1.433 . S
C606 C602 1.350 . S
C606 C603 1.463 . S
C606 N610 1.427 . S
C607 H597 0.929 . S
C607 C605 1.433 . S
C607 N610 1.384 . S
C608 H599 0.929 . S
C608 C600 1.378 . S
C608 C603 1.350 . S
C609 H596 0.929 . S
C609 C601 1.433 . S
C609 N611 1.384 . S
N610 C606 1.427 . S
N610 C607 1.384 . S
N611 C603 1.427 . S
N611 C609 1.384 . S
H612 C618 0.930 . S
H613 C622 0.930 . S
H614 C627 0.929 . S
H615 C625 0.929 . S
H616 C620 0.929 . S
H617 C626 0.929 . S
C618 H612 0.930 . S
C618 C619 1.367 . S
C618 C626 1.378 . S
C619 C618 1.367 . S
C619 C627 1.433 . S
C620 H616 0.929 . S
C620 C622 1.378 . S
C620 C624 1.350 . S
C621 C624 1.463 . S
C621 C626 1.350 . S
C621 N629 1.427 . S
C622 H613 0.930 . S
C622 C620 1.378 . S
C622 C623 1.367 . S
C623 C622 1.367 . S
C623 C625 1.433 . S
C624 C620 1.350 . S
C624 C621 1.463 . S
C624 N628 1.427 . S
C625 H615 0.929 . S
C625 C623 1.433 . S
C625 N628 1.384 . S
C626 H617 0.929 . S
C626 C618 1.378 . S
C626 C621 1.350 . S
C627 H614 0.929 . S
C627 C619 1.433 . S
C627 N629 1.384 . S
N628 C624 1.427 . S
N628 C625 1.384 . S
N629 C621 1.427 . S
N629 C627 1.384 . S
H630 C636 0.930 1_455 S
H631 C640 0.930 . S
H632 C645 0.929 . S
H633 C643 0.929 . S
H634 C638 0.929 . S
H635 C644 0.918 1_455 S
C636 H630 0.930 1_655 S
C636 C637 1.367 . S
C636 C644 1.379 . S
C637 C636 1.367 . S
C637 C645 1.433 . S
C638 H634 0.929 . S
C638 C640 1.378 . S
C638 C642 1.350 . S
C639 C642 1.463 . S
C639 C644 1.359 . S
C639 N647 1.427 . S
C640 H631 0.930 . S
C640 C638 1.378 . S
C640 C641 1.367 1_655 S
C641 C640 1.367 1_455 S
C641 C643 1.433 . S
C642 C638 1.350 . S
C642 C639 1.463 . S
C642 N646 1.427 1_655 S
C643 H633 0.929 . S
C643 C641 1.433 . S
C643 N646 1.384 . S
C644 H635 0.918 1_655 S
C644 C636 1.379 . S
C644 C639 1.359 . S
C645 H632 0.929 . S
C645 C637 1.433 . S
C645 N647 1.384 . S
N646 C642 1.427 1_455 S
N646 C643 1.384 . S
N647 C639 1.427 . S
N647 C645 1.384 . S
H648 C654 0.930 . S
H649 C658 0.930 . S
H650 C663 0.929 . S
H651 C661 0.929 . S
H652 C656 0.929 . S
H653 C662 0.929 . S
C654 H648 0.930 . S
C654 C655 1.367 . S
C654 C662 1.378 . S
C655 C654 1.367 . S
C655 C663 1.433 . S
C656 H652 0.929 . S
C656 C658 1.378 . S
C656 C660 1.350 . S
C657 C660 1.463 . S
C657 C662 1.350 . S
C657 N665 1.427 . S
C658 H649 0.930 . S
C658 C656 1.378 . S
C658 C659 1.367 . S
C659 C658 1.367 . S
C659 C661 1.433 . S
C660 C656 1.350 . S
C660 C657 1.463 . S
C660 N664 1.427 . S
C661 H651 0.929 . S
C661 C659 1.433 . S
C661 N664 1.384 . S
C662 H653 0.929 . S
C662 C654 1.378 . S
C662 C657 1.350 . S
C663 H650 0.929 . S
C663 C655 1.433 . S
C663 N665 1.384 . S
N664 C660 1.427 . S
N664 C661 1.384 . S
N665 C657 1.427 . S
N665 C663 1.384 . S
H666 C672 0.930 . S
H667 C676 0.930 . S
H668 C681 0.929 . S
H669 C679 0.929 . S
H670 C674 0.929 . S
H671 C680 0.929 . S
C672 H666 0.930 . S
C672 C673 1.367 . S
C672 C680 1.378 . S
C673 C672 1.367 . S
C673 C681 1.433 . S
C674 H670 0.929 . S
C674 C676 1.378 . S
C674 C678 1.350 . S
C675 C678 1.463 . S
C675 C680 1.350 . S
C675 N683 1.427 . S
C676 H667 0.930 . S
C676 C674 1.378 . S
C676 C677 1.367 . S
C677 C676 1.367 . S
C677 C679 1.433 . S
C678 C674 1.350 . S
C678 C675 1.463 . S
C678 N682 1.427 . S
C679 H669 0.929 . S
C679 C677 1.433 . S
C679 N682 1.384 . S
C680 H671 0.929 . S
C680 C672 1.378 . S
C680 C675 1.350 . S
C681 H668 0.929 . S
C681 C673 1.433 . S
C681 N683 1.384 . S
N682 C678 1.427 . S
N682 C679 1.384 . S
N683 C675 1.427 . S
N683 C681 1.384 . S
H684 C690 0.930 . S
H685 C694 0.930 . S
H686 C699 0.929 . S
H687 C697 0.929 . S
H688 C692 0.929 . S
H689 C698 0.929 . S
C690 H684 0.930 . S
C690 C691 1.367 1_565 S
C690 C698 1.378 . S
C691 C690 1.367 1_545 S
C691 C699 1.433 . S
C692 H688 0.929 . S
C692 C694 1.378 . S
C692 C696 1.350 1_554 S
C693 C696 1.463 . S
C693 C698 1.350 . S
C693 N701 1.427 1_565 S
C694 H685 0.930 . S
C694 C692 1.378 . S
C694 C695 1.382 . S
C695 C694 1.382 . S
C695 C697 1.397 1_554 S
C696 C692 1.350 1_556 S
C696 C693 1.463 . S
C696 N700 1.427 . S
C697 H687 0.929 . S
C697 C695 1.397 1_556 S
C697 N700 1.384 . S
C698 H689 0.929 . S
C698 C690 1.378 . S
C698 C693 1.350 . S
C699 H686 0.929 . S
C699 C691 1.433 . S
C699 N701 1.384 . S
N700 C696 1.427 . S
N700 C697 1.384 . S
N701 C693 1.427 1_545 S
N701 C699 1.384 . S
H702 C708 0.930 . S
H703 C712 0.930 . S
H704 C717 0.929 . S
H705 C715 0.929 . S
H706 C710 0.929 . S
H707 C716 0.929 . S
C708 H702 0.930 . S
C708 C709 1.367 . S
C708 C716 1.378 . S
C709 C708 1.367 . S
C709 C717 1.433 . S
C710 H706 0.929 . S
C710 C712 1.378 . S
C710 C714 1.350 . S
C711 C714 1.463 . S
C711 C716 1.350 . S
C711 N719 1.427 . S
C712 H703 0.930 . S
C712 C710 1.378 . S
C712 C713 1.367 . S
C713 C712 1.367 . S
C713 C715 1.433 . S
C714 C710 1.350 . S
C714 C711 1.463 . S
C714 N718 1.427 . S
C715 H705 0.929 . S
C715 C713 1.433 . S
C715 N718 1.384 . S
C716 H707 0.929 . S
C716 C708 1.378 . S
C716 C711 1.350 . S
C717 H704 0.929 . S
C717 C709 1.433 . S
C717 N719 1.384 . S
N718 C714 1.427 . S
N718 C715 1.384 . S
N719 C711 1.427 . S
N719 C717 1.384 . S
H720 C726 0.930 . S
H721 C730 0.930 . S
H722 C735 0.929 1_565 S
H723 C733 0.929 . S
H724 C728 0.929 . S
H725 C734 0.929 . S
C726 H720 0.930 . S
C726 C727 1.367 . S
C726 C734 1.378 . S
C727 C726 1.367 . S
C727 C735 1.433 . S
C728 H724 0.929 . S
C728 C730 1.378 . S
C728 C732 1.350 . S
C729 C732 1.463 . S
C729 C734 1.350 . S
C729 N737 1.427 . S
C730 H721 0.930 . S
C730 C728 1.378 . S
C730 C731 1.367 . S
C731 C730 1.367 . S
C731 C733 1.433 . S
C732 C728 1.350 . S
C732 C729 1.463 . S
C732 N736 1.427 . S
C733 H723 0.929 . S
C733 C731 1.433 . S
C733 N736 1.384 . S
C734 H725 0.929 . S
C734 C726 1.378 . S
C734 C729 1.350 . S
C735 H722 0.929 1_545 S
C735 C727 1.433 . S
C735 N737 1.384 . S
N736 C732 1.427 . S
N736 C733 1.384 . S
N737 C729 1.427 . S
N737 C735 1.384 . S
H738 C744 0.930 . S
H739 C748 0.930 . S
H740 C753 0.929 . S
H741 C751 0.929 . S
H742 C746 0.929 . S
H743 C752 0.929 . S
C744 H738 0.930 . S
C744 C745 1.367 . S
C744 C752 1.378 . S
C745 C744 1.367 . S
C745 C753 1.433 . S
C746 H742 0.929 . S
C746 C748 1.378 . S
C746 C750 1.350 . S
C747 C750 1.463 . S
C747 C752 1.350 . S
C747 N755 1.427 . S
C748 H739 0.930 . S
C748 C746 1.378 . S
C748 C749 1.367 . S
C749 C748 1.367 . S
C749 C751 1.433 . S
C750 C746 1.350 . S
C750 C747 1.463 . S
C750 N754 1.427 . S
C751 H741 0.929 . S
C751 C749 1.433 . S
C751 N754 1.384 . S
C752 H743 0.929 . S
C752 C744 1.378 . S
C752 C747 1.350 . S
C753 H740 0.929 . S
C753 C745 1.433 . S
C753 N755 1.384 . S
N754 C750 1.427 . S
N754 C751 1.384 . S
N755 C747 1.427 . S
N755 C753 1.384 . S
H756 C762 0.930 . S
H757 C766 0.930 . S
H758 C771 0.929 . S
H759 C769 0.929 . S
H760 C764 0.929 . S
H761 C770 0.929 . S
C762 H756 0.930 . S
C762 C763 1.367 . S
C762 C770 1.378 . S
C763 C762 1.367 . S
C763 C771 1.433 . S
C764 H760 0.929 . S
C764 C766 1.378 . S
C764 C768 1.350 . S
C765 C768 1.463 . S
C765 C770 1.350 . S
C765 N773 1.427 . S
C766 H757 0.930 . S
C766 C764 1.378 . S
C766 C767 1.367 . S
C767 C766 1.367 . S
C767 C769 1.433 . S
C768 C764 1.350 . S
C768 C765 1.463 . S
C768 N772 1.427 . S
C769 H759 0.929 . S
C769 C767 1.433 . S
C769 N772 1.384 . S
C770 H761 0.929 . S
C770 C762 1.378 . S
C770 C765 1.350 . S
C771 H758 0.929 . S
C771 C763 1.433 . S
C771 N773 1.384 . S
N772 C768 1.427 . S
N772 C769 1.384 . S
N773 C765 1.427 . S
N773 C771 1.384 . S
H774 C780 0.930 . S
H775 C784 0.930 . S
H776 C789 0.929 . S
H777 C787 0.929 . S
H778 C782 0.929 . S
H779 C788 0.929 . S
C780 H774 0.930 . S
C780 C781 1.367 . S
C780 C788 1.378 . S
C781 C780 1.367 . S
C781 C789 1.433 . S
C782 H778 0.929 . S
C782 C784 1.378 . S
C782 C786 1.350 . S
C783 C786 1.463 . S
C783 C788 1.350 . S
C783 N791 1.427 . S
C784 H775 0.930 . S
C784 C782 1.378 . S
C784 C785 1.367 . S
C785 C784 1.367 . S
C785 C787 1.433 . S
C786 C782 1.350 . S
C786 C783 1.463 . S
C786 N790 1.427 . S
C787 H777 0.929 . S
C787 C785 1.433 . S
C787 N790 1.384 . S
C788 H779 0.929 . S
C788 C780 1.378 . S
C788 C783 1.350 . S
C789 H776 0.929 . S
C789 C781 1.433 . S
C789 N791 1.384 . S
N790 C786 1.427 . S
N790 C787 1.384 . S
N791 C783 1.427 . S
N791 C789 1.384 . S
H792 C798 0.930 . S
H793 C802 0.930 . S
H794 C807 0.929 . S
H795 C805 0.929 . S
H796 C800 0.929 . S
H797 C806 0.929 . S
C798 H792 0.930 . S
C798 C799 1.367 . S
C798 C806 1.378 . S
C799 C798 1.367 . S
C799 C807 1.433 . S
C800 H796 0.929 . S
C800 C802 1.378 . S
C800 C804 1.350 . S
C801 C804 1.463 . S
C801 C806 1.350 . S
C801 N809 1.427 . S
C802 H793 0.930 . S
C802 C800 1.378 . S
C802 C803 1.367 . S
C803 C802 1.367 . S
C803 C805 1.433 . S
C804 C800 1.350 . S
C804 C801 1.463 . S
C804 N808 1.427 . S
C805 H795 0.929 . S
C805 C803 1.433 . S
C805 N808 1.384 . S
C806 H797 0.929 . S
C806 C798 1.378 . S
C806 C801 1.350 . S
C807 H794 0.929 . S
C807 C799 1.433 . S
C807 N809 1.384 . S
N808 C804 1.427 . S
N808 C805 1.384 . S
N809 C801 1.427 . S
N809 C807 1.384 . S
H810 C816 0.930 . S
H811 C820 0.930 . S
H812 C825 0.929 . S
H813 C823 0.929 . S
H814 C818 0.929 1_565 S
H815 C824 0.929 . S
C816 H810 0.930 . S
C816 C817 1.367 . S
C816 C824 1.378 . S
C817 C816 1.367 . S
C817 C825 1.433 . S
C818 H814 0.929 1_545 S
C818 C820 1.378 1_545 S
C818 C822 1.350 . S
C819 C822 1.463 . S
C819 C824 1.350 . S
C819 N827 1.427 . S
C820 H811 0.930 . S
C820 C818 1.378 1_565 S
C820 C821 1.367 1_565 S
C821 C820 1.367 1_545 S
C821 C823 1.433 . S
C822 C818 1.350 . S
C822 C819 1.463 . S
C822 N826 1.427 . S
C823 H813 0.929 . S
C823 C821 1.433 . S
C823 N826 1.384 . S
C824 H815 0.929 . S
C824 C816 1.378 . S
C824 C819 1.350 . S
C825 H812 0.929 . S
C825 C817 1.433 . S
C825 N827 1.384 . S
N826 C822 1.427 . S
N826 C823 1.384 . S
N827 C819 1.427 . S
N827 C825 1.384 . S
H828 C834 0.930 . S
H829 C838 0.930 . S
H830 C843 0.929 . S
H831 C841 0.929 . S
H832 C836 0.929 . S
H833 C842 0.929 . S
C834 H828 0.930 . S
C834 C835 1.367 . S
C834 C842 1.378 . S
C835 C834 1.367 . S
C835 C843 1.433 . S
C836 H832 0.929 . S
C836 C838 1.378 . S
C836 C840 1.350 . S
C837 C840 1.463 . S
C837 C842 1.350 . S
C837 N845 1.427 . S
C838 H829 0.930 . S
C838 C836 1.378 . S
C838 C839 1.367 . S
C839 C838 1.367 . S
C839 C841 1.433 . S
C840 C836 1.350 . S
C840 C837 1.463 . S
C840 N844 1.427 . S
C841 H831 0.929 . S
C841 C839 1.433 . S
C841 N844 1.384 . S
C842 H833 0.929 . S
C842 C834 1.378 . S
C842 C837 1.350 . S
C843 H830 0.929 . S
C843 C835 1.433 . S
C843 N845 1.384 . S
N844 C840 1.427 . S
N844 C841 1.384 . S
N845 C837 1.427 . S
N845 C843 1.384 . S
H846 C852 0.930 . S
H847 C856 0.930 . S
H848 C861 0.929 . S
H849 C859 0.929 . S
H850 C854 0.929 . S
H851 C860 0.929 . S
C852 H846 0.930 . S
C852 C853 1.367 . S
C852 C860 1.378 . S
C853 C852 1.367 . S
C853 C861 1.433 . S
C854 H850 0.929 . S
C854 C856 1.378 . S
C854 C858 1.350 . S
C855 C858 1.463 . S
C855 C860 1.350 . S
C855 N863 1.427 . S
C856 H847 0.930 . S
C856 C854 1.378 . S
C856 C857 1.367 . S
C857 C856 1.367 . S
C857 C859 1.433 . S
C858 C854 1.350 . S
C858 C855 1.463 . S
C858 N862 1.427 . S
C859 H849 0.929 . S
C859 C857 1.433 . S
C859 N862 1.384 . S
C860 H851 0.929 . S
C860 C852 1.378 . S
C860 C855 1.350 . S
C861 H848 0.929 . S
C861 C853 1.433 . S
C861 N863 1.384 . S
N862 C858 1.427 . S
N862 C859 1.384 . S
N863 C855 1.427 . S
N863 C861 1.384 . S
H864 C870 0.930 . S
H865 C874 0.930 . S
H866 C879 0.929 . S
H867 C877 0.929 . S
H868 C872 0.929 . S
H869 C878 0.929 . S
C870 H864 0.930 . S
C870 C871 1.367 . S
C870 C878 1.378 . S
C871 C870 1.367 . S
C871 C879 1.433 . S
C872 H868 0.929 . S
C872 C874 1.378 . S
C872 C876 1.350 . S
C873 C876 1.463 . S
C873 C878 1.350 . S
C873 N881 1.427 . S
C874 H865 0.930 . S
C874 C872 1.378 . S
C874 C875 1.367 . S
C875 C874 1.367 . S
C875 C877 1.433 . S
C876 C872 1.350 . S
C876 C873 1.463 . S
C876 N880 1.427 . S
C877 H867 0.929 . S
C877 C875 1.433 . S
C877 N880 1.384 . S
C878 H869 0.929 . S
C878 C870 1.378 . S
C878 C873 1.350 . S
C879 H866 0.929 . S
C879 C871 1.433 . S
C879 N881 1.384 . S
N880 C876 1.427 . S
N880 C877 1.384 . S
N881 C873 1.427 . S
N881 C879 1.384 . S
H882 C888 0.930 . S
H883 C892 0.930 . S
H884 C897 0.929 . S
H885 C895 0.929 . S
H886 C890 0.929 . S
H887 C896 0.957 . S
C888 H882 0.930 . S
C888 C889 1.367 . S
C888 C896 1.363 1_455 S
C889 C888 1.367 . S
C889 C897 1.433 . S
C890 H886 0.929 . S
C890 C892 1.378 . S
C890 C894 1.350 . S
C891 C894 1.463 . S
C891 C896 1.336 1_455 S
C891 N899 1.427 . S
C892 H883 0.930 . S
C892 C890 1.378 . S
C892 C893 1.367 1_455 S
C893 C892 1.367 1_655 S
C893 C895 1.433 . S
C894 C890 1.350 . S
C894 C891 1.463 . S
C894 N898 1.427 1_455 S
C895 H885 0.929 . S
C895 C893 1.433 . S
C895 N898 1.384 . S
C896 H887 0.957 . S
C896 C888 1.363 1_655 S
C896 C891 1.336 1_655 S
C897 H884 0.929 . S
C897 C889 1.433 . S
C897 N899 1.384 . S
N898 C894 1.427 1_655 S
N898 C895 1.384 . S
N899 C891 1.427 . S
N899 C897 1.384 . S
H900 C906 0.930 . S
H901 C910 0.930 . S
H902 C915 0.929 . S
H903 C913 0.929 . S
H904 C908 0.929 . S
H905 C914 0.929 . S
C906 H900 0.930 . S
C906 C907 1.367 . S
C906 C914 1.378 . S
C907 C906 1.367 . S
C907 C915 1.433 . S
C908 H904 0.929 . S
C908 C910 1.378 . S
C908 C912 1.350 . S
C909 C912 1.463 . S
C909 C914 1.350 . S
C909 N917 1.427 . S
C910 H901 0.930 . S
C910 C908 1.378 . S
C910 C911 1.367 . S
C911 C910 1.367 . S
C911 C913 1.433 . S
C912 C908 1.350 . S
C912 C909 1.463 . S
C912 N916 1.427 . S
C913 H903 0.929 . S
C913 C911 1.433 . S
C913 N916 1.384 . S
C914 H905 0.929 . S
C914 C906 1.378 . S
C914 C909 1.350 . S
C915 H902 0.929 . S
C915 C907 1.433 . S
C915 N917 1.384 . S
N916 C912 1.427 . S
N916 C913 1.384 . S
N917 C909 1.427 . S
N917 C915 1.384 . S
H918 C924 0.930 . S
H919 C928 0.930 . S
H920 C933 0.929 . S
H921 C931 0.929 . S
H922 C926 0.929 . S
H923 C932 0.929 . S
C924 H918 0.930 . S
C924 C925 1.367 . S
C924 C932 1.378 1_655 S
C925 C924 1.367 . S
C925 C933 1.433 1_655 S
C926 H922 0.929 . S
C926 C928 1.378 . S
C926 C930 1.350 . S
C927 C930 1.463 . S
C927 C932 1.350 . S
C927 N935 1.427 . S
C928 H919 0.930 . S
C928 C926 1.378 . S
C928 C929 1.367 . S
C929 C928 1.367 . S
C929 C931 1.433 . S
C930 C926 1.350 . S
C930 C927 1.463 . S
C930 N934 1.427 . S
C931 H921 0.929 . S
C931 C929 1.433 . S
C931 N934 1.384 . S
C932 H923 0.929 . S
C932 C924 1.378 1_455 S
C932 C927 1.350 . S
C933 H920 0.929 . S
C933 C925 1.433 1_455 S
C933 N935 1.384 . S
N934 C930 1.427 . S
N934 C931 1.384 . S
N935 C927 1.427 . S
N935 C933 1.384 . S
H936 C942 0.930 . S
H937 C946 0.930 . S
H938 C951 0.929 . S
H939 C949 0.929 . S
H940 C944 0.929 . S
H941 C950 0.929 . S
C942 H936 0.930 . S
C942 C943 1.367 . S
C942 C950 1.378 . S
C943 C942 1.367 . S
C943 C951 1.433 . S
C944 H940 0.929 . S
C944 C946 1.378 . S
C944 C948 1.350 . S
C945 C948 1.463 . S
C945 C950 1.350 . S
C945 N953 1.427 . S
C946 H937 0.930 . S
C946 C944 1.378 . S
C946 C947 1.367 . S
C947 C946 1.367 . S
C947 C949 1.433 . S
C948 C944 1.350 . S
C948 C945 1.463 . S
C948 N952 1.427 . S
C949 H939 0.929 . S
C949 C947 1.433 . S
C949 N952 1.384 . S
C950 H941 0.929 . S
C950 C942 1.378 . S
C950 C945 1.350 . S
C951 H938 0.929 . S
C951 C943 1.433 . S
C951 N953 1.384 . S
N952 C948 1.427 . S
N952 C949 1.384 . S
N953 C945 1.427 . S
N953 C951 1.384 . S
H954 C960 0.930 . S
H955 C964 0.930 . S
H956 C969 0.929 . S
H957 C967 0.929 . S
H958 C962 0.929 1_455 S
H959 C968 0.929 . S
C960 H954 0.930 . S
C960 C961 1.367 . S
C960 C968 1.378 1_554 S
C961 C960 1.367 . S
C961 C969 1.433 1_554 S
C962 H958 0.929 1_655 S
C962 C964 1.378 1_655 S
C962 C966 1.350 . S
C963 C966 1.463 . S
C963 C968 1.350 . S
C963 N971 1.427 . S
C964 H955 0.930 . S
C964 C962 1.378 1_455 S
C964 C965 1.367 1_455 S
C965 C964 1.367 1_655 S
C965 C967 1.433 . S
C966 C962 1.350 . S
C966 C963 1.463 . S
C966 N970 1.427 . S
C967 H957 0.929 . S
C967 C965 1.433 . S
C967 N970 1.384 . S
C968 H959 0.929 . S
C968 C960 1.378 1_556 S
C968 C963 1.350 . S
C969 H956 0.929 . S
C969 C961 1.433 1_556 S
C969 N971 1.384 . S
N970 C966 1.427 . S
N970 C967 1.384 . S
N971 C963 1.427 . S
N971 C969 1.384 . S
H972 C978 0.930 . S
H973 C982 0.930 . S
H974 C987 0.929 . S
H975 C985 0.929 . S
H976 C980 0.929 . S
H977 C986 0.929 . S
C978 H972 0.930 . S
C978 C979 1.367 . S
C978 C986 1.378 . S
C979 C978 1.367 . S
C979 C987 1.433 . S
C980 H976 0.929 . S
C980 C982 1.378 . S
C980 C984 1.350 . S
C981 C984 1.463 . S
C981 C986 1.350 . S
C981 N989 1.427 . S
C982 H973 0.930 . S
C982 C980 1.378 . S
C982 C983 1.367 . S
C983 C982 1.367 . S
C983 C985 1.433 . S
C984 C980 1.350 . S
C984 C981 1.463 . S
C984 N988 1.427 . S
C985 H975 0.929 . S
C985 C983 1.433 . S
C985 N988 1.384 . S
C986 H977 0.929 . S
C986 C978 1.378 . S
C986 C981 1.350 . S
C987 H974 0.929 . S
C987 C979 1.433 . S
C987 N989 1.384 . S
N988 C984 1.427 . S
N988 C985 1.384 . S
N989 C981 1.427 . S
N989 C987 1.384 . S
H990 C996 0.930 . S
H991 C1000 0.930 1_655 S
H992 C1005 0.929 . S
H993 C1003 0.929 . S
H994 C998 0.929 1_655 S
H995 C1004 0.929 . S
C996 H990 0.930 . S
C996 C997 1.367 . S
C996 C1004 1.378 . S
C997 C996 1.367 . S
C997 C1005 1.433 . S
C998 H994 0.929 1_455 S
C998 C1000 1.378 . S
C998 C1002 1.350 . S
C999 C1002 1.463 . S
C999 C1004 1.350 . S
C999 N1007 1.427 . S
C1000 H991 0.930 1_455 S
C1000 C998 1.378 . S
C1000 C1001 1.367 . S
C1001 C1000 1.367 . S
C1001 C1003 1.433 . S
C1002 C998 1.350 . S
C1002 C999 1.463 . S
C1002 N1006 1.427 . S
C1003 H993 0.929 . S
C1003 C1001 1.433 . S
C1003 N1006 1.384 . S
C1004 H995 0.929 . S
C1004 C996 1.378 . S
C1004 C999 1.350 . S
C1005 H992 0.929 . S
C1005 C997 1.433 . S
C1005 N1007 1.384 . S
N1006 C1002 1.427 . S
N1006 C1003 1.384 . S
N1007 C999 1.427 . S
N1007 C1005 1.384 . S
H1008 C1014 0.930 . S
H1009 C1018 0.930 . S
H1010 C1023 0.929 . S
H1011 C1021 0.929 . S
H1012 C1016 0.929 . S
H1013 C1022 0.929 . S
C1014 H1008 0.930 . S
C1014 C1015 1.367 . S
C1014 C1022 1.378 . S
C1015 C1014 1.367 . S
C1015 C1023 1.433 . S
C1016 H1012 0.929 . S
C1016 C1018 1.378 . S
C1016 C1020 1.350 . S
C1017 C1020 1.463 . S
C1017 C1022 1.350 . S
C1017 N1025 1.427 . S
C1018 H1009 0.930 . S
C1018 C1016 1.378 . S
C1018 C1019 1.367 . S
C1019 C1018 1.367 . S
C1019 C1021 1.433 . S
C1020 C1016 1.350 . S
C1020 C1017 1.463 . S
C1020 N1024 1.427 . S
C1021 H1011 0.929 . S
C1021 C1019 1.433 . S
C1021 N1024 1.384 . S
C1022 H1013 0.929 . S
C1022 C1014 1.378 . S
C1022 C1017 1.350 . S
C1023 H1010 0.929 . S
C1023 C1015 1.433 . S
C1023 N1025 1.384 . S
N1024 C1020 1.427 . S
N1024 C1021 1.384 . S
N1025 C1017 1.427 . S
N1025 C1023 1.384 . S
H1026 C1032 0.930 . S
H1027 C1036 0.930 . S
H1028 C1041 0.929 . S
H1029 C1039 0.929 . S
H1030 C1034 0.929 . S
H1031 C1040 0.929 . S
C1032 H1026 0.930 . S
C1032 C1033 1.367 . S
C1032 C1040 1.378 . S
C1033 C1032 1.367 . S
C1033 C1041 1.433 . S
C1034 H1030 0.929 . S
C1034 C1036 1.378 . S
C1034 C1038 1.350 . S
C1035 C1038 1.463 . S
C1035 C1040 1.350 . S
C1035 N1043 1.427 . S
C1036 H1027 0.930 . S
C1036 C1034 1.378 . S
C1036 C1037 1.367 . S
C1037 C1036 1.367 . S
C1037 C1039 1.433 . S
C1038 C1034 1.350 . S
C1038 C1035 1.463 . S
C1038 N1042 1.427 . S
C1039 H1029 0.929 . S
C1039 C1037 1.433 . S
C1039 N1042 1.384 . S
C1040 H1031 0.929 . S
C1040 C1032 1.378 . S
C1040 C1035 1.350 . S
C1041 H1028 0.929 . S
C1041 C1033 1.433 . S
C1041 N1043 1.384 . S
N1042 C1038 1.427 . S
N1042 C1039 1.384 . S
N1043 C1035 1.427 . S
N1043 C1041 1.384 . S
H1044 C1050 0.930 . S
H1045 C1054 0.930 . S
H1046 C1059 0.929 . S
H1047 C1057 0.929 . S
H1048 C1052 0.929 . S
H1049 C1058 0.929 . S
C1050 H1044 0.930 . S
C1050 C1051 1.367 . S
C1050 C1058 1.378 . S
C1051 C1050 1.367 . S
C1051 C1059 1.433 . S
C1052 H1048 0.929 . S
C1052 C1054 1.378 . S
C1052 C1056 1.350 . S
C1053 C1056 1.463 . S
C1053 C1058 1.350 . S
C1053 N1061 1.427 . S
C1054 H1045 0.930 . S
C1054 C1052 1.378 . S
C1054 C1055 1.367 . S
C1055 C1054 1.367 . S
C1055 C1057 1.433 . S
C1056 C1052 1.350 . S
C1056 C1053 1.463 . S
C1056 N1060 1.427 . S
C1057 H1047 0.929 . S
C1057 C1055 1.433 . S
C1057 N1060 1.384 . S
C1058 H1049 0.929 . S
C1058 C1050 1.378 . S
C1058 C1053 1.350 . S
C1059 H1046 0.929 . S
C1059 C1051 1.433 . S
C1059 N1061 1.384 . S
N1060 C1056 1.427 . S
N1060 C1057 1.384 . S
N1061 C1053 1.427 . S
N1061 C1059 1.384 . S
H1062 C1068 0.930 . S
H1063 C1072 0.930 . S
H1064 C1077 0.929 . S
H1065 C1075 0.929 . S
H1066 C1070 0.929 . S
H1067 C1076 0.929 . S
C1068 H1062 0.930 . S
C1068 C1069 1.367 . S
C1068 C1076 1.378 1_556 S
C1069 C1068 1.367 . S
C1069 C1077 1.433 1_556 S
C1070 H1066 0.929 . S
C1070 C1072 1.378 . S
C1070 C1074 1.350 . S
C1071 C1074 1.463 . S
C1071 C1076 1.350 . S
C1071 N1079 1.427 . S
C1072 H1063 0.930 . S
C1072 C1070 1.378 . S
C1072 C1073 1.367 . S
C1073 C1072 1.367 . S
C1073 C1075 1.433 . S
C1074 C1070 1.350 . S
C1074 C1071 1.463 . S
C1074 N1078 1.427 . S
C1075 H1065 0.929 . S
C1075 C1073 1.433 . S
C1075 N1078 1.384 . S
C1076 H1067 0.929 . S
C1076 C1068 1.378 1_554 S
C1076 C1071 1.350 . S
C1077 H1064 0.929 . S
C1077 C1069 1.433 1_554 S
C1077 N1079 1.384 . S
N1078 C1074 1.427 . S
N1078 C1075 1.384 . S
N1079 C1071 1.427 . S
N1079 C1077 1.384 . S
H1080 C1086 0.930 . S
H1081 C1090 0.930 . S
H1082 C1095 0.929 . S
H1083 C1093 0.929 . S
H1084 C1088 0.929 . S
H1085 C1094 0.929 . S
C1086 H1080 0.930 . S
C1086 C1087 1.367 . S
C1086 C1094 1.378 . S
C1087 C1086 1.367 . S
C1087 C1095 1.433 . S
C1088 H1084 0.929 . S
C1088 C1090 1.378 . S
C1088 C1092 1.350 . S
C1089 C1092 1.463 . S
C1089 C1094 1.350 . S
C1089 N1097 1.427 . S
C1090 H1081 0.930 . S
C1090 C1088 1.378 . S
C1090 C1091 1.367 . S
C1091 C1090 1.367 . S
C1091 C1093 1.433 . S
C1092 C1088 1.350 . S
C1092 C1089 1.463 . S
C1092 N1096 1.427 . S
C1093 H1083 0.929 . S
C1093 C1091 1.433 . S
C1093 N1096 1.384 . S
C1094 H1085 0.929 . S
C1094 C1086 1.378 . S
C1094 C1089 1.350 . S
C1095 H1082 0.929 . S
C1095 C1087 1.433 . S
C1095 N1097 1.384 . S
N1096 C1092 1.427 . S
N1096 C1093 1.384 . S
N1097 C1089 1.427 . S
N1097 C1095 1.384 . S
H1098 C1104 0.930 . S
H1099 C1108 0.930 . S
H1100 C1113 0.929 . S
H1101 C1111 0.929 . S
H1102 C1106 0.929 . S
H1103 C1112 0.929 . S
C1104 H1098 0.930 . S
C1104 C1105 1.367 . S
C1104 C1112 1.378 . S
C1105 C1104 1.367 . S
C1105 C1113 1.433 . S
C1106 H1102 0.929 . S
C1106 C1108 1.378 . S
C1106 C1110 1.350 . S
C1107 C1110 1.463 . S
C1107 C1112 1.350 . S
C1107 N1115 1.427 . S
C1108 H1099 0.930 . S
C1108 C1106 1.378 . S
C1108 C1109 1.367 . S
C1109 C1108 1.367 . S
C1109 C1111 1.433 . S
C1110 C1106 1.350 . S
C1110 C1107 1.463 . S
C1110 N1114 1.427 . S
C1111 H1101 0.929 . S
C1111 C1109 1.433 . S
C1111 N1114 1.384 . S
C1112 H1103 0.929 . S
C1112 C1104 1.378 . S
C1112 C1107 1.350 . S
C1113 H1100 0.929 . S
C1113 C1105 1.433 . S
C1113 N1115 1.384 . S
N1114 C1110 1.427 . S
N1114 C1111 1.384 . S
N1115 C1107 1.427 . S
N1115 C1113 1.384 . S
H1116 C1122 0.930 . S
H1117 C1126 0.930 . S
H1118 C1131 0.929 . S
H1119 C1129 0.929 . S
H1120 C1124 0.929 . S
H1121 C1130 0.929 . S
C1122 H1116 0.930 . S
C1122 C1123 1.367 . S
C1122 C1130 1.378 . S
C1123 C1122 1.367 . S
C1123 C1131 1.433 . S
C1124 H1120 0.929 . S
C1124 C1126 1.378 . S
C1124 C1128 1.350 . S
C1125 C1128 1.463 . S
C1125 C1130 1.350 . S
C1125 N1133 1.427 . S
C1126 H1117 0.930 . S
C1126 C1124 1.378 . S
C1126 C1127 1.367 . S
C1127 C1126 1.367 . S
C1127 C1129 1.433 . S
C1128 C1124 1.350 . S
C1128 C1125 1.463 . S
C1128 N1132 1.427 . S
C1129 H1119 0.929 . S
C1129 C1127 1.433 . S
C1129 N1132 1.384 . S
C1130 H1121 0.929 . S
C1130 C1122 1.378 . S
C1130 C1125 1.350 . S
C1131 H1118 0.929 . S
C1131 C1123 1.433 . S
C1131 N1133 1.384 . S
N1132 C1128 1.427 . S
N1132 C1129 1.384 . S
N1133 C1125 1.427 . S
N1133 C1131 1.384 . S
H1134 C1140 0.930 . S
H1135 C1144 0.930 . S
H1136 C1149 0.929 . S
H1137 C1147 0.929 . S
H1138 C1142 0.929 . S
H1139 C1148 0.929 . S
C1140 H1134 0.930 . S
C1140 C1141 1.367 . S
C1140 C1148 1.378 . S
C1141 C1140 1.367 . S
C1141 C1149 1.433 . S
C1142 H1138 0.929 . S
C1142 C1144 1.378 . S
C1142 C1146 1.350 . S
C1143 C1146 1.463 . S
C1143 C1148 1.350 . S
C1143 N1151 1.427 . S
C1144 H1135 0.930 . S
C1144 C1142 1.378 . S
C1144 C1145 1.367 . S
C1145 C1144 1.367 . S
C1145 C1147 1.433 . S
C1146 C1142 1.350 . S
C1146 C1143 1.463 . S
C1146 N1150 1.427 . S
C1147 H1137 0.929 . S
C1147 C1145 1.433 . S
C1147 N1150 1.384 . S
C1148 H1139 0.929 . S
C1148 C1140 1.378 . S
C1148 C1143 1.350 . S
C1149 H1136 0.929 . S
C1149 C1141 1.433 . S
C1149 N1151 1.384 . S
N1150 C1146 1.427 . S
N1150 C1147 1.384 . S
N1151 C1143 1.427 . S
N1151 C1149 1.384 . S
H1152 C1158 0.930 . S
H1153 C1162 0.930 . S
H1154 C1167 0.929 . S
H1155 C1165 0.929 . S
H1156 C1160 0.929 . S
H1157 C1166 0.929 . S
C1158 H1152 0.930 . S
C1158 C1159 1.367 . S
C1158 C1166 1.378 . S
C1159 C1158 1.367 . S
C1159 C1167 1.433 . S
C1160 H1156 0.929 . S
C1160 C1162 1.378 . S
C1160 C1164 1.350 . S
C1161 C1164 1.463 . S
C1161 C1166 1.350 . S
C1161 N1169 1.427 . S
C1162 H1153 0.930 . S
C1162 C1160 1.378 . S
C1162 C1163 1.367 . S
C1163 C1162 1.367 . S
C1163 C1165 1.433 . S
C1164 C1160 1.350 . S
C1164 C1161 1.463 . S
C1164 N1168 1.427 . S
C1165 H1155 0.929 . S
C1165 C1163 1.433 . S
C1165 N1168 1.384 . S
C1166 H1157 0.929 . S
C1166 C1158 1.378 . S
C1166 C1161 1.350 . S
C1167 H1154 0.929 . S
C1167 C1159 1.433 . S
C1167 N1169 1.384 . S
N1168 C1164 1.427 . S
N1168 C1165 1.384 . S
N1169 C1161 1.427 . S
N1169 C1167 1.384 . S
H1170 C1176 0.930 . S
H1171 C1180 0.930 . S
H1172 C1185 0.929 . S
H1173 C1183 0.929 . S
H1174 C1178 0.929 . S
H1175 C1184 0.929 . S
C1176 H1170 0.930 . S
C1176 C1177 1.367 . S
C1176 C1184 1.378 . S
C1177 C1176 1.367 . S
C1177 C1185 1.433 . S
C1178 H1174 0.929 . S
C1178 C1180 1.378 . S
C1178 C1182 1.350 . S
C1179 C1182 1.463 . S
C1179 C1184 1.350 . S
C1179 N1187 1.427 . S
C1180 H1171 0.930 . S
C1180 C1178 1.378 . S
C1180 C1181 1.367 . S
C1181 C1180 1.367 . S
C1181 C1183 1.433 . S
C1182 C1178 1.350 . S
C1182 C1179 1.463 . S
C1182 N1186 1.427 . S
C1183 H1173 0.929 . S
C1183 C1181 1.433 . S
C1183 N1186 1.384 . S
C1184 H1175 0.929 . S
C1184 C1176 1.378 . S
C1184 C1179 1.350 . S
C1185 H1172 0.929 . S
C1185 C1177 1.433 . S
C1185 N1187 1.384 . S
N1186 C1182 1.427 . S
N1186 C1183 1.384 . S
N1187 C1179 1.427 . S
N1187 C1185 1.384 . S
H1188 C1194 0.930 . S
H1189 C1198 0.930 . S
H1190 C1203 0.929 . S
H1191 C1201 0.929 1_556 S
H1192 C1196 0.929 . S
H1193 C1202 0.929 . S
C1194 H1188 0.930 . S
C1194 C1195 1.367 . S
C1194 C1202 1.378 . S
C1195 C1194 1.367 . S
C1195 C1203 1.433 . S
C1196 H1192 0.929 . S
C1196 C1198 1.378 . S
C1196 C1200 1.350 . S
C1197 C1200 1.463 . S
C1197 C1202 1.350 . S
C1197 N1205 1.427 . S
C1198 H1189 0.930 . S
C1198 C1196 1.378 . S
C1198 C1199 1.367 . S
C1199 C1198 1.367 . S
C1199 C1201 1.433 . S
C1200 C1196 1.350 . S
C1200 C1197 1.463 . S
C1200 N1204 1.427 . S
C1201 H1191 0.929 1_554 S
C1201 C1199 1.433 . S
C1201 N1204 1.384 . S
C1202 H1193 0.929 . S
C1202 C1194 1.378 . S
C1202 C1197 1.350 . S
C1203 H1190 0.929 . S
C1203 C1195 1.433 . S
C1203 N1205 1.384 . S
N1204 C1200 1.427 . S
N1204 C1201 1.384 . S
N1205 C1197 1.427 . S
N1205 C1203 1.384 . S
H1206 C1212 0.930 . S
H1207 C1216 0.930 . S
H1208 C1221 0.929 . S
H1209 C1219 0.929 . S
H1210 C1214 0.929 . S
H1211 C1220 0.929 . S
C1212 H1206 0.930 . S
C1212 C1213 1.367 1_565 S
C1212 C1220 1.378 . S
C1213 C1212 1.367 1_545 S
C1213 C1221 1.433 . S
C1214 H1210 0.929 . S
C1214 C1216 1.378 . S
C1214 C1218 1.350 . S
C1215 C1218 1.463 . S
C1215 C1220 1.350 . S
C1215 N1223 1.402 1_565 S
C1216 H1207 0.930 . S
C1216 C1214 1.378 . S
C1216 C1217 1.367 . S
C1217 C1216 1.367 . S
C1217 C1219 1.433 . S
C1218 C1214 1.350 . S
C1218 C1215 1.463 . S
C1218 N1222 1.427 . S
C1219 H1209 0.929 . S
C1219 C1217 1.433 . S
C1219 N1222 1.384 . S
C1220 H1211 0.929 . S
C1220 C1212 1.378 . S
C1220 C1215 1.350 . S
C1221 H1208 0.929 . S
C1221 C1213 1.433 . S
C1221 N1223 1.400 . S
N1222 C1218 1.427 . S
N1222 C1219 1.384 . S
N1223 C1215 1.402 1_545 S
N1223 C1221 1.400 . S
C371 C200 1.716 . S
C367 C66 1.770 . S
C389 C213 1.140 . S
C385 C76 1.117 1_455 S
C403 C93 1.951 . S
C407 C233 1.784 . S
C425 C247 1.319 . S
C421 C54 1.416 . S
C443 C259 1.528 . S
C439 C126 1.541 . S
C461 C273 1.743 . S
C457 C150 1.747 . S
C475 C136 1.130 . S
C479 C283 1.129 . S
C497 C298 1.790 . S
C493 C117 1.813 . S
C511 C141 1.277 . S
C515 C312 1.242 . S
C533 C331 1.234 . S
C529 C112 1.288 . S
C547 C124 1.538 . S
C551 C311 1.522 . S
C569 C329 1.238 . S
C565 C148 1.239 . S
C583 C88 1.444 . S
C587 C345 1.380 . S
C601 C52 1.597 . S
C605 C339 1.594 . S
C619 C64 1.288 . S
C623 C343 1.286 . S
C637 C78 1.234 . S
C641 C340 1.204 . S
C655 C45 1.726 . S
C659 C242 1.703 . S
C673 C177 1.821 . S
C677 C241 1.805 . S
C695 C205 1.303 . S
C691 C189 1.328 . S
C713 C219 1.628 . S
C709 C102 1.744 . S
C727 C57 1.727 1_545 S
C731 C256 1.717 . S
C749 C301 1.490 . S
C745 C138 1.491 . S
C767 C255 1.742 . S
C763 C114 1.757 1_545 S
C785 C287 1.650 . S
C781 C153 1.650 . S
C803 C284 1.713 . S
C799 C174 1.767 . S
C817 C184 1.139 . S
C821 C297 1.131 . S
C835 C105 1.954 . S
C839 C261 1.798 . S
C857 C275 1.299 . S
C853 C162 1.417 . S
C871 C42 1.541 . S
C875 C231 1.529 . S
C893 C245 1.743 . S
C889 C6 1.748 . S
C911 C199 1.131 . S
C907 C16 1.127 . S
C929 C214 1.790 . S
C925 C33 1.813 . S
C943 C21 1.279 . S
C947 C326 1.256 . S
C961 C28 1.285 . S
C965 C317 1.231 . S
C979 C40 1.540 . S
C983 C325 1.521 . S
C997 C4 1.233 1_556 S
C1001 C315 1.243 . S
C1019 C359 1.377 . S
C1015 C100 1.447 . S
C1037 C353 1.593 . S
C1033 C160 1.596 1_554 S
C1055 C357 1.290 . S
C1051 C172 1.289 . S
C1069 C186 1.235 . S
C1073 C354 1.215 . S
C1087 C129 1.728 . S
C1091 C270 1.711 . S
C1109 C269 1.798 . S
C1105 C69 1.821 . S
C1127 C289 1.274 . S
C1123 C81 1.330 . S
C1145 C303 1.625 . S
C1141 C90 1.743 . S
C1159 C165 1.728 . S
C1163 C228 1.716 . S
C1181 C217 1.488 . S
C1177 C18 1.490 . S
C1195 C30 1.755 . S
C1199 C227 1.746 . S
C1217 C203 1.650 . S
C1213 C9 1.650 . S
