# Generated by pormake.
# Topology zzz, (3,6)-cn, num edge types: 1
# Building blocks:
#     Node 0, Type 0, BuildingBlock: VETTIZ_charged_linker_0, # of connection points: 3
#     Node 1, Type 0, BuildingBlock: VETTIZ_charged_linker_0, # of connection points: 3
#     Node 2, Type 0, BuildingBlock: VETTIZ_charged_linker_0, # of connection points: 3
#     Node 3, Type 0, BuildingBlock: VETTIZ_charged_linker_0, # of connection points: 3
#     Node 4, Type 0, BuildingBlock: VETTIZ_charged_linker_0, # of connection points: 3
#     Node 5, Type 0, BuildingBlock: VETTIZ_charged_linker_0, # of connection points: 3
#     Node 6, Type 0, BuildingBlock: VETTIZ_charged_linker_0, # of connection points: 3
#     Node 7, Type 0, BuildingBlock: VETTIZ_charged_linker_0, # of connection points: 3
#     Node 8, Type 1, BuildingBlock: KUMJIN_clean_sbu_0, # of connection points: 6
#     Node 9, Type 1, BuildingBlock: KUMJIN_clean_sbu_0, # of connection points: 6
#     Node 10, Type 1, BuildingBlock: KUMJIN_clean_sbu_0, # of connection points: 6
#     Node 11, Type 1, BuildingBlock: KUMJIN_clean_sbu_0, # of connection points: 6
#     Edge 12, Type (0, 1), BuildingBlock: EZIPEK_clean_linker_0, # of connection points: 2
#     Edge 13, Type (0, 1), BuildingBlock: EZIPEK_clean_linker_0, # of connection points: 2
#     Edge 14, Type (0, 1), BuildingBlock: EZIPEK_clean_linker_0, # of connection points: 2
#     Edge 15, Type (0, 1), BuildingBlock: EZIPEK_clean_linker_0, # of connection points: 2
#     Edge 16, Type (0, 1), BuildingBlock: EZIPEK_clean_linker_0, # of connection points: 2
#     Edge 17, Type (0, 1), BuildingBlock: EZIPEK_clean_linker_0, # of connection points: 2
#     Edge 18, Type (0, 1), BuildingBlock: EZIPEK_clean_linker_0, # of connection points: 2
#     Edge 19, Type (0, 1), BuildingBlock: EZIPEK_clean_linker_0, # of connection points: 2
#     Edge 20, Type (0, 1), BuildingBlock: EZIPEK_clean_linker_0, # of connection points: 2
#     Edge 21, Type (0, 1), BuildingBlock: EZIPEK_clean_linker_0, # of connection points: 2
#     Edge 22, Type (0, 1), BuildingBlock: EZIPEK_clean_linker_0, # of connection points: 2
#     Edge 23, Type (0, 1), BuildingBlock: EZIPEK_clean_linker_0, # of connection points: 2
#     Edge 24, Type (0, 1), BuildingBlock: EZIPEK_clean_linker_0, # of connection points: 2
#     Edge 25, Type (0, 1), BuildingBlock: EZIPEK_clean_linker_0, # of connection points: 2
#     Edge 26, Type (0, 1), BuildingBlock: EZIPEK_clean_linker_0, # of connection points: 2
#     Edge 27, Type (0, 1), BuildingBlock: EZIPEK_clean_linker_0, # of connection points: 2
#     Edge 28, Type (0, 1), BuildingBlock: EZIPEK_clean_linker_0, # of connection points: 2
#     Edge 29, Type (0, 1), BuildingBlock: EZIPEK_clean_linker_0, # of connection points: 2
#     Edge 30, Type (0, 1), BuildingBlock: EZIPEK_clean_linker_0, # of connection points: 2
#     Edge 31, Type (0, 1), BuildingBlock: EZIPEK_clean_linker_0, # of connection points: 2
#     Edge 32, Type (0, 1), BuildingBlock: EZIPEK_clean_linker_0, # of connection points: 2
#     Edge 33, Type (0, 1), BuildingBlock: EZIPEK_clean_linker_0, # of connection points: 2
#     Edge 34, Type (0, 1), BuildingBlock: EZIPEK_clean_linker_0, # of connection points: 2
#     Edge 35, Type (0, 1), BuildingBlock: EZIPEK_clean_linker_0, # of connection points: 2
# Relax obj value: 0.344
# Max RMSD: 0.224
# Mean RMSD: 0.217
data_MOF--net-zzz--node1-KUMJIN_clean_sbu_0--node2-VETTIZ_charged_linker_0--edge1-EZIPEK_clean_linker_0
_symmetry_space_group_name_H-M    P1
_symmetry_Int_Tables_number       1
_symmetry_cell_setting            triclinic
loop_
_symmetry_equiv_pos_as_xyz
'x, y, z'
_cell_length_a     43.908533
_cell_length_b     43.928847
_cell_length_c     15.700244
_cell_angle_alpha  90.474476
_cell_angle_beta   89.977235
_cell_angle_gamma 89.978092
loop_
_atom_site_label
_atom_site_type_symbol
_atom_site_fract_x
_atom_site_fract_y
_atom_site_fract_z
_atom_type_partial_charge
C0 C 0.79843 0.54627 0.46473 0.0
C1 C 0.82515 0.56372 0.49082 0.0
C2 C 0.82434 0.59529 0.47479 0.0
C3 C 0.77995 0.58923 0.38502 0.0
C4 C 0.77474 0.56066 0.41433 0.0
C5 C 0.7439 0.55026 0.37329 0.0
H6 H 0.67583 0.54282 0.97267 0.0
C7 C 0.76289 0.59371 0.30565 0.0
C8 C 0.73857 0.5729 0.29889 0.0
H9 H 0.61361 0.54869 0.1838 0.0
H10 H 0.65756 0.55724 0.28226 0.0
H11 H 0.68284 0.60936 0.05248 0.0
H12 H 0.76237 0.54994 0.0383 0.0
H13 H 0.74581 0.56767 0.94545 0.0
H14 H 0.73042 0.53378 0.98598 0.0
H15 H 0.70108 0.59927 0.95244 0.0
H16 H 0.71825 0.62429 0.03083 0.0
C17 C 0.71897 0.55533 0.43922 0.0
C18 C 0.74481 0.51698 0.34352 0.0
C19 C 0.83555 0.59465 0.06603 0.0
C20 C 0.83116 0.59264 0.97811 0.0
C21 C 0.80447 0.60463 0.94236 0.0
C22 C 0.78016 0.61261 0.99617 0.0
C23 C 0.78321 0.60781 0.08444 0.0
C24 C 0.81139 0.60229 0.1179 0.0
C25 C 0.81084 0.59718 0.211 0.0
C26 C 0.77716 0.60296 0.23007 0.0
C27 C 0.76104 0.60279 0.15322 0.0
C28 C 0.83354 0.6196 0.25321 0.0
C29 C 0.81927 0.5632 0.22569 0.0
C30 C 0.67087 0.54479 0.04004 0.0
C31 C 0.64039 0.54379 0.06723 0.0
C32 C 0.63643 0.54803 0.15773 0.0
C33 C 0.66193 0.55292 0.21539 0.0
C34 C 0.69212 0.55562 0.18347 0.0
C35 C 0.6944 0.55481 0.09515 0.0
C36 C 0.71934 0.57503 0.06463 0.0
C37 C 0.73409 0.58519 0.14713 0.0
C38 C 0.72074 0.57155 0.21923 0.0
C39 C 0.70483 0.60326 0.02158 0.0
C40 C 0.7407 0.55586 1.00581 0.0
H41 H 0.80347 0.63175 0.40468 0.0
H42 H 0.79687 0.52233 0.47958 0.0
H43 H 0.76327 0.51355 0.29606 0.0
H44 H 0.72275 0.51049 0.31384 0.0
H45 H 0.74894 0.50172 0.39846 0.0
H46 H 0.71768 0.57969 0.45916 0.0
H47 H 0.72439 0.54168 0.4965 0.0
H48 H 0.69654 0.54871 0.41216 0.0
H49 H 0.8564 0.58659 0.09509 0.0
H50 H 0.80149 0.60523 0.87394 0.0
H51 H 0.75948 0.61994 0.96668 0.0
H52 H 0.85344 0.62432 0.2116 0.0
H53 H 0.84377 0.6101 0.31144 0.0
H54 H 0.82245 0.64181 0.26725 0.0
H55 H 0.80524 0.54791 0.18465 0.0
H56 H 0.81524 0.55593 0.29137 0.0
H57 H 0.84364 0.5587 0.2116 0.0
H58 H 0.84287 0.6097 0.4963 0.0
C59 C 0.80194 0.60804 0.42212 0.0
C60 C 0.94907 0.81125 0.95348 0.0
C61 C 0.93468 0.83906 0.97104 0.0
C62 C 0.91086 0.83968 0.03123 0.0
C63 C 0.93086 0.79308 0.0875 0.0
C64 C 0.94875 0.78928 0.01618 0.0
C65 C 0.97304 0.76579 0.02737 0.0
H66 H 0.96207 0.64143 0.16134 0.0
C67 C 0.94518 0.77622 0.15702 0.0
C68 C 0.96947 0.7595 0.12154 0.0
H69 H 0.02739 0.67009 0.97063 0.0
H70 H 0.03057 0.71962 0.03982 0.0
H71 H 1.0023 0.68689 0.34008 0.0
H72 H 0.92306 0.71393 0.19277 0.0
H73 H 0.9208 0.71363 0.30736 0.0
H74 H 0.92294 0.67834 0.2485 0.0
H75 H 0.96931 0.66274 0.3307 0.0
H76 H 0.96726 0.69743 0.39357 0.0
C77 C 1.00482 0.77964 1.00853 0.0
C78 C 0.96502 0.73834 0.96895 0.0
C79 C 0.95726 0.83645 0.42332 0.0
C80 C 0.982 0.83888 0.47955 0.0
C81 C 1.00062 0.81202 0.4852 0.0
C82 C 0.99565 0.78538 0.43209 0.0
C83 C 0.97167 0.78485 0.37182 0.0
C84 C 0.95339 0.81068 0.36889 0.0
C85 C 0.93316 0.81011 0.29253 0.0
C86 C 0.94415 0.78113 0.24637 0.0
C87 C 0.96313 0.76313 0.29802 0.0
C88 C 0.93866 0.83993 0.24193 0.0
C89 C 0.89994 0.80673 0.32283 0.0
C90 C 0.97716 0.65828 0.13441 0.0
C91 C 0.99351 0.65165 0.05572 0.0
C92 C 0.01379 0.67421 0.02718 0.0
C93 C 0.01551 0.70297 0.06667 0.0
C94 C 0.99642 0.71007 0.13553 0.0
C95 C 0.98024 0.68797 0.17522 0.0
C96 C 0.96631 0.70323 0.25638 0.0
C97 C 0.97852 0.73701 0.25755 0.0
C98 C 0.98754 0.73993 0.1717 0.0
C99 C 0.97704 0.68662 0.33545 0.0
C100 C 0.93121 0.70224 0.25096 0.0
H101 H 0.89124 0.81657 0.13825 0.0
H102 H 0.966 0.80951 0.90345 0.0
H103 H 0.95299 0.74575 0.91032 0.0
H104 H 0.94988 0.72197 1.00209 0.0
H105 H 0.98555 0.7264 0.94538 0.0
H106 H 1.00623 0.80355 0.03216 0.0
H107 H 1.00968 0.77945 0.93909 0.0
H108 H 0.02335 0.76748 0.04129 0.0
H109 H 0.9422 0.8558 0.4166 0.0
H110 H 0.01996 0.81219 0.52793 0.0
H111 H 1.01111 0.76625 0.43597 0.0
H112 H 0.949 0.85892 0.27847 0.0
H113 H 0.91711 0.84987 0.21846 0.0
H114 H 0.95514 0.8358 0.18981 0.0
H115 H 0.89775 0.78753 0.36821 0.0
H116 H 0.88435 0.80183 0.26915 0.0
H117 H 0.89212 0.82786 0.3556 0.0
H118 H 0.89751 0.86013 0.0412 0.0
C119 C 0.908 0.81536 0.08838 0.0
C120 C 0.86968 0.99521 0.16191 0.0
C121 C 0.88434 0.98149 0.08734 0.0
C122 C 0.87276 0.95304 0.06021 0.0
C123 C 0.83073 0.95645 0.15867 0.0
C124 C 0.84292 0.98101 0.19933 0.0
C125 C 0.82249 0.98719 0.28022 0.0
H126 H 0.67513 0.9494 0.44755 0.0
C127 C 0.8002 0.95049 0.19045 0.0
C128 C 0.79338 0.96775 0.26381 0.0
H129 H 0.72536 0.02695 0.53753 0.0
H130 H 0.76871 0.013 0.44218 0.0
H131 H 0.67454 0.9715 0.30096 0.0
H132 H 0.72511 0.8986 0.39277 0.0
H133 H 0.71318 0.8885 0.28879 0.0
H134 H 0.6854 0.9013 0.36576 0.0
H135 H 0.6675 0.93565 0.25442 0.0
H136 H 0.69269 0.96327 0.20507 0.0
C137 C 0.8155 0.02132 0.28913 0.0
C138 C 0.83819 0.97379 0.35967 0.0
C139 C 0.71966 0.94215 0.97755 0.0
C140 C 0.68784 0.93837 0.98673 0.0
C141 C 0.67787 0.9198 0.05503 0.0
C142 C 0.69796 0.91153 0.11997 0.0
C143 C 0.72773 0.92249 0.11724 0.0
C144 C 0.73913 0.93345 0.04254 0.0
C145 C 0.77263 0.93919 0.04762 0.0
C146 C 0.77706 0.93639 0.14397 0.0
C147 C 0.74984 0.92925 0.18459 0.0
C148 C 0.78046 0.97141 0.01407 0.0
C149 C 0.78863 0.91393 0.99496 0.0
C150 C 0.69587 0.96276 0.45069 0.0
C151 C 0.69632 0.98883 0.50147 0.0
C152 C 0.72389 1.00633 0.49953 0.0
C153 C 0.74887 0.99858 0.44331 0.0
C154 C 0.74612 0.97375 0.38556 0.0
C155 C 0.71915 0.95709 0.3908 0.0
C156 C 0.71366 0.93824 0.31377 0.0
C157 C 0.74339 0.94199 0.26606 0.0
C158 C 0.76379 0.96279 0.30624 0.0
C159 C 0.68584 0.95254 0.26585 0.0
C160 C 0.70887 0.90485 0.34137 0.0
H161 H 0.83996 0.9177 0.07821 0.0
H162 H 0.87843 0.01621 0.18853 0.0
H163 H 0.83294 0.94918 0.36709 0.0
H164 H 0.83102 0.9856 0.41922 0.0
H165 H 0.86313 0.97433 0.35308 0.0
H166 H 0.79986 0.02867 0.23765 0.0
H167 H 0.83662 0.03502 0.28429 0.0
H168 H 0.80479 0.02664 0.35124 0.0
H169 H 0.72947 0.9548 0.92611 0.0
H170 H 0.65477 0.91266 0.06338 0.0
H171 H 0.6893 0.89889 0.17304 0.0
H172 H 0.76712 0.98914 0.04864 0.0
H173 H 0.77577 0.97322 0.94487 0.0
H174 H 0.80491 0.97685 0.02117 0.0
H175 H 0.77468 0.9068 0.93913 0.0
H176 H 0.79276 0.89335 0.03407 0.0
H177 H 0.81037 0.92198 0.96724 0.0
H178 H 0.88353 0.9406 1.00847 0.0
C179 C 0.84698 0.9402 0.09728 0.0
C180 C 0.54903 0.73414 0.47755 0.0
C181 C 0.56423 0.70559 0.49678 0.0
C182 C 0.59462 0.70239 0.4685 0.0
C183 C 0.59012 0.74731 0.38306 0.0
C184 C 0.56335 0.75543 0.42045 0.0
C185 C 0.55488 0.7873 0.38455 0.0
H186 H 0.53764 0.85771 0.99576 0.0
C187 C 0.59404 0.76414 0.30434 0.0
C188 C 0.57593 0.79061 0.305 0.0
H189 H 0.57799 0.91524 0.18402 0.0
H190 H 0.58294 0.87079 0.28197 0.0
H191 H 0.60696 0.845 0.05781 0.0
H192 H 0.52633 0.80194 1.00785 0.0
H193 H 0.54436 0.76845 0.04452 0.0
H194 H 0.5582 0.78764 0.951 0.0
H195 H 0.5932 0.82922 0.95778 0.0
H196 H 0.61924 0.80954 0.028 0.0
C197 C 0.56377 0.81104 0.45198 0.0
C198 C 0.521 0.7894 0.36145 0.0
C199 C 0.59464 0.69148 0.0594 0.0
C200 C 0.59304 0.69532 0.97039 0.0
C201 C 0.60135 0.72379 0.9371 0.0
C202 C 0.60483 0.74884 0.9913 0.0
C203 C 0.6016 0.74485 0.07942 0.0
C204 C 0.59985 0.71621 0.11208 0.0
C205 C 0.59975 0.71576 0.20714 0.0
C206 C 0.60101 0.75001 0.22601 0.0
C207 C 0.59807 0.76622 0.15041 0.0
C208 C 0.62811 0.69783 0.23721 0.0
C209 C 0.5694 0.70108 0.23738 0.0
C210 C 0.54475 0.86162 0.06101 0.0
C211 C 0.55287 0.89124 0.08608 0.0
C212 C 0.56786 0.89365 0.16608 0.0
C213 C 0.57043 0.86811 0.22303 0.0
C214 C 0.5604 0.83874 0.19801 0.0
C215 C 0.55318 0.83636 0.11155 0.0
C216 C 0.57078 0.81053 0.07272 0.0
C217 C 0.58242 0.79417 0.15035 0.0
C218 C 0.57367 0.80847 0.22654 0.0
C219 C 0.59871 0.82404 0.02514 0.0
C220 C 0.549 0.79106 0.01615 0.0
H221 H 0.6311 0.72073 0.39339 0.0
H222 H 0.52652 0.7388 0.50252 0.0
H223 H 0.51506 0.77179 0.31305 0.0
H224 H 0.5157 0.81219 0.33504 0.0
H225 H 0.50659 0.78587 0.41873 0.0
H226 H 0.58779 0.80789 0.47264 0.0
H227 H 0.54896 0.80893 0.509 0.0
H228 H 0.5621 0.83407 0.42545 0.0
H229 H 0.58939 0.67015 0.08955 0.0
H230 H 0.60436 0.72746 0.87007 0.0
H231 H 0.609 0.77023 0.96172 0.0
H232 H 0.63585 0.68081 0.18906 0.0
H233 H 0.62318 0.68424 0.29475 0.0
H234 H 0.64761 0.71335 0.24972 0.0
H235 H 0.5495 0.71419 0.21364 0.0
H236 H 0.56753 0.69981 0.30716 0.0
H237 H 0.56722 0.6772 0.21486 0.0
H238 H 0.60769 0.68231 0.48437 0.0
C239 C 0.60789 0.72371 0.41445 0.0
C240 C 0.37995 0.48849 0.19238 0.0
C241 C 0.38901 0.49005 0.28171 0.0
C242 C 0.36619 0.4863 0.3422 0.0
C243 C 0.32834 0.4745 0.23406 0.0
C244 C 0.34832 0.48187 0.17002 0.0
C245 C 0.33081 0.47904 0.08305 0.0
H246 H 0.18396 0.43964 0.91308 0.0
C247 C 0.29907 0.46394 0.19746 0.0
C248 C 0.29767 0.46934 0.10898 0.0
H249 H 0.23204 0.51742 0.8187 0.0
H250 H 0.27361 0.50822 0.92273 0.0
H251 H 0.24185 0.39302 0.98478 0.0
H252 H 0.18157 0.46528 0.05637 0.0
H253 H 0.19029 0.45037 0.15218 0.0
H254 H 0.17158 0.42649 0.07538 0.0
H255 H 0.20116 0.39081 0.99525 0.0
H256 H 0.22591 0.38386 0.08477 0.0
C257 C 0.34555 0.45389 0.02822 0.0
C258 C 0.33149 0.50954 0.03633 0.0
C259 C 0.2198 0.4304 0.39935 0.0
C260 C 0.18976 0.43425 0.3724 0.0
C261 C 0.18026 0.4177 0.30023 0.0
C262 C 0.20235 0.40724 0.24236 0.0
C263 C 0.23226 0.41807 0.25332 0.0
C264 C 0.24142 0.42672 0.33454 0.0
C265 C 0.27159 0.44262 0.33361 0.0
C266 C 0.27627 0.4468 0.23856 0.0
C267 C 0.25286 0.43328 0.19181 0.0
C268 C 0.29513 0.42009 0.37162 0.0
C269 C 0.26902 0.47413 0.38134 0.0
C270 C 0.20401 0.45397 0.90986 0.0
C271 C 0.20341 0.47946 0.85731 0.0
C272 C 0.23052 0.49776 0.85961 0.0
C273 C 0.25506 0.4922 0.91914 0.0
C274 C 0.25337 0.46772 0.97739 0.0
C275 C 0.22721 0.4498 0.97119 0.0
C276 C 0.2213 0.43253 0.05031 0.0
C277 C 0.2483 0.44165 0.1055 0.0
C278 C 0.26942 0.46082 0.06265 0.0
C279 C 0.22238 0.39817 0.02798 0.0
C280 C 0.18973 0.44375 0.08541 0.0
H281 H 0.32355 0.47212 0.37281 0.0
H282 H 0.39674 0.49159 0.14277 0.0
H283 H 0.31865 0.52715 0.07269 0.0
H284 H 0.32147 0.50716 0.97189 0.0
H285 H 0.35536 0.51746 0.02835 0.0
H286 H 0.34466 0.43167 0.06154 0.0
H287 H 0.36979 0.45934 0.01557 0.0
H288 H 0.33345 0.45139 0.96636 0.0
H289 H 0.22674 0.44048 0.45954 0.0
H290 H 0.15653 0.41766 0.28132 0.0
H291 H 0.19459 0.39671 0.18443 0.0
H292 H 0.28899 0.39601 0.35714 0.0
H293 H 0.29635 0.42254 0.44199 0.0
H294 H 0.31822 0.42269 0.34452 0.0
H295 H 0.24556 0.48257 0.3892 0.0
H296 H 0.27989 0.493 0.34603 0.0
H297 H 0.2787 0.47299 0.44656 0.0
H298 H 0.37143 0.48779 0.40972 0.0
C299 C 0.33724 0.47742 0.31962 0.0
C300 C 0.08834 0.23568 0.38553 0.0
C301 C 0.0928 0.20373 0.38042 0.0
C302 C 0.11488 0.19327 0.32064 0.0
C303 C 0.1113 0.24078 0.24855 0.0
C304 C 0.0988 0.25397 0.31931 0.0
C305 C 0.09301 0.28719 0.30514 0.0
H306 H 0.0166 0.38532 0.16854 0.0
C307 C 0.10444 0.26001 0.17577 0.0
C308 C 0.09872 0.28893 0.20831 0.0
H309 H 0.09754 0.3971 0.32531 0.0
H310 H 0.12056 0.35324 0.25399 0.0
H311 H 0.07533 0.35287 0.98428 0.0
H312 H 0.99639 0.33851 0.07406 0.0
H313 H 1.00797 0.30757 0.14176 0.0
H314 H 1.00693 0.30233 0.02763 0.0
H315 H 0.03631 0.36554 0.98237 0.0
H316 H 0.04669 0.32953 0.93422 0.0
C317 C 0.11628 0.30515 0.35949 0.0
C318 C 0.05983 0.29553 0.3298 0.0
C319 C 0.05568 0.19453 0.95124 0.0
C320 C 0.0459 0.19803 0.8674 0.0
C321 C 0.04165 0.22907 0.84092 0.0
C322 C 0.04642 0.25476 0.89821 0.0
C323 C 0.05691 0.24999 0.98255 0.0
C324 C 0.06305 0.21984 1.00308 0.0
C325 C 0.08387 0.2171 0.07669 0.0
C326 C 0.08858 0.25026 0.10161 0.0
C327 C 0.07076 0.27068 0.05237 0.0
C328 C 0.11422 0.20269 0.04443 0.0
C329 C 0.06717 0.19807 0.14616 0.0
C330 C 0.03899 0.37817 0.18897 0.0
C331 C 0.05427 0.39416 0.25885 0.0
C332 C 0.0844 0.38515 0.27711 0.0
C333 C 0.09753 0.35974 0.23802 0.0
C334 C 0.08032 0.34205 0.18208 0.0
C335 C 0.05354 0.35202 0.14861 0.0
C336 C 0.04529 0.3294 0.07369 0.0
C337 C 0.0682 0.30232 0.08481 0.0
C338 C 0.08648 0.31105 0.15457 0.0
C339 C 0.05123 0.34523 0.98848 0.0
C340 C 1.01213 0.31881 0.07972 0.0
H341 H 0.13789 0.20219 0.2039 0.0
H342 H 0.07373 0.24598 0.43265 0.0
H343 H 0.04332 0.28159 0.29257 0.0
H344 H 0.05483 0.31986 0.3185 0.0
H345 H 0.05566 0.29196 0.3987 0.0
H346 H 0.11991 0.29411 0.4222 0.0
H347 H 0.10811 0.32837 0.37514 0.0
H348 H 0.13871 0.30643 0.32686 0.0
H349 H 0.06048 0.17187 0.97451 0.0
H350 H 0.03508 0.23353 0.77574 0.0
H351 H 0.04365 0.27769 0.87485 0.0
H352 H 0.11774 0.20638 0.97509 0.0
H353 H 0.11481 0.17774 0.05524 0.0
H354 H 0.13446 0.21346 0.07372 0.0
H355 H 0.04706 0.18547 0.12116 0.0
H356 H 0.05823 0.21273 0.19849 0.0
H357 H 0.08205 0.18024 0.17313 0.0
H358 H 0.1233 0.17038 0.31832 0.0
C359 C 0.12369 0.2117 0.25308 0.0
C360 C 0.31028 0.05111 0.86868 0.0
C361 C 0.3389 0.06708 0.85211 0.0
C362 C 0.34035 0.09769 0.88118 0.0
C363 C 0.29389 0.0923 0.96028 0.0
C364 C 0.28732 0.06495 0.92332 0.0
C365 C 0.25601 0.05458 0.96152 0.0
H366 H 0.18084 0.04397 0.34882 0.0
C367 C 0.27666 0.09599 0.03886 0.0
C368 C 0.2508 0.07702 0.03832 0.0
H369 H 0.1237 0.0738 0.14635 0.0
H370 H 0.16935 0.07882 0.05138 0.0
H371 H 0.23559 0.02973 0.33408 0.0
H372 H 0.1946 0.11176 0.28028 0.0
H373 H 0.2298 0.12308 0.31646 0.0
H374 H 0.20741 0.09774 0.38215 0.0
H375 H 0.24779 0.06137 0.3954 0.0
H376 H 0.2694 0.04808 0.30442 0.0
C377 C 0.25734 0.02136 0.99076 0.0
C378 C 0.23095 0.059 0.89457 0.0
C379 C 0.34636 0.08909 0.28456 0.0
C380 C 0.33738 0.07791 0.36372 0.0
C381 C 0.3107 0.0889 0.4018 0.0
C382 C 0.28954 0.1041 0.35193 0.0
C383 C 0.29479 0.10547 0.26388 0.0
C384 C 0.32389 0.1017 0.2326 0.0
C385 C 0.32478 0.10283 0.13706 0.0
C386 C 0.29039 0.10396 0.11723 0.0
C387 C 0.27366 0.1016 0.1925 0.0
C388 C 0.34015 0.07332 0.10144 0.0
C389 C 0.34233 0.1319 0.11161 0.0
C390 C 0.17749 0.04896 0.28199 0.0
C391 C 0.14795 0.05452 0.25328 0.0
C392 C 0.1457 0.06633 0.16913 0.0
C393 C 0.17199 0.06894 0.11385 0.0
C394 C 0.20162 0.06211 0.14421 0.0
C395 C 0.20289 0.05713 0.23166 0.0
C396 C 0.22844 0.07469 0.2703 0.0
C397 C 0.24578 0.08535 0.1925 0.0
C398 C 0.23222 0.07535 0.11613 0.0
C399 C 0.24631 0.0526 0.3291 0.0
C400 C 0.21458 0.10306 0.31609 0.0
H401 H 0.31945 0.13384 0.95341 0.0
H402 H 0.30674 0.02836 0.84369 0.0
H403 H 0.23079 0.08285 0.8714 0.0
H404 H 0.2083 0.05422 0.92243 0.0
H405 H 0.23472 0.04362 0.83898 0.0
H406 H 0.27558 0.01841 0.03906 0.0
H407 H 0.26214 1.00592 0.93593 0.0
H408 H 0.23526 0.01455 0.0195 0.0
H409 H 0.36802 0.08212 0.25845 0.0
H410 H 0.30428 0.08199 0.46544 0.0
H411 H 0.26852 0.1102 0.38175 0.0
H412 H 0.32583 0.05301 0.11354 0.0
H413 H 0.36317 0.06951 0.12785 0.0
H414 H 0.34438 0.07399 0.03282 0.0
H415 H 0.3595 0.13848 0.1605 0.0
H416 H 0.32659 0.15148 0.10364 0.0
H417 H 0.35568 0.1285 0.05241 0.0
H418 H 0.36045 0.11138 0.87042 0.0
C419 C 0.31737 0.11063 0.93111 0.0
C420 C 0.47744 0.30646 0.87363 0.0
C421 C 0.4626 0.33521 0.85309 0.0
C422 C 0.4321 0.33849 0.88169 0.0
C423 C 0.43577 0.29375 0.96719 0.0
C424 C 0.46283 0.28543 0.93145 0.0
C425 C 0.47147 0.25398 0.97062 0.0
H426 H 0.4721 0.17767 0.35749 0.0
C427 C 0.43051 0.27701 0.04536 0.0
C428 C 0.44876 0.2507 0.04678 0.0
H429 H 0.45988 0.12357 0.13378 0.0
H430 H 0.45279 0.1708 0.04685 0.0
H431 H 0.4914 0.232 0.34572 0.0
H432 H 0.40839 0.19431 0.28851 0.0
H433 H 0.39765 0.23111 0.31918 0.0
H434 H 0.42138 0.20875 0.38927 0.0
H435 H 0.46012 0.24514 0.40658 0.0
H436 H 0.47482 0.26678 0.31884 0.0
C437 C 0.50474 0.25362 1.00058 0.0
C438 C 0.46552 0.22885 0.90417 0.0
C439 C 0.43184 0.34779 0.29047 0.0
C440 C 0.44529 0.33897 0.36694 0.0
C441 C 0.43602 0.31191 0.40544 0.0
C442 C 0.42011 0.29051 0.35706 0.0
C443 C 0.41743 0.29548 0.26922 0.0
C444 C 0.42017 0.32469 0.23793 0.0
C445 C 0.42017 0.32517 0.14211 0.0
C446 C 0.42092 0.29073 0.12254 0.0
C447 C 0.42237 0.27418 0.19814 0.0
C448 C 0.44936 0.34168 0.10902 0.0
C449 C 0.39058 0.34112 0.11284 0.0
C450 C 0.47028 0.17567 0.2888 0.0
C451 C 0.47063 0.14692 0.25126 0.0
C452 C 0.46328 0.14553 0.1631 0.0
C453 C 0.45947 0.17267 0.11295 0.0
C454 C 0.46139 0.20166 0.15204 0.0
C455 C 0.46277 0.20146 0.24044 0.0
C456 C 0.44633 0.22766 0.27864 0.0
C457 C 0.43783 0.24582 0.19985 0.0
C458 C 0.44909 0.23237 0.12427 0.0
C459 C 0.46904 0.2438 0.34057 0.0
C460 C 0.41703 0.21502 0.32198 0.0
H461 H 0.39493 0.32011 0.9537 0.0
H462 H 0.49969 0.30111 0.84794 0.0
H463 H 0.44201 0.23064 0.87837 0.0
H464 H 0.46774 0.20615 0.9335 0.0
H465 H 0.48176 0.23065 0.85016 0.0
H466 H 0.50871 0.27194 0.04855 0.0
H467 H 0.52042 0.25724 0.946 0.0
H468 H 0.51032 0.23137 0.02992 0.0
H469 H 0.43687 0.3701 0.26565 0.0
H470 H 0.44464 0.30558 0.46747 0.0
H471 H 0.41469 0.26938 0.38674 0.0
H472 H 0.46992 0.32735 0.11753 0.0
H473 H 0.45337 0.36404 0.13971 0.0
H474 H 0.44812 0.34761 0.04145 0.0
H475 H 0.38201 0.35749 0.16167 0.0
H476 H 0.37218 0.32431 0.10025 0.0
H477 H 0.39424 0.35503 0.05518 0.0
H478 H 0.41901 0.35873 0.86785 0.0
C479 C 0.41825 0.31705 0.93391 0.0
Eu480 Eu 0.04835 1.00508 0.73324 0.0
C481 C 0.92679 1.01074 0.53331 0.0
C482 C 0.94356 0.9936 0.39342 0.0
C483 C 0.89435 0.01787 0.41057 0.0
C484 C 0.94921 0.99856 0.48067 0.0
C485 C 0.89847 0.01916 0.49886 0.0
C486 C 0.9164 1.00425 0.35824 0.0
C487 C 0.88296 0.03615 0.63851 0.0
N488 N 0.93445 0.01909 0.614 0.0
C489 C 0.91259 0.03109 0.66749 0.0
C490 C 0.87617 0.03125 0.55289 0.0
Eu491 Eu 0.98685 0.03297 0.6172 0.0
N492 N 0.97776 0.99592 0.51194 0.0
C493 C 1.00044 0.98406 0.46283 0.0
C494 C 0.96663 0.98102 0.34262 0.0
C495 C 0.99505 0.97527 0.37854 0.0
H496 H 0.9183 0.04037 0.72927 0.0
H497 H 0.01335 0.9661 0.33991 0.0
H498 H 0.91274 1.00276 0.29041 0.0
H499 H 0.86619 0.04638 0.68042 0.0
H500 H 0.02288 0.98271 0.48805 0.0
H501 H 0.02303 0.06518 0.03018 0.0
H502 H 0.96303 0.97662 0.27535 0.0
H503 H 0.1173 1.00538 0.61531 0.0
H504 H 1.01064 0.05232 0.88235 0.0
H505 H 0.17033 1.00907 0.65348 0.0
H506 H 0.87402 0.02718 0.3823 0.0
H507 H 0.07491 0.05553 0.085 0.0
H508 H 0.12645 0.03202 0.05534 0.0
H509 H 0.854 0.03768 0.52866 0.0
H510 H 0.16776 0.0234 0.95423 0.0
N511 N 0.056 0.03894 0.84946 0.0
C512 C 0.03391 0.05013 0.90278 0.0
C513 C 0.07008 0.05203 0.01799 0.0
C514 C 0.09287 0.04264 0.96127 0.0
C515 C 0.04075 0.05728 0.98747 0.0
C516 C 0.08555 0.03847 0.87493 0.0
H517 H 0.18492 0.0189 0.80251 0.0
N518 N 0.10005 0.02225 0.73567 0.0
C519 C 0.15311 0.0154 0.69972 0.0
C520 C 0.10819 0.03033 0.81643 0.0
C521 C 0.12236 0.01476 0.67731 0.0
C522 C 0.16129 0.021 0.78384 0.0
C523 C 0.13871 0.02773 0.84366 0.0
O524 O 0.08255 0.96879 0.73035 0.0
O525 O 1.00921 0.98875 0.65052 0.0
O526 O 0.96551 0.01764 0.74413 0.0
O527 O 1.00648 1.00147 0.82455 0.0
O528 O 0.03789 0.95628 0.69227 0.0
O529 O 0.06045 0.98169 0.84952 0.0
O530 O 0.95427 0.07018 0.59777 0.0
O531 O 0.03017 0.05128 0.68283 0.0
O532 O 0.06754 0.01576 0.59914 0.0
O533 O 0.02866 0.04029 0.52822 0.0
O534 O 0.98913 0.07006 0.71819 0.0
O535 O 0.98326 0.05516 0.49412 0.0
C536 C 0.01414 0.95966 0.6466 0.0
C537 C 0.07672 0.93121 0.83528 0.0
C538 C 0.04427 0.89003 0.88086 0.0
C539 C 0.04785 0.91952 0.8514 0.0
C540 C 0.06984 0.87143 0.89298 0.0
C541 C 0.10244 0.91276 0.84657 0.0
C542 C 0.09893 0.88281 0.87509 0.0
C543 C 0.97687 1.00779 0.81702 0.0
C544 C 0.07963 0.96317 0.81159 0.0
C545 C 0.14527 0.02889 0.93077 0.0
C546 C 0.12206 0.035 0.98903 0.0
C547 C 0.01816 0.07382 0.72483 0.0
C548 C 0.95666 0.10147 0.47548 0.0
C549 C 0.98207 0.11905 0.45761 0.0
C550 C 0.97894 0.14685 0.41631 0.0
C551 C 0.95017 0.15668 0.38922 0.0
C552 C 0.92769 0.11138 0.45033 0.0
C553 C 0.9245 0.13889 0.40678 0.0
C554 C 0.05722 0.03018 0.53105 0.0
C555 C 0.9603 0.07218 0.51696 0.0
H556 H 0.02799 0.93379 0.8439 0.0
H557 H 0.06729 0.84857 0.91724 0.0
H558 H 0.12506 0.92162 0.83469 0.0
H559 H 0.11878 0.86864 0.88476 0.0
H560 H 1.0045 0.11121 0.47668 0.0
H561 H 0.94764 0.17798 0.35574 0.0
H562 H 0.90772 0.0977 0.46342 0.0
H563 H 0.90217 0.14638 0.38669 0.0
Eu564 Eu 0.5279 0.05428 0.72654 0.0
C565 C 0.53976 0.93516 0.53317 0.0
C566 C 0.55076 0.95143 0.38887 0.0
C567 C 0.54339 0.89807 0.41838 0.0
C568 C 0.54413 0.95849 0.4743 0.0
C569 C 0.54099 0.90451 0.50539 0.0
C570 C 0.54796 0.92153 0.3611 0.0
C571 C 0.5293 0.88869 0.64774 0.0
N572 N 0.52999 0.94219 0.61325 0.0
C573 C 0.52512 0.91907 0.67067 0.0
C574 C 0.53609 0.88135 0.56396 0.0
Eu575 Eu 0.50333 0.98954 0.61339 0.0
N576 N 0.5376 0.98761 0.49687 0.0
C577 C 0.54353 1.01079 0.44154 0.0
C578 C 0.55639 0.9749 0.33147 0.0
C579 C 0.55406 1.00487 0.35931 0.0
H580 H 0.51499 0.92276 0.73224 0.0
H581 H 0.55843 0.02341 0.316 0.0
H582 H 0.54628 0.91701 0.29484 0.0
H583 H 0.52457 0.87084 0.69302 0.0
H584 H 0.53955 0.03396 0.45866 0.0
H585 H 0.46445 0.02991 1.00826 0.0
H586 H 0.56203 0.97011 0.26548 0.0
H587 H 0.53216 0.12055 0.60889 0.0
H588 H 0.47934 0.01881 0.85871 0.0
H589 H 0.52901 0.17466 0.64202 0.0
H590 H 0.53957 0.87545 0.39359 0.0
H591 H 0.47379 0.08132 0.06644 0.0
H592 H 0.49806 0.13358 0.04007 0.0
H593 H 0.53615 0.85776 0.54469 0.0
H594 H 0.50876 0.17445 0.93998 0.0
N595 N 0.49131 0.06369 0.83171 0.0
C596 C 0.4805 0.04144 0.88286 0.0
C597 C 0.47729 0.07711 0.99932 0.0
C598 C 0.48691 0.1002 0.94434 0.0
C599 C 0.47244 0.04784 0.96706 0.0
C600 C 0.49153 0.09298 0.85815 0.0
H601 H 0.5156 0.19099 0.78805 0.0
N602 N 0.51089 0.10586 0.72356 0.0
C603 C 0.52074 0.15817 0.68734 0.0
C604 C 0.50099 0.11498 0.80146 0.0
C605 C 0.52108 0.12718 0.66686 0.0
C606 C 0.51309 0.16731 0.76967 0.0
C607 C 0.50427 0.14543 0.82875 0.0
O608 O 0.56528 0.08692 0.73427 0.0
O609 O 0.54819 1.01203 0.65955 0.0
O610 O 0.51116 0.97323 0.75002 0.0
O611 O 0.53637 0.01276 0.81772 0.0
O612 O 0.56582 0.05426 0.62955 0.0
O613 O 0.55024 0.06359 0.84768 0.0
O614 O 0.47331 0.95034 0.62664 0.0
O615 O 0.48595 0.0283 0.69404 0.0
O616 O 0.50661 0.07224 0.60172 0.0
O617 O 0.49179 0.02954 0.52374 0.0
O618 O 0.45363 0.99954 0.64974 0.0
O619 O 0.48192 0.96947 0.50164 0.0
C620 C 0.56963 0.02555 0.61698 0.0
C621 C 0.60028 0.08225 0.84542 0.0
C622 C 0.64276 0.05198 0.8926 0.0
C623 C 0.61406 0.05409 0.85551 0.0
C624 C 0.65849 0.07843 0.91701 0.0
C625 C 0.61587 0.10888 0.86873 0.0
C626 C 0.64508 0.10694 0.904 0.0
C627 C 0.52621 0.98403 0.8165 0.0
C628 C 0.56897 0.0836 0.81581 0.0
C629 C 0.50237 0.1522 0.91586 0.0
C630 C 0.49508 0.12923 0.97343 0.0
C631 C 0.457 0.02339 0.6963 0.0
C632 C 0.43559 0.94419 0.52313 0.0
C633 C 0.41864 0.9688 0.49482 0.0
C634 C 0.38785 0.96542 0.47708 0.0
C635 C 0.37368 0.93705 0.4861 0.0
C636 C 0.42175 0.91563 0.53213 0.0
C637 C 0.39078 0.91209 0.51322 0.0
C638 C 0.49534 0.05959 0.53118 0.0
C639 C 0.46742 0.94874 0.54528 0.0
H640 H 0.60167 0.03356 0.83932 0.0
H641 H 0.68062 0.07693 0.9471 0.0
H642 H 0.60525 0.13097 0.8612 0.0
H643 H 0.65699 0.12746 0.92304 0.0
H644 H 0.42925 0.99095 0.48766 0.0
H645 H 0.34967 0.93434 0.47214 0.0
H646 H 0.43478 0.89629 0.55407 0.0
H647 H 0.38003 0.89009 0.52013 0.0
Eu648 Eu 0.54516 0.50602 0.61074 0.0
C649 C 0.41379 0.51398 0.69938 0.0
C650 C 0.39292 0.54444 0.58452 0.0
C651 C 0.35912 0.51406 0.67152 0.0
C652 C 0.41812 0.53454 0.63313 0.0
C653 C 0.38401 0.50407 0.71975 0.0
C654 C 0.36358 0.53396 0.60378 0.0
C655 C 0.40459 0.47766 0.84076 0.0
N656 N 0.43802 0.50554 0.74799 0.0
C657 C 0.43343 0.48848 0.81988 0.0
C658 C 0.37974 0.48549 0.79066 0.0
Eu659 Eu 0.48351 0.53339 0.72317 0.0
N660 N 0.44636 0.54638 0.6196 0.0
C661 C 0.45064 0.56777 0.55795 0.0
C662 C 0.39759 0.56567 0.51999 0.0
C663 C 0.42662 0.57731 0.50659 0.0
H664 H 0.45209 0.48339 0.86246 0.0
H665 H 0.4305 0.59398 0.45736 0.0
H666 H 0.34403 0.54178 0.56799 0.0
H667 H 0.40156 0.4638 0.89665 0.0
H668 H 0.47253 0.5775 0.54682 0.0
H669 H 0.58337 0.44328 0.8981 0.0
H670 H 0.37885 0.57366 0.48127 0.0
H671 H 0.58545 0.55598 0.49451 0.0
H672 H 0.54576 0.46742 0.8076 0.0
H673 H 0.63911 0.56465 0.46043 0.0
H674 H 0.33617 0.50696 0.68716 0.0
H675 H 0.63816 0.4481 0.86579 0.0
H676 H 0.67905 0.46944 0.77346 0.0
H677 H 0.35722 0.47775 0.80862 0.0
H678 H 0.6939 0.50245 0.65506 0.0
N679 N 0.57802 0.48614 0.72013 0.0
C680 C 0.56927 0.46982 0.79025 0.0
C681 C 0.62156 0.45915 0.82542 0.0
C682 C 0.63064 0.477 0.75688 0.0
C683 C 0.59073 0.45623 0.84347 0.0
C684 C 0.60812 0.49135 0.70682 0.0
H685 H 0.67877 0.53858 0.54479 0.0
N686 N 0.5947 0.52638 0.59905 0.0
C687 C 0.633 0.55013 0.51315 0.0
C688 C 0.61662 0.51152 0.64374 0.0
C689 C 0.60257 0.54557 0.5342 0.0
C690 C 0.65539 0.53511 0.55911 0.0
C691 C 0.6476 0.51567 0.62481 0.0
O692 O 0.55103 0.5108 0.47311 0.0
O693 O 0.49655 0.5225 0.58537 0.0
O694 O 0.4857 0.47985 0.73941 0.0
O695 O 0.52543 0.46062 0.65805 0.0
O696 O 0.50831 0.47926 0.54294 0.0
O697 O 0.57646 0.47661 0.54221 0.0
O698 O 0.47214 0.53642 0.85796 0.0
O699 O 0.53181 0.51718 0.74469 0.0
O700 O 0.54569 0.55932 0.59934 0.0
O701 O 0.50294 0.57796 0.66891 0.0
O702 O 0.52091 0.55728 0.80174 0.0
O703 O 0.45269 0.56868 0.76985 0.0
C704 C 0.48707 0.49948 0.54052 0.0
C705 C 0.56128 0.4646 0.40369 0.0
C706 C 0.54195 0.41391 0.37214 0.0
C707 C 0.54955 0.43675 0.43042 0.0
C708 C 0.54454 0.42059 0.2843 0.0
C709 C 0.56467 0.47056 0.31692 0.0
C710 C 0.55603 0.44854 0.2573 0.0
C711 C 0.5019 0.45607 0.70984 0.0
C712 C 0.56922 0.48739 0.46768 0.0
C713 C 0.66998 0.49989 0.67045 0.0
C714 C 0.66153 0.48094 0.7373 0.0
C715 C 0.54274 0.53816 0.7928 0.0
C716 C 0.46026 0.58448 0.91094 0.0
C717 C 0.48351 0.60514 0.89538 0.0
C718 C 0.49363 0.62433 0.95999 0.0
C719 C 0.47867 0.6251 0.03888 0.0
C720 C 0.44504 0.58495 0.98947 0.0
C721 C 0.4539 0.60573 0.05287 0.0
C722 C 0.52782 0.58252 0.62266 0.0
C723 C 0.45479 0.56027 0.84918 0.0
H724 H 0.54633 0.43354 0.49736 0.0
H725 H 0.53724 0.40454 0.2358 0.0
H726 H 0.57355 0.49221 0.29557 0.0
H727 H 0.558 0.45312 0.19002 0.0
H728 H 0.49512 0.60523 0.83447 0.0
H729 H 0.48658 0.63999 0.08955 0.0
H730 H 0.42694 0.56886 1.00231 0.0
H731 H 0.44236 0.60599 0.11379 0.0
Eu732 Eu 0.02625 0.5446 0.61692 0.0
C733 C 0.99359 0.41646 0.70955 0.0
C734 C 0.95287 0.40587 0.60938 0.0
C735 C 0.97463 0.36476 0.69196 0.0
C736 C 0.97219 0.42673 0.65171 0.0
C737 C 0.99564 0.3852 0.72826 0.0
C738 C 0.95326 0.37509 0.6326 0.0
C739 C 0.04017 0.39637 0.81289 0.0
N740 N 0.01385 0.43692 0.74238 0.0
C741 C 0.03665 0.42724 0.79492 0.0
C742 C 0.0193 0.37528 0.78071 0.0
Eu743 Eu 0.99938 0.4889 0.73074 0.0
N744 N 0.97289 0.45657 0.63003 0.0
C745 C 0.95847 0.46561 0.55723 0.0
C746 C 0.93517 0.4162 0.54147 0.0
C747 C 0.93885 0.44597 0.51335 0.0
H748 H 0.0515 0.44325 0.82665 0.0
H749 H 0.92681 0.45379 0.45749 0.0
H750 H 0.93812 0.35886 0.60212 0.0
H751 H 0.05864 0.38901 0.85333 0.0
H752 H 0.96215 0.48783 0.5322 0.0
H753 H 0.08881 0.59366 0.892 0.0
H754 H 0.92012 0.40091 0.5071 0.0
H755 H 0.981 0.57902 0.47446 0.0
H756 H 0.06721 0.5522 0.80798 0.0
H757 H 0.96999 0.6302 0.43006 0.0
H758 H 0.97548 0.34074 0.70689 0.0
H759 H 0.07939 0.64697 0.85155 0.0
H760 H 0.05655 0.68372 0.75055 0.0
H761 H 0.02185 0.35141 0.79588 0.0
H762 H 0.02516 0.69367 0.62482 0.0
N763 N 0.04381 0.58096 0.72016 0.0
C764 C 0.06223 0.5751 0.78881 0.0
C765 C 0.06905 0.6287 0.81491 0.0
C766 C 0.0505 0.63483 0.74484 0.0
C767 C 0.07457 0.5987 0.83764 0.0
C768 C 0.03709 0.61027 0.69957 0.0
H769 H 0.99276 0.67442 0.50745 0.0
N770 N 1.00464 0.5924 0.58755 0.0
C771 C 0.9834 0.62703 0.48648 0.0
C772 C 0.01769 0.61607 0.63093 0.0
C773 C 0.98874 0.59765 0.51412 0.0
C774 C 0.99606 0.65155 0.53052 0.0
C775 C 0.01353 0.64632 0.60321 0.0
O776 O 0.02991 0.54857 0.47738 0.0
O777 O 0.01872 0.49447 0.59322 0.0
O778 O 0.05363 0.48907 0.7477 0.0
O779 O 0.07203 0.52713 0.66161 0.0
O780 O 0.0189 0.49429 0.59292 0.0
O781 O 0.0643 0.56758 0.56022 0.0
O782 O 1.00673 0.48104 0.86767 0.0
O783 O 0.01597 0.53744 0.7542 0.0
O784 O 0.97351 0.54992 0.60346 0.0
O785 O 0.95422 0.5094 0.67897 0.0
O786 O 0.9731 0.52857 0.79485 0.0
O787 O 0.96779 0.46181 0.8036 0.0
C788 C 0.04016 0.47742 0.55808 0.0
C789 C 0.0784 0.5598 0.4178 0.0
C790 C 0.1297 0.54314 0.38263 0.0
C791 C 0.10794 0.55208 0.44269 0.0
C792 C 0.12215 0.54612 0.29519 0.0
C793 C 0.07134 0.56274 0.33146 0.0
C794 C 0.09346 0.55649 0.2703 0.0
C795 C 0.07728 0.505 0.71594 0.0
C796 C 0.05489 0.56445 0.48221 0.0
C797 C 0.02779 0.67045 0.64642 0.0
C798 C 0.0458 0.66477 0.71773 0.0
C799 C 0.99362 0.54937 0.79484 0.0
C800 C 0.96088 0.47458 0.94489 0.0
C801 C 0.93667 0.49395 0.9263 0.0
C802 C 0.91623 0.5027 0.98891 0.0
C803 C 0.91856 0.49063 0.07101 0.0
C804 C 0.96347 0.46229 0.02666 0.0
C805 C 0.94205 0.47009 0.08945 0.0
C806 C 0.94987 0.53326 0.62853 0.0
C807 C 0.98147 0.46572 0.87608 0.0
H808 H 0.11271 0.55062 0.5095 0.0
H809 H 0.13754 0.53889 0.24519 0.0
H810 H 0.04869 0.56942 0.31153 0.0
H811 H 0.08795 0.55832 0.20334 0.0
H812 H 0.93314 0.50226 0.86247 0.0
H813 H 0.90263 0.49735 0.12037 0.0
H814 H 0.98163 0.44648 0.0414 0.0
H815 H 0.94387 0.46051 0.15252 0.0
C816 C 0.10206 0.0251 0.31428 0.0
C817 C 0.12128 0.05112 0.31721 0.0
C818 C 0.09649 0.06488 0.4565 0.0
C819 C 0.07952 0.03727 0.45715 0.0
N820 N 0.07602 0.98694 0.39665 0.0
N821 N 0.13905 0.09381 0.40001 0.0
C822 C 0.08471 0.01641 0.38813 0.0
C823 C 0.11908 0.07031 0.39123 0.0
N824 N 0.10104 1.00776 0.24187 0.0
N825 N 0.0909 0.08631 0.51814 0.0
H826 H 0.15181 0.10166 0.34899 0.0
H827 H 0.14265 0.10547 0.45717 0.0
H828 H 0.07506 0.08306 0.56672 0.0
H829 H 0.10037 0.10803 0.51807 0.0
H830 H 0.08507 0.99051 0.23234 0.0
H831 H 0.11437 0.0124 0.18868 0.0
H832 H 0.08075 0.96987 0.35212 0.0
H833 H 0.06906 0.9789 0.45507 0.0
C834 C 0.50726 0.11606 0.34142 0.0
C835 C 0.47736 0.11965 0.30881 0.0
C836 C 0.46007 0.08032 0.41206 0.0
C837 C 0.48906 0.08004 0.45326 0.0
N838 N 0.54015 0.10055 0.45639 0.0
N839 N 0.42448 0.10647 0.31893 0.0
C840 C 0.51256 0.0987 0.41731 0.0
C841 C 0.45369 0.10173 0.3449 0.0
N842 N 0.53096 0.12904 0.29844 0.0
N843 N 0.4382 0.06026 0.43708 0.0
H844 H 0.41895 0.12064 0.26822 0.0
H845 H 0.40582 0.09812 0.35222 0.0
H846 H 0.44015 0.04689 0.4913 0.0
H847 H 0.41902 0.05562 0.40025 0.0
H848 H 0.55377 0.12481 0.31198 0.0
H849 H 0.52782 0.14164 0.24306 0.0
H850 H 0.55687 0.11637 0.44092 0.0
H851 H 0.54542 0.08804 0.50981 0.0
C852 C 0.43693 0.51881 0.3376 0.0
C853 C 0.42088 0.49114 0.32292 0.0
C854 C 0.4476 0.46995 0.44934 0.0
C855 C 0.46368 0.49772 0.46555 0.0
N856 N 0.48337 0.54139 0.39303 0.0
N857 N 0.41985 0.43751 0.34968 0.0
C858 C 0.46104 0.52028 0.40057 0.0
C859 C 0.42942 0.46587 0.37383 0.0
N860 N 0.42932 0.54383 0.29162 0.0
N861 N 0.44888 0.44711 0.50709 0.0
H862 H 0.40689 0.43393 0.29472 0.0
H863 H 0.42735 0.4176 0.37869 0.0
H864 H 0.46453 0.44668 0.55657 0.0
H865 H 0.43278 0.42971 0.5082 0.0
H866 H 0.43824 0.56537 0.30458 0.0
H867 H 0.41304 0.54294 0.2432 0.0
H868 H 0.48421 0.55708 0.34363 0.0
H869 H 0.50305 0.53977 0.42945 0.0
C870 C 0.05709 0.44805 0.32424 0.0
C871 C 0.04158 0.41954 0.3186 0.0
C872 C 0.02527 0.42851 0.46845 0.0
C873 C 0.03739 0.45867 0.47259 0.0
N874 N 0.07827 0.48791 0.41398 0.0
N875 N 1.00472 0.38678 0.3839 0.0
C876 C 0.05659 0.4662 0.40197 0.0
C877 C 0.02302 0.41174 0.38926 0.0
N878 N 0.07285 0.45777 0.25457 0.0
N879 N 0.02364 0.41253 0.54159 0.0
H880 H 1.00304 0.37366 0.32843 0.0
H881 H 0.98932 0.38127 0.43202 0.0
H882 H 0.03434 0.42083 0.59613 0.0
H883 H 0.0177 0.38955 0.54339 0.0
H884 H 0.08234 0.47943 0.24983 0.0
H885 H 0.0738 0.44501 0.19821 0.0
H886 H 0.09644 0.49079 0.37238 0.0
H887 H 0.08062 0.49976 0.4713 0.0
C888 C 0.93663 0.97328 0.01698 0.0
C889 C 0.91196 0.99351 0.03482 0.0
C890 C 0.93476 0.02719 0.92339 0.0
C891 C 0.95509 1.00369 0.89436 0.0
N892 N 0.96872 0.95115 0.90761 0.0
N893 N 0.88763 0.04068 0.99762 0.0
C894 C 0.95445 0.97608 0.94046 0.0
C895 C 0.91126 0.02092 0.98635 0.0
N896 N 0.94352 0.9512 0.07415 0.0
N897 N 0.93847 0.05598 0.89338 0.0
H898 H 0.87071 0.03733 0.04308 0.0
H899 H 0.88389 0.0593 0.95832 0.0
H900 H 0.95547 0.06151 0.84993 0.0
H901 H 0.92681 0.07474 0.91797 0.0
H902 H 0.96369 0.93883 0.06968 0.0
H903 H 0.93138 0.9485 0.13081 0.0
H904 H 0.96551 0.92974 0.93329 0.0
H905 H 0.97963 0.95117 0.84867 0.0
C906 C 0.56399 0.91676 0.94109 0.0
C907 C 0.54921 0.91775 0.02232 0.0
C908 C 0.51696 0.95939 0.96553 0.0
C909 C 0.53414 0.96123 0.88839 0.0
N910 N 0.57396 0.93914 0.80293 0.0
N911 N 0.51479 0.94519 0.11461 0.0
C912 C 0.55762 0.93911 0.87669 0.0
C913 C 0.52721 0.94112 0.03572 0.0
N914 N 0.58475 0.89437 0.92552 0.0
N915 N 0.48828 0.971 0.96753 0.0
H916 H 0.52018 0.93142 0.16612 0.0
H917 H 0.50113 0.96388 0.12998 0.0
H918 H 0.47705 0.976 0.91128 0.0
H919 H 0.47381 0.96928 0.0199 0.0
H920 H 0.5924 0.88803 0.86518 0.0
H921 H 0.59481 0.88257 0.97499 0.0
H922 H 0.59399 0.92692 0.79332 0.0
H923 H 0.56759 0.95213 0.75095 0.0
C924 C 0.58815 0.52238 1.00581 0.0
C925 C 0.61433 0.5417 0.9979 0.0
C926 C 0.59596 0.55297 0.84914 0.0
C927 C 0.56856 0.53632 0.86043 0.0
N928 N 0.53685 0.50887 0.95827 0.0
N929 N 0.63714 0.58135 0.9126 0.0
C930 C 0.56422 0.52225 0.94155 0.0
C931 C 0.61666 0.5582 0.91901 0.0
N932 N 0.58663 0.50265 0.07226 0.0
N933 N 0.60225 0.56466 0.77092 0.0
H934 H 0.64874 0.58959 0.9652 0.0
H935 H 0.63873 0.59588 0.86076 0.0
H936 H 0.58679 0.56369 0.72089 0.0
H937 H 0.62362 0.5728 0.7535 0.0
H938 H 0.56994 0.48596 0.07706 0.0
H939 H 0.60383 0.50064 0.11747 0.0
H940 H 0.53032 0.50192 0.01886 0.0
H941 H 0.51991 0.50644 0.91222 0.0
C942 C 0.97303 0.62539 0.91893 0.0
C943 C 0.99002 0.62315 0.99656 0.0
C944 C 1.00993 0.57295 0.94231 0.0
C945 C 0.99393 0.57566 0.86301 0.0
N946 N 0.95973 0.60514 0.77755 0.0
N947 N 0.02753 0.59583 0.07632 0.0
C948 C 0.97522 0.6021 0.85253 0.0
C949 C 1.00902 0.59702 1.0065 0.0
N950 N 0.95456 0.6502 0.90908 0.0
N951 N 0.02572 0.54682 0.95762 0.0
H952 H 0.02639 0.61186 0.12564 0.0
H953 H 0.04507 0.58014 0.0836 0.0
H954 H 0.0291 0.53016 0.91117 0.0
H955 H 0.03438 0.54095 0.01693 0.0
H956 H 0.94041 0.65398 0.85729 0.0
H957 H 0.95164 0.66659 0.95683 0.0
H958 H 0.94648 0.62374 0.76105 0.0
H959 H 0.96086 0.58898 0.72878 0.0
C960 C 0.06013 0.15687 0.36607 0.0
C961 C 0.06826 0.18292 0.41436 0.0
C962 C 0.01547 0.18651 0.46466 0.0
C963 C 1.00705 0.16432 0.40291 0.0
N964 N 0.02097 0.13075 0.28696 0.0
N965 N 0.05695 0.2103 0.54296 0.0
C966 C 0.02927 0.15077 0.34982 0.0
C967 C 0.04674 0.19429 0.47392 0.0
N968 N 0.08124 0.13499 0.35026 0.0
N969 N 0.99359 0.20038 0.51316 0.0
H970 H 0.08021 0.21405 0.55236 0.0
H971 H 0.04312 0.2172 0.59344 0.0
H972 H 0.97054 0.19498 0.50806 0.0
H973 H 0.99792 0.21887 0.55323 0.0
H974 H 0.07624 0.11433 0.32026 0.0
H975 H 0.10185 0.13562 0.38266 0.0
H976 H 0.0366 0.12169 0.24354 0.0
H977 H 0.99822 0.12557 0.27396 0.0
C978 C 0.34689 0.02218 0.34 0.0
C979 C 0.34965 0.04866 0.39258 0.0
C980 C 0.3694 0.01763 0.50675 0.0
C981 C 0.37127 0.99254 0.44993 0.0
N982 N 0.36836 0.9731 0.30573 0.0
N983 N 0.36982 0.07227 0.51894 0.0
C984 C 0.36194 0.99534 0.36442 0.0
C985 C 0.36241 0.0466 0.47435 0.0
N986 N 0.32883 0.02197 0.2693 0.0
N987 N 0.37388 0.01375 0.59189 0.0
H988 H 0.36513 0.09419 0.4974 0.0
H989 H 0.38437 0.07131 0.57098 0.0
H990 H 0.37898 0.99268 0.61861 0.0
H991 H 0.36899 0.03089 0.63586 0.0
H992 H 0.32432 1.00228 0.23399 0.0
H993 H 0.31554 0.04039 0.25171 0.0
H994 H 0.36486 0.97599 0.2406 0.0
H995 H 0.37969 0.95299 0.32091 0.0
C996 C 0.48008 0.36933 0.45933 0.0
C997 C 0.47571 0.35103 0.3865 0.0
C998 C 0.5286 0.35977 0.344 0.0
C999 C 0.52886 0.38431 0.40131 0.0
N1000 N 0.51916 0.38872 0.55134 0.0
N1001 N 0.49828 0.32294 0.26787 0.0
C1002 C 0.50874 0.38305 0.47133 0.0
C1003 C 0.50102 0.34373 0.33233 0.0
N1004 N 0.45716 0.37383 0.51647 0.0
N1005 N 0.55477 0.3525 0.3016 0.0
H1006 H 0.47874 0.31022 0.25809 0.0
H1007 H 0.51487 0.31907 0.22172 0.0
H1008 H 0.57486 0.36465 0.31285 0.0
H1009 H 0.5573 0.33354 0.2621 0.0
H1010 H 0.4594 0.38902 0.56713 0.0
H1011 H 0.4357 0.36385 0.51035 0.0
H1012 H 0.50613 0.38397 0.60492 0.0
H1013 H 0.54227 0.39223 0.56334 0.0
C1014 C 0.16086 0.47279 0.45917 0.0
C1015 C 0.17771 0.46554 0.38544 0.0
C1016 C 0.17971 0.51993 0.34897 0.0
C1017 C 0.15693 0.52498 0.40948 0.0
N1018 N 0.15148 0.5137 0.55788 0.0
N1019 N 0.20749 0.48225 0.26661 0.0
C1020 C 0.1542 0.50369 0.47614 0.0
C1021 C 0.18878 0.4895 0.33249 0.0
N1022 N 0.15153 0.45055 0.51333 0.0
N1023 N 0.1919 0.54444 0.30839 0.0
H1024 H 0.21585 0.49756 0.22196 0.0
H1025 H 0.21585 0.49756 0.22196 0.0
H1026 H 0.18451 0.56649 0.3231 0.0
H1027 H 0.21028 0.54348 0.26668 0.0
H1028 H 0.13697 0.45511 0.56435 0.0
H1029 H 0.15659 0.42758 0.50329 0.0
H1030 H 0.15339 0.49902 0.60928 0.0
H1031 H 0.15296 0.53681 0.57324 0.0
C1032 C 0.97322 0.87753 0.01257 0.0
C1033 C 0.95314 0.86612 0.9489 0.0
C1034 C 0.99233 0.87228 0.84055 0.0
C1035 C 0.01336 0.88055 0.90523 0.0
N1036 N 0.023 0.89823 0.04861 0.0
N1037 N 0.93939 0.86279 0.80293 0.0
C1038 C 1.00361 0.88525 0.99041 0.0
C1039 C 0.96134 0.86787 0.86259 0.0
N1040 N 0.96298 0.88104 0.09386 0.0
N1041 N 1.00237 0.86706 0.75937 0.0
H1042 H 0.91671 0.85916 0.82038 0.0
H1043 H 0.94316 0.86426 0.73799 0.0
H1044 H 0.02495 0.87033 0.74084 0.0
H1045 H 0.98901 0.85698 0.71233 0.0
H1046 H 0.97692 0.88494 0.14637 0.0
H1047 H 0.93982 0.88162 0.10768 0.0
H1048 H 0.01668 0.90514 0.10959 0.0
H1049 H 0.04556 0.90371 0.03472 0.0
C1050 C 0.64234 0.97331 0.98156 0.0
C1051 C 0.66703 0.95951 0.93823 0.0
C1052 C 0.67355 1.00609 0.85462 0.0
C1053 C 0.65382 0.02129 0.91244 0.0
N1054 N 0.62 0.01993 0.03395 0.0
N1055 N 0.69501 0.95761 0.80757 0.0
C1056 C 0.6385 1.00507 0.97716 0.0
C1057 C 0.67885 0.97439 0.86542 0.0
N1058 N 0.62019 0.9558 0.01647 0.0
N1059 N 0.68723 0.02205 0.79072 0.0
H1060 H 0.69672 0.93398 0.81324 0.0
H1061 H 0.70625 0.9665 0.75516 0.0
H1062 H 0.68354 0.04526 0.78161 0.0
H1063 H 0.70317 0.01295 0.74871 0.0
H1064 H 0.6004 0.96462 0.04379 0.0
H1065 H 0.61909 0.93272 1.0026 0.0
H1066 H 0.61038 1.00924 0.08654 0.0
H1067 H 0.61649 0.04342 0.03294 0.0
C1068 C 0.55026 0.68089 0.87565 0.0
C1069 C 0.57672 0.67155 0.91961 0.0
C1070 C 0.55011 0.62616 0.96835 0.0
C1071 C 0.52231 0.64044 0.94548 0.0
N1072 N 0.49528 0.67994 0.87083 0.0
N1073 N 0.60492 0.63144 0.98339 0.0
C1074 C 0.52217 0.66725 0.89631 0.0
C1075 C 0.57778 0.6418 0.95322 0.0
N1076 N 0.55227 0.70129 0.8111 0.0
N1077 N 0.54985 0.59814 1.00572 0.0
H1078 H 0.62521 0.64291 0.96998 0.0
H1079 H 0.60696 0.61396 0.0273 0.0
H1080 H 0.5299 0.58615 0.01861 0.0
H1081 H 0.56932 0.58626 0.02263 0.0
H1082 H 0.53399 0.70703 0.77215 0.0
H1083 H 0.5731 0.70856 0.78777 0.0
H1084 H 0.49389 0.70122 0.84229 0.0
H1085 H 0.47412 0.67021 0.88371 0.0
C1086 C 0.84489 0.5428 0.91492 0.0
C1087 C 0.85331 0.57347 0.93188 0.0
C1088 C 0.90392 0.55767 0.97667 0.0
C1089 C 0.89458 0.52692 0.96735 0.0
N1090 N 0.86125 0.49039 0.89957 0.0
N1091 N 0.89175 0.611 0.95263 0.0
C1092 C 0.86672 0.5195 0.92691 0.0
C1093 C 0.88392 0.58097 0.94954 0.0
N1094 N 0.81554 0.53573 0.89405 0.0
N1095 N 0.93121 0.56439 0.01437 0.0
H1096 H 0.87661 0.62791 0.93298 0.0
H1097 H 0.91258 0.61909 0.97365 0.0
H1098 H 0.94678 0.54781 0.03314 0.0
H1099 H 0.93786 0.5862 0.03225 0.0
H1100 H 0.80699 0.51361 0.89418 0.0
H1101 H 0.79958 0.55209 0.87717 0.0
H1102 H 0.84289 0.48453 0.86074 0.0
H1103 H 0.87639 0.47249 0.90992 0.0
C1104 C 0.01409 0.1614 0.77045 0.0
C1105 C 0.04203 0.16857 0.81179 0.0
C1106 C 0.05956 0.11526 0.77266 0.0
C1107 C 0.03013 0.10731 0.74144 0.0
N1108 N 0.98905 0.13033 0.66455 0.0
N1109 N 0.09379 0.15278 0.83816 0.0
C1110 C 1.01012 0.13261 0.72756 0.0
C1111 C 0.06549 0.14551 0.80824 0.0
N1112 N 0.99033 0.18142 0.77424 0.0
N1113 N 0.08259 0.09506 0.75974 0.0
H1114 H 0.10011 0.17516 0.852 0.0
H1115 H 0.1109 0.13698 0.84985 0.0
H1116 H 0.07912 0.0756 0.72295 0.0
H1117 H 0.1052 0.09867 0.7765 0.0
H1118 H 0.96854 0.17596 0.75268 0.0
H1119 H 0.99141 0.20236 0.80545 0.0
H1120 H 0.97575 0.14847 0.6438 0.0
H1121 H 0.98942 0.11186 0.62335 0.0
C1122 C 0.3858 0.07294 0.75204 0.0
C1123 C 0.36849 0.05415 0.80914 0.0
C1124 C 0.41116 0.0164 0.79759 0.0
C1125 C 0.4295 0.03651 0.74714 0.0
N1126 N 0.43469 0.08631 0.68822 0.0
N1127 N 0.36965 1.00971 0.89866 0.0
C1128 C 0.417 0.06565 0.72935 0.0
C1129 C 0.38251 0.02626 0.83474 0.0
N1130 N 0.37149 0.09691 0.71402 0.0
N1131 N 0.42116 0.98734 0.81065 0.0
H1132 H 0.35002 0.01634 0.93083 0.0
H1133 H 0.38007 0.99092 0.92622 0.0
H1134 H 0.44286 0.9799 0.79341 0.0
H1135 H 0.40738 0.97013 0.83466 0.0
H1136 H 0.38183 0.11142 0.67068 0.0
H1137 H 0.34802 0.10026 0.71838 0.0
H1138 H 0.42872 0.10905 0.68038 0.0
H1139 H 0.45677 0.08121 0.6692 0.0
C1140 C 0.45664 0.38015 0.74938 0.0
C1141 C 0.47611 0.36281 0.80363 0.0
C1142 C 0.51554 0.40182 0.77088 0.0
C1143 C 0.49353 0.42303 0.73784 0.0
N1144 N 0.44007 0.42983 0.70406 0.0
N1145 N 0.52477 0.36282 0.87625 0.0
C1146 C 0.46311 0.41156 0.73116 0.0
C1147 C 0.50579 0.37523 0.8173 0.0
N1148 N 0.43244 0.36614 0.71103 0.0
N1149 N 0.54573 0.40521 0.75362 0.0
H1150 H 0.51843 0.34489 0.91527 0.0
H1151 H 0.54559 0.37274 0.89243 0.0
H1152 H 0.55384 0.42054 0.70915 0.0
H1153 H 0.56201 0.38929 0.77222 0.0
H1154 H 0.41824 0.37699 0.66759 0.0
H1155 H 0.4289 0.3427 0.7152 0.0
H1156 H 0.41724 0.42342 0.70758 0.0
H1157 H 0.44346 0.45179 0.68239 0.0
C1158 C 0.15508 0.46372 0.76958 0.0
C1159 C 0.17286 0.4871 0.8105 0.0
C1160 C 0.13181 0.523 0.7669 0.0
C1161 C 0.11097 0.49887 0.74413 0.0
N1162 N 0.10571 0.44475 0.72202 0.0
N1163 N 0.17163 0.53889 0.86398 0.0
C1164 C 0.12342 0.46876 0.74661 0.0
C1165 C 0.15935 0.51663 0.8135 0.0
N1166 N 0.16905 0.43709 0.74672 0.0
N1167 N 0.12708 0.55212 0.74041 0.0
H1168 H 0.18993 0.53525 0.90467 0.0
H1169 H 0.16104 0.55991 0.87344 0.0
H1170 H 0.11035 0.55842 0.69761 0.0
H1171 H 0.14305 0.56936 0.75015 0.0
H1172 H 0.15855 0.42018 0.71031 0.0
H1173 H 0.19232 0.43351 0.75541 0.0
H1174 H 0.11157 0.42218 0.73389 0.0
H1175 H 0.08485 0.44745 0.69146 0.0
C1176 C 0.01798 0.88539 0.50531 0.0
C1177 C 0.98957 0.87062 0.52173 0.0
C1178 C 0.97425 0.91772 0.60597 0.0
C1179 C 1.00294 0.93202 0.59153 0.0
N1180 N 0.05336 0.92729 0.53178 0.0
N1181 N 0.93916 0.87536 0.58143 0.0
C1182 C 0.025 0.915 0.54242 0.0
C1183 C 0.96731 0.88781 0.56964 0.0
N1184 N 0.03805 0.87155 0.4505 0.0
N1185 N 0.95438 0.93172 0.6606 0.0
H1186 H 0.93449 0.85247 0.56939 0.0
H1187 H 0.92034 0.88765 0.60282 0.0
H1188 H 0.95831 0.95349 0.68529 0.0
H1189 H 0.93495 0.92144 0.68508 0.0
H1190 H 0.05958 0.87949 0.43516 0.0
H1191 H 0.03262 0.85241 0.41416 0.0
H1192 H 0.07144 0.91708 0.50006 0.0
H1193 H 0.05972 0.94824 0.55715 0.0
C1194 C 0.65 0.98394 0.60477 0.0
C1195 C 0.6654 0.99971 0.53798 0.0
C1196 C 0.61745 0.02924 0.51769 0.0
C1197 C 0.60203 0.01441 0.58723 0.0
N1198 N 0.61163 0.98656 0.7155 0.0
N1199 N 0.66018 0.03691 0.42585 0.0
C1200 C 0.62045 0.99392 0.63531 0.0
C1201 C 0.64829 0.02219 0.49436 0.0
N1202 N 0.66311 0.95864 0.63849 0.0
N1203 N 0.603 0.05117 0.47224 0.0
H1204 H 0.68186 0.03321 0.40073 0.0
H1205 H 0.68186 0.03321 0.40073 0.0
H1206 H 0.58112 0.05795 0.4849 0.0
H1207 H 0.61295 0.06282 0.42168 0.0
H1208 H 0.65148 0.94413 0.67948 0.0
H1209 H 0.68476 0.95111 0.62077 0.0
H1210 H 0.62539 0.97439 0.75721 0.0
H1211 H 0.59222 0.99581 0.74342 0.0
C1212 C 0.5286 0.65905 0.49509 0.0
C1213 C 0.55018 0.67734 0.53993 0.0
C1214 C 0.55461 0.63472 0.64485 0.0
C1215 C 0.53578 0.61534 0.59436 0.0
N1216 N 0.51336 0.60791 0.4565 0.0
N1217 N 0.58757 0.67926 0.65234 0.0
C1218 C 0.52486 0.62739 0.51587 0.0
C1219 C 0.56424 0.66408 0.61341 0.0
N1220 N 0.51227 0.67131 0.42985 0.0
N1221 N 0.56324 0.6252 0.7237 0.0
H1222 H 0.59312 0.70173 0.63803 0.0
H1223 H 0.60207 0.66923 0.69646 0.0
H1224 H 0.55507 0.60517 0.75031 0.0
H1225 H 0.57654 0.63807 0.76512 0.0
H1226 H 0.49395 0.6601 0.40133 0.0
H1227 H 0.51506 0.69357 0.40923 0.0
H1228 H 0.5074 0.61422 0.3949 0.0
H1229 H 0.5143 0.58467 0.46595 0.0
C1230 C 0.86116 0.54801 0.61504 0.0
C1231 C 0.85586 0.55109 0.52585 0.0
C1232 C 0.91178 0.54147 0.50389 0.0
C1233 C 0.91745 0.54018 0.59349 0.0
N1234 N 0.89713 0.54879 0.7336 0.0
N1235 N 0.87886 0.55624 0.38754 0.0
C1236 C 0.89188 0.5449 0.64865 0.0
C1237 C 0.88201 0.54917 0.47141 0.0
N1238 N 0.83664 0.54814 0.66843 0.0
N1239 N 0.93467 0.53455 0.44803 0.0
H1240 H 0.85783 0.56038 0.36039 0.0
H1241 H 0.89708 0.56026 0.34666 0.0
H1242 H 0.95714 0.53102 0.46617 0.0
H1243 H 0.93103 0.53023 0.38351 0.0
H1244 H 0.8381 0.54277 0.73265 0.0
H1245 H 0.8144 0.55105 0.64654 0.0
H1246 H 0.8807 0.55701 0.77536 0.0
H1247 H 0.91874 0.54728 0.76049 0.0
loop_
_geom_bond_atom_site_label_1
_geom_bond_atom_site_label_2
_geom_bond_distance
_geom_bond_site_symmetry_2
_ccdc_geom_bond_type
C0 C1 1.391 . S
C0 C4 1.391 . S
C0 H42 0.948 . S
C1 C0 1.391 . S
C1 C2 1.391 . S
C2 C1 1.391 . S
C2 H58 0.947 . S
C2 C59 1.392 . S
C3 C4 1.391 . S
C3 C7 1.397 . S
C3 C59 1.419 . S
C4 C0 1.391 . S
C4 C3 1.391 . S
C4 C5 1.399 . S
C5 C4 1.399 . S
C5 C8 1.396 . S
C5 C17 1.453 . S
C5 C18 1.684 . S
H6 C30 0.948 . S
C7 C3 1.397 . S
C7 C8 1.394 . S
C7 C26 1.723 . S
C8 C5 1.396 . S
C8 C7 1.394 . S
C8 C38 1.723 . S
H9 C32 0.947 . S
H10 C33 0.948 . S
H11 C39 0.982 . S
H12 C40 0.979 . S
H13 C40 0.980 . S
H14 C40 0.983 . S
H15 C39 0.979 . S
H16 C39 0.977 . S
C17 C5 1.453 . S
C17 H46 0.982 . S
C17 H47 0.979 . S
C17 H48 0.977 . S
C18 C5 1.684 . S
C18 H43 0.979 . S
C18 H44 0.980 . S
C18 H45 0.983 . S
C19 C20 1.391 . S
C19 C24 1.391 . S
C19 H49 0.948 . S
C20 C19 1.391 . S
C20 C21 1.394 . S
C21 C20 1.394 . S
C21 C22 1.398 . S
C21 H50 0.938 1_554 S
C22 C21 1.398 . S
C22 C23 1.419 . S
C22 H51 0.948 . S
C23 C22 1.419 . S
C23 C24 1.391 . S
C23 C27 1.397 . S
C24 C19 1.391 . S
C24 C23 1.391 . S
C24 C25 1.399 . S
C25 C24 1.399 . S
C25 C26 1.396 . S
C25 C28 1.453 . S
C25 C29 1.684 . S
C26 C7 1.723 . S
C26 C25 1.396 . S
C26 C27 1.394 . S
C27 C23 1.397 . S
C27 C26 1.394 . S
C27 C37 1.723 . S
C28 C25 1.453 . S
C28 H52 0.982 . S
C28 H53 0.979 . S
C28 H54 0.977 . S
C29 C25 1.684 . S
C29 H55 0.979 . S
C29 H56 0.980 . S
C29 H57 0.983 . S
C30 H6 0.948 . S
C30 C31 1.391 . S
C30 C35 1.391 . S
C31 C30 1.391 . S
C31 C32 1.391 . S
C32 H9 0.947 . S
C32 C31 1.391 . S
C32 C33 1.392 . S
C33 H10 0.948 . S
C33 C32 1.392 . S
C33 C34 1.419 . S
C34 C33 1.419 . S
C34 C35 1.391 . S
C34 C38 1.397 . S
C35 C30 1.391 . S
C35 C34 1.391 . S
C35 C36 1.399 . S
C36 C35 1.399 . S
C36 C37 1.396 . S
C36 C39 1.453 . S
C36 C40 1.684 . S
C37 C27 1.723 . S
C37 C36 1.396 . S
C37 C38 1.394 . S
C38 C8 1.723 . S
C38 C34 1.397 . S
C38 C37 1.394 . S
C39 H11 0.982 . S
C39 H15 0.979 . S
C39 H16 0.977 . S
C39 C36 1.453 . S
C40 H12 0.979 . S
C40 H13 0.980 . S
C40 H14 0.983 . S
C40 C36 1.684 . S
H41 C59 0.948 . S
H42 C0 0.948 . S
H43 C18 0.979 . S
H44 C18 0.980 . S
H45 C18 0.983 . S
H46 C17 0.982 . S
H47 C17 0.979 . S
H48 C17 0.977 . S
H49 C19 0.948 . S
H50 C21 0.938 1_556 S
H51 C22 0.948 . S
H52 C28 0.982 . S
H53 C28 0.979 . S
H54 C28 0.977 . S
H55 C29 0.979 . S
H56 C29 0.980 . S
H57 C29 0.983 . S
H58 C2 0.947 . S
C59 C2 1.392 . S
C59 C3 1.419 . S
C59 H41 0.948 . S
C60 C61 1.391 . S
C60 C64 1.391 . S
C60 H102 0.948 1_554 S
C61 C60 1.391 . S
C61 C62 1.391 . S
C62 C61 1.391 . S
C62 H118 0.947 . S
C62 C119 1.392 . S
C63 C64 1.391 . S
C63 C67 1.397 . S
C63 C119 1.419 . S
C64 C60 1.391 . S
C64 C63 1.391 . S
C64 C65 1.399 . S
C65 C64 1.399 . S
C65 C68 1.396 . S
C65 C77 1.453 . S
C65 C78 1.684 . S
H66 C90 0.948 . S
C67 C63 1.397 . S
C67 C68 1.394 . S
C67 C86 1.723 . S
C68 C65 1.396 . S
C68 C67 1.394 . S
C68 C98 1.723 . S
H69 C92 0.947 . S
H70 C93 0.948 . S
H71 C99 0.982 . S
H72 C100 0.979 . S
H73 C100 0.980 . S
H74 C100 0.983 . S
H75 C99 0.979 . S
H76 C99 0.977 . S
C77 C65 1.453 . S
C77 H106 0.982 . S
C77 H107 0.979 . S
C77 H108 0.977 . S
C78 C65 1.684 . S
C78 H103 0.979 . S
C78 H104 0.980 . S
C78 H105 0.983 1_554 S
C79 C80 1.391 . S
C79 C84 1.391 . S
C79 H109 0.948 . S
C80 C79 1.391 . S
C80 C81 1.391 . S
C81 C80 1.391 . S
C81 C82 1.392 . S
C81 H110 0.947 . S
C82 C81 1.392 . S
C82 C83 1.419 . S
C82 H111 0.948 . S
C83 C82 1.419 . S
C83 C84 1.391 . S
C83 C87 1.397 . S
C84 C79 1.391 . S
C84 C83 1.391 . S
C84 C85 1.399 . S
C85 C84 1.399 . S
C85 C86 1.396 . S
C85 C88 1.453 . S
C85 C89 1.684 . S
C86 C67 1.723 . S
C86 C85 1.396 . S
C86 C87 1.394 . S
C87 C83 1.397 . S
C87 C86 1.394 . S
C87 C97 1.723 . S
C88 C85 1.453 . S
C88 H112 0.982 . S
C88 H113 0.979 . S
C88 H114 0.977 . S
C89 C85 1.684 . S
C89 H115 0.979 . S
C89 H116 0.980 . S
C89 H117 0.983 . S
C90 H66 0.948 . S
C90 C91 1.391 . S
C90 C95 1.391 . S
C91 C90 1.391 . S
C91 C92 1.391 . S
C92 H69 0.947 . S
C92 C91 1.391 . S
C92 C93 1.392 . S
C93 H70 0.948 . S
C93 C92 1.392 . S
C93 C94 1.419 . S
C94 C93 1.419 . S
C94 C95 1.391 . S
C94 C98 1.397 . S
C95 C90 1.391 . S
C95 C94 1.391 . S
C95 C96 1.399 . S
C96 C95 1.399 . S
C96 C97 1.396 . S
C96 C99 1.453 . S
C96 C100 1.684 . S
C97 C87 1.723 . S
C97 C96 1.396 . S
C97 C98 1.394 . S
C98 C68 1.723 . S
C98 C94 1.397 . S
C98 C97 1.394 . S
C99 H71 0.982 . S
C99 H75 0.979 . S
C99 H76 0.977 . S
C99 C96 1.453 . S
C100 H72 0.979 . S
C100 H73 0.980 . S
C100 H74 0.983 . S
C100 C96 1.684 . S
H101 C119 0.948 . S
H102 C60 0.948 1_556 S
H103 C78 0.979 . S
H104 C78 0.980 . S
H105 C78 0.983 1_556 S
H106 C77 0.982 . S
H107 C77 0.979 . S
H108 C77 0.977 . S
H109 C79 0.948 . S
H110 C81 0.947 . S
H111 C82 0.948 . S
H112 C88 0.982 . S
H113 C88 0.979 . S
H114 C88 0.977 . S
H115 C89 0.979 . S
H116 C89 0.980 . S
H117 C89 0.983 . S
H118 C62 0.947 . S
C119 C62 1.392 . S
C119 C63 1.419 . S
C119 H101 0.948 . S
C120 C121 1.391 . S
C120 C124 1.391 . S
C120 H162 0.948 . S
C121 C120 1.391 . S
C121 C122 1.391 . S
C122 C121 1.391 . S
C122 H178 0.947 . S
C122 C179 1.392 . S
C123 C124 1.391 . S
C123 C127 1.397 . S
C123 C179 1.419 . S
C124 C120 1.391 . S
C124 C123 1.391 . S
C124 C125 1.399 . S
C125 C124 1.399 . S
C125 C128 1.396 . S
C125 C137 1.453 . S
C125 C138 1.684 . S
H126 C150 0.948 . S
C127 C123 1.397 . S
C127 C128 1.394 . S
C127 C146 1.723 . S
C128 C125 1.396 . S
C128 C127 1.394 . S
C128 C158 1.723 . S
H129 C152 0.947 . S
H130 C153 0.948 . S
H131 C159 0.982 . S
H132 C160 0.979 . S
H133 C160 0.980 . S
H134 C160 0.983 . S
H135 C159 0.979 . S
H136 C159 0.977 . S
C137 C125 1.453 . S
C137 H166 0.982 . S
C137 H167 0.979 . S
C137 H168 0.977 . S
C138 C125 1.684 . S
C138 H163 0.979 . S
C138 H164 0.980 . S
C138 H165 0.983 . S
C139 C140 1.391 . S
C139 C144 1.391 . S
C139 H169 0.948 1_554 S
C140 C139 1.391 . S
C140 C141 1.391 . S
C141 C140 1.391 . S
C141 C142 1.392 . S
C141 H170 0.947 . S
C142 C141 1.392 . S
C142 C143 1.419 . S
C142 H171 0.948 . S
C143 C142 1.419 . S
C143 C144 1.391 . S
C143 C147 1.397 . S
C144 C139 1.391 . S
C144 C143 1.391 . S
C144 C145 1.399 . S
C145 C144 1.399 . S
C145 C146 1.396 . S
C145 C148 1.453 . S
C145 C149 1.684 . S
C146 C127 1.723 . S
C146 C145 1.396 . S
C146 C147 1.394 . S
C147 C143 1.397 . S
C147 C146 1.394 . S
C147 C157 1.723 . S
C148 C145 1.453 . S
C148 H172 0.982 . S
C148 H173 0.979 . S
C148 H174 0.977 . S
C149 C145 1.684 . S
C149 H175 0.979 . S
C149 H176 0.980 . S
C149 H177 0.983 1_554 S
C150 H126 0.948 . S
C150 C151 1.391 . S
C150 C155 1.391 . S
C151 C150 1.391 . S
C151 C152 1.391 . S
C152 H129 0.947 . S
C152 C151 1.391 . S
C152 C153 1.392 . S
C153 H130 0.948 . S
C153 C152 1.392 . S
C153 C154 1.419 . S
C154 C153 1.419 . S
C154 C155 1.391 . S
C154 C158 1.397 . S
C155 C150 1.391 . S
C155 C154 1.391 . S
C155 C156 1.399 . S
C156 C155 1.399 . S
C156 C157 1.396 . S
C156 C159 1.453 . S
C156 C160 1.684 . S
C157 C147 1.723 . S
C157 C156 1.396 . S
C157 C158 1.394 . S
C158 C128 1.723 . S
C158 C154 1.397 . S
C158 C157 1.394 . S
C159 H131 0.982 . S
C159 H135 0.979 . S
C159 H136 0.977 . S
C159 C156 1.453 . S
C160 H132 0.979 . S
C160 H133 0.980 . S
C160 H134 0.983 . S
C160 C156 1.684 . S
H161 C179 0.948 . S
H162 C120 0.948 . S
H163 C138 0.979 . S
H164 C138 0.980 . S
H165 C138 0.983 . S
H166 C137 0.982 . S
H167 C137 0.979 . S
H168 C137 0.977 . S
H169 C139 0.948 1_556 S
H170 C141 0.947 . S
H171 C142 0.948 . S
H172 C148 0.982 . S
H173 C148 0.979 . S
H174 C148 0.977 . S
H175 C149 0.979 . S
H176 C149 0.980 . S
H177 C149 0.983 1_556 S
H178 C122 0.947 . S
C179 C122 1.392 . S
C179 C123 1.419 . S
C179 H161 0.948 . S
C180 C181 1.391 . S
C180 C184 1.391 . S
C180 H222 0.948 . S
C181 C180 1.391 . S
C181 C182 1.391 . S
C182 C181 1.391 . S
C182 H238 0.947 . S
C182 C239 1.392 . S
C183 C184 1.391 . S
C183 C187 1.397 . S
C183 C239 1.419 . S
C184 C180 1.391 . S
C184 C183 1.391 . S
C184 C185 1.399 . S
C185 C184 1.399 . S
C185 C188 1.396 . S
C185 C197 1.453 . S
C185 C198 1.684 . S
H186 C210 0.948 . S
C187 C183 1.397 . S
C187 C188 1.394 . S
C187 C206 1.723 . S
C188 C185 1.396 . S
C188 C187 1.394 . S
C188 C218 1.723 . S
H189 C212 0.947 . S
H190 C213 0.948 . S
H191 C219 0.982 . S
H192 C220 0.979 . S
H193 C220 0.980 . S
H194 C220 0.983 . S
H195 C219 0.979 . S
H196 C219 0.977 . S
C197 C185 1.453 . S
C197 H226 0.982 . S
C197 H227 0.979 . S
C197 H228 0.977 . S
C198 C185 1.684 . S
C198 H223 0.979 . S
C198 H224 0.980 . S
C198 H225 0.983 . S
C199 C200 1.391 . S
C199 C204 1.391 . S
C199 H229 0.948 . S
C200 C199 1.391 . S
C200 C201 1.391 . S
C201 C200 1.391 . S
C201 C202 1.392 . S
C201 H230 0.947 1_554 S
C202 C201 1.392 . S
C202 C203 1.419 . S
C202 H231 0.948 . S
C203 C202 1.419 . S
C203 C204 1.391 . S
C203 C207 1.397 . S
C204 C199 1.391 . S
C204 C203 1.391 . S
C204 C205 1.399 . S
C205 C204 1.399 . S
C205 C206 1.396 . S
C205 C208 1.453 . S
C205 C209 1.684 . S
C206 C187 1.723 . S
C206 C205 1.396 . S
C206 C207 1.394 . S
C207 C203 1.397 . S
C207 C206 1.394 . S
C207 C217 1.723 . S
C208 C205 1.453 . S
C208 H232 0.982 . S
C208 H233 0.979 . S
C208 H234 0.977 . S
C209 C205 1.684 . S
C209 H235 0.979 . S
C209 H236 0.980 . S
C209 H237 0.983 . S
C210 H186 0.948 . S
C210 C211 1.391 . S
C210 C215 1.391 . S
C211 C210 1.391 . S
C211 C212 1.391 . S
C212 H189 0.947 . S
C212 C211 1.391 . S
C212 C213 1.392 . S
C213 H190 0.948 . S
C213 C212 1.392 . S
C213 C214 1.419 . S
C214 C213 1.419 . S
C214 C215 1.391 . S
C214 C218 1.397 . S
C215 C210 1.391 . S
C215 C214 1.391 . S
C215 C216 1.399 . S
C216 C215 1.399 . S
C216 C217 1.396 . S
C216 C219 1.453 . S
C216 C220 1.684 . S
C217 C207 1.723 . S
C217 C216 1.396 . S
C217 C218 1.394 . S
C218 C188 1.723 . S
C218 C214 1.397 . S
C218 C217 1.394 . S
C219 H191 0.982 . S
C219 H195 0.979 . S
C219 H196 0.977 . S
C219 C216 1.453 . S
C220 H192 0.979 . S
C220 H193 0.980 . S
C220 H194 0.983 . S
C220 C216 1.684 . S
H221 C239 0.948 . S
H222 C180 0.948 . S
H223 C198 0.979 . S
H224 C198 0.980 . S
H225 C198 0.983 . S
H226 C197 0.982 . S
H227 C197 0.979 . S
H228 C197 0.977 . S
H229 C199 0.948 . S
H230 C201 0.947 1_556 S
H231 C202 0.948 . S
H232 C208 0.982 . S
H233 C208 0.979 . S
H234 C208 0.977 . S
H235 C209 0.979 . S
H236 C209 0.980 . S
H237 C209 0.983 . S
H238 C182 0.947 . S
C239 C182 1.392 . S
C239 C183 1.419 . S
C239 H221 0.948 . S
C240 C241 1.391 . S
C240 C244 1.391 . S
C240 H282 0.948 1_554 S
C241 C240 1.391 . S
C241 C242 1.391 . S
C242 C241 1.391 . S
C242 H298 0.947 . S
C242 C299 1.392 . S
C243 C244 1.391 . S
C243 C247 1.397 . S
C243 C299 1.419 . S
C244 C240 1.391 . S
C244 C243 1.391 . S
C244 C245 1.399 1_554 S
C245 C244 1.399 1_556 S
C245 C248 1.396 . S
C245 C257 1.453 . S
C245 C258 1.684 . S
H246 C270 0.948 . S
C247 C243 1.397 . S
C247 C248 1.394 1_554 S
C247 C266 1.723 . S
C248 C245 1.396 . S
C248 C247 1.394 1_556 S
C248 C278 1.723 . S
H249 C272 0.947 . S
H250 C273 0.948 . S
H251 C279 0.982 . S
H252 C280 0.979 . S
H253 C280 0.980 . S
H254 C280 0.983 . S
H255 C279 0.979 . S
H256 C279 0.977 . S
C257 C245 1.453 . S
C257 H286 0.982 . S
C257 H287 0.979 . S
C257 H288 0.977 . S
C258 C245 1.684 . S
C258 H283 0.979 . S
C258 H284 0.980 . S
C258 H285 0.983 . S
C259 C260 1.391 . S
C259 C264 1.391 . S
C259 H289 0.948 . S
C260 C259 1.391 . S
C260 C261 1.391 . S
C261 C260 1.391 . S
C261 C262 1.392 . S
C261 H290 0.947 . S
C262 C261 1.392 . S
C262 C263 1.419 . S
C262 H291 0.948 . S
C263 C262 1.419 . S
C263 C264 1.391 . S
C263 C267 1.397 . S
C264 C259 1.391 . S
C264 C263 1.391 . S
C264 C265 1.399 . S
C265 C264 1.399 . S
C265 C266 1.396 . S
C265 C268 1.453 . S
C265 C269 1.684 . S
C266 C247 1.723 . S
C266 C265 1.396 . S
C266 C267 1.394 . S
C267 C263 1.397 . S
C267 C266 1.394 . S
C267 C277 1.723 1_554 S
C268 C265 1.453 . S
C268 H292 0.982 . S
C268 H293 0.979 . S
C268 H294 0.977 . S
C269 C265 1.684 . S
C269 H295 0.979 . S
C269 H296 0.980 . S
C269 H297 0.983 . S
C270 H246 0.948 . S
C270 C271 1.391 . S
C270 C275 1.391 . S
C271 C270 1.391 . S
C271 C272 1.391 . S
C272 H249 0.947 . S
C272 C271 1.391 . S
C272 C273 1.392 . S
C273 H250 0.948 . S
C273 C272 1.392 . S
C273 C274 1.419 . S
C274 C273 1.419 . S
C274 C275 1.391 . S
C274 C278 1.397 . S
C275 C270 1.391 . S
C275 C274 1.391 . S
C275 C276 1.399 . S
C276 C275 1.399 . S
C276 C277 1.396 . S
C276 C279 1.453 . S
C276 C280 1.684 . S
C277 C267 1.723 1_556 S
C277 C276 1.396 . S
C277 C278 1.394 . S
C278 C248 1.723 . S
C278 C274 1.397 . S
C278 C277 1.394 . S
C279 H251 0.982 . S
C279 H255 0.979 . S
C279 H256 0.977 . S
C279 C276 1.453 . S
C280 H252 0.979 . S
C280 H253 0.980 . S
C280 H254 0.983 . S
C280 C276 1.684 . S
H281 C299 0.948 . S
H282 C240 0.948 1_556 S
H283 C258 0.979 . S
H284 C258 0.980 . S
H285 C258 0.983 . S
H286 C257 0.982 . S
H287 C257 0.979 . S
H288 C257 0.977 . S
H289 C259 0.948 . S
H290 C261 0.947 . S
H291 C262 0.948 . S
H292 C268 0.982 . S
H293 C268 0.979 . S
H294 C268 0.977 . S
H295 C269 0.979 . S
H296 C269 0.980 . S
H297 C269 0.983 . S
H298 C242 0.947 . S
C299 C242 1.392 . S
C299 C243 1.419 . S
C299 H281 0.948 . S
C300 C301 1.391 . S
C300 C304 1.391 . S
C300 H342 0.948 . S
C301 C300 1.391 . S
C301 C302 1.391 . S
C302 C301 1.391 . S
C302 H358 0.947 . S
C302 C359 1.392 . S
C303 C304 1.391 . S
C303 C307 1.397 . S
C303 C359 1.419 . S
C304 C300 1.391 . S
C304 C303 1.391 . S
C304 C305 1.399 . S
C305 C304 1.399 . S
C305 C308 1.396 . S
C305 C317 1.453 . S
C305 C318 1.684 . S
H306 C330 0.948 1_556 S
C307 C303 1.397 . S
C307 C308 1.394 . S
C307 C326 1.723 1_554 S
C308 C305 1.396 . S
C308 C307 1.394 . S
C308 C338 1.723 . S
H309 C332 0.947 . S
H310 C333 0.948 . S
H311 C339 0.982 . S
H312 C340 0.979 . S
H313 C340 0.980 . S
H314 C340 0.983 . S
H315 C339 0.979 . S
H316 C339 0.977 . S
C317 C305 1.453 . S
C317 H346 0.982 . S
C317 H347 0.979 . S
C317 H348 0.977 . S
C318 C305 1.684 . S
C318 H343 0.979 . S
C318 H344 0.980 . S
C318 H345 0.983 . S
C319 C320 1.391 . S
C319 C324 1.391 . S
C319 H349 0.948 . S
C320 C319 1.391 . S
C320 C321 1.391 . S
C321 C320 1.391 . S
C321 C322 1.392 . S
C321 H350 0.947 . S
C322 C321 1.392 . S
C322 C323 1.419 . S
C322 H351 0.948 . S
C323 C322 1.419 . S
C323 C324 1.391 . S
C323 C327 1.397 . S
C324 C319 1.391 . S
C324 C323 1.391 . S
C324 C325 1.399 . S
C325 C324 1.399 . S
C325 C326 1.396 . S
C325 C328 1.453 . S
C325 C329 1.684 . S
C326 C307 1.723 1_556 S
C326 C325 1.396 . S
C326 C327 1.394 . S
C327 C323 1.397 . S
C327 C326 1.394 . S
C327 C337 1.723 . S
C328 C325 1.453 . S
C328 H352 0.982 . S
C328 H353 0.979 . S
C328 H354 0.977 . S
C329 C325 1.684 . S
C329 H355 0.979 . S
C329 H356 0.980 . S
C329 H357 0.983 . S
C330 H306 0.948 1_554 S
C330 C331 1.391 . S
C330 C335 1.391 . S
C331 C330 1.391 . S
C331 C332 1.391 . S
C332 H309 0.947 . S
C332 C331 1.391 . S
C332 C333 1.392 . S
C333 H310 0.948 . S
C333 C332 1.392 . S
C333 C334 1.419 . S
C334 C333 1.419 . S
C334 C335 1.391 . S
C334 C338 1.397 . S
C335 C330 1.391 . S
C335 C334 1.391 . S
C335 C336 1.399 1_554 S
C336 C335 1.399 1_556 S
C336 C337 1.396 . S
C336 C339 1.453 . S
C336 C340 1.684 . S
C337 C327 1.723 . S
C337 C336 1.396 . S
C337 C338 1.394 1_556 S
C338 C308 1.723 . S
C338 C334 1.397 . S
C338 C337 1.394 1_554 S
C339 H311 0.982 . S
C339 H315 0.979 . S
C339 H316 0.977 . S
C339 C336 1.453 . S
C340 H312 0.979 . S
C340 H313 0.980 . S
C340 H314 0.983 . S
C340 C336 1.684 . S
H341 C359 0.948 . S
H342 C300 0.948 . S
H343 C318 0.979 . S
H344 C318 0.980 . S
H345 C318 0.983 . S
H346 C317 0.982 . S
H347 C317 0.979 . S
H348 C317 0.977 . S
H349 C319 0.948 . S
H350 C321 0.947 . S
H351 C322 0.948 . S
H352 C328 0.982 . S
H353 C328 0.979 . S
H354 C328 0.977 . S
H355 C329 0.979 . S
H356 C329 0.980 . S
H357 C329 0.983 . S
H358 C302 0.947 . S
C359 C302 1.392 . S
C359 C303 1.419 . S
C359 H341 0.948 . S
C360 C361 1.391 . S
C360 C364 1.391 . S
C360 H402 0.948 . S
C361 C360 1.391 . S
C361 C362 1.391 . S
C362 C361 1.391 . S
C362 H418 0.947 . S
C362 C419 1.392 . S
C363 C364 1.391 . S
C363 C367 1.397 . S
C363 C419 1.419 . S
C364 C360 1.391 . S
C364 C363 1.391 . S
C364 C365 1.399 . S
C365 C364 1.399 . S
C365 C368 1.396 . S
C365 C377 1.453 . S
C365 C378 1.684 . S
H366 C390 0.948 . S
C367 C363 1.397 . S
C367 C368 1.394 . S
C367 C386 1.723 1_556 S
C368 C365 1.396 . S
C368 C367 1.394 . S
C368 C398 1.723 1_556 S
H369 C392 0.956 . S
H370 C393 0.948 . S
H371 C399 0.982 . S
H372 C400 0.979 . S
H373 C400 0.980 . S
H374 C400 0.983 . S
H375 C399 0.979 . S
H376 C399 0.977 . S
C377 C365 1.453 . S
C377 H406 0.982 . S
C377 H407 0.979 . S
C377 H408 0.977 . S
C378 C365 1.684 . S
C378 H403 0.979 . S
C378 H404 0.980 . S
C378 H405 0.983 . S
C379 C380 1.391 . S
C379 C384 1.391 . S
C379 H409 0.948 . S
C380 C379 1.391 . S
C380 C381 1.391 . S
C381 C380 1.391 . S
C381 C382 1.392 . S
C381 H410 0.947 . S
C382 C381 1.392 . S
C382 C383 1.419 . S
C382 H411 0.948 . S
C383 C382 1.419 . S
C383 C384 1.391 . S
C383 C387 1.397 . S
C384 C379 1.391 . S
C384 C383 1.391 . S
C384 C385 1.399 . S
C385 C384 1.399 . S
C385 C386 1.396 . S
C385 C388 1.453 . S
C385 C389 1.684 . S
C386 C367 1.723 1_554 S
C386 C385 1.396 . S
C386 C387 1.394 . S
C387 C383 1.397 . S
C387 C386 1.394 . S
C387 C397 1.723 . S
C388 C385 1.453 . S
C388 H412 0.982 . S
C388 H413 0.979 . S
C388 H414 0.977 1_554 S
C389 C385 1.684 . S
C389 H415 0.979 . S
C389 H416 0.980 1_554 S
C389 H417 0.983 . S
C390 H366 0.948 . S
C390 C391 1.391 . S
C390 C395 1.391 . S
C391 C390 1.391 . S
C391 C392 1.378 1_554 S
C392 H369 0.956 . S
C392 C391 1.378 1_556 S
C392 C393 1.396 . S
C393 H370 0.948 . S
C393 C392 1.396 . S
C393 C394 1.419 1_556 S
C394 C393 1.419 1_554 S
C394 C395 1.391 . S
C394 C398 1.397 . S
C395 C390 1.391 . S
C395 C394 1.391 . S
C395 C396 1.399 . S
C396 C395 1.399 . S
C396 C397 1.396 . S
C396 C399 1.453 . S
C396 C400 1.684 . S
C397 C387 1.723 . S
C397 C396 1.396 . S
C397 C398 1.394 . S
C398 C368 1.723 1_554 S
C398 C394 1.397 . S
C398 C397 1.394 . S
C399 H371 0.982 . S
C399 H375 0.979 . S
C399 H376 0.977 . S
C399 C396 1.453 . S
C400 H372 0.979 . S
C400 H373 0.980 . S
C400 H374 0.983 . S
C400 C396 1.684 . S
H401 C419 0.948 . S
H402 C360 0.948 . S
H403 C378 0.979 . S
H404 C378 0.980 . S
H405 C378 0.983 . S
H406 C377 0.982 . S
H407 C377 0.979 . S
H408 C377 0.977 . S
H409 C379 0.948 . S
H410 C381 0.947 . S
H411 C382 0.948 . S
H412 C388 0.982 . S
H413 C388 0.979 . S
H414 C388 0.977 1_556 S
H415 C389 0.979 . S
H416 C389 0.980 1_556 S
H417 C389 0.983 . S
H418 C362 0.947 . S
C419 C362 1.392 . S
C419 C363 1.419 . S
C419 H401 0.948 . S
C420 C421 1.391 . S
C420 C424 1.391 . S
C420 H462 0.948 . S
C421 C420 1.391 . S
C421 C422 1.391 . S
C422 C421 1.391 . S
C422 H478 0.947 . S
C422 C479 1.392 . S
C423 C424 1.391 . S
C423 C427 1.397 . S
C423 C479 1.419 . S
C424 C420 1.391 . S
C424 C423 1.391 . S
C424 C425 1.399 . S
C425 C424 1.399 . S
C425 C428 1.396 . S
C425 C437 1.453 . S
C425 C438 1.684 . S
H426 C450 0.948 . S
C427 C423 1.397 . S
C427 C428 1.394 . S
C427 C446 1.723 1_556 S
C428 C425 1.396 . S
C428 C427 1.394 . S
C428 C458 1.723 1_556 S
H429 C452 0.947 1_556 S
H430 C453 0.948 . S
H431 C459 0.982 . S
H432 C460 0.979 . S
H433 C460 0.980 . S
H434 C460 0.983 . S
H435 C459 0.979 . S
H436 C459 0.977 . S
C437 C425 1.453 . S
C437 H466 0.982 . S
C437 H467 0.979 . S
C437 H468 0.977 . S
C438 C425 1.684 . S
C438 H463 0.979 . S
C438 H464 0.980 . S
C438 H465 0.983 . S
C439 C440 1.391 . S
C439 C444 1.391 . S
C439 H469 0.948 . S
C440 C439 1.391 . S
C440 C441 1.391 . S
C441 C440 1.391 . S
C441 C442 1.392 . S
C441 H470 0.947 . S
C442 C441 1.392 . S
C442 C443 1.419 . S
C442 H471 0.948 . S
C443 C442 1.419 . S
C443 C444 1.391 . S
C443 C447 1.397 . S
C444 C439 1.391 . S
C444 C443 1.391 . S
C444 C445 1.399 . S
C445 C444 1.399 . S
C445 C446 1.396 . S
C445 C448 1.453 . S
C445 C449 1.684 . S
C446 C427 1.723 1_554 S
C446 C445 1.396 . S
C446 C447 1.394 . S
C447 C443 1.397 . S
C447 C446 1.394 . S
C447 C457 1.723 . S
C448 C445 1.453 . S
C448 H472 0.982 . S
C448 H473 0.979 . S
C448 H474 0.977 1_554 S
C449 C445 1.684 . S
C449 H475 0.979 . S
C449 H476 0.980 1_554 S
C449 H477 0.983 . S
C450 H426 0.948 . S
C450 C451 1.391 . S
C450 C455 1.391 . S
C451 C450 1.391 . S
C451 C452 1.391 . S
C452 H429 0.947 1_554 S
C452 C451 1.391 . S
C452 C453 1.392 1_554 S
C453 H430 0.948 . S
C453 C452 1.392 1_556 S
C453 C454 1.419 1_556 S
C454 C453 1.419 1_554 S
C454 C455 1.391 . S
C454 C458 1.397 . S
C455 C450 1.391 . S
C455 C454 1.391 . S
C455 C456 1.399 . S
C456 C455 1.399 . S
C456 C457 1.396 . S
C456 C459 1.453 . S
C456 C460 1.684 . S
C457 C447 1.723 . S
C457 C456 1.396 . S
C457 C458 1.394 . S
C458 C428 1.723 1_554 S
C458 C454 1.397 . S
C458 C457 1.394 . S
C459 H431 0.982 . S
C459 H435 0.979 . S
C459 H436 0.977 . S
C459 C456 1.453 . S
C460 H432 0.979 . S
C460 H433 0.980 . S
C460 H434 0.983 . S
C460 C456 1.684 . S
H461 C479 0.948 . S
H462 C420 0.948 . S
H463 C438 0.979 . S
H464 C438 0.980 . S
H465 C438 0.983 . S
H466 C437 0.982 . S
H467 C437 0.979 . S
H468 C437 0.977 . S
H469 C439 0.948 . S
H470 C441 0.947 . S
H471 C442 0.948 . S
H472 C448 0.982 . S
H473 C448 0.979 . S
H474 C448 0.977 1_556 S
H475 C449 0.979 . S
H476 C449 0.980 1_556 S
H477 C449 0.983 . S
H478 C422 0.947 . S
C479 C422 1.392 . S
C479 C423 1.419 . S
C479 H461 0.948 . S
Eu480 N511 2.657 1_565 S
Eu480 N518 2.609 . S
Eu480 O524 2.558 . S
Eu480 O525 2.612 1_455 S
Eu480 O527 2.339 1_455 S
Eu480 O528 2.563 . S
Eu480 O529 2.419 . S
Eu480 O531 2.380 1_565 S
Eu480 O532 2.432 . S
Eu480 C544 2.848 . S
C481 C484 1.416 1_545 S
C481 C485 1.406 1_545 S
C481 N488 1.394 . S
C482 C484 1.420 . S
C482 C486 1.423 . S
C482 C494 1.392 . S
C483 C485 1.420 . S
C483 C486 1.351 . S
C483 H506 0.931 . S
C484 C481 1.416 1_565 S
C484 C482 1.420 . S
C484 N492 1.362 . S
C485 C481 1.406 1_565 S
C485 C483 1.420 . S
C485 C490 1.395 1_565 S
C486 C482 1.423 . S
C486 C483 1.351 . S
C486 H498 0.930 . S
C487 C489 1.400 . S
C487 C490 1.386 . S
C487 H499 0.930 . S
N488 C481 1.394 . S
N488 C489 1.321 . S
N488 Eu491 2.609 . S
C489 C487 1.400 . S
C489 N488 1.321 . S
C489 H496 0.930 . S
C490 C485 1.395 1_545 S
C490 C487 1.386 . S
C490 H509 0.930 . S
Eu491 N488 2.609 . S
Eu491 N492 2.657 1_545 S
Eu491 O525 2.380 1_545 S
Eu491 O526 2.432 . S
Eu491 O530 2.558 . S
Eu491 O531 2.612 1_655 S
Eu491 O533 2.339 1_655 S
Eu491 O534 2.554 1_655 S
Eu491 O535 2.419 . S
Eu491 C555 2.848 . S
N492 C484 1.362 . S
N492 Eu491 2.657 1_565 S
N492 C493 1.334 . S
C493 N492 1.334 . S
C493 C495 1.413 . S
C493 H500 0.929 1_655 S
C494 C482 1.392 . S
C494 C495 1.367 . S
C494 H502 0.930 . S
C495 C493 1.413 . S
C495 C494 1.367 . S
C495 H497 0.930 1_655 S
H496 C489 0.930 . S
H497 C495 0.930 1_455 S
H498 C486 0.930 . S
H499 C487 0.930 . S
H500 C493 0.929 1_455 S
H501 C515 0.930 1_654 S
H502 C494 0.930 . S
H503 C521 0.930 . S
H504 C512 0.929 1_655 S
H505 C519 0.930 . S
H506 C483 0.931 . S
H507 C513 0.930 . S
H508 C546 0.930 . S
H509 C490 0.930 . S
H510 C545 0.931 . S
N511 Eu480 2.657 1_545 S
N511 C512 1.334 . S
N511 C516 1.362 . S
C512 H504 0.929 1_455 S
C512 N511 1.334 . S
C512 C515 1.413 . S
C513 H507 0.930 . S
C513 C514 1.392 1_554 S
C513 C515 1.367 1_554 S
C514 C513 1.392 1_556 S
C514 C516 1.420 . S
C514 C546 1.423 1_556 S
C515 H501 0.930 1_456 S
C515 C512 1.413 . S
C515 C513 1.367 1_556 S
C516 N511 1.362 . S
C516 C514 1.420 . S
C516 C520 1.429 . S
H517 C522 0.930 . S
N518 Eu480 2.609 . S
N518 C520 1.377 1_565 S
N518 C521 1.321 . S
C519 H505 0.930 . S
C519 C521 1.400 . S
C519 C522 1.386 1_565 S
C520 C516 1.429 . S
C520 N518 1.377 1_545 S
C520 C523 1.411 . S
C521 H503 0.930 . S
C521 N518 1.321 . S
C521 C519 1.400 . S
C522 H517 0.930 . S
C522 C519 1.386 1_545 S
C522 C523 1.395 . S
C523 C520 1.411 . S
C523 C522 1.395 . S
C523 C545 1.420 . S
O524 Eu480 2.558 . S
O524 C544 1.257 . S
O525 Eu480 2.612 1_655 S
O525 Eu491 2.380 1_565 S
O525 C536 1.276 . S
O526 Eu491 2.432 . S
O526 C543 1.287 . S
O527 Eu480 2.339 1_655 S
O527 C543 1.245 1_565 S
O528 Eu480 2.563 . S
O528 C536 1.235 1_455 S
O529 Eu480 2.419 . S
O529 C544 1.249 . S
O530 Eu491 2.558 . S
O530 C555 1.257 . S
O531 Eu480 2.380 1_545 S
O531 Eu491 2.612 1_455 S
O531 C547 1.276 . S
O532 Eu480 2.432 . S
O532 C554 1.264 1_565 S
O533 Eu491 2.339 1_455 S
O533 C554 1.254 . S
O534 Eu491 2.554 1_455 S
O534 C547 1.252 . S
O535 Eu491 2.419 . S
O535 C555 1.249 . S
C536 O525 1.276 . S
C536 O528 1.235 1_655 S
C537 C539 1.393 . S
C537 C541 1.395 . S
C537 C544 1.492 . S
C538 C539 1.392 . S
C538 C540 1.386 . S
C539 C537 1.393 . S
C539 C538 1.392 . S
C539 H556 0.930 . S
C540 C538 1.386 . S
C540 C542 1.395 . S
C540 H557 0.937 . S
C541 C537 1.395 . S
C541 C542 1.379 . S
C541 H558 0.930 . S
C542 C540 1.395 . S
C542 C541 1.379 . S
C542 H559 0.930 . S
C543 O526 1.287 . S
C543 O527 1.245 1_545 S
C544 Eu480 2.848 . S
C544 O524 1.257 . S
C544 O529 1.249 . S
C544 C537 1.492 . S
C545 H510 0.931 . S
C545 C523 1.420 . S
C545 C546 1.351 1_556 S
C546 H508 0.930 . S
C546 C514 1.423 1_554 S
C546 C545 1.351 1_554 S
C547 O531 1.276 . S
C547 O534 1.252 . S
C548 C549 1.393 . S
C548 C552 1.395 . S
C548 C555 1.492 . S
C549 C548 1.393 . S
C549 C550 1.392 . S
C549 H560 0.930 1_655 S
C550 C549 1.392 . S
C550 C551 1.386 . S
C551 C550 1.386 . S
C551 C553 1.395 . S
C551 H561 0.930 . S
C552 C548 1.395 . S
C552 C553 1.379 . S
C552 H562 0.930 . S
C553 C551 1.395 . S
C553 C552 1.379 . S
C553 H563 0.930 . S
C554 O532 1.264 1_545 S
C554 O533 1.254 . S
C555 Eu491 2.848 . S
C555 O530 1.257 . S
C555 O535 1.249 . S
C555 C548 1.492 . S
H556 C539 0.930 . S
H557 C540 0.937 . S
H558 C541 0.930 . S
H559 C542 0.930 . S
H560 C549 0.930 1_455 S
H561 C551 0.930 . S
H562 C552 0.930 . S
H563 C553 0.930 . S
Eu564 N595 2.657 . S
Eu564 N602 2.609 . S
Eu564 O608 2.558 . S
Eu564 O609 2.612 1_545 S
Eu564 O611 2.339 1_545 S
Eu564 O612 2.563 . S
Eu564 O613 2.419 . S
Eu564 O615 2.380 . S
Eu564 O616 2.432 . S
Eu564 C628 2.848 . S
C565 C568 1.429 . S
C565 C569 1.411 . S
C565 N572 1.377 . S
C566 C568 1.420 . S
C566 C570 1.423 . S
C566 C578 1.392 . S
C567 C569 1.420 . S
C567 C570 1.351 . S
C567 H590 0.931 . S
C568 C565 1.429 . S
C568 C566 1.420 . S
C568 N576 1.362 . S
C569 C565 1.411 . S
C569 C567 1.420 . S
C569 C574 1.395 . S
C570 C566 1.423 . S
C570 C567 1.351 . S
C570 H582 0.930 . S
C571 C573 1.400 . S
C571 C574 1.386 . S
C571 H583 0.930 . S
N572 C565 1.377 . S
N572 C573 1.321 . S
N572 Eu575 2.609 . S
C573 C571 1.400 . S
C573 N572 1.321 . S
C573 H580 0.930 . S
C574 C569 1.395 . S
C574 C571 1.386 . S
C574 H593 0.930 . S
Eu575 N572 2.609 . S
Eu575 N576 2.657 . S
Eu575 O609 2.380 . S
Eu575 O610 2.432 . S
Eu575 O614 2.558 . S
Eu575 O615 2.612 1_565 S
Eu575 O617 2.339 1_565 S
Eu575 O618 2.563 1_565 S
Eu575 O619 2.419 . S
Eu575 C639 2.848 . S
N576 C568 1.362 . S
N576 Eu575 2.657 . S
N576 C577 1.313 1_565 S
C577 N576 1.313 1_545 S
C577 C579 1.412 1_545 S
C577 H584 0.952 . S
C578 C566 1.392 . S
C578 C579 1.367 . S
C578 H586 0.930 . S
C579 C577 1.412 1_565 S
C579 C578 1.367 . S
C579 H581 0.930 1_565 S
H580 C573 0.930 . S
H581 C579 0.930 1_545 S
H582 C570 0.930 . S
H583 C571 0.930 . S
H584 C577 0.952 . S
H585 C599 0.930 1_564 S
H586 C578 0.930 . S
H587 C605 0.930 . S
H588 C596 0.929 1_565 S
H589 C603 0.930 . S
H590 C567 0.931 . S
H591 C597 0.930 . S
H592 C630 0.930 . S
H593 C574 0.930 . S
H594 C629 0.931 . S
N595 Eu564 2.657 . S
N595 C596 1.334 . S
N595 C600 1.362 . S
C596 H588 0.929 1_545 S
C596 N595 1.334 . S
C596 C599 1.413 . S
C597 H591 0.930 . S
C597 C598 1.392 1_554 S
C597 C599 1.367 1_554 S
C598 C597 1.392 1_556 S
C598 C600 1.420 . S
C598 C630 1.423 1_556 S
C599 H585 0.930 1_546 S
C599 C596 1.413 . S
C599 C597 1.367 1_556 S
C600 N595 1.362 . S
C600 C598 1.420 . S
C600 C604 1.429 . S
H601 C606 0.930 . S
N602 Eu564 2.609 . S
N602 C604 1.377 . S
N602 C605 1.321 . S
C603 H589 0.930 . S
C603 C605 1.400 . S
C603 C606 1.386 . S
C604 C600 1.429 . S
C604 N602 1.377 . S
C604 C607 1.411 . S
C605 H587 0.930 . S
C605 N602 1.321 . S
C605 C603 1.400 . S
C606 H601 0.930 . S
C606 C603 1.386 . S
C606 C607 1.395 . S
C607 C604 1.411 . S
C607 C606 1.395 . S
C607 C629 1.420 . S
O608 Eu564 2.558 . S
O608 C628 1.257 . S
O609 Eu564 2.612 1_565 S
O609 Eu575 2.380 . S
O609 C620 1.276 . S
O610 Eu575 2.432 . S
O610 C627 1.264 . S
O611 Eu564 2.339 1_565 S
O611 C627 1.254 . S
O612 Eu564 2.563 . S
O612 C620 1.235 1_545 S
O613 Eu564 2.419 . S
O613 C628 1.249 . S
O614 Eu575 2.558 . S
O614 C639 1.257 . S
O615 Eu564 2.380 . S
O615 Eu575 2.612 1_545 S
O615 C631 1.276 . S
O616 Eu564 2.432 . S
O616 C638 1.264 . S
O617 Eu575 2.339 1_545 S
O617 C638 1.254 . S
O618 Eu575 2.563 1_545 S
O618 C631 1.235 . S
O619 Eu575 2.419 . S
O619 C639 1.249 . S
C620 O609 1.276 . S
C620 O612 1.235 1_565 S
C621 C623 1.393 . S
C621 C625 1.395 . S
C621 C628 1.492 . S
C622 C623 1.392 . S
C622 C624 1.386 . S
C623 C621 1.393 . S
C623 C622 1.392 . S
C623 H640 0.930 . S
C624 C622 1.386 . S
C624 C626 1.395 . S
C624 H641 0.930 1_556 S
C625 C621 1.395 . S
C625 C626 1.379 . S
C625 H642 0.930 . S
C626 C624 1.395 . S
C626 C625 1.379 . S
C626 H643 0.930 . S
C627 O610 1.264 . S
C627 O611 1.254 . S
C628 Eu564 2.848 . S
C628 O608 1.257 . S
C628 O613 1.249 . S
C628 C621 1.492 . S
C629 H594 0.931 . S
C629 C607 1.420 . S
C629 C630 1.351 1_556 S
C630 H592 0.930 . S
C630 C598 1.423 1_554 S
C630 C629 1.351 1_554 S
C631 O615 1.276 . S
C631 O618 1.235 . S
C632 C633 1.393 . S
C632 C636 1.395 . S
C632 C639 1.492 . S
C633 C632 1.393 . S
C633 C634 1.392 . S
C633 H644 0.930 1_565 S
C634 C633 1.392 . S
C634 C635 1.386 . S
C635 C634 1.386 . S
C635 C637 1.395 . S
C635 H645 0.930 . S
C636 C632 1.395 . S
C636 C637 1.379 . S
C636 H646 0.930 . S
C637 C635 1.395 . S
C637 C636 1.379 . S
C637 H647 0.930 . S
C638 O616 1.264 . S
C638 O617 1.254 . S
C639 Eu575 2.848 . S
C639 O614 1.257 . S
C639 O619 1.249 . S
C639 C632 1.492 . S
H640 C623 0.930 . S
H641 C624 0.930 1_554 S
H642 C625 0.930 . S
H643 C626 0.930 . S
H644 C633 0.930 1_545 S
H645 C635 0.930 . S
H646 C636 0.930 . S
H647 C637 0.930 . S
Eu648 N679 2.657 . S
Eu648 N686 2.609 . S
Eu648 O692 2.558 . S
Eu648 O693 2.612 . S
Eu648 O695 2.339 . S
Eu648 O696 2.563 . S
Eu648 O697 2.419 . S
Eu648 O699 2.380 . S
Eu648 O700 2.432 . S
Eu648 C712 2.848 . S
C649 C652 1.429 . S
C649 C653 1.411 . S
C649 N656 1.377 . S
C650 C652 1.420 . S
C650 C654 1.423 . S
C650 C662 1.392 . S
C651 C653 1.420 . S
C651 C654 1.351 . S
C651 H674 0.931 . S
C652 C649 1.429 . S
C652 C650 1.420 . S
C652 N660 1.362 . S
C653 C649 1.411 . S
C653 C651 1.420 . S
C653 C658 1.395 . S
C654 C650 1.423 . S
C654 C651 1.351 . S
C654 H666 0.930 . S
C655 C657 1.400 . S
C655 C658 1.386 . S
C655 H667 0.930 . S
N656 C649 1.377 . S
N656 C657 1.321 . S
N656 Eu659 2.609 . S
C657 C655 1.400 . S
C657 N656 1.321 . S
C657 H664 0.930 . S
C658 C653 1.395 . S
C658 C655 1.386 . S
C658 H677 0.930 . S
Eu659 N656 2.609 . S
Eu659 N660 2.657 . S
Eu659 O693 2.380 . S
Eu659 O694 2.432 . S
Eu659 O698 2.558 . S
Eu659 O699 2.612 . S
Eu659 O701 2.339 . S
Eu659 O702 2.563 . S
Eu659 O703 2.419 . S
Eu659 C723 2.848 . S
N660 C652 1.362 . S
N660 Eu659 2.657 . S
N660 C661 1.334 . S
C661 N660 1.334 . S
C661 C663 1.413 . S
C661 H668 0.929 . S
C662 C650 1.392 . S
C662 C663 1.367 . S
C662 H670 0.930 . S
C663 C661 1.413 . S
C663 C662 1.367 . S
C663 H665 0.930 . S
H664 C657 0.930 . S
H665 C663 0.930 . S
H666 C654 0.930 . S
H667 C655 0.930 . S
H668 C661 0.929 . S
H669 C683 0.930 . S
H670 C662 0.930 . S
H671 C689 0.930 . S
H672 C680 0.929 . S
H673 C687 0.930 . S
H674 C651 0.931 . S
H675 C681 0.930 . S
H676 C714 0.930 . S
H677 C658 0.930 . S
H678 C713 0.931 . S
N679 Eu648 2.657 . S
N679 C680 1.334 . S
N679 C684 1.362 . S
C680 H672 0.929 . S
C680 N679 1.334 . S
C680 C683 1.413 . S
C681 H675 0.930 . S
C681 C682 1.392 . S
C681 C683 1.367 . S
C682 C681 1.392 . S
C682 C684 1.420 . S
C682 C714 1.423 . S
C683 H669 0.930 . S
C683 C680 1.413 . S
C683 C681 1.367 . S
C684 N679 1.362 . S
C684 C682 1.420 . S
C684 C688 1.429 . S
H685 C690 0.930 . S
N686 Eu648 2.609 . S
N686 C688 1.377 . S
N686 C689 1.321 . S
C687 H673 0.930 . S
C687 C689 1.400 . S
C687 C690 1.386 . S
C688 C684 1.429 . S
C688 N686 1.377 . S
C688 C691 1.411 . S
C689 H671 0.930 . S
C689 N686 1.321 . S
C689 C687 1.400 . S
C690 H685 0.930 . S
C690 C687 1.386 . S
C690 C691 1.395 . S
C691 C688 1.411 . S
C691 C690 1.395 . S
C691 C713 1.420 . S
O692 Eu648 2.558 . S
O692 C712 1.257 . S
O693 Eu648 2.612 . S
O693 Eu659 2.380 . S
O693 C704 1.276 . S
O694 Eu659 2.432 . S
O694 C711 1.264 . S
O695 Eu648 2.339 . S
O695 C711 1.254 . S
O696 Eu648 2.563 . S
O696 C704 1.235 . S
O697 Eu648 2.419 . S
O697 C712 1.249 . S
O698 Eu659 2.558 . S
O698 C723 1.257 . S
O699 Eu648 2.380 . S
O699 Eu659 2.612 . S
O699 C715 1.276 . S
O700 Eu648 2.432 . S
O700 C722 1.264 . S
O701 Eu659 2.339 . S
O701 C722 1.254 . S
O702 Eu659 2.563 . S
O702 C715 1.235 . S
O703 Eu659 2.419 . S
O703 C723 1.249 . S
C704 O693 1.276 . S
C704 O696 1.235 . S
C705 C707 1.393 . S
C705 C709 1.395 . S
C705 C712 1.492 . S
C706 C707 1.392 . S
C706 C708 1.386 . S
C707 C705 1.393 . S
C707 C706 1.392 . S
C707 H724 0.930 . S
C708 C706 1.386 . S
C708 C710 1.395 . S
C708 H725 0.930 . S
C709 C705 1.395 . S
C709 C710 1.379 . S
C709 H726 0.930 . S
C710 C708 1.395 . S
C710 C709 1.379 . S
C710 H727 0.930 . S
C711 O694 1.264 . S
C711 O695 1.254 . S
C712 Eu648 2.848 . S
C712 O692 1.257 . S
C712 O697 1.249 . S
C712 C705 1.492 . S
C713 H678 0.931 . S
C713 C691 1.420 . S
C713 C714 1.351 . S
C714 H676 0.930 . S
C714 C682 1.423 . S
C714 C713 1.351 . S
C715 O699 1.276 . S
C715 O702 1.235 . S
C716 C717 1.393 . S
C716 C720 1.395 1_556 S
C716 C723 1.492 . S
C717 C716 1.393 . S
C717 C718 1.402 . S
C717 H728 0.930 . S
C718 C717 1.402 . S
C718 C719 1.375 1_556 S
C719 C718 1.375 1_554 S
C719 C721 1.395 . S
C719 H729 0.930 . S
C720 C716 1.395 1_554 S
C720 C721 1.379 . S
C720 H730 0.930 . S
C721 C719 1.395 . S
C721 C720 1.379 . S
C721 H731 0.930 . S
C722 O700 1.264 . S
C722 O701 1.254 . S
C723 Eu659 2.848 . S
C723 O698 1.257 . S
C723 O703 1.249 . S
C723 C716 1.492 . S
H724 C707 0.930 . S
H725 C708 0.930 . S
H726 C709 0.930 . S
H727 C710 0.930 . S
H728 C717 0.930 . S
H729 C719 0.930 . S
H730 C720 0.930 . S
H731 C721 0.930 . S
Eu732 N763 2.657 . S
Eu732 N770 2.609 . S
Eu732 O776 2.558 . S
Eu732 O777 2.612 . S
Eu732 O779 2.339 . S
Eu732 O780 2.563 . S
Eu732 O781 2.419 . S
Eu732 O783 2.380 1_455 S
Eu732 O784 2.432 1_455 S
Eu732 C796 2.848 . S
C733 C736 1.429 . S
C733 C737 1.411 . S
C733 N740 1.377 . S
C734 C736 1.420 . S
C734 C738 1.423 . S
C734 C746 1.392 . S
C735 C737 1.420 . S
C735 C738 1.351 . S
C735 H758 0.931 . S
C736 C733 1.429 . S
C736 C734 1.420 . S
C736 N744 1.362 . S
C737 C733 1.411 . S
C737 C735 1.420 . S
C737 C742 1.389 1_655 S
C738 C734 1.423 . S
C738 C735 1.351 . S
C738 H750 0.930 . S
C739 C741 1.400 . S
C739 C742 1.391 . S
C739 H751 0.930 . S
N740 C733 1.377 . S
N740 C741 1.321 1_655 S
N740 Eu743 2.609 . S
C741 C739 1.400 . S
C741 N740 1.321 1_455 S
C741 H748 0.930 . S
C742 C737 1.389 1_455 S
C742 C739 1.391 . S
C742 H761 0.931 . S
Eu743 N740 2.609 . S
Eu743 N744 2.657 . S
Eu743 O777 2.380 1_655 S
Eu743 O778 2.432 1_655 S
Eu743 O782 2.558 . S
Eu743 O783 2.612 . S
Eu743 O785 2.339 . S
Eu743 O786 2.563 . S
Eu743 O787 2.419 . S
Eu743 C807 2.848 . S
N744 C736 1.362 . S
N744 Eu743 2.657 . S
N744 C745 1.334 . S
C745 N744 1.334 . S
C745 C747 1.413 . S
C745 H752 0.929 . S
C746 C734 1.392 . S
C746 C747 1.367 . S
C746 H754 0.930 . S
C747 C745 1.413 . S
C747 C746 1.367 . S
C747 H749 0.930 . S
H748 C741 0.930 . S
H749 C747 0.930 . S
H750 C738 0.930 . S
H751 C739 0.930 . S
H752 C745 0.929 . S
H753 C767 0.930 . S
H754 C746 0.930 . S
H755 C773 0.930 . S
H756 C764 0.929 . S
H757 C771 0.930 . S
H758 C735 0.931 . S
H759 C765 0.930 . S
H760 C798 0.930 . S
H761 C742 0.931 . S
H762 C797 0.931 . S
N763 Eu732 2.657 . S
N763 C764 1.334 . S
N763 C768 1.362 . S
C764 H756 0.929 . S
C764 N763 1.334 . S
C764 C767 1.413 . S
C765 H759 0.930 . S
C765 C766 1.392 . S
C765 C767 1.367 . S
C766 C765 1.392 . S
C766 C768 1.420 . S
C766 C798 1.423 . S
C767 H753 0.930 . S
C767 C764 1.413 . S
C767 C765 1.367 . S
C768 N763 1.362 . S
C768 C766 1.420 . S
C768 C772 1.429 . S
H769 C774 0.930 . S
N770 Eu732 2.609 . S
N770 C772 1.377 . S
N770 C773 1.321 1_455 S
C771 H757 0.930 . S
C771 C773 1.400 . S
C771 C774 1.386 1_655 S
C772 C768 1.429 . S
C772 N770 1.377 . S
C772 C775 1.411 . S
C773 H755 0.930 . S
C773 N770 1.321 1_655 S
C773 C771 1.400 . S
C774 H769 0.930 . S
C774 C771 1.386 1_455 S
C774 C775 1.395 . S
C775 C772 1.411 . S
C775 C774 1.395 . S
C775 C797 1.420 . S
O776 Eu732 2.558 . S
O776 C796 1.257 . S
O777 Eu732 2.612 . S
O777 Eu743 2.380 1_455 S
O777 C788 1.276 . S
O778 Eu743 2.432 1_455 S
O778 C795 1.264 . S
O779 Eu732 2.339 . S
O779 C795 1.254 . S
O780 Eu732 2.563 . S
O780 C788 1.235 . S
O781 Eu732 2.419 . S
O781 C796 1.249 . S
O782 Eu743 2.558 . S
O782 C807 1.257 . S
O783 Eu732 2.380 1_655 S
O783 Eu743 2.612 . S
O783 C799 1.276 . S
O784 Eu732 2.432 1_655 S
O784 C806 1.264 . S
O785 Eu743 2.339 . S
O785 C806 1.254 . S
O786 Eu743 2.563 . S
O786 C799 1.235 . S
O787 Eu743 2.419 . S
O787 C807 1.249 . S
C788 O777 1.276 . S
C788 O780 1.235 . S
C789 C791 1.393 . S
C789 C793 1.395 . S
C789 C796 1.492 . S
C790 C791 1.392 . S
C790 C792 1.386 . S
C791 C789 1.393 . S
C791 C790 1.392 . S
C791 H808 0.930 . S
C792 C790 1.386 . S
C792 C794 1.395 . S
C792 H809 0.930 . S
C793 C789 1.395 . S
C793 C794 1.379 . S
C793 H810 0.930 . S
C794 C792 1.395 . S
C794 C793 1.379 . S
C794 H811 0.930 . S
C795 O778 1.264 . S
C795 O779 1.254 . S
C796 Eu732 2.848 . S
C796 O776 1.257 . S
C796 O781 1.249 . S
C796 C789 1.492 . S
C797 H762 0.931 . S
C797 C775 1.420 . S
C797 C798 1.351 . S
C798 H760 0.930 . S
C798 C766 1.423 . S
C798 C797 1.351 . S
C799 O783 1.276 . S
C799 O786 1.235 . S
C800 C801 1.393 . S
C800 C804 1.395 1_556 S
C800 C807 1.492 . S
C801 C800 1.393 . S
C801 C802 1.392 . S
C801 H812 0.930 . S
C802 C801 1.392 . S
C802 C803 1.386 1_556 S
C803 C802 1.386 1_554 S
C803 C805 1.395 . S
C803 H813 0.930 . S
C804 C800 1.395 1_554 S
C804 C805 1.379 . S
C804 H814 0.930 . S
C805 C803 1.395 . S
C805 C804 1.379 . S
C805 H815 0.930 . S
C806 O784 1.264 . S
C806 O785 1.254 . S
C807 Eu743 2.848 . S
C807 O782 1.257 . S
C807 O787 1.249 . S
C807 C800 1.492 . S
H808 C791 0.930 . S
H809 C792 0.930 . S
H810 C793 0.930 . S
H811 C794 0.930 . S
H812 C801 0.930 . S
H813 C803 0.930 . S
H814 C804 0.930 . S
H815 C805 0.930 . S
C816 C817 1.363 . S
C816 C822 1.379 . S
C816 N824 1.356 . S
C817 C816 1.363 . S
C817 C823 1.363 . S
C818 C819 1.363 . S
C818 C823 1.379 . S
C818 N825 1.356 . S
C819 C818 1.363 . S
C819 C822 1.363 . S
N820 C822 1.356 1_565 S
N820 H832 0.984 . S
N820 H833 0.985 . S
N821 C823 1.356 . S
N821 H826 0.984 . S
N821 H827 0.985 . S
C822 C816 1.379 . S
C822 C819 1.363 . S
C822 N820 1.356 1_545 S
C823 C817 1.363 . S
C823 C818 1.379 . S
C823 N821 1.356 . S
N824 C816 1.356 . S
N824 H830 0.984 1_545 S
N824 H831 0.984 . S
N825 C818 1.356 . S
N825 H828 0.984 . S
N825 H829 0.985 . S
H826 N821 0.984 . S
H827 N821 0.985 . S
H828 N825 0.984 . S
H829 N825 0.985 . S
H830 N824 0.984 1_565 S
H831 N824 0.984 . S
H832 N820 0.984 . S
H833 N820 0.985 . S
C834 C835 1.363 . S
C834 C840 1.379 . S
C834 N842 1.356 . S
C835 C834 1.363 . S
C835 C841 1.363 . S
C836 C837 1.363 . S
C836 C841 1.379 . S
C836 N843 1.356 . S
C837 C836 1.363 . S
C837 C840 1.363 . S
N838 C840 1.356 . S
N838 H850 0.984 . S
N838 H851 0.985 . S
N839 C841 1.356 . S
N839 H844 0.984 . S
N839 H845 0.985 . S
C840 C834 1.379 . S
C840 C837 1.363 . S
C840 N838 1.356 . S
C841 C835 1.363 . S
C841 C836 1.379 . S
C841 N839 1.356 . S
N842 C834 1.356 . S
N842 H848 0.984 . S
N842 H849 0.984 . S
N843 C836 1.356 . S
N843 H846 0.984 . S
N843 H847 0.985 . S
H844 N839 0.984 . S
H845 N839 0.985 . S
H846 N843 0.984 . S
H847 N843 0.985 . S
H848 N842 0.984 . S
H849 N842 0.984 . S
H850 N838 0.984 . S
H851 N838 0.985 . S
C852 C853 1.363 . S
C852 C858 1.379 . S
C852 N860 1.356 . S
C853 C852 1.363 . S
C853 C859 1.363 . S
C854 C855 1.363 . S
C854 C859 1.379 . S
C854 N861 1.356 . S
C855 C854 1.363 . S
C855 C858 1.363 . S
N856 C858 1.356 . S
N856 H868 0.984 . S
N856 H869 0.985 . S
N857 C859 1.356 . S
N857 H862 0.984 . S
N857 H863 0.985 . S
C858 C852 1.379 . S
C858 C855 1.363 . S
C858 N856 1.356 . S
C859 C853 1.363 . S
C859 C854 1.379 . S
C859 N857 1.356 . S
N860 C852 1.356 . S
N860 H866 0.984 . S
N860 H867 0.984 . S
N861 C854 1.356 . S
N861 H864 0.984 . S
N861 H865 0.985 . S
H862 N857 0.984 . S
H863 N857 0.985 . S
H864 N861 0.984 . S
H865 N861 0.985 . S
H866 N860 0.984 . S
H867 N860 0.984 . S
H868 N856 0.984 . S
H869 N856 0.985 . S
C870 C871 1.363 . S
C870 C876 1.379 . S
C870 N878 1.356 . S
C871 C870 1.363 . S
C871 C877 1.363 . S
C872 C873 1.363 . S
C872 C877 1.379 . S
C872 N879 1.356 . S
C873 C872 1.363 . S
C873 C876 1.363 . S
N874 C876 1.356 . S
N874 H886 0.984 . S
N874 H887 0.985 . S
N875 C877 1.356 . S
N875 H880 0.984 . S
N875 H881 0.985 . S
C876 C870 1.379 . S
C876 C873 1.363 . S
C876 N874 1.356 . S
C877 C871 1.363 . S
C877 C872 1.379 . S
C877 N875 1.356 . S
N878 C870 1.356 . S
N878 H884 0.984 . S
N878 H885 0.984 . S
N879 C872 1.356 . S
N879 H882 0.984 . S
N879 H883 0.985 1_455 S
H880 N875 0.984 . S
H881 N875 0.985 . S
H882 N879 0.984 . S
H883 N879 0.985 1_655 S
H884 N878 0.984 . S
H885 N878 0.984 . S
H886 N874 0.984 . S
H887 N874 0.985 . S
C888 C889 1.363 . S
C888 C894 1.379 1_554 S
C888 N896 1.356 . S
C889 C888 1.363 . S
C889 C895 1.363 . S
C890 C891 1.363 . S
C890 C895 1.379 1_556 S
C890 N897 1.356 1_565 S
C891 C890 1.363 . S
C891 C894 1.363 . S
N892 C894 1.356 . S
N892 H904 0.984 . S
N892 H905 0.985 . S
N893 C895 1.356 1_545 S
N893 H898 0.984 1_545 S
N893 H899 0.985 . S
C894 C888 1.379 1_556 S
C894 C891 1.363 . S
C894 N892 1.356 . S
C895 C889 1.363 . S
C895 C890 1.379 1_554 S
C895 N893 1.356 1_565 S
N896 C888 1.356 . S
N896 H902 0.984 . S
N896 H903 0.984 . S
N897 C890 1.356 1_545 S
N897 H900 0.984 . S
N897 H901 0.985 . S
H898 N893 0.984 1_565 S
H899 N893 0.985 . S
H900 N897 0.984 . S
H901 N897 0.985 . S
H902 N896 0.984 . S
H903 N896 0.984 . S
H904 N892 0.984 . S
H905 N892 0.985 . S
C906 C907 1.363 . S
C906 C912 1.379 1_554 S
C906 N914 1.356 . S
C907 C906 1.363 . S
C907 C913 1.363 . S
C908 C909 1.363 . S
C908 C913 1.379 1_556 S
C908 N915 1.356 . S
C909 C908 1.363 . S
C909 C912 1.363 . S
N910 C912 1.356 . S
N910 H922 0.984 . S
N910 H923 0.985 . S
N911 C913 1.356 . S
N911 H916 0.984 . S
N911 H917 0.985 . S
C912 C906 1.379 1_556 S
C912 C909 1.363 . S
C912 N910 1.356 . S
C913 C907 1.363 . S
C913 C908 1.379 1_554 S
C913 N911 1.356 . S
N914 C906 1.356 . S
N914 H920 0.984 . S
N914 H921 0.984 . S
N915 C908 1.356 . S
N915 H918 0.984 . S
N915 H919 0.985 . S
H916 N911 0.984 . S
H917 N911 0.985 . S
H918 N915 0.984 . S
H919 N915 0.985 . S
H920 N914 0.984 . S
H921 N914 0.984 . S
H922 N910 0.984 . S
H923 N910 0.985 . S
C924 C925 1.363 . S
C924 C930 1.379 1_554 S
C924 N932 1.356 . S
C925 C924 1.363 . S
C925 C931 1.363 . S
C926 C927 1.363 . S
C926 C931 1.379 1_556 S
C926 N933 1.356 . S
C927 C926 1.363 . S
C927 C930 1.363 . S
N928 C930 1.356 . S
N928 H940 0.984 . S
N928 H941 0.985 . S
N929 C931 1.356 . S
N929 H934 0.984 . S
N929 H935 0.985 . S
C930 C924 1.379 1_556 S
C930 C927 1.363 . S
C930 N928 1.356 . S
C931 C925 1.363 . S
C931 C926 1.379 1_554 S
C931 N929 1.356 . S
N932 C924 1.356 . S
N932 H938 0.984 . S
N932 H939 0.984 . S
N933 C926 1.356 . S
N933 H936 0.984 . S
N933 H937 0.985 . S
H934 N929 0.984 . S
H935 N929 0.985 . S
H936 N933 0.984 . S
H937 N933 0.985 . S
H938 N932 0.984 . S
H939 N932 0.984 . S
H940 N928 0.984 . S
H941 N928 0.985 . S
C942 C943 1.363 . S
C942 C948 1.379 1_554 S
C942 N950 1.356 . S
C943 C942 1.363 . S
C943 C949 1.363 . S
C944 C945 1.363 . S
C944 C949 1.379 1_556 S
C944 N951 1.356 1_655 S
C945 C944 1.363 . S
C945 C948 1.363 . S
N946 C948 1.356 . S
N946 H958 0.984 . S
N946 H959 0.985 . S
N947 C949 1.356 . S
N947 H952 0.984 . S
N947 H953 0.985 1_655 S
C948 C942 1.379 1_556 S
C948 C945 1.363 . S
C948 N946 1.356 . S
C949 C943 1.363 . S
C949 C944 1.379 1_554 S
C949 N947 1.356 . S
N950 C942 1.356 . S
N950 H956 0.984 . S
N950 H957 0.984 . S
N951 C944 1.356 1_455 S
N951 H954 0.984 . S
N951 H955 0.985 . S
H952 N947 0.984 . S
H953 N947 0.985 1_455 S
H954 N951 0.984 . S
H955 N951 0.985 . S
H956 N950 0.984 . S
H957 N950 0.984 . S
H958 N946 0.984 . S
H959 N946 0.985 . S
C960 C961 1.363 . S
C960 C966 1.379 . S
C960 N968 1.356 . S
C961 C960 1.363 . S
C961 C967 1.363 . S
C962 C963 1.363 . S
C962 C967 1.379 . S
C962 N969 1.356 1_455 S
C963 C962 1.363 . S
C963 C966 1.363 . S
N964 C966 1.356 . S
N964 H976 0.984 . S
N964 H977 0.985 1_455 S
N965 C967 1.356 . S
N965 H970 0.984 . S
N965 H971 0.985 . S
C966 C960 1.379 . S
C966 C963 1.363 . S
C966 N964 1.356 . S
C967 C961 1.363 . S
C967 C962 1.379 . S
C967 N965 1.356 . S
N968 C960 1.356 . S
N968 H974 0.984 . S
N968 H975 0.984 . S
N969 C962 1.356 1_655 S
N969 H972 0.984 . S
N969 H973 0.985 . S
H970 N965 0.984 . S
H971 N965 0.985 . S
H972 N969 0.984 . S
H973 N969 0.985 . S
H974 N968 0.984 . S
H975 N968 0.984 . S
H976 N964 0.984 . S
H977 N964 0.985 1_655 S
C978 C979 1.363 . S
C978 C984 1.379 . S
C978 N986 1.356 . S
C979 C978 1.363 . S
C979 C985 1.363 . S
C980 C981 1.373 . S
C980 C985 1.379 . S
C980 N987 1.356 . S
C981 C980 1.373 . S
C981 C984 1.364 . S
N982 C984 1.356 1_565 S
N982 H994 0.984 . S
N982 H995 0.985 . S
N983 C985 1.356 . S
N983 H988 0.984 . S
N983 H989 0.985 . S
C984 C978 1.379 . S
C984 C981 1.364 . S
C984 N982 1.356 1_545 S
C985 C979 1.363 . S
C985 C980 1.379 . S
C985 N983 1.356 . S
N986 C978 1.356 . S
N986 H992 0.984 . S
N986 H993 0.984 . S
N987 C980 1.356 . S
N987 H990 0.984 1_545 S
N987 H991 0.985 . S
H988 N983 0.984 . S
H989 N983 0.985 . S
H990 N987 0.984 1_565 S
H991 N987 0.985 . S
H992 N986 0.984 . S
H993 N986 0.984 . S
H994 N982 0.984 . S
H995 N982 0.985 . S
C996 C997 1.363 . S
C996 C1002 1.379 . S
C996 N1004 1.356 . S
C997 C996 1.363 . S
C997 C1003 1.363 . S
C998 C999 1.363 . S
C998 C1003 1.379 . S
C998 N1005 1.356 . S
C999 C998 1.363 . S
C999 C1002 1.363 . S
N1000 C1002 1.356 . S
N1000 H1012 0.984 . S
N1000 H1013 0.985 . S
N1001 C1003 1.356 . S
N1001 H1006 0.984 . S
N1001 H1007 0.985 . S
C1002 C996 1.379 . S
C1002 C999 1.363 . S
C1002 N1000 1.356 . S
C1003 C997 1.363 . S
C1003 C998 1.379 . S
C1003 N1001 1.356 . S
N1004 C996 1.356 . S
N1004 H1010 0.984 . S
N1004 H1011 0.984 . S
N1005 C998 1.356 . S
N1005 H1008 0.984 . S
N1005 H1009 0.985 . S
H1006 N1001 0.984 . S
H1007 N1001 0.985 . S
H1008 N1005 0.984 . S
H1009 N1005 0.985 . S
H1010 N1004 0.984 . S
H1011 N1004 0.984 . S
H1012 N1000 0.984 . S
H1013 N1000 0.985 . S
C1014 C1015 1.363 . S
C1014 C1020 1.379 . S
C1014 N1022 1.356 . S
C1015 C1014 1.363 . S
C1015 C1021 1.363 . S
C1016 C1017 1.363 . S
C1016 C1021 1.379 . S
C1016 N1023 1.356 . S
C1017 C1016 1.363 . S
C1017 C1020 1.363 . S
N1018 C1020 1.356 . S
N1018 H1030 0.984 . S
N1018 H1031 0.985 . S
N1019 C1021 1.356 . S
N1019 H1024 0.984 . S
N1019 H1025 0.985 . S
C1020 C1014 1.379 . S
C1020 C1017 1.363 . S
C1020 N1018 1.356 . S
C1021 C1015 1.363 . S
C1021 C1016 1.379 . S
C1021 N1019 1.356 . S
N1022 C1014 1.356 . S
N1022 H1028 0.984 . S
N1022 H1029 0.984 . S
N1023 C1016 1.356 . S
N1023 H1026 0.984 . S
N1023 H1027 0.985 . S
H1024 N1019 0.984 . S
H1025 N1019 0.985 . S
H1026 N1023 0.984 . S
H1027 N1023 0.985 . S
H1028 N1022 0.984 . S
H1029 N1022 0.984 . S
H1030 N1018 0.984 . S
H1031 N1018 0.985 . S
C1032 C1033 1.363 . S
C1032 C1038 1.379 . S
C1032 N1040 1.356 . S
C1033 C1032 1.363 . S
C1033 C1039 1.363 1_554 S
C1034 C1035 1.363 1_655 S
C1034 C1039 1.379 . S
C1034 N1041 1.356 1_655 S
C1035 C1034 1.363 1_455 S
C1035 C1038 1.363 1_456 S
N1036 C1038 1.356 1_455 S
N1036 H1048 0.984 . S
N1036 H1049 0.985 . S
N1037 C1039 1.356 . S
N1037 H1042 0.984 . S
N1037 H1043 0.985 . S
C1038 C1032 1.379 . S
C1038 C1035 1.363 1_654 S
C1038 N1036 1.356 1_655 S
C1039 C1033 1.363 1_556 S
C1039 C1034 1.379 . S
C1039 N1037 1.356 . S
N1040 C1032 1.356 . S
N1040 H1046 0.984 . S
N1040 H1047 0.984 . S
N1041 C1034 1.356 1_455 S
N1041 H1044 0.984 . S
N1041 H1045 0.985 . S
H1042 N1037 0.984 . S
H1043 N1037 0.985 . S
H1044 N1041 0.984 . S
H1045 N1041 0.985 . S
H1046 N1040 0.984 . S
H1047 N1040 0.984 . S
H1048 N1036 0.984 . S
H1049 N1036 0.985 . S
C1050 C1051 1.363 . S
C1050 C1056 1.379 . S
C1050 N1058 1.356 . S
C1051 C1050 1.363 . S
C1051 C1057 1.363 1_554 S
C1052 C1053 1.376 . S
C1052 C1057 1.350 1_545 S
C1052 N1059 1.380 . S
C1053 C1052 1.376 . S
C1053 C1056 1.363 1_546 S
N1054 C1056 1.356 1_545 S
N1054 H1066 0.984 . S
N1054 H1067 0.985 . S
N1055 C1057 1.356 . S
N1055 H1060 0.984 . S
N1055 H1061 0.985 . S
C1056 C1050 1.379 . S
C1056 C1053 1.363 1_564 S
C1056 N1054 1.356 1_565 S
C1057 C1051 1.363 1_556 S
C1057 C1052 1.350 1_565 S
C1057 N1055 1.356 . S
N1058 C1050 1.356 . S
N1058 H1064 0.984 . S
N1058 H1065 0.984 . S
N1059 C1052 1.380 . S
N1059 H1062 0.984 . S
N1059 H1063 0.985 . S
H1060 N1055 0.984 . S
H1061 N1055 0.985 . S
H1062 N1059 0.984 . S
H1063 N1059 0.985 . S
H1064 N1058 0.984 . S
H1065 N1058 0.984 . S
H1066 N1054 0.984 . S
H1067 N1054 0.985 . S
C1068 C1069 1.363 1_556 S
C1068 C1074 1.379 . S
C1068 N1076 1.356 . S
C1069 C1068 1.363 1_554 S
C1069 C1075 1.363 . S
C1070 C1071 1.363 1_554 S
C1070 C1075 1.379 . S
C1070 N1077 1.356 . S
C1071 C1070 1.363 1_556 S
C1071 C1074 1.363 . S
N1072 C1074 1.356 . S
N1072 H1084 0.984 . S
N1072 H1085 0.985 . S
N1073 C1075 1.356 . S
N1073 H1078 0.984 . S
N1073 H1079 0.985 . S
C1074 C1068 1.379 . S
C1074 C1071 1.363 . S
C1074 N1072 1.356 . S
C1075 C1069 1.363 . S
C1075 C1070 1.379 . S
C1075 N1073 1.356 . S
N1076 C1068 1.356 . S
N1076 H1082 0.984 . S
N1076 H1083 0.984 . S
N1077 C1070 1.356 . S
N1077 H1080 0.984 . S
N1077 H1081 0.985 . S
H1078 N1073 0.984 . S
H1079 N1073 0.985 . S
H1080 N1077 0.984 . S
H1081 N1077 0.985 . S
H1082 N1076 0.984 . S
H1083 N1076 0.984 . S
H1084 N1072 0.984 . S
H1085 N1072 0.985 . S
C1086 C1087 1.363 1_556 S
C1086 C1092 1.379 . S
C1086 N1094 1.356 . S
C1087 C1086 1.363 1_554 S
C1087 C1093 1.363 . S
C1088 C1089 1.363 1_554 S
C1088 C1093 1.379 . S
C1088 N1095 1.356 . S
C1089 C1088 1.363 1_556 S
C1089 C1092 1.363 . S
N1090 C1092 1.356 . S
N1090 H1102 0.984 . S
N1090 H1103 0.985 . S
N1091 C1093 1.356 . S
N1091 H1096 0.984 . S
N1091 H1097 0.985 . S
C1092 C1086 1.379 . S
C1092 C1089 1.363 . S
C1092 N1090 1.356 . S
C1093 C1087 1.363 . S
C1093 C1088 1.379 . S
C1093 N1091 1.356 . S
N1094 C1086 1.356 . S
N1094 H1100 0.984 . S
N1094 H1101 0.984 . S
N1095 C1088 1.356 . S
N1095 H1098 0.984 . S
N1095 H1099 0.985 . S
H1096 N1091 0.984 . S
H1097 N1091 0.985 . S
H1098 N1095 0.984 . S
H1099 N1095 0.985 . S
H1100 N1094 0.984 . S
H1101 N1094 0.984 . S
H1102 N1090 0.984 . S
H1103 N1090 0.985 . S
C1104 C1105 1.363 . S
C1104 C1110 1.379 . S
C1104 N1112 1.356 . S
C1105 C1104 1.363 . S
C1105 C1111 1.363 . S
C1106 C1107 1.363 . S
C1106 C1111 1.379 . S
C1106 N1113 1.356 . S
C1107 C1106 1.363 . S
C1107 C1110 1.363 . S
N1108 C1110 1.356 . S
N1108 H1120 0.984 . S
N1108 H1121 0.985 . S
N1109 C1111 1.356 . S
N1109 H1114 0.984 . S
N1109 H1115 0.985 . S
C1110 C1104 1.379 . S
C1110 C1107 1.363 . S
C1110 N1108 1.356 . S
C1111 C1105 1.363 . S
C1111 C1106 1.379 . S
C1111 N1109 1.356 . S
N1112 C1104 1.356 . S
N1112 H1118 0.984 . S
N1112 H1119 0.984 . S
N1113 C1106 1.356 . S
N1113 H1116 0.984 . S
N1113 H1117 0.985 . S
H1114 N1109 0.984 . S
H1115 N1109 0.985 . S
H1116 N1113 0.984 . S
H1117 N1113 0.985 . S
H1118 N1112 0.984 . S
H1119 N1112 0.984 . S
H1120 N1108 0.984 . S
H1121 N1108 0.985 . S
C1122 C1123 1.363 . S
C1122 C1128 1.379 . S
C1122 N1130 1.356 . S
C1123 C1122 1.363 . S
C1123 C1129 1.363 . S
C1124 C1125 1.363 . S
C1124 C1129 1.379 . S
C1124 N1131 1.356 1_545 S
C1125 C1124 1.363 . S
C1125 C1128 1.363 . S
N1126 C1128 1.356 . S
N1126 H1138 0.984 . S
N1126 H1139 0.985 . S
N1127 C1129 1.356 . S
N1127 H1132 0.984 . S
N1127 H1133 0.985 1_545 S
C1128 C1122 1.379 . S
C1128 C1125 1.363 . S
C1128 N1126 1.356 . S
C1129 C1123 1.363 . S
C1129 C1124 1.379 . S
C1129 N1127 1.356 . S
N1130 C1122 1.356 . S
N1130 H1136 0.984 . S
N1130 H1137 0.984 . S
N1131 C1124 1.356 1_565 S
N1131 H1134 0.984 . S
N1131 H1135 0.985 . S
H1132 N1127 0.984 . S
H1133 N1127 0.985 1_565 S
H1134 N1131 0.984 . S
H1135 N1131 0.985 . S
H1136 N1130 0.984 . S
H1137 N1130 0.984 . S
H1138 N1126 0.984 . S
H1139 N1126 0.985 . S
C1140 C1141 1.363 . S
C1140 C1146 1.379 . S
C1140 N1148 1.356 . S
C1141 C1140 1.363 . S
C1141 C1147 1.363 . S
C1142 C1143 1.363 . S
C1142 C1147 1.379 . S
C1142 N1149 1.356 . S
C1143 C1142 1.363 . S
C1143 C1146 1.363 . S
N1144 C1146 1.356 . S
N1144 H1156 0.984 . S
N1144 H1157 0.985 . S
N1145 C1147 1.356 . S
N1145 H1150 0.984 . S
N1145 H1151 0.985 . S
C1146 C1140 1.379 . S
C1146 C1143 1.363 . S
C1146 N1144 1.356 . S
C1147 C1141 1.363 . S
C1147 C1142 1.379 . S
C1147 N1145 1.356 . S
N1148 C1140 1.356 . S
N1148 H1154 0.984 . S
N1148 H1155 0.984 . S
N1149 C1142 1.356 . S
N1149 H1152 0.984 . S
N1149 H1153 0.985 . S
H1150 N1145 0.984 . S
H1151 N1145 0.985 . S
H1152 N1149 0.984 . S
H1153 N1149 0.985 . S
H1154 N1148 0.984 . S
H1155 N1148 0.984 . S
H1156 N1144 0.984 . S
H1157 N1144 0.985 . S
C1158 C1159 1.363 . S
C1158 C1164 1.379 . S
C1158 N1166 1.356 . S
C1159 C1158 1.363 . S
C1159 C1165 1.363 . S
C1160 C1161 1.363 . S
C1160 C1165 1.379 . S
C1160 N1167 1.356 . S
C1161 C1160 1.363 . S
C1161 C1164 1.363 . S
N1162 C1164 1.356 . S
N1162 H1174 0.984 . S
N1162 H1175 0.985 . S
N1163 C1165 1.356 . S
N1163 H1168 0.984 . S
N1163 H1169 0.985 . S
C1164 C1158 1.379 . S
C1164 C1161 1.363 . S
C1164 N1162 1.356 . S
C1165 C1159 1.363 . S
C1165 C1160 1.379 . S
C1165 N1163 1.356 . S
N1166 C1158 1.356 . S
N1166 H1172 0.984 . S
N1166 H1173 0.984 . S
N1167 C1160 1.356 . S
N1167 H1170 0.984 . S
N1167 H1171 0.985 . S
H1168 N1163 0.984 . S
H1169 N1163 0.985 . S
H1170 N1167 0.984 . S
H1171 N1167 0.985 . S
H1172 N1166 0.984 . S
H1173 N1166 0.984 . S
H1174 N1162 0.984 . S
H1175 N1162 0.985 . S
C1176 C1177 1.363 . S
C1176 C1182 1.379 . S
C1176 N1184 1.356 . S
C1177 C1176 1.363 . S
C1177 C1183 1.363 . S
C1178 C1179 1.363 . S
C1178 C1183 1.379 . S
C1178 N1185 1.356 . S
C1179 C1178 1.363 . S
C1179 C1182 1.363 . S
N1180 C1182 1.356 . S
N1180 H1192 0.984 . S
N1180 H1193 0.985 . S
N1181 C1183 1.356 . S
N1181 H1186 0.984 . S
N1181 H1187 0.985 . S
C1182 C1176 1.379 . S
C1182 C1179 1.363 . S
C1182 N1180 1.356 . S
C1183 C1177 1.363 . S
C1183 C1178 1.379 . S
C1183 N1181 1.356 . S
N1184 C1176 1.356 . S
N1184 H1190 0.984 . S
N1184 H1191 0.984 . S
N1185 C1178 1.356 . S
N1185 H1188 0.984 . S
N1185 H1189 0.985 . S
H1186 N1181 0.984 . S
H1187 N1181 0.985 . S
H1188 N1185 0.984 . S
H1189 N1185 0.985 . S
H1190 N1184 0.984 . S
H1191 N1184 0.984 . S
H1192 N1180 0.984 . S
H1193 N1180 0.985 . S
C1194 C1195 1.363 . S
C1194 C1200 1.379 . S
C1194 N1202 1.356 . S
C1195 C1194 1.363 . S
C1195 C1201 1.363 . S
C1196 C1197 1.363 . S
C1196 C1201 1.379 . S
C1196 N1203 1.356 . S
C1197 C1196 1.363 . S
C1197 C1200 1.363 . S
N1198 C1200 1.356 . S
N1198 H1210 0.984 . S
N1198 H1211 0.985 . S
N1199 C1201 1.356 . S
N1199 H1204 0.984 . S
N1199 H1205 0.985 . S
C1200 C1194 1.379 . S
C1200 C1197 1.363 . S
C1200 N1198 1.356 . S
C1201 C1195 1.363 . S
C1201 C1196 1.379 . S
C1201 N1199 1.356 . S
N1202 C1194 1.356 . S
N1202 H1208 0.984 . S
N1202 H1209 0.984 . S
N1203 C1196 1.356 . S
N1203 H1206 0.984 . S
N1203 H1207 0.985 . S
H1204 N1199 0.984 . S
H1205 N1199 0.985 . S
H1206 N1203 0.984 . S
H1207 N1203 0.985 . S
H1208 N1202 0.984 . S
H1209 N1202 0.984 . S
H1210 N1198 0.984 . S
H1211 N1198 0.985 . S
C1212 C1213 1.363 . S
C1212 C1218 1.379 . S
C1212 N1220 1.356 . S
C1213 C1212 1.363 . S
C1213 C1219 1.363 . S
C1214 C1215 1.363 . S
C1214 C1219 1.379 . S
C1214 N1221 1.356 . S
C1215 C1214 1.363 . S
C1215 C1218 1.363 . S
N1216 C1218 1.356 . S
N1216 H1228 0.984 . S
N1216 H1229 0.985 . S
N1217 C1219 1.356 . S
N1217 H1222 0.984 . S
N1217 H1223 0.985 . S
C1218 C1212 1.379 . S
C1218 C1215 1.363 . S
C1218 N1216 1.356 . S
C1219 C1213 1.363 . S
C1219 C1214 1.379 . S
C1219 N1217 1.356 . S
N1220 C1212 1.356 . S
N1220 H1226 0.984 . S
N1220 H1227 0.984 . S
N1221 C1214 1.356 . S
N1221 H1224 0.984 . S
N1221 H1225 0.985 . S
H1222 N1217 0.984 . S
H1223 N1217 0.985 . S
H1224 N1221 0.984 . S
H1225 N1221 0.985 . S
H1226 N1220 0.984 . S
H1227 N1220 0.984 . S
H1228 N1216 0.984 . S
H1229 N1216 0.985 . S
C1230 C1231 1.363 . S
C1230 C1236 1.379 . S
C1230 N1238 1.356 . S
C1231 C1230 1.363 . S
C1231 C1237 1.363 . S
C1232 C1233 1.363 . S
C1232 C1237 1.379 . S
C1232 N1239 1.356 . S
C1233 C1232 1.363 . S
C1233 C1236 1.363 . S
N1234 C1236 1.356 . S
N1234 H1246 0.984 . S
N1234 H1247 0.985 . S
N1235 C1237 1.356 . S
N1235 H1240 0.984 . S
N1235 H1241 0.985 . S
C1236 C1230 1.379 . S
C1236 C1233 1.363 . S
C1236 N1234 1.356 . S
C1237 C1231 1.363 . S
C1237 C1232 1.379 . S
C1237 N1235 1.356 . S
N1238 C1230 1.356 . S
N1238 H1244 0.984 . S
N1238 H1245 0.984 . S
N1239 C1232 1.356 . S
N1239 H1242 0.984 . S
N1239 H1243 0.985 . S
H1240 N1235 0.984 . S
H1241 N1235 0.985 . S
H1242 N1239 0.984 . S
H1243 N1239 0.985 . S
H1244 N1238 0.984 . S
H1245 N1238 0.984 . S
H1246 N1234 0.984 . S
H1247 N1234 0.985 . S
C817 C391 2.765 . S
C819 C554 2.730 . S
C837 C638 2.737 . S
C835 C451 2.766 . S
C855 C704 2.551 . S
C853 C241 2.421 . S
C873 C788 2.551 . S
C871 C331 2.421 . S
C891 C543 2.720 1_565 S
C889 C121 2.409 . S
C907 C211 2.702 . S
C909 C627 2.736 . S
C925 C31 2.774 . S
C927 C715 2.551 . S
C943 C91 2.494 . S
C945 C799 2.552 . S
C963 C550 1.179 1_455 S
C961 C301 0.929 . S
C981 C634 1.093 1_545 S
C979 C380 1.019 . S
C999 C706 1.094 . S
C997 C440 1.017 . S
C1015 C260 0.898 . S
C1017 C790 1.158 . S
C1033 C61 1.034 . S
C1035 C538 1.178 . S
C1053 C622 1.103 . S
C1051 C140 0.980 . S
C1071 C718 1.095 . S
C1069 C200 0.930 . S
C1087 C20 0.967 . S
C1089 C802 1.158 . S
C1105 C320 3.180 . S
C1107 C547 3.259 . S
C1123 C361 2.790 . S
C1125 C631 3.233 . S
C1143 C711 3.395 . S
C1141 C421 2.701 . S
C1161 C795 3.417 . S
C1159 C271 3.083 . S
C1177 C80 3.226 . S
C1179 C536 3.259 . S
C1197 C620 3.233 . S
C1195 C151 3.199 . S
C1215 C722 3.394 . S
C1213 C181 2.648 . S
C1231 C1 2.669 . S
C1233 C806 3.417 . S
