# Generated by pormake.
# Topology anh, (6,3)-cn, num edge types: 1
# Building blocks:
#     Node 0, Type 0, BuildingBlock: BETDEL_clean_sbu_0, # of connection points: 6
#     Node 1, Type 0, BuildingBlock: BETDEL_clean_sbu_0, # of connection points: 6
#     Node 2, Type 0, BuildingBlock: BETDEL_clean_sbu_0, # of connection points: 6
#     Node 3, Type 1, BuildingBlock: QEWDON_clean_linker_0, # of connection points: 3
#     Node 4, Type 1, BuildingBlock: QEWDON_clean_linker_0, # of connection points: 3
#     Node 5, Type 1, BuildingBlock: QEWDON_clean_linker_0, # of connection points: 3
#     Node 6, Type 1, BuildingBlock: QEWDON_clean_linker_0, # of connection points: 3
#     Node 7, Type 1, BuildingBlock: QEWDON_clean_linker_0, # of connection points: 3
#     Node 8, Type 1, BuildingBlock: QEWDON_clean_linker_0, # of connection points: 3
#     Edge 9, Type (0, 1), BuildingBlock: OJICUG_clean_linker_0, # of connection points: 2
#     Edge 10, Type (0, 1), BuildingBlock: OJICUG_clean_linker_0, # of connection points: 2
#     Edge 11, Type (0, 1), BuildingBlock: OJICUG_clean_linker_0, # of connection points: 2
#     Edge 12, Type (0, 1), BuildingBlock: OJICUG_clean_linker_0, # of connection points: 2
#     Edge 13, Type (0, 1), BuildingBlock: OJICUG_clean_linker_0, # of connection points: 2
#     Edge 14, Type (0, 1), BuildingBlock: OJICUG_clean_linker_0, # of connection points: 2
#     Edge 15, Type (0, 1), BuildingBlock: OJICUG_clean_linker_0, # of connection points: 2
#     Edge 16, Type (0, 1), BuildingBlock: OJICUG_clean_linker_0, # of connection points: 2
#     Edge 17, Type (0, 1), BuildingBlock: OJICUG_clean_linker_0, # of connection points: 2
#     Edge 18, Type (0, 1), BuildingBlock: OJICUG_clean_linker_0, # of connection points: 2
#     Edge 19, Type (0, 1), BuildingBlock: OJICUG_clean_linker_0, # of connection points: 2
#     Edge 20, Type (0, 1), BuildingBlock: OJICUG_clean_linker_0, # of connection points: 2
#     Edge 21, Type (0, 1), BuildingBlock: OJICUG_clean_linker_0, # of connection points: 2
#     Edge 22, Type (0, 1), BuildingBlock: OJICUG_clean_linker_0, # of connection points: 2
#     Edge 23, Type (0, 1), BuildingBlock: OJICUG_clean_linker_0, # of connection points: 2
#     Edge 24, Type (0, 1), BuildingBlock: OJICUG_clean_linker_0, # of connection points: 2
#     Edge 25, Type (0, 1), BuildingBlock: OJICUG_clean_linker_0, # of connection points: 2
#     Edge 26, Type (0, 1), BuildingBlock: OJICUG_clean_linker_0, # of connection points: 2
# Relax obj value: 0.107
# Max RMSD: 0.136
# Mean RMSD: 0.120
data_MOF--net-anh--node1-BETDEL_clean_sbu_0--node2-QEWDON_clean_linker_0--edge1-OJICUG_clean_linker_0
_symmetry_space_group_name_H-M    P1
_symmetry_Int_Tables_number       1
_symmetry_cell_setting            triclinic
loop_
_symmetry_equiv_pos_as_xyz
'x, y, z'
_cell_length_a     23.268852
_cell_length_b     23.106056
_cell_length_c     33.751551
_cell_angle_alpha  93.524061
_cell_angle_beta   93.565844
_cell_angle_gamma 120.23864
loop_
_atom_site_label
_atom_site_type_symbol
_atom_site_fract_x
_atom_site_fract_y
_atom_site_fract_z
_atom_type_partial_charge
Dy0 Dy 0.07838 0.46835 0.16204 0.0
C1 C 0.93299 0.60112 0.16467 0.0
C2 C 0.16501 0.42267 0.15348 0.0
Dy3 Dy 1.00999 0.54454 0.15735 0.0
O4 O 0.13369 0.41873 0.18456 0.0
O5 O 0.14617 0.44895 0.12638 0.0
O6 O 0.04393 0.44046 0.22291 0.0
O7 O 0.06766 0.53461 0.20551 0.0
C8 C 0.04444 0.49606 0.23217 0.0
C9 C 0.04784 0.52309 0.08725 0.0
O10 O 0.1112 0.63082 0.18134 0.0
O11 O 0.1658 0.57625 0.16121 0.0
O12 O 0.97554 0.61425 0.13877 0.0
O13 O 0.9321 0.55663 0.18664 0.0
O14 O 0.05027 0.57824 0.09995 0.0
O15 O 1.02168 0.47962 0.11161 0.0
O16 O 0.97554 0.37888 0.14568 0.0
O17 O 0.92281 0.43846 0.16019 0.0
C18 C 0.16719 0.63281 0.17357 0.0
C19 C 0.92066 0.38031 0.15211 0.0
Dy20 Dy 0.49157 0.04248 0.48665 0.0
C21 C 0.78172 0.20741 0.52123 0.0
C22 C 0.36122 0.9696 0.45579 0.0
Dy23 Dy 0.64938 0.11418 0.50133 0.0
O24 O 0.38452 1.014 0.48686 0.0
O25 O 0.40971 0.96592 0.44095 0.0
O26 O 0.47067 0.0365 0.55141 0.0
O27 O 0.5667 0.07636 0.53611 0.0
C28 C 0.53309 0.06421 0.5653 0.0
C29 C 0.59424 0.06626 0.42585 0.0
O30 O 0.6237 1.01007 0.51462 0.0
O31 O 0.51307 0.95703 0.48504 0.0
O32 O 0.75343 0.17853 0.48565 0.0
O33 O 0.7378 0.18167 0.5466 0.0
O34 O 0.64818 0.06853 0.44089 0.0
O35 O 0.57479 0.09393 0.45091 0.0
O36 O 0.51731 0.14969 0.48282 0.0
O37 O 0.63007 0.2009 0.50702 0.0
C38 C 0.56582 0.95469 0.50091 0.0
C39 C 0.57578 0.20411 0.49639 0.0
Dy40 Dy 0.6464 0.64046 0.82592 0.0
C41 C 0.52842 0.36204 0.85657 0.0
C42 C 0.70017 0.76213 0.7968 0.0
Dy43 Dy 0.56363 0.4879 0.83672 0.0
O44 O 0.73179 0.74476 0.82201 0.0
O45 O 0.63994 0.71162 0.78615 0.0
O46 O 0.66059 0.68443 0.88985 0.0
O47 O 0.60784 0.58107 0.87475 0.0
C48 C 0.62752 0.62637 0.90332 0.0
C49 C 0.56685 0.51984 0.76131 0.0
O50 O 0.48741 0.51645 0.85044 0.0
O51 O 0.53705 0.61281 0.81733 0.0
O52 O 0.50133 0.37509 0.8262 0.0
O53 O 0.57076 0.4184 0.87781 0.0
O54 O 0.51554 0.46971 0.77402 0.0
O55 O 0.61518 0.54722 0.78847 0.0
O56 O 0.73035 0.61712 0.82605 0.0
O57 O 0.6689 0.50644 0.84103 0.0
C58 C 0.48499 0.56618 0.83398 0.0
C59 C 0.72657 0.56004 0.83507 0.0
H60 H 0.57876 0.06624 0.23914 0.0
C61 C 0.53534 1.01741 0.22936 0.0
C62 C 0.49672 0.97983 0.25869 0.0
C63 C 0.51754 0.99319 0.18845 0.0
H64 H 0.40803 0.88965 0.27025 0.0
C65 C 0.43768 0.91815 0.24738 0.0
C66 C 0.41812 0.89142 0.20712 0.0
C67 C 0.45919 0.92826 0.178 0.0
C68 C 0.55827 0.03642 0.15709 0.0
H69 H 0.44442 0.906 0.14733 0.0
C70 C 0.62544 0.0917 0.16624 0.0
C71 C 0.66108 0.13219 0.13646 0.0
C72 C 0.52889 1.02432 0.11733 0.0
H73 H 0.47744 0.98569 0.10847 0.0
C74 C 0.56469 0.06319 0.0879 0.0
H75 H 0.65106 0.10347 0.196 0.0
C76 C 0.63012 0.11641 0.09726 0.0
H77 H 0.65622 0.14651 0.07393 0.0
H78 H 0.54099 0.05262 0.05761 0.0
H79 H 0.55673 0.60112 0.57925 0.0
C80 C 0.56669 0.5633 0.56651 0.0
C81 C 0.581 0.52577 0.59237 0.0
C82 C 0.56245 0.55014 0.52472 0.0
H83 H 0.59864 0.4435 0.59699 0.0
C84 C 0.59025 0.47384 0.57674 0.0
C85 C 0.58403 0.45748 0.53541 0.0
C86 C 0.57138 0.49654 0.5096 0.0
C87 C 0.54351 0.58839 0.49711 0.0
H88 H 0.56871 0.48469 0.47778 0.0
C89 C 0.55836 0.65564 0.50797 0.0
C90 C 0.53547 0.68792 0.48226 0.0
C91 C 0.50675 0.55578 0.45977 0.0
H92 H 0.49165 0.50402 0.45049 0.0
C93 C 0.48656 0.58841 0.43392 0.0
H94 H 0.58624 0.68244 0.53642 0.0
C95 C 0.50056 0.65355 0.44498 0.0
H96 H 0.48334 0.67707 0.4243 0.0
H97 H 0.45862 0.56244 0.40533 0.0
H98 H 0.11484 0.51502 0.9025 0.0
C99 C 0.0748 0.52296 0.89188 0.0
C100 C 1.02743 0.51549 0.91805 0.0
C101 C 0.06967 0.53866 0.85254 0.0
H102 H 0.93646 0.51613 0.92507 0.0
C103 C 0.97268 0.52165 0.90464 0.0
C104 C 0.96552 0.538 0.86599 0.0
C105 C 1.01513 0.54815 0.84043 0.0
C106 C 0.11906 0.54183 0.82401 0.0
H107 H 1.01007 0.5624 0.81108 0.0
C108 C 0.18439 0.55399 0.83718 0.0
C109 C 0.22814 0.55438 0.80945 0.0
C110 C 0.09954 0.52935 0.78253 0.0
H111 H 0.04998 0.5167 0.77052 0.0
C112 C 0.1428 0.53078 0.75535 0.0
H113 H 0.20224 0.56435 0.8686 0.0
C114 C 0.20628 0.54328 0.76853 0.0
H115 H 0.238 0.54271 0.74651 0.0
H116 H 0.1265 0.52104 0.72366 0.0
H117 H 0.97025 0.53152 0.41326 0.0
C118 C 1.00939 0.58412 0.41812 0.0
C119 C 0.04747 0.61466 0.38705 0.0
C120 C 1.02071 0.62174 0.45513 0.0
H121 H 0.13122 0.70344 0.37044 0.0
C122 C 0.09888 0.68227 0.39369 0.0
C123 C 0.11062 0.7212 0.43015 0.0
C124 C 0.06971 0.69051 0.46043 0.0
C125 C 0.98256 0.58862 0.48861 0.0
H126 H 0.07701 0.71927 0.48872 0.0
C127 C 0.97262 0.52552 0.49671 0.0
C128 C 0.93135 0.48987 0.52578 0.0
C129 C 0.95503 0.61887 0.51202 0.0
H130 H 0.96197 0.66754 0.50646 0.0
C131 C 0.91651 0.5855 0.54215 0.0
H132 H 0.99668 0.50406 0.47974 0.0
C133 C 0.90382 0.52117 0.54867 0.0
H134 H 0.87031 0.49535 0.57061 0.0
H135 H 0.89458 0.60867 0.55971 0.0
H136 H 0.69498 0.11014 0.73328 0.0
C137 C 0.67228 0.13178 0.75144 0.0
C138 C 0.62489 0.14482 0.73321 0.0
C139 C 0.68873 0.14395 0.79306 0.0
H140 H 0.56157 0.18607 0.74243 0.0
C141 C 0.59583 0.17307 0.75686 0.0
C142 C 0.61172 0.18616 0.79856 0.0
C143 C 0.65827 0.17122 0.81644 0.0
C144 C 0.73372 0.12317 0.81214 0.0
H145 H 0.66937 0.17899 0.84863 0.0
C146 C 0.72686 0.06099 0.79875 0.0
C147 C 0.76484 0.03709 0.81808 0.0
C148 C 0.78147 0.16328 0.84445 0.0
H149 H 0.78836 0.21176 0.85515 0.0
C150 C 0.8209 0.14104 0.86321 0.0
H151 H 0.69032 1.0303 0.77369 0.0
C152 C 0.81239 0.07823 0.85046 0.0
H153 H 0.84174 0.06134 0.86681 0.0
H154 H 0.85738 0.17206 0.88825 0.0
H155 H 0.54143 0.61241 0.08621 0.0
C156 C 0.58886 0.61882 0.09817 0.0
C157 C 0.63356 0.61952 0.072 0.0
C158 C 0.6048 0.62477 0.13972 0.0
H159 H 0.72842 0.62664 0.06694 0.0
C160 C 0.69456 0.62739 0.08737 0.0
C161 C 0.71154 0.63498 0.12871 0.0
C162 C 0.66664 0.63399 0.1547 0.0
C163 C 0.55503 0.61519 0.16755 0.0
H164 H 0.67885 0.63787 0.18664 0.0
C165 C 0.48919 0.56132 0.15887 0.0
C166 C 0.44147 0.54943 0.18548 0.0
C167 C 0.57359 0.65674 0.20377 0.0
H168 H 0.62424 0.69865 0.21115 0.0
C169 C 0.52665 0.64454 0.23074 0.0
H170 H 0.47518 0.52804 0.13148 0.0
C171 C 0.46086 0.59135 0.22169 0.0
H172 H 0.42482 0.58445 0.24247 0.0
H173 H 0.54107 0.67691 0.2585 0.0
C174 C 0.25971 0.4262 0.19349 0.0
C175 C 0.2311 0.42905 0.15632 0.0
H176 H 0.35024 0.46252 0.23205 0.0
C177 C 0.27219 0.45756 0.12602 0.0
H178 H 0.22887 0.40367 0.21722 0.0
C179 C 0.34145 0.49228 0.13471 0.0
C180 C 0.37037 0.498 0.17367 0.0
H181 H 0.25122 0.45991 0.097 0.0
H182 H 0.37177 0.52 0.11191 0.0
C183 C 0.32911 0.46077 0.20218 0.0
C184 C 0.85265 0.31715 0.56326 0.0
C185 C 0.83985 0.27634 0.52749 0.0
H186 H 0.89459 0.41747 0.59152 0.0
C187 C 0.87043 0.30647 0.49404 0.0
H188 H 0.83017 0.29507 0.58967 0.0
C189 C 0.90433 0.37622 0.49435 0.0
C190 C 0.91047 0.41771 0.52868 0.0
H191 H 0.86183 0.27616 0.46609 0.0
H192 H 0.91998 0.39634 0.46634 0.0
C193 C 0.88836 0.3874 0.56397 0.0
C194 C 0.7863 0.88448 0.80503 0.0
C195 C 0.72022 0.8327 0.79313 0.0
H196 H 0.8531 0.99015 0.82072 0.0
C197 C 0.67063 0.84907 0.7852 0.0
H198 H 0.82541 0.87289 0.81138 0.0
C199 C 0.68556 0.91548 0.79229 0.0
C200 C 0.75107 0.96759 0.80627 0.0
H201 H 0.61903 0.80997 0.77656 0.0
H202 H 0.64445 0.92477 0.78897 0.0
C203 C 0.80179 0.95146 0.81106 0.0
C204 C 0.88747 0.66771 0.1362 0.0
C205 C 0.8832 0.62186 0.16287 0.0
H206 H 0.83603 0.70901 0.105 0.0
C207 C 0.82617 0.58849 0.18297 0.0
H208 H 0.93147 0.69447 0.12067 0.0
C209 C 0.77136 0.59605 0.17363 0.0
C210 C 0.77337 0.63752 0.14433 0.0
H211 H 0.82201 0.5529 0.20371 0.0
H212 H 0.72597 0.56584 0.1873 0.0
C213 C 0.83288 0.67564 0.12705 0.0
C214 C 0.26316 0.87927 0.482 0.0
C215 C 0.29187 0.91427 0.44952 0.0
H216 H 0.18605 0.78997 0.5015 0.0
C217 C 0.25758 0.89025 0.41125 0.0
H218 H 0.28968 0.89679 0.51177 0.0
C219 C 0.19569 0.83031 0.40539 0.0
C220 C 0.16913 0.79145 0.4374 0.0
H221 H 0.27922 0.917 0.38588 0.0
H222 H 0.17015 0.81353 0.37544 0.0
C223 C 0.20312 0.81794 0.47599 0.0
C224 C 0.59907 0.31161 0.86943 0.0
C225 C 0.53765 0.30341 0.8539 0.0
H226 H 0.67186 0.28217 0.86319 0.0
C227 C 0.49478 0.24714 0.82662 0.0
H228 H 0.63323 0.35463 0.89053 0.0
C229 C 0.51647 0.20467 0.81138 0.0
C230 C 0.58192 0.21865 0.82257 0.0
H231 H 0.44696 0.23942 0.81441 0.0
H232 H 0.48366 0.1638 0.7887 0.0
C233 C 0.62138 0.27002 0.85359 0.0
C234 C 0.61439 0.87819 0.50962 0.0
C235 C 0.55893 0.88658 0.50136 0.0
H236 H 0.65082 0.80876 0.5105 0.0
C237 C 0.49566 0.82832 0.49125 0.0
H238 H 0.66389 0.92172 0.51764 0.0
C239 C 0.48835 0.76428 0.48743 0.0
C240 C 0.54393 0.75583 0.49351 0.0
H241 H 0.45142 0.83201 0.48521 0.0
H242 H 0.43893 0.72105 0.47846 0.0
C243 C 0.60694 0.81344 0.50576 0.0
C244 C 0.85196 0.60625 0.83186 0.0
C245 C 0.78835 0.55424 0.8395 0.0
H246 H 0.95768 0.64182 0.8334 0.0
C247 C 0.78397 0.49564 0.85288 0.0
H248 H 0.85765 0.65205 0.82142 0.0
C249 C 0.84094 0.49006 0.85983 0.0
C250 C 0.90471 0.54247 0.85333 0.0
H251 H 0.73641 0.45405 0.859 0.0
H252 H 0.83519 0.4447 0.87106 0.0
C253 C 0.90935 0.60024 0.83846 0.0
C254 C 0.29066 0.7086 0.16542 0.0
C255 C 0.2319 0.69879 0.181 0.0
H256 H 0.39523 0.77728 0.16064 0.0
C257 C 0.23504 0.75353 0.20391 0.0
H258 H 0.29019 0.66779 0.14751 0.0
C259 C 0.295 0.8156 0.21167 0.0
C260 C 0.35381 0.82561 0.19631 0.0
H261 H 0.19115 0.7483 0.21647 0.0
H262 H 0.29536 0.85611 0.22985 0.0
C263 C 0.35076 0.77148 0.17267 0.0
C264 C 0.52904 0.28134 0.48673 0.0
C265 C 0.58076 0.2714 0.50216 0.0
H266 H 0.49034 0.34847 0.48428 0.0
C267 C 0.63642 0.32593 0.52538 0.0
H268 H 0.48551 0.2408 0.46866 0.0
C269 C 0.63877 0.38718 0.53457 0.0
C270 C 0.58617 0.39637 0.52025 0.0
H271 H 0.67738 0.32067 0.53785 0.0
H272 H 0.68114 0.427 0.55382 0.0
C273 C 0.532 0.34325 0.49541 0.0
C274 C 0.36598 0.52336 0.85137 0.0
C275 C 0.42104 0.5679 0.83184 0.0
H276 H 0.26253 0.48518 0.86056 0.0
C277 C 0.41336 0.61263 0.80859 0.0
H278 H 0.36975 0.48834 0.86972 0.0
C279 C 0.35198 0.61062 0.80336 0.0
C280 C 0.29619 0.56444 0.82157 0.0
H281 H 0.4542 0.64792 0.79315 0.0
H282 H 0.34748 0.64406 0.78393 0.0
C283 C 0.30452 0.52192 0.84647 0.0
C284 C 0.84597 0.25562 0.13034 0.0
C285 C 0.85524 0.31547 0.15039 0.0
H286 H 0.77743 0.15096 0.11027 0.0
C287 C 0.80119 0.31261 0.16875 0.0
H288 H 0.88623 0.25569 0.11583 0.0
C289 C 0.73936 0.25195 0.16648 0.0
C290 C 0.72965 0.19287 0.14529 0.0
H291 H 0.80647 0.35744 0.1847 0.0
H292 H 0.69824 0.25188 0.17992 0.0
C293 C 0.78377 0.19541 0.12737 0.0
C294 C 0.99094 0.45757 0.0211 0.0
C295 C 0.04875 0.50833 0.04438 0.0
H296 H 0.93849 0.42028 0.96214 0.0
C297 C 0.10254 0.55516 0.02541 0.0
H298 H 0.94837 0.42177 0.0352 0.0
C299 C 0.09737 0.55386 0.98387 0.0
C300 C 1.03755 0.50674 0.96064 0.0
H301 H 0.14718 0.59534 0.04292 0.0
H302 H 0.1383 0.59288 0.97019 0.0
C303 C 0.98511 0.45719 0.97946 0.0
C304 C 0.60524 0.0312 0.35694 0.0
C305 C 0.56794 0.04481 0.38322 0.0
H306 H 0.61213 1.00121 0.29692 0.0
C307 C 0.50685 0.0379 0.36817 0.0
H308 H 0.65264 0.03631 0.36756 0.0
C309 C 0.48294 1.01621 0.32764 0.0
C310 C 0.52084 1.00321 0.3015 0.0
H311 H 0.47753 0.04885 0.38766 0.0
H312 H 0.43537 1.01033 0.3166 0.0
C313 C 0.58229 1.01134 0.31648 0.0
C314 C 0.63439 0.56087 0.7035 0.0
C315 C 0.57201 0.53067 0.71874 0.0
H316 H 0.68599 0.58231 0.6508 0.0
C317 C 0.51353 0.50553 0.69233 0.0
H318 H 0.68018 0.58041 0.72325 0.0
C319 C 0.51705 0.50807 0.65123 0.0
C320 C 0.57902 0.53483 0.63585 0.0
H321 H 0.46487 0.48218 0.70338 0.0
H322 H 0.47115 0.48613 0.63128 0.0
C323 C 0.63778 0.56208 0.66223 0.0
C324 C 0.62639 0.1153 0.62121 0.0
C325 C 0.55812 0.08447 0.60791 0.0
H326 H 0.70167 0.16001 0.67141 0.0
C327 C 0.51236 0.07367 0.63581 0.0
H328 H 0.66239 0.12345 0.6003 0.0
C329 C 0.53434 0.09378 0.67627 0.0
C330 C 0.60271 0.12532 0.68983 0.0
H331 H 0.45927 0.04964 0.62639 0.0
H332 H 0.49751 0.08366 0.69704 0.0
C333 C 0.64862 0.1357 0.66189 0.0
C334 C 0.61835 0.66974 0.97006 0.0
C335 C 0.61683 0.61762 0.94545 0.0
H336 H 0.62269 0.70978 0.0299 0.0
C337 C 0.6122 0.56166 0.9623 0.0
H338 H 0.62172 0.7133 0.95756 0.0
C339 C 0.61407 0.56039 0.00375 0.0
C340 C 0.61867 0.61413 0.02845 0.0
H341 H 0.61139 0.5212 0.94381 0.0
H342 H 0.61463 0.51888 0.01668 0.0
C343 C 0.61852 0.66766 0.01127 0.0
C344 C 1.03354 0.57935 0.27556 0.0
C345 C 1.03466 0.51916 0.27142 0.0
H346 H 1.035 0.65558 0.3154 0.0
C347 C 1.03174 0.48568 0.30526 0.0
H348 H 1.03497 0.60586 0.24992 0.0
C349 C 1.03217 0.51466 0.34313 0.0
C350 C 1.03544 0.57723 0.34733 0.0
H351 H 1.03234 0.43903 0.30271 0.0
H352 H 1.03352 0.49008 0.3692 0.0
C353 C 1.03369 0.60793 0.31304 0.0
loop_
_geom_bond_atom_site_label_1
_geom_bond_atom_site_label_2
_geom_bond_distance
_geom_bond_site_symmetry_2
_ccdc_geom_bond_type
Dy0 O4 2.398 . S
Dy0 O5 2.491 . S
Dy0 O6 2.403 . S
Dy0 O7 2.664 . S
Dy0 O11 2.326 . S
Dy0 O15 2.310 . S
Dy0 O16 2.351 1_455 S
C1 O12 1.185 . S
C1 O13 1.355 . S
C2 O4 1.185 . S
C2 O5 1.355 . S
Dy3 O7 2.310 1_655 S
Dy3 O10 2.351 1_655 S
Dy3 O12 2.398 . S
Dy3 O13 2.491 . S
Dy3 O14 2.403 . S
Dy3 O15 2.664 1_655 S
Dy3 O17 2.326 . S
O4 Dy0 2.398 . S
O4 C2 1.185 . S
O5 Dy0 2.491 . S
O5 C2 1.355 . S
O6 Dy0 2.403 . S
O6 C8 1.254 . S
O7 Dy0 2.664 . S
O7 Dy3 2.310 1_455 S
O7 C8 1.268 . S
C8 O6 1.254 . S
C8 O7 1.268 . S
C9 O14 1.254 1_455 S
C9 O15 1.268 . S
O10 Dy3 2.351 1_455 S
O10 C18 1.249 . S
O11 Dy0 2.326 . S
O11 C18 1.267 . S
O12 C1 1.185 . S
O12 Dy3 2.398 . S
O13 C1 1.355 . S
O13 Dy3 2.491 . S
O14 Dy3 2.403 . S
O14 C9 1.254 1_655 S
O15 Dy0 2.310 . S
O15 Dy3 2.664 1_455 S
O15 C9 1.268 . S
O16 Dy0 2.351 1_655 S
O16 C19 1.249 . S
O17 Dy3 2.326 . S
O17 C19 1.267 . S
C18 O10 1.249 . S
C18 O11 1.267 . S
C19 O16 1.249 . S
C19 O17 1.267 . S
Dy20 O24 2.398 . S
Dy20 O25 2.491 . S
Dy20 O26 2.403 1_565 S
Dy20 O27 2.664 1_565 S
Dy20 O31 2.326 . S
Dy20 O35 2.310 1_565 S
Dy20 O36 2.351 1_565 S
C21 O32 1.185 . S
C21 O33 1.355 . S
C22 O24 1.185 . S
C22 O25 1.355 . S
Dy23 O27 2.310 . S
Dy23 O30 2.351 1_545 S
Dy23 O32 2.398 . S
Dy23 O33 2.491 . S
Dy23 O34 2.403 . S
Dy23 O35 2.664 . S
Dy23 O37 2.326 . S
O24 Dy20 2.398 . S
O24 C22 1.185 . S
O25 Dy20 2.491 . S
O25 C22 1.355 . S
O26 Dy20 2.403 1_545 S
O26 C28 1.254 . S
O27 Dy20 2.664 1_545 S
O27 Dy23 2.310 . S
O27 C28 1.268 . S
C28 O26 1.254 . S
C28 O27 1.268 . S
C29 O34 1.254 . S
C29 O35 1.268 . S
O30 Dy23 2.351 1_565 S
O30 C38 1.249 . S
O31 Dy20 2.326 . S
O31 C38 1.267 . S
O32 C21 1.185 . S
O32 Dy23 2.398 . S
O33 C21 1.355 . S
O33 Dy23 2.491 . S
O34 Dy23 2.403 . S
O34 C29 1.254 . S
O35 Dy20 2.310 1_545 S
O35 Dy23 2.664 . S
O35 C29 1.268 . S
O36 Dy20 2.351 1_545 S
O36 C39 1.249 . S
O37 Dy23 2.326 . S
O37 C39 1.267 . S
C38 O30 1.249 . S
C38 O31 1.267 . S
C39 O36 1.249 . S
C39 O37 1.267 . S
Dy40 O44 2.398 . S
Dy40 O45 2.491 . S
Dy40 O46 2.403 . S
Dy40 O47 2.664 . S
Dy40 O51 2.326 . S
Dy40 O55 2.310 . S
Dy40 O56 2.351 . S
C41 O52 1.185 . S
C41 O53 1.355 . S
C42 O44 1.185 . S
C42 O45 1.355 . S
Dy43 O47 2.310 . S
Dy43 O50 2.351 . S
Dy43 O52 2.398 . S
Dy43 O53 2.491 . S
Dy43 O54 2.403 . S
Dy43 O55 2.664 . S
Dy43 O57 2.326 . S
O44 Dy40 2.398 . S
O44 C42 1.185 . S
O45 Dy40 2.491 . S
O45 C42 1.355 . S
O46 Dy40 2.403 . S
O46 C48 1.254 . S
O47 Dy40 2.664 . S
O47 Dy43 2.310 . S
O47 C48 1.268 . S
C48 O46 1.254 . S
C48 O47 1.268 . S
C49 O54 1.254 . S
C49 O55 1.268 . S
O50 Dy43 2.351 . S
O50 C58 1.249 . S
O51 Dy40 2.326 . S
O51 C58 1.267 . S
O52 C41 1.185 . S
O52 Dy43 2.398 . S
O53 C41 1.355 . S
O53 Dy43 2.491 . S
O54 Dy43 2.403 . S
O54 C49 1.254 . S
O55 Dy40 2.310 . S
O55 Dy43 2.664 . S
O55 C49 1.268 . S
O56 Dy40 2.351 . S
O56 C59 1.249 . S
O57 Dy43 2.326 . S
O57 C59 1.267 . S
C58 O50 1.249 . S
C58 O51 1.267 . S
C59 O56 1.249 . S
C59 O57 1.267 . S
H60 C61 0.949 . S
C61 H60 0.949 . S
C61 C62 1.394 1_545 S
C61 C63 1.391 . S
C62 C61 1.394 1_565 S
C62 C65 1.390 . S
C63 C61 1.391 . S
C63 C67 1.387 1_545 S
C63 C68 1.491 . S
H64 C65 0.950 . S
C65 C62 1.390 . S
C65 H64 0.950 . S
C65 C66 1.378 . S
C66 C65 1.378 . S
C66 C67 1.409 . S
C67 C63 1.387 1_565 S
C67 C66 1.409 . S
C67 H69 0.951 . S
C68 C63 1.491 . S
C68 C70 1.382 . S
C68 C72 1.404 . S
H69 C67 0.951 . S
C70 C68 1.382 . S
C70 C71 1.390 . S
C70 H75 0.949 . S
C71 C70 1.390 . S
C71 C76 1.399 . S
C72 C68 1.404 . S
C72 H73 0.950 . S
C72 C74 1.375 . S
H73 C72 0.950 . S
C74 C72 1.375 . S
C74 C76 1.382 . S
C74 H78 0.950 . S
H75 C70 0.949 . S
C76 C71 1.399 . S
C76 C74 1.382 . S
C76 H77 0.952 . S
H77 C76 0.952 . S
H78 C74 0.950 . S
H79 C80 0.949 . S
C80 H79 0.949 . S
C80 C81 1.395 . S
C80 C82 1.391 . S
C81 C80 1.395 . S
C81 C84 1.390 . S
C82 C80 1.391 . S
C82 C86 1.387 . S
C82 C87 1.491 . S
H83 C84 0.950 . S
C84 C81 1.390 . S
C84 H83 0.950 . S
C84 C85 1.378 . S
C85 C84 1.378 . S
C85 C86 1.409 . S
C86 C82 1.387 . S
C86 C85 1.409 . S
C86 H88 0.951 . S
C87 C82 1.491 . S
C87 C89 1.382 . S
C87 C91 1.404 . S
H88 C86 0.951 . S
C89 C87 1.382 . S
C89 C90 1.390 . S
C89 H94 0.949 . S
C90 C89 1.390 . S
C90 C95 1.399 . S
C91 C87 1.404 . S
C91 H92 0.950 . S
C91 C93 1.375 . S
H92 C91 0.950 . S
C93 C91 1.375 . S
C93 C95 1.382 . S
C93 H97 0.950 . S
H94 C89 0.949 . S
C95 C90 1.399 . S
C95 C93 1.382 . S
C95 H96 0.952 . S
H96 C95 0.952 . S
H97 C93 0.950 . S
H98 C99 0.949 . S
C99 H98 0.949 . S
C99 C100 1.395 . S
C99 C101 1.391 . S
C100 C99 1.395 . S
C100 C103 1.390 1_455 S
C101 C99 1.391 . S
C101 C105 1.387 . S
C101 C106 1.491 . S
H102 C103 0.950 . S
C103 C100 1.390 1_655 S
C103 H102 0.950 . S
C103 C104 1.378 . S
C104 C103 1.378 . S
C104 C105 1.409 1_655 S
C105 C101 1.387 . S
C105 C104 1.409 1_455 S
C105 H107 0.951 . S
C106 C101 1.491 . S
C106 C108 1.382 . S
C106 C110 1.404 . S
H107 C105 0.951 . S
C108 C106 1.382 . S
C108 C109 1.390 . S
C108 H113 0.949 . S
C109 C108 1.390 . S
C109 C114 1.399 . S
C110 C106 1.404 . S
C110 H111 0.950 . S
C110 C112 1.375 . S
H111 C110 0.950 . S
C112 C110 1.375 . S
C112 C114 1.382 . S
C112 H116 0.950 . S
H113 C108 0.949 . S
C114 C109 1.399 . S
C114 C112 1.382 . S
C114 H115 0.952 . S
H115 C114 0.952 . S
H116 C112 0.950 . S
H117 C118 0.949 . S
C118 H117 0.949 . S
C118 C119 1.395 1_655 S
C118 C120 1.391 1_655 S
C119 C118 1.395 1_455 S
C119 C122 1.390 . S
C120 C118 1.391 1_455 S
C120 C124 1.387 . S
C120 C125 1.491 1_455 S
H121 C122 0.950 . S
C122 C119 1.390 . S
C122 H121 0.950 . S
C122 C123 1.378 . S
C123 C122 1.378 . S
C123 C124 1.409 . S
C124 C120 1.387 . S
C124 C123 1.409 . S
C124 H126 0.951 . S
C125 C120 1.491 1_655 S
C125 C127 1.382 . S
C125 C129 1.404 . S
H126 C124 0.951 . S
C127 C125 1.382 . S
C127 C128 1.390 . S
C127 H132 0.949 . S
C128 C127 1.390 . S
C128 C133 1.399 . S
C129 C125 1.404 . S
C129 H130 0.950 . S
C129 C131 1.375 . S
H130 C129 0.950 . S
C131 C129 1.375 . S
C131 C133 1.382 . S
C131 H135 0.950 . S
H132 C127 0.949 . S
C133 C128 1.399 . S
C133 C131 1.382 . S
C133 H134 0.952 . S
H134 C133 0.952 . S
H135 C131 0.950 . S
H136 C137 0.949 1_565 S
C137 H136 0.949 1_545 S
C137 C138 1.395 . S
C137 C139 1.391 . S
C138 C137 1.395 . S
C138 C141 1.390 . S
C139 C137 1.391 . S
C139 C143 1.387 . S
C139 C144 1.491 1_545 S
H140 C141 0.950 . S
C141 C138 1.390 . S
C141 H140 0.950 . S
C141 C142 1.378 . S
C142 C141 1.378 . S
C142 C143 1.409 . S
C143 C139 1.387 . S
C143 C142 1.409 . S
C143 H145 0.951 . S
C144 C139 1.491 1_565 S
C144 C146 1.382 . S
C144 C148 1.404 . S
H145 C143 0.951 . S
C146 C144 1.382 . S
C146 C147 1.390 . S
C146 H151 0.949 . S
C147 C146 1.390 . S
C147 C152 1.399 . S
C148 C144 1.404 . S
C148 H149 0.950 1_565 S
C148 C150 1.375 . S
H149 C148 0.950 1_545 S
C150 C148 1.375 . S
C150 C152 1.382 . S
C150 H154 0.950 . S
H151 C146 0.949 . S
C152 C147 1.399 . S
C152 C150 1.382 . S
C152 H153 0.952 . S
H153 C152 0.952 . S
H154 C150 0.950 . S
H155 C156 0.949 . S
C156 H155 0.949 . S
C156 C157 1.395 . S
C156 C158 1.391 . S
C157 C156 1.395 . S
C157 C160 1.390 . S
C158 C156 1.391 . S
C158 C162 1.387 . S
C158 C163 1.491 . S
H159 C160 0.950 . S
C160 C157 1.390 . S
C160 H159 0.950 . S
C160 C161 1.378 . S
C161 C160 1.378 . S
C161 C162 1.409 . S
C162 C158 1.387 . S
C162 C161 1.409 . S
C162 H164 0.951 . S
C163 C158 1.491 . S
C163 C165 1.382 . S
C163 C167 1.404 . S
H164 C162 0.951 . S
C165 C163 1.382 . S
C165 C166 1.390 . S
C165 H170 0.949 . S
C166 C165 1.390 . S
C166 C171 1.399 . S
C167 C163 1.404 . S
C167 H168 0.950 . S
C167 C169 1.375 . S
H168 C167 0.950 . S
C169 C167 1.375 . S
C169 C171 1.382 . S
C169 H173 0.950 . S
H170 C165 0.949 . S
C171 C166 1.399 . S
C171 C169 1.382 . S
C171 H172 0.952 . S
H172 C171 0.952 . S
H173 C169 0.950 . S
C174 C175 1.387 . S
C174 H178 0.950 . S
C174 C183 1.390 . S
C175 C174 1.387 . S
C175 C177 1.387 . S
H176 C183 0.950 . S
C177 C175 1.387 . S
C177 C179 1.390 . S
C177 H181 0.950 . S
H178 C174 0.950 . S
C179 C177 1.390 . S
C179 C180 1.387 . S
C179 H182 0.950 . S
C180 C179 1.387 . S
C180 C183 1.387 . S
H181 C177 0.950 . S
H182 C179 0.950 . S
C183 C174 1.390 . S
C183 H176 0.950 . S
C183 C180 1.387 . S
C184 C185 1.387 . S
C184 H188 0.950 . S
C184 C193 1.390 . S
C185 C184 1.387 . S
C185 C187 1.387 . S
H186 C193 0.950 . S
C187 C185 1.387 . S
C187 C189 1.390 . S
C187 H191 0.950 . S
H188 C184 0.950 . S
C189 C187 1.390 . S
C189 C190 1.387 . S
C189 H192 0.950 . S
C190 C189 1.387 . S
C190 C193 1.387 . S
H191 C187 0.950 . S
H192 C189 0.950 . S
C193 C184 1.390 . S
C193 H186 0.950 . S
C193 C190 1.387 . S
C194 C195 1.387 . S
C194 H198 0.950 . S
C194 C203 1.390 . S
C195 C194 1.387 . S
C195 C197 1.387 . S
H196 C203 0.950 . S
C197 C195 1.387 . S
C197 C199 1.390 . S
C197 H201 0.950 . S
H198 C194 0.950 . S
C199 C197 1.390 . S
C199 C200 1.387 . S
C199 H202 0.950 . S
C200 C199 1.387 . S
C200 C203 1.387 . S
H201 C197 0.950 . S
H202 C199 0.950 . S
C203 C194 1.390 . S
C203 H196 0.950 . S
C203 C200 1.387 . S
C204 C205 1.387 . S
C204 H208 0.950 . S
C204 C213 1.390 . S
C205 C204 1.387 . S
C205 C207 1.387 . S
H206 C213 0.950 . S
C207 C205 1.387 . S
C207 C209 1.390 . S
C207 H211 0.950 . S
H208 C204 0.950 . S
C209 C207 1.390 . S
C209 C210 1.387 . S
C209 H212 0.950 . S
C210 C209 1.387 . S
C210 C213 1.387 . S
H211 C207 0.950 . S
H212 C209 0.950 . S
C213 C204 1.390 . S
C213 H206 0.950 . S
C213 C210 1.387 . S
C214 C215 1.387 . S
C214 H218 0.950 . S
C214 C223 1.390 . S
C215 C214 1.387 . S
C215 C217 1.387 . S
H216 C223 0.950 . S
C217 C215 1.387 . S
C217 C219 1.390 . S
C217 H221 0.950 . S
H218 C214 0.950 . S
C219 C217 1.390 . S
C219 C220 1.387 . S
C219 H222 0.950 . S
C220 C219 1.387 . S
C220 C223 1.387 . S
H221 C217 0.950 . S
H222 C219 0.950 . S
C223 C214 1.390 . S
C223 H216 0.950 . S
C223 C220 1.387 . S
C224 C225 1.387 . S
C224 H228 0.950 . S
C224 C233 1.390 . S
C225 C224 1.387 . S
C225 C227 1.387 . S
H226 C233 0.950 . S
C227 C225 1.387 . S
C227 C229 1.390 . S
C227 H231 0.950 . S
H228 C224 0.950 . S
C229 C227 1.390 . S
C229 C230 1.387 . S
C229 H232 0.950 . S
C230 C229 1.387 . S
C230 C233 1.387 . S
H231 C227 0.950 . S
H232 C229 0.950 . S
C233 C224 1.390 . S
C233 H226 0.950 . S
C233 C230 1.387 . S
C234 C235 1.387 . S
C234 H238 0.950 . S
C234 C243 1.390 . S
C235 C234 1.387 . S
C235 C237 1.387 . S
H236 C243 0.950 . S
C237 C235 1.387 . S
C237 C239 1.390 . S
C237 H241 0.950 . S
H238 C234 0.950 . S
C239 C237 1.390 . S
C239 C240 1.387 . S
C239 H242 0.950 . S
C240 C239 1.387 . S
C240 C243 1.387 . S
H241 C237 0.950 . S
H242 C239 0.950 . S
C243 C234 1.390 . S
C243 H236 0.950 . S
C243 C240 1.387 . S
C244 C245 1.387 . S
C244 H248 0.950 . S
C244 C253 1.390 . S
C245 C244 1.387 . S
C245 C247 1.387 . S
H246 C253 0.950 . S
C247 C245 1.387 . S
C247 C249 1.390 . S
C247 H251 0.950 . S
H248 C244 0.950 . S
C249 C247 1.390 . S
C249 C250 1.387 . S
C249 H252 0.950 . S
C250 C249 1.387 . S
C250 C253 1.387 . S
H251 C247 0.950 . S
H252 C249 0.950 . S
C253 C244 1.390 . S
C253 H246 0.950 . S
C253 C250 1.387 . S
C254 C255 1.387 . S
C254 H258 0.950 . S
C254 C263 1.390 . S
C255 C254 1.387 . S
C255 C257 1.387 . S
H256 C263 0.950 . S
C257 C255 1.387 . S
C257 C259 1.390 . S
C257 H261 0.950 . S
H258 C254 0.950 . S
C259 C257 1.390 . S
C259 C260 1.387 . S
C259 H262 0.950 . S
C260 C259 1.387 . S
C260 C263 1.387 . S
H261 C257 0.950 . S
H262 C259 0.950 . S
C263 C254 1.390 . S
C263 H256 0.950 . S
C263 C260 1.387 . S
C264 C265 1.387 . S
C264 H268 0.950 . S
C264 C273 1.390 . S
C265 C264 1.387 . S
C265 C267 1.387 . S
H266 C273 0.950 . S
C267 C265 1.387 . S
C267 C269 1.390 . S
C267 H271 0.950 . S
H268 C264 0.950 . S
C269 C267 1.390 . S
C269 C270 1.387 . S
C269 H272 0.950 . S
C270 C269 1.387 . S
C270 C273 1.387 . S
H271 C267 0.950 . S
H272 C269 0.950 . S
C273 C264 1.390 . S
C273 H266 0.950 . S
C273 C270 1.387 . S
C274 C275 1.387 . S
C274 H278 0.950 . S
C274 C283 1.390 . S
C275 C274 1.387 . S
C275 C277 1.387 . S
H276 C283 0.950 . S
C277 C275 1.387 . S
C277 C279 1.390 . S
C277 H281 0.950 . S
H278 C274 0.950 . S
C279 C277 1.390 . S
C279 C280 1.387 . S
C279 H282 0.950 . S
C280 C279 1.387 . S
C280 C283 1.387 . S
H281 C277 0.950 . S
H282 C279 0.950 . S
C283 C274 1.390 . S
C283 H276 0.950 . S
C283 C280 1.387 . S
C284 C285 1.387 . S
C284 H288 0.950 . S
C284 C293 1.390 . S
C285 C284 1.387 . S
C285 C287 1.387 . S
H286 C293 0.950 . S
C287 C285 1.387 . S
C287 C289 1.390 . S
C287 H291 0.950 . S
H288 C284 0.950 . S
C289 C287 1.390 . S
C289 C290 1.387 . S
C289 H292 0.950 . S
C290 C289 1.387 . S
C290 C293 1.387 . S
H291 C287 0.950 . S
H292 C289 0.950 . S
C293 C284 1.390 . S
C293 H286 0.950 . S
C293 C290 1.387 . S
C294 C295 1.387 1_655 S
C294 H298 0.950 . S
C294 C303 1.390 1_554 S
C295 C294 1.387 1_455 S
C295 C297 1.387 . S
H296 C303 0.950 . S
C297 C295 1.387 . S
C297 C299 1.390 1_554 S
C297 H301 0.950 . S
H298 C294 0.950 . S
C299 C297 1.390 1_556 S
C299 C300 1.387 . S
C299 H302 0.950 . S
C300 C299 1.387 . S
C300 C303 1.387 1_455 S
H301 C297 0.950 . S
H302 C299 0.950 . S
C303 C294 1.390 1_556 S
C303 H296 0.950 . S
C303 C300 1.387 1_655 S
C304 C305 1.387 1_565 S
C304 H308 0.950 . S
C304 C313 1.390 . S
C305 C304 1.387 1_545 S
C305 C307 1.387 . S
H306 C313 0.950 . S
C307 C305 1.387 . S
C307 C309 1.390 . S
C307 H311 0.950 . S
H308 C304 0.950 . S
C309 C307 1.390 . S
C309 C310 1.387 . S
C309 H312 0.950 . S
C310 C309 1.387 . S
C310 C313 1.387 1_545 S
H311 C307 0.950 . S
H312 C309 0.950 . S
C313 C304 1.390 . S
C313 H306 0.950 . S
C313 C310 1.387 1_565 S
C314 C315 1.387 . S
C314 H318 0.950 . S
C314 C323 1.390 . S
C315 C314 1.387 . S
C315 C317 1.387 . S
H316 C323 0.950 . S
C317 C315 1.387 . S
C317 C319 1.390 . S
C317 H321 0.950 . S
H318 C314 0.950 . S
C319 C317 1.390 . S
C319 C320 1.387 . S
C319 H322 0.950 . S
C320 C319 1.387 . S
C320 C323 1.387 . S
H321 C317 0.950 . S
H322 C319 0.950 . S
C323 C314 1.390 . S
C323 H316 0.950 . S
C323 C320 1.387 . S
C324 C325 1.387 . S
C324 H328 0.950 . S
C324 C333 1.390 . S
C325 C324 1.387 . S
C325 C327 1.387 . S
H326 C333 0.950 . S
C327 C325 1.387 . S
C327 C329 1.390 . S
C327 H331 0.950 1_545 S
H328 C324 0.950 . S
C329 C327 1.390 . S
C329 C330 1.387 . S
C329 H332 0.950 1_545 S
C330 C329 1.387 . S
C330 C333 1.387 . S
H331 C327 0.950 1_565 S
H332 C329 0.950 1_565 S
C333 C324 1.390 . S
C333 H326 0.950 . S
C333 C330 1.387 . S
C334 C335 1.387 . S
C334 H338 0.950 . S
C334 C343 1.390 1_556 S
C335 C334 1.387 . S
C335 C337 1.387 . S
H336 C343 0.950 . S
C337 C335 1.387 . S
C337 C339 1.390 1_556 S
C337 H341 0.950 . S
H338 C334 0.950 . S
C339 C337 1.390 1_554 S
C339 C340 1.387 . S
C339 H342 0.950 . S
C340 C339 1.387 . S
C340 C343 1.387 . S
H341 C337 0.950 . S
H342 C339 0.950 . S
C343 C334 1.390 1_554 S
C343 H336 0.950 . S
C343 C340 1.387 . S
C344 C345 1.387 . S
C344 H348 0.950 . S
C344 C353 1.390 . S
C345 C344 1.387 . S
C345 C347 1.391 . S
H346 C353 0.950 . S
C347 C345 1.391 . S
C347 C349 1.390 . S
C347 H351 0.947 1_455 S
H348 C344 0.950 . S
C349 C347 1.390 . S
C349 C350 1.390 . S
C349 H352 0.946 1_455 S
C350 C349 1.390 . S
C350 C353 1.387 . S
H351 C347 0.947 1_655 S
H352 C349 0.946 1_655 S
C353 C344 1.390 . S
C353 H346 0.950 . S
C353 C350 1.387 . S
C175 C2 1.216 . S
C180 C166 1.176 . S
C185 C21 1.133 . S
C190 C128 1.104 . S
C195 C42 1.193 . S
C200 C147 1.159 . S
C205 C1 0.984 . S
C210 C161 0.969 . S
C220 C123 1.010 . S
C215 C22 1.027 . S
C230 C142 0.953 . S
C225 C41 0.963 . S
C235 C38 2.010 . S
C240 C90 1.947 . S
C245 C59 1.904 . S
C250 C104 1.871 . S
C255 C18 1.857 . S
C260 C66 1.819 . S
C270 C85 1.870 . S
C265 C39 1.903 . S
C280 C109 1.945 . S
C275 C58 2.002 . S
C285 C19 2.066 . S
C290 C71 2.003 . S
C300 C100 1.593 . S
C295 C9 1.581 . S
C305 C29 1.544 . S
C310 C62 1.653 1_545 S
C315 C49 1.581 . S
C320 C81 1.616 . S
C330 C138 1.552 . S
C325 C28 1.556 . S
C340 C157 1.519 . S
C335 C48 1.493 . S
C345 C8 1.432 . S
C350 C119 1.488 . S
