# Generated by pormake.
# Topology zzz, (3,6)-cn, num edge types: 1
# Building blocks:
#     Node 0, Type 0, BuildingBlock: ESEHIV_clean_linker_0, # of connection points: 3
#     Node 1, Type 0, BuildingBlock: ESEHIV_clean_linker_0, # of connection points: 3
#     Node 2, Type 0, BuildingBlock: ESEHIV_clean_linker_0, # of connection points: 3
#     Node 3, Type 0, BuildingBlock: ESEHIV_clean_linker_0, # of connection points: 3
#     Node 4, Type 0, BuildingBlock: ESEHIV_clean_linker_0, # of connection points: 3
#     Node 5, Type 0, BuildingBlock: ESEHIV_clean_linker_0, # of connection points: 3
#     Node 6, Type 0, BuildingBlock: ESEHIV_clean_linker_0, # of connection points: 3
#     Node 7, Type 0, BuildingBlock: ESEHIV_clean_linker_0, # of connection points: 3
#     Node 8, Type 1, BuildingBlock: CUKXOW_clean_sbu_0, # of connection points: 6
#     Node 9, Type 1, BuildingBlock: CUKXOW_clean_sbu_0, # of connection points: 6
#     Node 10, Type 1, BuildingBlock: CUKXOW_clean_sbu_0, # of connection points: 6
#     Node 11, Type 1, BuildingBlock: CUKXOW_clean_sbu_0, # of connection points: 6
#     Edge 12, Type (0, 1), BuildingBlock: CIFDUS_clean_linker_0, # of connection points: 2
#     Edge 13, Type (0, 1), BuildingBlock: CIFDUS_clean_linker_0, # of connection points: 2
#     Edge 14, Type (0, 1), BuildingBlock: CIFDUS_clean_linker_0, # of connection points: 2
#     Edge 15, Type (0, 1), BuildingBlock: CIFDUS_clean_linker_0, # of connection points: 2
#     Edge 16, Type (0, 1), BuildingBlock: CIFDUS_clean_linker_0, # of connection points: 2
#     Edge 17, Type (0, 1), BuildingBlock: CIFDUS_clean_linker_0, # of connection points: 2
#     Edge 18, Type (0, 1), BuildingBlock: CIFDUS_clean_linker_0, # of connection points: 2
#     Edge 19, Type (0, 1), BuildingBlock: CIFDUS_clean_linker_0, # of connection points: 2
#     Edge 20, Type (0, 1), BuildingBlock: CIFDUS_clean_linker_0, # of connection points: 2
#     Edge 21, Type (0, 1), BuildingBlock: CIFDUS_clean_linker_0, # of connection points: 2
#     Edge 22, Type (0, 1), BuildingBlock: CIFDUS_clean_linker_0, # of connection points: 2
#     Edge 23, Type (0, 1), BuildingBlock: CIFDUS_clean_linker_0, # of connection points: 2
#     Edge 24, Type (0, 1), BuildingBlock: CIFDUS_clean_linker_0, # of connection points: 2
#     Edge 25, Type (0, 1), BuildingBlock: CIFDUS_clean_linker_0, # of connection points: 2
#     Edge 26, Type (0, 1), BuildingBlock: CIFDUS_clean_linker_0, # of connection points: 2
#     Edge 27, Type (0, 1), BuildingBlock: CIFDUS_clean_linker_0, # of connection points: 2
#     Edge 28, Type (0, 1), BuildingBlock: CIFDUS_clean_linker_0, # of connection points: 2
#     Edge 29, Type (0, 1), BuildingBlock: CIFDUS_clean_linker_0, # of connection points: 2
#     Edge 30, Type (0, 1), BuildingBlock: CIFDUS_clean_linker_0, # of connection points: 2
#     Edge 31, Type (0, 1), BuildingBlock: CIFDUS_clean_linker_0, # of connection points: 2
#     Edge 32, Type (0, 1), BuildingBlock: CIFDUS_clean_linker_0, # of connection points: 2
#     Edge 33, Type (0, 1), BuildingBlock: CIFDUS_clean_linker_0, # of connection points: 2
#     Edge 34, Type (0, 1), BuildingBlock: CIFDUS_clean_linker_0, # of connection points: 2
#     Edge 35, Type (0, 1), BuildingBlock: CIFDUS_clean_linker_0, # of connection points: 2
# Relax obj value: 0.208
# Max RMSD: 0.228
# Mean RMSD: 0.183
data_MOF--net-zzz--node1-CUKXOW_clean_sbu_0--node2-ESEHIV_clean_linker_0--edge1-CIFDUS_clean_linker_0
_symmetry_space_group_name_H-M    P1
_symmetry_Int_Tables_number       1
_symmetry_cell_setting            triclinic
loop_
_symmetry_equiv_pos_as_xyz
'x, y, z'
_cell_length_a     38.534811
_cell_length_b     38.900474
_cell_length_c     14.130214
_cell_angle_alpha  92.887812
_cell_angle_beta   87.483262
_cell_angle_gamma 95.81166
loop_
_atom_site_label
_atom_site_type_symbol
_atom_site_fract_x
_atom_site_fract_y
_atom_site_fract_z
_atom_type_partial_charge
H0 H 0.81215 0.43885 0.15559 0.0
H1 H 0.74485 0.44594 0.92532 0.0
H2 H 0.70296 0.447 0.21418 0.0
C3 C 0.78608 0.43962 0.13002 0.0
C4 C 0.75814 0.44173 0.19572 0.0
C5 C 0.78177 0.44237 0.03308 0.0
C6 C 0.74821 0.44373 0.00049 0.0
C7 C 0.71931 0.44461 0.06512 0.0
C8 C 0.72449 0.44406 0.16344 0.0
H9 H 0.93337 0.83268 0.22084 0.0
H10 H 0.94885 0.76818 0.97046 0.0
H11 H 0.93913 0.72407 0.24539 0.0
C12 C 0.93409 0.80711 0.18696 0.0
C13 C 0.93353 0.77852 0.24391 0.0
C14 C 0.94001 0.80395 0.08861 0.0
C15 C 0.94364 0.77101 0.04632 0.0
C16 C 0.94302 0.74205 0.10249 0.0
C17 C 0.93823 0.74599 0.20144 0.0
H18 H 0.68733 0.00859 0.2197 0.0
H19 H 0.76227 0.99387 -0.00677 0.0
H20 H 0.79606 0.03308 0.27076 0.0
C21 C 0.71441 0.00899 0.19443 0.0
C22 C 0.74078 0.02107 0.2557 0.0
C23 C 0.722 -0.00016 0.09998 0.0
C24 C 0.75688 0.00151 0.06672 0.0
C25 C 0.78434 0.01309 0.12752 0.0
C26 C 0.77585 0.02309 0.22296 0.0
H27 H 0.60275 0.65865 0.19595 0.0
H28 H 0.62176 0.7681 0.25682 0.0
H29 H 0.57892 0.72937 0.99091 0.0
C30 C 0.60325 0.68491 0.17309 0.0
C31 C 0.5897 0.69066 0.08578 0.0
C32 C 0.61456 0.71261 0.23523 0.0
C33 C 0.61401 0.7467 0.20767 0.0
C34 C 0.60263 0.75289 0.11725 0.0
C35 C 0.59023 0.72468 0.05739 0.0
H36 H 0.17838 0.53207 0.20035 0.0
H37 H 0.24616 0.54022 0.43571 0.0
H38 H 0.28269 0.504 0.15882 0.0
C39 C 0.20376 0.53065 0.22924 0.0
C40 C 0.23027 0.51927 0.16851 0.0
C41 C 0.20889 0.53852 0.32567 0.0
C42 C 0.2416 0.53437 0.36128 0.0
C43 C 0.26827 0.52143 0.30236 0.0
C44 C 0.26242 0.51376 0.20523 0.0
H45 H 0.08439 0.18876 0.28801 0.0
H46 H 0.05093 0.26238 0.50101 0.0
H47 H 0.0749 0.29283 0.21529 0.0
C48 C 0.08048 0.21511 0.31096 0.0
C49 C 0.08363 0.24037 0.24274 0.0
C50 C 0.06884 0.22237 0.40472 0.0
C51 C 0.06026 0.25592 0.42952 0.0
C52 C 0.06217 0.28114 0.36129 0.0
C53 C 0.07436 0.27357 0.26834 0.0
H54 H 0.35681 0.97133 0.20575 0.0
H55 H 0.28183 0.97314 0.43837 0.0
H56 H 0.25193 0.99232 0.15597 0.0
C57 C 0.33053 0.97464 0.23287 0.0
C58 C 0.30562 0.98219 0.16991 0.0
C59 C 0.32253 0.97204 0.32972 0.0
C60 C 0.2883 0.97549 0.36341 0.0
C61 C 0.2624 0.98248 0.3016 0.0
C62 C 0.27129 0.98617 0.20412 0.0
H63 H 0.4165 0.32182 0.18199 0.0
H64 H 0.43082 0.21401 0.13726 0.0
H65 H 0.43638 0.26339 0.41794 0.0
C66 C 0.42008 0.29711 0.21053 0.0
C67 C 0.42729 0.29604 0.30614 0.0
C68 C 0.42094 0.2677 0.1492 0.0
C69 C 0.42807 0.23621 0.18546 0.0
C70 C 0.43333 0.23414 0.28333 0.0
C71 C 0.43188 0.2642 0.34306 0.0
Tb72 Tb 0.01234 0.97603 0.67144 0.0
C73 C 0.09131 5e-05 0.63387 0.0
Tb74 Tb 0.04569 0.03463 0.80245 0.0
O75 O 0.02083 0.00793 0.54832 0.0
O76 O 0.01345 0.03019 0.6849 0.0
O77 O 0.06622 0.97451 0.61833 0.0
C78 C 0.07839 0.09372 0.86975 0.0
O79 O 0.08741 0.02648 0.69578 0.0
C80 C 0.03662 0.97285 0.87066 0.0
C81 C 0.96634 0.01362 0.83375 0.0
O82 O 0.05164 0.09107 0.81626 0.0
O83 O 0.08633 0.06301 0.88681 0.0
O84 O 0.03549 0.00114 0.92338 0.0
O85 O 0.04503 0.98051 0.78714 0.0
O86 O 0.99183 0.03851 0.84915 0.0
O87 O 0.96994 0.98615 0.77556 0.0
C88 C 0.97656 0.91754 0.61275 0.0
O89 O 0.96857 0.94842 0.5987 0.0
O90 O 0.00568 0.91944 0.65655 0.0
C91 C 0.02127 0.03667 0.59982 0.0
Tb92 Tb 0.51767 0.03446 0.67944 0.0
C93 C 0.59088 0.00765 0.62774 0.0
Tb94 Tb 0.53449 0.96496 0.75725 0.0
O95 O 0.55805 0.06402 0.76056 0.0
O96 O 0.5349 0.0171 0.80765 0.0
O97 O 0.56688 0.02707 0.60029 0.0
C98 C 0.56211 0.91401 0.83708 0.0
O99 O 0.58453 0.98498 0.69487 0.0
C100 C 0.4951 0.96003 0.61035 0.0
C101 C 0.46156 0.99111 0.81214 0.0
O102 O 0.54581 0.93774 0.88272 0.0
O103 O 0.56224 0.91864 0.74681 0.0
O104 O 0.49403 0.93635 0.67221 0.0
O105 O 0.51977 0.9828 0.62809 0.0
O106 O 0.48552 0.97094 0.83463 0.0
O107 O 0.46771 0.01613 0.75076 0.0
C108 C 0.4946 0.0862 0.59086 0.0
O109 O 0.49685 0.05522 0.55411 0.0
O110 O 0.50487 0.08777 0.67726 0.0
C111 C 0.55982 0.04036 0.8212 0.0
Tb112 Tb 0.51311 0.5319 0.65329 0.0
C113 C 0.4345 0.51124 0.61409 0.0
Tb114 Tb 0.47466 0.46666 0.74809 0.0
O115 O 0.51105 0.50665 0.51072 0.0
O116 O 0.50906 0.47757 0.63046 0.0
O117 O 0.45921 0.53731 0.62443 0.0
C118 C 0.44372 0.40421 0.78902 0.0
O119 O 0.43705 0.48001 0.64613 0.0
C120 C 0.48205 0.52298 0.85949 0.0
C121 C 0.55357 0.48918 0.79071 0.0
O122 O 0.4288 0.43278 0.79437 0.0
O123 O 0.47612 0.41087 0.76086 0.0
O124 O 0.47585 0.49209 0.89091 0.0
O125 O 0.4789 0.52081 0.77112 0.0
O126 O 0.52849 0.46303 0.78696 0.0
O127 O 0.55089 0.51939 0.75322 0.0
C128 C 0.54444 0.59401 0.61149 0.0
O129 O 0.5596 0.56565 0.61045 0.0
O130 O 0.51163 0.58728 0.63491 0.0
C131 C 0.50523 0.4758 0.54242 0.0
Tb132 Tb 0.96115 0.51648 0.6155 0.0
C133 C 0.01664 0.46497 0.56096 0.0
Tb134 Tb 0.02917 0.52032 0.73235 0.0
O135 O 0.99089 0.53477 0.48799 0.0
O136 O 0.00984 0.54668 0.62217 0.0
O137 O 0.98307 0.46993 0.56011 0.0
C138 C 0.09391 0.52563 0.79688 0.0
O139 O 0.03948 0.48422 0.6137 0.0
C140 C 0.97248 0.49062 0.81459 0.0
C141 C 0.97442 0.57371 0.7812 0.0
O142 O 0.07389 0.49703 0.78383 0.0
O143 O 0.07734 0.55137 0.77449 0.0
O144 O 0.99938 0.50431 0.86011 0.0
O145 O 0.98028 0.49036 0.7272 0.0
O146 O 0.00777 0.56776 0.78362 0.0
O147 O 0.95114 0.55435 0.72975 0.0
C148 C 0.89567 0.50755 0.55582 0.0
O149 O 0.91656 0.53586 0.55167 0.0
O150 O 0.91172 0.48419 0.59368 0.0
C151 C 0.01755 0.54832 0.53505 0.0
H152 H 0.24455 0.02108 0.45682 0.0
H153 H 0.20003 0.95107 0.23841 0.0
H154 H 0.14261 0.94986 0.32171 0.0
H155 H 0.106 0.96617 0.4633 0.0
H156 H 0.15266 0.03584 0.68058 0.0
H157 H 0.20828 0.03911 0.59215 0.0
C158 C 0.22221 0.00569 0.42711 0.0
C159 C 0.22656 0.98597 0.34208 0.0
C160 C 0.18974 0.00459 0.47619 0.0
C161 C 0.19729 0.96664 0.30354 0.0
C162 C 0.16458 0.96566 0.35175 0.0
C163 C 0.12842 0.98187 0.49138 0.0
C164 C 0.12511 0.00045 0.5791 0.0
C165 C 0.16064 0.98397 0.43935 0.0
C166 C 0.15431 0.02117 0.61357 0.0
C167 C 0.18623 0.02316 0.56293 0.0
H168 H 0.4795 0.22917 0.42084 0.0
H169 H 0.41028 0.16609 0.23536 0.0
H170 H 0.42459 0.11407 0.31024 0.0
H171 H 0.45472 0.08693 0.43567 0.0
H172 H 0.51687 0.15272 0.63216 0.0
H173 H 0.50614 0.20352 0.54811 0.0
C174 C 0.46667 0.20427 0.39775 0.0
C175 C 0.44314 0.20187 0.32368 0.0
C176 C 0.47353 0.17491 0.44404 0.0
C177 C 0.4285 0.16889 0.29208 0.0
C178 C 0.43643 0.13912 0.33549 0.0
C179 C 0.46574 0.11247 0.45975 0.0
C180 C 0.48651 0.11625 0.53982 0.0
C181 C 0.45856 0.14188 0.41258 0.0
C182 C 0.5006 0.14931 0.57108 0.0
C183 C 0.49463 0.17833 0.52284 0.0
H184 H 0.3084 0.56535 0.41652 0.0
H185 H 0.30171 0.46248 0.28609 0.0
H186 H 0.35194 0.44938 0.37388 0.0
H187 H 0.3966 0.46685 0.49306 0.0
H188 H 0.40362 0.57071 0.61789 0.0
H189 H 0.35408 0.58356 0.52861 0.0
C190 C 0.31809 0.54012 0.40701 0.0
C191 C 0.30134 0.51488 0.34532 0.0
C192 C 0.3467 0.5328 0.45793 0.0
C193 C 0.31438 0.48243 0.33263 0.0
C194 C 0.34285 0.47484 0.38352 0.0
C195 C 0.38697 0.49214 0.50113 0.0
C196 C 0.40337 0.51768 0.56284 0.0
C197 C 0.35892 0.49968 0.44751 0.0
C198 C 0.39128 0.55061 0.57114 0.0
C199 C 0.36303 0.55801 0.51995 0.0
H200 H 0.09692 0.34513 0.37011 0.0
H201 H 0.99501 0.28983 0.40779 0.0
H202 H 0.97062 0.34336 0.46231 0.0
H203 H 0.97951 0.40457 0.5126 0.0
H204 H 0.08237 0.45928 0.48746 0.0
H205 H 0.10526 0.40757 0.41371 0.0
C206 C 0.06935 0.34515 0.38922 0.0
C207 C 0.04764 0.31403 0.38565 0.0
C208 C 0.05581 0.37579 0.423 0.0
C209 C 0.012 0.3138 0.41083 0.0
C210 C 0.99813 0.34427 0.44186 0.0
C211 C 0.00677 0.4053 0.48936 0.0
C212 C 0.02927 0.43544 0.50556 0.0
C213 C 0.01993 0.37526 0.4501 0.0
C214 C 0.06465 0.4361 0.47624 0.0
C215 C 0.07775 0.4066 0.43421 0.0
H216 H 0.80947 0.02938 0.94947 0.0
H217 H 0.84328 0.00172 0.22059 0.0
H218 H 0.90316 0.00235 0.15601 0.0
H219 H 0.94567 0.00766 0.0192 0.0
H220 H 0.90951 0.02772 0.74508 0.0
H221 H 0.85059 0.0324 0.8135 0.0
C222 C 0.82962 0.02284 -0.00541 0.0
C223 C 0.82139 0.01515 0.08995 0.0
C224 C 0.86369 0.02175 0.95604 0.0
C225 C 0.84857 0.00813 0.14736 0.0
C226 C 0.88289 0.00816 0.11021 0.0
C227 C 0.92478 0.01308 0.97497 0.0
C228 C 0.93159 0.01745 0.87759 0.0
C229 C 0.8907 0.01452 0.01432 0.0
C230 C 0.90457 0.02433 0.8203 0.0
C231 C 0.871 0.02698 0.85937 0.0
H232 H 0.62145 0.77765 0.94542 0.0
H233 H 0.57779 0.80754 0.21996 0.0
H234 H 0.56435 0.86232 0.15923 0.0
H235 H 0.55869 0.89835 0.02267 0.0
H236 H 0.59915 0.86588 0.74658 0.0
H237 H 0.61983 0.81529 0.81289 0.0
C238 C 0.60925 0.79632 0.99214 0.0
C239 C 0.60025 0.78843 0.08658 0.0
C240 C 0.60053 0.82702 0.95599 0.0
C241 C 0.58513 0.81308 0.14702 0.0
C242 C 0.57709 0.84423 0.11206 0.0
C243 C 0.57232 0.8803 0.97749 0.0
C244 C 0.57702 0.88542 0.87985 0.0
C245 C 0.58366 0.85095 0.01589 0.0
C246 C 0.59493 0.86216 0.82184 0.0
C247 C 0.60679 0.83329 0.85967 0.0
H248 H 0.70481 0.49268 0.94576 0.0
H249 H 0.65626 0.40763 0.10382 0.0
H250 H 0.6002 0.41342 0.03264 0.0
H251 H 0.56567 0.44184 0.92027 0.0
H252 H 0.61571 0.52772 0.76636 0.0
H253 H 0.67047 0.52216 0.84028 0.0
C254 C 0.68194 0.47536 0.9645 0.0
C255 C 0.68465 0.44951 0.0289 0.0
C256 C 0.65011 0.47886 0.92348 0.0
C257 C 0.65471 0.42774 0.05429 0.0
C258 C 0.62278 0.43094 0.01321 0.0
C259 C 0.5886 0.45923 0.90284 0.0
C260 C 0.58652 0.48502 0.8373 0.0
C261 C 0.62025 0.4562 0.94674 0.0
C262 C 0.61641 0.50766 0.8165 0.0
C263 C 0.64785 0.50452 0.8587 0.0
H264 H 0.9113 0.70713 0.95478 0.0
H265 H 0.99295 0.70245 0.15132 0.0
H266 H 0.00963 0.64918 0.07028 0.0
H267 H 1.00261 0.60556 0.9389 0.0
H268 H 0.91961 0.6093 0.74541 0.0
H269 H 0.90172 0.66126 0.82994 0.0
C270 C 0.93259 0.69422 0.97984 0.0
C271 C 0.95099 0.7085 0.05823 0.0
C272 C 0.94186 0.66364 0.93331 0.0
C273 C 0.97833 0.69162 0.09122 0.0
C274 C 0.98798 0.66135 0.0447 0.0
C275 C 0.98061 0.61778 0.91543 0.0
C276 C 0.9627 0.60393 0.83564 0.0
C277 C 0.97021 0.64739 0.96493 0.0
C278 C 0.93383 0.61955 0.80677 0.0
C279 C 0.92363 0.6493 0.85482 0.0
H280 H 0.10327 0.1646 0.41306 0.0
H281 H 0.01717 0.21444 0.54647 0.0
H282 H 0.99836 0.1624 0.63054 0.0
H283 H 1.00058 0.09973 0.64671 0.0
H284 H 0.07833 0.04762 0.48322 0.0
H285 H 0.10518 0.10283 0.42695 0.0
C286 C 0.08007 0.16419 0.45942 0.0
C287 C 0.06135 0.19349 0.47073 0.0
C288 C 0.06733 0.13323 0.50057 0.0
C289 C 0.03249 0.19266 0.53576 0.0
C290 C 0.02123 0.16258 0.58303 0.0
C291 C 0.02351 0.10074 0.59916 0.0
C292 C 0.03756 0.07003 0.56862 0.0
C293 C 0.03754 0.1323 0.56277 0.0
C294 C 0.06709 0.07114 0.50685 0.0
C295 C 0.08246 0.10264 0.47504 0.0
H296 H 0.38947 0.00115 0.3218 0.0
H297 H 0.31875 0.93134 0.48428 0.0
H298 H 0.3662 0.92135 0.58588 0.0
H299 H 0.4282 0.93161 0.62574 0.0
H300 H 0.4992 -0.00271 0.45313 0.0
H301 H 0.45121 0.00898 0.35566 0.0
C302 C 0.38441 0.98323 0.37831 0.0
C303 C 0.35062 0.96674 0.39462 0.0
C304 C 0.4119 0.9767 0.4339 0.0
C305 C 0.34442 0.9446 0.4705 0.0
C306 C 0.37161 0.93861 0.52801 0.0
C307 C 0.43311 0.94816 0.56606 0.0
C308 C 0.46685 0.96416 0.54702 0.0
C309 C 0.4055 0.95429 0.50974 0.0
C310 C 0.47313 0.98547 0.46989 0.0
C311 C 0.4458 0.99201 0.41418 0.0
H312 H 0.46628 0.35335 0.24759 0.0
H313 H 0.40872 0.31181 0.49226 0.0
H314 H 0.42819 0.36402 0.58733 0.0
H315 H 0.46222 0.42097 0.59967 0.0
H316 H 0.51849 0.4626 0.355 0.0
H317 H 0.49784 0.41103 0.25887 0.0
C318 C 0.45724 0.35595 0.32114 0.0
C319 C 0.43583 0.32878 0.36263 0.0
C320 C 0.46842 0.38588 0.37487 0.0
C321 C 0.42528 0.33227 0.4588 0.0
C322 C 0.43637 0.36209 0.51303 0.0
C323 C 0.47054 0.4183 0.52626 0.0
C324 C 0.49263 0.44482 0.48521 0.0
C325 C 0.45829 0.38881 0.47193 0.0
C326 C 0.50179 0.44215 0.3882 0.0
C327 C 0.48999 0.41277 0.33343 0.0
H328 H 0.15447 0.5745 0.28204 0.0
H329 H 0.19469 0.52319 0.51268 0.0
H330 H 0.14049 0.52829 0.60412 0.0
H331 H 0.07893 0.53791 0.60723 0.0
H332 H 0.03462 0.57683 0.36539 0.0
H333 H 0.09276 0.58465 0.28689 0.0
C334 C 0.15147 0.56397 0.35182 0.0
C335 C 0.17874 0.54767 0.38869 0.0
C336 C 0.11913 0.56415 0.40098 0.0
C337 C 0.17462 0.53605 0.48168 0.0
C338 C 0.1433 0.53846 0.53385 0.0
C339 C 0.08208 0.54878 0.53874 0.0
C340 C 0.05273 0.5569 0.49262 0.0
C341 C 0.11501 0.55112 0.49255 0.0
C342 C 0.057 0.5703 0.40211 0.0
C343 C 0.09015 0.57474 0.35744 0.0
H344 H 0.99252 0.8173 0.9563 0.0
H345 H 0.90685 0.8631 0.10396 0.0
H346 H 0.92989 0.92004 0.05123 0.0
H347 H 0.97772 0.95747 0.97692 0.0
H348 H 0.06045 0.91145 0.81795 0.0
H349 H 0.03531 0.85369 0.86155 0.0
C350 C 0.97821 0.83948 0.97448 0.0
C351 C 0.94835 0.83599 0.03554 0.0
C352 C 0.99159 0.87216 0.94393 0.0
C353 C 0.9303 0.86519 0.05857 0.0
C354 C 0.94352 0.89778 0.02888 0.0
C355 C 0.99013 0.93472 0.95212 0.0
C356 C 0.02124 0.93842 0.89677 0.0
C357 C 0.97484 0.90171 0.97455 0.0
C358 C 0.03674 0.90894 0.86228 0.0
C359 C 0.02229 0.87603 0.88667 0.0
H360 H 0.71339 0.03703 0.94995 0.0
H361 H 0.66405 0.95349 0.11226 0.0
H362 H 0.60826 0.95879 0.04019 0.0
H363 H 0.57224 0.99323 0.9484 0.0
H364 H 0.62242 0.07653 0.7865 0.0
H365 H 0.67886 0.06664 0.84469 0.0
C366 C 0.69071 0.01915 0.96663 0.0
C367 C 0.69265 0.99484 0.03553 0.0
C368 C 0.65861 0.02338 0.92822 0.0
C369 C 0.663 0.97224 0.05854 0.0
C370 C 0.63107 0.97564 0.01861 0.0
C371 C 0.59567 0.00843 0.92415 0.0
C372 C 0.59319 0.03517 0.86274 0.0
C373 C 0.6283 0.00208 0.9563 0.0
C374 C 0.62356 0.0559 0.83464 0.0
C375 C 0.65596 0.05004 0.8669 0.0
H376 H 0.5459 0.63714 0.15157 0.0
H377 H 0.5927 0.67888 0.89305 0.0
H378 H 0.56166 0.63164 0.80048 0.0
H379 H 0.52275 0.57778 0.79467 0.0
H380 H 0.47833 0.53427 0.05108 0.0
H381 H 0.50759 0.5827 0.14451 0.0
C382 C 0.54979 0.63567 0.07505 0.0
C383 C 0.57183 0.66142 0.0293 0.0
C384 C 0.53227 0.60826 0.0225 0.0
C385 C 0.57576 0.65954 0.92992 0.0
C386 C 0.55812 0.6325 0.87702 0.0
C387 C 0.51888 0.57939 0.87023 0.0
C388 C 0.49797 0.55306 0.91534 0.0
C389 C 0.53633 0.6068 0.92268 0.0
C390 C 0.49418 0.55451 0.01464 0.0
C391 C 0.51094 0.58209 0.06791 0.0
H392 H 0.83515 0.49002 0.0669 0.0
H393 H 0.79842 0.41149 0.85883 0.0
H394 H 0.85403 0.42116 0.7667 0.0
H395 H 0.91531 0.44898 0.7547 0.0
H396 H 0.95069 0.52494 0.97175 0.0
H397 H 0.89354 0.51884 0.05225 0.0
C398 C 0.83935 0.47485 0.00153 0.0
C399 C 0.81326 0.44953 0.97063 0.0
C400 C 0.87126 0.4799 0.95134 0.0
C401 C 0.81843 0.43091 0.88425 0.0
C402 C 0.85021 0.43633 0.83211 0.0
C403 C 0.91016 0.46435 0.81898 0.0
C404 C 0.93704 0.48716 0.85784 0.0
C405 C 0.87715 0.46026 0.86623 0.0
C406 C 0.93045 0.50685 0.94143 0.0
C407 C 0.89778 0.50352 0.98729 0.0
H408 H 0.13495 0.20264 0.1736 0.0
H409 H 0.04622 0.25116 0.08915 0.0
H410 H 0.04192 0.21279 0.94711 0.0
H411 H 0.05335 0.15622 0.87338 0.0
H412 H 0.13656 0.103 0.9733 0.0
H413 H 0.15311 0.15199 0.08259 0.0
C414 C 0.11549 0.20553 0.12209 0.0
C415 C 0.0904 0.22895 0.14271 0.0
C416 C 0.11149 0.18164 0.045 0.0
C417 C 0.0657 0.23315 0.07509 0.0
C418 C 0.06285 0.21077 -0.00532 0.0
C419 C 0.07567 0.15583 0.91736 0.0
C420 C 0.09327 0.12593 0.91742 0.0
C421 C 0.08398 0.1834 0.98292 0.0
C422 C 0.12233 0.12564 0.97364 0.0
C423 C 0.13177 0.15361 0.03605 0.0
H424 H 0.32819 0.93443 0.04538 0.0
H425 H 0.31541 0.04294 0.07971 0.0
H426 H 0.36138 0.05565 0.95726 0.0
H427 H 0.41368 0.03672 0.86734 0.0
H428 H 0.42955 0.92835 0.85171 0.0
H429 H 0.37452 0.9147 0.93959 0.0
C430 C 0.33435 0.96064 0.02239 0.0
C431 C 0.31844 0.98768 0.07094 0.0
C432 C 0.36256 0.96788 0.95789 0.0
C433 C 0.32695 0.02165 0.04222 0.0
C434 C 0.35384 0.02896 0.97376 0.0
C435 C 0.40467 0.01012 0.8819 0.0
C436 C 0.42601 0.98366 0.85506 0.0
C437 C 0.37325 0.00249 0.93544 0.0
C438 C 0.41401 0.94926 0.87379 0.0
C439 C 0.38241 0.94138 0.92349 0.0
H440 H 0.37153 0.2946 0.05435 0.0
H441 H 0.47249 0.25641 0.0171 0.0
H442 H 0.48628 0.29249 0.88117 0.0
H443 H 0.47581 0.346 0.80529 0.0
H444 H 0.37723 0.38845 0.85686 0.0
H445 H 0.35619 0.33992 0.95415 0.0
C446 C 0.39582 0.29298 0.01325 0.0
C447 C 0.42122 0.2735 0.04642 0.0
C448 C 0.4045 0.31572 0.94004 0.0
C449 C 0.45256 0.27128 -0.00708 0.0
C450 C 0.46072 0.2925 0.91638 0.0
C451 C 0.44939 0.34404 0.83573 0.0
C452 C 0.42837 0.37109 0.82627 0.0
C453 C 0.43794 0.31667 0.8943 0.0
C454 C 0.39406 0.36818 0.86475 0.0
C455 C 0.38204 0.34045 0.92043 0.0
H456 H 0.22376 0.56681 0.04171 0.0
H457 H 0.21327 0.45704 0.07747 0.0
H458 H 0.17176 0.44846 0.94998 0.0
H459 H 0.12893 0.47391 0.85639 0.0
H460 H 0.13639 0.58451 0.83223 0.0
H461 H 0.18843 0.59127 0.92675 0.0
C462 C 0.21375 0.54089 0.01776 0.0
C463 C 0.22157 0.51256 0.06812 0.0
C464 C 0.18825 0.53655 0.9491 0.0
C465 C 0.20802 0.47911 0.03848 0.0
C466 C 0.18368 0.47434 0.96706 0.0
C467 C 0.14243 0.49939 0.87028 0.0
C468 C 0.12849 0.52877 0.8394 0.0
C469 C 0.172 0.5031 0.92633 0.0
C470 C 0.14636 0.56159 0.85668 0.0
C471 C 0.17614 0.56545 0.91057 0.0
H472 H 0.88907 0.81268 0.35651 0.0
H473 H 0.9829 0.76149 0.3605 0.0
H474 H 1.0017 0.79739 0.49927 0.0
H475 H 0.99952 0.85412 0.58427 0.0
H476 H 0.90965 0.91025 0.55975 0.0
H477 H 0.88121 0.86224 0.4649 0.0
C478 C 0.91282 0.80842 0.39085 0.0
C479 C 0.93509 0.78542 0.34738 0.0
C480 C 0.92483 0.8312 0.4647 0.0
C481 C 0.96552 0.77939 0.39246 0.0
C482 C 0.97661 0.80043 0.47065 0.0
C483 C 0.97332 0.85526 0.56025 0.0
C484 C 0.95696 0.88577 0.57611 0.0
C485 C 0.95786 0.82823 0.50192 0.0
C486 C 0.92294 0.88715 0.54603 0.0
C487 C 0.90666 0.85972 0.49208 0.0
H488 H 0.73089 0.98178 0.40658 0.0
H489 H 0.72035 0.08355 0.31298 0.0
H490 H 0.67224 0.09008 0.4292 0.0
H491 H 0.62541 0.06129 0.53187 0.0
H492 H 0.636 0.95841 0.62081 0.0
H493 H 0.6914 0.95775 0.53231 0.0
C494 C 0.71936 0.00612 0.41578 0.0
C495 C 0.72906 0.03216 0.35198 0.0
C496 C 0.69055 0.00883 0.47902 0.0
C497 C 0.71358 0.06339 0.36271 0.0
C498 C 0.68546 0.06674 0.42747 0.0
C499 C 0.64006 0.03893 0.53246 0.0
C500 C 0.62606 0.00963 0.58069 0.0
C501 C 0.67231 0.03871 0.48156 0.0
C502 C 0.64582 0.98118 0.58309 0.0
C503 C 0.67767 0.98075 0.5327 0.0
H504 H 0.57222 0.72603 0.38428 0.0
H505 H 0.6653 0.67769 0.30258 0.0
H506 H 0.65459 0.63879 0.43356 0.0
H507 H 0.61018 0.60876 0.5388 0.0
H508 H 0.51397 0.65378 0.6079 0.0
H509 H 0.53429 0.70382 0.51567 0.0
C510 C 0.59113 0.70828 0.39879 0.0
C511 C 0.61925 0.70431 0.33407 0.0
C512 C 0.58335 0.68446 0.46975 0.0
C513 C 0.64353 0.6811 0.35219 0.0
C514 C 0.63699 0.65842 0.42586 0.0
C515 C 0.59417 0.63004 0.53573 0.0
C516 C 0.5603 0.6273 0.57725 0.0
C517 C 0.6056 0.65818 0.4801 0.0
C518 C 0.53988 0.65511 0.57446 0.0
C519 C 0.55149 0.68371 0.52178 0.0
H520 H 0.77121 0.5035 0.28521 0.0
H521 H 0.77029 0.39435 0.32245 0.0
H522 H 0.81048 0.40592 0.45252 0.0
H523 H 0.85506 0.44654 0.53062 0.0
H524 H 0.85988 0.55532 0.47968 0.0
H525 H 0.80916 0.54475 0.38073 0.0
C526 C 0.77843 0.48243 0.3254 0.0
C527 C 0.76744 0.44819 0.29578 0.0
C528 C 0.80331 0.48928 0.39543 0.0
C529 C 0.77783 0.42091 0.34575 0.0
C530 C 0.80137 0.42756 0.41875 0.0
C531 C 0.84446 0.46797 0.4995 0.0
C532 C 0.86146 0.50159 0.5111 0.0
C533 C 0.81579 0.46152 0.4404 0.0
C534 C 0.84746 0.52917 0.47082 0.0
C535 C 0.81845 0.52313 0.41422 0.0
loop_
_geom_bond_atom_site_label_1
_geom_bond_atom_site_label_2
_geom_bond_distance
_geom_bond_site_symmetry_2
_ccdc_geom_bond_type
H0 C3 0.931 . S
H1 C6 0.928 . S
H2 C8 0.930 . S
C3 H0 0.931 . S
C3 C4 1.413 . S
C3 C5 1.360 1_554 S
C4 C3 1.413 . S
C4 C8 1.429 . S
C5 C3 1.360 1_556 S
C5 C6 1.372 . S
C6 H1 0.928 . S
C6 C5 1.372 . S
C6 C7 1.404 1_556 S
C7 C6 1.404 1_554 S
C7 C8 1.391 . S
C8 H2 0.930 . S
C8 C4 1.429 . S
C8 C7 1.391 . S
H9 C12 0.931 . S
H10 C15 0.928 . S
H11 C17 0.930 . S
C12 H9 0.931 . S
C12 C13 1.413 . S
C12 C14 1.360 1_554 S
C13 C12 1.413 . S
C13 C17 1.429 . S
C14 C12 1.360 1_556 S
C14 C15 1.372 . S
C15 H10 0.928 . S
C15 C14 1.372 . S
C15 C16 1.404 . S
C16 C15 1.404 . S
C16 C17 1.391 1_556 S
C17 H11 0.930 . S
C17 C13 1.429 . S
C17 C16 1.391 1_554 S
H18 C21 0.931 . S
H19 C24 0.928 1_556 S
H20 C26 0.933 . S
C21 H18 0.931 . S
C21 C22 1.414 . S
C21 C23 1.360 . S
C22 C21 1.414 . S
C22 C26 1.430 1_565 S
C23 C21 1.360 . S
C23 C24 1.374 . S
C24 H19 0.928 1_554 S
C24 C23 1.374 . S
C24 C25 1.403 . S
C25 C24 1.403 . S
C25 C26 1.391 1_565 S
C26 H20 0.933 . S
C26 C22 1.430 1_545 S
C26 C25 1.391 1_545 S
H27 C30 0.931 . S
H28 C33 0.928 . S
H29 C35 0.930 . S
C30 H27 0.931 . S
C30 C31 1.413 . S
C30 C32 1.360 . S
C31 C30 1.413 . S
C31 C35 1.429 1_554 S
C32 C30 1.360 . S
C32 C33 1.372 . S
C33 H28 0.928 . S
C33 C32 1.372 . S
C33 C34 1.404 . S
C34 C33 1.404 . S
C34 C35 1.391 1_554 S
C35 H29 0.930 . S
C35 C31 1.429 1_556 S
C35 C34 1.391 1_556 S
H36 C39 0.931 . S
H37 C42 0.928 . S
H38 C44 0.930 . S
C39 H36 0.931 . S
C39 C40 1.413 . S
C39 C41 1.360 . S
C40 C39 1.413 . S
C40 C44 1.429 . S
C41 C39 1.360 . S
C41 C42 1.372 . S
C42 H37 0.928 . S
C42 C41 1.372 . S
C42 C43 1.404 . S
C43 C42 1.404 . S
C43 C44 1.391 . S
C44 H38 0.930 . S
C44 C40 1.429 . S
C44 C43 1.391 . S
H45 C48 0.931 . S
H46 C51 0.928 . S
H47 C53 0.930 . S
C48 H45 0.931 . S
C48 C49 1.413 . S
C48 C50 1.360 . S
C49 C48 1.413 . S
C49 C53 1.429 . S
C50 C48 1.360 . S
C50 C51 1.372 . S
C51 H46 0.928 . S
C51 C50 1.372 . S
C51 C52 1.404 . S
C52 C51 1.404 . S
C52 C53 1.391 . S
C53 H47 0.930 . S
C53 C49 1.429 . S
C53 C52 1.391 . S
H54 C57 0.931 . S
H55 C60 0.928 . S
H56 C62 0.930 . S
C57 H54 0.931 . S
C57 C58 1.413 . S
C57 C59 1.360 . S
C58 C57 1.413 . S
C58 C62 1.429 . S
C59 C57 1.360 . S
C59 C60 1.372 . S
C60 H55 0.928 . S
C60 C59 1.372 . S
C60 C61 1.404 . S
C61 C60 1.404 . S
C61 C62 1.391 . S
C62 H56 0.930 . S
C62 C58 1.429 . S
C62 C61 1.391 . S
H63 C66 0.931 . S
H64 C69 0.928 . S
H65 C71 0.930 . S
C66 H63 0.931 . S
C66 C67 1.413 . S
C66 C68 1.360 . S
C67 C66 1.413 . S
C67 C71 1.429 . S
C68 C66 1.360 . S
C68 C69 1.372 . S
C69 H64 0.928 . S
C69 C68 1.372 . S
C69 C70 1.404 . S
C70 C69 1.404 . S
C70 C71 1.391 . S
C71 H65 0.930 . S
C71 C67 1.429 . S
C71 C70 1.391 . S
Tb72 O75 2.453 1_665 S
Tb72 O76 2.596 1_665 S
Tb72 O77 2.374 1_655 S
Tb72 O85 2.343 . S
Tb72 O87 2.353 1_565 S
Tb72 O89 2.427 . S
Tb72 O90 2.513 . S
C73 O77 1.251 . S
C73 O79 1.263 . S
Tb74 O76 2.343 . S
Tb74 O79 2.353 1_545 S
Tb74 O82 2.427 . S
Tb74 O83 2.513 . S
Tb74 O84 2.453 1_545 S
Tb74 O85 2.596 1_445 S
Tb74 O86 2.374 1_455 S
O75 Tb72 2.453 1_445 S
O75 C91 1.245 . S
O76 Tb72 2.596 1_445 S
O76 Tb74 2.343 . S
O76 C91 1.259 . S
O77 Tb72 2.374 1_455 S
O77 C73 1.251 . S
C78 O82 1.275 . S
C78 O83 1.246 . S
O79 C73 1.263 . S
O79 Tb74 2.353 1_565 S
C80 O84 1.245 1_655 S
C80 O85 1.259 . S
C81 O86 1.250 . S
C81 O87 1.263 . S
O82 Tb74 2.427 . S
O82 C78 1.275 . S
O83 Tb74 2.513 . S
O83 C78 1.246 . S
O84 Tb74 2.453 1_565 S
O84 C80 1.245 1_455 S
O85 Tb72 2.343 . S
O85 Tb74 2.596 1_665 S
O85 C80 1.259 . S
O86 Tb74 2.374 1_655 S
O86 C81 1.250 . S
O87 Tb72 2.353 1_545 S
O87 C81 1.263 . S
C88 O89 1.275 . S
C88 O90 1.246 . S
O89 Tb72 2.427 . S
O89 C88 1.275 . S
O90 Tb72 2.513 . S
O90 C88 1.246 . S
C91 O75 1.245 . S
C91 O76 1.259 . S
Tb92 O95 2.453 . S
Tb92 O96 2.596 1_545 S
Tb92 O97 2.374 . S
Tb92 O105 2.343 . S
Tb92 O107 2.353 . S
Tb92 O109 2.427 . S
Tb92 O110 2.513 . S
C93 O97 1.251 . S
C93 O99 1.263 1_545 S
Tb94 O96 2.343 . S
Tb94 O99 2.353 . S
Tb94 O102 2.427 . S
Tb94 O103 2.513 . S
Tb94 O104 2.453 . S
Tb94 O105 2.596 1_565 S
Tb94 O106 2.374 . S
O95 Tb92 2.453 . S
O95 C111 1.245 . S
O96 Tb92 2.596 1_565 S
O96 Tb94 2.343 . S
O96 C111 1.259 1_565 S
O97 Tb92 2.374 . S
O97 C93 1.251 . S
C98 O102 1.275 . S
C98 O103 1.246 . S
O99 C93 1.263 1_565 S
O99 Tb94 2.353 . S
C100 O104 1.245 . S
C100 O105 1.259 1_565 S
C101 O106 1.250 1_545 S
C101 O107 1.263 . S
O102 Tb94 2.427 . S
O102 C98 1.275 . S
O103 Tb94 2.513 . S
O103 C98 1.246 . S
O104 Tb94 2.453 . S
O104 C100 1.245 . S
O105 Tb92 2.343 . S
O105 Tb94 2.596 1_545 S
O105 C100 1.259 1_545 S
O106 Tb94 2.374 . S
O106 C101 1.250 1_565 S
O107 Tb92 2.353 . S
O107 C101 1.263 . S
C108 O109 1.275 . S
C108 O110 1.246 . S
O109 Tb92 2.427 . S
O109 C108 1.275 . S
O110 Tb92 2.513 . S
O110 C108 1.246 . S
C111 O95 1.245 . S
C111 O96 1.259 1_545 S
Tb112 O115 2.453 . S
Tb112 O116 2.596 . S
Tb112 O117 2.374 . S
Tb112 O125 2.343 . S
Tb112 O127 2.353 . S
Tb112 O129 2.427 . S
Tb112 O130 2.513 . S
C113 O117 1.251 . S
C113 O119 1.263 . S
Tb114 O116 2.343 . S
Tb114 O119 2.353 . S
Tb114 O122 2.427 . S
Tb114 O123 2.513 . S
Tb114 O124 2.453 . S
Tb114 O125 2.596 . S
Tb114 O126 2.374 . S
O115 Tb112 2.453 . S
O115 C131 1.245 . S
O116 Tb112 2.596 . S
O116 Tb114 2.343 . S
O116 C131 1.259 . S
O117 Tb112 2.374 . S
O117 C113 1.251 . S
C118 O122 1.275 . S
C118 O123 1.246 . S
O119 C113 1.263 . S
O119 Tb114 2.353 . S
C120 O124 1.245 . S
C120 O125 1.259 . S
C121 O126 1.250 . S
C121 O127 1.263 . S
O122 Tb114 2.427 . S
O122 C118 1.275 . S
O123 Tb114 2.513 . S
O123 C118 1.246 . S
O124 Tb114 2.453 . S
O124 C120 1.245 . S
O125 Tb112 2.343 . S
O125 Tb114 2.596 . S
O125 C120 1.259 . S
O126 Tb114 2.374 . S
O126 C121 1.250 . S
O127 Tb112 2.353 . S
O127 C121 1.263 . S
C128 O129 1.275 . S
C128 O130 1.246 . S
O129 Tb112 2.427 . S
O129 C128 1.275 . S
O130 Tb112 2.513 . S
O130 C128 1.246 . S
C131 O115 1.245 . S
C131 O116 1.259 . S
Tb132 O135 2.453 1_655 S
Tb132 O136 2.596 1_655 S
Tb132 O137 2.374 1_655 S
Tb132 O145 2.343 . S
Tb132 O147 2.353 . S
Tb132 O149 2.427 . S
Tb132 O150 2.513 . S
C133 O137 1.251 . S
C133 O139 1.263 . S
Tb134 O136 2.343 . S
Tb134 O139 2.353 . S
Tb134 O142 2.427 . S
Tb134 O143 2.513 . S
Tb134 O144 2.453 1_455 S
Tb134 O145 2.596 1_455 S
Tb134 O146 2.374 1_455 S
O135 Tb132 2.453 1_455 S
O135 C151 1.245 . S
O136 Tb132 2.596 1_455 S
O136 Tb134 2.343 . S
O136 C151 1.259 . S
O137 Tb132 2.374 1_455 S
O137 C133 1.251 . S
C138 O142 1.275 . S
C138 O143 1.246 . S
O139 C133 1.263 . S
O139 Tb134 2.353 . S
C140 O144 1.245 . S
C140 O145 1.259 . S
C141 O146 1.250 . S
C141 O147 1.263 . S
O142 Tb134 2.427 . S
O142 C138 1.275 . S
O143 Tb134 2.513 . S
O143 C138 1.246 . S
O144 Tb134 2.453 1_655 S
O144 C140 1.245 . S
O145 Tb132 2.343 . S
O145 Tb134 2.596 1_655 S
O145 C140 1.259 . S
O146 Tb134 2.374 1_655 S
O146 C141 1.250 . S
O147 Tb132 2.353 . S
O147 C141 1.263 . S
C148 O149 1.275 . S
C148 O150 1.246 . S
O149 Tb132 2.427 . S
O149 C148 1.275 . S
O150 Tb132 2.513 . S
O150 C148 1.246 . S
C151 O135 1.245 . S
C151 O136 1.259 . S
H152 C158 0.930 . S
H153 C161 0.930 . S
H154 C162 0.930 . S
H155 C163 0.930 . S
H156 C166 0.930 . S
H157 C167 0.930 . S
C158 H152 0.930 . S
C158 C159 1.355 . S
C158 C160 1.415 . S
C159 C158 1.355 . S
C159 C161 1.419 1_545 S
C160 C158 1.415 . S
C160 C165 1.420 1_545 S
C160 C167 1.409 . S
C161 H153 0.930 . S
C161 C159 1.419 1_565 S
C161 C162 1.362 . S
C162 H154 0.930 . S
C162 C161 1.362 . S
C162 C165 1.414 . S
C163 H155 0.930 . S
C163 C164 1.355 1_565 S
C163 C165 1.415 . S
C164 C163 1.355 1_545 S
C164 C166 1.419 . S
C165 C160 1.420 1_565 S
C165 C162 1.414 . S
C165 C163 1.415 . S
C166 H156 0.930 . S
C166 C164 1.419 . S
C166 C167 1.362 . S
C167 H157 0.930 . S
C167 C160 1.409 . S
C167 C166 1.362 . S
H168 C174 0.930 . S
H169 C177 0.930 . S
H170 C178 0.930 . S
H171 C179 0.930 . S
H172 C182 0.930 . S
H173 C183 0.930 . S
C174 H168 0.930 . S
C174 C175 1.355 . S
C174 C176 1.415 . S
C175 C174 1.355 . S
C175 C177 1.419 . S
C176 C174 1.415 . S
C176 C181 1.425 . S
C176 C183 1.409 . S
C177 H169 0.930 . S
C177 C175 1.419 . S
C177 C178 1.362 . S
C178 H170 0.930 . S
C178 C177 1.362 . S
C178 C181 1.409 . S
C179 H171 0.930 . S
C179 C180 1.355 . S
C179 C181 1.415 . S
C180 C179 1.355 . S
C180 C182 1.419 . S
C181 C176 1.425 . S
C181 C178 1.409 . S
C181 C179 1.415 . S
C182 H172 0.930 . S
C182 C180 1.419 . S
C182 C183 1.362 . S
C183 H173 0.930 . S
C183 C176 1.409 . S
C183 C182 1.362 . S
H184 C190 0.930 . S
H185 C193 0.930 . S
H186 C194 0.930 . S
H187 C195 0.930 . S
H188 C198 0.930 . S
H189 C199 0.930 . S
C190 H184 0.930 . S
C190 C191 1.355 . S
C190 C192 1.415 . S
C191 C190 1.355 . S
C191 C193 1.419 . S
C192 C190 1.415 . S
C192 C197 1.425 . S
C192 C199 1.409 . S
C193 H185 0.930 . S
C193 C191 1.419 . S
C193 C194 1.362 . S
C194 H186 0.930 . S
C194 C193 1.362 . S
C194 C197 1.409 . S
C195 H187 0.930 . S
C195 C196 1.355 . S
C195 C197 1.415 . S
C196 C195 1.355 . S
C196 C198 1.419 . S
C197 C192 1.425 . S
C197 C194 1.409 . S
C197 C195 1.415 . S
C198 H188 0.930 . S
C198 C196 1.419 . S
C198 C199 1.362 . S
C199 H189 0.930 . S
C199 C192 1.409 . S
C199 C198 1.362 . S
H200 C206 0.930 . S
H201 C209 0.930 . S
H202 C210 0.930 . S
H203 C211 0.930 . S
H204 C214 0.930 . S
H205 C215 0.930 . S
C206 H200 0.930 . S
C206 C207 1.355 . S
C206 C208 1.415 . S
C207 C206 1.355 . S
C207 C209 1.419 . S
C208 C206 1.415 . S
C208 C213 1.425 . S
C208 C215 1.409 . S
C209 H201 0.930 . S
C209 C207 1.419 . S
C209 C210 1.362 . S
C210 H202 0.930 . S
C210 C209 1.362 . S
C210 C213 1.409 . S
C211 H203 0.930 . S
C211 C212 1.355 . S
C211 C213 1.415 . S
C212 C211 1.355 . S
C212 C214 1.419 . S
C213 C208 1.425 . S
C213 C210 1.409 . S
C213 C211 1.415 . S
C214 H204 0.930 . S
C214 C212 1.419 . S
C214 C215 1.362 . S
C215 H205 0.930 . S
C215 C208 1.409 . S
C215 C214 1.362 . S
H216 C222 0.930 . S
H217 C225 0.930 . S
H218 C226 0.930 . S
H219 C227 0.930 . S
H220 C230 0.930 . S
H221 C231 0.930 . S
C222 H216 0.930 . S
C222 C223 1.352 1_546 S
C222 C224 1.415 . S
C223 C222 1.352 1_564 S
C223 C225 1.422 . S
C224 C222 1.415 . S
C224 C229 1.425 . S
C224 C231 1.409 . S
C225 H217 0.930 . S
C225 C223 1.422 . S
C225 C226 1.362 . S
C226 H218 0.930 . S
C226 C225 1.362 . S
C226 C229 1.409 1_564 S
C227 H219 0.930 . S
C227 C228 1.355 . S
C227 C229 1.415 . S
C228 C227 1.355 . S
C228 C230 1.419 . S
C229 C224 1.425 . S
C229 C226 1.409 1_546 S
C229 C227 1.415 . S
C230 H220 0.930 . S
C230 C228 1.419 . S
C230 C231 1.362 . S
C231 H221 0.930 . S
C231 C224 1.409 . S
C231 C230 1.362 . S
H232 C238 0.930 . S
H233 C241 0.930 . S
H234 C242 0.930 . S
H235 C243 0.930 . S
H236 C246 0.930 . S
H237 C247 0.930 . S
C238 H232 0.930 . S
C238 C239 1.355 . S
C238 C240 1.415 1_554 S
C239 C238 1.355 . S
C239 C241 1.419 1_554 S
C240 C238 1.415 1_556 S
C240 C245 1.425 . S
C240 C247 1.409 1_556 S
C241 H233 0.930 . S
C241 C239 1.419 1_556 S
C241 C242 1.362 . S
C242 H234 0.930 . S
C242 C241 1.362 . S
C242 C245 1.409 . S
C243 H235 0.930 . S
C243 C244 1.355 . S
C243 C245 1.415 . S
C244 C243 1.355 . S
C244 C246 1.419 . S
C245 C240 1.425 . S
C245 C242 1.409 . S
C245 C243 1.415 . S
C246 H236 0.930 . S
C246 C244 1.419 . S
C246 C247 1.362 1_556 S
C247 H237 0.930 . S
C247 C240 1.409 1_554 S
C247 C246 1.362 1_554 S
H248 C254 0.930 . S
H249 C257 0.930 . S
H250 C258 0.930 . S
H251 C259 0.930 . S
H252 C262 0.930 . S
H253 C263 0.930 1_554 S
C254 H248 0.930 . S
C254 C255 1.355 1_554 S
C254 C256 1.415 1_554 S
C255 C254 1.355 1_556 S
C255 C257 1.419 . S
C256 C254 1.415 1_556 S
C256 C261 1.425 . S
C256 C263 1.409 . S
C257 H249 0.930 . S
C257 C255 1.419 . S
C257 C258 1.362 . S
C258 H250 0.930 . S
C258 C257 1.362 . S
C258 C261 1.409 . S
C259 H251 0.930 . S
C259 C260 1.355 . S
C259 C261 1.415 . S
C260 C259 1.355 . S
C260 C262 1.419 . S
C261 C256 1.425 . S
C261 C258 1.409 . S
C261 C259 1.415 . S
C262 H252 0.930 . S
C262 C260 1.419 . S
C262 C263 1.362 . S
C263 H253 0.930 1_556 S
C263 C256 1.409 . S
C263 C262 1.362 . S
H264 C270 0.930 . S
H265 C273 0.930 1_554 S
H266 C274 0.930 . S
H267 C275 0.930 . S
H268 C278 0.930 . S
H269 C279 0.930 . S
C270 H264 0.930 . S
C270 C271 1.355 . S
C270 C272 1.415 . S
C271 C270 1.355 . S
C271 C273 1.419 . S
C272 C270 1.415 . S
C272 C277 1.425 . S
C272 C279 1.409 . S
C273 H265 0.930 1_556 S
C273 C271 1.419 . S
C273 C274 1.362 . S
C274 H266 0.930 . S
C274 C273 1.362 . S
C274 C277 1.409 . S
C275 H267 0.930 . S
C275 C276 1.355 . S
C275 C277 1.415 . S
C276 C275 1.355 . S
C276 C278 1.419 . S
C277 C272 1.425 . S
C277 C274 1.409 . S
C277 C275 1.415 . S
C278 H268 0.930 . S
C278 C276 1.419 . S
C278 C279 1.362 . S
C279 H269 0.930 . S
C279 C272 1.409 . S
C279 C278 1.362 . S
H280 C286 0.930 . S
H281 C289 0.930 . S
H282 C290 0.930 . S
H283 C291 0.930 . S
H284 C294 0.930 . S
H285 C295 0.930 . S
C286 H280 0.930 . S
C286 C287 1.355 . S
C286 C288 1.415 . S
C287 C286 1.355 . S
C287 C289 1.419 . S
C288 C286 1.415 . S
C288 C293 1.425 . S
C288 C295 1.409 . S
C289 H281 0.930 . S
C289 C287 1.419 . S
C289 C290 1.362 . S
C290 H282 0.930 . S
C290 C289 1.362 . S
C290 C293 1.409 . S
C291 H283 0.930 . S
C291 C292 1.355 . S
C291 C293 1.415 . S
C292 C291 1.355 . S
C292 C294 1.419 . S
C293 C288 1.425 . S
C293 C290 1.409 . S
C293 C291 1.415 . S
C294 H284 0.930 . S
C294 C292 1.419 . S
C294 C295 1.362 . S
C295 H285 0.930 . S
C295 C288 1.409 . S
C295 C294 1.362 . S
H296 C302 0.930 . S
H297 C305 0.930 . S
H298 C306 0.930 . S
H299 C307 0.930 . S
H300 C310 0.930 . S
H301 C311 0.930 . S
C302 H296 0.930 . S
C302 C303 1.355 . S
C302 C304 1.415 . S
C303 C302 1.355 . S
C303 C305 1.419 1_545 S
C304 C302 1.415 . S
C304 C309 1.425 1_545 S
C304 C311 1.409 . S
C305 H297 0.930 . S
C305 C303 1.419 1_565 S
C305 C306 1.362 . S
C306 H298 0.930 . S
C306 C305 1.362 . S
C306 C309 1.409 . S
C307 H299 0.930 . S
C307 C308 1.355 1_565 S
C307 C309 1.415 . S
C308 C307 1.355 1_545 S
C308 C310 1.419 . S
C309 C304 1.425 1_565 S
C309 C306 1.409 . S
C309 C307 1.415 . S
C310 H300 0.930 . S
C310 C308 1.419 . S
C310 C311 1.362 . S
C311 H301 0.930 . S
C311 C304 1.409 . S
C311 C310 1.362 . S
H312 C318 0.930 . S
H313 C321 0.930 . S
H314 C322 0.930 . S
H315 C323 0.930 . S
H316 C326 0.930 . S
H317 C327 0.930 . S
C318 H312 0.930 . S
C318 C319 1.355 . S
C318 C320 1.415 . S
C319 C318 1.355 . S
C319 C321 1.419 . S
C320 C318 1.415 . S
C320 C325 1.425 . S
C320 C327 1.409 . S
C321 H313 0.930 . S
C321 C319 1.419 . S
C321 C322 1.362 . S
C322 H314 0.930 . S
C322 C321 1.362 . S
C322 C325 1.409 . S
C323 H315 0.930 . S
C323 C324 1.355 . S
C323 C325 1.415 . S
C324 C323 1.355 . S
C324 C326 1.419 . S
C325 C320 1.425 . S
C325 C322 1.409 . S
C325 C323 1.415 . S
C326 H316 0.930 . S
C326 C324 1.419 . S
C326 C327 1.362 . S
C327 H317 0.930 . S
C327 C320 1.409 . S
C327 C326 1.362 . S
H328 C334 0.930 . S
H329 C337 0.930 . S
H330 C338 0.930 . S
H331 C339 0.930 . S
H332 C342 0.930 . S
H333 C343 0.930 . S
C334 H328 0.930 . S
C334 C335 1.355 . S
C334 C336 1.415 . S
C335 C334 1.355 . S
C335 C337 1.419 . S
C336 C334 1.415 . S
C336 C341 1.425 . S
C336 C343 1.409 . S
C337 H329 0.930 . S
C337 C335 1.419 . S
C337 C338 1.362 . S
C338 H330 0.930 . S
C338 C337 1.362 . S
C338 C341 1.409 . S
C339 H331 0.930 . S
C339 C340 1.355 . S
C339 C341 1.415 . S
C340 C339 1.355 . S
C340 C342 1.419 . S
C341 C336 1.425 . S
C341 C338 1.409 . S
C341 C339 1.415 . S
C342 H332 0.930 . S
C342 C340 1.419 . S
C342 C343 1.362 . S
C343 H333 0.930 . S
C343 C336 1.409 . S
C343 C342 1.362 . S
H344 C350 0.930 . S
H345 C353 0.930 . S
H346 C354 0.930 . S
H347 C355 0.930 . S
H348 C358 0.930 1_455 S
H349 C359 0.930 . S
C350 H344 0.930 . S
C350 C351 1.355 . S
C350 C352 1.415 . S
C351 C350 1.355 . S
C351 C353 1.419 . S
C352 C350 1.415 . S
C352 C357 1.425 . S
C352 C359 1.409 . S
C353 H345 0.930 . S
C353 C351 1.419 . S
C353 C354 1.362 . S
C354 H346 0.930 . S
C354 C353 1.362 . S
C354 C357 1.409 . S
C355 H347 0.930 . S
C355 C356 1.355 . S
C355 C357 1.415 . S
C356 C355 1.355 . S
C356 C358 1.419 . S
C357 C352 1.425 . S
C357 C354 1.409 . S
C357 C355 1.415 . S
C358 H348 0.930 1_655 S
C358 C356 1.419 . S
C358 C359 1.362 . S
C359 H349 0.930 . S
C359 C352 1.409 . S
C359 C358 1.362 . S
H360 C366 0.930 . S
H361 C369 0.930 . S
H362 C370 0.930 . S
H363 C371 0.930 . S
H364 C374 0.930 . S
H365 C375 0.930 . S
C366 H360 0.930 . S
C366 C367 1.355 1_566 S
C366 C368 1.415 1_565 S
C367 C366 1.355 1_544 S
C367 C369 1.419 . S
C368 C366 1.415 1_545 S
C368 C373 1.425 . S
C368 C375 1.409 1_545 S
C369 H361 0.930 . S
C369 C367 1.419 . S
C369 C370 1.362 . S
C370 H362 0.930 . S
C370 C369 1.362 . S
C370 C373 1.409 1_554 S
C371 H363 0.930 . S
C371 C372 1.355 . S
C371 C373 1.415 . S
C372 C371 1.355 . S
C372 C374 1.419 1_545 S
C373 C368 1.425 . S
C373 C370 1.409 1_556 S
C373 C371 1.415 . S
C374 H364 0.930 . S
C374 C372 1.419 1_565 S
C374 C375 1.362 . S
C375 H365 0.930 . S
C375 C368 1.409 1_565 S
C375 C374 1.362 . S
H376 C382 0.930 1_554 S
H377 C385 0.930 . S
H378 C386 0.930 . S
H379 C387 0.930 . S
H380 C390 0.930 . S
H381 C391 0.930 1_554 S
C382 H376 0.930 1_556 S
C382 C383 1.355 . S
C382 C384 1.415 . S
C383 C382 1.355 . S
C383 C385 1.419 . S
C384 C382 1.415 . S
C384 C389 1.425 . S
C384 C391 1.409 . S
C385 H377 0.930 . S
C385 C383 1.419 . S
C385 C386 1.362 . S
C386 H378 0.930 . S
C386 C385 1.362 . S
C386 C389 1.409 . S
C387 H379 0.930 . S
C387 C388 1.355 . S
C387 C389 1.415 . S
C388 C387 1.355 . S
C388 C390 1.419 . S
C389 C384 1.425 . S
C389 C386 1.409 . S
C389 C387 1.415 . S
C390 H380 0.930 . S
C390 C388 1.419 . S
C390 C391 1.362 . S
C391 H381 0.930 1_556 S
C391 C384 1.409 . S
C391 C390 1.362 . S
H392 C398 0.930 1_554 S
H393 C401 0.930 . S
H394 C402 0.930 . S
H395 C403 0.930 . S
H396 C406 0.930 . S
H397 C407 0.930 . S
C398 H392 0.930 1_556 S
C398 C399 1.355 . S
C398 C400 1.415 . S
C399 C398 1.355 . S
C399 C401 1.419 . S
C400 C398 1.415 . S
C400 C405 1.425 . S
C400 C407 1.409 . S
C401 H393 0.930 . S
C401 C399 1.419 . S
C401 C402 1.362 . S
C402 H394 0.930 . S
C402 C401 1.362 . S
C402 C405 1.409 . S
C403 H395 0.930 . S
C403 C404 1.355 . S
C403 C405 1.415 . S
C404 C403 1.355 . S
C404 C406 1.419 . S
C405 C400 1.425 . S
C405 C402 1.409 . S
C405 C403 1.415 . S
C406 H396 0.930 . S
C406 C404 1.419 . S
C406 C407 1.362 . S
C407 H397 0.930 . S
C407 C400 1.409 . S
C407 C406 1.362 . S
H408 C414 0.930 . S
H409 C417 0.930 . S
H410 C418 0.930 . S
H411 C419 0.930 . S
H412 C422 0.930 . S
H413 C423 0.930 . S
C414 H408 0.930 . S
C414 C415 1.355 . S
C414 C416 1.415 . S
C415 C414 1.355 . S
C415 C417 1.419 . S
C416 C414 1.415 . S
C416 C421 1.425 . S
C416 C423 1.409 1_554 S
C417 H409 0.930 . S
C417 C415 1.419 . S
C417 C418 1.362 . S
C418 H410 0.930 . S
C418 C417 1.362 . S
C418 C421 1.409 . S
C419 H411 0.930 . S
C419 C420 1.355 1_554 S
C419 C421 1.415 . S
C420 C419 1.355 1_556 S
C420 C422 1.419 . S
C421 C416 1.425 . S
C421 C418 1.409 . S
C421 C419 1.415 . S
C422 H412 0.930 . S
C422 C420 1.419 . S
C422 C423 1.362 . S
C423 H413 0.930 . S
C423 C416 1.409 1_556 S
C423 C422 1.362 . S
H424 C430 0.930 . S
H425 C433 0.930 . S
H426 C434 0.930 . S
H427 C435 0.930 . S
H428 C438 0.930 . S
H429 C439 0.930 . S
C430 H424 0.930 . S
C430 C431 1.355 1_565 S
C430 C432 1.416 . S
C431 C430 1.355 1_545 S
C431 C433 1.419 . S
C432 C430 1.416 . S
C432 C437 1.415 1_565 S
C432 C439 1.418 1_554 S
C433 H425 0.930 . S
C433 C431 1.419 . S
C433 C434 1.362 . S
C434 H426 0.930 . S
C434 C433 1.362 . S
C434 C437 1.409 . S
C435 H427 0.930 . S
C435 C436 1.355 1_554 S
C435 C437 1.415 . S
C436 C435 1.355 1_556 S
C436 C438 1.419 1_545 S
C437 C432 1.415 1_545 S
C437 C434 1.409 . S
C437 C435 1.415 . S
C438 H428 0.930 . S
C438 C436 1.419 1_565 S
C438 C439 1.362 . S
C439 H429 0.930 . S
C439 C432 1.418 1_556 S
C439 C438 1.362 . S
H440 C446 0.930 . S
H441 C449 0.930 . S
H442 C450 0.930 . S
H443 C451 0.930 . S
H444 C454 0.930 . S
H445 C455 0.930 . S
C446 H440 0.930 . S
C446 C447 1.355 . S
C446 C448 1.415 . S
C447 C446 1.355 . S
C447 C449 1.419 . S
C448 C446 1.415 . S
C448 C453 1.425 . S
C448 C455 1.409 . S
C449 H441 0.930 . S
C449 C447 1.419 . S
C449 C450 1.362 1_554 S
C450 H442 0.930 . S
C450 C449 1.362 1_556 S
C450 C453 1.409 1_556 S
C451 H443 0.930 . S
C451 C452 1.355 . S
C451 C453 1.415 1_556 S
C452 C451 1.355 . S
C452 C454 1.419 1_556 S
C453 C448 1.425 . S
C453 C450 1.409 1_554 S
C453 C451 1.415 1_554 S
C454 H444 0.930 . S
C454 C452 1.419 1_554 S
C454 C455 1.362 . S
C455 H445 0.930 . S
C455 C448 1.409 . S
C455 C454 1.362 . S
H456 C462 0.930 . S
H457 C465 0.930 . S
H458 C466 0.930 . S
H459 C467 0.930 . S
H460 C470 0.930 . S
H461 C471 0.930 . S
C462 H456 0.930 . S
C462 C463 1.355 . S
C462 C464 1.415 . S
C463 C462 1.355 . S
C463 C465 1.419 . S
C464 C462 1.415 . S
C464 C469 1.425 . S
C464 C471 1.409 1_554 S
C465 H457 0.930 . S
C465 C463 1.419 . S
C465 C466 1.362 . S
C466 H458 0.930 . S
C466 C465 1.362 . S
C466 C469 1.409 . S
C467 H459 0.930 . S
C467 C468 1.355 1_554 S
C467 C469 1.415 . S
C468 C467 1.355 1_556 S
C468 C470 1.419 . S
C469 C464 1.425 . S
C469 C466 1.409 . S
C469 C467 1.415 . S
C470 H460 0.930 . S
C470 C468 1.419 . S
C470 C471 1.362 . S
C471 H461 0.930 . S
C471 C464 1.409 1_556 S
C471 C470 1.362 . S
H472 C478 0.930 . S
H473 C481 0.930 . S
H474 C482 0.930 . S
H475 C483 0.930 . S
H476 C486 0.930 . S
H477 C487 0.930 . S
C478 H472 0.930 . S
C478 C479 1.355 . S
C478 C480 1.415 . S
C479 C478 1.355 . S
C479 C481 1.419 . S
C480 C478 1.415 . S
C480 C485 1.425 . S
C480 C487 1.409 . S
C481 H473 0.930 . S
C481 C479 1.419 . S
C481 C482 1.362 . S
C482 H474 0.930 . S
C482 C481 1.362 . S
C482 C485 1.409 . S
C483 H475 0.930 . S
C483 C484 1.355 . S
C483 C485 1.415 . S
C484 C483 1.355 . S
C484 C486 1.419 . S
C485 C480 1.425 . S
C485 C482 1.409 . S
C485 C483 1.415 . S
C486 H476 0.930 . S
C486 C484 1.419 . S
C486 C487 1.362 . S
C487 H477 0.930 . S
C487 C480 1.409 . S
C487 C486 1.362 . S
H488 C494 0.930 . S
H489 C497 0.930 . S
H490 C498 0.930 . S
H491 C499 0.930 . S
H492 C502 0.930 . S
H493 C503 0.930 . S
C494 H488 0.930 . S
C494 C495 1.353 1_565 S
C494 C496 1.415 . S
C495 C494 1.353 1_545 S
C495 C497 1.421 . S
C496 C494 1.415 . S
C496 C501 1.425 1_565 S
C496 C503 1.409 . S
C497 H489 0.930 . S
C497 C495 1.421 . S
C497 C498 1.362 . S
C498 H490 0.930 . S
C498 C497 1.362 . S
C498 C501 1.409 . S
C499 H491 0.930 . S
C499 C500 1.355 . S
C499 C501 1.415 . S
C500 C499 1.355 . S
C500 C502 1.419 1_545 S
C501 C496 1.425 1_545 S
C501 C498 1.409 . S
C501 C499 1.415 . S
C502 H492 0.930 . S
C502 C500 1.419 1_565 S
C502 C503 1.362 . S
C503 H493 0.930 . S
C503 C496 1.409 . S
C503 C502 1.362 . S
H504 C510 0.930 . S
H505 C513 0.930 . S
H506 C514 0.930 . S
H507 C515 0.930 . S
H508 C518 0.930 . S
H509 C519 0.930 . S
C510 H504 0.930 . S
C510 C511 1.355 . S
C510 C512 1.415 . S
C511 C510 1.355 . S
C511 C513 1.419 . S
C512 C510 1.415 . S
C512 C517 1.425 . S
C512 C519 1.409 . S
C513 H505 0.930 . S
C513 C511 1.419 . S
C513 C514 1.362 . S
C514 H506 0.930 . S
C514 C513 1.362 . S
C514 C517 1.409 . S
C515 H507 0.930 . S
C515 C516 1.355 . S
C515 C517 1.415 . S
C516 C515 1.355 . S
C516 C518 1.419 . S
C517 C512 1.425 . S
C517 C514 1.409 . S
C517 C515 1.415 . S
C518 H508 0.930 . S
C518 C516 1.419 . S
C518 C519 1.362 . S
C519 H509 0.930 . S
C519 C512 1.409 . S
C519 C518 1.362 . S
H520 C526 0.930 . S
H521 C529 0.930 . S
H522 C530 0.930 . S
H523 C531 0.930 . S
H524 C534 0.930 . S
H525 C535 0.930 . S
C526 H520 0.930 . S
C526 C527 1.355 . S
C526 C528 1.415 . S
C527 C526 1.355 . S
C527 C529 1.419 . S
C528 C526 1.415 . S
C528 C533 1.425 . S
C528 C535 1.409 . S
C529 H521 0.930 . S
C529 C527 1.419 . S
C529 C530 1.362 . S
C530 H522 0.930 . S
C530 C529 1.362 . S
C530 C533 1.409 . S
C531 H523 0.930 . S
C531 C532 1.355 . S
C531 C533 1.415 . S
C532 C531 1.355 . S
C532 C534 1.419 . S
C533 C528 1.425 . S
C533 C530 1.409 . S
C533 C531 1.415 . S
C534 H524 0.930 . S
C534 C532 1.419 . S
C534 C535 1.362 . S
C535 H525 0.930 . S
C535 C528 1.409 . S
C535 C534 1.362 . S
C159 C61 1.468 . S
C164 C73 1.483 1_545 S
C180 C108 1.711 . S
C175 C70 1.680 . S
C196 C113 1.338 . S
C191 C43 1.340 . S
C212 C133 1.615 . S
C207 C52 1.539 . S
C228 C81 1.476 . S
C223 C25 1.475 . S
C239 C34 1.601 . S
C244 C98 1.727 . S
C255 C7 1.289 1_556 S
C260 C121 1.310 . S
C271 C16 1.541 . S
C276 C141 1.626 . S
C292 C91 1.251 . S
C287 C50 1.141 . S
C308 C100 0.916 1_545 S
C303 C59 0.894 . S
C324 C131 1.289 . S
C319 C67 1.229 . S
C335 C41 0.970 . S
C340 C151 0.861 . S
C351 C14 1.249 . S
C356 C80 1.227 . S
C372 C111 0.915 . S
C367 C23 0.850 1_545 S
C388 C120 1.276 . S
C383 C31 1.301 1_556 S
C399 C5 0.981 . S
C404 C140 0.886 . S
C415 C49 1.562 . S
C420 C78 1.658 . S
C431 C58 1.401 . S
C436 C101 1.519 . S
C452 C118 1.652 . S
C447 C68 1.660 . S
C468 C138 1.615 . S
C463 C40 1.527 . S
C479 C13 1.580 . S
C484 C88 1.643 . S
C500 C93 1.520 . S
C495 C22 1.400 1_545 S
C516 C128 1.663 . S
C511 C32 1.638 . S
C527 C4 1.532 . S
C532 C148 1.612 . S
