# Generated by pormake.
# Topology zzz, (3,6)-cn, num edge types: 1
# Building blocks:
#     Node 0, Type 0, BuildingBlock: BETDAH_clean_linker_0, # of connection points: 3
#     Node 1, Type 0, BuildingBlock: BETDAH_clean_linker_0, # of connection points: 3
#     Node 2, Type 0, BuildingBlock: BETDAH_clean_linker_0, # of connection points: 3
#     Node 3, Type 0, BuildingBlock: BETDAH_clean_linker_0, # of connection points: 3
#     Node 4, Type 0, BuildingBlock: BETDAH_clean_linker_0, # of connection points: 3
#     Node 5, Type 0, BuildingBlock: BETDAH_clean_linker_0, # of connection points: 3
#     Node 6, Type 0, BuildingBlock: BETDAH_clean_linker_0, # of connection points: 3
#     Node 7, Type 0, BuildingBlock: BETDAH_clean_linker_0, # of connection points: 3
#     Node 8, Type 1, BuildingBlock: FUNLAD_clean_sbu_0, # of connection points: 6
#     Node 9, Type 1, BuildingBlock: FUNLAD_clean_sbu_0, # of connection points: 6
#     Node 10, Type 1, BuildingBlock: FUNLAD_clean_sbu_0, # of connection points: 6
#     Node 11, Type 1, BuildingBlock: FUNLAD_clean_sbu_0, # of connection points: 6
#     Edge 12, Type (0, 1), BuildingBlock: ZUJKAS_clean_linker_0, # of connection points: 2
#     Edge 13, Type (0, 1), BuildingBlock: ZUJKAS_clean_linker_0, # of connection points: 2
#     Edge 14, Type (0, 1), BuildingBlock: ZUJKAS_clean_linker_0, # of connection points: 2
#     Edge 15, Type (0, 1), BuildingBlock: ZUJKAS_clean_linker_0, # of connection points: 2
#     Edge 16, Type (0, 1), BuildingBlock: ZUJKAS_clean_linker_0, # of connection points: 2
#     Edge 17, Type (0, 1), BuildingBlock: ZUJKAS_clean_linker_0, # of connection points: 2
#     Edge 18, Type (0, 1), BuildingBlock: ZUJKAS_clean_linker_0, # of connection points: 2
#     Edge 19, Type (0, 1), BuildingBlock: ZUJKAS_clean_linker_0, # of connection points: 2
#     Edge 20, Type (0, 1), BuildingBlock: ZUJKAS_clean_linker_0, # of connection points: 2
#     Edge 21, Type (0, 1), BuildingBlock: ZUJKAS_clean_linker_0, # of connection points: 2
#     Edge 22, Type (0, 1), BuildingBlock: ZUJKAS_clean_linker_0, # of connection points: 2
#     Edge 23, Type (0, 1), BuildingBlock: ZUJKAS_clean_linker_0, # of connection points: 2
#     Edge 24, Type (0, 1), BuildingBlock: ZUJKAS_clean_linker_0, # of connection points: 2
#     Edge 25, Type (0, 1), BuildingBlock: ZUJKAS_clean_linker_0, # of connection points: 2
#     Edge 26, Type (0, 1), BuildingBlock: ZUJKAS_clean_linker_0, # of connection points: 2
#     Edge 27, Type (0, 1), BuildingBlock: ZUJKAS_clean_linker_0, # of connection points: 2
#     Edge 28, Type (0, 1), BuildingBlock: ZUJKAS_clean_linker_0, # of connection points: 2
#     Edge 29, Type (0, 1), BuildingBlock: ZUJKAS_clean_linker_0, # of connection points: 2
#     Edge 30, Type (0, 1), BuildingBlock: ZUJKAS_clean_linker_0, # of connection points: 2
#     Edge 31, Type (0, 1), BuildingBlock: ZUJKAS_clean_linker_0, # of connection points: 2
#     Edge 32, Type (0, 1), BuildingBlock: ZUJKAS_clean_linker_0, # of connection points: 2
#     Edge 33, Type (0, 1), BuildingBlock: ZUJKAS_clean_linker_0, # of connection points: 2
#     Edge 34, Type (0, 1), BuildingBlock: ZUJKAS_clean_linker_0, # of connection points: 2
#     Edge 35, Type (0, 1), BuildingBlock: ZUJKAS_clean_linker_0, # of connection points: 2
# Relax obj value: 0.126
# Max RMSD: 0.176
# Mean RMSD: 0.090
data_MOF--net-zzz--node1-FUNLAD_clean_sbu_0--node2-BETDAH_clean_linker_0--edge1-ZUJKAS_clean_linker_0
_symmetry_space_group_name_H-M    P1
_symmetry_Int_Tables_number       1
_symmetry_cell_setting            triclinic
loop_
_symmetry_equiv_pos_as_xyz
'x, y, z'
_cell_length_a     66.378671
_cell_length_b     71.802849
_cell_length_c     22.387958
_cell_angle_alpha  86.375402
_cell_angle_beta   86.149448
_cell_angle_gamma 90.120272
loop_
_atom_site_label
_atom_site_type_symbol
_atom_site_fract_x
_atom_site_fract_y
_atom_site_fract_z
_atom_type_partial_charge
H0 H 0.84528 0.47657 0.23423 0.0
H1 H 0.79099 0.48252 0.14131 0.0
H2 H 0.79305 0.50144 0.31984 0.0
C3 C 0.82946 0.48033 0.23425 0.0
C4 C 0.82035 0.48893 0.28349 0.0
C5 C 0.81901 0.47808 0.18284 0.0
C6 C 0.79891 0.48403 0.18147 0.0
C7 C 0.78934 0.49213 0.23163 0.0
C8 C 0.80022 0.4947 0.28205 0.0
N9 N 0.76904 0.49835 0.23237 0.0
C10 C 0.75697 0.49739 0.18434 0.0
H11 H 0.96541 0.82502 0.10144 0.0
H12 H 0.98527 0.77146 0.04725 0.0
H13 H 0.95996 0.77737 0.22766 0.0
C14 C 0.96677 0.8101 0.11146 0.0
C15 C 0.96126 0.8025 0.16932 0.0
C16 C 0.97561 0.79904 0.06772 0.0
C17 C 0.97821 0.77989 0.08108 0.0
C18 C 0.97205 0.7719 0.13864 0.0
C19 C 0.96404 0.78337 0.18283 0.0
N20 N 0.97415 0.75256 0.15419 0.0
C21 C 0.97845 0.73923 0.11283 0.0
H22 H 0.69702 0.01298 0.12465 0.0
H23 H 0.75351 0.00224 0.02827 0.0
H24 H 0.74517 0.98731 0.21816 0.0
C25 C 0.71253 0.00825 0.12482 0.0
C26 C 0.7197 1.00045 0.17812 0.0
C27 C 0.72451 0.00885 0.07078 0.0
C28 C 0.74433 0.00199 0.07018 0.0
C29 C 0.75198 0.9945 0.12388 0.0
C30 C 0.73943 0.99344 0.17723 0.0
N31 N 0.77194 0.98747 0.12598 0.0
C32 C 0.7874 0.99066 0.08126 0.0
H33 H 0.54207 0.65684 0.1229 0.0
H34 H 0.53266 0.71266 0.04902 0.0
H35 H 0.56152 0.70348 0.21536 0.0
C36 C 0.54352 0.67182 0.12539 0.0
C37 C 0.55272 0.67872 0.17387 0.0
C38 C 0.53588 0.68391 0.08077 0.0
C39 C 0.53834 0.70328 0.08369 0.0
C40 C 0.5477 0.7104 0.13237 0.0
C41 C 0.55455 0.69803 0.17761 0.0
N42 N 0.55039 0.72982 0.13786 0.0
C43 C 0.54496 0.74373 0.09607 0.0
H44 H 0.19269 0.50121 0.1858 0.0
H45 H 0.24819 0.52449 0.23598 0.0
H46 H 0.24451 0.50436 0.05944 0.0
C47 C 0.20852 0.50458 0.17507 0.0
C48 C 0.21732 0.50149 0.11798 0.0
C49 C 0.21949 0.51304 0.21729 0.0
C50 C 0.23977 0.5179 0.20315 0.0
C51 C 0.249 0.5144 0.14637 0.0
C52 C 0.23754 0.50668 0.1035 0.0
N53 N 0.26971 0.51847 0.1313 0.0
C54 C 0.28362 0.51972 0.17452 0.0
H55 H 0.06128 0.17578 0.26574 0.0
H56 H 0.0617 0.22808 0.34878 0.0
H57 H 0.07925 0.22572 0.16002 0.0
C58 C 0.06404 0.19073 0.2625 0.0
C59 C 0.07041 0.19956 0.20706 0.0
C60 C 0.06113 0.20084 0.31376 0.0
C61 C 0.06415 0.22025 0.30916 0.0
C62 C 0.07086 0.2293 0.25344 0.0
C63 C 0.07422 0.2188 0.20287 0.0
N64 N 0.0744 0.24884 0.24642 0.0
C65 C 0.06906 0.26125 0.28987 0.0
H66 H 0.34026 0.98856 0.25196 0.0
H67 H 0.2837 0.99809 0.34962 0.0
H68 H 0.29094 0.01235 0.15915 0.0
C69 C 0.32459 0.99285 0.25208 0.0
C70 C 0.31701 1.00021 0.1988 0.0
C71 C 0.31277 0.99212 0.30641 0.0
C72 C 0.29274 0.99846 0.30745 0.0
C73 C 0.28468 0.00549 0.25382 0.0
C74 C 0.29702 0.00662 0.20007 0.0
N75 N 0.26447 0.01191 0.25202 0.0
C76 C 0.24962 0.00971 0.29893 0.0
H77 H 0.49897 0.34376 0.2619 0.0
H78 H 0.49992 0.28732 0.33753 0.0
H79 H 0.4861 0.29856 0.1531 0.0
C80 C 0.4972 0.32892 0.25686 0.0
C81 C 0.49242 0.32272 0.20148 0.0
C82 C 0.49981 0.31628 0.30591 0.0
C83 C 0.49774 0.29706 0.29958 0.0
C84 C 0.49253 0.29064 0.24428 0.0
C85 C 0.48982 0.30355 0.19574 0.0
N86 N 0.48997 0.2714 0.23542 0.0
C87 C 0.49209 0.25699 0.27894 0.0
C88 C 0.02541 0.96553 0.73971 0.0
N89 N 1.0014 0.98178 0.57742 0.0
C90 C 0.01296 0.96774 0.55593 0.0
C91 C 0.00548 0.9559 0.51566 0.0
C92 C 0.9858 0.95836 0.49737 0.0
C93 C 0.97438 0.97335 0.51852 0.0
C94 C 0.98256 0.98501 0.55865 0.0
Zn95 Zn 0.01204 0.99516 0.64709 0.0
C96 C 0.97964 0.99935 0.7451 0.0
N97 N 0.03494 0.01936 0.79823 0.0
C98 C 0.05442 0.01745 0.81313 0.0
C99 C 0.02274 0.03256 0.82228 0.0
C100 C 0.03021 0.04497 0.86082 0.0
C101 C 0.05054 0.04406 0.87416 0.0
C102 C 0.06263 0.02984 0.85093 0.0
Zn103 Zn 0.0243 0.00586 0.72864 0.0
O104 O 0.01766 0.96869 0.68971 0.0
C105 C 0.05669 0.00162 0.63048 0.0
O106 O 0.03051 0.97921 0.76897 0.0
H107 H 0.00749 0.03426 0.80882 0.0
H108 H 0.02772 0.96511 0.57224 0.0
H109 H 0.06392 0.00694 0.79336 0.0
O110 O 0.04172 0.99582 0.60416 0.0
O111 O 0.05377 0.00696 0.68343 0.0
H112 H 0.97356 0.99616 0.57657 0.0
O113 O 0.01775 0.0323 0.68771 0.0
O114 O 0.00666 0.02191 0.60566 0.0
O115 O 0.99474 0.00444 0.77225 0.0
O116 O 0.9824 0.99474 0.69125 0.0
C117 C 0.0107 0.03551 0.63675 0.0
H118 H 0.01469 0.94435 0.50144 0.0
H119 H 0.95918 0.97579 0.50519 0.0
H120 H 0.02047 0.05592 0.87695 0.0
H121 H 0.07838 0.02868 0.86042 0.0
C122 C 0.48746 0.99175 0.62181 0.0
N123 N 0.5157 0.04297 0.64295 0.0
C124 C 0.51401 0.04637 0.58303 0.0
C125 C 0.51212 0.0646 0.55868 0.0
C126 C 0.512 0.07956 0.59619 0.0
C127 C 0.51403 0.07568 0.65781 0.0
C128 C 0.51581 0.05718 0.68039 0.0
Zn129 Zn 0.5177 0.01576 0.67545 0.0
C130 C 0.48946 0.0067 0.78155 0.0
N131 N 0.52145 0.95848 0.73835 0.0
C132 C 0.52177 0.94429 0.70074 0.0
C133 C 0.52206 0.95502 0.79865 0.0
C134 C 0.52283 0.93673 0.82339 0.0
C135 C 0.52306 0.92178 0.78584 0.0
C136 C 0.52265 0.92574 0.72364 0.0
Zn137 Zn 0.51964 0.98569 0.70578 0.0
O138 O 0.49403 0.00836 0.62257 0.0
C139 C 0.54777 0.99474 0.59942 0.0
O140 O 0.49588 0.97872 0.652 0.0
H141 H 0.5219 0.96648 0.82776 0.0
H142 H 0.51405 0.0349 0.55396 0.0
H143 H 0.52123 0.94736 0.65296 0.0
O144 O 0.53973 0.01064 0.60532 0.0
O145 O 0.54186 0.98105 0.63523 0.0
H146 H 0.51714 0.05415 0.72791 0.0
O147 O 0.54326 0.99312 0.75923 0.0
O148 O 0.54151 0.0227 0.7287 0.0
O149 O 0.49745 0.9908 0.77542 0.0
O150 O 0.49554 0.02044 0.74624 0.0
C151 C 0.54988 0.00975 0.75935 0.0
H152 H 0.51093 0.06695 0.51078 0.0
H153 H 0.51388 0.08679 0.68838 0.0
H154 H 0.52347 0.93435 0.87148 0.0
H155 H 0.52267 0.91462 0.69313 0.0
C156 C 0.52719 0.46935 0.62681 0.0
N157 N 0.47626 0.50363 0.63263 0.0
C158 C 0.47597 0.50064 0.57331 0.0
C159 C 0.4579 0.50143 0.54511 0.0
C160 C 0.43986 0.5054 0.57809 0.0
C161 C 0.44054 0.50851 0.63926 0.0
C162 C 0.45902 0.50749 0.66587 0.0
Zn163 Zn 0.50358 0.5024 0.66948 0.0
C164 C 0.5034 0.47858 0.78131 0.0
N165 N 0.56189 0.49927 0.73806 0.0
C166 C 0.57906 0.49571 0.70406 0.0
C167 C 0.56241 0.50234 0.79727 0.0
C168 C 0.58069 0.50215 0.82438 0.0
C169 C 0.59868 0.49867 0.79041 0.0
C170 C 0.59773 0.49527 0.72956 0.0
Zn171 Zn 0.53452 0.50044 0.70164 0.0
O172 O 0.51052 0.47794 0.62471 0.0
C173 C 0.53488 0.52414 0.58968 0.0
O174 O 0.54115 0.47599 0.6555 0.0
H175 H 0.54858 0.50501 0.82362 0.0
H176 H 0.48985 0.49774 0.54756 0.0
H177 H 0.57828 0.49333 0.65704 0.0
O178 O 0.51632 0.51955 0.5959 0.0
O179 O 0.5468 0.5177 0.62791 0.0
H180 H 0.45962 0.50981 0.71299 0.0
O181 O 0.52741 0.52477 0.74751 0.0
O182 O 0.49701 0.52691 0.71489 0.0
O183 O 0.52193 0.48326 0.77463 0.0
O184 O 0.49128 0.48508 0.74368 0.0
C185 C 0.51074 0.53336 0.74483 0.0
H186 H 0.45812 0.49927 0.49763 0.0
H187 H 0.42694 0.51151 0.66632 0.0
H188 H 0.58072 0.50453 0.87167 0.0
H189 H 0.61129 0.49263 0.7018 0.0
C190 C 0.04985 0.51284 0.61309 0.0
N191 N 0.02329 0.45992 0.64946 0.0
C192 C 0.02459 0.45817 0.58918 0.0
C193 C 0.02685 0.44061 0.5662 0.0
C194 C 0.02782 0.42465 0.60557 0.0
C195 C 0.02636 0.42687 0.66763 0.0
C196 C 0.02406 0.44471 0.6887 0.0
Zn197 Zn 0.02062 0.48604 0.68076 0.0
C198 C 0.04847 0.49215 0.77543 0.0
N199 N 0.01552 0.54107 0.74264 0.0
C200 C 0.01511 0.55643 0.70389 0.0
C201 C 0.01419 0.54262 0.80302 0.0
C202 C 0.01234 0.56011 0.8266 0.0
C203 C 0.01188 0.57624 0.78779 0.0
C204 C 0.01328 0.57423 0.72559 0.0
Zn205 Zn 0.01809 0.51499 0.71101 0.0
O206 O 0.04381 0.49596 0.61733 0.0
C207 C 0.99021 0.50877 0.6165 0.0
O208 O 0.04139 0.52448 0.64698 0.0
H209 H 0.01448 0.53024 0.83308 0.0
H210 H 0.02404 0.47044 0.55874 0.0
H211 H 0.01622 0.55488 0.65604 0.0
O212 O 0.99856 0.49286 0.61967 0.0
O213 O 0.99574 0.52133 0.6496 0.0
H214 H 0.02296 0.44642 0.73646 0.0
O215 O 0.99495 0.50507 0.77447 0.0
O216 O 0.99724 0.47657 0.7447 0.0
O217 O 0.04034 0.50816 0.772 0.0
O218 O 0.04276 0.47965 0.74244 0.0
C219 C 0.9888 0.48823 0.77858 0.0
H220 H 0.02822 0.43961 0.51804 0.0
H221 H 0.02682 0.41494 0.69959 0.0
H222 H 0.01097 0.56094 0.87484 0.0
H223 H 0.01319 0.58628 0.69401 0.0
H224 H 0.22791 0.97867 0.33457 0.0
H225 H 0.19582 0.97712 0.39646 0.0
H226 H 0.19994 0.03619 0.41925 0.0
H227 H 0.23189 0.03774 0.35689 0.0
H228 H 0.1849 0.98697 0.51499 0.0
H229 H 0.1453 0.03029 0.34567 0.0
H230 H 0.16972 0.02011 0.32913 0.0
H231 H 0.16765 0.04087 0.3699 0.0
C232 C 0.22204 0.99122 0.35365 0.0
C233 C 0.23222 0.0083 0.34144 0.0
C234 C 0.20374 0.99035 0.38882 0.0
C235 C 0.19531 0.00659 0.41172 0.0
C236 C 0.20597 0.02355 0.40124 0.0
H237 H 0.09204 0.01328 0.67345 0.0
H238 H 0.12581 0.01425 0.62201 0.0
C239 C 0.22426 0.0244 0.36611 0.0
C240 C 0.17506 0.00591 0.4446 0.0
H241 H 0.12696 0.02246 0.43817 0.0
C242 C 0.17222 0.99473 0.49829 0.0
C243 C 0.15846 0.01583 0.42226 0.0
C244 C 0.16029 0.02733 0.36332 0.0
C245 C 0.15329 0.9934 0.53063 0.0
C246 C 0.13682 0.0037 0.50903 0.0
C247 C 0.13963 0.0147 0.45499 0.0
C248 C 0.11639 0.00293 0.54091 0.0
C249 C 0.15098 0.98067 0.58694 0.0
C250 C 0.09976 0.99664 0.51205 0.0
C251 C 0.08042 0.99617 0.54117 0.0
C252 C 0.07726 0.0021 0.59976 0.0
C253 C 0.09393 0.00852 0.62847 0.0
C254 C 0.11329 0.00897 0.59926 0.0
H255 H 0.16341 0.97037 0.58919 0.0
H256 H 0.15129 0.98916 0.62662 0.0
H257 H 0.13636 0.97302 0.58978 0.0
H258 H 0.10176 0.99199 0.46693 0.0
H259 H 0.06795 0.99116 0.51764 0.0
H260 H 0.51845 0.2511 0.36536 0.0
H261 H 0.5227 0.22181 0.42683 0.0
H262 H 0.47368 0.1969 0.34214 0.0
H263 H 0.46954 0.22601 0.28081 0.0
H264 H 0.49327 0.19988 0.50717 0.0
H265 H 0.52293 0.1621 0.31134 0.0
H266 H 0.52193 0.18725 0.31018 0.0
H267 H 0.49949 0.17396 0.30101 0.0
C268 C 0.50853 0.23936 0.36057 0.0
C269 C 0.49372 0.24057 0.31872 0.0
C270 C 0.51094 0.22272 0.3955 0.0
C271 C 0.49867 0.20716 0.38837 0.0
C272 C 0.48347 0.20867 0.34769 0.0
H273 H 0.48626 0.09211 0.5126 0.0
H274 H 0.48359 0.12368 0.46651 0.0
C275 C 0.48105 0.22527 0.31297 0.0
C276 C 0.50201 0.18909 0.4218 0.0
H277 H 0.51432 0.14371 0.40131 0.0
C278 C 0.49805 0.1876 0.48429 0.0
C279 C 0.50831 0.17316 0.39167 0.0
C280 C 0.5136 0.17415 0.32491 0.0
C281 C 0.49946 0.17036 0.51723 0.0
C282 C 0.5053 0.15434 0.4868 0.0
C283 C 0.50973 0.15599 0.4245 0.0
C284 C 0.50631 0.13554 0.51797 0.0
C285 C 0.494 0.1693 0.58387 0.0
C286 C 0.51996 0.13173 0.56237 0.0
C287 C 0.52156 0.11363 0.58879 0.0
C288 C 0.50967 0.09901 0.57079 0.0
C289 C 0.49584 0.10298 0.52685 0.0
C290 C 0.49422 0.12104 0.50068 0.0
H291 H 0.48545 0.18176 0.59789 0.0
H292 H 0.48483 0.15661 0.59771 0.0
H293 H 0.50804 0.16852 0.60815 0.0
H294 H 0.52973 0.14263 0.57553 0.0
H295 H 0.53252 0.11098 0.62198 0.0
H296 H 0.28478 0.54327 0.26355 0.0
H297 H 0.3085 0.54214 0.34367 0.0
H298 H 0.33759 0.49442 0.26841 0.0
H299 H 0.31383 0.49551 0.18882 0.0
H300 H 0.32789 0.49068 0.39565 0.0
H301 H 0.36922 0.55673 0.32316 0.0
H302 H 0.34216 0.55813 0.33296 0.0
H303 H 0.35355 0.54501 0.27413 0.0
C304 C 0.29638 0.53267 0.26421 0.0
C305 C 0.2978 0.51957 0.22034 0.0
C306 C 0.30988 0.53204 0.30969 0.0
C307 C 0.3249 0.51831 0.31149 0.0
C308 C 0.32614 0.50515 0.26763 0.0
H309 H 0.42632 0.48192 0.49816 0.0
H310 H 0.39638 0.48542 0.44095 0.0
C311 C 0.31268 0.5058 0.22224 0.0
C312 C 0.33932 0.51741 0.35917 0.0
H313 H 0.3798 0.5398 0.40872 0.0
C314 C 0.33916 0.50147 0.39887 0.0
C315 C 0.35386 0.53159 0.36345 0.0
C316 C 0.35491 0.5488 0.32102 0.0
C317 C 0.35346 0.49915 0.44206 0.0
C318 C 0.36852 0.51298 0.44473 0.0
C319 C 0.36822 0.52923 0.40652 0.0
C320 C 0.3857 0.51019 0.48318 0.0
C321 C 0.35239 0.48188 0.48418 0.0
C322 C 0.38977 0.52307 0.5255 0.0
C323 C 0.40703 0.5212 0.55795 0.0
C324 C 0.42061 0.50654 0.54799 0.0
C325 C 0.41624 0.49347 0.50642 0.0
C326 C 0.39901 0.49532 0.4742 0.0
H327 H 0.33685 0.47595 0.48957 0.0
H328 H 0.36251 0.4711 0.46545 0.0
H329 H 0.35729 0.48487 0.52907 0.0
H330 H 0.37976 0.53474 0.53267 0.0
H331 H 0.4101 0.5316 0.58921 0.0
H332 H 0.04215 0.28854 0.27306 0.0
H333 H 0.03448 0.3142 0.33822 0.0
H334 H 0.07602 0.29134 0.46342 0.0
H335 H 0.08386 0.26575 0.39761 0.0
H336 H 0.01956 0.31389 0.45964 0.0
H337 H 0.09658 0.34509 0.42401 0.0
H338 H 0.08773 0.32759 0.37742 0.0
H339 H 0.09545 0.32099 0.45114 0.0
C340 C 0.04949 0.28899 0.31476 0.0
C341 C 0.06358 0.27539 0.3307 0.0
C342 C 0.04512 0.30359 0.35187 0.0
C343 C 0.05489 0.3048 0.40522 0.0
C344 C 0.06858 0.29082 0.42196 0.0
H345 H 0.05219 0.39641 0.64571 0.0
H346 H 0.05783 0.36605 0.60361 0.0
C347 C 0.07296 0.27621 0.38471 0.0
C348 C 0.05102 0.32101 0.44212 0.0
H349 H 0.07319 0.3601 0.48818 0.0
C350 C 0.0313 0.32395 0.4662 0.0
C351 C 0.06639 0.33408 0.45068 0.0
C352 C 0.0877 0.33194 0.42414 0.0
C353 C 0.02647 0.33972 0.49821 0.0
C354 C 0.04172 0.35305 0.50534 0.0
C355 C 0.06155 0.34985 0.48264 0.0
C356 C 0.03725 0.37088 0.53337 0.0
C357 C 0.00512 0.34196 0.52421 0.0
C358 C 0.02386 0.38367 0.50773 0.0
C359 C 0.02054 0.40097 0.53179 0.0
C360 C 0.03066 0.40589 0.58179 0.0
C361 C 0.04395 0.39297 0.6077 0.0
C362 C 0.04728 0.37566 0.58352 0.0
H363 H 0.99704 0.32833 0.53064 0.0
H364 H 0.00484 0.34846 0.56796 0.0
H365 H 0.99674 0.35112 0.49282 0.0
H366 H 0.01626 0.38043 0.4683 0.0
H367 H 0.01008 0.41053 0.51108 0.0
H368 H 0.79348 0.98003 0.96729 0.0
H369 H 0.82559 0.98173 0.90497 0.0
H370 H 0.85398 0.0083 0.04537 0.0
H371 H 0.82205 0.00649 0.10746 0.0
H372 H 0.85146 0.01323 0.86461 0.0
H373 H 0.88926 0.96199 0.01515 0.0
H374 H 0.8622 0.96486 0.01852 0.0
H375 H 0.87784 0.98116 0.05228 0.0
C376 C 0.80659 0.98639 0.98428 0.0
C377 C 0.80548 0.99315 0.04181 0.0
C378 C 0.82486 0.98734 0.94886 0.0
C379 C 0.84225 0.99488 0.97093 0.0
C380 C 0.84086 0.00215 0.02784 0.0
H381 H 0.96855 0.00968 0.85814 0.0
H382 H 0.93486 0.0087 0.90947 0.0
C383 C 0.82263 0.00123 0.06306 0.0
C384 C 0.86199 0.99484 0.93535 0.0
H385 H 0.91014 0.97828 0.93888 0.0
C386 C 0.86427 0.00549 0.88052 0.0
C387 C 0.87867 0.98471 0.9562 0.0
C388 C 0.87691 0.97239 0.01348 0.0
C389 C 0.88299 0.00678 0.84694 0.0
C390 C 0.89976 0.99684 0.86825 0.0
C391 C 0.89734 0.98596 0.92264 0.0
C392 C 0.92008 0.99779 0.8357 0.0
C393 C 0.88481 0.01925 0.78999 0.0
C394 C 0.92308 0.99183 0.7772 0.0
C395 C 0.94237 0.99242 0.74756 0.0
C396 C 0.9591 0.99883 0.77605 0.0
C397 C 0.95604 0.00467 0.83478 0.0
C398 C 0.93677 0.00412 0.86426 0.0
H399 H 0.87226 0.02944 0.788 0.0
H400 H 0.89936 0.02703 0.78583 0.0
H401 H 0.88428 0.01055 0.75088 0.0
H402 H 0.91054 0.9865 0.75469 0.0
H403 H 0.94419 0.98771 0.70251 0.0
H404 H 0.51752 0.77008 0.12002 0.0
H405 H 0.5121 0.79911 0.05938 0.0
H406 H 0.55713 0.78247 0.92541 0.0
H407 H 0.5624 0.75332 0.986 0.0
H408 H 0.5428 0.82566 0.02838 0.0
H409 H 0.51025 0.80077 0.82517 0.0
H410 H 0.51049 0.78655 0.89463 0.0
H411 H 0.53308 0.78942 0.84606 0.0
C412 C 0.52592 0.77252 0.07701 0.0
C413 C 0.54023 0.75961 0.05705 0.0
C414 C 0.52287 0.78906 0.04256 0.0
C415 C 0.53406 0.79286 0.98761 0.0
C416 C 0.54806 0.77966 0.96705 0.0
H417 H 0.54583 0.89281 0.74466 0.0
H418 H 0.54834 0.86119 0.79178 0.0
C419 C 0.55111 0.7631 0.00163 0.0
C420 C 0.53229 0.8113 0.95474 0.0
H421 H 0.519 0.83288 0.82284 0.0
C422 C 0.53751 0.82725 0.98354 0.0
C423 C 0.5256 0.81329 0.89602 0.0
C424 C 0.51937 0.79664 0.86364 0.0
C425 C 0.53632 0.84515 0.95518 0.0
C426 C 0.52929 0.84721 0.89686 0.0
C427 C 0.5243 0.83125 0.86764 0.0
C428 C 0.5268 0.86588 0.86612 0.0
C429 C 0.54294 0.86169 0.98759 0.0
C430 C 0.51347 0.8788 0.89146 0.0
C431 C 0.51202 0.89682 0.86478 0.0
C432 C 0.52376 0.90225 0.81187 0.0
C433 C 0.53653 0.88904 0.78527 0.0
C434 C 0.53803 0.871 0.81218 0.0
H435 H 0.55294 0.85745 0.02386 0.0
H436 H 0.55106 0.87216 0.9561 0.0
H437 H 0.52943 0.86846 0.0084 0.0
H438 H 0.50431 0.875 0.9323 0.0
H439 H 0.50172 0.90653 0.88568 0.0
H440 H 0.72746 0.5216 0.16077 0.0
H441 H 0.70405 0.52046 0.08072 0.0
H442 H 0.7338 0.47114 0.01898 0.0
H443 H 0.75706 0.47216 0.09983 0.0
H444 H 0.71225 0.52115 0.95486 0.0
H445 H 0.67413 0.45519 0.04578 0.0
H446 H 0.69015 0.46845 0.08969 0.0
H447 H 0.70112 0.45428 0.0329 0.0
C448 C 0.72894 0.51057 0.12991 0.0
C449 C 0.74382 0.49692 0.136 0.0
C450 C 0.71566 0.50994 0.08429 0.0
C451 C 0.71707 0.4956 0.04441 0.0
C452 C 0.73228 0.48214 0.04989 0.0
H453 H 0.62953 0.47357 0.77946 0.0
H454 H 0.66075 0.47258 0.83248 0.0
C455 C 0.74556 0.48277 0.09568 0.0
C456 C 0.70232 0.49474 0.99794 0.0
H457 H 0.66219 0.46963 0.95799 0.0
C458 C 0.70141 0.50981 0.95514 0.0
C459 C 0.6883 0.47987 0.9983 0.0
C460 C 0.68827 0.46356 0.0443 0.0
C461 C 0.6865 0.51063 0.91355 0.0
C462 C 0.67197 0.49615 0.91554 0.0
C463 C 0.67338 0.4807 0.95665 0.0
C464 C 0.65412 0.49753 0.87932 0.0
C465 C 0.68627 0.5271 0.8683 0.0
C466 C 0.64014 0.51186 0.8882 0.0
C467 C 0.62239 0.51245 0.85817 0.0
C468 C 0.61822 0.49865 0.81885 0.0
C469 C 0.63244 0.48448 0.80906 0.0
C470 C 0.6502 0.48386 0.83943 0.0
H471 H 0.70145 0.53369 0.86026 0.0
H472 H 0.68112 0.52292 0.82488 0.0
H473 H 0.67571 0.53775 0.8857 0.0
H474 H 0.64269 0.52235 0.91964 0.0
H475 H 0.61181 0.52363 0.8662 0.0
H476 H 0.99404 0.74206 0.99762 0.0
H477 H 0.99964 0.71629 0.93109 0.0
H478 H 0.9768 0.67718 0.07409 0.0
H479 H 0.97097 0.70292 0.14003 0.0
H480 H 0.02374 0.68497 0.94516 0.0
H481 H 0.94368 0.66436 0.93498 0.0
H482 H 0.9511 0.6863 0.96234 0.0
H483 H 0.95099 0.66525 0.01047 0.0
C484 C 0.99017 0.72794 0.01445 0.0
C485 C 0.98201 0.7243 0.07343 0.0
C486 C 0.99337 0.71327 0.97661 0.0
C487 C 0.9883 0.69487 0.99734 0.0
C488 C 0.98037 0.69131 0.05673 0.0
H489 H 0.02977 0.58919 0.8839 0.0
H490 H 0.02452 0.61913 0.92831 0.0
C491 C 0.97718 0.70595 0.09442 0.0
C492 C 0.99183 0.67922 0.95782 0.0
H493 H 0.96839 0.64214 0.90327 0.0
C494 C 0.01162 0.67571 0.93538 0.0
C495 C 0.97595 0.66736 0.94419 0.0
C496 C 0.95421 0.6711 0.96372 0.0
C497 C 0.01608 0.66015 0.90196 0.0
C498 C 1.00037 0.64763 0.89167 0.0
C499 C 0.98046 0.65162 0.91178 0.0
C500 C 0.00433 0.62988 0.86256 0.0
C501 C 0.03757 0.65727 0.87812 0.0
C502 C 0.99441 0.62579 0.81147 0.0
C503 C 0.99714 0.60853 0.78644 0.0
C504 C 0.00974 0.59497 0.81235 0.0
C505 C 0.0198 0.59922 0.86317 0.0
C506 C 0.01704 0.61645 0.88816 0.0
H507 H 0.04617 0.67064 0.87304 0.0
H508 H 0.04523 0.64774 0.91022 0.0
H509 H 0.03814 0.65094 0.83405 0.0
H510 H 0.98438 0.63589 0.79132 0.0
H511 H 0.98895 0.60563 0.74779 0.0
H512 H 0.08106 0.17254 0.3679 0.0
H513 H 0.06688 0.14937 0.44338 0.0
H514 H 0.01258 0.18199 0.4637 0.0
H515 H 0.0267 0.2051 0.38604 0.0
H516 H 0.05161 0.14732 0.55799 0.0
H517 H 0.99143 0.13408 0.40377 0.0
H518 H 0.01266 0.14923 0.3816 0.0
H519 H 0.99233 0.15708 0.43068 0.0
C520 C 0.06633 0.17502 0.38973 0.0
C521 C 0.05485 0.19043 0.37097 0.0
C522 C 0.05821 0.16178 0.43281 0.0
C523 C 0.03845 0.16369 0.45803 0.0
C524 C 0.02767 0.18003 0.44367 0.0
H525 H 0.00418 0.066 0.7012 0.0
H526 H 0.00643 0.09876 0.66417 0.0
C527 C 0.03582 0.19333 0.40006 0.0
C528 C 0.02891 0.14753 0.49382 0.0
H529 H 0.99412 0.11277 0.48606 0.0
C530 C 0.0388 0.1399 0.54306 0.0
C531 C 0.01235 0.13777 0.47356 0.0
C532 C 1.00161 0.14481 0.41929 0.0
C533 C 0.03342 0.12231 0.57039 0.0
C534 C 0.01716 0.11235 0.54924 0.0
C535 C 0.00653 0.12045 0.50221 0.0
C536 C 0.01234 0.09278 0.57109 0.0
C537 C 0.04617 0.11407 0.61876 0.0
C538 C 0.01341 0.07856 0.53061 0.0
C539 C 0.01155 0.05982 0.55149 0.0
C540 C 0.00885 0.05504 0.61326 0.0
C541 C 0.00655 0.06932 0.65334 0.0
C542 C 0.00799 0.08803 0.63233 0.0
H543 H 0.06081 0.12156 0.61943 0.0
H544 H 0.03795 0.11515 0.6632 0.0
H545 H 0.04933 0.09912 0.61249 0.0
H546 H 0.01663 0.0819 0.48305 0.0
H547 H 0.0134 0.04909 0.51969 0.0
H548 H 0.31964 0.01335 0.39921 0.0
H549 H 0.34683 0.00822 0.46733 0.0
H550 H 0.35689 0.95349 0.40265 0.0
H551 H 0.32992 0.95868 0.3341 0.0
H552 H 0.3607 0.97841 0.55634 0.0
H553 H 0.407 0.98709 0.33945 0.0
H554 H 0.38058 0.99304 0.34624 0.0
H555 H 0.38803 0.96904 0.34488 0.0
C556 C 0.32699 0.99989 0.40182 0.0
C557 C 0.32281 0.98642 0.36151 0.0
C558 C 0.34258 0.99701 0.44041 0.0
C559 C 0.35405 0.98062 0.43908 0.0
C560 C 0.3483 0.96629 0.40387 0.0
H561 H 0.46437 0.95984 0.62957 0.0
H562 H 0.43179 0.95544 0.58652 0.0
C563 C 0.33283 0.9692 0.36512 0.0
C564 C 0.37387 0.9799 0.46572 0.0
H565 H 0.42449 0.98268 0.42693 0.0
C566 C 0.37468 0.97915 0.52826 0.0
C567 C 0.39203 0.98117 0.42867 0.0
C568 C 0.39201 0.98278 0.36106 0.0
C569 C 0.39328 0.9797 0.55478 0.0
C570 C 0.4114 0.98094 0.51762 0.0
C571 C 0.41055 0.98155 0.45517 0.0
C572 C 0.43137 0.98309 0.54228 0.0
C573 C 0.39344 0.9796 0.62214 0.0
C574 C 0.44216 0.99985 0.52994 0.0
C575 C 0.46073 0.00239 0.55413 0.0
C576 C 0.46897 0.98813 0.59079 0.0
C577 C 0.45845 0.97107 0.6014 0.0
C578 C 0.43976 0.96859 0.57736 0.0
H579 H 0.37811 0.98163 0.6438 0.0
H580 H 0.39926 0.96601 0.63978 0.0
H581 H 0.40361 0.99073 0.63517 0.0
H582 H 0.43599 0.01115 0.50255 0.0
H583 H 0.46844 0.01568 0.54499 0.0
H584 H 0.47652 0.3385 0.37405 0.0
H585 H 0.48789 0.3584 0.44979 0.0
H586 H 0.54623 0.33196 0.43965 0.0
H587 H 0.53481 0.31205 0.36272 0.0
H588 H 0.50537 0.35417 0.56139 0.0
H589 H 0.55837 0.38645 0.37967 0.0
H590 H 0.5388 0.37034 0.36409 0.0
H591 H 0.56087 0.36192 0.39907 0.0
C592 C 0.49154 0.33652 0.38956 0.0
C593 C 0.50484 0.32386 0.36279 0.0
C594 C 0.49805 0.34789 0.43269 0.0
C595 C 0.51802 0.3469 0.44946 0.0
C596 C 0.53085 0.33311 0.4266 0.0
H597 H 0.56018 0.44615 0.62423 0.0
H598 H 0.56189 0.41438 0.58897 0.0
C599 C 0.52428 0.32164 0.38329 0.0
C600 C 0.52562 0.36192 0.4846 0.0
H601 H 0.55223 0.40291 0.46565 0.0
C602 C 0.51604 0.36458 0.5412 0.0
C603 C 0.53953 0.37553 0.45808 0.0
C604 C 0.54997 0.37359 0.39678 0.0
C605 C 0.51896 0.38105 0.5701 0.0
C606 C 0.53164 0.39522 0.5414 0.0
C607 C 0.5425 0.39197 0.48727 0.0
C608 C 0.53123 0.41438 0.56193 0.0
C609 C 0.50763 0.38365 0.62964 0.0
C610 C 0.51366 0.42496 0.55648 0.0
C611 C 0.51271 0.44304 0.57564 0.0
C612 C 0.52931 0.45093 0.60092 0.0
C613 C 0.54714 0.44046 0.60494 0.0
C614 C 0.54813 0.42232 0.58516 0.0
H615 H 0.5031 0.37005 0.65316 0.0
H616 H 0.51692 0.39152 0.65909 0.0
H617 H 0.49372 0.39176 0.62198 0.0
H618 H 0.5006 0.41916 0.5376 0.0
H619 H 0.49875 0.45066 0.57173 0.0
H620 H 0.20266 0.48897 0.30451 0.0
H621 H 0.17696 0.49647 0.38286 0.0
H622 H 0.18508 0.55513 0.33276 0.0
H623 H 0.21108 0.54762 0.25455 0.0
H624 H 0.17426 0.52466 0.4829 0.0
H625 H 0.12589 0.53722 0.29002 0.0
H626 H 0.14893 0.52398 0.28319 0.0
H627 H 0.15006 0.54879 0.28788 0.0
C628 C 0.19951 0.50347 0.31198 0.0
C629 C 0.20878 0.51775 0.27405 0.0
C630 C 0.18486 0.50775 0.35652 0.0
C631 C 0.1791 0.52632 0.36309 0.0
C632 C 0.18942 0.54072 0.32828 0.0
H633 H 0.07222 0.54508 0.60975 0.0
H634 H 0.10387 0.55229 0.54941 0.0
C635 C 0.20428 0.53644 0.28402 0.0
C636 C 0.16036 0.53004 0.39955 0.0
H637 H 0.10972 0.53527 0.38649 0.0
C638 C 0.16018 0.52746 0.46217 0.0
C639 C 0.14207 0.53347 0.37189 0.0
C640 C 0.14153 0.53598 0.30455 0.0
C641 C 0.14196 0.52746 0.49786 0.0
C642 C 0.1236 0.53002 0.4699 0.0
C643 C 0.12389 0.53343 0.40754 0.0
C644 C 0.10392 0.52667 0.50359 0.0
C645 C 0.14224 0.5236 0.56481 0.0
C646 C 0.09335 0.51013 0.49642 0.0
C647 C 0.07541 0.50595 0.53066 0.0
C648 C 0.06761 0.51834 0.57243 0.0
C649 C 0.07784 0.53528 0.57786 0.0
C650 C 0.09593 0.53938 0.54375 0.0
H651 H 0.15771 0.52083 0.57916 0.0
H652 H 0.13607 0.53579 0.58792 0.0
H653 H 0.13245 0.51138 0.57958 0.0
H654 H 0.09931 0.50019 0.46541 0.0
H655 H 0.06787 0.49282 0.52525 0.0
H656 H 0.95464 0.81598 0.98021 0.0
H657 H 0.9677 0.84063 0.90725 0.0
H658 H 0.02807 0.82997 0.96067 0.0
H659 H 0.01503 0.80492 0.03232 0.0
H660 H 0.98437 0.87018 0.95491 0.0
H661 H 0.03846 0.84334 0.78148 0.0
H662 H 0.02018 0.8285 0.82514 0.0
H663 H 0.04304 0.83527 0.85693 0.0
C664 C 0.97081 0.81828 0.9739 0.0
C665 C 0.9839 0.80855 0.01115 0.0
C666 C 0.97825 0.83242 0.93265 0.0
C667 C 0.99886 0.83717 0.92857 0.0
C668 C 0.0122 0.82634 0.96216 0.0
H669 H 0.03673 0.95308 0.85102 0.0
H670 H 0.0336 0.92116 0.89658 0.0
C671 C 0.00475 0.81202 0.00302 0.0
C672 C 0.00554 0.85534 0.8985 0.0
H673 H 0.03858 0.87629 0.79117 0.0
C674 C 0.99616 0.87148 0.91887 0.0
C675 C 0.02099 0.85701 0.85183 0.0
C676 C 0.03116 0.84011 0.8271 0.0
C677 C 1.00165 0.88925 0.89366 0.0
C678 C 0.01735 0.891 0.84772 0.0
C679 C 0.02677 0.87488 0.82711 0.0
C680 C 0.0229 0.90944 0.8177 0.0
C681 C 0.99018 0.90594 0.91538 0.0
C682 C 0.01894 0.91316 0.75747 0.0
C683 C 0.02081 0.93128 0.7313 0.0
C684 C 0.02668 0.94605 0.76495 0.0
C685 C 0.03199 0.94205 0.82411 0.0
C686 C 0.03016 0.92385 0.85023 0.0
H687 H 0.9758 0.90182 0.94118 0.0
H688 H 0.99958 0.9135 0.94524 0.0
H689 H 0.98666 0.91573 0.87713 0.0
H690 H 0.01339 0.90222 0.73157 0.0
H691 H 0.0168 0.93382 0.68539 0.0
H692 H 0.7177 0.98811 0.97676 0.0
H693 H 0.69094 0.99382 0.90783 0.0
H694 H 0.68123 0.04836 0.97463 0.0
H695 H 0.70778 0.04253 0.04404 0.0
H696 H 0.64824 0.02502 0.99441 0.0
H697 H 0.67734 0.0252 0.75637 0.0
H698 H 0.68644 0.00615 0.80287 0.0
H699 H 0.69332 0.02969 0.81621 0.0
C700 C 0.71058 0.00167 0.97433 0.0
C701 C 0.71476 0.0149 0.01545 0.0
C702 C 0.69523 0.00493 0.93507 0.0
C703 C 0.68405 0.02152 0.93616 0.0
C704 C 0.68968 0.03548 0.97298 0.0
H705 H 0.57348 0.04128 0.7472 0.0
H706 H 0.60607 0.04597 0.78981 0.0
C707 C 0.70493 0.03221 0.0123 0.0
C708 C 0.6644 0.02278 0.90837 0.0
H709 H 0.64178 0.01944 0.77684 0.0
C710 C 0.64687 0.0241 0.94666 0.0
C711 C 0.66261 0.02154 0.84618 0.0
C712 C 0.68093 0.02073 0.80286 0.0
C713 C 0.6276 0.02355 0.92478 0.0
C714 C 0.6258 0.02152 0.86309 0.0
C715 C 0.64327 0.02089 0.82426 0.0
C716 C 0.60585 0.01905 0.83886 0.0
C717 C 0.60926 0.02483 0.9679 0.0
C718 C 0.59494 0.00243 0.85293 0.0
C719 C 0.5764 0.99967 0.82868 0.0
C720 C 0.56839 0.01354 0.79007 0.0
C721 C 0.57916 0.03038 0.77717 0.0
C722 C 0.59783 0.03305 0.80107 0.0
H723 H 0.61313 0.03019 0.0112 0.0
H724 H 0.59772 0.03406 0.94807 0.0
H725 H 0.60244 0.01073 0.97723 0.0
H726 H 0.60097 0.99143 0.88186 0.0
H727 H 0.56853 0.98652 0.83935 0.0
H728 H 0.54158 0.69223 0.95933 0.0
H729 H 0.52995 0.67358 0.87996 0.0
H730 H 0.49672 0.63761 0.01396 0.0
H731 H 0.50722 0.65669 0.09196 0.0
H732 H 0.54126 0.64035 0.86758 0.0
H733 H 0.45869 0.63616 0.88784 0.0
H734 H 0.47216 0.65384 0.92334 0.0
H735 H 0.46713 0.63117 0.9613 0.0
C736 C 0.53109 0.68081 0.97131 0.0
C737 C 0.52554 0.67571 0.03179 0.0
C738 C 0.52453 0.67009 0.92603 0.0
C739 C 0.51232 0.65418 0.94065 0.0
C740 C 0.50565 0.65001 0.00085 0.0
H741 H 0.53185 0.54628 0.8337 0.0
H742 H 0.53057 0.57733 0.87189 0.0
C743 C 0.51196 0.66079 0.04573 0.0
C744 C 0.50953 0.64004 0.89608 0.0
H745 H 0.4761 0.60686 0.86106 0.0
C746 C 0.52685 0.63341 0.86487 0.0
C747 C 0.49074 0.63109 0.89086 0.0
C748 C 0.47115 0.63865 0.91719 0.0
C749 C 0.52623 0.61715 0.83355 0.0
C750 C 0.50798 0.60684 0.83534 0.0
C751 C 0.49026 0.6144 0.86141 0.0
C752 C 0.50747 0.58763 0.81457 0.0
C753 C 0.54533 0.61096 0.80023 0.0
C754 C 0.49397 0.58267 0.77248 0.0
C755 C 0.49433 0.56468 0.75157 0.0
C756 C 0.50827 0.55145 0.7723 0.0
C757 C 0.52112 0.55624 0.81632 0.0
C758 C 0.52055 0.57406 0.83772 0.0
H759 H 0.55504 0.62313 0.78419 0.0
H760 H 0.55408 0.60195 0.83103 0.0
H761 H 0.542 0.603 0.76108 0.0
H762 H 0.48356 0.59284 0.75463 0.0
H763 H 0.48426 0.56137 0.71756 0.0
H764 H 0.84102 0.44631 0.1731 0.0
H765 H 0.8677 0.44093 0.09515 0.0
H766 H 0.85051 0.49109 0.9954 0.0
H767 H 0.82353 0.49626 0.07254 0.0
H768 H 0.86579 0.46254 0.92169 0.0
H769 H 0.91541 0.47705 0.10433 0.0
H770 H 0.89875 0.45734 0.11956 0.0
H771 H 0.88848 0.48043 0.11137 0.0
C772 C 0.84248 0.45577 0.13335 0.0
C773 C 0.83042 0.47179 0.12889 0.0
C774 C 0.85776 0.45275 0.08912 0.0
C775 C 0.86137 0.46588 0.04044 0.0
C776 C 0.848 0.48084 0.03282 0.0
H777 H 0.96847 0.50969 0.85837 0.0
H778 H 0.93766 0.50176 0.92025 0.0
C779 C 0.83256 0.48376 0.07676 0.0
C780 C 0.88061 0.46575 0.00302 0.0
H781 H 0.93128 0.47276 0.0096 0.0
C782 C 0.88016 0.46452 0.94082 0.0
C783 C 0.89928 0.46868 0.02824 0.0
C784 C 0.90062 0.47112 0.09441 0.0
C785 C 0.89791 0.46645 0.90295 0.0
C786 C 0.91651 0.46948 0.92829 0.0
C787 C 0.91699 0.47027 0.99055 0.0
C788 C 0.93538 0.47374 0.89088 0.0
C789 C 0.89655 0.4661 0.83604 0.0
C790 C 0.94451 0.46045 0.85468 0.0
C791 C 0.96224 0.46493 0.81917 0.0
C792 C 0.97107 0.48276 0.8195 0.0
C793 C 0.96207 0.49584 0.85695 0.0
C794 C 0.94444 0.49135 0.89232 0.0
H795 H 0.88068 0.46678 0.82313 0.0
H796 H 0.90516 0.47796 0.81235 0.0
H797 H 0.90329 0.45299 0.82045 0.0
H798 H 0.93792 0.44667 0.85382 0.0
H799 H 0.96881 0.45455 0.7908 0.0
H800 H 0.04096 0.18012 0.16109 0.0
H801 H 0.04513 0.15597 0.08915 0.0
H802 H 0.10887 0.16841 0.0646 0.0
H803 H 0.10467 0.19277 0.13722 0.0
H804 H 0.06249 0.15561 0.96643 0.0
H805 H 0.1043 0.11272 0.13339 0.0
H806 H 0.08968 0.13276 0.15414 0.0
H807 H 0.11339 0.13595 0.11132 0.0
C808 C 0.05575 0.17802 0.13909 0.0
C809 C 0.07251 0.18819 0.1544 0.0
C810 C 0.05813 0.16424 0.09815 0.0
C811 C 0.07734 0.16028 0.07225 0.0
C812 C 0.09396 0.1712 0.08463 0.0
H813 H 0.08521 0.06405 0.84412 0.0
H814 H 0.09617 0.09244 0.88882 0.0
C815 C 0.09154 0.18515 0.12552 0.0
C816 C 0.07976 0.14359 0.037 0.0
H817 H 0.09365 0.0978 0.05067 0.0
C818 C 0.06977 0.14309 0.98388 0.0
C819 C 0.08908 0.12725 0.06049 0.0
C820 C 0.09967 0.127 0.1181 0.0
C821 C 0.06804 0.12643 0.95508 0.0
C822 C 0.07646 0.10993 0.98027 0.0
C823 C 0.08733 0.11057 0.0316 0.0
C824 C 0.0718 0.09162 0.958 0.0
C825 C 0.05621 0.12621 0.8999 0.0
C826 C 0.05484 0.08163 0.98341 0.0
C827 C 0.04856 0.06551 0.95815 0.0
C828 C 0.0592 0.05908 0.90718 0.0
C829 C 0.07686 0.06857 0.88381 0.0
C830 C 0.08307 0.08481 0.90897 0.0
H831 H 0.05144 0.14041 0.88419 0.0
H832 H 0.06547 0.12004 0.86309 0.0
H833 H 0.04255 0.11732 0.90984 0.0
H834 H 0.046 0.08674 0.02135 0.0
H835 H 0.03498 0.05841 0.97721 0.0
H836 H 0.3417 0.97359 0.1533 0.0
H837 H 0.36873 0.97786 0.07394 0.0
H838 H 0.35074 0.03503 0.04008 0.0
H839 H 0.32376 0.03091 0.12063 0.0
H840 H 0.36939 0.98942 0.95097 0.0
H841 H 0.41019 0.03929 0.08127 0.0
H842 H 0.3895 0.02496 0.11449 0.0
H843 H 0.38462 0.04515 0.06625 0.0
C844 C 0.34334 0.98702 0.12845 0.0
C845 C 0.33075 0.00197 0.14351 0.0
C846 C 0.35877 0.98943 0.08307 0.0
C847 C 0.362 0.00686 0.05194 0.0
C848 C 0.34872 0.02155 0.06435 0.0
H849 H 0.46608 0.03763 0.79987 0.0
H850 H 0.43451 0.03914 0.86298 0.0
C851 C 0.33318 0.01912 0.10982 0.0
C852 C 0.37992 0.00963 0.00888 0.0
H853 H 0.42613 0.03113 0.98971 0.0
C854 C 0.38171 0.99867 0.9591 0.0
C855 C 0.396 0.02171 0.01962 0.0
C856 C 0.39517 0.03338 0.07347 0.0
C857 C 0.39928 0.9992 0.92039 0.0
C858 C 0.41563 0.01076 0.93239 0.0
C859 C 0.41359 0.02224 0.98083 0.0
C860 C 0.43532 0.0103 0.89697 0.0
C861 C 0.40024 0.98728 0.86714 0.0
C862 C 0.44656 0.99378 0.8969 0.0
C863 C 0.46459 0.99289 0.8613 0.0
C864 C 0.47182 0.00853 0.82506 0.0
C865 C 0.46095 0.02532 0.82719 0.0
C866 C 0.44288 0.02621 0.86304 0.0
H867 H 0.38492 0.98339 0.85479 0.0
H868 H 0.40844 0.99461 0.82756 0.0
H869 H 0.40845 0.97422 0.8785 0.0
H870 H 0.44122 0.98146 0.92381 0.0
H871 H 0.47259 0.97975 0.86106 0.0
H872 H 0.51901 0.35032 0.16275 0.0
H873 H 0.51513 0.37502 0.08427 0.0
H874 H 0.45811 0.35123 0.04549 0.0
H875 H 0.46189 0.32634 0.1248 0.0
H876 H 0.50799 0.37064 0.95591 0.0
H877 H 0.44713 0.40788 0.08379 0.0
H878 H 0.46378 0.39172 0.12089 0.0
H879 H 0.44465 0.38312 0.07677 0.0
C880 C 0.50567 0.35031 0.1374 0.0
C881 C 0.49066 0.33653 0.15007 0.0
C882 C 0.5035 0.36438 0.09255 0.0
C883 C 0.48625 0.36503 0.05972 0.0
C884 C 0.47144 0.35102 0.07089 0.0
H885 H 0.46783 0.45861 0.79321 0.0
H886 H 0.46048 0.43037 0.85899 0.0
C887 C 0.47368 0.33678 0.11572 0.0
C888 C 0.48399 0.3807 0.01462 0.0
H889 H 0.46146 0.42319 0.99494 0.0
C890 C 0.49756 0.38198 0.96379 0.0
C891 C 0.47033 0.39542 0.02515 0.0
C892 C 0.45563 0.39466 0.07962 0.0
C893 C 0.49843 0.39797 0.92441 0.0
C894 C 0.48564 0.41316 0.93691 0.0
C895 C 0.47128 0.41151 0.98584 0.0
C896 C 0.4885 0.43137 0.90271 0.0
C897 C 0.51347 0.39876 0.87068 0.0
C898 C 0.50625 0.4416 0.90761 0.0
C899 C 0.51045 0.45766 0.87056 0.0
C900 C 0.49695 0.46383 0.82785 0.0
C901 C 0.47852 0.45422 0.82569 0.0
C902 C 0.47433 0.43807 0.86299 0.0
H903 H 0.51839 0.38459 0.85892 0.0
H904 H 0.507 0.40598 0.83108 0.0
H905 H 0.52703 0.40671 0.88107 0.0
H906 H 0.51722 0.43676 0.93871 0.0
H907 H 0.5247 0.4648 0.87375 0.0
H908 H 0.19399 0.47016 0.13135 0.0
H909 H 0.16727 0.46166 0.06779 0.0
H910 H 0.18426 0.50816 0.94287 0.0
H911 H 0.21127 0.51643 0.0058 0.0
H912 H 0.13639 0.4845 0.05084 0.0
H913 H 0.17198 0.46872 0.8295 0.0
H914 H 0.18607 0.4691 0.89569 0.0
H915 H 0.18079 0.49049 0.85339 0.0
C916 C 0.19239 0.47818 0.08931 0.0
C917 C 0.20459 0.49396 0.07337 0.0
C918 C 0.17714 0.47333 0.05312 0.0
C919 C 0.17381 0.48421 0.00045 0.0
C920 C 0.18682 0.49931 0.98258 0.0
H921 H 0.06401 0.51587 0.85125 0.0
H922 H 0.09388 0.5113 0.90806 0.0
C923 C 0.20222 0.50406 0.01858 0.0
C924 C 0.15508 0.48154 0.96943 0.0
H925 H 0.13692 0.47789 0.83158 0.0
C926 C 0.13653 0.48272 0.00305 0.0
C927 C 0.15523 0.47905 0.90726 0.0
C928 C 0.1746 0.47657 0.8695 0.0
C929 C 0.11817 0.48236 0.97573 0.0
C930 C 0.11838 0.48116 0.91296 0.0
C931 C 0.13684 0.47903 0.87968 0.0
C932 C 0.09973 0.48334 0.88064 0.0
C933 C 0.09873 0.48354 0.01427 0.0
C934 C 0.09323 0.46918 0.84591 0.0
C935 C 0.07614 0.47176 0.81314 0.0
C936 C 0.0654 0.48863 0.81419 0.0
C937 C 0.07185 0.50267 0.8497 0.0
C938 C 0.08889 0.50006 0.88241 0.0
H939 H 0.10072 0.4786 0.06154 0.0
H940 H 0.09379 0.4983 0.01405 0.0
H941 H 0.08656 0.47516 0.99696 0.0
H942 H 0.10148 0.45621 0.84381 0.0
H943 H 0.07162 0.46072 0.78599 0.0
H944 H 0.97809 0.80694 0.27485 0.0
H945 H 0.97341 0.83342 0.33764 0.0
H946 H 0.92548 0.85387 0.23051 0.0
H947 H 0.93065 0.82765 0.16644 0.0
H948 H 0.95297 0.87958 0.2342 0.0
H949 H 0.93511 0.8513 0.46652 0.0
H950 H 0.95717 0.8403 0.43471 0.0
H951 H 0.93322 0.83728 0.40292 0.0
C952 C 0.96605 0.8167 0.26624 0.0
C953 C 0.95471 0.8153 0.21599 0.0
C954 C 0.96333 0.83184 0.30222 0.0
C955 C 0.94897 0.84562 0.28918 0.0
C956 C 0.93662 0.84342 0.24153 0.0
H957 H 0.94806 0.94252 0.51128 0.0
H958 H 0.93532 0.91669 0.4576 0.0
C959 C 0.93952 0.82843 0.20512 0.0
C960 C 0.94905 0.86352 0.31898 0.0
H961 H 0.95133 0.88187 0.45534 0.0
C962 C 0.95217 0.8801 0.28262 0.0
C963 C 0.94774 0.86434 0.38209 0.0
C964 C 0.9429 0.84735 0.42371 0.0
C965 C 0.95521 0.89722 0.30752 0.0
C966 C 0.95567 0.89774 0.37042 0.0
C967 C 0.95129 0.88142 0.407 0.0
C968 C 0.96232 0.91463 0.39872 0.0
C969 C 0.95826 0.91454 0.26601 0.0
C970 C 0.98162 0.92216 0.38294 0.0
C971 C 0.98883 0.93698 0.41301 0.0
C972 C 0.977 0.94445 0.46005 0.0
C973 C 0.95743 0.93724 0.4747 0.0
C974 C 0.9502 0.92239 0.44445 0.0
H975 H 0.9506 0.9132 0.22385 0.0
H976 H 0.95246 0.92714 0.28762 0.0
H977 H 0.97463 0.91655 0.25375 0.0
H978 H 0.99141 0.91617 0.34865 0.0
H979 H 0.00391 0.94228 0.40043 0.0
H980 H 0.71105 0.96952 0.25379 0.0
H981 H 0.68286 0.96579 0.33084 0.0
H982 H 0.66828 0.02397 0.30114 0.0
H983 H 0.69629 0.02778 0.22461 0.0
H984 H 0.6706 0.98647 0.43955 0.0
H985 H 0.61742 0.99391 0.2585 0.0
H986 H 0.64385 0.98868 0.24413 0.0
H987 H 0.63607 0.01215 0.25675 0.0
C988 C 0.70215 0.98159 0.26496 0.0
C989 C 0.70571 0.99889 0.23286 0.0
C990 C 0.68601 0.97943 0.30865 0.0
C991 C 0.67327 0.99453 0.32067 0.0
C992 C 0.67773 0.01208 0.29172 0.0
H993 H 0.56345 0.02118 0.51605 0.0
H994 H 0.59388 0.01911 0.44936 0.0
C995 C 0.69375 0.01424 0.24819 0.0
C996 C 0.65451 0.99187 0.3601 0.0
H997 H 0.60322 0.99502 0.35845 0.0
C998 C 0.65583 0.98811 0.42195 0.0
C999 C 0.63529 0.99395 0.33678 0.0
C1000 C 0.63296 0.99723 0.27034 0.0
C1001 C 0.63841 0.98722 0.46152 0.0
C1002 C 0.61921 0.98985 0.43828 0.0
C1003 C 0.61793 0.99305 0.37619 0.0
C1004 C 0.60036 0.99051 0.4777 0.0
C1005 C 0.64073 0.98428 0.52803 0.0
C1006 C 0.59357 0.97494 0.51478 0.0
C1007 C 0.57608 0.97605 0.55304 0.0
C1008 C 0.56504 0.99275 0.55472 0.0
C1009 C 0.57157 0.00811 0.51605 0.0
C1010 C 0.589 0.00697 0.4779 0.0
H1011 H 0.65658 0.98636 0.53938 0.0
H1012 H 0.63088 0.99397 0.55331 0.0
H1013 H 0.63612 0.9698 0.54327 0.0
H1014 H 0.60187 0.96198 0.51442 0.0
H1015 H 0.57146 0.96396 0.58216 0.0
H1016 H 0.53944 0.67595 0.29163 0.0
H1017 H 0.54426 0.64948 0.36357 0.0
H1018 H 0.58538 0.62467 0.23413 0.0
H1019 H 0.57991 0.65081 0.16149 0.0
H1020 H 0.55695 0.6011 0.27154 0.0
H1021 H 0.58594 0.63016 0.47165 0.0
H1022 H 0.56359 0.64215 0.45069 0.0
H1023 H 0.58599 0.64343 0.40039 0.0
C1024 C 0.55002 0.66513 0.27948 0.0
C1025 C 0.55935 0.66535 0.22135 0.0
C1026 C 0.55284 0.65003 0.32063 0.0
C1027 C 0.56536 0.63511 0.30457 0.0
C1028 C 0.5757 0.636 0.24763 0.0
H1029 H 0.57287 0.53924 0.56746 0.0
H1030 H 0.58327 0.56489 0.49432 0.0
C1031 C 0.57264 0.65093 0.20627 0.0
C1032 C 0.56534 0.61756 0.34344 0.0
H1033 H 0.56842 0.60038 0.48823 0.0
C1034 C 0.55985 0.60093 0.31868 0.0
C1035 C 0.56937 0.61716 0.40478 0.0
C1036 C 0.57677 0.63417 0.43319 0.0
C1037 C 0.55727 0.58418 0.35409 0.0
C1038 C 0.5597 0.58414 0.41634 0.0
C1039 C 0.56628 0.60049 0.4406 0.0
C1040 C 0.55403 0.56772 0.45756 0.0
C1041 C 0.55171 0.56675 0.32448 0.0
C1042 C 0.53419 0.56077 0.46093 0.0
C1043 C 0.52825 0.54609 0.5022 0.0
C1044 C 0.54197 0.53818 0.54159 0.0
C1045 C 0.56196 0.54495 0.53754 0.0
C1046 C 0.56791 0.55965 0.49598 0.0
H1047 H 0.5572 0.56749 0.27639 0.0
H1048 H 0.55804 0.55409 0.34718 0.0
H1049 H 0.53502 0.56532 0.3267 0.0
H1050 H 0.52308 0.56706 0.43274 0.0
H1051 H 0.5127 0.54134 0.50436 0.0
H1052 H 0.82518 0.52283 0.32919 0.0
H1053 H 0.85157 0.53161 0.3942 0.0
H1054 H 0.87066 0.47429 0.41142 0.0
H1055 H 0.84443 0.46544 0.34646 0.0
H1056 H 0.86755 0.50194 0.525 0.0
H1057 H 0.91437 0.52212 0.31436 0.0
H1058 H 0.88797 0.52812 0.32164 0.0
H1059 H 0.89515 0.50425 0.31561 0.0
C1060 C 0.83458 0.51204 0.34853 0.0
C1061 C 0.83287 0.49347 0.33284 0.0
C1062 C 0.84966 0.51708 0.38529 0.0
C1063 C 0.863 0.50358 0.4071 0.0
C1064 C 0.86041 0.48485 0.39493 0.0
H1065 H 0.97825 0.48698 0.52998 0.0
H1066 H 0.94695 0.4893 0.47867 0.0
C1067 C 0.84549 0.47983 0.3579 0.0
C1068 C 0.8811 0.50905 0.43656 0.0
H1069 H 0.93057 0.52116 0.40468 0.0
C1070 C 0.88125 0.50653 0.49908 0.0
C1071 C 0.89888 0.51485 0.40211 0.0
C1072 C 0.8993 0.51754 0.33464 0.0
C1073 C 0.89908 0.50906 0.52806 0.0
C1074 C 0.91705 0.51422 0.49334 0.0
C1075 C 0.91669 0.51734 0.431 0.0
C1076 C 0.93675 0.5143 0.5202 0.0
C1077 C 0.8989 0.50525 0.59515 0.0
C1078 C 0.94159 0.52796 0.55904 0.0
C1079 C 0.95957 0.52676 0.58822 0.0
C1080 C 0.97285 0.5118 0.57916 0.0
C1081 C 0.9683 0.49862 0.53812 0.0
C1082 C 0.95044 0.49992 0.50876 0.0
H1083 H 0.88417 0.49955 0.61471 0.0
H1084 H 0.91097 0.4952 0.60651 0.0
H1085 H 0.90202 0.51841 0.61641 0.0
H1086 H 0.93123 0.53925 0.56788 0.0
H1087 H 0.96265 0.53711 0.61965 0.0
loop_
_geom_bond_atom_site_label_1
_geom_bond_atom_site_label_2
_geom_bond_distance
_geom_bond_site_symmetry_2
_ccdc_geom_bond_type
H0 C3 0.929 . S
H1 C6 0.929 . S
H2 C8 0.930 . S
C3 H0 0.929 . S
C3 C4 1.398 . S
C3 C5 1.396 . S
C4 C3 1.398 . S
C4 C8 1.407 . S
C5 C3 1.396 . S
C5 C6 1.394 . S
C6 H1 0.929 . S
C6 C5 1.394 . S
C6 C7 1.382 . S
C7 C6 1.382 . S
C7 C8 1.392 . S
C7 N9 1.420 . S
C8 H2 0.930 . S
C8 C4 1.407 . S
C8 C7 1.392 . S
N9 C7 1.420 . S
N9 C10 1.244 . S
C10 N9 1.244 . S
H11 C14 0.929 . S
H12 C17 0.929 . S
H13 C19 0.930 . S
C14 H11 0.929 . S
C14 C15 1.398 . S
C14 C16 1.396 1_554 S
C15 C14 1.398 . S
C15 C19 1.407 . S
C16 C14 1.396 1_556 S
C16 C17 1.394 . S
C17 H12 0.929 . S
C17 C16 1.394 . S
C17 C18 1.382 1_556 S
C18 C17 1.382 1_554 S
C18 C19 1.392 . S
C18 N20 1.420 . S
C19 H13 0.930 . S
C19 C15 1.407 . S
C19 C18 1.392 . S
N20 C18 1.420 . S
N20 C21 1.244 1_554 S
C21 N20 1.244 1_556 S
H22 C25 0.929 . S
H23 C28 0.929 1_556 S
H24 C30 0.930 . S
C25 H22 0.929 . S
C25 C26 1.394 1_565 S
C25 C27 1.395 1_565 S
C26 C25 1.394 1_545 S
C26 C30 1.412 . S
C27 C25 1.395 1_545 S
C27 C28 1.396 . S
C28 H23 0.929 1_554 S
C28 C27 1.396 . S
C28 C29 1.382 . S
C29 C28 1.382 . S
C29 C30 1.392 . S
C29 N31 1.420 . S
C30 H24 0.930 . S
C30 C26 1.412 . S
C30 C29 1.392 . S
N31 C29 1.420 . S
N31 C32 1.230 1_545 S
C32 N31 1.230 1_565 S
H33 C36 0.929 . S
H34 C39 0.929 1_556 S
H35 C41 0.930 . S
C36 H33 0.929 . S
C36 C37 1.398 . S
C36 C38 1.396 . S
C37 C36 1.398 . S
C37 C41 1.407 . S
C38 C36 1.396 . S
C38 C39 1.394 . S
C39 H34 0.929 1_554 S
C39 C38 1.394 . S
C39 C40 1.382 . S
C40 C39 1.382 . S
C40 C41 1.392 . S
C40 N42 1.420 . S
C41 H35 0.930 . S
C41 C37 1.407 . S
C41 C40 1.392 . S
N42 C40 1.420 . S
N42 C43 1.244 . S
C43 N42 1.244 . S
H44 C47 0.929 . S
H45 C50 0.929 . S
H46 C52 0.930 . S
C47 H44 0.929 . S
C47 C48 1.398 . S
C47 C49 1.396 . S
C48 C47 1.398 . S
C48 C52 1.407 . S
C49 C47 1.396 . S
C49 C50 1.394 . S
C50 H45 0.929 . S
C50 C49 1.394 . S
C50 C51 1.382 . S
C51 C50 1.382 . S
C51 C52 1.392 . S
C51 N53 1.420 . S
C52 H46 0.930 . S
C52 C48 1.407 . S
C52 C51 1.392 . S
N53 C51 1.420 . S
N53 C54 1.244 . S
C54 N53 1.244 . S
H55 C58 0.929 . S
H56 C61 0.929 . S
H57 C63 0.930 . S
C58 H55 0.929 . S
C58 C59 1.398 . S
C58 C60 1.396 . S
C59 C58 1.398 . S
C59 C63 1.407 . S
C60 C58 1.396 . S
C60 C61 1.394 . S
C61 H56 0.929 . S
C61 C60 1.394 . S
C61 C62 1.382 . S
C62 C61 1.382 . S
C62 C63 1.392 . S
C62 N64 1.420 . S
C63 H57 0.930 . S
C63 C59 1.407 . S
C63 C62 1.392 . S
N64 C62 1.420 . S
N64 C65 1.244 . S
C65 N64 1.244 . S
H66 C69 0.929 . S
H67 C72 0.929 . S
H68 C74 0.930 . S
C69 H66 0.929 . S
C69 C70 1.397 1_565 S
C69 C71 1.392 1_565 S
C70 C69 1.397 1_545 S
C70 C74 1.416 . S
C71 C69 1.392 1_545 S
C71 C72 1.399 . S
C72 H67 0.929 . S
C72 C71 1.399 . S
C72 C73 1.382 . S
C73 C72 1.382 . S
C73 C74 1.392 . S
C73 N75 1.420 . S
C74 H68 0.930 . S
C74 C70 1.416 . S
C74 C73 1.392 . S
N75 C73 1.420 . S
N75 C76 1.239 1_545 S
C76 N75 1.239 1_565 S
H77 C80 0.929 . S
H78 C83 0.929 . S
H79 C85 0.930 . S
C80 H77 0.929 . S
C80 C81 1.398 . S
C80 C82 1.396 . S
C81 C80 1.398 . S
C81 C85 1.407 . S
C82 C80 1.396 . S
C82 C83 1.394 . S
C83 H78 0.929 . S
C83 C82 1.394 . S
C83 C84 1.382 . S
C84 C83 1.382 . S
C84 C85 1.392 . S
C84 N86 1.420 . S
C85 H79 0.930 . S
C85 C81 1.407 . S
C85 C84 1.392 . S
N86 C84 1.420 . S
N86 C87 1.244 . S
C87 N86 1.244 . S
C88 O104 1.251 . S
C88 O106 1.254 . S
N89 C90 1.333 . S
N89 C94 1.307 1_455 S
N89 Zn95 2.020 . S
C90 N89 1.333 . S
C90 C91 1.379 . S
C90 H108 0.952 . S
C91 C90 1.379 . S
C91 C92 1.390 1_455 S
C91 H118 0.949 . S
C92 C91 1.390 1_655 S
C92 C93 1.357 . S
C93 C92 1.357 . S
C93 C94 1.370 . S
C93 H119 0.950 . S
C94 N89 1.307 1_655 S
C94 C93 1.370 . S
C94 H112 0.948 . S
Zn95 N89 2.020 . S
Zn95 O104 2.039 . S
Zn95 O110 2.034 . S
Zn95 O114 2.025 1_565 S
Zn95 O116 2.024 1_455 S
C96 O115 1.246 . S
C96 O116 1.249 1_545 S
N97 C98 1.307 . S
N97 C99 1.333 . S
N97 Zn103 2.020 . S
C98 N97 1.307 . S
C98 C102 1.370 . S
C98 H109 0.948 . S
C99 N97 1.333 . S
C99 C100 1.379 . S
C99 H107 0.952 . S
C100 C99 1.379 . S
C100 C101 1.390 . S
C100 H120 0.949 . S
C101 C100 1.390 . S
C101 C102 1.357 . S
C102 C98 1.370 . S
C102 C101 1.357 . S
C102 H121 0.950 . S
Zn103 N97 2.020 . S
Zn103 O106 2.025 1_545 S
Zn103 O111 2.024 . S
Zn103 O113 2.039 . S
Zn103 O115 2.034 1_455 S
O104 C88 1.251 . S
O104 Zn95 2.039 . S
C105 O110 1.246 . S
C105 O111 1.249 1_565 S
O106 C88 1.254 . S
O106 Zn103 2.025 1_565 S
H107 C99 0.952 . S
H108 C90 0.952 . S
H109 C98 0.948 . S
O110 Zn95 2.034 . S
O110 C105 1.246 . S
O111 Zn103 2.024 . S
O111 C105 1.249 1_545 S
H112 C94 0.948 . S
O113 Zn103 2.039 . S
O113 C117 1.251 . S
O114 Zn95 2.025 1_545 S
O114 C117 1.254 . S
O115 C96 1.246 . S
O115 Zn103 2.034 1_655 S
O116 Zn95 2.024 1_655 S
O116 C96 1.249 1_565 S
C117 O113 1.251 . S
C117 O114 1.254 . S
H118 C91 0.949 . S
H119 C93 0.950 . S
H120 C100 0.949 . S
H121 C102 0.950 . S
C122 O138 1.251 1_565 S
C122 O140 1.254 . S
N123 C124 1.333 . S
N123 C128 1.307 . S
N123 Zn129 2.020 . S
C124 N123 1.333 . S
C124 C125 1.379 . S
C124 H142 0.952 . S
C125 C124 1.379 . S
C125 C126 1.390 . S
C125 H152 0.949 . S
C126 C125 1.390 . S
C126 C127 1.357 . S
C127 C126 1.357 . S
C127 C128 1.370 . S
C127 H153 0.950 . S
C128 N123 1.307 . S
C128 C127 1.370 . S
C128 H146 0.948 . S
Zn129 N123 2.020 . S
Zn129 O138 2.039 . S
Zn129 O144 2.034 . S
Zn129 O148 2.025 . S
Zn129 O150 2.024 . S
C130 O149 1.246 1_545 S
C130 O150 1.249 . S
N131 C132 1.307 . S
N131 C133 1.333 . S
N131 Zn137 2.020 . S
C132 N131 1.307 . S
C132 C136 1.370 . S
C132 H143 0.948 . S
C133 N131 1.333 . S
C133 C134 1.379 . S
C133 H141 0.952 . S
C134 C133 1.379 . S
C134 C135 1.390 . S
C134 H154 0.949 . S
C135 C134 1.390 . S
C135 C136 1.357 . S
C136 C132 1.370 . S
C136 C135 1.357 . S
C136 H155 0.950 . S
Zn137 N131 2.020 . S
Zn137 O140 2.025 . S
Zn137 O145 2.024 . S
Zn137 O147 2.039 . S
Zn137 O149 2.034 . S
O138 C122 1.251 1_545 S
O138 Zn129 2.039 . S
C139 O144 1.246 1_565 S
C139 O145 1.249 . S
O140 C122 1.254 . S
O140 Zn137 2.025 . S
H141 C133 0.952 . S
H142 C124 0.952 . S
H143 C132 0.948 . S
O144 Zn129 2.034 . S
O144 C139 1.246 1_545 S
O145 Zn137 2.024 . S
O145 C139 1.249 . S
H146 C128 0.948 . S
O147 Zn137 2.039 . S
O147 C151 1.251 1_565 S
O148 Zn129 2.025 . S
O148 C151 1.254 . S
O149 C130 1.246 1_565 S
O149 Zn137 2.034 . S
O150 Zn129 2.024 . S
O150 C130 1.249 . S
C151 O147 1.251 1_545 S
C151 O148 1.254 . S
H152 C125 0.949 . S
H153 C127 0.950 . S
H154 C134 0.949 . S
H155 C136 0.950 . S
C156 O172 1.251 . S
C156 O174 1.254 . S
N157 C158 1.333 . S
N157 C162 1.307 . S
N157 Zn163 2.020 . S
C158 N157 1.333 . S
C158 C159 1.379 . S
C158 H176 0.952 . S
C159 C158 1.379 . S
C159 C160 1.390 . S
C159 H186 0.949 . S
C160 C159 1.390 . S
C160 C161 1.357 . S
C161 C160 1.357 . S
C161 C162 1.370 . S
C161 H187 0.950 . S
C162 N157 1.307 . S
C162 C161 1.370 . S
C162 H180 0.948 . S
Zn163 N157 2.020 . S
Zn163 O172 2.039 . S
Zn163 O178 2.034 . S
Zn163 O182 2.025 . S
Zn163 O184 2.024 . S
C164 O183 1.246 . S
C164 O184 1.249 . S
N165 C166 1.307 . S
N165 C167 1.333 . S
N165 Zn171 2.020 . S
C166 N165 1.307 . S
C166 C170 1.370 . S
C166 H177 0.948 . S
C167 N165 1.333 . S
C167 C168 1.379 . S
C167 H175 0.952 . S
C168 C167 1.379 . S
C168 C169 1.390 . S
C168 H188 0.949 . S
C169 C168 1.390 . S
C169 C170 1.357 . S
C170 C166 1.370 . S
C170 C169 1.357 . S
C170 H189 0.950 . S
Zn171 N165 2.020 . S
Zn171 O174 2.025 . S
Zn171 O179 2.024 . S
Zn171 O181 2.039 . S
Zn171 O183 2.034 . S
O172 C156 1.251 . S
O172 Zn163 2.039 . S
C173 O178 1.246 . S
C173 O179 1.249 . S
O174 C156 1.254 . S
O174 Zn171 2.025 . S
H175 C167 0.952 . S
H176 C158 0.952 . S
H177 C166 0.948 . S
O178 Zn163 2.034 . S
O178 C173 1.246 . S
O179 Zn171 2.024 . S
O179 C173 1.249 . S
H180 C162 0.948 . S
O181 Zn171 2.039 . S
O181 C185 1.251 . S
O182 Zn163 2.025 . S
O182 C185 1.254 . S
O183 C164 1.246 . S
O183 Zn171 2.034 . S
O184 Zn163 2.024 . S
O184 C164 1.249 . S
C185 O181 1.251 . S
C185 O182 1.254 . S
H186 C159 0.949 . S
H187 C161 0.950 . S
H188 C168 0.949 . S
H189 C170 0.950 . S
C190 O206 1.251 . S
C190 O208 1.254 . S
N191 C192 1.333 . S
N191 C196 1.307 . S
N191 Zn197 2.020 . S
C192 N191 1.333 . S
C192 C193 1.379 . S
C192 H210 0.952 . S
C193 C192 1.379 . S
C193 C194 1.390 . S
C193 H220 0.949 . S
C194 C193 1.390 . S
C194 C195 1.357 . S
C195 C194 1.357 . S
C195 C196 1.370 . S
C195 H221 0.950 . S
C196 N191 1.307 . S
C196 C195 1.370 . S
C196 H214 0.948 . S
Zn197 N191 2.020 . S
Zn197 O206 2.039 . S
Zn197 O212 2.046 . S
Zn197 O216 2.025 1_455 S
Zn197 O218 2.024 . S
C198 O217 1.246 . S
C198 O218 1.249 . S
N199 C200 1.307 . S
N199 C201 1.333 . S
N199 Zn205 2.020 . S
C200 N199 1.307 . S
C200 C204 1.370 . S
C200 H211 0.948 . S
C201 N199 1.333 . S
C201 C202 1.379 . S
C201 H209 0.940 1_455 S
C202 C201 1.379 . S
C202 C203 1.390 . S
C202 H222 0.949 1_455 S
C203 C202 1.390 . S
C203 C204 1.357 . S
C204 C200 1.370 . S
C204 C203 1.357 . S
C204 H223 0.950 . S
Zn205 N199 2.020 . S
Zn205 O208 2.025 . S
Zn205 O213 2.024 1_455 S
Zn205 O215 2.039 1_455 S
Zn205 O217 2.034 . S
O206 C190 1.251 . S
O206 Zn197 2.039 . S
C207 O212 1.237 1_655 S
C207 O213 1.249 . S
O208 C190 1.254 . S
O208 Zn205 2.025 . S
H209 C201 0.940 1_655 S
H210 C192 0.952 . S
H211 C200 0.948 . S
O212 Zn197 2.046 . S
O212 C207 1.237 1_455 S
O213 Zn205 2.024 1_655 S
O213 C207 1.249 . S
H214 C196 0.948 . S
O215 Zn205 2.039 1_655 S
O215 C219 1.251 . S
O216 Zn197 2.025 1_655 S
O216 C219 1.254 . S
O217 C198 1.246 . S
O217 Zn205 2.034 . S
O218 Zn197 2.024 . S
O218 C198 1.249 . S
C219 O215 1.251 . S
C219 O216 1.254 . S
H220 C193 0.949 . S
H221 C195 0.950 . S
H222 C202 0.949 1_655 S
H223 C204 0.950 . S
H224 C232 0.929 . S
H225 C234 0.930 . S
H226 C236 0.930 . S
H227 C239 0.929 . S
H228 C242 0.930 . S
H229 C244 0.960 . S
H230 C244 0.960 . S
H231 C244 0.960 1_545 S
C232 H224 0.929 . S
C232 C233 1.394 . S
C232 C234 1.384 . S
C233 C232 1.394 . S
C233 C239 1.373 1_565 S
C234 H225 0.930 . S
C234 C232 1.384 . S
C234 C235 1.372 . S
C235 C234 1.372 . S
C235 C236 1.400 1_565 S
C235 C240 1.490 . S
C236 H226 0.930 . S
C236 C235 1.400 1_545 S
C236 C239 1.386 . S
H237 C253 0.930 . S
H238 C254 0.931 . S
C239 H227 0.929 . S
C239 C233 1.373 1_545 S
C239 C236 1.386 . S
C240 C235 1.490 . S
C240 C242 1.395 . S
C240 C243 1.403 . S
H241 C247 0.930 . S
C242 H228 0.930 . S
C242 C240 1.395 . S
C242 C245 1.403 . S
C243 C240 1.403 . S
C243 C244 1.524 . S
C243 C247 1.400 . S
C244 H229 0.960 . S
C244 H230 0.960 . S
C244 H231 0.960 1_565 S
C244 C243 1.524 . S
C245 C242 1.403 . S
C245 C246 1.392 . S
C245 C249 1.495 . S
C246 C245 1.392 . S
C246 C247 1.385 . S
C246 C248 1.478 . S
C247 H241 0.930 . S
C247 C243 1.400 . S
C247 C246 1.385 . S
C248 C246 1.478 . S
C248 C250 1.381 . S
C248 C254 1.383 1_565 S
C249 C245 1.495 . S
C249 H255 0.959 . S
C249 H256 0.961 1_565 S
C249 H257 0.960 . S
C250 C248 1.381 . S
C250 C251 1.394 . S
C250 H258 0.930 . S
C251 C250 1.394 . S
C251 C252 1.383 . S
C251 H259 0.929 . S
C252 C251 1.383 . S
C252 C253 1.377 1_565 S
C253 H237 0.930 . S
C253 C252 1.377 1_545 S
C253 C254 1.379 . S
C254 H238 0.931 . S
C254 C248 1.383 1_545 S
C254 C253 1.379 . S
H255 C249 0.959 . S
H256 C249 0.961 1_545 S
H257 C249 0.960 . S
H258 C250 0.930 . S
H259 C251 0.929 . S
H260 C268 0.929 . S
H261 C270 0.930 . S
H262 C272 0.930 . S
H263 C275 0.929 . S
H264 C278 0.930 . S
H265 C280 0.960 . S
H266 C280 0.960 . S
H267 C280 0.960 . S
C268 H260 0.929 . S
C268 C269 1.377 . S
C268 C270 1.384 . S
C269 C268 1.377 . S
C269 C275 1.390 . S
C270 H261 0.930 . S
C270 C268 1.384 . S
C270 C271 1.372 . S
C271 C270 1.372 . S
C271 C272 1.400 . S
C271 C276 1.490 . S
C272 H262 0.930 . S
C272 C271 1.400 . S
C272 C275 1.386 . S
H273 C289 0.930 . S
H274 C290 0.931 . S
C275 H263 0.929 . S
C275 C269 1.390 . S
C275 C272 1.386 . S
C276 C271 1.490 . S
C276 C278 1.395 . S
C276 C279 1.403 . S
H277 C283 0.930 . S
C278 H264 0.930 . S
C278 C276 1.395 . S
C278 C281 1.403 . S
C279 C276 1.403 . S
C279 C280 1.524 . S
C279 C283 1.400 . S
C280 H265 0.960 . S
C280 H266 0.960 . S
C280 H267 0.960 . S
C280 C279 1.524 . S
C281 C278 1.403 . S
C281 C282 1.392 . S
C281 C285 1.495 . S
C282 C281 1.392 . S
C282 C283 1.385 . S
C282 C284 1.478 . S
C283 H277 0.930 . S
C283 C279 1.400 . S
C283 C282 1.385 . S
C284 C282 1.478 . S
C284 C286 1.381 . S
C284 C290 1.383 . S
C285 C281 1.495 . S
C285 H291 0.959 . S
C285 H292 0.961 . S
C285 H293 0.960 . S
C286 C284 1.381 . S
C286 C287 1.394 . S
C286 H294 0.930 . S
C287 C286 1.394 . S
C287 C288 1.383 . S
C287 H295 0.929 . S
C288 C287 1.383 . S
C288 C289 1.377 . S
C289 H273 0.930 . S
C289 C288 1.377 . S
C289 C290 1.379 . S
C290 H274 0.931 . S
C290 C284 1.383 . S
C290 C289 1.379 . S
H291 C285 0.959 . S
H292 C285 0.961 . S
H293 C285 0.960 . S
H294 C286 0.930 . S
H295 C287 0.929 . S
H296 C304 0.929 . S
H297 C306 0.930 . S
H298 C308 0.930 . S
H299 C311 0.929 . S
H300 C314 0.930 . S
H301 C316 0.960 . S
H302 C316 0.960 . S
H303 C316 0.960 . S
C304 H296 0.929 . S
C304 C305 1.377 . S
C304 C306 1.384 . S
C305 C304 1.377 . S
C305 C311 1.390 . S
C306 H297 0.930 . S
C306 C304 1.384 . S
C306 C307 1.372 . S
C307 C306 1.372 . S
C307 C308 1.400 . S
C307 C312 1.490 . S
C308 H298 0.930 . S
C308 C307 1.400 . S
C308 C311 1.386 . S
H309 C325 0.930 . S
H310 C326 0.931 . S
C311 H299 0.929 . S
C311 C305 1.390 . S
C311 C308 1.386 . S
C312 C307 1.490 . S
C312 C314 1.395 . S
C312 C315 1.403 . S
H313 C319 0.930 . S
C314 H300 0.930 . S
C314 C312 1.395 . S
C314 C317 1.403 . S
C315 C312 1.403 . S
C315 C316 1.524 . S
C315 C319 1.400 . S
C316 H301 0.960 . S
C316 H302 0.960 . S
C316 H303 0.960 . S
C316 C315 1.524 . S
C317 C314 1.403 . S
C317 C318 1.392 . S
C317 C321 1.495 . S
C318 C317 1.392 . S
C318 C319 1.385 . S
C318 C320 1.478 . S
C319 H313 0.930 . S
C319 C315 1.400 . S
C319 C318 1.385 . S
C320 C318 1.478 . S
C320 C322 1.381 . S
C320 C326 1.383 . S
C321 C317 1.495 . S
C321 H327 0.959 . S
C321 H328 0.961 . S
C321 H329 0.960 . S
C322 C320 1.381 . S
C322 C323 1.394 . S
C322 H330 0.930 . S
C323 C322 1.394 . S
C323 C324 1.383 . S
C323 H331 0.929 . S
C324 C323 1.383 . S
C324 C325 1.377 . S
C325 H309 0.930 . S
C325 C324 1.377 . S
C325 C326 1.379 . S
C326 H310 0.931 . S
C326 C320 1.383 . S
C326 C325 1.379 . S
H327 C321 0.959 . S
H328 C321 0.961 . S
H329 C321 0.960 . S
H330 C322 0.930 . S
H331 C323 0.929 . S
H332 C340 0.929 . S
H333 C342 0.930 . S
H334 C344 0.930 . S
H335 C347 0.929 . S
H336 C350 0.930 . S
H337 C352 0.960 . S
H338 C352 0.960 . S
H339 C352 0.960 . S
C340 H332 0.929 . S
C340 C341 1.377 . S
C340 C342 1.384 . S
C341 C340 1.377 . S
C341 C347 1.390 . S
C342 H333 0.930 . S
C342 C340 1.384 . S
C342 C343 1.372 . S
C343 C342 1.372 . S
C343 C344 1.400 . S
C343 C348 1.490 . S
C344 H334 0.930 . S
C344 C343 1.400 . S
C344 C347 1.386 . S
H345 C361 0.930 . S
H346 C362 0.931 . S
C347 H335 0.929 . S
C347 C341 1.390 . S
C347 C344 1.386 . S
C348 C343 1.490 . S
C348 C350 1.395 . S
C348 C351 1.403 . S
H349 C355 0.930 . S
C350 H336 0.930 . S
C350 C348 1.395 . S
C350 C353 1.403 . S
C351 C348 1.403 . S
C351 C352 1.524 . S
C351 C355 1.400 . S
C352 H337 0.960 . S
C352 H338 0.960 . S
C352 H339 0.960 . S
C352 C351 1.524 . S
C353 C350 1.403 . S
C353 C354 1.392 . S
C353 C357 1.510 . S
C354 C353 1.392 . S
C354 C355 1.385 . S
C354 C356 1.478 . S
C355 H349 0.930 . S
C355 C351 1.400 . S
C355 C354 1.385 . S
C356 C354 1.478 . S
C356 C358 1.381 . S
C356 C362 1.383 . S
C357 C353 1.510 . S
C357 H363 0.950 1_455 S
C357 H364 0.962 1_455 S
C357 H365 0.953 1_455 S
C358 C356 1.381 . S
C358 C359 1.394 . S
C358 H366 0.930 . S
C359 C358 1.394 . S
C359 C360 1.383 . S
C359 H367 0.929 . S
C360 C359 1.383 . S
C360 C361 1.377 . S
C361 H345 0.930 . S
C361 C360 1.377 . S
C361 C362 1.379 . S
C362 H346 0.931 . S
C362 C356 1.383 . S
C362 C361 1.379 . S
H363 C357 0.950 1_655 S
H364 C357 0.962 1_655 S
H365 C357 0.953 1_655 S
H366 C358 0.930 . S
H367 C359 0.929 . S
H368 C376 0.928 . S
H369 C378 0.930 . S
H370 C380 0.930 1_554 S
H371 C383 0.929 . S
H372 C386 0.930 . S
H373 C388 0.960 . S
H374 C388 0.960 . S
H375 C388 0.960 . S
C376 H368 0.928 . S
C376 C377 1.378 1_565 S
C376 C378 1.384 1_565 S
C377 C376 1.378 1_545 S
C377 C383 1.389 1_556 S
C378 H369 0.930 . S
C378 C376 1.384 1_545 S
C378 C379 1.371 . S
C379 C378 1.371 . S
C379 C380 1.401 . S
C379 C384 1.491 . S
C380 H370 0.930 1_556 S
C380 C379 1.401 . S
C380 C383 1.386 1_556 S
H381 C397 0.930 . S
H382 C398 0.931 . S
C383 H371 0.929 . S
C383 C377 1.389 1_554 S
C383 C380 1.386 1_554 S
C384 C379 1.491 . S
C384 C386 1.395 . S
C384 C387 1.403 1_545 S
H385 C391 0.930 . S
C386 H372 0.930 . S
C386 C384 1.395 . S
C386 C389 1.403 . S
C387 C384 1.403 1_565 S
C387 C388 1.524 . S
C387 C391 1.400 . S
C388 H373 0.960 . S
C388 H374 0.960 . S
C388 H375 0.960 . S
C388 C387 1.524 . S
C389 C386 1.403 . S
C389 C390 1.392 . S
C389 C393 1.495 . S
C390 C389 1.392 . S
C390 C391 1.385 1_545 S
C390 C392 1.478 . S
C391 H385 0.930 . S
C391 C387 1.400 . S
C391 C390 1.385 1_565 S
C392 C390 1.478 . S
C392 C394 1.381 . S
C392 C398 1.383 . S
C393 C389 1.495 . S
C393 H399 0.959 . S
C393 H400 0.961 . S
C393 H401 0.960 . S
C394 C392 1.381 . S
C394 C395 1.394 . S
C394 H402 0.930 . S
C395 C394 1.394 . S
C395 C396 1.383 . S
C395 H403 0.937 . S
C396 C395 1.383 . S
C396 C397 1.377 . S
C397 H381 0.930 . S
C397 C396 1.377 . S
C397 C398 1.379 . S
C398 H382 0.931 . S
C398 C392 1.383 . S
C398 C397 1.379 . S
H399 C393 0.959 . S
H400 C393 0.961 . S
H401 C393 0.960 . S
H402 C394 0.930 . S
H403 C395 0.937 . S
H404 C412 0.929 . S
H405 C414 0.930 . S
H406 C416 0.930 . S
H407 C419 0.929 . S
H408 C422 0.930 . S
H409 C424 0.960 . S
H410 C424 0.960 . S
H411 C424 0.960 . S
C412 H404 0.929 . S
C412 C413 1.377 . S
C412 C414 1.384 . S
C413 C412 1.377 . S
C413 C419 1.390 1_554 S
C414 H405 0.930 . S
C414 C412 1.384 . S
C414 C415 1.372 1_554 S
C415 C414 1.372 1_556 S
C415 C416 1.400 . S
C415 C420 1.490 . S
C416 H406 0.930 . S
C416 C415 1.400 . S
C416 C419 1.386 . S
H417 C433 0.930 . S
H418 C434 0.931 . S
C419 H407 0.929 . S
C419 C413 1.390 1_556 S
C419 C416 1.386 . S
C420 C415 1.490 . S
C420 C422 1.395 . S
C420 C423 1.403 . S
H421 C427 0.930 . S
C422 H408 0.930 . S
C422 C420 1.395 . S
C422 C425 1.403 . S
C423 C420 1.403 . S
C423 C424 1.524 . S
C423 C427 1.400 . S
C424 H409 0.960 . S
C424 H410 0.960 . S
C424 H411 0.960 . S
C424 C423 1.524 . S
C425 C422 1.403 . S
C425 C426 1.392 . S
C425 C429 1.495 . S
C426 C425 1.392 . S
C426 C427 1.385 . S
C426 C428 1.478 . S
C427 H421 0.930 . S
C427 C423 1.400 . S
C427 C426 1.385 . S
C428 C426 1.478 . S
C428 C430 1.381 . S
C428 C434 1.383 . S
C429 C425 1.495 . S
C429 H435 0.959 . S
C429 H436 0.961 . S
C429 H437 0.960 . S
C430 C428 1.381 . S
C430 C431 1.394 . S
C430 H438 0.930 . S
C431 C430 1.394 . S
C431 C432 1.383 . S
C431 H439 0.929 . S
C432 C431 1.383 . S
C432 C433 1.377 . S
C433 H417 0.930 . S
C433 C432 1.377 . S
C433 C434 1.379 . S
C434 H418 0.931 . S
C434 C428 1.383 . S
C434 C433 1.379 . S
H435 C429 0.959 . S
H436 C429 0.961 . S
H437 C429 0.960 . S
H438 C430 0.930 . S
H439 C431 0.929 . S
H440 C448 0.929 . S
H441 C450 0.930 . S
H442 C452 0.930 . S
H443 C455 0.929 . S
H444 C458 0.930 . S
H445 C460 0.960 . S
H446 C460 0.960 1_554 S
H447 C460 0.960 . S
C448 H440 0.929 . S
C448 C449 1.377 . S
C448 C450 1.384 . S
C449 C448 1.377 . S
C449 C455 1.390 . S
C450 H441 0.930 . S
C450 C448 1.384 . S
C450 C451 1.372 1_554 S
C451 C450 1.372 1_556 S
C451 C452 1.400 . S
C451 C456 1.490 . S
C452 H442 0.930 . S
C452 C451 1.400 . S
C452 C455 1.386 1_556 S
H453 C469 0.930 . S
H454 C470 0.931 . S
C455 H443 0.929 . S
C455 C449 1.390 . S
C455 C452 1.386 1_554 S
C456 C451 1.490 . S
C456 C458 1.395 . S
C456 C459 1.403 . S
H457 C463 0.930 . S
C458 H444 0.930 . S
C458 C456 1.395 . S
C458 C461 1.403 . S
C459 C456 1.403 . S
C459 C460 1.524 . S
C459 C463 1.400 . S
C460 H445 0.960 . S
C460 H446 0.960 1_556 S
C460 H447 0.960 . S
C460 C459 1.524 . S
C461 C458 1.403 . S
C461 C462 1.392 . S
C461 C465 1.495 . S
C462 C461 1.392 . S
C462 C463 1.385 . S
C462 C464 1.478 . S
C463 H457 0.930 . S
C463 C459 1.400 . S
C463 C462 1.385 . S
C464 C462 1.478 . S
C464 C466 1.381 . S
C464 C470 1.383 . S
C465 C461 1.495 . S
C465 H471 0.959 . S
C465 H472 0.961 . S
C465 H473 0.960 . S
C466 C464 1.381 . S
C466 C467 1.394 . S
C466 H474 0.930 . S
C467 C466 1.394 . S
C467 C468 1.383 . S
C467 H475 0.929 . S
C468 C467 1.383 . S
C468 C469 1.377 . S
C469 H453 0.930 . S
C469 C468 1.377 . S
C469 C470 1.379 . S
C470 H454 0.931 . S
C470 C464 1.383 . S
C470 C469 1.379 . S
H471 C465 0.959 . S
H472 C465 0.961 . S
H473 C465 0.960 . S
H474 C466 0.930 . S
H475 C467 0.929 . S
H476 C484 0.929 . S
H477 C486 0.930 . S
H478 C488 0.930 . S
H479 C491 0.929 1_554 S
H480 C494 0.930 . S
H481 C496 0.960 . S
H482 C496 0.960 . S
H483 C496 0.960 . S
C484 H476 0.929 . S
C484 C485 1.377 . S
C484 C486 1.384 . S
C485 C484 1.377 . S
C485 C491 1.390 . S
C486 H477 0.930 . S
C486 C484 1.384 . S
C486 C487 1.372 . S
C487 C486 1.372 . S
C487 C488 1.400 . S
C487 C492 1.490 . S
C488 H478 0.930 . S
C488 C487 1.400 . S
C488 C491 1.386 . S
H489 C505 0.926 1_655 S
H490 C506 0.931 . S
C491 H479 0.929 1_556 S
C491 C485 1.390 . S
C491 C488 1.386 . S
C492 C487 1.490 . S
C492 C494 1.395 1_655 S
C492 C495 1.403 . S
H493 C499 0.930 . S
C494 H480 0.930 . S
C494 C492 1.395 1_455 S
C494 C497 1.403 . S
C495 C492 1.403 . S
C495 C496 1.524 . S
C495 C499 1.400 . S
C496 H481 0.960 . S
C496 H482 0.960 . S
C496 H483 0.960 . S
C496 C495 1.524 . S
C497 C494 1.403 . S
C497 C498 1.392 1_455 S
C497 C501 1.495 . S
C498 C497 1.392 1_655 S
C498 C499 1.385 . S
C498 C500 1.478 1_655 S
C499 H493 0.930 . S
C499 C495 1.400 . S
C499 C498 1.385 . S
C500 C498 1.478 1_455 S
C500 C502 1.381 . S
C500 C506 1.383 1_455 S
C501 C497 1.495 . S
C501 H507 0.959 . S
C501 H508 0.961 . S
C501 H509 0.960 . S
C502 C500 1.381 . S
C502 C503 1.394 . S
C502 H510 0.930 . S
C503 C502 1.394 . S
C503 C504 1.383 . S
C503 H511 0.929 . S
C504 C503 1.383 . S
C504 C505 1.384 . S
C505 H489 0.926 1_455 S
C505 C504 1.384 . S
C505 C506 1.377 1_455 S
C506 H490 0.931 . S
C506 C500 1.383 1_655 S
C506 C505 1.377 1_655 S
H507 C501 0.959 . S
H508 C501 0.961 . S
H509 C501 0.960 . S
H510 C502 0.930 . S
H511 C503 0.929 . S
H512 C520 0.929 . S
H513 C522 0.930 . S
H514 C524 0.930 . S
H515 C527 0.929 . S
H516 C530 0.930 . S
H517 C532 0.960 . S
H518 C532 0.960 . S
H519 C532 0.960 . S
C520 H512 0.929 . S
C520 C521 1.377 . S
C520 C522 1.384 . S
C521 C520 1.377 . S
C521 C527 1.390 . S
C522 H513 0.930 . S
C522 C520 1.384 . S
C522 C523 1.372 . S
C523 C522 1.372 . S
C523 C524 1.400 . S
C523 C528 1.490 . S
C524 H514 0.930 . S
C524 C523 1.400 . S
C524 C527 1.386 . S
H525 C541 0.930 1_655 S
H526 C542 0.950 . S
C527 H515 0.929 . S
C527 C521 1.390 . S
C527 C524 1.386 . S
C528 C523 1.490 . S
C528 C530 1.395 . S
C528 C531 1.403 . S
H529 C535 0.930 . S
C530 H516 0.930 . S
C530 C528 1.395 . S
C530 C533 1.403 . S
C531 C528 1.403 . S
C531 C532 1.524 . S
C531 C535 1.400 . S
C532 H517 0.960 . S
C532 H518 0.960 . S
C532 H519 0.960 . S
C532 C531 1.524 . S
C533 C530 1.403 . S
C533 C534 1.392 . S
C533 C537 1.495 . S
C534 C533 1.392 . S
C534 C535 1.385 . S
C534 C536 1.478 . S
C535 H529 0.930 . S
C535 C531 1.400 . S
C535 C534 1.385 . S
C536 C534 1.478 . S
C536 C538 1.381 . S
C536 C542 1.383 . S
C537 C533 1.495 . S
C537 H543 0.959 . S
C537 H544 0.961 . S
C537 H545 0.960 . S
C538 C536 1.381 . S
C538 C539 1.394 . S
C538 H546 0.930 . S
C539 C538 1.394 . S
C539 C540 1.383 . S
C539 H547 0.929 . S
C540 C539 1.383 . S
C540 C541 1.377 . S
C541 H525 0.930 1_455 S
C541 C540 1.377 . S
C541 C542 1.379 . S
C542 H526 0.950 . S
C542 C536 1.383 . S
C542 C541 1.379 . S
H543 C537 0.959 . S
H544 C537 0.961 . S
H545 C537 0.960 . S
H546 C538 0.930 . S
H547 C539 0.929 . S
H548 C556 0.929 . S
H549 C558 0.930 . S
H550 C560 0.930 . S
H551 C563 0.929 . S
H552 C566 0.927 1_545 S
H553 C568 0.965 . S
H554 C568 0.921 1_545 S
H555 C568 0.998 . S
C556 H548 0.929 . S
C556 C557 1.394 . S
C556 C558 1.384 . S
C557 C556 1.394 . S
C557 C563 1.374 1_545 S
C558 H549 0.930 . S
C558 C556 1.384 . S
C558 C559 1.374 1_545 S
C559 C558 1.374 1_565 S
C559 C560 1.397 . S
C559 C564 1.491 . S
C560 H550 0.930 . S
C560 C559 1.397 . S
C560 C563 1.386 . S
H561 C577 0.930 . S
H562 C578 0.931 . S
C563 H551 0.929 . S
C563 C557 1.374 1_565 S
C563 C560 1.386 . S
C564 C559 1.491 . S
C564 C566 1.393 . S
C564 C567 1.406 . S
H565 C571 0.930 . S
C566 H552 0.927 1_565 S
C566 C564 1.393 . S
C566 C569 1.404 . S
C567 C564 1.406 . S
C567 C568 1.523 . S
C567 C571 1.400 . S
C568 H553 0.965 . S
C568 H554 0.921 1_565 S
C568 H555 0.998 . S
C568 C567 1.523 . S
C569 C566 1.404 . S
C569 C570 1.392 . S
C569 C573 1.495 . S
C570 C569 1.392 . S
C570 C571 1.385 . S
C570 C572 1.478 . S
C571 H565 0.930 . S
C571 C567 1.400 . S
C571 C570 1.385 . S
C572 C570 1.478 . S
C572 C574 1.381 1_565 S
C572 C578 1.383 . S
C573 C569 1.495 . S
C573 H579 0.960 . S
C573 H580 0.961 . S
C573 H581 0.960 1_565 S
C574 C572 1.381 1_545 S
C574 C575 1.394 . S
C574 H582 0.930 . S
C575 C574 1.394 . S
C575 C576 1.383 1_545 S
C575 H583 0.929 . S
C576 C575 1.383 1_565 S
C576 C577 1.377 . S
C577 H561 0.930 . S
C577 C576 1.377 . S
C577 C578 1.379 . S
C578 H562 0.931 . S
C578 C572 1.383 . S
C578 C577 1.379 . S
H579 C573 0.960 . S
H580 C573 0.961 . S
H581 C573 0.960 1_545 S
H582 C574 0.930 . S
H583 C575 0.929 . S
H584 C592 0.929 . S
H585 C594 0.930 . S
H586 C596 0.930 . S
H587 C599 0.929 . S
H588 C602 0.930 . S
H589 C604 0.960 . S
H590 C604 0.960 . S
H591 C604 0.960 . S
C592 H584 0.929 . S
C592 C593 1.377 . S
C592 C594 1.384 . S
C593 C592 1.377 . S
C593 C599 1.390 . S
C594 H585 0.930 . S
C594 C592 1.384 . S
C594 C595 1.372 . S
C595 C594 1.372 . S
C595 C596 1.400 . S
C595 C600 1.490 . S
C596 H586 0.930 . S
C596 C595 1.400 . S
C596 C599 1.386 . S
H597 C613 0.930 . S
H598 C614 0.931 . S
C599 H587 0.929 . S
C599 C593 1.390 . S
C599 C596 1.386 . S
C600 C595 1.490 . S
C600 C602 1.395 . S
C600 C603 1.403 . S
H601 C607 0.930 . S
C602 H588 0.930 . S
C602 C600 1.395 . S
C602 C605 1.403 . S
C603 C600 1.403 . S
C603 C604 1.524 . S
C603 C607 1.400 . S
C604 H589 0.960 . S
C604 H590 0.960 . S
C604 H591 0.960 . S
C604 C603 1.524 . S
C605 C602 1.403 . S
C605 C606 1.392 . S
C605 C609 1.495 . S
C606 C605 1.392 . S
C606 C607 1.385 . S
C606 C608 1.478 . S
C607 H601 0.930 . S
C607 C603 1.400 . S
C607 C606 1.385 . S
C608 C606 1.478 . S
C608 C610 1.381 . S
C608 C614 1.383 . S
C609 C605 1.495 . S
C609 H615 0.959 . S
C609 H616 0.961 . S
C609 H617 0.960 . S
C610 C608 1.381 . S
C610 C611 1.394 . S
C610 H618 0.930 . S
C611 C610 1.394 . S
C611 C612 1.383 . S
C611 H619 0.929 . S
C612 C611 1.383 . S
C612 C613 1.377 . S
C613 H597 0.930 . S
C613 C612 1.377 . S
C613 C614 1.379 . S
C614 H598 0.931 . S
C614 C608 1.383 . S
C614 C613 1.379 . S
H615 C609 0.959 . S
H616 C609 0.961 . S
H617 C609 0.960 . S
H618 C610 0.930 . S
H619 C611 0.929 . S
H620 C628 0.929 . S
H621 C630 0.930 . S
H622 C632 0.930 . S
H623 C635 0.929 . S
H624 C638 0.930 . S
H625 C640 0.960 . S
H626 C640 0.960 . S
H627 C640 0.960 . S
C628 H620 0.929 . S
C628 C629 1.377 . S
C628 C630 1.384 . S
C629 C628 1.377 . S
C629 C635 1.390 . S
C630 H621 0.930 . S
C630 C628 1.384 . S
C630 C631 1.372 . S
C631 C630 1.372 . S
C631 C632 1.400 . S
C631 C636 1.490 . S
C632 H622 0.930 . S
C632 C631 1.400 . S
C632 C635 1.386 . S
H633 C649 0.930 . S
H634 C650 0.931 . S
C635 H623 0.929 . S
C635 C629 1.390 . S
C635 C632 1.386 . S
C636 C631 1.490 . S
C636 C638 1.395 . S
C636 C639 1.403 . S
H637 C643 0.930 . S
C638 H624 0.930 . S
C638 C636 1.395 . S
C638 C641 1.403 . S
C639 C636 1.403 . S
C639 C640 1.524 . S
C639 C643 1.400 . S
C640 H625 0.960 . S
C640 H626 0.960 . S
C640 H627 0.960 . S
C640 C639 1.524 . S
C641 C638 1.403 . S
C641 C642 1.392 . S
C641 C645 1.495 . S
C642 C641 1.392 . S
C642 C643 1.385 . S
C642 C644 1.478 . S
C643 H637 0.930 . S
C643 C639 1.400 . S
C643 C642 1.385 . S
C644 C642 1.478 . S
C644 C646 1.381 . S
C644 C650 1.383 . S
C645 C641 1.495 . S
C645 H651 0.959 . S
C645 H652 0.961 . S
C645 H653 0.960 . S
C646 C644 1.381 . S
C646 C647 1.394 . S
C646 H654 0.930 . S
C647 C646 1.394 . S
C647 C648 1.383 . S
C647 H655 0.929 . S
C648 C647 1.383 . S
C648 C649 1.377 . S
C649 H633 0.930 . S
C649 C648 1.377 . S
C649 C650 1.379 . S
C650 H634 0.931 . S
C650 C644 1.383 . S
C650 C649 1.379 . S
H651 C645 0.959 . S
H652 C645 0.961 . S
H653 C645 0.960 . S
H654 C646 0.930 . S
H655 C647 0.929 . S
H656 C664 0.929 . S
H657 C666 0.930 . S
H658 C668 0.930 . S
H659 C671 0.929 1_554 S
H660 C674 0.930 . S
H661 C676 0.960 . S
H662 C676 0.960 . S
H663 C676 0.960 . S
C664 H656 0.929 . S
C664 C665 1.377 . S
C664 C666 1.384 . S
C665 C664 1.377 . S
C665 C671 1.390 . S
C666 H657 0.930 . S
C666 C664 1.384 . S
C666 C667 1.372 . S
C667 C666 1.372 . S
C667 C668 1.400 . S
C667 C672 1.490 . S
C668 H658 0.930 . S
C668 C667 1.400 . S
C668 C671 1.386 . S
H669 C685 0.930 . S
H670 C686 0.931 . S
C671 H659 0.929 1_556 S
C671 C665 1.390 . S
C671 C668 1.386 . S
C672 C667 1.490 . S
C672 C674 1.395 . S
C672 C675 1.403 1_655 S
H673 C679 0.930 . S
C674 H660 0.930 . S
C674 C672 1.395 . S
C674 C677 1.403 . S
C675 C672 1.403 1_455 S
C675 C676 1.524 . S
C675 C679 1.400 . S
C676 H661 0.960 . S
C676 H662 0.960 . S
C676 H663 0.960 . S
C676 C675 1.524 . S
C677 C674 1.403 . S
C677 C678 1.392 . S
C677 C681 1.495 . S
C678 C677 1.392 . S
C678 C679 1.385 1_655 S
C678 C680 1.478 1_655 S
C679 H673 0.930 . S
C679 C675 1.400 . S
C679 C678 1.385 1_455 S
C680 C678 1.478 1_455 S
C680 C682 1.381 . S
C680 C686 1.383 . S
C681 C677 1.495 . S
C681 H687 0.959 . S
C681 H688 0.961 . S
C681 H689 0.960 . S
C682 C680 1.381 . S
C682 C683 1.394 . S
C682 H690 0.932 1_455 S
C683 C682 1.394 . S
C683 C684 1.383 . S
C683 H691 0.929 . S
C684 C683 1.383 . S
C684 C685 1.377 . S
C685 H669 0.930 . S
C685 C684 1.377 . S
C685 C686 1.379 . S
C686 H670 0.931 . S
C686 C680 1.383 . S
C686 C685 1.379 . S
H687 C681 0.959 . S
H688 C681 0.961 . S
H689 C681 0.960 . S
H690 C682 0.932 1_655 S
H691 C683 0.929 . S
H692 C700 0.929 . S
H693 C702 0.930 . S
H694 C704 0.930 . S
H695 C707 0.929 . S
H696 C710 0.930 . S
H697 C712 0.960 . S
H698 C712 0.960 . S
H699 C712 0.960 . S
C700 H692 0.929 . S
C700 C701 1.382 1_566 S
C700 C702 1.384 . S
C701 C700 1.382 1_544 S
C701 C707 1.386 . S
C702 H693 0.930 . S
C702 C700 1.384 . S
C702 C703 1.353 1_565 S
C703 C702 1.353 1_545 S
C703 C704 1.419 . S
C703 C708 1.490 . S
C704 H694 0.930 . S
C704 C703 1.419 . S
C704 C707 1.386 1_556 S
H705 C721 0.930 . S
H706 C722 0.931 . S
C707 H695 0.929 . S
C707 C701 1.386 . S
C707 C704 1.386 1_554 S
C708 C703 1.490 . S
C708 C710 1.374 1_545 S
C708 C711 1.422 . S
H709 C715 0.930 . S
C710 H696 0.930 . S
C710 C708 1.374 1_565 S
C710 C713 1.403 . S
C711 C708 1.422 . S
C711 C712 1.524 . S
C711 C715 1.400 . S
C712 H697 0.960 . S
C712 H698 0.960 . S
C712 H699 0.960 . S
C712 C711 1.524 . S
C713 C710 1.403 . S
C713 C714 1.411 . S
C713 C717 1.495 . S
C714 C713 1.411 . S
C714 C715 1.366 1_565 S
C714 C716 1.478 1_565 S
C715 H709 0.930 . S
C715 C711 1.400 . S
C715 C714 1.366 1_545 S
C716 C714 1.478 1_545 S
C716 C718 1.369 1_545 S
C716 C722 1.396 . S
C717 C713 1.495 . S
C717 H723 0.959 . S
C717 H724 0.961 . S
C717 H725 0.960 . S
C718 C716 1.369 1_565 S
C718 C719 1.394 . S
C718 H726 0.930 . S
C719 C718 1.394 . S
C719 C720 1.383 1_565 S
C719 H727 0.929 . S
C720 C719 1.383 1_545 S
C720 C721 1.377 . S
C721 H705 0.930 . S
C721 C720 1.377 . S
C721 C722 1.379 . S
C722 H706 0.931 . S
C722 C716 1.396 . S
C722 C721 1.379 . S
H723 C717 0.959 . S
H724 C717 0.961 . S
H725 C717 0.960 . S
H726 C718 0.930 . S
H727 C719 0.929 . S
H728 C736 0.929 . S
H729 C738 0.930 . S
H730 C740 0.930 . S
H731 C743 0.929 . S
H732 C746 0.930 . S
H733 C748 0.960 . S
H734 C748 0.960 . S
H735 C748 0.960 1_554 S
C736 H728 0.929 . S
C736 C737 1.377 1_556 S
C736 C738 1.384 . S
C737 C736 1.377 1_554 S
C737 C743 1.390 . S
C738 H729 0.930 . S
C738 C736 1.384 . S
C738 C739 1.372 . S
C739 C738 1.372 . S
C739 C740 1.400 1_556 S
C739 C744 1.490 . S
C740 H730 0.930 . S
C740 C739 1.400 1_554 S
C740 C743 1.386 . S
H741 C757 0.930 . S
H742 C758 0.931 . S
C743 H731 0.929 . S
C743 C737 1.390 . S
C743 C740 1.386 . S
C744 C739 1.490 . S
C744 C746 1.395 . S
C744 C747 1.403 . S
H745 C751 0.930 . S
C746 H732 0.930 . S
C746 C744 1.395 . S
C746 C749 1.403 . S
C747 C744 1.403 . S
C747 C748 1.524 . S
C747 C751 1.400 . S
C748 H733 0.960 . S
C748 H734 0.960 . S
C748 H735 0.960 1_556 S
C748 C747 1.524 . S
C749 C746 1.403 . S
C749 C750 1.392 . S
C749 C753 1.495 . S
C750 C749 1.392 . S
C750 C751 1.385 . S
C750 C752 1.478 . S
C751 H745 0.930 . S
C751 C747 1.400 . S
C751 C750 1.385 . S
C752 C750 1.478 . S
C752 C754 1.381 . S
C752 C758 1.383 . S
C753 C749 1.495 . S
C753 H759 0.959 . S
C753 H760 0.961 . S
C753 H761 0.960 . S
C754 C752 1.381 . S
C754 C755 1.394 . S
C754 H762 0.930 . S
C755 C754 1.394 . S
C755 C756 1.383 . S
C755 H763 0.929 . S
C756 C755 1.383 . S
C756 C757 1.377 . S
C757 H741 0.930 . S
C757 C756 1.377 . S
C757 C758 1.379 . S
C758 H742 0.931 . S
C758 C752 1.383 . S
C758 C757 1.379 . S
H759 C753 0.959 . S
H760 C753 0.961 . S
H761 C753 0.960 . S
H762 C754 0.930 . S
H763 C755 0.929 . S
H764 C772 0.929 . S
H765 C774 0.930 . S
H766 C776 0.930 . S
H767 C779 0.929 . S
H768 C782 0.930 . S
H769 C784 0.960 . S
H770 C784 0.960 1_554 S
H771 C784 0.960 . S
C772 H764 0.929 . S
C772 C773 1.377 . S
C772 C774 1.384 . S
C773 C772 1.377 . S
C773 C779 1.390 . S
C774 H765 0.930 . S
C774 C772 1.384 . S
C774 C775 1.372 1_554 S
C775 C774 1.372 1_556 S
C775 C776 1.400 . S
C775 C780 1.490 . S
C776 H766 0.930 . S
C776 C775 1.400 . S
C776 C779 1.386 1_556 S
H777 C793 0.930 . S
H778 C794 0.931 . S
C779 H767 0.929 . S
C779 C773 1.390 . S
C779 C776 1.386 1_554 S
C780 C775 1.490 . S
C780 C782 1.395 . S
C780 C783 1.403 . S
H781 C787 0.930 . S
C782 H768 0.930 . S
C782 C780 1.395 . S
C782 C785 1.403 . S
C783 C780 1.403 . S
C783 C784 1.524 . S
C783 C787 1.400 . S
C784 H769 0.960 . S
C784 H770 0.960 1_556 S
C784 H771 0.960 . S
C784 C783 1.524 . S
C785 C782 1.403 . S
C785 C786 1.392 . S
C785 C789 1.495 . S
C786 C785 1.392 . S
C786 C787 1.385 . S
C786 C788 1.478 . S
C787 H781 0.930 . S
C787 C783 1.400 . S
C787 C786 1.385 . S
C788 C786 1.478 . S
C788 C790 1.381 . S
C788 C794 1.383 . S
C789 C785 1.495 . S
C789 H795 0.959 . S
C789 H796 0.961 . S
C789 H797 0.960 . S
C790 C788 1.381 . S
C790 C791 1.394 . S
C790 H798 0.930 . S
C791 C790 1.394 . S
C791 C792 1.383 . S
C791 H799 0.929 . S
C792 C791 1.383 . S
C792 C793 1.377 . S
C793 H777 0.930 . S
C793 C792 1.377 . S
C793 C794 1.379 . S
C794 H778 0.931 . S
C794 C788 1.383 . S
C794 C793 1.379 . S
H795 C789 0.959 . S
H796 C789 0.961 . S
H797 C789 0.960 . S
H798 C790 0.930 . S
H799 C791 0.929 . S
H800 C808 0.929 . S
H801 C810 0.930 . S
H802 C812 0.930 . S
H803 C815 0.929 . S
H804 C818 0.930 . S
H805 C820 0.960 . S
H806 C820 0.960 . S
H807 C820 0.960 . S
C808 H800 0.929 . S
C808 C809 1.377 . S
C808 C810 1.384 . S
C809 C808 1.377 . S
C809 C815 1.390 . S
C810 H801 0.930 . S
C810 C808 1.384 . S
C810 C811 1.372 . S
C811 C810 1.372 . S
C811 C812 1.400 . S
C811 C816 1.490 . S
C812 H802 0.930 . S
C812 C811 1.400 . S
C812 C815 1.386 . S
H813 C829 0.930 . S
H814 C830 0.931 . S
C815 H803 0.929 . S
C815 C809 1.390 . S
C815 C812 1.386 . S
C816 C811 1.490 . S
C816 C818 1.395 . S
C816 C819 1.403 . S
H817 C823 0.930 . S
C818 H804 0.930 . S
C818 C816 1.395 . S
C818 C821 1.403 . S
C819 C816 1.403 . S
C819 C820 1.524 . S
C819 C823 1.400 . S
C820 H805 0.960 . S
C820 H806 0.960 . S
C820 H807 0.960 . S
C820 C819 1.524 . S
C821 C818 1.403 . S
C821 C822 1.392 . S
C821 C825 1.495 . S
C822 C821 1.392 . S
C822 C823 1.385 . S
C822 C824 1.478 . S
C823 H817 0.930 . S
C823 C819 1.400 . S
C823 C822 1.385 . S
C824 C822 1.478 . S
C824 C826 1.381 . S
C824 C830 1.383 1_554 S
C825 C821 1.495 . S
C825 H831 0.959 1_455 S
C825 H832 0.961 . S
C825 H833 0.960 . S
C826 C824 1.381 . S
C826 C827 1.394 . S
C826 H834 0.930 . S
C827 C826 1.394 . S
C827 C828 1.383 1_554 S
C827 H835 0.929 . S
C828 C827 1.383 1_556 S
C828 C829 1.377 . S
C829 H813 0.930 . S
C829 C828 1.377 . S
C829 C830 1.379 . S
C830 H814 0.931 . S
C830 C824 1.383 1_556 S
C830 C829 1.379 . S
H831 C825 0.959 1_655 S
H832 C825 0.961 . S
H833 C825 0.960 . S
H834 C826 0.930 . S
H835 C827 0.929 . S
H836 C844 0.929 . S
H837 C846 0.930 . S
H838 C848 0.930 . S
H839 C851 0.929 . S
H840 C854 0.930 . S
H841 C856 0.960 . S
H842 C856 0.960 . S
H843 C856 0.960 . S
C844 H836 0.929 . S
C844 C845 1.365 1_565 S
C844 C846 1.384 . S
C845 C844 1.365 1_545 S
C845 C851 1.402 . S
C846 H837 0.930 . S
C846 C844 1.384 . S
C846 C847 1.352 1_565 S
C847 C846 1.352 1_545 S
C847 C848 1.423 . S
C847 C852 1.489 . S
C848 H838 0.930 . S
C848 C847 1.423 . S
C848 C851 1.386 . S
H849 C865 0.930 . S
H850 C866 0.931 . S
C851 H839 0.929 . S
C851 C845 1.402 . S
C851 C848 1.386 . S
C852 C847 1.489 . S
C852 C854 1.369 1_545 S
C852 C855 1.426 . S
H853 C859 0.930 . S
C854 H840 0.930 . S
C854 C852 1.369 1_565 S
C854 C857 1.403 1_554 S
C855 C852 1.426 . S
C855 C856 1.524 . S
C855 C859 1.400 1_554 S
C856 H841 0.960 . S
C856 H842 0.960 . S
C856 H843 0.960 . S
C856 C855 1.524 . S
C857 C854 1.403 1_556 S
C857 C858 1.392 . S
C857 C861 1.495 . S
C858 C857 1.392 . S
C858 C859 1.385 1_565 S
C858 C860 1.477 . S
C859 H853 0.930 . S
C859 C855 1.400 1_556 S
C859 C858 1.385 1_545 S
C860 C858 1.477 . S
C860 C862 1.406 . S
C860 C866 1.358 1_565 S
C861 C857 1.495 . S
C861 H867 0.959 . S
C861 H868 0.961 . S
C861 H869 0.960 . S
C862 C860 1.406 . S
C862 C863 1.394 . S
C862 H870 0.930 . S
C863 C862 1.394 . S
C863 C864 1.383 1_565 S
C863 H871 0.929 . S
C864 C863 1.383 1_545 S
C864 C865 1.377 . S
C865 H849 0.930 . S
C865 C864 1.377 . S
C865 C866 1.379 . S
C866 H850 0.931 . S
C866 C860 1.358 1_545 S
C866 C865 1.379 . S
H867 C861 0.959 . S
H868 C861 0.961 . S
H869 C861 0.960 . S
H870 C862 0.930 . S
H871 C863 0.929 . S
H872 C880 0.929 . S
H873 C882 0.930 . S
H874 C884 0.930 . S
H875 C887 0.929 . S
H876 C890 0.930 . S
H877 C892 0.960 . S
H878 C892 0.960 . S
H879 C892 0.960 . S
C880 H872 0.929 . S
C880 C881 1.377 . S
C880 C882 1.384 . S
C881 C880 1.377 . S
C881 C887 1.390 . S
C882 H873 0.930 . S
C882 C880 1.384 . S
C882 C883 1.372 . S
C883 C882 1.372 . S
C883 C884 1.400 . S
C883 C888 1.490 . S
C884 H874 0.930 . S
C884 C883 1.400 . S
C884 C887 1.386 . S
H885 C901 0.930 . S
H886 C902 0.931 . S
C887 H875 0.929 . S
C887 C881 1.390 . S
C887 C884 1.386 . S
C888 C883 1.490 . S
C888 C890 1.395 1_554 S
C888 C891 1.403 . S
H889 C895 0.930 . S
C890 H876 0.930 . S
C890 C888 1.395 1_556 S
C890 C893 1.403 . S
C891 C888 1.403 . S
C891 C892 1.524 . S
C891 C895 1.400 . S
C892 H877 0.960 . S
C892 H878 0.960 . S
C892 H879 0.960 . S
C892 C891 1.524 . S
C893 C890 1.403 . S
C893 C894 1.392 . S
C893 C897 1.495 . S
C894 C893 1.392 . S
C894 C895 1.385 1_556 S
C894 C896 1.478 . S
C895 H889 0.930 . S
C895 C891 1.400 . S
C895 C894 1.385 1_554 S
C896 C894 1.478 . S
C896 C898 1.381 . S
C896 C902 1.383 . S
C897 C893 1.495 . S
C897 H903 0.959 . S
C897 H904 0.961 . S
C897 H905 0.960 . S
C898 C896 1.381 . S
C898 C899 1.394 . S
C898 H906 0.930 . S
C899 C898 1.394 . S
C899 C900 1.383 . S
C899 H907 0.929 . S
C900 C899 1.383 . S
C900 C901 1.377 . S
C901 H885 0.930 . S
C901 C900 1.377 . S
C901 C902 1.379 . S
C902 H886 0.931 . S
C902 C896 1.383 . S
C902 C901 1.379 . S
H903 C897 0.959 . S
H904 C897 0.961 . S
H905 C897 0.960 . S
H906 C898 0.930 . S
H907 C899 0.929 . S
H908 C916 0.929 . S
H909 C918 0.930 . S
H910 C920 0.930 . S
H911 C923 0.929 . S
H912 C926 0.930 . S
H913 C928 0.960 . S
H914 C928 0.960 . S
H915 C928 0.960 . S
C916 H908 0.929 . S
C916 C917 1.377 . S
C916 C918 1.384 . S
C917 C916 1.377 . S
C917 C923 1.390 . S
C918 H909 0.930 . S
C918 C916 1.384 . S
C918 C919 1.372 . S
C919 C918 1.372 . S
C919 C920 1.400 . S
C919 C924 1.490 . S
C920 H910 0.930 . S
C920 C919 1.400 . S
C920 C923 1.386 . S
H921 C937 0.930 . S
H922 C938 0.931 . S
C923 H911 0.929 . S
C923 C917 1.390 . S
C923 C920 1.386 . S
C924 C919 1.490 . S
C924 C926 1.395 . S
C924 C927 1.403 1_554 S
H925 C931 0.930 . S
C926 H912 0.930 . S
C926 C924 1.395 . S
C926 C929 1.403 . S
C927 C924 1.403 1_556 S
C927 C928 1.524 . S
C927 C931 1.400 . S
C928 H913 0.960 . S
C928 H914 0.960 . S
C928 H915 0.960 . S
C928 C927 1.524 . S
C929 C926 1.403 . S
C929 C930 1.392 1_554 S
C929 C933 1.495 . S
C930 C929 1.392 1_556 S
C930 C931 1.385 . S
C930 C932 1.478 . S
C931 H925 0.930 . S
C931 C927 1.400 . S
C931 C930 1.385 . S
C932 C930 1.478 . S
C932 C934 1.381 . S
C932 C938 1.383 . S
C933 C929 1.495 . S
C933 H939 0.959 . S
C933 H940 0.961 1_554 S
C933 H941 0.960 . S
C934 C932 1.381 . S
C934 C935 1.394 . S
C934 H942 0.930 . S
C935 C934 1.394 . S
C935 C936 1.383 . S
C935 H943 0.929 . S
C936 C935 1.383 . S
C936 C937 1.377 . S
C937 H921 0.930 . S
C937 C936 1.377 . S
C937 C938 1.379 . S
C938 H922 0.931 . S
C938 C932 1.383 . S
C938 C937 1.379 . S
H939 C933 0.959 . S
H940 C933 0.961 1_556 S
H941 C933 0.960 . S
H942 C934 0.930 . S
H943 C935 0.929 . S
H944 C952 0.929 1_455 S
H945 C954 0.930 1_455 S
H946 C956 0.930 . S
H947 C959 0.929 . S
H948 C962 0.930 . S
H949 C964 0.960 . S
H950 C964 0.960 . S
H951 C964 0.960 . S
C952 H944 0.929 1_655 S
C952 C953 1.377 . S
C952 C954 1.384 . S
C953 C952 1.377 . S
C953 C959 1.390 . S
C954 H945 0.930 1_655 S
C954 C952 1.384 . S
C954 C955 1.372 . S
C955 C954 1.372 . S
C955 C956 1.400 . S
C955 C960 1.490 . S
C956 H946 0.930 . S
C956 C955 1.400 . S
C956 C959 1.386 . S
H957 C973 0.930 . S
H958 C974 0.931 . S
C959 H947 0.929 . S
C959 C953 1.390 . S
C959 C956 1.386 . S
C960 C955 1.490 . S
C960 C962 1.395 . S
C960 C963 1.403 . S
H961 C967 0.930 . S
C962 H948 0.930 . S
C962 C960 1.395 . S
C962 C965 1.403 . S
C963 C960 1.403 . S
C963 C964 1.524 . S
C963 C967 1.400 . S
C964 H949 0.960 . S
C964 H950 0.960 . S
C964 H951 0.960 . S
C964 C963 1.524 . S
C965 C962 1.403 . S
C965 C966 1.392 . S
C965 C969 1.495 . S
C966 C965 1.392 . S
C966 C967 1.385 . S
C966 C968 1.478 . S
C967 H961 0.930 . S
C967 C963 1.400 . S
C967 C966 1.385 . S
C968 C966 1.478 . S
C968 C970 1.381 1_655 S
C968 C974 1.383 . S
C969 C965 1.495 . S
C969 H975 0.959 . S
C969 H976 0.961 . S
C969 H977 0.960 1_655 S
C970 C968 1.381 1_455 S
C970 C971 1.394 . S
C970 H978 0.930 . S
C971 C970 1.394 . S
C971 C972 1.383 1_455 S
C971 H979 0.929 . S
C972 C971 1.383 1_655 S
C972 C973 1.377 . S
C973 H957 0.930 . S
C973 C972 1.377 . S
C973 C974 1.379 . S
C974 H958 0.931 . S
C974 C968 1.383 . S
C974 C973 1.379 . S
H975 C969 0.959 . S
H976 C969 0.961 . S
H977 C969 0.960 1_455 S
H978 C970 0.930 . S
H979 C971 0.929 . S
H980 C988 0.929 . S
H981 C990 0.930 . S
H982 C992 0.930 . S
H983 C995 0.929 . S
H984 C998 0.930 . S
H985 C1000 0.960 . S
H986 C1000 0.960 . S
H987 C1000 0.960 . S
C988 H980 0.929 . S
C988 C989 1.393 . S
C988 C990 1.384 . S
C989 C988 1.393 . S
C989 C995 1.374 1_565 S
C990 H981 0.930 . S
C990 C988 1.384 . S
C990 C991 1.372 . S
C991 C990 1.372 . S
C991 C992 1.400 1_565 S
C991 C996 1.490 . S
C992 H982 0.930 . S
C992 C991 1.400 1_545 S
C992 C995 1.386 . S
H993 C1009 0.930 . S
H994 C1010 0.931 . S
C995 H983 0.929 . S
C995 C989 1.374 1_545 S
C995 C992 1.386 . S
C996 C991 1.490 . S
C996 C998 1.395 . S
C996 C999 1.403 1_565 S
H997 C1003 0.930 . S
C998 H984 0.930 . S
C998 C996 1.395 . S
C998 C1001 1.403 . S
C999 C996 1.403 1_545 S
C999 C1000 1.524 . S
C999 C1003 1.400 . S
C1000 H985 0.960 . S
C1000 H986 0.960 . S
C1000 H987 0.960 . S
C1000 C999 1.524 . S
C1001 C998 1.403 . S
C1001 C1002 1.392 . S
C1001 C1005 1.495 . S
C1002 C1001 1.392 . S
C1002 C1003 1.385 1_565 S
C1002 C1004 1.478 . S
C1003 H997 0.930 . S
C1003 C999 1.400 . S
C1003 C1002 1.385 1_545 S
C1004 C1002 1.478 . S
C1004 C1006 1.381 . S
C1004 C1010 1.383 1_565 S
C1005 C1001 1.495 . S
C1005 H1011 0.959 . S
C1005 H1012 0.961 . S
C1005 H1013 0.960 . S
C1006 C1004 1.381 . S
C1006 C1007 1.394 . S
C1006 H1014 0.930 . S
C1007 C1006 1.394 . S
C1007 C1008 1.383 . S
C1007 H1015 0.929 . S
C1008 C1007 1.383 . S
C1008 C1009 1.377 1_565 S
C1009 H993 0.930 . S
C1009 C1008 1.377 1_545 S
C1009 C1010 1.379 . S
C1010 H994 0.931 . S
C1010 C1004 1.383 1_545 S
C1010 C1009 1.379 . S
H1011 C1005 0.959 . S
H1012 C1005 0.961 . S
H1013 C1005 0.960 . S
H1014 C1006 0.930 . S
H1015 C1007 0.929 . S
H1016 C1024 0.929 . S
H1017 C1026 0.930 . S
H1018 C1028 0.930 . S
H1019 C1031 0.929 . S
H1020 C1034 0.930 . S
H1021 C1036 0.960 . S
H1022 C1036 0.960 . S
H1023 C1036 0.960 . S
C1024 H1016 0.929 . S
C1024 C1025 1.377 . S
C1024 C1026 1.384 . S
C1025 C1024 1.377 . S
C1025 C1031 1.390 . S
C1026 H1017 0.930 . S
C1026 C1024 1.384 . S
C1026 C1027 1.372 . S
C1027 C1026 1.372 . S
C1027 C1028 1.400 . S
C1027 C1032 1.490 . S
C1028 H1018 0.930 . S
C1028 C1027 1.400 . S
C1028 C1031 1.386 . S
H1029 C1045 0.930 . S
H1030 C1046 0.931 . S
C1031 H1019 0.929 . S
C1031 C1025 1.390 . S
C1031 C1028 1.386 . S
C1032 C1027 1.490 . S
C1032 C1034 1.395 . S
C1032 C1035 1.403 . S
H1033 C1039 0.930 . S
C1034 H1020 0.930 . S
C1034 C1032 1.395 . S
C1034 C1037 1.403 . S
C1035 C1032 1.403 . S
C1035 C1036 1.524 . S
C1035 C1039 1.400 . S
C1036 H1021 0.960 . S
C1036 H1022 0.960 . S
C1036 H1023 0.960 . S
C1036 C1035 1.524 . S
C1037 C1034 1.403 . S
C1037 C1038 1.392 . S
C1037 C1041 1.495 . S
C1038 C1037 1.392 . S
C1038 C1039 1.385 . S
C1038 C1040 1.478 . S
C1039 H1033 0.930 . S
C1039 C1035 1.400 . S
C1039 C1038 1.385 . S
C1040 C1038 1.478 . S
C1040 C1042 1.381 . S
C1040 C1046 1.383 . S
C1041 C1037 1.495 . S
C1041 H1047 0.959 . S
C1041 H1048 0.961 . S
C1041 H1049 0.960 . S
C1042 C1040 1.381 . S
C1042 C1043 1.394 . S
C1042 H1050 0.930 . S
C1043 C1042 1.394 . S
C1043 C1044 1.383 . S
C1043 H1051 0.929 . S
C1044 C1043 1.383 . S
C1044 C1045 1.377 . S
C1045 H1029 0.930 . S
C1045 C1044 1.377 . S
C1045 C1046 1.379 . S
C1046 H1030 0.931 . S
C1046 C1040 1.383 . S
C1046 C1045 1.379 . S
H1047 C1041 0.959 . S
H1048 C1041 0.961 . S
H1049 C1041 0.960 . S
H1050 C1042 0.930 . S
H1051 C1043 0.929 . S
H1052 C1060 0.929 . S
H1053 C1062 0.930 . S
H1054 C1064 0.930 . S
H1055 C1067 0.929 . S
H1056 C1070 0.930 . S
H1057 C1072 0.960 . S
H1058 C1072 0.960 . S
H1059 C1072 0.960 . S
C1060 H1052 0.929 . S
C1060 C1061 1.377 . S
C1060 C1062 1.384 . S
C1061 C1060 1.377 . S
C1061 C1067 1.390 . S
C1062 H1053 0.930 . S
C1062 C1060 1.384 . S
C1062 C1063 1.372 . S
C1063 C1062 1.372 . S
C1063 C1064 1.400 . S
C1063 C1068 1.490 . S
C1064 H1054 0.930 . S
C1064 C1063 1.400 . S
C1064 C1067 1.386 . S
H1065 C1081 0.930 . S
H1066 C1082 0.931 . S
C1067 H1055 0.929 . S
C1067 C1061 1.390 . S
C1067 C1064 1.386 . S
C1068 C1063 1.490 . S
C1068 C1070 1.395 . S
C1068 C1071 1.403 . S
H1069 C1075 0.930 . S
C1070 H1056 0.930 . S
C1070 C1068 1.395 . S
C1070 C1073 1.403 . S
C1071 C1068 1.403 . S
C1071 C1072 1.524 . S
C1071 C1075 1.400 . S
C1072 H1057 0.960 . S
C1072 H1058 0.960 . S
C1072 H1059 0.960 . S
C1072 C1071 1.524 . S
C1073 C1070 1.403 . S
C1073 C1074 1.392 . S
C1073 C1077 1.495 . S
C1074 C1073 1.392 . S
C1074 C1075 1.385 . S
C1074 C1076 1.478 . S
C1075 H1069 0.930 . S
C1075 C1071 1.400 . S
C1075 C1074 1.385 . S
C1076 C1074 1.478 . S
C1076 C1078 1.381 . S
C1076 C1082 1.383 . S
C1077 C1073 1.495 . S
C1077 H1083 0.959 . S
C1077 H1084 0.961 . S
C1077 H1085 0.960 . S
C1078 C1076 1.381 . S
C1078 C1079 1.394 . S
C1078 H1086 0.930 . S
C1079 C1078 1.394 . S
C1079 C1080 1.383 . S
C1079 H1087 0.929 . S
C1080 C1079 1.383 . S
C1080 C1081 1.377 . S
C1081 H1065 0.930 . S
C1081 C1080 1.377 . S
C1081 C1082 1.379 . S
C1082 H1066 0.931 . S
C1082 C1076 1.383 . S
C1082 C1081 1.379 . S
H1083 C1077 0.959 . S
H1084 C1077 0.961 . S
H1085 C1077 0.960 . S
H1086 C1078 0.930 . S
H1087 C1079 0.929 . S
C233 C76 1.847 . S
C252 C105 1.872 . S
C288 C126 1.550 . S
C269 C87 1.520 . S
C324 C160 1.336 . S
C305 C54 1.297 . S
C360 C194 1.536 . S
C341 C65 1.521 . S
C396 C96 1.870 . S
C377 C32 1.845 1_546 S
C413 C43 1.528 . S
C432 C135 1.545 . S
C449 C10 1.303 . S
C468 C169 1.331 . S
C485 C21 1.521 . S
C504 C203 1.536 . S
C540 C117 0.162 . S
C521 C60 0.437 . S
C576 C122 0.676 . S
C557 C71 0.686 . S
C612 C156 0.592 . S
C593 C82 0.617 . S
C629 C49 0.256 . S
C648 C190 0.194 . S
C665 C16 0.474 . S
C684 C88 0.178 . S
C720 C151 0.680 . S
C701 C27 0.698 . S
C756 C185 0.591 . S
C737 C38 0.631 . S
C773 C5 0.236 . S
C792 C219 0.219 . S
C809 C59 1.259 . S
C828 C101 1.281 . S
C845 C70 1.704 . S
C864 C130 1.750 . S
C900 C164 1.548 . S
C881 C81 1.515 . S
C936 C198 1.609 . S
C917 C48 1.564 . S
C953 C15 1.260 . S
C972 C92 1.304 . S
C1008 C139 1.752 . S
C989 C26 1.708 1_565 S
C1044 C173 1.551 . S
C1025 C37 1.516 . S
C1061 C4 1.565 . S
C1080 C207 1.612 . S
