# Generated by pormake.
# Topology apo, (3,6)-cn, num edge types: 1
# Building blocks:
#     Node 0, Type 0, BuildingBlock: BETDAH_clean_linker_0, # of connection points: 3
#     Node 1, Type 0, BuildingBlock: BETDAH_clean_linker_0, # of connection points: 3
#     Node 2, Type 0, BuildingBlock: BETDAH_clean_linker_0, # of connection points: 3
#     Node 3, Type 0, BuildingBlock: BETDAH_clean_linker_0, # of connection points: 3
#     Node 4, Type 0, BuildingBlock: BETDAH_clean_linker_0, # of connection points: 3
#     Node 5, Type 0, BuildingBlock: BETDAH_clean_linker_0, # of connection points: 3
#     Node 6, Type 0, BuildingBlock: BETDAH_clean_linker_0, # of connection points: 3
#     Node 7, Type 0, BuildingBlock: BETDAH_clean_linker_0, # of connection points: 3
#     Node 8, Type 1, BuildingBlock: KUMJIN_clean_sbu_1, # of connection points: 6
#     Node 9, Type 1, BuildingBlock: KUMJIN_clean_sbu_1, # of connection points: 6
#     Node 10, Type 1, BuildingBlock: KUMJIN_clean_sbu_1, # of connection points: 6
#     Node 11, Type 1, BuildingBlock: KUMJIN_clean_sbu_1, # of connection points: 6
#     Edge 12, Type (0, 1), BuildingBlock: XUDNAN_clean_linker_2, # of connection points: 2
#     Edge 13, Type (0, 1), BuildingBlock: XUDNAN_clean_linker_2, # of connection points: 2
#     Edge 14, Type (0, 1), BuildingBlock: XUDNAN_clean_linker_2, # of connection points: 2
#     Edge 15, Type (0, 1), BuildingBlock: XUDNAN_clean_linker_2, # of connection points: 2
#     Edge 16, Type (0, 1), BuildingBlock: XUDNAN_clean_linker_2, # of connection points: 2
#     Edge 17, Type (0, 1), BuildingBlock: XUDNAN_clean_linker_2, # of connection points: 2
#     Edge 18, Type (0, 1), BuildingBlock: XUDNAN_clean_linker_2, # of connection points: 2
#     Edge 19, Type (0, 1), BuildingBlock: XUDNAN_clean_linker_2, # of connection points: 2
#     Edge 20, Type (0, 1), BuildingBlock: XUDNAN_clean_linker_2, # of connection points: 2
#     Edge 21, Type (0, 1), BuildingBlock: XUDNAN_clean_linker_2, # of connection points: 2
#     Edge 22, Type (0, 1), BuildingBlock: XUDNAN_clean_linker_2, # of connection points: 2
#     Edge 23, Type (0, 1), BuildingBlock: XUDNAN_clean_linker_2, # of connection points: 2
#     Edge 24, Type (0, 1), BuildingBlock: XUDNAN_clean_linker_2, # of connection points: 2
#     Edge 25, Type (0, 1), BuildingBlock: XUDNAN_clean_linker_2, # of connection points: 2
#     Edge 26, Type (0, 1), BuildingBlock: XUDNAN_clean_linker_2, # of connection points: 2
#     Edge 27, Type (0, 1), BuildingBlock: XUDNAN_clean_linker_2, # of connection points: 2
#     Edge 28, Type (0, 1), BuildingBlock: XUDNAN_clean_linker_2, # of connection points: 2
#     Edge 29, Type (0, 1), BuildingBlock: XUDNAN_clean_linker_2, # of connection points: 2
#     Edge 30, Type (0, 1), BuildingBlock: XUDNAN_clean_linker_2, # of connection points: 2
#     Edge 31, Type (0, 1), BuildingBlock: XUDNAN_clean_linker_2, # of connection points: 2
#     Edge 32, Type (0, 1), BuildingBlock: XUDNAN_clean_linker_2, # of connection points: 2
#     Edge 33, Type (0, 1), BuildingBlock: XUDNAN_clean_linker_2, # of connection points: 2
#     Edge 34, Type (0, 1), BuildingBlock: XUDNAN_clean_linker_2, # of connection points: 2
#     Edge 35, Type (0, 1), BuildingBlock: XUDNAN_clean_linker_2, # of connection points: 2
# Relax obj value: 0.037
# Max RMSD: 0.220
# Mean RMSD: 0.156
data_MOF--net-apo--node1-KUMJIN_clean_sbu_1--node2-BETDAH_clean_linker_0--edge1-XUDNAN_clean_linker_2
_symmetry_space_group_name_H-M    P1
_symmetry_Int_Tables_number       1
_symmetry_cell_setting            triclinic
loop_
_symmetry_equiv_pos_as_xyz
'x, y, z'
_cell_length_a     27.421486
_cell_length_b     41.762408
_cell_length_c     51.69593
_cell_angle_alpha  89.673748
_cell_angle_beta   90.312775
_cell_angle_gamma 90.085935
loop_
_atom_site_label
_atom_site_type_symbol
_atom_site_fract_x
_atom_site_fract_y
_atom_site_fract_z
_atom_type_partial_charge
H0 H 0.35185 0.4331 0.41846 0.0
H1 H 0.30558 0.36277 0.36254 0.0
H2 H 0.28906 0.34374 0.44362 0.0
C3 C 0.33536 0.41016 0.41402 0.0
C4 C 0.3199 0.39002 0.43431 0.0
C5 C 0.33056 0.40049 0.388 0.0
C6 C 0.30917 0.37053 0.38243 0.0
C7 C 0.29394 0.35019 0.40259 0.0
C8 C 0.29989 0.35998 0.42824 0.0
N9 N 0.27489 0.31902 0.39815 0.0
C10 C 0.25119 0.30888 0.37576 0.0
H11 H 0.14806 0.0899 0.92019 0.0
H12 H 0.21492 0.15865 0.86861 0.0
H13 H 0.20968 0.1767 0.95027 0.0
C14 C 0.16817 0.11195 0.91706 0.0
C15 C 0.17826 0.13192 0.93814 0.0
C16 C 0.18078 0.12156 0.89176 0.0
C17 C 0.20541 0.15095 0.88799 0.0
C18 C 0.2164 0.17065 0.90927 0.0
C19 C 0.20229 0.16105 0.93403 0.0
N20 N 0.23948 0.20097 0.90684 0.0
C21 C 0.26243 0.21293 0.88493 0.0
H22 H 0.87018 0.11063 0.592 0.0
H23 H 0.81288 0.16535 0.65536 0.0
H24 H 0.84791 0.21201 0.58353 0.0
C25 C 0.85837 0.1333 0.59986 0.0
C26 C 0.86057 0.16097 0.58432 0.0
C27 C 0.84162 0.13454 0.62557 0.0
C28 C 0.82584 0.16405 0.63564 0.0
C29 C 0.82752 0.1919 0.62013 0.0
C30 C 0.8455 0.19017 0.59489 0.0
N31 N 0.81344 0.2225 0.62926 0.0
C32 C 0.7809 0.22839 0.64919 0.0
H33 H 0.63297 0.42243 0.10179 0.0
H34 H 0.70856 0.35735 0.15337 0.0
H35 H 0.67167 0.32811 0.07646 0.0
C36 C 0.65045 0.39965 0.10559 0.0
C37 C 0.65187 0.37673 0.08576 0.0
C38 C 0.67035 0.39302 0.1303 0.0
C39 C 0.69255 0.36297 0.13471 0.0
C40 C 0.69247 0.33955 0.11533 0.0
C41 C 0.67213 0.34657 0.09111 0.0
N42 N 0.70977 0.308 0.11991 0.0
C43 C 0.74596 0.29969 0.13764 0.0
H44 H 0.65412 0.59433 0.60432 0.0
H45 H 0.75541 0.63728 0.6579 0.0
H46 H 0.76912 0.65548 0.5764 0.0
C47 C 0.68544 0.60958 0.60795 0.0
C48 C 0.70861 0.62514 0.58724 0.0
C49 C 0.70199 0.614 0.63345 0.0
C50 C 0.742 0.63422 0.63831 0.0
C51 C 0.76634 0.64901 0.61759 0.0
C52 C 0.74967 0.64429 0.59226 0.0
N53 N 0.81024 0.66629 0.62137 0.0
C54 C 0.81482 0.69189 0.63825 0.0
H55 H 0.86216 0.92487 0.09431 0.0
H56 H 0.82573 0.82862 0.07238 0.0
H57 H 0.82717 0.85382 0.15239 0.0
C58 C 0.85188 0.90072 0.09966 0.0
C59 C 0.84567 0.89263 0.12597 0.0
C60 C 0.84542 0.87787 0.08007 0.0
C61 C 0.83175 0.84661 0.08708 0.0
C62 C 0.82412 0.83814 0.1129 0.0
C63 C 0.83113 0.86106 0.13238 0.0
N64 N 0.81217 0.80577 0.1185 0.0
C65 C 0.7812 0.79581 0.13816 0.0
H66 H 0.16116 0.92354 0.42661 0.0
H67 H 0.24938 0.87495 0.37013 0.0
H68 H 0.26678 0.8535 0.45084 0.0
C69 C 0.18959 0.90659 0.42189 0.0
C70 C 0.21188 0.88891 0.44184 0.0
C71 C 0.20278 0.90188 0.39587 0.0
C72 C 0.23832 0.87861 0.38998 0.0
C73 C 0.26122 0.86116 0.40996 0.0
C74 C 0.24819 0.8667 0.43561 0.0
N75 N 0.29905 0.83878 0.40545 0.0
C76 C 0.30714 0.82247 0.38252 0.0
H77 H 0.3377 0.59095 0.92161 0.0
H78 H 0.23261 0.65785 0.95054 0.0
H79 H 0.23581 0.63716 0.86941 0.0
C80 C 0.30762 0.60724 0.91811 0.0
C81 C 0.28882 0.6113 0.89281 0.0
C82 C 0.28751 0.62391 0.93905 0.0
C83 C 0.24846 0.64485 0.93455 0.0
C84 C 0.2308 0.65047 0.90954 0.0
C85 C 0.25099 0.63373 0.88861 0.0
N86 N 0.19125 0.6721 0.9065 0.0
C87 C 0.18346 0.69168 0.88503 0.0
Eu88 Eu 0.05692 0.10678 0.23234 0.0
C89 C 0.85538 0.07542 0.2883 0.0
N90 N 0.87599 0.10182 0.27714 0.0
C91 C 0.80144 0.11207 0.25386 0.0
C92 C 0.80689 0.0664 0.28244 0.0
C93 C 0.84952 0.1201 0.26016 0.0
C94 C 0.77999 0.08515 0.26505 0.0
C95 C 0.86317 0.02877 0.31645 0.0
C96 C 0.88331 0.05654 0.30502 0.0
C97 C 0.81487 0.02004 0.31077 0.0
C98 C 0.78687 0.03876 0.2938 0.0
Eu99 Eu 0.95759 0.11282 0.29051 0.0
N100 N 0.93044 0.06486 0.30967 0.0
C101 C 0.89221 1.01052 0.3333 0.0
C102 C 0.9581 0.04808 0.32703 0.0
C103 C 0.93978 0.0204 0.33878 0.0
H104 H 0.86454 0.14098 0.25124 0.0
H105 H 0.96214 1.00696 0.35231 0.0
H106 H 0.1291 0.0446 0.24975 0.0
H107 H 0.10329 0.2332 0.21769 0.0
H108 H 0.99389 0.05645 0.33239 0.0
H109 H 0.87803 0.98907 0.34247 0.0
H110 H 0.04921 0.18633 0.219 0.0
H111 H 0.78092 0.12675 0.24035 0.0
H112 H 0.79887 0.99878 0.31934 0.0
H113 H 0.74973 0.03157 0.28948 0.0
H114 H 0.21445 0.03537 0.26247 0.0
H115 H 0.74273 0.07897 0.26004 0.0
H116 H 0.19076 0.22731 0.22846 0.0
N117 N 0.13773 0.09498 0.24511 0.0
C118 C 0.16975 0.1199 0.24408 0.0
C119 C 0.20225 0.05932 0.25765 0.0
C120 C 0.21937 0.11543 0.25053 0.0
C121 C 0.15353 0.06479 0.25095 0.0
C122 C 0.23526 0.08477 0.25762 0.0
N123 N 0.10493 0.15385 0.23049 0.0
C124 C 0.0871 0.18319 0.22362 0.0
C125 C 0.18537 0.17634 0.23582 0.0
C126 C 0.15302 0.15004 0.23648 0.0
C127 C 0.16712 0.20651 0.229 0.0
C128 C 0.11777 0.20993 0.22292 0.0
H129 H 0.27307 0.0804 0.26268 0.0
H130 H 0.28986 0.13849 0.25439 0.0
H131 H 0.26007 0.19177 0.24166 0.0
O132 O 0.06757 0.11721 0.19136 0.0
O133 O 0.07682 0.13274 0.26981 0.0
O134 O 0.00437 0.15577 0.28112 0.0
O135 O 0.08094 0.06931 0.20585 0.0
O136 O 0.99492 0.14067 0.22354 0.0
O137 O 0.94591 0.15185 0.25944 0.0
O138 O 0.97831 0.12088 0.33086 0.0
O139 O 0.95178 0.06957 0.26458 0.0
O140 O 0.97809 0.09085 0.22623 0.0
O141 O 0.90757 0.13658 0.31685 0.0
O142 O 0.03157 0.08834 0.29658 0.0
O143 O 0.04711 0.06354 0.25791 0.0
C144 C 0.05208 0.15605 0.28056 0.0
C145 C 0.12432 0.08628 0.16831 0.0
C146 C 0.15562 0.09069 0.12415 0.0
C147 C 0.20287 0.08468 0.13378 0.0
C148 C 0.17169 0.08038 0.17748 0.0
C149 C 0.21068 0.07947 0.16023 0.0
C150 C 0.11648 0.0911 0.14171 0.0
C151 C 0.95971 0.15661 0.23507 0.0
C152 C 0.08237 0.08847 0.18586 0.0
C153 C 0.25166 0.14151 0.24949 0.0
C154 C 0.23472 0.17185 0.24216 0.0
C155 C 0.95462 0.06864 0.23929 0.0
C156 C 0.93937 0.16211 0.35423 0.0
C157 C 0.93606 0.18154 0.39865 0.0
C158 C 0.93798 0.21316 0.38924 0.0
C159 C 0.94205 0.19374 0.3451 0.0
C160 C 0.9369 0.15615 0.38093 0.0
C161 C 0.94135 0.21914 0.36262 0.0
C162 C 0.04779 0.0637 0.28329 0.0
C163 C 0.93725 0.13473 0.33658 0.0
H164 H 0.23403 0.08471 0.12101 0.0
H165 H 0.17865 0.07662 0.19786 0.0
H166 H 0.24722 0.07507 0.16742 0.0
H167 H 0.07964 0.09522 0.13476 0.0
H168 H 0.93754 0.23317 0.40247 0.0
H169 H 0.94423 0.19872 0.32455 0.0
H170 H 0.93455 0.13165 0.3879 0.0
H171 H 0.94323 0.24356 0.35555 0.0
Eu172 Eu 0.45134 0.40157 0.73017 0.0
C173 C 0.61954 0.47227 0.78121 0.0
N174 N 0.61493 0.44009 0.77857 0.0
C175 C 0.69461 0.43713 0.75995 0.0
C176 C 0.66124 0.48846 0.77212 0.0
C177 C 0.65233 0.42218 0.76908 0.0
C178 C 0.69885 0.47045 0.76119 0.0
C179 C 0.58634 0.52225 0.79679 0.0
C180 C 0.58243 0.4889 0.79323 0.0
C181 C 0.62678 0.53877 0.78674 0.0
C182 C 0.66417 0.5219 0.77443 0.0
Eu183 Eu 0.54067 0.41703 0.79236 0.0
N184 N 0.54377 0.47222 0.80262 0.0
C185 C 0.55019 0.53779 0.81101 0.0
C186 C 0.51126 0.48668 0.81861 0.0
C187 C 0.51306 0.51979 0.82246 0.0
H188 H 0.64889 0.39644 0.768 0.0
H189 H 0.48621 0.53132 0.83451 0.0
H190 H 0.35606 0.45233 0.74082 0.0
H191 H 0.44127 0.27293 0.71435 0.0
H192 H 0.48434 0.47259 0.82868 0.0
H193 H 0.55174 0.5634 0.81416 0.0
H194 H 0.47692 0.32748 0.7113 0.0
H195 H 0.72381 0.42298 0.75189 0.0
H196 H 0.63006 0.56447 0.78894 0.0
H197 H 0.69556 0.53486 0.76718 0.0
H198 H 0.27409 0.4498 0.75986 0.0
H199 H 0.7316 0.48196 0.75407 0.0
H200 H 0.36153 0.26493 0.73574 0.0
N201 N 0.36883 0.40213 0.74431 0.0
C202 C 0.34798 0.37305 0.74861 0.0
C203 C 0.29477 0.42803 0.75719 0.0
C204 C 0.30048 0.37038 0.75874 0.0
C205 C 0.34175 0.42938 0.74683 0.0
C206 C 0.27443 0.39843 0.76373 0.0
N207 N 0.41798 0.34944 0.73084 0.0
C208 C 0.44181 0.32399 0.72033 0.0
C209 C 0.35148 0.31536 0.74367 0.0
C210 C 0.37295 0.34589 0.74118 0.0
C211 C 0.37678 0.2888 0.7342 0.0
C212 C 0.42181 0.29322 0.7221 0.0
H213 H 0.23788 0.39742 0.77155 0.0
H214 H 0.24373 0.33737 0.77075 0.0
H215 H 0.28855 0.28913 0.75763 0.0
O216 O 0.47912 0.39692 0.69092 0.0
O217 O 0.46597 0.36352 0.76066 0.0
O218 O 0.46848 0.39128 0.79845 0.0
O219 O 0.40406 0.41012 0.69642 0.0
O220 O 0.52877 0.38115 0.72709 0.0
O221 O 0.55922 0.37292 0.76895 0.0
O222 O 0.56235 0.42413 0.83281 0.0
O223 O 0.5587 0.43315 0.75121 0.0
O224 O 0.48701 0.45013 0.73343 0.0
O225 O 0.57867 0.37955 0.81409 0.0
O226 O 0.461 0.43196 0.7955 0.0
O227 O 0.4394 0.44712 0.75396 0.0
C228 C 0.45543 0.36597 0.7852 0.0
C229 C 0.44229 0.42781 0.65781 0.0
C230 C 0.42406 0.44084 0.6125 0.0
C231 C 0.45305 0.46852 0.6148 0.0
C232 C 0.47073 0.45565 0.65971 0.0
C233 C 0.47603 0.47585 0.63827 0.0
C234 C 0.41892 0.42059 0.63426 0.0
C235 C 0.55862 0.36692 0.74385 0.0
C236 C 0.43846 0.4052 0.6797 0.0
C237 C 0.2799 0.3399 0.76265 0.0
C238 C 0.30534 0.31243 0.75511 0.0
C239 C 0.53337 0.45461 0.73838 0.0
C240 C 0.55588 0.37733 0.85818 0.0
C241 C 0.54508 0.37104 0.9048 0.0
C242 C 0.51008 0.34713 0.90024 0.0
C243 C 0.52111 0.35308 0.85409 0.0
C244 C 0.56821 0.38601 0.88369 0.0
C245 C 0.49855 0.33805 0.875 0.0
C246 C 0.43625 0.4503 0.77932 0.0
C247 C 0.57707 0.3948 0.83598 0.0
H248 H 0.45742 0.48475 0.59856 0.0
H249 H 0.48918 0.46156 0.67765 0.0
H250 H 0.49813 0.49726 0.63982 0.0
H251 H 0.39756 0.3988 0.63278 0.0
H252 H 0.49191 0.33537 0.91625 0.0
H253 H 0.51106 0.34587 0.83471 0.0
H254 H 0.59474 0.40481 0.8871 0.0
H255 H 0.47185 0.31941 0.87161 0.0
Eu256 Eu 0.06085 0.91834 0.72856 0.0
C257 C 0.85458 0.87696 0.75488 0.0
N258 N 0.87508 0.90635 0.7582 0.0
C259 C 0.80638 0.93083 0.737 0.0
C260 C 0.81 0.87333 0.74145 0.0
C261 C 0.85012 0.93325 0.7509 0.0
C262 C 0.78667 0.90071 0.73183 0.0
C263 C 0.85486 0.82008 0.76486 0.0
C264 C 0.87684 0.85056 0.76619 0.0
C265 C 0.81156 0.81617 0.75061 0.0
C266 C 0.78934 0.8427 0.73879 0.0
Eu267 Eu 0.95142 0.9073 0.78026 0.0
N268 N 0.91938 0.85488 0.77926 0.0
C269 C 0.87656 0.79463 0.77838 0.0
C270 C 0.94 0.83041 0.79309 0.0
C271 C 0.91918 0.79986 0.79267 0.0
H272 H 0.86327 0.95675 0.75599 0.0
H273 H 0.93578 0.78045 0.80351 0.0
H274 H 0.15923 0.90044 0.76398 0.0
H275 H 0.02312 0.02802 0.67349 0.0
H276 H 0.97235 0.83462 0.80451 0.0
H277 H 0.86021 0.77101 0.77835 0.0
H278 H 0.01659 0.97056 0.68381 0.0
H279 H 0.78751 0.95225 0.73067 0.0
H280 H 0.79451 0.79283 0.749 0.0
H281 H 0.75542 0.83943 0.72828 0.0
H282 H 0.22856 0.92858 0.78499 0.0
H283 H 0.75248 0.89893 0.72133 0.0
H284 H 0.08147 0.06215 0.69755 0.0
N285 N 0.1295 0.94299 0.74772 0.0
C286 C 0.13522 0.97483 0.74339 0.0
C287 C 0.20237 0.94189 0.77348 0.0
C288 C 0.17373 0.9919 0.7551 0.0
C289 C 0.16336 0.92604 0.76157 0.0
C290 C 0.20724 0.97504 0.7705 0.0
N291 N 0.0679 0.97243 0.71484 0.0
C292 C 0.0411 0.98531 0.69504 0.0
C293 C 0.10867 0.02299 0.72116 0.0
C294 C 0.10298 0.99011 0.72673 0.0
C295 C 0.07829 0.03697 0.70242 0.0
C296 C 0.04518 0.01784 0.68888 0.0
H297 H 0.23751 0.98724 0.77972 0.0
H298 H 0.20683 0.03867 0.75986 0.0
H299 H 0.14994 0.06591 0.73003 0.0
O300 O 0.09861 0.92102 0.69108 0.0
O301 O 0.06663 0.93543 0.77029 0.0
O302 O 0.99118 0.95482 0.77917 0.0
O303 O 0.10201 0.87733 0.71457 0.0
O304 O 0.9846 0.93443 0.71672 0.0
O305 O 0.94995 0.95227 0.75455 0.0
O306 O 0.96256 0.90647 0.82227 0.0
O307 O 0.97255 0.86793 0.75213 0.0
O308 O 0.99063 0.89476 0.71492 0.0
O309 O 0.89269 0.92013 0.80653 0.0
O310 O 0.0245 0.88536 0.79285 0.0
O311 O 0.06758 0.8751 0.755 0.0
C312 C 0.03868 0.95773 0.77986 0.0
C313 C 0.14617 0.87644 0.67407 0.0
C314 C 0.17421 0.87103 0.62951 0.0
C315 C 0.20475 0.84574 0.63752 0.0
C316 C 0.17655 0.85094 0.68151 0.0
C317 C 0.20582 0.83583 0.66332 0.0
C318 C 0.14529 0.88654 0.64807 0.0
C319 C 0.95573 0.95402 0.72927 0.0
C320 C 0.11502 0.89194 0.69342 0.0
C321 C 0.17795 0.02501 0.75071 0.0
C322 C 0.14546 0.04053 0.73378 0.0
C323 C 0.96941 0.87081 0.72697 0.0
C324 C 0.89289 0.89293 0.84662 0.0
C325 C 0.87437 0.88038 0.89163 0.0
C326 C 0.84833 0.85319 0.88351 0.0
C327 C 0.86534 0.86625 0.83887 0.0
C328 C 0.89687 0.90013 0.87305 0.0
C329 C 0.8437 0.84632 0.85725 0.0
C330 C 0.05823 0.86973 0.77968 0.0
C331 C 0.91739 0.91342 0.8274 0.0
H332 H 0.22819 0.83374 0.62386 0.0
H333 H 0.17789 0.8428 0.70144 0.0
H334 H 0.22943 0.81634 0.66924 0.0
H335 H 0.12115 0.90581 0.6422 0.0
H336 H 0.83041 0.83775 0.89745 0.0
H337 H 0.86006 0.86093 0.81867 0.0
H338 H 0.91748 0.92097 0.87914 0.0
H339 H 0.82278 0.82569 0.85109 0.0
Eu340 Eu 0.47017 0.60682 0.22778 0.0
C341 C 0.66308 0.65472 0.26771 0.0
N342 N 0.64399 0.62474 0.27006 0.0
C343 C 0.71742 0.60251 0.25257 0.0
C344 C 0.70939 0.65978 0.25663 0.0
C345 C 0.67178 0.59868 0.26413 0.0
C346 C 0.73594 0.63322 0.24835 0.0
C347 C 0.65699 0.71156 0.27685 0.0
C348 C 0.63731 0.68037 0.2776 0.0
C349 C 0.70226 0.71682 0.26501 0.0
C350 C 0.72836 0.69099 0.25489 0.0
Eu351 Eu 0.56442 0.62146 0.28819 0.0
N352 N 0.59306 0.67472 0.28837 0.0
C353 C 0.63066 0.73648 0.28821 0.0
C354 C 0.56814 0.69856 0.30044 0.0
C355 C 0.58628 0.72987 0.30031 0.0
H356 H 0.6596 0.57476 0.26867 0.0
H357 H 0.56606 0.74884 0.30954 0.0
H358 H 0.36421 0.63125 0.25271 0.0
H359 H 0.51489 0.49012 0.18652 0.0
H360 H 0.53409 0.69333 0.30995 0.0
H361 H 0.64455 0.76078 0.28803 0.0
H362 H 0.52137 0.54883 0.19164 0.0
H363 H 0.73867 0.58173 0.24734 0.0
H364 H 0.71771 0.74068 0.26391 0.0
H365 H 0.76374 0.69532 0.24632 0.0
H366 H 0.28841 0.60732 0.27016 0.0
H367 H 0.77154 0.6361 0.23964 0.0
H368 H 0.44743 0.46061 0.20752 0.0
N369 N 0.39445 0.58644 0.24211 0.0
C370 C 0.38733 0.55439 0.23983 0.0
C371 C 0.31609 0.59215 0.26183 0.0
C372 C 0.34502 0.53967 0.24969 0.0
C373 C 0.3589 0.60564 0.25194 0.0
C374 C 0.30944 0.55897 0.26106 0.0
N375 N 0.4625 0.55165 0.21795 0.0
C376 C 0.49358 0.53584 0.20199 0.0
C377 C 0.41631 0.50316 0.22455 0.0
C378 C 0.42277 0.53641 0.22768 0.0
C379 C 0.45094 0.4862 0.21033 0.0
C380 C 0.48917 0.50276 0.19852 0.0
H381 H 0.27643 0.54857 0.26893 0.0
H382 H 0.30761 0.49447 0.25554 0.0
H383 H 0.36988 0.46249 0.23332 0.0
O384 O 0.44928 0.60007 0.18726 0.0
O385 O 0.45245 0.5898 0.26874 0.0
O386 O 0.52514 0.57369 0.28629 0.0
O387 O 0.43559 0.64545 0.20566 0.0
O388 O 0.54872 0.58959 0.22367 0.0
O389 O 0.57295 0.57554 0.26506 0.0
O390 O 0.54781 0.62716 0.32944 0.0
O391 O 0.54823 0.65951 0.25785 0.0
O392 O 0.54332 0.63089 0.22066 0.0
O393 O 0.61633 0.60674 0.318 0.0
O394 O 0.48656 0.63938 0.29371 0.0
O395 O 0.45465 0.65063 0.2526 0.0
C396 C 0.47849 0.56909 0.28197 0.0
C397 C 0.38542 0.63151 0.16952 0.0
C398 C 0.34551 0.63193 0.12688 0.0
C399 C 0.30187 0.64134 0.13897 0.0
C400 C 0.3414 0.64043 0.18106 0.0
C401 C 0.29985 0.64519 0.1658 0.0
C402 C 0.38704 0.62675 0.14262 0.0
C403 C 0.57339 0.57118 0.23983 0.0
C404 C 0.43092 0.62856 0.18466 0.0
C405 C 0.33955 0.50632 0.24776 0.0
C406 C 0.37509 0.4881 0.23518 0.0
C407 C 0.55741 0.65648 0.2332 0.0
C408 C 0.61644 0.63625 0.3566 0.0
C409 C 0.64095 0.64514 0.40162 0.0
C410 C 0.67127 0.67037 0.3932 0.0
C411 C 0.64724 0.66131 0.34883 0.0
C412 C 0.61312 0.62836 0.38302 0.0
C413 C 0.67404 0.67844 0.36706 0.0
C414 C 0.45703 0.65541 0.27791 0.0
C415 C 0.59028 0.6169 0.3372 0.0
H416 H 0.26932 0.64644 0.12777 0.0
H417 H 0.33926 0.64414 0.20174 0.0
H418 H 0.26607 0.65245 0.17476 0.0
H419 H 0.42105 0.61914 0.13408 0.0
H420 H 0.69416 0.68334 0.40668 0.0
H421 H 0.6516 0.66719 0.32866 0.0
H422 H 0.58937 0.60893 0.38895 0.0
H423 H 0.69798 0.69758 0.36082 0.0
H424 H 0.18088 0.96612 0.39684 0.0
H425 H 0.17156 0.8821 0.34796 0.0
H426 H 0.131 0.91449 0.314 0.0
H427 H 0.06339 0.99864 0.37962 0.0
H428 H 0.08387 0.03965 0.38043 0.0
H429 H 0.11296 1.01003 0.40073 0.0
H430 H 0.19687 0.02472 0.38092 0.0
H431 H 0.16793 0.05439 0.36063 0.0
H432 H 0.20446 0.02341 0.34632 0.0
H433 H 0.09013 0.95566 0.2858 0.0
H434 H 0.05359 1.00304 0.26469 0.0
H435 H 0.08908 0.0604 0.33198 0.0
C436 C 0.17003 0.95442 0.37907 0.0
C437 C 0.17939 0.92147 0.3751 0.0
C438 C 0.16533 0.90732 0.35136 0.0
C439 C 0.14197 0.92548 0.33203 0.0
C440 C 0.13296 0.95777 0.33672 0.0
C441 C 0.14664 0.97216 0.35962 0.0
C442 C 0.13273 1.00729 0.35978 0.0
C443 C 0.09606 0.0143 0.38143 0.0
C444 C 0.17821 0.02871 0.36204 0.0
C445 C 0.10907 1.01045 0.33336 0.0
C446 C 0.10951 0.98156 0.32042 0.0
C447 C 0.08969 0.9784 0.29573 0.0
C448 C 0.0691 1.00548 0.2839 0.0
C449 C 0.06849 0.0354 0.29671 0.0
C450 C 0.08872 0.0378 0.3218 0.0
H451 H 0.3133 0.54741 0.89382 0.0
H452 H 0.3072 0.62996 0.84254 0.0
H453 H 0.33841 0.59677 0.80679 0.0
H454 H 0.42479 0.51578 0.86986 0.0
H455 H 0.40637 0.47453 0.87312 0.0
H456 H 0.38133 0.50433 0.89426 0.0
H457 H 0.2939 0.48793 0.88052 0.0
H458 H 0.31851 0.45799 0.85931 0.0
H459 H 0.2775 0.48802 0.8467 0.0
H460 H 0.37399 0.55451 0.77692 0.0
H461 H 0.4129 0.50769 0.75636 0.0
H462 H 0.39434 0.45304 0.82719 0.0
C463 C 0.31873 0.55865 0.87513 0.0
C464 C 0.30775 0.59143 0.87109 0.0
C465 C 0.31477 0.60489 0.84613 0.0
C466 C 0.33264 0.58622 0.8257 0.0
C467 C 0.34311 0.55402 0.83042 0.0
C468 C 0.33639 0.54038 0.85456 0.0
C469 C 0.35146 0.50547 0.85483 0.0
C470 C 0.39348 0.49971 0.87416 0.0
C471 C 0.30773 0.48357 0.86068 0.0
C472 C 0.36829 0.50165 0.82718 0.0
C473 C 0.36305 0.52983 0.81331 0.0
C474 C 0.37794 0.53229 0.78759 0.0
C475 C 0.39978 0.50553 0.77601 0.0
C476 C 0.40687 0.47679 0.7902 0.0
C477 C 0.38951 0.47471 0.81585 0.0
H478 H 0.71271 0.55113 0.64611 0.0
H479 H 0.63566 0.63738 0.6674 0.0
H480 H 0.58757 0.60638 0.6995 0.0
H481 H 0.61375 0.49872 0.64906 0.0
H482 H 0.64713 0.46537 0.66252 0.0
H483 H 0.67821 0.49483 0.64313 0.0
H484 H 0.73946 0.5047 0.68061 0.0
H485 H 0.70844 0.47536 0.70026 0.0
H486 H 0.71699 0.51554 0.71206 0.0
H487 H 0.54105 0.56467 0.72471 0.0
H488 H 0.50387 0.51603 0.74397 0.0
H489 H 0.61527 0.4575 0.70878 0.0
C490 C 0.68645 0.56347 0.65803 0.0
C491 C 0.67785 0.59652 0.65468 0.0
C492 C 0.64285 0.61207 0.6701 0.0
C493 C 0.61547 0.59466 0.68826 0.0
C494 C 0.62419 0.56188 0.69089 0.0
C495 C 0.65937 0.54652 0.67648 0.0
C496 C 0.66028 0.51091 0.68226 0.0
C497 C 0.64917 0.49132 0.65779 0.0
C498 C 0.7092 0.50104 0.69453 0.0
C499 C 0.61917 0.50843 0.70159 0.0
C500 C 0.59872 0.5381 0.70627 0.0
C501 C 0.55738 0.54145 0.7216 0.0
C502 C 0.53635 0.51379 0.73229 0.0
C503 C 0.55721 0.48338 0.72795 0.0
C504 C 0.59941 0.4807 0.71271 0.0
H505 H 0.91278 0.94248 0.12554 0.0
H506 H 0.80016 0.89892 0.1732 0.0
H507 H 0.81651 0.93882 0.20702 0.0
H508 H 0.99512 0.96471 0.17548 0.0
H509 H 0.01109 1.00269 0.16108 0.0
H510 H 0.99224 0.96991 0.14086 0.0
H511 H 0.92415 1.00523 0.12074 0.0
H512 H 0.94293 0.03815 0.14087 0.0
H513 H 0.88064 0.02433 0.14161 0.0
H514 H 0.84778 0.98155 0.2365 0.0
H515 H 0.88683 0.02675 0.25833 0.0
H516 H 0.97132 0.04755 0.18956 0.0
C517 C 0.89071 0.94143 0.1428 0.0
C518 C 0.85515 0.91708 0.14649 0.0
C519 C 0.82836 0.91661 0.1699 0.0
C520 C 0.83705 0.93943 0.1892 0.0
C521 C 0.87203 0.96302 0.18473 0.0
C522 C 0.898 0.96448 0.16199 0.0
C523 C 0.93259 0.99291 0.16177 0.0
C524 C 0.98592 0.98188 0.15968 0.0
C525 C 0.91926 0.01655 0.13995 0.0
C526 C 0.92234 1.00704 0.18812 0.0
C527 C 0.88765 0.98915 0.20109 0.0
C528 C 0.87417 0.99614 0.2263 0.0
C529 C 0.89648 0.02215 0.23855 0.0
C530 C 0.93108 0.04155 0.22552 0.0
C531 C 0.9441 0.03376 0.19988 0.0
H532 H 0.87881 0.12591 0.67488 0.0
H533 H 0.80806 0.07559 0.61177 0.0
H534 H 0.82266 0.02418 0.63408 0.0
H535 H 0.9712 0.07351 0.68474 0.0
H536 H 0.9739 0.07374 0.7196 0.0
H537 H 0.95094 0.10808 0.70226 0.0
H538 H 0.86936 0.10631 0.72642 0.0
H539 H 0.89194 0.07305 0.74536 0.0
H540 H 0.83514 0.06947 0.72789 0.0
H541 H 0.85663 0.97846 0.65873 0.0
H542 H 0.90144 0.9407 0.68691 0.0
H543 H 0.94605 0.01893 0.73633 0.0
C544 C 0.86486 0.10414 0.66627 0.0
C545 C 0.84237 0.10474 0.64153 0.0
C546 C 0.82567 0.07568 0.63058 0.0
C547 C 0.83362 0.04636 0.64316 0.0
C548 C 0.85767 0.04641 0.66694 0.0
C549 C 0.87223 0.0745 0.67874 0.0
C550 C 0.90031 0.06741 0.70357 0.0
C551 C 0.95217 0.08149 0.70248 0.0
C552 C 0.87251 0.0798 0.72721 0.0
C553 C 0.90105 0.03104 0.70318 0.0
C554 C 0.87594 0.01953 0.6819 0.0
C555 C 0.87522 0.98708 0.67585 0.0
C556 C 0.90084 0.96579 0.6919 0.0
C557 C 0.92612 0.97685 0.714 0.0
C558 C 0.9257 1.00984 0.71993 0.0
H559 H 0.67092 0.45941 0.12766 0.0
H560 H 0.65534 0.38021 0.18195 0.0
H561 H 0.64085 0.41841 0.21698 0.0
H562 H 0.72504 0.51788 0.17295 0.0
H563 H 0.69056 0.55073 0.15947 0.0
H564 H 0.70788 0.51766 0.13924 0.0
H565 H 0.61759 0.50923 0.12641 0.0
H566 H 0.5995 0.54188 0.14676 0.0
H567 H 0.57277 0.50281 0.15125 0.0
H568 H 0.62123 0.46451 0.24565 0.0
H569 H 0.59127 0.51471 0.26478 0.0
H570 H 0.61346 0.56382 0.19164 0.0
C571 C 0.66481 0.44994 0.14689 0.0
C572 C 0.66505 0.41652 0.15185 0.0
C573 C 0.65696 0.40554 0.17752 0.0
C574 C 0.64835 0.42711 0.19765 0.0
C575 C 0.6476 0.45972 0.19195 0.0
C576 C 0.65538 0.47113 0.16718 0.0
C577 C 0.64787 0.50708 0.16574 0.0
C578 C 0.6957 0.52435 0.15895 0.0
C579 C 0.607 0.51575 0.14641 0.0
C580 C 0.63301 0.51386 0.19336 0.0
C581 C 0.6342 0.48631 0.20829 0.0
C582 C 0.62032 0.48626 0.23418 0.0
C583 C 0.60333 0.51489 0.24488 0.0
C584 C 0.5992 0.54294 0.22954 0.0
C585 C 0.61592 0.54262 0.20373 0.0
H586 H 0.3175 0.46519 0.37926 0.0
H587 H 0.3911 0.38141 0.34944 0.0
H588 H 0.43146 0.41504 0.31642 0.0
H589 H 0.30023 0.50506 0.31475 0.0
H590 H 0.30987 0.54442 0.32792 0.0
H591 H 0.28307 0.51338 0.34766 0.0
H592 H 0.3505 0.52198 0.38235 0.0
H593 H 0.37744 0.55289 0.36267 0.0
H594 H 0.41366 0.51918 0.37311 0.0
H595 H 0.47147 0.4583 0.29039 0.0
H596 H 0.5046 0.5082 0.27133 0.0
H597 H 0.40193 0.56401 0.31557 0.0
C598 C 0.34158 0.45393 0.36551 0.0
C599 C 0.3511 0.42065 0.36685 0.0
C600 C 0.38285 0.40675 0.34856 0.0
C601 C 0.40601 0.42568 0.32977 0.0
C602 C 0.39639 0.45844 0.32917 0.0
C603 C 0.36434 0.47244 0.34626 0.0
C604 C 0.36175 0.5084 0.34191 0.0
C605 C 0.31068 0.51839 0.33251 0.0
C606 C 0.37674 0.52667 0.36647 0.0
C607 C 0.39904 0.51258 0.32059 0.0
C608 C 0.41834 0.48338 0.31343 0.0
C609 C 0.45608 0.48121 0.29556 0.0
C610 C 0.47495 0.5096 0.285 0.0
C611 C 0.45567 0.53965 0.29203 0.0
C612 C 0.41667 0.54116 0.30967 0.0
H613 H 0.19143 0.05686 0.88371 0.0
H614 H 0.12963 0.14298 0.84979 0.0
H615 H 0.09145 0.11065 0.81524 0.0
H616 H 0.21531 0.0167 0.82094 0.0
H617 H 0.20033 0.97747 0.83334 0.0
H618 H 0.22643 1.00718 0.85449 0.0
H619 H 0.15383 1.00147 0.8858 0.0
H620 H 0.12742 0.97139 0.86523 0.0
H621 H 0.09253 1.00635 0.87362 0.0
H622 H 0.05027 0.0684 0.78847 0.0
H623 H 0.016 0.01943 0.76855 0.0
H624 H 0.10963 0.96086 0.81712 0.0
C625 C 0.17062 0.0689 0.86869 0.0
C626 C 0.16358 0.10243 0.86932 0.0
C627 C 0.13598 0.11739 0.84945 0.0
C628 C 0.11402 0.09921 0.82982 0.0
C629 C 0.12078 0.06613 0.83003 0.0
C630 C 0.14923 0.05115 0.84864 0.0
C631 C 0.14955 0.01515 0.84482 0.0
C632 C 0.20096 1.00342 0.83798 0.0
C633 C 0.12964 0.99757 0.86879 0.0
C634 C 0.1151 0.01212 0.82192 0.0
C635 C 0.09892 0.04185 0.81368 0.0
C636 C 0.06345 0.04506 0.7944 0.0
C637 C 0.04392 0.01721 0.78335 0.0
C638 C 0.06052 0.98666 0.79128 0.0
C639 C 0.09702 0.98409 0.81051 0.0
H640 H 0.21334 0.08695 0.97234 0.0
H641 H 0.10543 0.16184 0.96322 0.0
H642 H 0.08311 0.15623 0.0093 0.0
H643 H 0.14456 0.0379 0.02099 0.0
H644 H 0.19925 0.02795 0.03877 0.0
H645 H 0.20191 0.03469 1.00433 0.0
H646 H 0.26837 0.07794 0.01145 0.0
H647 H 0.2655 0.07166 0.04587 0.0
H648 H 0.25603 0.11116 0.03255 0.0
H649 H 0.07938 0.14725 0.05681 0.0
H650 H 0.09198 0.13422 0.10281 0.0
H651 H 0.20142 0.06398 0.08183 0.0
C652 C 0.18397 0.10132 0.97999 0.0
C653 C 0.16034 0.12444 0.96436 0.0
C654 C 0.12324 0.14372 0.97498 0.0
C655 C 0.11044 0.14071 1.00107 0.0
C656 C 0.13519 0.1183 0.01626 0.0
C657 C 0.17088 0.0987 1.00614 0.0
C658 C 0.19427 0.07835 0.0272 0.0
C659 C 0.18439 0.0426 0.02254 0.0
C660 C 0.24929 0.0852 0.02939 0.0
C661 C 0.16713 0.09026 0.05076 0.0
C662 C 0.13296 0.11308 0.04393 0.0
C663 C 0.10529 0.1289 0.06237 0.0
C664 C 0.11259 0.12117 0.08852 0.0
C665 C 0.14728 0.09773 0.09613 0.0
C666 C 0.17466 0.08203 0.07681 0.0
H667 H 0.39963 0.41716 0.45885 0.0
H668 H 0.25204 0.38373 0.47247 0.0
H669 H 0.26196 0.39444 0.51908 0.0
H670 H 0.45216 0.38341 0.51548 0.0
H671 H 0.49304 0.41634 0.52176 0.0
H672 H 0.47366 0.40805 0.48914 0.0
H673 H 0.44161 0.4661 0.48426 0.0
H674 H 0.46119 0.47463 0.51684 0.0
H675 H 0.39862 0.48129 0.50741 0.0
H676 H 0.28906 0.40579 0.56448 0.0
H677 H 0.33068 0.41899 0.60553 0.0
H678 H 0.46086 0.44533 0.56296 0.0
C679 C 0.36912 0.4127 0.47158 0.0
C680 C 0.32504 0.39953 0.46197 0.0
C681 C 0.28628 0.39351 0.47939 0.0
C682 C 0.2915 0.39963 0.5059 0.0
C683 C 0.33568 0.41192 0.51483 0.0
C684 C 0.37375 0.41862 0.49822 0.0
C685 C 0.41792 0.43078 0.51307 0.0
C686 C 0.46178 0.4083 0.50966 0.0
C687 C 0.43057 0.46525 0.50491 0.0
C688 C 0.39884 0.42953 0.54058 0.0
C689 C 0.35129 0.41861 0.54112 0.0
C690 C 0.32623 0.41453 0.56429 0.0
C691 C 0.35031 0.42187 0.58755 0.0
C692 C 0.39905 0.43321 0.58757 0.0
C693 C 0.42341 0.43713 0.56364 0.0
H694 H 0.69022 0.36179 0.03835 0.0
H695 H 0.565 0.40637 0.07424 0.0
H696 H 0.52732 0.41425 0.03114 0.0
H697 H 0.69161 0.41206 0.97967 0.0
H698 H 0.70889 0.37922 0.9592 0.0
H699 H 0.72788 0.3797 0.99263 0.0
H700 H 0.68826 0.324 0.99972 0.0
H701 H 0.66923 0.32333 0.96636 0.0
H702 H 0.62481 0.31829 0.99164 0.0
H703 H 0.49954 0.41211 0.98469 0.0
H704 H 0.48507 0.40158 0.93815 0.0
H705 H 0.6289 0.35968 0.9322 0.0
C706 C 0.65502 0.37344 0.03713 0.0
C707 C 0.63061 0.38354 0.05971 0.0
C708 C 0.58472 0.39884 0.05724 0.0
C709 C 0.56295 0.4033 0.03284 0.0
C710 C 0.58771 0.39263 0.01103 0.0
C711 C 0.63292 0.37823 0.01293 0.0
C712 C 0.6509 0.36763 0.98665 0.0
C713 C 0.69759 0.38574 0.97909 0.0
C714 C 0.65874 0.33115 0.98607 0.0
C715 C 0.60819 0.37757 0.96971 0.0
C716 C 0.57218 0.39207 0.98416 0.0
C717 C 0.52783 0.40132 0.97313 0.0
C718 C 0.51989 0.39528 0.94676 0.0
C719 C 0.55623 0.3804 0.93172 0.0
C720 C 0.60112 0.37181 0.94326 0.0
H721 H 0.82707 0.194 0.54139 0.0
H722 H 0.93658 0.12493 0.56578 0.0
H723 H 0.96709 0.12242 0.52106 0.0
H724 H 0.80248 0.16059 0.47884 0.0
H725 H 0.7957 0.19896 0.46309 0.0
H726 H 0.78148 0.19465 0.49691 0.0
H727 H 0.84203 0.24033 0.50792 0.0
H728 H 0.85649 0.24477 0.47414 0.0
H729 H 0.90445 0.2375 0.49741 0.0
H730 H 0.98544 0.12705 0.47353 0.0
H731 H 0.99154 0.13967 0.42685 0.0
H732 H 0.87314 0.20775 0.43385 0.0
C733 C 0.85777 0.17854 0.53746 0.0
C734 C 0.87915 0.15953 0.55725 0.0
C735 C 0.91884 0.13929 0.55099 0.0
C736 C 0.93672 0.13786 0.52564 0.0
C737 C 0.91484 0.15696 0.50671 0.0
C738 C 0.87636 0.17702 0.51231 0.0
C739 C 0.85972 0.19537 0.48847 0.0
C740 C 0.80671 0.18687 0.48141 0.0
C741 C 0.86607 0.23164 0.49222 0.0
C742 C 0.89503 0.18261 0.46859 0.0
C743 C 0.92627 0.16029 0.47947 0.0
C744 C 0.96131 0.14458 0.46483 0.0
C745 C 0.96443 0.15183 0.43835 0.0
C746 C 0.93301 0.17478 0.42682 0.0
C747 C 0.89806 0.19043 0.44224 0.0
H748 H 0.88411 0.84029 0.04174 0.0
H749 H 0.8229 0.93463 0.05515 0.0
H750 H 0.83282 0.94769 1.00891 0.0
H751 H 0.96972 0.86222 0.99095 0.0
H752 H 0.95795 0.8263 0.97276 0.0
H753 H 0.95218 0.82588 1.00747 0.0
H754 H 0.86339 0.80507 1.00316 0.0
H755 H 0.86896 0.80529 0.96851 0.0
H756 H 0.82029 0.82717 0.9836 0.0
H757 H 0.84481 0.9493 0.96052 0.0
H758 H 0.85184 0.93767 0.91376 0.0
H759 H 0.89913 0.84112 0.93201 0.0
C760 C 0.87267 0.86374 0.0351 0.0
C761 C 0.85296 0.88644 0.05233 0.0
C762 C 0.83913 0.91697 0.04261 0.0
C763 C 0.84441 0.92461 0.01629 0.0
C764 C 0.86331 0.90143 0.99987 0.0
C765 C 0.87689 0.87154 1.0089 0.0
C766 C 0.89224 0.84991 0.98704 0.0
C767 C 0.94624 0.84054 0.98972 0.0
C768 C 0.85924 0.82011 0.98549 0.0
C769 C 0.88416 0.87206 0.96419 0.0
C770 C 0.86841 0.9019 0.97199 0.0
C771 C 0.85741 0.92609 0.9542 0.0
C772 C 0.86168 0.91935 0.92774 0.0
C773 C 0.87603 0.88855 0.91942 0.0
C774 C 0.88807 0.86485 0.93793 0.0
H775 H 0.69228 0.6724 0.55152 0.0
H776 H 0.68464 0.56948 0.56225 0.0
H777 H 0.65934 0.56334 0.51646 0.0
H778 H 0.58736 0.67878 0.50706 0.0
H779 H 0.61573 0.70999 0.48816 0.0
H780 H 0.62956 0.70615 0.52215 0.0
H781 H 0.72169 0.70234 0.51164 0.0
H782 H 0.70817 0.7061 0.47767 0.0
H783 H 0.74248 0.6722 0.48945 0.0
H784 H 0.64296 0.56848 0.46829 0.0
H785 H 0.63493 0.5843 0.42242 0.0
H786 H 0.64823 0.68425 0.4442 0.0
C787 C 0.68491 0.6486 0.54426 0.0
C788 C 0.6905 0.62139 0.56033 0.0
C789 C 0.6802 0.59063 0.55025 0.0
C790 C 0.66591 0.58694 0.52429 0.0
C791 C 0.66137 0.61429 0.50885 0.0
C792 C 0.67008 0.64455 0.51857 0.0
C793 C 0.66417 0.67 0.49784 0.0
C794 C 0.62167 0.69256 0.50419 0.0
C795 C 0.71197 0.68875 0.49392 0.0
C796 C 0.65234 0.64931 0.47471 0.0
C797 C 0.6506 0.61726 0.48142 0.0
C798 C 0.64334 0.59356 0.46291 0.0
C799 C 0.63847 0.60284 0.43685 0.0
C800 C 0.64077 0.63559 0.42949 0.0
C801 C 0.64674 0.659 0.44895 0.0
H802 H 0.23789 0.61048 0.98368 0.0
H803 H 0.38244 0.63106 0.95439 0.0
H804 H 0.41447 0.63261 0.99928 0.0
H805 H 0.24188 0.66093 0.03726 0.0
H806 H 0.20962 0.63437 0.05882 0.0
H807 H 0.19895 0.63226 0.02449 0.0
H808 H 0.22114 0.57196 0.02493 0.0
H809 H 0.23135 0.57379 0.05936 0.0
H810 H 0.27877 0.55934 0.03845 0.0
H811 H 0.42797 0.63852 0.04749 0.0
H812 H 0.42427 0.64326 0.09479 0.0
H813 H 0.2721 0.6138 0.09274 0.0
C814 C 0.27645 0.61478 0.98676 0.0
C815 C 0.30781 0.62062 0.96563 0.0
C816 C 0.358 0.6262 0.97033 0.0
C817 C 0.3764 0.62727 0.99574 0.0
C818 C 0.34425 0.62215 0.01619 0.0
C819 C 0.29551 0.6154 0.01195 0.0
C820 C 0.26845 0.6114 0.03725 0.0
C821 C 0.2273 0.63622 0.03958 0.0
C822 C 0.24878 0.57708 0.04017 0.0
C823 C 0.3092 0.61791 0.05643 0.0
C824 C 0.3526 0.62411 0.04392 0.0
C825 C 0.39446 0.63289 0.05751 0.0
C826 C 0.39199 0.63527 0.08457 0.0
C827 C 0.34805 0.62851 0.09802 0.0
C828 C 0.30633 0.61944 0.08345 0.0
H829 H 0.19565 0.84241 0.47816 0.0
H830 H 0.19737 0.9455 0.46754 0.0
H831 H 0.18125 0.95253 0.51426 0.0
H832 H 0.10065 0.83986 0.5281 0.0
H833 H 0.13022 0.80761 0.54536 0.0
H834 H 0.1367 0.81105 0.51079 0.0
H835 H 0.23078 0.81142 0.51606 0.0
H836 H 0.22462 0.80817 0.5506 0.0
H837 H 0.25907 0.84076 0.53675 0.0
H838 H 0.17264 0.94789 0.56305 0.0
H839 H 0.17093 0.93208 0.60923 0.0
H840 H 0.17412 0.83202 0.58711 0.0
C841 C 0.19223 0.86648 0.48561 0.0
C842 C 0.19787 0.89343 0.46927 0.0
C843 C 0.19271 0.92453 0.4797 0.0
C844 C 0.18371 0.92873 0.5062 0.0
C845 C 0.17951 0.90158 0.52188 0.0
C846 C 0.18319 0.87106 0.51188 0.0
C847 C 0.1797 0.84581 0.53286 0.0
C848 C 0.1341 0.82485 0.52905 0.0
C849 C 0.22632 0.82535 0.53414 0.0
C850 C 0.17497 0.86685 0.5564 0.0
C851 C 0.17442 0.89894 0.54973 0.0
C852 C 0.17239 0.92282 0.56845 0.0
C853 C 0.17127 0.91361 0.59462 0.0
C854 C 0.17247 0.88081 0.60182 0.0
C855 C 0.17367 0.85729 0.58231 0.0
H856 H 0.26362 0.24996 0.35539 0.0
H857 H 0.17012 0.33339 0.35349 0.0
H858 H 0.11126 0.30432 0.32559 0.0
H859 H 0.23708 0.22175 0.28775 0.0
H860 H 0.23938 0.18046 0.29814 0.0
H861 H 0.27601 0.21006 0.31439 0.0
H862 H 0.23663 0.19189 0.35775 0.0
H863 H 0.19884 0.16346 0.34094 0.0
H864 H 0.17125 0.19346 0.36104 0.0
H865 H 0.05817 0.26403 0.3031 0.0
H866 H 0.01675 0.21674 0.28479 0.0
H867 H 0.14588 0.15945 0.29964 0.0
C868 C 0.23148 0.26233 0.3483 0.0
C869 C 0.22149 0.29401 0.35599 0.0
C870 C 0.17855 0.30931 0.34726 0.0
C871 C 0.14496 0.29294 0.33152 0.0
C872 C 0.15518 0.26137 0.32466 0.0
C873 C 0.19771 0.24633 0.33248 0.0
C874 C 0.19835 0.21163 0.32389 0.0
C875 C 0.2402 0.20565 0.30489 0.0
C876 C 0.20144 0.18878 0.3473 0.0
C877 C 0.14914 0.20928 0.31051 0.0
C878 C 0.12482 0.23825 0.31122 0.0
C879 C 0.07723 0.24142 0.30199 0.0
C880 C 0.05389 0.21435 0.29178 0.0
C881 C 0.07818 0.18448 0.29067 0.0
C882 C 0.12667 0.1821 0.29989 0.0
H883 H 0.27045 0.27685 0.88041 0.0
H884 H 0.31861 0.18728 0.84742 0.0
H885 H 0.37378 0.21713 0.81788 0.0
H886 H 0.27409 0.32396 0.82015 0.0
H887 H 0.29558 0.35964 0.83603 0.0
H888 H 0.25765 0.33152 0.85326 0.0
H889 H 0.32278 0.32718 0.88912 0.0
H890 H 0.36261 0.35437 0.87219 0.0
H891 H 0.3838 0.31498 0.88117 0.0
H892 H 0.42607 0.25666 0.7937 0.0
H893 H 0.46973 0.30303 0.77505 0.0
H894 H 0.38814 0.36709 0.82425 0.0
C895 C 0.29201 0.26369 0.86656 0.0
C896 C 0.29026 0.22998 0.8657 0.0
C897 C 0.31934 0.21321 0.84791 0.0
C898 C 0.35075 0.22995 0.83122 0.0
C899 C 0.35238 0.26332 0.83277 0.0
C900 C 0.32347 0.28004 0.84983 0.0
C901 C 0.33315 0.31576 0.84818 0.0
C902 C 0.2874 0.33379 0.83885 0.0
C903 C 0.35171 0.32884 0.8742 0.0
C904 C 0.37271 0.31652 0.82789 0.0
C905 C 0.383 0.28603 0.81914 0.0
C906 C 0.4181 0.28061 0.80032 0.0
C907 C 0.44264 0.30706 0.78984 0.0
C908 C 0.43198 0.33851 0.79816 0.0
C909 C 0.39711 0.34323 0.81771 0.0
H910 H 0.70427 0.26622 0.63822 0.0
H911 H 0.78334 0.22124 0.70136 0.0
H912 H 0.73146 0.24992 0.73291 0.0
H913 H 0.69403 0.34187 0.66615 0.0
H914 H 0.63358 0.3502 0.65404 0.0
H915 H 0.67297 0.32361 0.6366 0.0
H916 H 0.60738 0.27893 0.6387 0.0
H917 H 0.56754 0.30554 0.65594 0.0
H918 H 0.58297 0.26705 0.66962 0.0
H919 H 0.67576 0.28707 0.75713 0.0
H920 H 0.6188 0.32812 0.77266 0.0
H921 H 0.57573 0.34913 0.69336 0.0
C922 C 0.70964 0.26186 0.65872 0.0
C923 C 0.74694 0.24131 0.66761 0.0
C924 C 0.75423 0.23661 0.6944 0.0
C925 C 0.72508 0.25284 0.71235 0.0
C926 C 0.68899 0.27354 0.70302 0.0
C927 C 0.68089 0.27787 0.67682 0.0
C928 C 0.64163 0.30272 0.67181 0.0
C929 C 0.66178 0.33128 0.65623 0.0
C930 C 0.59725 0.28765 0.65822 0.0
C931 C 0.62957 0.31225 0.69926 0.0
C932 C 0.65709 0.29502 0.71696 0.0
C933 C 0.65368 0.30045 0.74344 0.0
C934 C 0.62124 0.32398 0.75205 0.0
C935 C 0.59253 0.34198 0.73427 0.0
C936 C 0.59683 0.33578 0.70751 0.0
H937 H 0.74875 0.27692 0.18748 0.0
H938 H 0.83409 0.29027 0.11793 0.0
H939 H 0.90126 0.25884 0.13733 0.0
H940 H 0.85589 0.27973 0.23386 0.0
H941 H 0.82985 0.24953 0.25469 0.0
H942 H 0.79059 0.27632 0.23675 0.0
H943 H 0.74619 0.22753 0.21677 0.0
H944 H 0.78572 0.20061 0.2343 0.0
H945 H 0.78101 0.19794 0.19959 0.0
H946 H 0.95117 0.21899 0.16008 0.0
H947 H 0.98822 0.17787 0.18741 0.0
H948 H 0.87772 0.19409 0.24602 0.0
C949 C 0.78234 0.274 0.17683 0.0
C950 C 0.787 0.28618 0.1514 0.0
C951 C 0.83053 0.28139 0.13757 0.0
C952 C 0.8687 0.26354 0.1484 0.0
C953 C 0.86284 0.25104 0.17323 0.0
C954 C 0.82134 0.25651 0.18761 0.0
C955 C 0.82404 0.23881 0.2134 0.0
C956 C 0.82517 0.26252 0.23602 0.0
C957 C 0.78172 0.21481 0.21616 0.0
C958 C 0.87258 0.22165 0.21072 0.0
C959 C 0.89391 0.22905 0.18729 0.0
C960 C 0.93574 0.21374 0.17885 0.0
C961 C 0.95654 0.19023 0.19472 0.0
C962 C 0.93649 0.18252 0.21928 0.0
C963 C 0.89423 0.19907 0.22749 0.0
H964 H 0.8791 0.69965 0.67774 0.0
H965 H 0.77543 0.74967 0.62869 0.0
H966 H 0.80134 0.8014 0.64767 0.0
H967 H 0.86522 0.75052 0.73423 0.0
H968 H 0.9291 0.74991 0.74302 0.0
H969 H 0.90194 0.71616 0.72682 0.0
H970 H 0.96469 0.71931 0.69021 0.0
H971 H 0.99406 0.7524 0.70615 0.0
H972 H 0.97365 0.75657 0.6731 0.0
H973 H 0.84578 0.84764 0.66784 0.0
H974 H 0.89944 0.88522 0.69148 0.0
H975 H 0.97063 0.80543 0.72982 0.0
C976 C 0.86112 0.7215 0.67158 0.0
C977 C 0.82487 0.72101 0.65216 0.0
C978 C 0.80276 0.74984 0.64391 0.0
C979 C 0.8174 0.77923 0.65448 0.0
C980 C 0.85405 0.77915 0.67329 0.0
C981 C 0.87522 0.75103 0.68202 0.0
C982 C 0.91497 0.75768 0.70177 0.0
C983 C 0.90206 0.74272 0.72805 0.0
C984 C 0.96478 0.74578 0.69222 0.0
C985 C 0.9133 0.79395 0.70256 0.0
C986 C 0.87828 0.80585 0.68574 0.0
C987 C 0.87276 0.83862 0.68137 0.0
C988 C 0.90364 0.85977 0.69463 0.0
C989 C 0.93883 0.84813 0.71236 0.0
C990 C 0.9435 0.81484 0.71651 0.0
H991 H 0.75928 0.73309 0.14059 0.0
H992 H 0.72511 0.8252 0.17398 0.0
H993 H 0.66212 0.79941 0.20154 0.0
H994 H 0.63694 0.70326 0.13786 0.0
H995 H 0.65334 0.66263 0.14599 0.0
H996 H 0.69637 0.68816 0.12959 0.0
H997 H 0.75961 0.67741 0.16568 0.0
H998 H 0.71703 0.65231 0.18284 0.0
H999 H 0.74464 0.68611 0.19875 0.0
H1000 H 0.60171 0.76361 0.22434 0.0
H1001 H 0.55099 0.7202 0.24265 0.0
H1002 H 0.62481 0.65114 0.19439 0.0
C1003 C 0.73874 0.74766 0.15394 0.0
C1004 C 0.74681 0.78094 0.15552 0.0
C1005 C 0.71932 0.79957 0.17282 0.0
C1006 C 0.68353 0.78514 0.1884 0.0
C1007 C 0.67593 0.75218 0.18625 0.0
C1008 C 0.70295 0.73363 0.16955 0.0
C1009 C 0.6874 0.69878 0.17075 0.0
C1010 C 0.66732 0.68756 0.14448 0.0
C1011 C 0.72966 0.67738 0.18007 0.0
C1012 C 0.64734 0.70055 0.19073 0.0
C1013 C 0.6412 0.73159 0.19935 0.0
C1014 C 0.6063 0.73925 0.21776 0.0
C1015 C 0.57765 0.71447 0.22801 0.0
C1016 C 0.58414 0.68243 0.21992 0.0
C1017 C 0.61886 0.6755 0.20072 0.0
H1018 H 0.36773 0.77306 0.38886 0.0
H1019 H 0.28002 0.82293 0.33162 0.0
H1020 H 0.30692 0.78429 0.29809 0.0
H1021 H 0.46885 0.75545 0.34753 0.0
H1022 H 0.48009 0.71675 0.36194 0.0
H1023 H 0.45339 0.74815 0.3809 0.0
H1024 H 0.3802 0.71107 0.39178 0.0
H1025 H 0.40669 0.67964 0.37276 0.0
H1026 H 0.34561 0.69321 0.36583 0.0
H1027 H 0.34562 0.74012 0.27099 0.0
H1028 H 0.3924 0.69526 0.25255 0.0
H1029 H 0.45285 0.67433 0.32862 0.0
C1030 C 0.35424 0.77574 0.36922 0.0
C1031 C 0.32203 0.80069 0.36253 0.0
C1032 C 0.30486 0.80379 0.33685 0.0
C1033 C 0.3199 0.78199 0.31782 0.0
C1034 C 0.35188 0.75742 0.32502 0.0
C1035 C 0.36881 0.75427 0.35015 0.0
C1036 C 0.40317 0.72614 0.35303 0.0
C1037 C 0.4544 0.7373 0.36134 0.0
C1038 C 0.38267 0.70103 0.37197 0.0
C1039 C 0.40309 0.71382 0.32561 0.0
C1040 C 0.37345 0.73212 0.30967 0.0
C1041 C 0.36878 0.72561 0.28335 0.0
C1042 C 0.39551 0.70001 0.27307 0.0
C1043 C 0.4265 0.68116 0.28908 0.0
C1044 C 0.42959 0.68812 0.31575 0.0
H1045 H 0.11824 0.73939 0.88977 0.0
H1046 H 0.22263 0.69779 0.83717 0.0
H1047 H 0.20347 0.74011 0.80471 0.0
H1048 H 0.02858 0.76192 0.84149 0.0
H1049 H 0.01227 0.79865 0.85735 0.0
H1050 H 0.03419 0.76514 0.87615 0.0
H1051 H 0.10222 0.80094 0.89569 0.0
H1052 H 0.08057 0.83449 0.87685 0.0
H1053 H 0.14325 0.82199 0.87438 0.0
H1054 H 0.1724 0.78675 0.77828 0.0
H1055 H 0.13099 0.83327 0.75891 0.0
H1056 H 0.04731 0.84545 0.82933 0.0
C1057 C 0.13683 0.73925 0.87133 0.0
C1058 C 0.17169 0.71553 0.86567 0.0
C1059 C 0.19567 0.71586 0.84159 0.0
C1060 C 0.18507 0.73979 0.82317 0.0
C1061 C 0.15053 0.76307 0.82933 0.0
C1062 C 0.12666 0.76295 0.8528 0.0
C1063 C 0.09101 0.79061 0.85457 0.0
C1064 C 0.0384 0.77834 0.85756 0.0
C1065 C 0.10513 0.81335 0.87668 0.0
C1066 C 0.09845 0.80633 0.82841 0.0
C1067 C 0.13292 0.79006 0.81417 0.0
C1068 C 0.14538 0.79966 0.78926 0.0
C1069 C 0.12152 0.82624 0.77844 0.0
C1070 C 0.08541 0.84312 0.79246 0.0
C1071 C 0.07447 0.83316 0.81798 0.0
loop_
_geom_bond_atom_site_label_1
_geom_bond_atom_site_label_2
_geom_bond_distance
_geom_bond_site_symmetry_2
_ccdc_geom_bond_type
H0 C3 0.929 . S
H1 C6 0.929 . S
H2 C8 0.930 . S
C3 H0 0.929 . S
C3 C4 1.398 . S
C3 C5 1.396 . S
C4 C3 1.398 . S
C4 C8 1.407 . S
C5 C3 1.396 . S
C5 C6 1.394 . S
C6 H1 0.929 . S
C6 C5 1.394 . S
C6 C7 1.382 . S
C7 C6 1.382 . S
C7 C8 1.392 . S
C7 N9 1.420 . S
C8 H2 0.930 . S
C8 C4 1.407 . S
C8 C7 1.392 . S
N9 C7 1.420 . S
N9 C10 1.244 . S
C10 N9 1.244 . S
H11 C14 0.929 . S
H12 C17 0.929 . S
H13 C19 0.930 . S
C14 H11 0.929 . S
C14 C15 1.398 . S
C14 C16 1.396 . S
C15 C14 1.398 . S
C15 C19 1.407 . S
C16 C14 1.396 . S
C16 C17 1.394 . S
C17 H12 0.929 . S
C17 C16 1.394 . S
C17 C18 1.382 . S
C18 C17 1.382 . S
C18 C19 1.392 . S
C18 N20 1.420 . S
C19 H13 0.930 . S
C19 C15 1.407 . S
C19 C18 1.392 . S
N20 C18 1.420 . S
N20 C21 1.244 . S
C21 N20 1.244 . S
H22 C25 0.929 . S
H23 C28 0.929 . S
H24 C30 0.930 . S
C25 H22 0.929 . S
C25 C26 1.398 . S
C25 C27 1.396 . S
C26 C25 1.398 . S
C26 C30 1.407 . S
C27 C25 1.396 . S
C27 C28 1.394 . S
C28 H23 0.929 . S
C28 C27 1.394 . S
C28 C29 1.382 . S
C29 C28 1.382 . S
C29 C30 1.392 . S
C29 N31 1.420 . S
C30 H24 0.930 . S
C30 C26 1.407 . S
C30 C29 1.392 . S
N31 C29 1.420 . S
N31 C32 1.244 . S
C32 N31 1.244 . S
H33 C36 0.929 . S
H34 C39 0.929 . S
H35 C41 0.930 . S
C36 H33 0.929 . S
C36 C37 1.398 . S
C36 C38 1.396 . S
C37 C36 1.398 . S
C37 C41 1.407 . S
C38 C36 1.396 . S
C38 C39 1.394 . S
C39 H34 0.929 . S
C39 C38 1.394 . S
C39 C40 1.382 . S
C40 C39 1.382 . S
C40 C41 1.392 . S
C40 N42 1.420 . S
C41 H35 0.930 . S
C41 C37 1.407 . S
C41 C40 1.392 . S
N42 C40 1.420 . S
N42 C43 1.244 . S
C43 N42 1.244 . S
H44 C47 0.929 . S
H45 C50 0.929 . S
H46 C52 0.930 . S
C47 H44 0.929 . S
C47 C48 1.398 . S
C47 C49 1.396 . S
C48 C47 1.398 . S
C48 C52 1.407 . S
C49 C47 1.396 . S
C49 C50 1.394 . S
C50 H45 0.929 . S
C50 C49 1.394 . S
C50 C51 1.382 . S
C51 C50 1.382 . S
C51 C52 1.392 . S
C51 N53 1.420 . S
C52 H46 0.930 . S
C52 C48 1.407 . S
C52 C51 1.392 . S
N53 C51 1.420 . S
N53 C54 1.244 . S
C54 N53 1.244 . S
H55 C58 0.929 . S
H56 C61 0.929 . S
H57 C63 0.930 . S
C58 H55 0.929 . S
C58 C59 1.398 . S
C58 C60 1.396 . S
C59 C58 1.398 . S
C59 C63 1.407 . S
C60 C58 1.396 . S
C60 C61 1.394 . S
C61 H56 0.929 . S
C61 C60 1.394 . S
C61 C62 1.382 . S
C62 C61 1.382 . S
C62 C63 1.392 . S
C62 N64 1.420 . S
C63 H57 0.930 . S
C63 C59 1.407 . S
C63 C62 1.392 . S
N64 C62 1.420 . S
N64 C65 1.244 . S
C65 N64 1.244 . S
H66 C69 0.929 . S
H67 C72 0.929 . S
H68 C74 0.930 . S
C69 H66 0.929 . S
C69 C70 1.398 . S
C69 C71 1.396 . S
C70 C69 1.398 . S
C70 C74 1.407 . S
C71 C69 1.396 . S
C71 C72 1.394 . S
C72 H67 0.929 . S
C72 C71 1.394 . S
C72 C73 1.382 . S
C73 C72 1.382 . S
C73 C74 1.392 . S
C73 N75 1.420 . S
C74 H68 0.930 . S
C74 C70 1.407 . S
C74 C73 1.392 . S
N75 C73 1.420 . S
N75 C76 1.244 . S
C76 N75 1.244 . S
H77 C80 0.929 . S
H78 C83 0.929 . S
H79 C85 0.930 . S
C80 H77 0.929 . S
C80 C81 1.398 . S
C80 C82 1.396 . S
C81 C80 1.398 . S
C81 C85 1.407 . S
C82 C80 1.396 . S
C82 C83 1.394 . S
C83 H78 0.929 . S
C83 C82 1.394 . S
C83 C84 1.382 . S
C84 C83 1.382 . S
C84 C85 1.392 . S
C84 N86 1.420 . S
C85 H79 0.930 . S
C85 C81 1.407 . S
C85 C84 1.392 . S
N86 C84 1.420 . S
N86 C87 1.244 . S
C87 N86 1.244 . S
Eu88 N117 2.600 . S
Eu88 N123 2.562 . S
Eu88 O132 2.462 . S
Eu88 O133 2.373 . S
Eu88 O135 2.432 . S
Eu88 O136 2.291 . S
Eu88 O140 2.335 . S
Eu88 O143 2.372 . S
Eu88 C152 2.787 . S
C89 N90 1.365 . S
C89 C92 1.405 . S
C89 C96 1.448 . S
N90 C89 1.365 . S
N90 C93 1.319 . S
N90 Eu99 2.600 . S
C91 C93 1.397 . S
C91 C94 1.367 . S
C91 H111 0.931 . S
C92 C89 1.405 . S
C92 C94 1.403 . S
C92 C98 1.439 . S
C93 N90 1.319 . S
C93 C91 1.397 . S
C93 H104 0.930 . S
C94 C91 1.367 . S
C94 C92 1.403 . S
C94 H115 0.929 . S
C95 C96 1.430 . S
C95 C97 1.387 . S
C95 C101 1.404 1_545 S
C96 C89 1.448 . S
C96 C95 1.430 . S
C96 N100 1.351 . S
C97 C95 1.387 . S
C97 C98 1.374 . S
C97 H112 0.931 . S
C98 C92 1.439 . S
C98 C97 1.374 . S
C98 H113 0.931 . S
Eu99 N90 2.600 . S
Eu99 N100 2.562 . S
Eu99 O134 2.335 1_655 S
Eu99 O137 2.372 . S
Eu99 O138 2.462 . S
Eu99 O139 2.373 . S
Eu99 O141 2.432 . S
Eu99 O142 2.291 1_655 S
Eu99 C163 2.787 . S
N100 C96 1.351 . S
N100 Eu99 2.562 . S
N100 C102 1.325 . S
C101 C95 1.404 1_565 S
C101 C103 1.366 . S
C101 H109 0.930 . S
C102 N100 1.325 . S
C102 C103 1.416 1_545 S
C102 H108 0.929 . S
C103 C101 1.366 . S
C103 C102 1.416 1_565 S
C103 H105 0.930 . S
H104 C93 0.930 . S
H105 C103 0.930 . S
H106 C121 0.930 . S
H107 C128 0.930 . S
H108 C102 0.929 . S
H109 C101 0.930 . S
H110 C124 0.929 . S
H111 C91 0.931 . S
H112 C97 0.931 . S
H113 C98 0.931 . S
H114 C119 0.931 . S
H115 C94 0.929 . S
H116 C127 0.930 . S
N117 Eu88 2.600 . S
N117 C118 1.365 . S
N117 C121 1.319 . S
C118 N117 1.365 . S
C118 C120 1.405 . S
C118 C126 1.448 . S
C119 H114 0.931 . S
C119 C121 1.397 . S
C119 C122 1.367 . S
C120 C118 1.405 . S
C120 C122 1.403 . S
C120 C153 1.439 . S
C121 H106 0.930 . S
C121 N117 1.319 . S
C121 C119 1.397 . S
C122 C119 1.367 . S
C122 C120 1.403 . S
C122 H129 0.929 . S
N123 Eu88 2.562 . S
N123 C124 1.325 . S
N123 C126 1.351 . S
C124 H110 0.929 . S
C124 N123 1.325 . S
C124 C128 1.416 . S
C125 C126 1.430 . S
C125 C127 1.404 . S
C125 C154 1.387 . S
C126 C118 1.448 . S
C126 N123 1.351 . S
C126 C125 1.430 . S
C127 H116 0.930 . S
C127 C125 1.404 . S
C127 C128 1.366 . S
C128 H107 0.930 . S
C128 C124 1.416 . S
C128 C127 1.366 . S
H129 C122 0.929 . S
H130 C153 0.931 . S
H131 C154 0.931 . S
O132 Eu88 2.462 . S
O132 C152 1.252 . S
O133 Eu88 2.373 . S
O133 C144 1.249 . S
O134 Eu99 2.335 1_455 S
O134 C144 1.264 . S
O135 Eu88 2.432 . S
O135 C152 1.268 . S
O136 Eu88 2.291 . S
O136 C151 1.255 1_455 S
O137 Eu99 2.372 . S
O137 C151 1.257 . S
O138 Eu99 2.462 . S
O138 C163 1.252 . S
O139 Eu99 2.373 . S
O139 C155 1.249 . S
O140 Eu88 2.335 . S
O140 C155 1.264 1_455 S
O141 Eu99 2.432 . S
O141 C163 1.268 . S
O142 Eu99 2.291 1_455 S
O142 C162 1.255 . S
O143 Eu88 2.372 . S
O143 C162 1.257 . S
C144 O133 1.249 . S
C144 O134 1.264 . S
C145 C148 1.382 . S
C145 C150 1.390 . S
C145 C152 1.506 . S
C146 C147 1.398 . S
C146 C150 1.392 . S
C147 C146 1.398 . S
C147 C149 1.372 . S
C147 H164 0.931 . S
C148 C145 1.382 . S
C148 C149 1.390 . S
C148 H165 0.931 . S
C149 C147 1.372 . S
C149 C148 1.390 . S
C149 H166 0.929 . S
C150 C145 1.390 . S
C150 C146 1.392 . S
C150 H167 0.930 . S
C151 O136 1.255 1_655 S
C151 O137 1.257 . S
C152 Eu88 2.787 . S
C152 O132 1.252 . S
C152 O135 1.268 . S
C152 C145 1.506 . S
C153 C120 1.439 . S
C153 H130 0.931 . S
C153 C154 1.374 . S
C154 C125 1.387 . S
C154 H131 0.931 . S
C154 C153 1.374 . S
C155 O139 1.249 . S
C155 O140 1.264 1_655 S
C156 C159 1.382 . S
C156 C160 1.390 . S
C156 C163 1.506 . S
C157 C158 1.398 . S
C157 C160 1.392 . S
C158 C157 1.398 . S
C158 C161 1.372 . S
C158 H168 0.931 . S
C159 C156 1.382 . S
C159 C161 1.390 . S
C159 H169 0.931 . S
C160 C156 1.390 . S
C160 C157 1.392 . S
C160 H170 0.930 . S
C161 C158 1.372 . S
C161 C159 1.390 . S
C161 H171 0.929 . S
C162 O142 1.255 . S
C162 O143 1.257 . S
C163 Eu99 2.787 . S
C163 O138 1.252 . S
C163 O141 1.268 . S
C163 C156 1.506 . S
H164 C147 0.931 . S
H165 C148 0.931 . S
H166 C149 0.929 . S
H167 C150 0.930 . S
H168 C158 0.931 . S
H169 C159 0.931 . S
H170 C160 0.930 . S
H171 C161 0.929 . S
Eu172 N201 2.600 . S
Eu172 N207 2.562 . S
Eu172 O216 2.462 . S
Eu172 O217 2.373 . S
Eu172 O219 2.432 . S
Eu172 O220 2.291 . S
Eu172 O224 2.335 . S
Eu172 O227 2.372 . S
Eu172 C236 2.787 . S
C173 N174 1.365 . S
C173 C176 1.405 . S
C173 C180 1.448 . S
N174 C173 1.365 . S
N174 C177 1.319 . S
N174 Eu183 2.600 . S
C175 C177 1.397 . S
C175 C178 1.367 . S
C175 H195 0.931 . S
C176 C173 1.405 . S
C176 C178 1.403 . S
C176 C182 1.439 . S
C177 N174 1.319 . S
C177 C175 1.397 . S
C177 H188 0.930 . S
C178 C175 1.367 . S
C178 C176 1.403 . S
C178 H199 0.929 . S
C179 C180 1.430 . S
C179 C181 1.387 . S
C179 C185 1.404 . S
C180 C173 1.448 . S
C180 C179 1.430 . S
C180 N184 1.351 . S
C181 C179 1.387 . S
C181 C182 1.374 . S
C181 H196 0.931 . S
C182 C176 1.439 . S
C182 C181 1.374 . S
C182 H197 0.931 . S
Eu183 N174 2.600 . S
Eu183 N184 2.562 . S
Eu183 O218 2.335 . S
Eu183 O221 2.372 . S
Eu183 O222 2.462 . S
Eu183 O223 2.373 . S
Eu183 O225 2.432 . S
Eu183 O226 2.291 . S
Eu183 C247 2.787 . S
N184 C180 1.351 . S
N184 Eu183 2.562 . S
N184 C186 1.325 . S
C185 C179 1.404 . S
C185 C187 1.366 . S
C185 H193 0.930 . S
C186 N184 1.325 . S
C186 C187 1.416 . S
C186 H192 0.929 . S
C187 C185 1.366 . S
C187 C186 1.416 . S
C187 H189 0.930 . S
H188 C177 0.930 . S
H189 C187 0.930 . S
H190 C205 0.930 . S
H191 C212 0.930 . S
H192 C186 0.929 . S
H193 C185 0.930 . S
H194 C208 0.929 . S
H195 C175 0.931 . S
H196 C181 0.931 . S
H197 C182 0.931 . S
H198 C203 0.931 . S
H199 C178 0.929 . S
H200 C211 0.930 . S
N201 Eu172 2.600 . S
N201 C202 1.365 . S
N201 C205 1.319 . S
C202 N201 1.365 . S
C202 C204 1.405 . S
C202 C210 1.448 . S
C203 H198 0.931 . S
C203 C205 1.397 . S
C203 C206 1.367 . S
C204 C202 1.405 . S
C204 C206 1.403 . S
C204 C237 1.439 . S
C205 H190 0.930 . S
C205 N201 1.319 . S
C205 C203 1.397 . S
C206 C203 1.367 . S
C206 C204 1.403 . S
C206 H213 0.929 . S
N207 Eu172 2.562 . S
N207 C208 1.325 . S
N207 C210 1.351 . S
C208 H194 0.929 . S
C208 N207 1.325 . S
C208 C212 1.416 . S
C209 C210 1.430 . S
C209 C211 1.404 . S
C209 C238 1.387 . S
C210 C202 1.448 . S
C210 N207 1.351 . S
C210 C209 1.430 . S
C211 H200 0.930 . S
C211 C209 1.404 . S
C211 C212 1.366 . S
C212 H191 0.930 . S
C212 C208 1.416 . S
C212 C211 1.366 . S
H213 C206 0.929 . S
H214 C237 0.931 . S
H215 C238 0.931 . S
O216 Eu172 2.462 . S
O216 C236 1.252 . S
O217 Eu172 2.373 . S
O217 C228 1.249 . S
O218 Eu183 2.335 . S
O218 C228 1.264 . S
O219 Eu172 2.432 . S
O219 C236 1.268 . S
O220 Eu172 2.291 . S
O220 C235 1.255 . S
O221 Eu183 2.372 . S
O221 C235 1.257 . S
O222 Eu183 2.462 . S
O222 C247 1.252 . S
O223 Eu183 2.373 . S
O223 C239 1.249 . S
O224 Eu172 2.335 . S
O224 C239 1.264 . S
O225 Eu183 2.432 . S
O225 C247 1.268 . S
O226 Eu183 2.291 . S
O226 C246 1.255 . S
O227 Eu172 2.372 . S
O227 C246 1.257 . S
C228 O217 1.249 . S
C228 O218 1.264 . S
C229 C232 1.382 . S
C229 C234 1.390 . S
C229 C236 1.506 . S
C230 C231 1.398 . S
C230 C234 1.392 . S
C231 C230 1.398 . S
C231 C233 1.372 . S
C231 H248 0.931 . S
C232 C229 1.382 . S
C232 C233 1.390 . S
C232 H249 0.931 . S
C233 C231 1.372 . S
C233 C232 1.390 . S
C233 H250 0.929 . S
C234 C229 1.390 . S
C234 C230 1.392 . S
C234 H251 0.930 . S
C235 O220 1.255 . S
C235 O221 1.257 . S
C236 Eu172 2.787 . S
C236 O216 1.252 . S
C236 O219 1.268 . S
C236 C229 1.506 . S
C237 C204 1.439 . S
C237 H214 0.931 . S
C237 C238 1.374 . S
C238 C209 1.387 . S
C238 H215 0.931 . S
C238 C237 1.374 . S
C239 O223 1.249 . S
C239 O224 1.264 . S
C240 C243 1.382 . S
C240 C244 1.390 . S
C240 C247 1.506 . S
C241 C242 1.398 . S
C241 C244 1.392 . S
C242 C241 1.398 . S
C242 C245 1.372 . S
C242 H252 0.931 . S
C243 C240 1.382 . S
C243 C245 1.390 . S
C243 H253 0.931 . S
C244 C240 1.390 . S
C244 C241 1.392 . S
C244 H254 0.930 . S
C245 C242 1.372 . S
C245 C243 1.390 . S
C245 H255 0.929 . S
C246 O226 1.255 . S
C246 O227 1.257 . S
C247 Eu183 2.787 . S
C247 O222 1.252 . S
C247 O225 1.268 . S
C247 C240 1.506 . S
H248 C231 0.931 . S
H249 C232 0.931 . S
H250 C233 0.929 . S
H251 C234 0.930 . S
H252 C242 0.931 . S
H253 C243 0.931 . S
H254 C244 0.930 . S
H255 C245 0.929 . S
Eu256 N285 2.600 . S
Eu256 N291 2.562 . S
Eu256 O300 2.462 . S
Eu256 O301 2.373 . S
Eu256 O303 2.432 . S
Eu256 O304 2.291 . S
Eu256 O308 2.342 . S
Eu256 O311 2.372 . S
Eu256 C320 2.787 . S
C257 N258 1.365 . S
C257 C260 1.405 . S
C257 C264 1.448 . S
N258 C257 1.365 . S
N258 C261 1.319 . S
N258 Eu267 2.600 . S
C259 C261 1.397 . S
C259 C262 1.367 . S
C259 H279 0.931 . S
C260 C257 1.405 . S
C260 C262 1.403 . S
C260 C266 1.439 . S
C261 N258 1.319 . S
C261 C259 1.397 . S
C261 H272 0.930 . S
C262 C259 1.367 . S
C262 C260 1.403 . S
C262 H283 0.929 . S
C263 C264 1.430 . S
C263 C265 1.387 . S
C263 C269 1.404 . S
C264 C257 1.448 . S
C264 C263 1.430 . S
C264 N268 1.351 . S
C265 C263 1.387 . S
C265 C266 1.374 . S
C265 H280 0.931 . S
C266 C260 1.439 . S
C266 C265 1.374 . S
C266 H281 0.931 . S
Eu267 N258 2.600 . S
Eu267 N268 2.562 . S
Eu267 O302 2.335 1_655 S
Eu267 O305 2.372 . S
Eu267 O306 2.462 . S
Eu267 O307 2.373 . S
Eu267 O309 2.432 . S
Eu267 O310 2.291 1_655 S
Eu267 C331 2.787 . S
N268 C264 1.351 . S
N268 Eu267 2.562 . S
N268 C270 1.325 . S
C269 C263 1.404 . S
C269 C271 1.366 . S
C269 H277 0.930 . S
C270 N268 1.325 . S
C270 C271 1.416 . S
C270 H276 0.929 . S
C271 C269 1.366 . S
C271 C270 1.416 . S
C271 H273 0.930 . S
H272 C261 0.930 . S
H273 C271 0.930 . S
H274 C289 0.930 . S
H275 C296 0.930 . S
H276 C270 0.929 . S
H277 C269 0.930 . S
H278 C292 0.929 . S
H279 C259 0.931 . S
H280 C265 0.931 . S
H281 C266 0.931 . S
H282 C287 0.931 . S
H283 C262 0.929 . S
H284 C295 0.930 . S
N285 Eu256 2.600 . S
N285 C286 1.365 . S
N285 C289 1.319 . S
C286 N285 1.365 . S
C286 C288 1.405 . S
C286 C294 1.448 . S
C287 H282 0.931 . S
C287 C289 1.397 . S
C287 C290 1.367 . S
C288 C286 1.405 . S
C288 C290 1.403 . S
C288 C321 1.439 . S
C289 H274 0.930 . S
C289 N285 1.319 . S
C289 C287 1.397 . S
C290 C287 1.367 . S
C290 C288 1.403 . S
C290 H297 0.929 . S
N291 Eu256 2.562 . S
N291 C292 1.325 . S
N291 C294 1.351 . S
C292 H278 0.929 . S
C292 N291 1.325 . S
C292 C296 1.416 1_565 S
C293 C294 1.430 . S
C293 C295 1.404 1_565 S
C293 C322 1.387 . S
C294 C286 1.448 . S
C294 N291 1.351 . S
C294 C293 1.430 . S
C295 H284 0.930 . S
C295 C293 1.404 1_545 S
C295 C296 1.366 . S
C296 H275 0.930 . S
C296 C292 1.416 1_545 S
C296 C295 1.366 . S
H297 C290 0.929 . S
H298 C321 0.931 . S
H299 C322 0.931 . S
O300 Eu256 2.462 . S
O300 C320 1.252 . S
O301 Eu256 2.373 . S
O301 C312 1.249 . S
O302 Eu267 2.335 1_455 S
O302 C312 1.264 . S
O303 Eu256 2.432 . S
O303 C320 1.268 . S
O304 Eu256 2.291 . S
O304 C319 1.255 1_455 S
O305 Eu267 2.372 . S
O305 C319 1.257 . S
O306 Eu267 2.462 . S
O306 C331 1.252 . S
O307 Eu267 2.373 . S
O307 C323 1.249 . S
O308 Eu256 2.342 . S
O308 C323 1.255 1_455 S
O309 Eu267 2.432 . S
O309 C331 1.268 . S
O310 Eu267 2.291 1_455 S
O310 C330 1.255 . S
O311 Eu256 2.372 . S
O311 C330 1.257 . S
C312 O301 1.249 . S
C312 O302 1.264 . S
C313 C316 1.382 . S
C313 C318 1.390 . S
C313 C320 1.506 . S
C314 C315 1.398 . S
C314 C318 1.392 . S
C315 C314 1.398 . S
C315 C317 1.372 . S
C315 H332 0.931 . S
C316 C313 1.382 . S
C316 C317 1.390 . S
C316 H333 0.931 . S
C317 C315 1.372 . S
C317 C316 1.390 . S
C317 H334 0.929 . S
C318 C313 1.390 . S
C318 C314 1.392 . S
C318 H335 0.930 . S
C319 O304 1.255 1_655 S
C319 O305 1.257 . S
C320 Eu256 2.787 . S
C320 O300 1.252 . S
C320 O303 1.268 . S
C320 C313 1.506 . S
C321 C288 1.439 . S
C321 H298 0.931 . S
C321 C322 1.374 . S
C322 C293 1.387 . S
C322 H299 0.931 . S
C322 C321 1.374 . S
C323 O307 1.249 . S
C323 O308 1.255 1_655 S
C324 C327 1.382 . S
C324 C328 1.390 . S
C324 C331 1.506 . S
C325 C326 1.398 . S
C325 C328 1.392 . S
C326 C325 1.398 . S
C326 C329 1.372 . S
C326 H336 0.931 . S
C327 C324 1.382 . S
C327 C329 1.390 . S
C327 H337 0.931 . S
C328 C324 1.390 . S
C328 C325 1.392 . S
C328 H338 0.930 . S
C329 C326 1.372 . S
C329 C327 1.390 . S
C329 H339 0.929 . S
C330 O310 1.255 . S
C330 O311 1.257 . S
C331 Eu267 2.787 . S
C331 O306 1.252 . S
C331 O309 1.268 . S
C331 C324 1.506 . S
H332 C315 0.931 . S
H333 C316 0.931 . S
H334 C317 0.929 . S
H335 C318 0.930 . S
H336 C326 0.931 . S
H337 C327 0.931 . S
H338 C328 0.930 . S
H339 C329 0.929 . S
Eu340 N369 2.600 . S
Eu340 N375 2.562 . S
Eu340 O384 2.462 . S
Eu340 O385 2.373 . S
Eu340 O387 2.432 . S
Eu340 O388 2.291 . S
Eu340 O392 2.335 . S
Eu340 O395 2.372 . S
Eu340 C404 2.787 . S
C341 N342 1.365 . S
C341 C344 1.405 . S
C341 C348 1.448 . S
N342 C341 1.365 . S
N342 C345 1.319 . S
N342 Eu351 2.600 . S
C343 C345 1.397 . S
C343 C346 1.367 . S
C343 H363 0.931 . S
C344 C341 1.405 . S
C344 C346 1.403 . S
C344 C350 1.439 . S
C345 N342 1.319 . S
C345 C343 1.397 . S
C345 H356 0.930 . S
C346 C343 1.367 . S
C346 C344 1.403 . S
C346 H367 0.929 . S
C347 C348 1.430 . S
C347 C349 1.387 . S
C347 C353 1.404 . S
C348 C341 1.448 . S
C348 C347 1.430 . S
C348 N352 1.351 . S
C349 C347 1.387 . S
C349 C350 1.374 . S
C349 H364 0.931 . S
C350 C344 1.439 . S
C350 C349 1.374 . S
C350 H365 0.931 . S
Eu351 N342 2.600 . S
Eu351 N352 2.562 . S
Eu351 O386 2.335 . S
Eu351 O389 2.372 . S
Eu351 O390 2.462 . S
Eu351 O391 2.373 . S
Eu351 O393 2.432 . S
Eu351 O394 2.291 . S
Eu351 C415 2.787 . S
N352 C348 1.351 . S
N352 Eu351 2.562 . S
N352 C354 1.325 . S
C353 C347 1.404 . S
C353 C355 1.366 . S
C353 H361 0.930 . S
C354 N352 1.325 . S
C354 C355 1.416 . S
C354 H360 0.929 . S
C355 C353 1.366 . S
C355 C354 1.416 . S
C355 H357 0.930 . S
H356 C345 0.930 . S
H357 C355 0.930 . S
H358 C373 0.930 . S
H359 C380 0.930 . S
H360 C354 0.929 . S
H361 C353 0.930 . S
H362 C376 0.929 . S
H363 C343 0.931 . S
H364 C349 0.931 . S
H365 C350 0.931 . S
H366 C371 0.931 . S
H367 C346 0.929 . S
H368 C379 0.930 . S
N369 Eu340 2.600 . S
N369 C370 1.365 . S
N369 C373 1.319 . S
C370 N369 1.365 . S
C370 C372 1.405 . S
C370 C378 1.448 . S
C371 H366 0.931 . S
C371 C373 1.397 . S
C371 C374 1.367 . S
C372 C370 1.405 . S
C372 C374 1.403 . S
C372 C405 1.439 . S
C373 H358 0.930 . S
C373 N369 1.319 . S
C373 C371 1.397 . S
C374 C371 1.367 . S
C374 C372 1.403 . S
C374 H381 0.929 . S
N375 Eu340 2.562 . S
N375 C376 1.325 . S
N375 C378 1.351 . S
C376 H362 0.929 . S
C376 N375 1.325 . S
C376 C380 1.416 . S
C377 C378 1.430 . S
C377 C379 1.404 . S
C377 C406 1.387 . S
C378 C370 1.448 . S
C378 N375 1.351 . S
C378 C377 1.430 . S
C379 H368 0.930 . S
C379 C377 1.404 . S
C379 C380 1.366 . S
C380 H359 0.930 . S
C380 C376 1.416 . S
C380 C379 1.366 . S
H381 C374 0.929 . S
H382 C405 0.931 . S
H383 C406 0.931 . S
O384 Eu340 2.462 . S
O384 C404 1.252 . S
O385 Eu340 2.373 . S
O385 C396 1.249 . S
O386 Eu351 2.335 . S
O386 C396 1.264 . S
O387 Eu340 2.432 . S
O387 C404 1.268 . S
O388 Eu340 2.291 . S
O388 C403 1.255 . S
O389 Eu351 2.372 . S
O389 C403 1.257 . S
O390 Eu351 2.462 . S
O390 C415 1.252 . S
O391 Eu351 2.373 . S
O391 C407 1.249 . S
O392 Eu340 2.335 . S
O392 C407 1.264 . S
O393 Eu351 2.432 . S
O393 C415 1.268 . S
O394 Eu351 2.291 . S
O394 C414 1.255 . S
O395 Eu340 2.372 . S
O395 C414 1.257 . S
C396 O385 1.249 . S
C396 O386 1.264 . S
C397 C400 1.382 . S
C397 C402 1.390 . S
C397 C404 1.506 . S
C398 C399 1.398 . S
C398 C402 1.392 . S
C399 C398 1.398 . S
C399 C401 1.372 . S
C399 H416 0.931 . S
C400 C397 1.382 . S
C400 C401 1.390 . S
C400 H417 0.931 . S
C401 C399 1.372 . S
C401 C400 1.390 . S
C401 H418 0.929 . S
C402 C397 1.390 . S
C402 C398 1.392 . S
C402 H419 0.930 . S
C403 O388 1.255 . S
C403 O389 1.257 . S
C404 Eu340 2.787 . S
C404 O384 1.252 . S
C404 O387 1.268 . S
C404 C397 1.506 . S
C405 C372 1.439 . S
C405 H382 0.931 . S
C405 C406 1.374 . S
C406 C377 1.387 . S
C406 H383 0.931 . S
C406 C405 1.374 . S
C407 O391 1.249 . S
C407 O392 1.264 . S
C408 C411 1.382 . S
C408 C412 1.390 . S
C408 C415 1.506 . S
C409 C410 1.398 . S
C409 C412 1.392 . S
C410 C409 1.398 . S
C410 C413 1.372 . S
C410 H420 0.931 . S
C411 C408 1.382 . S
C411 C413 1.390 . S
C411 H421 0.931 . S
C412 C408 1.390 . S
C412 C409 1.392 . S
C412 H422 0.930 . S
C413 C410 1.372 . S
C413 C411 1.390 . S
C413 H423 0.929 . S
C414 O394 1.255 . S
C414 O395 1.257 . S
C415 Eu351 2.787 . S
C415 O390 1.252 . S
C415 O393 1.268 . S
C415 C408 1.506 . S
H416 C399 0.931 . S
H417 C400 0.931 . S
H418 C401 0.929 . S
H419 C402 0.930 . S
H420 C410 0.931 . S
H421 C411 0.931 . S
H422 C412 0.930 . S
H423 C413 0.929 . S
H424 C436 0.930 . S
H425 C438 0.930 . S
H426 C439 0.930 . S
H427 C443 0.959 . S
H428 C443 0.959 . S
H429 C443 0.961 . S
H430 C444 0.960 . S
H431 C444 0.961 . S
H432 C444 0.959 1_565 S
H433 C447 0.929 . S
H434 C448 0.930 1_565 S
H435 C450 0.930 . S
C436 H424 0.930 . S
C436 C437 1.399 . S
C436 C441 1.399 . S
C437 C436 1.399 . S
C437 C438 1.376 . S
C438 H425 0.930 . S
C438 C437 1.376 . S
C438 C439 1.388 . S
C439 H426 0.930 . S
C439 C438 1.388 . S
C439 C440 1.390 . S
C440 C439 1.390 . S
C440 C441 1.394 . S
C440 C446 1.465 . S
C441 C436 1.399 . S
C441 C440 1.394 . S
C441 C442 1.486 1_565 S
C442 C441 1.486 1_545 S
C442 C443 1.520 . S
C442 C444 1.568 . S
C442 C445 1.529 . S
C443 H427 0.959 . S
C443 H428 0.959 . S
C443 H429 0.961 . S
C443 C442 1.520 . S
C444 H430 0.960 . S
C444 H431 0.961 . S
C444 H432 0.959 1_545 S
C444 C442 1.568 . S
C445 C442 1.529 . S
C445 C446 1.396 1_545 S
C445 C450 1.390 . S
C446 C440 1.465 . S
C446 C445 1.396 1_565 S
C446 C447 1.399 . S
C447 H433 0.929 . S
C447 C446 1.399 . S
C447 C448 1.382 1_565 S
C448 H434 0.930 1_545 S
C448 C447 1.382 1_545 S
C448 C449 1.393 . S
C449 C448 1.393 . S
C449 C450 1.387 . S
C450 H435 0.930 . S
C450 C445 1.390 . S
C450 C449 1.387 . S
H451 C463 0.930 . S
H452 C465 0.930 . S
H453 C466 0.930 . S
H454 C470 0.959 . S
H455 C470 0.959 . S
H456 C470 0.961 . S
H457 C471 0.960 . S
H458 C471 0.961 . S
H459 C471 0.959 . S
H460 C474 0.929 . S
H461 C475 0.931 . S
H462 C477 0.930 . S
C463 H451 0.930 . S
C463 C464 1.399 . S
C463 C468 1.399 . S
C464 C463 1.399 . S
C464 C465 1.376 . S
C465 H452 0.930 . S
C465 C464 1.376 . S
C465 C466 1.388 . S
C466 H453 0.930 . S
C466 C465 1.388 . S
C466 C467 1.390 . S
C467 C466 1.390 . S
C467 C468 1.394 . S
C467 C473 1.465 . S
C468 C463 1.399 . S
C468 C467 1.394 . S
C468 C469 1.516 . S
C469 C468 1.516 . S
C469 C470 1.502 . S
C469 C471 1.561 . S
C469 C472 1.526 . S
C470 H454 0.959 . S
C470 H455 0.959 . S
C470 H456 0.961 . S
C470 C469 1.502 . S
C471 H457 0.960 . S
C471 H458 0.961 . S
C471 H459 0.959 . S
C471 C469 1.561 . S
C472 C469 1.526 . S
C472 C473 1.396 . S
C472 C477 1.390 . S
C473 C467 1.465 . S
C473 C472 1.396 . S
C473 C474 1.399 . S
C474 H460 0.929 . S
C474 C473 1.399 . S
C474 C475 1.385 . S
C475 H461 0.931 . S
C475 C474 1.385 . S
C475 C476 1.389 . S
C476 C475 1.389 . S
C476 C477 1.387 . S
C477 H462 0.930 . S
C477 C472 1.390 . S
C477 C476 1.387 . S
H478 C490 0.930 . S
H479 C492 0.930 . S
H480 C493 0.930 . S
H481 C497 0.959 . S
H482 C497 0.959 . S
H483 C497 0.961 . S
H484 C498 0.960 . S
H485 C498 0.961 . S
H486 C498 0.959 . S
H487 C501 0.929 . S
H488 C502 0.931 . S
H489 C504 0.930 . S
C490 H478 0.930 . S
C490 C491 1.399 . S
C490 C495 1.399 . S
C491 C490 1.399 . S
C491 C492 1.376 . S
C492 H479 0.930 . S
C492 C491 1.376 . S
C492 C493 1.388 . S
C493 H480 0.930 . S
C493 C492 1.388 . S
C493 C494 1.390 . S
C494 C493 1.390 . S
C494 C495 1.394 . S
C494 C500 1.465 . S
C495 C490 1.399 . S
C495 C494 1.394 . S
C495 C496 1.516 . S
C496 C495 1.516 . S
C496 C497 1.502 . S
C496 C498 1.561 . S
C496 C499 1.526 . S
C497 H481 0.959 . S
C497 H482 0.959 . S
C497 H483 0.961 . S
C497 C496 1.502 . S
C498 H484 0.960 . S
C498 H485 0.961 . S
C498 H486 0.959 . S
C498 C496 1.561 . S
C499 C496 1.526 . S
C499 C500 1.396 . S
C499 C504 1.390 . S
C500 C494 1.465 . S
C500 C499 1.396 . S
C500 C501 1.399 . S
C501 H487 0.929 . S
C501 C500 1.399 . S
C501 C502 1.385 . S
C502 H488 0.931 . S
C502 C501 1.385 . S
C502 C503 1.389 . S
C503 C502 1.389 . S
C503 C504 1.387 . S
C504 H489 0.930 . S
C504 C499 1.390 . S
C504 C503 1.387 . S
H505 C517 0.930 . S
H506 C519 0.930 . S
H507 C520 0.930 . S
H508 C524 0.959 . S
H509 C524 0.959 1_545 S
H510 C524 0.961 . S
H511 C525 0.960 . S
H512 C525 0.961 . S
H513 C525 0.959 . S
H514 C528 0.929 . S
H515 C529 0.931 . S
H516 C531 0.930 . S
C517 H505 0.930 . S
C517 C518 1.399 . S
C517 C522 1.399 . S
C518 C517 1.399 . S
C518 C519 1.376 . S
C519 H506 0.930 . S
C519 C518 1.376 . S
C519 C520 1.388 . S
C520 H507 0.930 . S
C520 C519 1.388 . S
C520 C521 1.390 . S
C521 C520 1.390 . S
C521 C522 1.394 . S
C521 C527 1.465 . S
C522 C517 1.399 . S
C522 C521 1.394 . S
C522 C523 1.516 . S
C523 C522 1.516 . S
C523 C524 1.502 . S
C523 C525 1.561 1_565 S
C523 C526 1.526 1_565 S
C524 H508 0.959 . S
C524 H509 0.959 1_565 S
C524 H510 0.961 . S
C524 C523 1.502 . S
C525 H511 0.960 . S
C525 H512 0.961 . S
C525 H513 0.959 . S
C525 C523 1.561 1_545 S
C526 C523 1.526 1_545 S
C526 C527 1.396 1_545 S
C526 C531 1.390 . S
C527 C521 1.465 . S
C527 C526 1.396 1_565 S
C527 C528 1.399 . S
C528 H514 0.929 . S
C528 C527 1.399 . S
C528 C529 1.385 1_565 S
C529 H515 0.931 . S
C529 C528 1.385 1_545 S
C529 C530 1.389 . S
C530 C529 1.389 . S
C530 C531 1.387 . S
C531 H516 0.930 . S
C531 C526 1.390 . S
C531 C530 1.387 . S
H532 C544 0.930 . S
H533 C546 0.930 . S
H534 C547 0.930 . S
H535 C551 0.959 . S
H536 C551 0.959 . S
H537 C551 0.961 . S
H538 C552 0.960 . S
H539 C552 0.961 . S
H540 C552 0.936 1_565 S
H541 C555 0.929 . S
H542 C556 0.931 . S
H543 C558 0.930 . S
C544 H532 0.930 . S
C544 C545 1.399 . S
C544 C549 1.399 . S
C545 C544 1.399 . S
C545 C546 1.376 . S
C546 H533 0.930 . S
C546 C545 1.376 . S
C546 C547 1.388 . S
C547 H534 0.930 . S
C547 C546 1.388 . S
C547 C548 1.390 . S
C548 C547 1.390 . S
C548 C549 1.394 . S
C548 C554 1.465 . S
C549 C544 1.399 . S
C549 C548 1.394 . S
C549 C550 1.516 . S
C550 C549 1.516 . S
C550 C551 1.502 . S
C550 C552 1.561 . S
C550 C553 1.526 . S
C551 H535 0.959 . S
C551 H536 0.959 . S
C551 H537 0.961 . S
C551 C550 1.502 . S
C552 H538 0.960 . S
C552 H539 0.961 . S
C552 H540 0.936 1_545 S
C552 C550 1.561 . S
C553 C550 1.526 . S
C553 C554 1.396 . S
C553 C558 1.390 1_545 S
C554 C548 1.465 . S
C554 C553 1.396 . S
C554 C555 1.399 1_545 S
C555 H541 0.929 . S
C555 C554 1.399 1_565 S
C555 C556 1.385 . S
C556 H542 0.931 . S
C556 C555 1.385 . S
C556 C557 1.389 . S
C557 C556 1.389 . S
C557 C558 1.387 . S
C558 H543 0.930 . S
C558 C553 1.390 1_565 S
C558 C557 1.387 . S
H559 C571 0.930 . S
H560 C573 0.930 . S
H561 C574 0.930 . S
H562 C578 0.959 . S
H563 C578 0.959 . S
H564 C578 0.961 . S
H565 C579 0.960 . S
H566 C579 0.961 . S
H567 C579 0.959 . S
H568 C582 0.929 . S
H569 C583 0.931 . S
H570 C585 0.930 . S
C571 H559 0.930 . S
C571 C572 1.399 . S
C571 C576 1.399 . S
C572 C571 1.399 . S
C572 C573 1.376 . S
C573 H560 0.930 . S
C573 C572 1.376 . S
C573 C574 1.388 . S
C574 H561 0.930 . S
C574 C573 1.388 . S
C574 C575 1.390 . S
C575 C574 1.390 . S
C575 C576 1.394 . S
C575 C581 1.465 . S
C576 C571 1.399 . S
C576 C575 1.394 . S
C576 C577 1.516 . S
C577 C576 1.516 . S
C577 C578 1.502 . S
C577 C579 1.561 . S
C577 C580 1.526 . S
C578 H562 0.959 . S
C578 H563 0.959 . S
C578 H564 0.961 . S
C578 C577 1.502 . S
C579 H565 0.960 . S
C579 H566 0.961 . S
C579 H567 0.959 . S
C579 C577 1.561 . S
C580 C577 1.526 . S
C580 C581 1.396 . S
C580 C585 1.390 . S
C581 C575 1.465 . S
C581 C580 1.396 . S
C581 C582 1.399 . S
C582 H568 0.929 . S
C582 C581 1.399 . S
C582 C583 1.385 . S
C583 H569 0.931 . S
C583 C582 1.385 . S
C583 C584 1.389 . S
C584 C583 1.389 . S
C584 C585 1.387 . S
C585 H570 0.930 . S
C585 C580 1.390 . S
C585 C584 1.387 . S
H586 C598 0.930 . S
H587 C600 0.930 . S
H588 C601 0.930 . S
H589 C605 0.959 . S
H590 C605 0.959 . S
H591 C605 0.961 . S
H592 C606 0.960 . S
H593 C606 0.961 . S
H594 C606 0.959 . S
H595 C609 0.929 . S
H596 C610 0.931 . S
H597 C612 0.930 . S
C598 H586 0.930 . S
C598 C599 1.399 . S
C598 C603 1.399 . S
C599 C598 1.399 . S
C599 C600 1.376 . S
C600 H587 0.930 . S
C600 C599 1.376 . S
C600 C601 1.388 . S
C601 H588 0.930 . S
C601 C600 1.388 . S
C601 C602 1.390 . S
C602 C601 1.390 . S
C602 C603 1.394 . S
C602 C608 1.465 . S
C603 C598 1.399 . S
C603 C602 1.394 . S
C603 C604 1.516 . S
C604 C603 1.516 . S
C604 C605 1.502 . S
C604 C606 1.561 . S
C604 C607 1.526 . S
C605 H589 0.959 . S
C605 H590 0.959 . S
C605 H591 0.961 . S
C605 C604 1.502 . S
C606 H592 0.960 . S
C606 H593 0.961 . S
C606 H594 0.959 . S
C606 C604 1.561 . S
C607 C604 1.526 . S
C607 C608 1.396 . S
C607 C612 1.390 . S
C608 C602 1.465 . S
C608 C607 1.396 . S
C608 C609 1.399 . S
C609 H595 0.929 . S
C609 C608 1.399 . S
C609 C610 1.385 . S
C610 H596 0.931 . S
C610 C609 1.385 . S
C610 C611 1.389 . S
C611 C610 1.389 . S
C611 C612 1.387 . S
C612 H597 0.930 . S
C612 C607 1.390 . S
C612 C611 1.387 . S
H613 C625 0.930 . S
H614 C627 0.930 . S
H615 C628 0.930 . S
H616 C632 0.959 . S
H617 C632 0.959 1_565 S
H618 C632 0.961 . S
H619 C633 0.960 . S
H620 C633 0.961 . S
H621 C633 0.959 . S
H622 C636 0.929 . S
H623 C637 0.931 . S
H624 C639 0.930 . S
C625 H613 0.930 . S
C625 C626 1.399 . S
C625 C630 1.399 . S
C626 C625 1.399 . S
C626 C627 1.376 . S
C627 H614 0.930 . S
C627 C626 1.376 . S
C627 C628 1.388 . S
C628 H615 0.930 . S
C628 C627 1.388 . S
C628 C629 1.390 . S
C629 C628 1.390 . S
C629 C630 1.394 . S
C629 C635 1.465 . S
C630 C625 1.399 . S
C630 C629 1.394 . S
C630 C631 1.516 . S
C631 C630 1.516 . S
C631 C632 1.502 . S
C631 C633 1.561 1_545 S
C631 C634 1.526 1_545 S
C632 H616 0.959 . S
C632 H617 0.959 1_545 S
C632 H618 0.961 . S
C632 C631 1.502 . S
C633 H619 0.960 . S
C633 H620 0.961 . S
C633 H621 0.959 . S
C633 C631 1.561 1_565 S
C634 C631 1.526 1_565 S
C634 C635 1.396 1_565 S
C634 C639 1.390 . S
C635 C629 1.465 . S
C635 C634 1.396 1_545 S
C635 C636 1.399 . S
C636 H622 0.929 . S
C636 C635 1.399 . S
C636 C637 1.385 1_545 S
C637 H623 0.931 . S
C637 C636 1.385 1_565 S
C637 C638 1.389 . S
C638 C637 1.389 . S
C638 C639 1.387 . S
C639 H624 0.930 . S
C639 C634 1.390 . S
C639 C638 1.387 . S
H640 C652 0.930 . S
H641 C654 0.930 . S
H642 C655 0.930 . S
H643 C659 0.959 . S
H644 C659 0.959 . S
H645 C659 0.961 . S
H646 C660 0.960 . S
H647 C660 0.961 . S
H648 C660 0.959 . S
H649 C663 0.929 . S
H650 C664 0.931 . S
H651 C666 0.930 . S
C652 H640 0.930 . S
C652 C653 1.399 . S
C652 C657 1.399 1_556 S
C653 C652 1.399 . S
C653 C654 1.376 . S
C654 H641 0.930 . S
C654 C653 1.376 . S
C654 C655 1.388 . S
C655 H642 0.930 . S
C655 C654 1.388 . S
C655 C656 1.390 1_556 S
C656 C655 1.390 1_554 S
C656 C657 1.394 . S
C656 C662 1.465 . S
C657 C652 1.399 1_554 S
C657 C656 1.394 . S
C657 C658 1.516 . S
C658 C657 1.516 . S
C658 C659 1.502 . S
C658 C660 1.561 . S
C658 C661 1.526 . S
C659 H643 0.959 . S
C659 H644 0.959 . S
C659 H645 0.961 . S
C659 C658 1.502 . S
C660 H646 0.960 . S
C660 H647 0.961 . S
C660 H648 0.959 . S
C660 C658 1.561 . S
C661 C658 1.526 . S
C661 C662 1.396 . S
C661 C666 1.390 . S
C662 C656 1.465 . S
C662 C661 1.396 . S
C662 C663 1.399 . S
C663 H649 0.929 . S
C663 C662 1.399 . S
C663 C664 1.385 . S
C664 H650 0.931 . S
C664 C663 1.385 . S
C664 C665 1.389 . S
C665 C664 1.389 . S
C665 C666 1.387 . S
C666 H651 0.930 . S
C666 C661 1.390 . S
C666 C665 1.387 . S
H667 C679 0.930 . S
H668 C681 0.930 . S
H669 C682 0.930 . S
H670 C686 0.959 . S
H671 C686 0.959 . S
H672 C686 0.961 . S
H673 C687 0.960 . S
H674 C687 0.961 . S
H675 C687 0.959 . S
H676 C690 0.929 . S
H677 C691 0.931 . S
H678 C693 0.930 . S
C679 H667 0.930 . S
C679 C680 1.399 . S
C679 C684 1.399 . S
C680 C679 1.399 . S
C680 C681 1.376 . S
C681 H668 0.930 . S
C681 C680 1.376 . S
C681 C682 1.388 . S
C682 H669 0.930 . S
C682 C681 1.388 . S
C682 C683 1.390 . S
C683 C682 1.390 . S
C683 C684 1.394 . S
C683 C689 1.465 . S
C684 C679 1.399 . S
C684 C683 1.394 . S
C684 C685 1.516 . S
C685 C684 1.516 . S
C685 C686 1.502 . S
C685 C687 1.561 . S
C685 C688 1.526 . S
C686 H670 0.959 . S
C686 H671 0.959 . S
C686 H672 0.961 . S
C686 C685 1.502 . S
C687 H673 0.960 . S
C687 H674 0.961 . S
C687 H675 0.959 . S
C687 C685 1.561 . S
C688 C685 1.526 . S
C688 C689 1.396 . S
C688 C693 1.390 . S
C689 C683 1.465 . S
C689 C688 1.396 . S
C689 C690 1.399 . S
C690 H676 0.929 . S
C690 C689 1.399 . S
C690 C691 1.385 . S
C691 H677 0.931 . S
C691 C690 1.385 . S
C691 C692 1.389 . S
C692 C691 1.389 . S
C692 C693 1.387 . S
C693 H678 0.930 . S
C693 C688 1.390 . S
C693 C692 1.387 . S
H694 C706 0.930 . S
H695 C708 0.930 . S
H696 C709 0.930 . S
H697 C713 0.959 . S
H698 C713 0.959 . S
H699 C713 0.961 . S
H700 C714 0.960 . S
H701 C714 0.961 . S
H702 C714 0.959 . S
H703 C717 0.929 . S
H704 C718 0.931 . S
H705 C720 0.930 . S
C706 H694 0.930 . S
C706 C707 1.399 . S
C706 C711 1.399 1_554 S
C707 C706 1.399 . S
C707 C708 1.376 . S
C708 H695 0.930 . S
C708 C707 1.376 . S
C708 C709 1.388 . S
C709 H696 0.930 . S
C709 C708 1.388 . S
C709 C710 1.375 1_554 S
C710 C709 1.375 1_556 S
C710 C711 1.395 . S
C710 C716 1.481 . S
C711 C706 1.399 1_556 S
C711 C710 1.395 . S
C711 C712 1.516 . S
C712 C711 1.516 . S
C712 C713 1.502 . S
C712 C714 1.561 . S
C712 C715 1.526 . S
C713 H697 0.959 . S
C713 H698 0.959 . S
C713 H699 0.961 . S
C713 C712 1.502 . S
C714 H700 0.960 . S
C714 H701 0.961 . S
C714 H702 0.959 . S
C714 C712 1.561 . S
C715 C712 1.526 . S
C715 C716 1.396 . S
C715 C720 1.390 . S
C716 C710 1.481 . S
C716 C715 1.396 . S
C716 C717 1.399 . S
C717 H703 0.929 . S
C717 C716 1.399 . S
C717 C718 1.385 . S
C718 H704 0.931 . S
C718 C717 1.385 . S
C718 C719 1.389 . S
C719 C718 1.389 . S
C719 C720 1.387 . S
C720 H705 0.930 . S
C720 C715 1.390 . S
C720 C719 1.387 . S
H721 C733 0.930 . S
H722 C735 0.930 . S
H723 C736 0.930 . S
H724 C740 0.959 . S
H725 C740 0.959 . S
H726 C740 0.961 . S
H727 C741 0.960 . S
H728 C741 0.961 . S
H729 C741 0.959 . S
H730 C744 0.929 . S
H731 C745 0.931 . S
H732 C747 0.930 . S
C733 H721 0.930 . S
C733 C734 1.399 . S
C733 C738 1.399 . S
C734 C733 1.399 . S
C734 C735 1.376 . S
C735 H722 0.930 . S
C735 C734 1.376 . S
C735 C736 1.388 . S
C736 H723 0.930 . S
C736 C735 1.388 . S
C736 C737 1.390 . S
C737 C736 1.390 . S
C737 C738 1.394 . S
C737 C743 1.465 . S
C738 C733 1.399 . S
C738 C737 1.394 . S
C738 C739 1.516 . S
C739 C738 1.516 . S
C739 C740 1.502 . S
C739 C741 1.561 . S
C739 C742 1.526 . S
C740 H724 0.959 . S
C740 H725 0.959 . S
C740 H726 0.961 . S
C740 C739 1.502 . S
C741 H727 0.960 . S
C741 H728 0.961 . S
C741 H729 0.959 . S
C741 C739 1.561 . S
C742 C739 1.526 . S
C742 C743 1.396 . S
C742 C747 1.390 . S
C743 C737 1.465 . S
C743 C742 1.396 . S
C743 C744 1.399 . S
C744 H730 0.929 . S
C744 C743 1.399 . S
C744 C745 1.385 . S
C745 H731 0.931 . S
C745 C744 1.385 . S
C745 C746 1.389 . S
C746 C745 1.389 . S
C746 C747 1.387 . S
C747 H732 0.930 . S
C747 C742 1.390 . S
C747 C746 1.387 . S
H748 C760 0.930 . S
H749 C762 0.930 . S
H750 C763 0.930 . S
H751 C767 0.956 1_554 S
H752 C767 0.959 . S
H753 C767 0.961 1_554 S
H754 C768 0.960 . S
H755 C768 0.961 . S
H756 C768 0.959 . S
H757 C771 0.929 . S
H758 C772 0.931 . S
H759 C774 0.930 . S
C760 H748 0.930 . S
C760 C761 1.399 . S
C760 C765 1.399 . S
C761 C760 1.399 . S
C761 C762 1.376 . S
C762 H749 0.930 . S
C762 C761 1.376 . S
C762 C763 1.388 . S
C763 H750 0.930 . S
C763 C762 1.388 . S
C763 C764 1.390 1_554 S
C764 C763 1.390 1_556 S
C764 C765 1.394 1_556 S
C764 C770 1.465 . S
C765 C760 1.399 . S
C765 C764 1.394 1_554 S
C765 C766 1.516 1_554 S
C766 C765 1.516 1_556 S
C766 C767 1.502 . S
C766 C768 1.561 . S
C766 C769 1.526 . S
C767 H751 0.956 1_556 S
C767 H752 0.959 . S
C767 H753 0.961 1_556 S
C767 C766 1.502 . S
C768 H754 0.960 . S
C768 H755 0.961 . S
C768 H756 0.959 . S
C768 C766 1.561 . S
C769 C766 1.526 . S
C769 C770 1.396 . S
C769 C774 1.390 . S
C770 C764 1.465 . S
C770 C769 1.396 . S
C770 C771 1.399 . S
C771 H757 0.929 . S
C771 C770 1.399 . S
C771 C772 1.385 . S
C772 H758 0.931 . S
C772 C771 1.385 . S
C772 C773 1.389 . S
C773 C772 1.389 . S
C773 C774 1.387 . S
C774 H759 0.930 . S
C774 C769 1.390 . S
C774 C773 1.387 . S
H775 C787 0.930 . S
H776 C789 0.930 . S
H777 C790 0.930 . S
H778 C794 0.959 . S
H779 C794 0.959 . S
H780 C794 0.961 . S
H781 C795 0.960 . S
H782 C795 0.961 . S
H783 C795 0.959 . S
H784 C798 0.929 . S
H785 C799 0.931 . S
H786 C801 0.930 . S
C787 H775 0.930 . S
C787 C788 1.399 . S
C787 C792 1.399 . S
C788 C787 1.399 . S
C788 C789 1.376 . S
C789 H776 0.930 . S
C789 C788 1.376 . S
C789 C790 1.388 . S
C790 H777 0.930 . S
C790 C789 1.388 . S
C790 C791 1.390 . S
C791 C790 1.390 . S
C791 C792 1.394 . S
C791 C797 1.465 . S
C792 C787 1.399 . S
C792 C791 1.394 . S
C792 C793 1.516 . S
C793 C792 1.516 . S
C793 C794 1.502 . S
C793 C795 1.561 . S
C793 C796 1.526 . S
C794 H778 0.959 . S
C794 H779 0.959 . S
C794 H780 0.961 . S
C794 C793 1.502 . S
C795 H781 0.960 . S
C795 H782 0.961 . S
C795 H783 0.959 . S
C795 C793 1.561 . S
C796 C793 1.526 . S
C796 C797 1.396 . S
C796 C801 1.390 . S
C797 C791 1.465 . S
C797 C796 1.396 . S
C797 C798 1.399 . S
C798 H784 0.929 . S
C798 C797 1.399 . S
C798 C799 1.385 . S
C799 H785 0.931 . S
C799 C798 1.385 . S
C799 C800 1.389 . S
C800 C799 1.389 . S
C800 C801 1.387 . S
C801 H786 0.930 . S
C801 C796 1.390 . S
C801 C800 1.387 . S
H802 C814 0.930 . S
H803 C816 0.930 . S
H804 C817 0.930 . S
H805 C821 0.959 . S
H806 C821 0.959 . S
H807 C821 0.961 . S
H808 C822 0.960 1_556 S
H809 C822 0.961 . S
H810 C822 0.957 1_556 S
H811 C825 0.929 . S
H812 C826 0.931 . S
H813 C828 0.930 . S
C814 H802 0.930 . S
C814 C815 1.399 . S
C814 C819 1.399 . S
C815 C814 1.399 . S
C815 C816 1.376 . S
C816 H803 0.930 . S
C816 C815 1.376 . S
C816 C817 1.388 . S
C817 H804 0.930 . S
C817 C816 1.388 . S
C817 C818 1.390 1_556 S
C818 C817 1.390 1_554 S
C818 C819 1.394 1_554 S
C818 C824 1.465 . S
C819 C814 1.399 . S
C819 C818 1.394 1_556 S
C819 C820 1.516 1_556 S
C820 C819 1.516 1_554 S
C820 C821 1.502 . S
C820 C822 1.561 . S
C820 C823 1.526 . S
C821 H805 0.959 . S
C821 H806 0.959 . S
C821 H807 0.961 . S
C821 C820 1.502 . S
C822 H808 0.960 1_554 S
C822 H809 0.961 . S
C822 H810 0.957 1_554 S
C822 C820 1.561 . S
C823 C820 1.526 . S
C823 C824 1.396 . S
C823 C828 1.390 . S
C824 C818 1.465 . S
C824 C823 1.396 . S
C824 C825 1.399 . S
C825 H811 0.929 . S
C825 C824 1.399 . S
C825 C826 1.385 . S
C826 H812 0.931 . S
C826 C825 1.385 . S
C826 C827 1.389 . S
C827 C826 1.389 . S
C827 C828 1.387 . S
C828 H813 0.930 . S
C828 C823 1.390 . S
C828 C827 1.387 . S
H829 C841 0.930 . S
H830 C843 0.930 . S
H831 C844 0.930 . S
H832 C848 0.959 . S
H833 C848 0.959 . S
H834 C848 0.961 . S
H835 C849 0.960 . S
H836 C849 0.961 . S
H837 C849 0.959 . S
H838 C852 0.929 . S
H839 C853 0.931 . S
H840 C855 0.930 . S
C841 H829 0.930 . S
C841 C842 1.399 . S
C841 C846 1.399 . S
C842 C841 1.399 . S
C842 C843 1.376 . S
C843 H830 0.930 . S
C843 C842 1.376 . S
C843 C844 1.388 . S
C844 H831 0.930 . S
C844 C843 1.388 . S
C844 C845 1.390 . S
C845 C844 1.390 . S
C845 C846 1.394 . S
C845 C851 1.465 . S
C846 C841 1.399 . S
C846 C845 1.394 . S
C846 C847 1.516 . S
C847 C846 1.516 . S
C847 C848 1.502 . S
C847 C849 1.561 . S
C847 C850 1.526 . S
C848 H832 0.959 . S
C848 H833 0.959 . S
C848 H834 0.961 . S
C848 C847 1.502 . S
C849 H835 0.960 . S
C849 H836 0.961 . S
C849 H837 0.959 . S
C849 C847 1.561 . S
C850 C847 1.526 . S
C850 C851 1.396 . S
C850 C855 1.390 . S
C851 C845 1.465 . S
C851 C850 1.396 . S
C851 C852 1.399 . S
C852 H838 0.929 . S
C852 C851 1.399 . S
C852 C853 1.385 . S
C853 H839 0.931 . S
C853 C852 1.385 . S
C853 C854 1.389 . S
C854 C853 1.389 . S
C854 C855 1.387 . S
C855 H840 0.930 . S
C855 C850 1.390 . S
C855 C854 1.387 . S
H856 C868 0.930 . S
H857 C870 0.930 . S
H858 C871 0.930 . S
H859 C875 0.959 . S
H860 C875 0.959 . S
H861 C875 0.961 . S
H862 C876 0.960 . S
H863 C876 0.961 . S
H864 C876 0.959 . S
H865 C879 0.929 . S
H866 C880 0.931 . S
H867 C882 0.930 . S
C868 H856 0.930 . S
C868 C869 1.399 . S
C868 C873 1.399 . S
C869 C868 1.399 . S
C869 C870 1.376 . S
C870 H857 0.930 . S
C870 C869 1.376 . S
C870 C871 1.388 . S
C871 H858 0.930 . S
C871 C870 1.388 . S
C871 C872 1.390 . S
C872 C871 1.390 . S
C872 C873 1.394 . S
C872 C878 1.465 . S
C873 C868 1.399 . S
C873 C872 1.394 . S
C873 C874 1.516 . S
C874 C873 1.516 . S
C874 C875 1.502 . S
C874 C876 1.561 . S
C874 C877 1.526 . S
C875 H859 0.959 . S
C875 H860 0.959 . S
C875 H861 0.961 . S
C875 C874 1.502 . S
C876 H862 0.960 . S
C876 H863 0.961 . S
C876 H864 0.959 . S
C876 C874 1.561 . S
C877 C874 1.526 . S
C877 C878 1.396 . S
C877 C882 1.390 . S
C878 C872 1.465 . S
C878 C877 1.396 . S
C878 C879 1.399 . S
C879 H865 0.929 . S
C879 C878 1.399 . S
C879 C880 1.385 . S
C880 H866 0.931 . S
C880 C879 1.385 . S
C880 C881 1.389 . S
C881 C880 1.389 . S
C881 C882 1.387 . S
C882 H867 0.930 . S
C882 C877 1.390 . S
C882 C881 1.387 . S
H883 C895 0.930 . S
H884 C897 0.930 . S
H885 C898 0.930 . S
H886 C902 0.959 . S
H887 C902 0.959 . S
H888 C902 0.961 . S
H889 C903 0.960 . S
H890 C903 0.961 . S
H891 C903 0.959 . S
H892 C906 0.929 . S
H893 C907 0.931 . S
H894 C909 0.930 . S
C895 H883 0.930 . S
C895 C896 1.399 . S
C895 C900 1.399 . S
C896 C895 1.399 . S
C896 C897 1.376 . S
C897 H884 0.930 . S
C897 C896 1.376 . S
C897 C898 1.388 . S
C898 H885 0.930 . S
C898 C897 1.388 . S
C898 C899 1.390 . S
C899 C898 1.390 . S
C899 C900 1.394 . S
C899 C905 1.465 . S
C900 C895 1.399 . S
C900 C899 1.394 . S
C900 C901 1.516 . S
C901 C900 1.516 . S
C901 C902 1.502 . S
C901 C903 1.561 . S
C901 C904 1.526 . S
C902 H886 0.959 . S
C902 H887 0.959 . S
C902 H888 0.961 . S
C902 C901 1.502 . S
C903 H889 0.960 . S
C903 H890 0.961 . S
C903 H891 0.959 . S
C903 C901 1.561 . S
C904 C901 1.526 . S
C904 C905 1.396 . S
C904 C909 1.390 . S
C905 C899 1.465 . S
C905 C904 1.396 . S
C905 C906 1.399 . S
C906 H892 0.929 . S
C906 C905 1.399 . S
C906 C907 1.385 . S
C907 H893 0.931 . S
C907 C906 1.385 . S
C907 C908 1.389 . S
C908 C907 1.389 . S
C908 C909 1.387 . S
C909 H894 0.930 . S
C909 C904 1.390 . S
C909 C908 1.387 . S
H910 C922 0.930 . S
H911 C924 0.930 . S
H912 C925 0.930 . S
H913 C929 0.959 . S
H914 C929 0.959 . S
H915 C929 0.961 . S
H916 C930 0.960 . S
H917 C930 0.961 . S
H918 C930 0.959 . S
H919 C933 0.929 . S
H920 C934 0.931 . S
H921 C936 0.930 . S
C922 H910 0.930 . S
C922 C923 1.399 . S
C922 C927 1.399 . S
C923 C922 1.399 . S
C923 C924 1.376 . S
C924 H911 0.930 . S
C924 C923 1.376 . S
C924 C925 1.388 . S
C925 H912 0.930 . S
C925 C924 1.388 . S
C925 C926 1.390 . S
C926 C925 1.390 . S
C926 C927 1.394 . S
C926 C932 1.465 . S
C927 C922 1.399 . S
C927 C926 1.394 . S
C927 C928 1.516 . S
C928 C927 1.516 . S
C928 C929 1.502 . S
C928 C930 1.561 . S
C928 C931 1.526 . S
C929 H913 0.959 . S
C929 H914 0.959 . S
C929 H915 0.961 . S
C929 C928 1.502 . S
C930 H916 0.960 . S
C930 H917 0.961 . S
C930 H918 0.959 . S
C930 C928 1.561 . S
C931 C928 1.526 . S
C931 C932 1.396 . S
C931 C936 1.390 . S
C932 C926 1.465 . S
C932 C931 1.396 . S
C932 C933 1.399 . S
C933 H919 0.929 . S
C933 C932 1.399 . S
C933 C934 1.385 . S
C934 H920 0.931 . S
C934 C933 1.385 . S
C934 C935 1.389 . S
C935 C934 1.389 . S
C935 C936 1.387 . S
C936 H921 0.930 . S
C936 C931 1.390 . S
C936 C935 1.387 . S
H937 C949 0.930 . S
H938 C951 0.930 . S
H939 C952 0.930 . S
H940 C956 0.959 . S
H941 C956 0.959 . S
H942 C956 0.961 . S
H943 C957 0.960 . S
H944 C957 0.961 . S
H945 C957 0.959 . S
H946 C960 0.929 . S
H947 C961 0.931 . S
H948 C963 0.930 . S
C949 H937 0.930 . S
C949 C950 1.399 . S
C949 C954 1.399 . S
C950 C949 1.399 . S
C950 C951 1.376 . S
C951 H938 0.930 . S
C951 C950 1.376 . S
C951 C952 1.388 . S
C952 H939 0.930 . S
C952 C951 1.388 . S
C952 C953 1.390 . S
C953 C952 1.390 . S
C953 C954 1.394 . S
C953 C959 1.465 . S
C954 C949 1.399 . S
C954 C953 1.394 . S
C954 C955 1.516 . S
C955 C954 1.516 . S
C955 C956 1.502 . S
C955 C957 1.561 . S
C955 C958 1.526 . S
C956 H940 0.959 . S
C956 H941 0.959 . S
C956 H942 0.961 . S
C956 C955 1.502 . S
C957 H943 0.960 . S
C957 H944 0.961 . S
C957 H945 0.959 . S
C957 C955 1.561 . S
C958 C955 1.526 . S
C958 C959 1.396 . S
C958 C963 1.390 . S
C959 C953 1.465 . S
C959 C958 1.396 . S
C959 C960 1.399 . S
C960 H946 0.929 . S
C960 C959 1.399 . S
C960 C961 1.385 . S
C961 H947 0.931 . S
C961 C960 1.385 . S
C961 C962 1.389 . S
C962 C961 1.389 . S
C962 C963 1.387 . S
C963 H948 0.930 . S
C963 C958 1.390 . S
C963 C962 1.387 . S
H964 C976 0.930 . S
H965 C978 0.930 . S
H966 C979 0.930 . S
H967 C983 0.959 . S
H968 C983 0.959 . S
H969 C983 0.961 . S
H970 C984 0.960 . S
H971 C984 0.961 . S
H972 C984 0.959 . S
H973 C987 0.929 . S
H974 C988 0.931 . S
H975 C990 0.930 . S
C976 H964 0.930 . S
C976 C977 1.399 . S
C976 C981 1.399 . S
C977 C976 1.399 . S
C977 C978 1.376 . S
C978 H965 0.930 . S
C978 C977 1.376 . S
C978 C979 1.388 . S
C979 H966 0.930 . S
C979 C978 1.388 . S
C979 C980 1.390 . S
C980 C979 1.390 . S
C980 C981 1.394 . S
C980 C986 1.465 . S
C981 C976 1.399 . S
C981 C980 1.394 . S
C981 C982 1.516 . S
C982 C981 1.516 . S
C982 C983 1.502 . S
C982 C984 1.561 . S
C982 C985 1.526 . S
C983 H967 0.959 . S
C983 H968 0.959 . S
C983 H969 0.961 . S
C983 C982 1.502 . S
C984 H970 0.960 . S
C984 H971 0.961 . S
C984 H972 0.959 . S
C984 C982 1.561 . S
C985 C982 1.526 . S
C985 C986 1.396 . S
C985 C990 1.390 . S
C986 C980 1.465 . S
C986 C985 1.396 . S
C986 C987 1.399 . S
C987 H973 0.929 . S
C987 C986 1.399 . S
C987 C988 1.385 . S
C988 H974 0.931 . S
C988 C987 1.385 . S
C988 C989 1.389 . S
C989 C988 1.389 . S
C989 C990 1.387 . S
C990 H975 0.930 . S
C990 C985 1.390 . S
C990 C989 1.387 . S
H991 C1003 0.930 . S
H992 C1005 0.930 . S
H993 C1006 0.930 . S
H994 C1010 0.959 . S
H995 C1010 0.959 . S
H996 C1010 0.961 . S
H997 C1011 0.960 . S
H998 C1011 0.961 . S
H999 C1011 0.959 . S
H1000 C1014 0.929 . S
H1001 C1015 0.931 . S
H1002 C1017 0.930 . S
C1003 H991 0.930 . S
C1003 C1004 1.399 . S
C1003 C1008 1.399 . S
C1004 C1003 1.399 . S
C1004 C1005 1.376 . S
C1005 H992 0.930 . S
C1005 C1004 1.376 . S
C1005 C1006 1.388 . S
C1006 H993 0.930 . S
C1006 C1005 1.388 . S
C1006 C1007 1.390 . S
C1007 C1006 1.390 . S
C1007 C1008 1.394 . S
C1007 C1013 1.465 . S
C1008 C1003 1.399 . S
C1008 C1007 1.394 . S
C1008 C1009 1.516 . S
C1009 C1008 1.516 . S
C1009 C1010 1.502 . S
C1009 C1011 1.561 . S
C1009 C1012 1.526 . S
C1010 H994 0.959 . S
C1010 H995 0.959 . S
C1010 H996 0.961 . S
C1010 C1009 1.502 . S
C1011 H997 0.960 . S
C1011 H998 0.961 . S
C1011 H999 0.959 . S
C1011 C1009 1.561 . S
C1012 C1009 1.526 . S
C1012 C1013 1.396 . S
C1012 C1017 1.390 . S
C1013 C1007 1.465 . S
C1013 C1012 1.396 . S
C1013 C1014 1.399 . S
C1014 H1000 0.929 . S
C1014 C1013 1.399 . S
C1014 C1015 1.385 . S
C1015 H1001 0.931 . S
C1015 C1014 1.385 . S
C1015 C1016 1.389 . S
C1016 C1015 1.389 . S
C1016 C1017 1.387 . S
C1017 H1002 0.930 . S
C1017 C1012 1.390 . S
C1017 C1016 1.387 . S
H1018 C1030 0.930 . S
H1019 C1032 0.930 . S
H1020 C1033 0.930 . S
H1021 C1037 0.959 . S
H1022 C1037 0.959 . S
H1023 C1037 0.961 . S
H1024 C1038 0.960 . S
H1025 C1038 0.961 . S
H1026 C1038 0.959 . S
H1027 C1041 0.929 . S
H1028 C1042 0.931 . S
H1029 C1044 0.930 . S
C1030 H1018 0.930 . S
C1030 C1031 1.399 . S
C1030 C1035 1.399 . S
C1031 C1030 1.399 . S
C1031 C1032 1.376 . S
C1032 H1019 0.930 . S
C1032 C1031 1.376 . S
C1032 C1033 1.388 . S
C1033 H1020 0.930 . S
C1033 C1032 1.388 . S
C1033 C1034 1.390 . S
C1034 C1033 1.390 . S
C1034 C1035 1.394 . S
C1034 C1040 1.465 . S
C1035 C1030 1.399 . S
C1035 C1034 1.394 . S
C1035 C1036 1.516 . S
C1036 C1035 1.516 . S
C1036 C1037 1.502 . S
C1036 C1038 1.561 . S
C1036 C1039 1.526 . S
C1037 H1021 0.959 . S
C1037 H1022 0.959 . S
C1037 H1023 0.961 . S
C1037 C1036 1.502 . S
C1038 H1024 0.960 . S
C1038 H1025 0.961 . S
C1038 H1026 0.959 . S
C1038 C1036 1.561 . S
C1039 C1036 1.526 . S
C1039 C1040 1.396 . S
C1039 C1044 1.390 . S
C1040 C1034 1.465 . S
C1040 C1039 1.396 . S
C1040 C1041 1.399 . S
C1041 H1027 0.929 . S
C1041 C1040 1.399 . S
C1041 C1042 1.385 . S
C1042 H1028 0.931 . S
C1042 C1041 1.385 . S
C1042 C1043 1.389 . S
C1043 C1042 1.389 . S
C1043 C1044 1.387 . S
C1044 H1029 0.930 . S
C1044 C1039 1.390 . S
C1044 C1043 1.387 . S
H1045 C1057 0.930 . S
H1046 C1059 0.930 . S
H1047 C1060 0.930 . S
H1048 C1064 0.959 . S
H1049 C1064 0.959 . S
H1050 C1064 0.961 . S
H1051 C1065 0.960 . S
H1052 C1065 0.961 . S
H1053 C1065 0.959 . S
H1054 C1068 0.929 . S
H1055 C1069 0.931 . S
H1056 C1071 0.930 . S
C1057 H1045 0.930 . S
C1057 C1058 1.399 . S
C1057 C1062 1.399 . S
C1058 C1057 1.399 . S
C1058 C1059 1.376 . S
C1059 H1046 0.930 . S
C1059 C1058 1.376 . S
C1059 C1060 1.388 . S
C1060 H1047 0.930 . S
C1060 C1059 1.388 . S
C1060 C1061 1.390 . S
C1061 C1060 1.390 . S
C1061 C1062 1.394 . S
C1061 C1067 1.465 . S
C1062 C1057 1.399 . S
C1062 C1061 1.394 . S
C1062 C1063 1.516 . S
C1063 C1062 1.516 . S
C1063 C1064 1.502 . S
C1063 C1065 1.561 . S
C1063 C1066 1.526 . S
C1064 H1048 0.959 . S
C1064 H1049 0.959 . S
C1064 H1050 0.961 . S
C1064 C1063 1.502 . S
C1065 H1051 0.960 . S
C1065 H1052 0.961 . S
C1065 H1053 0.959 . S
C1065 C1063 1.561 . S
C1066 C1063 1.526 . S
C1066 C1067 1.396 . S
C1066 C1071 1.390 . S
C1067 C1061 1.465 . S
C1067 C1066 1.396 . S
C1067 C1068 1.399 . S
C1068 H1054 0.929 . S
C1068 C1067 1.399 . S
C1068 C1069 1.385 . S
C1069 H1055 0.931 . S
C1069 C1068 1.385 . S
C1069 C1070 1.389 . S
C1070 C1069 1.389 . S
C1070 C1071 1.387 . S
C1071 H1056 0.930 . S
C1071 C1066 1.390 . S
C1071 C1070 1.387 . S
C437 C71 1.663 . S
C449 C162 1.629 . S
C476 C246 1.603 . S
C464 C81 1.626 . S
C503 C239 1.663 . S
C491 C49 1.651 . S
C518 C59 1.631 . S
C530 C155 1.627 . S
C557 C319 1.666 . S
C545 C27 1.649 . S
C584 C403 1.668 . S
C572 C38 1.689 . S
C599 C5 1.636 . S
C611 C396 1.660 . S
C626 C16 1.673 . S
C638 C312 1.702 . S
C665 C146 1.445 . S
C653 C15 1.555 . S
C692 C230 1.400 . S
C680 C4 1.582 . S
C719 C241 1.429 . S
C707 C37 1.546 . S
C746 C157 1.345 . S
C734 C26 1.575 . S
C773 C325 1.408 . S
C761 C60 1.612 . S
C788 C48 1.632 . S
C800 C409 1.423 . S
C827 C398 1.395 . S
C815 C82 1.605 . S
C842 C70 1.636 . S
C854 C314 1.442 . S
C881 C144 1.486 . S
C869 C10 1.492 . S
C908 C228 1.543 . S
C896 C21 1.520 . S
C923 C32 1.473 . S
C935 C235 1.441 . S
C962 C151 1.532 . S
C950 C43 1.542 . S
C989 C323 1.580 . S
C977 C54 1.589 . S
C1004 C65 1.529 . S
C1016 C407 1.536 . S
C1031 C76 1.550 . S
C1043 C414 1.539 . S
C1058 C87 1.527 . S
C1070 C330 1.484 . S
