# Generated by pormake.
# Topology ctn, (3,4)-cn, num edge types: 1
# Building blocks:
#     Node 0, Type 0, BuildingBlock: BETDAH_clean_linker_0, # of connection points: 3
#     Node 1, Type 0, BuildingBlock: BETDAH_clean_linker_0, # of connection points: 3
#     Node 2, Type 0, BuildingBlock: BETDAH_clean_linker_0, # of connection points: 3
#     Node 3, Type 0, BuildingBlock: BETDAH_clean_linker_0, # of connection points: 3
#     Node 4, Type 0, BuildingBlock: BETDAH_clean_linker_0, # of connection points: 3
#     Node 5, Type 0, BuildingBlock: BETDAH_clean_linker_0, # of connection points: 3
#     Node 6, Type 0, BuildingBlock: BETDAH_clean_linker_0, # of connection points: 3
#     Node 7, Type 0, BuildingBlock: BETDAH_clean_linker_0, # of connection points: 3
#     Node 8, Type 0, BuildingBlock: BETDAH_clean_linker_0, # of connection points: 3
#     Node 9, Type 0, BuildingBlock: BETDAH_clean_linker_0, # of connection points: 3
#     Node 10, Type 0, BuildingBlock: BETDAH_clean_linker_0, # of connection points: 3
#     Node 11, Type 0, BuildingBlock: BETDAH_clean_linker_0, # of connection points: 3
#     Node 12, Type 0, BuildingBlock: BETDAH_clean_linker_0, # of connection points: 3
#     Node 13, Type 0, BuildingBlock: BETDAH_clean_linker_0, # of connection points: 3
#     Node 14, Type 0, BuildingBlock: BETDAH_clean_linker_0, # of connection points: 3
#     Node 15, Type 0, BuildingBlock: BETDAH_clean_linker_0, # of connection points: 3
#     Node 16, Type 1, BuildingBlock: KUFVIS_clean_sbu_0, # of connection points: 4
#     Node 17, Type 1, BuildingBlock: KUFVIS_clean_sbu_0, # of connection points: 4
#     Node 18, Type 1, BuildingBlock: KUFVIS_clean_sbu_0, # of connection points: 4
#     Node 19, Type 1, BuildingBlock: KUFVIS_clean_sbu_0, # of connection points: 4
#     Node 20, Type 1, BuildingBlock: KUFVIS_clean_sbu_0, # of connection points: 4
#     Node 21, Type 1, BuildingBlock: KUFVIS_clean_sbu_0, # of connection points: 4
#     Node 22, Type 1, BuildingBlock: KUFVIS_clean_sbu_0, # of connection points: 4
#     Node 23, Type 1, BuildingBlock: KUFVIS_clean_sbu_0, # of connection points: 4
#     Node 24, Type 1, BuildingBlock: KUFVIS_clean_sbu_0, # of connection points: 4
#     Node 25, Type 1, BuildingBlock: KUFVIS_clean_sbu_0, # of connection points: 4
#     Node 26, Type 1, BuildingBlock: KUFVIS_clean_sbu_0, # of connection points: 4
#     Node 27, Type 1, BuildingBlock: KUFVIS_clean_sbu_0, # of connection points: 4
#     Edge 28, Type (0, 1), BuildingBlock: KIFKEQ_clean_linker_1, # of connection points: 2
#     Edge 29, Type (0, 1), BuildingBlock: KIFKEQ_clean_linker_1, # of connection points: 2
#     Edge 30, Type (0, 1), BuildingBlock: KIFKEQ_clean_linker_1, # of connection points: 2
#     Edge 31, Type (0, 1), BuildingBlock: KIFKEQ_clean_linker_1, # of connection points: 2
#     Edge 32, Type (0, 1), BuildingBlock: KIFKEQ_clean_linker_1, # of connection points: 2
#     Edge 33, Type (0, 1), BuildingBlock: KIFKEQ_clean_linker_1, # of connection points: 2
#     Edge 34, Type (0, 1), BuildingBlock: KIFKEQ_clean_linker_1, # of connection points: 2
#     Edge 35, Type (0, 1), BuildingBlock: KIFKEQ_clean_linker_1, # of connection points: 2
#     Edge 36, Type (0, 1), BuildingBlock: KIFKEQ_clean_linker_1, # of connection points: 2
#     Edge 37, Type (0, 1), BuildingBlock: KIFKEQ_clean_linker_1, # of connection points: 2
#     Edge 38, Type (0, 1), BuildingBlock: KIFKEQ_clean_linker_1, # of connection points: 2
#     Edge 39, Type (0, 1), BuildingBlock: KIFKEQ_clean_linker_1, # of connection points: 2
#     Edge 40, Type (0, 1), BuildingBlock: KIFKEQ_clean_linker_1, # of connection points: 2
#     Edge 41, Type (0, 1), BuildingBlock: KIFKEQ_clean_linker_1, # of connection points: 2
#     Edge 42, Type (0, 1), BuildingBlock: KIFKEQ_clean_linker_1, # of connection points: 2
#     Edge 43, Type (0, 1), BuildingBlock: KIFKEQ_clean_linker_1, # of connection points: 2
#     Edge 44, Type (0, 1), BuildingBlock: KIFKEQ_clean_linker_1, # of connection points: 2
#     Edge 45, Type (0, 1), BuildingBlock: KIFKEQ_clean_linker_1, # of connection points: 2
#     Edge 46, Type (0, 1), BuildingBlock: KIFKEQ_clean_linker_1, # of connection points: 2
#     Edge 47, Type (0, 1), BuildingBlock: KIFKEQ_clean_linker_1, # of connection points: 2
#     Edge 48, Type (0, 1), BuildingBlock: KIFKEQ_clean_linker_1, # of connection points: 2
#     Edge 49, Type (0, 1), BuildingBlock: KIFKEQ_clean_linker_1, # of connection points: 2
#     Edge 50, Type (0, 1), BuildingBlock: KIFKEQ_clean_linker_1, # of connection points: 2
#     Edge 51, Type (0, 1), BuildingBlock: KIFKEQ_clean_linker_1, # of connection points: 2
#     Edge 52, Type (0, 1), BuildingBlock: KIFKEQ_clean_linker_1, # of connection points: 2
#     Edge 53, Type (0, 1), BuildingBlock: KIFKEQ_clean_linker_1, # of connection points: 2
#     Edge 54, Type (0, 1), BuildingBlock: KIFKEQ_clean_linker_1, # of connection points: 2
#     Edge 55, Type (0, 1), BuildingBlock: KIFKEQ_clean_linker_1, # of connection points: 2
#     Edge 56, Type (0, 1), BuildingBlock: KIFKEQ_clean_linker_1, # of connection points: 2
#     Edge 57, Type (0, 1), BuildingBlock: KIFKEQ_clean_linker_1, # of connection points: 2
#     Edge 58, Type (0, 1), BuildingBlock: KIFKEQ_clean_linker_1, # of connection points: 2
#     Edge 59, Type (0, 1), BuildingBlock: KIFKEQ_clean_linker_1, # of connection points: 2
#     Edge 60, Type (0, 1), BuildingBlock: KIFKEQ_clean_linker_1, # of connection points: 2
#     Edge 61, Type (0, 1), BuildingBlock: KIFKEQ_clean_linker_1, # of connection points: 2
#     Edge 62, Type (0, 1), BuildingBlock: KIFKEQ_clean_linker_1, # of connection points: 2
#     Edge 63, Type (0, 1), BuildingBlock: KIFKEQ_clean_linker_1, # of connection points: 2
#     Edge 64, Type (0, 1), BuildingBlock: KIFKEQ_clean_linker_1, # of connection points: 2
#     Edge 65, Type (0, 1), BuildingBlock: KIFKEQ_clean_linker_1, # of connection points: 2
#     Edge 66, Type (0, 1), BuildingBlock: KIFKEQ_clean_linker_1, # of connection points: 2
#     Edge 67, Type (0, 1), BuildingBlock: KIFKEQ_clean_linker_1, # of connection points: 2
#     Edge 68, Type (0, 1), BuildingBlock: KIFKEQ_clean_linker_1, # of connection points: 2
#     Edge 69, Type (0, 1), BuildingBlock: KIFKEQ_clean_linker_1, # of connection points: 2
#     Edge 70, Type (0, 1), BuildingBlock: KIFKEQ_clean_linker_1, # of connection points: 2
#     Edge 71, Type (0, 1), BuildingBlock: KIFKEQ_clean_linker_1, # of connection points: 2
#     Edge 72, Type (0, 1), BuildingBlock: KIFKEQ_clean_linker_1, # of connection points: 2
#     Edge 73, Type (0, 1), BuildingBlock: KIFKEQ_clean_linker_1, # of connection points: 2
#     Edge 74, Type (0, 1), BuildingBlock: KIFKEQ_clean_linker_1, # of connection points: 2
#     Edge 75, Type (0, 1), BuildingBlock: KIFKEQ_clean_linker_1, # of connection points: 2
# Relax obj value: 0.060
# Max RMSD: 0.158
# Mean RMSD: 0.106
data_MOF--net-ctn--node1-KUFVIS_clean_sbu_0--node2-BETDAH_clean_linker_0--edge1-KIFKEQ_clean_linker_1
_symmetry_space_group_name_H-M    P1
_symmetry_Int_Tables_number       1
_symmetry_cell_setting            triclinic
loop_
_symmetry_equiv_pos_as_xyz
'x, y, z'
_cell_length_a     54.309916
_cell_length_b     54.028945
_cell_length_c     55.064848
_cell_angle_alpha  99.789733
_cell_angle_beta   90.820353
_cell_angle_gamma 96.439208
loop_
_atom_site_label
_atom_site_type_symbol
_atom_site_fract_x
_atom_site_fract_y
_atom_site_fract_z
_atom_type_partial_charge
H0 H 0.08947 0.011 0.0961 0.0
H1 H 0.09121 0.03872 0.02664 0.0
H2 H 0.02999 0.04878 0.07383 0.0
C3 C 0.08204 0.02136 0.08307 0.0
C4 C 0.05931 0.03097 0.08818 0.0
C5 C 0.09392 0.02338 0.06063 0.0
C6 C 0.0828 0.03648 0.04393 0.0
C7 C 0.05977 0.04555 0.04869 0.0
C8 C 0.04811 0.04246 0.07062 0.0
N9 N 0.04594 0.05327 0.02984 0.0
C10 C 0.05189 0.07542 0.02037 0.0
H11 H 0.33857 0.68193 0.24423 0.0
H12 H 0.38094 0.7256 0.19737 0.0
H13 H 0.31072 0.68474 0.17137 0.0
C14 C 0.34077 0.68862 0.22685 0.0
C15 C 0.32223 0.6808 0.20819 0.0
C16 C 0.36246 0.70416 0.22315 0.0
C17 C 0.36421 0.71415 0.2011 0.0
C18 C 0.34503 0.70802 0.18292 0.0
C19 C 0.32439 0.69096 0.18632 0.0
N20 N 0.3487 0.71491 0.1594 0.0
C21 C 0.34264 0.73752 0.15329 0.0
H22 H 0.0303 0.45065 0.06703 0.0
H23 H 1.00399 0.52372 0.07087 0.0
H24 H 0.9936 0.46926 1.00404 0.0
C25 C 0.02073 0.46382 0.0587 0.0
C26 C 0.01162 0.4567 0.03421 0.0
C27 C 0.01808 0.48791 0.07231 0.0
C28 C 0.00579 0.50492 0.06098 0.0
C29 C 0.99675 0.49802 0.03639 0.0
C30 C 0.99989 0.47409 0.02321 0.0
N31 N 0.98801 0.51598 0.02331 0.0
C32 C 0.96707 0.52827 0.02899 0.0
H33 H 0.76823 0.83537 0.17231 0.0
H34 H 0.6954 0.80613 0.19225 0.0
H35 H 0.732 0.87592 0.23276 0.0
C36 C 0.75237 0.83688 0.184 0.0
C37 C 0.7527 0.85739 0.20337 0.0
C38 C 0.73186 0.81812 0.17989 0.0
C39 C 0.71159 0.82007 0.1956 0.0
C40 C 0.7116 0.84117 0.21454 0.0
C41 C 0.73214 0.85962 0.21825 0.0
N42 N 0.69017 0.84609 0.22807 0.0
C43 C 0.67731 0.82948 0.24139 0.0
H44 H 0.08356 0.01468 0.46051 0.0
H45 H 0.0805 0.98144 0.52642 0.0
H46 H 0.0159 0.97318 0.47835 0.0
C47 C 0.07323 1.00372 0.47256 0.0
C48 C 0.04833 0.9943 0.46655 0.0
C49 C 0.08495 0.99919 0.49407 0.0
C50 C 0.07166 0.98471 0.50968 0.0
C51 C 0.04669 0.97508 0.5038 0.0
C52 C 0.03525 0.98021 0.48247 0.0
N53 N 0.03177 0.9616 0.51942 0.0
C54 C 0.03969 0.946 0.53498 0.0
H55 H 0.27471 0.6901 0.86136 0.0
H56 H 0.21948 0.72344 0.82431 0.0
H57 H 0.25266 0.66019 0.78615 0.0
C58 C 0.26366 0.69106 0.84512 0.0
C59 C 0.26621 0.67347 0.82367 0.0
C60 C 0.24716 0.70961 0.84578 0.0
C61 C 0.23197 0.70924 0.82459 0.0
C62 C 0.23363 0.69101 0.80327 0.0
C63 C 0.25088 0.67351 0.80295 0.0
N64 N 0.21907 0.69003 0.78136 0.0
C65 C 0.19944 0.70396 0.77854 0.0
H66 H 0.95625 0.56851 0.52786 0.0
H67 H 0.02703 0.56607 0.49346 0.0
H68 H 0.97325 0.50021 0.48195 0.0
C69 C 0.96887 0.55828 0.51601 0.0
C70 C 0.96162 0.53301 0.50507 0.0
C71 C 0.99243 0.57037 0.51196 0.0
C72 C 0.00873 0.55706 0.49641 0.0
C73 C 1.00161 0.53177 0.48537 0.0
C74 C 0.97831 0.5199 0.49005 0.0
N75 N 0.01817 0.51695 0.47138 0.0
C76 C 0.03216 0.52431 0.45228 0.0
H77 H 0.86429 0.77719 0.83707 0.0
H78 H 0.84435 0.84477 0.81306 0.0
H79 H 0.80455 0.81486 0.87043 0.0
C80 C 0.85292 0.79259 0.83848 0.0
C81 C 0.8337 0.79351 0.85532 0.0
C82 C 0.85701 0.81092 0.82293 0.0
C83 C 0.84126 0.83028 0.82443 0.0
C84 C 0.8224 0.83168 0.84175 0.0
C85 C 0.81895 0.81341 0.85699 0.0
N86 N 0.80759 0.85201 0.84603 0.0
C87 C 0.80041 0.86654 0.82913 0.0
H88 H 0.36615 0.28149 0.34269 0.0
H89 H 0.332 0.33256 0.3036 0.0
H90 H 0.29516 0.30442 0.36344 0.0
C91 C 0.35092 0.29217 0.3399 0.0
C92 C 0.33078 0.29133 0.35564 0.0
C93 C 0.35173 0.30692 0.3209 0.0
C94 C 0.33203 0.32149 0.31825 0.0
C95 C 0.31167 0.32055 0.3338 0.0
C96 C 0.31126 0.30543 0.35208 0.0
N97 N 0.29031 0.33304 0.33113 0.0
C98 C 0.28787 0.35311 0.31873 0.0
H99 H 0.53305 0.95155 0.56639 0.0
H100 H 0.51859 0.02913 0.57306 0.0
H101 H 0.49437 0.9763 0.50768 0.0
C102 C 0.52517 0.96636 0.55895 0.0
C103 C 0.51341 0.96074 0.5354 0.0
C104 C 0.52702 0.99088 0.57293 0.0
C105 C 0.51636 0.00984 0.56317 0.0
C106 C 0.50407 1.00446 0.53995 0.0
C107 C 0.50262 0.97994 0.52617 0.0
N108 N 0.49795 0.02472 0.52855 0.0
C109 C 0.47409 0.03153 0.52671 0.0
H110 H 0.27327 0.3288 0.67828 0.0
H111 H 0.1992 0.30161 0.697 0.0
H112 H 0.23245 0.37593 0.72954 0.0
C113 C 0.25671 0.33118 0.68875 0.0
C114 C 0.25547 0.35409 0.70477 0.0
C115 C 0.23638 0.3121 0.68526 0.0
C116 C 0.21501 0.31601 0.69912 0.0
C117 C 0.21369 0.33907 0.71512 0.0
C118 C 0.23368 0.35812 0.71737 0.0
N119 N 0.19183 0.3445 0.72771 0.0
C120 C 0.17892 0.3287 0.74185 0.0
H121 H 0.8488 0.17226 0.73491 0.0
H122 H 0.87867 0.24874 0.73118 0.0
H123 H 0.80824 0.21839 0.69606 0.0
C124 C 0.8477 0.18991 0.72833 0.0
C125 C 0.82632 0.19291 0.71488 0.0
C126 C 0.86689 0.20985 0.73447 0.0
C127 C 0.86468 0.23268 0.72602 0.0
C128 C 0.8442 0.23562 0.71147 0.0
C129 C 0.82478 0.21576 0.7061 0.0
N130 N 0.84302 0.25973 0.70473 0.0
C131 C 0.83129 0.26457 0.68367 0.0
H132 H 0.5813 0.51407 0.58926 0.0
H133 H 0.58168 0.53118 0.51577 0.0
H134 H 0.52721 0.55854 0.56554 0.0
C135 C 0.57414 0.52395 0.57566 0.0
C136 C 0.55325 0.53713 0.58091 0.0
C137 C 0.5848 0.5218 0.55232 0.0
C138 C 0.5743 0.53317 0.53408 0.0
C139 C 0.55376 0.54655 0.53893 0.0
C140 C 0.54346 0.54866 0.56231 0.0
N141 N 0.54059 0.55309 0.51896 0.0
C142 C 0.5422 0.57725 0.51303 0.0
H143 H 0.58185 0.52038 0.96154 0.0
H144 H 0.58127 0.47553 0.01932 0.0
H145 H 0.51998 0.46466 0.96675 0.0
C146 C 0.57247 0.50606 0.97087 0.0
C147 C 0.54939 0.49343 0.96157 0.0
C148 C 0.5841 0.49964 0.99157 0.0
C149 C 0.57227 0.48061 1.00349 0.0
C150 C 0.54894 0.468 0.99446 0.0
C151 C 0.53787 0.47452 0.97361 0.0
N152 N 0.53586 0.44829 0.00502 0.0
C153 C 0.54208 0.43909 0.02621 0.0
H154 H 0.78027 0.1958 0.35832 0.0
H155 H 0.72599 0.22998 0.32078 0.0
H156 H 0.762 0.16934 0.28167 0.0
C157 C 0.76988 0.19741 0.34187 0.0
C158 C 0.77355 0.18086 0.31997 0.0
C159 C 0.75292 0.21558 0.34268 0.0
C160 C 0.73867 0.21596 0.32105 0.0
C161 C 0.74166 0.19894 0.2992 0.0
C162 C 0.75926 0.18181 0.29879 0.0
N163 N 0.72825 0.19915 0.27687 0.0
C164 C 0.70625 0.20976 0.27475 0.0
H165 H 0.45818 0.06793 0.025 0.0
H166 H 0.53378 0.0717 1.00123 0.0
H167 H 0.48384 1.00403 0.97935 0.0
C168 C 0.47302 0.05937 0.01507 0.0
C169 C 0.46815 0.0344 1.00243 0.0
C170 C 0.4967 0.0732 0.01527 0.0
C171 C 0.5152 0.06198 1.00092 0.0
C172 C 0.5103 0.03726 0.98749 0.0
C173 C 0.48698 0.02353 0.98864 0.0
N174 N 0.52972 0.02448 0.97621 0.0
C175 C 0.54045 0.02938 0.95445 0.0
Mn176 Mn 0.27333 0.88279 0.0244 0.0
Mn177 Mn 0.26622 0.89891 0.96819 0.0
C178 C 0.2546 0.85369 0.99134 0.0
C179 C 0.29442 0.86462 0.05326 0.0
C180 C 0.23468 0.91651 0.01131 0.0
O181 O 0.29958 0.91353 0.02604 0.0
O182 O 0.29272 0.92249 0.98804 0.0
C183 C 0.315 0.88839 0.94804 0.0
N184 N 0.28978 0.88426 0.94633 0.0
C185 C 0.29079 0.85539 0.90798 0.0
C186 C 0.31676 0.85944 0.9093 0.0
C187 C 0.32891 0.87598 0.92943 0.0
C188 C 0.27789 0.86847 0.92696 0.0
H189 H 0.32447 0.90101 0.96349 0.0
C190 C 0.30456 0.92661 0.00896 0.0
O191 O 0.27843 0.88039 0.05998 0.0
O192 O 0.29919 0.86056 0.03 0.0
N193 N 0.24163 0.87685 0.94719 0.0
C194 C 0.21667 0.87311 0.9499 0.0
C195 C 0.20184 0.85619 0.93189 0.0
C196 C 0.21283 0.84323 0.91132 0.0
C197 C 0.23857 0.84725 0.909 0.0
C198 C 0.25239 0.86452 0.92743 0.0
H199 H 0.2082 0.88265 0.96588 0.0
O200 O 0.24928 0.85133 0.01379 0.0
O201 O 0.26955 0.87352 0.98904 0.0
O202 O 0.24537 0.90594 0.02692 0.0
O203 O 0.24066 0.91464 0.9888 0.0
C204 C 0.25113 0.83426 0.88947 0.0
C205 C 0.27722 0.83836 0.88895 0.0
H206 H 0.32757 0.84973 0.8951 0.0
H207 H 0.34896 0.87911 0.93064 0.0
H208 H 0.18201 0.85299 0.93396 0.0
H209 H 0.20137 0.82995 0.89762 0.0
H210 H 0.24095 0.82072 0.87502 0.0
H211 H 0.28669 0.82793 0.87408 0.0
Mn212 Mn 0.16549 0.51623 0.26025 0.0
Mn213 Mn 0.14893 0.57552 0.26723 0.0
C214 C 0.18866 0.5473 0.24304 0.0
C215 C 0.18767 0.48573 0.27364 0.0
C216 C 0.12299 0.53164 0.23052 0.0
O217 O 0.14173 0.51705 0.289 0.0
O218 O 0.13353 0.55748 0.29281 0.0
C219 C 0.17512 0.59605 0.31519 0.0
N220 N 0.17103 0.59732 0.291 0.0
C221 C 0.20054 0.63452 0.29392 0.0
C222 C 0.20495 0.63369 0.31891 0.0
C223 C 0.19222 0.61434 0.32956 0.0
C224 C 0.18327 0.61579 0.28053 0.0
H225 H 0.16545 0.58116 0.32345 0.0
C226 C 0.13136 0.53591 0.2998 0.0
O227 O 0.16835 0.47933 0.2588 0.0
O228 O 0.19344 0.50974 0.28148 0.0
N229 N 0.16271 0.5954 0.24398 0.0
C230 C 0.15678 0.59318 0.21951 0.0
C231 C 0.168 0.61101 0.20607 0.0
C232 C 0.18506 0.63103 0.21793 0.0
C233 C 0.19065 0.6331 0.24318 0.0
C234 C 0.17866 0.61493 0.25569 0.0
H235 H 0.14365 0.57788 0.21027 0.0
O236 O 0.18984 0.52357 0.23457 0.0
O237 O 0.17415 0.55213 0.26137 0.0
O238 O 0.13636 0.51498 0.23547 0.0
O239 O 0.12576 0.55455 0.2418 0.0
C240 C 0.20785 0.65232 0.25637 0.0
C241 C 0.21286 0.65298 0.2817 0.0
H242 H 0.21818 0.64772 0.33004 0.0
H243 H 0.1956 0.61351 0.34881 0.0
H244 H 0.16357 0.6093 0.18659 0.0
H245 H 0.19379 0.64465 0.20746 0.0
H246 H 0.21754 0.66653 0.24715 0.0
H247 H 0.22633 0.66768 0.29157 0.0
Mn248 Mn 0.78127 0.63992 0.01089 0.0
Mn249 Mn 0.72768 0.65167 0.98503 0.0
C250 C 0.7447 0.61331 0.01283 0.0
C251 C 0.8187 0.62175 0.01056 0.0
C252 C 0.74871 0.68026 0.0343 0.0
O253 O 0.79374 0.66451 0.98766 0.0
O254 O 0.75668 0.67045 0.97212 0.0
C255 C 0.73554 0.62613 0.93423 0.0
N256 N 0.72124 0.62901 0.9544 0.0
C257 C 0.68919 0.59764 0.93409 0.0
C258 C 0.70352 0.59443 0.91304 0.0
C259 C 0.72683 0.60867 0.91315 0.0
C260 C 0.6989 0.61522 0.95458 0.0
H261 H 0.75345 0.63707 0.93424 0.0
C262 C 0.78037 0.67474 0.9737 0.0
O263 O 0.81499 0.64161 0.02629 0.0
O264 O 0.80104 0.613 0.99412 0.0
N265 N 0.69767 0.63507 0.99543 0.0
C266 C 0.68631 0.64021 0.01733 0.0
C267 C 0.66274 0.62766 0.02023 0.0
C268 C 0.65094 0.61025 1.00051 0.0
C269 C 0.66284 0.60551 0.97805 0.0
C270 C 0.68623 0.61875 0.97618 0.0
H271 H 0.69516 0.6538 0.03246 0.0
O272 O 0.76293 0.61433 0.02857 0.0
O273 O 0.74834 0.62767 0.99617 0.0
O274 O 0.76793 0.66871 0.03444 0.0
O275 O 0.7324 0.6755 0.01668 0.0
C276 C 0.65253 0.58798 0.95754 0.0
C277 C 0.66576 0.58394 0.93562 0.0
H278 H 0.69686 0.581 0.89673 0.0
H279 H 0.73803 0.60624 0.897 0.0
H280 H 0.65365 0.63145 0.03761 0.0
H281 H 0.63277 0.6006 1.00282 0.0
H282 H 0.63457 0.5773 0.95853 0.0
H283 H 0.65777 0.57022 0.92006 0.0
Mn284 Mn 0.92284 0.02522 0.27518 0.0
Mn285 Mn 0.93725 0.96518 0.26593 0.0
C286 C 0.89677 0.9926 0.25157 0.0
C287 C 0.902 0.05799 0.29591 0.0
C288 C 0.96123 1.0051 0.23839 0.0
O289 O 0.94848 0.02643 0.30341 0.0
O290 O 0.95675 0.98594 0.29448 0.0
C291 C 0.91718 0.95069 0.31193 0.0
N292 N 0.91769 0.94656 0.28685 0.0
C293 C 0.88757 0.90984 0.28383 0.0
C294 C 0.88682 0.91364 0.30962 0.0
C295 C 0.90164 0.9342 0.32373 0.0
C296 C 0.90337 0.92693 0.2731 0.0
H297 H 0.92852 0.96646 0.32288 0.0
C298 C 0.95998 0.00807 0.30772 0.0
O299 O 0.92084 0.06257 0.28242 0.0
O300 O 0.89658 0.03472 0.29883 0.0
N301 N 0.91934 0.94286 0.23914 0.0
C302 C 0.92149 0.94238 0.21444 0.0
C303 C 0.90759 0.92316 0.19775 0.0
C304 C 0.89177 0.90455 0.20661 0.0
C305 C 0.89001 0.90531 0.2321 0.0
C306 C 0.90441 0.92485 0.24785 0.0
H307 H 0.93352 0.95668 0.20752 0.0
O308 O 0.8963 0.01574 0.24829 0.0
O309 O 0.91274 0.98922 0.26807 0.0
O310 O 0.95018 0.02328 0.24945 0.0
O311 O 0.95763 0.98266 0.24312 0.0
C312 C 0.87436 0.8876 0.24249 0.0
C313 C 0.87307 0.88991 0.26833 0.0
H314 H 0.87483 0.90098 0.31879 0.0
H315 H 0.90109 0.93732 0.34364 0.0
H316 H 0.909 0.92275 0.17811 0.0
H317 H 0.88093 0.88987 0.19369 0.0
H318 H 0.86298 0.87231 0.23077 0.0
H319 H 0.8607 0.87638 0.2761 0.0
Mn320 Mn 0.28389 0.13669 0.51028 0.0
Mn321 Mn 0.22946 0.14988 0.48738 0.0
C322 C 0.24761 0.10974 0.51218 0.0
C323 C 0.32145 0.11874 0.50787 0.0
C324 C 0.25217 0.17627 0.53678 0.0
O325 O 0.29541 0.1625 0.48799 0.0
O326 O 0.25793 0.1692 0.47408 0.0
C327 C 0.23504 0.12654 0.43537 0.0
N328 N 0.22165 0.12859 0.45619 0.0
C329 C 0.18856 0.09847 0.43595 0.0
C330 C 0.20192 0.09614 0.41423 0.0
C331 C 0.2253 0.11017 0.41398 0.0
C332 C 0.19923 0.11504 0.4567 0.0
H333 H 0.25299 0.13732 0.4351 0.0
C334 C 0.28165 0.17333 0.47495 0.0
O335 O 0.31796 0.13798 0.52446 0.0
O336 O 0.30341 0.11043 0.49174 0.0
N337 N 0.19998 0.1328 0.49831 0.0
C338 C 0.18988 0.13656 0.52097 0.0
C339 C 0.16659 0.12371 0.52444 0.0
C340 C 0.15378 0.10744 0.50452 0.0
C341 C 0.16439 0.10415 0.4813 0.0
C342 C 0.18758 0.11756 0.47892 0.0
H343 H 0.19954 0.14921 0.5363 0.0
O344 O 0.26632 0.11009 0.52719 0.0
O345 O 0.25058 0.12505 0.49627 0.0
O346 O 0.2713 0.16449 0.53558 0.0
O347 O 0.23537 0.17247 0.51968 0.0
C348 C 0.15308 0.08771 0.46053 0.0
C349 C 0.1652 0.08479 0.4379 0.0
H350 H 0.19449 0.08352 0.39769 0.0
H351 H 0.23577 0.1084 0.39731 0.0
H352 H 0.15852 0.12635 0.54242 0.0
H353 H 0.13589 0.09745 0.5073 0.0
H354 H 0.13523 0.07694 0.46186 0.0
H355 H 0.15648 0.07185 0.42215 0.0
Mn356 Mn 0.42178 0.5257 0.77293 0.0
Mn357 Mn 0.4428 0.46843 0.7612 0.0
C358 C 0.39785 0.49136 0.74943 0.0
C359 C 0.39896 0.5559 0.79505 0.0
C360 C 0.46114 0.51153 0.7349 0.0
O361 O 0.44881 0.5287 0.80029 0.0
O362 O 0.46097 0.48972 0.79029 0.0
C363 C 0.42624 0.44898 0.80615 0.0
N364 N 0.42626 0.44643 0.78111 0.0
C365 C 0.40102 0.40624 0.77641 0.0
C366 C 0.40083 0.40838 0.80215 0.0
C367 C 0.41343 0.42988 0.81707 0.0
C368 C 0.41414 0.42585 0.76658 0.0
H369 H 0.43592 0.46544 0.81771 0.0
C370 C 0.46229 0.51157 0.80401 0.0
O371 O 0.41681 0.56219 0.78108 0.0
O372 O 0.39557 0.53233 0.79762 0.0
N373 N 0.42632 0.44588 0.73375 0.0
C374 C 0.42673 0.44765 0.70936 0.0
C375 C 0.41408 0.42817 0.69199 0.0
C376 C 0.40135 0.40699 0.69984 0.0
C377 C 0.40132 0.40553 0.72502 0.0
C378 C 0.41422 0.42554 0.74148 0.0
H379 H 0.43651 0.46388 0.70323 0.0
O380 O 0.39478 0.51426 0.74687 0.0
O381 O 0.41524 0.48921 0.7651 0.0
O382 O 0.44782 0.52748 0.74626 0.0
O383 O 0.46082 0.48906 0.73927 0.0
C384 C 0.38866 0.38522 0.73446 0.0
C385 C 0.38839 0.38562 0.76015 0.0
H386 H 0.3909 0.39373 0.81064 0.0
H387 H 0.41328 0.43171 0.83695 0.0
H388 H 0.41413 0.42947 0.6726 0.0
H389 H 0.39152 0.39205 0.6864 0.0
H390 H 0.3787 0.36937 0.72215 0.0
H391 H 0.37817 0.37012 0.7672 0.0
Mn392 Mn 0.76545 0.38398 0.52561 0.0
Mn393 Mn 0.76329 0.40144 0.46955 0.0
C394 C 0.74978 0.35525 0.49094 0.0
C395 C 0.78382 0.36591 0.5562 0.0
C396 C 0.72808 0.41765 0.50991 0.0
O397 O 0.79137 0.41543 0.52986 0.0
O398 O 0.7884 0.42463 0.49142 0.0
C399 C 0.81329 0.39115 0.45277 0.0
N400 N 0.78818 0.38707 0.44931 0.0
C401 C 0.79156 0.35874 0.41104 0.0
C402 C 0.81745 0.36272 0.41416 0.0
C403 C 0.82835 0.37897 0.43513 0.0
C404 C 0.7775 0.37156 0.42914 0.0
H405 H 0.82177 0.40356 0.46888 0.0
C406 C 0.79802 0.42879 0.51337 0.0
O407 O 0.76722 0.38134 0.56131 0.0
O408 O 0.79087 0.36215 0.53357 0.0
N409 N 0.73995 0.37984 0.44677 0.0
C410 C 0.71474 0.37652 0.44752 0.0
C411 C 0.701 0.35993 0.42844 0.0
C412 C 0.71329 0.347 0.40877 0.0
C413 C 0.73923 0.35079 0.40837 0.0
C414 C 0.75194 0.36769 0.42782 0.0
H415 H 0.70522 0.38631 0.46266 0.0
O416 O 0.74261 0.3522 0.51274 0.0
O417 O 0.76483 0.37545 0.49015 0.0
O418 O 0.73692 0.4061 0.52581 0.0
O419 O 0.73659 0.41704 0.48837 0.0
C420 C 0.753 0.33802 0.38973 0.0
C421 C 0.77914 0.34202 0.39105 0.0
H422 H 0.82913 0.35319 0.4007 0.0
H423 H 0.84832 0.38205 0.43771 0.0
H424 H 0.68099 0.35702 0.42893 0.0
H425 H 0.70264 0.33402 0.39422 0.0
H426 H 0.74368 0.32476 0.37452 0.0
H427 H 0.78953 0.33177 0.37682 0.0
Mn428 Mn 0.67456 0.02356 0.76324 0.0
Mn429 Mn 0.65447 0.08141 0.76966 0.0
C430 C 0.69724 0.05616 0.74758 0.0
C431 C 0.69707 0.99336 0.77674 0.0
C432 C 0.63296 0.03722 0.73096 0.0
O433 O 0.64945 0.02226 0.79067 0.0
O434 O 0.63793 0.06131 0.79313 0.0
C435 C 0.67546 0.10165 0.81998 0.0
N436 N 0.67307 0.10382 0.7958 0.0
C437 C 0.69739 0.14457 0.80297 0.0
C438 C 0.7 0.14286 0.82798 0.0
C439 C 0.68908 0.12124 0.83649 0.0
C440 C 0.6837 0.12441 0.78737 0.0
H441 H 0.66699 0.08513 0.82663 0.0
C442 C 0.63679 0.03984 0.80022 0.0
O443 O 0.67857 0.98692 0.76092 0.0
O444 O 0.70197 0.01734 0.78547 0.0
N445 N 0.66881 0.10346 0.74859 0.0
C446 C 0.66575 0.10152 0.72371 0.0
C447 C 0.67627 0.12123 0.71212 0.0
C448 C 0.68939 0.14291 0.72627 0.0
C449 C 0.69198 0.14463 0.75189 0.0
C450 C 0.68123 0.12434 0.7624 0.0
H451 H 0.65547 0.085 0.71278 0.0
O452 O 0.69965 0.03269 0.73901 0.0
O453 O 0.68178 0.06007 0.76532 0.0
O454 O 0.64642 0.02123 0.73715 0.0
O455 O 0.63446 0.06014 0.742 0.0
C456 C 0.70512 0.16553 0.7674 0.0
C457 C 0.70799 0.16541 0.79288 0.0
H458 H 0.71046 0.15794 0.84079 0.0
H459 H 0.69108 0.11973 0.85575 0.0
H460 H 0.67418 0.11976 0.69233 0.0
H461 H 0.69752 0.15804 0.71725 0.0
H462 H 0.71334 0.18168 0.75988 0.0
H463 H 0.71851 0.18139 0.80452 0.0
Mn464 Mn 0.03458 0.2483 0.88925 0.0
Mn465 Mn 0.97711 0.24082 0.91129 0.0
C466 C 1.00182 0.22516 0.86461 0.0
C467 C 0.06478 0.26934 0.86771 0.0
C468 C 0.01901 0.21283 0.92586 0.0
O469 O 0.03606 0.2774 0.91884 0.0
O470 O 0.99658 0.2711 0.93084 0.0
C471 C 0.95855 0.28667 0.89856 0.0
N472 N 0.9564 0.26104 0.89664 0.0
C473 C 0.91983 0.25614 0.87027 0.0
C474 C 0.92159 0.28248 0.87207 0.0
C475 C 0.94107 0.2978 0.88624 0.0
C476 C 0.93777 0.24612 0.88299 0.0
H477 H 0.97353 0.29854 0.90935 0.0
C478 C 0.01823 0.28365 0.93276 0.0
O479 O 0.07069 0.25494 0.88299 0.0
O480 O 0.04156 0.27261 0.86607 0.0
N481 N 0.95644 0.21238 0.89326 0.0
C482 C 0.95814 0.18727 0.89233 0.0
C483 C 0.94034 0.16937 0.87845 0.0
C484 C 0.92094 0.17745 0.86578 0.0
C485 C 0.91952 0.20339 0.86709 0.0
C486 C 0.93772 0.22036 0.88131 0.0
H487 H 0.97302 0.18095 0.90203 0.0
O488 O 0.02448 0.22095 0.85995 0.0
O489 O 0.99925 0.24196 0.88388 0.0
O490 O 0.0352 0.22213 0.9123 0.0
O491 O 0.99687 0.21877 0.927 0.0
C492 C 0.90097 0.21307 0.85458 0.0
C493 C 0.90119 0.23942 0.85605 0.0
H494 H 0.9082 0.29113 0.86251 0.0
H495 H 0.94262 0.31814 0.88763 0.0
H496 H 0.94159 0.14937 0.87749 0.0
H497 H 0.90735 0.16358 0.85495 0.0
H498 H 0.88655 0.20042 0.84357 0.0
H499 H 0.88705 0.24661 0.84603 0.0
Mn500 Mn 0.52742 0.75332 0.38537 0.0
Mn501 Mn 0.469 0.74563 0.40513 0.0
C502 C 0.49546 0.73158 0.35896 0.0
C503 C 0.55897 0.77442 0.36549 0.0
C504 C 0.51004 0.71702 0.42062 0.0
O505 O 0.52799 0.78167 0.41543 0.0
O506 O 0.48786 0.77575 0.4258 0.0
C507 C 0.45032 0.79177 0.39326 0.0
N508 N 0.44857 0.76608 0.39047 0.0
C509 C 0.4128 0.76148 0.36305 0.0
C510 C 0.41418 0.78788 0.36572 0.0
C511 C 0.43303 0.80307 0.38089 0.0
C512 C 0.43039 0.75128 0.37605 0.0
H513 H 0.46485 0.80355 0.40478 0.0
C514 C 0.50966 0.78805 0.42861 0.0
O515 O 0.56385 0.75957 0.3807 0.0
O516 O 0.53598 0.77828 0.36313 0.0
N517 N 0.4492 0.71739 0.38575 0.0
C518 C 0.45167 0.6923 0.38357 0.0
C519 C 0.43494 0.67454 0.36815 0.0
C520 C 0.41587 0.68276 0.35514 0.0
C521 C 0.41368 0.70868 0.35769 0.0
C522 C 0.43078 0.72549 0.37348 0.0
H523 H 0.46642 0.68588 0.39335 0.0
O524 O 0.51815 0.72689 0.35525 0.0
O525 O 0.49224 0.74774 0.37858 0.0
O526 O 0.52677 0.72639 0.40769 0.0
O527 O 0.48802 0.72321 0.42114 0.0
C528 C 0.39559 0.71852 0.34471 0.0
C529 C 0.39512 0.74489 0.34743 0.0
H530 H 0.40104 0.79667 0.356 0.0
H531 H 0.43429 0.82346 0.38294 0.0
H532 H 0.43683 0.65458 0.36618 0.0
H533 H 0.40316 0.66903 0.34306 0.0
H534 H 0.3822 0.70598 0.33228 0.0
H535 H 0.38136 0.75224 0.33705 0.0
Mn536 Mn 0.02374 0.77267 0.65759 0.0
Mn537 Mn 0.9982 0.71665 0.67115 0.0
C538 C 0.02487 0.73522 0.62958 0.0
C539 C 0.02279 0.8095 0.64016 0.0
C540 C 0.04792 0.74283 0.69274 0.0
O541 O 1.00052 0.78391 0.6857 0.0
O542 O 0.98509 0.74526 0.69257 0.0
C543 C 0.94661 0.71896 0.65433 0.0
N544 N 0.96718 0.7066 0.65345 0.0
C545 C 0.94679 0.67143 0.62474 0.0
C546 C 0.92534 0.68372 0.62544 0.0
C547 C 0.92528 0.70762 0.64023 0.0
C548 C 0.96748 0.68367 0.63916 0.0
H549 H 0.94649 0.73733 0.66569 0.0
C550 C 0.98652 0.76944 0.69728 0.0
O551 O 0.03893 0.80814 0.65733 0.0
O552 O 0.00626 0.79 0.63411 0.0
N553 N 0.00893 0.68708 0.65193 0.0
C554 C 0.03148 0.67832 0.65243 0.0
C555 C 0.0348 0.65481 0.63828 0.0
C556 C 0.01487 0.64043 0.62401 0.0
C557 C 0.99177 0.6497 0.624 0.0
C558 C 0.98952 0.67319 0.63859 0.0
H559 H 0.04683 0.68922 0.66349 0.0
O560 O 0.041 0.75469 0.6289 0.0
O561 O 0.00871 0.73804 0.64672 0.0
O562 O 0.04796 0.76211 0.68213 0.0
O563 O 0.0302 0.72485 0.68984 0.0
C564 C 0.97104 0.63681 0.6097 0.0
C565 C 0.94859 0.64771 0.61 0.0
H566 H 0.90886 0.67507 0.61456 0.0
H567 H 0.90882 0.71727 0.64079 0.0
H568 H 0.05269 0.64779 0.63836 0.0
H569 H 0.01755 0.62238 0.61299 0.0
H570 H 0.97228 0.6187 0.59809 0.0
H571 H 0.93289 0.63779 0.59865 0.0
Mn572 Mn 0.5247 0.27752 0.1617 0.0
Mn573 Mn 0.49772 0.22429 0.17982 0.0
C574 C 0.52358 0.23841 0.13572 0.0
C575 C 0.52483 0.3132 0.14228 0.0
C576 C 0.54922 0.24838 0.19741 0.0
O577 O 0.50309 0.29191 0.19004 0.0
O578 O 0.48795 0.25491 0.2008 0.0
C579 C 0.44587 0.22996 0.1665 0.0
N580 N 0.46521 0.21582 0.16495 0.0
C581 C 0.43999 0.17978 0.14199 0.0
C582 C 0.41975 0.1939 0.14341 0.0
C583 C 0.42276 0.21916 0.15558 0.0
C584 C 0.46264 0.19167 0.15292 0.0
H585 H 0.44802 0.24928 0.17608 0.0
C586 C 0.48994 0.27903 0.20368 0.0
O587 O 0.54142 0.31182 0.15901 0.0
O588 O 0.50737 0.29437 0.13764 0.0
N589 N 0.50486 0.19269 0.16154 0.0
C590 C 0.52652 0.1821 0.1608 0.0
C591 C 0.52687 0.15707 0.14872 0.0
C592 C 0.50485 0.14299 0.13812 0.0
C593 C 0.48272 0.15419 0.13942 0.0
C594 C 0.48358 0.1793 0.15139 0.0
H595 H 0.54337 0.19269 0.16938 0.0
O596 O 0.54019 0.257 0.13343 0.0
O597 O 0.50791 0.24306 0.15315 0.0
O598 O 0.54921 0.26727 0.18624 0.0
O599 O 0.53103 0.23099 0.19589 0.0
C600 C 0.45984 0.14149 0.1292 0.0
C601 C 0.43858 0.15437 0.1302 0.0
H602 H 0.40185 0.18556 0.13517 0.0
H603 H 0.40725 0.2302 0.15671 0.0
H604 H 0.54401 0.14855 0.14781 0.0
H605 H 0.50518 0.12364 0.12895 0.0
H606 H 0.45845 0.1219 0.12023 0.0
H607 H 0.42123 0.14454 0.12184 0.0
H608 H 0.20834 0.73616 0.86396 0.0
H609 H 0.28563 0.72978 0.87889 0.0
H610 H 0.20934 0.77016 0.8993 0.0
H611 H 0.28549 0.76064 0.91558 0.0
H612 H 0.29078 0.83646 0.96299 0.0
H613 H 0.28789 0.80228 0.92835 0.0
H614 H 0.21022 0.78368 0.94191 0.0
H615 H 0.21311 0.81991 0.97592 0.0
C616 C 0.22549 0.74168 0.87474 0.0
C617 C 0.24687 0.7298 0.8682 0.0
C618 C 0.2259 0.76095 0.89544 0.0
C619 C 0.24753 0.76851 0.91053 0.0
C620 C 0.26858 0.7561 0.90431 0.0
C621 C 0.26844 0.7376 0.8833 0.0
C622 C 0.273 0.82524 0.95838 0.0
C623 C 0.25197 0.83136 0.97148 0.0
C624 C 0.27137 0.80516 0.9387 0.0
C625 C 0.24879 0.78982 0.93203 0.0
C626 C 0.22784 0.79528 0.94602 0.0
C627 C 0.22947 0.81584 0.96566 0.0
H628 H 0.03109 0.48953 0.41126 0.0
H629 H 0.06503 0.56374 0.44442 0.0
H630 H 0.05522 0.49175 0.37435 0.0
H631 H 0.08966 0.56604 0.40766 0.0
H632 H 0.10837 0.57258 0.32817 0.0
H633 H 0.08473 0.56976 0.36479 0.0
H634 H 0.09719 0.49152 0.35958 0.0
H635 H 0.12073 0.49415 0.32236 0.0
C636 C 0.04378 0.50635 0.41054 0.0
C637 C 0.04619 0.52655 0.43043 0.0
C638 C 0.05777 0.50755 0.38952 0.0
C639 C 0.07448 0.52904 0.38796 0.0
C640 C 0.07678 0.54931 0.40806 0.0
C641 C 0.06277 0.54804 0.42913 0.0
C642 C 0.10611 0.55466 0.33466 0.0
C643 C 0.11652 0.53354 0.32209 0.0
C644 C 0.09265 0.55315 0.35591 0.0
C645 C 0.08909 0.53047 0.36532 0.0
C646 C 0.09935 0.50925 0.35275 0.0
C647 C 0.11294 0.51077 0.33142 0.0
H648 H 0.78913 0.76751 0.86159 0.0
H649 H 0.86615 0.77494 0.88487 0.0
H650 H 0.77883 0.73849 0.8901 0.0
H651 H 0.85576 0.74617 0.9143 0.0
H652 H 0.82583 0.67594 0.95111 0.0
H653 H 0.84068 0.70333 0.92158 0.0
H654 H 0.77548 0.7423 0.93322 0.0
H655 H 0.7606 0.71486 0.96161 0.0
C656 C 0.8039 0.76293 0.8729 0.0
C657 C 0.82839 0.77382 0.87119 0.0
C658 C 0.79799 0.74637 0.88942 0.0
C659 C 0.81634 0.74036 0.90508 0.0
C660 C 0.84112 0.75033 0.9026 0.0
C661 C 0.84709 0.76684 0.88577 0.0
C662 C 0.8149 0.69057 0.94746 0.0
C663 C 0.79186 0.69295 0.95845 0.0
C664 C 0.82337 0.70626 0.93053 0.0
C665 C 0.809 0.7247 0.92444 0.0
C666 C 0.7867 0.72782 0.93664 0.0
C667 C 0.77822 0.71214 0.95316 0.0
H668 H 0.01954 0.95991 0.43286 0.0
H669 H 0.04936 0.03867 0.44806 0.0
H670 H 0.99994 0.96643 0.3947 0.0
H671 H 0.02965 0.0452 0.40955 0.0
H672 H 0.96262 0.04422 0.35028 0.0
H673 H 0.98507 0.04311 0.38916 0.0
H674 H 0.01664 0.97668 0.35448 0.0
H675 H 0.99476 0.97778 0.31608 0.0
C676 C 0.02177 0.97867 0.42813 0.0
C677 C 0.03606 0.99873 0.4435 0.0
C678 C 0.01069 0.98238 0.40617 0.0
C679 C 0.01337 0.00631 0.39902 0.0
C680 C 0.02721 0.02658 0.41459 0.0
C681 C 0.03863 0.02277 0.4365 0.0
C682 C 0.97479 0.02975 0.35085 0.0
C683 C 0.97657 0.01091 0.33007 0.0
C684 C 0.98758 0.02906 0.37312 0.0
C685 C 1.00221 0.00947 0.37499 0.0
C686 C 1.00509 0.99166 0.35382 0.0
C687 C 0.99256 0.99241 0.33172 0.0
H688 H 0.27594 0.28546 0.67289 0.0
H689 H 0.19879 0.28672 0.65346 0.0
H690 H 0.2791 0.25249 0.63763 0.0
H691 H 0.20142 0.25226 0.61919 0.0
H692 H 0.22193 0.21405 0.54277 0.0
H693 H 0.21724 0.24488 0.57965 0.0
H694 H 0.26951 0.21044 0.61938 0.0
H695 H 0.27504 0.18046 0.58215 0.0
C696 C 0.25952 0.27852 0.66127 0.0
C697 C 0.2372 0.28914 0.66595 0.0
C698 C 0.26125 0.25924 0.64113 0.0
C699 C 0.24058 0.24967 0.62523 0.0
C700 C 0.21791 0.25945 0.63062 0.0
C701 C 0.21627 0.27898 0.65062 0.0
C702 C 0.23244 0.21309 0.55938 0.0
C703 C 0.24903 0.19489 0.55939 0.0
C704 C 0.22959 0.23067 0.58068 0.0
C705 C 0.24297 0.23031 0.60271 0.0
C706 C 0.25923 0.21176 0.60275 0.0
C707 C 0.26235 0.19444 0.58136 0.0
H708 H 0.57438 0.53844 0.62711 0.0
H709 H 0.50322 0.53505 0.58965 0.0
H710 H 0.55342 0.53432 0.66539 0.0
H711 H 0.48261 0.53218 0.62819 0.0
H712 H 0.45581 0.54894 0.70782 0.0
H713 H 0.47886 0.55768 0.67173 0.0
H714 H 0.52445 0.49888 0.67961 0.0
H715 H 0.50131 0.48987 0.71542 0.0
C716 C 0.55433 0.53691 0.62692 0.0
C717 C 0.54063 0.53698 0.60499 0.0
C718 C 0.54234 0.53469 0.64897 0.0
C719 C 0.51636 0.53293 0.64982 0.0
C720 C 0.50267 0.53382 0.62821 0.0
C721 C 0.5146 0.53562 0.60607 0.0
C722 C 0.47095 0.53808 0.70206 0.0
C723 C 0.47666 0.51867 0.71454 0.0
C724 C 0.48403 0.54299 0.68129 0.0
C725 C 0.50345 0.52894 0.6728 0.0
C726 C 0.50973 0.51016 0.68579 0.0
C727 C 0.49637 0.50494 0.70626 0.0
H728 H 0.85883 0.27577 0.64607 0.0
H729 H 0.78603 0.27884 0.67566 0.0
H730 H 0.84797 0.30026 0.61485 0.0
H731 H 0.77463 0.30281 0.64402 0.0
H732 H 0.77269 0.37061 0.60495 0.0
H733 H 0.78352 0.34437 0.63446 0.0
H734 H 0.8238 0.30091 0.57852 0.0
H735 H 0.81348 0.32765 0.54921 0.0
C736 C 0.84025 0.28118 0.64541 0.0
C737 C 0.82313 0.27525 0.66295 0.0
C738 C 0.83398 0.29524 0.62754 0.0
C739 C 0.81044 0.30375 0.62691 0.0
C740 C 0.79307 0.297 0.64415 0.0
C741 C 0.79941 0.28298 0.66207 0.0
C742 C 0.78407 0.35561 0.599 0.0
C743 C 0.79229 0.35133 0.57471 0.0
C744 C 0.79005 0.34033 0.61587 0.0
C745 C 0.80435 0.32024 0.6089 0.0
C746 C 0.81294 0.31628 0.58469 0.0
C747 C 0.80702 0.33164 0.56783 0.0
H748 H 0.51562 0.02073 0.61593 0.0
H749 H 0.57124 0.97494 0.58425 0.0
H750 H 0.5396 0.03085 0.65494 0.0
H751 H 0.59522 0.98513 0.62302 0.0
H752 H 0.6229 0.99019 0.70203 0.0
H753 H 0.59611 0.97829 0.665 0.0
H754 H 0.57737 0.05479 0.67284 0.0
H755 H 0.60358 0.06656 0.71006 0.0
C756 C 0.533 0.01291 0.61724 0.0
C757 C 0.5414 0.99693 0.59694 0.0
C758 C 0.54678 0.01871 0.63962 0.0
C759 C 0.56938 0.00877 0.64225 0.0
C760 C 0.57771 0.99275 0.62192 0.0
C761 C 0.56393 0.98691 0.59961 0.0
C762 C 0.61293 1.00444 0.696 0.0
C763 C 0.61553 0.02936 0.70915 0.0
C764 C 0.59765 0.99765 0.67462 0.0
C765 C 0.5846 0.01559 0.66577 0.0
C766 C 0.58683 0.04036 0.6792 0.0
C767 C 0.60204 0.04714 0.70057 0.0
H768 H 0.91525 0.23118 0.73348 0.0
H769 H 0.8676 0.18355 0.77336 0.0
H770 H 0.94868 0.23241 0.7638 0.0
H771 H 0.90186 0.1834 0.80244 0.0
H772 H 0.98207 0.17916 0.83809 0.0
H773 H 0.95007 0.17197 0.8045 0.0
H774 H 0.94852 0.25258 0.81175 0.0
H775 H 0.97965 0.25959 0.84532 0.0
C776 C 0.91184 0.22081 0.74851 0.0
C777 C 0.88837 0.20767 0.75104 0.0
C778 C 0.93114 0.22132 0.76571 0.0
C779 C 0.92772 0.20818 0.78553 0.0
C780 C 0.90493 0.1937 0.78731 0.0
C781 C 0.88536 0.19368 0.77045 0.0
C782 C 0.97474 0.19519 0.83241 0.0
C783 C 0.98283 0.21986 0.84446 0.0
C784 C 0.95653 0.19113 0.81331 0.0
C785 C 0.94701 0.21177 0.80551 0.0
C786 C 0.95572 0.23638 0.81724 0.0
C787 C 0.97336 0.24036 0.83653 0.0
H788 H 0.5521 0.93202 0.52925 0.0
H789 H 0.47561 0.93179 0.50658 0.0
H790 H 0.55252 0.88986 0.50491 0.0
H791 H 0.47622 0.88989 0.48172 0.0
H792 H 0.5491 0.8258 0.4357 0.0
H793 H 0.5507 0.8675 0.46173 0.0
H794 H 0.47824 0.84653 0.4883 0.0
H795 H 0.47647 0.80525 0.46241 0.0
C796 C 0.53533 0.92293 0.51913 0.0
C797 C 0.51372 0.93521 0.52006 0.0
C798 C 0.53568 0.89887 0.50496 0.0
C799 C 0.51439 0.8864 0.49146 0.0
C800 C 0.49286 0.8988 0.49219 0.0
C801 C 0.49255 0.92292 0.50624 0.0
C802 C 0.53368 0.82995 0.44736 0.0
C803 C 0.5126 0.81211 0.44674 0.0
C804 C 0.53458 0.85388 0.46227 0.0
C805 C 0.51442 0.8605 0.47682 0.0
C806 C 0.49385 0.8423 0.47691 0.0
C807 C 0.49296 0.81848 0.46215 0.0
H808 H 0.19262 0.32506 0.78818 0.0
H809 H 0.13173 0.30674 0.73476 0.0
H810 H 0.16574 0.31085 0.8197 0.0
H811 H 0.10479 0.29204 0.76596 0.0
H812 H 0.0568 0.29854 0.83316 0.0
H813 H 0.0853 0.31127 0.8026 0.0
H814 H 0.14233 0.27451 0.8328 0.0
H815 H 0.11385 0.26211 0.86374 0.0
C816 C 0.17357 0.31741 0.78313 0.0
C817 C 0.16416 0.3167 0.75916 0.0
C818 C 0.15817 0.3093 0.80113 0.0
C819 C 0.133 0.30051 0.79546 0.0
C820 C 0.12393 0.29911 0.7711 0.0
C821 C 0.13937 0.3072 0.75314 0.0
C822 C 0.0755 0.29338 0.83348 0.0
C823 C 0.08303 0.2793 0.85092 0.0
C824 C 0.09178 0.30045 0.81576 0.0
C825 C 0.11604 0.29362 0.81498 0.0
C826 C 0.12382 0.28018 0.8329 0.0
C827 C 0.10749 0.27307 0.85065 0.0
H828 H 0.51621 0.61633 0.5295 0.0
H829 H 0.56467 0.58865 0.47246 0.0
H830 H 0.50993 0.65187 0.50863 0.0
H831 H 0.55811 0.62367 0.45112 0.0
H832 H 0.55521 0.69992 0.42697 0.0
H833 H 0.56503 0.66836 0.45133 0.0
H834 H 0.48869 0.65865 0.47231 0.0
H835 H 0.47898 0.69048 0.44847 0.0
C836 C 0.52579 0.61815 0.51266 0.0
C837 C 0.54109 0.60004 0.50264 0.0
C838 C 0.52202 0.63831 0.50052 0.0
C839 C 0.53336 0.64066 0.47801 0.0
C840 C 0.5493 0.62277 0.46851 0.0
C841 C 0.55306 0.60266 0.48068 0.0
C842 C 0.5405 0.69113 0.43683 0.0
C843 C 0.51626 0.69787 0.43565 0.0
C844 C 0.54614 0.67291 0.45077 0.0
C845 C 0.5277 0.66087 0.46391 0.0
C846 C 0.50352 0.66775 0.46284 0.0
C847 C 0.49789 0.68596 0.44895 0.0
H848 H 0.85765 0.81907 0.77475 0.0
H849 H 0.90411 0.80033 0.83167 0.0
H850 H 0.89103 0.81322 0.74557 0.0
H851 H 0.93723 0.79453 0.80269 0.0
H852 H 0.97195 0.7487 0.73687 0.0
H853 H 0.94235 0.76218 0.76738 0.0
H854 H 0.93451 0.82777 0.73401 0.0
H855 H 0.96452 0.81393 0.70286 0.0
C856 C 0.87507 0.81409 0.78116 0.0
C857 C 0.87796 0.80972 0.8055 0.0
C858 C 0.89425 0.8108 0.76443 0.0
C859 C 0.91676 0.80308 0.77164 0.0
C860 C 0.91999 0.79995 0.7963 0.0
C861 C 0.90092 0.8032 0.81294 0.0
C862 C 0.96418 0.76617 0.73607 0.0
C863 C 0.97065 0.7802 0.71733 0.0
C864 C 0.94724 0.77401 0.75376 0.0
C865 C 0.936 0.79612 0.75329 0.0
C866 C 0.94274 0.81056 0.73484 0.0
C867 C 0.96008 0.80279 0.71714 0.0
H868 H 0.03491 0.8956 0.52036 0.0
H869 H 0.04672 0.95382 0.58472 0.0
H870 H 0.03103 0.86319 0.54662 0.0
H871 H 0.04262 0.92148 0.61127 0.0
H872 H 0.05538 0.85293 0.64903 0.0
H873 H 0.06144 0.88623 0.62397 0.0
H874 H 1.00106 0.84819 0.57484 0.0
H875 H 0.99517 0.81481 0.59972 0.0
C876 C 0.03713 0.90137 0.54018 0.0
C877 C 0.04145 0.92709 0.55057 0.0
C878 C 0.03458 0.88286 0.55526 0.0
C879 C 0.03623 0.88965 0.58115 0.0
C880 C 0.0414 0.91549 0.59146 0.0
C881 C 0.04383 0.93403 0.5763 0.0
C882 C 0.04322 0.85179 0.63301 0.0
C883 C 0.02477 0.83113 0.62642 0.0
C884 C 0.0467 0.87094 0.61864 0.0
C885 C 0.03194 0.86986 0.59718 0.0
C886 C 0.0131 0.84947 0.59096 0.0
C887 C 0.00954 0.83042 0.60539 0.0
H888 H 0.15327 0.70036 0.79638 0.0
H889 H 0.19784 0.73131 0.74218 0.0
H890 H 0.11611 0.71314 0.77848 0.0
H891 H 0.16084 0.74363 0.72377 0.0
H892 H 0.091 0.77552 0.70322 0.0
H893 H 0.12752 0.76995 0.72728 0.0
H894 H 0.0912 0.69875 0.74142 0.0
H895 H 0.05475 0.70448 0.71799 0.0
C896 C 0.1551 0.71035 0.78091 0.0
C897 C 0.17828 0.71509 0.77071 0.0
C898 C 0.13383 0.71744 0.77045 0.0
C899 C 0.13535 0.72925 0.74947 0.0
C900 C 0.1589 0.73488 0.74003 0.0
C901 C 0.18012 0.7278 0.75053 0.0
C902 C 0.09071 0.75879 0.71166 0.0
C903 C 0.06982 0.74046 0.70853 0.0
C904 C 0.11173 0.75553 0.72538 0.0
C905 C 0.11241 0.73389 0.73638 0.0
C906 C 0.09131 0.71587 0.73364 0.0
C907 C 0.07037 0.7191 0.71996 0.0
H908 H 0.03119 0.58658 0.54482 0.0
H909 H 0.97051 0.61276 0.50903 0.0
H910 H 0.04063 0.62818 0.5704 0.0
H911 H 0.98073 0.65496 0.53323 0.0
H912 H 0.98308 0.71523 0.60274 0.0
H913 H 0.97705 0.67737 0.57148 0.0
H914 H 0.05553 0.67039 0.57637 0.0
H915 H 0.06092 0.7078 0.60882 0.0
C916 C 0.0203 0.60155 0.54203 0.0
C917 C 1.00012 0.59652 0.52505 0.0
C918 C 0.02576 0.62553 0.55659 0.0
C919 C 0.01142 0.64527 0.5542 0.0
C920 C 0.99189 0.64031 0.53625 0.0
C921 C 0.98612 0.61617 0.52212 0.0
C922 C 0.99896 0.70542 0.59716 0.0
C923 C 0.02219 0.71357 0.60897 0.0
C924 C 0.99566 0.68388 0.57883 0.0
C925 C 0.01569 0.67016 0.57146 0.0
C926 C 0.03943 0.67974 0.58202 0.0
C927 C 0.04264 0.7013 0.6005 0.0
H928 H 0.76714 0.89558 0.17827 0.0
H929 H 0.78692 0.86207 0.24034 0.0
H930 H 0.80149 0.92928 0.18925 0.0
H931 H 0.82186 0.89466 0.25087 0.0
H932 H 0.86693 0.96801 0.28036 0.0
H933 H 0.83184 0.93614 0.26798 0.0
H934 H 0.84387 0.94197 0.19149 0.0
H935 H 0.87813 0.97539 0.20451 0.0
C936 C 0.77921 0.89531 0.19403 0.0
C937 C 0.77458 0.87646 0.20854 0.0
C938 C 0.79897 0.91449 0.20031 0.0
C939 C 0.81461 0.91496 0.22109 0.0
C940 C 0.81011 0.89544 0.23507 0.0
C941 C 0.79022 0.87656 0.22897 0.0
C942 C 0.86196 0.96243 0.26091 0.0
C943 C 0.87552 0.9735 0.24328 0.0
C944 C 0.84194 0.94399 0.25371 0.0
C945 C 0.83515 0.93585 0.2286 0.0
C946 C 0.84833 0.94773 0.211 0.0
C947 C 0.86808 0.96672 0.21834 0.0
H948 H 0.76917 0.13057 0.29962 0.0
H949 H 0.82158 0.19102 0.33799 0.0
H950 H 0.80113 0.10184 0.2968 0.0
H951 H 0.85359 0.16222 0.33523 0.0
H952 H 0.90848 0.10868 0.29351 0.0
H953 H 0.87783 0.13878 0.30152 0.0
H954 H 0.82634 0.08105 0.32445 0.0
H955 H 0.8569 0.05106 0.31661 0.0
C956 C 0.78751 0.1377 0.30749 0.0
C957 C 0.79281 0.16308 0.31903 0.0
C958 C 0.80578 0.1212 0.30606 0.0
C959 C 0.82993 0.12972 0.31585 0.0
C960 C 0.83523 0.15509 0.32741 0.0
C961 C 0.81684 0.17152 0.32916 0.0
C962 C 0.8908 0.10255 0.3007 0.0
C963 C 0.88518 0.07742 0.30437 0.0
C964 C 0.87323 0.11981 0.3053 0.0
C965 C 0.84953 0.11224 0.31337 0.0
C966 C 0.84429 0.08739 0.31792 0.0
C967 C 0.86192 0.07026 0.31362 0.0
H968 H 0.43926 1.00329 0.96588 0.0
H969 H 0.44202 0.03135 0.04423 0.0
H970 H 0.39924 0.9789 0.96967 0.0
H971 H 0.40178 0.00721 0.04798 0.0
H972 H 0.34266 0.93524 0.04429 0.0
H973 H 0.38208 0.9621 0.04386 0.0
H974 H 0.35633 0.98791 0.97904 0.0
H975 H 0.31726 0.9614 0.97937 0.0
C976 C 0.43134 1.00421 0.98391 0.0
C977 C 0.44377 0.01939 1.0047 0.0
C978 C 0.40831 0.99041 0.98608 0.0
C979 C 0.39723 0.99125 0.00913 0.0
C980 C 0.40984 0.00609 0.03 0.0
C981 C 0.43277 0.0201 0.02779 0.0
C982 C 0.34522 0.94702 0.03025 0.0
C983 C 0.32676 0.9459 0.01176 0.0
C984 C 0.36785 0.96237 0.02996 0.0
C985 C 0.37251 0.97678 0.01112 0.0
C986 C 0.35357 0.97661 0.99346 0.0
C987 C 0.33104 0.96148 0.9938 0.0
H988 H 0.26723 0.35319 0.27365 0.0
H989 H 0.28558 0.39956 0.34464 0.0
H990 H 0.24417 0.38602 0.26181 0.0
H991 H 0.26205 0.43211 0.3334 0.0
H992 H 0.2317 0.49446 0.30017 0.0
H993 H 0.25864 0.46372 0.30902 0.0
H994 H 0.20609 0.40311 0.27087 0.0
H995 H 0.17954 0.43401 0.26139 0.0
C996 C 0.26675 0.3707 0.28648 0.0
C997 C 0.27849 0.37415 0.30985 0.0
C998 C 0.25322 0.38938 0.2799 0.0
C999 C 0.25094 0.41178 0.29669 0.0
C1000 C 0.26356 0.41539 0.3198 0.0
C1001 C 0.27713 0.39676 0.32628 0.0
C1002 C 0.22584 0.47456 0.29373 0.0
C1003 C 0.20337 0.46674 0.28013 0.0
C1004 C 0.24131 0.45686 0.29886 0.0
C1005 C 0.23471 0.43078 0.29065 0.0
C1006 C 0.21211 0.42299 0.27715 0.0
C1007 C 0.1967 0.44072 0.27191 0.0
H1008 H 0.10128 0.0374 0.53154 0.0
H1009 H 0.12646 0.98778 0.46958 0.0
H1010 H 0.14235 0.06141 0.53731 0.0
H1011 H 0.1681 0.01055 0.47604 0.0
H1012 H 0.22734 0.07721 0.47203 0.0
H1013 H 0.19001 0.04734 0.4696 0.0
H1014 H 0.18391 0.06617 0.54873 0.0
H1015 H 0.22075 0.09702 0.55057 0.0
C1016 C 0.11594 0.03119 0.51967 0.0
C1017 C 0.11084 0.01073 0.50022 0.0
C1018 C 0.1396 0.04487 0.52297 0.0
C1019 C 0.15885 0.03818 0.50708 0.0
C1020 C 0.15382 0.0168 0.48834 0.0
C1021 C 0.13004 1.00347 0.48478 0.0
C1022 C 0.21782 0.075 0.48882 0.0
C1023 C 0.22607 0.09024 0.51127 0.0
C1024 C 0.1966 0.05749 0.48758 0.0
C1025 C 0.18333 0.05447 0.50893 0.0
C1026 C 0.19295 0.06846 0.53173 0.0
C1027 C 0.21417 0.08604 0.53288 0.0
H1028 H 0.82462 0.14235 0.69662 0.0
H1029 H 0.7799 0.19889 0.73081 0.0
H1030 H 0.79158 0.10893 0.70194 0.0
H1031 H 0.74725 0.16549 0.73654 0.0
H1032 H 0.72393 0.09528 0.77768 0.0
H1033 H 0.75283 0.12903 0.76583 0.0
H1034 H 0.74112 0.09463 0.68932 0.0
H1035 H 0.71124 0.06139 0.70119 0.0
C1036 C 0.80748 0.1476 0.70471 0.0
C1037 C 0.80472 0.17318 0.71318 0.0
C1038 C 0.78865 0.12853 0.70778 0.0
C1039 C 0.767 0.13471 0.71986 0.0
C1040 C 0.7638 0.16029 0.72731 0.0
C1041 C 0.78238 0.17937 0.7238 0.0
C1042 C 0.72705 0.09535 0.75831 0.0
C1043 C 0.71455 0.0765 0.74026 0.0
C1044 C 0.74369 0.11449 0.75155 0.0
C1045 C 0.74883 0.11462 0.72664 0.0
C1046 C 0.73721 0.09509 0.70861 0.0
C1047 C 0.72019 0.07616 0.71538 0.0
H1048 H 0.427 0.00848 0.51555 0.0
H1049 H 0.47124 0.08106 0.53052 0.0
H1050 H 0.38991 0.02939 0.50972 0.0
H1051 H 0.43472 0.102 0.52422 0.0
H1052 H 0.36129 0.13327 0.53968 0.0
H1053 H 0.3974 0.11148 0.54396 0.0
H1054 H 0.36997 0.05338 0.48269 0.0
H1055 H 0.3332 0.07512 0.47876 0.0
C1056 C 0.42869 0.02891 0.5176 0.0
C1057 C 0.45176 0.04328 0.52373 0.0
C1058 C 0.40757 0.0409 0.51406 0.0
C1059 C 0.4092 0.06747 0.51659 0.0
C1060 C 0.43255 0.08161 0.52254 0.0
C1061 C 0.45353 0.06964 0.52609 0.0
C1062 C 0.36295 0.11594 0.52695 0.0
C1063 C 0.34432 0.10604 0.50879 0.0
C1064 C 0.3838 0.10344 0.52936 0.0
C1065 C 0.38677 0.08063 0.51365 0.0
C1066 C 0.36822 0.07076 0.4953 0.0
C1067 C 0.34724 0.08334 0.49288 0.0
H1068 H 0.59144 0.48859 0.50997 0.0
H1069 H 0.62572 0.51954 0.58156 0.0
H1070 H 0.62559 0.46342 0.5003 0.0
H1071 H 0.66 0.49425 0.57185 0.0
H1072 H 0.70519 0.42633 0.55443 0.0
H1073 H 0.67065 0.45105 0.56496 0.0
H1074 H 0.66887 0.46818 0.4912 0.0
H1075 H 0.70289 0.44319 0.48052 0.0
C1076 C 0.60641 0.49028 0.52358 0.0
C1077 C 0.60585 0.50634 0.54649 0.0
C1078 C 0.62603 0.47576 0.51803 0.0
C1079 C 0.64571 0.47682 0.53522 0.0
C1080 C 0.64506 0.49269 0.55825 0.0
C1081 C 0.6254 0.50725 0.56381 0.0
C1082 C 0.69741 0.43531 0.54042 0.0
C1083 C 0.70693 0.43264 0.51658 0.0
C1084 C 0.67767 0.44965 0.54653 0.0
C1085 C 0.66687 0.46164 0.52894 0.0
C1086 C 0.67642 0.45895 0.50514 0.0
C1087 C 0.69612 0.44469 0.49906 0.0
H1088 H 0.78907 0.2346 0.37885 0.0
H1089 H 0.71272 0.24069 0.35943 0.0
H1090 H 0.78637 0.26415 0.4161 0.0
H1091 H 0.71131 0.27345 0.39532 0.0
H1092 H 0.70943 0.32157 0.47185 0.0
H1093 H 0.7091 0.28601 0.43747 0.0
H1094 H 0.78796 0.30534 0.43046 0.0
H1095 H 0.7882 0.33885 0.4655 0.0
C1096 C 0.77156 0.24206 0.38235 0.0
C1097 C 0.75105 0.23464 0.36573 0.0
C1098 C 0.77023 0.25983 0.40372 0.0
C1099 C 0.74875 0.27186 0.40888 0.0
C1100 C 0.72816 0.26455 0.39235 0.0
C1101 C 0.72918 0.24599 0.37129 0.0
C1102 C 0.72659 0.31781 0.46293 0.0
C1103 C 0.74869 0.33336 0.47069 0.0
C1104 C 0.72645 0.29762 0.44307 0.0
C1105 C 0.74848 0.29257 0.43077 0.0
C1106 C 0.77061 0.3079 0.43943 0.0
C1107 C 0.77074 0.32761 0.45934 0.0
H1108 H 0.5448 0.99065 0.91765 0.0
H1109 H 0.56443 0.07089 0.94002 0.0
H1110 H 0.56717 0.99191 0.87947 0.0
H1111 H 0.58724 0.07235 0.90211 0.0
H1112 H 0.6044 0.0714 0.82185 0.0
H1113 H 0.58048 0.06833 0.85823 0.0
H1114 H 0.60897 0.99806 0.86422 0.0
H1115 H 0.63289 1.00089 0.82723 0.0
C1116 C 0.55389 0.00858 0.91425 0.0
C1117 C 0.55282 0.03072 0.9315 0.0
C1118 C 0.56688 0.00929 0.89252 0.0
C1119 C 0.57906 0.03222 0.88761 0.0
C1120 C 0.57781 0.05441 0.90504 0.0
C1121 C 0.56483 0.05364 0.92679 0.0
C1122 C 0.60559 0.05514 0.83073 0.0
C1123 C 0.62078 0.03642 0.8215 0.0
C1124 C 0.59191 0.05351 0.85182 0.0
C1125 C 0.59295 0.03313 0.86444 0.0
C1126 C 0.60759 0.01398 0.85491 0.0
C1127 C 0.62136 0.01561 0.83369 0.0
H1128 H 0.31566 0.30385 0.40285 0.0
H1129 H 0.34248 0.24256 0.35338 0.0
H1130 H 0.30755 0.27642 0.43332 0.0
H1131 H 0.33442 0.21497 0.38417 0.0
H1132 H 0.32832 0.17721 0.45503 0.0
H1133 H 0.34427 0.20651 0.42762 0.0
H1134 H 0.27572 0.24021 0.43337 0.0
H1135 H 0.26003 0.21145 0.46031 0.0
C1136 C 0.31998 0.28453 0.39851 0.0
C1137 C 0.32931 0.27535 0.37542 0.0
C1138 C 0.31536 0.26879 0.41603 0.0
C1139 C 0.31997 0.24334 0.41109 0.0
C1140 C 0.33074 0.23449 0.38863 0.0
C1141 C 0.33534 0.25031 0.37097 0.0
C1142 C 0.31685 0.1911 0.45061 0.0
C1143 C 0.29287 0.1919 0.45988 0.0
C1144 C 0.32589 0.20774 0.43479 0.0
C1145 C 0.31132 0.22583 0.42837 0.0
C1146 C 0.28763 0.22684 0.43813 0.0
C1147 C 0.27854 0.21013 0.45351 0.0
H1148 H 0.52877 0.45952 0.92222 0.0
H1149 H 0.54383 0.53978 0.94889 0.0
H1150 H 0.50985 0.46784 0.88452 0.0
H1151 H 0.52484 0.54817 0.91074 0.0
H1152 H 0.45917 0.54293 0.84891 0.0
H1153 H 0.48175 0.5412 0.88753 0.0
H1154 H 0.52516 0.48626 0.84806 0.0
H1155 H 0.50296 0.48793 0.80991 0.0
C1156 C 0.52793 0.47898 0.92009 0.0
C1157 C 0.53779 0.49896 0.93862 0.0
C1158 C 0.51727 0.48376 0.89836 0.0
C1159 C 0.51598 0.50869 0.89453 0.0
C1160 C 0.52552 0.52878 0.91316 0.0
C1161 C 0.53653 0.52396 0.9349 0.0
C1162 C 0.474 0.53103 0.84842 0.0
C1163 C 0.47901 0.51535 0.82633 0.0
C1164 C 0.48686 0.52996 0.87055 0.0
C1165 C 0.50487 0.51316 0.87093 0.0
C1166 C 0.51101 0.49895 0.84852 0.0
C1167 C 0.49832 0.50003 0.82659 0.0
H1168 H 0.73929 0.8222 0.13198 0.0
H1169 H 0.72414 0.76711 0.1797 0.0
H1170 H 0.74181 0.78821 0.09691 0.0
H1171 H 0.72701 0.73291 0.14453 0.0
H1172 H 0.76946 0.68666 0.08092 0.0
H1173 H 0.7631 0.71911 0.11629 0.0
H1174 H 0.71306 0.75094 0.07187 0.0
H1175 H 0.71908 0.71835 0.03652 0.0
C1176 C 0.73638 0.80276 0.13489 0.0
C1177 C 0.73156 0.79723 0.15852 0.0
C1178 C 0.73771 0.78333 0.11482 0.0
C1179 C 0.73467 0.75793 0.11801 0.0
C1180 C 0.72957 0.75235 0.1416 0.0
C1181 C 0.72776 0.77183 0.16164 0.0
C1182 C 0.75708 0.70056 0.07867 0.0
C1183 C 0.74488 0.69996 0.05582 0.0
C1184 C 0.75329 0.71899 0.099 0.0
C1185 C 0.73757 0.73751 0.09683 0.0
C1186 C 0.72536 0.73695 0.07403 0.0
C1187 C 0.72879 0.71825 0.05382 0.0
H1188 H 0.07523 0.04837 0.13604 0.0
H1189 H 0.01374 1.00553 0.09162 0.0
H1190 H 0.05263 0.04323 0.17366 0.0
H1191 H 0.99153 0.99977 0.12907 0.0
H1192 H 0.97804 0.96969 0.20292 0.0
H1193 H 1.00241 0.97651 0.16737 0.0
H1194 H 0.00745 0.05715 0.19164 0.0
H1195 H 0.98221 0.05052 0.22714 0.0
C1196 C 0.05697 0.03775 0.13439 0.0
C1197 C 0.04618 0.02733 0.11101 0.0
C1198 C 0.04403 0.03494 0.15582 0.0
C1199 C 0.02036 0.02111 0.15421 0.0
C1200 C 0.00977 0.01045 0.13081 0.0
C1201 C 0.02242 0.01376 0.10944 0.0
C1202 C 0.98431 0.98894 0.20087 0.0
C1203 C 0.9779 0.00957 0.21791 0.0
C1204 C 0.99827 0.99279 0.18042 0.0
C1205 C 0.00671 0.01733 0.17673 0.0
C1206 C 1.00119 0.03802 0.19413 0.0
C1207 C 0.98669 0.0342 0.21438 0.0
H1208 H 0.29876 0.75681 0.15225 0.0
H1209 H 0.37452 0.76666 0.13017 0.0
H1210 H 0.28887 0.79037 0.13009 0.0
H1211 H 0.36496 0.80042 0.10825 0.0
H1212 H 0.32884 0.8312 0.04434 0.0
H1213 H 0.34168 0.80293 0.07096 0.0
H1214 H 0.29561 0.83563 0.12823 0.0
H1215 H 0.28253 0.8638 0.1014 0.0
C1216 C 0.31337 0.76657 0.14303 0.0
C1217 C 0.33738 0.75938 0.14294 0.0
C1218 C 0.30778 0.78582 0.13038 0.0
C1219 C 0.32609 0.79809 0.11723 0.0
C1220 C 0.35032 0.79121 0.11786 0.0
C1221 C 0.35588 0.77205 0.13057 0.0
C1222 C 0.3217 0.83264 0.06273 0.0
C1223 C 0.30462 0.84978 0.07068 0.0
C1224 C 0.32915 0.81645 0.07808 0.0
C1225 C 0.31962 0.81686 0.10177 0.0
C1226 C 0.30309 0.83455 0.11 0.0
C1227 C 0.29575 0.85086 0.09468 0.0
H1228 H 0.0447 0.5331 0.09269 0.0
H1229 H 0.01827 0.45962 0.10925 0.0
H1230 H 0.06772 0.54351 0.13216 0.0
H1231 H 0.04131 0.47 0.14869 0.0
H1232 H 0.0923 0.56212 0.21294 0.0
H1233 H 0.06461 0.55207 0.17661 0.0
H1234 H 0.08427 0.47578 0.16338 0.0
H1235 H 0.11173 0.48566 0.19999 0.0
C1236 C 0.04338 0.51934 0.10495 0.0
C1237 C 0.02972 0.49545 0.09765 0.0
C1238 C 0.05665 0.52529 0.12761 0.0
C1239 C 0.0566 0.50751 0.1436 0.0
C1240 C 0.04221 0.48397 0.13667 0.0
C1241 C 0.02893 0.47804 0.11405 0.0
C1242 C 0.09059 0.54308 0.20249 0.0
C1243 C 0.10442 0.52473 0.20952 0.0
C1244 C 0.07478 0.53739 0.18148 0.0
C1245 C 0.07225 0.51316 0.16689 0.0
C1246 C 0.08552 0.49459 0.17428 0.0
C1247 C 0.10139 0.50029 0.19528 0.0
H1248 H 0.39673 0.74631 0.23683 0.0
H1249 H 0.3769 0.67053 0.25124 0.0
H1250 H 0.43084 0.75214 0.26718 0.0
H1251 H 0.40917 0.67724 0.28307 0.0
H1252 H 0.48123 0.68718 0.32728 0.0
H1253 H 0.45124 0.6805 0.29246 0.0
H1254 H 0.43946 0.75942 0.30906 0.0
H1255 H 0.47034 0.76601 0.34251 0.0
C1256 C 0.3995 0.73092 0.24647 0.0
C1257 C 0.38363 0.7081 0.24166 0.0
C1258 C 0.41892 0.73438 0.26422 0.0
C1259 C 0.42283 0.71524 0.2779 0.0
C1260 C 0.40714 0.69234 0.27282 0.0
C1261 C 0.38811 0.68872 0.2548 0.0
C1262 C 0.47217 0.70297 0.32327 0.0
C1263 C 0.4773 0.72686 0.33805 0.0
C1264 C 0.45486 0.6992 0.30346 0.0
C1265 C 0.44251 0.71935 0.29794 0.0
C1266 C 0.4486 0.74344 0.31234 0.0
C1267 C 0.46599 0.74717 0.3319 0.0
H1268 H 0.05328 0.43187 0.03057 0.0
H1269 H 0.97664 0.42402 0.00559 0.0
H1270 H 0.0575 0.38956 0.00754 0.0
H1271 H 0.98088 0.38204 0.98259 0.0
H1272 H 0.05556 0.32363 0.93681 0.0
H1273 H 0.05576 0.36564 0.96231 0.0
H1274 H 0.98753 0.34026 0.99444 0.0
H1275 H 0.98727 0.29871 0.96947 0.0
C1276 C 0.03734 0.42109 0.02022 0.0
C1277 C 0.01457 0.43123 0.01998 0.0
C1278 C 0.03983 0.39699 0.0069 0.0
C1279 C 0.01949 0.38242 0.9934 0.0
C1280 C 0.99683 0.39268 0.99305 0.0
C1281 C 0.99443 0.41681 0.00607 0.0
C1282 C 0.04089 0.32688 0.94968 0.0
C1283 C 0.02126 0.30778 0.95079 0.0
C1284 C 0.04099 0.35096 0.96423 0.0
C1285 C 0.02139 0.35636 0.98001 0.0
C1286 C 1.00259 0.33686 0.98207 0.0
C1287 C 1.00256 0.31294 0.96777 0.0
H1288 H 0.6902 0.82518 0.28775 0.0
H1289 H 0.63001 0.80815 0.2335 0.0
H1290 H 0.66236 0.81196 0.31899 0.0
H1291 H 0.60211 0.79445 0.26443 0.0
H1292 H 0.5532 0.80403 0.33077 0.0
H1293 H 0.58283 0.81533 0.30057 0.0
H1294 H 0.63728 0.77655 0.33224 0.0
H1295 H 0.60767 0.76557 0.3628 0.0
C1296 C 0.67111 0.81794 0.28244 0.0
C1297 C 0.66216 0.81735 0.25833 0.0
C1298 C 0.65515 0.81042 0.30029 0.0
C1299 C 0.6299 0.8024 0.29432 0.0
C1300 C 0.62132 0.80096 0.26979 0.0
C1301 C 0.6373 0.80845 0.25198 0.0
C1302 C 0.57158 0.79816 0.33151 0.0
C1303 C 0.57805 0.78389 0.34922 0.0
C1304 C 0.5885 0.80438 0.31399 0.0
C1305 C 0.61234 0.79651 0.31369 0.0
C1306 C 0.61911 0.78298 0.33195 0.0
C1307 C 0.60214 0.77671 0.3495 0.0
H1308 H 0.06939 0.08133 0.97569 0.0
H1309 H 0.03392 0.1189 0.03876 0.0
H1310 H 0.0633 0.11601 0.95352 0.0
H1311 H 0.02803 0.15379 0.01694 0.0
H1312 H 0.99074 0.19032 0.95872 0.0
H1313 H 1.00159 0.15894 0.9826 0.0
H1314 H 0.07407 0.16097 0.9513 0.0
H1315 H 0.06315 0.19231 0.92706 0.0
C1316 C 0.06087 0.09738 0.98498 0.0
C1317 C 0.05232 0.0977 0.00893 0.0
C1318 C 0.05735 0.11724 0.97233 0.0
C1319 C 0.04496 0.13766 0.98333 0.0
C1320 C 0.03729 0.13823 0.00774 0.0
C1321 C 0.04089 0.11843 0.02036 0.0
C1322 C 0.00906 0.18422 0.95692 0.0
C1323 C 0.02603 0.19398 0.94086 0.0
C1324 C 0.01535 0.16629 0.97081 0.0
C1325 C 0.03878 0.15745 0.96902 0.0
C1326 C 0.05581 0.1672 0.95302 0.0
C1327 C 0.04955 0.18528 0.93918 0.0
H1328 H 0.37629 0.34581 0.30034 0.0
H1329 H 0.37467 0.26587 0.30133 0.0
H1330 H 0.41181 0.34384 0.27323 0.0
H1331 H 0.40998 0.26409 0.27491 0.0
H1332 H 0.48671 0.26958 0.25007 0.0
H1333 H 0.4543 0.27955 0.27894 0.0
H1334 H 0.42459 0.32439 0.2302 0.0
H1335 H 0.4577 0.31459 0.20124 0.0
C1336 C 0.38336 0.32782 0.29474 0.0
C1337 C 0.37276 0.30609 0.3035 0.0
C1338 C 0.40376 0.32673 0.27924 0.0
C1339 C 0.41412 0.30393 0.27227 0.0
C1340 C 0.40302 0.28216 0.28046 0.0
C1341 C 0.38269 0.2832 0.29572 0.0
C1342 C 0.47373 0.28222 0.24585 0.0
C1343 C 0.4748 0.29134 0.22342 0.0
C1344 C 0.45494 0.2877 0.26226 0.0
C1345 C 0.43642 0.30225 0.25665 0.0
C1346 C 0.43854 0.31308 0.23509 0.0
C1347 C 0.45759 0.30765 0.21858 0.0
H1348 H 0.50339 0.43043 0.05434 0.0
H1349 H 0.57886 0.41502 0.04276 0.0
H1350 H 0.49912 0.40174 0.08431 0.0
H1351 H 0.57475 0.38609 0.07283 0.0
H1352 H 0.56339 0.3507 0.14308 0.0
H1353 H 0.56852 0.38327 0.11712 0.0
H1354 H 0.49669 0.35563 0.08226 0.0
H1355 H 0.49156 0.32308 0.10822 0.0
C1356 C 0.51923 0.42121 0.05863 0.0
C1357 C 0.54152 0.42509 0.04653 0.0
C1358 C 0.51672 0.40456 0.07559 0.0
C1359 C 0.5365 0.39139 0.08091 0.0
C1360 C 0.55918 0.39605 0.06936 0.0
C1361 C 0.56161 0.41262 0.05218 0.0
C1362 C 0.54857 0.3517 0.13005 0.0
C1363 C 0.52701 0.33425 0.12781 0.0
C1364 C 0.55162 0.37029 0.11502 0.0
C1365 C 0.53306 0.37212 0.09754 0.0
C1366 C 0.51127 0.35499 0.09569 0.0
C1367 C 0.50834 0.33624 0.11054 0.0
H1368 H 0.69527 0.25733 0.27311 0.0
H1369 H 0.66476 0.17895 0.26 0.0
H1370 H 0.65651 0.26894 0.25708 0.0
H1371 H 0.62646 0.19007 0.24336 0.0
H1372 H 0.55324 0.21674 0.23073 0.0
H1373 H 0.59023 0.20962 0.2526 0.0
H1374 H 0.63358 0.26586 0.21887 0.0
H1375 H 0.59622 0.27361 0.19751 0.0
C1376 C 0.68009 0.24268 0.26706 0.0
C1377 C 0.68271 0.21733 0.26798 0.0
C1378 C 0.658 0.24923 0.25763 0.0
C1379 C 0.6382 0.23048 0.24885 0.0
C1380 C 0.64096 0.20514 0.25032 0.0
C1381 C 0.66294 0.19868 0.25979 0.0
C1382 C 0.5706 0.22778 0.22807 0.0
C1383 C 0.57169 0.24565 0.21215 0.0
C1384 C 0.59193 0.22357 0.24056 0.0
C1385 C 0.6151 0.23689 0.23735 0.0
C1386 C 0.61609 0.25537 0.22203 0.0
C1387 C 0.59464 0.25975 0.20966 0.0
H1388 H 0.47739 0.08861 0.06039 0.0
H1389 H 0.52902 0.11514 0.00871 0.0
H1390 H 0.484 0.12956 0.08645 0.0
H1391 H 0.53693 0.15604 0.03652 0.0
H1392 H 0.5598 0.21152 0.11463 0.0
H1393 H 0.55453 0.17272 0.08343 0.0
H1394 H 0.47541 0.17537 0.082 0.0
H1395 H 0.48084 0.21442 0.11247 0.0
C1396 C 0.48997 0.10314 0.05431 0.0
C1397 C 0.50214 0.09841 0.03185 0.0
C1398 C 0.49395 0.12666 0.06962 0.0
C1399 C 0.51082 0.14606 0.06359 0.0
C1400 C 0.52378 0.14136 0.04166 0.0
C1401 C 0.51931 0.11786 0.02581 0.0
C1402 C 0.54133 0.20379 0.1075 0.0
C1403 C 0.52058 0.21524 0.11671 0.0
C1404 C 0.53834 0.18174 0.08958 0.0
C1405 C 0.51455 0.17089 0.08049 0.0
C1406 C 0.49395 0.18311 0.08891 0.0
C1407 C 0.497 0.20526 0.10654 0.0
H1408 H 0.25812 0.40274 0.69654 0.0
H1409 H 0.30129 0.34952 0.72242 0.0
H1410 H 0.29363 0.43572 0.70537 0.0
H1411 H 0.33636 0.38256 0.73204 0.0
H1412 H 0.3758 0.45849 0.77651 0.0
H1413 H 0.34236 0.4244 0.7637 0.0
H1414 H 0.33959 0.44509 0.69145 0.0
H1415 H 0.3739 0.47889 0.7042 0.0
C1416 C 0.27528 0.39815 0.70398 0.0
C1417 C 0.27712 0.37369 0.70878 0.0
C1418 C 0.29557 0.4169 0.70891 0.0
C1419 C 0.31779 0.41163 0.71927 0.0
C1420 C 0.31956 0.3871 0.72393 0.0
C1421 C 0.29953 0.36822 0.71843 0.0
C1422 C 0.36848 0.45531 0.75769 0.0
C1423 C 0.37806 0.47053 0.74098 0.0
C1424 C 0.34925 0.43595 0.75043 0.0
C1425 C 0.3386 0.43193 0.7265 0.0
C1426 C 0.34758 0.44774 0.70998 0.0
C1427 C 0.36717 0.46695 0.71719 0.0
H1428 H 0.31441 0.6844 0.84088 0.0
H1429 H 0.26233 0.62291 0.80373 0.0
H1430 H 0.34695 0.6564 0.83766 0.0
H1431 H 0.29502 0.59497 0.80013 0.0
H1432 H 0.35414 0.54565 0.81561 0.0
H1433 H 0.32216 0.57396 0.82501 0.0
H1434 H 0.37101 0.63504 0.80426 0.0
H1435 H 0.40297 0.60681 0.79494 0.0
C1436 C 0.30983 0.66483 0.83224 0.0
C1437 C 0.28571 0.65591 0.82257 0.0
C1438 C 0.32856 0.64883 0.83021 0.0
C1439 C 0.32365 0.62342 0.81862 0.0
C1440 C 0.29941 0.61436 0.80939 0.0
C1441 C 0.28071 0.63043 0.81123 0.0
C1442 C 0.35824 0.56523 0.81349 0.0
C1443 C 0.38114 0.57394 0.8045 0.0
C1444 C 0.3398 0.5814 0.81865 0.0
C1445 C 0.34391 0.60673 0.81519 0.0
C1446 C 0.36725 0.61571 0.8073 0.0
C1447 C 0.38558 0.59949 0.80191 0.0
H1448 H 0.9381 0.53125 0.54878 0.0
H1449 H 0.92887 0.50549 0.47024 0.0
H1450 H 0.89725 0.50878 0.55475 0.0
H1451 H 0.88839 0.48327 0.47613 0.0
H1452 H 0.80803 0.46877 0.4897 0.0
H1453 H 0.84684 0.49604 0.49036 0.0
H1454 H 0.8762 0.46168 0.54808 0.0
H1455 H 0.83699 0.43393 0.5474 0.0
C1456 C 0.92728 0.52094 0.53282 0.0
C1457 C 0.93666 0.52013 0.50903 0.0
C1458 C 0.90403 0.50797 0.53626 0.0
C1459 C 0.88957 0.49438 0.51591 0.0
C1460 C 0.89896 0.4938 0.49217 0.0
C1461 C 0.92222 0.50638 0.48879 0.0
C1462 C 0.82254 0.46722 0.50289 0.0
C1463 C 0.81947 0.44886 0.51827 0.0
C1464 C 0.84484 0.48283 0.50317 0.0
C1465 C 0.86474 0.48066 0.5189 0.0
C1466 C 0.86116 0.46374 0.53571 0.0
C1467 C 0.8387 0.44791 0.53538 0.0
H1468 H 0.75372 0.85764 0.81056 0.0
H1469 H 0.81773 0.9136 0.82149 0.0
H1470 H 0.72901 0.88815 0.79705 0.0
H1471 H 0.79336 0.94423 0.8072 0.0
H1472 H 0.73548 1.00059 0.81108 0.0
H1473 H 0.76148 0.96947 0.82118 0.0
H1474 H 0.72059 0.91212 0.76656 0.0
H1475 H 0.69417 0.94305 0.75714 0.0
C1476 C 0.76265 0.87634 0.80931 0.0
C1477 C 0.78764 0.88323 0.81667 0.0
C1478 C 0.7485 0.8939 0.80159 0.0
C1479 C 0.75903 0.91887 0.80109 0.0
C1480 C 0.78443 0.92538 0.80769 0.0
C1481 C 0.79854 0.90777 0.81553 0.0
C1482 C 0.73198 0.98131 0.80132 0.0
C1483 C 0.7126 0.97433 0.78341 0.0
C1484 C 0.74708 0.96345 0.80692 0.0
C1485 C 0.74332 0.93814 0.79466 0.0
C1486 C 0.72393 0.93126 0.77669 0.0
C1487 C 0.70876 0.94907 0.77121 0.0
H1488 H 0.59592 0.54324 0.02435 0.0
H1489 H 0.62827 0.48561 0.97545 0.0
H1490 H 0.63657 0.56825 0.03192 0.0
H1491 H 0.66913 0.51027 0.98307 0.0
H1492 H 0.72651 0.57798 0.97377 0.0
H1493 H 0.68936 0.54763 0.97158 0.0
H1494 H 0.6781 0.57338 0.04891 0.0
H1495 H 0.7152 0.6041 0.0507 0.0
C1496 C 0.61195 0.53568 0.01578 0.0
C1497 C 0.60915 0.51246 0.99957 0.0
C1498 C 0.63527 0.54997 0.02005 0.0
C1499 C 0.65625 0.54146 0.00794 0.0
C1500 C 0.65342 0.51766 0.99243 0.0
C1501 C 0.63011 0.50337 0.98825 0.0
C1502 C 0.716 0.57709 0.99024 0.0
C1503 C 0.72301 0.594 0.01212 0.0
C1504 C 0.6949 0.55944 0.98915 0.0
C1505 C 0.68039 0.55817 0.01001 0.0
C1506 C 0.68843 0.57416 0.03234 0.0
C1507 C 0.70969 0.59169 0.03343 0.0
H1508 H 0.32598 0.63931 0.22971 0.0
H1509 H 0.27286 0.67546 0.19283 0.0
H1510 H 0.29327 0.60727 0.2371 0.0
H1511 H 0.24014 0.64226 0.19941 0.0
H1512 H 0.19856 0.55849 0.19732 0.0
H1513 H 0.23043 0.591 0.18714 0.0
H1514 H 0.25381 0.61047 0.26394 0.0
H1515 H 0.22184 0.57853 0.27401 0.0
C1516 C 0.3073 0.64061 0.2233 0.0
C1517 C 0.30204 0.66046 0.21117 0.0
C1518 C 0.28861 0.62204 0.22739 0.0
C1519 C 0.26419 0.62243 0.21901 0.0
C1520 C 0.25888 0.64156 0.20601 0.0
C1521 C 0.27762 0.66051 0.20222 0.0
C1522 C 0.2105 0.5699 0.21192 0.0
C1523 C 0.20747 0.56665 0.23649 0.0
C1524 C 0.22858 0.58847 0.20615 0.0
C1525 C 0.24441 0.6033 0.2248 0.0
C1526 C 0.24182 0.59931 0.24923 0.0
C1527 C 0.2235 0.58119 0.25501 0.0
H1528 H 0.9664 0.57882 0.03756 0.0
H1529 H 0.91931 0.5081 0.02017 0.0
H1530 H 0.93084 0.60185 0.03265 0.0
H1531 H 0.88342 0.53093 0.01573 0.0
H1532 H 0.83071 0.57788 0.9825 0.0
H1533 H 0.86643 0.55538 0.98817 0.0
H1534 H 0.89275 0.61324 0.05006 0.0
H1535 H 0.85748 0.63589 0.04401 0.0
C1536 C 0.94825 0.56828 0.03322 0.0
C1537 C 0.94541 0.54179 0.02957 0.0
C1538 C 0.92784 0.58142 0.03037 0.0
C1539 C 0.90414 0.56832 0.02366 0.0
C1540 C 0.90138 0.54169 0.02052 0.0
C1541 C 0.92183 0.52859 0.02339 0.0
C1542 C 0.84425 0.5859 0.99716 0.0
C1543 C 0.84121 0.60876 0.01273 0.0
C1544 C 0.86464 0.57286 1.0006 0.0
C1545 C 0.88253 0.58234 0.0197 0.0
C1546 C 0.8796 0.60542 0.035 0.0
C1547 C 0.85926 0.61842 0.03156 0.0
H1548 H 0.13007 0.01097 0.09133 0.0
H1549 H 0.10944 1.00436 0.0141 0.0
H1550 H 0.16258 0.98458 0.08034 0.0
H1551 H 0.14404 0.98131 1.0031 0.0
H1552 H 0.19168 0.91886 0.98617 0.0
H1553 H 0.15861 0.9442 0.99864 0.0
H1554 H 0.20001 0.977 0.06649 0.0
H1555 H 0.23192 0.94938 0.05466 0.0
C1556 C 0.13241 1.00418 0.07196 0.0
C1557 C 0.11637 0.00985 0.0538 0.0
C1558 C 0.15168 0.98929 0.06555 0.0
C1559 C 0.15624 0.98015 0.04067 0.0
C1560 C 0.14099 0.98695 0.02251 0.0
C1561 C 0.12123 1.00106 0.02893 0.0
C1562 C 0.19355 0.93128 1.00387 0.0
C1563 C 0.21436 0.93196 0.01947 0.0
C1564 C 0.17464 0.9463 0.011 0.0
C1565 C 0.17633 0.96336 0.03359 0.0
C1566 C 0.1974 0.964 0.04917 0.0
C1567 C 0.21593 0.94823 0.04236 0.0
loop_
_geom_bond_atom_site_label_1
_geom_bond_atom_site_label_2
_geom_bond_distance
_geom_bond_site_symmetry_2
_ccdc_geom_bond_type
H0 C3 0.929 . S
H1 C6 0.929 . S
H2 C8 0.930 . S
C3 H0 0.929 . S
C3 C4 1.398 . S
C3 C5 1.396 . S
C4 C3 1.398 . S
C4 C8 1.407 . S
C5 C3 1.396 . S
C5 C6 1.394 . S
C6 H1 0.929 . S
C6 C5 1.394 . S
C6 C7 1.382 . S
C7 C6 1.382 . S
C7 C8 1.392 . S
C7 N9 1.420 . S
C8 H2 0.930 . S
C8 C4 1.407 . S
C8 C7 1.392 . S
N9 C7 1.420 . S
N9 C10 1.244 . S
C10 N9 1.244 . S
H11 C14 0.929 . S
H12 C17 0.929 . S
H13 C19 0.930 . S
C14 H11 0.929 . S
C14 C15 1.398 . S
C14 C16 1.396 . S
C15 C14 1.398 . S
C15 C19 1.407 . S
C16 C14 1.396 . S
C16 C17 1.394 . S
C17 H12 0.929 . S
C17 C16 1.394 . S
C17 C18 1.382 . S
C18 C17 1.382 . S
C18 C19 1.392 . S
C18 N20 1.420 . S
C19 H13 0.930 . S
C19 C15 1.407 . S
C19 C18 1.392 . S
N20 C18 1.420 . S
N20 C21 1.244 . S
C21 N20 1.244 . S
H22 C25 0.929 . S
H23 C28 0.929 . S
H24 C30 0.930 1_556 S
C25 H22 0.929 . S
C25 C26 1.380 1_455 S
C25 C27 1.396 . S
C26 C25 1.380 1_655 S
C26 C30 1.434 . S
C27 C25 1.396 . S
C27 C28 1.394 1_455 S
C28 H23 0.929 . S
C28 C27 1.394 1_655 S
C28 C29 1.382 . S
C29 C28 1.382 . S
C29 C30 1.392 . S
C29 N31 1.420 . S
C30 H24 0.930 1_554 S
C30 C26 1.434 . S
C30 C29 1.392 . S
N31 C29 1.420 . S
N31 C32 1.244 . S
C32 N31 1.244 . S
H33 C36 0.929 . S
H34 C39 0.929 . S
H35 C41 0.930 . S
C36 H33 0.929 . S
C36 C37 1.398 . S
C36 C38 1.396 . S
C37 C36 1.398 . S
C37 C41 1.407 . S
C38 C36 1.396 . S
C38 C39 1.394 . S
C39 H34 0.929 . S
C39 C38 1.394 . S
C39 C40 1.382 . S
C40 C39 1.382 . S
C40 C41 1.392 . S
C40 N42 1.420 . S
C41 H35 0.930 . S
C41 C37 1.407 . S
C41 C40 1.392 . S
N42 C40 1.420 . S
N42 C43 1.244 . S
C43 N42 1.244 . S
H44 C47 0.929 1_545 S
H45 C50 0.929 . S
H46 C52 0.930 . S
C47 H44 0.929 1_565 S
C47 C48 1.398 . S
C47 C49 1.396 . S
C48 C47 1.398 . S
C48 C52 1.407 . S
C49 C47 1.396 . S
C49 C50 1.394 . S
C50 H45 0.929 . S
C50 C49 1.394 . S
C50 C51 1.382 . S
C51 C50 1.382 . S
C51 C52 1.392 . S
C51 N53 1.420 . S
C52 H46 0.930 . S
C52 C48 1.407 . S
C52 C51 1.392 . S
N53 C51 1.420 . S
N53 C54 1.244 . S
C54 N53 1.244 . S
H55 C58 0.929 . S
H56 C61 0.929 . S
H57 C63 0.930 . S
C58 H55 0.929 . S
C58 C59 1.398 . S
C58 C60 1.396 . S
C59 C58 1.398 . S
C59 C63 1.407 . S
C60 C58 1.396 . S
C60 C61 1.394 . S
C61 H56 0.929 . S
C61 C60 1.394 . S
C61 C62 1.382 . S
C62 C61 1.382 . S
C62 C63 1.392 . S
C62 N64 1.420 . S
C63 H57 0.930 . S
C63 C59 1.407 . S
C63 C62 1.392 . S
N64 C62 1.420 . S
N64 C65 1.244 . S
C65 N64 1.244 . S
H66 C69 0.929 . S
H67 C72 0.929 . S
H68 C74 0.930 . S
C69 H66 0.929 . S
C69 C70 1.398 . S
C69 C71 1.396 . S
C70 C69 1.398 . S
C70 C74 1.407 . S
C71 C69 1.396 . S
C71 C72 1.394 1_655 S
C72 H67 0.929 . S
C72 C71 1.394 1_455 S
C72 C73 1.382 . S
C73 C72 1.382 . S
C73 C74 1.392 1_455 S
C73 N75 1.420 . S
C74 H68 0.930 . S
C74 C70 1.407 . S
C74 C73 1.392 1_655 S
N75 C73 1.420 . S
N75 C76 1.244 . S
C76 N75 1.244 . S
H77 C80 0.929 . S
H78 C83 0.929 . S
H79 C85 0.930 . S
C80 H77 0.929 . S
C80 C81 1.398 . S
C80 C82 1.396 . S
C81 C80 1.398 . S
C81 C85 1.407 . S
C82 C80 1.396 . S
C82 C83 1.394 . S
C83 H78 0.929 . S
C83 C82 1.394 . S
C83 C84 1.382 . S
C84 C83 1.382 . S
C84 C85 1.392 . S
C84 N86 1.420 . S
C85 H79 0.930 . S
C85 C81 1.407 . S
C85 C84 1.392 . S
N86 C84 1.420 . S
N86 C87 1.244 . S
C87 N86 1.244 . S
H88 C91 0.929 . S
H89 C94 0.929 . S
H90 C96 0.930 . S
C91 H88 0.929 . S
C91 C92 1.398 . S
C91 C93 1.396 . S
C92 C91 1.398 . S
C92 C96 1.407 . S
C93 C91 1.396 . S
C93 C94 1.394 . S
C94 H89 0.929 . S
C94 C93 1.394 . S
C94 C95 1.382 . S
C95 C94 1.382 . S
C95 C96 1.392 . S
C95 N97 1.420 . S
C96 H90 0.930 . S
C96 C92 1.407 . S
C96 C95 1.392 . S
N97 C95 1.420 . S
N97 C98 1.244 . S
C98 N97 1.244 . S
H99 C102 0.929 . S
H100 C105 0.918 1_545 S
H101 C107 0.930 . S
C102 H99 0.929 . S
C102 C103 1.398 . S
C102 C104 1.396 . S
C103 C102 1.398 . S
C103 C107 1.407 . S
C104 C102 1.396 . S
C104 C105 1.404 . S
C105 H100 0.918 1_565 S
C105 C104 1.404 . S
C105 C106 1.382 . S
C106 C105 1.382 . S
C106 C107 1.392 . S
C106 N108 1.420 1_565 S
C107 H101 0.930 . S
C107 C103 1.407 . S
C107 C106 1.392 . S
N108 C106 1.420 1_545 S
N108 C109 1.244 . S
C109 N108 1.244 . S
H110 C113 0.929 . S
H111 C116 0.929 . S
H112 C118 0.930 . S
C113 H110 0.929 . S
C113 C114 1.398 . S
C113 C115 1.396 . S
C114 C113 1.398 . S
C114 C118 1.407 . S
C115 C113 1.396 . S
C115 C116 1.394 . S
C116 H111 0.929 . S
C116 C115 1.394 . S
C116 C117 1.382 . S
C117 C116 1.382 . S
C117 C118 1.392 . S
C117 N119 1.420 . S
C118 H112 0.930 . S
C118 C114 1.407 . S
C118 C117 1.392 . S
N119 C117 1.420 . S
N119 C120 1.244 . S
C120 N119 1.244 . S
H121 C124 0.929 . S
H122 C127 0.929 . S
H123 C129 0.930 . S
C124 H121 0.929 . S
C124 C125 1.398 . S
C124 C126 1.396 . S
C125 C124 1.398 . S
C125 C129 1.407 . S
C126 C124 1.396 . S
C126 C127 1.394 . S
C127 H122 0.929 . S
C127 C126 1.394 . S
C127 C128 1.382 . S
C128 C127 1.382 . S
C128 C129 1.392 . S
C128 N130 1.420 . S
C129 H123 0.930 . S
C129 C125 1.407 . S
C129 C128 1.392 . S
N130 C128 1.420 . S
N130 C131 1.244 . S
C131 N130 1.244 . S
H132 C135 0.929 . S
H133 C138 0.929 . S
H134 C140 0.930 . S
C135 H132 0.929 . S
C135 C136 1.398 . S
C135 C137 1.396 . S
C136 C135 1.398 . S
C136 C140 1.407 . S
C137 C135 1.396 . S
C137 C138 1.394 . S
C138 H133 0.929 . S
C138 C137 1.394 . S
C138 C139 1.382 . S
C139 C138 1.382 . S
C139 C140 1.392 . S
C139 N141 1.420 . S
C140 H134 0.930 . S
C140 C136 1.407 . S
C140 C139 1.392 . S
N141 C139 1.420 . S
N141 C142 1.244 . S
C142 N141 1.244 . S
H143 C146 0.929 . S
H144 C149 0.929 . S
H145 C151 0.930 . S
C146 H143 0.929 . S
C146 C147 1.398 . S
C146 C148 1.396 . S
C147 C146 1.398 . S
C147 C151 1.407 . S
C148 C146 1.396 . S
C148 C149 1.394 1_556 S
C149 H144 0.929 . S
C149 C148 1.394 1_554 S
C149 C150 1.382 1_554 S
C150 C149 1.382 1_556 S
C150 C151 1.392 . S
C150 N152 1.420 1_556 S
C151 H145 0.930 . S
C151 C147 1.407 . S
C151 C150 1.392 . S
N152 C150 1.420 1_554 S
N152 C153 1.244 . S
C153 N152 1.244 . S
H154 C157 0.929 . S
H155 C160 0.929 . S
H156 C162 0.930 . S
C157 H154 0.929 . S
C157 C158 1.398 . S
C157 C159 1.396 . S
C158 C157 1.398 . S
C158 C162 1.407 . S
C159 C157 1.396 . S
C159 C160 1.394 . S
C160 H155 0.929 . S
C160 C159 1.394 . S
C160 C161 1.382 . S
C161 C160 1.382 . S
C161 C162 1.392 . S
C161 N163 1.420 . S
C162 H156 0.930 . S
C162 C158 1.407 . S
C162 C161 1.392 . S
N163 C161 1.420 . S
N163 C164 1.244 . S
C164 N163 1.244 . S
H165 C168 0.902 1_554 S
H166 C171 0.929 . S
H167 C173 0.930 1_565 S
C168 H165 0.902 1_556 S
C168 C169 1.415 . S
C168 C170 1.408 . S
C169 C168 1.415 . S
C169 C173 1.407 . S
C170 C168 1.408 . S
C170 C171 1.394 . S
C171 H166 0.929 . S
C171 C170 1.394 . S
C171 C172 1.382 . S
C172 C171 1.382 . S
C172 C173 1.392 . S
C172 N174 1.420 . S
C173 H167 0.930 1_545 S
C173 C169 1.407 . S
C173 C172 1.392 . S
N174 C172 1.420 . S
N174 C175 1.244 . S
C175 N174 1.244 . S
Mn176 O181 2.095 . S
Mn176 O191 2.162 . S
Mn176 O192 2.297 . S
Mn176 O200 2.385 . S
Mn176 O201 2.209 . S
Mn176 O202 2.094 . S
Mn177 O182 2.121 1_556 S
Mn177 N184 2.257 . S
Mn177 N193 2.282 . S
Mn177 O201 2.215 1_556 S
Mn177 O203 2.117 1_556 S
C178 O200 1.234 . S
C178 O201 1.283 . S
C179 O191 1.281 . S
C179 O192 1.236 . S
C180 O202 1.240 . S
C180 O203 1.264 . S
O181 Mn176 2.095 . S
O181 C190 1.250 . S
O182 Mn177 2.121 1_554 S
O182 C190 1.258 . S
C183 N184 1.326 . S
C183 C187 1.460 . S
C183 H189 0.929 . S
N184 Mn177 2.257 . S
N184 C183 1.326 . S
N184 C188 1.362 . S
C185 C186 1.258 . S
C185 C188 1.431 . S
C185 C205 1.449 . S
C186 C185 1.258 . S
C186 C187 1.477 . S
C186 H206 0.931 . S
C187 C183 1.460 . S
C187 C186 1.477 . S
C187 H207 0.930 . S
C188 N184 1.362 . S
C188 C185 1.431 . S
C188 C198 1.476 . S
H189 C183 0.929 . S
C190 O181 1.250 . S
C190 O182 1.258 . S
O191 Mn176 2.162 . S
O191 C179 1.281 . S
O192 Mn176 2.297 . S
O192 C179 1.236 . S
N193 Mn177 2.282 . S
N193 C194 1.328 . S
N193 C198 1.318 . S
C194 N193 1.328 . S
C194 C195 1.457 . S
C194 H199 0.929 . S
C195 C194 1.457 . S
C195 C196 1.291 . S
C195 H208 0.931 . S
C196 C195 1.291 . S
C196 C197 1.373 . S
C196 H209 0.929 . S
C197 C196 1.373 . S
C197 C198 1.396 . S
C197 C204 1.403 . S
C198 C188 1.476 . S
C198 N193 1.318 . S
C198 C197 1.396 . S
H199 C194 0.929 . S
O200 Mn176 2.385 . S
O200 C178 1.234 . S
O201 Mn176 2.209 . S
O201 Mn177 2.215 1_554 S
O201 C178 1.283 . S
O202 Mn176 2.094 . S
O202 C180 1.240 . S
O203 Mn177 2.117 1_554 S
O203 C180 1.264 . S
C204 C197 1.403 . S
C204 C205 1.399 . S
C204 H210 0.929 . S
C205 C185 1.449 . S
C205 C204 1.399 . S
C205 H211 0.930 . S
H206 C186 0.931 . S
H207 C187 0.930 . S
H208 C195 0.931 . S
H209 C196 0.929 . S
H210 C204 0.929 . S
H211 C205 0.930 . S
Mn212 O217 2.095 . S
Mn212 O227 2.162 . S
Mn212 O228 2.297 . S
Mn212 O236 2.385 . S
Mn212 O237 2.209 . S
Mn212 O238 2.094 . S
Mn213 O218 2.121 . S
Mn213 N220 2.257 . S
Mn213 N229 2.282 . S
Mn213 O237 2.215 . S
Mn213 O239 2.117 . S
C214 O236 1.234 . S
C214 O237 1.283 . S
C215 O227 1.281 . S
C215 O228 1.236 . S
C216 O238 1.240 . S
C216 O239 1.264 . S
O217 Mn212 2.095 . S
O217 C226 1.250 . S
O218 Mn213 2.121 . S
O218 C226 1.258 . S
C219 N220 1.326 . S
C219 C223 1.460 . S
C219 H225 0.929 . S
N220 Mn213 2.257 . S
N220 C219 1.326 . S
N220 C224 1.362 . S
C221 C222 1.258 . S
C221 C224 1.431 . S
C221 C241 1.449 . S
C222 C221 1.258 . S
C222 C223 1.477 . S
C222 H242 0.931 . S
C223 C219 1.460 . S
C223 C222 1.477 . S
C223 H243 0.930 . S
C224 N220 1.362 . S
C224 C221 1.431 . S
C224 C234 1.476 . S
H225 C219 0.929 . S
C226 O217 1.250 . S
C226 O218 1.258 . S
O227 Mn212 2.162 . S
O227 C215 1.281 . S
O228 Mn212 2.297 . S
O228 C215 1.236 . S
N229 Mn213 2.282 . S
N229 C230 1.328 . S
N229 C234 1.318 . S
C230 N229 1.328 . S
C230 C231 1.457 . S
C230 H235 0.929 . S
C231 C230 1.457 . S
C231 C232 1.291 . S
C231 H244 0.931 . S
C232 C231 1.291 . S
C232 C233 1.373 . S
C232 H245 0.929 . S
C233 C232 1.373 . S
C233 C234 1.396 . S
C233 C240 1.403 . S
C234 C224 1.476 . S
C234 N229 1.318 . S
C234 C233 1.396 . S
H235 C230 0.929 . S
O236 Mn212 2.385 . S
O236 C214 1.234 . S
O237 Mn212 2.209 . S
O237 Mn213 2.215 . S
O237 C214 1.283 . S
O238 Mn212 2.094 . S
O238 C216 1.240 . S
O239 Mn213 2.117 . S
O239 C216 1.264 . S
C240 C233 1.403 . S
C240 C241 1.399 . S
C240 H246 0.929 . S
C241 C221 1.449 . S
C241 C240 1.399 . S
C241 H247 0.930 . S
H242 C222 0.931 . S
H243 C223 0.930 . S
H244 C231 0.931 . S
H245 C232 0.929 . S
H246 C240 0.929 . S
H247 C241 0.930 . S
Mn248 O253 2.095 1_554 S
Mn248 O263 2.162 . S
Mn248 O264 2.297 1_554 S
Mn248 O272 2.385 . S
Mn248 O273 2.209 1_554 S
Mn248 O274 2.094 . S
Mn249 O254 2.121 . S
Mn249 N256 2.257 . S
Mn249 N265 2.282 1_556 S
Mn249 O273 2.215 . S
Mn249 O275 2.117 1_556 S
C250 O272 1.233 . S
C250 O273 1.284 1_554 S
C251 O263 1.301 . S
C251 O264 1.215 1_554 S
C252 O274 1.240 . S
C252 O275 1.264 . S
O253 Mn248 2.095 1_556 S
O253 C262 1.250 . S
O254 Mn249 2.121 . S
O254 C262 1.258 . S
C255 N256 1.326 . S
C255 C259 1.460 . S
C255 H261 0.929 . S
N256 Mn249 2.257 . S
N256 C255 1.326 . S
N256 C260 1.362 . S
C257 C258 1.258 . S
C257 C260 1.431 . S
C257 C277 1.449 . S
C258 C257 1.258 . S
C258 C259 1.477 . S
C258 H278 0.931 . S
C259 C255 1.460 . S
C259 C258 1.477 . S
C259 H279 0.930 . S
C260 N256 1.362 . S
C260 C257 1.431 . S
C260 C270 1.476 . S
H261 C255 0.929 . S
C262 O253 1.250 . S
C262 O254 1.258 . S
O263 Mn248 2.162 . S
O263 C251 1.301 . S
O264 Mn248 2.297 1_556 S
O264 C251 1.215 1_556 S
N265 Mn249 2.282 1_554 S
N265 C266 1.328 . S
N265 C270 1.318 1_554 S
C266 N265 1.328 . S
C266 C267 1.457 . S
C266 H271 0.929 . S
C267 C266 1.457 . S
C267 C268 1.291 . S
C267 H280 0.931 . S
C268 C267 1.291 . S
C268 C269 1.373 1_554 S
C268 H281 0.929 . S
C269 C268 1.373 1_556 S
C269 C270 1.396 . S
C269 C276 1.403 . S
C270 C260 1.476 . S
C270 N265 1.318 1_556 S
C270 C269 1.396 . S
H271 C266 0.929 . S
O272 Mn248 2.385 . S
O272 C250 1.233 . S
O273 Mn248 2.209 1_556 S
O273 Mn249 2.215 . S
O273 C250 1.284 1_556 S
O274 Mn248 2.094 . S
O274 C252 1.240 . S
O275 Mn249 2.117 1_554 S
O275 C252 1.264 . S
C276 C269 1.403 . S
C276 C277 1.399 . S
C276 H282 0.929 . S
C277 C257 1.449 . S
C277 C276 1.399 . S
C277 H283 0.930 . S
H278 C258 0.931 . S
H279 C259 0.930 . S
H280 C267 0.931 . S
H281 C268 0.929 . S
H282 C276 0.929 . S
H283 C277 0.930 . S
Mn284 O289 2.095 . S
Mn284 O299 2.162 . S
Mn284 O300 2.297 . S
Mn284 O308 2.385 . S
Mn284 O309 2.209 1_545 S
Mn284 O310 2.094 . S
Mn285 O290 2.121 . S
Mn285 N292 2.257 . S
Mn285 N301 2.282 . S
Mn285 O309 2.215 . S
Mn285 O311 2.117 1_565 S
C286 O308 1.234 1_565 S
C286 O309 1.283 . S
C287 O299 1.281 . S
C287 O300 1.236 . S
C288 O310 1.240 . S
C288 O311 1.264 . S
O289 Mn284 2.095 . S
O289 C298 1.250 . S
O290 Mn285 2.121 . S
O290 C298 1.258 1_565 S
C291 N292 1.326 . S
C291 C295 1.460 . S
C291 H297 0.929 . S
N292 Mn285 2.257 . S
N292 C291 1.326 . S
N292 C296 1.362 . S
C293 C294 1.258 . S
C293 C296 1.431 . S
C293 C313 1.449 . S
C294 C293 1.258 . S
C294 C295 1.477 . S
C294 H314 0.931 . S
C295 C291 1.460 . S
C295 C294 1.477 . S
C295 H315 0.930 . S
C296 N292 1.362 . S
C296 C293 1.431 . S
C296 C306 1.476 . S
H297 C291 0.929 . S
C298 O289 1.250 . S
C298 O290 1.258 1_545 S
O299 Mn284 2.162 . S
O299 C287 1.281 . S
O300 Mn284 2.297 . S
O300 C287 1.236 . S
N301 Mn285 2.282 . S
N301 C302 1.328 . S
N301 C306 1.318 . S
C302 N301 1.328 . S
C302 C303 1.457 . S
C302 H307 0.929 . S
C303 C302 1.457 . S
C303 C304 1.291 . S
C303 H316 0.931 . S
C304 C303 1.291 . S
C304 C305 1.373 . S
C304 H317 0.929 . S
C305 C304 1.373 . S
C305 C306 1.396 . S
C305 C312 1.403 . S
C306 C296 1.476 . S
C306 N301 1.318 . S
C306 C305 1.396 . S
H307 C302 0.929 . S
O308 Mn284 2.385 . S
O308 C286 1.234 1_545 S
O309 Mn284 2.209 1_565 S
O309 Mn285 2.215 . S
O309 C286 1.283 . S
O310 Mn284 2.094 . S
O310 C288 1.240 . S
O311 Mn285 2.117 1_545 S
O311 C288 1.264 . S
C312 C305 1.403 . S
C312 C313 1.399 . S
C312 H318 0.929 . S
C313 C293 1.449 . S
C313 C312 1.399 . S
C313 H319 0.930 . S
H314 C294 0.931 . S
H315 C295 0.930 . S
H316 C303 0.931 . S
H317 C304 0.929 . S
H318 C312 0.929 . S
H319 C313 0.930 . S
Mn320 O325 2.095 . S
Mn320 O335 2.162 . S
Mn320 O336 2.297 . S
Mn320 O344 2.385 . S
Mn320 O345 2.209 . S
Mn320 O346 2.094 . S
Mn321 O326 2.121 . S
Mn321 N328 2.257 . S
Mn321 N337 2.282 . S
Mn321 O345 2.215 . S
Mn321 O347 2.117 . S
C322 O344 1.234 . S
C322 O345 1.283 . S
C323 O335 1.281 . S
C323 O336 1.236 . S
C324 O346 1.240 . S
C324 O347 1.264 . S
O325 Mn320 2.095 . S
O325 C334 1.250 . S
O326 Mn321 2.121 . S
O326 C334 1.258 . S
C327 N328 1.326 . S
C327 C331 1.460 . S
C327 H333 0.929 . S
N328 Mn321 2.257 . S
N328 C327 1.326 . S
N328 C332 1.362 . S
C329 C330 1.258 . S
C329 C332 1.431 . S
C329 C349 1.449 . S
C330 C329 1.258 . S
C330 C331 1.477 . S
C330 H350 0.931 . S
C331 C327 1.460 . S
C331 C330 1.477 . S
C331 H351 0.930 . S
C332 N328 1.362 . S
C332 C329 1.431 . S
C332 C342 1.476 . S
H333 C327 0.929 . S
C334 O325 1.250 . S
C334 O326 1.258 . S
O335 Mn320 2.162 . S
O335 C323 1.281 . S
O336 Mn320 2.297 . S
O336 C323 1.236 . S
N337 Mn321 2.282 . S
N337 C338 1.328 . S
N337 C342 1.318 . S
C338 N337 1.328 . S
C338 C339 1.457 . S
C338 H343 0.929 . S
C339 C338 1.457 . S
C339 C340 1.291 . S
C339 H352 0.931 . S
C340 C339 1.291 . S
C340 C341 1.373 . S
C340 H353 0.929 . S
C341 C340 1.373 . S
C341 C342 1.396 . S
C341 C348 1.403 . S
C342 C332 1.476 . S
C342 N337 1.318 . S
C342 C341 1.396 . S
H343 C338 0.929 . S
O344 Mn320 2.385 . S
O344 C322 1.234 . S
O345 Mn320 2.209 . S
O345 Mn321 2.215 . S
O345 C322 1.283 . S
O346 Mn320 2.094 . S
O346 C324 1.240 . S
O347 Mn321 2.117 . S
O347 C324 1.264 . S
C348 C341 1.403 . S
C348 C349 1.399 . S
C348 H354 0.929 . S
C349 C329 1.449 . S
C349 C348 1.399 . S
C349 H355 0.930 . S
H350 C330 0.931 . S
H351 C331 0.930 . S
H352 C339 0.931 . S
H353 C340 0.929 . S
H354 C348 0.929 . S
H355 C349 0.930 . S
Mn356 O361 2.095 . S
Mn356 O371 2.162 . S
Mn356 O372 2.297 . S
Mn356 O380 2.385 . S
Mn356 O381 2.209 . S
Mn356 O382 2.094 . S
Mn357 O362 2.121 . S
Mn357 N364 2.257 . S
Mn357 N373 2.282 . S
Mn357 O381 2.215 . S
Mn357 O383 2.117 . S
C358 O380 1.234 . S
C358 O381 1.283 . S
C359 O371 1.281 . S
C359 O372 1.236 . S
C360 O382 1.240 . S
C360 O383 1.264 . S
O361 Mn356 2.095 . S
O361 C370 1.250 . S
O362 Mn357 2.121 . S
O362 C370 1.258 . S
C363 N364 1.326 . S
C363 C367 1.460 . S
C363 H369 0.929 . S
N364 Mn357 2.257 . S
N364 C363 1.326 . S
N364 C368 1.362 . S
C365 C366 1.258 . S
C365 C368 1.431 . S
C365 C385 1.449 . S
C366 C365 1.258 . S
C366 C367 1.477 . S
C366 H386 0.931 . S
C367 C363 1.460 . S
C367 C366 1.477 . S
C367 H387 0.930 . S
C368 N364 1.362 . S
C368 C365 1.431 . S
C368 C378 1.476 . S
H369 C363 0.929 . S
C370 O361 1.250 . S
C370 O362 1.258 . S
O371 Mn356 2.162 . S
O371 C359 1.281 . S
O372 Mn356 2.297 . S
O372 C359 1.236 . S
N373 Mn357 2.282 . S
N373 C374 1.328 . S
N373 C378 1.318 . S
C374 N373 1.328 . S
C374 C375 1.457 . S
C374 H379 0.929 . S
C375 C374 1.457 . S
C375 C376 1.291 . S
C375 H388 0.931 . S
C376 C375 1.291 . S
C376 C377 1.373 . S
C376 H389 0.929 . S
C377 C376 1.373 . S
C377 C378 1.396 . S
C377 C384 1.403 . S
C378 C368 1.476 . S
C378 N373 1.318 . S
C378 C377 1.396 . S
H379 C374 0.929 . S
O380 Mn356 2.385 . S
O380 C358 1.234 . S
O381 Mn356 2.209 . S
O381 Mn357 2.215 . S
O381 C358 1.283 . S
O382 Mn356 2.094 . S
O382 C360 1.240 . S
O383 Mn357 2.117 . S
O383 C360 1.264 . S
C384 C377 1.403 . S
C384 C385 1.399 . S
C384 H390 0.929 . S
C385 C365 1.449 . S
C385 C384 1.399 . S
C385 H391 0.930 . S
H386 C366 0.931 . S
H387 C367 0.930 . S
H388 C375 0.931 . S
H389 C376 0.929 . S
H390 C384 0.929 . S
H391 C385 0.930 . S
Mn392 O397 2.095 . S
Mn392 O407 2.162 . S
Mn392 O408 2.297 . S
Mn392 O416 2.385 . S
Mn392 O417 2.209 . S
Mn392 O418 2.094 . S
Mn393 O398 2.121 . S
Mn393 N400 2.257 . S
Mn393 N409 2.282 . S
Mn393 O417 2.215 . S
Mn393 O419 2.117 . S
C394 O416 1.234 . S
C394 O417 1.283 . S
C395 O407 1.281 . S
C395 O408 1.236 . S
C396 O418 1.240 . S
C396 O419 1.264 . S
O397 Mn392 2.095 . S
O397 C406 1.250 . S
O398 Mn393 2.121 . S
O398 C406 1.258 . S
C399 N400 1.326 . S
C399 C403 1.460 . S
C399 H405 0.929 . S
N400 Mn393 2.257 . S
N400 C399 1.326 . S
N400 C404 1.362 . S
C401 C402 1.258 . S
C401 C404 1.431 . S
C401 C421 1.449 . S
C402 C401 1.258 . S
C402 C403 1.477 . S
C402 H422 0.931 . S
C403 C399 1.460 . S
C403 C402 1.477 . S
C403 H423 0.930 . S
C404 N400 1.362 . S
C404 C401 1.431 . S
C404 C414 1.476 . S
H405 C399 0.929 . S
C406 O397 1.250 . S
C406 O398 1.258 . S
O407 Mn392 2.162 . S
O407 C395 1.281 . S
O408 Mn392 2.297 . S
O408 C395 1.236 . S
N409 Mn393 2.282 . S
N409 C410 1.328 . S
N409 C414 1.318 . S
C410 N409 1.328 . S
C410 C411 1.457 . S
C410 H415 0.929 . S
C411 C410 1.457 . S
C411 C412 1.291 . S
C411 H424 0.931 . S
C412 C411 1.291 . S
C412 C413 1.373 . S
C412 H425 0.929 . S
C413 C412 1.373 . S
C413 C414 1.396 . S
C413 C420 1.403 . S
C414 C404 1.476 . S
C414 N409 1.318 . S
C414 C413 1.396 . S
H415 C410 0.929 . S
O416 Mn392 2.385 . S
O416 C394 1.234 . S
O417 Mn392 2.209 . S
O417 Mn393 2.215 . S
O417 C394 1.283 . S
O418 Mn392 2.094 . S
O418 C396 1.240 . S
O419 Mn393 2.117 . S
O419 C396 1.264 . S
C420 C413 1.403 . S
C420 C421 1.399 . S
C420 H426 0.929 . S
C421 C401 1.449 . S
C421 C420 1.399 . S
C421 H427 0.930 . S
H422 C402 0.931 . S
H423 C403 0.930 . S
H424 C411 0.931 . S
H425 C412 0.929 . S
H426 C420 0.929 . S
H427 C421 0.930 . S
Mn428 O433 2.095 . S
Mn428 O443 2.162 . S
Mn428 O444 2.297 . S
Mn428 O452 2.385 1_565 S
Mn428 O453 2.209 1_565 S
Mn428 O454 2.094 . S
Mn429 O434 2.121 . S
Mn429 N436 2.257 . S
Mn429 N445 2.282 . S
Mn429 O453 2.215 . S
Mn429 O455 2.117 . S
C430 O452 1.234 . S
C430 O453 1.283 . S
C431 O443 1.281 . S
C431 O444 1.236 . S
C432 O454 1.275 . S
C432 O455 1.227 1_565 S
O433 Mn428 2.095 . S
O433 C442 1.250 1_565 S
O434 Mn429 2.121 . S
O434 C442 1.258 . S
C435 N436 1.326 . S
C435 C439 1.460 . S
C435 H441 0.929 . S
N436 Mn429 2.257 . S
N436 C435 1.326 . S
N436 C440 1.362 . S
C437 C438 1.258 . S
C437 C440 1.431 . S
C437 C457 1.449 . S
C438 C437 1.258 . S
C438 C439 1.477 . S
C438 H458 0.931 . S
C439 C435 1.460 . S
C439 C438 1.477 . S
C439 H459 0.930 . S
C440 N436 1.362 . S
C440 C437 1.431 . S
C440 C450 1.476 . S
H441 C435 0.929 . S
C442 O433 1.250 1_545 S
C442 O434 1.258 . S
O443 Mn428 2.162 . S
O443 C431 1.281 . S
O444 Mn428 2.297 . S
O444 C431 1.236 . S
N445 Mn429 2.282 . S
N445 C446 1.328 . S
N445 C450 1.318 . S
C446 N445 1.328 . S
C446 C447 1.457 . S
C446 H451 0.929 . S
C447 C446 1.457 . S
C447 C448 1.291 . S
C447 H460 0.931 . S
C448 C447 1.291 . S
C448 C449 1.373 . S
C448 H461 0.929 . S
C449 C448 1.373 . S
C449 C450 1.396 . S
C449 C456 1.403 . S
C450 C440 1.476 . S
C450 N445 1.318 . S
C450 C449 1.396 . S
H451 C446 0.929 . S
O452 Mn428 2.385 1_545 S
O452 C430 1.234 . S
O453 Mn428 2.209 1_545 S
O453 Mn429 2.215 . S
O453 C430 1.283 . S
O454 Mn428 2.094 . S
O454 C432 1.275 . S
O455 Mn429 2.117 . S
O455 C432 1.227 1_545 S
C456 C449 1.403 . S
C456 C457 1.399 . S
C456 H462 0.929 . S
C457 C437 1.449 . S
C457 C456 1.399 . S
C457 H463 0.930 . S
H458 C438 0.931 . S
H459 C439 0.930 . S
H460 C447 0.931 . S
H461 C448 0.929 . S
H462 C456 0.929 . S
H463 C457 0.930 . S
Mn464 O469 2.095 . S
Mn464 O479 2.162 . S
Mn464 O480 2.297 . S
Mn464 O488 2.385 . S
Mn464 O489 2.209 1_455 S
Mn464 O490 2.094 . S
Mn465 O470 2.121 . S
Mn465 N472 2.257 . S
Mn465 N481 2.282 . S
Mn465 O489 2.215 . S
Mn465 O491 2.115 1_655 S
C466 O488 1.234 1_655 S
C466 O489 1.283 . S
C467 O479 1.281 . S
C467 O480 1.236 . S
C468 O490 1.240 . S
C468 O491 1.267 . S
O469 Mn464 2.095 . S
O469 C478 1.250 . S
O470 Mn465 2.121 . S
O470 C478 1.258 1_655 S
C471 N472 1.326 . S
C471 C475 1.460 . S
C471 H477 0.929 . S
N472 Mn465 2.257 . S
N472 C471 1.326 . S
N472 C476 1.362 . S
C473 C474 1.258 . S
C473 C476 1.431 . S
C473 C493 1.449 . S
C474 C473 1.258 . S
C474 C475 1.477 . S
C474 H494 0.931 . S
C475 C471 1.460 . S
C475 C474 1.477 . S
C475 H495 0.930 . S
C476 N472 1.362 . S
C476 C473 1.431 . S
C476 C486 1.476 . S
H477 C471 0.929 . S
C478 O469 1.250 . S
C478 O470 1.258 1_455 S
O479 Mn464 2.162 . S
O479 C467 1.281 . S
O480 Mn464 2.297 . S
O480 C467 1.236 . S
N481 Mn465 2.282 . S
N481 C482 1.328 . S
N481 C486 1.318 . S
C482 N481 1.328 . S
C482 C483 1.457 . S
C482 H487 0.929 . S
C483 C482 1.457 . S
C483 C484 1.291 . S
C483 H496 0.931 . S
C484 C483 1.291 . S
C484 C485 1.373 . S
C484 H497 0.929 . S
C485 C484 1.373 . S
C485 C486 1.396 . S
C485 C492 1.403 . S
C486 C476 1.476 . S
C486 N481 1.318 . S
C486 C485 1.396 . S
H487 C482 0.929 . S
O488 Mn464 2.385 . S
O488 C466 1.234 1_455 S
O489 Mn464 2.209 1_655 S
O489 Mn465 2.215 . S
O489 C466 1.283 . S
O490 Mn464 2.094 . S
O490 C468 1.240 . S
O491 Mn465 2.115 1_455 S
O491 C468 1.267 . S
C492 C485 1.403 . S
C492 C493 1.399 . S
C492 H498 0.929 . S
C493 C473 1.449 . S
C493 C492 1.399 . S
C493 H499 0.930 . S
H494 C474 0.931 . S
H495 C475 0.930 . S
H496 C483 0.931 . S
H497 C484 0.929 . S
H498 C492 0.929 . S
H499 C493 0.930 . S
Mn500 O505 2.095 . S
Mn500 O515 2.162 . S
Mn500 O516 2.297 . S
Mn500 O524 2.385 . S
Mn500 O525 2.209 . S
Mn500 O526 2.094 . S
Mn501 O506 2.121 . S
Mn501 N508 2.257 . S
Mn501 N517 2.282 . S
Mn501 O525 2.215 . S
Mn501 O527 2.117 . S
C502 O524 1.234 . S
C502 O525 1.283 . S
C503 O515 1.281 . S
C503 O516 1.236 . S
C504 O526 1.240 . S
C504 O527 1.264 . S
O505 Mn500 2.095 . S
O505 C514 1.250 . S
O506 Mn501 2.121 . S
O506 C514 1.258 . S
C507 N508 1.326 . S
C507 C511 1.460 . S
C507 H513 0.929 . S
N508 Mn501 2.257 . S
N508 C507 1.326 . S
N508 C512 1.362 . S
C509 C510 1.258 . S
C509 C512 1.431 . S
C509 C529 1.449 . S
C510 C509 1.258 . S
C510 C511 1.477 . S
C510 H530 0.931 . S
C511 C507 1.460 . S
C511 C510 1.477 . S
C511 H531 0.930 . S
C512 N508 1.362 . S
C512 C509 1.431 . S
C512 C522 1.476 . S
H513 C507 0.929 . S
C514 O505 1.250 . S
C514 O506 1.258 . S
O515 Mn500 2.162 . S
O515 C503 1.281 . S
O516 Mn500 2.297 . S
O516 C503 1.236 . S
N517 Mn501 2.282 . S
N517 C518 1.328 . S
N517 C522 1.318 . S
C518 N517 1.328 . S
C518 C519 1.457 . S
C518 H523 0.929 . S
C519 C518 1.457 . S
C519 C520 1.291 . S
C519 H532 0.931 . S
C520 C519 1.291 . S
C520 C521 1.373 . S
C520 H533 0.929 . S
C521 C520 1.373 . S
C521 C522 1.396 . S
C521 C528 1.403 . S
C522 C512 1.476 . S
C522 N517 1.318 . S
C522 C521 1.396 . S
H523 C518 0.929 . S
O524 Mn500 2.385 . S
O524 C502 1.234 . S
O525 Mn500 2.209 . S
O525 Mn501 2.215 . S
O525 C502 1.283 . S
O526 Mn500 2.094 . S
O526 C504 1.240 . S
O527 Mn501 2.117 . S
O527 C504 1.264 . S
C528 C521 1.403 . S
C528 C529 1.399 . S
C528 H534 0.929 . S
C529 C509 1.449 . S
C529 C528 1.399 . S
C529 H535 0.930 . S
H530 C510 0.931 . S
H531 C511 0.930 . S
H532 C519 0.931 . S
H533 C520 0.929 . S
H534 C528 0.929 . S
H535 C529 0.930 . S
Mn536 O541 2.095 1_455 S
Mn536 O551 2.162 . S
Mn536 O552 2.297 . S
Mn536 O560 2.385 . S
Mn536 O561 2.209 1_455 S
Mn536 O562 2.094 . S
Mn537 O542 2.121 . S
Mn537 N544 2.257 . S
Mn537 N553 2.282 1_655 S
Mn537 O561 2.215 . S
Mn537 O563 2.117 1_655 S
C538 O560 1.234 . S
C538 O561 1.283 1_455 S
C539 O551 1.281 . S
C539 O552 1.236 . S
C540 O562 1.240 . S
C540 O563 1.264 . S
O541 Mn536 2.095 1_655 S
O541 C550 1.250 . S
O542 Mn537 2.121 . S
O542 C550 1.258 . S
C543 N544 1.326 . S
C543 C547 1.460 . S
C543 H549 0.929 . S
N544 Mn537 2.257 . S
N544 C543 1.326 . S
N544 C548 1.362 . S
C545 C546 1.258 . S
C545 C548 1.431 . S
C545 C565 1.449 . S
C546 C545 1.258 . S
C546 C547 1.477 . S
C546 H566 0.931 . S
C547 C543 1.460 . S
C547 C546 1.477 . S
C547 H567 0.930 . S
C548 N544 1.362 . S
C548 C545 1.431 . S
C548 C558 1.476 . S
H549 C543 0.929 . S
C550 O541 1.250 . S
C550 O542 1.258 . S
O551 Mn536 2.162 . S
O551 C539 1.281 . S
O552 Mn536 2.297 . S
O552 C539 1.236 . S
N553 Mn537 2.282 1_455 S
N553 C554 1.328 . S
N553 C558 1.318 1_455 S
C554 N553 1.328 . S
C554 C555 1.457 . S
C554 H559 0.929 . S
C555 C554 1.457 . S
C555 C556 1.291 . S
C555 H568 0.931 . S
C556 C555 1.291 . S
C556 C557 1.373 1_455 S
C556 H569 0.929 . S
C557 C556 1.373 1_655 S
C557 C558 1.396 . S
C557 C564 1.403 . S
C558 C548 1.476 . S
C558 N553 1.318 1_655 S
C558 C557 1.396 . S
H559 C554 0.929 . S
O560 Mn536 2.385 . S
O560 C538 1.234 . S
O561 Mn536 2.209 1_655 S
O561 Mn537 2.215 . S
O561 C538 1.283 1_655 S
O562 Mn536 2.094 . S
O562 C540 1.240 . S
O563 Mn537 2.117 1_455 S
O563 C540 1.264 . S
C564 C557 1.403 . S
C564 C565 1.399 . S
C564 H570 0.929 . S
C565 C545 1.449 . S
C565 C564 1.399 . S
C565 H571 0.930 . S
H566 C546 0.931 . S
H567 C547 0.930 . S
H568 C555 0.931 . S
H569 C556 0.929 . S
H570 C564 0.929 . S
H571 C565 0.930 . S
Mn572 O577 2.095 . S
Mn572 O587 2.162 . S
Mn572 O588 2.297 . S
Mn572 O596 2.385 . S
Mn572 O597 2.209 . S
Mn572 O598 2.094 . S
Mn573 O578 2.121 . S
Mn573 N580 2.257 . S
Mn573 N589 2.282 . S
Mn573 O597 2.215 . S
Mn573 O599 2.117 . S
C574 O596 1.234 . S
C574 O597 1.283 . S
C575 O587 1.281 . S
C575 O588 1.236 . S
C576 O598 1.240 . S
C576 O599 1.264 . S
O577 Mn572 2.095 . S
O577 C586 1.250 . S
O578 Mn573 2.121 . S
O578 C586 1.258 . S
C579 N580 1.326 . S
C579 C583 1.460 . S
C579 H585 0.929 . S
N580 Mn573 2.257 . S
N580 C579 1.326 . S
N580 C584 1.362 . S
C581 C582 1.258 . S
C581 C584 1.431 . S
C581 C601 1.449 . S
C582 C581 1.258 . S
C582 C583 1.477 . S
C582 H602 0.931 . S
C583 C579 1.460 . S
C583 C582 1.477 . S
C583 H603 0.930 . S
C584 N580 1.362 . S
C584 C581 1.431 . S
C584 C594 1.476 . S
H585 C579 0.929 . S
C586 O577 1.250 . S
C586 O578 1.258 . S
O587 Mn572 2.162 . S
O587 C575 1.281 . S
O588 Mn572 2.297 . S
O588 C575 1.236 . S
N589 Mn573 2.282 . S
N589 C590 1.328 . S
N589 C594 1.318 . S
C590 N589 1.328 . S
C590 C591 1.457 . S
C590 H595 0.929 . S
C591 C590 1.457 . S
C591 C592 1.291 . S
C591 H604 0.931 . S
C592 C591 1.291 . S
C592 C593 1.373 . S
C592 H605 0.929 . S
C593 C592 1.373 . S
C593 C594 1.396 . S
C593 C600 1.403 . S
C594 C584 1.476 . S
C594 N589 1.318 . S
C594 C593 1.396 . S
H595 C590 0.929 . S
O596 Mn572 2.385 . S
O596 C574 1.234 . S
O597 Mn572 2.209 . S
O597 Mn573 2.215 . S
O597 C574 1.283 . S
O598 Mn572 2.094 . S
O598 C576 1.240 . S
O599 Mn573 2.117 . S
O599 C576 1.264 . S
C600 C593 1.403 . S
C600 C601 1.399 . S
C600 H606 0.929 . S
C601 C581 1.449 . S
C601 C600 1.399 . S
C601 H607 0.930 . S
H602 C582 0.931 . S
H603 C583 0.930 . S
H604 C591 0.931 . S
H605 C592 0.929 . S
H606 C600 0.929 . S
H607 C601 0.930 . S
H608 C616 0.950 . S
H609 C621 0.950 . S
H610 C618 0.950 . S
H611 C620 0.950 . S
H612 C622 0.950 . S
H613 C624 0.950 . S
H614 C626 0.950 . S
H615 C627 0.950 . S
C616 H608 0.950 . S
C616 C617 1.386 . S
C616 C618 1.391 . S
C617 C616 1.386 . S
C617 C621 1.393 . S
C618 H610 0.950 . S
C618 C616 1.391 . S
C618 C619 1.400 . S
C619 C618 1.400 . S
C619 C620 1.398 . S
C619 C625 1.491 . S
C620 H611 0.950 . S
C620 C619 1.398 . S
C620 C621 1.391 . S
C621 H609 0.950 . S
C621 C617 1.393 . S
C621 C620 1.391 . S
C622 H612 0.950 . S
C622 C623 1.386 . S
C622 C624 1.391 . S
C623 C622 1.386 . S
C623 C627 1.393 . S
C624 H613 0.950 . S
C624 C622 1.391 . S
C624 C625 1.400 . S
C625 C619 1.491 . S
C625 C624 1.400 . S
C625 C626 1.398 . S
C626 H614 0.950 . S
C626 C625 1.398 . S
C626 C627 1.391 . S
C627 H615 0.950 . S
C627 C623 1.393 . S
C627 C626 1.391 . S
H628 C636 0.950 . S
H629 C641 0.950 . S
H630 C638 0.950 . S
H631 C640 0.950 . S
H632 C642 0.950 . S
H633 C644 0.950 . S
H634 C646 0.950 . S
H635 C647 0.950 . S
C636 H628 0.950 . S
C636 C637 1.386 . S
C636 C638 1.391 . S
C637 C636 1.386 . S
C637 C641 1.393 . S
C638 H630 0.950 . S
C638 C636 1.391 . S
C638 C639 1.400 . S
C639 C638 1.400 . S
C639 C640 1.398 . S
C639 C645 1.491 . S
C640 H631 0.950 . S
C640 C639 1.398 . S
C640 C641 1.391 . S
C641 H629 0.950 . S
C641 C637 1.393 . S
C641 C640 1.391 . S
C642 H632 0.950 . S
C642 C643 1.386 . S
C642 C644 1.391 . S
C643 C642 1.386 . S
C643 C647 1.393 . S
C644 H633 0.950 . S
C644 C642 1.391 . S
C644 C645 1.400 . S
C645 C639 1.491 . S
C645 C644 1.400 . S
C645 C646 1.398 . S
C646 H634 0.950 . S
C646 C645 1.398 . S
C646 C647 1.391 . S
C647 H635 0.950 . S
C647 C643 1.393 . S
C647 C646 1.391 . S
H648 C656 0.950 . S
H649 C661 0.950 . S
H650 C658 0.950 . S
H651 C660 0.950 . S
H652 C662 0.950 . S
H653 C664 0.950 . S
H654 C666 0.950 . S
H655 C667 0.950 . S
C656 H648 0.950 . S
C656 C657 1.386 . S
C656 C658 1.391 . S
C657 C656 1.386 . S
C657 C661 1.393 . S
C658 H650 0.950 . S
C658 C656 1.391 . S
C658 C659 1.400 . S
C659 C658 1.400 . S
C659 C660 1.398 . S
C659 C665 1.491 . S
C660 H651 0.950 . S
C660 C659 1.398 . S
C660 C661 1.391 . S
C661 H649 0.950 . S
C661 C657 1.393 . S
C661 C660 1.391 . S
C662 H652 0.950 . S
C662 C663 1.386 . S
C662 C664 1.391 . S
C663 C662 1.386 . S
C663 C667 1.393 . S
C664 H653 0.950 . S
C664 C662 1.391 . S
C664 C665 1.400 . S
C665 C659 1.491 . S
C665 C664 1.400 . S
C665 C666 1.398 . S
C666 H654 0.950 . S
C666 C665 1.398 . S
C666 C667 1.391 . S
C667 H655 0.950 . S
C667 C663 1.393 . S
C667 C666 1.391 . S
H668 C676 0.950 . S
H669 C681 0.950 . S
H670 C678 0.950 . S
H671 C680 0.950 1_655 S
H672 C682 0.950 . S
H673 C684 0.950 . S
H674 C686 0.950 1_455 S
H675 C687 0.950 1_565 S
C676 H668 0.950 . S
C676 C677 1.386 . S
C676 C678 1.391 . S
C677 C676 1.386 . S
C677 C681 1.393 1_565 S
C678 H670 0.950 . S
C678 C676 1.391 . S
C678 C679 1.400 1_565 S
C679 C678 1.400 1_545 S
C679 C680 1.398 . S
C679 C685 1.491 1_455 S
C680 H671 0.950 1_455 S
C680 C679 1.398 . S
C680 C681 1.391 . S
C681 H669 0.950 . S
C681 C677 1.393 1_545 S
C681 C680 1.391 . S
C682 H672 0.950 . S
C682 C683 1.386 . S
C682 C684 1.391 . S
C683 C682 1.386 . S
C683 C687 1.393 . S
C684 H673 0.950 . S
C684 C682 1.391 . S
C684 C685 1.400 . S
C685 C679 1.491 1_655 S
C685 C684 1.400 . S
C685 C686 1.398 1_545 S
C686 H674 0.950 1_655 S
C686 C685 1.398 1_565 S
C686 C687 1.391 1_565 S
C687 H675 0.950 1_545 S
C687 C683 1.393 . S
C687 C686 1.391 1_545 S
H688 C696 0.950 . S
H689 C701 0.950 . S
H690 C698 0.950 . S
H691 C700 0.950 . S
H692 C702 0.950 . S
H693 C704 0.950 . S
H694 C706 0.950 . S
H695 C707 0.950 . S
C696 H688 0.950 . S
C696 C697 1.386 . S
C696 C698 1.391 . S
C697 C696 1.386 . S
C697 C701 1.393 . S
C698 H690 0.950 . S
C698 C696 1.391 . S
C698 C699 1.400 . S
C699 C698 1.400 . S
C699 C700 1.398 . S
C699 C705 1.491 . S
C700 H691 0.950 . S
C700 C699 1.398 . S
C700 C701 1.391 . S
C701 H689 0.950 . S
C701 C697 1.393 . S
C701 C700 1.391 . S
C702 H692 0.950 . S
C702 C703 1.386 . S
C702 C704 1.391 . S
C703 C702 1.386 . S
C703 C707 1.393 . S
C704 H693 0.950 . S
C704 C702 1.391 . S
C704 C705 1.400 . S
C705 C699 1.491 . S
C705 C704 1.400 . S
C705 C706 1.398 . S
C706 H694 0.950 . S
C706 C705 1.398 . S
C706 C707 1.391 . S
C707 H695 0.950 . S
C707 C703 1.393 . S
C707 C706 1.391 . S
H708 C716 0.950 . S
H709 C721 0.950 . S
H710 C718 0.950 . S
H711 C720 0.950 . S
H712 C722 0.950 . S
H713 C724 0.950 . S
H714 C726 0.950 . S
H715 C727 0.950 . S
C716 H708 0.950 . S
C716 C717 1.386 . S
C716 C718 1.391 . S
C717 C716 1.386 . S
C717 C721 1.393 . S
C718 H710 0.950 . S
C718 C716 1.391 . S
C718 C719 1.400 . S
C719 C718 1.400 . S
C719 C720 1.398 . S
C719 C725 1.491 . S
C720 H711 0.950 . S
C720 C719 1.398 . S
C720 C721 1.391 . S
C721 H709 0.950 . S
C721 C717 1.393 . S
C721 C720 1.391 . S
C722 H712 0.950 . S
C722 C723 1.386 . S
C722 C724 1.391 . S
C723 C722 1.386 . S
C723 C727 1.393 . S
C724 H713 0.950 . S
C724 C722 1.391 . S
C724 C725 1.400 . S
C725 C719 1.491 . S
C725 C724 1.400 . S
C725 C726 1.398 . S
C726 H714 0.950 . S
C726 C725 1.398 . S
C726 C727 1.391 . S
C727 H715 0.950 . S
C727 C723 1.393 . S
C727 C726 1.391 . S
H728 C736 0.950 . S
H729 C741 0.950 . S
H730 C738 0.950 . S
H731 C740 0.950 . S
H732 C742 0.950 . S
H733 C744 0.950 . S
H734 C746 0.950 . S
H735 C747 0.950 . S
C736 H728 0.950 . S
C736 C737 1.386 . S
C736 C738 1.391 . S
C737 C736 1.386 . S
C737 C741 1.393 . S
C738 H730 0.950 . S
C738 C736 1.391 . S
C738 C739 1.400 . S
C739 C738 1.400 . S
C739 C740 1.398 . S
C739 C745 1.491 . S
C740 H731 0.950 . S
C740 C739 1.398 . S
C740 C741 1.391 . S
C741 H729 0.950 . S
C741 C737 1.393 . S
C741 C740 1.391 . S
C742 H732 0.950 . S
C742 C743 1.386 . S
C742 C744 1.391 . S
C743 C742 1.386 . S
C743 C747 1.393 . S
C744 H733 0.950 . S
C744 C742 1.391 . S
C744 C745 1.400 . S
C745 C739 1.491 . S
C745 C744 1.400 . S
C745 C746 1.398 . S
C746 H734 0.950 . S
C746 C745 1.398 . S
C746 C747 1.391 . S
C747 H735 0.950 . S
C747 C743 1.393 . S
C747 C746 1.391 . S
H748 C756 0.950 . S
H749 C761 0.950 . S
H750 C758 0.947 1_545 S
H751 C760 0.950 . S
H752 C762 0.950 . S
H753 C764 0.950 . S
H754 C766 0.952 . S
H755 C767 0.950 . S
C756 H748 0.950 . S
C756 C757 1.386 . S
C756 C758 1.391 . S
C757 C756 1.386 . S
C757 C761 1.393 . S
C758 H750 0.947 1_565 S
C758 C756 1.391 . S
C758 C759 1.400 . S
C759 C758 1.400 . S
C759 C760 1.398 . S
C759 C765 1.491 . S
C760 H751 0.950 . S
C760 C759 1.398 . S
C760 C761 1.391 . S
C761 H749 0.950 . S
C761 C757 1.393 . S
C761 C760 1.391 . S
C762 H752 0.950 . S
C762 C763 1.386 . S
C762 C764 1.391 . S
C763 C762 1.386 . S
C763 C767 1.393 1_565 S
C764 H753 0.950 . S
C764 C762 1.391 . S
C764 C765 1.400 . S
C765 C759 1.491 . S
C765 C764 1.400 . S
C765 C766 1.397 1_565 S
C766 H754 0.952 . S
C766 C765 1.397 1_545 S
C766 C767 1.390 . S
C767 H755 0.950 . S
C767 C763 1.393 1_545 S
C767 C766 1.390 . S
H768 C776 0.950 . S
H769 C781 0.950 . S
H770 C778 0.950 . S
H771 C780 0.950 . S
H772 C782 0.950 . S
H773 C784 0.950 . S
H774 C786 0.950 . S
H775 C787 0.950 . S
C776 H768 0.950 . S
C776 C777 1.386 . S
C776 C778 1.391 . S
C777 C776 1.386 . S
C777 C781 1.393 . S
C778 H770 0.950 . S
C778 C776 1.391 . S
C778 C779 1.400 . S
C779 C778 1.400 . S
C779 C780 1.398 . S
C779 C785 1.491 . S
C780 H771 0.950 . S
C780 C779 1.398 . S
C780 C781 1.391 . S
C781 H769 0.950 . S
C781 C777 1.393 . S
C781 C780 1.391 . S
C782 H772 0.950 . S
C782 C783 1.386 . S
C782 C784 1.391 . S
C783 C782 1.386 . S
C783 C787 1.393 . S
C784 H773 0.950 . S
C784 C782 1.391 . S
C784 C785 1.400 . S
C785 C779 1.491 . S
C785 C784 1.400 . S
C785 C786 1.398 . S
C786 H774 0.950 . S
C786 C785 1.398 . S
C786 C787 1.391 . S
C787 H775 0.950 . S
C787 C783 1.393 . S
C787 C786 1.391 . S
H788 C796 0.950 . S
H789 C801 0.950 . S
H790 C798 0.950 . S
H791 C800 0.950 . S
H792 C802 0.950 . S
H793 C804 0.950 . S
H794 C806 0.950 . S
H795 C807 0.950 . S
C796 H788 0.950 . S
C796 C797 1.386 . S
C796 C798 1.391 . S
C797 C796 1.386 . S
C797 C801 1.393 . S
C798 H790 0.950 . S
C798 C796 1.391 . S
C798 C799 1.400 . S
C799 C798 1.400 . S
C799 C800 1.398 . S
C799 C805 1.491 . S
C800 H791 0.950 . S
C800 C799 1.398 . S
C800 C801 1.391 . S
C801 H789 0.950 . S
C801 C797 1.393 . S
C801 C800 1.391 . S
C802 H792 0.950 . S
C802 C803 1.386 . S
C802 C804 1.391 . S
C803 C802 1.386 . S
C803 C807 1.393 . S
C804 H793 0.950 . S
C804 C802 1.391 . S
C804 C805 1.400 . S
C805 C799 1.491 . S
C805 C804 1.400 . S
C805 C806 1.398 . S
C806 H794 0.950 . S
C806 C805 1.398 . S
C806 C807 1.391 . S
C807 H795 0.950 . S
C807 C803 1.393 . S
C807 C806 1.391 . S
H808 C816 0.950 . S
H809 C821 0.950 . S
H810 C818 0.950 . S
H811 C820 0.950 . S
H812 C822 0.950 . S
H813 C824 0.950 . S
H814 C826 0.950 . S
H815 C827 0.950 . S
C816 H808 0.950 . S
C816 C817 1.386 . S
C816 C818 1.391 . S
C817 C816 1.386 . S
C817 C821 1.393 . S
C818 H810 0.950 . S
C818 C816 1.391 . S
C818 C819 1.400 . S
C819 C818 1.400 . S
C819 C820 1.398 . S
C819 C825 1.491 . S
C820 H811 0.950 . S
C820 C819 1.398 . S
C820 C821 1.391 . S
C821 H809 0.950 . S
C821 C817 1.393 . S
C821 C820 1.391 . S
C822 H812 0.950 . S
C822 C823 1.386 . S
C822 C824 1.391 . S
C823 C822 1.386 . S
C823 C827 1.393 . S
C824 H813 0.950 . S
C824 C822 1.391 . S
C824 C825 1.400 . S
C825 C819 1.491 . S
C825 C824 1.400 . S
C825 C826 1.398 . S
C826 H814 0.950 . S
C826 C825 1.398 . S
C826 C827 1.391 . S
C827 H815 0.950 . S
C827 C823 1.393 . S
C827 C826 1.391 . S
H828 C836 0.950 . S
H829 C841 0.950 . S
H830 C838 0.950 . S
H831 C840 0.950 . S
H832 C842 0.950 . S
H833 C844 0.950 . S
H834 C846 0.950 . S
H835 C847 0.950 . S
C836 H828 0.950 . S
C836 C837 1.386 . S
C836 C838 1.391 . S
C837 C836 1.386 . S
C837 C841 1.393 . S
C838 H830 0.950 . S
C838 C836 1.391 . S
C838 C839 1.400 . S
C839 C838 1.400 . S
C839 C840 1.398 . S
C839 C845 1.491 . S
C840 H831 0.950 . S
C840 C839 1.398 . S
C840 C841 1.391 . S
C841 H829 0.950 . S
C841 C837 1.393 . S
C841 C840 1.391 . S
C842 H832 0.950 . S
C842 C843 1.386 . S
C842 C844 1.391 . S
C843 C842 1.386 . S
C843 C847 1.393 . S
C844 H833 0.950 . S
C844 C842 1.391 . S
C844 C845 1.400 . S
C845 C839 1.491 . S
C845 C844 1.400 . S
C845 C846 1.398 . S
C846 H834 0.950 . S
C846 C845 1.398 . S
C846 C847 1.391 . S
C847 H835 0.950 . S
C847 C843 1.393 . S
C847 C846 1.391 . S
H848 C856 0.950 . S
H849 C861 0.950 . S
H850 C858 0.950 . S
H851 C860 0.950 . S
H852 C862 0.950 . S
H853 C864 0.950 . S
H854 C866 0.950 . S
H855 C867 0.950 . S
C856 H848 0.950 . S
C856 C857 1.386 . S
C856 C858 1.391 . S
C857 C856 1.386 . S
C857 C861 1.393 . S
C858 H850 0.950 . S
C858 C856 1.391 . S
C858 C859 1.400 . S
C859 C858 1.400 . S
C859 C860 1.398 . S
C859 C865 1.491 . S
C860 H851 0.950 . S
C860 C859 1.398 . S
C860 C861 1.391 . S
C861 H849 0.950 . S
C861 C857 1.393 . S
C861 C860 1.391 . S
C862 H852 0.950 . S
C862 C863 1.386 . S
C862 C864 1.391 . S
C863 C862 1.386 . S
C863 C867 1.393 . S
C864 H853 0.950 . S
C864 C862 1.391 . S
C864 C865 1.400 . S
C865 C859 1.491 . S
C865 C864 1.400 . S
C865 C866 1.398 . S
C866 H854 0.950 . S
C866 C865 1.398 . S
C866 C867 1.391 . S
C867 H855 0.950 . S
C867 C863 1.393 . S
C867 C866 1.391 . S
H868 C876 0.950 . S
H869 C881 0.950 . S
H870 C878 0.950 . S
H871 C880 0.950 . S
H872 C882 0.950 . S
H873 C884 0.950 . S
H874 C886 0.950 . S
H875 C887 0.950 . S
C876 H868 0.950 . S
C876 C877 1.386 . S
C876 C878 1.391 . S
C877 C876 1.386 . S
C877 C881 1.393 . S
C878 H870 0.950 . S
C878 C876 1.391 . S
C878 C879 1.400 . S
C879 C878 1.400 . S
C879 C880 1.398 . S
C879 C885 1.491 . S
C880 H871 0.950 . S
C880 C879 1.398 . S
C880 C881 1.391 . S
C881 H869 0.950 . S
C881 C877 1.393 . S
C881 C880 1.391 . S
C882 H872 0.950 . S
C882 C883 1.386 . S
C882 C884 1.391 . S
C883 C882 1.386 . S
C883 C887 1.393 . S
C884 H873 0.950 . S
C884 C882 1.391 . S
C884 C885 1.400 . S
C885 C879 1.491 . S
C885 C884 1.400 . S
C885 C886 1.398 . S
C886 H874 0.950 . S
C886 C885 1.398 . S
C886 C887 1.391 . S
C887 H875 0.950 . S
C887 C883 1.393 . S
C887 C886 1.391 . S
H888 C896 0.950 . S
H889 C901 0.950 . S
H890 C898 0.950 . S
H891 C900 0.950 . S
H892 C902 0.950 . S
H893 C904 0.950 . S
H894 C906 0.950 . S
H895 C907 0.950 . S
C896 H888 0.950 . S
C896 C897 1.386 . S
C896 C898 1.391 . S
C897 C896 1.386 . S
C897 C901 1.393 . S
C898 H890 0.950 . S
C898 C896 1.391 . S
C898 C899 1.400 . S
C899 C898 1.400 . S
C899 C900 1.398 . S
C899 C905 1.491 . S
C900 H891 0.950 . S
C900 C899 1.398 . S
C900 C901 1.391 . S
C901 H889 0.950 . S
C901 C897 1.393 . S
C901 C900 1.391 . S
C902 H892 0.950 . S
C902 C903 1.386 . S
C902 C904 1.391 . S
C903 C902 1.386 . S
C903 C907 1.393 . S
C904 H893 0.950 . S
C904 C902 1.391 . S
C904 C905 1.400 . S
C905 C899 1.491 . S
C905 C904 1.400 . S
C905 C906 1.398 . S
C906 H894 0.950 . S
C906 C905 1.398 . S
C906 C907 1.391 . S
C907 H895 0.950 . S
C907 C903 1.393 . S
C907 C906 1.391 . S
H908 C916 0.950 . S
H909 C921 0.950 . S
H910 C918 0.950 . S
H911 C920 0.950 . S
H912 C922 0.950 . S
H913 C924 0.950 . S
H914 C926 0.950 . S
H915 C927 0.950 . S
C916 H908 0.950 . S
C916 C917 1.386 1_455 S
C916 C918 1.391 . S
C917 C916 1.386 1_655 S
C917 C921 1.393 . S
C918 H910 0.950 . S
C918 C916 1.391 . S
C918 C919 1.400 . S
C919 C918 1.400 . S
C919 C920 1.398 1_455 S
C919 C925 1.491 . S
C920 H911 0.950 . S
C920 C919 1.398 1_655 S
C920 C921 1.391 . S
C921 H909 0.950 . S
C921 C917 1.393 . S
C921 C920 1.391 . S
C922 H912 0.950 . S
C922 C923 1.386 1_655 S
C922 C924 1.391 . S
C923 C922 1.386 1_455 S
C923 C927 1.393 . S
C924 H913 0.950 . S
C924 C922 1.391 . S
C924 C925 1.400 1_655 S
C925 C919 1.491 . S
C925 C924 1.400 1_455 S
C925 C926 1.398 . S
C926 H914 0.950 . S
C926 C925 1.398 . S
C926 C927 1.391 . S
C927 H915 0.950 . S
C927 C923 1.393 . S
C927 C926 1.391 . S
H928 C936 0.950 . S
H929 C941 0.950 . S
H930 C938 0.950 . S
H931 C940 0.950 . S
H932 C942 0.950 . S
H933 C944 0.950 . S
H934 C946 0.950 . S
H935 C947 0.950 . S
C936 H928 0.950 . S
C936 C937 1.386 . S
C936 C938 1.391 . S
C937 C936 1.386 . S
C937 C941 1.393 . S
C938 H930 0.950 . S
C938 C936 1.391 . S
C938 C939 1.400 . S
C939 C938 1.400 . S
C939 C940 1.398 . S
C939 C945 1.491 . S
C940 H931 0.950 . S
C940 C939 1.398 . S
C940 C941 1.391 . S
C941 H929 0.950 . S
C941 C937 1.393 . S
C941 C940 1.391 . S
C942 H932 0.950 . S
C942 C943 1.386 . S
C942 C944 1.391 . S
C943 C942 1.386 . S
C943 C947 1.393 . S
C944 H933 0.950 . S
C944 C942 1.391 . S
C944 C945 1.400 . S
C945 C939 1.491 . S
C945 C944 1.400 . S
C945 C946 1.398 . S
C946 H934 0.950 . S
C946 C945 1.398 . S
C946 C947 1.391 . S
C947 H935 0.950 . S
C947 C943 1.393 . S
C947 C946 1.391 . S
H948 C956 0.950 . S
H949 C961 0.950 . S
H950 C958 0.950 . S
H951 C960 0.950 . S
H952 C962 0.950 . S
H953 C964 0.950 . S
H954 C966 0.950 . S
H955 C967 0.950 . S
C956 H948 0.950 . S
C956 C957 1.386 . S
C956 C958 1.391 . S
C957 C956 1.386 . S
C957 C961 1.393 . S
C958 H950 0.950 . S
C958 C956 1.391 . S
C958 C959 1.400 . S
C959 C958 1.400 . S
C959 C960 1.398 . S
C959 C965 1.491 . S
C960 H951 0.950 . S
C960 C959 1.398 . S
C960 C961 1.391 . S
C961 H949 0.950 . S
C961 C957 1.393 . S
C961 C960 1.391 . S
C962 H952 0.950 . S
C962 C963 1.386 . S
C962 C964 1.391 . S
C963 C962 1.386 . S
C963 C967 1.393 . S
C964 H953 0.950 . S
C964 C962 1.391 . S
C964 C965 1.400 . S
C965 C959 1.491 . S
C965 C964 1.400 . S
C965 C966 1.398 . S
C966 H954 0.950 . S
C966 C965 1.398 . S
C966 C967 1.391 . S
C967 H955 0.950 . S
C967 C963 1.393 . S
C967 C966 1.391 . S
H968 C976 0.950 . S
H969 C981 0.948 . S
H970 C978 0.936 1_545 S
H971 C980 0.950 . S
H972 C982 0.950 . S
H973 C984 0.950 . S
H974 C986 0.950 . S
H975 C987 0.950 . S
C976 H968 0.950 . S
C976 C977 1.386 . S
C976 C978 1.376 1_545 S
C977 C976 1.386 . S
C977 C981 1.416 1_545 S
C978 H970 0.936 1_565 S
C978 C976 1.376 1_565 S
C978 C979 1.429 1_556 S
C979 C978 1.429 1_554 S
C979 C980 1.398 . S
C979 C985 1.491 . S
C980 H971 0.950 . S
C980 C979 1.398 . S
C980 C981 1.373 1_554 S
C981 H969 0.948 . S
C981 C977 1.416 1_565 S
C981 C980 1.373 1_556 S
C982 H972 0.950 . S
C982 C983 1.386 . S
C982 C984 1.391 . S
C983 C982 1.386 . S
C983 C987 1.393 . S
C984 H973 0.950 . S
C984 C982 1.391 . S
C984 C985 1.400 . S
C985 C979 1.491 . S
C985 C984 1.400 . S
C985 C986 1.398 . S
C986 H974 0.950 . S
C986 C985 1.398 . S
C986 C987 1.391 . S
C987 H975 0.950 . S
C987 C983 1.393 . S
C987 C986 1.391 . S
H988 C996 0.950 . S
H989 C1001 0.950 . S
H990 C998 0.950 . S
H991 C1000 0.950 . S
H992 C1002 0.950 . S
H993 C1004 0.950 . S
H994 C1006 0.950 . S
H995 C1007 0.950 . S
C996 H988 0.950 . S
C996 C997 1.386 . S
C996 C998 1.391 . S
C997 C996 1.386 . S
C997 C1001 1.393 . S
C998 H990 0.950 . S
C998 C996 1.391 . S
C998 C999 1.400 . S
C999 C998 1.400 . S
C999 C1000 1.398 . S
C999 C1005 1.491 . S
C1000 H991 0.950 . S
C1000 C999 1.398 . S
C1000 C1001 1.391 . S
C1001 H989 0.950 . S
C1001 C997 1.393 . S
C1001 C1000 1.391 . S
C1002 H992 0.950 . S
C1002 C1003 1.386 . S
C1002 C1004 1.391 . S
C1003 C1002 1.386 . S
C1003 C1007 1.393 . S
C1004 H993 0.950 . S
C1004 C1002 1.391 . S
C1004 C1005 1.400 . S
C1005 C999 1.491 . S
C1005 C1004 1.400 . S
C1005 C1006 1.398 . S
C1006 H994 0.950 . S
C1006 C1005 1.398 . S
C1006 C1007 1.391 . S
C1007 H995 0.950 . S
C1007 C1003 1.393 . S
C1007 C1006 1.391 . S
H1008 C1016 0.950 . S
H1009 C1021 0.950 1_565 S
H1010 C1018 0.950 . S
H1011 C1020 0.950 . S
H1012 C1022 0.950 . S
H1013 C1024 0.950 . S
H1014 C1026 0.950 . S
H1015 C1027 0.950 . S
C1016 H1008 0.950 . S
C1016 C1017 1.386 . S
C1016 C1018 1.391 . S
C1017 C1016 1.386 . S
C1017 C1021 1.393 . S
C1018 H1010 0.950 . S
C1018 C1016 1.391 . S
C1018 C1019 1.400 . S
C1019 C1018 1.400 . S
C1019 C1020 1.398 . S
C1019 C1025 1.491 . S
C1020 H1011 0.950 . S
C1020 C1019 1.398 . S
C1020 C1021 1.391 . S
C1021 H1009 0.950 1_545 S
C1021 C1017 1.393 . S
C1021 C1020 1.391 . S
C1022 H1012 0.950 . S
C1022 C1023 1.386 . S
C1022 C1024 1.391 . S
C1023 C1022 1.386 . S
C1023 C1027 1.393 . S
C1024 H1013 0.950 . S
C1024 C1022 1.391 . S
C1024 C1025 1.400 . S
C1025 C1019 1.491 . S
C1025 C1024 1.400 . S
C1025 C1026 1.398 . S
C1026 H1014 0.950 . S
C1026 C1025 1.398 . S
C1026 C1027 1.391 . S
C1027 H1015 0.950 . S
C1027 C1023 1.393 . S
C1027 C1026 1.391 . S
H1028 C1036 0.950 . S
H1029 C1041 0.950 . S
H1030 C1038 0.950 . S
H1031 C1040 0.950 . S
H1032 C1042 0.950 . S
H1033 C1044 0.950 . S
H1034 C1046 0.950 . S
H1035 C1047 0.950 . S
C1036 H1028 0.950 . S
C1036 C1037 1.386 . S
C1036 C1038 1.391 . S
C1037 C1036 1.386 . S
C1037 C1041 1.393 . S
C1038 H1030 0.950 . S
C1038 C1036 1.391 . S
C1038 C1039 1.400 . S
C1039 C1038 1.400 . S
C1039 C1040 1.398 . S
C1039 C1045 1.491 . S
C1040 H1031 0.950 . S
C1040 C1039 1.398 . S
C1040 C1041 1.391 . S
C1041 H1029 0.950 . S
C1041 C1037 1.393 . S
C1041 C1040 1.391 . S
C1042 H1032 0.950 . S
C1042 C1043 1.386 . S
C1042 C1044 1.391 . S
C1043 C1042 1.386 . S
C1043 C1047 1.393 . S
C1044 H1033 0.950 . S
C1044 C1042 1.391 . S
C1044 C1045 1.400 . S
C1045 C1039 1.491 . S
C1045 C1044 1.400 . S
C1045 C1046 1.398 . S
C1046 H1034 0.950 . S
C1046 C1045 1.398 . S
C1046 C1047 1.391 . S
C1047 H1035 0.950 . S
C1047 C1043 1.393 . S
C1047 C1046 1.391 . S
H1048 C1056 0.950 . S
H1049 C1061 0.950 . S
H1050 C1058 0.950 . S
H1051 C1060 0.950 . S
H1052 C1062 0.950 . S
H1053 C1064 0.950 . S
H1054 C1066 0.950 . S
H1055 C1067 0.950 . S
C1056 H1048 0.950 . S
C1056 C1057 1.386 . S
C1056 C1058 1.391 . S
C1057 C1056 1.386 . S
C1057 C1061 1.393 . S
C1058 H1050 0.950 . S
C1058 C1056 1.391 . S
C1058 C1059 1.400 . S
C1059 C1058 1.400 . S
C1059 C1060 1.398 . S
C1059 C1065 1.491 . S
C1060 H1051 0.950 . S
C1060 C1059 1.398 . S
C1060 C1061 1.391 . S
C1061 H1049 0.950 . S
C1061 C1057 1.393 . S
C1061 C1060 1.391 . S
C1062 H1052 0.950 . S
C1062 C1063 1.386 . S
C1062 C1064 1.391 . S
C1063 C1062 1.386 . S
C1063 C1067 1.393 . S
C1064 H1053 0.950 . S
C1064 C1062 1.391 . S
C1064 C1065 1.400 . S
C1065 C1059 1.491 . S
C1065 C1064 1.400 . S
C1065 C1066 1.398 . S
C1066 H1054 0.950 . S
C1066 C1065 1.398 . S
C1066 C1067 1.391 . S
C1067 H1055 0.950 . S
C1067 C1063 1.393 . S
C1067 C1066 1.391 . S
H1068 C1076 0.950 . S
H1069 C1081 0.950 . S
H1070 C1078 0.950 . S
H1071 C1080 0.950 . S
H1072 C1082 0.950 . S
H1073 C1084 0.950 . S
H1074 C1086 0.950 . S
H1075 C1087 0.950 . S
C1076 H1068 0.950 . S
C1076 C1077 1.386 . S
C1076 C1078 1.391 . S
C1077 C1076 1.386 . S
C1077 C1081 1.393 . S
C1078 H1070 0.950 . S
C1078 C1076 1.391 . S
C1078 C1079 1.400 . S
C1079 C1078 1.400 . S
C1079 C1080 1.398 . S
C1079 C1085 1.491 . S
C1080 H1071 0.950 . S
C1080 C1079 1.398 . S
C1080 C1081 1.391 . S
C1081 H1069 0.950 . S
C1081 C1077 1.393 . S
C1081 C1080 1.391 . S
C1082 H1072 0.950 . S
C1082 C1083 1.386 . S
C1082 C1084 1.391 . S
C1083 C1082 1.386 . S
C1083 C1087 1.393 . S
C1084 H1073 0.950 . S
C1084 C1082 1.391 . S
C1084 C1085 1.400 . S
C1085 C1079 1.491 . S
C1085 C1084 1.400 . S
C1085 C1086 1.398 . S
C1086 H1074 0.950 . S
C1086 C1085 1.398 . S
C1086 C1087 1.391 . S
C1087 H1075 0.950 . S
C1087 C1083 1.393 . S
C1087 C1086 1.391 . S
H1088 C1096 0.950 . S
H1089 C1101 0.950 . S
H1090 C1098 0.950 . S
H1091 C1100 0.950 . S
H1092 C1102 0.950 . S
H1093 C1104 0.950 . S
H1094 C1106 0.950 . S
H1095 C1107 0.950 . S
C1096 H1088 0.950 . S
C1096 C1097 1.386 . S
C1096 C1098 1.391 . S
C1097 C1096 1.386 . S
C1097 C1101 1.393 . S
C1098 H1090 0.950 . S
C1098 C1096 1.391 . S
C1098 C1099 1.400 . S
C1099 C1098 1.400 . S
C1099 C1100 1.398 . S
C1099 C1105 1.491 . S
C1100 H1091 0.950 . S
C1100 C1099 1.398 . S
C1100 C1101 1.391 . S
C1101 H1089 0.950 . S
C1101 C1097 1.393 . S
C1101 C1100 1.391 . S
C1102 H1092 0.950 . S
C1102 C1103 1.386 . S
C1102 C1104 1.391 . S
C1103 C1102 1.386 . S
C1103 C1107 1.393 . S
C1104 H1093 0.950 . S
C1104 C1102 1.391 . S
C1104 C1105 1.400 . S
C1105 C1099 1.491 . S
C1105 C1104 1.400 . S
C1105 C1106 1.398 . S
C1106 H1094 0.950 . S
C1106 C1105 1.398 . S
C1106 C1107 1.391 . S
C1107 H1095 0.950 . S
C1107 C1103 1.393 . S
C1107 C1106 1.391 . S
H1108 C1116 0.950 1_565 S
H1109 C1121 0.950 . S
H1110 C1118 0.950 1_565 S
H1111 C1120 0.950 . S
H1112 C1122 0.950 . S
H1113 C1124 0.950 . S
H1114 C1126 0.950 . S
H1115 C1127 0.950 . S
C1116 H1108 0.950 1_545 S
C1116 C1117 1.386 . S
C1116 C1118 1.391 . S
C1117 C1116 1.386 . S
C1117 C1121 1.393 . S
C1118 H1110 0.950 1_545 S
C1118 C1116 1.391 . S
C1118 C1119 1.400 . S
C1119 C1118 1.400 . S
C1119 C1120 1.398 . S
C1119 C1125 1.491 . S
C1120 H1111 0.950 . S
C1120 C1119 1.398 . S
C1120 C1121 1.391 . S
C1121 H1109 0.950 . S
C1121 C1117 1.393 . S
C1121 C1120 1.391 . S
C1122 H1112 0.950 . S
C1122 C1123 1.386 . S
C1122 C1124 1.391 . S
C1123 C1122 1.386 . S
C1123 C1127 1.393 1_545 S
C1124 H1113 0.950 . S
C1124 C1122 1.391 . S
C1124 C1125 1.400 . S
C1125 C1119 1.491 . S
C1125 C1124 1.400 . S
C1125 C1126 1.398 1_545 S
C1126 H1114 0.950 . S
C1126 C1125 1.398 1_565 S
C1126 C1127 1.391 . S
C1127 H1115 0.950 . S
C1127 C1123 1.393 1_565 S
C1127 C1126 1.391 . S
H1128 C1136 0.950 . S
H1129 C1141 0.950 . S
H1130 C1138 0.950 . S
H1131 C1140 0.950 . S
H1132 C1142 0.950 . S
H1133 C1144 0.950 . S
H1134 C1146 0.950 . S
H1135 C1147 0.950 . S
C1136 H1128 0.950 . S
C1136 C1137 1.386 . S
C1136 C1138 1.391 . S
C1137 C1136 1.386 . S
C1137 C1141 1.393 . S
C1138 H1130 0.950 . S
C1138 C1136 1.391 . S
C1138 C1139 1.400 . S
C1139 C1138 1.400 . S
C1139 C1140 1.398 . S
C1139 C1145 1.491 . S
C1140 H1131 0.950 . S
C1140 C1139 1.398 . S
C1140 C1141 1.391 . S
C1141 H1129 0.950 . S
C1141 C1137 1.393 . S
C1141 C1140 1.391 . S
C1142 H1132 0.950 . S
C1142 C1143 1.386 . S
C1142 C1144 1.391 . S
C1143 C1142 1.386 . S
C1143 C1147 1.393 . S
C1144 H1133 0.950 . S
C1144 C1142 1.391 . S
C1144 C1145 1.400 . S
C1145 C1139 1.491 . S
C1145 C1144 1.400 . S
C1145 C1146 1.398 . S
C1146 H1134 0.950 . S
C1146 C1145 1.398 . S
C1146 C1147 1.391 . S
C1147 H1135 0.950 . S
C1147 C1143 1.393 . S
C1147 C1146 1.391 . S
H1148 C1156 0.950 . S
H1149 C1161 0.950 . S
H1150 C1158 0.950 . S
H1151 C1160 0.950 . S
H1152 C1162 0.950 . S
H1153 C1164 0.950 . S
H1154 C1166 0.950 . S
H1155 C1167 0.950 . S
C1156 H1148 0.950 . S
C1156 C1157 1.386 . S
C1156 C1158 1.391 . S
C1157 C1156 1.386 . S
C1157 C1161 1.393 . S
C1158 H1150 0.950 . S
C1158 C1156 1.391 . S
C1158 C1159 1.400 . S
C1159 C1158 1.400 . S
C1159 C1160 1.398 . S
C1159 C1165 1.491 . S
C1160 H1151 0.950 . S
C1160 C1159 1.398 . S
C1160 C1161 1.391 . S
C1161 H1149 0.950 . S
C1161 C1157 1.393 . S
C1161 C1160 1.391 . S
C1162 H1152 0.950 . S
C1162 C1163 1.386 . S
C1162 C1164 1.391 . S
C1163 C1162 1.386 . S
C1163 C1167 1.393 . S
C1164 H1153 0.950 . S
C1164 C1162 1.391 . S
C1164 C1165 1.400 . S
C1165 C1159 1.491 . S
C1165 C1164 1.400 . S
C1165 C1166 1.398 . S
C1166 H1154 0.950 . S
C1166 C1165 1.398 . S
C1166 C1167 1.391 . S
C1167 H1155 0.950 . S
C1167 C1163 1.393 . S
C1167 C1166 1.391 . S
H1168 C1176 0.950 . S
H1169 C1181 0.950 . S
H1170 C1178 0.950 . S
H1171 C1180 0.950 . S
H1172 C1182 0.950 . S
H1173 C1184 0.950 . S
H1174 C1186 0.950 . S
H1175 C1187 0.950 . S
C1176 H1168 0.950 . S
C1176 C1177 1.386 . S
C1176 C1178 1.391 . S
C1177 C1176 1.386 . S
C1177 C1181 1.393 . S
C1178 H1170 0.950 . S
C1178 C1176 1.391 . S
C1178 C1179 1.400 . S
C1179 C1178 1.400 . S
C1179 C1180 1.398 . S
C1179 C1185 1.491 . S
C1180 H1171 0.950 . S
C1180 C1179 1.398 . S
C1180 C1181 1.391 . S
C1181 H1169 0.950 . S
C1181 C1177 1.393 . S
C1181 C1180 1.391 . S
C1182 H1172 0.950 . S
C1182 C1183 1.386 . S
C1182 C1184 1.391 . S
C1183 C1182 1.386 . S
C1183 C1187 1.393 . S
C1184 H1173 0.950 . S
C1184 C1182 1.391 . S
C1184 C1185 1.400 . S
C1185 C1179 1.491 . S
C1185 C1184 1.400 . S
C1185 C1186 1.398 . S
C1186 H1174 0.950 . S
C1186 C1185 1.398 . S
C1186 C1187 1.391 . S
C1187 H1175 0.950 . S
C1187 C1183 1.393 . S
C1187 C1186 1.391 . S
H1188 C1196 0.950 . S
H1189 C1201 0.950 . S
H1190 C1198 0.950 . S
H1191 C1200 0.931 1_655 S
H1192 C1202 0.950 1_565 S
H1193 C1204 0.953 . S
H1194 C1206 0.950 . S
H1195 C1207 0.950 . S
C1196 H1188 0.950 . S
C1196 C1197 1.386 . S
C1196 C1198 1.391 . S
C1197 C1196 1.386 . S
C1197 C1201 1.393 . S
C1198 H1190 0.950 . S
C1198 C1196 1.391 . S
C1198 C1199 1.400 . S
C1199 C1198 1.400 . S
C1199 C1200 1.404 . S
C1199 C1205 1.491 1_455 S
C1200 H1191 0.931 1_455 S
C1200 C1199 1.404 . S
C1200 C1201 1.405 . S
C1201 H1189 0.950 . S
C1201 C1197 1.393 . S
C1201 C1200 1.405 . S
C1202 H1192 0.950 1_545 S
C1202 C1203 1.386 . S
C1202 C1204 1.391 . S
C1203 C1202 1.386 . S
C1203 C1207 1.393 . S
C1204 H1193 0.953 . S
C1204 C1202 1.391 . S
C1204 C1205 1.400 . S
C1205 C1199 1.491 1_655 S
C1205 C1204 1.400 . S
C1205 C1206 1.398 1_655 S
C1206 H1194 0.950 . S
C1206 C1205 1.398 1_455 S
C1206 C1207 1.391 1_455 S
C1207 H1195 0.950 . S
C1207 C1203 1.393 . S
C1207 C1206 1.391 1_655 S
H1208 C1216 0.950 . S
H1209 C1221 0.950 . S
H1210 C1218 0.950 . S
H1211 C1220 0.950 . S
H1212 C1222 0.950 . S
H1213 C1224 0.950 . S
H1214 C1226 0.950 . S
H1215 C1227 0.950 . S
C1216 H1208 0.950 . S
C1216 C1217 1.386 . S
C1216 C1218 1.391 . S
C1217 C1216 1.386 . S
C1217 C1221 1.393 . S
C1218 H1210 0.950 . S
C1218 C1216 1.391 . S
C1218 C1219 1.400 . S
C1219 C1218 1.400 . S
C1219 C1220 1.398 . S
C1219 C1225 1.491 . S
C1220 H1211 0.950 . S
C1220 C1219 1.398 . S
C1220 C1221 1.391 . S
C1221 H1209 0.950 . S
C1221 C1217 1.393 . S
C1221 C1220 1.391 . S
C1222 H1212 0.950 . S
C1222 C1223 1.386 . S
C1222 C1224 1.391 . S
C1223 C1222 1.386 . S
C1223 C1227 1.393 . S
C1224 H1213 0.950 . S
C1224 C1222 1.391 . S
C1224 C1225 1.400 . S
C1225 C1219 1.491 . S
C1225 C1224 1.400 . S
C1225 C1226 1.398 . S
C1226 H1214 0.950 . S
C1226 C1225 1.398 . S
C1226 C1227 1.391 . S
C1227 H1215 0.950 . S
C1227 C1223 1.393 . S
C1227 C1226 1.391 . S
H1228 C1236 0.950 . S
H1229 C1241 0.950 . S
H1230 C1238 0.950 . S
H1231 C1240 0.950 . S
H1232 C1242 0.950 . S
H1233 C1244 0.950 . S
H1234 C1246 0.950 . S
H1235 C1247 0.950 . S
C1236 H1228 0.950 . S
C1236 C1237 1.386 . S
C1236 C1238 1.391 . S
C1237 C1236 1.386 . S
C1237 C1241 1.393 . S
C1238 H1230 0.950 . S
C1238 C1236 1.391 . S
C1238 C1239 1.400 . S
C1239 C1238 1.400 . S
C1239 C1240 1.398 . S
C1239 C1245 1.491 . S
C1240 H1231 0.950 . S
C1240 C1239 1.398 . S
C1240 C1241 1.391 . S
C1241 H1229 0.950 . S
C1241 C1237 1.393 . S
C1241 C1240 1.391 . S
C1242 H1232 0.950 . S
C1242 C1243 1.386 . S
C1242 C1244 1.391 . S
C1243 C1242 1.386 . S
C1243 C1247 1.393 . S
C1244 H1233 0.950 . S
C1244 C1242 1.391 . S
C1244 C1245 1.400 . S
C1245 C1239 1.491 . S
C1245 C1244 1.400 . S
C1245 C1246 1.398 . S
C1246 H1234 0.950 . S
C1246 C1245 1.398 . S
C1246 C1247 1.391 . S
C1247 H1235 0.950 . S
C1247 C1243 1.393 . S
C1247 C1246 1.391 . S
H1248 C1256 0.950 . S
H1249 C1261 0.950 . S
H1250 C1258 0.950 . S
H1251 C1260 0.950 . S
H1252 C1262 0.950 . S
H1253 C1264 0.950 . S
H1254 C1266 0.950 . S
H1255 C1267 0.950 . S
C1256 H1248 0.950 . S
C1256 C1257 1.386 . S
C1256 C1258 1.391 . S
C1257 C1256 1.386 . S
C1257 C1261 1.393 . S
C1258 H1250 0.950 . S
C1258 C1256 1.391 . S
C1258 C1259 1.400 . S
C1259 C1258 1.400 . S
C1259 C1260 1.398 . S
C1259 C1265 1.491 . S
C1260 H1251 0.950 . S
C1260 C1259 1.398 . S
C1260 C1261 1.391 . S
C1261 H1249 0.950 . S
C1261 C1257 1.393 . S
C1261 C1260 1.391 . S
C1262 H1252 0.950 . S
C1262 C1263 1.386 . S
C1262 C1264 1.391 . S
C1263 C1262 1.386 . S
C1263 C1267 1.393 . S
C1264 H1253 0.950 . S
C1264 C1262 1.391 . S
C1264 C1265 1.400 . S
C1265 C1259 1.491 . S
C1265 C1264 1.400 . S
C1265 C1266 1.398 . S
C1266 H1254 0.950 . S
C1266 C1265 1.398 . S
C1266 C1267 1.391 . S
C1267 H1255 0.950 . S
C1267 C1263 1.393 . S
C1267 C1266 1.391 . S
H1268 C1276 0.950 . S
H1269 C1281 0.950 . S
H1270 C1278 0.950 . S
H1271 C1280 0.950 . S
H1272 C1282 0.950 . S
H1273 C1284 0.950 . S
H1274 C1286 0.950 . S
H1275 C1287 0.950 . S
C1276 H1268 0.950 . S
C1276 C1277 1.386 . S
C1276 C1278 1.391 1_554 S
C1277 C1276 1.386 . S
C1277 C1281 1.393 1_454 S
C1278 H1270 0.950 . S
C1278 C1276 1.391 1_556 S
C1278 C1279 1.400 . S
C1279 C1278 1.400 . S
C1279 C1280 1.398 1_455 S
C1279 C1285 1.491 . S
C1280 H1271 0.950 . S
C1280 C1279 1.398 1_655 S
C1280 C1281 1.391 . S
C1281 H1269 0.950 . S
C1281 C1277 1.393 1_656 S
C1281 C1280 1.391 . S
C1282 H1272 0.950 . S
C1282 C1283 1.386 1_655 S
C1282 C1284 1.391 . S
C1283 C1282 1.386 1_455 S
C1283 C1287 1.393 . S
C1284 H1273 0.950 . S
C1284 C1282 1.391 . S
C1284 C1285 1.400 1_655 S
C1285 C1279 1.491 . S
C1285 C1284 1.400 1_455 S
C1285 C1286 1.398 . S
C1286 H1274 0.950 . S
C1286 C1285 1.398 . S
C1286 C1287 1.391 . S
C1287 H1275 0.950 . S
C1287 C1283 1.393 . S
C1287 C1286 1.391 . S
H1288 C1296 0.950 . S
H1289 C1301 0.950 . S
H1290 C1298 0.950 . S
H1291 C1300 0.950 . S
H1292 C1302 0.950 . S
H1293 C1304 0.950 . S
H1294 C1306 0.950 . S
H1295 C1307 0.950 . S
C1296 H1288 0.950 . S
C1296 C1297 1.386 . S
C1296 C1298 1.391 . S
C1297 C1296 1.386 . S
C1297 C1301 1.393 . S
C1298 H1290 0.950 . S
C1298 C1296 1.391 . S
C1298 C1299 1.400 . S
C1299 C1298 1.400 . S
C1299 C1300 1.398 . S
C1299 C1305 1.491 . S
C1300 H1291 0.950 . S
C1300 C1299 1.398 . S
C1300 C1301 1.391 . S
C1301 H1289 0.950 . S
C1301 C1297 1.393 . S
C1301 C1300 1.391 . S
C1302 H1292 0.950 . S
C1302 C1303 1.386 . S
C1302 C1304 1.391 . S
C1303 C1302 1.386 . S
C1303 C1307 1.393 . S
C1304 H1293 0.950 . S
C1304 C1302 1.391 . S
C1304 C1305 1.400 . S
C1305 C1299 1.491 . S
C1305 C1304 1.400 . S
C1305 C1306 1.398 . S
C1306 H1294 0.950 . S
C1306 C1305 1.398 . S
C1306 C1307 1.391 . S
C1307 H1295 0.950 . S
C1307 C1303 1.393 . S
C1307 C1306 1.391 . S
H1308 C1316 0.950 . S
H1309 C1321 0.950 . S
H1310 C1318 0.950 . S
H1311 C1320 0.950 . S
H1312 C1322 0.950 . S
H1313 C1324 0.950 . S
H1314 C1326 0.950 . S
H1315 C1327 0.950 . S
C1316 H1308 0.950 . S
C1316 C1317 1.386 . S
C1316 C1318 1.391 . S
C1317 C1316 1.386 . S
C1317 C1321 1.393 1_556 S
C1318 H1310 0.950 . S
C1318 C1316 1.391 . S
C1318 C1319 1.400 . S
C1319 C1318 1.400 . S
C1319 C1320 1.398 . S
C1319 C1325 1.491 . S
C1320 H1311 0.950 . S
C1320 C1319 1.398 . S
C1320 C1321 1.391 1_556 S
C1321 H1309 0.950 . S
C1321 C1317 1.393 1_554 S
C1321 C1320 1.391 1_554 S
C1322 H1312 0.950 . S
C1322 C1323 1.386 . S
C1322 C1324 1.391 . S
C1323 C1322 1.386 . S
C1323 C1327 1.393 . S
C1324 H1313 0.950 . S
C1324 C1322 1.391 . S
C1324 C1325 1.400 . S
C1325 C1319 1.491 . S
C1325 C1324 1.400 . S
C1325 C1326 1.398 . S
C1326 H1314 0.950 . S
C1326 C1325 1.398 . S
C1326 C1327 1.391 . S
C1327 H1315 0.950 . S
C1327 C1323 1.393 . S
C1327 C1326 1.391 . S
H1328 C1336 0.950 . S
H1329 C1341 0.950 . S
H1330 C1338 0.950 . S
H1331 C1340 0.950 . S
H1332 C1342 0.950 . S
H1333 C1344 0.950 . S
H1334 C1346 0.950 . S
H1335 C1347 0.950 . S
C1336 H1328 0.950 . S
C1336 C1337 1.386 . S
C1336 C1338 1.391 . S
C1337 C1336 1.386 . S
C1337 C1341 1.393 . S
C1338 H1330 0.950 . S
C1338 C1336 1.391 . S
C1338 C1339 1.400 . S
C1339 C1338 1.400 . S
C1339 C1340 1.398 . S
C1339 C1345 1.491 . S
C1340 H1331 0.950 . S
C1340 C1339 1.398 . S
C1340 C1341 1.391 . S
C1341 H1329 0.950 . S
C1341 C1337 1.393 . S
C1341 C1340 1.391 . S
C1342 H1332 0.950 . S
C1342 C1343 1.386 . S
C1342 C1344 1.391 . S
C1343 C1342 1.386 . S
C1343 C1347 1.393 . S
C1344 H1333 0.950 . S
C1344 C1342 1.391 . S
C1344 C1345 1.400 . S
C1345 C1339 1.491 . S
C1345 C1344 1.400 . S
C1345 C1346 1.398 . S
C1346 H1334 0.950 . S
C1346 C1345 1.398 . S
C1346 C1347 1.391 . S
C1347 H1335 0.950 . S
C1347 C1343 1.393 . S
C1347 C1346 1.391 . S
H1348 C1356 0.950 . S
H1349 C1361 0.950 . S
H1350 C1358 0.950 . S
H1351 C1360 0.950 . S
H1352 C1362 0.950 . S
H1353 C1364 0.950 . S
H1354 C1366 0.950 . S
H1355 C1367 0.950 . S
C1356 H1348 0.950 . S
C1356 C1357 1.386 . S
C1356 C1358 1.391 . S
C1357 C1356 1.386 . S
C1357 C1361 1.393 . S
C1358 H1350 0.950 . S
C1358 C1356 1.391 . S
C1358 C1359 1.400 . S
C1359 C1358 1.400 . S
C1359 C1360 1.398 . S
C1359 C1365 1.491 . S
C1360 H1351 0.950 . S
C1360 C1359 1.398 . S
C1360 C1361 1.391 . S
C1361 H1349 0.950 . S
C1361 C1357 1.393 . S
C1361 C1360 1.391 . S
C1362 H1352 0.950 . S
C1362 C1363 1.386 . S
C1362 C1364 1.391 . S
C1363 C1362 1.386 . S
C1363 C1367 1.393 . S
C1364 H1353 0.950 . S
C1364 C1362 1.391 . S
C1364 C1365 1.400 . S
C1365 C1359 1.491 . S
C1365 C1364 1.400 . S
C1365 C1366 1.398 . S
C1366 H1354 0.950 . S
C1366 C1365 1.398 . S
C1366 C1367 1.391 . S
C1367 H1355 0.950 . S
C1367 C1363 1.393 . S
C1367 C1366 1.391 . S
H1368 C1376 0.950 . S
H1369 C1381 0.950 . S
H1370 C1378 0.950 . S
H1371 C1380 0.950 . S
H1372 C1382 0.950 . S
H1373 C1384 0.950 . S
H1374 C1386 0.950 . S
H1375 C1387 0.950 . S
C1376 H1368 0.950 . S
C1376 C1377 1.386 . S
C1376 C1378 1.391 . S
C1377 C1376 1.386 . S
C1377 C1381 1.393 . S
C1378 H1370 0.950 . S
C1378 C1376 1.391 . S
C1378 C1379 1.400 . S
C1379 C1378 1.400 . S
C1379 C1380 1.398 . S
C1379 C1385 1.491 . S
C1380 H1371 0.950 . S
C1380 C1379 1.398 . S
C1380 C1381 1.391 . S
C1381 H1369 0.950 . S
C1381 C1377 1.393 . S
C1381 C1380 1.391 . S
C1382 H1372 0.950 . S
C1382 C1383 1.386 . S
C1382 C1384 1.391 . S
C1383 C1382 1.386 . S
C1383 C1387 1.393 . S
C1384 H1373 0.950 . S
C1384 C1382 1.391 . S
C1384 C1385 1.400 . S
C1385 C1379 1.491 . S
C1385 C1384 1.400 . S
C1385 C1386 1.398 . S
C1386 H1374 0.950 . S
C1386 C1385 1.398 . S
C1386 C1387 1.391 . S
C1387 H1375 0.950 . S
C1387 C1383 1.393 . S
C1387 C1386 1.391 . S
H1388 C1396 0.950 . S
H1389 C1401 0.950 . S
H1390 C1398 0.950 . S
H1391 C1400 0.950 . S
H1392 C1402 0.950 . S
H1393 C1404 0.950 . S
H1394 C1406 0.950 . S
H1395 C1407 0.950 . S
C1396 H1388 0.950 . S
C1396 C1397 1.386 . S
C1396 C1398 1.391 . S
C1397 C1396 1.386 . S
C1397 C1401 1.393 . S
C1398 H1390 0.950 . S
C1398 C1396 1.391 . S
C1398 C1399 1.400 . S
C1399 C1398 1.400 . S
C1399 C1400 1.398 . S
C1399 C1405 1.491 . S
C1400 H1391 0.950 . S
C1400 C1399 1.398 . S
C1400 C1401 1.391 . S
C1401 H1389 0.950 . S
C1401 C1397 1.393 . S
C1401 C1400 1.391 . S
C1402 H1392 0.950 . S
C1402 C1403 1.386 . S
C1402 C1404 1.391 . S
C1403 C1402 1.386 . S
C1403 C1407 1.393 . S
C1404 H1393 0.950 . S
C1404 C1402 1.391 . S
C1404 C1405 1.400 . S
C1405 C1399 1.491 . S
C1405 C1404 1.400 . S
C1405 C1406 1.398 . S
C1406 H1394 0.950 . S
C1406 C1405 1.398 . S
C1406 C1407 1.391 . S
C1407 H1395 0.950 . S
C1407 C1403 1.393 . S
C1407 C1406 1.391 . S
H1408 C1416 0.950 . S
H1409 C1421 0.950 . S
H1410 C1418 0.950 . S
H1411 C1420 0.950 . S
H1412 C1422 0.950 . S
H1413 C1424 0.950 . S
H1414 C1426 0.950 . S
H1415 C1427 0.950 . S
C1416 H1408 0.950 . S
C1416 C1417 1.386 . S
C1416 C1418 1.391 . S
C1417 C1416 1.386 . S
C1417 C1421 1.393 . S
C1418 H1410 0.950 . S
C1418 C1416 1.391 . S
C1418 C1419 1.400 . S
C1419 C1418 1.400 . S
C1419 C1420 1.398 . S
C1419 C1425 1.491 . S
C1420 H1411 0.950 . S
C1420 C1419 1.398 . S
C1420 C1421 1.391 . S
C1421 H1409 0.950 . S
C1421 C1417 1.393 . S
C1421 C1420 1.391 . S
C1422 H1412 0.950 . S
C1422 C1423 1.386 . S
C1422 C1424 1.391 . S
C1423 C1422 1.386 . S
C1423 C1427 1.393 . S
C1424 H1413 0.950 . S
C1424 C1422 1.391 . S
C1424 C1425 1.400 . S
C1425 C1419 1.491 . S
C1425 C1424 1.400 . S
C1425 C1426 1.398 . S
C1426 H1414 0.950 . S
C1426 C1425 1.398 . S
C1426 C1427 1.391 . S
C1427 H1415 0.950 . S
C1427 C1423 1.393 . S
C1427 C1426 1.391 . S
H1428 C1436 0.950 . S
H1429 C1441 0.950 . S
H1430 C1438 0.950 . S
H1431 C1440 0.950 . S
H1432 C1442 0.950 . S
H1433 C1444 0.950 . S
H1434 C1446 0.950 . S
H1435 C1447 0.950 . S
C1436 H1428 0.950 . S
C1436 C1437 1.386 . S
C1436 C1438 1.391 . S
C1437 C1436 1.386 . S
C1437 C1441 1.393 . S
C1438 H1430 0.950 . S
C1438 C1436 1.391 . S
C1438 C1439 1.400 . S
C1439 C1438 1.400 . S
C1439 C1440 1.398 . S
C1439 C1445 1.491 . S
C1440 H1431 0.950 . S
C1440 C1439 1.398 . S
C1440 C1441 1.391 . S
C1441 H1429 0.950 . S
C1441 C1437 1.393 . S
C1441 C1440 1.391 . S
C1442 H1432 0.950 . S
C1442 C1443 1.386 . S
C1442 C1444 1.391 . S
C1443 C1442 1.386 . S
C1443 C1447 1.393 . S
C1444 H1433 0.950 . S
C1444 C1442 1.391 . S
C1444 C1445 1.400 . S
C1445 C1439 1.491 . S
C1445 C1444 1.400 . S
C1445 C1446 1.398 . S
C1446 H1434 0.950 . S
C1446 C1445 1.398 . S
C1446 C1447 1.391 . S
C1447 H1435 0.950 . S
C1447 C1443 1.393 . S
C1447 C1446 1.391 . S
H1448 C1456 0.950 . S
H1449 C1461 0.950 . S
H1450 C1458 0.950 . S
H1451 C1460 0.950 . S
H1452 C1462 0.950 . S
H1453 C1464 0.950 . S
H1454 C1466 0.950 . S
H1455 C1467 0.950 . S
C1456 H1448 0.950 . S
C1456 C1457 1.386 . S
C1456 C1458 1.391 . S
C1457 C1456 1.386 . S
C1457 C1461 1.393 . S
C1458 H1450 0.950 . S
C1458 C1456 1.391 . S
C1458 C1459 1.400 . S
C1459 C1458 1.400 . S
C1459 C1460 1.398 . S
C1459 C1465 1.491 . S
C1460 H1451 0.950 . S
C1460 C1459 1.398 . S
C1460 C1461 1.391 . S
C1461 H1449 0.950 . S
C1461 C1457 1.393 . S
C1461 C1460 1.391 . S
C1462 H1452 0.950 . S
C1462 C1463 1.386 . S
C1462 C1464 1.391 . S
C1463 C1462 1.386 . S
C1463 C1467 1.393 . S
C1464 H1453 0.950 . S
C1464 C1462 1.391 . S
C1464 C1465 1.400 . S
C1465 C1459 1.491 . S
C1465 C1464 1.400 . S
C1465 C1466 1.398 . S
C1466 H1454 0.950 . S
C1466 C1465 1.398 . S
C1466 C1467 1.391 . S
C1467 H1455 0.950 . S
C1467 C1463 1.393 . S
C1467 C1466 1.391 . S
H1468 C1476 0.950 . S
H1469 C1481 0.950 . S
H1470 C1478 0.950 . S
H1471 C1480 0.950 . S
H1472 C1482 0.950 . S
H1473 C1484 0.950 . S
H1474 C1486 0.950 . S
H1475 C1487 0.950 . S
C1476 H1468 0.950 . S
C1476 C1477 1.386 . S
C1476 C1478 1.391 . S
C1477 C1476 1.386 . S
C1477 C1481 1.393 . S
C1478 H1470 0.950 . S
C1478 C1476 1.391 . S
C1478 C1479 1.400 . S
C1479 C1478 1.400 . S
C1479 C1480 1.398 . S
C1479 C1485 1.491 . S
C1480 H1471 0.950 . S
C1480 C1479 1.398 . S
C1480 C1481 1.391 . S
C1481 H1469 0.950 . S
C1481 C1477 1.393 . S
C1481 C1480 1.391 . S
C1482 H1472 0.950 . S
C1482 C1483 1.386 . S
C1482 C1484 1.391 . S
C1483 C1482 1.386 . S
C1483 C1487 1.393 . S
C1484 H1473 0.950 . S
C1484 C1482 1.391 . S
C1484 C1485 1.400 . S
C1485 C1479 1.491 . S
C1485 C1484 1.400 . S
C1485 C1486 1.398 . S
C1486 H1474 0.950 . S
C1486 C1485 1.398 . S
C1486 C1487 1.391 . S
C1487 H1475 0.950 . S
C1487 C1483 1.393 . S
C1487 C1486 1.391 . S
H1488 C1496 0.950 . S
H1489 C1501 0.950 . S
H1490 C1498 0.950 . S
H1491 C1500 0.950 . S
H1492 C1502 0.950 . S
H1493 C1504 0.950 . S
H1494 C1506 0.950 . S
H1495 C1507 0.950 . S
C1496 H1488 0.950 . S
C1496 C1497 1.386 1_554 S
C1496 C1498 1.391 . S
C1497 C1496 1.386 1_556 S
C1497 C1501 1.393 . S
C1498 H1490 0.950 . S
C1498 C1496 1.391 . S
C1498 C1499 1.400 1_554 S
C1499 C1498 1.400 1_556 S
C1499 C1500 1.398 . S
C1499 C1505 1.491 . S
C1500 H1491 0.950 . S
C1500 C1499 1.398 . S
C1500 C1501 1.391 . S
C1501 H1489 0.950 . S
C1501 C1497 1.393 . S
C1501 C1500 1.391 . S
C1502 H1492 0.950 . S
C1502 C1503 1.386 . S
C1502 C1504 1.391 . S
C1503 C1502 1.386 . S
C1503 C1507 1.393 1_556 S
C1504 H1493 0.950 . S
C1504 C1502 1.391 . S
C1504 C1505 1.400 . S
C1505 C1499 1.491 . S
C1505 C1504 1.400 . S
C1505 C1506 1.398 1_556 S
C1506 H1494 0.950 . S
C1506 C1505 1.398 1_554 S
C1506 C1507 1.391 . S
C1507 H1495 0.950 . S
C1507 C1503 1.393 1_554 S
C1507 C1506 1.391 . S
H1508 C1516 0.950 . S
H1509 C1521 0.950 . S
H1510 C1518 0.950 . S
H1511 C1520 0.950 . S
H1512 C1522 0.950 . S
H1513 C1524 0.950 . S
H1514 C1526 0.950 . S
H1515 C1527 0.950 . S
C1516 H1508 0.950 . S
C1516 C1517 1.386 . S
C1516 C1518 1.391 . S
C1517 C1516 1.386 . S
C1517 C1521 1.393 . S
C1518 H1510 0.950 . S
C1518 C1516 1.391 . S
C1518 C1519 1.400 . S
C1519 C1518 1.400 . S
C1519 C1520 1.398 . S
C1519 C1525 1.491 . S
C1520 H1511 0.950 . S
C1520 C1519 1.398 . S
C1520 C1521 1.391 . S
C1521 H1509 0.950 . S
C1521 C1517 1.393 . S
C1521 C1520 1.391 . S
C1522 H1512 0.950 . S
C1522 C1523 1.386 . S
C1522 C1524 1.391 . S
C1523 C1522 1.386 . S
C1523 C1527 1.393 . S
C1524 H1513 0.950 . S
C1524 C1522 1.391 . S
C1524 C1525 1.400 . S
C1525 C1519 1.491 . S
C1525 C1524 1.400 . S
C1525 C1526 1.398 . S
C1526 H1514 0.950 . S
C1526 C1525 1.398 . S
C1526 C1527 1.391 . S
C1527 H1515 0.950 . S
C1527 C1523 1.393 . S
C1527 C1526 1.391 . S
H1528 C1536 0.950 . S
H1529 C1541 0.950 . S
H1530 C1538 0.950 . S
H1531 C1540 0.935 1_556 S
H1532 C1542 0.950 . S
H1533 C1544 0.949 1_556 S
H1534 C1546 0.950 . S
H1535 C1547 0.950 . S
C1536 H1528 0.950 . S
C1536 C1537 1.386 . S
C1536 C1538 1.391 . S
C1537 C1536 1.386 . S
C1537 C1541 1.393 . S
C1538 H1530 0.950 . S
C1538 C1536 1.391 . S
C1538 C1539 1.400 . S
C1539 C1538 1.400 . S
C1539 C1540 1.398 . S
C1539 C1545 1.491 . S
C1540 H1531 0.935 1_554 S
C1540 C1539 1.398 . S
C1540 C1541 1.391 . S
C1541 H1529 0.950 . S
C1541 C1537 1.393 . S
C1541 C1540 1.391 . S
C1542 H1532 0.950 . S
C1542 C1543 1.386 1_556 S
C1542 C1544 1.389 1_556 S
C1543 C1542 1.386 1_554 S
C1543 C1547 1.393 . S
C1544 H1533 0.949 1_554 S
C1544 C1542 1.389 1_554 S
C1544 C1545 1.403 . S
C1545 C1539 1.491 . S
C1545 C1544 1.403 . S
C1545 C1546 1.398 . S
C1546 H1534 0.950 . S
C1546 C1545 1.398 . S
C1546 C1547 1.391 . S
C1547 H1535 0.950 . S
C1547 C1543 1.393 . S
C1547 C1546 1.391 . S
H1548 C1556 0.950 . S
H1549 C1561 0.950 . S
H1550 C1558 0.950 . S
H1551 C1560 0.950 . S
H1552 C1562 0.950 . S
H1553 C1564 0.950 . S
H1554 C1566 0.950 . S
H1555 C1567 0.950 . S
C1556 H1548 0.950 . S
C1556 C1557 1.386 . S
C1556 C1558 1.391 . S
C1557 C1556 1.386 . S
C1557 C1561 1.393 1_545 S
C1558 H1550 0.950 . S
C1558 C1556 1.391 . S
C1558 C1559 1.400 1_545 S
C1559 C1558 1.400 1_565 S
C1559 C1560 1.398 . S
C1559 C1565 1.491 . S
C1560 H1551 0.950 . S
C1560 C1559 1.398 . S
C1560 C1561 1.391 . S
C1561 H1549 0.950 . S
C1561 C1557 1.393 1_565 S
C1561 C1560 1.391 . S
C1562 H1552 0.950 . S
C1562 C1563 1.386 . S
C1562 C1564 1.391 . S
C1563 C1562 1.386 . S
C1563 C1567 1.393 . S
C1564 H1553 0.950 . S
C1564 C1562 1.391 . S
C1564 C1565 1.400 . S
C1565 C1559 1.491 . S
C1565 C1564 1.400 . S
C1565 C1566 1.398 . S
C1566 H1554 0.950 . S
C1566 C1565 1.398 . S
C1566 C1567 1.391 . S
C1567 H1555 0.950 . S
C1567 C1563 1.393 . S
C1567 C1566 1.391 . S
C623 C178 1.526 1_556 S
C617 C60 1.520 . S
C643 C226 1.422 . S
C637 C76 1.445 . S
C657 C81 1.554 . S
C663 C262 1.479 . S
C683 C298 1.633 . S
C677 C48 1.706 . S
C703 C324 1.441 . S
C697 C115 1.433 . S
C723 C360 1.697 . S
C717 C136 1.714 . S
C737 C131 1.399 . S
C743 C395 1.408 . S
C763 C432 1.541 . S
C757 C104 1.544 . S
C777 C126 1.454 . S
C783 C466 1.457 . S
C803 C514 1.492 . S
C797 C103 1.519 . S
C817 C120 1.361 . S
C823 C467 1.366 . S
C843 C504 1.559 . S
C837 C142 1.557 . S
C857 C82 1.394 . S
C863 C550 1.332 . S
C877 C54 1.855 . S
C883 C539 1.859 . S
C897 C65 1.444 . S
C903 C540 1.450 . S
C917 C71 1.372 . S
C923 C538 1.370 . S
C937 C37 1.485 . S
C943 C286 1.484 . S
C957 C158 1.889 . S
C963 C287 1.903 . S
C983 C190 1.489 . S
C977 C169 1.559 . S
C1003 C215 1.191 . S
C997 C98 1.191 . S
C1017 C49 1.805 1_545 S
C1023 C322 1.804 . S
C1043 C430 1.410 . S
C1037 C125 1.422 . S
C1063 C323 1.438 . S
C1057 C109 1.439 . S
C1083 C396 1.852 . S
C1077 C137 1.862 . S
C1103 C394 1.516 . S
C1097 C159 1.512 . S
C1117 C175 1.448 . S
C1123 C442 1.422 . S
C1137 C92 1.552 . S
C1143 C334 1.496 . S
C1163 C370 1.632 . S
C1157 C147 1.706 . S
C1177 C38 1.425 . S
C1183 C252 1.433 . S
C1203 C288 1.703 . S
C1197 C4 1.715 . S
C1223 C179 1.399 . S
C1217 C21 1.386 . S
C1243 C216 1.552 . S
C1237 C27 1.554 . S
C1257 C16 1.453 . S
C1263 C502 1.455 . S
C1277 C26 1.510 1_455 S
C1283 C478 1.491 . S
C1297 C43 1.361 . S
C1303 C503 1.366 . S
C1317 C10 1.560 1_556 S
C1323 C468 1.560 . S
C1343 C586 1.342 . S
C1337 C93 1.392 . S
C1363 C575 1.854 . S
C1357 C153 1.856 . S
C1383 C576 1.458 . S
C1377 C164 1.456 . S
C1397 C170 1.370 1_554 S
C1403 C574 1.374 . S
C1417 C114 1.481 . S
C1423 C358 1.479 . S
C1443 C359 1.900 . S
C1437 C59 1.897 . S
C1463 C406 1.469 . S
C1457 C70 1.552 . S
C1483 C431 1.190 . S
C1477 C87 1.188 . S
C1497 C148 1.805 . S
C1503 C250 1.802 1_556 S
C1523 C214 1.406 . S
C1517 C15 1.418 . S
C1537 C32 1.442 . S
C1543 C251 1.435 . S
C1563 C180 1.850 . S
C1557 C5 1.857 . S
