# Generated by pormake.
# Topology tsx, (6,3)-cn, num edge types: 1
# Building blocks:
#     Node 0, Type 0, BuildingBlock: JUFBIX_clean_sbu_0, # of connection points: 6
#     Node 1, Type 0, BuildingBlock: JUFBIX_clean_sbu_0, # of connection points: 6
#     Node 2, Type 1, BuildingBlock: QEWDON_clean_linker_0, # of connection points: 3
#     Node 3, Type 1, BuildingBlock: QEWDON_clean_linker_0, # of connection points: 3
#     Node 4, Type 1, BuildingBlock: QEWDON_clean_linker_0, # of connection points: 3
#     Node 5, Type 1, BuildingBlock: QEWDON_clean_linker_0, # of connection points: 3
#     Edge 6, Type (0, 1), BuildingBlock: XUDNAN_clean_linker_2, # of connection points: 2
#     Edge 7, Type (0, 1), BuildingBlock: XUDNAN_clean_linker_2, # of connection points: 2
#     Edge 8, Type (0, 1), BuildingBlock: XUDNAN_clean_linker_2, # of connection points: 2
#     Edge 9, Type (0, 1), BuildingBlock: XUDNAN_clean_linker_2, # of connection points: 2
#     Edge 10, Type (0, 1), BuildingBlock: XUDNAN_clean_linker_2, # of connection points: 2
#     Edge 11, Type (0, 1), BuildingBlock: XUDNAN_clean_linker_2, # of connection points: 2
#     Edge 12, Type (0, 1), BuildingBlock: XUDNAN_clean_linker_2, # of connection points: 2
#     Edge 13, Type (0, 1), BuildingBlock: XUDNAN_clean_linker_2, # of connection points: 2
#     Edge 14, Type (0, 1), BuildingBlock: XUDNAN_clean_linker_2, # of connection points: 2
#     Edge 15, Type (0, 1), BuildingBlock: XUDNAN_clean_linker_2, # of connection points: 2
#     Edge 16, Type (0, 1), BuildingBlock: XUDNAN_clean_linker_2, # of connection points: 2
#     Edge 17, Type (0, 1), BuildingBlock: XUDNAN_clean_linker_2, # of connection points: 2
# Relax obj value: 0.110
# Max RMSD: 0.169
# Mean RMSD: 0.146
data_MOF--net-tsx--node1-JUFBIX_clean_sbu_0--node2-QEWDON_clean_linker_0--edge1-XUDNAN_clean_linker_2
_symmetry_space_group_name_H-M    P1
_symmetry_Int_Tables_number       1
_symmetry_cell_setting            triclinic
loop_
_symmetry_equiv_pos_as_xyz
'x, y, z'
_cell_length_a     21.647562
_cell_length_b     25.441369
_cell_length_c     31.99267
_cell_angle_alpha  91.62919
_cell_angle_beta   105.7087
_cell_angle_gamma 99.477419
loop_
_atom_site_label
_atom_site_type_symbol
_atom_site_fract_x
_atom_site_fract_y
_atom_site_fract_z
_atom_type_partial_charge
Co0 Co 0.04538 0.98905 0.00306 0.0
C1 C 0.97996 0.03366 0.92856 0.0
Co2 Co 0.99753 0.05605 0.0153 0.0
C3 C 0.13935 0.91832 0.00809 0.0
C4 C 0.04729 0.88925 0.96135 0.0
N5 N 0.0799 0.93074 0.99045 0.0
N6 N 0.1444 0.87048 0.99139 0.0
C7 C 0.08707 0.85241 0.96161 0.0
H8 H 0.17862 0.94436 0.03175 0.0
H9 H 0.99794 0.88635 0.94078 0.0
C10 C 0.0651 0.01362 0.08983 0.0
N11 N 0.96162 0.11324 0.0293 0.0
C12 C 0.9017 0.12519 0.01241 0.0
C13 C 0.99152 0.15131 0.06189 0.0
N14 N 0.89295 0.16927 0.03335 0.0
C15 C 0.9497 0.18551 0.06455 0.0
C16 C 0.9165 0.95764 0.00443 0.0
O17 O 0.07893 0.98221 0.06359 0.0
O18 O 0.0284 0.04682 0.07523 0.0
O19 O 0.91741 0.00741 0.01104 0.0
O20 O 0.96823 0.94223 0.00208 0.0
O21 O 0.96834 0.06592 0.95528 0.0
H22 H 0.04046 0.15356 0.08293 0.0
H23 H 0.86551 0.10188 0.98525 0.0
O24 O 0.01153 0.99676 0.94252 0.0
O25 O 0.12321 0.03676 0.00358 0.0
O26 O 0.07721 0.10314 0.01873 0.0
C27 C 0.12614 0.08638 0.01201 0.0
H28 H 0.07585 0.8161 0.94044 0.0
H29 H 0.96039 0.21916 0.08835 0.0
Co30 Co 0.57292 0.47248 0.50162 0.0
C31 C 0.50341 0.51797 0.42821 0.0
Co32 Co 0.50628 0.52505 0.51399 0.0
C33 C 0.6492 0.38799 0.50428 0.0
C34 C 0.67681 0.45223 0.46746 0.0
N35 N 0.63344 0.43471 0.48958 0.0
N36 N 0.70127 0.37625 0.49272 0.0
C37 C 0.71866 0.41655 0.4695 0.0
H38 H 0.62467 0.3642 0.52456 0.0
H39 H 0.67908 0.48945 0.45195 0.0
C40 C 0.57796 0.48214 0.58785 0.0
N41 N 0.4451 0.56132 0.52819 0.0
C42 C 0.41624 0.60245 0.51141 0.0
C43 C 0.41409 0.54395 0.55795 0.0
N44 N 0.36837 0.61065 0.52954 0.0
C45 C 0.36758 0.57402 0.55897 0.0
C46 C 0.45198 0.41526 0.49128 0.0
O47 O 0.59921 0.45697 0.56144 0.0
O48 O 0.5378 0.5128 0.5735 0.0
O49 O 0.44233 0.46042 0.50366 0.0
O50 O 0.50794 0.41063 0.48787 0.0
O51 O 0.47699 0.53797 0.45437 0.0
H52 H 0.42304 0.51005 0.57688 0.0
H53 H 0.4281 0.62434 0.48526 0.0
O54 O 0.54656 0.48927 0.44215 0.0
O55 O 0.63721 0.53452 0.5153 0.0
O56 O 0.57149 0.58881 0.5239 0.0
C57 C 0.62831 0.58121 0.52388 0.0
H58 H 0.75902 0.4201 0.45523 0.0
H59 H 0.33511 0.56887 0.57958 0.0
H60 H 0.13915 0.05417 0.41836 0.0
C61 C 0.13144 0.01306 0.4248 0.0
C62 C 0.1515 0.97712 0.39942 0.0
C63 C 0.10185 0.99568 0.45756 0.0
H64 H 0.17748 0.89967 0.39606 0.0
C65 C 0.15742 0.92651 0.41359 0.0
C66 C 0.14119 0.91099 0.45138 0.0
C67 C 0.10861 0.94368 0.47116 0.0
C68 C 0.07619 0.03339 0.48509 0.0
H69 H 0.09294 0.93024 0.49907 0.0
C70 C 0.98636 0.08901 0.4791 0.0
C71 C 0.98763 0.11398 0.52875 0.0
C72 C 0.11971 0.03237 0.53885 0.0
H73 H 0.15956 0.0104 0.54731 0.0
C74 C 0.10205 0.0653 0.57938 0.0
H75 H 0.00742 0.07277 0.47446 0.0
C76 C 0.04305 0.10287 0.57455 0.0
H77 H 0.04082 0.12213 0.60455 0.0
H78 H 0.1322 0.06272 0.61201 0.0
H79 H 0.95046 0.05028 0.59159 0.0
C80 C 0.96313 0.01112 0.59173 0.0
C81 C 0.95183 0.97926 0.62512 0.0
C82 C 0.98704 0.99133 0.55838 0.0
H83 H 0.93945 0.89732 0.6431 0.0
C84 C 0.95111 0.92422 0.61968 0.0
C85 C 0.95992 0.90201 0.58186 0.0
C86 C 0.98261 0.93545 0.55321 0.0
C87 C 0.00548 0.0243 0.52277 0.0
H88 H 0.99286 0.9172 0.52543 0.0
C89 C 0.09003 0.11349 0.51538 0.0
C90 C 0.08691 0.1212 0.46004 0.0
C91 C 0.9652 0.99197 0.46956 0.0
H92 H 0.92968 0.9557 0.46607 0.0
C93 C 0.98002 0.0172 0.42183 0.0
H94 H 0.12543 0.14211 0.54007 0.0
C95 C 0.03401 0.07568 0.41751 0.0
H96 H 0.03423 0.08432 0.38466 0.0
H97 H 0.9524 0.99453 0.39156 0.0
H98 H 0.62938 0.56488 0.91565 0.0
C99 C 0.61721 0.52468 0.92434 0.0
C100 C 0.62951 0.48299 0.89962 0.0
C101 C 0.58788 0.51348 0.95866 0.0
H102 H 0.64272 0.40102 0.89887 0.0
C103 C 0.62776 0.43237 0.91548 0.0
C104 C 0.61107 0.42256 0.954 0.0
C105 C 0.58853 0.462 0.97437 0.0
C106 C 0.56064 0.5542 0.9826 0.0
H107 H 0.57322 0.45268 0.0032 0.0
C108 C 0.47039 0.60913 0.96808 0.0
C109 C 0.46232 0.63582 0.01441 0.0
C110 C 0.59624 0.55435 0.0381 0.0
H111 H 0.63538 0.53237 0.05011 0.0
C112 C 0.57074 0.58831 0.0747 0.0
H113 H 0.49317 0.59255 0.9663 0.0
C114 C 0.51052 0.62563 0.06361 0.0
H115 H 0.5046 0.64726 0.09146 0.0
H116 H 0.59609 0.58686 0.10866 0.0
H117 H 0.42995 0.5683 0.08705 0.0
C118 C 0.43912 0.52847 0.08329 0.0
C119 C 0.42737 0.49397 0.115 0.0
C120 C 0.46045 0.5106 0.048 0.0
H121 H 0.40522 0.41173 0.12759 0.0
C122 C 0.41952 0.43873 0.10524 0.0
C123 C 0.42868 0.41833 0.06653 0.0
C124 C 0.45566 0.45474 0.04109 0.0
C125 C 0.48191 0.5456 0.01383 0.0
H126 H 0.47072 0.43891 0.01454 0.0
C127 C 0.57029 0.63479 0.01103 0.0
C128 C 0.57662 0.64176 0.9576 0.0
C129 C 0.44931 0.51244 0.95969 0.0
H130 H 0.41348 0.47609 0.95421 0.0
C131 C 0.47289 0.53743 0.91409 0.0
H132 H 0.60141 0.66497 0.03639 0.0
C133 C 0.5297 0.59622 0.91324 0.0
H134 H 0.53498 0.60592 0.88154 0.0
H135 H 0.44949 0.51471 0.88317 0.0
H136 H 0.21911 0.13941 0.08209 0.0
H137 H 0.16018 0.12224 0.94119 0.0
H138 H 0.24736 0.19817 0.93985 0.0
H139 H 0.24757 0.27461 0.09495 0.0
H140 H 0.3187 0.28292 0.14124 0.0
H141 H 0.25989 0.22199 0.13128 0.0
H142 H 0.35044 0.16716 0.13055 0.0
H143 H 0.40987 0.2281 0.14082 0.0
H144 H 0.40076 0.18273 0.09437 0.0
H145 H 0.32393 0.28557 0.95395 0.0
H146 H 0.38628 0.37459 0.98133 0.0
H147 H 0.4091 0.32934 0.11424 0.0
C148 C 0.22643 0.15069 0.05115 0.0
C149 C 0.18418 0.12509 0.01171 0.0
C150 C 0.19325 0.14119 0.97161 0.0
C151 C 0.24254 0.18411 0.97062 0.0
C152 C 0.28296 0.20953 0.01009 0.0
C153 C 0.27634 0.19274 0.04967 0.0
C154 C 0.3225 0.22953 0.08724 0.0
C155 C 0.2849 0.25368 0.11529 0.0
C156 C 0.37396 0.20012 0.11487 0.0
C157 C 0.35297 0.27152 0.06255 0.0
C158 C 0.33 0.25897 0.01816 0.0
C159 C 0.34408 0.29504 0.98869 0.0
C160 C 0.38047 0.34587 0.00487 0.0
C161 C 0.40348 0.36053 0.05041 0.0
C162 C 0.39186 0.32118 0.07931 0.0
H163 H 0.20155 0.81025 0.05436 0.0
H164 H 0.21451 0.88068 0.93481 0.0
H165 H 0.30366 0.83256 0.93207 0.0
H166 H 0.38227 0.80866 0.09912 0.0
H167 H 0.36796 0.74528 0.12187 0.0
H168 H 0.31093 0.79045 0.11802 0.0
H169 H 0.21748 0.71561 0.07478 0.0
H170 H 0.27423 0.67047 0.07795 0.0
H171 H 0.22417 0.68341 0.02565 0.0
H172 H 0.37175 0.76667 0.93375 0.0
H173 H 0.43374 0.69508 0.94478 0.0
H174 H 0.39153 0.66909 0.06882 0.0
C175 C 0.22517 0.81658 0.02865 0.0
C176 C 0.20266 0.84944 0.99495 0.0
C177 C 0.23242 0.8561 0.96092 0.0
C178 C 0.28267 0.82891 0.95916 0.0
C179 C 0.30278 0.79557 0.99202 0.0
C180 C 0.27628 0.78982 0.02668 0.0
C181 C 0.30535 0.74866 0.056 0.0
C182 C 0.34394 0.77484 0.10145 0.0
C183 C 0.25212 0.70177 0.05874 0.0
C184 C 0.35045 0.7311 0.03135 0.0
C185 C 0.34718 0.75881 0.99449 0.0
C186 C 0.37711 0.74621 0.96338 0.0
C187 C 0.41266 0.70499 0.97026 0.0
C188 C 0.42062 0.67746 0.00881 0.0
C189 C 0.38864 0.69063 0.03985 0.0
H190 H 0.90203 0.85013 0.98524 0.0
H191 H 0.79318 0.97413 0.00259 0.0
H192 H 0.6915 0.90665 0.98332 0.0
H193 H 0.77752 0.77518 0.89307 0.0
H194 H 0.79521 0.71126 0.91066 0.0
H195 H 0.85893 0.76949 0.92384 0.0
H196 H 0.88236 0.75369 0.0059 0.0
H197 H 0.81953 0.69509 0.99293 0.0
H198 H 0.81658 0.74759 0.03102 0.0
H199 H 0.60357 0.82557 0.96562 0.0
H200 H 0.53665 0.73603 0.95685 0.0
H201 H 0.70148 0.66409 0.94991 0.0
C202 C 0.85689 0.86332 0.98507 0.0
C203 C 0.8556 0.91757 0.99558 0.0
C204 C 0.79541 0.93289 0.99483 0.0
C205 C 0.73742 0.8949 0.98359 0.0
C206 C 0.74052 0.84197 0.97287 0.0
C207 C 0.79875 0.82612 0.97376 0.0
C208 C 0.78931 0.76639 0.96267 0.0
C209 C 0.80626 0.75492 0.92003 0.0
C210 C 0.82929 0.7391 0.00039 0.0
C211 C 0.71674 0.75058 0.95686 0.0
C212 C 0.6895 0.79508 0.96205 0.0
C213 C 0.62412 0.79069 0.96064 0.0
C214 C 0.58614 0.73956 0.95517 0.0
C215 C 0.61315 0.69342 0.951 0.0
C216 C 0.6791 0.69894 0.95121 0.0
H217 H 0.88701 0.27034 0.06086 0.0
H218 H 0.76874 0.12689 0.98455 0.0
H219 H 0.67421 0.17285 0.96609 0.0
H220 H 0.75651 0.31227 0.1024 0.0
H221 H 0.78652 0.38191 0.09873 0.0
H222 H 0.84245 0.33549 0.1102 0.0
H223 H 0.88431 0.3639 0.04407 0.0
H224 H 0.82928 0.41065 0.03286 0.0
H225 H 0.8266 0.36058 0.99109 0.0
H226 H 0.59761 0.23892 0.94727 0.0
H227 H 0.54875 0.31966 0.92841 0.0
H228 H 0.71414 0.41673 0.02155 0.0
C229 C 0.84109 0.24763 0.04133 0.0
C230 C 0.83601 0.1946 0.02438 0.0
C231 C 0.77469 0.16757 0.99777 0.0
C232 C 0.72028 0.1932 0.98747 0.0
C233 C 0.72745 0.24561 0.00457 0.0
C234 C 0.78637 0.27232 0.03117 0.0
C235 C 0.78345 0.3299 0.04228 0.0
C236 C 0.79277 0.34049 0.09132 0.0
C237 C 0.83385 0.36849 0.02661 0.0
C238 C 0.71438 0.3322 0.01634 0.0
C239 C 0.6824 0.28302 0.99517 0.0
C240 C 0.62127 0.27714 0.96476 0.0
C241 C 0.59357 0.32299 0.95445 0.0
C242 C 0.6268 0.37369 0.97483 0.0
C243 C 0.68657 0.37789 0.00724 0.0
H244 H 0.6393 0.68532 0.50063 0.0
H245 H 0.74779 0.57272 0.57369 0.0
H246 H 0.84885 0.63994 0.59028 0.0
H247 H 0.76731 0.74332 0.45323 0.0
H248 H 0.75049 0.81017 0.45637 0.0
H249 H 0.6858 0.7535 0.45028 0.0
H250 H 0.66046 0.78818 0.51976 0.0
H251 H 0.72399 0.84544 0.52536 0.0
H252 H 0.72526 0.80329 0.56982 0.0
H253 H 0.93672 0.72073 0.60288 0.0
H254 H 1.00413 0.8114 0.6118 0.0
H255 H 0.84213 0.86893 0.52557 0.0
C256 C 0.6843 0.67528 0.52047 0.0
C257 C 0.68596 0.62418 0.53617 0.0
C258 C 0.74576 0.61185 0.56141 0.0
C259 C 0.80342 0.6496 0.57085 0.0
C260 C 0.80077 0.69929 0.55416 0.0
C261 C 0.74288 0.7123 0.52951 0.0
C262 C 0.75377 0.76874 0.51575 0.0
C263 C 0.73843 0.76891 0.46595 0.0
C264 C 0.71351 0.80346 0.53377 0.0
C265 C 0.82626 0.78565 0.53742 0.0
C266 C 0.85256 0.74494 0.55932 0.0
C267 C 0.91724 0.75263 0.58504 0.0
C268 C 0.95538 0.80387 0.58966 0.0
C269 C 0.92879 0.84606 0.56803 0.0
C270 C 0.86414 0.83644 0.54079 0.0
H271 H 0.83124 0.37636 0.51275 0.0
H272 H 0.64409 0.27444 0.49738 0.0
H273 H 0.6988 0.19582 0.51115 0.0
H274 H 0.9002 0.28921 0.46012 0.0
H275 H 0.98121 0.306 0.49691 0.0
H276 H 0.92783 0.3543 0.48923 0.0
H277 H 0.94203 0.36323 0.57236 0.0
H278 H 0.99558 0.31487 0.58026 0.0
H279 H 0.92445 0.30431 0.6001 0.0
H280 H 0.77279 0.12757 0.51838 0.0
H281 H 0.86129 0.07547 0.52264 0.0
H282 H 1.00089 0.22231 0.53714 0.0
C283 C 0.80194 0.3375 0.51261 0.0
C284 C 0.73342 0.33122 0.50381 0.0
C285 C 0.69665 0.27997 0.50436 0.0
C286 C 0.72732 0.23522 0.51206 0.0
C287 C 0.79494 0.24268 0.52001 0.0
C288 C 0.83192 0.29269 0.52095 0.0
C289 C 0.9036 0.28983 0.52931 0.0
C290 C 0.9297 0.31107 0.49164 0.0
C291 C 0.94378 0.31984 0.57311 0.0
C292 C 0.90095 0.23012 0.53107 0.0
C293 C 0.83784 0.20362 0.52593 0.0
C294 C 0.8225 0.14797 0.5234 0.0
C295 C 0.87283 0.11874 0.52586 0.0
C296 C 0.93744 0.14528 0.53123 0.0
C297 C 0.95188 0.2015 0.53424 0.0
H298 H 0.35202 0.38782 0.5281 0.0
H299 H 0.42892 0.34057 0.42378 0.0
H300 H 0.33467 0.26645 0.39837 0.0
H301 H 0.30197 0.25525 0.55333 0.0
H302 H 0.23035 0.26902 0.5669 0.0
H303 H 0.29982 0.32153 0.57373 0.0
H304 H 0.22606 0.37928 0.52461 0.0
H305 H 0.15643 0.32658 0.51727 0.0
H306 H 0.1785 0.35278 0.47051 0.0
H307 H 0.23007 0.1987 0.38347 0.0
H308 H 0.13736 0.13188 0.38901 0.0
H309 H 0.13477 0.2185 0.50722 0.0
C310 C 0.34855 0.36202 0.49973 0.0
C311 C 0.3972 0.36985 0.47764 0.0
C312 C 0.39204 0.33491 0.44115 0.0
C313 C 0.33843 0.29315 0.42624 0.0
C314 C 0.291 0.28649 0.44862 0.0
C315 C 0.29624 0.31929 0.48511 0.0
C316 C 0.24222 0.30029 0.50584 0.0
C317 C 0.27028 0.28564 0.55271 0.0
C318 C 0.1982 0.34224 0.50446 0.0
C319 C 0.20651 0.25121 0.47575 0.0
C320 C 0.23422 0.24481 0.44227 0.0
C321 C 0.20898 0.20266 0.4102 0.0
C322 C 0.15637 0.16444 0.41389 0.0
C323 C 0.13155 0.16729 0.45042 0.0
C324 C 0.1549 0.21297 0.48029 0.0
H325 H 0.39346 0.71062 0.50278 0.0
H326 H 0.24302 0.59599 0.53312 0.0
H327 H 0.16948 0.6619 0.52089 0.0
H328 H 0.36084 0.82659 0.55387 0.0
H329 H 0.37593 0.86995 0.51278 0.0
H330 H 0.41689 0.81361 0.52383 0.0
H331 H 0.37208 0.77832 0.44255 0.0
H332 H 0.33167 0.83489 0.4312 0.0
H333 H 0.28547 0.76806 0.41688 0.0
H334 H 0.11129 0.74142 0.50488 0.0
H335 H 0.07288 0.82579 0.48181 0.0
H336 H 0.2623 0.88769 0.46398 0.0
C337 C 0.34488 0.69931 0.50643 0.0
C338 C 0.32432 0.6483 0.51926 0.0
C339 C 0.26037 0.63515 0.52404 0.0
C340 C 0.21806 0.67228 0.51706 0.0
C341 C 0.24026 0.72263 0.50534 0.0
C342 C 0.30207 0.73605 0.49982 0.0
C343 C 0.3139 0.79266 0.48675 0.0
C344 C 0.37022 0.82776 0.52138 0.0
C345 C 0.3265 0.79351 0.44167 0.0
C346 C 0.24908 0.80866 0.48542 0.0
C347 C 0.20711 0.768 0.49638 0.0
C348 C 0.14383 0.77363 0.49629 0.0
C349 C 0.12248 0.82166 0.48347 0.0
C350 C 0.16433 0.86293 0.47076 0.0
C351 C 0.22885 0.85653 0.47303 0.0
H352 H 0.06552 0.9314 0.14276 0.0
H353 H 0.13112 0.10155 0.14192 0.0
H354 H 0.17682 0.10835 0.22201 0.0
H355 H 0.00767 0.94257 0.23296 0.0
H356 H 0.02915 0.88149 0.25496 0.0
H357 H 0.01319 0.88828 0.19745 0.0
H358 H 0.12688 0.86614 0.20006 0.0
H359 H 0.14329 0.85959 0.25782 0.0
H360 H 0.19888 0.90527 0.23717 0.0
H361 H 0.20753 0.0979 0.30225 0.0
H362 H 0.21042 0.07301 0.3767 0.0
H363 H 0.11391 0.91184 0.32466 0.0
C364 C 0.09115 0.96962 0.15956 0.0
C365 C 0.09595 0.01583 0.13672 0.0
C366 C 0.12761 0.06576 0.15935 0.0
C367 C 0.15405 0.06989 0.20463 0.0
C368 C 0.14759 0.02376 0.22663 0.0
C369 C 0.11635 0.97465 0.20492 0.0
C370 C 0.10786 0.93289 0.23655 0.0
C371 C 0.03517 0.91001 0.2301 0.0
C372 C 0.14655 0.88834 0.23266 0.0
C373 C 0.13745 0.96651 0.27928 0.0
C374 C 0.16168 0.01843 0.27298 0.0
C375 C 0.18876 0.0573 0.30762 0.0
C376 C 0.18942 0.04299 0.34974 0.0
C377 C 0.16157 0.99068 0.3566 0.0
C378 C 0.13677 0.9519 0.32083 0.0
H379 H 0.91548 0.95845 0.86251 0.0
H380 H 0.0071 0.12503 0.8903 0.0
H381 H 0.99451 0.13394 0.81165 0.0
H382 H 0.98499 0.92597 0.78536 0.0
H383 H 0.91462 0.88329 0.74961 0.0
H384 H 0.92129 0.89229 0.80665 0.0
H385 H 0.80989 0.92405 0.78876 0.0
H386 H 0.80243 0.91456 0.73141 0.0
H387 H 0.79674 0.97847 0.75445 0.0
H388 H 0.9946 0.11816 0.734 0.0
H389 H 0.99656 0.08263 0.66249 0.0
H390 H 0.88608 0.93058 0.68177 0.0
C391 C 0.93078 0.99713 0.85163 0.0
C392 C 0.9619 0.04117 0.88186 0.0
C393 C 0.98234 0.09117 0.86717 0.0
C394 C 0.97542 0.09651 0.8227 0.0
C395 C 0.94598 0.05186 0.79355 0.0
C396 C 0.92217 0.00354 0.80729 0.0
C397 C 0.896 0.96097 0.76982 0.0
C398 C 0.93136 0.91284 0.77839 0.0
C399 C 0.82185 0.9435 0.76056 0.0
C400 C 0.91292 0.99185 0.73349 0.0
C401 C 0.94154 0.04419 0.74773 0.0
C402 C 0.96995 0.07786 0.72188 0.0
C403 C 0.97042 0.05715 0.68089 0.0
C404 C 0.94171 0.00331 0.66556 0.0
C405 C 0.91005 0.97141 0.69194 0.0
H406 H 0.54882 0.41018 0.64466 0.0
H407 H 0.66784 0.56185 0.63664 0.0
H408 H 0.7025 0.57647 0.71706 0.0
H409 H 0.48899 0.45263 0.72681 0.0
H410 H 0.48927 0.39202 0.75465 0.0
H411 H 0.48192 0.3895 0.69725 0.0
H412 H 0.58285 0.34324 0.70966 0.0
H413 H 0.59014 0.34513 0.76719 0.0
H414 H 0.65847 0.37414 0.74829 0.0
H415 H 0.71337 0.57934 0.79779 0.0
H416 H 0.70344 0.56787 0.87248 0.0
H417 H 0.57568 0.41506 0.82691 0.0
C418 C 0.5841 0.44533 0.66014 0.0
C419 C 0.60721 0.48434 0.63504 0.0
C420 C 0.65108 0.53109 0.65583 0.0
C421 C 0.67078 0.53977 0.70135 0.0
C422 C 0.64601 0.50121 0.72548 0.0
C423 C 0.60417 0.45461 0.70563 0.0
C424 C 0.58052 0.42163 0.73871 0.0
C425 C 0.50576 0.41351 0.72875 0.0
C426 C 0.60444 0.36785 0.7411 0.0
C427 C 0.6139 0.4576 0.77987 0.0
C428 C 0.65194 0.50311 0.77179 0.0
C429 C 0.68449 0.54343 0.80464 0.0
C430 C 0.67818 0.53682 0.84689 0.0
C431 C 0.63947 0.49028 0.85577 0.0
C432 C 0.60716 0.45043 0.82157 0.0
H433 H 0.41756 0.45692 0.35868 0.0
H434 H 0.55586 0.60546 0.39528 0.0
H435 H 0.53886 0.62247 0.31741 0.0
H436 H 0.4648 0.41696 0.26982 0.0
H437 H 0.38431 0.38879 0.23588 0.0
H438 H 0.4008 0.39198 0.29416 0.0
H439 H 0.3066 0.44456 0.28939 0.0
H440 H 0.2897 0.44145 0.23091 0.0
H441 H 0.30579 0.50518 0.26154 0.0
H442 H 0.51895 0.61634 0.23648 0.0
H443 H 0.49807 0.58852 0.15914 0.0
H444 H 0.36319 0.44791 0.17371 0.0
C445 C 0.44275 0.49361 0.35004 0.0
C446 C 0.48737 0.53036 0.38243 0.0
C447 C 0.52089 0.57741 0.37054 0.0
C448 C 0.51141 0.58734 0.32653 0.0
C449 C 0.46755 0.55007 0.29504 0.0
C450 C 0.43314 0.50442 0.30623 0.0
C451 C 0.39242 0.46907 0.26605 0.0
C452 C 0.41178 0.41344 0.26652 0.0
C453 C 0.31928 0.46484 0.26172 0.0
C454 C 0.41168 0.50068 0.23066 0.0
C455 C 0.45452 0.54748 0.24803 0.0
C456 C 0.48414 0.58046 0.22233 0.0
C457 C 0.47137 0.56437 0.17805 0.0
C458 C 0.42896 0.51567 0.15949 0.0
C459 C 0.39679 0.48484 0.18626 0.0
loop_
_geom_bond_atom_site_label_1
_geom_bond_atom_site_label_2
_geom_bond_distance
_geom_bond_site_symmetry_2
_ccdc_geom_bond_type
Co0 N5 2.057 . S
Co0 O17 2.021 . S
Co0 O20 2.062 . S
Co0 O24 2.117 1_554 S
Co0 O25 2.020 1_565 S
C1 O21 1.259 1_455 S
C1 O24 1.258 1_545 S
Co2 N11 2.057 . S
Co2 O18 2.117 1_655 S
Co2 O19 2.018 1_545 S
Co2 O21 2.021 1_554 S
Co2 O26 2.062 1_655 S
C3 N5 1.316 . S
C3 N6 1.347 . S
C3 H8 0.931 . S
C4 N5 1.375 1_556 S
C4 C7 1.350 . S
C4 H9 0.930 . S
N5 Co0 2.057 . S
N5 C3 1.316 . S
N5 C4 1.375 1_554 S
N6 C3 1.347 . S
N6 C7 1.373 1_554 S
C7 C4 1.350 . S
C7 N6 1.373 1_556 S
C7 H28 0.931 . S
H8 C3 0.931 . S
H9 C4 0.930 . S
C10 O17 1.262 . S
C10 O18 1.256 1_565 S
N11 Co2 2.057 . S
N11 C12 1.316 1_554 S
N11 C13 1.375 . S
C12 N11 1.316 1_556 S
C12 N14 1.347 1_556 S
C12 H23 0.931 . S
C13 N11 1.375 . S
C13 C15 1.350 . S
C13 H22 0.930 . S
N14 C12 1.347 1_554 S
N14 C15 1.373 . S
C15 C13 1.350 . S
C15 N14 1.373 . S
C15 H29 0.931 . S
C16 O19 1.257 . S
C16 O20 1.255 1_655 S
O17 Co0 2.021 . S
O17 C10 1.262 . S
O18 Co2 2.117 1_455 S
O18 C10 1.256 1_545 S
O19 Co2 2.018 1_565 S
O19 C16 1.257 . S
O20 Co0 2.062 . S
O20 C16 1.255 1_455 S
O21 C1 1.259 1_655 S
O21 Co2 2.021 1_556 S
H22 C13 0.930 . S
H23 C12 0.931 . S
O24 Co0 2.117 1_556 S
O24 C1 1.258 1_565 S
O25 Co0 2.020 1_545 S
O25 C27 1.256 . S
O26 Co2 2.062 1_455 S
O26 C27 1.255 . S
C27 O25 1.256 . S
C27 O26 1.255 . S
H28 C7 0.931 . S
H29 C15 0.931 . S
Co30 N35 2.057 . S
Co30 O47 2.021 . S
Co30 O50 2.062 . S
Co30 O54 2.117 . S
Co30 O55 2.020 . S
C31 O51 1.259 . S
C31 O54 1.258 . S
Co32 N41 2.057 . S
Co32 O48 2.117 . S
Co32 O49 2.020 . S
Co32 O51 2.021 . S
Co32 O56 2.062 . S
C33 N35 1.316 . S
C33 N36 1.347 . S
C33 H38 0.931 . S
C34 N35 1.375 . S
C34 C37 1.350 . S
C34 H39 0.930 . S
N35 Co30 2.057 . S
N35 C33 1.316 . S
N35 C34 1.375 . S
N36 C33 1.347 . S
N36 C37 1.373 . S
C37 C34 1.350 . S
C37 N36 1.373 . S
C37 H58 0.931 . S
H38 C33 0.931 . S
H39 C34 0.930 . S
C40 O47 1.259 . S
C40 O48 1.258 . S
N41 Co32 2.057 . S
N41 C42 1.316 . S
N41 C43 1.375 . S
C42 N41 1.316 . S
C42 N44 1.347 . S
C42 H53 0.931 . S
C43 N41 1.375 . S
C43 C45 1.350 . S
C43 H52 0.930 . S
N44 C42 1.347 . S
N44 C45 1.373 . S
C45 C43 1.350 . S
C45 N44 1.373 . S
C45 H59 0.931 . S
C46 O49 1.256 . S
C46 O50 1.255 . S
O47 Co30 2.021 . S
O47 C40 1.259 . S
O48 Co32 2.117 . S
O48 C40 1.258 . S
O49 Co32 2.020 . S
O49 C46 1.256 . S
O50 Co30 2.062 . S
O50 C46 1.255 . S
O51 C31 1.259 . S
O51 Co32 2.021 . S
H52 C43 0.930 . S
H53 C42 0.931 . S
O54 Co30 2.117 . S
O54 C31 1.258 . S
O55 Co30 2.020 . S
O55 C57 1.256 . S
O56 Co32 2.062 . S
O56 C57 1.255 . S
C57 O55 1.256 . S
C57 O56 1.255 . S
H58 C37 0.931 . S
H59 C45 0.931 . S
H60 C61 0.949 . S
C61 H60 0.949 . S
C61 C62 1.395 1_545 S
C61 C63 1.391 . S
C62 C61 1.395 1_565 S
C62 C65 1.390 . S
C63 C61 1.391 . S
C63 C67 1.387 1_545 S
C63 C68 1.491 . S
H64 C65 0.950 . S
C65 C62 1.390 . S
C65 H64 0.950 . S
C65 C66 1.378 . S
C66 C65 1.378 . S
C66 C67 1.409 . S
C67 C63 1.387 1_565 S
C67 C66 1.409 . S
C67 H69 0.951 . S
C68 C63 1.491 . S
C68 C70 1.382 1_455 S
C68 C72 1.404 . S
H69 C67 0.951 . S
C70 C68 1.382 1_655 S
C70 C71 1.390 . S
C70 H75 0.949 . S
C71 C70 1.390 . S
C71 C76 1.399 1_655 S
C72 C68 1.404 . S
C72 H73 0.950 . S
C72 C74 1.375 . S
H73 C72 0.950 . S
C74 C72 1.375 . S
C74 C76 1.382 . S
C74 H78 0.950 . S
H75 C70 0.949 . S
C76 C71 1.399 1_455 S
C76 C74 1.382 . S
C76 H77 0.952 . S
H77 C76 0.952 . S
H78 C74 0.950 . S
H79 C80 0.955 . S
C80 H79 0.955 . S
C80 C81 1.388 1_445 S
C80 C82 1.392 1_455 S
C81 C80 1.388 1_665 S
C81 C84 1.390 . S
C82 C80 1.392 1_655 S
C82 C86 1.387 1_545 S
C82 C87 1.491 1_655 S
H83 C84 0.950 . S
C84 C81 1.390 . S
C84 H83 0.950 . S
C84 C85 1.378 . S
C85 C84 1.378 . S
C85 C86 1.409 . S
C86 C82 1.387 1_565 S
C86 C85 1.409 . S
C86 H88 0.951 . S
C87 C82 1.491 1_455 S
C87 C89 1.382 . S
C87 C91 1.404 1_455 S
H88 C86 0.951 . S
C89 C87 1.382 . S
C89 C90 1.390 . S
C89 H94 0.949 . S
C90 C89 1.390 . S
C90 C95 1.399 . S
C91 C87 1.404 1_655 S
C91 H92 0.950 . S
C91 C93 1.375 . S
H92 C91 0.950 . S
C93 C91 1.375 . S
C93 C95 1.382 1_655 S
C93 H97 0.950 . S
H94 C89 0.949 . S
C95 C90 1.399 . S
C95 C93 1.382 1_455 S
C95 H96 0.952 . S
H96 C95 0.952 . S
H97 C93 0.950 . S
H98 C99 0.949 . S
C99 H98 0.949 . S
C99 C100 1.395 . S
C99 C101 1.391 . S
C100 C99 1.395 . S
C100 C103 1.390 . S
C101 C99 1.391 . S
C101 C105 1.387 . S
C101 C106 1.491 1_556 S
H102 C103 0.950 . S
C103 C100 1.390 . S
C103 H102 0.950 . S
C103 C104 1.378 . S
C104 C103 1.378 . S
C104 C105 1.409 . S
C105 C101 1.387 . S
C105 C104 1.409 . S
C105 H107 0.951 1_556 S
C106 C101 1.491 1_554 S
C106 C108 1.382 1_554 S
C106 C110 1.404 . S
H107 C105 0.951 1_554 S
C108 C106 1.382 1_556 S
C108 C109 1.390 1_556 S
C108 H113 0.949 . S
C109 C108 1.390 1_554 S
C109 C114 1.399 . S
C110 C106 1.404 . S
C110 H111 0.950 . S
C110 C112 1.375 . S
H111 C110 0.950 . S
C112 C110 1.375 . S
C112 C114 1.382 . S
C112 H116 0.950 . S
H113 C108 0.949 . S
C114 C109 1.399 . S
C114 C112 1.382 . S
C114 H115 0.952 . S
H115 C114 0.952 . S
H116 C112 0.950 . S
H117 C118 0.949 . S
C118 H117 0.949 . S
C118 C119 1.395 . S
C118 C120 1.391 . S
C119 C118 1.395 . S
C119 C122 1.390 . S
C120 C118 1.391 . S
C120 C124 1.387 . S
C120 C125 1.491 . S
H121 C122 0.950 . S
C122 C119 1.390 . S
C122 H121 0.950 . S
C122 C123 1.378 . S
C123 C122 1.378 . S
C123 C124 1.409 . S
C124 C120 1.387 . S
C124 C123 1.409 . S
C124 H126 0.951 1_554 S
C125 C120 1.491 . S
C125 C127 1.382 . S
C125 C129 1.404 1_554 S
H126 C124 0.951 1_556 S
C127 C125 1.382 . S
C127 C128 1.390 1_554 S
C127 H132 0.949 . S
C128 C127 1.390 1_556 S
C128 C133 1.399 . S
C129 C125 1.404 1_556 S
C129 H130 0.950 . S
C129 C131 1.375 . S
H130 C129 0.950 . S
C131 C129 1.375 . S
C131 C133 1.382 . S
C131 H135 0.950 . S
H132 C127 0.949 . S
C133 C128 1.399 . S
C133 C131 1.382 . S
C133 H134 0.952 . S
H134 C133 0.952 . S
H135 C131 0.950 . S
H136 C148 0.930 . S
H137 C150 0.930 . S
H138 C151 0.930 . S
H139 C155 0.959 . S
H140 C155 0.959 . S
H141 C155 0.961 . S
H142 C156 0.960 . S
H143 C156 0.961 . S
H144 C156 0.959 . S
H145 C159 0.929 . S
H146 C160 0.931 . S
H147 C162 0.930 1_556 S
C148 H136 0.930 . S
C148 C149 1.399 1_556 S
C148 C153 1.399 1_556 S
C149 C148 1.399 1_554 S
C149 C150 1.376 . S
C150 H137 0.930 . S
C150 C149 1.376 . S
C150 C151 1.388 . S
C151 H138 0.930 . S
C151 C150 1.388 . S
C151 C152 1.390 . S
C152 C151 1.390 . S
C152 C153 1.394 . S
C152 C158 1.465 . S
C153 C148 1.399 1_554 S
C153 C152 1.394 . S
C153 C154 1.516 1_554 S
C154 C153 1.516 1_556 S
C154 C155 1.502 . S
C154 C156 1.561 . S
C154 C157 1.526 1_556 S
C155 H139 0.959 . S
C155 H140 0.959 . S
C155 H141 0.961 . S
C155 C154 1.502 . S
C156 H142 0.960 . S
C156 H143 0.961 . S
C156 H144 0.959 . S
C156 C154 1.561 . S
C157 C154 1.526 1_554 S
C157 C158 1.396 . S
C157 C162 1.390 . S
C158 C152 1.465 . S
C158 C157 1.396 . S
C158 C159 1.399 . S
C159 H145 0.929 . S
C159 C158 1.399 . S
C159 C160 1.385 . S
C160 H146 0.931 . S
C160 C159 1.385 . S
C160 C161 1.389 . S
C161 C160 1.389 . S
C161 C162 1.387 . S
C162 H147 0.930 1_554 S
C162 C157 1.390 . S
C162 C161 1.387 . S
H163 C175 0.930 . S
H164 C177 0.930 . S
H165 C178 0.930 . S
H166 C182 0.959 . S
H167 C182 0.959 . S
H168 C182 0.961 . S
H169 C183 0.960 . S
H170 C183 0.961 . S
H171 C183 0.943 1_556 S
H172 C186 0.929 . S
H173 C187 0.931 . S
H174 C189 0.930 . S
C175 H163 0.930 . S
C175 C176 1.399 . S
C175 C180 1.399 . S
C176 C175 1.399 . S
C176 C177 1.376 1_554 S
C177 H164 0.930 . S
C177 C176 1.376 1_556 S
C177 C178 1.388 . S
C178 H165 0.930 . S
C178 C177 1.388 . S
C178 C179 1.390 1_556 S
C179 C178 1.390 1_554 S
C179 C180 1.394 . S
C179 C185 1.465 . S
C180 C175 1.399 . S
C180 C179 1.394 . S
C180 C181 1.516 . S
C181 C180 1.516 . S
C181 C182 1.502 . S
C181 C183 1.561 . S
C181 C184 1.526 . S
C182 H166 0.959 . S
C182 H167 0.959 . S
C182 H168 0.961 . S
C182 C181 1.502 . S
C183 H169 0.960 . S
C183 H170 0.961 . S
C183 H171 0.943 1_554 S
C183 C181 1.561 . S
C184 C181 1.526 . S
C184 C185 1.396 . S
C184 C189 1.390 . S
C185 C179 1.465 . S
C185 C184 1.396 . S
C185 C186 1.399 1_554 S
C186 H172 0.929 . S
C186 C185 1.399 1_556 S
C186 C187 1.385 . S
C187 H173 0.931 . S
C187 C186 1.385 . S
C187 C188 1.389 1_556 S
C188 C187 1.389 1_554 S
C188 C189 1.387 . S
C189 H174 0.930 . S
C189 C184 1.390 . S
C189 C188 1.387 . S
H190 C202 0.930 . S
H191 C204 0.930 . S
H192 C205 0.930 . S
H193 C209 0.959 . S
H194 C209 0.959 . S
H195 C209 0.961 . S
H196 C210 0.960 . S
H197 C210 0.961 . S
H198 C210 0.959 . S
H199 C213 0.929 . S
H200 C214 0.931 . S
H201 C216 0.930 . S
C202 H190 0.930 . S
C202 C203 1.399 1_556 S
C202 C207 1.399 . S
C203 C202 1.399 1_554 S
C203 C204 1.376 . S
C204 H191 0.930 . S
C204 C203 1.376 . S
C204 C205 1.388 . S
C205 H192 0.930 . S
C205 C204 1.388 . S
C205 C206 1.390 . S
C206 C205 1.390 . S
C206 C207 1.394 1_554 S
C206 C212 1.465 . S
C207 C202 1.399 . S
C207 C206 1.394 1_556 S
C207 C208 1.516 . S
C208 C207 1.516 . S
C208 C209 1.502 . S
C208 C210 1.561 . S
C208 C211 1.526 . S
C209 H193 0.959 . S
C209 H194 0.959 . S
C209 H195 0.961 . S
C209 C208 1.502 . S
C210 H196 0.960 . S
C210 H197 0.961 . S
C210 H198 0.959 . S
C210 C208 1.561 . S
C211 C208 1.526 . S
C211 C212 1.396 1_556 S
C211 C216 1.390 . S
C212 C206 1.465 . S
C212 C211 1.396 1_554 S
C212 C213 1.399 . S
C213 H199 0.929 . S
C213 C212 1.399 . S
C213 C214 1.385 . S
C214 H200 0.931 . S
C214 C213 1.385 . S
C214 C215 1.389 . S
C215 C214 1.389 . S
C215 C216 1.387 1_554 S
C216 H201 0.930 . S
C216 C211 1.390 . S
C216 C215 1.387 1_556 S
H217 C229 0.930 . S
H218 C231 0.930 . S
H219 C232 0.930 . S
H220 C236 0.959 . S
H221 C236 0.959 . S
H222 C236 0.961 . S
H223 C237 0.960 . S
H224 C237 0.961 . S
H225 C237 0.959 . S
H226 C240 0.929 . S
H227 C241 0.931 . S
H228 C243 0.930 . S
C229 H217 0.930 . S
C229 C230 1.399 . S
C229 C234 1.399 . S
C230 C229 1.399 . S
C230 C231 1.376 1_556 S
C231 H218 0.930 . S
C231 C230 1.376 1_554 S
C231 C232 1.388 . S
C232 H219 0.930 . S
C232 C231 1.388 . S
C232 C233 1.381 1_554 S
C233 C232 1.381 1_556 S
C233 C234 1.407 . S
C233 C239 1.464 . S
C234 C229 1.399 . S
C234 C233 1.407 . S
C234 C235 1.516 . S
C235 C234 1.516 . S
C235 C236 1.502 . S
C235 C237 1.561 . S
C235 C238 1.526 . S
C236 H220 0.959 . S
C236 H221 0.959 . S
C236 H222 0.961 . S
C236 C235 1.502 . S
C237 H223 0.960 . S
C237 H224 0.961 . S
C237 H225 0.959 . S
C237 C235 1.561 . S
C238 C235 1.526 . S
C238 C239 1.396 . S
C238 C243 1.390 . S
C239 C233 1.464 . S
C239 C238 1.396 . S
C239 C240 1.399 1_556 S
C240 H226 0.929 . S
C240 C239 1.399 1_554 S
C240 C241 1.385 . S
C241 H227 0.931 . S
C241 C240 1.385 . S
C241 C242 1.389 1_554 S
C242 C241 1.389 1_556 S
C242 C243 1.387 . S
C243 H228 0.930 . S
C243 C238 1.390 . S
C243 C242 1.387 . S
H244 C256 0.930 . S
H245 C258 0.930 . S
H246 C259 0.930 . S
H247 C263 0.959 . S
H248 C263 0.959 . S
H249 C263 0.961 . S
H250 C264 0.960 . S
H251 C264 0.961 . S
H252 C264 0.959 . S
H253 C267 0.929 . S
H254 C268 0.931 . S
H255 C270 0.930 . S
C256 H244 0.930 . S
C256 C257 1.399 . S
C256 C261 1.399 . S
C257 C256 1.399 . S
C257 C258 1.376 . S
C258 H245 0.930 . S
C258 C257 1.376 . S
C258 C259 1.388 . S
C259 H246 0.930 . S
C259 C258 1.388 . S
C259 C260 1.390 . S
C260 C259 1.390 . S
C260 C261 1.394 . S
C260 C266 1.465 . S
C261 C256 1.399 . S
C261 C260 1.394 . S
C261 C262 1.516 . S
C262 C261 1.516 . S
C262 C263 1.502 . S
C262 C264 1.561 . S
C262 C265 1.526 . S
C263 H247 0.959 . S
C263 H248 0.959 . S
C263 H249 0.961 . S
C263 C262 1.502 . S
C264 H250 0.960 . S
C264 H251 0.961 . S
C264 H252 0.959 . S
C264 C262 1.561 . S
C265 C262 1.526 . S
C265 C266 1.396 . S
C265 C270 1.390 . S
C266 C260 1.465 . S
C266 C265 1.396 . S
C266 C267 1.399 . S
C267 H253 0.929 . S
C267 C266 1.399 . S
C267 C268 1.385 . S
C268 H254 0.931 . S
C268 C267 1.385 . S
C268 C269 1.389 . S
C269 C268 1.389 . S
C269 C270 1.387 . S
C270 H255 0.930 . S
C270 C265 1.390 . S
C270 C269 1.387 . S
H271 C283 0.930 . S
H272 C285 0.930 . S
H273 C286 0.930 . S
H274 C290 0.959 . S
H275 C290 0.959 . S
H276 C290 0.961 . S
H277 C291 0.960 . S
H278 C291 0.961 . S
H279 C291 0.959 . S
H280 C294 0.929 . S
H281 C295 0.931 . S
H282 C297 0.930 . S
C283 H271 0.930 . S
C283 C284 1.399 . S
C283 C288 1.399 . S
C284 C283 1.399 . S
C284 C285 1.376 . S
C285 H272 0.930 . S
C285 C284 1.376 . S
C285 C286 1.388 . S
C286 H273 0.930 . S
C286 C285 1.388 . S
C286 C287 1.390 . S
C287 C286 1.390 . S
C287 C288 1.394 . S
C287 C293 1.465 . S
C288 C283 1.399 . S
C288 C287 1.394 . S
C288 C289 1.516 . S
C289 C288 1.516 . S
C289 C290 1.502 . S
C289 C291 1.561 . S
C289 C292 1.526 . S
C290 H274 0.959 . S
C290 H275 0.959 . S
C290 H276 0.961 . S
C290 C289 1.502 . S
C291 H277 0.960 . S
C291 H278 0.961 . S
C291 H279 0.959 . S
C291 C289 1.561 . S
C292 C289 1.526 . S
C292 C293 1.396 . S
C292 C297 1.390 . S
C293 C287 1.465 . S
C293 C292 1.396 . S
C293 C294 1.399 . S
C294 H280 0.929 . S
C294 C293 1.399 . S
C294 C295 1.385 . S
C295 H281 0.931 . S
C295 C294 1.385 . S
C295 C296 1.389 . S
C296 C295 1.389 . S
C296 C297 1.387 . S
C297 H282 0.930 . S
C297 C292 1.390 . S
C297 C296 1.387 . S
H298 C310 0.930 . S
H299 C312 0.930 . S
H300 C313 0.930 . S
H301 C317 0.959 . S
H302 C317 0.959 . S
H303 C317 0.961 . S
H304 C318 0.960 . S
H305 C318 0.961 . S
H306 C318 0.959 . S
H307 C321 0.929 . S
H308 C322 0.931 . S
H309 C324 0.930 . S
C310 H298 0.930 . S
C310 C311 1.399 . S
C310 C315 1.399 . S
C311 C310 1.399 . S
C311 C312 1.376 . S
C312 H299 0.930 . S
C312 C311 1.376 . S
C312 C313 1.388 . S
C313 H300 0.930 . S
C313 C312 1.388 . S
C313 C314 1.390 . S
C314 C313 1.390 . S
C314 C315 1.394 . S
C314 C320 1.465 . S
C315 C310 1.399 . S
C315 C314 1.394 . S
C315 C316 1.516 . S
C316 C315 1.516 . S
C316 C317 1.502 . S
C316 C318 1.561 . S
C316 C319 1.526 . S
C317 H301 0.959 . S
C317 H302 0.959 . S
C317 H303 0.961 . S
C317 C316 1.502 . S
C318 H304 0.960 . S
C318 H305 0.961 . S
C318 H306 0.959 . S
C318 C316 1.561 . S
C319 C316 1.526 . S
C319 C320 1.396 . S
C319 C324 1.390 . S
C320 C314 1.465 . S
C320 C319 1.396 . S
C320 C321 1.399 . S
C321 H307 0.929 . S
C321 C320 1.399 . S
C321 C322 1.385 . S
C322 H308 0.931 . S
C322 C321 1.385 . S
C322 C323 1.389 . S
C323 C322 1.389 . S
C323 C324 1.387 . S
C324 H309 0.930 . S
C324 C319 1.390 . S
C324 C323 1.387 . S
H325 C337 0.930 . S
H326 C339 0.930 . S
H327 C340 0.930 . S
H328 C344 0.959 . S
H329 C344 0.959 . S
H330 C344 0.961 . S
H331 C345 0.960 . S
H332 C345 0.961 . S
H333 C345 0.959 . S
H334 C348 0.929 . S
H335 C349 0.931 . S
H336 C351 0.930 . S
C337 H325 0.930 . S
C337 C338 1.399 . S
C337 C342 1.399 . S
C338 C337 1.399 . S
C338 C339 1.376 . S
C339 H326 0.930 . S
C339 C338 1.376 . S
C339 C340 1.388 . S
C340 H327 0.930 . S
C340 C339 1.388 . S
C340 C341 1.390 . S
C341 C340 1.390 . S
C341 C342 1.394 . S
C341 C347 1.465 . S
C342 C337 1.399 . S
C342 C341 1.394 . S
C342 C343 1.516 . S
C343 C342 1.516 . S
C343 C344 1.502 . S
C343 C345 1.561 . S
C343 C346 1.526 . S
C344 H328 0.959 . S
C344 H329 0.959 . S
C344 H330 0.961 . S
C344 C343 1.502 . S
C345 H331 0.960 . S
C345 H332 0.961 . S
C345 H333 0.959 . S
C345 C343 1.561 . S
C346 C343 1.526 . S
C346 C347 1.396 . S
C346 C351 1.390 . S
C347 C341 1.465 . S
C347 C346 1.396 . S
C347 C348 1.399 . S
C348 H334 0.929 . S
C348 C347 1.399 . S
C348 C349 1.385 . S
C349 H335 0.931 . S
C349 C348 1.385 . S
C349 C350 1.389 . S
C350 C349 1.389 . S
C350 C351 1.387 . S
C351 H336 0.930 . S
C351 C346 1.390 . S
C351 C350 1.387 . S
H352 C364 0.930 . S
H353 C366 0.930 . S
H354 C367 0.930 . S
H355 C371 0.959 . S
H356 C371 0.959 . S
H357 C371 0.961 . S
H358 C372 0.960 . S
H359 C372 0.961 . S
H360 C372 0.959 . S
H361 C375 0.929 . S
H362 C376 0.931 . S
H363 C378 0.930 . S
C364 H352 0.930 . S
C364 C365 1.399 1_565 S
C364 C369 1.399 . S
C365 C364 1.399 1_545 S
C365 C366 1.376 . S
C366 H353 0.930 . S
C366 C365 1.376 . S
C366 C367 1.388 . S
C367 H354 0.930 . S
C367 C366 1.388 . S
C367 C368 1.390 . S
C368 C367 1.390 . S
C368 C369 1.394 1_545 S
C368 C374 1.465 . S
C369 C364 1.399 . S
C369 C368 1.394 1_565 S
C369 C370 1.516 . S
C370 C369 1.516 . S
C370 C371 1.502 1_455 S
C370 C372 1.561 . S
C370 C373 1.526 . S
C371 H355 0.959 . S
C371 H356 0.959 . S
C371 H357 0.961 . S
C371 C370 1.502 1_655 S
C372 H358 0.960 . S
C372 H359 0.961 . S
C372 H360 0.959 . S
C372 C370 1.561 . S
C373 C370 1.526 . S
C373 C374 1.396 1_565 S
C373 C378 1.390 . S
C374 C368 1.465 . S
C374 C373 1.396 1_545 S
C374 C375 1.399 . S
C375 H361 0.929 . S
C375 C374 1.399 . S
C375 C376 1.385 . S
C376 H362 0.931 . S
C376 C375 1.385 . S
C376 C377 1.395 . S
C377 C376 1.395 . S
C377 C378 1.382 1_545 S
C378 H363 0.930 . S
C378 C373 1.390 . S
C378 C377 1.382 1_565 S
H379 C391 0.930 . S
H380 C393 0.930 . S
H381 C394 0.930 . S
H382 C398 0.959 . S
H383 C398 0.959 . S
H384 C398 0.961 . S
H385 C399 0.960 . S
H386 C399 0.961 . S
H387 C399 0.959 . S
H388 C402 0.929 . S
H389 C403 0.931 . S
H390 C405 0.930 1_455 S
C391 H379 0.930 . S
C391 C392 1.399 1_565 S
C391 C396 1.399 . S
C392 C391 1.399 1_545 S
C392 C393 1.376 1_455 S
C393 H380 0.930 . S
C393 C392 1.376 1_655 S
C393 C394 1.388 . S
C394 H381 0.930 . S
C394 C393 1.388 . S
C394 C395 1.390 . S
C395 C394 1.390 . S
C395 C396 1.394 1_645 S
C395 C401 1.465 . S
C396 C391 1.399 . S
C396 C395 1.394 1_465 S
C396 C397 1.516 . S
C397 C396 1.516 . S
C397 C398 1.502 . S
C397 C399 1.561 1_455 S
C397 C400 1.526 1_455 S
C398 H382 0.959 . S
C398 H383 0.959 . S
C398 H384 0.961 . S
C398 C397 1.502 . S
C399 H385 0.960 . S
C399 H386 0.961 . S
C399 H387 0.959 . S
C399 C397 1.561 1_655 S
C400 C397 1.526 1_655 S
C400 C401 1.396 1_565 S
C400 C405 1.390 . S
C401 C395 1.465 . S
C401 C400 1.396 1_545 S
C401 C402 1.399 . S
C402 H388 0.929 . S
C402 C401 1.399 . S
C402 C403 1.385 . S
C403 H389 0.931 . S
C403 C402 1.385 . S
C403 C404 1.389 . S
C404 C403 1.389 . S
C404 C405 1.387 1_545 S
C405 H390 0.930 1_655 S
C405 C400 1.390 . S
C405 C404 1.387 1_565 S
H406 C418 0.930 . S
H407 C420 0.930 . S
H408 C421 0.930 . S
H409 C425 0.959 . S
H410 C425 0.959 . S
H411 C425 0.961 . S
H412 C426 0.960 . S
H413 C426 0.961 . S
H414 C426 0.959 . S
H415 C429 0.929 . S
H416 C430 0.931 . S
H417 C432 0.930 . S
C418 H406 0.930 . S
C418 C419 1.399 . S
C418 C423 1.399 . S
C419 C418 1.399 . S
C419 C420 1.376 . S
C420 H407 0.930 . S
C420 C419 1.376 . S
C420 C421 1.388 . S
C421 H408 0.930 . S
C421 C420 1.388 . S
C421 C422 1.390 . S
C422 C421 1.390 . S
C422 C423 1.394 . S
C422 C428 1.465 . S
C423 C418 1.399 . S
C423 C422 1.394 . S
C423 C424 1.516 . S
C424 C423 1.516 . S
C424 C425 1.502 . S
C424 C426 1.561 . S
C424 C427 1.526 . S
C425 H409 0.959 . S
C425 H410 0.959 . S
C425 H411 0.961 . S
C425 C424 1.502 . S
C426 H412 0.960 . S
C426 H413 0.961 . S
C426 H414 0.959 . S
C426 C424 1.561 . S
C427 C424 1.526 . S
C427 C428 1.396 . S
C427 C432 1.390 . S
C428 C422 1.465 . S
C428 C427 1.396 . S
C428 C429 1.399 . S
C429 H415 0.929 . S
C429 C428 1.399 . S
C429 C430 1.385 . S
C430 H416 0.931 . S
C430 C429 1.385 . S
C430 C431 1.389 . S
C431 C430 1.389 . S
C431 C432 1.387 . S
C432 H417 0.930 . S
C432 C427 1.390 . S
C432 C431 1.387 . S
H433 C445 0.930 . S
H434 C447 0.930 . S
H435 C448 0.930 . S
H436 C452 0.959 . S
H437 C452 0.959 . S
H438 C452 0.961 . S
H439 C453 0.960 . S
H440 C453 0.961 . S
H441 C453 0.959 . S
H442 C456 0.929 . S
H443 C457 0.931 . S
H444 C459 0.930 . S
C445 H433 0.930 . S
C445 C446 1.399 . S
C445 C450 1.399 . S
C446 C445 1.399 . S
C446 C447 1.376 . S
C447 H434 0.930 . S
C447 C446 1.376 . S
C447 C448 1.388 . S
C448 H435 0.930 . S
C448 C447 1.388 . S
C448 C449 1.390 . S
C449 C448 1.390 . S
C449 C450 1.394 . S
C449 C455 1.465 . S
C450 C445 1.399 . S
C450 C449 1.394 . S
C450 C451 1.516 . S
C451 C450 1.516 . S
C451 C452 1.502 . S
C451 C453 1.561 . S
C451 C454 1.526 . S
C452 H436 0.959 . S
C452 H437 0.959 . S
C452 H438 0.961 . S
C452 C451 1.502 . S
C453 H439 0.960 . S
C453 H440 0.961 . S
C453 H441 0.959 . S
C453 C451 1.561 . S
C454 C451 1.526 . S
C454 C455 1.396 . S
C454 C459 1.390 . S
C455 C449 1.465 . S
C455 C454 1.396 . S
C455 C456 1.399 . S
C456 H442 0.929 . S
C456 C455 1.399 . S
C456 C457 1.385 . S
C457 H443 0.931 . S
C457 C456 1.385 . S
C457 C458 1.389 . S
C458 C457 1.389 . S
C458 C459 1.387 . S
C459 H444 0.930 . S
C459 C454 1.390 . S
C459 C458 1.387 . S
C161 C123 1.487 . S
C149 C27 1.533 . S
C176 N6 1.329 . S
C188 C109 1.388 . S
C203 C16 1.436 . S
C215 C128 1.428 1_554 S
C230 N14 1.470 1_556 S
C242 C104 1.518 . S
C257 C57 1.535 . S
C269 C85 1.485 . S
C284 N36 1.346 . S
C296 C71 1.414 . S
C323 C90 1.388 . S
C311 C46 1.449 . S
C350 C66 1.523 . S
C338 N44 1.465 . S
C365 C10 1.519 1_545 S
C377 C62 1.516 1_545 S
C392 C1 1.552 . S
C404 C81 1.556 1_545 S
C431 C100 1.518 . S
C419 C40 1.519 . S
C446 C31 1.561 . S
C458 C119 1.541 . S
