# Generated by pormake.
# Topology nom, (4,4)-cn, num edge types: 1
# Building blocks:
#     Node 0, Type 0, BuildingBlock: KUFVIS_clean_linker_0, # of connection points: 4
#     Node 1, Type 0, BuildingBlock: KUFVIS_clean_linker_0, # of connection points: 4
#     Node 2, Type 0, BuildingBlock: KUFVIS_clean_linker_0, # of connection points: 4
#     Node 3, Type 0, BuildingBlock: KUFVIS_clean_linker_0, # of connection points: 4
#     Node 4, Type 0, BuildingBlock: KUFVIS_clean_linker_0, # of connection points: 4
#     Node 5, Type 0, BuildingBlock: KUFVIS_clean_linker_0, # of connection points: 4
#     Node 6, Type 1, BuildingBlock: QUQFOY_clean_sbu_1, # of connection points: 4
#     Node 7, Type 1, BuildingBlock: QUQFOY_clean_sbu_1, # of connection points: 4
#     Node 8, Type 1, BuildingBlock: QUQFOY_clean_sbu_1, # of connection points: 4
#     Node 9, Type 1, BuildingBlock: QUQFOY_clean_sbu_1, # of connection points: 4
#     Node 10, Type 1, BuildingBlock: QUQFOY_clean_sbu_1, # of connection points: 4
#     Node 11, Type 1, BuildingBlock: QUQFOY_clean_sbu_1, # of connection points: 4
#     Edge 12, Type (0, 1), BuildingBlock: KIFKEQ_clean_linker_1, # of connection points: 2
#     Edge 13, Type (0, 1), BuildingBlock: KIFKEQ_clean_linker_1, # of connection points: 2
#     Edge 14, Type (0, 1), BuildingBlock: KIFKEQ_clean_linker_1, # of connection points: 2
#     Edge 15, Type (0, 1), BuildingBlock: KIFKEQ_clean_linker_1, # of connection points: 2
#     Edge 16, Type (0, 1), BuildingBlock: KIFKEQ_clean_linker_1, # of connection points: 2
#     Edge 17, Type (0, 1), BuildingBlock: KIFKEQ_clean_linker_1, # of connection points: 2
#     Edge 18, Type (0, 1), BuildingBlock: KIFKEQ_clean_linker_1, # of connection points: 2
#     Edge 19, Type (0, 1), BuildingBlock: KIFKEQ_clean_linker_1, # of connection points: 2
#     Edge 20, Type (0, 1), BuildingBlock: KIFKEQ_clean_linker_1, # of connection points: 2
#     Edge 21, Type (0, 1), BuildingBlock: KIFKEQ_clean_linker_1, # of connection points: 2
#     Edge 22, Type (0, 1), BuildingBlock: KIFKEQ_clean_linker_1, # of connection points: 2
#     Edge 23, Type (0, 1), BuildingBlock: KIFKEQ_clean_linker_1, # of connection points: 2
#     Edge 24, Type (0, 1), BuildingBlock: KIFKEQ_clean_linker_1, # of connection points: 2
#     Edge 25, Type (0, 1), BuildingBlock: KIFKEQ_clean_linker_1, # of connection points: 2
#     Edge 26, Type (0, 1), BuildingBlock: KIFKEQ_clean_linker_1, # of connection points: 2
#     Edge 27, Type (0, 1), BuildingBlock: KIFKEQ_clean_linker_1, # of connection points: 2
#     Edge 28, Type (0, 1), BuildingBlock: KIFKEQ_clean_linker_1, # of connection points: 2
#     Edge 29, Type (0, 1), BuildingBlock: KIFKEQ_clean_linker_1, # of connection points: 2
#     Edge 30, Type (0, 1), BuildingBlock: KIFKEQ_clean_linker_1, # of connection points: 2
#     Edge 31, Type (0, 1), BuildingBlock: KIFKEQ_clean_linker_1, # of connection points: 2
#     Edge 32, Type (0, 1), BuildingBlock: KIFKEQ_clean_linker_1, # of connection points: 2
#     Edge 33, Type (0, 1), BuildingBlock: KIFKEQ_clean_linker_1, # of connection points: 2
#     Edge 34, Type (0, 1), BuildingBlock: KIFKEQ_clean_linker_1, # of connection points: 2
#     Edge 35, Type (0, 1), BuildingBlock: KIFKEQ_clean_linker_1, # of connection points: 2
# Relax obj value: 0.005
# Max RMSD: 0.089
# Mean RMSD: 0.068
data_MOF--net-nom--node1-QUQFOY_clean_sbu_1--node2-KUFVIS_clean_linker_0--edge1-KIFKEQ_clean_linker_1
_symmetry_space_group_name_H-M    P1
_symmetry_Int_Tables_number       1
_symmetry_cell_setting            triclinic
loop_
_symmetry_equiv_pos_as_xyz
'x, y, z'
_cell_length_a     46.888567
_cell_length_b     46.862791
_cell_length_c     47.910818
_cell_angle_alpha  89.913163
_cell_angle_beta   90.068711
_cell_angle_gamma 119.99886
loop_
_atom_site_label
_atom_site_type_symbol
_atom_site_fract_x
_atom_site_fract_y
_atom_site_fract_z
_atom_type_partial_charge
H0 H 0.16707 0.61411 0.30054 0.0
H1 H 0.086 0.57819 0.24427 0.0
H2 H 0.07014 0.55799 0.33341 0.0
H3 H 1.02088 0.54601 0.32721 0.0
H4 H 0.93992 0.49868 0.27105 0.0
H5 H 1.03697 0.54031 0.23834 0.0
C6 C 0.14068 0.6002 0.29698 0.0
C7 C 0.11949 0.58763 0.31972 0.0
C8 C 0.12856 0.59569 0.26981 0.0
C9 C 0.09436 0.57929 0.26543 0.0
C10 C 0.07196 0.56479 0.28809 0.0
C11 C 0.08547 0.56878 0.31528 0.0
C12 C 1.03504 0.546 0.28354 0.0
C13 C 1.01257 0.5382 0.30613 0.0
C14 C 0.9784 0.51984 0.30177 0.0
C15 C 0.96631 0.51154 0.27464 0.0
C16 C 0.98754 0.52007 0.25195 0.0
C17 C 1.02159 0.53582 0.25641 0.0
H18 H 0.59752 0.15025 0.45988 0.0
H19 H 0.53023 0.06913 0.40944 0.0
H20 H 0.56275 0.05195 0.48931 0.0
H21 H 0.51362 1.00574 0.48811 0.0
H22 H 0.47385 0.92408 0.43167 0.0
H23 H 0.52897 1.02182 0.39885 0.0
C24 C 0.58323 0.12382 0.45658 0.0
C25 C 0.58184 0.10233 0.47745 0.0
C26 C 0.56502 0.11189 0.43208 0.0
C27 C 0.54509 0.07782 0.42816 0.0
C28 C 0.5441 0.05539 0.44857 0.0
C29 C 0.56268 0.06821 0.47328 0.0
C30 C 0.52406 1.01889 0.44408 0.0
C31 C 0.51066 0.99674 0.46691 0.0
C32 C 0.49351 0.96253 0.46246 0.0
C33 C 0.48783 0.95048 0.43517 0.0
C34 C 0.49974 0.97175 0.41231 0.0
C35 C 0.51868 1.00579 0.41678 0.0
H36 H 0.60369 0.47699 0.60582 0.0
H37 H 0.53479 0.48395 0.65967 0.0
H38 H 0.55657 0.52958 0.57766 0.0
H39 H 0.50767 0.52401 0.58068 0.0
H40 H 0.46287 0.55937 0.63812 0.0
H41 H 0.52484 0.52414 0.66984 0.0
C42 C 0.58746 0.48676 0.60999 0.0
C43 C 0.58144 0.50365 0.58894 0.0
C44 C 0.57139 0.48032 0.63571 0.0
C45 C 0.54818 0.4905 0.64016 0.0
C46 C 0.54249 0.50887 0.6195 0.0
C47 C 0.55964 0.51531 0.59391 0.0
C48 C 0.51929 0.52172 0.62458 0.0
C49 C 0.50417 0.52896 0.60206 0.0
C50 C 0.48489 0.54363 0.60697 0.0
C51 C 0.47824 0.5485 0.63435 0.0
C52 C 0.49179 0.54058 0.65693 0.0
C53 C 0.51309 0.52824 0.65207 0.0
H54 H 0.16918 0.57869 0.77243 0.0
H55 H 0.0879 0.53201 0.8283 0.0
H56 H 0.07234 0.53685 0.73915 0.0
H57 H 1.0232 0.49938 0.74492 0.0
H58 H 0.94179 0.46347 0.80071 0.0
H59 H 1.03848 0.51937 0.83412 0.0
C60 C 0.14276 0.56585 0.77589 0.0
C61 C 0.12167 0.55718 0.75306 0.0
C62 C 0.13052 0.55783 0.803 0.0
C63 C 0.09631 0.53954 0.8072 0.0
C64 C 0.07397 0.5315 0.78445 0.0
C65 C 0.08759 0.54146 0.75734 0.0
C66 C 1.037 0.51274 0.78879 0.0
C67 C 1.01473 0.49828 0.76602 0.0
C68 C 0.9805 0.4819 0.7702 0.0
C69 C 0.9682 0.47738 0.79729 0.0
C70 C 0.98924 0.48987 0.82014 0.0
C71 C 1.0233 0.50869 0.8159 0.0
H72 H 0.50993 0.9266 0.95797 0.0
H73 H 0.57548 1.00886 0.90777 0.0
H74 H 0.54626 1.0241 -0.0102 0.0
H75 H 0.59416 0.07078 -0.01181 0.0
H76 H 0.63327 0.1535 0.93282 0.0
H77 H 0.57806 0.05653 0.89883 0.0
C78 C 0.52427 0.95311 0.95514 0.0
C79 C 0.52668 0.97407 -0.02317 0.0
C80 C 0.54139 0.96567 0.93025 0.0
C81 C 0.5614 0.99981 0.92683 0.0
C82 C 0.56335 1.02177 0.94808 0.0
C83 C 0.54574 1.0083 -0.02686 0.0
C84 C 0.58326 0.05842 0.94407 0.0
C85 C 0.59683 0.08014 -0.03287 0.0
C86 C 0.61382 0.11443 -0.0369 0.0
C87 C 0.61933 0.12703 0.93599 0.0
C88 C 0.60739 0.10623 0.91289 0.0
C89 C 0.58845 0.07212 0.91695 0.0
H90 H 0.52508 0.62224 0.1025 0.0
H91 H 0.57029 0.58812 0.16065 0.0
H92 H 0.56331 0.56263 0.07252 0.0
H93 H 0.60164 0.55208 0.0794 0.0
H94 H 0.63281 0.50387 0.13706 0.0
H95 H 0.57945 0.54869 0.16798 0.0
C96 C 0.53737 0.60826 0.10674 0.0
C97 C 0.54498 0.59397 0.08469 0.0
C98 C 0.54536 0.60503 0.13412 0.0
C99 C 0.56272 0.58834 0.13941 0.0
C100 C 0.56974 0.57229 0.11744 0.0
C101 C 0.55967 0.57487 0.09006 0.0
C102 C 0.58732 0.55313 0.1228 0.0
C103 C 0.60174 0.54445 0.10063 0.0
C104 C 0.61671 0.5254 0.10562 0.0
C105 C 0.61996 0.51732 0.13298 0.0
C106 C 0.60763 0.52685 0.15531 0.0
C107 C 0.59013 0.54334 0.15023 0.0
O108 O 0.6389 0.4131 0.40885 0.0
Cd109 Cd 0.64501 0.39268 0.37281 0.0
Cd110 Cd 0.70726 0.44877 0.37497 0.0
O111 O 0.6887 0.45688 0.41086 0.0
O112 O 0.60746 0.34645 0.37172 0.0
O113 O 0.65951 0.35885 0.37394 0.0
C114 C 0.62868 0.33665 0.37286 0.0
C115 C 0.76232 0.46134 0.37553 0.0
C116 C 0.65979 0.43979 0.42063 0.0
C117 C 0.66273 0.4415 0.32651 0.0
O118 O 0.69031 0.45858 0.33864 0.0
O119 O 0.64146 0.41363 0.3362 0.0
O120 O 0.7545 0.48404 0.37544 0.0
O121 O 0.7387 0.43106 0.37555 0.0
O122 O 0.27149 0.622 0.56904 0.0
Cd123 Cd 0.29829 0.63178 0.53271 0.0
Cd124 Cd 0.29876 0.6911 0.5387 0.0
O125 O 0.27379 0.66983 0.57495 0.0
O126 O 0.30757 0.5947 0.53041 0.0
O127 O 0.34685 0.64688 0.53271 0.0
C128 C 0.33851 0.61613 0.53139 0.0
C129 C 0.34078 0.7463 0.53947 0.0
C130 C 0.264 0.64047 0.58285 0.0
C131 C 0.26333 0.64809 0.48895 0.0
O132 O 0.27125 0.67422 0.50267 0.0
O133 O 0.27299 0.6284 0.49675 0.0
O134 O 0.31019 0.73816 0.54081 0.0
O135 O 0.34773 0.72291 0.53812 0.0
O136 O 0.69253 0.25549 0.7282 0.0
Cd137 Cd 0.71067 0.28267 0.69214 0.0
Cd138 Cd 0.6485 0.2772 0.69356 0.0
O139 O 0.6434 0.25106 0.72947 0.0
O140 O 0.75792 0.29475 0.6926 0.0
O141 O 0.742 0.33183 0.69241 0.0
C142 C 0.76566 0.32525 0.69282 0.0
C143 C 0.63207 0.31679 0.69452 0.0
C144 C 0.66453 0.24457 0.73967 0.0
C145 C 0.66457 0.24634 0.64512 0.0
O146 O 0.64384 0.25249 0.6567 0.0
O147 O 0.69299 0.25697 0.65561 0.0
O148 O 0.61086 0.28578 0.6932 0.0
O149 O 0.66293 0.32552 0.69534 0.0
O150 O 0.47279 0.67158 0.90065 0.0
Cd151 Cd 0.45984 0.68766 0.8654 0.0
Cd152 Cd 0.40085 0.63027 0.87518 0.0
O153 O 0.42456 0.62813 0.91047 0.0
O154 O 0.49616 0.73405 0.86031 0.0
O155 O 0.44452 0.7208 0.86806 0.0
C156 C 0.47481 0.74334 0.86402 0.0
C157 C 0.34601 0.61778 0.87819 0.0
C158 C 0.45486 0.64691 0.91606 0.0
C159 C 0.4391 0.63432 0.82313 0.0
O160 O 0.41455 0.61701 0.83881 0.0
O161 O 0.45932 0.66418 0.82911 0.0
O162 O 0.35394 0.59519 0.87988 0.0
O163 O 0.36947 0.64793 0.8754 0.0
O164 O 0.83653 0.40207 0.00239 0.0
Cd165 Cd 0.80928 0.38518 0.03854 0.0
Cd166 Cd 0.80932 0.44406 0.03246 0.0
O167 O 0.83454 0.44776 -0.00358 0.0
O168 O 0.79798 0.33816 0.04073 0.0
O169 O 0.76034 0.35332 0.03828 0.0
C170 C 0.76736 0.32997 0.03962 0.0
C171 C 0.76826 0.45855 0.0313 0.0
C172 C 0.84429 0.42817 -0.01138 0.0
C173 C 0.84426 0.43591 0.08242 0.0
O174 O 0.83648 0.45422 0.06864 0.0
O175 O 0.83454 0.40656 0.07463 0.0
O176 O 0.79904 0.48048 0.03024 0.0
O177 O 0.76056 0.42798 0.03262 0.0
O178 O 0.46626 0.82431 0.15775 0.0
Cd179 Cd 0.46094 0.79969 0.19488 0.0
Cd180 Cd 0.39887 0.79418 0.19248 0.0
O181 O 0.41699 0.81949 0.15583 0.0
O182 O 0.49844 0.79093 0.19558 0.0
O183 O 0.44632 0.75128 0.19673 0.0
C184 C 0.47716 0.75991 0.1966 0.0
C185 C 0.34384 0.75168 0.19292 0.0
C186 C 0.44556 0.8302 0.14568 0.0
C187 C 0.44432 0.8327 0.24018 0.0
O188 O 0.41651 0.82178 0.22834 0.0
O189 O 0.46552 0.82599 0.23055 0.0
O190 O 0.35164 0.7822 0.19226 0.0
O191 O 0.36747 0.74504 0.19309 0.0
H192 H 0.13398 0.63949 0.22925 0.0
H193 H 0.17865 0.58429 0.25955 0.0
H194 H 0.183 0.67365 0.20103 0.0
H195 H 0.22798 0.61901 0.23297 0.0
H196 H 0.31741 0.68506 0.18595 0.0
H197 H 0.26042 0.64202 0.19377 0.0
H198 H 0.23501 0.71659 0.21366 0.0
H199 H 0.29118 0.75918 0.20439 0.0
C200 C 0.15389 0.63406 0.22917 0.0
C201 C 0.15283 0.60964 0.2468 0.0
C202 C 0.18221 0.65391 0.21338 0.0
C203 C 0.21001 0.64981 0.21522 0.0
C204 C 0.20731 0.62308 0.23076 0.0
C205 C 0.17901 0.60317 0.24621 0.0
C206 C 0.29943 0.69215 0.19155 0.0
C207 C 0.30888 0.72548 0.19493 0.0
C208 C 0.26675 0.66749 0.19613 0.0
C209 C 0.24292 0.67562 0.20471 0.0
C210 C 0.25226 0.70913 0.20669 0.0
C211 C 0.28473 0.73371 0.20168 0.0
H212 H 0.52521 0.13809 0.43001 0.0
H213 H 0.61037 0.14281 0.39141 0.0
H214 H 0.53906 0.191 0.40924 0.0
H215 H 0.62404 0.19543 0.36969 0.0
H216 H 0.66588 0.30767 0.38303 0.0
H217 H 0.6466 0.24926 0.38944 0.0
H218 H 0.54721 0.2264 0.3706 0.0
H219 H 0.56641 0.28495 0.36506 0.0
C220 C 0.54597 0.14978 0.41586 0.0
C221 C 0.5665 0.13637 0.41192 0.0
C222 C 0.55409 0.1802 0.40402 0.0
C223 C 0.58302 0.19783 0.38809 0.0
C224 C 0.60196 0.18286 0.38227 0.0
C225 C 0.59388 0.1525 0.39426 0.0
C226 C 0.63999 0.29015 0.37995 0.0
C227 C 0.61765 0.30101 0.37389 0.0
C228 C 0.62891 0.25655 0.38338 0.0
C229 C 0.59525 0.23298 0.38062 0.0
C230 C 0.57318 0.24383 0.3733 0.0
C231 C 0.58424 0.27743 0.37005 0.0
H232 H 0.49867 0.6061 0.59883 0.0
H233 H 0.44143 0.50808 0.56527 0.0
H234 H 0.46641 0.62394 0.57231 0.0
H235 H 0.40955 0.52615 0.53723 0.0
H236 H 0.32742 0.55408 0.54061 0.0
H237 H 0.36772 0.53724 0.54959 0.0
H238 H 0.44621 0.63653 0.53279 0.0
H239 H 0.4055 0.6537 0.52526 0.0
C240 C 0.4799 0.58872 0.58477 0.0
C241 C 0.47219 0.55568 0.58428 0.0
C242 C 0.46139 0.59896 0.56937 0.0
C243 C 0.43479 0.5764 0.5529 0.0
C244 C 0.42931 0.54403 0.55023 0.0
C245 C 0.4478 0.53371 0.56593 0.0
C246 C 0.35328 0.57227 0.53847 0.0
C247 C 0.36328 0.60538 0.53275 0.0
C248 C 0.37653 0.5625 0.54333 0.0
C249 C 0.41045 0.58552 0.54223 0.0
C250 C 0.42036 0.61822 0.5345 0.0
C251 C 0.39704 0.6281 0.53007 0.0
H252 H 0.97534 0.43798 0.72999 0.0
H253 H 0.93043 0.49322 0.75935 0.0
H254 H 0.92645 0.40361 0.7017 0.0
H255 H 0.88122 0.4583 0.73269 0.0
H256 H 0.79202 0.39183 0.68544 0.0
H257 H 0.84893 0.435 0.69341 0.0
H258 H 0.87442 0.36068 0.7144 0.0
H259 H 0.81834 0.31796 0.70501 0.0
C260 C 0.95542 0.44338 0.72968 0.0
C261 C 0.95637 0.46787 0.74708 0.0
C262 C 0.92716 0.42341 0.71386 0.0
C263 C 0.89932 0.42746 0.71541 0.0
C264 C 0.90192 0.45426 0.7307 0.0
C265 C 0.93016 0.47429 0.7462 0.0
C266 C 0.81 0.38483 0.69132 0.0
C267 C 0.80059 0.35153 0.69496 0.0
C268 C 0.84264 0.40956 0.69599 0.0
C269 C 0.86646 0.40154 0.7049 0.0
C270 C 0.85717 0.36806 0.70717 0.0
C271 C 0.82474 0.34341 0.70208 0.0
H272 H 0.58111 0.93982 0.9232 0.0
H273 H 0.49308 0.93578 0.89172 0.0
H274 H 0.56598 0.88781 0.90007 0.0
H275 H 0.47804 0.88407 0.86773 0.0
H276 H 0.53568 0.79559 0.85241 0.0
H277 H 0.5549 0.85394 0.85948 0.0
H278 H 0.45735 0.82967 0.88635 0.0
H279 H 0.43799 0.77148 0.87855 0.0
C280 C 0.55934 0.92851 0.91011 0.0
C281 C 0.53843 0.94179 0.90885 0.0
C282 C 0.55051 0.89862 0.89692 0.0
C283 C 0.52048 0.88143 0.88233 0.0
C284 C 0.50101 0.89633 0.87919 0.0
C285 C 0.50982 0.92616 0.89251 0.0
C286 C 0.51821 0.80276 0.85942 0.0
C287 C 0.48536 0.77886 0.8652 0.0
C288 C 0.52928 0.83623 0.86355 0.0
C289 C 0.5078 0.84659 0.87367 0.0
C290 C 0.47454 0.82273 0.87817 0.0
C291 C 0.46344 0.78926 0.87391 0.0
H292 H 0.60379 0.4632 0.0961 0.0
H293 H 0.66159 0.5626 0.06527 0.0
H294 H 0.63758 0.44692 0.07017 0.0
H295 H 0.6948 0.54603 0.03765 0.0
H296 H 0.77789 0.51983 0.04157 0.0
H297 H 0.73663 0.53539 0.05033 0.0
H298 H 0.65982 0.436 0.03141 0.0
H299 H 0.7015 0.42007 0.0242 0.0
C300 C 0.62309 0.48129 0.08282 0.0
C301 C 0.63051 0.51427 0.08308 0.0
C302 C 0.64245 0.47192 0.06771 0.0
C303 C 0.66958 0.49527 0.05215 0.0
C304 C 0.67472 0.52756 0.05002 0.0
C305 C 0.65542 0.53702 0.06547 0.0
C306 C 0.7522 0.50136 0.03895 0.0
C307 C 0.74294 0.46857 0.03269 0.0
C308 C 0.7284 0.51039 0.04368 0.0
C309 C 0.69463 0.48696 0.04187 0.0
C310 C 0.6855 0.4546 0.03368 0.0
C311 C 0.70937 0.44543 0.02943 0.0
H312 H 0.45105 0.95679 0.50425 0.0
H313 H 0.50546 0.91254 0.4715 0.0
H314 H 0.41787 0.90752 0.5326 0.0
H315 H 0.47173 0.86301 0.49824 0.0
H316 H 0.40755 0.77311 0.54532 0.0
H317 H 0.4501 0.83031 0.5375 0.0
H318 H 0.37464 0.85541 0.52054 0.0
H319 H 0.33255 0.79899 0.52984 0.0
C320 C 0.45655 0.93693 0.50382 0.0
C321 C 0.48044 0.93818 0.48549 0.0
C322 C 0.43725 0.90846 0.51969 0.0
C323 C 0.44139 0.88072 0.51725 0.0
C324 C 0.46765 0.88362 0.50095 0.0
C325 C 0.487 0.91204 0.48541 0.0
C326 C 0.40017 0.79106 0.5404 0.0
C327 C 0.36672 0.78144 0.53781 0.0
C328 C 0.42455 0.82387 0.5358 0.0
C329 C 0.41602 0.84767 0.52796 0.0
C330 C 0.38242 0.83818 0.52688 0.0
C331 C 0.35813 0.80556 0.53193 0.0
H332 H 0.63131 0.49271 0.65362 0.0
H333 H 0.52757 0.42412 0.66373 0.0
H334 H 0.64439 0.45374 0.67463 0.0
H335 H 0.54049 0.38534 0.6868 0.0
H336 H 0.57349 0.30822 0.67589 0.0
H337 H 0.55717 0.34953 0.67056 0.0
H338 H 0.64866 0.42204 0.70882 0.0
H339 H 0.66575 0.38083 0.71232 0.0
C340 C 0.61129 0.46962 0.66139 0.0
C341 C 0.57843 0.46114 0.65652 0.0
C342 C 0.61877 0.44718 0.67369 0.0
C343 C 0.59353 0.41578 0.68194 0.0
C344 C 0.56062 0.40881 0.6799 0.0
C345 C 0.55312 0.43124 0.66714 0.0
C346 C 0.59001 0.33296 0.68334 0.0
C347 C 0.62114 0.34144 0.69408 0.0
C348 C 0.58048 0.35671 0.6806 0.0
C349 C 0.60158 0.38949 0.68905 0.0
C350 C 0.632 0.39737 0.70137 0.0
C351 C 0.64183 0.37373 0.70351 0.0
H352 H 0.13587 0.51957 0.84378 0.0
H353 H 0.18049 0.6194 0.81338 0.0
H354 H 0.18477 0.5346 0.87224 0.0
H355 H 0.22975 0.63413 0.84003 0.0
H356 H 0.31985 0.65812 0.88541 0.0
H357 H 0.26271 0.64404 0.87852 0.0
H358 H 0.23657 0.54337 0.86055 0.0
H359 H 0.2929 0.55712 0.86914 0.0
C360 C 0.15575 0.54493 0.84386 0.0
C361 C 0.15472 0.56822 0.82611 0.0
C362 C 0.18403 0.55351 0.85978 0.0
C363 C 0.21184 0.58542 0.85794 0.0
C364 C 0.20912 0.60938 0.84229 0.0
C365 C 0.18085 0.60091 0.82676 0.0
C366 C 0.30166 0.63287 0.88051 0.0
C367 C 0.31096 0.60886 0.87742 0.0
C368 C 0.26888 0.62476 0.87642 0.0
C369 C 0.2448 0.5926 0.86848 0.0
C370 C 0.25399 0.56827 0.86698 0.0
C371 C 0.28656 0.57625 0.87163 0.0
H372 H 0.65701 0.11979 0.00415 0.0
H373 H 0.60143 0.16383 -0.02655 0.0
H374 H 0.69054 0.16878 0.03261 0.0
H375 H 0.6355 0.21314 0.00026 0.0
H376 H 0.70075 0.30303 0.04665 0.0
H377 H 0.65811 0.24579 0.03924 0.0
H378 H 0.73332 0.22096 0.0204 0.0
H379 H 0.77551 0.27741 0.02934 0.0
C380 C 0.65133 0.13953 0.00422 0.0
C381 C 0.62701 0.13833 -0.01359 0.0
C382 C 0.67083 0.16786 0.02014 0.0
C383 C 0.66647 0.19551 0.01824 0.0
C384 C 0.63977 0.1926 0.00254 0.0
C385 C 0.62021 0.1643 -0.01304 0.0
C386 C 0.70806 0.28512 0.0414 0.0
C387 C 0.74146 0.29482 0.03819 0.0
C388 C 0.68363 0.25228 0.03704 0.0
C389 C 0.69203 0.22855 0.02879 0.0
C390 C 0.72562 0.23813 0.02708 0.0
C391 C 0.74998 0.27076 0.03192 0.0
H392 H 0.48341 0.59026 0.1465 0.0
H393 H 0.58455 0.65497 0.16996 0.0
H394 H 0.46733 0.62605 0.1694 0.0
H395 H 0.56844 0.69054 0.19452 0.0
H396 H 0.53793 0.76986 0.18343 0.0
H397 H 0.55465 0.72891 0.17798 0.0
H398 H 0.45838 0.65307 0.20562 0.0
H399 H 0.44117 0.69419 0.20952 0.0
C400 C 0.50197 0.61151 0.15778 0.0
C401 C 0.53522 0.62009 0.15628 0.0
C402 C 0.49278 0.63215 0.17104 0.0
C403 C 0.51664 0.66181 0.18339 0.0
C404 C 0.54949 0.66842 0.18455 0.0
C405 C 0.55874 0.6478 0.17094 0.0
C406 C 0.52041 0.74449 0.18861 0.0
C407 C 0.48804 0.73518 0.19644 0.0
C408 C 0.53014 0.72091 0.1858 0.0
C409 C 0.5079 0.68739 0.19117 0.0
C410 C 0.47605 0.67846 0.20067 0.0
C411 C 0.46614 0.70203 0.203 0.0
H412 H 0.97253 0.5589 0.34126 0.0
H413 H 0.92859 0.45839 0.31291 0.0
H414 H 0.92324 0.54438 0.36892 0.0
H415 H 0.87897 0.44409 0.33888 0.0
H416 H 0.78873 0.42137 0.38421 0.0
H417 H 0.84586 0.43532 0.3774 0.0
H418 H 0.8714 0.53489 0.35542 0.0
H419 H 0.81509 0.52135 0.3637 0.0
C420 C 0.95273 0.53351 0.34167 0.0
C421 C 0.95406 0.50985 0.3247 0.0
C422 C 0.92424 0.52522 0.35712 0.0
C423 C 0.89654 0.49322 0.35559 0.0
C424 C 0.89954 0.46893 0.34082 0.0
C425 C 0.92801 0.47713 0.32572 0.0
C426 C 0.80676 0.44635 0.37836 0.0
C427 C 0.79732 0.47012 0.37412 0.0
C428 C 0.83953 0.45438 0.37437 0.0
C429 C 0.86345 0.4862 0.3655 0.0
C430 C 0.85409 0.51029 0.36264 0.0
C431 C 0.82153 0.5024 0.36709 0.0
H432 H 0.15958 0.64825 0.34059 0.0
H433 H 0.11265 0.54504 0.36178 0.0
H434 H 0.19213 0.66228 0.38312 0.0
H435 H 0.14479 0.55905 0.40516 0.0
H436 H 0.23149 0.68003 0.47075 0.0
H437 H 0.19135 0.66371 0.43322 0.0
H438 H 0.20313 0.57979 0.41554 0.0
H439 H 0.24271 0.59559 0.45359 0.0
C440 C 0.15578 0.62864 0.35481 0.0
C441 C 0.13391 0.5956 0.34797 0.0
C442 C 0.17428 0.63665 0.37922 0.0
C443 C 0.17126 0.61175 0.39739 0.0
C444 C 0.14798 0.57871 0.39131 0.0
C445 C 0.12934 0.57069 0.36675 0.0
C446 C 0.22564 0.65815 0.45882 0.0
C447 C 0.24051 0.63925 0.46504 0.0
C448 C 0.20257 0.64877 0.43734 0.0
C449 C 0.19396 0.62038 0.42149 0.0
C450 C 0.20879 0.60145 0.42771 0.0
C451 C 0.23179 0.61076 0.44928 0.0
H452 H 0.6451 0.15112 0.48612 0.0
H453 H 0.55449 0.08633 0.5292 0.0
H454 H 0.66682 0.18425 0.52826 0.0
H455 H 0.57644 0.11907 0.57166 0.0
H456 H 0.6042 0.21458 0.61998 0.0
H457 H 0.58659 0.17517 0.58181 0.0
H458 H 0.68411 0.18746 0.57726 0.0
H459 H 0.70201 0.22731 0.61529 0.0
C460 C 0.63028 0.14344 0.50492 0.0
C461 C 0.59806 0.11642 0.50443 0.0
C462 C 0.6427 0.16235 0.52904 0.0
C463 C 0.62306 0.15458 0.55307 0.0
C464 C 0.59185 0.12595 0.55323 0.0
C465 C 0.57947 0.10695 0.5291 0.0
C466 C 0.62198 0.20906 0.61079 0.0
C467 C 0.65455 0.22421 0.62064 0.0
C468 C 0.61175 0.18613 0.58915 0.0
C469 C 0.63386 0.1779 0.57682 0.0
C470 C 0.66655 0.19334 0.58637 0.0
C471 C 0.67678 0.21622 0.60811 0.0
H472 H 0.43158 0.51965 0.67932 0.0
H473 H 0.53538 0.57772 0.69765 0.0
H474 H 0.41886 0.54063 0.72107 0.0
H475 H 0.52273 0.59824 0.74016 0.0
H476 H 0.48899 0.66337 0.78497 0.0
H477 H 0.50245 0.63661 0.74788 0.0
H478 H 0.41926 0.54269 0.77129 0.0
H479 H 0.40526 0.56948 0.80792 0.0
C480 C 0.4516 0.53626 0.69281 0.0
C481 C 0.48443 0.5473 0.6853 0.0
C482 C 0.44435 0.54822 0.71675 0.0
C483 C 0.46982 0.57145 0.73371 0.0
C484 C 0.50263 0.5808 0.72718 0.0
C485 C 0.50988 0.56875 0.70314 0.0
C486 C 0.47342 0.63705 0.7821 0.0
C487 C 0.44593 0.61862 0.79931 0.0
C488 C 0.48141 0.62164 0.76108 0.0
C489 C 0.46212 0.58747 0.75685 0.0
C490 C 0.4345 0.56909 0.77392 0.0
C491 C 0.42644 0.58449 0.79488 0.0
H492 H 0.94928 0.42914 0.8409 0.0
H493 H 0.99547 0.53225 0.86209 0.0
H494 H 0.91634 0.4148 0.88318 0.0
H495 H 0.96293 0.51793 0.90523 0.0
H496 H 0.87643 0.39655 -0.02941 0.0
H497 H 0.91677 0.4132 0.93325 0.0
H498 H 0.90447 0.49681 0.9153 0.0
H499 H 0.86469 0.48068 0.95318 0.0
C500 C 0.95283 0.44866 0.85507 0.0
C501 C 0.97461 0.48176 0.8483 0.0
C502 C 0.93411 0.44048 0.87934 0.0
C503 C 0.93681 0.46525 0.89744 0.0
C504 C 0.95999 0.49836 0.89143 0.0
C505 C 0.97886 0.50656 0.86701 0.0
C506 C 0.88219 0.41842 -0.04137 0.0
C507 C 0.86714 0.43715 -0.03526 0.0
C508 C 0.90539 0.42799 0.93726 0.0
C509 C 0.91392 0.4564 0.9214 0.0
C510 C 0.89888 0.47514 0.92748 0.0
C511 C 0.87576 0.46564 0.94896 0.0
H512 H 0.55548 0.98904 0.02814 0.0
H513 H 0.46375 0.92494 -0.01377 0.0
H514 H 0.53434 0.9561 0.07065 0.0
H515 H 0.44287 0.89156 0.02835 0.0
H516 H 0.40841 0.84937 0.11553 0.0
H517 H 0.42636 0.88874 0.07714 0.0
H518 H 0.52354 0.90014 0.08166 0.0
H519 H 0.50588 0.86122 0.12033 0.0
C520 C 0.53048 0.96846 0.0283 0.0
C521 C 0.51129 0.95933 0.00394 0.0
C522 C 0.51855 0.94934 0.05245 0.0
C523 C 0.48719 0.9209 0.05264 0.0
C524 C 0.4671 0.91332 0.02888 0.0
C525 C 0.47906 0.93235 0.00476 0.0
C526 C 0.43358 0.86014 0.10828 0.0
C527 C 0.4557 0.85206 0.12097 0.0
C528 C 0.44384 0.88275 0.08631 0.0
C529 C 0.47643 0.8978 0.0766 0.0
C530 C 0.49844 0.88947 0.08908 0.0
C531 C 0.48819 0.86683 0.11101 0.0
H532 H 0.56393 0.49243 0.19716 0.0
H533 H 0.66744 0.54544 0.17694 0.0
H534 H 0.57642 0.47367 0.241 0.0
H535 H 0.67992 0.52615 0.21975 0.0
H536 H 0.69671 0.50458 0.30712 0.0
H537 H 0.68155 0.52892 0.26926 0.0
H538 H 0.59463 0.43479 0.25325 0.0
H539 H 0.60924 0.41059 0.29189 0.0
C540 C 0.58933 0.50054 0.20243 0.0
C541 C 0.61475 0.52016 0.18381 0.0
C542 C 0.59648 0.48953 0.22724 0.0
C543 C 0.62914 0.49815 0.23372 0.0
C544 C 0.65457 0.51928 0.21563 0.0
C545 C 0.64744 0.53021 0.19102 0.0
C546 C 0.67442 0.48899 0.29548 0.0
C547 C 0.65435 0.45555 0.30235 0.0
C548 C 0.6657 0.50299 0.27379 0.0
C549 C 0.63687 0.48382 0.25822 0.0
C550 C 0.61671 0.45038 0.26513 0.0
C551 C 0.6253 0.4364 0.28704 0.0
H552 H 0.54224 0.98271 0.36911 0.0
H553 H 0.4396 0.92786 0.39218 0.0
H554 H 0.52944 0.95186 0.32519 0.0
H555 H 0.42691 0.89645 0.34916 0.0
H556 H 0.40896 0.85964 0.26105 0.0
H557 H 0.4236 0.8983 0.29947 0.0
H558 H 0.51327 0.89529 0.31252 0.0
H559 H 0.49911 0.85726 0.27344 0.0
C560 C 0.51692 0.96449 0.36451 0.0
C561 C 0.49192 0.95742 0.38398 0.0
C562 C 0.50963 0.94657 0.33961 0.0
C563 C 0.47721 0.92147 0.33383 0.0
C564 C 0.45207 0.91575 0.35279 0.0
C565 C 0.45934 0.93358 0.37753 0.0
C566 C 0.43178 0.86713 0.27212 0.0
C567 C 0.45274 0.85513 0.26432 0.0
C568 C 0.44018 0.88934 0.29415 0.0
C569 C 0.4696 0.89989 0.30906 0.0
C570 C 0.49069 0.88806 0.30117 0.0
C571 C 0.48238 0.86597 0.27898 0.0
H572 H 0.54927 0.48651 0.53912 0.0
H573 H 0.64533 0.5237 0.57628 0.0
H574 H 0.5694 0.47535 0.49582 0.0
H575 H 0.66522 0.51162 0.5335 0.0
H576 H 0.69588 0.4989 0.44714 0.0
H577 H 0.67801 0.52162 0.48441 0.0
H578 H 0.58299 0.43258 0.4854 0.0
H579 H 0.6005 0.41012 0.44767 0.0
C580 C 0.57495 0.49323 0.5377 0.0
C581 C 0.59571 0.50563 0.56103 0.0
C582 C 0.58634 0.48638 0.51311 0.0
C583 C 0.61866 0.49189 0.51149 0.0
C584 C 0.64019 0.50708 0.53404 0.0
C585 C 0.62882 0.51393 0.55857 0.0
C586 C 0.67119 0.48409 0.45535 0.0
C587 C 0.64965 0.45259 0.44451 0.0
C588 C 0.66096 0.49719 0.47666 0.0
C589 C 0.62901 0.47905 0.48767 0.0
C590 C 0.60753 0.44749 0.47693 0.0
C591 C 0.61772 0.43442 0.45556 0.0
H592 H 0.11438 0.59277 0.71108 0.0
H593 H 0.16251 0.53762 0.73223 0.0
H594 H 0.14636 0.61115 0.66763 0.0
H595 H 0.19485 0.55637 0.68963 0.0
H596 H 0.23268 0.57695 0.60161 0.0
H597 H 0.19316 0.55343 0.63953 0.0
H598 H 0.20463 0.64912 0.65667 0.0
H599 H 0.24362 0.67262 0.61818 0.0
C600 C 0.13132 0.58413 0.7061 0.0
C601 C 0.13624 0.56401 0.72487 0.0
C602 C 0.14986 0.59489 0.68151 0.0
C603 C 0.17335 0.58545 0.67536 0.0
C604 C 0.17682 0.56388 0.69357 0.0
C605 C 0.15844 0.55326 0.71803 0.0
C606 C 0.22691 0.59306 0.61349 0.0
C607 C 0.24153 0.62674 0.60699 0.0
C608 C 0.20419 0.57953 0.63521 0.0
C609 C 0.19569 0.59939 0.65104 0.0
C610 C 0.21024 0.63306 0.64454 0.0
C611 C 0.2329 0.6466 0.62271 0.0
H612 H 0.5653 0.0955 0.86928 0.0
H613 H 0.66762 0.15087 0.89341 0.0
H614 H 0.57855 0.12635 0.82528 0.0
H615 H 0.6807 0.1823 0.85033 0.0
H616 H 0.69975 0.21805 0.76182 0.0
H617 H 0.68471 0.1799 0.80075 0.0
H618 H 0.59474 0.1828 0.81189 0.0
H619 H 0.60932 0.22031 0.77231 0.0
C620 C 0.59064 0.11389 0.86493 0.0
C621 C 0.61542 0.12106 0.88471 0.0
C622 C 0.59818 0.1318 0.83998 0.0
C623 C 0.63063 0.15699 0.83444 0.0
C624 C 0.65554 0.16292 0.85377 0.0
C625 C 0.64802 0.1451 0.87855 0.0
C626 C 0.67678 0.21064 0.77258 0.0
C627 C 0.65586 0.22245 0.76409 0.0
C628 C 0.66815 0.18874 0.7949 0.0
C629 C 0.63853 0.17831 0.80943 0.0
C630 C 0.61749 0.18994 0.80085 0.0
C631 C 0.62602 0.21174 0.77837 0.0
H632 H 0.50608 0.54882 0.04545 0.0
H633 H 0.56672 0.65317 0.06038 0.0
H634 H 0.48628 0.56047 0.00182 0.0
H635 H 0.54669 0.66494 0.01754 0.0
H636 H 0.51994 0.67724 0.9302 0.0
H637 H 0.54535 0.66209 -0.03272 0.0
H638 H 0.44966 0.58272 -0.00808 0.0
H639 H 0.42421 0.59731 0.95436 0.0
C640 C 0.51567 0.57417 0.039 0.0
C641 C 0.5377 0.60014 0.05611 0.0
C642 C 0.50413 0.58087 0.01431 0.0
C643 C 0.51468 0.61363 0.00643 0.0
C644 C 0.53828 0.63948 0.02285 0.0
C645 C 0.54966 0.63278 0.04742 0.0
C646 C 0.50427 0.65659 0.94355 0.0
C647 C 0.47 0.63866 0.93947 0.0
C648 C 0.51887 0.64788 -0.03524 0.0
C649 C 0.49953 0.62114 -0.01754 0.0
C650 C 0.46529 0.60308 -0.0217 0.0
C651 C 0.45067 0.61172 0.95701 0.0
H652 H 0.99435 0.48374 0.21048 0.0
H653 H 0.94751 0.54033 0.23051 0.0
H654 H 0.96229 0.4652 0.16706 0.0
H655 H 0.91506 0.52143 0.18797 0.0
H656 H 0.87634 0.49971 0.10033 0.0
H657 H 0.91632 0.52351 0.13793 0.0
H658 H 0.90396 0.42766 0.15633 0.0
H659 H 0.86454 0.4039 0.11814 0.0
C660 C 0.97769 0.49266 0.20525 0.0
C661 C 0.97313 0.51324 0.22369 0.0
C662 C 0.9591 0.48182 0.18068 0.0
C663 C 0.93591 0.4916 0.17424 0.0
C664 C 0.93286 0.51364 0.19212 0.0
C665 C 0.9513 0.52435 0.21654 0.0
C666 C 0.88202 0.48364 0.11243 0.0
C667 C 0.86702 0.44983 0.10638 0.0
C668 C 0.905 0.49732 0.13395 0.0
C669 C 0.91338 0.47749 0.15005 0.0
C670 C 0.89846 0.4437 0.14398 0.0
C671 C 0.87555 0.43001 0.12234 0.0
loop_
_geom_bond_atom_site_label_1
_geom_bond_atom_site_label_2
_geom_bond_distance
_geom_bond_site_symmetry_2
_ccdc_geom_bond_type
H0 C6 0.930 . S
H1 C9 0.931 . S
H2 C11 0.931 . S
H3 C13 0.930 . S
H4 C15 0.930 . S
H5 C17 0.931 . S
C6 H0 0.930 . S
C6 C7 1.380 . S
C6 C8 1.394 . S
C7 C6 1.380 . S
C7 C11 1.382 . S
C8 C6 1.394 . S
C8 C9 1.400 . S
C9 H1 0.931 . S
C9 C8 1.400 . S
C9 C10 1.375 . S
C10 C9 1.375 . S
C10 C11 1.415 . S
C10 C12 1.501 1_455 S
C11 H2 0.931 . S
C11 C7 1.382 . S
C11 C10 1.415 . S
C12 C10 1.501 1_655 S
C12 C13 1.384 . S
C12 C17 1.408 . S
C13 H3 0.930 . S
C13 C12 1.384 . S
C13 C14 1.389 . S
C14 C13 1.389 . S
C14 C15 1.405 . S
C15 H4 0.930 . S
C15 C14 1.405 . S
C15 C16 1.364 . S
C16 C15 1.364 . S
C16 C17 1.400 . S
C17 H5 0.931 . S
C17 C12 1.408 . S
C17 C16 1.400 . S
H18 C24 0.930 . S
H19 C27 0.931 . S
H20 C29 0.931 . S
H21 C31 0.930 . S
H22 C33 0.930 . S
H23 C35 0.931 . S
C24 H18 0.930 . S
C24 C25 1.380 . S
C24 C26 1.394 . S
C25 C24 1.380 . S
C25 C29 1.382 . S
C26 C24 1.394 . S
C26 C27 1.400 . S
C27 H19 0.931 . S
C27 C26 1.400 . S
C27 C28 1.375 . S
C28 C27 1.375 . S
C28 C29 1.415 . S
C28 C30 1.501 1_545 S
C29 H20 0.931 . S
C29 C25 1.382 . S
C29 C28 1.415 . S
C30 C28 1.501 1_565 S
C30 C31 1.384 . S
C30 C35 1.408 . S
C31 H21 0.930 . S
C31 C30 1.384 . S
C31 C32 1.389 . S
C32 C31 1.389 . S
C32 C33 1.405 . S
C33 H22 0.930 . S
C33 C32 1.405 . S
C33 C34 1.364 . S
C34 C33 1.364 . S
C34 C35 1.400 . S
C35 H23 0.931 . S
C35 C30 1.408 . S
C35 C34 1.400 . S
H36 C42 0.930 . S
H37 C45 0.931 . S
H38 C47 0.931 . S
H39 C49 0.930 . S
H40 C51 0.930 . S
H41 C53 0.931 . S
C42 H36 0.930 . S
C42 C43 1.380 . S
C42 C44 1.394 . S
C43 C42 1.380 . S
C43 C47 1.382 . S
C44 C42 1.394 . S
C44 C45 1.400 . S
C45 H37 0.931 . S
C45 C44 1.400 . S
C45 C46 1.375 . S
C46 C45 1.375 . S
C46 C47 1.415 . S
C46 C48 1.501 . S
C47 H38 0.931 . S
C47 C43 1.382 . S
C47 C46 1.415 . S
C48 C46 1.501 . S
C48 C49 1.384 . S
C48 C53 1.408 . S
C49 H39 0.930 . S
C49 C48 1.384 . S
C49 C50 1.389 . S
C50 C49 1.389 . S
C50 C51 1.405 . S
C51 H40 0.930 . S
C51 C50 1.405 . S
C51 C52 1.364 . S
C52 C51 1.364 . S
C52 C53 1.400 . S
C53 H41 0.931 . S
C53 C48 1.408 . S
C53 C52 1.400 . S
H54 C60 0.930 . S
H55 C63 0.931 . S
H56 C65 0.931 . S
H57 C67 0.930 . S
H58 C69 0.930 . S
H59 C71 0.931 . S
C60 H54 0.930 . S
C60 C61 1.380 . S
C60 C62 1.394 . S
C61 C60 1.380 . S
C61 C65 1.382 . S
C62 C60 1.394 . S
C62 C63 1.400 . S
C63 H55 0.931 . S
C63 C62 1.400 . S
C63 C64 1.375 . S
C64 C63 1.375 . S
C64 C65 1.415 . S
C64 C66 1.501 1_455 S
C65 H56 0.931 . S
C65 C61 1.382 . S
C65 C64 1.415 . S
C66 C64 1.501 1_655 S
C66 C67 1.384 . S
C66 C71 1.408 . S
C67 H57 0.930 . S
C67 C66 1.384 . S
C67 C68 1.389 . S
C68 C67 1.389 . S
C68 C69 1.405 . S
C69 H58 0.930 . S
C69 C68 1.405 . S
C69 C70 1.364 . S
C70 C69 1.364 . S
C70 C71 1.400 . S
C71 H59 0.931 . S
C71 C66 1.408 . S
C71 C70 1.400 . S
H72 C78 0.930 . S
H73 C81 0.931 . S
H74 C83 0.931 . S
H75 C85 0.930 . S
H76 C87 0.930 . S
H77 C89 0.931 . S
C78 H72 0.930 . S
C78 C79 1.380 . S
C78 C80 1.394 1_554 S
C79 C78 1.380 . S
C79 C83 1.382 . S
C80 C78 1.394 1_556 S
C80 C81 1.400 . S
C81 H73 0.931 . S
C81 C80 1.400 . S
C81 C82 1.375 . S
C82 C81 1.375 . S
C82 C83 1.415 1_556 S
C82 C84 1.501 1_565 S
C83 H74 0.931 . S
C83 C79 1.382 . S
C83 C82 1.415 1_554 S
C84 C82 1.501 1_545 S
C84 C85 1.384 1_556 S
C84 C89 1.408 . S
C85 H75 0.930 . S
C85 C84 1.384 1_554 S
C85 C86 1.393 . S
C86 C85 1.393 . S
C86 C87 1.391 1_554 S
C87 H76 0.930 . S
C87 C86 1.391 1_556 S
C87 C88 1.364 . S
C88 C87 1.364 . S
C88 C89 1.400 . S
C89 H77 0.931 . S
C89 C84 1.408 . S
C89 C88 1.400 . S
H90 C96 0.930 . S
H91 C99 0.931 . S
H92 C101 0.931 . S
H93 C103 0.930 . S
H94 C105 0.930 . S
H95 C107 0.931 . S
C96 H90 0.930 . S
C96 C97 1.380 . S
C96 C98 1.394 . S
C97 C96 1.380 . S
C97 C101 1.382 . S
C98 C96 1.394 . S
C98 C99 1.400 . S
C99 H91 0.931 . S
C99 C98 1.400 . S
C99 C100 1.375 . S
C100 C99 1.375 . S
C100 C101 1.415 . S
C100 C102 1.501 . S
C101 H92 0.931 . S
C101 C97 1.382 . S
C101 C100 1.415 . S
C102 C100 1.501 . S
C102 C103 1.384 . S
C102 C107 1.408 . S
C103 H93 0.930 . S
C103 C102 1.384 . S
C103 C104 1.389 . S
C104 C103 1.389 . S
C104 C105 1.405 . S
C105 H94 0.930 . S
C105 C104 1.405 . S
C105 C106 1.364 . S
C106 C105 1.364 . S
C106 C107 1.400 . S
C107 H95 0.931 . S
C107 C102 1.408 . S
C107 C106 1.400 . S
O108 Cd109 2.223 . S
O108 C116 1.315 . S
Cd109 O108 2.223 . S
Cd109 O112 2.297 . S
Cd109 O113 2.439 . S
Cd109 O119 2.240 . S
Cd110 O111 2.240 . S
Cd110 O118 2.223 . S
Cd110 O120 2.297 . S
Cd110 O121 2.439 . S
O111 Cd110 2.240 . S
O111 C116 1.279 . S
O112 Cd109 2.297 . S
O112 C114 1.247 . S
O113 Cd109 2.439 . S
O113 C114 1.208 . S
C114 O112 1.247 . S
C114 O113 1.208 . S
C115 O120 1.247 . S
C115 O121 1.208 . S
C116 O108 1.315 . S
C116 O111 1.279 . S
C117 O118 1.315 . S
C117 O119 1.279 . S
O118 Cd110 2.223 . S
O118 C117 1.315 . S
O119 Cd109 2.240 . S
O119 C117 1.279 . S
O120 Cd110 2.297 . S
O120 C115 1.247 . S
O121 Cd110 2.439 . S
O121 C115 1.208 . S
O122 Cd123 2.223 . S
O122 C130 1.315 . S
Cd123 O122 2.223 . S
Cd123 O126 2.297 . S
Cd123 O127 2.439 . S
Cd123 O133 2.240 . S
Cd124 O125 2.240 . S
Cd124 O132 2.223 . S
Cd124 O134 2.297 . S
Cd124 O135 2.439 . S
O125 Cd124 2.240 . S
O125 C130 1.279 . S
O126 Cd123 2.297 . S
O126 C128 1.247 . S
O127 Cd123 2.439 . S
O127 C128 1.208 . S
C128 O126 1.247 . S
C128 O127 1.208 . S
C129 O134 1.247 . S
C129 O135 1.208 . S
C130 O122 1.315 . S
C130 O125 1.279 . S
C131 O132 1.315 . S
C131 O133 1.279 . S
O132 Cd124 2.223 . S
O132 C131 1.315 . S
O133 Cd123 2.240 . S
O133 C131 1.279 . S
O134 Cd124 2.297 . S
O134 C129 1.247 . S
O135 Cd124 2.439 . S
O135 C129 1.208 . S
O136 Cd137 2.223 . S
O136 C144 1.315 . S
Cd137 O136 2.223 . S
Cd137 O140 2.297 . S
Cd137 O141 2.439 . S
Cd137 O147 2.240 . S
Cd138 O139 2.240 . S
Cd138 O146 2.223 . S
Cd138 O148 2.297 . S
Cd138 O149 2.439 . S
O139 Cd138 2.240 . S
O139 C144 1.279 . S
O140 Cd137 2.297 . S
O140 C142 1.247 . S
O141 Cd137 2.439 . S
O141 C142 1.208 . S
C142 O140 1.247 . S
C142 O141 1.208 . S
C143 O148 1.247 . S
C143 O149 1.208 . S
C144 O136 1.315 . S
C144 O139 1.279 . S
C145 O146 1.315 . S
C145 O147 1.279 . S
O146 Cd138 2.223 . S
O146 C145 1.315 . S
O147 Cd137 2.240 . S
O147 C145 1.279 . S
O148 Cd138 2.297 . S
O148 C143 1.247 . S
O149 Cd138 2.439 . S
O149 C143 1.208 . S
O150 Cd151 2.223 . S
O150 C158 1.315 . S
Cd151 O150 2.223 . S
Cd151 O154 2.297 . S
Cd151 O155 2.439 . S
Cd151 O161 2.240 . S
Cd152 O153 2.240 . S
Cd152 O160 2.223 . S
Cd152 O162 2.297 . S
Cd152 O163 2.439 . S
O153 Cd152 2.240 . S
O153 C158 1.279 . S
O154 Cd151 2.297 . S
O154 C156 1.247 . S
O155 Cd151 2.439 . S
O155 C156 1.208 . S
C156 O154 1.247 . S
C156 O155 1.208 . S
C157 O162 1.247 . S
C157 O163 1.208 . S
C158 O150 1.315 . S
C158 O153 1.279 . S
C159 O160 1.315 . S
C159 O161 1.279 . S
O160 Cd152 2.223 . S
O160 C159 1.315 . S
O161 Cd151 2.240 . S
O161 C159 1.279 . S
O162 Cd152 2.297 . S
O162 C157 1.247 . S
O163 Cd152 2.439 . S
O163 C157 1.208 . S
O164 Cd165 2.223 . S
O164 C172 1.315 . S
Cd165 O164 2.223 . S
Cd165 O168 2.297 . S
Cd165 O169 2.439 . S
Cd165 O175 2.240 . S
Cd166 O167 2.240 . S
Cd166 O174 2.223 . S
Cd166 O176 2.297 . S
Cd166 O177 2.439 . S
O167 Cd166 2.240 . S
O167 C172 1.279 . S
O168 Cd165 2.297 . S
O168 C170 1.247 . S
O169 Cd165 2.439 . S
O169 C170 1.208 . S
C170 O168 1.247 . S
C170 O169 1.208 . S
C171 O176 1.247 . S
C171 O177 1.208 . S
C172 O164 1.315 . S
C172 O167 1.279 . S
C173 O174 1.315 . S
C173 O175 1.279 . S
O174 Cd166 2.223 . S
O174 C173 1.315 . S
O175 Cd165 2.240 . S
O175 C173 1.279 . S
O176 Cd166 2.297 . S
O176 C171 1.247 . S
O177 Cd166 2.439 . S
O177 C171 1.208 . S
O178 Cd179 2.223 . S
O178 C186 1.315 . S
Cd179 O178 2.223 . S
Cd179 O182 2.297 . S
Cd179 O183 2.439 . S
Cd179 O189 2.240 . S
Cd180 O181 2.240 . S
Cd180 O188 2.223 . S
Cd180 O190 2.297 . S
Cd180 O191 2.439 . S
O181 Cd180 2.240 . S
O181 C186 1.279 . S
O182 Cd179 2.297 . S
O182 C184 1.247 . S
O183 Cd179 2.439 . S
O183 C184 1.208 . S
C184 O182 1.247 . S
C184 O183 1.208 . S
C185 O190 1.247 . S
C185 O191 1.208 . S
C186 O178 1.315 . S
C186 O181 1.279 . S
C187 O188 1.315 . S
C187 O189 1.279 . S
O188 Cd180 2.223 . S
O188 C187 1.315 . S
O189 Cd179 2.240 . S
O189 C187 1.279 . S
O190 Cd180 2.297 . S
O190 C185 1.247 . S
O191 Cd180 2.439 . S
O191 C185 1.208 . S
H192 C200 0.950 . S
H193 C205 0.950 . S
H194 C202 0.950 . S
H195 C204 0.950 . S
H196 C206 0.950 . S
H197 C208 0.950 . S
H198 C210 0.950 . S
H199 C211 0.950 . S
C200 H192 0.950 . S
C200 C201 1.386 . S
C200 C202 1.391 . S
C201 C200 1.386 . S
C201 C205 1.393 . S
C202 H194 0.950 . S
C202 C200 1.391 . S
C202 C203 1.400 . S
C203 C202 1.400 . S
C203 C204 1.398 . S
C203 C209 1.491 . S
C204 H195 0.950 . S
C204 C203 1.398 . S
C204 C205 1.391 . S
C205 H193 0.950 . S
C205 C201 1.393 . S
C205 C204 1.391 . S
C206 H196 0.950 . S
C206 C207 1.386 . S
C206 C208 1.391 . S
C207 C206 1.386 . S
C207 C211 1.393 . S
C208 H197 0.950 . S
C208 C206 1.391 . S
C208 C209 1.400 . S
C209 C203 1.491 . S
C209 C208 1.400 . S
C209 C210 1.398 . S
C210 H198 0.950 . S
C210 C209 1.398 . S
C210 C211 1.391 . S
C211 H199 0.950 . S
C211 C207 1.393 . S
C211 C210 1.391 . S
H212 C220 0.950 . S
H213 C225 0.950 . S
H214 C222 0.950 . S
H215 C224 0.950 . S
H216 C226 0.950 . S
H217 C228 0.950 . S
H218 C230 0.950 . S
H219 C231 0.950 . S
C220 H212 0.950 . S
C220 C221 1.386 . S
C220 C222 1.391 . S
C221 C220 1.386 . S
C221 C225 1.393 . S
C222 H214 0.950 . S
C222 C220 1.391 . S
C222 C223 1.400 . S
C223 C222 1.400 . S
C223 C224 1.398 . S
C223 C229 1.491 . S
C224 H215 0.950 . S
C224 C223 1.398 . S
C224 C225 1.391 . S
C225 H213 0.950 . S
C225 C221 1.393 . S
C225 C224 1.391 . S
C226 H216 0.950 . S
C226 C227 1.386 . S
C226 C228 1.391 . S
C227 C226 1.386 . S
C227 C231 1.393 . S
C228 H217 0.950 . S
C228 C226 1.391 . S
C228 C229 1.400 . S
C229 C223 1.491 . S
C229 C228 1.400 . S
C229 C230 1.398 . S
C230 H218 0.950 . S
C230 C229 1.398 . S
C230 C231 1.391 . S
C231 H219 0.950 . S
C231 C227 1.393 . S
C231 C230 1.391 . S
H232 C240 0.950 . S
H233 C245 0.950 . S
H234 C242 0.950 . S
H235 C244 0.950 . S
H236 C246 0.950 . S
H237 C248 0.950 . S
H238 C250 0.950 . S
H239 C251 0.950 . S
C240 H232 0.950 . S
C240 C241 1.386 . S
C240 C242 1.391 . S
C241 C240 1.386 . S
C241 C245 1.393 . S
C242 H234 0.950 . S
C242 C240 1.391 . S
C242 C243 1.400 . S
C243 C242 1.400 . S
C243 C244 1.398 . S
C243 C249 1.491 . S
C244 H235 0.950 . S
C244 C243 1.398 . S
C244 C245 1.391 . S
C245 H233 0.950 . S
C245 C241 1.393 . S
C245 C244 1.391 . S
C246 H236 0.950 . S
C246 C247 1.386 . S
C246 C248 1.391 . S
C247 C246 1.386 . S
C247 C251 1.393 . S
C248 H237 0.950 . S
C248 C246 1.391 . S
C248 C249 1.400 . S
C249 C243 1.491 . S
C249 C248 1.400 . S
C249 C250 1.398 . S
C250 H238 0.950 . S
C250 C249 1.398 . S
C250 C251 1.391 . S
C251 H239 0.950 . S
C251 C247 1.393 . S
C251 C250 1.391 . S
H252 C260 0.950 . S
H253 C265 0.950 . S
H254 C262 0.950 . S
H255 C264 0.950 . S
H256 C266 0.950 . S
H257 C268 0.950 . S
H258 C270 0.950 . S
H259 C271 0.950 . S
C260 H252 0.950 . S
C260 C261 1.386 . S
C260 C262 1.391 . S
C261 C260 1.386 . S
C261 C265 1.393 . S
C262 H254 0.950 . S
C262 C260 1.391 . S
C262 C263 1.400 . S
C263 C262 1.400 . S
C263 C264 1.398 . S
C263 C269 1.491 . S
C264 H255 0.950 . S
C264 C263 1.398 . S
C264 C265 1.391 . S
C265 H253 0.950 . S
C265 C261 1.393 . S
C265 C264 1.391 . S
C266 H256 0.950 . S
C266 C267 1.386 . S
C266 C268 1.391 . S
C267 C266 1.386 . S
C267 C271 1.393 . S
C268 H257 0.950 . S
C268 C266 1.391 . S
C268 C269 1.400 . S
C269 C263 1.491 . S
C269 C268 1.400 . S
C269 C270 1.398 . S
C270 H258 0.950 . S
C270 C269 1.398 . S
C270 C271 1.391 . S
C271 H259 0.950 . S
C271 C267 1.393 . S
C271 C270 1.391 . S
H272 C280 0.950 1_554 S
H273 C285 0.950 . S
H274 C282 0.950 1_554 S
H275 C284 0.950 . S
H276 C286 0.950 . S
H277 C288 0.950 . S
H278 C290 0.950 . S
H279 C291 0.950 . S
C280 H272 0.950 1_556 S
C280 C281 1.386 . S
C280 C282 1.391 . S
C281 C280 1.386 . S
C281 C285 1.393 . S
C282 H274 0.950 1_556 S
C282 C280 1.391 . S
C282 C283 1.400 . S
C283 C282 1.400 . S
C283 C284 1.398 . S
C283 C289 1.491 . S
C284 H275 0.950 . S
C284 C283 1.398 . S
C284 C285 1.391 . S
C285 H273 0.950 . S
C285 C281 1.393 . S
C285 C284 1.391 . S
C286 H276 0.950 . S
C286 C287 1.386 . S
C286 C288 1.391 . S
C287 C286 1.386 . S
C287 C291 1.393 . S
C288 H277 0.950 . S
C288 C286 1.391 . S
C288 C289 1.400 . S
C289 C283 1.491 . S
C289 C288 1.400 . S
C289 C290 1.398 . S
C290 H278 0.950 . S
C290 C289 1.398 . S
C290 C291 1.391 . S
C291 H279 0.950 . S
C291 C287 1.393 . S
C291 C290 1.391 . S
H292 C300 0.950 . S
H293 C305 0.950 . S
H294 C302 0.950 . S
H295 C304 0.950 . S
H296 C306 0.950 . S
H297 C308 0.950 . S
H298 C310 0.950 . S
H299 C311 0.950 . S
C300 H292 0.950 . S
C300 C301 1.386 . S
C300 C302 1.391 . S
C301 C300 1.386 . S
C301 C305 1.393 . S
C302 H294 0.950 . S
C302 C300 1.391 . S
C302 C303 1.400 . S
C303 C302 1.400 . S
C303 C304 1.398 . S
C303 C309 1.491 . S
C304 H295 0.950 . S
C304 C303 1.398 . S
C304 C305 1.391 . S
C305 H293 0.950 . S
C305 C301 1.393 . S
C305 C304 1.391 . S
C306 H296 0.950 . S
C306 C307 1.386 . S
C306 C308 1.391 . S
C307 C306 1.386 . S
C307 C311 1.393 . S
C308 H297 0.950 . S
C308 C306 1.391 . S
C308 C309 1.400 . S
C309 C303 1.491 . S
C309 C308 1.400 . S
C309 C310 1.398 . S
C310 H298 0.950 . S
C310 C309 1.398 . S
C310 C311 1.391 . S
C311 H299 0.950 . S
C311 C307 1.393 . S
C311 C310 1.391 . S
H312 C320 0.950 . S
H313 C325 0.950 . S
H314 C322 0.950 . S
H315 C324 0.950 . S
H316 C326 0.950 . S
H317 C328 0.950 . S
H318 C330 0.950 . S
H319 C331 0.950 . S
C320 H312 0.950 . S
C320 C321 1.386 . S
C320 C322 1.391 . S
C321 C320 1.386 . S
C321 C325 1.393 . S
C322 H314 0.950 . S
C322 C320 1.391 . S
C322 C323 1.400 . S
C323 C322 1.400 . S
C323 C324 1.398 . S
C323 C329 1.491 . S
C324 H315 0.950 . S
C324 C323 1.398 . S
C324 C325 1.391 . S
C325 H313 0.950 . S
C325 C321 1.393 . S
C325 C324 1.391 . S
C326 H316 0.950 . S
C326 C327 1.386 . S
C326 C328 1.391 . S
C327 C326 1.386 . S
C327 C331 1.393 . S
C328 H317 0.950 . S
C328 C326 1.391 . S
C328 C329 1.400 . S
C329 C323 1.491 . S
C329 C328 1.400 . S
C329 C330 1.398 . S
C330 H318 0.950 . S
C330 C329 1.398 . S
C330 C331 1.391 . S
C331 H319 0.950 . S
C331 C327 1.393 . S
C331 C330 1.391 . S
H332 C340 0.950 . S
H333 C345 0.950 . S
H334 C342 0.950 . S
H335 C344 0.950 . S
H336 C346 0.950 . S
H337 C348 0.950 . S
H338 C350 0.950 . S
H339 C351 0.950 . S
C340 H332 0.950 . S
C340 C341 1.386 . S
C340 C342 1.391 . S
C341 C340 1.386 . S
C341 C345 1.393 . S
C342 H334 0.950 . S
C342 C340 1.391 . S
C342 C343 1.400 . S
C343 C342 1.400 . S
C343 C344 1.398 . S
C343 C349 1.491 . S
C344 H335 0.950 . S
C344 C343 1.398 . S
C344 C345 1.391 . S
C345 H333 0.950 . S
C345 C341 1.393 . S
C345 C344 1.391 . S
C346 H336 0.950 . S
C346 C347 1.386 . S
C346 C348 1.391 . S
C347 C346 1.386 . S
C347 C351 1.393 . S
C348 H337 0.950 . S
C348 C346 1.391 . S
C348 C349 1.400 . S
C349 C343 1.491 . S
C349 C348 1.400 . S
C349 C350 1.398 . S
C350 H338 0.950 . S
C350 C349 1.398 . S
C350 C351 1.391 . S
C351 H339 0.950 . S
C351 C347 1.393 . S
C351 C350 1.391 . S
H352 C360 0.950 . S
H353 C365 0.950 . S
H354 C362 0.950 . S
H355 C364 0.950 . S
H356 C366 0.950 . S
H357 C368 0.950 . S
H358 C370 0.950 . S
H359 C371 0.950 . S
C360 H352 0.950 . S
C360 C361 1.386 . S
C360 C362 1.391 . S
C361 C360 1.386 . S
C361 C365 1.393 . S
C362 H354 0.950 . S
C362 C360 1.391 . S
C362 C363 1.400 . S
C363 C362 1.400 . S
C363 C364 1.398 . S
C363 C369 1.491 . S
C364 H355 0.950 . S
C364 C363 1.398 . S
C364 C365 1.391 . S
C365 H353 0.950 . S
C365 C361 1.393 . S
C365 C364 1.391 . S
C366 H356 0.950 . S
C366 C367 1.386 . S
C366 C368 1.391 . S
C367 C366 1.386 . S
C367 C371 1.393 . S
C368 H357 0.950 . S
C368 C366 1.391 . S
C368 C369 1.400 . S
C369 C363 1.491 . S
C369 C368 1.400 . S
C369 C370 1.398 . S
C370 H358 0.950 . S
C370 C369 1.398 . S
C370 C371 1.391 . S
C371 H359 0.950 . S
C371 C367 1.393 . S
C371 C370 1.391 . S
H372 C380 0.950 . S
H373 C385 0.950 . S
H374 C382 0.942 1_556 S
H375 C384 0.950 . S
H376 C386 0.950 . S
H377 C388 0.950 . S
H378 C390 0.950 1_556 S
H379 C391 0.950 . S
C380 H372 0.950 . S
C380 C381 1.386 1_556 S
C380 C382 1.389 1_556 S
C381 C380 1.386 1_554 S
C381 C385 1.393 . S
C382 H374 0.942 1_554 S
C382 C380 1.389 1_554 S
C382 C383 1.410 . S
C383 C382 1.410 . S
C383 C384 1.398 . S
C383 C389 1.491 . S
C384 H375 0.950 . S
C384 C383 1.398 . S
C384 C385 1.391 . S
C385 H373 0.950 . S
C385 C381 1.393 . S
C385 C384 1.391 . S
C386 H376 0.950 . S
C386 C387 1.386 . S
C386 C388 1.391 . S
C387 C386 1.386 . S
C387 C391 1.393 . S
C388 H377 0.950 . S
C388 C386 1.391 . S
C388 C389 1.400 . S
C389 C383 1.491 . S
C389 C388 1.400 . S
C389 C390 1.398 . S
C390 H378 0.950 1_554 S
C390 C389 1.398 . S
C390 C391 1.391 . S
C391 H379 0.950 . S
C391 C387 1.393 . S
C391 C390 1.391 . S
H392 C400 0.950 . S
H393 C405 0.950 . S
H394 C402 0.950 . S
H395 C404 0.950 . S
H396 C406 0.950 . S
H397 C408 0.950 . S
H398 C410 0.950 . S
H399 C411 0.950 . S
C400 H392 0.950 . S
C400 C401 1.386 . S
C400 C402 1.391 . S
C401 C400 1.386 . S
C401 C405 1.393 . S
C402 H394 0.950 . S
C402 C400 1.391 . S
C402 C403 1.400 . S
C403 C402 1.400 . S
C403 C404 1.398 . S
C403 C409 1.491 . S
C404 H395 0.950 . S
C404 C403 1.398 . S
C404 C405 1.391 . S
C405 H393 0.950 . S
C405 C401 1.393 . S
C405 C404 1.391 . S
C406 H396 0.950 . S
C406 C407 1.386 . S
C406 C408 1.391 . S
C407 C406 1.386 . S
C407 C411 1.393 . S
C408 H397 0.950 . S
C408 C406 1.391 . S
C408 C409 1.400 . S
C409 C403 1.491 . S
C409 C408 1.400 . S
C409 C410 1.398 . S
C410 H398 0.950 . S
C410 C409 1.398 . S
C410 C411 1.391 . S
C411 H399 0.950 . S
C411 C407 1.393 . S
C411 C410 1.391 . S
H412 C420 0.950 . S
H413 C425 0.950 . S
H414 C422 0.950 . S
H415 C424 0.950 . S
H416 C426 0.950 . S
H417 C428 0.950 . S
H418 C430 0.950 . S
H419 C431 0.950 . S
C420 H412 0.950 . S
C420 C421 1.386 . S
C420 C422 1.391 . S
C421 C420 1.386 . S
C421 C425 1.393 . S
C422 H414 0.950 . S
C422 C420 1.391 . S
C422 C423 1.400 . S
C423 C422 1.400 . S
C423 C424 1.398 . S
C423 C429 1.491 . S
C424 H415 0.950 . S
C424 C423 1.398 . S
C424 C425 1.391 . S
C425 H413 0.950 . S
C425 C421 1.393 . S
C425 C424 1.391 . S
C426 H416 0.950 . S
C426 C427 1.386 . S
C426 C428 1.391 . S
C427 C426 1.386 . S
C427 C431 1.393 . S
C428 H417 0.950 . S
C428 C426 1.391 . S
C428 C429 1.400 . S
C429 C423 1.491 . S
C429 C428 1.400 . S
C429 C430 1.398 . S
C430 H418 0.950 . S
C430 C429 1.398 . S
C430 C431 1.391 . S
C431 H419 0.950 . S
C431 C427 1.393 . S
C431 C430 1.391 . S
H432 C440 0.950 . S
H433 C445 0.950 . S
H434 C442 0.950 . S
H435 C444 0.950 . S
H436 C446 0.950 . S
H437 C448 0.950 . S
H438 C450 0.950 . S
H439 C451 0.950 . S
C440 H432 0.950 . S
C440 C441 1.386 . S
C440 C442 1.391 . S
C441 C440 1.386 . S
C441 C445 1.393 . S
C442 H434 0.950 . S
C442 C440 1.391 . S
C442 C443 1.400 . S
C443 C442 1.400 . S
C443 C444 1.398 . S
C443 C449 1.491 . S
C444 H435 0.950 . S
C444 C443 1.398 . S
C444 C445 1.391 . S
C445 H433 0.950 . S
C445 C441 1.393 . S
C445 C444 1.391 . S
C446 H436 0.950 . S
C446 C447 1.386 . S
C446 C448 1.391 . S
C447 C446 1.386 . S
C447 C451 1.393 . S
C448 H437 0.950 . S
C448 C446 1.391 . S
C448 C449 1.400 . S
C449 C443 1.491 . S
C449 C448 1.400 . S
C449 C450 1.398 . S
C450 H438 0.950 . S
C450 C449 1.398 . S
C450 C451 1.391 . S
C451 H439 0.950 . S
C451 C447 1.393 . S
C451 C450 1.391 . S
H452 C460 0.950 . S
H453 C465 0.950 . S
H454 C462 0.950 . S
H455 C464 0.950 . S
H456 C466 0.950 . S
H457 C468 0.950 . S
H458 C470 0.950 . S
H459 C471 0.950 . S
C460 H452 0.950 . S
C460 C461 1.386 . S
C460 C462 1.391 . S
C461 C460 1.386 . S
C461 C465 1.393 . S
C462 H454 0.950 . S
C462 C460 1.391 . S
C462 C463 1.400 . S
C463 C462 1.400 . S
C463 C464 1.398 . S
C463 C469 1.491 . S
C464 H455 0.950 . S
C464 C463 1.398 . S
C464 C465 1.391 . S
C465 H453 0.950 . S
C465 C461 1.393 . S
C465 C464 1.391 . S
C466 H456 0.950 . S
C466 C467 1.386 . S
C466 C468 1.391 . S
C467 C466 1.386 . S
C467 C471 1.393 . S
C468 H457 0.950 . S
C468 C466 1.391 . S
C468 C469 1.400 . S
C469 C463 1.491 . S
C469 C468 1.400 . S
C469 C470 1.398 . S
C470 H458 0.950 . S
C470 C469 1.398 . S
C470 C471 1.391 . S
C471 H459 0.950 . S
C471 C467 1.393 . S
C471 C470 1.391 . S
H472 C480 0.950 . S
H473 C485 0.950 . S
H474 C482 0.950 . S
H475 C484 0.950 . S
H476 C486 0.950 . S
H477 C488 0.950 . S
H478 C490 0.950 . S
H479 C491 0.950 . S
C480 H472 0.950 . S
C480 C481 1.386 . S
C480 C482 1.391 . S
C481 C480 1.386 . S
C481 C485 1.393 . S
C482 H474 0.950 . S
C482 C480 1.391 . S
C482 C483 1.400 . S
C483 C482 1.400 . S
C483 C484 1.398 . S
C483 C489 1.491 . S
C484 H475 0.950 . S
C484 C483 1.398 . S
C484 C485 1.391 . S
C485 H473 0.950 . S
C485 C481 1.393 . S
C485 C484 1.391 . S
C486 H476 0.950 . S
C486 C487 1.386 . S
C486 C488 1.391 . S
C487 C486 1.386 . S
C487 C491 1.393 . S
C488 H477 0.950 . S
C488 C486 1.391 . S
C488 C489 1.400 . S
C489 C483 1.491 . S
C489 C488 1.400 . S
C489 C490 1.398 . S
C490 H478 0.950 . S
C490 C489 1.398 . S
C490 C491 1.391 . S
C491 H479 0.950 . S
C491 C487 1.393 . S
C491 C490 1.391 . S
H492 C500 0.950 . S
H493 C505 0.950 . S
H494 C502 0.950 . S
H495 C504 0.950 . S
H496 C506 0.950 . S
H497 C508 0.944 1_554 S
H498 C510 0.950 . S
H499 C511 0.950 . S
C500 H492 0.950 . S
C500 C501 1.386 . S
C500 C502 1.391 . S
C501 C500 1.386 . S
C501 C505 1.393 . S
C502 H494 0.950 . S
C502 C500 1.391 . S
C502 C503 1.400 . S
C503 C502 1.400 . S
C503 C504 1.398 . S
C503 C509 1.491 . S
C504 H495 0.950 . S
C504 C503 1.398 . S
C504 C505 1.391 . S
C505 H493 0.950 . S
C505 C501 1.393 . S
C505 C504 1.391 . S
C506 H496 0.950 . S
C506 C507 1.386 . S
C506 C508 1.374 1_554 S
C507 C506 1.386 . S
C507 C511 1.393 1_554 S
C508 H497 0.944 1_556 S
C508 C506 1.374 1_556 S
C508 C509 1.423 . S
C509 C503 1.491 . S
C509 C508 1.423 . S
C509 C510 1.398 . S
C510 H498 0.950 . S
C510 C509 1.398 . S
C510 C511 1.391 . S
C511 H499 0.950 . S
C511 C507 1.393 1_556 S
C511 C510 1.391 . S
H512 C520 0.950 . S
H513 C525 0.950 . S
H514 C522 0.950 . S
H515 C524 0.950 . S
H516 C526 0.950 . S
H517 C528 0.950 . S
H518 C530 0.950 . S
H519 C531 0.950 . S
C520 H512 0.950 . S
C520 C521 1.386 . S
C520 C522 1.391 . S
C521 C520 1.386 . S
C521 C525 1.393 . S
C522 H514 0.950 . S
C522 C520 1.391 . S
C522 C523 1.400 . S
C523 C522 1.400 . S
C523 C524 1.398 . S
C523 C529 1.491 . S
C524 H515 0.950 . S
C524 C523 1.398 . S
C524 C525 1.391 . S
C525 H513 0.950 . S
C525 C521 1.393 . S
C525 C524 1.391 . S
C526 H516 0.950 . S
C526 C527 1.386 . S
C526 C528 1.391 . S
C527 C526 1.386 . S
C527 C531 1.393 . S
C528 H517 0.950 . S
C528 C526 1.391 . S
C528 C529 1.400 . S
C529 C523 1.491 . S
C529 C528 1.400 . S
C529 C530 1.398 . S
C530 H518 0.950 . S
C530 C529 1.398 . S
C530 C531 1.391 . S
C531 H519 0.950 . S
C531 C527 1.393 . S
C531 C530 1.391 . S
H532 C540 0.950 . S
H533 C545 0.950 . S
H534 C542 0.950 . S
H535 C544 0.950 . S
H536 C546 0.950 . S
H537 C548 0.950 . S
H538 C550 0.950 . S
H539 C551 0.950 . S
C540 H532 0.950 . S
C540 C541 1.386 . S
C540 C542 1.391 . S
C541 C540 1.386 . S
C541 C545 1.393 . S
C542 H534 0.950 . S
C542 C540 1.391 . S
C542 C543 1.400 . S
C543 C542 1.400 . S
C543 C544 1.398 . S
C543 C549 1.491 . S
C544 H535 0.950 . S
C544 C543 1.398 . S
C544 C545 1.391 . S
C545 H533 0.950 . S
C545 C541 1.393 . S
C545 C544 1.391 . S
C546 H536 0.950 . S
C546 C547 1.386 . S
C546 C548 1.391 . S
C547 C546 1.386 . S
C547 C551 1.393 . S
C548 H537 0.950 . S
C548 C546 1.391 . S
C548 C549 1.400 . S
C549 C543 1.491 . S
C549 C548 1.400 . S
C549 C550 1.398 . S
C550 H538 0.950 . S
C550 C549 1.398 . S
C550 C551 1.391 . S
C551 H539 0.950 . S
C551 C547 1.393 . S
C551 C550 1.391 . S
H552 C560 0.950 . S
H553 C565 0.950 . S
H554 C562 0.950 . S
H555 C564 0.950 . S
H556 C566 0.950 . S
H557 C568 0.950 . S
H558 C570 0.950 . S
H559 C571 0.950 . S
C560 H552 0.950 . S
C560 C561 1.386 . S
C560 C562 1.391 . S
C561 C560 1.386 . S
C561 C565 1.393 . S
C562 H554 0.950 . S
C562 C560 1.391 . S
C562 C563 1.400 . S
C563 C562 1.400 . S
C563 C564 1.398 . S
C563 C569 1.491 . S
C564 H555 0.950 . S
C564 C563 1.398 . S
C564 C565 1.391 . S
C565 H553 0.950 . S
C565 C561 1.393 . S
C565 C564 1.391 . S
C566 H556 0.950 . S
C566 C567 1.386 . S
C566 C568 1.391 . S
C567 C566 1.386 . S
C567 C571 1.393 . S
C568 H557 0.950 . S
C568 C566 1.391 . S
C568 C569 1.400 . S
C569 C563 1.491 . S
C569 C568 1.400 . S
C569 C570 1.398 . S
C570 H558 0.950 . S
C570 C569 1.398 . S
C570 C571 1.391 . S
C571 H559 0.950 . S
C571 C567 1.393 . S
C571 C570 1.391 . S
H572 C580 0.950 . S
H573 C585 0.950 . S
H574 C582 0.950 . S
H575 C584 0.950 . S
H576 C586 0.950 . S
H577 C588 0.950 . S
H578 C590 0.950 . S
H579 C591 0.950 . S
C580 H572 0.950 . S
C580 C581 1.386 . S
C580 C582 1.391 . S
C581 C580 1.386 . S
C581 C585 1.393 . S
C582 H574 0.950 . S
C582 C580 1.391 . S
C582 C583 1.400 . S
C583 C582 1.400 . S
C583 C584 1.398 . S
C583 C589 1.491 . S
C584 H575 0.950 . S
C584 C583 1.398 . S
C584 C585 1.391 . S
C585 H573 0.950 . S
C585 C581 1.393 . S
C585 C584 1.391 . S
C586 H576 0.950 . S
C586 C587 1.386 . S
C586 C588 1.391 . S
C587 C586 1.386 . S
C587 C591 1.393 . S
C588 H577 0.950 . S
C588 C586 1.391 . S
C588 C589 1.400 . S
C589 C583 1.491 . S
C589 C588 1.400 . S
C589 C590 1.398 . S
C590 H578 0.950 . S
C590 C589 1.398 . S
C590 C591 1.391 . S
C591 H579 0.950 . S
C591 C587 1.393 . S
C591 C590 1.391 . S
H592 C600 0.950 . S
H593 C605 0.950 . S
H594 C602 0.950 . S
H595 C604 0.950 . S
H596 C606 0.950 . S
H597 C608 0.950 . S
H598 C610 0.950 . S
H599 C611 0.950 . S
C600 H592 0.950 . S
C600 C601 1.386 . S
C600 C602 1.391 . S
C601 C600 1.386 . S
C601 C605 1.393 . S
C602 H594 0.950 . S
C602 C600 1.391 . S
C602 C603 1.400 . S
C603 C602 1.400 . S
C603 C604 1.398 . S
C603 C609 1.491 . S
C604 H595 0.950 . S
C604 C603 1.398 . S
C604 C605 1.391 . S
C605 H593 0.950 . S
C605 C601 1.393 . S
C605 C604 1.391 . S
C606 H596 0.950 . S
C606 C607 1.386 . S
C606 C608 1.391 . S
C607 C606 1.386 . S
C607 C611 1.393 . S
C608 H597 0.950 . S
C608 C606 1.391 . S
C608 C609 1.400 . S
C609 C603 1.491 . S
C609 C608 1.400 . S
C609 C610 1.398 . S
C610 H598 0.950 . S
C610 C609 1.398 . S
C610 C611 1.391 . S
C611 H599 0.950 . S
C611 C607 1.393 . S
C611 C610 1.391 . S
H612 C620 0.950 . S
H613 C625 0.950 . S
H614 C622 0.950 . S
H615 C624 0.950 . S
H616 C626 0.950 . S
H617 C628 0.950 . S
H618 C630 0.950 . S
H619 C631 0.950 . S
C620 H612 0.950 . S
C620 C621 1.386 . S
C620 C622 1.391 . S
C621 C620 1.386 . S
C621 C625 1.393 . S
C622 H614 0.950 . S
C622 C620 1.391 . S
C622 C623 1.400 . S
C623 C622 1.400 . S
C623 C624 1.398 . S
C623 C629 1.491 . S
C624 H615 0.950 . S
C624 C623 1.398 . S
C624 C625 1.391 . S
C625 H613 0.950 . S
C625 C621 1.393 . S
C625 C624 1.391 . S
C626 H616 0.950 . S
C626 C627 1.386 . S
C626 C628 1.391 . S
C627 C626 1.386 . S
C627 C631 1.393 . S
C628 H617 0.950 . S
C628 C626 1.391 . S
C628 C629 1.400 . S
C629 C623 1.491 . S
C629 C628 1.400 . S
C629 C630 1.398 . S
C630 H618 0.950 . S
C630 C629 1.398 . S
C630 C631 1.391 . S
C631 H619 0.950 . S
C631 C627 1.393 . S
C631 C630 1.391 . S
H632 C640 0.950 . S
H633 C645 0.950 . S
H634 C642 0.950 . S
H635 C644 0.950 . S
H636 C646 0.950 . S
H637 C648 0.950 . S
H638 C650 0.950 . S
H639 C651 0.950 . S
C640 H632 0.950 . S
C640 C641 1.386 . S
C640 C642 1.391 . S
C641 C640 1.386 . S
C641 C645 1.393 . S
C642 H634 0.950 . S
C642 C640 1.391 . S
C642 C643 1.400 . S
C643 C642 1.400 . S
C643 C644 1.398 . S
C643 C649 1.491 . S
C644 H635 0.950 . S
C644 C643 1.398 . S
C644 C645 1.391 . S
C645 H633 0.950 . S
C645 C641 1.393 . S
C645 C644 1.391 . S
C646 H636 0.950 . S
C646 C647 1.386 . S
C646 C648 1.391 . S
C647 C646 1.386 . S
C647 C651 1.393 . S
C648 H637 0.950 . S
C648 C646 1.391 . S
C648 C649 1.400 1_556 S
C649 C643 1.491 . S
C649 C648 1.400 1_554 S
C649 C650 1.398 . S
C650 H638 0.950 . S
C650 C649 1.398 . S
C650 C651 1.391 1_554 S
C651 H639 0.950 . S
C651 C647 1.393 . S
C651 C650 1.391 1_556 S
H652 C660 0.950 . S
H653 C665 0.950 . S
H654 C662 0.950 . S
H655 C664 0.950 . S
H656 C666 0.950 . S
H657 C668 0.950 . S
H658 C670 0.950 . S
H659 C671 0.950 . S
C660 H652 0.950 . S
C660 C661 1.386 . S
C660 C662 1.391 . S
C661 C660 1.386 . S
C661 C665 1.393 . S
C662 H654 0.950 . S
C662 C660 1.391 . S
C662 C663 1.400 . S
C663 C662 1.400 . S
C663 C664 1.398 . S
C663 C669 1.491 . S
C664 H655 0.950 . S
C664 C663 1.398 . S
C664 C665 1.391 . S
C665 H653 0.950 . S
C665 C661 1.393 . S
C665 C664 1.391 . S
C666 H656 0.950 . S
C666 C667 1.386 . S
C666 C668 1.391 . S
C667 C666 1.386 . S
C667 C671 1.393 . S
C668 H657 0.950 . S
C668 C666 1.391 . S
C668 C669 1.400 . S
C669 C663 1.491 . S
C669 C668 1.400 . S
C669 C670 1.398 . S
C670 H658 0.950 . S
C670 C669 1.398 . S
C670 C671 1.391 . S
C671 H659 0.950 . S
C671 C667 1.393 . S
C671 C670 1.391 . S
C207 C185 1.470 . S
C201 C8 1.453 . S
C221 C26 1.450 . S
C227 C114 1.476 . S
C241 C50 1.480 . S
C247 C128 1.500 . S
C261 C68 1.455 . S
C267 C142 1.473 . S
C287 C156 1.474 . S
C281 C80 1.464 . S
C301 C104 1.477 . S
C307 C171 1.491 . S
C321 C32 1.456 . S
C327 C129 1.481 . S
C341 C44 1.475 . S
C347 C143 1.493 . S
C361 C62 1.447 . S
C367 C157 1.475 . S
C387 C170 1.475 . S
C381 C86 1.466 . S
C407 C184 1.493 . S
C401 C98 1.471 . S
C427 C115 1.474 . S
C421 C14 1.452 . S
C441 C7 1.494 . S
C447 C131 1.536 . S
C461 C25 1.476 . S
C467 C145 1.523 . S
C487 C159 1.521 . S
C481 C52 1.503 . S
C501 C70 1.497 . S
C507 C172 1.535 . S
C527 C186 1.528 . S
C521 C79 1.499 . S
C547 C117 1.526 . S
C541 C106 1.479 . S
C567 C187 1.529 . S
C561 C34 1.482 . S
C581 C43 1.495 . S
C587 C116 1.532 . S
C607 C130 1.535 . S
C601 C61 1.486 . S
C621 C88 1.479 . S
C627 C144 1.526 . S
C641 C97 1.477 . S
C647 C158 1.528 . S
C661 C16 1.491 . S
C667 C173 1.535 . S
