# Generated by pormake.
# Topology pyr, (3,6)-cn, num edge types: 1
# Building blocks:
#     Node 0, Type 0, BuildingBlock: PAMTOO_clean_linker_0, # of connection points: 3
#     Node 1, Type 0, BuildingBlock: PAMTOO_clean_linker_0, # of connection points: 3
#     Node 2, Type 0, BuildingBlock: PAMTOO_clean_linker_0, # of connection points: 3
#     Node 3, Type 0, BuildingBlock: PAMTOO_clean_linker_0, # of connection points: 3
#     Node 4, Type 0, BuildingBlock: PAMTOO_clean_linker_0, # of connection points: 3
#     Node 5, Type 0, BuildingBlock: PAMTOO_clean_linker_0, # of connection points: 3
#     Node 6, Type 0, BuildingBlock: PAMTOO_clean_linker_0, # of connection points: 3
#     Node 7, Type 0, BuildingBlock: PAMTOO_clean_linker_0, # of connection points: 3
#     Node 8, Type 1, BuildingBlock: BETGAK_clean_sbu_0, # of connection points: 6
#     Node 9, Type 1, BuildingBlock: BETGAK_clean_sbu_0, # of connection points: 6
#     Node 10, Type 1, BuildingBlock: BETGAK_clean_sbu_0, # of connection points: 6
#     Node 11, Type 1, BuildingBlock: BETGAK_clean_sbu_0, # of connection points: 6
#     Edge 12, Type (0, 1), BuildingBlock: AJUNOK_clean_linker_0, # of connection points: 2
#     Edge 13, Type (0, 1), BuildingBlock: AJUNOK_clean_linker_0, # of connection points: 2
#     Edge 14, Type (0, 1), BuildingBlock: AJUNOK_clean_linker_0, # of connection points: 2
#     Edge 15, Type (0, 1), BuildingBlock: AJUNOK_clean_linker_0, # of connection points: 2
#     Edge 16, Type (0, 1), BuildingBlock: AJUNOK_clean_linker_0, # of connection points: 2
#     Edge 17, Type (0, 1), BuildingBlock: AJUNOK_clean_linker_0, # of connection points: 2
#     Edge 18, Type (0, 1), BuildingBlock: AJUNOK_clean_linker_0, # of connection points: 2
#     Edge 19, Type (0, 1), BuildingBlock: AJUNOK_clean_linker_0, # of connection points: 2
#     Edge 20, Type (0, 1), BuildingBlock: AJUNOK_clean_linker_0, # of connection points: 2
#     Edge 21, Type (0, 1), BuildingBlock: AJUNOK_clean_linker_0, # of connection points: 2
#     Edge 22, Type (0, 1), BuildingBlock: AJUNOK_clean_linker_0, # of connection points: 2
#     Edge 23, Type (0, 1), BuildingBlock: AJUNOK_clean_linker_0, # of connection points: 2
#     Edge 24, Type (0, 1), BuildingBlock: AJUNOK_clean_linker_0, # of connection points: 2
#     Edge 25, Type (0, 1), BuildingBlock: AJUNOK_clean_linker_0, # of connection points: 2
#     Edge 26, Type (0, 1), BuildingBlock: AJUNOK_clean_linker_0, # of connection points: 2
#     Edge 27, Type (0, 1), BuildingBlock: AJUNOK_clean_linker_0, # of connection points: 2
#     Edge 28, Type (0, 1), BuildingBlock: AJUNOK_clean_linker_0, # of connection points: 2
#     Edge 29, Type (0, 1), BuildingBlock: AJUNOK_clean_linker_0, # of connection points: 2
#     Edge 30, Type (0, 1), BuildingBlock: AJUNOK_clean_linker_0, # of connection points: 2
#     Edge 31, Type (0, 1), BuildingBlock: AJUNOK_clean_linker_0, # of connection points: 2
#     Edge 32, Type (0, 1), BuildingBlock: AJUNOK_clean_linker_0, # of connection points: 2
#     Edge 33, Type (0, 1), BuildingBlock: AJUNOK_clean_linker_0, # of connection points: 2
#     Edge 34, Type (0, 1), BuildingBlock: AJUNOK_clean_linker_0, # of connection points: 2
#     Edge 35, Type (0, 1), BuildingBlock: AJUNOK_clean_linker_0, # of connection points: 2
# Relax obj value: 0.260
# Max RMSD: 0.243
# Mean RMSD: 0.154
data_MOF--net-pyr--node1-BETGAK_clean_sbu_0--node2-PAMTOO_clean_linker_0--edge1-AJUNOK_clean_linker_0
_symmetry_space_group_name_H-M    P1
_symmetry_Int_Tables_number       1
_symmetry_cell_setting            triclinic
loop_
_symmetry_equiv_pos_as_xyz
'x, y, z'
_cell_length_a     27.067718
_cell_length_b     30.508309
_cell_length_c     27.373049
_cell_angle_alpha  92.524278
_cell_angle_beta   88.969632
_cell_angle_gamma 107.29108
loop_
_atom_site_label
_atom_site_type_symbol
_atom_site_fract_x
_atom_site_fract_y
_atom_site_fract_z
_atom_type_partial_charge
H0 H 0.39879 0.40614 0.31443 0.0
H1 H 0.44984 0.28614 0.31948 0.0
H2 H 0.45409 0.35139 0.18433 0.0
H3 H 0.54828 0.30175 0.26015 0.0
C4 C 0.52841 0.29025 0.22447 0.0
O5 O 0.47702 0.28678 0.22924 0.0
H6 H 0.5464 0.31546 0.1964 0.0
C7 C 0.4181 0.3831 0.29694 0.0
C8 C 0.42617 0.38365 0.2463 0.0
C9 C 0.423 0.34628 0.32289 0.0
C10 C 0.44667 0.31567 0.30055 0.0
C11 C 0.46031 0.31948 0.2514 0.0
C12 C 0.44901 0.35249 0.22369 0.0
H13 H 0.30527 0.96467 0.7303 0.0
H14 H 0.24171 0.89806 0.59387 0.0
H15 H 0.35135 0.85016 0.67126 0.0
H16 H 0.35009 0.88219 0.54923 0.0
C17 C 0.33468 0.84523 0.55776 0.0
O18 O 0.29527 0.83889 0.59192 0.0
H19 H 0.31863 0.82633 0.52326 0.0
C20 C 0.30238 0.9382 0.70171 0.0
C21 C 0.332 0.90807 0.70429 0.0
C22 C 0.26941 0.93456 0.66237 0.0
C23 C 0.26634 0.90056 0.62528 0.0
C24 C 0.2961 0.87024 0.62837 0.0
C25 C 0.32822 0.87346 0.66857 0.0
H26 H 0.79086 0.34256 0.98719 0.0
H27 H 0.67252 0.32905 0.87997 0.0
H28 H 0.79527 0.45663 0.89787 0.0
H29 H 0.68881 0.46299 0.86798 0.0
C30 C 0.68373 0.43935 0.83519 0.0
O31 O 0.7183 0.41256 0.83952 0.0
H32 H 0.64371 0.4159 0.83809 0.0
C33 C 0.77255 0.3584 0.96133 0.0
C34 C 0.79763 0.4044 0.94883 0.0
C35 C 0.72571 0.33089 0.93984 0.0
C36 C 0.70664 0.34987 0.89915 0.0
C37 C 0.73207 0.39563 0.88276 0.0
C38 C 0.77653 0.42209 0.90924 0.0
H39 H 0.89961 0.79603 0.49669 0.0
H40 H 0.90197 0.6808 0.40064 0.0
H41 H 1.02484 0.80885 0.39286 0.0
H42 H 0.98789 0.74823 0.28852 0.0
C43 C 0.97939 0.71388 0.30442 0.0
O44 O 0.99063 0.7208 0.35511 0.0
H45 H 0.93704 0.69752 0.30023 0.0
C46 C 0.91766 0.7817 0.46691 0.0
C47 C 0.96477 0.80913 0.447 0.0
C48 C 0.89435 0.73559 0.45059 0.0
C49 C 0.91893 0.71641 0.41243 0.0
C50 C 0.96562 0.74226 0.38977 0.0
C51 C 0.98832 0.78886 0.40805 0.0
H52 H 0.71306 0.89138 0.86362 0.0
H53 H 0.6935 0.83487 1.00572 0.0
H54 H 0.7524 0.76749 0.88813 0.0
H55 H 0.70981 0.71081 0.94517 0.0
C56 C 0.73273 0.72645 0.97829 0.0
O57 O 0.73989 0.7731 0.98295 0.0
H58 H 0.71022 0.71023 1.01049 0.0
C59 C 0.71314 0.86332 0.88657 0.0
C60 C 0.73369 0.82852 0.86899 0.0
C61 C 0.69715 0.86493 0.93521 0.0
C62 C 0.70247 0.83201 0.96718 0.0
C63 C 0.72365 0.79766 0.95026 0.0
C64 C 0.73708 0.7949 0.90087 0.0
H65 H 0.91963 0.21101 0.42479 0.0
H66 H 0.8325 0.30249 0.47335 0.0
H67 H 0.91765 0.2528 0.57648 0.0
H68 H 0.81967 0.27791 0.63014 0.0
C69 C 0.81119 0.27716 0.59053 0.0
O70 O 0.85545 0.30081 0.56618 0.0
H71 H 0.79744 0.24017 0.57825 0.0
C72 C 0.90831 0.23183 0.4535 0.0
C73 C 0.92452 0.23053 0.50116 0.0
C74 C 0.87599 0.25852 0.44314 0.0
C75 C 0.85897 0.28309 0.48085 0.0
C76 C 0.87485 0.28108 0.52873 0.0
C77 C 0.9077 0.25534 0.53875 0.0
H78 H 0.40777 0.7936 0.15739 0.0
H79 H 0.40056 0.68692 0.2585 0.0
H80 H 0.52164 0.81561 0.2707 0.0
H81 H 0.5547 0.73789 0.31416 0.0
C82 C 0.51622 0.71291 0.32091 0.0
O83 O 0.47806 0.73539 0.31468 0.0
H84 H 0.51093 0.68555 0.29156 0.0
C85 C 0.4234 0.78063 0.1875 0.0
C86 C 0.46862 0.81029 0.21019 0.0
C87 C 0.39794 0.73538 0.20299 0.0
C88 C 0.41897 0.72064 0.24481 0.0
C89 C 0.46332 0.74899 0.27027 0.0
C90 C 0.48808 0.79349 0.25172 0.0
H91 H 0.14024 0.34741 0.83198 0.0
H92 H 0.25406 0.48073 0.81791 0.0
H93 H 0.24922 0.37426 0.71067 0.0
H94 H 0.35473 0.42717 0.75463 0.0
C95 C 0.35044 0.46149 0.74747 0.0
O96 O 0.29859 0.45706 0.73796 0.0
H97 H 0.36174 0.48288 0.7817 0.0
C98 C 0.1727 0.36993 0.81297 0.0
C99 C 0.19382 0.35197 0.76979 0.0
C100 C 0.19358 0.41742 0.83117 0.0
C101 C 0.23683 0.44534 0.80545 0.0
C102 C 0.25785 0.42892 0.76331 0.0
C103 C 0.23481 0.38381 0.74535 0.0
La104 La 0.10836 0.09771 0.56466 0.0
La105 La 0.05187 1.06248 0.6486 0.0
C106 C 0.14933 0.14401 0.49421 0.0
C107 C 0.19761 0.18082 0.48931 0.0
C108 C 0.24124 0.17034 0.46983 0.0
C109 C 0.28552 0.20538 0.45938 0.0
C110 C 0.28634 0.25116 0.46797 0.0
C111 C 0.24489 0.26158 0.49202 0.0
C112 C 0.20039 0.22648 0.50243 0.0
C113 C 0.15694 1.05561 0.61781 0.0
C114 C 0.12029 0.16468 0.66396 0.0
C115 C 1.00425 1.01655 0.71663 0.0
C116 C 0.95525 0.98018 0.71563 0.0
C117 C 0.91236 0.98892 0.7386 0.0
C118 C 0.86573 0.95448 0.74028 0.0
C119 C 0.86174 0.91066 0.7196 0.0
C120 C 0.90294 0.90328 0.69215 0.0
C121 C 0.94977 0.93797 0.69024 0.0
C122 C 1.00327 0.10271 0.59104 0.0
C123 C 0.04143 0.99455 0.5518 0.0
O124 O 0.15501 0.10402 0.50277 0.0
O125 O 0.11277 0.15332 0.52093 0.0
O126 O 0.15831 1.05491 0.57083 0.0
O127 O 0.13237 0.08196 0.63471 0.0
O128 O 0.12951 0.1609 0.61595 0.0
O129 O 0.09507 0.12729 0.68689 0.0
O130 O 1.0 1.05662 0.70657 0.0
O131 O 0.04379 1.00769 0.69467 0.0
O132 O 1.0038 0.10726 0.63787 0.0
O133 O 1.02841 0.07594 0.57803 0.0
O134 O 0.03788 0.99792 0.6004 0.0
O135 O 0.06094 1.03287 0.52807 0.0
H136 H 0.24024 0.13527 0.46005 0.0
H137 H 0.31704 0.19682 0.44021 0.0
H138 H 0.24518 0.29696 0.49851 0.0
H139 H 0.16747 0.23533 0.51826 0.0
H140 H 0.91553 1.0218 0.7571 0.0
H141 H 0.83459 0.96079 0.76218 0.0
H142 H 0.90041 0.86951 0.67631 0.0
H143 H 0.98201 0.93098 0.67084 0.0
La144 La 0.64319 0.07528 0.10452 0.0
La145 La 0.56178 1.06671 1.0512 0.0
C146 C 0.72486 0.09499 0.15265 0.0
C147 C 0.75305 0.13298 0.18364 0.0
C148 C 0.79579 0.12878 0.2083 0.0
C149 C 0.81846 0.16112 0.24452 0.0
C150 C 0.79827 0.19772 0.25607 0.0
C151 C 0.75645 0.2028 0.23005 0.0
C152 C 0.73413 0.17057 0.19328 0.0
C153 C 0.57712 0.9903 0.1174 0.0
C154 C 0.56598 0.12537 0.14533 0.0
C155 C 0.47521 1.04848 1.01178 0.0
C156 C 0.45843 1.022 0.96661 0.0
C157 C 0.44777 1.04428 0.92632 0.0
C158 C 0.43742 1.02076 0.88146 0.0
C159 C 0.43767 0.97487 0.87678 0.0
C160 C 0.44825 0.9525 0.91684 0.0
C161 C 0.45902 0.97605 0.9616 0.0
C162 C 0.63839 0.13951 1.01922 0.0
C163 C 0.63859 1.02097 1.00971 0.0
O164 O 0.6797 0.07243 0.17003 0.0
O165 O 0.72358 0.10352 0.10645 0.0
O166 O 0.62605 1.00046 0.10938 0.0
O167 O 0.56562 1.02792 0.11564 0.0
O168 O 0.6115 0.11956 0.15169 0.0
O169 O 0.538 0.10577 0.10791 0.0
O170 O 0.51128 0.08719 1.00653 0.0
O171 O 0.48502 1.0255 1.04743 0.0
O172 O 0.61026 0.10561 0.99226 0.0
O173 O 0.62653 0.12921 0.06361 0.0
O174 O 0.58893 1.01418 1.01509 0.0
O175 O 0.67033 1.05392 1.03566 0.0
H176 H 0.80999 0.0994 0.2012 0.0
H177 H 0.8499 0.15614 0.26536 0.0
H178 H 0.74025 0.23062 0.23925 0.0
H179 H 0.70111 0.17393 0.17385 0.0
H180 H 0.44813 0.07992 0.92946 0.0
H181 H 0.42798 1.03798 0.85074 0.0
H182 H 0.44782 0.91686 0.91347 0.0
H183 H 0.46826 0.95829 0.99193 0.0
La184 La 0.60752 0.55203 0.55036 0.0
La185 La 0.62086 0.63067 0.61213 0.0
C186 C 0.63686 0.49754 0.49532 0.0
C187 C 0.64296 0.4531 0.50428 0.0
C188 C 0.62514 0.43214 0.54851 0.0
C189 C 0.64318 0.39676 0.56358 0.0
C190 C 0.67861 0.38208 0.53423 0.0
C191 C 0.6933 0.4009 0.48845 0.0
C192 C 0.67572 0.43658 0.47367 0.0
C193 C 0.52136 0.53167 0.60473 0.0
C194 C 0.64785 0.54659 0.661 0.0
C195 C 0.60274 0.69688 0.65885 0.0
C196 C 0.56375 0.71948 0.64784 0.0
C197 C 0.57001 0.76488 0.66405 0.0
C198 C 0.53356 0.78671 0.65169 0.0
C199 C 0.49111 0.76366 0.62189 0.0
C200 C 0.48519 0.71809 0.60571 0.0
C201 C 0.52079 0.69604 0.61905 0.0
C202 C 0.70651 0.63399 0.56084 0.0
C203 C 0.56967 0.62862 0.50288 0.0
O204 O 0.58925 0.49984 0.49558 0.0
O205 O 0.66857 0.53094 0.52132 0.0
O206 O 0.53146 0.50617 0.56931 0.0
O207 O 0.55864 0.56879 0.60753 0.0
O208 O 0.63864 0.52713 0.61625 0.0
O209 O 0.64256 0.58846 0.66847 0.0
O210 O 0.64001 0.70198 0.62674 0.0
O211 O 0.58413 0.65424 0.67119 0.0
O212 O 0.70522 0.64384 0.60741 0.0
O213 O 0.65996 0.62097 0.54586 0.0
O214 O 0.5825 0.65035 0.54649 0.0
O215 O 0.57677 0.5878 0.49559 0.0
H216 H 0.60008 0.44505 0.5727 0.0
H217 H 0.63168 0.38252 0.59906 0.0
H218 H 0.7212 0.39023 0.46575 0.0
H219 H 0.69042 0.45329 0.44001 0.0
H220 H 0.60296 0.78334 0.6863 0.0
H221 H 0.53845 0.82145 0.66575 0.0
H222 H 0.45321 0.69954 0.58239 0.0
H223 H 0.51475 0.66066 0.60664 0.0
La224 La 0.09493 0.53216 0.10909 0.0
La225 La 0.10052 0.59659 1.04512 0.0
C226 C 0.11911 0.46987 0.15146 0.0
C227 C 0.16865 0.46435 0.16549 0.0
C228 C 0.16902 0.4285 0.19538 0.0
C229 C 0.21538 0.41928 0.20433 0.0
C230 C 0.26182 0.44632 0.18395 0.0
C231 C 0.2618 0.48314 0.15529 0.0
C232 C 0.21531 0.49175 0.14555 0.0
C233 C 0.05172 0.59267 0.15317 0.0
C234 C 0.19985 0.61867 0.10774 0.0
C235 C 0.07414 0.65739 1.00216 0.0
C236 C 1.02261 0.66231 0.99355 0.0
C237 C 1.01437 0.68488 0.9525 0.0
C238 C 0.96665 0.69259 0.9457 0.0
C239 C 0.92656 0.6782 0.9802 0.0
C240 C 0.93411 0.65363 1.0202 0.0
C241 C 0.98174 0.64571 1.02683 0.0
C242 C 0.14019 0.53215 1.00114 0.0
C243 C 0.99503 0.51295 1.0475 0.0
O244 O 0.10464 0.50219 0.17477 0.0
O245 O 0.11264 0.47003 0.10447 0.0
O246 O 1.03415 0.54814 0.15417 0.0
O247 O 0.09208 0.60194 0.12523 0.0
O248 O 0.1741 0.57893 0.12626 0.0
O249 O 0.17852 0.63378 0.07174 0.0
O250 O 0.08486 0.62301 0.97916 0.0
O251 O 0.0882 0.66121 1.04781 0.0
O252 O 0.15833 0.57655 0.99797 0.0
O253 O 0.1005 0.52586 1.02945 0.0
O254 O 1.01957 0.55401 1.03176 0.0
O255 O 1.01765 0.49529 0.08044 0.0
H256 H 0.13328 0.4068 0.2105 0.0
H257 H 0.21497 0.39073 0.22668 0.0
H258 H 0.29734 0.50397 0.13898 0.0
H259 H 0.2158 0.51846 0.12083 0.0
H260 H 0.0452 0.69733 0.92618 0.0
H261 H 0.96141 0.71055 0.91387 0.0
H262 H 0.90387 0.64208 1.04731 0.0
H263 H 0.98703 0.6278 0.05872 0.0
C264 C 0.40926 0.31396 0.40558 0.0
C265 C 0.39023 0.33188 0.36609 0.0
C266 C 0.37576 0.29091 0.44172 0.0
C267 C 0.32263 0.28583 0.4395 0.0
H268 H 0.44971 0.31544 0.40695 0.0
H269 H 0.39083 0.27456 0.46986 0.0
S270 S 0.25289 0.32466 0.34289 0.0
N271 N 0.31425 0.34155 0.32623 0.0
N272 N 0.252 0.2998 0.3953 0.0
C273 C 0.30333 0.30523 0.40146 0.0
C274 C 0.33702 0.32789 0.36432 0.0
C275 C 0.3478 0.89546 0.7892 0.0
C276 C 0.36739 0.91439 0.74468 0.0
C277 C 0.37411 0.91252 0.83238 0.0
C278 C 0.42011 0.949 0.83151 0.0
H279 H 0.30997 0.87029 0.79104 0.0
H280 H 0.35604 0.90006 0.86679 0.0
S281 S 0.48942 1.0063 0.7233 0.0
N282 N 0.43687 0.96812 0.70111 0.0
N283 N 0.48706 1.0002 0.78304 0.0
C284 C 0.44218 0.9655 0.78684 0.0
C285 C 0.41542 0.94813 0.74294 0.0
C286 C 0.67007 0.44757 0.74012 0.0
C287 C 0.68562 0.46824 0.78726 0.0
C288 C 0.65978 0.4727 0.69989 0.0
C289 C 0.66308 0.52034 0.70375 0.0
H290 H 0.66378 0.41097 0.73459 0.0
H291 H 0.64731 0.45388 0.66564 0.0
S292 S 0.70348 0.59244 0.81791 0.0
N293 N 0.70518 0.54119 0.83329 0.0
N294 N 0.68532 0.5867 0.76015 0.0
C295 C 0.67968 0.54146 0.75029 0.0
C296 C 0.69084 0.51617 0.79085 0.0
C297 C 1.03563 0.7012 0.22887 0.0
C298 C 1.00729 0.68366 0.27183 0.0
C299 C 0.0513 0.67285 0.19204 0.0
C300 C 0.03889 0.62444 0.19479 0.0
H301 H 0.04426 0.73748 0.22249 0.0
H302 H 0.07174 0.68904 0.16011 0.0
S303 S 0.96835 0.56003 0.30048 0.0
N304 N 0.97022 0.61366 0.31484 0.0
N305 N 0.99845 0.5612 0.2473 0.0
C306 C 1.01201 0.60667 0.23835 0.0
C307 C 0.99663 0.63567 0.27598 0.0
C308 C 0.57846 0.23351 0.22083 0.0
C309 C 0.53349 0.24429 0.20853 0.0
C310 C 0.58695 0.19275 0.20335 0.0
C311 C 0.5508 0.16163 0.17273 0.0
H312 H 0.60805 0.25745 0.24299 0.0
H313 H 0.62325 0.18685 0.21201 0.0
S314 S 0.42468 0.17245 0.13184 0.0
N315 N 0.45124 0.21992 0.16477 0.0
N316 N 0.46619 0.1425 0.13354 0.0
C317 C 0.50424 0.1709 0.16196 0.0
C318 C 0.49601 0.21268 0.17908 0.0
C319 C 0.18573 0.95172 0.65644 0.0
C320 C 0.23984 0.96754 0.65962 0.0
C321 C 0.1574 0.98253 0.64999 0.0
C322 C 0.18256 1.02948 0.64557 0.0
H323 H 0.1655 0.91532 0.65743 0.0
H324 H 0.116 0.96929 0.64507 0.0
S325 S 0.32276 0.08835 0.65594 0.0
N326 N 0.31716 1.0335 0.66254 0.0
N327 N 0.26334 0.09108 0.64843 0.0
C328 C 0.23608 1.04605 0.65187 0.0
C329 C 0.26499 1.01499 0.65924 0.0
C330 C 0.88635 0.46665 0.95187 0.0
C331 C 0.84714 0.43284 0.97595 0.0
C332 C 0.9328 0.49257 0.97545 0.0
C333 C 0.94388 0.48568 1.02431 0.0
H334 H 0.88192 0.47289 0.91385 0.0
H335 H 0.96105 0.51765 0.95452 0.0
S336 S 0.85505 0.40444 0.10661 0.0
N337 N 0.82283 0.39748 1.0548 0.0
N338 N 0.91108 0.44322 0.09653 0.0
C339 C 0.90564 0.45225 1.0491 0.0
C340 C 0.85743 0.42676 1.02575 0.0
C341 C 0.79651 0.71185 0.46697 0.0
C342 C 0.84584 0.70696 0.47615 0.0
C343 C 0.75142 0.68686 0.49267 0.0
C344 C 0.75358 0.65662 0.52979 0.0
H345 H 0.79278 0.73552 0.43992 0.0
H346 H 0.71481 0.69248 0.4845 0.0
S347 S 0.87309 0.63209 0.5687 0.0
N348 N 0.8934 0.66913 0.52508 0.0
N349 N 0.8101 0.62391 0.57403 0.0
C350 C 0.80273 0.65181 0.53936 0.0
C351 C 0.84827 0.67643 0.51254 0.0
C352 C 0.35451 0.37632 0.18928 0.0
C353 C 0.39492 0.4052 0.21786 0.0
C354 C 0.31245 0.39086 0.17635 0.0
C355 C 0.30984 0.43469 0.19134 0.0
H356 H 0.35301 0.34094 0.1806 0.0
H357 H 0.28058 0.36695 0.15666 0.0
S358 S 0.40749 0.52402 0.26306 0.0
N359 N 0.43155 0.48023 0.25761 0.0
N360 N 0.35211 0.5078 0.23314 0.0
C361 C 0.35152 0.46495 0.21681 0.0
C362 C 0.39432 0.45013 0.23001 0.0
C363 C 0.6797 0.24232 0.93022 0.0
C364 C 0.69999 0.28234 0.96059 0.0
C365 C 0.66081 0.1972 0.94921 0.0
C366 C 0.66056 0.18864 0.99995 0.0
H367 H 0.67948 0.24561 0.89102 0.0
H368 H 0.64625 0.16847 0.92342 0.0
S369 S 0.70529 0.28051 0.09696 0.0
N370 N 0.71498 0.30893 1.04595 0.0
N371 N 0.68104 0.22574 0.08019 0.0
C372 C 0.67974 0.22825 1.03083 0.0
C373 C 0.69882 0.27417 1.01169 0.0
C374 C 0.97303 0.89588 0.45721 0.0
C375 C 0.98904 0.85767 0.47014 0.0
C376 C 0.99054 0.93974 0.48265 0.0
C377 C 1.0236 0.94767 0.52381 0.0
H378 H 0.946 0.89171 0.42744 0.0
H379 H 0.97678 0.9674 0.47072 0.0
S380 S 0.07829 0.86024 0.57255 0.0
N381 N 0.04165 0.83225 0.52676 0.0
N382 N 0.07278 0.91276 0.57444 0.0
C383 C 0.03987 0.90981 0.53684 0.0
C384 C 1.02305 0.86561 0.51036 0.0
C385 C 0.36211 0.78156 0.59343 0.0
C386 C 0.37626 0.82622 0.57587 0.0
C387 C 0.39941 0.76219 0.60946 0.0
C388 C 0.45245 0.78642 0.60772 0.0
H389 H 0.32175 0.76143 0.59481 0.0
H390 H 0.38654 0.72779 0.62307 0.0
S391 S 0.50986 0.90444 0.56454 0.0
N392 N 0.44683 0.89469 0.55872 0.0
N393 N 0.51734 0.85728 0.58644 0.0
C394 C 0.4672 0.83123 0.59046 0.0
C395 C 0.42904 0.85131 0.57494 0.0
C396 C 0.73992 0.85207 0.78239 0.0
C397 C 0.75982 0.83298 0.82066 0.0
C398 C 0.77153 0.872 0.74355 0.0
C399 C 0.82329 0.872 0.74121 0.0
H400 H 0.70137 0.85581 0.78493 0.0
H401 H 0.75734 0.89196 0.71848 0.0
S402 S 0.89099 0.81749 0.82519 0.0
N403 N 0.83289 0.80959 0.84919 0.0
N404 N 0.89048 0.84419 0.77431 0.0
C405 C 0.8411 0.84673 0.77468 0.0
C406 C 0.80978 0.82792 0.81514 0.0
C407 C 0.80248 0.23943 0.38595 0.0
C408 C 0.85611 0.25597 0.39358 0.0
C409 C 0.78313 0.22475 0.33927 0.0
C410 C 0.81712 0.22632 0.29961 0.0
H411 H 0.77574 0.23415 0.41661 0.0
H412 H 0.74192 0.20835 0.33501 0.0
S413 S 0.9598 0.27185 0.30005 0.0
N414 N 0.94228 0.27764 0.3575 0.0
N415 N 0.90552 0.24957 0.26941 0.0
C416 C 0.87028 0.24632 0.30614 0.0
C417 C 0.88995 0.26128 0.35342 0.0
C418 C 0.51953 0.64448 0.37307 0.0
C419 C 0.51926 0.69093 0.37193 0.0
C420 C 0.53403 0.6251 0.41514 0.0
C421 C 0.5497 0.6505 0.45984 0.0
H422 H 0.51038 0.62287 0.34003 0.0
H423 H 0.5342 0.58965 0.41185 0.0
S424 S 0.55461 0.77341 0.4791 0.0
N425 N 0.53546 0.76154 0.42171 0.0
N426 N 0.56168 0.72559 0.49989 0.0
C427 C 0.54808 0.69669 0.46001 0.0
C428 C 0.5334 0.71658 0.41677 0.0
C429 C 0.17907 0.4331 0.92513 0.0
C430 C 0.17174 0.44083 0.87518 0.0
C431 C 0.1671 0.46075 0.96529 0.0
C432 C 0.14733 0.49847 0.9585 0.0
H433 H 0.19617 0.40642 0.9334 0.0
H434 H 0.17527 0.45338 1.0021 0.0
S435 S 0.11762 0.53249 0.83603 0.0
N436 N 0.14073 0.48895 0.82287 0.0
N437 N 0.11895 0.5395 0.89623 0.0
C438 C 0.13873 0.50561 0.90888 0.0
C439 C 0.15066 0.47754 0.86827 0.0
C440 C 0.71032 0.93355 0.99112 0.0
C441 C 0.68184 0.90492 0.95343 0.0
C442 C 0.69815 0.97313 1.00733 0.0
C443 C 0.65688 0.98479 0.98643 0.0
H444 H 0.74226 0.92536 1.00797 0.0
H445 H 0.71982 0.9936 1.0376 0.0
S446 S 0.572 0.92201 0.88589 0.0
N447 N 0.61218 0.89157 0.89456 0.0
N448 N 0.58863 0.96583 0.92595 0.0
C449 C 0.62882 0.95692 0.94833 0.0
C450 C 0.64151 0.91696 0.93149 0.0
C451 C 0.93635 0.15272 0.49979 0.0
C452 C 0.95448 0.19979 0.51343 0.0
C453 C 0.95565 0.12105 0.52247 0.0
C454 C 0.99229 0.13594 0.55981 0.0
H455 H 0.90453 0.13998 0.47442 0.0
H456 H 0.93898 0.08471 0.51361 0.0
S457 S 0.05893 0.25613 0.6008 0.0
N458 N 1.01766 0.26034 0.55898 0.0
N459 N 0.05075 0.20061 0.60455 0.0
C460 C 1.01361 0.18308 0.57046 0.0
C461 C 0.99554 0.2152 0.54625 0.0
C462 C 0.30977 0.67125 0.20221 0.0
C463 C 0.3484 0.70459 0.17672 0.0
C464 C 0.26333 0.64336 0.17964 0.0
C465 C 0.25134 0.64756 0.13027 0.0
H466 H 0.31458 0.6669 0.24065 0.0
H467 H 0.23578 0.6189 0.20177 0.0
S468 S 0.33854 0.72585 1.0441 0.0
N469 N 0.37119 0.73583 0.09579 0.0
N470 N 0.28316 0.68696 1.05601 0.0
C471 C 0.2891 0.68034 0.10405 0.0
C472 C 0.33734 0.70774 0.12639 0.0
C473 C 0.42428 0.52692 0.71174 0.0
C474 C 0.38838 0.48252 0.70584 0.0
C475 C 0.46613 0.54345 0.67864 0.0
C476 C 0.47427 0.51637 0.6379 0.0
H477 H 0.42125 0.54849 0.74345 0.0
H478 H 0.49313 0.57717 0.68592 0.0
S479 S 0.39003 0.39863 0.60394 0.0
N480 N 0.36306 0.41291 0.65436 0.0
N481 N 0.44046 0.44323 0.59274 0.0
C482 C 0.43737 0.47264 0.63063 0.0
C483 C 0.39489 0.456 0.6642 0.0
C484 C 0.78381 0.67041 0.9822 0.0
C485 C 0.78424 0.71601 0.97602 0.0
C486 C 0.82977 0.65819 0.98268 0.0
C487 C 0.8781 0.69108 0.97627 0.0
H488 H 0.74744 0.64398 0.98754 0.0
H489 H 0.82745 0.62272 0.98835 0.0
S490 S 0.90189 0.81532 0.95742 0.0
N491 N 0.83838 0.7944 0.96159 0.0
N492 N 0.92423 0.77113 0.96338 0.0
C493 C 0.87937 0.73666 0.96879 0.0
C494 C 0.83262 0.74925 0.96827 0.0
C495 C 0.54955 0.87504 0.18415 0.0
C496 C 0.49512 0.85824 0.1893 0.0
C497 C 0.57472 0.91715 0.16148 0.0
C498 C 0.54752 0.94608 0.14292 0.0
H499 H 0.57325 0.85476 0.19657 0.0
H500 H 0.61648 0.92704 0.15836 0.0
S501 S 0.40468 0.92078 0.14807 0.0
N502 N 0.41502 0.8766 0.17437 0.0
N503 N 0.46223 0.95448 0.13248 0.0
C504 C 0.49326 0.93047 0.14854 0.0
C505 C 0.46735 0.88725 0.17127 0.0
C506 C 0.12218 0.27445 0.74625 0.0
C507 C 0.17493 0.3016 0.74722 0.0
C508 C 0.10494 0.23049 0.72046 0.0
C509 C 0.13896 0.21127 0.69266 0.0
H510 H 0.0935 0.28765 0.76462 0.0
H511 H 0.06407 0.21193 0.72114 0.0
S512 S 0.28121 0.26259 0.68754 0.0
N513 N 0.26161 0.29976 0.72244 0.0
N514 N 0.22831 0.22166 0.67122 0.0
C515 C 0.19141 0.23709 0.6942 0.0
C516 C 0.20942 0.28059 0.72194 0.0
C517 C 0.73854 0.28609 0.54042 0.0
C518 C 0.77067 0.29989 0.58155 0.0
C519 C 0.70647 0.31173 0.52658 0.0
C520 C 0.70581 0.35175 0.55348 0.0
H521 H 0.73981 0.25642 0.51777 0.0
H522 H 0.6834 0.30117 0.49379 0.0
S523 S 0.78532 0.4038 0.66184 0.0
N524 N 0.80166 0.35679 0.64754 0.0
N525 N 0.74079 0.40495 0.62187 0.0
C526 C 0.73728 0.36562 0.59492 0.0
C527 C 0.7701 0.33972 0.60875 0.0
loop_
_geom_bond_atom_site_label_1
_geom_bond_atom_site_label_2
_geom_bond_distance
_geom_bond_site_symmetry_2
_ccdc_geom_bond_type
H0 C7 0.929 . S
H1 C10 0.930 . S
H2 C12 0.929 . S
H3 C4 0.969 . S
C4 H3 0.969 . S
C4 O5 1.550 . S
C4 H6 0.973 . S
O5 C4 1.550 . S
O5 C11 1.412 . S
H6 C4 0.973 . S
C7 H0 0.929 . S
C7 C8 1.400 . S
C7 C9 1.364 . S
C8 C7 1.400 . S
C8 C12 1.377 . S
C9 C7 1.364 . S
C9 C10 1.374 . S
C10 H1 0.930 . S
C10 C9 1.374 . S
C10 C11 1.383 . S
C11 O5 1.412 . S
C11 C10 1.383 . S
C11 C12 1.394 . S
C12 H2 0.929 . S
C12 C8 1.377 . S
C12 C11 1.394 . S
H13 C20 0.929 . S
H14 C23 0.930 . S
H15 C25 0.929 . S
H16 C17 0.969 . S
C17 H16 0.969 . S
C17 O18 1.550 . S
C17 H19 0.973 . S
O18 C17 1.550 . S
O18 C24 1.412 . S
H19 C17 0.973 . S
C20 H13 0.929 . S
C20 C21 1.400 . S
C20 C22 1.364 . S
C21 C20 1.400 . S
C21 C25 1.377 . S
C22 C20 1.364 . S
C22 C23 1.374 . S
C23 H14 0.930 . S
C23 C22 1.374 . S
C23 C24 1.383 . S
C24 O18 1.412 . S
C24 C23 1.383 . S
C24 C25 1.394 . S
C25 H15 0.929 . S
C25 C21 1.377 . S
C25 C24 1.394 . S
H26 C33 0.929 . S
H27 C36 0.930 . S
H28 C38 0.929 . S
H29 C30 0.969 . S
C30 H29 0.969 . S
C30 O31 1.550 . S
C30 H32 0.973 . S
O31 C30 1.550 . S
O31 C37 1.412 . S
H32 C30 0.973 . S
C33 H26 0.929 . S
C33 C34 1.400 . S
C33 C35 1.364 . S
C34 C33 1.400 . S
C34 C38 1.377 . S
C35 C33 1.364 . S
C35 C36 1.374 . S
C36 H27 0.930 . S
C36 C35 1.374 . S
C36 C37 1.383 . S
C37 O31 1.412 . S
C37 C36 1.383 . S
C37 C38 1.394 . S
C38 H28 0.929 . S
C38 C34 1.377 . S
C38 C37 1.394 . S
H39 C46 0.929 . S
H40 C49 0.930 . S
H41 C51 0.929 . S
H42 C43 0.969 . S
C43 H42 0.969 . S
C43 O44 1.550 . S
C43 H45 0.973 . S
O44 C43 1.550 . S
O44 C50 1.412 . S
H45 C43 0.973 . S
C46 H39 0.929 . S
C46 C47 1.400 . S
C46 C48 1.364 . S
C47 C46 1.400 . S
C47 C51 1.377 . S
C48 C46 1.364 . S
C48 C49 1.374 . S
C49 H40 0.930 . S
C49 C48 1.374 . S
C49 C50 1.383 . S
C50 O44 1.412 . S
C50 C49 1.383 . S
C50 C51 1.394 . S
C51 H41 0.929 . S
C51 C47 1.377 . S
C51 C50 1.394 . S
H52 C59 0.929 . S
H53 C62 0.930 . S
H54 C64 0.929 . S
H55 C56 0.969 . S
C56 H55 0.969 . S
C56 O57 1.550 . S
C56 H58 0.973 . S
O57 C56 1.550 . S
O57 C63 1.412 . S
H58 C56 0.973 . S
C59 H52 0.929 . S
C59 C60 1.400 . S
C59 C61 1.364 . S
C60 C59 1.400 . S
C60 C64 1.377 . S
C61 C59 1.364 . S
C61 C62 1.374 . S
C62 H53 0.930 . S
C62 C61 1.374 . S
C62 C63 1.383 . S
C63 O57 1.412 . S
C63 C62 1.383 . S
C63 C64 1.394 . S
C64 H54 0.929 . S
C64 C60 1.377 . S
C64 C63 1.394 . S
H65 C72 0.929 . S
H66 C75 0.930 . S
H67 C77 0.929 . S
H68 C69 0.969 . S
C69 H68 0.969 . S
C69 O70 1.550 . S
C69 H71 0.973 . S
O70 C69 1.550 . S
O70 C76 1.412 . S
H71 C69 0.973 . S
C72 H65 0.929 . S
C72 C73 1.400 . S
C72 C74 1.364 . S
C73 C72 1.400 . S
C73 C77 1.377 . S
C74 C72 1.364 . S
C74 C75 1.374 . S
C75 H66 0.930 . S
C75 C74 1.374 . S
C75 C76 1.383 . S
C76 O70 1.412 . S
C76 C75 1.383 . S
C76 C77 1.394 . S
C77 H67 0.929 . S
C77 C73 1.377 . S
C77 C76 1.394 . S
H78 C85 0.929 . S
H79 C88 0.930 . S
H80 C90 0.929 . S
H81 C82 0.969 . S
C82 H81 0.969 . S
C82 O83 1.550 . S
C82 H84 0.973 . S
O83 C82 1.550 . S
O83 C89 1.412 . S
H84 C82 0.973 . S
C85 H78 0.929 . S
C85 C86 1.400 . S
C85 C87 1.364 . S
C86 C85 1.400 . S
C86 C90 1.377 . S
C87 C85 1.364 . S
C87 C88 1.374 . S
C88 H79 0.930 . S
C88 C87 1.374 . S
C88 C89 1.383 . S
C89 O83 1.412 . S
C89 C88 1.383 . S
C89 C90 1.394 . S
C90 H80 0.929 . S
C90 C86 1.377 . S
C90 C89 1.394 . S
H91 C98 0.929 . S
H92 C101 0.930 . S
H93 C103 0.929 . S
H94 C95 0.969 . S
C95 H94 0.969 . S
C95 O96 1.550 . S
C95 H97 0.973 . S
O96 C95 1.550 . S
O96 C102 1.412 . S
H97 C95 0.973 . S
C98 H91 0.929 . S
C98 C99 1.400 . S
C98 C100 1.364 . S
C99 C98 1.400 . S
C99 C103 1.377 . S
C100 C98 1.364 . S
C100 C101 1.374 . S
C101 H92 0.930 . S
C101 C100 1.374 . S
C101 C102 1.383 . S
C102 O96 1.412 . S
C102 C101 1.383 . S
C102 C103 1.394 . S
C103 H93 0.929 . S
C103 C99 1.377 . S
C103 C102 1.394 . S
La104 C106 2.928 . S
La104 O124 2.521 . S
La104 O125 2.628 . S
La104 O126 2.560 . S
La104 O127 2.757 1_545 S
La104 O128 2.470 . S
La104 O133 2.482 . S
La104 O135 2.503 1_545 S
La105 C115 2.928 1_545 S
La105 O127 2.482 1_645 S
La105 O129 2.503 1_655 S
La105 O130 2.521 1_545 S
La105 O131 2.628 1_545 S
La105 O132 2.554 . S
La105 O133 2.757 1_655 S
La105 O134 2.470 1_545 S
C106 La104 2.928 . S
C106 C107 1.503 . S
C106 O124 1.261 . S
C106 O125 1.243 . S
C107 C106 1.503 . S
C107 C108 1.394 . S
C107 C112 1.373 . S
C108 C107 1.394 . S
C108 C109 1.380 . S
C108 H136 0.930 . S
C109 C108 1.380 . S
C109 C110 1.376 . S
C109 H137 0.930 . S
C110 C109 1.376 . S
C110 C111 1.370 . S
C111 C110 1.370 . S
C111 C112 1.396 . S
C111 H138 0.929 . S
C112 C107 1.373 . S
C112 C111 1.396 . S
C112 H139 0.929 . S
C113 O126 1.238 1_565 S
C113 O127 1.289 . S
C114 O128 1.258 . S
C114 O129 1.256 . S
C115 La105 2.928 1_565 S
C115 C116 1.503 . S
C115 O130 1.261 . S
C115 O131 1.243 . S
C116 C115 1.503 . S
C116 C117 1.394 . S
C116 C121 1.373 . S
C117 C116 1.394 . S
C117 C118 1.380 . S
C117 H140 0.930 . S
C118 C117 1.380 . S
C118 C119 1.376 . S
C118 H141 0.930 . S
C119 C118 1.376 . S
C119 C120 1.370 . S
C120 C119 1.370 . S
C120 C121 1.396 . S
C120 H142 0.929 . S
C121 C116 1.373 . S
C121 C120 1.396 . S
C121 H143 0.929 . S
C122 O132 1.240 . S
C122 O133 1.289 1_655 S
C123 O134 1.258 . S
C123 O135 1.256 1_655 S
O124 La104 2.521 . S
O124 C106 1.261 . S
O125 La104 2.628 . S
O125 C106 1.243 . S
O126 La104 2.560 . S
O126 C113 1.238 1_545 S
O127 La104 2.757 1_565 S
O127 La105 2.482 1_465 S
O127 C113 1.289 . S
O128 La104 2.470 . S
O128 C114 1.258 . S
O129 La105 2.503 1_455 S
O129 C114 1.256 . S
O130 La105 2.521 1_565 S
O130 C115 1.261 . S
O131 La105 2.628 1_565 S
O131 C115 1.243 . S
O132 La105 2.554 . S
O132 C122 1.240 . S
O133 La104 2.482 . S
O133 La105 2.757 1_455 S
O133 C122 1.289 1_455 S
O134 La105 2.470 1_565 S
O134 C123 1.258 . S
O135 La104 2.503 1_565 S
O135 C123 1.256 1_455 S
H136 C108 0.930 . S
H137 C109 0.930 . S
H138 C111 0.929 . S
H139 C112 0.929 . S
H140 C117 0.930 . S
H141 C118 0.930 . S
H142 C120 0.929 . S
H143 C121 0.929 . S
La144 C146 2.928 . S
La144 O164 2.521 . S
La144 O165 2.628 . S
La144 O166 2.554 1_545 S
La144 O167 2.757 1_545 S
La144 O168 2.470 . S
La144 O173 2.464 1_554 S
La144 O175 2.503 1_544 S
La145 C155 2.928 1_545 S
La145 O167 2.482 1_546 S
La145 O169 2.503 1_556 S
La145 O170 2.521 1_545 S
La145 O171 2.628 1_545 S
La145 O172 2.554 . S
La145 O173 2.764 . S
La145 O174 2.470 1_545 S
C146 La144 2.928 . S
C146 C147 1.503 . S
C146 O164 1.261 . S
C146 O165 1.243 . S
C147 C146 1.503 . S
C147 C148 1.394 . S
C147 C152 1.373 . S
C148 C147 1.394 . S
C148 C149 1.380 . S
C148 H176 0.930 . S
C149 C148 1.380 . S
C149 C150 1.376 . S
C149 H177 0.930 . S
C150 C149 1.376 . S
C150 C151 1.370 . S
C151 C150 1.370 . S
C151 C152 1.396 . S
C151 H178 0.929 . S
C152 C147 1.373 . S
C152 C151 1.396 . S
C152 H179 0.929 . S
C153 O166 1.240 . S
C153 O167 1.289 . S
C154 O168 1.258 . S
C154 O169 1.256 . S
C155 La145 2.928 1_565 S
C155 C156 1.503 . S
C155 O170 1.261 . S
C155 O171 1.243 . S
C156 C155 1.503 . S
C156 C157 1.394 . S
C156 C161 1.373 . S
C157 C156 1.394 . S
C157 C158 1.380 . S
C157 H180 0.930 . S
C158 C157 1.380 . S
C158 C159 1.376 . S
C158 H181 0.930 . S
C159 C158 1.376 . S
C159 C160 1.370 . S
C160 C159 1.370 . S
C160 C161 1.396 . S
C160 H182 0.929 . S
C161 C156 1.373 . S
C161 C160 1.396 . S
C161 H183 0.929 . S
C162 O172 1.240 . S
C162 O173 1.312 . S
C163 O174 1.258 . S
C163 O175 1.256 . S
O164 La144 2.521 . S
O164 C146 1.261 . S
O165 La144 2.628 . S
O165 C146 1.243 . S
O166 La144 2.554 1_565 S
O166 C153 1.240 . S
O167 La144 2.757 1_565 S
O167 La145 2.482 1_564 S
O167 C153 1.289 . S
O168 La144 2.470 . S
O168 C154 1.258 . S
O169 La145 2.503 1_554 S
O169 C154 1.256 . S
O170 La145 2.521 1_565 S
O170 C155 1.261 . S
O171 La145 2.628 1_565 S
O171 C155 1.243 . S
O172 La145 2.554 . S
O172 C162 1.240 . S
O173 La144 2.464 1_556 S
O173 La145 2.764 . S
O173 C162 1.312 . S
O174 La145 2.470 1_565 S
O174 C163 1.258 . S
O175 La144 2.503 1_566 S
O175 C163 1.256 . S
H176 C148 0.930 . S
H177 C149 0.930 . S
H178 C151 0.929 . S
H179 C152 0.929 . S
H180 C157 0.930 . S
H181 C158 0.930 . S
H182 C160 0.929 . S
H183 C161 0.929 . S
La184 C186 2.928 . S
La184 O204 2.521 . S
La184 O205 2.628 . S
La184 O206 2.554 . S
La184 O207 2.757 . S
La184 O208 2.470 . S
La184 O213 2.482 . S
La184 O215 2.503 . S
La185 C195 2.928 . S
La185 O207 2.482 . S
La185 O209 2.503 . S
La185 O210 2.521 . S
La185 O211 2.628 . S
La185 O212 2.554 . S
La185 O213 2.757 . S
La185 O214 2.470 . S
C186 La184 2.928 . S
C186 C187 1.503 . S
C186 O204 1.261 . S
C186 O205 1.243 . S
C187 C186 1.503 . S
C187 C188 1.394 . S
C187 C192 1.373 . S
C188 C187 1.394 . S
C188 C189 1.380 . S
C188 H216 0.930 . S
C189 C188 1.380 . S
C189 C190 1.376 . S
C189 H217 0.930 . S
C190 C189 1.376 . S
C190 C191 1.370 . S
C191 C190 1.370 . S
C191 C192 1.396 . S
C191 H218 0.929 . S
C192 C187 1.373 . S
C192 C191 1.396 . S
C192 H219 0.929 . S
C193 O206 1.240 . S
C193 O207 1.289 . S
C194 O208 1.258 . S
C194 O209 1.256 . S
C195 La185 2.928 . S
C195 C196 1.503 . S
C195 O210 1.261 . S
C195 O211 1.243 . S
C196 C195 1.503 . S
C196 C197 1.394 . S
C196 C201 1.373 . S
C197 C196 1.394 . S
C197 C198 1.380 . S
C197 H220 0.930 . S
C198 C197 1.380 . S
C198 C199 1.376 . S
C198 H221 0.930 . S
C199 C198 1.376 . S
C199 C200 1.370 . S
C200 C199 1.370 . S
C200 C201 1.396 . S
C200 H222 0.929 . S
C201 C196 1.373 . S
C201 C200 1.396 . S
C201 H223 0.929 . S
C202 O212 1.240 . S
C202 O213 1.289 . S
C203 O214 1.258 . S
C203 O215 1.256 . S
O204 La184 2.521 . S
O204 C186 1.261 . S
O205 La184 2.628 . S
O205 C186 1.243 . S
O206 La184 2.554 . S
O206 C193 1.240 . S
O207 La184 2.757 . S
O207 La185 2.482 . S
O207 C193 1.289 . S
O208 La184 2.470 . S
O208 C194 1.258 . S
O209 La185 2.503 . S
O209 C194 1.256 . S
O210 La185 2.521 . S
O210 C195 1.261 . S
O211 La185 2.628 . S
O211 C195 1.243 . S
O212 La185 2.554 . S
O212 C202 1.240 . S
O213 La184 2.482 . S
O213 La185 2.757 . S
O213 C202 1.289 . S
O214 La185 2.470 . S
O214 C203 1.258 . S
O215 La184 2.503 . S
O215 C203 1.256 . S
H216 C188 0.930 . S
H217 C189 0.930 . S
H218 C191 0.929 . S
H219 C192 0.929 . S
H220 C197 0.930 . S
H221 C198 0.930 . S
H222 C200 0.929 . S
H223 C201 0.929 . S
La224 C226 2.928 . S
La224 O244 2.521 . S
La224 O245 2.628 . S
La224 O246 2.554 . S
La224 O247 2.757 . S
La224 O248 2.470 . S
La224 O253 2.482 . S
La224 O255 2.503 1_455 S
La225 C235 2.928 1_454 S
La225 O247 2.482 . S
La225 O249 2.503 . S
La225 O250 2.521 1_454 S
La225 O251 2.628 1_455 S
La225 O252 2.554 1_554 S
La225 O253 2.757 . S
La225 O254 2.470 1_454 S
C226 La224 2.928 . S
C226 C227 1.503 . S
C226 O244 1.261 . S
C226 O245 1.243 . S
C227 C226 1.503 . S
C227 C228 1.394 . S
C227 C232 1.373 . S
C228 C227 1.394 . S
C228 C229 1.380 . S
C228 H256 0.930 . S
C229 C228 1.380 . S
C229 C230 1.376 . S
C229 H257 0.930 . S
C230 C229 1.376 . S
C230 C231 1.370 . S
C231 C230 1.370 . S
C231 C232 1.396 . S
C231 H258 0.929 . S
C232 C227 1.373 . S
C232 C231 1.396 . S
C232 H259 0.929 . S
C233 O246 1.240 . S
C233 O247 1.289 . S
C234 O248 1.258 . S
C234 O249 1.256 . S
C235 La225 2.928 1_656 S
C235 C236 1.503 . S
C235 O250 1.261 . S
C235 O251 1.243 1_556 S
C236 C235 1.503 . S
C236 C237 1.394 . S
C236 C241 1.373 . S
C237 C236 1.394 . S
C237 C238 1.380 . S
C237 H260 0.930 . S
C238 C237 1.380 . S
C238 C239 1.376 . S
C238 H261 0.930 . S
C239 C238 1.376 . S
C239 C240 1.370 . S
C240 C239 1.370 . S
C240 C241 1.396 . S
C240 H262 0.929 . S
C241 C236 1.373 . S
C241 C240 1.396 . S
C241 H263 0.947 . S
C242 O252 1.240 . S
C242 O253 1.289 1_556 S
C243 O254 1.258 1_554 S
C243 O255 1.256 . S
O244 La224 2.521 . S
O244 C226 1.261 . S
O245 La224 2.628 . S
O245 C226 1.243 . S
O246 La224 2.554 . S
O246 C233 1.240 . S
O247 La224 2.757 . S
O247 La225 2.482 . S
O247 C233 1.289 . S
O248 La224 2.470 . S
O248 C234 1.258 . S
O249 La225 2.503 . S
O249 C234 1.256 . S
O250 La225 2.521 1_656 S
O250 C235 1.261 . S
O251 La225 2.628 1_655 S
O251 C235 1.243 1_554 S
O252 La225 2.554 1_556 S
O252 C242 1.240 . S
O253 La224 2.482 . S
O253 La225 2.757 . S
O253 C242 1.289 1_554 S
O254 La225 2.470 1_656 S
O254 C243 1.258 1_556 S
O255 La224 2.503 1_655 S
O255 C243 1.256 . S
H256 C228 0.930 . S
H257 C229 0.930 . S
H258 C231 0.929 . S
H259 C232 0.929 . S
H260 C237 0.930 . S
H261 C238 0.930 . S
H262 C240 0.929 . S
H263 C241 0.947 . S
C264 C265 1.369 . S
C264 C266 1.419 . S
C264 H268 0.930 . S
C265 C264 1.369 . S
C265 C274 1.429 . S
C266 C264 1.419 . S
C266 C267 1.363 . S
C266 H269 0.929 . S
C267 C266 1.363 . S
C267 C273 1.428 . S
H268 C264 0.930 . S
H269 C266 0.929 . S
S270 N271 1.613 . S
S270 N272 1.610 . S
N271 S270 1.613 . S
N271 C274 1.350 . S
N272 S270 1.610 . S
N272 C273 1.351 . S
C273 C267 1.428 . S
C273 N272 1.351 . S
C273 C274 1.434 . S
C274 C265 1.429 . S
C274 N271 1.350 . S
C274 C273 1.434 . S
C275 C276 1.369 . S
C275 C277 1.419 . S
C275 H279 0.930 . S
C276 C275 1.369 . S
C276 C285 1.429 . S
C277 C275 1.419 . S
C277 C278 1.363 . S
C277 H280 0.929 . S
C278 C277 1.363 . S
C278 C284 1.428 . S
H279 C275 0.930 . S
H280 C277 0.929 . S
S281 N282 1.613 . S
S281 N283 1.610 . S
N282 S281 1.613 . S
N282 C285 1.350 . S
N283 S281 1.610 . S
N283 C284 1.351 . S
C284 C278 1.428 . S
C284 N283 1.351 . S
C284 C285 1.434 . S
C285 C276 1.429 . S
C285 N282 1.350 . S
C285 C284 1.434 . S
C286 C287 1.369 . S
C286 C288 1.419 . S
C286 H290 0.930 . S
C287 C286 1.369 . S
C287 C296 1.429 . S
C288 C286 1.419 . S
C288 C289 1.363 . S
C288 H291 0.929 . S
C289 C288 1.363 . S
C289 C295 1.428 . S
H290 C286 0.930 . S
H291 C288 0.929 . S
S292 N293 1.613 . S
S292 N294 1.610 . S
N293 S292 1.613 . S
N293 C296 1.350 . S
N294 S292 1.610 . S
N294 C295 1.351 . S
C295 C289 1.428 . S
C295 N294 1.351 . S
C295 C296 1.434 . S
C296 C287 1.429 . S
C296 N293 1.350 . S
C296 C295 1.434 . S
C297 C298 1.369 . S
C297 C299 1.419 . S
C297 H301 0.930 . S
C298 C297 1.369 . S
C298 C307 1.429 . S
C299 C297 1.419 . S
C299 C300 1.363 . S
C299 H302 0.929 . S
C300 C299 1.363 . S
C300 C306 1.428 . S
H301 C297 0.930 . S
H302 C299 0.929 . S
S303 N304 1.613 . S
S303 N305 1.610 . S
N304 S303 1.613 . S
N304 C307 1.350 1_455 S
N305 S303 1.610 . S
N305 C306 1.351 1_455 S
C306 C300 1.428 . S
C306 N305 1.351 1_655 S
C306 C307 1.434 . S
C307 C298 1.429 . S
C307 N304 1.350 1_655 S
C307 C306 1.434 . S
C308 C309 1.369 . S
C308 C310 1.419 . S
C308 H312 0.930 . S
C309 C308 1.369 . S
C309 C318 1.429 . S
C310 C308 1.419 . S
C310 C311 1.363 . S
C310 H313 0.929 . S
C311 C310 1.363 . S
C311 C317 1.428 . S
H312 C308 0.930 . S
H313 C310 0.929 . S
S314 N315 1.613 . S
S314 N316 1.610 . S
N315 S314 1.613 . S
N315 C318 1.350 . S
N316 S314 1.610 . S
N316 C317 1.351 . S
C317 C311 1.428 . S
C317 N316 1.351 . S
C317 C318 1.434 . S
C318 C309 1.429 . S
C318 N315 1.350 . S
C318 C317 1.434 . S
C319 C320 1.369 . S
C319 C321 1.419 . S
C319 H323 0.930 . S
C320 C319 1.369 . S
C320 C329 1.429 . S
C321 C319 1.419 . S
C321 C322 1.363 . S
C321 H324 0.929 . S
C322 C321 1.363 . S
C322 C328 1.428 . S
H323 C319 0.930 . S
H324 C321 0.929 . S
S325 N326 1.613 1_545 S
S325 N327 1.610 . S
N326 S325 1.613 1_565 S
N326 C329 1.350 . S
N327 S325 1.610 . S
N327 C328 1.351 1_545 S
C328 C322 1.428 . S
C328 N327 1.351 1_565 S
C328 C329 1.434 . S
C329 C320 1.429 . S
C329 N326 1.350 . S
C329 C328 1.434 . S
C330 C331 1.369 . S
C330 C332 1.419 . S
C330 H334 0.930 . S
C331 C330 1.369 . S
C331 C340 1.429 . S
C332 C330 1.419 . S
C332 C333 1.363 . S
C332 H335 0.929 . S
C333 C332 1.363 . S
C333 C339 1.421 1_556 S
H334 C330 0.930 . S
H335 C332 0.929 . S
S336 N337 1.613 1_554 S
S336 N338 1.610 . S
N337 S336 1.613 1_556 S
N337 C340 1.350 . S
N338 S336 1.610 . S
N338 C339 1.375 . S
C339 C333 1.421 1_554 S
C339 N338 1.375 . S
C339 C340 1.418 1_554 S
C340 C331 1.429 . S
C340 N337 1.350 . S
C340 C339 1.418 1_556 S
C341 C342 1.369 . S
C341 C343 1.419 . S
C341 H345 0.930 . S
C342 C341 1.369 . S
C342 C351 1.429 . S
C343 C341 1.419 . S
C343 C344 1.363 . S
C343 H346 0.929 . S
C344 C343 1.363 . S
C344 C350 1.428 . S
H345 C341 0.930 . S
H346 C343 0.929 . S
S347 N348 1.613 . S
S347 N349 1.610 . S
N348 S347 1.613 . S
N348 C351 1.350 . S
N349 S347 1.610 . S
N349 C350 1.351 . S
C350 C344 1.428 . S
C350 N349 1.351 . S
C350 C351 1.434 . S
C351 C342 1.429 . S
C351 N348 1.350 . S
C351 C350 1.434 . S
C352 C353 1.369 . S
C352 C354 1.419 . S
C352 H356 0.930 . S
C353 C352 1.369 . S
C353 C362 1.429 . S
C354 C352 1.419 . S
C354 C355 1.363 . S
C354 H357 0.929 . S
C355 C354 1.363 . S
C355 C361 1.428 . S
H356 C352 0.930 . S
H357 C354 0.929 . S
S358 N359 1.613 . S
S358 N360 1.610 . S
N359 S358 1.613 . S
N359 C362 1.350 . S
N360 S358 1.610 . S
N360 C361 1.351 . S
C361 C355 1.428 . S
C361 N360 1.351 . S
C361 C362 1.434 . S
C362 C353 1.429 . S
C362 N359 1.350 . S
C362 C361 1.434 . S
C363 C364 1.369 . S
C363 C365 1.419 . S
C363 H367 0.930 . S
C364 C363 1.369 . S
C364 C373 1.429 . S
C365 C363 1.419 . S
C365 C366 1.363 . S
C365 H368 0.929 . S
C366 C365 1.363 . S
C366 C372 1.428 . S
H367 C363 0.930 . S
H368 C365 0.929 . S
S369 N370 1.613 1_554 S
S369 N371 1.610 . S
N370 S369 1.613 1_556 S
N370 C373 1.350 . S
N371 S369 1.610 . S
N371 C372 1.351 1_554 S
C372 C366 1.428 . S
C372 N371 1.351 1_556 S
C372 C373 1.434 . S
C373 C364 1.429 . S
C373 N370 1.350 . S
C373 C372 1.434 . S
C374 C375 1.369 . S
C374 C376 1.419 . S
C374 H378 0.930 . S
C375 C374 1.369 . S
C375 C384 1.429 . S
C376 C374 1.419 . S
C376 C377 1.363 . S
C376 H379 0.929 . S
C377 C376 1.363 . S
C377 C383 1.428 . S
H378 C374 0.930 . S
H379 C376 0.929 . S
S380 N381 1.613 . S
S380 N382 1.610 . S
N381 S380 1.613 . S
N381 C384 1.350 1_455 S
N382 S380 1.610 . S
N382 C383 1.351 1_455 S
C383 C377 1.428 . S
C383 N382 1.351 1_655 S
C383 C384 1.434 . S
C384 C375 1.429 . S
C384 N381 1.350 1_655 S
C384 C383 1.434 . S
C385 C386 1.369 . S
C385 C387 1.419 . S
C385 H389 0.930 . S
C386 C385 1.369 . S
C386 C395 1.429 . S
C387 C385 1.419 . S
C387 C388 1.363 . S
C387 H390 0.929 . S
C388 C387 1.363 . S
C388 C394 1.428 . S
H389 C385 0.930 . S
H390 C387 0.929 . S
S391 N392 1.613 . S
S391 N393 1.610 . S
N392 S391 1.613 . S
N392 C395 1.350 . S
N393 S391 1.610 . S
N393 C394 1.351 . S
C394 C388 1.428 . S
C394 N393 1.351 . S
C394 C395 1.434 . S
C395 C386 1.429 . S
C395 N392 1.350 . S
C395 C394 1.434 . S
C396 C397 1.369 . S
C396 C398 1.419 . S
C396 H400 0.930 . S
C397 C396 1.369 . S
C397 C406 1.429 . S
C398 C396 1.419 . S
C398 C399 1.363 . S
C398 H401 0.929 . S
C399 C398 1.363 . S
C399 C405 1.428 . S
H400 C396 0.930 . S
H401 C398 0.929 . S
S402 N403 1.613 . S
S402 N404 1.610 . S
N403 S402 1.613 . S
N403 C406 1.350 . S
N404 S402 1.610 . S
N404 C405 1.351 . S
C405 C399 1.428 . S
C405 N404 1.351 . S
C405 C406 1.434 . S
C406 C397 1.429 . S
C406 N403 1.350 . S
C406 C405 1.434 . S
C407 C408 1.369 . S
C407 C409 1.419 . S
C407 H411 0.930 . S
C408 C407 1.369 . S
C408 C417 1.429 . S
C409 C407 1.419 . S
C409 C410 1.363 . S
C409 H412 0.929 . S
C410 C409 1.363 . S
C410 C416 1.428 . S
H411 C407 0.930 . S
H412 C409 0.929 . S
S413 N414 1.613 . S
S413 N415 1.610 . S
N414 S413 1.613 . S
N414 C417 1.350 . S
N415 S413 1.610 . S
N415 C416 1.351 . S
C416 C410 1.428 . S
C416 N415 1.351 . S
C416 C417 1.434 . S
C417 C408 1.429 . S
C417 N414 1.350 . S
C417 C416 1.434 . S
C418 C419 1.369 . S
C418 C420 1.419 . S
C418 H422 0.930 . S
C419 C418 1.369 . S
C419 C428 1.429 . S
C420 C418 1.419 . S
C420 C421 1.363 . S
C420 H423 0.929 . S
C421 C420 1.363 . S
C421 C427 1.428 . S
H422 C418 0.930 . S
H423 C420 0.929 . S
S424 N425 1.613 . S
S424 N426 1.610 . S
N425 S424 1.613 . S
N425 C428 1.350 . S
N426 S424 1.610 . S
N426 C427 1.351 . S
C427 C421 1.428 . S
C427 N426 1.351 . S
C427 C428 1.434 . S
C428 C419 1.429 . S
C428 N425 1.350 . S
C428 C427 1.434 . S
C429 C430 1.369 . S
C429 C431 1.419 . S
C429 H433 0.930 . S
C430 C429 1.369 . S
C430 C439 1.429 . S
C431 C429 1.419 . S
C431 C432 1.363 . S
C431 H434 0.929 . S
C432 C431 1.363 . S
C432 C438 1.428 . S
H433 C429 0.930 . S
H434 C431 0.929 . S
S435 N436 1.613 . S
S435 N437 1.610 . S
N436 S435 1.613 . S
N436 C439 1.350 . S
N437 S435 1.610 . S
N437 C438 1.351 . S
C438 C432 1.428 . S
C438 N437 1.351 . S
C438 C439 1.434 . S
C439 C430 1.429 . S
C439 N436 1.350 . S
C439 C438 1.434 . S
C440 C441 1.369 . S
C440 C442 1.419 . S
C440 H444 0.930 . S
C441 C440 1.369 . S
C441 C450 1.429 . S
C442 C440 1.419 . S
C442 C443 1.363 . S
C442 H445 0.929 . S
C443 C442 1.363 . S
C443 C449 1.428 . S
H444 C440 0.930 . S
H445 C442 0.929 . S
S446 N447 1.613 . S
S446 N448 1.610 . S
N447 S446 1.613 . S
N447 C450 1.350 . S
N448 S446 1.610 . S
N448 C449 1.351 . S
C449 C443 1.428 . S
C449 N448 1.351 . S
C449 C450 1.434 . S
C450 C441 1.429 . S
C450 N447 1.350 . S
C450 C449 1.434 . S
C451 C452 1.369 . S
C451 C453 1.419 . S
C451 H455 0.930 . S
C452 C451 1.369 . S
C452 C461 1.429 . S
C453 C451 1.419 . S
C453 C454 1.363 . S
C453 H456 0.929 . S
C454 C453 1.363 . S
C454 C460 1.428 . S
H455 C451 0.930 . S
H456 C453 0.929 . S
S457 N458 1.613 1_455 S
S457 N459 1.610 . S
N458 S457 1.613 1_655 S
N458 C461 1.350 . S
N459 S457 1.610 . S
N459 C460 1.351 1_455 S
C460 C454 1.428 . S
C460 N459 1.351 1_655 S
C460 C461 1.434 . S
C461 C452 1.429 . S
C461 N458 1.350 . S
C461 C460 1.434 . S
C462 C463 1.369 . S
C462 C464 1.419 . S
C462 H466 0.930 . S
C463 C462 1.369 . S
C463 C472 1.429 . S
C464 C462 1.419 . S
C464 C465 1.363 . S
C464 H467 0.929 . S
C465 C464 1.363 . S
C465 C471 1.428 . S
H466 C462 0.930 . S
H467 C464 0.929 . S
S468 N469 1.613 . S
S468 N470 1.610 . S
N469 S468 1.613 . S
N469 C472 1.350 . S
N470 S468 1.610 . S
N470 C471 1.351 . S
C471 C465 1.428 . S
C471 N470 1.351 . S
C471 C472 1.434 . S
C472 C463 1.429 . S
C472 N469 1.350 . S
C472 C471 1.434 . S
C473 C474 1.369 . S
C473 C475 1.419 . S
C473 H477 0.930 . S
C474 C473 1.369 . S
C474 C483 1.429 . S
C475 C473 1.419 . S
C475 C476 1.363 . S
C475 H478 0.929 . S
C476 C475 1.363 . S
C476 C482 1.428 . S
H477 C473 0.930 . S
H478 C475 0.929 . S
S479 N480 1.613 . S
S479 N481 1.610 . S
N480 S479 1.613 . S
N480 C483 1.350 . S
N481 S479 1.610 . S
N481 C482 1.351 . S
C482 C476 1.428 . S
C482 N481 1.351 . S
C482 C483 1.434 . S
C483 C474 1.429 . S
C483 N480 1.350 . S
C483 C482 1.434 . S
C484 C485 1.369 . S
C484 C486 1.419 . S
C484 H488 0.930 . S
C485 C484 1.369 . S
C485 C494 1.429 . S
C486 C484 1.419 . S
C486 C487 1.363 . S
C486 H489 0.929 . S
C487 C486 1.363 . S
C487 C493 1.428 . S
H488 C484 0.930 . S
H489 C486 0.929 . S
S490 N491 1.613 . S
S490 N492 1.610 . S
N491 S490 1.613 . S
N491 C494 1.350 . S
N492 S490 1.610 . S
N492 C493 1.351 . S
C493 C487 1.428 . S
C493 N492 1.351 . S
C493 C494 1.434 . S
C494 C485 1.429 . S
C494 N491 1.350 . S
C494 C493 1.434 . S
C495 C496 1.369 . S
C495 C497 1.419 . S
C495 H499 0.930 . S
C496 C495 1.369 . S
C496 C505 1.429 . S
C497 C495 1.419 . S
C497 C498 1.363 . S
C497 H500 0.929 . S
C498 C497 1.363 . S
C498 C504 1.428 . S
H499 C495 0.930 . S
H500 C497 0.929 . S
S501 N502 1.613 . S
S501 N503 1.610 . S
N502 S501 1.613 . S
N502 C505 1.350 . S
N503 S501 1.610 . S
N503 C504 1.351 . S
C504 C498 1.428 . S
C504 N503 1.351 . S
C504 C505 1.434 . S
C505 C496 1.429 . S
C505 N502 1.350 . S
C505 C504 1.434 . S
C506 C507 1.369 . S
C506 C508 1.419 . S
C506 H510 0.930 . S
C507 C506 1.369 . S
C507 C516 1.429 . S
C508 C506 1.419 . S
C508 C509 1.363 . S
C508 H511 0.929 . S
C509 C508 1.363 . S
C509 C515 1.428 . S
H510 C506 0.930 . S
H511 C508 0.929 . S
S512 N513 1.613 . S
S512 N514 1.610 . S
N513 S512 1.613 . S
N513 C516 1.350 . S
N514 S512 1.610 . S
N514 C515 1.351 . S
C515 C509 1.428 . S
C515 N514 1.351 . S
C515 C516 1.434 . S
C516 C507 1.429 . S
C516 N513 1.350 . S
C516 C515 1.434 . S
C517 C518 1.369 . S
C517 C519 1.419 . S
C517 H521 0.930 . S
C518 C517 1.369 . S
C518 C527 1.429 . S
C519 C517 1.419 . S
C519 C520 1.363 . S
C519 H522 0.929 . S
C520 C519 1.363 . S
C520 C526 1.428 . S
H521 C517 0.930 . S
H522 C519 0.929 . S
S523 N524 1.613 . S
S523 N525 1.610 . S
N524 S523 1.613 . S
N524 C527 1.350 . S
N525 S523 1.610 . S
N525 C526 1.351 . S
C526 C520 1.428 . S
C526 N525 1.351 . S
C526 C527 1.434 . S
C527 C518 1.429 . S
C527 N524 1.350 . S
C527 C526 1.434 . S
C265 C9 1.403 . S
C267 C110 1.470 . S
C276 C21 1.234 . S
C278 C159 1.262 . S
C289 C194 2.292 . S
C287 C30 2.364 . S
C298 C43 2.292 . S
C300 C233 2.393 1_655 S
C311 C154 2.141 . S
C309 C4 1.745 . S
C322 C113 1.379 . S
C320 C22 1.420 . S
C333 C243 1.685 1_556 S
C331 C34 1.767 . S
C344 C202 1.713 . S
C342 C48 1.736 . S
C353 C8 1.552 . S
C355 C230 1.623 . S
C366 C162 2.304 . S
C364 C35 2.407 . S
C375 C47 2.608 . S
C377 C123 2.606 . S
C386 C17 1.177 . S
C388 C199 1.202 . S
C399 C119 1.063 . S
C397 C60 1.037 . S
C408 C74 1.194 . S
C410 C150 1.182 . S
C419 C82 2.066 . S
C421 C203 2.093 . S
C430 C100 2.854 . S
C432 C242 2.777 . S
C441 C61 2.268 . S
C443 C163 2.451 . S
C454 C122 0.635 . S
C452 C73 0.611 . S
C465 C234 2.142 . S
C463 C87 2.235 . S
C476 C193 1.530 . S
C474 C95 1.523 . S
C485 C56 1.499 . S
C487 C239 1.481 . S
C498 C153 2.496 . S
C496 C86 2.573 . S
C509 C114 2.466 . S
C507 C99 2.473 . S
C518 C69 0.887 . S
C520 C190 0.974 . S
