# Generated by pormake.
# Topology ctn, (3,4)-cn, num edge types: 1
# Building blocks:
#     Node 0, Type 0, BuildingBlock: ESEHIV_clean_linker_0, # of connection points: 3
#     Node 1, Type 0, BuildingBlock: ESEHIV_clean_linker_0, # of connection points: 3
#     Node 2, Type 0, BuildingBlock: ESEHIV_clean_linker_0, # of connection points: 3
#     Node 3, Type 0, BuildingBlock: ESEHIV_clean_linker_0, # of connection points: 3
#     Node 4, Type 0, BuildingBlock: ESEHIV_clean_linker_0, # of connection points: 3
#     Node 5, Type 0, BuildingBlock: ESEHIV_clean_linker_0, # of connection points: 3
#     Node 6, Type 0, BuildingBlock: ESEHIV_clean_linker_0, # of connection points: 3
#     Node 7, Type 0, BuildingBlock: ESEHIV_clean_linker_0, # of connection points: 3
#     Node 8, Type 0, BuildingBlock: ESEHIV_clean_linker_0, # of connection points: 3
#     Node 9, Type 0, BuildingBlock: ESEHIV_clean_linker_0, # of connection points: 3
#     Node 10, Type 0, BuildingBlock: ESEHIV_clean_linker_0, # of connection points: 3
#     Node 11, Type 0, BuildingBlock: ESEHIV_clean_linker_0, # of connection points: 3
#     Node 12, Type 0, BuildingBlock: ESEHIV_clean_linker_0, # of connection points: 3
#     Node 13, Type 0, BuildingBlock: ESEHIV_clean_linker_0, # of connection points: 3
#     Node 14, Type 0, BuildingBlock: ESEHIV_clean_linker_0, # of connection points: 3
#     Node 15, Type 0, BuildingBlock: ESEHIV_clean_linker_0, # of connection points: 3
#     Node 16, Type 1, BuildingBlock: TATPOV_clean_sbu_0, # of connection points: 4
#     Node 17, Type 1, BuildingBlock: TATPOV_clean_sbu_0, # of connection points: 4
#     Node 18, Type 1, BuildingBlock: TATPOV_clean_sbu_0, # of connection points: 4
#     Node 19, Type 1, BuildingBlock: TATPOV_clean_sbu_0, # of connection points: 4
#     Node 20, Type 1, BuildingBlock: TATPOV_clean_sbu_0, # of connection points: 4
#     Node 21, Type 1, BuildingBlock: TATPOV_clean_sbu_0, # of connection points: 4
#     Node 22, Type 1, BuildingBlock: TATPOV_clean_sbu_0, # of connection points: 4
#     Node 23, Type 1, BuildingBlock: TATPOV_clean_sbu_0, # of connection points: 4
#     Node 24, Type 1, BuildingBlock: TATPOV_clean_sbu_0, # of connection points: 4
#     Node 25, Type 1, BuildingBlock: TATPOV_clean_sbu_0, # of connection points: 4
#     Node 26, Type 1, BuildingBlock: TATPOV_clean_sbu_0, # of connection points: 4
#     Node 27, Type 1, BuildingBlock: TATPOV_clean_sbu_0, # of connection points: 4
#     Edge 28, Type (0, 1), BuildingBlock: XIVTED_clean_linker_0, # of connection points: 2
#     Edge 29, Type (0, 1), BuildingBlock: XIVTED_clean_linker_0, # of connection points: 2
#     Edge 30, Type (0, 1), BuildingBlock: XIVTED_clean_linker_0, # of connection points: 2
#     Edge 31, Type (0, 1), BuildingBlock: XIVTED_clean_linker_0, # of connection points: 2
#     Edge 32, Type (0, 1), BuildingBlock: XIVTED_clean_linker_0, # of connection points: 2
#     Edge 33, Type (0, 1), BuildingBlock: XIVTED_clean_linker_0, # of connection points: 2
#     Edge 34, Type (0, 1), BuildingBlock: XIVTED_clean_linker_0, # of connection points: 2
#     Edge 35, Type (0, 1), BuildingBlock: XIVTED_clean_linker_0, # of connection points: 2
#     Edge 36, Type (0, 1), BuildingBlock: XIVTED_clean_linker_0, # of connection points: 2
#     Edge 37, Type (0, 1), BuildingBlock: XIVTED_clean_linker_0, # of connection points: 2
#     Edge 38, Type (0, 1), BuildingBlock: XIVTED_clean_linker_0, # of connection points: 2
#     Edge 39, Type (0, 1), BuildingBlock: XIVTED_clean_linker_0, # of connection points: 2
#     Edge 40, Type (0, 1), BuildingBlock: XIVTED_clean_linker_0, # of connection points: 2
#     Edge 41, Type (0, 1), BuildingBlock: XIVTED_clean_linker_0, # of connection points: 2
#     Edge 42, Type (0, 1), BuildingBlock: XIVTED_clean_linker_0, # of connection points: 2
#     Edge 43, Type (0, 1), BuildingBlock: XIVTED_clean_linker_0, # of connection points: 2
#     Edge 44, Type (0, 1), BuildingBlock: XIVTED_clean_linker_0, # of connection points: 2
#     Edge 45, Type (0, 1), BuildingBlock: XIVTED_clean_linker_0, # of connection points: 2
#     Edge 46, Type (0, 1), BuildingBlock: XIVTED_clean_linker_0, # of connection points: 2
#     Edge 47, Type (0, 1), BuildingBlock: XIVTED_clean_linker_0, # of connection points: 2
#     Edge 48, Type (0, 1), BuildingBlock: XIVTED_clean_linker_0, # of connection points: 2
#     Edge 49, Type (0, 1), BuildingBlock: XIVTED_clean_linker_0, # of connection points: 2
#     Edge 50, Type (0, 1), BuildingBlock: XIVTED_clean_linker_0, # of connection points: 2
#     Edge 51, Type (0, 1), BuildingBlock: XIVTED_clean_linker_0, # of connection points: 2
#     Edge 52, Type (0, 1), BuildingBlock: XIVTED_clean_linker_0, # of connection points: 2
#     Edge 53, Type (0, 1), BuildingBlock: XIVTED_clean_linker_0, # of connection points: 2
#     Edge 54, Type (0, 1), BuildingBlock: XIVTED_clean_linker_0, # of connection points: 2
#     Edge 55, Type (0, 1), BuildingBlock: XIVTED_clean_linker_0, # of connection points: 2
#     Edge 56, Type (0, 1), BuildingBlock: XIVTED_clean_linker_0, # of connection points: 2
#     Edge 57, Type (0, 1), BuildingBlock: XIVTED_clean_linker_0, # of connection points: 2
#     Edge 58, Type (0, 1), BuildingBlock: XIVTED_clean_linker_0, # of connection points: 2
#     Edge 59, Type (0, 1), BuildingBlock: XIVTED_clean_linker_0, # of connection points: 2
#     Edge 60, Type (0, 1), BuildingBlock: XIVTED_clean_linker_0, # of connection points: 2
#     Edge 61, Type (0, 1), BuildingBlock: XIVTED_clean_linker_0, # of connection points: 2
#     Edge 62, Type (0, 1), BuildingBlock: XIVTED_clean_linker_0, # of connection points: 2
#     Edge 63, Type (0, 1), BuildingBlock: XIVTED_clean_linker_0, # of connection points: 2
#     Edge 64, Type (0, 1), BuildingBlock: XIVTED_clean_linker_0, # of connection points: 2
#     Edge 65, Type (0, 1), BuildingBlock: XIVTED_clean_linker_0, # of connection points: 2
#     Edge 66, Type (0, 1), BuildingBlock: XIVTED_clean_linker_0, # of connection points: 2
#     Edge 67, Type (0, 1), BuildingBlock: XIVTED_clean_linker_0, # of connection points: 2
#     Edge 68, Type (0, 1), BuildingBlock: XIVTED_clean_linker_0, # of connection points: 2
#     Edge 69, Type (0, 1), BuildingBlock: XIVTED_clean_linker_0, # of connection points: 2
#     Edge 70, Type (0, 1), BuildingBlock: XIVTED_clean_linker_0, # of connection points: 2
#     Edge 71, Type (0, 1), BuildingBlock: XIVTED_clean_linker_0, # of connection points: 2
#     Edge 72, Type (0, 1), BuildingBlock: XIVTED_clean_linker_0, # of connection points: 2
#     Edge 73, Type (0, 1), BuildingBlock: XIVTED_clean_linker_0, # of connection points: 2
#     Edge 74, Type (0, 1), BuildingBlock: XIVTED_clean_linker_0, # of connection points: 2
#     Edge 75, Type (0, 1), BuildingBlock: XIVTED_clean_linker_0, # of connection points: 2
# Relax obj value: 0.003
# Max RMSD: 0.047
# Mean RMSD: 0.021
data_MOF--net-ctn--node1-TATPOV_clean_sbu_0--node2-ESEHIV_clean_linker_0--edge1-XIVTED_clean_linker_0
_symmetry_space_group_name_H-M    P1
_symmetry_Int_Tables_number       1
_symmetry_cell_setting            triclinic
loop_
_symmetry_equiv_pos_as_xyz
'x, y, z'
_cell_length_a     51.708089
_cell_length_b     51.638122
_cell_length_c     51.546233
_cell_angle_alpha  91.039183
_cell_angle_beta   91.298092
_cell_angle_gamma 91.19344
loop_
_atom_site_label
_atom_site_type_symbol
_atom_site_fract_x
_atom_site_fract_y
_atom_site_fract_z
_atom_type_partial_charge
H0 H 0.979 0.05217 0.02649 0.0
H1 H 0.02079 0.98668 0.05399 0.0
H2 H 0.04436 0.02467 0.98456 0.0
C3 C 0.99431 0.03838 0.02407 0.0
C4 C 0.01117 0.04082 0.00314 0.0
C5 C 0.99754 0.01888 0.04248 0.0
C6 C 0.01811 0.00171 0.03984 0.0
C7 C 0.03529 0.00379 0.01917 0.0
C8 C 0.03162 0.0234 0.00091 0.0
H9 H 0.26499 0.69073 0.27434 0.0
H10 H 0.28177 0.75155 0.22095 0.0
H11 H 0.21205 0.70542 0.21089 0.0
C12 C 0.2596 0.70188 0.25753 0.0
C13 C 0.23647 0.69564 0.2437 0.0
C14 C 0.27605 0.7221 0.24962 0.0
C15 C 0.2689 0.7364 0.22771 0.0
C16 C 0.24597 0.73036 0.21354 0.0
C17 C 0.22988 0.70995 0.22164 0.0
H18 H 0.975 0.44959 0.09512 0.0
H19 H 0.02105 0.38448 0.07332 0.0
H20 H 0.95815 0.4073 0.02377 0.0
C21 C 0.97929 0.43416 0.08146 0.0
C22 C 0.96395 0.43069 0.05875 0.0
C23 C -0.00012 0.41759 0.08697 0.0
C24 C 0.00499 0.39716 0.06954 0.0
C25 C 0.98958 0.3932 0.04704 0.0
C26 C 0.9692 0.40994 0.04177 0.0
H27 H 0.70002 0.71654 0.19221 0.0
H28 H 0.77108 0.75981 0.18094 0.0
H29 H 0.71547 0.78746 0.23495 0.0
C30 C 0.71299 0.73272 0.19716 0.0
C31 C 0.70533 0.75138 0.2154 0.0
C32 C 0.73653 0.73579 0.18417 0.0
C33 C 0.75265 0.75751 0.1903 0.0
C34 C 0.74535 0.77612 0.20879 0.0
C35 C 0.7216 0.7729 0.22112 0.0
H36 H 0.01813 0.97949 0.44109 0.0
H37 H 0.0742 0.02801 0.40417 0.0
H38 H 0.09424 0.98956 0.47533 0.0
C39 C 0.03742 0.98814 0.44084 0.0
C40 C 0.05535 0.98267 0.46067 0.0
C41 C 0.04409 0.00432 0.42041 0.0
C42 C 0.06921 0.01503 0.41966 0.0
C43 C 0.08737 0.0101 0.43967 0.0
C44 C 0.08035 0.99361 0.45993 0.0
H45 H 0.1836 0.77605 0.76796 0.0
H46 H 0.24273 0.72224 0.78892 0.0
H47 H 0.19901 0.71104 0.71768 0.0
C48 C 0.19439 0.75876 0.76379 0.0
C49 C 0.189 0.74457 0.74068 0.0
C50 C 0.21385 0.75102 0.78134 0.0
C51 C 0.22821 0.72893 0.77526 0.0
C52 C 0.22295 0.71446 0.75234 0.0
C53 C 0.20336 0.72243 0.73517 0.0
H54 H 0.90138 0.57234 0.51706 0.0
H55 H 0.96671 0.58931 0.46942 0.0
H56 H 0.93027 0.51363 0.46587 0.0
C57 C 0.91489 0.56635 0.50244 0.0
C58 C 0.91368 0.54089 0.49243 0.0
C59 C 0.9339 0.58393 0.49397 0.0
C60 C 0.95159 0.57594 0.4753 0.0
C61 C 0.95077 0.55044 0.46535 0.0
C62 C 0.93152 0.5332 0.47384 0.0
H63 H 0.80545 0.81327 0.87147 0.0
H64 H 0.82481 0.85783 0.80482 0.0
H65 H 0.87066 0.79268 0.82558 0.0
C66 C 0.81833 0.81726 0.85567 0.0
C67 C 0.83914 0.80082 0.851 0.0
C68 C 0.81307 0.83794 0.83914 0.0
C69 C 0.82919 0.84238 0.81807 0.0
C70 C 0.84981 0.82598 0.81283 0.0
C71 C 0.855 0.80562 0.82973 0.0
H72 H 0.31584 0.34648 0.36726 0.0
H73 H 0.35225 0.39542 0.31134 0.0
H74 H 0.38411 0.3216 0.32933 0.0
C75 C 0.33174 0.3508 0.35461 0.0
C76 C 0.35085 0.33219 0.3512 0.0
C77 C 0.3317 0.37361 0.34005 0.0
C78 C 0.35172 0.37784 0.32247 0.0
C79 C 0.37026 0.35888 0.31787 0.0
C80 C 0.37011 0.33648 0.3329 0.0
H81 H 0.48333 0.97684 0.58543 0.0
H82 H 0.52617 0.90895 0.56544 0.0
H83 H 0.47726 0.94416 0.50816 0.0
C84 C 0.48831 0.96204 0.57133 0.0
C85 C 0.47839 0.96307 0.54581 0.0
C86 C 0.50564 0.94266 0.57847 0.0
C87 C 0.51272 0.92386 0.56002 0.0
C88 C 0.50263 0.92445 0.53454 0.0
C89 C 0.48547 0.94402 0.5277 0.0
H90 H 0.19668 0.22721 0.68653 0.0
H91 H 0.26587 0.27357 0.67601 0.0
H92 H 0.20952 0.29767 0.7309 0.0
C93 C 0.20899 0.2438 0.69181 0.0
C94 C 0.2007 0.26165 0.7106 0.0
C95 C 0.23228 0.24822 0.67875 0.0
C96 C 0.24757 0.27035 0.6854 0.0
C97 C 0.23963 0.28825 0.70426 0.0
C98 C 0.21614 0.28371 0.71669 0.0
H99 H 0.76437 0.17525 0.76707 0.0
H100 H 0.78068 0.23873 0.71671 0.0
H101 H 0.71244 0.19116 0.70308 0.0
C102 C 0.75927 0.18665 0.75035 0.0
C103 C 0.73642 0.18055 0.73596 0.0
C104 C 0.77537 0.20764 0.74367 0.0
C105 C 0.76808 0.22294 0.72254 0.0
C106 C 0.74539 0.21718 0.70788 0.0
C107 C 0.72971 0.19591 0.71465 0.0
H108 H 0.48976 0.56433 0.52492 0.0
H109 H 0.52694 0.49708 0.55487 0.0
H110 H 0.55319 0.53108 0.48431 0.0
C111 C 0.50457 0.54987 0.52349 0.0
C112 C 0.5214 0.55023 0.50242 0.0
C113 C 0.50623 0.53063 0.54239 0.0
C114 C 0.52502 0.51149 0.53996 0.0
C115 C 0.54212 0.51147 0.51911 0.0
C116 C 0.54007 0.53089 0.50039 0.0
H117 H 0.51185 0.46734 0.92867 0.0
H118 H 0.56429 0.52617 0.902 0.0
H119 H 0.58788 0.47601 0.96365 0.0
C120 C 0.53069 0.47696 0.92984 0.0
C121 C 0.54926 0.46896 0.94812 0.0
C122 C 0.53602 0.49738 0.91304 0.0
C123 C 0.56026 0.51011 0.91465 0.0
C124 C 0.57881 0.5029 0.93341 0.0
C125 C 0.57324 0.48217 0.94985 0.0
H126 H 0.6871 0.26456 0.27454 0.0
H127 H 0.74615 0.21303 0.30072 0.0
H128 H 0.70355 0.19592 0.22975 0.0
C129 C 0.69838 0.24734 0.27165 0.0
C130 C 0.69312 0.23113 0.24987 0.0
C131 C 0.71758 0.24109 0.29009 0.0
C132 C 0.7317 0.21839 0.28635 0.0
C133 C 0.72684 0.20206 0.26461 0.0
C134 C 0.70767 0.20868 0.24633 0.0
H135 H 0.40745 0.06381 0.02878 0.0
H136 H 0.48053 0.07995 0.99257 0.0
H137 H 0.44163 0.00662 0.97982 0.0
C138 C 0.42314 0.05813 0.01648 0.0
C139 C 0.42272 0.03303 0.00554 0.0
C140 C 0.44394 0.07552 0.01198 0.0
C141 C 0.46388 0.06742 0.99563 0.0
C142 C 0.4631 0.04275 0.9838 0.0
C143 C 0.44252 0.02569 0.989 0.0
Zn144 Zn 0.278 0.83598 0.00567 0.0
Zn145 Zn 0.23678 0.86492 0.00606 0.0
O146 O 0.23233 0.84142 0.03831 0.0
O147 O 0.26423 0.81412 0.03417 0.0
O148 O 0.20539 0.8879 0.00637 0.0
O149 O 0.30099 0.86705 0.01395 0.0
O150 O 0.26705 0.89178 0.01009 0.0
C151 C 0.24446 0.82157 0.04598 0.0
C152 C 0.25009 0.83183 0.95761 0.0
O153 O 0.23432 0.84617 0.96972 0.0
O154 O 0.27102 0.82538 0.96865 0.0
C155 C 0.18251 0.87936 0.0099 0.0
O156 O 0.17867 0.85444 0.01334 0.0
C157 C 0.29136 0.88938 0.01377 0.0
Zn158 Zn 0.10371 0.43803 0.31243 0.0
Zn159 Zn 0.11804 0.4862 0.29731 0.0
O160 O 0.09197 0.49386 0.32587 0.0
O161 O 0.07967 0.45482 0.33778 0.0
O162 O 0.13039 0.5214 0.286 0.0
O163 O 0.14059 0.43138 0.32392 0.0
O164 O 0.15199 0.46971 0.30939 0.0
C165 C 0.07825 0.47923 0.33999 0.0
C166 C 0.0921 0.44761 0.25835 0.0
O167 O 0.10152 0.47 0.26423 0.0
O168 O 0.09132 0.43014 0.2753 0.0
C169 C 0.13975 0.53769 0.30264 0.0
O170 O 0.14035 0.53154 0.32727 0.0
C171 C 0.15792 0.44841 0.31984 0.0
Zn172 Zn 0.81272 0.57857 0.94119 0.0
Zn173 Zn 0.80247 0.60255 0.98655 0.0
O174 O 0.82823 0.57477 0.99807 0.0
O175 O 0.83433 0.5534 0.96136 0.0
O176 O 0.79491 0.62291 0.01919 0.0
O177 O 0.82822 0.61163 0.92737 0.0
O178 O 0.81707 0.63123 0.96353 0.0
C179 C 0.83842 0.55619 0.98558 0.0
C180 C 0.7588 0.57645 0.95337 0.0
O181 O 0.76681 0.58789 0.97426 0.0
O182 O 0.77454 0.57101 0.93572 0.0
C183 C 0.78243 0.61432 0.0383 0.0
O184 O 0.77395 0.59015 0.03773 0.0
C185 C 0.82674 0.63214 0.94105 0.0
Zn186 Zn 0.83895 0.99012 0.28947 0.0
Zn187 Zn 0.86287 0.9968 0.24604 0.0
O188 O 0.83712 0.02756 0.24618 0.0
O189 O 0.81559 0.01936 0.28155 0.0
O190 O 0.88378 0.00102 0.21353 0.0
O191 O 0.87097 0.99731 0.31096 0.0
O192 O 0.89198 0.00053 0.27452 0.0
C193 C 0.81928 0.03326 0.26195 0.0
C194 C 0.83352 0.94534 0.25708 0.0
O195 O 0.84591 0.95975 0.2415 0.0
O196 O 0.8286 0.95377 0.27958 0.0
C197 C 0.87465 0.00436 0.19075 0.0
O198 O 0.84947 0.00547 0.18709 0.0
C199 C 0.89194 0.00092 0.29928 0.0
Zn200 Zn 0.31658 0.10314 0.43137 0.0
Zn201 Zn 0.30649 0.12578 0.47771 0.0
O202 O 0.33606 0.10148 0.48763 0.0
O203 O 0.34505 0.08388 0.4497 0.0
O204 O 0.29814 0.14473 0.51094 0.0
O205 O 0.32452 0.13803 0.41625 0.0
O206 O 0.3167 0.15603 0.45421 0.0
C207 C 0.34949 0.08624 0.47391 0.0
C208 C 0.26474 0.09295 0.44794 0.0
O209 O 0.27236 0.10686 0.46743 0.0
O210 O 0.27999 0.0884 0.4296 0.0
C211 C 0.28607 0.13472 0.52963 0.0
O212 O 0.27894 0.11016 0.52812 0.0
C213 C 0.32319 0.15808 0.43062 0.0
Zn214 Zn 0.33105 0.5061 0.77988 0.0
Zn215 Zn 0.35875 0.50839 0.73759 0.0
O216 O 0.33549 0.54077 0.73513 0.0
O217 O 0.30938 0.53552 0.76792 0.0
O218 O 0.37986 0.50923 0.70489 0.0
O219 O 0.36308 0.5131 0.80191 0.0
O220 O 0.38671 0.51136 0.76698 0.0
C221 C 0.31627 0.5481 0.74832 0.0
C222 C 0.32552 0.45961 0.75006 0.0
O223 O 0.33964 0.4724 0.73458 0.0
O224 O 0.31963 0.46959 0.77167 0.0
C225 C 0.39188 0.52965 0.69804 0.0
O226 O 0.39026 0.55085 0.71235 0.0
C227 C 0.38505 0.51375 0.79156 0.0
Zn228 Zn 0.78128 0.33821 0.50907 0.0
Zn229 Zn 0.73866 0.36517 0.50912 0.0
O230 O 0.73433 0.3413 0.54114 0.0
O231 O 0.76781 0.31588 0.53738 0.0
O232 O 0.70719 0.38803 0.50889 0.0
O233 O 0.80337 0.3699 0.51739 0.0
O234 O 0.76826 0.39283 0.51285 0.0
C235 C 0.74736 0.322 0.54879 0.0
C236 C 0.75317 0.33254 0.46102 0.0
O237 O 0.73669 0.34605 0.47307 0.0
O238 O 0.77456 0.32741 0.47198 0.0
C239 C 0.68421 0.38096 0.51412 0.0
O240 O 0.67946 0.35674 0.52015 0.0
C241 C 0.79266 0.3917 0.51669 0.0
Zn242 Zn 0.58954 0.93043 0.81119 0.0
Zn243 Zn 0.61469 0.97541 0.80175 0.0
O244 O 0.59138 0.98565 0.8322 0.0
O245 O 0.57272 0.94821 0.84119 0.0
O246 O 0.63478 0.00816 0.79369 0.0
O247 O 0.62363 0.91308 0.81751 0.0
O248 O 0.64368 0.9505 0.81178 0.0
C249 C 0.57629 0.97215 0.84609 0.0
C250 C 0.57933 0.9485 0.75988 0.0
O251 O 0.59548 0.96632 0.76716 0.0
O252 O 0.57284 0.93092 0.77541 0.0
C253 C 0.62419 0.02818 0.78463 0.0
O254 O 0.59897 0.02804 0.7808 0.0
C255 C 0.64437 0.92654 0.81724 0.0
Zn256 Zn 0.99522 0.28208 0.83419 0.0
Zn257 Zn 0.00066 0.23534 0.85345 0.0
O258 O 0.03116 0.2381 0.8276 0.0
O259 O 0.02407 0.27579 0.80979 0.0
O260 O 0.0053 0.20059 0.87059 0.0
O261 O 0.00315 0.29932 0.86877 0.0
O262 O 0.00322 0.26037 0.88543 0.0
C263 C 0.0372 0.25543 0.81128 0.0
C264 C 0.94984 0.24992 0.82549 0.0
O265 O 0.96403 0.23285 0.83592 0.0
O266 O 0.95848 0.27288 0.82328 0.0
C267 C 0.98719 0.19119 0.88411 0.0
O268 O 0.96541 0.20373 0.88563 0.0
C269 C 0.00479 0.28493 0.88831 0.0
Zn270 Zn 0.49939 0.79061 0.33078 0.0
Zn271 Zn 0.50358 0.74806 0.35724 0.0
O272 O 0.53376 0.74488 0.33101 0.0
O273 O 0.52758 0.77945 0.3075 0.0
O274 O 0.50634 0.71661 0.38014 0.0
O275 O 0.50802 0.81329 0.36175 0.0
O276 O 0.5086 0.77788 0.38479 0.0
C277 C 0.54006 0.75915 0.31206 0.0
C278 C 0.45278 0.76044 0.32752 0.0
O279 O 0.46634 0.74473 0.3407 0.0
O280 O 0.46243 0.78211 0.32132 0.0
C281 C 0.50932 0.69333 0.3725 0.0
O282 O 0.51089 0.68818 0.34753 0.0
C283 C 0.51048 0.8025 0.38347 0.0
Zn284 Zn 0.94081 0.81282 0.58677 0.0
Zn285 Zn 0.9856 0.8003 0.61101 0.0
O286 O 0.9968 0.8312 0.58884 0.0
O287 O 0.95976 0.84307 0.57125 0.0
O288 O 0.01773 0.79159 0.63145 0.0
O289 O 0.92382 0.81759 0.62143 0.0
O290 O 0.96114 0.80915 0.64041 0.0
C291 C 0.98394 0.84651 0.57463 0.0
C292 C 0.95741 0.76111 0.57431 0.0
O293 O 0.97564 0.76681 0.59062 0.0
O294 O 0.9405 0.77764 0.56872 0.0
C295 C 0.03969 0.78716 0.62194 0.0
O296 O 0.04241 0.78781 0.59668 0.0
C297 C 0.93749 0.81526 0.64191 0.0
Zn298 Zn 0.44826 0.30608 0.09599 0.0
Zn299 Zn 0.49535 0.29784 0.11712 0.0
O300 O 0.50382 0.3249 0.08982 0.0
O301 O 0.46617 0.32811 0.06934 0.0
O302 O 0.52988 0.29 0.13399 0.0
O303 O 0.43737 0.32232 0.12975 0.0
O304 O 0.47465 0.31197 0.14778 0.0
C305 C 0.49001 0.33415 0.07157 0.0
C306 C 0.4619 0.25332 0.09191 0.0
O307 O 0.48326 0.26261 0.10117 0.0
O308 O 0.44254 0.2677 0.08919 0.0
C309 C 0.53222 0.26912 0.14645 0.0
O310 O 0.51214 0.25322 0.14786 0.0
C311 C 0.45229 0.32168 0.14954 0.0
H312 H 0.17821 0.77234 0.81393 0.0
H313 H 0.28378 0.80992 0.92437 0.0
H314 H 0.26039 0.76254 0.80601 0.0
H315 H 0.20395 0.83198 0.92937 0.0
H316 H 0.27491 0.79238 0.881 0.0
H317 H 0.1866 0.79434 0.85583 0.0
C318 C 0.19804 0.77503 0.82083 0.0
C319 C 0.21863 0.76543 0.80636 0.0
C320 C 0.25929 0.80113 0.89144 0.0
C321 C 0.22827 0.79028 0.85458 0.0
C322 C 0.26431 0.81113 0.91633 0.0
C323 C 0.24453 0.82235 0.93068 0.0
C324 C 0.23419 0.80206 0.88064 0.0
C325 C 0.21977 0.8235 0.91903 0.0
C326 C 0.20277 0.78749 0.84484 0.0
C327 C 0.24386 0.76917 0.81658 0.0
N328 N 0.21524 0.81329 0.89472 0.0
N329 N 0.24792 0.78117 0.84003 0.0
H330 H 0.97215 0.57625 0.42437 0.0
H331 H 0.05166 0.45381 0.37722 0.0
H332 H 0.97484 0.50379 0.46476 0.0
H333 H 0.064 0.53004 0.34609 0.0
H334 H 0.02153 0.47183 0.40786 0.0
H335 H 0.00428 0.55991 0.39422 0.0
C336 C 0.97955 0.55699 0.427 0.0
C337 C 0.97055 0.54129 0.44701 0.0
C338 C 0.03086 0.4847 0.39442 0.0
C339 C 0.00702 0.52243 0.41247 0.0
C340 C 0.04806 0.47439 0.37682 0.0
C341 C 0.06039 0.49043 0.359 0.0
C342 C 0.02568 0.51126 0.39418 0.0
C343 C 0.05496 0.51698 0.35952 0.0
C344 C 0.99781 0.54766 0.40973 0.0
C345 C 0.9807 0.5164 0.44932 0.0
N346 N 0.03788 0.52657 0.37677 0.0
N347 N 0.99825 0.50775 0.43223 0.0
H348 H 0.83408 0.79479 0.90366 0.0
H349 H 0.84869 0.64097 0.89416 0.0
H350 H 0.851 0.75224 0.83339 0.0
H351 H 0.82175 0.68085 0.96245 0.0
H352 H 0.85619 0.68264 0.87392 0.0
H353 H 0.83538 0.75422 0.92753 0.0
C354 C 0.83825 0.77699 0.89328 0.0
C355 C 0.84239 0.77699 0.86643 0.0
C356 C 0.84882 0.68232 0.89341 0.0
C357 C 0.84408 0.73058 0.89364 0.0
C358 C 0.84457 0.6585 0.90502 0.0
C359 C 0.83427 0.65736 0.92994 0.0
C360 C 0.84267 0.70526 0.90673 0.0
C361 C 0.82953 0.68078 0.94313 0.0
C362 C 0.83908 0.75387 0.90693 0.0
C363 C 0.84806 0.75337 0.85409 0.0
N364 N 0.83354 0.70378 0.93126 0.0
N365 N 0.84858 0.73117 0.86775 0.0
H366 H 0.99689 0.02397 0.42898 0.0
H367 H 0.94268 0.99852 0.28379 0.0
H368 H 0.04559 0.998 0.36737 0.0
H369 H 0.896 0.01444 0.35037 0.0
H370 H 0.98176 0.00424 0.31165 0.0
H371 H 0.96111 0.0276 0.39782 0.0
C372 C 4e-05 0.01931 0.40873 0.0
C373 C 0.02402 0.01041 0.4007 0.0
C374 C 0.96292 0.00664 0.32001 0.0
C375 C 0.98302 0.01404 0.36484 0.0
C376 C 0.94065 0.0034 0.30415 0.0
C377 C 0.91603 0.00571 0.31483 0.0
C378 C 0.96042 0.01247 0.34658 0.0
C379 C 0.91451 0.01213 0.34131 0.0
C380 C 0.97962 0.0213 0.39092 0.0
C381 C 0.02729 0.00489 0.37423 0.0
N382 N 0.93632 0.01519 0.35619 0.0
N383 N 0.00684 0.00645 0.3572 0.0
H384 H 0.22848 0.19487 0.67569 0.0
H385 H 0.29532 0.18667 0.53714 0.0
H386 H 0.25385 0.26134 0.63266 0.0
H387 H 0.26085 0.12015 0.57362 0.0
H388 H 0.2825 0.21373 0.57364 0.0
H389 H 0.24183 0.16666 0.63986 0.0
C390 C 0.23677 0.20355 0.65872 0.0
C391 C 0.24019 0.23056 0.65732 0.0
C392 C 0.27773 0.19321 0.57373 0.0
C393 C 0.25574 0.19837 0.6164 0.0
C394 C 0.28511 0.1777 0.55288 0.0
C395 C 0.27911 0.15106 0.55225 0.0
C396 C 0.26427 0.18209 0.59426 0.0
C397 C 0.26584 0.1406 0.57326 0.0
C398 C 0.2445 0.18743 0.63834 0.0
C399 C 0.25129 0.24065 0.63492 0.0
N400 N 0.25885 0.15614 0.59341 0.0
N401 N 0.25867 0.22459 0.61544 0.0
H402 H 0.49129 0.57235 0.57175 0.0
H403 H 0.40228 0.48848 0.66569 0.0
H404 H 0.48122 0.48935 0.56455 0.0
H405 H 0.41819 0.57038 0.67673 0.0
H406 H 0.4295 0.48864 0.62749 0.0
H407 H 0.46283 0.57225 0.60895 0.0
C408 C 0.48295 0.55411 0.57787 0.0
C409 C 0.48868 0.53082 0.56494 0.0
C410 C 0.42702 0.50658 0.63826 0.0
C411 C 0.45617 0.53053 0.6078 0.0
C412 C 0.41143 0.50652 0.66008 0.0
C413 C 0.40793 0.52946 0.67452 0.0
C414 C 0.43917 0.52976 0.63071 0.0
C415 C 0.42033 0.55222 0.66627 0.0
C416 C 0.46682 0.55404 0.59924 0.0
C417 C 0.47759 0.50773 0.57407 0.0
N418 N 0.43536 0.55179 0.64495 0.0
N419 N 0.46187 0.50818 0.59488 0.0
H420 H 0.73287 0.19913 0.65895 0.0
H421 H 0.72659 0.339 0.59456 0.0
H422 H 0.74416 0.27002 0.70368 0.0
H423 H 0.75132 0.2702 0.55439 0.0
H424 H 0.72085 0.31332 0.63398 0.0
H425 H 0.72731 0.22465 0.61966 0.0
C426 C 0.73372 0.22008 0.66055 0.0
C427 C 0.73916 0.2325 0.68454 0.0
C428 C 0.72716 0.30387 0.61636 0.0
C429 C 0.73278 0.26175 0.63975 0.0
C430 C 0.73023 0.31842 0.5939 0.0
C431 C 0.73958 0.30667 0.57133 0.0
C432 C 0.73294 0.27737 0.61591 0.0
C433 C 0.74427 0.28001 0.57149 0.0
C434 C 0.73069 0.2346 0.63814 0.0
C435 C 0.74028 0.25972 0.68548 0.0
N436 N 0.74094 0.26628 0.59341 0.0
N437 N 0.7372 0.27347 0.66338 0.0
H438 H 0.55672 0.94425 0.59297 0.0
H439 H 0.53352 0.92626 0.74314 0.0
H440 H 0.48006 0.94157 0.62412 0.0
H441 H 0.59965 0.96948 0.71611 0.0
H442 H 0.51551 0.92467 0.6988 0.0
H443 H 0.57498 0.94627 0.63745 0.0
C444 C 0.54381 0.94387 0.60922 0.0
C445 C 0.51692 0.94271 0.60506 0.0
C446 C 0.53392 0.93454 0.70263 0.0
C447 C 0.53751 0.94481 0.65559 0.0
C448 C 0.54426 0.93539 0.72786 0.0
C449 C 0.5681 0.94805 0.73327 0.0
C450 C 0.54779 0.94592 0.68258 0.0
C451 C 0.58115 0.95965 0.71276 0.0
C452 C 0.55418 0.94521 0.63448 0.0
C453 C 0.50091 0.94251 0.62664 0.0
N454 N 0.57093 0.95809 0.68821 0.0
N455 N 0.51146 0.94335 0.65104 0.0
H456 H 0.81069 0.17291 0.76208 0.0
H457 H 0.91339 0.28319 0.80793 0.0
H458 H 0.79686 0.25491 0.75818 0.0
H459 H 0.92568 0.20184 0.82027 0.0
H460 H 0.87049 0.2727 0.79005 0.0
H461 H 0.85232 0.18259 0.78403 0.0
C462 C 0.81625 0.19294 0.76607 0.0
C463 C 0.80021 0.21313 0.75815 0.0
C464 C 0.88246 0.25709 0.79672 0.0
C465 C 0.84809 0.22433 0.78295 0.0
C466 C 0.90707 0.26306 0.80693 0.0
C467 C 0.92332 0.24335 0.81553 0.0
C468 C 0.87385 0.23115 0.79487 0.0
C469 C 0.91386 0.21766 0.81384 0.0
C470 C 0.84011 0.19844 0.77847 0.0
C471 C 0.8087 0.23871 0.76351 0.0
N472 N 0.88979 0.21228 0.80356 0.0
N473 N 0.83203 0.24355 0.77546 0.0
H474 H 0.50214 0.87135 0.53794 0.0
H475 H 0.52533 0.85334 0.38587 0.0
H476 H 0.51903 0.93344 0.48572 0.0
H477 H 0.50524 0.78936 0.43481 0.0
H478 H 0.52845 0.88172 0.42392 0.0
H479 H 0.50857 0.83994 0.50232 0.0
C480 C 0.50762 0.87831 0.5191 0.0
C481 C 0.50978 0.90499 0.51461 0.0
C482 C 0.52349 0.86146 0.42649 0.0
C483 C 0.51697 0.86941 0.47394 0.0
C484 C 0.52168 0.84519 0.40469 0.0
C485 C 0.5147 0.81896 0.40708 0.0
C486 C 0.51807 0.85162 0.45103 0.0
C487 C 0.51056 0.8095 0.43207 0.0
C488 C 0.51114 0.86043 0.49878 0.0
C489 C 0.51679 0.91304 0.48987 0.0
N490 N 0.51202 0.82591 0.4531 0.0
N491 N 0.51995 0.89537 0.47049 0.0
H492 H 0.16275 0.29701 0.71363 0.0
H493 H 0.07437 0.21748 0.81083 0.0
H494 H 0.18083 0.21917 0.73559 0.0
H495 H 0.05205 0.28788 0.77314 0.0
H496 H 0.11338 0.21671 0.78428 0.0
H497 H 0.12209 0.29334 0.7363 0.0
C498 C 0.15806 0.27908 0.72325 0.0
C499 C 0.17521 0.25845 0.72293 0.0
C500 C 0.09976 0.23216 0.78178 0.0
C501 C 0.12855 0.25401 0.74914 0.0
C502 C 0.07752 0.23261 0.7969 0.0
C503 C 0.05997 0.2529 0.79444 0.0
C504 C 0.10443 0.25219 0.76423 0.0
C505 C 0.06504 0.27196 0.77602 0.0
C506 C 0.13478 0.27692 0.73613 0.0
C507 C 0.16804 0.23551 0.73541 0.0
N508 N 0.08677 0.2712 0.76185 0.0
N509 N 0.14531 0.23396 0.74828 0.0
H510 H 0.5252 0.54578 0.44934 0.0
H511 H 0.50607 0.6973 0.42541 0.0
H512 H 0.51363 0.60215 0.5106 0.0
H513 H 0.51645 0.64134 0.36349 0.0
H514 H 0.50897 0.66258 0.45678 0.0
H515 H 0.52247 0.58034 0.4176 0.0
C516 C 0.52221 0.56543 0.45616 0.0
C517 C 0.51964 0.571 0.48275 0.0
C518 C 0.51061 0.65785 0.43634 0.0
C519 C 0.51626 0.61071 0.4464 0.0
C520 C 0.50896 0.67771 0.41837 0.0
C521 C 0.51102 0.67229 0.3917 0.0
C522 C 0.51438 0.63228 0.42769 0.0
C523 C 0.51475 0.64646 0.38382 0.0
C524 C 0.52051 0.58515 0.43798 0.0
C525 C 0.5154 0.59682 0.49032 0.0
N526 N 0.51632 0.62745 0.40172 0.0
N527 N 0.51388 0.61565 0.47228 0.0
H528 H 0.8293 0.83545 0.7647 0.0
H529 H 0.96062 0.81116 0.69009 0.0
H530 H 0.90183 0.82049 0.80423 0.0
H531 H 0.8878 0.82854 0.65226 0.0
H532 H 0.94033 0.81652 0.7322 0.0
H533 H 0.8514 0.83559 0.72362 0.0
C534 C 0.85 0.83263 0.76483 0.0
C535 C 0.86374 0.82808 0.78805 0.0
C536 C 0.92885 0.81926 0.71467 0.0
C537 C 0.88915 0.82751 0.74072 0.0
C538 C 0.9404 0.81619 0.69061 0.0
C539 C 0.92585 0.81926 0.66757 0.0
C540 C 0.90257 0.82542 0.71569 0.0
C541 C 0.89976 0.82585 0.66947 0.0
C542 C 0.86259 0.83247 0.74126 0.0
C543 C 0.89043 0.82385 0.78679 0.0
N544 N 0.88896 0.82861 0.69308 0.0
N545 N 0.90226 0.82355 0.76349 0.0
H546 H 0.01096 0.98452 0.48802 0.0
H547 H 0.03586 0.85409 0.56556 0.0
H548 H 0.08173 0.94223 0.48204 0.0
H549 H 0.96134 0.88893 0.5544 0.0
H550 H 0.05569 0.88972 0.54141 0.0
H551 H 0.99547 0.95341 0.51936 0.0
C552 C 0.02329 0.96869 0.49342 0.0
C553 C 0.04745 0.96566 0.48208 0.0
C554 C 0.03504 0.88955 0.54445 0.0
C555 C 0.02985 0.9299 0.51803 0.0
C556 C 0.02373 0.86931 0.55825 0.0
C557 C 0.99687 0.86842 0.56174 0.0
C558 C 0.01936 0.90909 0.53445 0.0
C559 C 0.98207 0.88863 0.5519 0.0
C560 C 0.01446 0.95094 0.51134 0.0
C561 C 0.06292 0.94518 0.49028 0.0
N562 N 0.99349 0.90804 0.5387 0.0
N563 N 0.05373 0.92784 0.50759 0.0
H564 H 0.18889 0.74554 0.68744 0.0
H565 H 0.04077 0.78669 0.67498 0.0
H566 H 0.14062 0.76088 0.75294 0.0
H567 H 0.08928 0.77497 0.60888 0.0
H568 H 0.07737 0.77742 0.70368 0.0
H569 H 0.15292 0.75638 0.65824 0.0
C570 C 0.17072 0.75117 0.69568 0.0
C571 C 0.16776 0.75226 0.72269 0.0
C572 C 0.08006 0.7769 0.68291 0.0
C573 C 0.12654 0.7648 0.68938 0.0
C574 C 0.05913 0.78216 0.66646 0.0
C575 C 0.06192 0.78157 0.63943 0.0
C576 C 0.10404 0.77091 0.67233 0.0
C577 C 0.08623 0.77563 0.62958 0.0
C578 C 0.15023 0.75746 0.679 0.0
C579 C 0.14389 0.76004 0.73228 0.0
N580 N 0.10635 0.77048 0.64603 0.0
N581 N 0.1242 0.76591 0.71565 0.0
H582 H 0.93455 0.6299 0.46875 0.0
H583 H 0.97654 0.71572 0.59279 0.0
H584 H 0.93959 0.59759 0.54518 0.0
H585 H 0.93335 0.74706 0.52841 0.0
H586 H 0.97053 0.67223 0.57321 0.0
H587 H 0.94102 0.67341 0.48812 0.0
C588 C 0.93693 0.63206 0.48962 0.0
C589 C 0.93637 0.61031 0.50548 0.0
C590 C 0.96243 0.6887 0.56343 0.0
C591 C 0.9443 0.65964 0.5276 0.0
C592 C 0.96599 0.71347 0.57446 0.0
C593 C 0.95534 0.73497 0.56222 0.0
C594 C 0.94863 0.68556 0.53977 0.0
C595 C 0.94173 0.73097 0.53856 0.0
C596 C 0.94059 0.65679 0.50063 0.0
C597 C 0.93963 0.61399 0.53239 0.0
N598 N 0.93889 0.70676 0.52801 0.0
N599 N 0.94369 0.63822 0.54264 0.0
H600 H 0.77109 0.80796 0.17521 0.0
H601 H 0.8158 0.90781 0.28881 0.0
H602 H 0.75757 0.79711 0.25662 0.0
H603 H 0.82995 0.92238 0.2081 0.0
H604 H 0.79756 0.86555 0.2768 0.0
H605 H 0.79575 0.84798 0.18626 0.0
C606 C 0.77356 0.81383 0.19541 0.0
C607 C 0.76206 0.79929 0.21503 0.0
C608 C 0.8047 0.87784 0.26162 0.0
C609 C 0.79003 0.84503 0.22774 0.0
C610 C 0.81514 0.9021 0.26848 0.0
C611 C 0.82423 0.91886 0.24941 0.0
C612 C 0.80304 0.87007 0.2354 0.0
C613 C 0.8231 0.91012 0.22343 0.0
C614 C 0.78751 0.83673 0.20168 0.0
C615 C 0.7657 0.80791 0.24083 0.0
N616 N 0.81247 0.88636 0.21713 0.0
N617 N 0.77924 0.83019 0.24638 0.0
H618 H 0.75087 0.18159 0.22196 0.0
H619 H 0.77957 0.0484 0.29197 0.0
H620 H 0.73326 0.16567 0.30155 0.0
H621 H 0.82333 0.07225 0.22579 0.0
H622 H 0.75674 0.08887 0.29091 0.0
H623 H 0.77263 0.13964 0.21885 0.0
C624 C 0.75158 0.16926 0.23873 0.0
C625 C 0.74042 0.17713 0.26211 0.0
C626 C 0.77128 0.08531 0.27655 0.0
C627 C 0.7648 0.12932 0.25859 0.0
C628 C 0.78434 0.06208 0.27704 0.0
C629 C 0.8037 0.05691 0.25909 0.0
C630 C 0.77736 0.10374 0.25789 0.0
C631 C 0.80866 0.07545 0.24008 0.0
C632 C 0.76404 0.14546 0.23696 0.0
C633 C 0.74189 0.16052 0.28328 0.0
N634 N 0.79561 0.09817 0.24002 0.0
N635 N 0.75371 0.13741 0.28096 0.0
H636 H 0.42942 0.98422 0.02251 0.0
H637 H 0.28041 0.94087 0.00633 0.0
H638 H 0.36978 0.03794 0.00251 0.0
H639 H 0.34233 0.8903 0.02828 0.0
H640 H 0.31135 0.97768 0.00825 0.0
H641 H 0.39643 0.95066 0.02839 0.0
C642 C 0.40926 0.98893 0.0195 0.0
C643 C 0.40228 0.01374 0.01175 0.0
C644 C 0.31803 0.95853 0.01285 0.0
C645 C 0.36422 0.9753 0.01824 0.0
C646 C 0.3004 0.93753 0.01178 0.0
C647 C 0.30883 0.91239 0.01688 0.0
C648 C 0.3442 0.95429 0.0191 0.0
C649 C 0.33494 0.90922 0.02389 0.0
C650 C 0.39039 0.96978 0.02288 0.0
C651 C 0.37589 0.01898 0.00847 0.0
N652 N 0.35163 0.92983 0.02464 0.0
N653 N 0.35775 -0.00021 0.01144 0.0
H654 H 0.30045 0.38583 0.38122 0.0
H655 H 0.2013 0.46837 0.29752 0.0
H656 H 0.31025 0.4008 0.29968 0.0
H657 H 0.1765 0.41585 0.35666 0.0
H658 H 0.24611 0.45522 0.3054 0.0
H659 H 0.25927 0.40833 0.37915 0.0
C660 C 0.29423 0.39399 0.36297 0.0
C661 C 0.30894 0.39095 0.34052 0.0
C662 C 0.23082 0.44689 0.31684 0.0
C663 C 0.26227 0.41747 0.33843 0.0
C664 C 0.20534 0.4544 0.31243 0.0
C665 C 0.1852 0.44291 0.32625 0.0
C666 C 0.23617 0.42824 0.33557 0.0
C667 C 0.19147 0.4249 0.34535 0.0
C668 C 0.2708 0.40695 0.36191 0.0
C669 C 0.30003 0.40275 0.31766 0.0
N670 N 0.21644 0.41806 0.34944 0.0
N671 N 0.27726 0.41536 0.3172 0.0
H672 H 0.12062 0.01607 0.39938 0.0
H673 H 0.22811 0.09419 0.48558 0.0
H674 H 0.11294 0.03361 0.48098 0.0
H675 H 0.24069 0.06631 0.40748 0.0
H676 H 0.18458 0.0748 0.48327 0.0
H677 H 0.16347 0.03723 0.40094 0.0
C678 C 0.12793 0.02446 0.41759 0.0
C679 C 0.11329 0.02294 0.44011 0.0
C680 C 0.19687 0.07294 0.46664 0.0
C681 C 0.16223 0.04711 0.44208 0.0
C682 C 0.22172 0.08406 0.46793 0.0
C683 C 0.23813 0.08182 0.44672 0.0
C684 C 0.1883 0.0596 0.44394 0.0
C685 C 0.22876 0.06844 0.42434 0.0
C686 C 0.15241 0.03641 0.41851 0.0
C687 C 0.12375 0.03398 0.46324 0.0
N688 N 0.20449 0.05785 0.42354 0.0
N689 N 0.14755 0.04561 0.46362 0.0
H690 H 0.75186 0.13267 0.75166 0.0
H691 H 0.60802 0.07471 0.76589 0.0
H692 H 0.68326 0.17659 0.73622 0.0
H693 H 0.67699 0.03385 0.78758 0.0
H694 H 0.63506 0.11186 0.75391 0.0
H695 H 0.72459 0.09597 0.7639 0.0
C696 C 0.73106 0.13468 0.75099 0.0
C697 C 0.71989 0.15788 0.743 0.0
C698 C 0.64427 0.09478 0.76133 0.0
C699 C 0.68842 0.11564 0.75672 0.0
C700 C 0.62884 0.07354 0.76818 0.0
C701 C 0.64023 0.05108 0.77777 0.0
C702 C 0.67132 0.09356 0.764 0.0
C703 C 0.66732 0.05073 0.7803 0.0
C704 C 0.71547 0.11363 0.75786 0.0
C705 C 0.69275 0.15906 0.742 0.0
N706 N 0.6819 0.07159 0.77342 0.0
N707 N 0.67797 0.13827 0.7488 0.0
H708 H 0.43802 0.98449 0.57224 0.0
H709 H 0.38897 0.06269 0.44952 0.0
H710 H 0.47939 0.98991 0.50067 0.0
H711 H 0.35724 0.07461 0.52545 0.0
H712 H 0.42174 0.03528 0.46846 0.0
H713 H 0.40803 0.01718 0.55636 0.0
C714 C 0.44096 0.99271 0.55333 0.0
C715 C 0.46103 0.98415 0.5376 0.0
C716 C 0.40776 0.04398 0.48109 0.0
C717 C 0.42672 0.02123 0.51928 0.0
C718 C 0.38894 0.05959 0.47025 0.0
C719 C 0.37023 0.07086 0.4859 0.0
C720 C 0.40781 0.03922 0.50782 0.0
C721 C 0.37132 0.0663 0.51269 0.0
C722 C 0.4238 0.01129 0.54426 0.0
C723 C 0.46384 0.9954 0.51321 0.0
N724 N 0.38968 0.05058 0.52281 0.0
N725 N 0.44679 0.01316 0.50477 0.0
H726 H 0.53806 0.45937 0.52885 0.0
H727 H 0.68735 0.43239 0.50198 0.0
H728 H 0.59286 0.51815 0.50547 0.0
H729 H 0.633 0.37326 0.52561 0.0
H730 H 0.65269 0.46378 0.50231 0.0
H731 H 0.57225 0.42739 0.52712 0.0
C732 C 0.55729 0.46559 0.52341 0.0
C733 C 0.56254 0.49157 0.51733 0.0
C734 C 0.64831 0.44394 0.50739 0.0
C735 C 0.60182 0.45491 0.51511 0.0
C736 C 0.66812 0.42596 0.50721 0.0
C737 C 0.66315 0.40009 0.51382 0.0
C738 C 0.62323 0.4361 0.51426 0.0
C739 C 0.63778 0.39297 0.52039 0.0
C740 C 0.57678 0.44727 0.5223 0.0
C741 C 0.58777 0.49834 0.51001 0.0
N742 N 0.61881 0.41086 0.52048 0.0
N743 N 0.60643 0.48018 0.50919 0.0
H744 H 0.68172 0.26445 0.32098 0.0
H745 H 0.78757 0.31187 0.4277 0.0
H746 H 0.764 0.25519 0.31349 0.0
H747 H 0.70661 0.32935 0.43359 0.0
H748 H 0.77884 0.29218 0.38519 0.0
H749 H 0.68995 0.28946 0.36124 0.0
C750 C 0.70153 0.26791 0.32761 0.0
C751 C 0.72221 0.25756 0.31383 0.0
C752 C 0.76293 0.3004 0.39563 0.0
C753 C 0.7317 0.28589 0.36012 0.0
C754 C 0.76789 0.31165 0.42002 0.0
C755 C 0.74775 0.32216 0.43439 0.0
C756 C 0.73755 0.29935 0.38539 0.0
C757 C 0.72271 0.32146 0.42321 0.0
C758 C 0.70619 0.28208 0.35069 0.0
C759 C 0.74743 0.26238 0.32362 0.0
N760 N 0.71827 0.31004 0.39942 0.0
N761 N 0.75142 0.27606 0.34616 0.0
H762 H 0.48608 0.07085 0.94546 0.0
H763 H 0.55426 0.94704 0.8861 0.0
H764 H 0.48688 0.99599 0.98134 0.0
H765 H 0.5676 0.0238 0.85667 0.0
H766 H 0.53006 0.96551 0.92146 0.0
H767 H 0.51685 0.05519 0.91354 0.0
C768 C 0.49298 0.05124 0.94683 0.0
C769 C 0.48362 0.03457 0.96589 0.0
C770 C 0.53836 0.97843 0.90742 0.0
C771 C 0.51849 0.01652 0.92933 0.0
C772 C 0.55213 0.96786 0.8871 0.0
C773 C 0.5628 0.98389 0.86825 0.0
C774 C 0.53486 0.00528 0.9089 0.0
C775 C 0.55963 0.01075 0.87077 0.0
C776 C 0.51044 0.04231 0.92855 0.0
C777 C 0.49309 0.00933 0.96666 0.0
N778 N 0.54568 0.02063 0.89063 0.0
N779 N 0.5098 0.00105 0.94854 0.0
H780 H 0.33917 0.32293 0.40204 0.0
H781 H 0.33945 0.16882 0.38186 0.0
H782 H 0.35722 0.28377 0.3302 0.0
H783 H 0.32006 0.20605 0.45435 0.0
H784 H 0.3478 0.21115 0.36352 0.0
H785 H 0.33362 0.28068 0.4224 0.0
C786 C 0.34207 0.30547 0.3906 0.0
C787 C 0.34883 0.30692 0.36442 0.0
C788 C 0.34177 0.21013 0.38346 0.0
C789 C 0.34254 0.25862 0.38754 0.0
C790 C 0.33698 0.1859 0.39398 0.0
C791 C 0.32893 0.18383 0.41969 0.0
C792 C 0.33847 0.2326 0.39868 0.0
C793 C 0.32618 0.20672 0.43443 0.0
C794 C 0.33898 0.28139 0.40224 0.0
C795 C 0.35249 0.28368 0.35055 0.0
N796 N 0.33086 0.23018 0.42368 0.0
N797 N 0.34923 0.26056 0.36225 0.0
H798 H 0.53961 0.50373 0.86044 0.0
H799 H 0.38733 0.52502 0.84337 0.0
H800 H 0.48622 0.50889 0.92327 0.0
H801 H 0.43621 0.5085 0.77856 0.0
H802 H 0.42515 0.52578 0.87215 0.0
H803 H 0.50382 0.51195 0.82958 0.0
C804 C 0.52044 0.50699 0.86771 0.0
C805 C 0.5157 0.50539 0.89434 0.0
C806 C 0.42773 0.5221 0.85163 0.0
C807 C 0.47492 0.51469 0.85942 0.0
C808 C 0.40607 0.52165 0.83512 0.0
C809 C 0.40851 0.51635 0.8085 0.0
C810 C 0.45217 0.51709 0.84162 0.0
C811 C 0.43342 0.51248 0.79898 0.0
C812 C 0.50004 0.51152 0.85014 0.0
C813 C 0.49057 0.50963 0.90284 0.0
N814 N 0.45431 0.5127 0.81559 0.0
N815 N 0.47115 0.51395 0.88545 0.0
H816 H 0.73015 0.68264 0.18288 0.0
H817 H 0.79482 0.66589 0.04395 0.0
H818 H 0.75931 0.74616 0.13787 0.0
H819 H 0.75701 0.60285 0.08309 0.0
H820 H 0.78428 0.69492 0.07979 0.0
H821 H 0.7417 0.65257 0.14792 0.0
C822 C 0.73892 0.6903 0.16566 0.0
C823 C 0.74383 0.71703 0.16342 0.0
C824 C 0.77828 0.67474 0.0806 0.0
C825 C 0.75734 0.68265 0.12345 0.0
C826 C 0.78435 0.6581 0.06012 0.0
C827 C 0.77674 0.63185 0.06044 0.0
C828 C 0.76454 0.66516 0.10169 0.0
C829 C 0.76322 0.62294 0.08198 0.0
C830 C 0.74561 0.67309 0.14576 0.0
C831 C 0.75555 0.72573 0.14075 0.0
N832 N 0.75753 0.63957 0.10174 0.0
N833 N 0.76188 0.70863 0.12173 0.0
H834 H 0.00937 0.00924 0.09359 0.0
H835 H 0.86223 0.01268 0.13951 0.0
H836 H 0.94467 0.02348 0.04181 0.0
H837 H 0.92754 0.00135 0.19142 0.0
H838 H 0.89193 0.01622 0.10338 0.0
H839 H 0.97953 0.00555 0.12948 0.0
C840 C 0.98887 0.01144 0.08971 0.0
C841 C 0.97956 0.01664 0.06458 0.0
C842 C 0.89976 0.01298 0.12268 0.0
C843 C 0.94519 0.01269 0.10576 0.0
C844 C 0.8828 0.01094 0.14334 0.0
C845 C 0.89236 0.00671 0.16859 0.0
C846 C 0.92652 0.01072 0.12725 0.0
C847 C 0.91924 0.00463 0.17233 0.0
C848 C 0.97183 0.00949 0.11028 0.0
C849 C 0.95279 0.01973 0.06089 0.0
N850 N 0.93532 0.00663 0.15192 0.0
N851 N 0.93657 0.01767 0.08121 0.0
H852 H 0.24654 0.78285 0.2061 0.0
H853 H 0.24628 0.76989 0.05389 0.0
H854 H 0.23155 0.70985 0.16604 0.0
H855 H 0.22675 0.84176 0.09175 0.0
H856 H 0.24123 0.7476 0.09491 0.0
H857 H 0.24006 0.80528 0.16494 0.0
C858 C 0.24168 0.7716 0.18867 0.0
C859 C 0.23971 0.74446 0.18941 0.0
C860 C 0.23761 0.76816 0.09422 0.0
C861 C 0.23249 0.7699 0.14238 0.0
C862 C 0.2405 0.78088 0.07083 0.0
C863 C 0.23694 0.80767 0.06951 0.0
C864 C 0.23182 0.78243 0.1167 0.0
C865 C 0.22951 0.82104 0.09199 0.0
C866 C 0.23782 0.7844 0.16527 0.0
C867 C 0.23315 0.7308 0.16634 0.0
N868 N 0.22767 0.80835 0.11486 0.0
N869 N 0.23016 0.74362 0.14371 0.0
H870 H 0.01982 0.46341 0.10694 0.0
H871 H 0.07359 0.40129 0.23786 0.0
H872 H 0.01653 0.38141 0.1215 0.0
H873 H 0.0854 0.48167 0.21869 0.0
H874 H 0.05328 0.39343 0.19513 0.0
H875 H 0.04431 0.47036 0.14764 0.0
C876 C 0.02426 0.44687 0.11874 0.0
C877 C 0.01597 0.42181 0.11093 0.0
C878 C 0.06044 0.41275 0.20021 0.0
C879 C 0.0441 0.4296 0.15753 0.0
C880 C 0.07203 0.41728 0.22464 0.0
C881 C 0.08111 0.44223 0.23197 0.0
C882 C 0.05773 0.43334 0.18301 0.0
C883 C 0.07864 0.46214 0.21394 0.0
C884 C 0.03837 0.45082 0.1419 0.0
C885 C 0.02265 0.40103 0.12674 0.0
N886 N 0.06704 0.4573 0.19038 0.0
N887 N 0.03616 0.4054 0.14938 0.0
H888 H 0.29834 0.76954 0.2618 0.0
H889 H 0.42697 0.71302 0.32764 0.0
H890 H 0.31093 0.68762 0.26944 0.0
H891 H 0.41707 0.79311 0.30772 0.0
H892 H 0.3829 0.70327 0.31075 0.0
H893 H 0.34037 0.7785 0.28284 0.0
C894 C 0.30996 0.75341 0.26786 0.0
C895 C 0.30109 0.72778 0.26365 0.0
C896 C 0.39043 0.72297 0.31021 0.0
C897 C 0.34932 0.73793 0.28808 0.0
C898 C 0.41552 0.72854 0.3199 0.0
C899 C 0.42583 0.75387 0.31894 0.0
C900 C 0.37556 0.74292 0.29971 0.0
C901 C 0.41011 0.77324 0.30868 0.0
C902 C 0.33394 0.75854 0.28 0.0
C903 C 0.31683 0.7077 0.27246 0.0
N904 N 0.38588 0.76735 0.29948 0.0
N905 N 0.34022 0.71319 0.28416 0.0
H906 H 0.95841 0.35255 0.03104 0.0
H907 H 0.03045 0.32984 0.90171 0.0
H908 H 0.03336 0.38783 0.01923 0.0
H909 H 0.98467 0.26802 0.93388 0.0
H910 H 0.03048 0.35266 0.94373 0.0
H911 H 0.96589 0.32212 0.99491 0.0
C912 C 0.97661 0.35353 0.02105 0.0
C913 C 0.99535 0.37255 0.02798 0.0
C914 C 0.02077 0.33392 0.94171 0.0
C915 C 0.00373 0.33851 0.9865 0.0
C916 C 0.02064 0.32096 0.91775 0.0
C917 C 0.00746 0.29709 0.91438 0.0
C918 C 0.00697 0.3233 0.96223 0.0
C919 C 0.99512 0.28637 0.93577 0.0
C920 C 0.98088 0.33621 0.00055 0.0
C921 C 0.01855 0.37328 0.01446 0.0
N922 N 0.99472 0.29981 0.95873 0.0
N923 N 0.02192 0.35678 0.99401 0.0
H924 H 0.66821 0.78758 0.21452 0.0
H925 H 0.57751 0.72191 0.31852 0.0
H926 H 0.68415 0.71164 0.24345 0.0
H927 H 0.55429 0.78374 0.26831 0.0
H928 H 0.61698 0.7172 0.29304 0.0
H929 H 0.62684 0.78657 0.23622 0.0
C930 C 0.66286 0.77063 0.22544 0.0
C931 C 0.67956 0.74972 0.22733 0.0
C932 C 0.60301 0.73157 0.28756 0.0
C933 C 0.63221 0.7484 0.25248 0.0
C934 C 0.58052 0.73426 0.30206 0.0
C935 C 0.56267 0.75347 0.29579 0.0
C936 C 0.60764 0.74834 0.26688 0.0
C937 C 0.56756 0.76889 0.27419 0.0
C938 C 0.6392 0.76998 0.23776 0.0
C939 C 0.67168 0.72811 0.24155 0.0
N940 N 0.58958 0.76614 0.26077 0.0
N941 N 0.64861 0.72808 0.25388 0.0
H942 H 0.96547 0.05891 0.98287 0.0
H943 H 0.03217 0.16486 0.89281 0.0
H944 H 0.04824 0.07041 0.97905 0.0
H945 H 0.95095 0.16341 0.91042 0.0
H946 H 0.03817 0.12715 0.92034 0.0
H947 H 0.95963 0.09425 0.95266 0.0
C948 C 0.98245 0.0689 0.9758 0.0
C949 C 0.00741 0.06169 0.98379 0.0
C950 C 0.01903 0.13506 0.91809 0.0
C951 C 0.00079 0.10208 0.94867 0.0
C952 C 0.01556 0.15652 0.90229 0.0
C953 C 0.99102 0.16741 0.89935 0.0
C954 C 0.99777 0.12425 0.93089 0.0
C955 C 0.97024 0.15578 0.91219 0.0
C956 C 0.97908 0.08902 0.95839 0.0
C957 C 0.02863 0.07504 0.97333 0.0
N958 N 0.97409 0.13489 0.92737 0.0
N959 N 0.02484 0.09459 0.95639 0.0
H960 H 0.42088 0.34376 0.31245 0.0
H961 H 0.40974 0.35065 0.15806 0.0
H962 H 0.3568 0.37617 0.26975 0.0
H963 H 0.47431 0.31632 0.19823 0.0
H964 H 0.39323 0.36513 0.19951 0.0
H965 H 0.44387 0.33869 0.27168 0.0
C966 C 0.41179 0.35015 0.29462 0.0
C967 C 0.38673 0.36022 0.2946 0.0
C968 C 0.4111 0.35457 0.19935 0.0
C969 C 0.41292 0.35448 0.24795 0.0
C970 C 0.42052 0.3462 0.17563 0.0
C971 C 0.44328 0.33194 0.17467 0.0
C972 C 0.42434 0.34847 0.22245 0.0
C973 C 0.45659 0.32711 0.19809 0.0
C974 C 0.42494 0.34729 0.27137 0.0
C975 C 0.37613 0.36856 0.27093 0.0
N976 N 0.44676 0.33513 0.2211 0.0
N977 N 0.38914 0.36523 0.24862 0.0
H978 H 0.52222 0.4239 0.93616 0.0
H979 H 0.53449 0.36386 0.0774 0.0
H980 H 0.56288 0.4638 -0.00028 0.0
H981 H 0.47154 0.34549 0.0233 0.0
H982 H 0.5515 0.39538 0.04663 0.0
H983 H 0.50984 0.38962 0.96564 0.0
C984 C 0.52852 0.42553 0.95631 0.0
C985 C 0.54331 0.44705 0.9655 0.0
C986 C 0.53403 0.38432 0.04155 0.0
C987 C 0.52966 0.40746 0.99921 0.0
C988 C 0.52439 0.36631 0.059 0.0
C989 C 0.50148 0.3522 0.05294 0.0
C990 C 0.52089 0.38783 0.01778 0.0
C991 C 0.48912 0.35613 0.02886 0.0
C992 C 0.52155 0.40586 0.97308 0.0
C993 C 0.55158 0.44757 0.99169 0.0
N994 N 0.49901 0.37354 0.01215 0.0
N995 N 0.54457 0.42811 0.00767 0.0
H996 H 0.68018 0.27769 0.22878 0.0
H997 H 0.54532 0.22364 0.16904 0.0
H998 H 0.6558 0.19734 0.23053 0.0
H999 H 0.57542 0.30041 0.15416 0.0
H1000 H 0.58556 0.214 0.19214 0.0
H1001 H 0.64189 0.28682 0.20187 0.0
C1002 C 0.66682 0.26197 0.2234 0.0
C1003 C 0.67116 0.23672 0.23191 0.0
C1004 C 0.58345 0.23292 0.18373 0.0
C1005 C 0.62733 0.24701 0.20125 0.0
C1006 C 0.56042 0.23848 0.17058 0.0
C1007 C 0.55694 0.26291 0.15972 0.0
C1008 C 0.60314 0.252 0.18628 0.0
C1009 C 0.57727 0.28132 0.16224 0.0
C1010 C 0.64504 0.26716 0.20797 0.0
C1011 C 0.65337 0.21702 0.22418 0.0
N1012 N 0.59944 0.27554 0.17541 0.0
N1013 N 0.63216 0.22262 0.20946 0.0
H1014 H 0.42564 0.09075 0.05987 0.0
H1015 H 0.49954 0.2248 0.06975 0.0
H1016 H 0.46576 0.12067 0.99362 0.0
H1017 H 0.41991 0.22041 0.09284 0.0
H1018 H 0.49477 0.18092 0.05075 0.0
H1019 H 0.42961 0.13367 0.0806 0.0
C1020 C 0.43509 0.10617 0.04949 0.0
C1021 C 0.44544 0.10173 0.0248 0.0
C1022 C 0.47848 0.1896 0.0602 0.0
C1023 C 0.45103 0.15046 0.04921 0.0
C1024 C 0.4812 0.21443 0.07115 0.0
C1025 C 0.46003 0.22615 0.08273 0.0
C1026 C 0.45469 0.17622 0.06158 0.0
C1027 C 0.43661 0.21202 0.08391 0.0
C1028 C 0.43752 0.13058 0.06153 0.0
C1029 C 0.45806 0.12265 0.01287 0.0
N1030 N 0.43458 0.18762 0.07358 0.0
N1031 N 0.46077 0.14598 0.02532 0.0
H1032 H 0.26497 0.32045 0.67076 0.0
H1033 H 0.30247 0.42516 0.78205 0.0
H1034 H 0.25004 0.31058 0.75206 0.0
H1035 H 0.32572 0.43368 0.70268 0.0
H1036 H 0.28411 0.38265 0.77094 0.0
H1037 H 0.28844 0.36108 0.68157 0.0
C1038 C 0.26686 0.32665 0.6909 0.0
C1039 C 0.25534 0.31213 0.71053 0.0
C1040 C 0.29329 0.39368 0.7559 0.0
C1041 C 0.28188 0.35876 0.72295 0.0
C1042 C 0.30378 0.41808 0.76222 0.0
C1043 C 0.31555 0.43317 0.74322 0.0
C1044 C 0.29432 0.38414 0.73029 0.0
C1045 C 0.31679 0.42274 0.71793 0.0
C1046 C 0.28015 0.34992 0.69703 0.0
C1047 C 0.25817 0.32132 0.73624 0.0
N1048 N 0.30613 0.39891 0.71214 0.0
N1049 N 0.27102 0.34404 0.74166 0.0
H1050 H 0.20188 0.66707 0.73918 0.0
H1051 H 0.33626 0.59383 0.73023 0.0
H1052 H 0.27527 0.70645 0.75381 0.0
H1053 H 0.2651 0.55688 0.75343 0.0
H1054 H 0.31358 0.63523 0.72733 0.0
H1055 H 0.22457 0.62635 0.73299 0.0
C1056 C 0.22281 0.66717 0.74077 0.0
C1057 C 0.23675 0.69008 0.74712 0.0
C1058 C 0.30295 0.61792 0.73271 0.0
C1059 C 0.26278 0.64368 0.73993 0.0
C1060 C 0.31577 0.59434 0.73413 0.0
C1061 C 0.30249 0.57204 0.74218 0.0
C1062 C 0.27663 0.6189 0.73882 0.0
C1063 C 0.27605 0.57371 0.74731 0.0
C1064 C 0.23571 0.64395 0.73734 0.0
C1065 C 0.26384 0.68911 0.74917 0.0
N1066 N 0.26399 0.59672 0.74555 0.0
N1067 N 0.27602 0.66625 0.74557 0.0
H1068 H 0.8608 0.54468 0.49411 0.0
H1069 H 0.84318 0.39593 0.53266 0.0
H1070 H 0.92326 0.49329 0.51136 0.0
H1071 H 0.77957 0.44186 0.50551 0.0
H1072 H 0.87149 0.43406 0.53168 0.0
H1073 H 0.82965 0.5099 0.50461 0.0
C1074 C 0.86789 0.52622 0.50052 0.0
C1075 C 0.89454 0.52166 0.50168 0.0
C1076 C 0.85131 0.43593 0.52606 0.0
C1077 C 0.85932 0.48203 0.51361 0.0
C1078 C 0.83509 0.41411 0.52663 0.0
C1079 C 0.809 0.41558 0.51883 0.0
C1080 C 0.84155 0.45952 0.51745 0.0
C1081 C 0.7996 0.43981 0.51155 0.0
C1082 C 0.85018 0.50638 0.50636 0.0
C1083 C 0.90284 0.49743 0.50993 0.0
N1084 N 0.81595 0.46081 0.51076 0.0
N1085 N 0.88532 0.47854 0.51545 0.0
H1086 H 0.8066 0.89028 0.83396 0.0
H1087 H 0.65227 0.87679 0.83229 0.0
H1088 H 0.76444 0.81929 0.84889 0.0
H1089 H 0.69333 0.9483 0.81667 0.0
H1090 H 0.69338 0.85647 0.84181 0.0
H1091 H 0.76557 0.91301 0.83139 0.0
C1092 C 0.78873 0.87955 0.83698 0.0
C1093 C 0.78895 0.85282 0.84153 0.0
C1094 C 0.69345 0.87664 0.8364 0.0
C1095 C 0.74198 0.87864 0.8385 0.0
C1096 C 0.66994 0.88826 0.83087 0.0
C1097 C 0.66932 0.91427 0.82347 0.0
C1098 C 0.71663 0.89103 0.83444 0.0
C1099 C 0.69288 0.92817 0.82217 0.0
C1100 C 0.76534 0.89252 0.83552 0.0
C1101 C 0.76527 0.83993 0.8456 0.0
N1102 N 0.7156 0.91633 0.82747 0.0
N1103 N 0.74276 0.85291 0.84376 0.0
H1104 H 0.60312 0.5204 0.97814 0.0
H1105 H 0.73413 0.55916 0.90874 0.0
H1106 H 0.61178 0.51732 0.8951 0.0
H1107 H 0.72063 0.57609 0.98959 0.0
H1108 H 0.68933 0.54405 0.90337 0.0
H1109 H 0.64599 0.541 0.9828 0.0
C1110 C 0.61408 0.52412 0.96088 0.0
C1111 C 0.60402 0.51696 0.9362 0.0
C1112 C 0.69608 0.55123 0.92225 0.0
C1113 C 0.65305 0.54056 0.94138 0.0
C1114 C 0.72172 0.5598 0.92537 0.0
C1115 C 0.73122 0.56876 0.94972 0.0
C1116 C 0.67982 0.55133 0.94367 0.0
C1117 C 0.71415 0.5693 0.97049 0.0
C1118 C 0.63847 0.536 0.96354 0.0
C1119 C 0.61881 0.5226 0.91447 0.0
N1120 N 0.68932 0.56049 0.96704 0.0
N1121 N 0.6427 0.53386 0.91758 0.0
H1122 H 0.21131 0.65859 0.21307 0.0
H1123 H 0.16089 0.577 0.33313 0.0
H1124 H 0.22338 0.68255 0.29317 0.0
H1125 H 0.14529 0.55495 0.25301 0.0
H1126 H 0.18234 0.61664 0.31882 0.0
H1127 H 0.18543 0.62156 0.22722 0.0
C1128 C 0.20831 0.65623 0.23363 0.0
C1129 C 0.21967 0.67369 0.25196 0.0
C1130 C 0.17412 0.60321 0.30436 0.0
C1131 C 0.1903 0.63106 0.26833 0.0
C1132 C 0.16185 0.58054 0.31252 0.0
C1133 C 0.15137 0.56253 0.29425 0.0
C1134 C 0.17605 0.6079 0.2777 0.0
C1135 C 0.15314 0.56823 0.2678 0.0
C1136 C 0.19364 0.63498 0.24171 0.0
C1137 C 0.21538 0.66938 0.27836 0.0
N1138 N 0.16537 0.59034 0.26033 0.0
N1139 N 0.20115 0.64848 0.28574 0.0
H1140 H 0.9637 0.48353 0.06746 0.0
H1141 H 0.84652 0.50628 0.97099 0.0
H1142 H 0.91676 0.42038 0.03463 0.0
H1143 H 0.86745 0.56303 0.03069 0.0
H1144 H 0.87489 0.47539 0.99191 0.0
H1145 H 0.93097 0.51387 0.05289 0.0
C1146 C 0.94641 0.47592 0.05756 0.0
C1147 C 0.94322 0.44924 0.05207 0.0
C1148 C 0.87315 0.49453 0.00057 0.0
C1149 C 0.90607 0.48407 0.03479 0.0
C1150 C 0.85709 0.51223 0.98856 0.0
C1151 C 0.85475 0.53729 0.99907 0.0
C1152 C 0.88745 0.50205 0.02299 0.0
C1153 C 0.86872 0.54387 0.022 0.0
C1154 C 0.9278 0.49333 0.04916 0.0
C1155 C 0.92049 0.44075 0.03875 0.0
N1156 N 0.8848 0.52643 0.03306 0.0
N1157 N 0.90299 0.45812 0.0303 0.0
H1158 H 0.08555 0.01467 0.00618 0.0
H1159 H 0.13149 0.86791 0.01882 0.0
H1160 H 0.03483 0.95122 0.02666 0.0
H1161 H 0.18324 0.9319 0.00241 0.0
H1162 H 0.09561 0.89792 0.02035 0.0
H1163 H 0.1212 0.98445 0.00303 0.0
C1164 C 0.08185 0.99436 0.00985 0.0
C1165 C 0.0571 0.98552 0.01674 0.0
C1166 C 0.1148 0.90541 0.01639 0.0
C1167 C 0.09799 0.95078 0.0134 0.0
C1168 C 0.13533 0.88826 0.01549 0.0
C1169 C 0.16049 0.89735 0.01051 0.0
C1170 C 0.11936 0.93192 0.01223 0.0
C1171 C 0.16421 0.92398 0.00635 0.0
C1172 C 0.10227 0.97712 0.0082 0.0
C1173 C 0.05361 0.959 0.02163 0.0
N1174 N 0.14391 0.94029 0.00731 0.0
N1175 N 0.07378 0.94261 0.01986 0.0
loop_
_geom_bond_atom_site_label_1
_geom_bond_atom_site_label_2
_geom_bond_distance
_geom_bond_site_symmetry_2
_ccdc_geom_bond_type
H0 C3 0.931 . S
H1 C6 0.928 . S
H2 C8 0.930 . S
C3 H0 0.931 . S
C3 C4 1.413 . S
C3 C5 1.360 . S
C4 C3 1.413 . S
C4 C8 1.429 . S
C5 C3 1.360 . S
C5 C6 1.372 . S
C6 H1 0.928 . S
C6 C5 1.372 . S
C6 C7 1.404 . S
C7 C6 1.404 . S
C7 C8 1.391 . S
C8 H2 0.930 . S
C8 C4 1.429 . S
C8 C7 1.391 . S
H9 C12 0.931 . S
H10 C15 0.928 . S
H11 C17 0.930 . S
C12 H9 0.931 . S
C12 C13 1.413 . S
C12 C14 1.360 . S
C13 C12 1.413 . S
C13 C17 1.429 . S
C14 C12 1.360 . S
C14 C15 1.372 . S
C15 H10 0.928 . S
C15 C14 1.372 . S
C15 C16 1.404 . S
C16 C15 1.404 . S
C16 C17 1.391 . S
C17 H11 0.930 . S
C17 C13 1.429 . S
C17 C16 1.391 . S
H18 C21 0.931 . S
H19 C24 0.928 . S
H20 C26 0.930 . S
C21 H18 0.931 . S
C21 C22 1.413 . S
C21 C23 1.360 . S
C22 C21 1.413 . S
C22 C26 1.429 . S
C23 C21 1.360 . S
C23 C24 1.372 . S
C24 H19 0.928 . S
C24 C23 1.372 . S
C24 C25 1.404 . S
C25 C24 1.404 . S
C25 C26 1.391 . S
C26 H20 0.930 . S
C26 C22 1.429 . S
C26 C25 1.391 . S
H27 C30 0.931 . S
H28 C33 0.928 . S
H29 C35 0.930 . S
C30 H27 0.931 . S
C30 C31 1.413 . S
C30 C32 1.360 . S
C31 C30 1.413 . S
C31 C35 1.429 . S
C32 C30 1.360 . S
C32 C33 1.372 . S
C33 H28 0.928 . S
C33 C32 1.372 . S
C33 C34 1.404 . S
C34 C33 1.404 . S
C34 C35 1.391 . S
C35 H29 0.930 . S
C35 C31 1.429 . S
C35 C34 1.391 . S
H36 C39 0.931 . S
H37 C42 0.928 . S
H38 C44 0.930 . S
C39 H36 0.931 . S
C39 C40 1.413 . S
C39 C41 1.360 . S
C40 C39 1.413 . S
C40 C44 1.429 . S
C41 C39 1.360 . S
C41 C42 1.372 . S
C42 H37 0.928 . S
C42 C41 1.372 . S
C42 C43 1.404 . S
C43 C42 1.404 . S
C43 C44 1.391 . S
C44 H38 0.930 . S
C44 C40 1.429 . S
C44 C43 1.391 . S
H45 C48 0.931 . S
H46 C51 0.928 . S
H47 C53 0.930 . S
C48 H45 0.931 . S
C48 C49 1.413 . S
C48 C50 1.360 . S
C49 C48 1.413 . S
C49 C53 1.429 . S
C50 C48 1.360 . S
C50 C51 1.372 . S
C51 H46 0.928 . S
C51 C50 1.372 . S
C51 C52 1.404 . S
C52 C51 1.404 . S
C52 C53 1.391 . S
C53 H47 0.930 . S
C53 C49 1.429 . S
C53 C52 1.391 . S
H54 C57 0.931 . S
H55 C60 0.928 . S
H56 C62 0.930 . S
C57 H54 0.931 . S
C57 C58 1.413 . S
C57 C59 1.360 . S
C58 C57 1.413 . S
C58 C62 1.429 . S
C59 C57 1.360 . S
C59 C60 1.372 . S
C60 H55 0.928 . S
C60 C59 1.372 . S
C60 C61 1.404 . S
C61 C60 1.404 . S
C61 C62 1.391 . S
C62 H56 0.930 . S
C62 C58 1.429 . S
C62 C61 1.391 . S
H63 C66 0.931 . S
H64 C69 0.928 . S
H65 C71 0.930 . S
C66 H63 0.931 . S
C66 C67 1.413 . S
C66 C68 1.360 . S
C67 C66 1.413 . S
C67 C71 1.429 . S
C68 C66 1.360 . S
C68 C69 1.372 . S
C69 H64 0.928 . S
C69 C68 1.372 . S
C69 C70 1.404 . S
C70 C69 1.404 . S
C70 C71 1.391 . S
C71 H65 0.930 . S
C71 C67 1.429 . S
C71 C70 1.391 . S
H72 C75 0.931 . S
H73 C78 0.928 . S
H74 C80 0.930 . S
C75 H72 0.931 . S
C75 C76 1.413 . S
C75 C77 1.360 . S
C76 C75 1.413 . S
C76 C80 1.429 . S
C77 C75 1.360 . S
C77 C78 1.372 . S
C78 H73 0.928 . S
C78 C77 1.372 . S
C78 C79 1.404 . S
C79 C78 1.404 . S
C79 C80 1.391 . S
C80 H74 0.930 . S
C80 C76 1.429 . S
C80 C79 1.391 . S
H81 C84 0.931 . S
H82 C87 0.928 . S
H83 C89 0.930 . S
C84 H81 0.931 . S
C84 C85 1.413 . S
C84 C86 1.360 . S
C85 C84 1.413 . S
C85 C89 1.429 . S
C86 C84 1.360 . S
C86 C87 1.372 . S
C87 H82 0.928 . S
C87 C86 1.372 . S
C87 C88 1.404 . S
C88 C87 1.404 . S
C88 C89 1.391 . S
C89 H83 0.930 . S
C89 C85 1.429 . S
C89 C88 1.391 . S
H90 C93 0.931 . S
H91 C96 0.928 . S
H92 C98 0.930 . S
C93 H90 0.931 . S
C93 C94 1.413 . S
C93 C95 1.360 . S
C94 C93 1.413 . S
C94 C98 1.429 . S
C95 C93 1.360 . S
C95 C96 1.372 . S
C96 H91 0.928 . S
C96 C95 1.372 . S
C96 C97 1.404 . S
C97 C96 1.404 . S
C97 C98 1.391 . S
C98 H92 0.930 . S
C98 C94 1.429 . S
C98 C97 1.391 . S
H99 C102 0.931 . S
H100 C105 0.928 . S
H101 C107 0.930 . S
C102 H99 0.931 . S
C102 C103 1.413 . S
C102 C104 1.360 . S
C103 C102 1.413 . S
C103 C107 1.429 . S
C104 C102 1.360 . S
C104 C105 1.372 . S
C105 H100 0.928 . S
C105 C104 1.372 . S
C105 C106 1.404 . S
C106 C105 1.404 . S
C106 C107 1.391 . S
C107 H101 0.930 . S
C107 C103 1.429 . S
C107 C106 1.391 . S
H108 C111 0.931 . S
H109 C114 0.928 . S
H110 C116 0.930 . S
C111 H108 0.931 . S
C111 C112 1.413 . S
C111 C113 1.360 . S
C112 C111 1.413 . S
C112 C116 1.429 . S
C113 C111 1.360 . S
C113 C114 1.372 . S
C114 H109 0.928 . S
C114 C113 1.372 . S
C114 C115 1.404 . S
C115 C114 1.404 . S
C115 C116 1.391 . S
C116 H110 0.930 . S
C116 C112 1.429 . S
C116 C115 1.391 . S
H117 C120 0.931 . S
H118 C123 0.928 . S
H119 C125 0.930 . S
C120 H117 0.931 . S
C120 C121 1.413 . S
C120 C122 1.360 . S
C121 C120 1.413 . S
C121 C125 1.429 . S
C122 C120 1.360 . S
C122 C123 1.372 . S
C123 H118 0.928 . S
C123 C122 1.372 . S
C123 C124 1.404 . S
C124 C123 1.404 . S
C124 C125 1.391 . S
C125 H119 0.930 . S
C125 C121 1.429 . S
C125 C124 1.391 . S
H126 C129 0.931 . S
H127 C132 0.928 . S
H128 C134 0.930 . S
C129 H126 0.931 . S
C129 C130 1.413 . S
C129 C131 1.360 . S
C130 C129 1.413 . S
C130 C134 1.429 . S
C131 C129 1.360 . S
C131 C132 1.372 . S
C132 H127 0.928 . S
C132 C131 1.372 . S
C132 C133 1.404 . S
C133 C132 1.404 . S
C133 C134 1.391 . S
C134 H128 0.930 . S
C134 C130 1.429 . S
C134 C133 1.391 . S
H135 C138 0.931 . S
H136 C141 0.928 . S
H137 C143 0.930 . S
C138 H135 0.931 . S
C138 C139 1.413 . S
C138 C140 1.360 . S
C139 C138 1.413 . S
C139 C143 1.429 . S
C140 C138 1.360 . S
C140 C141 1.372 . S
C141 H136 0.928 . S
C141 C140 1.372 . S
C141 C142 1.404 . S
C142 C141 1.404 . S
C142 C143 1.391 . S
C143 H137 0.930 . S
C143 C139 1.429 . S
C143 C142 1.391 . S
Zn144 O147 2.031 1_556 S
Zn144 O149 2.049 . S
Zn144 O154 2.067 . S
Zn145 O146 1.962 . S
Zn145 O148 1.986 . S
Zn145 O150 1.996 . S
Zn145 O153 1.943 1_554 S
O146 Zn145 1.962 . S
O146 C151 1.254 . S
O147 Zn144 2.031 1_554 S
O147 C151 1.269 . S
O148 Zn145 1.986 . S
O148 C155 1.262 . S
O149 Zn144 2.049 . S
O149 C157 1.260 . S
O150 Zn145 1.996 . S
O150 C157 1.257 1_554 S
C151 O146 1.254 . S
C151 O147 1.269 . S
C152 O153 1.249 . S
C152 O154 1.270 . S
O153 Zn145 1.943 1_556 S
O153 C152 1.249 . S
O154 Zn144 2.067 . S
O154 C152 1.270 . S
C155 O148 1.262 . S
C155 O156 1.232 . S
O156 C155 1.232 . S
C157 O149 1.260 . S
C157 O150 1.257 1_556 S
Zn158 O161 2.031 . S
Zn158 O163 2.049 . S
Zn158 O168 2.067 . S
Zn159 O160 1.962 . S
Zn159 O162 1.986 . S
Zn159 O164 1.996 . S
Zn159 O167 1.943 . S
O160 Zn159 1.962 . S
O160 C165 1.254 . S
O161 Zn158 2.031 . S
O161 C165 1.269 . S
O162 Zn159 1.986 . S
O162 C169 1.262 . S
O163 Zn158 2.049 . S
O163 C171 1.260 . S
O164 Zn159 1.996 . S
O164 C171 1.257 . S
C165 O160 1.254 . S
C165 O161 1.269 . S
C166 O167 1.249 . S
C166 O168 1.270 . S
O167 Zn159 1.943 . S
O167 C166 1.249 . S
O168 Zn158 2.067 . S
O168 C166 1.270 . S
C169 O162 1.262 . S
C169 O170 1.232 . S
O170 C169 1.232 . S
C171 O163 1.260 . S
C171 O164 1.257 . S
Zn172 O175 2.031 . S
Zn172 O177 2.049 . S
Zn172 O182 2.067 . S
Zn173 O174 1.962 . S
Zn173 O176 1.986 . S
Zn173 O178 1.996 1_554 S
Zn173 O181 1.943 . S
O174 Zn173 1.962 . S
O174 C179 1.254 . S
O175 Zn172 2.031 . S
O175 C179 1.269 1_556 S
O176 Zn173 1.986 . S
O176 C183 1.262 . S
O177 Zn172 2.049 . S
O177 C185 1.260 . S
O178 Zn173 1.996 1_556 S
O178 C185 1.257 . S
C179 O174 1.254 . S
C179 O175 1.269 1_554 S
C180 O181 1.249 1_556 S
C180 O182 1.270 . S
O181 Zn173 1.943 . S
O181 C180 1.249 1_554 S
O182 Zn172 2.067 . S
O182 C180 1.270 . S
C183 O176 1.262 . S
C183 O184 1.232 . S
O184 C183 1.232 . S
C185 O177 1.260 . S
C185 O178 1.257 . S
Zn186 O189 2.027 1_565 S
Zn186 O191 2.052 . S
Zn186 O196 2.073 . S
Zn187 O188 1.962 . S
Zn187 O190 1.986 . S
Zn187 O192 1.996 . S
Zn187 O195 1.943 1_545 S
O188 Zn187 1.962 . S
O188 C193 1.254 . S
O189 Zn186 2.027 1_545 S
O189 C193 1.269 . S
O190 Zn187 1.986 . S
O190 C197 1.262 . S
O191 Zn186 2.052 . S
O191 C199 1.260 . S
O192 Zn187 1.996 . S
O192 C199 1.257 1_545 S
C193 O188 1.254 . S
C193 O189 1.269 . S
C194 O195 1.249 . S
C194 O196 1.270 . S
O195 Zn187 1.943 1_565 S
O195 C194 1.249 . S
O196 Zn186 2.073 . S
O196 C194 1.270 . S
C197 O190 1.262 . S
C197 O198 1.232 . S
O198 C197 1.232 . S
C199 O191 1.260 . S
C199 O192 1.257 1_565 S
Zn200 O203 2.031 . S
Zn200 O205 2.049 . S
Zn200 O210 2.067 . S
Zn201 O202 1.962 . S
Zn201 O204 1.986 . S
Zn201 O206 1.996 . S
Zn201 O209 1.943 . S
O202 Zn201 1.962 . S
O202 C207 1.254 . S
O203 Zn200 2.031 . S
O203 C207 1.269 . S
O204 Zn201 1.986 . S
O204 C211 1.262 . S
O205 Zn200 2.049 . S
O205 C213 1.260 . S
O206 Zn201 1.996 . S
O206 C213 1.257 . S
C207 O202 1.254 . S
C207 O203 1.269 . S
C208 O209 1.249 . S
C208 O210 1.270 . S
O209 Zn201 1.943 . S
O209 C208 1.249 . S
O210 Zn200 2.067 . S
O210 C208 1.270 . S
C211 O204 1.262 . S
C211 O212 1.232 . S
O212 C211 1.232 . S
C213 O205 1.260 . S
C213 O206 1.257 . S
Zn214 O217 2.031 . S
Zn214 O219 2.049 . S
Zn214 O224 2.067 . S
Zn215 O216 1.962 . S
Zn215 O218 1.986 . S
Zn215 O220 1.996 . S
Zn215 O223 1.943 . S
O216 Zn215 1.962 . S
O216 C221 1.254 . S
O217 Zn214 2.031 . S
O217 C221 1.269 . S
O218 Zn215 1.986 . S
O218 C225 1.262 . S
O219 Zn214 2.049 . S
O219 C227 1.260 . S
O220 Zn215 1.996 . S
O220 C227 1.257 . S
C221 O216 1.254 . S
C221 O217 1.269 . S
C222 O223 1.249 . S
C222 O224 1.270 . S
O223 Zn215 1.943 . S
O223 C222 1.249 . S
O224 Zn214 2.067 . S
O224 C222 1.270 . S
C225 O218 1.262 . S
C225 O226 1.232 . S
O226 C225 1.232 . S
C227 O219 1.260 . S
C227 O220 1.257 . S
Zn228 O231 2.031 . S
Zn228 O233 2.049 . S
Zn228 O238 2.067 . S
Zn229 O230 1.962 . S
Zn229 O232 1.986 . S
Zn229 O234 1.996 . S
Zn229 O237 1.943 . S
O230 Zn229 1.962 . S
O230 C235 1.254 . S
O231 Zn228 2.031 . S
O231 C235 1.269 . S
O232 Zn229 1.986 . S
O232 C239 1.262 . S
O233 Zn228 2.049 . S
O233 C241 1.260 . S
O234 Zn229 1.996 . S
O234 C241 1.257 . S
C235 O230 1.254 . S
C235 O231 1.269 . S
C236 O237 1.249 . S
C236 O238 1.270 . S
O237 Zn229 1.943 . S
O237 C236 1.249 . S
O238 Zn228 2.067 . S
O238 C236 1.270 . S
C239 O232 1.262 . S
C239 O240 1.232 . S
O240 C239 1.232 . S
C241 O233 1.260 . S
C241 O234 1.257 . S
Zn242 O245 2.031 . S
Zn242 O247 2.049 . S
Zn242 O252 2.067 . S
Zn243 O244 1.962 . S
Zn243 O246 1.986 . S
Zn243 O248 1.996 1_545 S
Zn243 O251 1.943 . S
O244 Zn243 1.962 . S
O244 C249 1.254 . S
O245 Zn242 2.031 . S
O245 C249 1.269 1_565 S
O246 Zn243 1.986 . S
O246 C253 1.262 . S
O247 Zn242 2.049 . S
O247 C255 1.260 . S
O248 Zn243 1.996 1_565 S
O248 C255 1.257 . S
C249 O244 1.254 . S
C249 O245 1.269 1_545 S
C250 O251 1.249 1_565 S
C250 O252 1.270 . S
O251 Zn243 1.943 . S
O251 C250 1.249 1_545 S
O252 Zn242 2.067 . S
O252 C250 1.270 . S
C253 O246 1.262 . S
C253 O254 1.232 . S
O254 C253 1.232 . S
C255 O247 1.260 . S
C255 O248 1.257 . S
Zn256 O259 2.019 1_655 S
Zn256 O261 2.058 . S
Zn256 O266 2.084 . S
Zn257 O258 1.962 . S
Zn257 O260 1.986 . S
Zn257 O262 1.996 . S
Zn257 O265 1.943 1_455 S
O258 Zn257 1.962 . S
O258 C263 1.254 . S
O259 Zn256 2.019 1_455 S
O259 C263 1.269 . S
O260 Zn257 1.986 . S
O260 C267 1.262 . S
O261 Zn256 2.058 . S
O261 C269 1.260 . S
O262 Zn257 1.996 . S
O262 C269 1.257 1_455 S
C263 O258 1.254 . S
C263 O259 1.269 . S
C264 O265 1.249 . S
C264 O266 1.270 . S
O265 Zn257 1.943 1_655 S
O265 C264 1.249 . S
O266 Zn256 2.084 . S
O266 C264 1.270 . S
C267 O260 1.262 . S
C267 O268 1.232 . S
O268 C267 1.232 . S
C269 O261 1.260 . S
C269 O262 1.257 1_655 S
Zn270 O273 2.031 . S
Zn270 O275 2.049 . S
Zn270 O280 2.067 . S
Zn271 O272 1.962 . S
Zn271 O274 1.986 . S
Zn271 O276 1.996 . S
Zn271 O279 1.943 . S
O272 Zn271 1.962 . S
O272 C277 1.254 . S
O273 Zn270 2.031 . S
O273 C277 1.269 . S
O274 Zn271 1.986 . S
O274 C281 1.262 . S
O275 Zn270 2.049 . S
O275 C283 1.260 . S
O276 Zn271 1.996 . S
O276 C283 1.257 . S
C277 O272 1.254 . S
C277 O273 1.269 . S
C278 O279 1.249 . S
C278 O280 1.270 . S
O279 Zn271 1.943 . S
O279 C278 1.249 . S
O280 Zn270 2.067 . S
O280 C278 1.270 . S
C281 O274 1.262 . S
C281 O282 1.232 . S
O282 C281 1.232 . S
C283 O275 1.260 . S
C283 O276 1.257 . S
Zn284 O287 2.031 . S
Zn284 O289 2.049 . S
Zn284 O294 2.067 . S
Zn285 O286 1.962 . S
Zn285 O288 1.986 . S
Zn285 O290 1.996 1_455 S
Zn285 O293 1.943 . S
O286 Zn285 1.962 . S
O286 C291 1.254 . S
O287 Zn284 2.031 . S
O287 C291 1.269 1_655 S
O288 Zn285 1.986 . S
O288 C295 1.262 . S
O289 Zn284 2.049 . S
O289 C297 1.260 . S
O290 Zn285 1.996 1_655 S
O290 C297 1.257 . S
C291 O286 1.254 . S
C291 O287 1.269 1_455 S
C292 O293 1.249 1_655 S
C292 O294 1.270 . S
O293 Zn285 1.943 . S
O293 C292 1.249 1_455 S
O294 Zn284 2.067 . S
O294 C292 1.270 . S
C295 O288 1.262 . S
C295 O296 1.232 . S
O296 C295 1.232 . S
C297 O289 1.260 . S
C297 O290 1.257 . S
Zn298 O301 2.031 . S
Zn298 O303 2.049 . S
Zn298 O308 2.067 . S
Zn299 O300 1.962 . S
Zn299 O302 1.986 . S
Zn299 O304 1.996 . S
Zn299 O307 1.943 . S
O300 Zn299 1.962 . S
O300 C305 1.254 . S
O301 Zn298 2.031 . S
O301 C305 1.269 . S
O302 Zn299 1.986 . S
O302 C309 1.262 . S
O303 Zn298 2.049 . S
O303 C311 1.260 . S
O304 Zn299 1.996 . S
O304 C311 1.257 . S
C305 O300 1.254 . S
C305 O301 1.269 . S
C306 O307 1.249 . S
C306 O308 1.270 . S
O307 Zn299 1.943 . S
O307 C306 1.249 . S
O308 Zn298 2.067 . S
O308 C306 1.270 . S
C309 O302 1.262 . S
C309 O310 1.232 . S
O310 C309 1.232 . S
C311 O303 1.260 . S
C311 O304 1.257 . S
H312 C318 0.930 . S
H313 C322 0.930 . S
H314 C327 0.929 . S
H315 C325 0.929 . S
H316 C320 0.929 . S
H317 C326 0.929 . S
C318 H312 0.930 . S
C318 C319 1.367 . S
C318 C326 1.378 . S
C319 C318 1.367 . S
C319 C327 1.433 . S
C320 H316 0.929 . S
C320 C322 1.378 . S
C320 C324 1.350 . S
C321 C324 1.463 . S
C321 C326 1.350 . S
C321 N329 1.427 . S
C322 H313 0.930 . S
C322 C320 1.378 . S
C322 C323 1.367 . S
C323 C322 1.367 . S
C323 C325 1.433 . S
C324 C320 1.350 . S
C324 C321 1.463 . S
C324 N328 1.427 . S
C325 H315 0.929 . S
C325 C323 1.433 . S
C325 N328 1.384 . S
C326 H317 0.929 . S
C326 C318 1.378 . S
C326 C321 1.350 . S
C327 H314 0.929 . S
C327 C319 1.433 . S
C327 N329 1.384 . S
N328 C324 1.427 . S
N328 C325 1.384 . S
N329 C321 1.427 . S
N329 C327 1.384 . S
H330 C336 0.930 . S
H331 C340 0.930 . S
H332 C345 0.929 . S
H333 C343 0.929 . S
H334 C338 0.929 . S
H335 C344 0.929 . S
C336 H330 0.930 . S
C336 C337 1.367 . S
C336 C344 1.378 1_655 S
C337 C336 1.367 . S
C337 C345 1.433 1_655 S
C338 H334 0.929 . S
C338 C340 1.378 . S
C338 C342 1.350 . S
C339 C342 1.463 . S
C339 C344 1.350 . S
C339 N347 1.427 . S
C340 H331 0.930 . S
C340 C338 1.378 . S
C340 C341 1.367 . S
C341 C340 1.367 . S
C341 C343 1.433 . S
C342 C338 1.350 . S
C342 C339 1.463 . S
C342 N346 1.427 . S
C343 H333 0.929 . S
C343 C341 1.433 . S
C343 N346 1.384 . S
C344 H335 0.929 . S
C344 C336 1.378 1_455 S
C344 C339 1.350 . S
C345 H332 0.929 . S
C345 C337 1.433 1_455 S
C345 N347 1.384 . S
N346 C342 1.427 . S
N346 C343 1.384 . S
N347 C339 1.427 . S
N347 C345 1.384 . S
H348 C354 0.930 . S
H349 C358 0.930 . S
H350 C363 0.929 . S
H351 C361 0.929 . S
H352 C356 0.929 . S
H353 C362 0.929 . S
C354 H348 0.930 . S
C354 C355 1.367 . S
C354 C362 1.378 . S
C355 C354 1.367 . S
C355 C363 1.433 . S
C356 H352 0.929 . S
C356 C358 1.378 . S
C356 C360 1.350 . S
C357 C360 1.463 . S
C357 C362 1.350 . S
C357 N365 1.427 . S
C358 H349 0.930 . S
C358 C356 1.378 . S
C358 C359 1.367 . S
C359 C358 1.367 . S
C359 C361 1.433 . S
C360 C356 1.350 . S
C360 C357 1.463 . S
C360 N364 1.427 . S
C361 H351 0.929 . S
C361 C359 1.433 . S
C361 N364 1.384 . S
C362 H353 0.929 . S
C362 C354 1.378 . S
C362 C357 1.350 . S
C363 H350 0.929 . S
C363 C355 1.433 . S
C363 N365 1.384 . S
N364 C360 1.427 . S
N364 C361 1.384 . S
N365 C357 1.427 . S
N365 C363 1.384 . S
H366 C372 0.930 . S
H367 C376 0.930 . S
H368 C381 0.929 . S
H369 C379 0.929 . S
H370 C374 0.929 . S
H371 C380 0.929 1_545 S
C372 H366 0.930 . S
C372 C373 1.367 . S
C372 C380 1.378 1_455 S
C373 C372 1.367 . S
C373 C381 1.433 . S
C374 H370 0.929 . S
C374 C376 1.378 . S
C374 C378 1.350 . S
C375 C378 1.463 . S
C375 C380 1.350 . S
C375 N383 1.427 . S
C376 H367 0.930 . S
C376 C374 1.378 . S
C376 C377 1.367 . S
C377 C376 1.367 . S
C377 C379 1.433 1_565 S
C378 C374 1.350 . S
C378 C375 1.463 . S
C378 N382 1.387 1_565 S
C379 H369 0.929 . S
C379 C377 1.433 1_545 S
C379 N382 1.394 . S
C380 H371 0.929 1_565 S
C380 C372 1.378 1_655 S
C380 C375 1.350 . S
C381 H368 0.929 . S
C381 C373 1.433 . S
C381 N383 1.384 1_455 S
N382 C378 1.387 1_545 S
N382 C379 1.394 . S
N383 C375 1.427 . S
N383 C381 1.384 1_655 S
H384 C390 0.930 . S
H385 C394 0.930 . S
H386 C399 0.929 . S
H387 C397 0.929 . S
H388 C392 0.929 . S
H389 C398 0.929 . S
C390 H384 0.930 . S
C390 C391 1.367 . S
C390 C398 1.378 . S
C391 C390 1.367 . S
C391 C399 1.433 . S
C392 H388 0.929 . S
C392 C394 1.378 . S
C392 C396 1.350 . S
C393 C396 1.463 . S
C393 C398 1.350 . S
C393 N401 1.427 . S
C394 H385 0.930 . S
C394 C392 1.378 . S
C394 C395 1.367 . S
C395 C394 1.367 . S
C395 C397 1.433 . S
C396 C392 1.350 . S
C396 C393 1.463 . S
C396 N400 1.427 . S
C397 H387 0.929 . S
C397 C395 1.433 . S
C397 N400 1.384 . S
C398 H389 0.929 . S
C398 C390 1.378 . S
C398 C393 1.350 . S
C399 H386 0.929 . S
C399 C391 1.433 . S
C399 N401 1.384 . S
N400 C396 1.427 . S
N400 C397 1.384 . S
N401 C393 1.427 . S
N401 C399 1.384 . S
H402 C408 0.930 . S
H403 C412 0.930 . S
H404 C417 0.929 . S
H405 C415 0.929 . S
H406 C410 0.929 . S
H407 C416 0.929 . S
C408 H402 0.930 . S
C408 C409 1.367 . S
C408 C416 1.378 . S
C409 C408 1.367 . S
C409 C417 1.433 . S
C410 H406 0.929 . S
C410 C412 1.378 . S
C410 C414 1.350 . S
C411 C414 1.463 . S
C411 C416 1.350 . S
C411 N419 1.427 . S
C412 H403 0.930 . S
C412 C410 1.378 . S
C412 C413 1.367 . S
C413 C412 1.367 . S
C413 C415 1.433 . S
C414 C410 1.350 . S
C414 C411 1.463 . S
C414 N418 1.427 . S
C415 H405 0.929 . S
C415 C413 1.433 . S
C415 N418 1.384 . S
C416 H407 0.929 . S
C416 C408 1.378 . S
C416 C411 1.350 . S
C417 H404 0.929 . S
C417 C409 1.433 . S
C417 N419 1.384 . S
N418 C414 1.427 . S
N418 C415 1.384 . S
N419 C411 1.427 . S
N419 C417 1.384 . S
H420 C426 0.930 . S
H421 C430 0.930 . S
H422 C435 0.929 . S
H423 C433 0.929 . S
H424 C428 0.929 . S
H425 C434 0.929 . S
C426 H420 0.930 . S
C426 C427 1.367 . S
C426 C434 1.378 . S
C427 C426 1.367 . S
C427 C435 1.433 . S
C428 H424 0.929 . S
C428 C430 1.378 . S
C428 C432 1.350 . S
C429 C432 1.463 . S
C429 C434 1.350 . S
C429 N437 1.427 . S
C430 H421 0.930 . S
C430 C428 1.378 . S
C430 C431 1.367 . S
C431 C430 1.367 . S
C431 C433 1.433 . S
C432 C428 1.350 . S
C432 C429 1.463 . S
C432 N436 1.427 . S
C433 H423 0.929 . S
C433 C431 1.433 . S
C433 N436 1.384 . S
C434 H425 0.929 . S
C434 C426 1.378 . S
C434 C429 1.350 . S
C435 H422 0.929 . S
C435 C427 1.433 . S
C435 N437 1.384 . S
N436 C432 1.427 . S
N436 C433 1.384 . S
N437 C429 1.427 . S
N437 C435 1.384 . S
H438 C444 0.930 . S
H439 C448 0.930 . S
H440 C453 0.929 . S
H441 C451 0.929 . S
H442 C446 0.929 . S
H443 C452 0.929 1_545 S
C444 H438 0.930 . S
C444 C445 1.367 . S
C444 C452 1.378 . S
C445 C444 1.367 . S
C445 C453 1.433 . S
C446 H442 0.929 . S
C446 C448 1.378 . S
C446 C450 1.350 . S
C447 C450 1.463 . S
C447 C452 1.350 . S
C447 N455 1.427 . S
C448 H439 0.930 . S
C448 C446 1.378 . S
C448 C449 1.367 . S
C449 C448 1.367 . S
C449 C451 1.433 1_565 S
C450 C446 1.350 . S
C450 C447 1.463 . S
C450 N454 1.434 . S
C451 H441 0.929 . S
C451 C449 1.433 1_545 S
C451 N454 1.382 1_545 S
C452 H443 0.929 1_565 S
C452 C444 1.378 . S
C452 C447 1.350 . S
C453 H440 0.929 . S
C453 C445 1.433 . S
C453 N455 1.384 . S
N454 C450 1.434 . S
N454 C451 1.382 1_565 S
N455 C447 1.427 . S
N455 C453 1.384 . S
H456 C462 0.930 . S
H457 C466 0.930 . S
H458 C471 0.929 . S
H459 C469 0.929 . S
H460 C464 0.929 . S
H461 C470 0.929 . S
C462 H456 0.930 . S
C462 C463 1.367 . S
C462 C470 1.378 . S
C463 C462 1.367 . S
C463 C471 1.433 . S
C464 H460 0.929 . S
C464 C466 1.378 . S
C464 C468 1.350 . S
C465 C468 1.463 . S
C465 C470 1.350 . S
C465 N473 1.427 . S
C466 H457 0.930 . S
C466 C464 1.378 . S
C466 C467 1.367 . S
C467 C466 1.367 . S
C467 C469 1.433 . S
C468 C464 1.350 . S
C468 C465 1.463 . S
C468 N472 1.427 . S
C469 H459 0.929 . S
C469 C467 1.433 . S
C469 N472 1.384 . S
C470 H461 0.929 . S
C470 C462 1.378 . S
C470 C465 1.350 . S
C471 H458 0.929 . S
C471 C463 1.433 . S
C471 N473 1.384 . S
N472 C468 1.427 . S
N472 C469 1.384 . S
N473 C465 1.427 . S
N473 C471 1.384 . S
H474 C480 0.930 . S
H475 C484 0.930 . S
H476 C489 0.929 . S
H477 C487 0.929 . S
H478 C482 0.929 . S
H479 C488 0.929 . S
C480 H474 0.930 . S
C480 C481 1.367 . S
C480 C488 1.378 . S
C481 C480 1.367 . S
C481 C489 1.433 . S
C482 H478 0.929 . S
C482 C484 1.378 . S
C482 C486 1.350 . S
C483 C486 1.463 . S
C483 C488 1.350 . S
C483 N491 1.427 . S
C484 H475 0.930 . S
C484 C482 1.378 . S
C484 C485 1.367 . S
C485 C484 1.367 . S
C485 C487 1.433 . S
C486 C482 1.350 . S
C486 C483 1.463 . S
C486 N490 1.427 . S
C487 H477 0.929 . S
C487 C485 1.433 . S
C487 N490 1.384 . S
C488 H479 0.929 . S
C488 C480 1.378 . S
C488 C483 1.350 . S
C489 H476 0.929 . S
C489 C481 1.433 . S
C489 N491 1.384 . S
N490 C486 1.427 . S
N490 C487 1.384 . S
N491 C483 1.427 . S
N491 C489 1.384 . S
H492 C498 0.930 . S
H493 C502 0.930 . S
H494 C507 0.929 . S
H495 C505 0.929 . S
H496 C500 0.929 . S
H497 C506 0.929 . S
C498 H492 0.930 . S
C498 C499 1.367 . S
C498 C506 1.378 . S
C499 C498 1.367 . S
C499 C507 1.433 . S
C500 H496 0.929 . S
C500 C502 1.378 . S
C500 C504 1.350 . S
C501 C504 1.463 . S
C501 C506 1.350 . S
C501 N509 1.427 . S
C502 H493 0.930 . S
C502 C500 1.378 . S
C502 C503 1.367 . S
C503 C502 1.367 . S
C503 C505 1.433 . S
C504 C500 1.350 . S
C504 C501 1.463 . S
C504 N508 1.427 . S
C505 H495 0.929 . S
C505 C503 1.433 . S
C505 N508 1.384 . S
C506 H497 0.929 . S
C506 C498 1.378 . S
C506 C501 1.350 . S
C507 H494 0.929 . S
C507 C499 1.433 . S
C507 N509 1.384 . S
N508 C504 1.427 . S
N508 C505 1.384 . S
N509 C501 1.427 . S
N509 C507 1.384 . S
H510 C516 0.930 . S
H511 C520 0.930 . S
H512 C525 0.929 . S
H513 C523 0.929 . S
H514 C518 0.929 . S
H515 C524 0.929 . S
C516 H510 0.930 . S
C516 C517 1.367 . S
C516 C524 1.378 . S
C517 C516 1.367 . S
C517 C525 1.433 . S
C518 H514 0.929 . S
C518 C520 1.378 . S
C518 C522 1.350 . S
C519 C522 1.463 . S
C519 C524 1.350 . S
C519 N527 1.427 . S
C520 H511 0.930 . S
C520 C518 1.378 . S
C520 C521 1.367 . S
C521 C520 1.367 . S
C521 C523 1.433 . S
C522 C518 1.350 . S
C522 C519 1.463 . S
C522 N526 1.427 . S
C523 H513 0.929 . S
C523 C521 1.433 . S
C523 N526 1.384 . S
C524 H515 0.929 . S
C524 C516 1.378 . S
C524 C519 1.350 . S
C525 H512 0.929 . S
C525 C517 1.433 . S
C525 N527 1.384 . S
N526 C522 1.427 . S
N526 C523 1.384 . S
N527 C519 1.427 . S
N527 C525 1.384 . S
H528 C534 0.930 . S
H529 C538 0.930 . S
H530 C543 0.929 . S
H531 C541 0.929 . S
H532 C536 0.929 . S
H533 C542 0.929 . S
C534 H528 0.930 . S
C534 C535 1.367 . S
C534 C542 1.378 . S
C535 C534 1.367 . S
C535 C543 1.433 . S
C536 H532 0.929 . S
C536 C538 1.378 . S
C536 C540 1.350 . S
C537 C540 1.463 . S
C537 C542 1.350 . S
C537 N545 1.427 . S
C538 H529 0.930 . S
C538 C536 1.378 . S
C538 C539 1.367 . S
C539 C538 1.367 . S
C539 C541 1.433 . S
C540 C536 1.350 . S
C540 C537 1.463 . S
C540 N544 1.427 . S
C541 H531 0.929 . S
C541 C539 1.433 . S
C541 N544 1.384 . S
C542 H533 0.929 . S
C542 C534 1.378 . S
C542 C537 1.350 . S
C543 H530 0.929 . S
C543 C535 1.433 . S
C543 N545 1.384 . S
N544 C540 1.427 . S
N544 C541 1.384 . S
N545 C537 1.427 . S
N545 C543 1.384 . S
H546 C552 0.930 . S
H547 C556 0.930 . S
H548 C561 0.929 . S
H549 C559 0.941 . S
H550 C554 0.929 . S
H551 C560 0.915 1_655 S
C552 H546 0.930 . S
C552 C553 1.367 . S
C552 C560 1.378 . S
C553 C552 1.367 . S
C553 C561 1.433 . S
C554 H550 0.929 . S
C554 C556 1.378 . S
C554 C558 1.350 . S
C555 C558 1.463 . S
C555 C560 1.350 . S
C555 N563 1.427 . S
C556 H547 0.930 . S
C556 C554 1.378 . S
C556 C557 1.367 . S
C557 C556 1.367 . S
C557 C559 1.424 1_455 S
C558 C554 1.350 . S
C558 C555 1.463 . S
C558 N562 1.427 . S
C559 H549 0.941 . S
C559 C557 1.424 1_655 S
C559 N562 1.381 1_655 S
C560 H551 0.915 1_455 S
C560 C552 1.378 . S
C560 C555 1.350 . S
C561 H548 0.929 . S
C561 C553 1.433 . S
C561 N563 1.384 . S
N562 C558 1.427 . S
N562 C559 1.381 1_455 S
N563 C555 1.427 . S
N563 C561 1.384 . S
H564 C570 0.930 . S
H565 C574 0.930 . S
H566 C579 0.929 . S
H567 C577 0.929 . S
H568 C572 0.929 . S
H569 C578 0.929 . S
C570 H564 0.930 . S
C570 C571 1.367 . S
C570 C578 1.378 . S
C571 C570 1.367 . S
C571 C579 1.433 . S
C572 H568 0.929 . S
C572 C574 1.378 . S
C572 C576 1.350 . S
C573 C576 1.463 . S
C573 C578 1.350 . S
C573 N581 1.427 . S
C574 H565 0.930 . S
C574 C572 1.378 . S
C574 C575 1.367 . S
C575 C574 1.367 . S
C575 C577 1.433 . S
C576 C572 1.350 . S
C576 C573 1.463 . S
C576 N580 1.427 . S
C577 H567 0.929 . S
C577 C575 1.433 . S
C577 N580 1.384 . S
C578 H569 0.929 . S
C578 C570 1.378 . S
C578 C573 1.350 . S
C579 H566 0.929 . S
C579 C571 1.433 . S
C579 N581 1.384 . S
N580 C576 1.427 . S
N580 C577 1.384 . S
N581 C573 1.427 . S
N581 C579 1.384 . S
H582 C588 0.930 . S
H583 C592 0.930 1_455 S
H584 C597 0.929 . S
H585 C595 0.929 . S
H586 C590 0.929 . S
H587 C596 0.929 . S
C588 H582 0.930 . S
C588 C589 1.367 . S
C588 C596 1.378 . S
C589 C588 1.367 . S
C589 C597 1.433 . S
C590 H586 0.929 . S
C590 C592 1.378 . S
C590 C594 1.350 . S
C591 C594 1.463 . S
C591 C596 1.350 . S
C591 N599 1.427 . S
C592 H583 0.930 1_655 S
C592 C590 1.378 . S
C592 C593 1.367 . S
C593 C592 1.367 . S
C593 C595 1.433 . S
C594 C590 1.350 . S
C594 C591 1.463 . S
C594 N598 1.427 . S
C595 H585 0.929 . S
C595 C593 1.433 . S
C595 N598 1.384 . S
C596 H587 0.929 . S
C596 C588 1.378 . S
C596 C591 1.350 . S
C597 H584 0.929 . S
C597 C589 1.433 . S
C597 N599 1.384 . S
N598 C594 1.427 . S
N598 C595 1.384 . S
N599 C591 1.427 . S
N599 C597 1.384 . S
H600 C606 0.930 . S
H601 C610 0.930 . S
H602 C615 0.929 . S
H603 C613 0.929 . S
H604 C608 0.929 . S
H605 C614 0.929 . S
C606 H600 0.930 . S
C606 C607 1.367 . S
C606 C614 1.378 . S
C607 C606 1.367 . S
C607 C615 1.433 . S
C608 H604 0.929 . S
C608 C610 1.378 . S
C608 C612 1.350 . S
C609 C612 1.463 . S
C609 C614 1.350 . S
C609 N617 1.427 . S
C610 H601 0.930 . S
C610 C608 1.378 . S
C610 C611 1.367 . S
C611 C610 1.367 . S
C611 C613 1.433 . S
C612 C608 1.350 . S
C612 C609 1.463 . S
C612 N616 1.427 . S
C613 H603 0.929 . S
C613 C611 1.433 . S
C613 N616 1.384 . S
C614 H605 0.929 . S
C614 C606 1.378 . S
C614 C609 1.350 . S
C615 H602 0.929 . S
C615 C607 1.433 . S
C615 N617 1.384 . S
N616 C612 1.427 . S
N616 C613 1.384 . S
N617 C609 1.427 . S
N617 C615 1.384 . S
H618 C624 0.930 . S
H619 C628 0.930 . S
H620 C633 0.929 . S
H621 C631 0.929 . S
H622 C626 0.929 . S
H623 C632 0.929 . S
C624 H618 0.930 . S
C624 C625 1.367 . S
C624 C632 1.378 . S
C625 C624 1.367 . S
C625 C633 1.433 . S
C626 H622 0.929 . S
C626 C628 1.378 . S
C626 C630 1.350 . S
C627 C630 1.463 . S
C627 C632 1.350 . S
C627 N635 1.427 . S
C628 H619 0.930 . S
C628 C626 1.378 . S
C628 C629 1.367 . S
C629 C628 1.367 . S
C629 C631 1.433 . S
C630 C626 1.350 . S
C630 C627 1.463 . S
C630 N634 1.427 . S
C631 H621 0.929 . S
C631 C629 1.433 . S
C631 N634 1.384 . S
C632 H623 0.929 . S
C632 C624 1.378 . S
C632 C627 1.350 . S
C633 H620 0.929 . S
C633 C625 1.433 . S
C633 N635 1.384 . S
N634 C630 1.427 . S
N634 C631 1.384 . S
N635 C627 1.427 . S
N635 C633 1.384 . S
H636 C642 0.930 . S
H637 C646 0.930 1_554 S
H638 C651 0.929 . S
H639 C649 0.929 . S
H640 C644 0.929 . S
H641 C650 0.929 . S
C642 H636 0.930 . S
C642 C643 1.367 1_565 S
C642 C650 1.378 . S
C643 C642 1.367 1_545 S
C643 C651 1.433 . S
C644 H640 0.929 . S
C644 C646 1.378 . S
C644 C648 1.350 . S
C645 C648 1.463 . S
C645 C650 1.350 . S
C645 N653 1.427 1_565 S
C646 H637 0.930 1_556 S
C646 C644 1.378 . S
C646 C647 1.367 . S
C647 C646 1.367 . S
C647 C649 1.433 . S
C648 C644 1.350 . S
C648 C645 1.463 . S
C648 N652 1.427 . S
C649 H639 0.929 . S
C649 C647 1.433 . S
C649 N652 1.384 . S
C650 H641 0.929 . S
C650 C642 1.378 . S
C650 C645 1.350 . S
C651 H638 0.929 . S
C651 C643 1.433 . S
C651 N653 1.384 . S
N652 C648 1.427 . S
N652 C649 1.384 . S
N653 C645 1.427 1_545 S
N653 C651 1.384 . S
H654 C660 0.930 . S
H655 C664 0.930 . S
H656 C669 0.929 . S
H657 C667 0.929 . S
H658 C662 0.929 . S
H659 C668 0.929 . S
C660 H654 0.930 . S
C660 C661 1.367 . S
C660 C668 1.378 . S
C661 C660 1.367 . S
C661 C669 1.433 . S
C662 H658 0.929 . S
C662 C664 1.378 . S
C662 C666 1.350 . S
C663 C666 1.463 . S
C663 C668 1.350 . S
C663 N671 1.427 . S
C664 H655 0.930 . S
C664 C662 1.378 . S
C664 C665 1.367 . S
C665 C664 1.367 . S
C665 C667 1.433 . S
C666 C662 1.350 . S
C666 C663 1.463 . S
C666 N670 1.427 . S
C667 H657 0.929 . S
C667 C665 1.433 . S
C667 N670 1.384 . S
C668 H659 0.929 . S
C668 C660 1.378 . S
C668 C663 1.350 . S
C669 H656 0.929 . S
C669 C661 1.433 . S
C669 N671 1.384 . S
N670 C666 1.427 . S
N670 C667 1.384 . S
N671 C663 1.427 . S
N671 C669 1.384 . S
H672 C678 0.930 . S
H673 C682 0.930 . S
H674 C687 0.929 . S
H675 C685 0.929 . S
H676 C680 0.929 . S
H677 C686 0.929 . S
C678 H672 0.930 . S
C678 C679 1.367 . S
C678 C686 1.378 1_565 S
C679 C678 1.367 . S
C679 C687 1.433 . S
C680 H676 0.929 . S
C680 C682 1.378 . S
C680 C684 1.350 . S
C681 C684 1.463 . S
C681 C686 1.350 . S
C681 N689 1.427 . S
C682 H673 0.930 . S
C682 C680 1.378 . S
C682 C683 1.367 . S
C683 C682 1.367 . S
C683 C685 1.433 . S
C684 C680 1.350 . S
C684 C681 1.463 . S
C684 N688 1.427 . S
C685 H675 0.929 . S
C685 C683 1.433 . S
C685 N688 1.384 . S
C686 H677 0.929 . S
C686 C678 1.378 1_545 S
C686 C681 1.350 . S
C687 H674 0.929 . S
C687 C679 1.433 . S
C687 N689 1.384 1_565 S
N688 C684 1.427 . S
N688 C685 1.384 . S
N689 C681 1.427 . S
N689 C687 1.384 1_545 S
H690 C696 0.930 . S
H691 C700 0.930 . S
H692 C705 0.929 . S
H693 C703 0.929 . S
H694 C698 0.929 . S
H695 C704 0.929 . S
C696 H690 0.930 . S
C696 C697 1.367 . S
C696 C704 1.378 . S
C697 C696 1.367 . S
C697 C705 1.433 . S
C698 H694 0.929 . S
C698 C700 1.378 . S
C698 C702 1.350 . S
C699 C702 1.463 . S
C699 C704 1.350 . S
C699 N707 1.427 . S
C700 H691 0.930 . S
C700 C698 1.378 . S
C700 C701 1.367 . S
C701 C700 1.367 . S
C701 C703 1.433 . S
C702 C698 1.350 . S
C702 C699 1.463 . S
C702 N706 1.427 . S
C703 H693 0.929 . S
C703 C701 1.433 . S
C703 N706 1.384 . S
C704 H695 0.929 . S
C704 C696 1.378 . S
C704 C699 1.350 . S
C705 H692 0.929 . S
C705 C697 1.433 . S
C705 N707 1.384 . S
N706 C702 1.427 . S
N706 C703 1.384 . S
N707 C699 1.427 . S
N707 C705 1.384 . S
H708 C714 0.930 . S
H709 C718 0.930 . S
H710 C723 0.929 . S
H711 C721 0.929 . S
H712 C716 0.929 . S
H713 C722 0.929 . S
C714 H708 0.930 . S
C714 C715 1.367 1_545 S
C714 C722 1.378 . S
C715 C714 1.367 1_565 S
C715 C723 1.433 . S
C716 H712 0.929 . S
C716 C718 1.378 . S
C716 C720 1.350 . S
C717 C720 1.463 . S
C717 C722 1.350 . S
C717 N725 1.427 . S
C718 H709 0.930 . S
C718 C716 1.378 . S
C718 C719 1.367 . S
C719 C718 1.367 . S
C719 C721 1.433 . S
C720 C716 1.350 . S
C720 C717 1.463 . S
C720 N724 1.427 . S
C721 H711 0.929 . S
C721 C719 1.433 . S
C721 N724 1.384 . S
C722 H713 0.929 . S
C722 C714 1.378 . S
C722 C717 1.350 . S
C723 H710 0.929 . S
C723 C715 1.433 . S
C723 N725 1.384 1_565 S
N724 C720 1.427 . S
N724 C721 1.384 . S
N725 C717 1.427 . S
N725 C723 1.384 1_545 S
H726 C732 0.930 . S
H727 C736 0.930 . S
H728 C741 0.929 . S
H729 C739 0.929 . S
H730 C734 0.929 . S
H731 C740 0.929 . S
C732 H726 0.930 . S
C732 C733 1.367 . S
C732 C740 1.378 . S
C733 C732 1.367 . S
C733 C741 1.433 . S
C734 H730 0.929 . S
C734 C736 1.378 . S
C734 C738 1.350 . S
C735 C738 1.463 . S
C735 C740 1.350 . S
C735 N743 1.427 . S
C736 H727 0.930 . S
C736 C734 1.378 . S
C736 C737 1.367 . S
C737 C736 1.367 . S
C737 C739 1.433 . S
C738 C734 1.350 . S
C738 C735 1.463 . S
C738 N742 1.427 . S
C739 H729 0.929 . S
C739 C737 1.433 . S
C739 N742 1.384 . S
C740 H731 0.929 . S
C740 C732 1.378 . S
C740 C735 1.350 . S
C741 H728 0.929 . S
C741 C733 1.433 . S
C741 N743 1.384 . S
N742 C738 1.427 . S
N742 C739 1.384 . S
N743 C735 1.427 . S
N743 C741 1.384 . S
H744 C750 0.930 . S
H745 C754 0.930 . S
H746 C759 0.929 . S
H747 C757 0.929 . S
H748 C752 0.929 . S
H749 C758 0.929 . S
C750 H744 0.930 . S
C750 C751 1.367 . S
C750 C758 1.378 . S
C751 C750 1.367 . S
C751 C759 1.433 . S
C752 H748 0.929 . S
C752 C754 1.378 . S
C752 C756 1.350 . S
C753 C756 1.463 . S
C753 C758 1.350 . S
C753 N761 1.427 . S
C754 H745 0.930 . S
C754 C752 1.378 . S
C754 C755 1.367 . S
C755 C754 1.367 . S
C755 C757 1.433 . S
C756 C752 1.350 . S
C756 C753 1.463 . S
C756 N760 1.427 . S
C757 H747 0.929 . S
C757 C755 1.433 . S
C757 N760 1.384 . S
C758 H749 0.929 . S
C758 C750 1.378 . S
C758 C753 1.350 . S
C759 H746 0.929 . S
C759 C751 1.433 . S
C759 N761 1.384 . S
N760 C756 1.427 . S
N760 C757 1.384 . S
N761 C753 1.427 . S
N761 C759 1.384 . S
H762 C768 0.930 . S
H763 C772 0.955 . S
H764 C777 0.929 . S
H765 C775 0.929 . S
H766 C770 0.929 1_565 S
H767 C776 0.929 . S
C768 H762 0.930 . S
C768 C769 1.367 . S
C768 C776 1.378 . S
C769 C768 1.367 . S
C769 C777 1.433 . S
C770 H766 0.929 1_545 S
C770 C772 1.373 1_545 S
C770 C774 1.350 . S
C771 C774 1.463 . S
C771 C776 1.350 . S
C771 N779 1.427 . S
C772 H763 0.955 . S
C772 C770 1.373 1_565 S
C772 C773 1.347 1_565 S
C773 C772 1.347 1_545 S
C773 C775 1.433 . S
C774 C770 1.350 . S
C774 C771 1.463 . S
C774 N778 1.427 . S
C775 H765 0.929 . S
C775 C773 1.433 . S
C775 N778 1.384 . S
C776 H767 0.929 . S
C776 C768 1.378 . S
C776 C771 1.350 . S
C777 H764 0.929 . S
C777 C769 1.433 . S
C777 N779 1.384 . S
N778 C774 1.427 . S
N778 C775 1.384 . S
N779 C771 1.427 . S
N779 C777 1.384 . S
H780 C786 0.930 . S
H781 C790 0.930 . S
H782 C795 0.929 . S
H783 C793 0.929 . S
H784 C788 0.929 . S
H785 C794 0.929 . S
C786 H780 0.930 . S
C786 C787 1.367 . S
C786 C794 1.378 . S
C787 C786 1.367 . S
C787 C795 1.433 . S
C788 H784 0.929 . S
C788 C790 1.378 . S
C788 C792 1.350 . S
C789 C792 1.463 . S
C789 C794 1.350 . S
C789 N797 1.427 . S
C790 H781 0.930 . S
C790 C788 1.378 . S
C790 C791 1.367 . S
C791 C790 1.367 . S
C791 C793 1.433 . S
C792 C788 1.350 . S
C792 C789 1.463 . S
C792 N796 1.427 . S
C793 H783 0.929 . S
C793 C791 1.433 . S
C793 N796 1.384 . S
C794 H785 0.929 . S
C794 C786 1.378 . S
C794 C789 1.350 . S
C795 H782 0.929 . S
C795 C787 1.433 . S
C795 N797 1.384 . S
N796 C792 1.427 . S
N796 C793 1.384 . S
N797 C789 1.427 . S
N797 C795 1.384 . S
H798 C804 0.930 . S
H799 C808 0.930 . S
H800 C813 0.929 . S
H801 C811 0.929 . S
H802 C806 0.929 . S
H803 C812 0.929 . S
C804 H798 0.930 . S
C804 C805 1.367 . S
C804 C812 1.378 . S
C805 C804 1.367 . S
C805 C813 1.433 . S
C806 H802 0.929 . S
C806 C808 1.378 . S
C806 C810 1.350 . S
C807 C810 1.463 . S
C807 C812 1.350 . S
C807 N815 1.427 . S
C808 H799 0.930 . S
C808 C806 1.378 . S
C808 C809 1.367 . S
C809 C808 1.367 . S
C809 C811 1.433 . S
C810 C806 1.350 . S
C810 C807 1.463 . S
C810 N814 1.427 . S
C811 H801 0.929 . S
C811 C809 1.433 . S
C811 N814 1.384 . S
C812 H803 0.929 . S
C812 C804 1.378 . S
C812 C807 1.350 . S
C813 H800 0.929 . S
C813 C805 1.433 . S
C813 N815 1.384 . S
N814 C810 1.427 . S
N814 C811 1.384 . S
N815 C807 1.427 . S
N815 C813 1.384 . S
H816 C822 0.930 . S
H817 C826 0.930 . S
H818 C831 0.929 . S
H819 C829 0.929 . S
H820 C824 0.929 . S
H821 C830 0.929 . S
C822 H816 0.930 . S
C822 C823 1.367 . S
C822 C830 1.378 . S
C823 C822 1.367 . S
C823 C831 1.433 . S
C824 H820 0.929 . S
C824 C826 1.378 . S
C824 C828 1.350 . S
C825 C828 1.463 . S
C825 C830 1.350 . S
C825 N833 1.427 . S
C826 H817 0.930 . S
C826 C824 1.378 . S
C826 C827 1.367 . S
C827 C826 1.367 . S
C827 C829 1.433 . S
C828 C824 1.350 . S
C828 C825 1.463 . S
C828 N832 1.427 . S
C829 H819 0.929 . S
C829 C827 1.433 . S
C829 N832 1.384 . S
C830 H821 0.929 . S
C830 C822 1.378 . S
C830 C825 1.350 . S
C831 H818 0.929 . S
C831 C823 1.433 . S
C831 N833 1.384 . S
N832 C828 1.427 . S
N832 C829 1.384 . S
N833 C825 1.427 . S
N833 C831 1.384 . S
H834 C840 0.930 . S
H835 C844 0.930 . S
H836 C849 0.929 . S
H837 C847 0.929 . S
H838 C842 0.929 . S
H839 C848 0.929 . S
C840 H834 0.930 . S
C840 C841 1.367 . S
C840 C848 1.378 . S
C841 C840 1.367 . S
C841 C849 1.433 1_455 S
C842 H838 0.929 . S
C842 C844 1.378 . S
C842 C846 1.350 . S
C843 C846 1.463 . S
C843 C848 1.350 1_655 S
C843 N851 1.427 . S
C844 H835 0.930 . S
C844 C842 1.378 . S
C844 C845 1.367 . S
C845 C844 1.367 . S
C845 C847 1.433 . S
C846 C842 1.350 . S
C846 C843 1.463 . S
C846 N850 1.427 . S
C847 H837 0.929 . S
C847 C845 1.433 . S
C847 N850 1.384 . S
C848 H839 0.929 . S
C848 C840 1.378 . S
C848 C843 1.350 1_455 S
C849 H836 0.929 . S
C849 C841 1.433 1_655 S
C849 N851 1.384 . S
N850 C846 1.427 . S
N850 C847 1.384 . S
N851 C843 1.427 . S
N851 C849 1.384 . S
H852 C858 0.930 . S
H853 C862 0.930 . S
H854 C867 0.929 . S
H855 C865 0.929 . S
H856 C860 0.929 . S
H857 C866 0.929 . S
C858 H852 0.930 . S
C858 C859 1.367 . S
C858 C866 1.378 . S
C859 C858 1.367 . S
C859 C867 1.433 . S
C860 H856 0.929 . S
C860 C862 1.378 . S
C860 C864 1.350 . S
C861 C864 1.463 . S
C861 C866 1.350 . S
C861 N869 1.427 . S
C862 H853 0.930 . S
C862 C860 1.378 . S
C862 C863 1.367 . S
C863 C862 1.367 . S
C863 C865 1.433 . S
C864 C860 1.350 . S
C864 C861 1.463 . S
C864 N868 1.427 . S
C865 H855 0.929 . S
C865 C863 1.433 . S
C865 N868 1.384 . S
C866 H857 0.929 . S
C866 C858 1.378 . S
C866 C861 1.350 . S
C867 H854 0.929 . S
C867 C859 1.433 . S
C867 N869 1.384 . S
N868 C864 1.427 . S
N868 C865 1.384 . S
N869 C861 1.427 . S
N869 C867 1.384 . S
H870 C876 0.930 . S
H871 C880 0.930 . S
H872 C885 0.929 . S
H873 C883 0.929 . S
H874 C878 0.929 . S
H875 C884 0.929 . S
C876 H870 0.930 . S
C876 C877 1.367 . S
C876 C884 1.378 1_655 S
C877 C876 1.367 . S
C877 C885 1.433 . S
C878 H874 0.929 . S
C878 C880 1.378 . S
C878 C882 1.350 . S
C879 C882 1.463 . S
C879 C884 1.350 . S
C879 N887 1.427 . S
C880 H871 0.930 . S
C880 C878 1.378 . S
C880 C881 1.367 . S
C881 C880 1.367 . S
C881 C883 1.433 . S
C882 C878 1.350 . S
C882 C879 1.463 . S
C882 N886 1.427 . S
C883 H873 0.929 . S
C883 C881 1.433 . S
C883 N886 1.384 . S
C884 H875 0.929 . S
C884 C876 1.378 1_455 S
C884 C879 1.350 . S
C885 H872 0.929 . S
C885 C877 1.433 . S
C885 N887 1.384 1_655 S
N886 C882 1.427 . S
N886 C883 1.384 . S
N887 C879 1.427 . S
N887 C885 1.384 1_455 S
H888 C894 0.930 . S
H889 C898 0.930 . S
H890 C903 0.929 . S
H891 C901 0.929 . S
H892 C896 0.929 . S
H893 C902 0.929 . S
C894 H888 0.930 . S
C894 C895 1.367 . S
C894 C902 1.378 . S
C895 C894 1.367 . S
C895 C903 1.433 . S
C896 H892 0.929 . S
C896 C898 1.378 . S
C896 C900 1.350 . S
C897 C900 1.463 . S
C897 C902 1.350 . S
C897 N905 1.427 . S
C898 H889 0.930 . S
C898 C896 1.378 . S
C898 C899 1.367 . S
C899 C898 1.367 . S
C899 C901 1.433 . S
C900 C896 1.350 . S
C900 C897 1.463 . S
C900 N904 1.427 . S
C901 H891 0.929 . S
C901 C899 1.433 . S
C901 N904 1.384 . S
C902 H893 0.929 . S
C902 C894 1.378 . S
C902 C897 1.350 . S
C903 H890 0.929 . S
C903 C895 1.433 . S
C903 N905 1.384 . S
N904 C900 1.427 . S
N904 C901 1.384 . S
N905 C897 1.427 . S
N905 C903 1.384 . S
H906 C912 0.930 . S
H907 C916 0.930 . S
H908 C921 0.929 . S
H909 C919 0.929 . S
H910 C914 0.929 1_455 S
H911 C920 0.929 . S
C912 H906 0.930 . S
C912 C913 1.367 . S
C912 C920 1.378 1_554 S
C913 C912 1.367 . S
C913 C921 1.433 . S
C914 H910 0.929 1_655 S
C914 C916 1.378 1_655 S
C914 C918 1.350 . S
C915 C918 1.463 . S
C915 C920 1.350 . S
C915 N923 1.427 . S
C916 H907 0.930 . S
C916 C914 1.378 1_455 S
C916 C917 1.367 1_455 S
C917 C916 1.367 1_655 S
C917 C919 1.433 . S
C918 C914 1.350 . S
C918 C915 1.463 . S
C918 N922 1.427 . S
C919 H909 0.929 . S
C919 C917 1.433 . S
C919 N922 1.384 . S
C920 H911 0.929 . S
C920 C912 1.378 1_556 S
C920 C915 1.350 . S
C921 H908 0.929 . S
C921 C913 1.433 . S
C921 N923 1.384 1_554 S
N922 C918 1.427 . S
N922 C919 1.384 . S
N923 C915 1.427 . S
N923 C921 1.384 1_556 S
H924 C930 0.930 . S
H925 C934 0.930 . S
H926 C939 0.929 . S
H927 C937 0.929 . S
H928 C932 0.929 . S
H929 C938 0.929 . S
C930 H924 0.930 . S
C930 C931 1.367 . S
C930 C938 1.378 . S
C931 C930 1.367 . S
C931 C939 1.433 . S
C932 H928 0.929 . S
C932 C934 1.378 . S
C932 C936 1.350 . S
C933 C936 1.463 . S
C933 C938 1.350 . S
C933 N941 1.427 . S
C934 H925 0.930 . S
C934 C932 1.378 . S
C934 C935 1.367 . S
C935 C934 1.367 . S
C935 C937 1.433 . S
C936 C932 1.350 . S
C936 C933 1.463 . S
C936 N940 1.427 . S
C937 H927 0.929 . S
C937 C935 1.433 . S
C937 N940 1.384 . S
C938 H929 0.929 . S
C938 C930 1.378 . S
C938 C933 1.350 . S
C939 H926 0.929 . S
C939 C931 1.433 . S
C939 N941 1.384 . S
N940 C936 1.427 . S
N940 C937 1.384 . S
N941 C933 1.427 . S
N941 C939 1.384 . S
H942 C948 0.930 . S
H943 C952 0.930 . S
H944 C957 0.929 . S
H945 C955 0.923 1_655 S
H946 C950 0.929 . S
H947 C956 0.929 1_655 S
C948 H942 0.930 . S
C948 C949 1.367 1_556 S
C948 C956 1.378 . S
C949 C948 1.367 1_554 S
C949 C957 1.433 . S
C950 H946 0.929 . S
C950 C952 1.378 . S
C950 C954 1.350 . S
C951 C954 1.463 . S
C951 C956 1.350 . S
C951 N959 1.427 . S
C952 H943 0.930 . S
C952 C950 1.378 . S
C952 C953 1.367 . S
C953 C952 1.367 . S
C953 C955 1.439 . S
C954 C950 1.350 . S
C954 C951 1.463 . S
C954 N958 1.427 . S
C955 H945 0.923 1_455 S
C955 C953 1.439 . S
C955 N958 1.385 . S
C956 H947 0.929 1_455 S
C956 C948 1.378 . S
C956 C951 1.350 . S
C957 H944 0.929 . S
C957 C949 1.433 . S
C957 N959 1.384 1_554 S
N958 C954 1.427 . S
N958 C955 1.385 . S
N959 C951 1.427 . S
N959 C957 1.384 1_556 S
H960 C966 0.930 . S
H961 C970 0.930 . S
H962 C975 0.929 . S
H963 C973 0.929 . S
H964 C968 0.929 . S
H965 C974 0.929 . S
C966 H960 0.930 . S
C966 C967 1.367 . S
C966 C974 1.378 . S
C967 C966 1.367 . S
C967 C975 1.433 . S
C968 H964 0.929 . S
C968 C970 1.378 . S
C968 C972 1.350 . S
C969 C972 1.463 . S
C969 C974 1.350 . S
C969 N977 1.427 . S
C970 H961 0.930 . S
C970 C968 1.378 . S
C970 C971 1.367 . S
C971 C970 1.367 . S
C971 C973 1.433 . S
C972 C968 1.350 . S
C972 C969 1.463 . S
C972 N976 1.427 . S
C973 H963 0.929 . S
C973 C971 1.433 . S
C973 N976 1.384 . S
C974 H965 0.929 . S
C974 C966 1.378 . S
C974 C969 1.350 . S
C975 H962 0.929 . S
C975 C967 1.433 . S
C975 N977 1.384 . S
N976 C972 1.427 . S
N976 C973 1.384 . S
N977 C969 1.427 . S
N977 C975 1.384 . S
H978 C984 0.930 . S
H979 C988 0.930 . S
H980 C993 0.929 . S
H981 C991 0.929 . S
H982 C986 0.929 . S
H983 C992 0.929 . S
C984 H978 0.930 . S
C984 C985 1.367 . S
C984 C992 1.378 . S
C985 C984 1.367 . S
C985 C993 1.433 1_556 S
C986 H982 0.929 . S
C986 C988 1.378 . S
C986 C990 1.350 . S
C987 C990 1.463 . S
C987 C992 1.349 1_554 S
C987 N995 1.427 . S
C988 H979 0.930 . S
C988 C986 1.378 . S
C988 C989 1.367 . S
C989 C988 1.367 . S
C989 C991 1.433 . S
C990 C986 1.350 . S
C990 C987 1.463 . S
C990 N994 1.427 . S
C991 H981 0.929 . S
C991 C989 1.433 . S
C991 N994 1.384 . S
C992 H983 0.929 . S
C992 C984 1.378 . S
C992 C987 1.349 1_556 S
C993 H980 0.929 . S
C993 C985 1.433 1_554 S
C993 N995 1.384 . S
N994 C990 1.427 . S
N994 C991 1.384 . S
N995 C987 1.427 . S
N995 C993 1.384 . S
H996 C1002 0.930 . S
H997 C1006 0.930 . S
H998 C1011 0.929 . S
H999 C1009 0.929 . S
H1000 C1004 0.929 . S
H1001 C1010 0.929 . S
C1002 H996 0.930 . S
C1002 C1003 1.367 . S
C1002 C1010 1.378 . S
C1003 C1002 1.367 . S
C1003 C1011 1.433 . S
C1004 H1000 0.929 . S
C1004 C1006 1.378 . S
C1004 C1008 1.350 . S
C1005 C1008 1.463 . S
C1005 C1010 1.350 . S
C1005 N1013 1.427 . S
C1006 H997 0.930 . S
C1006 C1004 1.378 . S
C1006 C1007 1.367 . S
C1007 C1006 1.367 . S
C1007 C1009 1.433 . S
C1008 C1004 1.350 . S
C1008 C1005 1.463 . S
C1008 N1012 1.427 . S
C1009 H999 0.929 . S
C1009 C1007 1.433 . S
C1009 N1012 1.384 . S
C1010 H1001 0.929 . S
C1010 C1002 1.378 . S
C1010 C1005 1.350 . S
C1011 H998 0.929 . S
C1011 C1003 1.433 . S
C1011 N1013 1.384 . S
N1012 C1008 1.427 . S
N1012 C1009 1.384 . S
N1013 C1005 1.427 . S
N1013 C1011 1.384 . S
H1014 C1020 0.930 . S
H1015 C1024 0.930 . S
H1016 C1029 0.929 . S
H1017 C1027 0.929 . S
H1018 C1022 0.929 . S
H1019 C1028 0.929 . S
C1020 H1014 0.930 . S
C1020 C1021 1.367 1_554 S
C1020 C1028 1.378 . S
C1021 C1020 1.367 1_556 S
C1021 C1029 1.433 . S
C1022 H1018 0.929 . S
C1022 C1024 1.378 . S
C1022 C1026 1.350 . S
C1023 C1026 1.463 . S
C1023 C1028 1.350 . S
C1023 N1031 1.427 1_554 S
C1024 H1015 0.930 . S
C1024 C1022 1.378 . S
C1024 C1025 1.367 . S
C1025 C1024 1.367 . S
C1025 C1027 1.433 . S
C1026 C1022 1.350 . S
C1026 C1023 1.463 . S
C1026 N1030 1.427 . S
C1027 H1017 0.929 . S
C1027 C1025 1.433 . S
C1027 N1030 1.384 . S
C1028 H1019 0.929 . S
C1028 C1020 1.378 . S
C1028 C1023 1.350 . S
C1029 H1016 0.929 . S
C1029 C1021 1.433 . S
C1029 N1031 1.384 . S
N1030 C1026 1.427 . S
N1030 C1027 1.384 . S
N1031 C1023 1.427 1_556 S
N1031 C1029 1.384 . S
H1032 C1038 0.930 . S
H1033 C1042 0.930 . S
H1034 C1047 0.929 . S
H1035 C1045 0.929 . S
H1036 C1040 0.929 . S
H1037 C1046 0.929 . S
C1038 H1032 0.930 . S
C1038 C1039 1.367 . S
C1038 C1046 1.378 . S
C1039 C1038 1.367 . S
C1039 C1047 1.433 . S
C1040 H1036 0.929 . S
C1040 C1042 1.378 . S
C1040 C1044 1.350 . S
C1041 C1044 1.463 . S
C1041 C1046 1.350 . S
C1041 N1049 1.427 . S
C1042 H1033 0.930 . S
C1042 C1040 1.378 . S
C1042 C1043 1.367 . S
C1043 C1042 1.367 . S
C1043 C1045 1.433 . S
C1044 C1040 1.350 . S
C1044 C1041 1.463 . S
C1044 N1048 1.427 . S
C1045 H1035 0.929 . S
C1045 C1043 1.433 . S
C1045 N1048 1.384 . S
C1046 H1037 0.929 . S
C1046 C1038 1.378 . S
C1046 C1041 1.350 . S
C1047 H1034 0.929 . S
C1047 C1039 1.433 . S
C1047 N1049 1.384 . S
N1048 C1044 1.427 . S
N1048 C1045 1.384 . S
N1049 C1041 1.427 . S
N1049 C1047 1.384 . S
H1050 C1056 0.930 . S
H1051 C1060 0.930 . S
H1052 C1065 0.929 . S
H1053 C1063 0.929 . S
H1054 C1058 0.929 . S
H1055 C1064 0.929 . S
C1056 H1050 0.930 . S
C1056 C1057 1.367 . S
C1056 C1064 1.378 . S
C1057 C1056 1.367 . S
C1057 C1065 1.433 . S
C1058 H1054 0.929 . S
C1058 C1060 1.378 . S
C1058 C1062 1.350 . S
C1059 C1062 1.463 . S
C1059 C1064 1.350 . S
C1059 N1067 1.427 . S
C1060 H1051 0.930 . S
C1060 C1058 1.378 . S
C1060 C1061 1.367 . S
C1061 C1060 1.367 . S
C1061 C1063 1.433 . S
C1062 C1058 1.350 . S
C1062 C1059 1.463 . S
C1062 N1066 1.427 . S
C1063 H1053 0.929 . S
C1063 C1061 1.433 . S
C1063 N1066 1.384 . S
C1064 H1055 0.929 . S
C1064 C1056 1.378 . S
C1064 C1059 1.350 . S
C1065 H1052 0.929 . S
C1065 C1057 1.433 . S
C1065 N1067 1.384 . S
N1066 C1062 1.427 . S
N1066 C1063 1.384 . S
N1067 C1059 1.427 . S
N1067 C1065 1.384 . S
H1068 C1074 0.930 . S
H1069 C1078 0.930 . S
H1070 C1083 0.929 . S
H1071 C1081 0.929 . S
H1072 C1076 0.929 . S
H1073 C1082 0.929 . S
C1074 H1068 0.930 . S
C1074 C1075 1.367 . S
C1074 C1082 1.378 . S
C1075 C1074 1.367 . S
C1075 C1083 1.433 . S
C1076 H1072 0.929 . S
C1076 C1078 1.378 . S
C1076 C1080 1.350 . S
C1077 C1080 1.463 . S
C1077 C1082 1.350 . S
C1077 N1085 1.427 . S
C1078 H1069 0.930 . S
C1078 C1076 1.378 . S
C1078 C1079 1.367 . S
C1079 C1078 1.367 . S
C1079 C1081 1.433 . S
C1080 C1076 1.350 . S
C1080 C1077 1.463 . S
C1080 N1084 1.427 . S
C1081 H1071 0.929 . S
C1081 C1079 1.433 . S
C1081 N1084 1.384 . S
C1082 H1073 0.929 . S
C1082 C1074 1.378 . S
C1082 C1077 1.350 . S
C1083 H1070 0.929 . S
C1083 C1075 1.433 . S
C1083 N1085 1.384 . S
N1084 C1080 1.427 . S
N1084 C1081 1.384 . S
N1085 C1077 1.427 . S
N1085 C1083 1.384 . S
H1086 C1092 0.930 . S
H1087 C1096 0.930 . S
H1088 C1101 0.929 . S
H1089 C1099 0.929 . S
H1090 C1094 0.929 . S
H1091 C1100 0.929 . S
C1092 H1086 0.930 . S
C1092 C1093 1.367 . S
C1092 C1100 1.378 . S
C1093 C1092 1.367 . S
C1093 C1101 1.433 . S
C1094 H1090 0.929 . S
C1094 C1096 1.378 . S
C1094 C1098 1.350 . S
C1095 C1098 1.463 . S
C1095 C1100 1.350 . S
C1095 N1103 1.427 . S
C1096 H1087 0.930 . S
C1096 C1094 1.378 . S
C1096 C1097 1.367 . S
C1097 C1096 1.367 . S
C1097 C1099 1.433 . S
C1098 C1094 1.350 . S
C1098 C1095 1.463 . S
C1098 N1102 1.427 . S
C1099 H1089 0.929 . S
C1099 C1097 1.433 . S
C1099 N1102 1.384 . S
C1100 H1091 0.929 . S
C1100 C1092 1.378 . S
C1100 C1095 1.350 . S
C1101 H1088 0.929 . S
C1101 C1093 1.433 . S
C1101 N1103 1.384 . S
N1102 C1098 1.427 . S
N1102 C1099 1.384 . S
N1103 C1095 1.427 . S
N1103 C1101 1.384 . S
H1104 C1110 0.930 1_554 S
H1105 C1114 0.930 . S
H1106 C1119 0.929 . S
H1107 C1117 0.929 . S
H1108 C1112 0.929 . S
H1109 C1118 0.929 1_554 S
C1110 H1104 0.930 1_556 S
C1110 C1111 1.367 . S
C1110 C1118 1.378 . S
C1111 C1110 1.367 . S
C1111 C1119 1.433 . S
C1112 H1108 0.929 . S
C1112 C1114 1.378 . S
C1112 C1116 1.350 . S
C1113 C1116 1.463 . S
C1113 C1118 1.350 . S
C1113 N1121 1.427 . S
C1114 H1105 0.930 . S
C1114 C1112 1.378 . S
C1114 C1115 1.367 . S
C1115 C1114 1.367 . S
C1115 C1117 1.433 1_556 S
C1116 C1112 1.350 . S
C1116 C1113 1.463 . S
C1116 N1120 1.427 1_556 S
C1117 H1107 0.929 . S
C1117 C1115 1.433 1_554 S
C1117 N1120 1.384 . S
C1118 H1109 0.929 1_556 S
C1118 C1110 1.378 . S
C1118 C1113 1.350 . S
C1119 H1106 0.929 . S
C1119 C1111 1.433 . S
C1119 N1121 1.384 . S
N1120 C1116 1.427 1_554 S
N1120 C1117 1.384 . S
N1121 C1113 1.427 . S
N1121 C1119 1.384 . S
H1122 C1128 0.930 . S
H1123 C1132 0.930 . S
H1124 C1137 0.929 . S
H1125 C1135 0.929 . S
H1126 C1130 0.929 . S
H1127 C1136 0.929 . S
C1128 H1122 0.930 . S
C1128 C1129 1.367 . S
C1128 C1136 1.378 . S
C1129 C1128 1.367 . S
C1129 C1137 1.433 . S
C1130 H1126 0.929 . S
C1130 C1132 1.378 . S
C1130 C1134 1.350 . S
C1131 C1134 1.463 . S
C1131 C1136 1.350 . S
C1131 N1139 1.427 . S
C1132 H1123 0.930 . S
C1132 C1130 1.378 . S
C1132 C1133 1.367 . S
C1133 C1132 1.367 . S
C1133 C1135 1.433 . S
C1134 C1130 1.350 . S
C1134 C1131 1.463 . S
C1134 N1138 1.427 . S
C1135 H1125 0.929 . S
C1135 C1133 1.433 . S
C1135 N1138 1.384 . S
C1136 H1127 0.929 . S
C1136 C1128 1.378 . S
C1136 C1131 1.350 . S
C1137 H1124 0.929 . S
C1137 C1129 1.433 . S
C1137 N1139 1.384 . S
N1138 C1134 1.427 . S
N1138 C1135 1.384 . S
N1139 C1131 1.427 . S
N1139 C1137 1.384 . S
H1140 C1146 0.930 . S
H1141 C1150 0.930 1_556 S
H1142 C1155 0.929 . S
H1143 C1153 0.929 . S
H1144 C1148 0.929 . S
H1145 C1154 0.929 . S
C1146 H1140 0.930 . S
C1146 C1147 1.367 . S
C1146 C1154 1.378 . S
C1147 C1146 1.367 . S
C1147 C1155 1.433 . S
C1148 H1144 0.929 . S
C1148 C1150 1.378 . S
C1148 C1152 1.350 . S
C1149 C1152 1.463 . S
C1149 C1154 1.350 . S
C1149 N1157 1.427 . S
C1150 H1141 0.930 1_554 S
C1150 C1148 1.378 . S
C1150 C1151 1.367 . S
C1151 C1150 1.367 . S
C1151 C1153 1.433 . S
C1152 C1148 1.350 . S
C1152 C1149 1.463 . S
C1152 N1156 1.427 . S
C1153 H1143 0.929 . S
C1153 C1151 1.433 . S
C1153 N1156 1.384 . S
C1154 H1145 0.929 . S
C1154 C1146 1.378 . S
C1154 C1149 1.350 . S
C1155 H1142 0.929 . S
C1155 C1147 1.433 . S
C1155 N1157 1.384 . S
N1156 C1152 1.427 . S
N1156 C1153 1.384 . S
N1157 C1149 1.427 . S
N1157 C1155 1.384 . S
H1158 C1164 0.930 . S
H1159 C1168 0.930 . S
H1160 C1173 0.929 . S
H1161 C1171 0.906 1_556 S
H1162 C1166 0.929 . S
H1163 C1172 0.901 1_546 S
C1164 H1158 0.930 . S
C1164 C1165 1.367 . S
C1164 C1172 1.378 1_545 S
C1165 C1164 1.367 . S
C1165 C1173 1.433 1_545 S
C1166 H1162 0.929 . S
C1166 C1168 1.378 . S
C1166 C1170 1.350 . S
C1167 C1170 1.463 . S
C1167 C1172 1.350 . S
C1167 N1175 1.427 . S
C1168 H1159 0.930 . S
C1168 C1166 1.378 . S
C1168 C1169 1.367 . S
C1169 C1168 1.367 . S
C1169 C1171 1.454 . S
C1170 C1166 1.350 . S
C1170 C1167 1.463 . S
C1170 N1174 1.427 . S
C1171 H1161 0.906 1_554 S
C1171 C1169 1.454 . S
C1171 N1174 1.389 . S
C1172 H1163 0.901 1_564 S
C1172 C1164 1.378 1_565 S
C1172 C1167 1.350 . S
C1173 H1160 0.929 . S
C1173 C1165 1.433 1_565 S
C1173 N1175 1.384 . S
N1174 C1170 1.427 . S
N1174 C1171 1.389 . S
N1175 C1167 1.427 . S
N1175 C1173 1.384 . S
C323 C152 1.486 . S
C319 C50 1.519 . S
C341 C165 1.471 . S
C337 C61 1.481 . S
C355 C67 1.617 . S
C359 C185 1.502 . S
C377 C199 1.370 . S
C373 C41 1.445 . S
C395 C211 1.505 . S
C391 C95 1.509 . S
C413 C225 1.445 . S
C409 C113 1.445 . S
C427 C106 1.480 . S
C431 C235 1.469 . S
C449 C250 1.506 . S
C445 C86 1.541 . S
C463 C104 1.508 . S
C467 C264 1.476 . S
C485 C283 1.370 . S
C481 C88 1.455 . S
C499 C94 1.505 . S
C503 C263 1.499 . S
C521 C281 1.433 . S
C517 C112 1.435 . S
C535 C70 1.607 . S
C539 C297 1.511 . S
C553 C40 1.490 . S
C557 C291 1.486 . S
C571 C49 1.515 . S
C575 C295 1.511 . S
C589 C59 1.543 . S
C593 C292 1.511 . S
C607 C34 1.506 . S
C611 C194 1.476 . S
C625 C133 1.487 . S
C629 C193 1.474 . S
C647 C157 1.384 . S
C643 C139 1.453 . S
C665 C171 1.513 . S
C661 C77 1.617 . S
C679 C43 1.525 . S
C683 C208 1.498 . S
C701 C253 1.508 . S
C697 C103 1.513 . S
C719 C207 1.492 . S
C715 C85 1.503 . S
C737 C239 1.428 . S
C733 C115 1.429 . S
C755 C236 1.487 . S
C751 C131 1.518 . S
C769 C142 1.481 . S
C773 C249 1.469 . S
C787 C76 1.617 . S
C791 C213 1.502 . S
C809 C227 1.363 . S
C805 C122 1.445 . S
C823 C32 1.509 . S
C827 C183 1.504 . S
C845 C197 1.442 . S
C841 C5 1.445 . S
C863 C151 1.472 . S
C859 C16 1.480 . S
C881 C166 1.505 . S
C877 C23 1.542 . S
C895 C14 1.507 . S
C899 C278 1.486 . S
C913 C25 1.455 . S
C917 C269 1.373 . S
C931 C31 1.505 . S
C935 C277 1.498 . S
C949 C4 1.435 . S
C953 C267 1.432 . S
C971 C311 1.497 . S
C967 C79 1.605 . S
C989 C305 1.484 . S
C985 C121 1.491 . S
C1007 C309 1.511 . S
C1003 C130 1.515 . S
C1021 C140 1.541 . S
C1025 C306 1.508 . S
C1039 C97 1.506 . S
C1043 C222 1.474 . S
C1061 C221 1.476 . S
C1057 C52 1.487 . S
C1079 C241 1.369 . S
C1075 C58 1.454 . S
C1097 C255 1.504 . S
C1093 C68 1.616 . S
C1111 C124 1.526 . S
C1115 C180 1.486 . S
C1133 C169 1.506 . S
C1129 C13 1.513 . S
C1147 C22 1.502 . S
C1151 C179 1.492 . S
C1169 C155 1.424 . S
C1165 C7 1.429 . S
