# Generated by pormake.
# Topology anh, (6,3)-cn, num edge types: 1
# Building blocks:
#     Node 0, Type 0, BuildingBlock: BETFAJ_clean_sbu_0, # of connection points: 6
#     Node 1, Type 0, BuildingBlock: BETFAJ_clean_sbu_0, # of connection points: 6
#     Node 2, Type 0, BuildingBlock: BETFAJ_clean_sbu_0, # of connection points: 6
#     Node 3, Type 1, BuildingBlock: BETDIP_clean_linker_0, # of connection points: 3
#     Node 4, Type 1, BuildingBlock: BETDIP_clean_linker_0, # of connection points: 3
#     Node 5, Type 1, BuildingBlock: BETDIP_clean_linker_0, # of connection points: 3
#     Node 6, Type 1, BuildingBlock: BETDIP_clean_linker_0, # of connection points: 3
#     Node 7, Type 1, BuildingBlock: BETDIP_clean_linker_0, # of connection points: 3
#     Node 8, Type 1, BuildingBlock: BETDIP_clean_linker_0, # of connection points: 3
#     Edge 9, Type (0, 1), BuildingBlock: EZIPEK_clean_linker_0, # of connection points: 2
#     Edge 10, Type (0, 1), BuildingBlock: EZIPEK_clean_linker_0, # of connection points: 2
#     Edge 11, Type (0, 1), BuildingBlock: EZIPEK_clean_linker_0, # of connection points: 2
#     Edge 12, Type (0, 1), BuildingBlock: EZIPEK_clean_linker_0, # of connection points: 2
#     Edge 13, Type (0, 1), BuildingBlock: EZIPEK_clean_linker_0, # of connection points: 2
#     Edge 14, Type (0, 1), BuildingBlock: EZIPEK_clean_linker_0, # of connection points: 2
#     Edge 15, Type (0, 1), BuildingBlock: EZIPEK_clean_linker_0, # of connection points: 2
#     Edge 16, Type (0, 1), BuildingBlock: EZIPEK_clean_linker_0, # of connection points: 2
#     Edge 17, Type (0, 1), BuildingBlock: EZIPEK_clean_linker_0, # of connection points: 2
#     Edge 18, Type (0, 1), BuildingBlock: EZIPEK_clean_linker_0, # of connection points: 2
#     Edge 19, Type (0, 1), BuildingBlock: EZIPEK_clean_linker_0, # of connection points: 2
#     Edge 20, Type (0, 1), BuildingBlock: EZIPEK_clean_linker_0, # of connection points: 2
#     Edge 21, Type (0, 1), BuildingBlock: EZIPEK_clean_linker_0, # of connection points: 2
#     Edge 22, Type (0, 1), BuildingBlock: EZIPEK_clean_linker_0, # of connection points: 2
#     Edge 23, Type (0, 1), BuildingBlock: EZIPEK_clean_linker_0, # of connection points: 2
#     Edge 24, Type (0, 1), BuildingBlock: EZIPEK_clean_linker_0, # of connection points: 2
#     Edge 25, Type (0, 1), BuildingBlock: EZIPEK_clean_linker_0, # of connection points: 2
#     Edge 26, Type (0, 1), BuildingBlock: EZIPEK_clean_linker_0, # of connection points: 2
# Relax obj value: 0.223
# Max RMSD: 0.209
# Mean RMSD: 0.136
data_MOF--net-anh--node1-BETFAJ_clean_sbu_0--node2-BETDIP_clean_linker_0--edge1-EZIPEK_clean_linker_0
_symmetry_space_group_name_H-M    P1
_symmetry_Int_Tables_number       1
_symmetry_cell_setting            triclinic
loop_
_symmetry_equiv_pos_as_xyz
'x, y, z'
_cell_length_a     24.510539
_cell_length_b     29.814388
_cell_length_c     36.507569
_cell_angle_alpha  94.668516
_cell_angle_beta   89.716986
_cell_angle_gamma 132.61249
loop_
_atom_site_label
_atom_site_type_symbol
_atom_site_fract_x
_atom_site_fract_y
_atom_site_fract_z
_atom_type_partial_charge
Sm0 Sm 0.17178 0.60327 0.14413 0.0
Sm1 Sm 1.07079 0.6229 0.15544 0.0
C2 C 0.26618 0.59424 0.12074 0.0
C3 C 0.27626 0.5518 0.12375 0.0
C4 C 0.33004 0.55904 0.10371 0.0
C5 C 0.34039 0.51889 0.10622 0.0
C6 C 0.29701 0.47121 0.1288 0.0
C7 C 0.24308 0.46385 0.14901 0.0
C8 C 0.23261 0.50411 0.14642 0.0
C9 C 0.13486 0.59576 0.21616 0.0
C10 C 0.24848 0.74732 0.15313 0.0
C11 C 0.98639 0.6434 0.17837 0.0
C12 C 0.90503 0.59956 0.18115 0.0
C13 C 0.87546 0.57947 0.21552 0.0
C14 C 0.80026 0.52743 0.21749 0.0
C15 C 0.75375 0.49548 0.18513 0.0
C16 C 0.78163 0.51828 0.1512 0.0
C17 C 0.85665 0.56999 0.14917 0.0
C18 C 1.06943 0.58673 0.08301 0.0
C19 C 0.99683 0.48057 0.1517 0.0
O20 O 0.27818 0.62646 0.15142 0.0
O21 O 0.207 0.57255 0.10084 0.0
O22 O 0.15024 0.6352 0.19611 0.0
O23 O 0.14178 0.5605 0.19857 0.0
O24 O 0.25994 0.70979 0.15033 0.0
O25 O 0.17996 0.72509 0.15365 0.0
O26 O 1.02188 0.63715 0.20071 0.0
O27 O 1.01049 0.6527 0.14521 0.0
O28 O 0.12658 0.62639 0.10447 0.0
O29 O 1.01001 0.56526 0.09939 0.0
O30 O 0.9914 0.51975 0.16549 0.0
O31 O 1.05841 0.50131 0.13634 0.0
H32 H 0.36393 0.59566 0.08613 0.0
H33 H 0.38221 0.52487 0.09051 0.0
H34 H 0.20937 0.42714 0.16651 0.0
H35 H 0.19073 0.49818 0.16201 0.0
H36 H 0.91144 0.60149 0.24062 0.0
H37 H 0.77938 0.51013 0.24385 0.0
H38 H 0.74612 0.4939 0.12599 0.0
H39 H 0.87733 0.58426 0.12228 0.0
Sm40 Sm 0.6947 0.07937 0.46793 0.0
Sm41 Sm 0.59312 0.10035 0.46444 0.0
C42 C 0.76416 0.04311 0.48447 0.0
C43 C 0.74496 0.98471 0.48516 0.0
C44 C 0.67421 0.92923 0.47199 0.0
C45 C 0.65559 0.87365 0.47381 0.0
C46 C 0.70759 0.87309 0.48896 0.0
C47 C 0.77866 0.92862 0.5017 0.0
C48 C 0.79722 0.98418 0.49981 0.0
C49 C 0.66805 0.09081 0.39775 0.0
C50 C 0.51102 0.95798 0.45744 0.0
C51 C 0.5252 0.13935 0.45242 0.0
C52 C 0.54041 0.19509 0.46527 0.0
C53 C 0.51076 0.21316 0.445 0.0
C54 C 0.52449 0.26585 0.45748 0.0
C55 C 0.56764 0.30073 0.49051 0.0
C56 C 0.59841 0.28322 0.51039 0.0
C57 C 0.58514 0.23088 0.49779 0.0
C58 C 0.62162 0.08991 0.53469 0.0
C59 C 0.77719 0.22216 0.46971 0.0
O60 O 0.7342 0.05403 0.50888 0.0
O61 O 0.76294 0.05789 0.45198 0.0
O62 O 0.61899 0.06051 0.42061 0.0
O63 O 0.73209 0.11298 0.41084 0.0
O64 O 0.57714 0.98016 0.46938 0.0
O65 O 0.50378 0.99564 0.44786 0.0
O66 O 0.57232 0.14669 0.43041 0.0
O67 O 0.50694 0.10313 0.4775 0.0
O68 O 0.66968 0.11991 0.51141 0.0
O69 O 0.55717 0.06679 0.52177 0.0
O70 O 0.70935 0.19943 0.46157 0.0
O71 O 0.78665 0.18548 0.47837 0.0
H72 H 0.63334 0.92896 0.46067 0.0
H73 H 0.60046 0.83112 0.46393 0.0
H74 H 0.81926 0.9288 0.51353 0.0
H75 H 0.85204 0.02664 0.51012 0.0
H76 H 0.47669 0.18632 0.41969 0.0
H77 H 0.50064 0.27897 0.44176 0.0
H78 H 0.63213 0.3098 0.53582 0.0
H79 H 0.60918 0.21798 0.51359 0.0
Sm80 Sm 0.64924 0.58362 0.85464 0.0
Sm81 Sm 0.54414 0.45134 0.83433 0.0
C82 C 0.74526 0.70392 0.85143 0.0
C83 C 0.73738 0.74775 0.84509 0.0
C84 C 0.78909 0.79662 0.82438 0.0
C85 C 0.77628 0.83238 0.8123 0.0
C86 C 0.71151 0.82003 0.82076 0.0
C87 C 0.66113 0.77272 0.84283 0.0
C88 C 0.67364 0.73651 0.85463 0.0
C89 C 0.58773 0.51622 0.91449 0.0
C90 C 0.46479 0.51394 0.84659 0.0
C91 C 0.47403 0.33367 0.82234 0.0
C92 C 0.49826 0.29958 0.81803 0.0
C93 C 0.46741 0.24983 0.83832 0.0
C94 C 0.4872 0.21541 0.83251 0.0
C95 C 0.53767 0.23003 0.80608 0.0
C96 C 0.57003 0.28072 0.78662 0.0
C97 C 0.55066 0.31515 0.79252 0.0
C98 C 0.57889 0.5153 0.77515 0.0
C99 C 0.73166 0.52418 0.84709 0.0
O100 O 0.72305 0.66413 0.82314 0.0
O101 O 0.72503 0.6793 0.88259 0.0
O102 O 0.61041 0.50608 0.88713 0.0
O103 O 0.60123 0.5662 0.91242 0.0
O104 O 0.53663 0.56607 0.84585 0.0
O105 O 0.45381 0.46269 0.84598 0.0
O106 O 0.48305 0.36001 0.85511 0.0
O107 O 0.49081 0.36794 0.79631 0.0
O108 O 0.62437 0.52929 0.80047 0.0
O109 O 0.51176 0.46737 0.78159 0.0
O110 O 0.66048 0.4722 0.83691 0.0
O111 O 0.74157 0.57439 0.85605 0.0
H112 H 0.83798 0.80552 0.81621 0.0
H113 H 0.81577 0.8685 0.79529 0.0
H114 H 0.61074 0.7623 0.84961 0.0
H115 H 0.63221 0.69837 0.86999 0.0
H116 H 0.42711 0.23699 0.85817 0.0
H117 H 0.46184 0.1765 0.84788 0.0
H118 H 0.60926 0.29288 0.76624 0.0
H119 H 0.57579 0.3533 0.77648 0.0
H120 H 0.55654 0.05515 0.13673 0.0
H121 H 0.70374 0.16079 0.235 0.0
H122 H 0.50284 0.97404 0.23906 0.0
H123 H 0.72658 0.23874 0.20956 0.0
C124 C 0.73531 0.23125 0.18139 0.0
C125 C 0.57027 0.05872 0.1656 0.0
C126 C 0.52127 1.00648 0.1856 0.0
C127 C 0.63645 0.11589 0.18334 0.0
C128 C 0.65298 0.11892 0.22088 0.0
C129 C 0.60459 0.06828 0.2409 0.0
C130 C 0.53972 1.0128 0.22319 0.0
N131 N 0.68654 0.16931 0.16361 0.0
H132 H 0.63778 0.5562 0.51512 0.0
H133 H 0.65646 0.64098 0.62177 0.0
H134 H 0.60204 0.46969 0.6123 0.0
H135 H 0.63511 0.6213 0.49261 0.0
C136 C 0.64968 0.65588 0.51401 0.0
C137 C 0.63539 0.55657 0.5447 0.0
C138 C 0.61973 0.50836 0.56131 0.0
C139 C 0.64821 0.6045 0.56658 0.0
C140 C 0.6465 0.6041 0.6049 0.0
C141 C 0.62874 0.55523 0.6215 0.0
C142 C 0.61568 0.50759 0.59958 0.0
N143 N 0.66138 0.65332 0.55155 0.0
H144 H 1.03926 0.51691 0.81752 0.0
H145 H 0.14654 0.5395 0.92134 0.0
H146 H 0.97216 0.53901 0.92272 0.0
H147 H 0.19479 0.50511 0.89554 0.0
C148 C 0.20597 0.51535 0.86723 0.0
C149 C 1.04429 0.5225 0.8473 0.0
C150 C 0.99438 0.52811 0.86735 0.0
C151 C 0.10166 0.52513 0.8664 0.0
C152 C 0.10578 0.53461 0.90509 0.0
C153 C 1.06001 0.54 0.92419 0.0
C154 C 1.00587 0.53542 0.90584 0.0
N155 N 0.15541 0.52116 0.84874 0.0
H156 H 0.20847 0.65133 0.48196 0.0
H157 H 1.07626 0.53305 0.38238 0.0
H158 H 0.26432 0.72376 0.37663 0.0
H159 H 0.98049 0.48677 0.42405 0.0
C160 C 1.00791 0.48088 0.44367 0.0
C161 C 0.19668 0.6448 0.45249 0.0
C162 C 0.24451 0.69564 0.43133 0.0
C163 C 0.13333 0.58549 0.43521 0.0
C164 C 0.12131 0.57797 0.39661 0.0
C165 C 0.16848 0.62759 0.37573 0.0
C166 C 0.22831 0.68585 0.39321 0.0
N167 N 0.08433 0.5333 0.45596 0.0
H168 H 0.62703 0.0617 0.7954 0.0
H169 H 0.67273 0.01858 0.69053 0.0
H170 H 0.6151 0.12634 0.69744 0.0
H171 H 0.64768 0.94292 0.71759 0.0
C172 C 0.66323 0.95758 0.7468 0.0
C173 C 0.63269 0.06518 0.76606 0.0
C174 C 0.62011 0.09826 0.74887 0.0
C175 C 0.65071 0.03525 0.74544 0.0
C176 C 0.65771 0.04008 0.70714 0.0
C177 C 0.64462 0.0728 0.68979 0.0
C178 C 0.62615 0.10178 0.71085 0.0
N179 N 0.66101 1.0009 0.76414 0.0
H180 H 0.38918 0.30371 0.13015 0.0
H181 H 0.53099 0.341 0.04321 0.0
H182 H 0.44631 0.42893 0.0535 0.0
H183 H 0.41403 0.24184 0.15225 0.0
C184 C 0.46767 0.27227 0.14055 0.0
C185 C 0.41941 0.32784 0.10674 0.0
C186 C 0.41445 0.36798 0.09416 0.0
C187 C 0.46242 0.31854 0.08886 0.0
C188 C 0.49868 0.34867 0.05751 0.0
C189 C 0.4929 0.38871 0.04473 0.0
C190 C 0.45114 0.39829 0.06335 0.0
N191 N 0.47046 0.27989 0.10246 0.0
C192 C 0.37289 0.45116 0.15183 0.0
C193 C 0.30981 0.42972 0.1305 0.0
C194 C 0.29944 0.34937 0.0976 0.0
C195 C 0.37123 0.37966 0.11297 0.0
N196 N 0.47608 0.45676 0.15594 0.0
N197 N 0.20801 0.35604 0.08537 0.0
C198 C 0.40715 0.42887 0.14123 0.0
C199 C 0.27033 0.37696 0.10468 0.0
N200 N 0.40053 0.49385 0.18148 0.0
N201 N 0.26055 0.29526 0.07568 0.0
H202 H 0.18414 0.37421 0.091 0.0
H203 H 0.18145 0.32239 0.06303 0.0
H204 H 0.2816 0.27472 0.07005 0.0
H205 H 0.20563 0.26826 0.06569 0.0
H206 H 0.44313 0.50826 0.19998 0.0
H207 H 0.37585 0.51074 0.18939 0.0
H208 H 0.50914 0.49735 0.1735 0.0
H209 H 0.50193 0.4406 0.14913 0.0
C210 C 0.90695 0.31248 0.44884 0.0
C211 C 0.84344 0.29055 0.46838 0.0
C212 C 0.89464 0.39673 0.47659 0.0
C213 C 0.95912 0.41876 0.45837 0.0
N214 N 1.03343 0.39922 0.43419 0.0
N215 N 0.78838 0.31637 0.50903 0.0
C216 C 0.96766 0.37715 0.44722 0.0
C217 C 0.84083 0.33416 0.48465 0.0
N218 N 0.90728 0.27166 0.42916 0.0
N219 N 0.8839 0.43554 0.48569 0.0
H220 H 0.75042 0.27209 0.51689 0.0
H221 H 0.78737 0.34676 0.5244 0.0
H222 H 0.92391 0.48224 0.48257 0.0
H223 H 0.83395 0.42085 0.49443 0.0
H224 H 0.94754 0.28449 0.411 0.0
H225 H 0.86372 0.2244 0.42797 0.0
H226 H 1.0465 0.37261 0.42925 0.0
H227 H 1.07774 0.4456 0.4316 0.0
C228 C 0.63624 0.82446 0.77677 0.0
C229 C 0.69495 0.85453 0.80451 0.0
C230 C 0.73408 0.9532 0.79461 0.0
C231 C 0.67213 0.92244 0.76882 0.0
N232 N 0.55449 0.82706 0.74217 0.0
N233 N 0.7896 0.94519 0.84544 0.0
C234 C 0.62029 0.85751 0.76196 0.0
C235 C 0.74066 0.91823 0.8152 0.0
N236 N 0.59776 0.76507 0.76322 0.0
N237 N 0.78908 0.0157 0.79794 0.0
H238 H 0.79547 0.92089 0.86126 0.0
H239 H 0.819 0.98998 0.85682 0.0
H240 H 0.78799 0.04307 0.78256 0.0
H241 H 0.83922 0.04013 0.81333 0.0
H242 H 0.56014 0.74312 0.74022 0.0
H243 H 0.60811 0.73924 0.77274 0.0
H244 H 0.51131 0.77954 0.73955 0.0
H245 H 0.5398 0.84938 0.73161 0.0
C246 C 0.66928 0.38221 0.17388 0.0
C247 C 0.67877 0.43377 0.18536 0.0
C248 C 0.544 0.3677 0.18468 0.0
C249 C 0.53597 0.32065 0.16453 0.0
N250 N 0.58778 0.27864 0.14334 0.0
N251 N 0.62698 0.47657 0.20511 0.0
C252 C 0.59766 0.32621 0.16079 0.0
C253 C 0.61654 0.42665 0.19249 0.0
N254 N 0.7288 0.38708 0.17562 0.0
N255 N 0.48254 0.3559 0.19594 0.0
H256 H 0.67965 0.51989 0.2118 0.0
H257 H 0.58405 0.47577 0.20765 0.0
H258 H 0.4294 0.31232 0.19155 0.0
H259 H 0.48468 0.3871 0.21269 0.0
H260 H 0.72388 0.3495 0.17156 0.0
H261 H 0.78224 0.42794 0.18479 0.0
H262 H 0.63135 0.28224 0.13555 0.0
H263 H 0.53519 0.23576 0.13554 0.0
C264 C 0.37705 0.86585 0.47128 0.0
C265 C 0.44379 0.8894 0.45471 0.0
C266 C 0.38427 0.78254 0.43539 0.0
C267 C 0.31447 0.75988 0.44657 0.0
N268 N 0.2433 0.7817 0.47259 0.0
N269 N 0.50506 0.86838 0.4153 0.0
C270 C 0.31075 0.80204 0.46412 0.0
C271 C 0.4461 0.84715 0.43562 0.0
N272 N 0.37732 0.90395 0.49491 0.0
N273 N 0.39122 0.74186 0.42422 0.0
H274 H 0.54931 0.91478 0.41288 0.0
H275 H 0.50655 0.83988 0.39781 0.0
H276 H 0.34718 0.69458 0.42396 0.0
H277 H 0.44199 0.7551 0.419 0.0
H278 H 0.33302 0.88849 0.51074 0.0
H279 H 0.42446 0.95021 0.50147 0.0
H280 H 0.23523 0.81095 0.48109 0.0
H281 H 0.19441 0.7355 0.46889 0.0
C282 C 0.502 0.13336 0.77603 0.0
C283 C 0.55503 0.1913 0.7971 0.0
C284 C 0.64993 0.18548 0.7902 0.0
C285 C 0.59645 0.12709 0.76976 0.0
N286 N 0.4683 0.03893 0.75089 0.0
N287 N 0.67374 0.26613 0.83136 0.0
C288 C 0.52128 0.09889 0.7653 0.0
C289 C 0.62726 0.21526 0.80651 0.0
N290 N 0.43475 0.11279 0.76437 0.0
N291 N 0.72293 0.2137 0.79258 0.0
H292 H 0.65859 0.28883 0.84377 0.0
H293 H 0.7244 0.28264 0.84211 0.0
H294 H 0.74125 0.19274 0.78169 0.0
H295 H 0.76592 0.25919 0.80323 0.0
H296 H 0.39746 0.07457 0.74533 0.0
H297 H 0.41825 0.1365 0.77143 0.0
H298 H 0.41152 0.01381 0.75031 0.0
H299 H 0.48075 1.01252 0.74267 0.0
C300 C 0.64169 0.77878 0.52134 0.0
C301 C 0.68702 0.81419 0.49284 0.0
C302 C 0.70488 0.74365 0.47638 0.0
C303 C 0.65756 0.70726 0.50416 0.0
N304 N 0.56358 0.67997 0.54503 0.0
N305 N 0.7486 0.82412 0.43821 0.0
C306 C 0.62077 0.7218 0.5243 0.0
C307 C 0.71447 0.7946 0.46872 0.0
N308 N 0.62071 0.80049 0.54639 0.0
N309 N 0.74345 0.73146 0.45858 0.0
H310 H 0.75681 0.86179 0.43196 0.0
H311 H 0.76295 0.80824 0.41751 0.0
H312 H 0.73761 0.69436 0.46316 0.0
H313 H 0.78523 0.76052 0.44119 0.0
H314 H 0.59495 0.77988 0.57016 0.0
H315 H 0.6344 0.84191 0.54512 0.0
H316 H 0.5301 0.68573 0.55753 0.0
H317 H 0.54411 0.63639 0.54633 0.0
C318 C 0.86951 0.57209 0.87203 0.0
C319 C 0.80112 0.52603 0.84907 0.0
C320 C 0.86065 0.48053 0.83434 0.0
C321 C 0.93136 0.53009 0.85441 0.0
N322 N 1.00287 0.63257 0.88357 0.0
N323 N 0.74766 0.44334 0.80075 0.0
C324 C 0.93487 0.57832 0.87022 0.0
C325 C 0.80177 0.48234 0.82828 0.0
N326 N 0.87197 0.60876 0.89832 0.0
N327 N 0.8478 0.42974 0.82137 0.0
H328 H 0.70852 0.44536 0.79332 0.0
H329 H 0.74729 0.41448 0.7824 0.0
H330 H 0.88819 0.42746 0.8242 0.0
H331 H 0.79602 0.38903 0.81038 0.0
H332 H 0.91598 0.63856 0.91823 0.0
H333 H 0.82633 0.60354 0.90366 0.0
H334 H 1.0125 0.6718 0.89196 0.0
H335 H 1.05104 0.64011 0.88203 0.0
C336 C 0.31925 0.8562 0.1838 0.0
C337 C 0.31506 0.81623 0.15698 0.0
C338 C 0.44587 0.90423 0.14436 0.0
C339 C 0.44818 0.94445 0.16969 0.0
N340 N 0.37834 0.9607 0.20455 0.0
N341 N 0.36916 0.8085 0.10427 0.0
C342 C 0.38163 0.92091 0.18616 0.0
C343 C 0.37685 0.84223 0.13497 0.0
N344 N 0.26708 0.83269 0.2092 0.0
N345 N 0.51 0.92397 0.13046 0.0
H346 H 0.31893 0.76455 0.0954 0.0
H347 H 0.40992 0.82668 0.08543 0.0
H348 H 0.5611 0.96866 0.13629 0.0
H349 H 0.51325 0.89471 0.11537 0.0
H350 H 0.27189 0.85961 0.23148 0.0
H351 H 0.22367 0.78593 0.21084 0.0
H352 H 0.32944 0.94694 0.21435 0.0
H353 H 0.42263 1.00816 0.20636 0.0
C354 C 0.65121 0.41456 0.50545 0.0
C355 C 0.57946 0.35497 0.50505 0.0
C356 C 0.53194 0.39885 0.53396 0.0
C357 C 0.60547 0.45707 0.53889 0.0
N358 N 0.7369 0.52013 0.53291 0.0
N359 N 0.45317 0.28887 0.52314 0.0
C360 C 0.66568 0.46506 0.52536 0.0
C361 C 0.52 0.34666 0.52018 0.0
N362 N 0.70505 0.4229 0.48624 0.0
N363 N 0.47347 0.3937 0.54204 0.0
H364 H 0.44213 0.24929 0.51371 0.0
H365 H 0.41064 0.28004 0.53771 0.0
H366 H 0.48034 0.43112 0.55218 0.0
H367 H 0.41817 0.35369 0.53552 0.0
H368 H 0.75617 0.46587 0.48244 0.0
H369 H 0.69618 0.38689 0.47125 0.0
H370 H 0.78356 0.52672 0.52756 0.0
H371 H 0.74971 0.55841 0.54704 0.0
C372 C 0.32872 0.46908 0.86705 0.0
C373 C 0.39635 0.51349 0.84878 0.0
C374 C 0.33771 0.55959 0.83898 0.0
C375 C 0.2678 0.5117 0.85418 0.0
N376 N 0.19742 0.41293 0.87585 0.0
N377 N 0.4533 0.59802 0.81209 0.0
C378 C 0.2645 0.46464 0.86598 0.0
C379 C 0.39684 0.5577 0.83346 0.0
N380 N 0.32663 0.43265 0.88855 0.0
N381 N 0.34987 0.60946 0.83088 0.0
H382 H 0.4963 0.59959 0.80714 0.0
H383 H 0.45409 0.62619 0.79653 0.0
H384 H 0.30897 0.61133 0.83321 0.0
H385 H 0.40133 0.65002 0.82453 0.0
H386 H 0.28451 0.40464 0.90606 0.0
H387 H 0.37142 0.43623 0.89271 0.0
H388 H 0.18655 0.37358 0.88052 0.0
H389 H 0.15021 0.40689 0.87516 0.0
C390 C 0.86127 0.38017 0.13555 0.0
C391 C 0.93222 0.41213 0.15386 0.0
C392 C 0.87536 0.31908 0.18457 0.0
C393 C 0.805 0.28741 0.1661 0.0
N394 N 0.73669 0.28232 0.11652 0.0
N395 N 1.00904 0.40453 0.18845 0.0
C396 C 0.80007 0.31619 0.13902 0.0
C397 C 0.93998 0.37907 0.17586 0.0
N398 N 0.8513 0.41118 0.11555 0.0
N399 N 0.88021 0.29226 0.21137 0.0
H400 H 1.05744 0.4479 0.18316 0.0
H401 H 1.0191 0.3805 0.20117 0.0
H402 H 0.83593 0.24707 0.21658 0.0
H403 H 0.92673 0.31556 0.22958 0.0
H404 H 0.79944 0.39283 0.10531 0.0
H405 H 0.89435 0.45686 0.11118 0.0
H406 H 0.7316 0.29842 0.09374 0.0
H407 H 0.69128 0.23604 0.1188 0.0
C408 C 0.11582 0.62449 0.02055 0.0
C409 C 1.07029 0.57479 0.04248 0.0
C410 C 1.01945 0.50189 0.98657 0.0
C411 C 1.06843 0.5515 0.96525 0.0
N412 N 0.17186 0.6594 0.96225 0.0
N413 N 0.98759 0.46601 0.04695 0.0
C414 C 0.11966 0.61259 0.98245 0.0
C415 C 1.02444 0.51342 0.02561 0.0
N416 N 0.15124 0.68274 0.03534 0.0
N417 N 0.96681 0.44366 0.96936 0.0
H418 H 0.98909 0.47217 0.07543 0.0
H419 H 0.96051 0.42118 0.03686 0.0
H420 H 0.96409 0.43292 0.94111 0.0
H421 H 0.92301 0.40653 0.98259 0.0
H422 H 0.1787 0.71974 0.01982 0.0
H423 H 0.14696 0.69349 0.06243 0.0
H424 H 0.21615 0.70396 0.97392 0.0
H425 H 0.17465 0.65274 0.93406 0.0
C426 C 0.64274 0.04 0.3337 0.0
C427 C 0.65088 0.08436 0.35773 0.0
C428 C 0.62149 0.11356 0.30582 0.0
C429 C 0.62077 0.07375 0.28119 0.0
N430 N 0.6444 1.00734 0.271 0.0
N431 N 0.66606 0.1734 0.36526 0.0
C432 C 0.63503 0.03906 0.29494 0.0
C433 C 0.6454 0.12404 0.34341 0.0
N434 N 0.64147 0.99829 0.3479 0.0
N435 N 0.59687 0.13977 0.29367 0.0
H436 H 0.68653 0.18373 0.39252 0.0
H437 H 0.67023 0.20734 0.35531 0.0
H438 H 0.57705 0.13212 0.26653 0.0
H439 H 0.58919 0.16414 0.31131 0.0
H440 H 0.62737 0.96064 0.33207 0.0
H441 H 0.64886 0.99855 0.37606 0.0
H442 H 0.66238 0.98637 0.27939 0.0
H443 H 0.64093 1.0067 0.24247 0.0
C444 C 0.65257 0.53543 0.71956 0.0
C445 C 0.59869 0.53302 0.73712 0.0
C446 C 0.56331 0.54442 0.6783 0.0
C447 C 0.6218 0.55264 0.66189 0.0
N448 N 0.7342 0.57224 0.66957 0.0
N449 N 0.51414 0.54857 0.73474 0.0
C450 C 0.67059 0.55373 0.68349 0.0
C451 C 0.5578 0.54192 0.71695 0.0
N452 N 0.68217 0.51543 0.73557 0.0
N453 N 0.51055 0.5356 0.65688 0.0
H454 H 0.50864 0.5469 0.76303 0.0
H455 H 0.48922 0.5615 0.72208 0.0
H456 H 0.51111 0.5354 0.62832 0.0
H457 H 0.46238 0.52276 0.66707 0.0
H458 H 0.71615 0.51113 0.72198 0.0
H459 H 0.666 0.49572 0.76024 0.0
H460 H 0.77518 0.57944 0.6855 0.0
H461 H 0.74947 0.58648 0.64328 0.0
C462 C 0.5851 0.02662 0.58711 0.0
C463 C 0.63584 0.08474 0.57321 0.0
C464 C 0.70352 0.13054 0.63423 0.0
C465 C 0.64594 0.07473 0.64906 0.0
N466 N 0.52654 0.97106 0.64034 0.0
N467 N 0.73905 0.19437 0.58534 0.0
C468 C 0.58551 0.02297 0.62566 0.0
C469 C 0.69469 0.13735 0.59708 0.0
N470 N 0.53761 0.97443 0.56336 0.0
N471 N 0.76679 0.17703 0.65574 0.0
H472 H 0.7337 0.2022 0.55891 0.0
H473 H 0.77703 0.23468 0.60283 0.0
H474 H 0.77465 0.17341 0.68304 0.0
H475 H 0.81393 0.21657 0.64558 0.0
H476 H 0.50478 0.93052 0.57153 0.0
H477 H 0.53681 0.97488 0.53493 0.0
H478 H 0.47694 0.93477 0.62511 0.0
H479 H 0.52454 0.96605 0.66838 0.0
C480 C 0.61589 0.51227 0.98005 0.0
C481 C 0.56624 0.4835 0.94805 0.0
C482 C 0.4808 0.38765 0.97706 0.0
C483 C 0.52538 0.41851 0.01044 0.0
N484 N 0.63314 0.51084 0.04534 0.0
N485 N 0.44623 0.39634 0.9183 0.0
C486 C 0.59264 0.48104 0.01236 0.0
C487 C 0.49763 0.42167 0.94705 0.0
N488 N 0.68589 0.5685 0.97921 0.0
N489 N 0.42188 0.32561 0.97405 0.0
H490 H 0.4568 0.41964 0.89582 0.0
H491 H 0.39157 0.35457 0.91804 0.0
H492 H 0.40679 0.29926 -0.00424 0.0
H493 H 0.39224 0.29946 0.94917 0.0
H494 H 0.72722 0.58914 0.00029 0.0
H495 H 0.70471 0.59264 0.9561 0.0
H496 H 0.67769 0.55807 0.0498 0.0
H497 H 0.61962 0.4884 0.06892 0.0
C498 C 0.20945 0.62688 0.2752 0.0
C499 C 0.14376 0.60618 0.25698 0.0
C500 C 0.09662 0.6046 0.31679 0.0
C501 C 0.15835 0.61842 0.3348 0.0
N502 N 0.2659 0.63036 0.33085 0.0
N503 N 1.01918 0.56546 0.26034 0.0
C504 C 0.21265 0.62603 0.3139 0.0
C505 C 0.08572 0.59237 0.27774 0.0
N506 N 0.26985 0.64933 0.25574 0.0
N507 N 1.0497 0.60502 0.33685 0.0
H508 H 1.00918 0.55546 0.2319 0.0
H509 H 0.97217 0.54837 0.27422 0.0
H510 H 1.05602 0.61396 0.36548 0.0
H511 H 1.00849 0.60178 0.32491 0.0
H512 H 0.3216 0.67074 0.2682 0.0
H513 H 0.27065 0.65245 0.22747 0.0
H514 H 0.30212 0.62961 0.31646 0.0
H515 H 0.26918 0.6285 0.35909 0.0
loop_
_geom_bond_atom_site_label_1
_geom_bond_atom_site_label_2
_geom_bond_distance
_geom_bond_site_symmetry_2
_ccdc_geom_bond_type
Sm0 C2 2.846 . S
Sm0 O20 2.543 . S
Sm0 O21 2.450 . S
Sm0 O22 2.681 . S
Sm0 O23 2.464 . S
Sm0 O24 2.396 . S
Sm0 O28 2.386 . S
Sm0 O31 2.408 1_455 S
Sm1 C11 2.846 1_455 S
Sm1 O22 2.386 . S
Sm1 O25 2.408 . S
Sm1 O26 2.543 1_455 S
Sm1 O27 2.450 1_455 S
Sm1 O28 2.681 . S
Sm1 O29 2.464 . S
Sm1 O30 2.396 1_455 S
C2 Sm0 2.846 . S
C2 C3 1.506 . S
C2 O20 1.261 . S
C2 O21 1.242 . S
C3 C2 1.506 . S
C3 C4 1.358 . S
C3 C8 1.382 . S
C4 C3 1.358 . S
C4 C5 1.385 . S
C4 H32 0.930 . S
C5 C4 1.385 . S
C5 C6 1.395 . S
C5 H33 0.929 . S
C6 C5 1.395 . S
C6 C7 1.335 . S
C7 C6 1.335 . S
C7 C8 1.398 . S
C7 H34 0.930 . S
C8 C3 1.382 . S
C8 C7 1.398 . S
C8 H35 0.929 . S
C9 O22 1.271 . S
C9 O23 1.251 . S
C10 O24 1.252 . S
C10 O25 1.272 . S
C11 Sm1 2.846 1_655 S
C11 C12 1.506 . S
C11 O26 1.261 . S
C11 O27 1.242 . S
C12 C11 1.506 . S
C12 C13 1.358 . S
C12 C17 1.382 . S
C13 C12 1.358 . S
C13 C14 1.385 . S
C13 H36 0.930 . S
C14 C13 1.385 . S
C14 C15 1.395 . S
C14 H37 0.929 . S
C15 C14 1.395 . S
C15 C16 1.335 . S
C16 C15 1.335 . S
C16 C17 1.398 . S
C16 H38 0.930 . S
C17 C12 1.382 . S
C17 C16 1.398 . S
C17 H39 0.929 . S
C18 O28 1.271 . S
C18 O29 1.251 . S
C19 O30 1.252 . S
C19 O31 1.272 . S
O20 Sm0 2.543 . S
O20 C2 1.261 . S
O21 Sm0 2.450 . S
O21 C2 1.242 . S
O22 Sm0 2.681 . S
O22 Sm1 2.386 . S
O22 C9 1.271 . S
O23 Sm0 2.464 . S
O23 C9 1.251 . S
O24 Sm0 2.396 . S
O24 C10 1.252 . S
O25 Sm1 2.408 . S
O25 C10 1.272 . S
O26 Sm1 2.543 1_655 S
O26 C11 1.261 . S
O27 Sm1 2.450 1_655 S
O27 C11 1.242 . S
O28 Sm0 2.386 . S
O28 Sm1 2.681 . S
O28 C18 1.271 . S
O29 Sm1 2.464 . S
O29 C18 1.251 . S
O30 Sm1 2.396 1_655 S
O30 C19 1.252 . S
O31 Sm0 2.408 1_655 S
O31 C19 1.272 . S
H32 C4 0.930 . S
H33 C5 0.929 . S
H34 C7 0.930 . S
H35 C8 0.929 . S
H36 C13 0.930 . S
H37 C14 0.929 . S
H38 C16 0.930 . S
H39 C17 0.929 . S
Sm40 C42 2.846 1_545 S
Sm40 O60 2.543 1_545 S
Sm40 O61 2.450 1_545 S
Sm40 O62 2.681 . S
Sm40 O63 2.464 . S
Sm40 O64 2.396 1_545 S
Sm40 O68 2.386 . S
Sm40 O71 2.408 . S
Sm41 C51 2.846 . S
Sm41 O62 2.386 . S
Sm41 O65 2.408 1_545 S
Sm41 O66 2.543 . S
Sm41 O67 2.450 . S
Sm41 O68 2.681 . S
Sm41 O69 2.464 . S
Sm41 O70 2.396 . S
C42 Sm40 2.846 1_565 S
C42 C43 1.506 . S
C42 O60 1.261 . S
C42 O61 1.242 . S
C43 C42 1.506 . S
C43 C44 1.358 . S
C43 C48 1.382 . S
C44 C43 1.358 . S
C44 C45 1.385 . S
C44 H72 0.930 . S
C45 C44 1.385 . S
C45 C46 1.395 . S
C45 H73 0.929 . S
C46 C45 1.395 . S
C46 C47 1.335 . S
C47 C46 1.335 . S
C47 C48 1.398 . S
C47 H74 0.930 . S
C48 C43 1.382 . S
C48 C47 1.398 . S
C48 H75 0.929 . S
C49 O62 1.271 . S
C49 O63 1.251 . S
C50 O64 1.252 . S
C50 O65 1.272 . S
C51 Sm41 2.846 . S
C51 C52 1.506 . S
C51 O66 1.261 . S
C51 O67 1.242 . S
C52 C51 1.506 . S
C52 C53 1.358 . S
C52 C57 1.382 . S
C53 C52 1.358 . S
C53 C54 1.385 . S
C53 H76 0.930 . S
C54 C53 1.385 . S
C54 C55 1.395 . S
C54 H77 0.929 . S
C55 C54 1.395 . S
C55 C56 1.335 . S
C56 C55 1.335 . S
C56 C57 1.398 . S
C56 H78 0.930 . S
C57 C52 1.382 . S
C57 C56 1.398 . S
C57 H79 0.929 . S
C58 O68 1.271 . S
C58 O69 1.251 . S
C59 O70 1.252 . S
C59 O71 1.272 . S
O60 Sm40 2.543 1_565 S
O60 C42 1.261 . S
O61 Sm40 2.450 1_565 S
O61 C42 1.242 . S
O62 Sm40 2.681 . S
O62 Sm41 2.386 . S
O62 C49 1.271 . S
O63 Sm40 2.464 . S
O63 C49 1.251 . S
O64 Sm40 2.396 1_565 S
O64 C50 1.252 . S
O65 Sm41 2.408 1_565 S
O65 C50 1.272 . S
O66 Sm41 2.543 . S
O66 C51 1.261 . S
O67 Sm41 2.450 . S
O67 C51 1.242 . S
O68 Sm40 2.386 . S
O68 Sm41 2.681 . S
O68 C58 1.271 . S
O69 Sm41 2.464 . S
O69 C58 1.251 . S
O70 Sm41 2.396 . S
O70 C59 1.252 . S
O71 Sm40 2.408 . S
O71 C59 1.272 . S
H72 C44 0.930 . S
H73 C45 0.929 . S
H74 C47 0.930 . S
H75 C48 0.929 . S
H76 C53 0.930 . S
H77 C54 0.929 . S
H78 C56 0.930 . S
H79 C57 0.929 . S
Sm80 C82 2.846 . S
Sm80 O100 2.543 . S
Sm80 O101 2.450 . S
Sm80 O102 2.681 . S
Sm80 O103 2.464 . S
Sm80 O104 2.396 . S
Sm80 O108 2.386 . S
Sm80 O111 2.408 . S
Sm81 C91 2.846 . S
Sm81 O102 2.386 . S
Sm81 O105 2.408 . S
Sm81 O106 2.543 . S
Sm81 O107 2.450 . S
Sm81 O108 2.681 . S
Sm81 O109 2.464 . S
Sm81 O110 2.396 . S
C82 Sm80 2.846 . S
C82 C83 1.506 . S
C82 O100 1.261 . S
C82 O101 1.242 . S
C83 C82 1.506 . S
C83 C84 1.358 . S
C83 C88 1.382 . S
C84 C83 1.358 . S
C84 C85 1.385 . S
C84 H112 0.930 . S
C85 C84 1.385 . S
C85 C86 1.395 . S
C85 H113 0.929 . S
C86 C85 1.395 . S
C86 C87 1.335 . S
C87 C86 1.335 . S
C87 C88 1.398 . S
C87 H114 0.930 . S
C88 C83 1.382 . S
C88 C87 1.398 . S
C88 H115 0.929 . S
C89 O102 1.271 . S
C89 O103 1.251 . S
C90 O104 1.252 . S
C90 O105 1.272 . S
C91 Sm81 2.846 . S
C91 C92 1.506 . S
C91 O106 1.261 . S
C91 O107 1.242 . S
C92 C91 1.506 . S
C92 C93 1.358 . S
C92 C97 1.382 . S
C93 C92 1.358 . S
C93 C94 1.385 . S
C93 H116 0.930 . S
C94 C93 1.385 . S
C94 C95 1.395 . S
C94 H117 0.929 . S
C95 C94 1.395 . S
C95 C96 1.335 . S
C96 C95 1.335 . S
C96 C97 1.398 . S
C96 H118 0.930 . S
C97 C92 1.382 . S
C97 C96 1.398 . S
C97 H119 0.929 . S
C98 O108 1.271 . S
C98 O109 1.251 . S
C99 O110 1.252 . S
C99 O111 1.272 . S
O100 Sm80 2.543 . S
O100 C82 1.261 . S
O101 Sm80 2.450 . S
O101 C82 1.242 . S
O102 Sm80 2.681 . S
O102 Sm81 2.386 . S
O102 C89 1.271 . S
O103 Sm80 2.464 . S
O103 C89 1.251 . S
O104 Sm80 2.396 . S
O104 C90 1.252 . S
O105 Sm81 2.408 . S
O105 C90 1.272 . S
O106 Sm81 2.543 . S
O106 C91 1.261 . S
O107 Sm81 2.450 . S
O107 C91 1.242 . S
O108 Sm80 2.386 . S
O108 Sm81 2.681 . S
O108 C98 1.271 . S
O109 Sm81 2.464 . S
O109 C98 1.251 . S
O110 Sm81 2.396 . S
O110 C99 1.252 . S
O111 Sm80 2.408 . S
O111 C99 1.272 . S
H112 C84 0.930 . S
H113 C85 0.929 . S
H114 C87 0.930 . S
H115 C88 0.929 . S
H116 C93 0.930 . S
H117 C94 0.929 . S
H118 C96 0.930 . S
H119 C97 0.929 . S
H120 C125 0.930 . S
H121 C128 0.930 . S
H122 C130 0.930 . S
H123 C124 1.016 . S
C124 H123 1.016 . S
C124 N131 1.286 . S
C125 H120 0.930 . S
C125 C126 1.397 1_545 S
C125 C127 1.361 . S
C126 C125 1.397 1_565 S
C126 C130 1.390 . S
C127 C125 1.361 . S
C127 C128 1.393 . S
C127 N131 1.413 . S
C128 H121 0.930 . S
C128 C127 1.393 . S
C128 C129 1.399 . S
C129 C128 1.399 . S
C129 C130 1.381 1_545 S
C130 H122 0.930 . S
C130 C126 1.390 . S
C130 C129 1.381 1_565 S
N131 C124 1.286 . S
N131 C127 1.413 . S
H132 C137 0.930 . S
H133 C140 0.930 . S
H134 C142 0.930 . S
H135 C136 1.016 . S
C136 H135 1.016 . S
C136 N143 1.286 . S
C137 H132 0.930 . S
C137 C138 1.397 . S
C137 C139 1.361 . S
C138 C137 1.397 . S
C138 C142 1.390 . S
C139 C137 1.361 . S
C139 C140 1.393 . S
C139 N143 1.413 . S
C140 H133 0.930 . S
C140 C139 1.393 . S
C140 C141 1.399 . S
C141 C140 1.399 . S
C141 C142 1.381 . S
C142 H134 0.930 . S
C142 C138 1.390 . S
C142 C141 1.381 . S
N143 C136 1.286 . S
N143 C139 1.413 . S
H144 C149 0.928 1_655 S
H145 C152 0.930 . S
H146 C154 0.930 . S
H147 C148 1.016 . S
C148 H147 1.016 . S
C148 N155 1.286 . S
C149 H144 0.928 1_455 S
C149 C150 1.379 1_455 S
C149 C151 1.382 . S
C150 C149 1.379 1_655 S
C150 C154 1.390 . S
C151 C149 1.382 . S
C151 C152 1.393 . S
C151 N155 1.413 . S
C152 H145 0.930 . S
C152 C151 1.393 . S
C152 C153 1.399 . S
C153 C152 1.399 . S
C153 C154 1.381 1_455 S
C154 H146 0.930 . S
C154 C150 1.390 . S
C154 C153 1.381 1_655 S
N155 C148 1.286 . S
N155 C151 1.413 . S
H156 C161 0.930 . S
H157 C164 0.930 . S
H158 C166 0.930 . S
H159 C160 1.016 . S
C160 H159 1.016 . S
C160 N167 1.286 . S
C161 H156 0.930 . S
C161 C162 1.397 . S
C161 C163 1.361 1_455 S
C162 C161 1.397 . S
C162 C166 1.390 . S
C163 C161 1.361 1_655 S
C163 C164 1.393 . S
C163 N167 1.413 . S
C164 H157 0.930 . S
C164 C163 1.393 . S
C164 C165 1.399 1_655 S
C165 C164 1.399 1_455 S
C165 C166 1.381 . S
C166 H158 0.930 . S
C166 C162 1.390 . S
C166 C165 1.381 . S
N167 C160 1.286 . S
N167 C163 1.413 . S
H168 C173 0.930 . S
H169 C176 0.930 1_565 S
H170 C178 0.930 . S
H171 C172 1.016 . S
C172 H171 1.016 . S
C172 N179 1.286 . S
C173 H168 0.930 . S
C173 C174 1.397 . S
C173 C175 1.361 . S
C174 C173 1.397 . S
C174 C178 1.390 . S
C175 C173 1.361 . S
C175 C176 1.393 . S
C175 N179 1.413 1_545 S
C176 H169 0.930 1_545 S
C176 C175 1.393 . S
C176 C177 1.399 . S
C177 C176 1.399 . S
C177 C178 1.381 . S
C178 H170 0.930 . S
C178 C174 1.390 . S
C178 C177 1.381 . S
N179 C172 1.286 . S
N179 C175 1.413 1_565 S
H180 C185 0.930 . S
H181 C188 0.930 . S
H182 C190 0.930 . S
H183 C184 1.016 . S
C184 H183 1.016 . S
C184 N191 1.286 . S
C185 H180 0.930 . S
C185 C186 1.397 . S
C185 C187 1.361 . S
C186 C185 1.397 . S
C186 C190 1.390 . S
C187 C185 1.361 . S
C187 C188 1.393 . S
C187 N191 1.413 . S
C188 H181 0.930 . S
C188 C187 1.393 . S
C188 C189 1.399 . S
C189 C188 1.399 . S
C189 C190 1.381 . S
C190 H182 0.930 . S
C190 C186 1.390 . S
C190 C189 1.381 . S
N191 C184 1.286 . S
N191 C187 1.413 . S
C192 C193 1.363 . S
C192 C198 1.379 . S
C192 N200 1.356 . S
C193 C192 1.363 . S
C193 C199 1.363 . S
C194 C195 1.363 . S
C194 C199 1.379 . S
C194 N201 1.356 . S
C195 C194 1.363 . S
C195 C198 1.363 . S
N196 C198 1.356 . S
N196 H208 0.984 . S
N196 H209 0.985 . S
N197 C199 1.356 . S
N197 H202 0.984 . S
N197 H203 0.985 . S
C198 C192 1.379 . S
C198 C195 1.363 . S
C198 N196 1.356 . S
C199 C193 1.363 . S
C199 C194 1.379 . S
C199 N197 1.356 . S
N200 C192 1.356 . S
N200 H206 0.984 . S
N200 H207 0.984 . S
N201 C194 1.356 . S
N201 H204 0.984 . S
N201 H205 0.985 . S
H202 N197 0.984 . S
H203 N197 0.985 . S
H204 N201 0.984 . S
H205 N201 0.985 . S
H206 N200 0.984 . S
H207 N200 0.984 . S
H208 N196 0.984 . S
H209 N196 0.985 . S
C210 C211 1.363 . S
C210 C216 1.379 . S
C210 N218 1.356 . S
C211 C210 1.363 . S
C211 C217 1.363 . S
C212 C213 1.363 . S
C212 C217 1.379 . S
C212 N219 1.356 . S
C213 C212 1.363 . S
C213 C216 1.363 . S
N214 C216 1.356 . S
N214 H226 0.984 . S
N214 H227 0.985 . S
N215 C217 1.356 . S
N215 H220 0.984 . S
N215 H221 0.985 . S
C216 C210 1.379 . S
C216 C213 1.363 . S
C216 N214 1.356 . S
C217 C211 1.363 . S
C217 C212 1.379 . S
C217 N215 1.356 . S
N218 C210 1.356 . S
N218 H224 0.984 . S
N218 H225 0.984 . S
N219 C212 1.356 . S
N219 H222 0.984 . S
N219 H223 0.985 . S
H220 N215 0.984 . S
H221 N215 0.985 . S
H222 N219 0.984 . S
H223 N219 0.985 . S
H224 N218 0.984 . S
H225 N218 0.984 . S
H226 N214 0.984 . S
H227 N214 0.985 . S
C228 C229 1.363 . S
C228 C234 1.379 . S
C228 N236 1.356 . S
C229 C228 1.363 . S
C229 C235 1.363 . S
C230 C231 1.363 . S
C230 C235 1.379 . S
C230 N237 1.356 . S
C231 C230 1.363 . S
C231 C234 1.363 . S
N232 C234 1.356 . S
N232 H244 0.984 . S
N232 H245 0.985 . S
N233 C235 1.356 . S
N233 H238 0.984 . S
N233 H239 0.985 . S
C234 C228 1.379 . S
C234 C231 1.363 . S
C234 N232 1.356 . S
C235 C229 1.363 . S
C235 C230 1.379 . S
C235 N233 1.356 . S
N236 C228 1.356 . S
N236 H242 0.984 . S
N236 H243 0.984 . S
N237 C230 1.356 . S
N237 H240 0.984 . S
N237 H241 0.985 . S
H238 N233 0.984 . S
H239 N233 0.985 . S
H240 N237 0.984 . S
H241 N237 0.985 . S
H242 N236 0.984 . S
H243 N236 0.984 . S
H244 N232 0.984 . S
H245 N232 0.985 . S
C246 C247 1.363 . S
C246 C252 1.379 . S
C246 N254 1.356 . S
C247 C246 1.363 . S
C247 C253 1.363 . S
C248 C249 1.363 . S
C248 C253 1.379 . S
C248 N255 1.356 . S
C249 C248 1.363 . S
C249 C252 1.363 . S
N250 C252 1.356 . S
N250 H262 0.984 . S
N250 H263 0.985 . S
N251 C253 1.356 . S
N251 H256 0.984 . S
N251 H257 0.985 . S
C252 C246 1.379 . S
C252 C249 1.363 . S
C252 N250 1.356 . S
C253 C247 1.363 . S
C253 C248 1.379 . S
C253 N251 1.356 . S
N254 C246 1.356 . S
N254 H260 0.984 . S
N254 H261 0.984 . S
N255 C248 1.356 . S
N255 H258 0.984 . S
N255 H259 0.985 . S
H256 N251 0.984 . S
H257 N251 0.985 . S
H258 N255 0.984 . S
H259 N255 0.985 . S
H260 N254 0.984 . S
H261 N254 0.984 . S
H262 N250 0.984 . S
H263 N250 0.985 . S
C264 C265 1.363 . S
C264 C270 1.379 . S
C264 N272 1.356 . S
C265 C264 1.363 . S
C265 C271 1.363 . S
C266 C267 1.363 . S
C266 C271 1.379 . S
C266 N273 1.356 . S
C267 C266 1.363 . S
C267 C270 1.363 . S
N268 C270 1.356 . S
N268 H280 0.984 . S
N268 H281 0.985 . S
N269 C271 1.356 . S
N269 H274 0.984 . S
N269 H275 0.985 . S
C270 C264 1.379 . S
C270 C267 1.363 . S
C270 N268 1.356 . S
C271 C265 1.363 . S
C271 C266 1.379 . S
C271 N269 1.356 . S
N272 C264 1.356 . S
N272 H278 0.984 . S
N272 H279 0.984 . S
N273 C266 1.356 . S
N273 H276 0.984 . S
N273 H277 0.985 . S
H274 N269 0.984 . S
H275 N269 0.985 . S
H276 N273 0.984 . S
H277 N273 0.985 . S
H278 N272 0.984 . S
H279 N272 0.984 . S
H280 N268 0.984 . S
H281 N268 0.985 . S
C282 C283 1.363 . S
C282 C288 1.379 . S
C282 N290 1.356 . S
C283 C282 1.363 . S
C283 C289 1.363 . S
C284 C285 1.363 . S
C284 C289 1.379 . S
C284 N291 1.356 . S
C285 C284 1.363 . S
C285 C288 1.363 . S
N286 C288 1.356 . S
N286 H298 0.984 . S
N286 H299 0.985 . S
N287 C289 1.356 . S
N287 H292 0.984 . S
N287 H293 0.985 . S
C288 C282 1.379 . S
C288 C285 1.363 . S
C288 N286 1.356 . S
C289 C283 1.363 . S
C289 C284 1.379 . S
C289 N287 1.356 . S
N290 C282 1.356 . S
N290 H296 0.984 . S
N290 H297 0.984 . S
N291 C284 1.356 . S
N291 H294 0.984 . S
N291 H295 0.985 . S
H292 N287 0.984 . S
H293 N287 0.985 . S
H294 N291 0.984 . S
H295 N291 0.985 . S
H296 N290 0.984 . S
H297 N290 0.984 . S
H298 N286 0.984 . S
H299 N286 0.985 . S
C300 C301 1.363 . S
C300 C306 1.379 . S
C300 N308 1.356 . S
C301 C300 1.363 . S
C301 C307 1.363 . S
C302 C303 1.363 . S
C302 C307 1.379 . S
C302 N309 1.356 . S
C303 C302 1.363 . S
C303 C306 1.363 . S
N304 C306 1.356 . S
N304 H316 0.984 . S
N304 H317 0.985 . S
N305 C307 1.356 . S
N305 H310 0.984 . S
N305 H311 0.985 . S
C306 C300 1.379 . S
C306 C303 1.363 . S
C306 N304 1.356 . S
C307 C301 1.363 . S
C307 C302 1.379 . S
C307 N305 1.356 . S
N308 C300 1.356 . S
N308 H314 0.984 . S
N308 H315 0.984 . S
N309 C302 1.356 . S
N309 H312 0.984 . S
N309 H313 0.985 . S
H310 N305 0.984 . S
H311 N305 0.985 . S
H312 N309 0.984 . S
H313 N309 0.985 . S
H314 N308 0.984 . S
H315 N308 0.984 . S
H316 N304 0.984 . S
H317 N304 0.985 . S
C318 C319 1.363 . S
C318 C324 1.379 . S
C318 N326 1.356 . S
C319 C318 1.363 . S
C319 C325 1.363 . S
C320 C321 1.363 . S
C320 C325 1.379 . S
C320 N327 1.356 . S
C321 C320 1.363 . S
C321 C324 1.363 . S
N322 C324 1.356 . S
N322 H334 0.984 . S
N322 H335 0.985 . S
N323 C325 1.356 . S
N323 H328 0.984 . S
N323 H329 0.985 . S
C324 C318 1.379 . S
C324 C321 1.363 . S
C324 N322 1.356 . S
C325 C319 1.363 . S
C325 C320 1.379 . S
C325 N323 1.356 . S
N326 C318 1.356 . S
N326 H332 0.984 . S
N326 H333 0.984 . S
N327 C320 1.356 . S
N327 H330 0.984 . S
N327 H331 0.985 . S
H328 N323 0.984 . S
H329 N323 0.985 . S
H330 N327 0.984 . S
H331 N327 0.985 . S
H332 N326 0.984 . S
H333 N326 0.984 . S
H334 N322 0.984 . S
H335 N322 0.985 . S
C336 C337 1.363 . S
C336 C342 1.379 . S
C336 N344 1.356 . S
C337 C336 1.363 . S
C337 C343 1.363 . S
C338 C339 1.363 . S
C338 C343 1.379 . S
C338 N345 1.356 . S
C339 C338 1.363 . S
C339 C342 1.363 . S
N340 C342 1.356 . S
N340 H352 0.984 . S
N340 H353 0.985 . S
N341 C343 1.356 . S
N341 H346 0.984 . S
N341 H347 0.985 . S
C342 C336 1.379 . S
C342 C339 1.363 . S
C342 N340 1.356 . S
C343 C337 1.363 . S
C343 C338 1.379 . S
C343 N341 1.356 . S
N344 C336 1.356 . S
N344 H350 0.984 . S
N344 H351 0.984 . S
N345 C338 1.356 . S
N345 H348 0.984 . S
N345 H349 0.985 . S
H346 N341 0.984 . S
H347 N341 0.985 . S
H348 N345 0.984 . S
H349 N345 0.985 . S
H350 N344 0.984 . S
H351 N344 0.984 . S
H352 N340 0.984 . S
H353 N340 0.985 . S
C354 C355 1.363 . S
C354 C360 1.379 . S
C354 N362 1.356 . S
C355 C354 1.363 . S
C355 C361 1.363 . S
C356 C357 1.363 . S
C356 C361 1.379 . S
C356 N363 1.356 . S
C357 C356 1.363 . S
C357 C360 1.363 . S
N358 C360 1.356 . S
N358 H370 0.984 . S
N358 H371 0.985 . S
N359 C361 1.356 . S
N359 H364 0.984 . S
N359 H365 0.985 . S
C360 C354 1.379 . S
C360 C357 1.363 . S
C360 N358 1.356 . S
C361 C355 1.363 . S
C361 C356 1.379 . S
C361 N359 1.356 . S
N362 C354 1.356 . S
N362 H368 0.984 . S
N362 H369 0.984 . S
N363 C356 1.356 . S
N363 H366 0.984 . S
N363 H367 0.985 . S
H364 N359 0.984 . S
H365 N359 0.985 . S
H366 N363 0.984 . S
H367 N363 0.985 . S
H368 N362 0.984 . S
H369 N362 0.984 . S
H370 N358 0.984 . S
H371 N358 0.985 . S
C372 C373 1.363 . S
C372 C378 1.379 . S
C372 N380 1.356 . S
C373 C372 1.363 . S
C373 C379 1.363 . S
C374 C375 1.363 . S
C374 C379 1.379 . S
C374 N381 1.356 . S
C375 C374 1.363 . S
C375 C378 1.363 . S
N376 C378 1.356 . S
N376 H388 0.984 . S
N376 H389 0.985 . S
N377 C379 1.356 . S
N377 H382 0.984 . S
N377 H383 0.985 . S
C378 C372 1.379 . S
C378 C375 1.363 . S
C378 N376 1.356 . S
C379 C373 1.363 . S
C379 C374 1.379 . S
C379 N377 1.356 . S
N380 C372 1.356 . S
N380 H386 0.984 . S
N380 H387 0.984 . S
N381 C374 1.356 . S
N381 H384 0.984 . S
N381 H385 0.985 . S
H382 N377 0.984 . S
H383 N377 0.985 . S
H384 N381 0.984 . S
H385 N381 0.985 . S
H386 N380 0.984 . S
H387 N380 0.984 . S
H388 N376 0.984 . S
H389 N376 0.985 . S
C390 C391 1.363 . S
C390 C396 1.379 . S
C390 N398 1.356 . S
C391 C390 1.363 . S
C391 C397 1.363 . S
C392 C393 1.363 . S
C392 C397 1.379 . S
C392 N399 1.356 . S
C393 C392 1.363 . S
C393 C396 1.363 . S
N394 C396 1.356 . S
N394 H406 0.984 . S
N394 H407 0.985 . S
N395 C397 1.356 . S
N395 H400 0.984 . S
N395 H401 0.985 . S
C396 C390 1.379 . S
C396 C393 1.363 . S
C396 N394 1.356 . S
C397 C391 1.363 . S
C397 C392 1.379 . S
C397 N395 1.356 . S
N398 C390 1.356 . S
N398 H404 0.984 . S
N398 H405 0.984 . S
N399 C392 1.356 . S
N399 H402 0.984 . S
N399 H403 0.985 . S
H400 N395 0.984 . S
H401 N395 0.985 . S
H402 N399 0.984 . S
H403 N399 0.985 . S
H404 N398 0.984 . S
H405 N398 0.984 . S
H406 N394 0.984 . S
H407 N394 0.985 . S
C408 C409 1.363 . S
C408 C414 1.379 . S
C408 N416 1.356 . S
C409 C408 1.363 . S
C409 C415 1.363 . S
C410 C411 1.363 . S
C410 C415 1.379 1_556 S
C410 N417 1.356 . S
C411 C410 1.363 . S
C411 C414 1.363 1_556 S
N412 C414 1.356 1_556 S
N412 H424 0.984 . S
N412 H425 0.985 . S
N413 C415 1.356 . S
N413 H418 0.984 . S
N413 H419 0.985 . S
C414 C408 1.379 . S
C414 C411 1.363 1_554 S
C414 N412 1.356 1_554 S
C415 C409 1.363 . S
C415 C410 1.379 1_554 S
C415 N413 1.356 . S
N416 C408 1.356 . S
N416 H422 0.984 . S
N416 H423 0.984 . S
N417 C410 1.356 . S
N417 H420 0.984 . S
N417 H421 0.985 . S
H418 N413 0.984 . S
H419 N413 0.985 . S
H420 N417 0.984 . S
H421 N417 0.985 . S
H422 N416 0.984 . S
H423 N416 0.984 . S
H424 N412 0.984 . S
H425 N412 0.985 . S
C426 C427 1.363 1_565 S
C426 C432 1.379 . S
C426 N434 1.356 . S
C427 C426 1.363 1_545 S
C427 C433 1.363 . S
C428 C429 1.363 . S
C428 C433 1.379 . S
C428 N435 1.356 . S
C429 C428 1.363 . S
C429 C432 1.347 1_545 S
N430 C432 1.368 . S
N430 H442 0.984 . S
N430 H443 0.985 . S
N431 C433 1.356 . S
N431 H436 0.984 . S
N431 H437 0.985 . S
C432 C426 1.379 . S
C432 C429 1.347 1_565 S
C432 N430 1.368 . S
C433 C427 1.363 . S
C433 C428 1.379 . S
C433 N431 1.356 . S
N434 C426 1.356 . S
N434 H440 0.984 . S
N434 H441 0.984 . S
N435 C428 1.356 . S
N435 H438 0.984 . S
N435 H439 0.985 . S
H436 N431 0.984 . S
H437 N431 0.985 . S
H438 N435 0.984 . S
H439 N435 0.985 . S
H440 N434 0.984 . S
H441 N434 0.984 . S
H442 N430 0.984 . S
H443 N430 0.985 . S
C444 C445 1.363 . S
C444 C450 1.379 . S
C444 N452 1.356 . S
C445 C444 1.363 . S
C445 C451 1.363 . S
C446 C447 1.363 . S
C446 C451 1.379 . S
C446 N453 1.356 . S
C447 C446 1.363 . S
C447 C450 1.363 . S
N448 C450 1.356 . S
N448 H460 0.984 . S
N448 H461 0.985 . S
N449 C451 1.356 . S
N449 H454 0.984 . S
N449 H455 0.985 . S
C450 C444 1.379 . S
C450 C447 1.363 . S
C450 N448 1.356 . S
C451 C445 1.363 . S
C451 C446 1.379 . S
C451 N449 1.356 . S
N452 C444 1.356 . S
N452 H458 0.984 . S
N452 H459 0.984 . S
N453 C446 1.356 . S
N453 H456 0.984 . S
N453 H457 0.985 . S
H454 N449 0.984 . S
H455 N449 0.985 . S
H456 N453 0.984 . S
H457 N453 0.985 . S
H458 N452 0.984 . S
H459 N452 0.984 . S
H460 N448 0.984 . S
H461 N448 0.985 . S
C462 C463 1.363 1_565 S
C462 C468 1.379 . S
C462 N470 1.356 . S
C463 C462 1.363 1_545 S
C463 C469 1.363 . S
C464 C465 1.363 . S
C464 C469 1.379 . S
C464 N471 1.356 . S
C465 C464 1.363 . S
C465 C468 1.363 1_545 S
N466 C468 1.356 . S
N466 H478 0.984 . S
N466 H479 0.985 . S
N467 C469 1.356 . S
N467 H472 0.984 . S
N467 H473 0.985 . S
C468 C462 1.379 . S
C468 C465 1.363 1_565 S
C468 N466 1.356 . S
C469 C463 1.363 . S
C469 C464 1.379 . S
C469 N467 1.356 . S
N470 C462 1.356 . S
N470 H476 0.984 . S
N470 H477 0.984 . S
N471 C464 1.356 . S
N471 H474 0.984 . S
N471 H475 0.985 . S
H472 N467 0.984 . S
H473 N467 0.985 . S
H474 N471 0.984 . S
H475 N471 0.985 . S
H476 N470 0.984 . S
H477 N470 0.984 . S
H478 N466 0.984 . S
H479 N466 0.985 . S
C480 C481 1.363 . S
C480 C486 1.379 1_556 S
C480 N488 1.356 . S
C481 C480 1.363 . S
C481 C487 1.363 . S
C482 C483 1.363 1_556 S
C482 C487 1.379 . S
C482 N489 1.356 1_556 S
C483 C482 1.363 1_554 S
C483 C486 1.363 . S
N484 C486 1.356 . S
N484 H496 0.984 . S
N484 H497 0.985 . S
N485 C487 1.356 . S
N485 H490 0.984 . S
N485 H491 0.985 . S
C486 C480 1.379 1_554 S
C486 C483 1.363 . S
C486 N484 1.356 . S
C487 C481 1.363 . S
C487 C482 1.379 . S
C487 N485 1.356 . S
N488 C480 1.356 . S
N488 H494 0.984 . S
N488 H495 0.984 . S
N489 C482 1.356 1_554 S
N489 H492 0.984 . S
N489 H493 0.985 1_554 S
H490 N485 0.984 . S
H491 N485 0.985 . S
H492 N489 0.984 . S
H493 N489 0.985 1_556 S
H494 N488 0.984 . S
H495 N488 0.984 . S
H496 N484 0.984 . S
H497 N484 0.985 . S
C498 C499 1.363 . S
C498 C504 1.379 . S
C498 N506 1.356 . S
C499 C498 1.363 . S
C499 C505 1.363 1_455 S
C500 C501 1.363 1_655 S
C500 C505 1.379 . S
C500 N507 1.356 . S
C501 C500 1.363 1_455 S
C501 C504 1.363 . S
N502 C504 1.356 . S
N502 H514 0.984 . S
N502 H515 0.985 . S
N503 C505 1.356 . S
N503 H508 0.984 . S
N503 H509 0.985 . S
C504 C498 1.379 . S
C504 C501 1.363 . S
C504 N502 1.356 . S
C505 C499 1.363 1_655 S
C505 C500 1.379 . S
C505 N503 1.356 . S
N506 C498 1.356 . S
N506 H512 0.984 . S
N506 H513 0.984 . S
N507 C500 1.356 . S
N507 H510 0.984 . S
N507 H511 0.985 . S
H508 N503 0.984 . S
H509 N503 0.985 . S
H510 N507 0.984 . S
H511 N507 0.985 . S
H512 N506 0.984 . S
H513 N506 0.984 . S
H514 N502 0.984 . S
H515 N502 0.985 . S
C193 C6 1.167 . S
C195 C186 1.284 . S
C211 C59 1.971 . S
C213 C160 1.895 . S
C229 C86 1.386 . S
C231 C172 1.426 . S
C247 C15 0.642 . S
C249 C184 0.496 . S
C267 C162 1.871 . S
C265 C50 1.916 . S
C285 C174 1.287 . S
C283 C95 1.256 . S
C301 C46 1.371 . S
C303 C136 1.397 . S
C319 C99 3.325 . S
C321 C150 3.298 . S
C337 C10 1.940 . S
C339 C126 1.924 . S
C357 C138 1.272 . S
C355 C55 1.235 . S
C375 C148 2.808 . S
C373 C90 2.924 . S
C391 C19 1.984 . S
C393 C124 1.928 . S
C411 C153 1.820 . S
C409 C18 1.715 . S
C427 C49 1.387 . S
C429 C129 1.459 . S
C445 C98 1.506 . S
C447 C141 1.525 . S
C465 C177 1.513 . S
C463 C58 1.505 . S
C483 C189 1.183 . S
C481 C89 1.162 . S
C499 C9 1.387 . S
C501 C165 1.422 . S
