# Generated by pormake.
# Topology zzz, (3,6)-cn, num edge types: 1
# Building blocks:
#     Node 0, Type 0, BuildingBlock: BETDAH_clean_linker_0, # of connection points: 3
#     Node 1, Type 0, BuildingBlock: BETDAH_clean_linker_0, # of connection points: 3
#     Node 2, Type 0, BuildingBlock: BETDAH_clean_linker_0, # of connection points: 3
#     Node 3, Type 0, BuildingBlock: BETDAH_clean_linker_0, # of connection points: 3
#     Node 4, Type 0, BuildingBlock: BETDAH_clean_linker_0, # of connection points: 3
#     Node 5, Type 0, BuildingBlock: BETDAH_clean_linker_0, # of connection points: 3
#     Node 6, Type 0, BuildingBlock: BETDAH_clean_linker_0, # of connection points: 3
#     Node 7, Type 0, BuildingBlock: BETDAH_clean_linker_0, # of connection points: 3
#     Node 8, Type 1, BuildingBlock: KUMBOL_clean_sbu_1, # of connection points: 6
#     Node 9, Type 1, BuildingBlock: KUMBOL_clean_sbu_1, # of connection points: 6
#     Node 10, Type 1, BuildingBlock: KUMBOL_clean_sbu_1, # of connection points: 6
#     Node 11, Type 1, BuildingBlock: KUMBOL_clean_sbu_1, # of connection points: 6
#     Edge 12, Type (0, 1), None
#     Edge 13, Type (0, 1), None
#     Edge 14, Type (0, 1), None
#     Edge 15, Type (0, 1), None
#     Edge 16, Type (0, 1), None
#     Edge 17, Type (0, 1), None
#     Edge 18, Type (0, 1), None
#     Edge 19, Type (0, 1), None
#     Edge 20, Type (0, 1), None
#     Edge 21, Type (0, 1), None
#     Edge 22, Type (0, 1), None
#     Edge 23, Type (0, 1), None
#     Edge 24, Type (0, 1), None
#     Edge 25, Type (0, 1), None
#     Edge 26, Type (0, 1), None
#     Edge 27, Type (0, 1), None
#     Edge 28, Type (0, 1), None
#     Edge 29, Type (0, 1), None
#     Edge 30, Type (0, 1), None
#     Edge 31, Type (0, 1), None
#     Edge 32, Type (0, 1), None
#     Edge 33, Type (0, 1), None
#     Edge 34, Type (0, 1), None
#     Edge 35, Type (0, 1), None
# Relax obj value: 0.440
# Max RMSD: 0.169
# Mean RMSD: 0.090
data_MOF--net-zzz--node1-KUMBOL_clean_sbu_1--node2-BETDAH_clean_linker_0--edge1-none
_symmetry_space_group_name_H-M    P1
_symmetry_Int_Tables_number       1
_symmetry_cell_setting            triclinic
loop_
_symmetry_equiv_pos_as_xyz
'x, y, z'
_cell_length_a     23.740912
_cell_length_b     23.77072
_cell_length_c     7.516813
_cell_angle_alpha  89.735355
_cell_angle_beta   91.39217
_cell_angle_gamma 93.373462
loop_
_atom_site_label
_atom_site_type_symbol
_atom_site_fract_x
_atom_site_fract_y
_atom_site_fract_z
_atom_type_partial_charge
H0 H 0.85846 0.40127 0.55075 0.0
H1 H 0.7214 0.44491 0.19966 0.0
H2 H 0.77644 0.55759 0.61711 0.0
C3 C 0.82626 0.43005 0.51612 0.0
C4 C 0.82741 0.48216 0.60753 0.0
C5 C 0.78989 0.4174 0.36497 0.0
C6 C 0.74735 0.45292 0.31702 0.0
C7 C 0.73645 0.49992 0.41157 0.0
C8 C 0.77953 0.5173 0.55314 0.0
N9 N 0.68462 0.52899 0.35477 0.0
C10 C 0.63695 0.51416 0.22672 0.0
H11 H 0.11892 0.87824 0.61051 0.0
H12 H 0.08532 0.73548 0.2693 0.0
H13 H 0.95257 0.79511 0.57974 0.0
C14 C 0.09016 0.843 0.57369 0.0
C15 C 0.0339 0.84347 0.62797 0.0
C16 C 0.10806 0.80568 0.44283 0.0
C17 C 0.07211 0.76167 0.37618 0.0
C18 C 0.01732 0.75294 0.4264 0.0
C19 C 0.99675 0.79622 0.5506 0.0
N20 N 0.98472 0.70307 0.34525 0.0
C21 C -0.00063 0.65423 0.23383 0.0
H22 H 0.62151 0.9527 0.25356 0.0
H23 H 0.78787 0.96038 0.12161 0.0
H24 H 0.74786 1.0009 0.65572 0.0
C25 C 0.66307 0.96691 0.29994 0.0
C26 C 0.67239 0.97746 0.48138 0.0
C27 C 0.70742 0.97798 0.17643 0.0
C28 C 0.75804 0.96001 0.22458 0.0
C29 C 0.77788 0.98029 0.38375 0.0
C30 C 0.73429 0.98724 0.52367 0.0
N31 N 0.83715 0.00201 0.38299 0.0
C32 C 0.88056 0.00597 0.24578 0.0
H33 H 0.46754 0.67558 0.38297 0.0
H34 H 0.47766 0.77811 0.11358 0.0
H35 H 0.54523 0.76713 0.84322 0.0
C36 C 0.47483 0.65656 0.49313 0.0
C37 C 0.50108 0.68063 0.69476 0.0
C38 C 0.46365 0.695 0.29113 0.0
C39 C 0.48363 0.76218 0.24759 0.0
C40 C 0.51102 0.8061 0.39804 0.0
C41 C 0.5232 0.75346 0.72017 0.0
N42 N 0.54346 0.85369 0.31335 0.0
C43 C 0.53012 0.88099 0.14877 0.0
H44 H 0.16032 0.60608 0.08028 0.0
H45 H 0.28123 0.53441 0.53187 0.0
H46 H 0.26862 0.47164 0.79949 0.0
C47 C 0.18899 0.57446 0.11529 0.0
C48 C 0.1998 0.53472 0.93997 0.0
C49 C 0.21484 0.57419 0.32617 0.0
C50 C 0.26448 0.52962 0.39634 0.0
C51 C 0.30541 0.47275 0.11642 0.0
C52 C 0.25933 0.48999 0.92484 0.0
N53 N 0.37559 0.48177 0.09566 0.0
C54 C 0.43164 0.5153 0.23574 0.0
H55 H 0.92656 0.15389 0.10108 0.0
H56 H 0.99178 0.28208 0.53007 0.0
H57 H 0.05157 0.28883 0.79573 0.0
C58 C 0.95748 0.18885 0.12092 0.0
C59 C 0.99378 0.2083 0.94188 0.0
C60 C 0.9593 0.2131 0.32859 0.0
C61 C 0.00188 0.26695 0.39765 0.0
C62 C 0.05353 0.32302 0.1187 0.0
C63 C 0.03532 0.27633 0.92295 0.0
N64 N 0.04024 0.39242 0.10935 0.0
C65 C 0.0018 0.43815 0.25876 0.0
H66 H 0.38253 1.00047 0.10945 0.0
H67 H 0.25607 0.04465 0.51052 0.0
H68 H 0.22504 0.07339 0.76246 0.0
C69 C 0.33932 0.01118 0.1103 0.0
C70 C 0.31009 0.03064 0.91357 0.0
C71 C 0.31906 0.01657 0.31781 0.0
C72 C 0.26698 0.05221 0.37171 0.0
C73 C 0.20284 0.08517 0.0896 0.0
C74 C 0.24256 0.0644 0.89195 0.0
N75 N 0.13478 0.06416 0.09912 0.0
C76 C 0.092 0.02182 0.25936 0.0
H77 H 0.58512 0.30879 0.96582 0.0
H78 H 0.60429 0.18716 0.12237 0.0
H79 H 0.38923 0.27839 0.99353 0.0
C80 C 0.55233 0.33452 1.00239 0.0
C81 C 0.48176 0.33247 0.97707 0.0
C82 C 0.59685 0.28415 0.05692 0.0
C83 C 0.57265 0.21549 0.07765 0.0
C84 C 0.45786 0.20362 0.05956 0.0
C85 C 0.43404 0.27283 1.00504 0.0
N86 N 0.41707 0.16285 0.16289 0.0
C87 C 0.42212 0.1237 0.31946 0.0
C88 C 0.17492 0.07791 0.38599 0.0
C89 C 0.12286 0.15127 0.53379 0.0
C90 C 0.12511 0.1159 0.38397 0.0
C91 C 0.1717 0.17318 0.61867 0.0
C92 C 0.21924 0.13622 0.37717 0.0
C93 C 0.21956 0.17306 0.52126 0.0
N94 N 0.18362 0.01384 0.26733 0.0
C95 C 0.23687 0.00485 0.14012 0.0
C96 C 0.27222 0.14658 0.25428 0.0
C97 C 0.29449 0.09789 0.13621 0.0
Gd98 Gd 0.95075 0.01067 0.6898 0.0
Gd99 Gd 0.07394 0.02071 0.98764 0.0
N100 N 0.0772 0.11293 0.25758 0.0
C101 C 0.07224 0.16852 0.57955 0.0
C102 C 0.02746 0.11804 0.33314 0.0
C103 C 0.02577 0.14211 0.49939 0.0
H104 H 0.99018 0.09931 0.26993 0.0
H105 H 0.98848 0.1414 0.56254 0.0
H106 H 0.03014 0.92592 0.38092 0.0
H107 H 0.23913 0.96745 0.05808 0.0
H108 H 0.01187 0.85957 0.14695 0.0
H109 H 0.06915 0.19918 0.68297 0.0
H110 H 0.17074 0.19893 0.73704 0.0
H111 H 0.8635 0.93458 0.99809 0.0
H112 H 0.2971 0.18622 0.26177 0.0
H113 H 0.331 0.11337 0.06154 0.0
H114 H 0.81656 0.81488 0.15795 0.0
H115 H 0.25542 0.20177 0.55401 0.0
H116 H 0.73297 0.84395 0.70713 0.0
H117 H 0.77187 0.87988 0.98619 0.0
N118 N 0.87535 0.93579 0.72076 0.0
C119 C 0.85836 0.90596 0.57327 0.0
C120 C 0.84663 0.92248 0.8722 0.0
C121 C 0.77307 0.86831 0.70993 0.0
C122 C 0.79523 0.8896 0.86814 0.0
C123 C 0.80574 0.87425 0.56102 0.0
H124 H 0.7464 0.82744 0.38589 0.0
N125 N 0.94482 0.9361 0.453 0.0
C126 C 0.89482 0.90474 0.43712 0.0
C127 C 0.92361 0.85608 0.1764 0.0
C128 C 0.88149 0.86818 0.29113 0.0
C129 C 0.98741 0.91655 0.35268 0.0
C130 C 0.97758 0.87675 0.2164 0.0
O131 O 0.0596 0.11851 0.91126 0.0
O132 O 0.96624 0.10085 0.84813 0.0
O133 O 0.925 0.07124 0.49252 0.0
O134 O 0.86759 0.04503 0.70084 0.0
O135 O 0.98526 0.00535 0.14549 0.0
O136 O 0.91259 0.02139 0.95187 0.0
O137 O 0.96765 0.91692 0.74309 0.0
O138 O 0.06006 0.93832 0.79339 0.0
O139 O 0.07082 0.93435 0.04185 0.0
O140 O 0.14746 0.97526 0.91172 0.0
O141 O 0.04949 0.03079 0.6116 0.0
O142 O 0.05811 0.03256 0.63687 0.0
C143 C 0.00845 0.14074 0.8875 0.0
C144 C 0.92952 0.01215 0.11247 0.0
C145 C 0.86136 0.14003 0.60015 0.0
C146 C 0.90521 0.20801 0.41763 0.0
C147 C 0.80521 0.19116 0.38915 0.0
C148 C 0.80882 0.15015 0.52506 0.0
C149 C 0.85486 0.21614 0.32348 0.0
C150 C 0.90111 0.18435 0.58496 0.0
C151 C 0.87919 0.08173 0.57713 0.0
C152 C 0.82731 0.84243 0.26961 0.0
C153 C 0.78793 0.84854 0.40077 0.0
H154 H 0.91588 0.82767 0.06557 0.0
C155 C 0.01904 0.89978 0.73575 0.0
C156 C 0.07819 0.00528 0.48195 0.0
C157 C 0.15253 0.88469 0.06118 0.0
C158 C 0.15289 0.82451 0.32086 0.0
C159 C 0.18965 0.7922 0.04346 0.0
C160 C 0.17433 0.84187 0.96087 0.0
C161 C 0.18135 0.78446 0.22544 0.0
C162 C 0.14438 0.87644 0.24166 0.0
C163 C 0.12131 0.92833 0.97381 0.0
H164 H 0.76696 0.19778 0.31609 0.0
H165 H 0.77484 0.11934 0.54781 0.0
H166 H 0.85416 0.23833 0.19751 0.0
H167 H 0.93454 0.18993 0.67903 0.0
H168 H 0.20681 0.75942 0.96618 0.0
H169 H 0.17839 0.84605 0.81893 0.0
H170 H 0.19048 0.74465 0.28541 0.0
H171 H 0.12337 0.90799 0.31399 0.0
C172 C 0.45305 0.81614 0.64751 0.0
C173 C 0.3497 0.81001 0.64051 0.0
C174 C 0.40215 0.83879 0.68461 0.0
C175 C 0.34625 0.75875 0.55671 0.0
C176 C 0.44978 0.75355 0.54613 0.0
C177 C 0.39282 0.72817 0.53514 0.0
N178 N 0.50951 0.85381 0.66801 0.0
C179 C 0.57351 0.83929 0.63499 0.0
C180 C 0.54955 0.72864 0.46158 0.0
C181 C 0.59693 0.78151 0.53209 0.0
Gd182 Gd 0.51151 0.04173 0.82126 0.0
Gd183 Gd 0.4786 0.95472 0.63726 0.0
N184 N 0.4029 0.89202 0.74736 0.0
C185 C 0.29953 0.83344 0.68558 0.0
C186 C 0.35516 0.90755 0.82418 0.0
C187 C 0.30266 0.88129 0.78781 0.0
H188 H 0.35788 0.93634 0.92469 0.0
H189 H 0.26545 0.89822 0.84049 0.0
H190 H 0.65024 0.06631 0.67352 0.0
H191 H 0.60662 0.87061 0.66548 0.0
H192 H 0.71544 0.14392 0.74195 0.0
H193 H 0.25866 0.81264 0.6539 0.0
H194 H 0.30519 0.73901 0.52011 0.0
H195 H 0.51664 0.16939 0.27482 0.0
H196 H 0.56303 0.69788 0.38089 0.0
H197 H 0.641 0.78058 0.50254 0.0
H198 H 0.5996 0.29235 0.56109 0.0
H199 H 0.38071 0.68535 0.49627 0.0
H200 H 0.5123 0.30163 0.27629 0.0
H201 H 0.49895 0.20817 0.46713 0.0
N202 N 0.51782 0.13181 0.98622 0.0
C203 C 0.52045 0.17574 0.83622 0.0
C204 C 0.51999 0.13784 0.19733 0.0
C205 C 0.51123 0.26484 0.204 0.0
C206 C 0.51394 0.20208 0.32139 0.0
C207 C 0.51585 0.24453 0.87232 0.0
H208 H 0.52369 0.31831 0.70037 0.0
N209 N 0.57612 0.11101 0.70568 0.0
C210 C 0.55875 0.16375 0.70842 0.0
C211 C 0.6533 0.20285 0.68573 0.0
C212 C 0.59608 0.20857 0.65608 0.0
C213 C 0.6327 0.10478 0.68957 0.0
C214 C 0.67164 0.15 0.71197 0.0
O215 O 0.5302 0.90961 0.83922 0.0
O216 O 0.486 0.96463 1.00835 0.0
O217 O 0.58039 0.99916 0.91876 0.0
O218 O 0.52874 0.04149 0.10487 0.0
O219 O 0.41467 0.0113 0.81037 0.0
O220 O 0.41399 0.01143 0.80968 0.0
O221 O 0.45731 0.09935 0.63449 0.0
O222 O 0.45728 0.03065 0.43647 0.0
O223 O 0.46781 0.97729 0.35138 0.0
O224 O 0.46321 0.89548 0.44356 0.0
O225 O 0.56792 0.9976 0.58951 0.0
O226 O 0.56985 0.99732 0.58537 0.0
C227 C 0.51148 0.91646 0.9955 0.0
C228 C 0.36331 0.03426 0.7775 0.0
C229 C 0.62747 0.06311 0.09505 0.0
C230 C 0.71801 0.03667 0.10399 0.0
C231 C 0.69192 0.11031 0.2972 0.0
C232 C 0.63661 0.09465 0.25056 0.0
C233 C 0.73467 0.08095 0.21988 0.0
C234 C 0.67471 0.04848 0.9997 0.0
C235 C 0.57858 0.02592 0.06748 0.0
C236 C 0.5763 0.26088 0.63005 0.0
C237 C 0.52932 0.27535 0.71491 0.0
H238 H 0.68223 0.23854 0.70936 0.0
C239 C 0.44386 0.0832 0.47001 0.0
C240 C 0.61907 0.97338 0.61293 0.0
C241 C 0.38911 0.91777 0.3147 0.0
C242 C 0.31284 0.9614 0.41173 0.0
C243 C 0.30018 0.87505 0.23772 0.0
C244 C 0.35824 0.87775 0.21503 0.0
C245 C 0.27707 0.91682 0.34277 0.0
C246 C 0.36377 0.94626 0.44608 0.0
C247 C 0.44687 0.92639 0.32332 0.0
H248 H 0.69984 0.14062 0.3991 0.0
H249 H 0.60391 0.10298 0.3411 0.0
H250 H 0.77828 0.08689 0.26025 0.0
H251 H 0.67214 0.01968 0.88951 0.0
H252 H 0.27505 0.84316 0.17031 0.0
H253 H 0.37839 0.85124 0.12272 0.0
H254 H 0.23294 0.91782 0.36326 0.0
H255 H 0.38756 0.97147 0.53617 0.0
C256 C 0.34829 0.4821 0.3961 0.0
C257 C 0.39017 0.38863 0.51274 0.0
C258 C 0.38832 0.42938 0.37469 0.0
C259 C 0.34487 0.37704 0.62017 0.0
C260 C 0.29392 0.43569 0.42643 0.0
C261 C 0.29486 0.39601 0.56342 0.0
N262 N 0.34608 0.54568 0.25716 0.0
C263 C 0.28927 0.56012 0.13782 0.0
C264 C 0.23612 0.43262 0.3233 0.0
C265 C 0.21751 0.4806 0.19596 0.0
Gd266 Gd 0.56758 0.49998 0.68809 0.0
Gd267 Gd 0.43723 0.51707 0.95908 0.0
N268 N 0.42882 0.42193 0.23054 0.0
C269 C 0.43699 0.35799 0.53289 0.0
C270 C 0.47903 0.40387 0.28364 0.0
C271 C 0.48453 0.37539 0.4414 0.0
H272 H 0.51563 0.41616 0.20976 0.0
H273 H 0.52566 0.36245 0.4753 0.0
H274 H 0.53195 0.588 0.318 0.0
H275 H 0.2875 0.59461 0.04511 0.0
H276 H 0.59036 0.6387 0.09223 0.0
H277 H 0.43703 0.32451 0.62974 0.0
H278 H 0.34572 0.34548 0.7248 0.0
H279 H 0.6905 0.48441 0.93333 0.0
H280 H 0.20841 0.39515 0.33479 0.0
H281 H 0.1792 0.46447 0.13233 0.0
H282 H 0.72596 0.73216 0.46849 0.0
H283 H 0.25673 0.375 0.6121 0.0
H284 H 0.75872 0.65229 0.03644 0.0
H285 H 0.7577 0.54709 0.09614 0.0
N286 N 0.65019 0.55189 0.8031 0.0
C287 C 0.66409 0.60324 0.73175 0.0
C288 C 0.69117 0.5291 0.9064 0.0
C289 C 0.73279 0.62222 0.96113 0.0
C290 C 0.73062 0.56458 0.99744 0.0
C291 C 0.70617 0.63993 0.80885 0.0
H292 H 0.75634 0.71858 0.78198 0.0
N293 N 0.59741 0.5828 0.50874 0.0
C294 C 0.64287 0.61506 0.5685 0.0
C295 C 0.65444 0.66195 0.2847 0.0
C296 C 0.66929 0.6583 0.46421 0.0
C297 C 0.57474 0.59826 0.34838 0.0
C298 C 0.60678 0.63062 0.224 0.0
O299 O 0.42986 0.42159 0.89562 0.0
O300 O 0.52386 0.42199 0.83818 0.0
O301 O 0.57767 0.45082 0.45369 0.0
O302 O 0.64405 0.4548 0.65263 0.0
O303 O 0.53282 0.52924 0.09945 0.0
O304 O 0.58921 0.47087 0.96396 0.0
O305 O 0.54056 0.59052 0.68437 0.0
O306 O 0.49933 0.60217 0.94614 0.0
O307 O 0.42447 0.58025 0.75321 0.0
O308 O 0.3533 0.54275 0.85888 0.0
O309 O 0.47123 0.49992 0.58959 0.0
O310 O 0.46057 0.49911 0.61338 0.0
C311 C 0.47597 0.39375 0.89294 0.0
C312 C 0.58269 0.50275 0.09951 0.0
C313 C 0.64681 0.37953 0.44284 0.0
C314 C 0.63495 0.3057 0.21657 0.0
C315 C 0.70634 0.29979 0.45058 0.0
C316 C 0.68993 0.35039 0.52624 0.0
C317 C 0.6755 0.27491 0.30513 0.0
C318 C 0.62631 0.36025 0.28065 0.0
C319 C 0.62687 0.43387 0.50279 0.0
C320 C 0.70891 0.69657 0.54335 0.0
C321 C 0.72516 0.68925 0.72081 0.0
H322 H 0.67528 0.6928 0.19821 0.0
C323 C 0.52194 0.62641 0.79824 0.0
C324 C 0.45702 0.53123 0.44786 0.0
C325 C 0.37072 0.63844 0.90751 0.0
C326 C 0.41084 0.68711 0.1616 0.0
C327 C 0.33443 0.7267 0.99225 0.0
C328 C 0.33583 0.68222 0.87378 0.0
C329 C 0.37286 0.72982 0.13345 0.0
C330 C 0.4031 0.63975 0.06389 0.0
C331 C 0.37427 0.58878 0.79622 0.0
H332 H 0.74134 0.2788 0.51003 0.0
H333 H 0.7114 0.36725 0.64457 0.0
H334 H 0.68494 0.23408 0.25642 0.0
H335 H 0.604 0.39036 0.20507 0.0
H336 H 0.30621 0.76007 0.96993 0.0
H337 H 0.31044 0.68264 0.75788 0.0
H338 H 0.37419 0.76621 0.21676 0.0
H339 H 0.42491 0.60524 0.10811 0.0
C340 C 0.04385 0.35784 0.40443 0.0
C341 C 0.12763 0.41393 0.5479 0.0
C342 C 0.09058 0.40808 0.39947 0.0
C343 C 0.14247 0.36822 0.64784 0.0
C344 C 0.09385 0.31212 0.42732 0.0
C345 C 0.13267 0.31724 0.56924 0.0
N346 N 0.98047 0.34729 0.26531 0.0
C347 C 0.9679 0.2909 0.14115 0.0
C348 C 0.09941 0.25749 0.31832 0.0
C349 C 0.05136 0.23289 0.19094 0.0
Gd350 Gd 0.00077 0.57099 0.70917 0.0
Gd351 Gd 0.00364 0.45305 0.98776 0.0
N352 N 0.09442 0.45398 0.2672 0.0
C353 C 0.15383 0.46504 0.57947 0.0
C354 C 0.10709 0.50577 0.33326 0.0
C355 C 0.13292 0.51115 0.49917 0.0
H356 H 0.09443 0.54179 0.25992 0.0
H357 H 0.13954 0.55028 0.56374 0.0
H358 H 0.91249 0.49346 0.36758 0.0
H359 H 0.93567 0.28576 0.03823 0.0
H360 H 0.85542 0.51599 0.12326 0.0
H361 H 0.18705 0.46922 0.67543 0.0
H362 H 0.17116 0.37259 0.76214 0.0
H363 H 0.92689 0.6364 0.0293 0.0
H364 H 0.13865 0.23679 0.32501 0.0
H365 H 0.06939 0.1989 0.12196 0.0
H366 H 0.80697 0.70254 0.23503 0.0
H367 H 0.15801 0.28335 0.611 0.0
H368 H 0.85403 0.77652 0.80441 0.0
H369 H 0.8946 0.73154 0.06966 0.0
N370 N 0.93497 0.64055 0.76184 0.0
C371 C 0.90676 0.66024 0.61959 0.0
C372 C 0.92486 0.66281 0.92134 0.0
C373 C 0.87631 0.73833 0.79113 0.0
C374 C 0.89957 0.71372 0.93994 0.0
C375 C 0.87617 0.70902 0.63114 0.0
H376 H 0.81746 0.75917 0.50385 0.0
N377 N 0.92738 0.57682 0.4754 0.0
C378 C 0.90069 0.62612 0.47376 0.0
C379 C 0.85042 0.60081 0.20378 0.0
C380 C 0.86246 0.63977 0.33629 0.0
C381 C 0.90623 0.5362 0.35782 0.0
C382 C 0.86933 0.54784 0.21917 0.0
O383 O 0.10234 0.46828 0.91375 0.0
O384 O 0.09432 0.56119 0.84864 0.0
O385 O 0.04852 0.59309 0.48377 0.0
O386 O 0.03042 0.65784 0.67444 0.0
O387 O 0.99111 0.54494 0.14076 0.0
O388 O 0.03334 0.61099 0.96697 0.0
O389 O 0.90499 0.54937 0.75178 0.0
O390 O 0.92012 0.45865 0.78755 0.0
O391 O 0.91721 0.44472 1.01943 0.0
O392 O 0.96159 0.37506 0.88232 0.0
O393 O 0.0146 0.47644 0.61731 0.0
O394 O 0.01581 0.47016 0.6398 0.0
C395 C 0.12976 0.51963 0.89012 0.0
C396 C 0.01287 0.59952 0.12151 0.0
C397 C 0.12058 0.66151 0.55618 0.0
C398 C 0.20206 0.6222 0.44126 0.0
C399 C 0.20297 0.65858 0.74355 0.0
C400 C 0.1475 0.67256 0.72033 0.0
C401 C 0.22909 0.63045 0.60761 0.0
C402 C 0.1513 0.64758 0.41121 0.0
C403 C 0.06132 0.64392 0.54409 0.0
C404 C 0.83575 0.69054 0.33985 0.0
C405 C 0.84281 0.72457 0.48861 0.0
H406 H 0.83137 0.61202 0.08078 0.0
C407 C 0.88388 0.49764 0.73123 0.0
C408 C 0.986 0.44966 0.48149 0.0
C409 C 0.87075 0.35694 1.01807 0.0
C410 C 0.80174 0.37294 0.23307 0.0
C411 C 0.77613 0.3229 0.95476 0.0
C412 C 0.83183 0.32834 0.90426 0.0
C413 C 0.7609 0.35095 0.10705 0.0
C414 C 0.85749 0.36726 0.19425 0.0
C415 C 0.91373 0.39425 0.94154 0.0
H416 H 0.22277 0.66321 0.87377 0.0
H417 H 0.12443 0.6855 0.83426 0.0
H418 H 0.26833 0.61225 0.63789 0.0
H419 H 0.12745 0.64299 0.28871 0.0
H420 H 0.74406 0.30514 0.86378 0.0
H421 H 0.84266 0.31752 0.76992 0.0
H422 H 0.71805 0.36066 0.11167 0.0
H423 H 0.88933 0.38799 0.27938 0.0
loop_
_geom_bond_atom_site_label_1
_geom_bond_atom_site_label_2
_geom_bond_distance
_geom_bond_site_symmetry_2
_ccdc_geom_bond_type
H0 C3 0.929 . S
H1 C6 0.929 . S
H2 C8 0.930 . S
C3 H0 0.929 . S
C3 C4 1.398 . S
C3 C5 1.396 . S
C4 C3 1.398 . S
C4 C8 1.407 . S
C5 C3 1.396 . S
C5 C6 1.394 . S
C6 H1 0.929 . S
C6 C5 1.394 . S
C6 C7 1.382 . S
C7 C6 1.382 . S
C7 C8 1.392 . S
C7 N9 1.420 . S
C8 H2 0.930 . S
C8 C4 1.407 . S
C8 C7 1.392 . S
N9 C7 1.420 . S
N9 C10 1.244 . S
C10 N9 1.244 . S
H11 C14 0.929 . S
H12 C17 0.929 . S
H13 C19 0.930 . S
C14 H11 0.929 . S
C14 C15 1.398 . S
C14 C16 1.396 . S
C15 C14 1.398 . S
C15 C19 1.407 1_655 S
C16 C14 1.396 . S
C16 C17 1.394 1_655 S
C17 H12 0.929 . S
C17 C16 1.394 1_455 S
C17 C18 1.382 . S
C18 C17 1.382 . S
C18 C19 1.392 . S
C18 N20 1.420 . S
C19 H13 0.930 . S
C19 C15 1.407 1_455 S
C19 C18 1.392 . S
N20 C18 1.420 . S
N20 C21 1.244 1_455 S
C21 N20 1.244 1_655 S
H22 C25 0.929 . S
H23 C28 0.929 . S
H24 C30 0.930 . S
C25 H22 0.929 . S
C25 C26 1.398 . S
C25 C27 1.396 . S
C26 C25 1.398 . S
C26 C30 1.407 1_565 S
C27 C25 1.396 . S
C27 C28 1.394 1_565 S
C28 H23 0.929 . S
C28 C27 1.394 1_545 S
C28 C29 1.382 . S
C29 C28 1.382 . S
C29 C30 1.392 . S
C29 N31 1.420 . S
C30 H24 0.930 . S
C30 C26 1.407 1_545 S
C30 C29 1.392 . S
N31 C29 1.420 . S
N31 C32 1.244 1_545 S
C32 N31 1.244 1_565 S
H33 C36 0.929 . S
H34 C39 0.929 . S
H35 C41 0.930 . S
C36 H33 0.929 . S
C36 C37 1.398 . S
C36 C38 1.396 . S
C37 C36 1.398 . S
C37 C41 1.407 . S
C38 C36 1.396 . S
C38 C39 1.394 . S
C39 H34 0.929 . S
C39 C38 1.394 . S
C39 C40 1.382 . S
C40 C39 1.382 . S
C40 C41 1.392 . S
C40 N42 1.420 . S
C41 H35 0.930 . S
C41 C37 1.407 . S
C41 C40 1.392 . S
N42 C40 1.420 . S
N42 C43 1.244 . S
C43 N42 1.244 . S
H44 C47 0.929 . S
H45 C50 0.929 . S
H46 C52 0.930 . S
C47 H44 0.929 . S
C47 C48 1.398 . S
C47 C49 1.396 1_556 S
C48 C47 1.398 . S
C48 C52 1.407 . S
C49 C47 1.396 1_554 S
C49 C50 1.394 . S
C50 H45 0.929 . S
C50 C49 1.394 . S
C50 C51 1.382 . S
C51 C50 1.382 . S
C51 C52 1.392 1_554 S
C51 N53 1.420 . S
C52 H46 0.930 . S
C52 C48 1.407 . S
C52 C51 1.392 1_556 S
N53 C51 1.420 . S
N53 C54 1.244 . S
C54 N53 1.244 . S
H55 C58 0.929 . S
H56 C61 0.929 . S
H57 C63 0.930 . S
C58 H55 0.929 . S
C58 C59 1.398 . S
C58 C60 1.396 1_556 S
C59 C58 1.398 . S
C59 C63 1.407 . S
C60 C58 1.396 1_554 S
C60 C61 1.394 . S
C61 H56 0.929 . S
C61 C60 1.394 . S
C61 C62 1.382 . S
C62 C61 1.382 . S
C62 C63 1.392 1_554 S
C62 N64 1.420 . S
C63 H57 0.930 . S
C63 C59 1.407 . S
C63 C62 1.392 1_556 S
N64 C62 1.420 . S
N64 C65 1.244 . S
C65 N64 1.244 . S
H66 C69 0.929 . S
H67 C72 0.929 . S
H68 C74 0.930 . S
C69 H66 0.929 . S
C69 C70 1.398 . S
C69 C71 1.396 1_556 S
C70 C69 1.398 . S
C70 C74 1.407 . S
C71 C69 1.396 1_554 S
C71 C72 1.394 . S
C72 H67 0.929 . S
C72 C71 1.394 . S
C72 C73 1.382 . S
C73 C72 1.382 . S
C73 C74 1.392 1_554 S
C73 N75 1.420 . S
C74 H68 0.930 . S
C74 C70 1.407 . S
C74 C73 1.392 1_556 S
N75 C73 1.420 . S
N75 C76 1.244 . S
C76 N75 1.244 . S
H77 C80 0.929 . S
H78 C83 0.929 . S
H79 C85 0.930 . S
C80 H77 0.929 . S
C80 C81 1.398 . S
C80 C82 1.396 1_556 S
C81 C80 1.398 . S
C81 C85 1.407 . S
C82 C80 1.396 1_554 S
C82 C83 1.394 . S
C83 H78 0.929 . S
C83 C82 1.394 . S
C83 C84 1.382 . S
C84 C83 1.382 . S
C84 C85 1.392 1_554 S
C84 N86 1.420 . S
C85 H79 0.930 . S
C85 C81 1.407 . S
C85 C84 1.392 1_556 S
N86 C84 1.420 . S
N86 C87 1.244 . S
C87 N86 1.244 . S
C88 C90 1.422 . S
C88 C92 1.415 . S
C88 N94 1.369 . S
C89 C90 1.421 . S
C89 C91 1.417 . S
C89 C101 1.422 . S
C90 C88 1.422 . S
C90 C89 1.421 . S
C90 N100 1.359 . S
C91 C89 1.417 . S
C91 C93 1.329 . S
C91 H110 0.930 . S
C92 C88 1.415 . S
C92 C93 1.437 . S
C92 C96 1.413 . S
C93 C91 1.329 . S
C93 C92 1.437 . S
C93 H115 0.929 . S
N94 C88 1.369 . S
N94 C95 1.338 1_554 S
N94 Gd99 2.622 1_544 S
C95 N94 1.338 1_556 S
C95 C97 1.378 . S
C95 H107 0.929 1_545 S
C96 C92 1.413 . S
C96 C97 1.348 1_554 S
C96 H112 0.931 . S
C97 C95 1.378 . S
C97 C96 1.348 1_556 S
C97 H113 0.930 . S
Gd98 N118 2.622 . S
Gd98 N125 2.570 1_545 S
Gd98 O132 2.353 . S
Gd98 O133 2.468 . S
Gd98 O134 2.427 . S
Gd98 O136 2.388 . S
Gd98 O137 2.386 1_545 S
Gd98 O141 2.307 1_655 S
Gd98 C151 2.805 . S
Gd99 N94 2.622 1_566 S
Gd99 N100 2.570 1_566 S
Gd99 O131 2.386 1_565 S
Gd99 O135 2.311 1_456 S
Gd99 O138 2.353 . S
Gd99 O139 2.468 1_556 S
Gd99 O140 2.427 1_556 S
Gd99 O142 2.388 . S
Gd99 C163 2.805 1_556 S
N100 C90 1.359 . S
N100 Gd99 2.570 1_544 S
N100 C102 1.343 . S
C101 C89 1.422 . S
C101 C103 1.321 . S
C101 H109 0.931 . S
C102 N100 1.343 . S
C102 C103 1.390 . S
C102 H104 0.931 . S
C103 C101 1.321 . S
C103 C102 1.390 . S
C103 H105 0.930 . S
H104 C102 0.931 . S
H105 C103 0.930 . S
H106 C129 0.931 1_455 S
H107 C95 0.929 1_565 S
H108 C130 0.930 . S
H109 C101 0.931 . S
H110 C91 0.930 . S
H111 C120 0.929 . S
H112 C96 0.931 . S
H113 C97 0.930 . S
H114 C152 0.930 . S
H115 C93 0.929 . S
H116 C121 0.931 . S
H117 C122 0.930 . S
N118 Gd98 2.622 . S
N118 C119 1.369 1_545 S
N118 C120 1.338 . S
C119 N118 1.369 1_565 S
C119 C123 1.415 . S
C119 C126 1.422 . S
C120 H111 0.929 . S
C120 N118 1.338 . S
C120 C122 1.378 1_545 S
C121 H116 0.931 . S
C121 C122 1.348 . S
C121 C123 1.413 . S
C122 H117 0.930 . S
C122 C120 1.378 1_565 S
C122 C121 1.348 . S
C123 C119 1.415 . S
C123 C121 1.413 . S
C123 C153 1.437 . S
H124 C153 0.929 . S
N125 Gd98 2.570 1_565 S
N125 C126 1.359 . S
N125 C129 1.343 . S
C126 C119 1.422 . S
C126 N125 1.359 . S
C126 C128 1.421 . S
C127 C128 1.422 . S
C127 C130 1.321 . S
C127 H154 0.931 1_554 S
C128 C126 1.421 . S
C128 C127 1.422 . S
C128 C152 1.417 . S
C129 H106 0.931 1_655 S
C129 N125 1.343 . S
C129 C130 1.390 . S
C130 H108 0.930 . S
C130 C127 1.321 . S
C130 C129 1.390 . S
O131 Gd99 2.386 1_545 S
O131 C143 1.265 . S
O132 Gd98 2.353 . S
O132 C143 1.242 1_655 S
O133 Gd98 2.468 . S
O133 C151 1.263 . S
O134 Gd98 2.427 . S
O134 C151 1.252 . S
O135 Gd99 2.311 1_654 S
O135 C144 1.259 1_565 S
O136 Gd98 2.388 . S
O136 C144 1.252 1_556 S
O137 Gd98 2.386 1_565 S
O137 C155 1.265 . S
O138 Gd99 2.353 . S
O138 C155 1.242 1_455 S
O139 Gd99 2.468 1_554 S
O139 C163 1.263 . S
O140 Gd99 2.427 1_554 S
O140 C163 1.252 . S
O141 Gd98 2.307 1_455 S
O141 C156 1.261 . S
O142 Gd99 2.388 . S
O142 C156 1.252 1_565 S
C143 O131 1.265 . S
C143 O132 1.242 1_455 S
C144 O135 1.259 1_545 S
C144 O136 1.252 1_554 S
C145 C148 1.394 . S
C145 C150 1.370 . S
C145 C151 1.500 . S
C146 C149 1.383 . S
C146 C150 1.395 . S
C147 C148 1.396 . S
C147 C149 1.365 . S
C147 H164 0.929 . S
C148 C145 1.394 . S
C148 C147 1.396 . S
C148 H165 0.930 . S
C149 C146 1.383 . S
C149 C147 1.365 . S
C149 H166 0.931 . S
C150 C145 1.370 . S
C150 C146 1.395 . S
C150 H167 0.930 . S
C151 Gd98 2.805 . S
C151 O133 1.263 . S
C151 O134 1.252 . S
C151 C145 1.500 . S
C152 H114 0.930 . S
C152 C128 1.417 . S
C152 C153 1.329 . S
C153 C123 1.437 . S
C153 H124 0.929 . S
C153 C152 1.329 . S
H154 C127 0.931 1_556 S
C155 O137 1.265 . S
C155 O138 1.242 1_655 S
C156 O141 1.261 . S
C156 O142 1.252 1_545 S
C157 C160 1.394 . S
C157 C162 1.370 . S
C157 C163 1.500 . S
C158 C161 1.383 . S
C158 C162 1.395 . S
C159 C160 1.396 . S
C159 C161 1.365 . S
C159 H168 0.929 . S
C160 C157 1.394 . S
C160 C159 1.396 . S
C160 H169 0.930 . S
C161 C158 1.383 . S
C161 C159 1.365 . S
C161 H170 0.931 . S
C162 C157 1.370 . S
C162 C158 1.395 . S
C162 H171 0.930 . S
C163 Gd99 2.805 1_554 S
C163 O139 1.263 . S
C163 O140 1.252 . S
C163 C157 1.500 . S
H164 C147 0.929 . S
H165 C148 0.930 . S
H166 C149 0.931 . S
H167 C150 0.930 . S
H168 C159 0.929 . S
H169 C160 0.930 . S
H170 C161 0.931 . S
H171 C162 0.930 . S
C172 C174 1.422 . S
C172 C176 1.415 . S
C172 N178 1.369 . S
C173 C174 1.421 . S
C173 C175 1.417 . S
C173 C185 1.422 . S
C174 C172 1.422 . S
C174 C173 1.421 . S
C174 N184 1.359 . S
C175 C173 1.417 . S
C175 C177 1.329 . S
C175 H194 0.930 . S
C176 C172 1.415 . S
C176 C177 1.437 . S
C176 C180 1.413 . S
C177 C175 1.329 . S
C177 C176 1.437 . S
C177 H199 0.929 . S
N178 C172 1.369 . S
N178 C179 1.338 . S
N178 Gd183 2.622 . S
C179 N178 1.338 . S
C179 C181 1.378 . S
C179 H191 0.929 . S
C180 C176 1.413 . S
C180 C181 1.348 . S
C180 H196 0.931 . S
C181 C179 1.378 . S
C181 C180 1.348 . S
C181 H197 0.930 . S
Gd182 N202 2.622 1_556 S
Gd182 N209 2.570 . S
Gd182 O216 2.353 1_546 S
Gd182 O217 2.468 1_556 S
Gd182 O218 2.427 1_556 S
Gd182 O220 2.388 1_556 S
Gd182 O221 2.386 . S
Gd182 O225 2.307 . S
Gd182 C235 2.805 1_556 S
Gd183 N178 2.622 . S
Gd183 N184 2.570 . S
Gd183 O215 2.386 . S
Gd183 O219 2.307 . S
Gd183 O222 2.353 1_565 S
Gd183 O223 2.468 . S
Gd183 O224 2.427 . S
Gd183 O226 2.388 . S
Gd183 C247 2.805 . S
N184 C174 1.359 . S
N184 Gd183 2.570 . S
N184 C186 1.343 . S
C185 C173 1.422 . S
C185 C187 1.321 . S
C185 H193 0.931 . S
C186 N184 1.343 . S
C186 C187 1.390 . S
C186 H188 0.931 . S
C187 C185 1.321 . S
C187 C186 1.390 . S
C187 H189 0.930 . S
H188 C186 0.931 . S
H189 C187 0.930 . S
H190 C213 0.931 . S
H191 C179 0.929 . S
H192 C214 0.930 . S
H193 C185 0.931 . S
H194 C175 0.930 . S
H195 C204 0.929 . S
H196 C180 0.931 . S
H197 C181 0.930 . S
H198 C236 0.930 . S
H199 C177 0.929 . S
H200 C205 0.931 . S
H201 C206 0.930 . S
N202 Gd182 2.622 1_554 S
N202 C203 1.369 . S
N202 C204 1.338 . S
C203 N202 1.369 . S
C203 C207 1.415 . S
C203 C210 1.422 1_554 S
C204 H195 0.929 . S
C204 N202 1.338 . S
C204 C206 1.378 . S
C205 H200 0.931 . S
C205 C206 1.348 . S
C205 C207 1.413 . S
C206 H201 0.930 . S
C206 C204 1.378 . S
C206 C205 1.348 . S
C207 C203 1.415 . S
C207 C205 1.413 . S
C207 C237 1.437 1_554 S
H208 C237 0.929 . S
N209 Gd182 2.570 . S
N209 C210 1.359 . S
N209 C213 1.343 . S
C210 C203 1.422 1_556 S
C210 N209 1.359 . S
C210 C212 1.421 . S
C211 C212 1.422 . S
C211 C214 1.321 . S
C211 H238 0.931 . S
C212 C210 1.421 . S
C212 C211 1.422 . S
C212 C236 1.417 . S
C213 H190 0.931 . S
C213 N209 1.343 . S
C213 C214 1.390 . S
C214 H192 0.930 . S
C214 C211 1.321 . S
C214 C213 1.390 . S
O215 Gd183 2.386 . S
O215 C227 1.265 1_556 S
O216 Gd182 2.353 1_564 S
O216 C227 1.242 . S
O217 Gd182 2.468 1_554 S
O217 C235 1.263 . S
O218 Gd182 2.427 1_554 S
O218 C235 1.252 . S
O219 Gd183 2.307 . S
O219 C228 1.261 1_565 S
O220 Gd182 2.388 1_554 S
O220 C228 1.252 1_554 S
O221 Gd182 2.386 . S
O221 C239 1.265 . S
O222 Gd183 2.353 1_545 S
O222 C239 1.242 . S
O223 Gd183 2.468 . S
O223 C247 1.263 . S
O224 Gd183 2.427 . S
O224 C247 1.252 . S
O225 Gd182 2.307 . S
O225 C240 1.261 1_545 S
O226 Gd183 2.388 . S
O226 C240 1.252 . S
C227 O215 1.265 1_554 S
C227 O216 1.242 . S
C228 O219 1.261 1_545 S
C228 O220 1.252 1_556 S
C229 C232 1.394 . S
C229 C234 1.370 . S
C229 C235 1.500 . S
C230 C233 1.383 . S
C230 C234 1.395 . S
C231 C232 1.396 . S
C231 C233 1.365 . S
C231 H248 0.929 . S
C232 C229 1.394 . S
C232 C231 1.396 . S
C232 H249 0.930 . S
C233 C230 1.383 . S
C233 C231 1.365 . S
C233 H250 0.931 . S
C234 C229 1.370 . S
C234 C230 1.395 . S
C234 H251 0.930 . S
C235 Gd182 2.805 1_554 S
C235 O217 1.263 . S
C235 O218 1.252 . S
C235 C229 1.500 . S
C236 H198 0.930 . S
C236 C212 1.417 . S
C236 C237 1.329 . S
C237 C207 1.437 1_556 S
C237 H208 0.929 . S
C237 C236 1.329 . S
H238 C211 0.931 . S
C239 O221 1.265 . S
C239 O222 1.242 . S
C240 O225 1.261 1_565 S
C240 O226 1.252 . S
C241 C244 1.394 . S
C241 C246 1.370 . S
C241 C247 1.500 . S
C242 C245 1.383 1_554 S
C242 C246 1.395 . S
C243 C244 1.396 1_556 S
C243 C245 1.365 . S
C243 H252 0.929 . S
C244 C241 1.394 . S
C244 C243 1.396 1_554 S
C244 H253 0.930 . S
C245 C242 1.383 1_556 S
C245 C243 1.365 . S
C245 H254 0.931 . S
C246 C241 1.370 . S
C246 C242 1.395 . S
C246 H255 0.930 . S
C247 Gd183 2.805 . S
C247 O223 1.263 . S
C247 O224 1.252 . S
C247 C241 1.500 . S
H248 C231 0.929 . S
H249 C232 0.930 . S
H250 C233 0.931 . S
H251 C234 0.930 . S
H252 C243 0.929 . S
H253 C244 0.930 . S
H254 C245 0.931 . S
H255 C246 0.930 . S
C256 C258 1.422 . S
C256 C260 1.415 . S
C256 N262 1.369 . S
C257 C258 1.421 . S
C257 C259 1.417 . S
C257 C269 1.422 . S
C258 C256 1.422 . S
C258 C257 1.421 . S
C258 N268 1.359 . S
C259 C257 1.417 . S
C259 C261 1.329 . S
C259 H278 0.930 . S
C260 C256 1.415 . S
C260 C261 1.437 . S
C260 C264 1.413 . S
C261 C259 1.329 . S
C261 C260 1.437 . S
C261 H283 0.929 . S
N262 C256 1.369 . S
N262 C263 1.338 1_554 S
N262 Gd267 2.622 1_554 S
C263 N262 1.338 1_556 S
C263 C265 1.378 . S
C263 H275 0.929 . S
C264 C260 1.413 . S
C264 C265 1.348 1_554 S
C264 H280 0.931 . S
C265 C263 1.378 . S
C265 C264 1.348 1_556 S
C265 H281 0.930 . S
Gd266 N286 2.622 . S
Gd266 N293 2.570 . S
Gd266 O300 2.353 . S
Gd266 O301 2.468 . S
Gd266 O302 2.427 . S
Gd266 O304 2.388 . S
Gd266 O305 2.386 . S
Gd266 O309 2.307 . S
Gd266 C319 2.805 . S
Gd267 N262 2.622 1_556 S
Gd267 N268 2.570 1_556 S
Gd267 O299 2.386 . S
Gd267 O303 2.307 1_556 S
Gd267 O306 2.353 . S
Gd267 O307 2.468 1_556 S
Gd267 O308 2.427 1_556 S
Gd267 O310 2.388 . S
Gd267 C331 2.805 1_556 S
N268 C258 1.359 . S
N268 Gd267 2.570 1_554 S
N268 C270 1.343 . S
C269 C257 1.422 . S
C269 C271 1.321 . S
C269 H277 0.931 . S
C270 N268 1.343 . S
C270 C271 1.390 . S
C270 H272 0.931 . S
C271 C269 1.321 . S
C271 C270 1.390 . S
C271 H273 0.930 . S
H272 C270 0.931 . S
H273 C271 0.930 . S
H274 C297 0.931 . S
H275 C263 0.929 . S
H276 C298 0.930 . S
H277 C269 0.931 . S
H278 C259 0.930 . S
H279 C288 0.929 . S
H280 C264 0.931 . S
H281 C265 0.930 . S
H282 C320 0.930 . S
H283 C261 0.929 . S
H284 C289 0.931 . S
H285 C290 0.930 . S
N286 Gd266 2.622 . S
N286 C287 1.369 . S
N286 C288 1.338 . S
C287 N286 1.369 . S
C287 C291 1.415 . S
C287 C294 1.422 . S
C288 H279 0.929 . S
C288 N286 1.338 . S
C288 C290 1.378 . S
C289 H284 0.931 . S
C289 C290 1.348 . S
C289 C291 1.413 . S
C290 H285 0.930 . S
C290 C288 1.378 . S
C290 C289 1.348 . S
C291 C287 1.415 . S
C291 C289 1.413 . S
C291 C321 1.437 . S
H292 C321 0.929 . S
N293 Gd266 2.570 . S
N293 C294 1.359 . S
N293 C297 1.343 . S
C294 C287 1.422 . S
C294 N293 1.359 . S
C294 C296 1.421 . S
C295 C296 1.422 . S
C295 C298 1.321 . S
C295 H322 0.931 1_554 S
C296 C294 1.421 . S
C296 C295 1.422 . S
C296 C320 1.417 . S
C297 H274 0.931 . S
C297 N293 1.343 . S
C297 C298 1.390 . S
C298 H276 0.930 . S
C298 C295 1.321 . S
C298 C297 1.390 . S
O299 Gd267 2.386 . S
O299 C311 1.265 . S
O300 Gd266 2.353 . S
O300 C311 1.242 . S
O301 Gd266 2.468 . S
O301 C319 1.263 . S
O302 Gd266 2.427 . S
O302 C319 1.252 . S
O303 Gd267 2.307 1_554 S
O303 C312 1.261 . S
O304 Gd266 2.388 . S
O304 C312 1.252 1_556 S
O305 Gd266 2.386 . S
O305 C323 1.265 . S
O306 Gd267 2.353 . S
O306 C323 1.242 . S
O307 Gd267 2.468 1_554 S
O307 C331 1.263 . S
O308 Gd267 2.427 1_554 S
O308 C331 1.252 . S
O309 Gd266 2.307 . S
O309 C324 1.261 . S
O310 Gd267 2.388 . S
O310 C324 1.252 . S
C311 O299 1.265 . S
C311 O300 1.242 . S
C312 O303 1.261 . S
C312 O304 1.252 1_554 S
C313 C316 1.394 . S
C313 C318 1.370 . S
C313 C319 1.500 . S
C314 C317 1.383 . S
C314 C318 1.395 . S
C315 C316 1.396 . S
C315 C317 1.365 . S
C315 H332 0.929 . S
C316 C313 1.394 . S
C316 C315 1.396 . S
C316 H333 0.930 . S
C317 C314 1.383 . S
C317 C315 1.365 . S
C317 H334 0.931 . S
C318 C313 1.370 . S
C318 C314 1.395 . S
C318 H335 0.930 . S
C319 Gd266 2.805 . S
C319 O301 1.263 . S
C319 O302 1.252 . S
C319 C313 1.500 . S
C320 H282 0.930 . S
C320 C296 1.417 . S
C320 C321 1.329 . S
C321 C291 1.437 . S
C321 H292 0.929 . S
C321 C320 1.329 . S
H322 C295 0.931 1_556 S
C323 O305 1.265 . S
C323 O306 1.242 . S
C324 O309 1.261 . S
C324 O310 1.252 . S
C325 C328 1.394 . S
C325 C330 1.370 . S
C325 C331 1.500 . S
C326 C329 1.383 . S
C326 C330 1.395 . S
C327 C328 1.396 . S
C327 C329 1.365 . S
C327 H336 0.929 . S
C328 C325 1.394 . S
C328 C327 1.396 . S
C328 H337 0.930 . S
C329 C326 1.383 . S
C329 C327 1.365 . S
C329 H338 0.931 . S
C330 C325 1.370 . S
C330 C326 1.395 . S
C330 H339 0.930 . S
C331 Gd267 2.805 1_554 S
C331 O307 1.263 . S
C331 O308 1.252 . S
C331 C325 1.500 . S
H332 C315 0.929 . S
H333 C316 0.930 . S
H334 C317 0.931 . S
H335 C318 0.930 . S
H336 C327 0.929 . S
H337 C328 0.930 . S
H338 C329 0.931 . S
H339 C330 0.930 . S
C340 C342 1.422 . S
C340 C344 1.415 . S
C340 N346 1.369 . S
C341 C342 1.421 . S
C341 C343 1.417 . S
C341 C353 1.422 . S
C342 C340 1.422 . S
C342 C341 1.421 . S
C342 N352 1.359 . S
C343 C341 1.417 . S
C343 C345 1.329 . S
C343 H362 0.930 . S
C344 C340 1.415 . S
C344 C345 1.437 . S
C344 C348 1.413 . S
C345 C343 1.329 . S
C345 C344 1.437 . S
C345 H367 0.929 . S
N346 C340 1.369 . S
N346 C347 1.338 1_554 S
N346 Gd351 2.622 1_454 S
C347 N346 1.338 1_556 S
C347 C349 1.381 . S
C347 H359 0.926 1_455 S
C348 C344 1.413 . S
C348 C349 1.348 1_554 S
C348 H364 0.931 . S
C349 C347 1.381 . S
C349 C348 1.348 1_556 S
C349 H365 0.930 . S
Gd350 N370 2.622 . S
Gd350 N377 2.570 1_455 S
Gd350 O384 2.353 . S
Gd350 O385 2.468 . S
Gd350 O386 2.427 . S
Gd350 O388 2.388 . S
Gd350 O389 2.386 1_455 S
Gd350 O393 2.307 . S
Gd350 C403 2.805 . S
Gd351 N346 2.622 1_656 S
Gd351 N352 2.570 1_656 S
Gd351 O383 2.386 1_655 S
Gd351 O387 2.311 1_556 S
Gd351 O390 2.353 . S
Gd351 O391 2.468 1_556 S
Gd351 O392 2.427 1_556 S
Gd351 O394 2.388 . S
Gd351 C415 2.805 1_556 S
N352 C342 1.359 . S
N352 Gd351 2.570 1_454 S
N352 C354 1.343 . S
C353 C341 1.422 . S
C353 C355 1.321 . S
C353 H361 0.931 . S
C354 N352 1.343 . S
C354 C355 1.390 . S
C354 H356 0.931 . S
C355 C353 1.321 . S
C355 C354 1.390 . S
C355 H357 0.930 . S
H356 C354 0.931 . S
H357 C355 0.930 . S
H358 C381 0.932 . S
H359 C347 0.926 1_655 S
H360 C382 0.930 . S
H361 C353 0.931 . S
H362 C343 0.930 . S
H363 C372 0.929 . S
H364 C348 0.931 . S
H365 C349 0.930 . S
H366 C404 0.930 . S
H367 C345 0.929 . S
H368 C373 0.931 . S
H369 C374 0.930 . S
N370 Gd350 2.622 . S
N370 C371 1.369 1_455 S
N370 C372 1.338 . S
C371 N370 1.369 1_655 S
C371 C375 1.415 . S
C371 C378 1.422 . S
C372 H363 0.929 . S
C372 N370 1.338 . S
C372 C374 1.378 1_455 S
C373 H368 0.931 . S
C373 C374 1.348 . S
C373 C375 1.413 . S
C374 H369 0.930 . S
C374 C372 1.378 1_655 S
C374 C373 1.348 . S
C375 C371 1.415 . S
C375 C373 1.413 . S
C375 C405 1.437 . S
H376 C405 0.929 . S
N377 Gd350 2.570 1_655 S
N377 C378 1.359 . S
N377 C381 1.343 . S
C378 C371 1.422 . S
C378 N377 1.359 . S
C378 C380 1.421 . S
C379 C380 1.422 . S
C379 C382 1.321 . S
C379 H406 0.931 1_554 S
C380 C378 1.421 . S
C380 C379 1.422 . S
C380 C404 1.417 . S
C381 H358 0.932 . S
C381 N377 1.343 . S
C381 C382 1.390 . S
C382 H360 0.930 . S
C382 C379 1.321 . S
C382 C381 1.390 . S
O383 Gd351 2.386 1_455 S
O383 C395 1.265 . S
O384 Gd350 2.353 . S
O384 C395 1.242 . S
O385 Gd350 2.468 . S
O385 C403 1.263 . S
O386 Gd350 2.427 . S
O386 C403 1.252 . S
O387 Gd351 2.311 1_554 S
O387 C396 1.259 1_655 S
O388 Gd350 2.388 . S
O388 C396 1.252 1_556 S
O389 Gd350 2.386 1_655 S
O389 C407 1.265 . S
O390 Gd351 2.353 . S
O390 C407 1.242 . S
O391 Gd351 2.468 1_554 S
O391 C415 1.263 . S
O392 Gd351 2.427 1_554 S
O392 C415 1.252 . S
O393 Gd350 2.307 . S
O393 C408 1.261 . S
O394 Gd351 2.388 . S
O394 C408 1.252 1_655 S
C395 O383 1.265 . S
C395 O384 1.242 . S
C396 O387 1.259 1_455 S
C396 O388 1.252 1_554 S
C397 C400 1.394 . S
C397 C402 1.370 . S
C397 C403 1.500 . S
C398 C401 1.383 . S
C398 C402 1.395 . S
C399 C400 1.396 . S
C399 C401 1.365 . S
C399 H416 0.929 . S
C400 C397 1.394 . S
C400 C399 1.396 . S
C400 H417 0.930 . S
C401 C398 1.383 . S
C401 C399 1.365 . S
C401 H418 0.931 . S
C402 C397 1.370 . S
C402 C398 1.395 . S
C402 H419 0.930 . S
C403 Gd350 2.805 . S
C403 O385 1.263 . S
C403 O386 1.252 . S
C403 C397 1.500 . S
C404 H366 0.930 . S
C404 C380 1.417 . S
C404 C405 1.329 . S
C405 C375 1.437 . S
C405 H376 0.929 . S
C405 C404 1.329 . S
H406 C379 0.931 1_556 S
C407 O389 1.265 . S
C407 O390 1.242 . S
C408 O393 1.261 . S
C408 O394 1.252 1_455 S
C409 C412 1.394 . S
C409 C414 1.370 . S
C409 C415 1.500 . S
C410 C413 1.383 . S
C410 C414 1.395 . S
C411 C412 1.396 . S
C411 C413 1.365 . S
C411 H420 0.929 . S
C412 C409 1.394 . S
C412 C411 1.396 . S
C412 H421 0.930 . S
C413 C410 1.383 . S
C413 C411 1.365 . S
C413 H422 0.931 . S
C414 C409 1.370 . S
C414 C410 1.395 . S
C414 H423 0.930 . S
C415 Gd351 2.805 1_554 S
C415 O391 1.263 . S
C415 O392 1.252 . S
C415 C409 1.500 . S
H416 C399 0.929 . S
H417 C400 0.930 . S
H418 C401 0.931 . S
H419 C402 0.930 . S
H420 C411 0.929 . S
H421 C412 0.930 . S
H422 C413 0.931 . S
H423 C414 0.930 . S
C76 C156 3.385 . S
C239 C87 3.364 . S
C324 C54 3.402 . S
C408 C65 3.365 . S
C144 C32 3.390 1_545 S
C43 C227 3.364 . S
C10 C312 3.407 . S
C21 C396 3.371 1_655 S
C146 C60 1.998 1_655 S
C242 C71 1.861 1_565 S
C314 C82 2.049 . S
C49 C398 2.005 . S
C16 C158 1.949 1_655 S
C230 C27 1.816 1_545 S
C326 C38 1.999 . S
C5 C410 1.955 . S
C59 C143 3.379 . S
C70 C228 3.505 . S
C311 C81 3.403 . S
C395 C48 3.407 . S
C15 C155 3.387 . S
C240 C26 3.509 . S
C323 C37 3.410 . S
C4 C407 3.414 . S
