# Generated by pormake.
# Topology anh, (6,3)-cn, num edge types: 1
# Building blocks:
#     Node 0, Type 0, BuildingBlock: BETGAK_clean_sbu_0, # of connection points: 6
#     Node 1, Type 0, BuildingBlock: BETGAK_clean_sbu_0, # of connection points: 6
#     Node 2, Type 0, BuildingBlock: BETGAK_clean_sbu_0, # of connection points: 6
#     Node 3, Type 1, BuildingBlock: MIDCAF_clean_linker_0, # of connection points: 3
#     Node 4, Type 1, BuildingBlock: MIDCAF_clean_linker_0, # of connection points: 3
#     Node 5, Type 1, BuildingBlock: MIDCAF_clean_linker_0, # of connection points: 3
#     Node 6, Type 1, BuildingBlock: MIDCAF_clean_linker_0, # of connection points: 3
#     Node 7, Type 1, BuildingBlock: MIDCAF_clean_linker_0, # of connection points: 3
#     Node 8, Type 1, BuildingBlock: MIDCAF_clean_linker_0, # of connection points: 3
#     Edge 9, Type (0, 1), BuildingBlock: ZUJKAS_clean_linker_0, # of connection points: 2
#     Edge 10, Type (0, 1), BuildingBlock: ZUJKAS_clean_linker_0, # of connection points: 2
#     Edge 11, Type (0, 1), BuildingBlock: ZUJKAS_clean_linker_0, # of connection points: 2
#     Edge 12, Type (0, 1), BuildingBlock: ZUJKAS_clean_linker_0, # of connection points: 2
#     Edge 13, Type (0, 1), BuildingBlock: ZUJKAS_clean_linker_0, # of connection points: 2
#     Edge 14, Type (0, 1), BuildingBlock: ZUJKAS_clean_linker_0, # of connection points: 2
#     Edge 15, Type (0, 1), BuildingBlock: ZUJKAS_clean_linker_0, # of connection points: 2
#     Edge 16, Type (0, 1), BuildingBlock: ZUJKAS_clean_linker_0, # of connection points: 2
#     Edge 17, Type (0, 1), BuildingBlock: ZUJKAS_clean_linker_0, # of connection points: 2
#     Edge 18, Type (0, 1), BuildingBlock: ZUJKAS_clean_linker_0, # of connection points: 2
#     Edge 19, Type (0, 1), BuildingBlock: ZUJKAS_clean_linker_0, # of connection points: 2
#     Edge 20, Type (0, 1), BuildingBlock: ZUJKAS_clean_linker_0, # of connection points: 2
#     Edge 21, Type (0, 1), BuildingBlock: ZUJKAS_clean_linker_0, # of connection points: 2
#     Edge 22, Type (0, 1), BuildingBlock: ZUJKAS_clean_linker_0, # of connection points: 2
#     Edge 23, Type (0, 1), BuildingBlock: ZUJKAS_clean_linker_0, # of connection points: 2
#     Edge 24, Type (0, 1), BuildingBlock: ZUJKAS_clean_linker_0, # of connection points: 2
#     Edge 25, Type (0, 1), BuildingBlock: ZUJKAS_clean_linker_0, # of connection points: 2
#     Edge 26, Type (0, 1), BuildingBlock: ZUJKAS_clean_linker_0, # of connection points: 2
# Relax obj value: 0.166
# Max RMSD: 0.197
# Mean RMSD: 0.150
data_MOF--net-anh--node1-BETGAK_clean_sbu_0--node2-MIDCAF_clean_linker_0--edge1-ZUJKAS_clean_linker_0
_symmetry_space_group_name_H-M    P1
_symmetry_Int_Tables_number       1
_symmetry_cell_setting            triclinic
loop_
_symmetry_equiv_pos_as_xyz
'x, y, z'
_cell_length_a     45.522498
_cell_length_b     52.40908
_cell_length_c     82.485136
_cell_angle_alpha  92.601664
_cell_angle_beta   89.344014
_cell_angle_gamma 127.25303
loop_
_atom_site_label
_atom_site_type_symbol
_atom_site_fract_x
_atom_site_fract_y
_atom_site_fract_z
_atom_type_partial_charge
La0 La 0.09178 0.52573 0.15063 0.0
La1 La 1.04936 0.54916 0.16266 0.0
C2 C 0.13507 0.51961 0.13509 0.0
C3 C 0.17438 0.53473 0.13758 0.0
C4 C 0.19072 0.54636 0.15314 0.0
C5 C 0.22716 0.55793 0.15583 0.0
C6 C 0.24796 0.55858 0.14294 0.0
C7 C 0.23221 0.54872 0.1272 0.0
C8 C 0.19556 0.53672 0.12456 0.0
C9 C 0.08383 0.52476 0.18223 0.0
C10 C 0.13344 0.60153 0.15908 0.0
C11 C 1.00504 0.55483 0.17778 0.0
C12 C 0.96707 0.53071 0.183 0.0
C13 C 0.94477 0.5006 0.17469 0.0
C14 C 0.90919 0.47716 0.17984 0.0
C15 C 0.89484 0.48366 0.19314 0.0
C16 C 0.91688 0.5139 0.20139 0.0
C17 C 0.95306 0.5372 0.19646 0.0
C18 C 0.05874 0.54994 0.13102 0.0
C19 C 1.00908 0.47413 0.15571 0.0
O20 O 0.1134 0.50046 0.14639 0.0
O21 O 0.12724 0.53871 0.13091 0.0
O22 O 0.08649 0.50482 0.17382 0.0
O23 O 0.08935 0.54593 0.17322 0.0
O24 O 0.13427 0.57844 0.15237 0.0
O25 O 0.10312 0.59529 0.16553 0.0
O26 O 1.00949 0.55714 0.16208 0.0
O27 O 1.0303 0.55452 0.18495 0.0
O28 O 0.0586 0.57144 0.13936 0.0
O29 O 0.05162 0.52844 0.14018 0.0
O30 O 1.01122 0.49675 0.16476 0.0
O31 O 1.0364 0.48147 0.14613 0.0
H32 H 0.17489 0.54549 0.16331 0.0
H33 H 0.23877 0.56547 0.16805 0.0
H34 H 0.2476 0.54866 0.1171 0.0
H35 H 0.18342 0.52809 0.11246 0.0
H36 H 0.95462 0.49526 0.16406 0.0
H37 H 0.89233 0.4543 0.17304 0.0
H38 H 0.90601 0.51949 0.21152 0.0
H39 H 0.9699 0.56032 0.20301 0.0
La40 La 0.59065 0.01437 0.49057 0.0
La41 La 0.54389 0.03478 0.48204 0.0
C42 C 0.61713 0.98988 0.50407 0.0
C43 C 0.60779 0.95803 0.5064 0.0
C44 C 0.58873 0.93299 0.49443 0.0
C45 C 0.58283 0.90382 0.49653 0.0
C46 C 0.59582 0.89917 0.51067 0.0
C47 C 0.6137 0.924 0.52284 0.0
C48 C 0.61968 0.9531 0.5207 0.0
C49 C 0.588 0.0225 0.45955 0.0
C50 C 0.5037 0.96148 0.48323 0.0
C51 C 0.51812 0.06116 0.4701 0.0
C52 C 0.52584 0.09265 0.47294 0.0
C53 C 0.54842 0.11316 0.48607 0.0
C54 C 0.55397 0.14226 0.4893 0.0
C55 C 0.53716 0.15149 0.4794 0.0
C56 C 0.51521 0.13106 0.46602 0.0
C57 C 0.50957 0.1019 0.46285 0.0
C58 C 0.54844 0.02815 0.5132 0.0
C59 C 0.63155 0.0877 0.48796 0.0
O60 O 0.62475 1.0 0.4893 0.0
O61 O 0.5967 0.99638 0.51155 0.0
O62 O 0.61646 0.02801 0.46689 0.0
O63 O 0.56148 0.01032 0.46915 0.0
O64 O 0.53404 0.96892 0.49048 0.0
O65 O 0.50325 0.98362 0.4764 0.0
O66 O 0.50355 0.04225 0.48227 0.0
O67 O 0.5445 0.06133 0.46347 0.0
O68 O 0.51961 0.02239 0.5062 0.0
O69 O 0.57394 0.03966 0.50317 0.0
O70 O 0.60027 0.08007 0.48174 0.0
O71 O 0.63319 0.0659 0.49441 0.0
H72 H 0.57907 0.93621 0.48332 0.0
H73 H 0.5691 0.88532 0.48688 0.0
H74 H 0.6233 0.92105 0.53404 0.0
H75 H 0.63416 0.97202 0.53014 0.0
H76 H 0.56119 0.10638 0.49402 0.0
H77 H 0.57064 0.15707 0.49982 0.0
H78 H 0.50233 0.13758 0.45797 0.0
H79 H 0.49217 0.0864 0.45261 0.0
La80 La 0.60562 0.55806 0.84329 0.0
La81 La 0.55527 0.48698 0.84786 0.0
C82 C 0.63578 0.61299 0.83263 0.0
C83 C 0.62677 0.63518 0.82983 0.0
C84 C 0.60646 0.6396 0.84097 0.0
C85 C 0.60048 0.66241 0.83843 0.0
C86 C 0.61457 0.68111 0.82465 0.0
C87 C 0.63384 0.67572 0.8133 0.0
C88 C 0.63995 0.6531 0.8159 0.0
C89 C 0.59787 0.54081 0.87337 0.0
C90 C 0.51775 0.52129 0.84757 0.0
C91 C 0.52641 0.43149 0.85748 0.0
C92 C 0.53387 0.40802 0.85451 0.0
C93 C 0.55743 0.41208 0.84206 0.0
C94 C 0.56308 0.38894 0.83877 0.0
C95 C 0.54539 0.36137 0.84791 0.0
C96 C 0.52257 0.35788 0.86067 0.0
C97 C 0.51683 0.38101 0.86392 0.0
C98 C 0.56364 0.50357 0.81754 0.0
C99 C 0.64389 0.52458 0.84513 0.0
O100 O 0.63859 0.60793 0.84774 0.0
O101 O 0.61846 0.58662 0.82336 0.0
O102 O 0.6284 0.56566 0.86786 0.0
O103 O 0.57309 0.5282 0.86253 0.0
O104 O 0.54976 0.54645 0.84212 0.0
O105 O 0.51493 0.49632 0.85286 0.0
O106 O 0.51437 0.43724 0.84489 0.0
O107 O 0.55194 0.45792 0.86569 0.0
O108 O 0.53368 0.47836 0.82307 0.0
O109 O 0.58829 0.51671 0.82848 0.0
O110 O 0.61101 0.49852 0.84921 0.0
O111 O 0.64773 0.55033 0.84042 0.0
H112 H 0.59576 0.62586 0.85178 0.0
H113 H 0.58568 0.66597 0.84747 0.0
H114 H 0.64432 0.68905 0.80237 0.0
H115 H 0.65541 0.64987 0.80709 0.0
H116 H 0.57109 0.43295 0.83476 0.0
H117 H 0.58128 0.39263 0.82904 0.0
H118 H 0.50834 0.33685 0.86786 0.0
H119 H 0.49865 0.37757 0.87361 0.0
C120 C 0.48841 0.92254 0.19828 0.0
C121 C 0.46963 0.92139 0.18454 0.0
C122 C 0.48154 0.95043 0.17786 0.0
C123 C 0.51112 0.98001 0.18504 0.0
H124 H 0.62009 0.07878 0.17737 0.0
H125 H 0.66768 0.12995 0.16542 0.0
H126 H 0.70217 0.17613 0.21339 0.0
H127 H 0.65487 0.12593 0.2252 0.0
H128 H 0.6285 0.088 0.25597 0.0
H129 H 0.62727 0.08723 0.2855 0.0
H130 H 0.53101 0.98793 0.28246 0.0
H131 H 0.53181 0.98863 0.25298 0.0
H132 H 0.53035 0.95186 0.21648 0.0
H133 H 0.47973 0.90067 0.20382 0.0
H134 H 0.46763 0.95023 0.16724 0.0
H135 H 0.51913 1.00203 0.17994 0.0
N136 N 0.58054 0.03954 0.20096 0.0
N137 N 0.60509 0.06637 0.22645 0.0
N138 N 0.55649 0.01151 0.22493 0.0
C139 C 0.60544 0.06714 0.20998 0.0
C140 C 0.5807 0.03877 0.23403 0.0
C141 C 0.55609 0.01156 0.20847 0.0
C142 C 0.6334 0.09802 0.20227 0.0
C143 C 0.63768 0.09992 0.18534 0.0
C144 C 0.66511 0.12922 0.17849 0.0
C145 C 0.68867 0.15728 0.18843 0.0
C146 C 0.68417 0.15526 0.20531 0.0
C147 C 0.65702 0.12619 0.21211 0.0
C148 C 0.58026 0.03837 0.25202 0.0
C149 C 0.60702 0.06597 0.26156 0.0
C150 C 0.60645 0.06552 0.2785 0.0
C151 C 0.57902 0.03754 0.28632 0.0
C152 C 0.55223 0.00999 0.27681 0.0
C153 C 0.55288 0.01037 0.25988 0.0
C154 C 0.52864 0.98098 0.19923 0.0
C155 C 0.51732 0.95192 0.20558 0.0
C156 C 0.58712 0.43954 0.5561 0.0
C157 C 0.57588 0.43244 0.53969 0.0
C158 C 0.56721 0.45077 0.53219 0.0
C159 C 0.56991 0.47576 0.54093 0.0
H160 H 0.56652 0.55623 0.53732 0.0
H161 H 0.5664 0.59838 0.52557 0.0
H162 H 0.60283 0.65166 0.57176 0.0
H163 H 0.60322 0.6103 0.5834 0.0
H164 H 0.59298 0.57626 0.61469 0.0
H165 H 0.59649 0.57746 0.64415 0.0
H166 H 0.59375 0.49356 0.64116 0.0
H167 H 0.59089 0.49256 0.61165 0.0
H168 H 0.5981 0.46867 0.57749 0.0
H169 H 0.59351 0.42562 0.56231 0.0
H170 H 0.55862 0.44596 0.51952 0.0
H171 H 0.56302 0.48941 0.53481 0.0
N172 N 0.58215 0.53079 0.55977 0.0
N173 N 0.58797 0.55534 0.58531 0.0
N174 N 0.58623 0.50983 0.58352 0.0
C175 C 0.58481 0.5545 0.5689 0.0
C176 C 0.5886 0.53314 0.59274 0.0
C177 C 0.58302 0.50839 0.56707 0.0
C178 C 0.58488 0.57977 0.56132 0.0
C179 C 0.57464 0.57702 0.54493 0.0
C180 C 0.57439 0.60105 0.53822 0.0
C181 C 0.58487 0.62846 0.54771 0.0
C182 C 0.59517 0.63113 0.56404 0.0
C183 C 0.5951 0.60716 0.57075 0.0
C184 C 0.59153 0.53424 0.61072 0.0
C185 C 0.59324 0.55808 0.62026 0.0
C186 C 0.59507 0.5587 0.63719 0.0
C187 C 0.5953 0.53556 0.64502 0.0
C188 C 0.59406 0.51197 0.6355 0.0
C189 C 0.59218 0.51129 0.61856 0.0
C190 C 0.58086 0.48261 0.55741 0.0
C191 C 0.58947 0.46416 0.56484 0.0
C192 C 0.9974 0.55609 0.87365 0.0
C193 C 0.97021 0.5326 0.86244 0.0
C194 C 0.97616 0.51141 0.85473 0.0
C195 C 1.00699 0.51242 0.85899 0.0
H196 H 0.15233 0.55233 0.85331 0.0
H197 H 0.205 0.55216 0.84616 0.0
H198 H 0.17523 0.48624 0.88381 0.0
H199 H 0.12384 0.48685 0.89093 0.0
H200 H 0.12123 0.52141 0.92598 0.0
H201 H 0.12116 0.52511 0.95556 0.0
H202 H 1.04496 0.54821 0.95349 0.0
H203 H 1.0453 0.54499 0.92398 0.0
H204 H 1.04699 0.57468 0.88714 0.0
H205 H 0.99475 0.57345 0.87958 0.0
H206 H 0.956 0.49295 0.84602 0.0
H207 H 1.00933 0.49448 0.85365 0.0
N208 N 0.0831 0.52703 0.8712 0.0
N209 N 0.10596 0.52609 0.89655 0.0
N210 N 0.06053 0.5336 0.89569 0.0
C211 C 0.10658 0.52433 0.88006 0.0
C212 C 0.08327 0.53079 0.90446 0.0
C213 C 0.05971 0.53162 0.8792 0.0
C214 C 0.13363 0.51966 0.87275 0.0
C215 C 0.15658 0.53723 0.85976 0.0
C216 C 0.18702 0.53726 0.85574 0.0
C217 C 0.19534 0.51977 0.86464 0.0
C218 C 0.17088 0.50085 0.87694 0.0
C219 C 0.14087 0.5009 0.88093 0.0
C220 C 0.08329 0.53292 0.92251 0.0
C221 C 0.10448 0.52734 0.9318 0.0
C222 C 0.1043 0.52927 0.94878 0.0
C223 C 0.0831 0.537 0.95691 0.0
C224 C 0.06198 0.54262 0.94763 0.0
C225 C 0.06202 0.54055 0.93067 0.0
C226 C 1.03275 0.53478 0.871 0.0
C227 C 1.02786 0.55708 0.87786 0.0
C228 C 0.15891 0.63849 0.4402 0.0
C229 C 0.17191 0.64032 0.45588 0.0
C230 C 0.15411 0.61194 0.46441 0.0
C231 C 0.12406 0.58241 0.45732 0.0
H232 H 1.02757 0.47964 0.46442 0.0
H233 H 0.97855 0.42987 0.47721 0.0
H234 H 0.91485 0.39528 0.4324 0.0
H235 H 0.9629 0.44424 0.41976 0.0
H236 H 1.00412 0.47069 0.38693 0.0
H237 H 1.00265 0.46996 0.35736 0.0
H238 H 0.09792 0.56969 0.35872 0.0
H239 H 0.09915 0.57073 0.38818 0.0
H240 H 0.12067 0.60908 0.42092 0.0
H241 H 0.1722 0.65967 0.43315 0.0
H242 H 0.1634 0.61258 0.47656 0.0
H243 H 0.11114 0.5609 0.46406 0.0
N244 N 0.0563 0.523 0.44112 0.0
N245 N 1.02764 0.49509 0.4162 0.0
N246 N 0.07992 0.54854 0.41651 0.0
C247 C 1.0288 0.4955 0.4327 0.0
C248 C 0.05312 0.52141 0.40801 0.0
C249 C 0.0819 0.54978 0.43297 0.0
C250 C 0.99936 0.46607 0.44104 0.0
C251 C 1.003 0.46145 0.45736 0.0
C252 C 0.97503 0.4329 0.46465 0.0
C253 C 0.94268 0.40869 0.45585 0.0
C254 C 0.93909 0.41356 0.43962 0.0
C255 C 0.96697 0.4417 0.43233 0.0
C256 C 0.05177 0.52076 0.39001 0.0
C257 C 1.02471 0.49252 0.38095 0.0
C258 C 1.02395 0.49203 0.36398 0.0
C259 C 0.05013 0.51977 0.35568 0.0
C260 C 0.07701 0.54802 0.36473 0.0
C261 C 0.07784 0.54852 0.38166 0.0
C262 C 0.11172 0.58071 0.44146 0.0
C263 C 0.1294 0.60924 0.43311 0.0
C264 C 0.58031 0.11648 0.77344 0.0
C265 C 0.57372 0.11458 0.79017 0.0
C266 C 0.571 0.09033 0.79846 0.0
C267 C 0.57399 0.06808 0.79007 0.0
H268 H 0.57179 0.98435 0.79411 0.0
H269 H 0.57523 0.94423 0.80616 0.0
H270 H 0.60872 0.9278 0.76015 0.0
H271 H 0.60555 0.96745 0.74819 0.0
H272 H 0.5844 0.98399 0.71634 0.0
H273 H 0.5831 0.98398 0.68681 0.0
H274 H 0.58088 0.06528 0.68992 0.0
H275 H 0.58277 0.06574 0.71938 0.0
H276 H 0.58818 0.09682 0.7522 0.0
H277 H 0.58349 0.13527 0.76673 0.0
H278 H 0.5658 0.08814 0.81135 0.0
H279 H 0.57122 0.04942 0.79673 0.0
N280 N 0.58349 0.02409 0.77136 0.0
N281 N 0.58587 1.00337 0.74591 0.0
N282 N 0.58201 0.04584 0.74738 0.0
C283 C 0.58572 1.00281 0.76238 0.0
C284 C 0.58394 0.02471 0.73831 0.0
C285 C 0.5818 0.04585 0.76386 0.0
C286 C 0.58835 0.97919 0.77016 0.0
C287 C 0.58006 0.97227 0.78661 0.0
C288 C 0.58184 0.94919 0.7935 0.0
C289 C 0.59247 0.93299 0.78413 0.0
C290 C 0.60097 0.94016 0.76776 0.0
C291 C 0.59885 0.96282 0.76088 0.0
C292 C 0.58366 0.02485 0.72031 0.0
C293 C 0.58376 1.00196 0.71076 0.0
C294 C 0.58281 1.00182 0.69381 0.0
C295 C 0.58189 0.02463 0.686 0.0
C296 C 0.58207 0.04764 0.69554 0.0
C297 C 0.58292 0.04775 0.71247 0.0
C298 C 0.57978 0.06968 0.77323 0.0
C299 C 0.58321 0.09438 0.7651 0.0
C300 C 0.56201 0.33707 0.11416 0.0
C301 C 0.56143 0.33927 0.13119 0.0
C302 C 0.53952 0.34691 0.13855 0.0
C303 C 0.52066 0.35439 0.1291 0.0
H304 H 0.49532 0.41944 0.13206 0.0
H305 H 0.47669 0.45101 0.14434 0.0
H306 H 0.41599 0.43541 0.10045 0.0
H307 H 0.4346 0.40425 0.08815 0.0
H308 H 0.46529 0.39381 0.05524 0.0
H309 H 0.48032 0.40621 0.02698 0.0
H310 H 0.55979 0.38688 0.02996 0.0
H311 H 0.54509 0.37478 0.05851 0.0
H312 H 0.54539 0.34379 0.09162 0.0
H313 H 0.57832 0.33083 0.10816 0.0
H314 H 0.53875 0.34905 0.15164 0.0
H315 H 0.50532 0.36151 0.13523 0.0
N316 N 0.49282 0.38001 0.10977 0.0
N317 N 0.48309 0.39302 0.08463 0.0
N318 N 0.51087 0.36738 0.08583 0.0
C319 C 0.48029 0.39303 0.10101 0.0
C320 C 0.49837 0.38035 0.07692 0.0
C321 C 0.50774 0.36677 0.10227 0.0
C322 C 0.46641 0.4094 0.10913 0.0
C323 C 0.47759 0.42242 0.12513 0.0
C324 C 0.4672 0.44064 0.13213 0.0
C325 C 0.44491 0.44554 0.12334 0.0
C326 C 0.43291 0.43172 0.10754 0.0
C327 C 0.44371 0.41401 0.10048 0.0
C328 C 0.5042 0.38355 0.05921 0.0
C329 C 0.48569 0.3918 0.04988 0.0
C330 C 0.4941 0.3987 0.0336 0.0
C331 C 0.52133 0.39762 0.02624 0.0
C332 C 0.53893 0.3882 0.03536 0.0
C333 C 0.5303 0.38105 0.05167 0.0
C334 C 0.52329 0.35437 0.11208 0.0
C335 C 0.54311 0.3445 0.10469 0.0
H336 H 0.26276 0.53099 0.16501 0.0
H337 H 0.31628 0.53135 0.16605 0.0
H338 H 0.36814 0.60141 0.12919 0.0
H339 H 0.31322 0.5997 0.12756 0.0
H340 H 0.36507 0.554 0.1195 0.0
H341 H 0.4185 0.57908 0.18198 0.0
H342 H 0.3696 0.54912 0.18268 0.0
H343 H 0.38817 0.5884 0.17577 0.0
C344 C 0.28613 0.54734 0.15755 0.0
C345 C 0.28388 0.56516 0.14613 0.0
C346 C 0.31703 0.54781 0.15827 0.0
C347 C 0.34669 0.56672 0.14785 0.0
C348 C 0.3457 0.58667 0.13738 0.0
H349 H 0.49069 0.50592 0.1377 0.0
H350 H 0.47497 0.54239 0.14488 0.0
C351 C 0.31436 0.58566 0.13642 0.0
C352 C 0.374 0.56018 0.1455 0.0
H353 H 0.41862 0.53728 0.16612 0.0
C354 C 0.37781 0.55148 0.1297 0.0
C355 C 0.39137 0.55725 0.15866 0.0
C356 C 0.39197 0.56937 0.17567 0.0
C357 C 0.39502 0.53691 0.12693 0.0
C358 C 0.40786 0.53007 0.14032 0.0
C359 C 0.40769 0.54173 0.15593 0.0
C360 C 0.41717 0.50761 0.13829 0.0
C361 C 0.39742 0.52727 0.10973 0.0
C362 C 0.38953 0.4758 0.13291 0.0
C363 C 0.39835 0.45515 0.12879 0.0
C364 C 0.43494 0.46588 0.13015 0.0
C365 C 0.46224 0.49711 0.1366 0.0
C366 C 0.45338 0.51793 0.14064 0.0
H367 H 0.39739 0.54263 0.10088 0.0
H368 H 0.42272 0.52886 0.10808 0.0
H369 H 0.37306 0.50209 0.10691 0.0
H370 H 0.36128 0.46729 0.13131 0.0
H371 H 0.37674 0.43105 0.12408 0.0
H372 H 0.63767 0.13892 0.47654 0.0
H373 H 0.69335 0.19399 0.47463 0.0
H374 H 0.75742 0.16905 0.49703 0.0
H375 H 0.70181 0.11355 0.49876 0.0
H376 H 0.7424 0.23932 0.4983 0.0
H377 H 0.81338 0.20901 0.45542 0.0
H378 H 0.765 0.18077 0.45981 0.0
H379 H 0.79938 0.18838 0.47403 0.0
C380 C 0.66355 0.14503 0.48109 0.0
C381 C 0.66521 0.12161 0.4877 0.0
C382 C 0.6954 0.17663 0.48001 0.0
C383 C 0.72973 0.18561 0.48543 0.0
C384 C 0.7314 0.16256 0.49244 0.0
H385 H 0.94899 0.36997 0.47445 0.0
H386 H 0.89887 0.31685 0.48397 0.0
C387 C 0.69949 0.13085 0.49352 0.0
C388 C 0.76358 0.21904 0.48354 0.0
H389 H 0.84589 0.2634 0.46401 0.0
C390 C 0.76511 0.24457 0.49087 0.0
C391 C 0.79332 0.22594 0.47389 0.0
C392 C 0.79275 0.19966 0.46521 0.0
C393 C 0.79529 0.27671 0.48866 0.0
C394 C 0.82453 0.2836 0.47866 0.0
C395 C 0.82353 0.25811 0.47172 0.0
C396 C 0.85497 0.3169 0.47423 0.0
C397 C 0.79555 0.30302 0.49706 0.0
C398 C 0.847 0.33465 0.46567 0.0
C399 C 0.87547 0.36488 0.46026 0.0
C400 C 0.91267 0.37807 0.4632 0.0
C401 C 0.92065 0.36064 0.47214 0.0
C402 C 0.89205 0.33022 0.4775 0.0
H403 H 0.77783 0.29437 0.50791 0.0
H404 H 0.82398 0.32385 0.50087 0.0
H405 H 0.78456 0.31133 0.48856 0.0
H406 H 0.8187 0.32472 0.46275 0.0
H407 H 0.86835 0.37775 0.45351 0.0
H408 H 0.66494 0.74051 0.81271 0.0
H409 H 0.65718 0.78169 0.80777 0.0
H410 H 0.54713 0.7218 0.82653 0.0
H411 H 0.55417 0.67985 0.83115 0.0
H412 H 0.59772 0.77145 0.78747 0.0
H413 H 0.60005 0.81224 0.85131 0.0
H414 H 0.61927 0.79144 0.84572 0.0
H415 H 0.57018 0.76972 0.84636 0.0
C416 C 0.6389 0.73584 0.81568 0.0
C417 C 0.61007 0.70664 0.82223 0.0
C418 C 0.63466 0.75957 0.81296 0.0
C419 C 0.60173 0.75489 0.8169 0.0
C420 C 0.57299 0.72605 0.82362 0.0
H421 H 0.54208 0.88385 0.80336 0.0
H422 H 0.54246 0.83981 0.81203 0.0
C423 C 0.57711 0.70213 0.82628 0.0
C424 C 0.5972 0.77979 0.81322 0.0
H425 H 0.59253 0.83765 0.83065 0.0
C426 C 0.59645 0.78585 0.7969 0.0
C427 C 0.59519 0.79829 0.82555 0.0
C428 C 0.5964 0.79289 0.84325 0.0
C429 C 0.59413 0.81017 0.79256 0.0
C430 C 0.59352 0.82955 0.80489 0.0
C431 C 0.59324 0.82292 0.82122 0.0
C432 C 0.59452 0.85745 0.80094 0.0
C433 C 0.5921 0.81473 0.77478 0.0
C434 C 0.62426 0.88253 0.79237 0.0
C435 C 0.62408 0.90757 0.78741 0.0
C436 C 0.59431 0.90826 0.79106 0.0
C437 C 0.56543 0.88402 0.8004 0.0
C438 C 0.56555 0.8588 0.8053 0.0
H439 H 0.5819 0.79261 0.76725 0.0
H440 H 0.57371 0.82156 0.77261 0.0
H441 H 0.62013 0.83419 0.77063 0.0
H442 H 0.64738 0.88246 0.78925 0.0
H443 H 0.64709 0.92622 0.78052 0.0
H444 H 0.85893 0.42143 0.2011 0.0
H445 H 0.79186 0.37939 0.20019 0.0
H446 H 0.77588 0.45059 0.19058 0.0
H447 H 0.84234 0.49254 0.19258 0.0
H448 H 0.71936 0.40385 0.20666 0.0
H449 H 0.7493 0.34961 0.15559 0.0
H450 H 0.76609 0.35086 0.17539 0.0
H451 H 0.78526 0.38758 0.16542 0.0
C452 C 0.84079 0.42803 0.1994 0.0
C453 C 0.85548 0.46001 0.19678 0.0
C454 C 0.8026 0.40404 0.19869 0.0
C455 C 0.77889 0.41164 0.19471 0.0
C456 C 0.79356 0.44403 0.19358 0.0
H457 H 0.63366 0.36815 0.1254 0.0
H458 H 0.67946 0.37438 0.1435 0.0
C459 C 0.83155 0.46806 0.19472 0.0
C460 C 0.74001 0.38653 0.18938 0.0
H461 H 0.69002 0.33466 0.15709 0.0
C462 C 0.71258 0.3881 0.19604 0.0
C463 C 0.73119 0.36574 0.17558 0.0
C464 C 0.75942 0.36332 0.16747 0.0
C465 C 0.67809 0.37252 0.18823 0.0
C466 C 0.67048 0.35391 0.17369 0.0
C467 C 0.69618 0.34916 0.16818 0.0
C468 C 0.64073 0.34556 0.16221 0.0
C469 C 0.6517 0.37873 0.19473 0.0
C470 C 0.60339 0.32642 0.16645 0.0
C471 C 0.57695 0.32301 0.15606 0.0
C472 C 0.58748 0.33824 0.1412 0.0
C473 C 0.62451 0.35571 0.13663 0.0
C474 C 0.6508 0.35938 0.14703 0.0
H475 H 0.66393 0.39693 0.20502 0.0
H476 H 0.64323 0.38718 0.18501 0.0
H477 H 0.62655 0.35612 0.19908 0.0
H478 H 0.59487 0.31494 0.17794 0.0
H479 H 0.54849 0.30914 0.1598 0.0
H480 H 0.43528 0.93761 0.47117 0.0
H481 H 0.37982 0.88186 0.46969 0.0
H482 H 0.43994 0.85237 0.49143 0.0
H483 H 0.4958 0.90818 0.49291 0.0
H484 H 0.39682 0.81421 0.46358 0.0
H485 H 0.31444 0.8287 0.50764 0.0
H486 H 0.33367 0.85694 0.49189 0.0
H487 H 0.36387 0.858 0.50623 0.0
C488 C 0.43681 0.91935 0.47568 0.0
C489 C 0.47007 0.92749 0.48221 0.0
C490 C 0.40494 0.88746 0.47492 0.0
C491 C 0.40553 0.86298 0.4807 0.0
C492 C 0.43876 0.8709 0.48702 0.0
H493 H 0.23188 0.65313 0.47252 0.0
H494 H 0.28892 0.70598 0.48063 0.0
C495 C 0.47067 0.90285 0.48786 0.0
C496 C 0.37166 0.82908 0.47965 0.0
H497 H 0.28165 0.78008 0.49118 0.0
C498 C 0.37174 0.80659 0.46977 0.0
C499 C 0.33899 0.81918 0.48775 0.0
C500 C 0.33768 0.84186 0.4991 0.0
C501 C 0.33958 0.77488 0.46718 0.0
C502 C 0.30661 0.76517 0.47497 0.0
C503 C 0.30687 0.78747 0.48522 0.0
C504 C 0.27096 0.7328 0.47169 0.0
C505 C 0.34079 0.7525 0.45552 0.0
C506 C 0.24119 0.73018 0.46474 0.0
C507 C 0.2085 0.7001 0.46032 0.0
C508 C 0.20471 0.67183 0.46275 0.0
C509 C 0.23384 0.67438 0.4705 0.0
C510 C 0.26665 0.70461 0.47494 0.0
H511 H 0.36567 0.76563 0.44786 0.0
H512 H 0.34148 0.73525 0.46249 0.0
H513 H 0.31589 0.7386 0.44744 0.0
H514 H 0.24366 0.75152 0.46225 0.0
H515 H 0.18639 0.699 0.45465 0.0
H516 H 0.54498 0.33725 0.81776 0.0
H517 H 0.55113 0.29488 0.81086 0.0
H518 H 0.56203 0.2854 0.86168 0.0
H519 H 0.55569 0.32779 0.8687 0.0
H520 H 0.60808 0.29203 0.81705 0.0
H521 H 0.48033 0.19319 0.84651 0.0
H522 H 0.48965 0.23123 0.84312 0.0
H523 H 0.51208 0.22764 0.85967 0.0
C524 C 0.54893 0.32633 0.82748 0.0
C525 C 0.54979 0.3359 0.84379 0.0
C526 C 0.55228 0.30199 0.82352 0.0
C527 C 0.55651 0.28661 0.83575 0.0
C528 C 0.55792 0.29638 0.85205 0.0
H529 H 0.60146 0.14555 0.8202 0.0
H530 H 0.59797 0.18695 0.83297 0.0
C531 C 0.55438 0.32066 0.85604 0.0
C532 C 0.55989 0.2607 0.83127 0.0
H533 H 0.51777 0.1806 0.83445 0.0
C534 C 0.58847 0.26774 0.82096 0.0
C535 C 0.53421 0.22893 0.83633 0.0
C536 C 0.50212 0.21959 0.8469 0.0
C537 C 0.59173 0.24385 0.81541 0.0
C538 C 0.56583 0.21213 0.8203 0.0
C539 C 0.53772 0.20508 0.83086 0.0
C540 C 0.5659 0.18563 0.81337 0.0
C541 C 0.6223 0.25231 0.80403 0.0
C542 C 0.54846 0.17095 0.79831 0.0
C543 C 0.55018 0.14731 0.79106 0.0
C544 C 0.56958 0.13792 0.79869 0.0
C545 C 0.58613 0.15206 0.81405 0.0
C546 C 0.58432 0.17578 0.82133 0.0
H547 H 0.64221 0.27858 0.80253 0.0
H548 H 0.63745 0.24356 0.80862 0.0
H549 H 0.61023 0.24018 0.79195 0.0
H550 H 0.53397 0.17818 0.79204 0.0
H551 H 0.53652 0.13653 0.77938 0.0
H552 H 0.64627 0.89314 0.52365 0.0
H553 H 0.63952 0.84404 0.52777 0.0
H554 H 0.53051 0.78777 0.50592 0.0
H555 H 0.53665 0.83693 0.50202 0.0
H556 H 0.58163 0.79098 0.54611 0.0
H557 H 0.58423 0.75489 0.48188 0.0
H558 H 0.60173 0.79537 0.4881 0.0
H559 H 0.5529 0.76421 0.48664 0.0
C560 C 0.62068 0.87036 0.51981 0.0
C561 C 0.59188 0.86906 0.51261 0.0
C562 C 0.61701 0.84232 0.52207 0.0
C563 C 0.58467 0.8123 0.51704 0.0
C564 C 0.55595 0.81076 0.50966 0.0
H565 H 0.53171 0.62237 0.52857 0.0
H566 H 0.52928 0.66552 0.52026 0.0
C567 C 0.55953 0.83889 0.50744 0.0
C568 C 0.58076 0.78276 0.52027 0.0
H569 H 0.57777 0.72131 0.50201 0.0
C570 C 0.58061 0.77566 0.53647 0.0
C571 C 0.57908 0.76267 0.50766 0.0
C572 C 0.57969 0.76959 0.49006 0.0
C573 C 0.5794 0.74929 0.54044 0.0
C574 C 0.57921 0.72989 0.52786 0.0
C575 C 0.57815 0.73634 0.51163 0.0
C576 C 0.58184 0.70383 0.53149 0.0
C577 C 0.57829 0.74243 0.5581 0.0
C578 C 0.61277 0.71114 0.54002 0.0
C579 C 0.61422 0.68669 0.54475 0.0
C580 C 0.58488 0.65431 0.54095 0.0
C581 C 0.55476 0.64707 0.53164 0.0
C582 C 0.55327 0.67166 0.52695 0.0
H583 H 0.56784 0.75327 0.56575 0.0
H584 H 0.56055 0.7162 0.55984 0.0
H585 H 0.60664 0.75292 0.56247 0.0
H586 H 0.63555 0.73584 0.5433 0.0
H587 H 0.63814 0.6931 0.55162 0.0
H588 H 0.64847 0.47812 0.85626 0.0
H589 H 0.70283 0.47915 0.85829 0.0
H590 H 0.7691 0.57149 0.83704 0.0
H591 H 0.71512 0.57103 0.83541 0.0
H592 H 0.7482 0.48037 0.83736 0.0
H593 H 0.83229 0.59224 0.87594 0.0
H594 H 0.78401 0.57223 0.87168 0.0
H595 H 0.81818 0.59805 0.85714 0.0
C596 C 0.6746 0.49877 0.85204 0.0
C597 C 0.67709 0.52464 0.84579 0.0
C598 C 0.70587 0.4993 0.85319 0.0
C599 C 0.7408 0.5257 0.84817 0.0
C600 C 0.74308 0.55116 0.84151 0.0
H601 H 0.93082 0.5193 0.83369 0.0
H602 H 0.87602 0.5172 0.82956 0.0
C603 C 0.71188 0.55075 0.84045 0.0
C604 C 0.77449 0.52646 0.84985 0.0
H605 H 0.86323 0.57179 0.86521 0.0
C606 C 0.77329 0.50041 0.84348 0.0
C607 C 0.80749 0.55223 0.85803 0.0
C608 C 0.81055 0.58011 0.86624 0.0
C609 C 0.80369 0.49953 0.8449 0.0
C610 C 0.83709 0.52579 0.85263 0.0
C611 C 0.83814 0.5517 0.8591 0.0
C612 C 0.87061 0.52644 0.85487 0.0
C613 C 0.79912 0.46986 0.83853 0.0
C614 C 0.88706 0.53303 0.87037 0.0
C615 C 0.91872 0.53462 0.87271 0.0
C616 C 0.93541 0.52976 0.85964 0.0
C617 C 0.9188 0.52286 0.84411 0.0
C618 C 0.88714 0.52151 0.84175 0.0
H619 H 0.76956 0.44875 0.83744 0.0
H620 H 0.81108 0.47406 0.82627 0.0
H621 H 0.81352 0.46399 0.84654 0.0
H622 H 0.87525 0.53685 0.8808 0.0
H623 H 0.92996 0.53943 0.88492 0.0
H624 H 0.20428 0.62234 0.15391 0.0
H625 H 0.26119 0.67738 0.15658 0.0
H626 H 0.19768 0.7116 0.16856 0.0
H627 H 0.14083 0.65662 0.16643 0.0
H628 H 0.28637 0.7307 0.14095 0.0
H629 H 0.27027 0.7512 0.20586 0.0
H630 H 0.24158 0.712 0.19568 0.0
H631 H 0.23167 0.74015 0.19352 0.0
C632 C 0.2024 0.64157 0.15715 0.0
C633 C 0.16797 0.63499 0.16014 0.0
C634 C 0.235 0.67306 0.15866 0.0
C635 C 0.23389 0.69866 0.16311 0.0
C636 C 0.19944 0.69223 0.16559 0.0
H637 H 0.40197 0.90565 0.17699 0.0
H638 H 0.3448 0.852 0.17016 0.0
C639 C 0.16688 0.66074 0.16428 0.0
C640 C 0.2687 0.73204 0.16511 0.0
H641 H 0.31788 0.7969 0.19199 0.0
C642 C 0.29328 0.7451 0.15214 0.0
C643 C 0.27794 0.75089 0.17975 0.0
C644 C 0.25418 0.73776 0.19455 0.0
C645 C 0.32646 0.77653 0.15333 0.0
C646 C 0.33526 0.79539 0.16785 0.0
C647 C 0.31079 0.78245 0.1808 0.0
C648 C 0.37044 0.82822 0.17016 0.0
C649 C 0.35181 0.78957 0.13906 0.0
C650 C 0.40381 0.83263 0.17222 0.0
C651 C 0.43639 0.86315 0.1762 0.0
C652 C 0.43627 0.88991 0.17811 0.0
C653 C 0.40304 0.8856 0.17541 0.0
C654 C 0.37035 0.85497 0.1716 0.0
H655 H 0.33831 0.7741 0.12783 0.0
H656 H 0.36117 0.81417 0.13678 0.0
H657 H 0.37665 0.7911 0.14183 0.0
H658 H 0.40439 0.81225 0.1713 0.0
H659 H 0.46158 0.86574 0.17817 0.0
H660 H 0.4851 0.16191 0.477 0.0
H661 H 0.49189 0.21098 0.4842 0.0
H662 H 0.60513 0.25817 0.49889 0.0
H663 H 0.59917 0.20974 0.49097 0.0
H664 H 0.50712 0.24127 0.51355 0.0
H665 H 0.61605 0.3247 0.4712 0.0
H666 H 0.59135 0.28181 0.46906 0.0
H667 H 0.62934 0.30559 0.48337 0.0
C668 C 0.51174 0.18292 0.48141 0.0
C669 C 0.54163 0.18179 0.48331 0.0
C670 C 0.51547 0.21092 0.48565 0.0
C671 C 0.54918 0.2385 0.49186 0.0
C672 C 0.57908 0.2375 0.49377 0.0
H673 H 0.62468 0.41833 0.53992 0.0
H674 H 0.61696 0.37144 0.5272 0.0
C675 C 0.57544 0.20956 0.48946 0.0
C676 C 0.5524 0.26763 0.49719 0.0
H677 H 0.60387 0.34862 0.49302 0.0
C678 C 0.52799 0.26467 0.50891 0.0
C679 C 0.57964 0.2982 0.49113 0.0
C680 C 0.60534 0.30278 0.47788 0.0
C681 C 0.53081 0.29151 0.51511 0.0
C682 C 0.55855 0.32212 0.50932 0.0
C683 C 0.58264 0.3251 0.49744 0.0
C684 C 0.56394 0.35148 0.51603 0.0
C685 C 0.50484 0.28711 0.52818 0.0
C686 C 0.53705 0.35618 0.51365 0.0
C687 C 0.5414 0.38301 0.5209 0.0
C688 C 0.57266 0.40552 0.53072 0.0
C689 C 0.60005 0.4012 0.53262 0.0
C690 C 0.59579 0.37452 0.52529 0.0
H691 H 0.48951 0.26308 0.53338 0.0
H692 H 0.52022 0.30577 0.53815 0.0
H693 H 0.48443 0.28966 0.52296 0.0
H694 H 0.51245 0.33884 0.50639 0.0
H695 H 0.51974 0.38557 0.51926 0.0
H696 H 0.51372 0.56993 0.83988 0.0
H697 H 0.46071 0.57099 0.84165 0.0
H698 H 0.39412 0.47548 0.8593 0.0
H699 H 0.44692 0.47409 0.8574 0.0
H700 H 0.35561 0.48194 0.83668 0.0
H701 H 0.41897 0.58406 0.88202 0.0
H702 H 0.44555 0.59303 0.86403 0.0
H703 H 0.43894 0.56366 0.87726 0.0
C704 C 0.48787 0.54909 0.84418 0.0
C705 C 0.48505 0.52196 0.84857 0.0
C706 C 0.45742 0.54982 0.84529 0.0
C707 C 0.42309 0.52352 0.85088 0.0
C708 C 0.42007 0.49623 0.85501 0.0
H709 H 0.24033 0.52107 0.88732 0.0
H710 H 0.29403 0.52191 0.88315 0.0
C711 C 0.45052 0.4955 0.85395 0.0
C712 C 0.39038 0.52426 0.85233 0.0
H713 H 0.36126 0.56542 0.87059 0.0
C714 C 0.35699 0.50029 0.84408 0.0
C715 C 0.39149 0.54786 0.86211 0.0
C716 C 0.4255 0.57346 0.87199 0.0
C717 C 0.32527 0.49939 0.84523 0.0
C718 C 0.3266 0.52334 0.85477 0.0
C719 C 0.35993 0.54718 0.8631 0.0
C720 C 0.29337 0.52317 0.857 0.0
C721 C 0.29021 0.47212 0.83655 0.0
C722 C 0.27469 0.52411 0.84377 0.0
C723 C 0.24343 0.52349 0.84613 0.0
C724 C 0.22972 0.5218 0.8618 0.0
C725 C 0.2491 0.52159 0.875 0.0
C726 C 0.28029 0.52235 0.87265 0.0
H727 H 0.29087 0.45171 0.8332 0.0
H728 H 0.2658 0.46328 0.84418 0.0
H729 H 0.28671 0.48072 0.82521 0.0
H730 H 0.28436 0.52547 0.83156 0.0
H731 H 0.22961 0.52375 0.83561 0.0
H732 H 0.95292 0.45013 0.17716 0.0
H733 H 0.89734 0.39502 0.17874 0.0
H734 H 0.93326 0.36584 0.13829 0.0
H735 H 0.98907 0.42139 0.13643 0.0
H736 H 0.84135 0.35447 0.1543 0.0
H737 H 0.91294 0.30468 0.17437 0.0
H738 H 0.93496 0.3472 0.1753 0.0
H739 H 0.92941 0.3268 0.15619 0.0
C740 C 0.94893 0.43218 0.16843 0.0
C741 C 0.97541 0.44036 0.15655 0.0
C742 C 0.91713 0.40058 0.16942 0.0
C743 C 0.91122 0.37624 0.15872 0.0
C744 C 0.93747 0.38419 0.1468 0.0
H745 H 0.73553 0.16868 0.16357 0.0
H746 H 0.78753 0.2208 0.15396 0.0
C747 C 0.96932 0.41596 0.14573 0.0
C748 C 0.8776 0.34264 0.16026 0.0
H749 H 0.84831 0.26876 0.17151 0.0
C750 C 0.84285 0.33565 0.15794 0.0
C751 C 0.87957 0.31806 0.16494 0.0
C752 C 0.91615 0.32441 0.16798 0.0
C753 C 0.81005 0.30487 0.16035 0.0
C754 C 0.812 0.28058 0.16563 0.0
C755 C 0.84676 0.28733 0.16747 0.0
C756 C 0.7786 0.24878 0.1704 0.0
C757 C 0.77359 0.29862 0.15713 0.0
C758 C 0.75614 0.24707 0.18278 0.0
C759 C 0.72629 0.21739 0.18817 0.0
C760 C 0.71838 0.1886 0.18149 0.0
C761 C 0.74051 0.1903 0.16887 0.0
C762 C 0.77042 0.22011 0.16344 0.0
H763 H 0.77652 0.31572 0.14854 0.0
H764 H 0.75271 0.27377 0.15211 0.0
H765 H 0.76317 0.30176 0.16869 0.0
H766 H 0.76227 0.26876 0.18863 0.0
H767 H 0.70966 0.21706 0.19778 0.0
H768 H 0.07016 0.59319 0.10962 0.0
H769 H 0.07543 0.59078 0.08005 0.0
H770 H 0.06321 0.50283 0.08293 0.0
H771 H 0.05714 0.50478 0.1124 0.0
H772 H 0.12587 0.5901 0.06143 0.0
H773 H 0.98436 0.47806 0.04928 0.0
H774 H 0.99836 0.50022 0.06861 0.0
H775 H 1.01074 0.47415 0.06355 0.0
C776 C 0.0685 0.57332 0.10392 0.0
C777 C 0.06297 0.54905 0.11327 0.0
C778 C 0.07157 0.57198 0.08705 0.0
C779 C 0.06906 0.54632 0.07923 0.0
C780 C 0.06436 0.52244 0.08863 0.0
H781 H 0.07952 0.49656 0.97821 0.0
H782 H 0.07806 0.49965 0.0079 0.0
C783 C 0.06114 0.5237 0.10548 0.0
C784 C 0.07168 0.54473 0.06129 0.0
H785 H 1.02487 0.49832 0.02703 0.0
C786 C 0.10374 0.5701 0.0539 0.0
C787 C 1.04279 0.51859 0.05147 0.0
C788 C 1.00697 0.49133 0.05859 0.0
C789 C 0.10788 0.56982 0.037 0.0
C790 C 0.07899 0.54369 0.0272 0.0
C791 C 1.04702 0.51827 0.03458 0.0
C792 C 0.08109 0.54251 0.00924 0.0
C793 C 0.1434 0.59724 0.02978 0.0
C794 C 0.08302 0.56545 0.00013 0.0
C795 C 0.08393 0.56379 0.98318 0.0
C796 C 0.08283 0.53908 0.97497 0.0
C797 C 0.08091 0.51613 0.98415 0.0
C798 C 0.07985 0.51775 0.00111 0.0
H799 H 0.16603 0.61103 0.03904 0.0
H800 H 0.15224 0.58837 0.01984 0.0
H801 H 0.13901 0.6139 0.0246 0.0
H802 H 0.08341 0.58447 0.00614 0.0
H803 H 0.0857 0.58198 0.9765 0.0
H804 H 0.52717 1.00338 0.44151 0.0
H805 H 0.52331 1.00556 0.41198 0.0
H806 H 0.63968 0.05046 0.40868 0.0
H807 H 0.64354 0.04785 0.43802 0.0
H808 H 0.56038 0.05742 0.39178 0.0
H809 H 0.59385 0.97368 0.37644 0.0
H810 H 0.58134 0.97825 0.39661 0.0
H811 H 0.62758 0.00699 0.38969 0.0
C812 C 0.55187 0.0137 0.43444 0.0
C813 C 0.58557 0.02511 0.44197 0.0
C814 C 0.54965 0.01495 0.41761 0.0
C815 C 0.58105 0.02756 0.40811 0.0
C816 C 0.61493 0.0399 0.41573 0.0
H817 H 0.63761 0.06246 0.30724 0.0
H818 H 0.63663 0.06046 0.33686 0.0
C819 C 0.61713 0.03855 0.43249 0.0
C820 C 0.57863 0.0279 0.39021 0.0
H821 H 0.59511 1.00276 0.35472 0.0
C822 C 0.56765 0.04526 0.38366 0.0
C823 C 0.58801 0.0119 0.37965 0.0
C824 C 0.59801 0.99139 0.38592 0.0
C825 C 0.56696 0.04789 0.36681 0.0
C826 C 0.57716 0.03248 0.3563 0.0
C827 C 0.58757 0.01473 0.36284 0.0
C828 C 0.57758 0.03466 0.33845 0.0
C829 C 0.55631 0.06781 0.36037 0.0
C830 C 0.54466 0.02068 0.32956 0.0
C831 C 0.54512 0.0218 0.31265 0.0
C832 C 0.57855 0.03693 0.30432 0.0
C833 C 0.61149 0.05101 0.3133 0.0
C834 C 0.61096 0.04974 0.3302 0.0
H835 H 0.55665 0.08339 0.37008 0.0
H836 H 0.57526 0.08313 0.35067 0.0
H837 H 0.52798 0.05163 0.35503 0.0
H838 H 0.51855 0.00853 0.33569 0.0
H839 H 0.51933 0.01093 0.30608 0.0
H840 H 0.62892 0.54731 0.80272 0.0
H841 H 0.6385 0.55656 0.77357 0.0
H842 H 0.52163 0.48532 0.76434 0.0
H843 H 0.51201 0.47582 0.79332 0.0
H844 H 0.5649 0.47666 0.74452 0.0
H845 H 0.61245 0.60251 0.74472 0.0
H846 H 0.63747 0.59563 0.75822 0.0
H847 H 0.58972 0.5775 0.76178 0.0
C848 C 0.60528 0.53394 0.79446 0.0
C849 C 0.56972 0.51088 0.80023 0.0
C850 C 0.61076 0.53931 0.77784 0.0
C851 C 0.58071 0.52182 0.76681 0.0
C852 C 0.54517 0.49909 0.77264 0.0
H853 H 0.55693 0.5462 0.66641 0.0
H854 H 0.55622 0.54429 0.69599 0.0
C855 C 0.53972 0.49371 0.78919 0.0
C856 C 0.58615 0.52589 0.74909 0.0
H857 H 0.61352 0.57942 0.71958 0.0
C858 C 0.57565 0.49915 0.73906 0.0
C859 C 0.59988 0.55519 0.74202 0.0
C860 C 0.61027 0.58433 0.75218 0.0
C861 C 0.57827 0.50082 0.72212 0.0
C862 C 0.59238 0.5302 0.71504 0.0
C863 C 0.60301 0.55701 0.72507 0.0
C864 C 0.5947 0.53309 0.6972 0.0
C865 C 0.56488 0.47084 0.71193 0.0
C866 C 0.6171 0.52798 0.68809 0.0
C867 C 0.61761 0.52908 0.67117 0.0
C868 C 0.59592 0.53556 0.66305 0.0
C869 C 0.57424 0.54146 0.67228 0.0
C870 C 0.5737 0.54029 0.68918 0.0
H871 H 0.54715 0.44885 0.71891 0.0
H872 H 0.54901 0.46849 0.70109 0.0
H873 H 0.58901 0.47223 0.70768 0.0
H874 H 0.63406 0.52298 0.69407 0.0
H875 H 0.6351 0.52499 0.66445 0.0
H876 H 0.6112 0.0499 0.53029 0.0
H877 H 0.61744 0.04751 0.55955 0.0
H878 H 0.50065 0.99922 0.56475 0.0
H879 H 0.49435 1.00184 0.53554 0.0
H880 H 0.5431 0.04994 0.58698 0.0
H881 H 0.58541 0.97034 0.58571 0.0
H882 H 0.6134 1.00485 0.57367 0.0
H883 H 0.56558 0.97473 0.56822 0.0
C884 C 0.58683 0.0385 0.53767 0.0
C885 C 0.55226 0.02592 0.5307 0.0
C886 C 0.59039 0.03702 0.55436 0.0
C887 C 0.55941 0.02277 0.56429 0.0
C888 C 0.52487 0.01018 0.55729 0.0
H889 H 0.54038 0.97241 0.66478 0.0
H890 H 0.53564 0.97204 0.63522 0.0
C891 C 0.52131 0.01169 0.54063 0.0
C892 C 0.56317 0.0223 0.58208 0.0
H893 H 0.58966 0.99544 0.61128 0.0
C894 C 0.55319 0.03796 0.5923 0.0
C895 C 0.57595 0.00635 0.58898 0.0
C896 C 0.58539 0.98785 0.57861 0.0
C897 C 0.55609 0.03846 0.60924 0.0
C898 C 0.56995 0.02336 0.61614 0.0
C899 C 0.57942 0.00728 0.60594 0.0
C900 C 0.57424 0.02364 0.63394 0.0
C901 C 0.54368 0.05468 0.61961 0.0
C902 C 0.5981 0.05273 0.64296 0.0
C903 C 0.60092 0.05302 0.65983 0.0
C904 C 0.58012 0.02419 0.668 0.0
C905 C 0.557 0.99501 0.65885 0.0
C906 C 0.55415 0.99475 0.64198 0.0
H907 H 0.52526 0.05776 0.61273 0.0
H908 H 0.52888 0.04073 0.63043 0.0
H909 H 0.56821 0.07884 0.62389 0.0
H910 H 0.61447 0.07523 0.63695 0.0
H911 H 0.61951 0.07584 0.66648 0.0
H912 H 0.65211 0.55709 0.89513 0.0
H913 H 0.64456 0.53136 0.92062 0.0
H914 H 0.52662 0.46758 0.91238 0.0
H915 H 0.53401 0.49296 0.88696 0.0
H916 H 0.60382 0.52537 0.94783 0.0
H917 H 0.55109 0.40582 0.92058 0.0
H918 H 0.57374 0.44117 0.90884 0.0
H919 H 0.52593 0.4198 0.91389 0.0
C920 C 0.62462 0.53762 0.89882 0.0
C921 C 0.59365 0.52678 0.88907 0.0
C922 C 0.62036 0.52291 0.91331 0.0
C923 C 0.58511 0.49712 0.91817 0.0
C924 C 0.55413 0.48687 0.90863 0.0
H925 H 0.4771 0.38354 -0.00011 0.0
H926 H 0.49627 0.40747 0.97341 0.0
C927 C 0.55837 0.50154 0.89419 0.0
C928 C 0.5803 0.4815 0.93351 0.0
H929 H 0.54252 0.4086 0.94915 0.0
C930 C 0.59093 0.49995 0.94815 0.0
C931 C 0.56352 0.44833 0.93383 0.0
C932 C 0.55323 0.42767 0.91844 0.0
C933 C 0.58362 0.48581 0.96316 0.0
C934 C 0.56578 0.45244 0.96348 0.0
C935 C 0.55615 0.43416 0.94884 0.0
C936 C 0.55476 0.43583 0.97893 0.0
C937 C 0.59355 0.5064 0.97855 0.0
C938 C 0.58134 0.44311 0.99058 0.0
C939 C 0.57046 0.42958 0.00575 0.0
C940 C 0.53281 0.40849 0.00948 0.0
C941 C 0.5063 0.40006 0.99745 0.0
C942 C 0.51719 0.41356 0.98231 0.0
H943 H 0.60046 0.53015 0.97615 0.0
H944 H 0.57046 0.4942 0.9872 0.0
H945 H 0.61796 0.51053 0.98447 0.0
H946 H 0.61048 0.4599 0.98809 0.0
H947 H 0.59155 0.43671 0.01478 0.0
H948 H 0.09101 0.57119 0.20238 0.0
H949 H 0.0834 0.57012 0.23192 0.0
H950 H 0.05791 0.47629 0.23134 0.0
H951 H 0.06554 0.47727 0.20191 0.0
H952 H 1.02116 0.52497 0.25054 0.0
H953 H 0.14269 0.52891 0.26502 0.0
H954 H 0.1356 0.53862 0.24543 0.0
H955 H 0.11076 0.49742 0.25051 0.0
C956 C 0.08361 0.55031 0.20858 0.0
C957 C 0.07891 0.52433 0.19992 0.0
C958 C 0.07935 0.54975 0.22542 0.0
C959 C 0.07062 0.52332 0.23382 0.0
C960 C 0.06535 0.49716 0.22513 0.0
H961 H 1.03919 0.4729 0.33445 0.0
H962 H 1.04169 0.47321 0.30479 0.0
C963 C 0.0696 0.49772 0.20832 0.0
C964 C 0.06694 0.52297 0.25169 0.0
H965 H 0.10269 0.5186 0.28669 0.0
C966 C 1.03907 0.52376 0.25848 0.0
C967 C 0.09036 0.52134 0.26198 0.0
C968 C 0.12177 0.52182 0.25542 0.0
C969 C 1.03348 0.52226 0.2753 0.0
C970 C 0.05679 0.52045 0.28557 0.0
C971 C 0.08475 0.51982 0.27877 0.0
C972 C 0.05302 0.51954 0.30345 0.0
C973 C 1.00219 0.52189 0.2819 0.0
C974 C 0.05857 0.5455 0.3125 0.0
C975 C 0.05698 0.54532 0.32943 0.0
C976 C 0.05 0.51925 0.33764 0.0
C977 C 1.04412 0.49315 0.3285 0.0
C978 C 1.04577 0.49337 0.31157 0.0
H979 H 0.98137 0.51506 0.2723 0.0
H980 H 0.98823 0.50494 0.29182 0.0
H981 H 1.01334 0.54625 0.28693 0.0
H982 H 0.06484 0.56618 0.30649 0.0
H983 H 0.06133 0.56567 0.3361 0.0
loop_
_geom_bond_atom_site_label_1
_geom_bond_atom_site_label_2
_geom_bond_distance
_geom_bond_site_symmetry_2
_ccdc_geom_bond_type
La0 C2 2.928 . S
La0 O20 2.521 . S
La0 O21 2.628 . S
La0 O22 2.554 . S
La0 O23 2.757 . S
La0 O24 2.470 . S
La0 O29 2.482 . S
La0 O31 2.503 1_455 S
La1 C11 2.928 . S
La1 O23 2.482 1_655 S
La1 O25 2.503 1_655 S
La1 O26 2.521 . S
La1 O27 2.628 . S
La1 O28 2.551 1_655 S
La1 O29 2.757 1_655 S
La1 O30 2.470 . S
C2 La0 2.928 . S
C2 C3 1.503 . S
C2 O20 1.261 . S
C2 O21 1.243 . S
C3 C2 1.503 . S
C3 C4 1.394 . S
C3 C8 1.373 . S
C4 C3 1.394 . S
C4 C5 1.380 . S
C4 H32 0.930 . S
C5 C4 1.380 . S
C5 C6 1.376 . S
C5 H33 0.930 . S
C6 C5 1.376 . S
C6 C7 1.370 . S
C7 C6 1.370 . S
C7 C8 1.396 . S
C7 H34 0.929 . S
C8 C3 1.373 . S
C8 C7 1.396 . S
C8 H35 0.929 . S
C9 O22 1.240 . S
C9 O23 1.289 . S
C10 O24 1.258 . S
C10 O25 1.256 . S
C11 La1 2.928 . S
C11 C12 1.503 . S
C11 O26 1.261 . S
C11 O27 1.243 . S
C12 C11 1.503 . S
C12 C13 1.394 . S
C12 C17 1.373 . S
C13 C12 1.394 . S
C13 C14 1.380 . S
C13 H36 0.930 . S
C14 C13 1.380 . S
C14 C15 1.376 . S
C14 H37 0.930 . S
C15 C14 1.376 . S
C15 C16 1.370 . S
C16 C15 1.370 . S
C16 C17 1.396 . S
C16 H38 0.929 . S
C17 C12 1.373 . S
C17 C16 1.396 . S
C17 H39 0.929 . S
C18 O28 1.255 . S
C18 O29 1.289 . S
C19 O30 1.258 . S
C19 O31 1.256 . S
O20 La0 2.521 . S
O20 C2 1.261 . S
O21 La0 2.628 . S
O21 C2 1.243 . S
O22 La0 2.554 . S
O22 C9 1.240 . S
O23 La0 2.757 . S
O23 La1 2.482 1_455 S
O23 C9 1.289 . S
O24 La0 2.470 . S
O24 C10 1.258 . S
O25 La1 2.503 1_455 S
O25 C10 1.256 . S
O26 La1 2.521 . S
O26 C11 1.261 . S
O27 La1 2.628 . S
O27 C11 1.243 . S
O28 La1 2.551 1_455 S
O28 C18 1.255 . S
O29 La0 2.482 . S
O29 La1 2.757 1_455 S
O29 C18 1.289 . S
O30 La1 2.470 . S
O30 C19 1.258 . S
O31 La0 2.503 1_655 S
O31 C19 1.256 . S
H32 C4 0.930 . S
H33 C5 0.930 . S
H34 C7 0.929 . S
H35 C8 0.929 . S
H36 C13 0.930 . S
H37 C14 0.930 . S
H38 C16 0.929 . S
H39 C17 0.929 . S
La40 C42 2.928 . S
La40 O60 2.521 . S
La40 O61 2.628 . S
La40 O62 2.554 . S
La40 O63 2.757 1_565 S
La40 O64 2.470 . S
La40 O69 2.482 . S
La40 O71 2.503 1_565 S
La41 C51 2.928 . S
La41 O63 2.482 . S
La41 O65 2.503 1_545 S
La41 O66 2.521 . S
La41 O67 2.628 . S
La41 O68 2.554 . S
La41 O69 2.756 1_545 S
La41 O70 2.470 . S
C42 La40 2.928 . S
C42 C43 1.503 . S
C42 O60 1.261 . S
C42 O61 1.243 . S
C43 C42 1.503 . S
C43 C44 1.394 . S
C43 C48 1.373 . S
C44 C43 1.394 . S
C44 C45 1.380 . S
C44 H72 0.930 . S
C45 C44 1.380 . S
C45 C46 1.376 . S
C45 H73 0.930 . S
C46 C45 1.376 . S
C46 C47 1.370 . S
C47 C46 1.370 . S
C47 C48 1.396 . S
C47 H74 0.929 . S
C48 C43 1.373 . S
C48 C47 1.396 . S
C48 H75 0.929 . S
C49 O62 1.240 1_545 S
C49 O63 1.289 . S
C50 O64 1.258 . S
C50 O65 1.256 . S
C51 La41 2.928 . S
C51 C52 1.503 . S
C51 O66 1.261 . S
C51 O67 1.243 . S
C52 C51 1.503 . S
C52 C53 1.394 . S
C52 C57 1.373 . S
C53 C52 1.394 . S
C53 C54 1.380 . S
C53 H76 0.930 . S
C54 C53 1.380 . S
C54 C55 1.376 . S
C54 H77 0.930 . S
C55 C54 1.376 . S
C55 C56 1.370 . S
C56 C55 1.370 . S
C56 C57 1.396 . S
C56 H78 0.929 . S
C57 C52 1.373 . S
C57 C56 1.396 . S
C57 H79 0.929 . S
C58 O68 1.240 . S
C58 O69 1.289 1_545 S
C59 O70 1.258 . S
C59 O71 1.256 . S
O60 La40 2.521 . S
O60 C42 1.261 . S
O61 La40 2.628 . S
O61 C42 1.243 . S
O62 La40 2.554 . S
O62 C49 1.240 1_565 S
O63 La40 2.757 1_545 S
O63 La41 2.482 . S
O63 C49 1.289 . S
O64 La40 2.470 . S
O64 C50 1.258 . S
O65 La41 2.503 1_565 S
O65 C50 1.256 . S
O66 La41 2.521 . S
O66 C51 1.261 . S
O67 La41 2.628 . S
O67 C51 1.243 . S
O68 La41 2.554 . S
O68 C58 1.240 . S
O69 La40 2.482 . S
O69 La41 2.756 1_565 S
O69 C58 1.289 1_565 S
O70 La41 2.470 . S
O70 C59 1.258 . S
O71 La40 2.503 1_545 S
O71 C59 1.256 . S
H72 C44 0.930 . S
H73 C45 0.930 . S
H74 C47 0.929 . S
H75 C48 0.929 . S
H76 C53 0.930 . S
H77 C54 0.930 . S
H78 C56 0.929 . S
H79 C57 0.929 . S
La80 C82 2.928 . S
La80 O100 2.521 . S
La80 O101 2.628 . S
La80 O102 2.554 . S
La80 O103 2.757 . S
La80 O104 2.470 . S
La80 O109 2.482 . S
La80 O111 2.503 . S
La81 C91 2.928 . S
La81 O103 2.482 . S
La81 O105 2.503 . S
La81 O106 2.521 . S
La81 O107 2.628 . S
La81 O108 2.554 . S
La81 O109 2.757 . S
La81 O110 2.470 . S
C82 La80 2.928 . S
C82 C83 1.503 . S
C82 O100 1.261 . S
C82 O101 1.243 . S
C83 C82 1.503 . S
C83 C84 1.394 . S
C83 C88 1.373 . S
C84 C83 1.394 . S
C84 C85 1.380 . S
C84 H112 0.930 . S
C85 C84 1.380 . S
C85 C86 1.376 . S
C85 H113 0.930 . S
C86 C85 1.376 . S
C86 C87 1.370 . S
C87 C86 1.370 . S
C87 C88 1.396 . S
C87 H114 0.929 . S
C88 C83 1.373 . S
C88 C87 1.396 . S
C88 H115 0.929 . S
C89 O102 1.240 . S
C89 O103 1.289 . S
C90 O104 1.258 . S
C90 O105 1.256 . S
C91 La81 2.928 . S
C91 C92 1.503 . S
C91 O106 1.261 . S
C91 O107 1.243 . S
C92 C91 1.503 . S
C92 C93 1.394 . S
C92 C97 1.373 . S
C93 C92 1.394 . S
C93 C94 1.380 . S
C93 H116 0.930 . S
C94 C93 1.380 . S
C94 C95 1.376 . S
C94 H117 0.930 . S
C95 C94 1.376 . S
C95 C96 1.370 . S
C96 C95 1.370 . S
C96 C97 1.396 . S
C96 H118 0.929 . S
C97 C92 1.373 . S
C97 C96 1.396 . S
C97 H119 0.929 . S
C98 O108 1.240 . S
C98 O109 1.289 . S
C99 O110 1.258 . S
C99 O111 1.256 . S
O100 La80 2.521 . S
O100 C82 1.261 . S
O101 La80 2.628 . S
O101 C82 1.243 . S
O102 La80 2.554 . S
O102 C89 1.240 . S
O103 La80 2.757 . S
O103 La81 2.482 . S
O103 C89 1.289 . S
O104 La80 2.470 . S
O104 C90 1.258 . S
O105 La81 2.503 . S
O105 C90 1.256 . S
O106 La81 2.521 . S
O106 C91 1.261 . S
O107 La81 2.628 . S
O107 C91 1.243 . S
O108 La81 2.554 . S
O108 C98 1.240 . S
O109 La80 2.482 . S
O109 La81 2.757 . S
O109 C98 1.289 . S
O110 La81 2.470 . S
O110 C99 1.258 . S
O111 La80 2.503 . S
O111 C99 1.256 . S
H112 C84 0.930 . S
H113 C85 0.930 . S
H114 C87 0.929 . S
H115 C88 0.929 . S
H116 C93 0.930 . S
H117 C94 0.930 . S
H118 C96 0.929 . S
H119 C97 0.929 . S
C120 C121 1.384 . S
C120 H133 0.947 . S
C120 C155 1.382 . S
C121 C120 1.384 . S
C121 C122 1.378 . S
C122 C121 1.378 . S
C122 C123 1.378 . S
C122 H134 0.952 . S
C123 C122 1.378 . S
C123 H135 0.950 . S
C123 C154 1.383 . S
H124 C143 0.947 . S
H125 C144 0.946 . S
H126 C146 0.953 . S
H127 C147 0.945 . S
H128 C149 0.952 . S
H129 C150 0.949 . S
H130 C152 0.950 . S
H131 C153 0.948 . S
H132 C155 0.951 . S
H133 C120 0.947 . S
H134 C122 0.952 . S
H135 C123 0.950 . S
N136 C139 1.382 . S
N136 C141 1.363 1_545 S
N137 C139 1.371 . S
N137 C140 1.372 . S
N138 C140 1.361 1_565 S
N138 C141 1.377 . S
C139 N136 1.382 . S
C139 N137 1.371 . S
C139 C142 1.480 . S
C140 N137 1.372 . S
C140 N138 1.361 1_545 S
C140 C148 1.457 . S
C141 N136 1.363 1_565 S
C141 N138 1.377 . S
C141 C154 1.479 . S
C142 C139 1.480 . S
C142 C143 1.383 . S
C142 C147 1.385 . S
C143 H124 0.947 . S
C143 C142 1.383 . S
C143 C144 1.388 . S
C144 H125 0.946 . S
C144 C143 1.388 . S
C144 C145 1.384 . S
C145 C144 1.384 . S
C145 C146 1.377 . S
C146 H126 0.953 . S
C146 C145 1.377 . S
C146 C147 1.369 . S
C147 H127 0.945 . S
C147 C142 1.385 . S
C147 C146 1.369 . S
C148 C140 1.457 . S
C148 C149 1.372 . S
C148 C153 1.364 1_545 S
C149 H128 0.952 . S
C149 C148 1.372 . S
C149 C150 1.389 . S
C150 H129 0.949 . S
C150 C149 1.389 . S
C150 C151 1.387 . S
C151 C150 1.387 . S
C151 C152 1.372 1_545 S
C152 H130 0.950 . S
C152 C151 1.372 1_565 S
C152 C153 1.379 . S
C153 H131 0.948 . S
C153 C148 1.364 1_565 S
C153 C152 1.379 . S
C154 C123 1.383 . S
C154 C141 1.479 . S
C154 C155 1.398 . S
C155 C120 1.382 . S
C155 H132 0.951 . S
C155 C154 1.398 . S
C156 C157 1.384 . S
C156 H169 0.947 . S
C156 C191 1.382 . S
C157 C156 1.384 . S
C157 C158 1.378 . S
C158 C157 1.378 . S
C158 C159 1.378 . S
C158 H170 0.952 . S
C159 C158 1.378 . S
C159 H171 0.950 . S
C159 C190 1.383 . S
H160 C179 0.947 . S
H161 C180 0.946 . S
H162 C182 0.953 . S
H163 C183 0.945 . S
H164 C185 0.952 . S
H165 C186 0.949 . S
H166 C188 0.950 . S
H167 C189 0.948 . S
H168 C191 0.951 . S
H169 C156 0.947 . S
H170 C158 0.952 . S
H171 C159 0.950 . S
N172 C175 1.382 . S
N172 C177 1.363 . S
N173 C175 1.371 . S
N173 C176 1.372 . S
N174 C176 1.361 . S
N174 C177 1.377 . S
C175 N172 1.382 . S
C175 N173 1.371 . S
C175 C178 1.480 . S
C176 N173 1.372 . S
C176 N174 1.361 . S
C176 C184 1.457 . S
C177 N172 1.363 . S
C177 N174 1.377 . S
C177 C190 1.479 . S
C178 C175 1.480 . S
C178 C179 1.383 . S
C178 C183 1.385 . S
C179 H160 0.947 . S
C179 C178 1.383 . S
C179 C180 1.388 . S
C180 H161 0.946 . S
C180 C179 1.388 . S
C180 C181 1.384 . S
C181 C180 1.384 . S
C181 C182 1.377 . S
C182 H162 0.953 . S
C182 C181 1.377 . S
C182 C183 1.369 . S
C183 H163 0.945 . S
C183 C178 1.385 . S
C183 C182 1.369 . S
C184 C176 1.457 . S
C184 C185 1.372 . S
C184 C189 1.364 . S
C185 H164 0.952 . S
C185 C184 1.372 . S
C185 C186 1.389 . S
C186 H165 0.949 . S
C186 C185 1.389 . S
C186 C187 1.387 . S
C187 C186 1.387 . S
C187 C188 1.372 . S
C188 H166 0.950 . S
C188 C187 1.372 . S
C188 C189 1.379 . S
C189 H167 0.948 . S
C189 C184 1.364 . S
C189 C188 1.379 . S
C190 C159 1.383 . S
C190 C177 1.479 . S
C190 C191 1.398 . S
C191 C156 1.382 . S
C191 H168 0.951 . S
C191 C190 1.398 . S
C192 C193 1.384 . S
C192 H205 0.947 . S
C192 C227 1.382 . S
C193 C192 1.384 . S
C193 C194 1.378 . S
C194 C193 1.378 . S
C194 C195 1.378 . S
C194 H206 0.952 . S
C195 C194 1.378 . S
C195 H207 0.950 1_655 S
C195 C226 1.383 . S
H196 C215 0.947 . S
H197 C216 0.946 . S
H198 C218 0.953 . S
H199 C219 0.945 . S
H200 C221 0.952 . S
H201 C222 0.949 . S
H202 C224 0.950 1_655 S
H203 C225 0.948 1_655 S
H204 C227 0.951 . S
H205 C192 0.947 . S
H206 C194 0.952 . S
H207 C195 0.950 1_455 S
N208 C211 1.382 . S
N208 C213 1.363 . S
N209 C211 1.371 . S
N209 C212 1.372 . S
N210 C212 1.361 . S
N210 C213 1.377 . S
C211 N208 1.382 . S
C211 N209 1.371 . S
C211 C214 1.480 . S
C212 N209 1.372 . S
C212 N210 1.361 . S
C212 C220 1.457 . S
C213 N208 1.363 . S
C213 N210 1.377 . S
C213 C226 1.479 1_455 S
C214 C211 1.480 . S
C214 C215 1.383 . S
C214 C219 1.385 . S
C215 H196 0.947 . S
C215 C214 1.383 . S
C215 C216 1.388 . S
C216 H197 0.946 . S
C216 C215 1.388 . S
C216 C217 1.384 . S
C217 C216 1.384 . S
C217 C218 1.377 . S
C218 H198 0.953 . S
C218 C217 1.377 . S
C218 C219 1.369 . S
C219 H199 0.945 . S
C219 C214 1.385 . S
C219 C218 1.369 . S
C220 C212 1.457 . S
C220 C221 1.372 . S
C220 C225 1.364 . S
C221 H200 0.952 . S
C221 C220 1.372 . S
C221 C222 1.389 . S
C222 H201 0.949 . S
C222 C221 1.389 . S
C222 C223 1.387 . S
C223 C222 1.387 . S
C223 C224 1.372 . S
C224 H202 0.950 1_455 S
C224 C223 1.372 . S
C224 C225 1.379 . S
C225 H203 0.948 1_455 S
C225 C220 1.364 . S
C225 C224 1.379 . S
C226 C195 1.383 . S
C226 C213 1.479 1_655 S
C226 C227 1.398 . S
C227 C192 1.382 . S
C227 H204 0.951 . S
C227 C226 1.398 . S
C228 C229 1.384 . S
C228 H241 0.947 . S
C228 C263 1.382 . S
C229 C228 1.384 . S
C229 C230 1.378 . S
C230 C229 1.378 . S
C230 C231 1.378 . S
C230 H242 0.952 . S
C231 C230 1.378 . S
C231 H243 0.950 . S
C231 C262 1.383 . S
H232 C251 0.947 . S
H233 C252 0.946 . S
H234 C254 0.953 . S
H235 C255 0.945 . S
H236 C257 0.952 . S
H237 C258 0.949 . S
H238 C260 0.950 . S
H239 C261 0.948 . S
H240 C263 0.951 . S
H241 C228 0.947 . S
H242 C230 0.952 . S
H243 C231 0.950 . S
N244 C247 1.382 1_455 S
N244 C249 1.363 . S
N245 C247 1.371 . S
N245 C248 1.372 1_655 S
N246 C248 1.361 . S
N246 C249 1.377 . S
C247 N244 1.382 1_655 S
C247 N245 1.371 . S
C247 C250 1.480 . S
C248 N245 1.372 1_455 S
C248 N246 1.361 . S
C248 C256 1.457 . S
C249 N244 1.363 . S
C249 N246 1.377 . S
C249 C262 1.479 . S
C250 C247 1.480 . S
C250 C251 1.383 . S
C250 C255 1.385 . S
C251 H232 0.947 . S
C251 C250 1.383 . S
C251 C252 1.388 . S
C252 H233 0.946 . S
C252 C251 1.388 . S
C252 C253 1.384 . S
C253 C252 1.384 . S
C253 C254 1.377 . S
C254 H234 0.953 . S
C254 C253 1.377 . S
C254 C255 1.369 . S
C255 H235 0.945 . S
C255 C250 1.385 . S
C255 C254 1.369 . S
C256 C248 1.457 . S
C256 C257 1.372 1_455 S
C256 C261 1.364 . S
C257 H236 0.952 . S
C257 C256 1.372 1_655 S
C257 C258 1.389 . S
C258 H237 0.949 . S
C258 C257 1.389 . S
C258 C259 1.387 1_655 S
C259 C258 1.387 1_455 S
C259 C260 1.372 . S
C260 H238 0.950 . S
C260 C259 1.372 . S
C260 C261 1.379 . S
C261 H239 0.948 . S
C261 C256 1.364 . S
C261 C260 1.379 . S
C262 C231 1.383 . S
C262 C249 1.479 . S
C262 C263 1.398 . S
C263 C228 1.382 . S
C263 H240 0.951 . S
C263 C262 1.398 . S
C264 C265 1.384 . S
C264 H277 0.947 . S
C264 C299 1.382 . S
C265 C264 1.384 . S
C265 C266 1.378 . S
C266 C265 1.378 . S
C266 C267 1.378 . S
C266 H278 0.952 . S
C267 C266 1.378 . S
C267 H279 0.950 . S
C267 C298 1.383 . S
H268 C287 0.947 . S
H269 C288 0.946 . S
H270 C290 0.953 . S
H271 C291 0.945 . S
H272 C293 0.952 . S
H273 C294 0.949 . S
H274 C296 0.950 . S
H275 C297 0.948 . S
H276 C299 0.951 . S
H277 C264 0.947 . S
H278 C266 0.952 . S
H279 C267 0.950 . S
N280 C283 1.382 1_545 S
N280 C285 1.363 . S
N281 C283 1.371 . S
N281 C284 1.372 1_565 S
N282 C284 1.361 . S
N282 C285 1.377 . S
C283 N280 1.382 1_565 S
C283 N281 1.371 . S
C283 C286 1.480 . S
C284 N281 1.372 1_545 S
C284 N282 1.361 . S
C284 C292 1.457 . S
C285 N280 1.363 . S
C285 N282 1.377 . S
C285 C298 1.479 . S
C286 C283 1.480 . S
C286 C287 1.383 . S
C286 C291 1.385 . S
C287 H268 0.947 . S
C287 C286 1.383 . S
C287 C288 1.388 . S
C288 H269 0.946 . S
C288 C287 1.388 . S
C288 C289 1.384 . S
C289 C288 1.384 . S
C289 C290 1.377 . S
C290 H270 0.953 . S
C290 C289 1.377 . S
C290 C291 1.369 . S
C291 H271 0.945 . S
C291 C286 1.385 . S
C291 C290 1.369 . S
C292 C284 1.457 . S
C292 C293 1.372 1_545 S
C292 C297 1.364 . S
C293 H272 0.952 . S
C293 C292 1.372 1_565 S
C293 C294 1.389 . S
C294 H273 0.949 . S
C294 C293 1.389 . S
C294 C295 1.357 1_565 S
C295 C294 1.357 1_545 S
C295 C296 1.400 . S
C296 H274 0.950 . S
C296 C295 1.400 . S
C296 C297 1.379 . S
C297 H275 0.948 . S
C297 C292 1.364 . S
C297 C296 1.379 . S
C298 C267 1.383 . S
C298 C285 1.479 . S
C298 C299 1.398 . S
C299 C264 1.382 . S
C299 H276 0.951 . S
C299 C298 1.398 . S
C300 C301 1.384 . S
C300 H313 0.947 . S
C300 C335 1.382 . S
C301 C300 1.384 . S
C301 C302 1.378 . S
C302 C301 1.378 . S
C302 C303 1.378 . S
C302 H314 0.952 . S
C303 C302 1.378 . S
C303 H315 0.950 . S
C303 C334 1.383 . S
H304 C323 0.947 . S
H305 C324 0.946 . S
H306 C326 0.953 . S
H307 C327 0.945 . S
H308 C329 0.952 . S
H309 C330 0.949 . S
H310 C332 0.950 . S
H311 C333 0.948 . S
H312 C335 0.951 . S
H313 C300 0.947 . S
H314 C302 0.952 . S
H315 C303 0.950 . S
N316 C319 1.382 . S
N316 C321 1.363 . S
N317 C319 1.371 . S
N317 C320 1.372 . S
N318 C320 1.361 . S
N318 C321 1.377 . S
C319 N316 1.382 . S
C319 N317 1.371 . S
C319 C322 1.480 . S
C320 N317 1.372 . S
C320 N318 1.361 . S
C320 C328 1.457 . S
C321 N316 1.363 . S
C321 N318 1.377 . S
C321 C334 1.479 . S
C322 C319 1.480 . S
C322 C323 1.383 . S
C322 C327 1.385 . S
C323 H304 0.947 . S
C323 C322 1.383 . S
C323 C324 1.388 . S
C324 H305 0.946 . S
C324 C323 1.388 . S
C324 C325 1.384 . S
C325 C324 1.384 . S
C325 C326 1.377 . S
C326 H306 0.953 . S
C326 C325 1.377 . S
C326 C327 1.369 . S
C327 H307 0.945 . S
C327 C322 1.385 . S
C327 C326 1.369 . S
C328 C320 1.457 . S
C328 C329 1.372 . S
C328 C333 1.364 . S
C329 H308 0.952 . S
C329 C328 1.372 . S
C329 C330 1.389 . S
C330 H309 0.949 . S
C330 C329 1.389 . S
C330 C331 1.387 . S
C331 C330 1.387 . S
C331 C332 1.372 . S
C332 H310 0.950 . S
C332 C331 1.372 . S
C332 C333 1.379 . S
C333 H311 0.948 . S
C333 C328 1.364 . S
C333 C332 1.379 . S
C334 C303 1.383 . S
C334 C321 1.479 . S
C334 C335 1.398 . S
C335 C300 1.382 . S
C335 H312 0.951 . S
C335 C334 1.398 . S
H336 C344 0.929 . S
H337 C346 0.930 . S
H338 C348 0.930 . S
H339 C351 0.929 . S
H340 C354 0.930 . S
H341 C356 0.960 . S
H342 C356 0.960 . S
H343 C356 0.960 . S
C344 H336 0.929 . S
C344 C345 1.377 . S
C344 C346 1.384 . S
C345 C344 1.377 . S
C345 C351 1.390 . S
C346 H337 0.930 . S
C346 C344 1.384 . S
C346 C347 1.372 . S
C347 C346 1.372 . S
C347 C348 1.400 . S
C347 C352 1.490 . S
C348 H338 0.930 . S
C348 C347 1.400 . S
C348 C351 1.386 . S
H349 C365 0.930 . S
H350 C366 0.931 . S
C351 H339 0.929 . S
C351 C345 1.390 . S
C351 C348 1.386 . S
C352 C347 1.490 . S
C352 C354 1.395 . S
C352 C355 1.403 . S
H353 C359 0.930 . S
C354 H340 0.930 . S
C354 C352 1.395 . S
C354 C357 1.403 . S
C355 C352 1.403 . S
C355 C356 1.524 . S
C355 C359 1.400 . S
C356 H341 0.960 . S
C356 H342 0.960 . S
C356 H343 0.960 . S
C356 C355 1.524 . S
C357 C354 1.403 . S
C357 C358 1.392 . S
C357 C361 1.495 . S
C358 C357 1.392 . S
C358 C359 1.385 . S
C358 C360 1.478 . S
C359 H353 0.930 . S
C359 C355 1.400 . S
C359 C358 1.385 . S
C360 C358 1.478 . S
C360 C362 1.381 . S
C360 C366 1.383 . S
C361 C357 1.495 . S
C361 H367 0.959 . S
C361 H368 0.961 . S
C361 H369 0.960 . S
C362 C360 1.381 . S
C362 C363 1.394 . S
C362 H370 0.930 . S
C363 C362 1.394 . S
C363 C364 1.383 . S
C363 H371 0.929 . S
C364 C363 1.383 . S
C364 C365 1.377 . S
C365 H349 0.930 . S
C365 C364 1.377 . S
C365 C366 1.379 . S
C366 H350 0.931 . S
C366 C360 1.383 . S
C366 C365 1.379 . S
H367 C361 0.959 . S
H368 C361 0.961 . S
H369 C361 0.960 . S
H370 C362 0.930 . S
H371 C363 0.929 . S
H372 C380 0.929 . S
H373 C382 0.930 . S
H374 C384 0.930 . S
H375 C387 0.929 . S
H376 C390 0.930 . S
H377 C392 0.960 . S
H378 C392 0.960 . S
H379 C392 0.960 . S
C380 H372 0.929 . S
C380 C381 1.377 . S
C380 C382 1.384 . S
C381 C380 1.377 . S
C381 C387 1.390 . S
C382 H373 0.930 . S
C382 C380 1.384 . S
C382 C383 1.372 . S
C383 C382 1.372 . S
C383 C384 1.400 . S
C383 C388 1.490 . S
C384 H374 0.930 . S
C384 C383 1.400 . S
C384 C387 1.386 . S
H385 C401 0.930 . S
H386 C402 0.931 . S
C387 H375 0.929 . S
C387 C381 1.390 . S
C387 C384 1.386 . S
C388 C383 1.490 . S
C388 C390 1.395 . S
C388 C391 1.403 . S
H389 C395 0.930 . S
C390 H376 0.930 . S
C390 C388 1.395 . S
C390 C393 1.403 . S
C391 C388 1.403 . S
C391 C392 1.524 . S
C391 C395 1.400 . S
C392 H377 0.960 . S
C392 H378 0.960 . S
C392 H379 0.960 . S
C392 C391 1.524 . S
C393 C390 1.403 . S
C393 C394 1.392 . S
C393 C397 1.495 . S
C394 C393 1.392 . S
C394 C395 1.385 . S
C394 C396 1.478 . S
C395 H389 0.930 . S
C395 C391 1.400 . S
C395 C394 1.385 . S
C396 C394 1.478 . S
C396 C398 1.381 . S
C396 C402 1.383 . S
C397 C393 1.495 . S
C397 H403 0.959 . S
C397 H404 0.961 . S
C397 H405 0.960 . S
C398 C396 1.381 . S
C398 C399 1.394 . S
C398 H406 0.930 . S
C399 C398 1.394 . S
C399 C400 1.383 . S
C399 H407 0.929 . S
C400 C399 1.383 . S
C400 C401 1.377 . S
C401 H385 0.930 . S
C401 C400 1.377 . S
C401 C402 1.379 . S
C402 H386 0.931 . S
C402 C396 1.383 . S
C402 C401 1.379 . S
H403 C397 0.959 . S
H404 C397 0.961 . S
H405 C397 0.960 . S
H406 C398 0.930 . S
H407 C399 0.929 . S
H408 C416 0.929 . S
H409 C418 0.930 . S
H410 C420 0.930 . S
H411 C423 0.929 . S
H412 C426 0.930 . S
H413 C428 0.960 . S
H414 C428 0.960 . S
H415 C428 0.960 . S
C416 H408 0.929 . S
C416 C417 1.377 . S
C416 C418 1.384 . S
C417 C416 1.377 . S
C417 C423 1.390 . S
C418 H409 0.930 . S
C418 C416 1.384 . S
C418 C419 1.372 . S
C419 C418 1.372 . S
C419 C420 1.400 . S
C419 C424 1.490 . S
C420 H410 0.930 . S
C420 C419 1.400 . S
C420 C423 1.386 . S
H421 C437 0.930 . S
H422 C438 0.931 . S
C423 H411 0.929 . S
C423 C417 1.390 . S
C423 C420 1.386 . S
C424 C419 1.490 . S
C424 C426 1.395 . S
C424 C427 1.403 . S
H425 C431 0.930 . S
C426 H412 0.930 . S
C426 C424 1.395 . S
C426 C429 1.403 . S
C427 C424 1.403 . S
C427 C428 1.524 . S
C427 C431 1.400 . S
C428 H413 0.960 . S
C428 H414 0.960 . S
C428 H415 0.960 . S
C428 C427 1.524 . S
C429 C426 1.403 . S
C429 C430 1.392 . S
C429 C433 1.495 . S
C430 C429 1.392 . S
C430 C431 1.385 . S
C430 C432 1.478 . S
C431 H425 0.930 . S
C431 C427 1.400 . S
C431 C430 1.385 . S
C432 C430 1.478 . S
C432 C434 1.381 . S
C432 C438 1.383 . S
C433 C429 1.495 . S
C433 H439 0.959 . S
C433 H440 0.961 . S
C433 H441 0.960 . S
C434 C432 1.381 . S
C434 C435 1.394 . S
C434 H442 0.930 . S
C435 C434 1.394 . S
C435 C436 1.383 . S
C435 H443 0.929 . S
C436 C435 1.383 . S
C436 C437 1.377 . S
C437 H421 0.930 . S
C437 C436 1.377 . S
C437 C438 1.379 . S
C438 H422 0.931 . S
C438 C432 1.383 . S
C438 C437 1.379 . S
H439 C433 0.959 . S
H440 C433 0.961 . S
H441 C433 0.960 . S
H442 C434 0.930 . S
H443 C435 0.929 . S
H444 C452 0.929 . S
H445 C454 0.930 . S
H446 C456 0.930 . S
H447 C459 0.929 . S
H448 C462 0.930 . S
H449 C464 0.960 . S
H450 C464 0.960 . S
H451 C464 0.960 . S
C452 H444 0.929 . S
C452 C453 1.377 . S
C452 C454 1.384 . S
C453 C452 1.377 . S
C453 C459 1.390 . S
C454 H445 0.930 . S
C454 C452 1.384 . S
C454 C455 1.372 . S
C455 C454 1.372 . S
C455 C456 1.400 . S
C455 C460 1.490 . S
C456 H446 0.930 . S
C456 C455 1.400 . S
C456 C459 1.386 . S
H457 C473 0.930 . S
H458 C474 0.931 . S
C459 H447 0.929 . S
C459 C453 1.390 . S
C459 C456 1.386 . S
C460 C455 1.490 . S
C460 C462 1.395 . S
C460 C463 1.403 . S
H461 C467 0.930 . S
C462 H448 0.930 . S
C462 C460 1.395 . S
C462 C465 1.403 . S
C463 C460 1.403 . S
C463 C464 1.524 . S
C463 C467 1.400 . S
C464 H449 0.960 . S
C464 H450 0.960 . S
C464 H451 0.960 . S
C464 C463 1.524 . S
C465 C462 1.403 . S
C465 C466 1.392 . S
C465 C469 1.495 . S
C466 C465 1.392 . S
C466 C467 1.385 . S
C466 C468 1.478 . S
C467 H461 0.930 . S
C467 C463 1.400 . S
C467 C466 1.385 . S
C468 C466 1.478 . S
C468 C470 1.381 . S
C468 C474 1.383 . S
C469 C465 1.495 . S
C469 H475 0.959 . S
C469 H476 0.961 . S
C469 H477 0.960 . S
C470 C468 1.381 . S
C470 C471 1.394 . S
C470 H478 0.930 . S
C471 C470 1.394 . S
C471 C472 1.383 . S
C471 H479 0.929 . S
C472 C471 1.383 . S
C472 C473 1.377 . S
C473 H457 0.930 . S
C473 C472 1.377 . S
C473 C474 1.379 . S
C474 H458 0.931 . S
C474 C468 1.383 . S
C474 C473 1.379 . S
H475 C469 0.959 . S
H476 C469 0.961 . S
H477 C469 0.960 . S
H478 C470 0.930 . S
H479 C471 0.929 . S
H480 C488 0.929 . S
H481 C490 0.930 . S
H482 C492 0.930 . S
H483 C495 0.929 . S
H484 C498 0.930 . S
H485 C500 0.960 . S
H486 C500 0.960 . S
H487 C500 0.960 . S
C488 H480 0.929 . S
C488 C489 1.377 . S
C488 C490 1.384 . S
C489 C488 1.377 . S
C489 C495 1.390 . S
C490 H481 0.930 . S
C490 C488 1.384 . S
C490 C491 1.372 . S
C491 C490 1.372 . S
C491 C492 1.400 . S
C491 C496 1.490 . S
C492 H482 0.930 . S
C492 C491 1.400 . S
C492 C495 1.386 . S
H493 C509 0.930 . S
H494 C510 0.931 . S
C495 H483 0.929 . S
C495 C489 1.390 . S
C495 C492 1.386 . S
C496 C491 1.490 . S
C496 C498 1.395 . S
C496 C499 1.403 . S
H497 C503 0.930 . S
C498 H484 0.930 . S
C498 C496 1.395 . S
C498 C501 1.403 . S
C499 C496 1.403 . S
C499 C500 1.524 . S
C499 C503 1.400 . S
C500 H485 0.960 . S
C500 H486 0.960 . S
C500 H487 0.960 . S
C500 C499 1.524 . S
C501 C498 1.403 . S
C501 C502 1.392 . S
C501 C505 1.495 . S
C502 C501 1.392 . S
C502 C503 1.385 . S
C502 C504 1.478 . S
C503 H497 0.930 . S
C503 C499 1.400 . S
C503 C502 1.385 . S
C504 C502 1.478 . S
C504 C506 1.381 . S
C504 C510 1.383 . S
C505 C501 1.495 . S
C505 H511 0.959 . S
C505 H512 0.961 . S
C505 H513 0.960 . S
C506 C504 1.381 . S
C506 C507 1.394 . S
C506 H514 0.930 . S
C507 C506 1.394 . S
C507 C508 1.383 . S
C507 H515 0.929 . S
C508 C507 1.383 . S
C508 C509 1.377 . S
C509 H493 0.930 . S
C509 C508 1.377 . S
C509 C510 1.379 . S
C510 H494 0.931 . S
C510 C504 1.383 . S
C510 C509 1.379 . S
H511 C505 0.959 . S
H512 C505 0.961 . S
H513 C505 0.960 . S
H514 C506 0.930 . S
H515 C507 0.929 . S
H516 C524 0.929 . S
H517 C526 0.930 . S
H518 C528 0.930 . S
H519 C531 0.929 . S
H520 C534 0.930 . S
H521 C536 0.960 . S
H522 C536 0.960 . S
H523 C536 0.960 . S
C524 H516 0.929 . S
C524 C525 1.377 . S
C524 C526 1.384 . S
C525 C524 1.377 . S
C525 C531 1.390 . S
C526 H517 0.930 . S
C526 C524 1.384 . S
C526 C527 1.372 . S
C527 C526 1.372 . S
C527 C528 1.400 . S
C527 C532 1.490 . S
C528 H518 0.930 . S
C528 C527 1.400 . S
C528 C531 1.386 . S
H529 C545 0.930 . S
H530 C546 0.931 . S
C531 H519 0.929 . S
C531 C525 1.390 . S
C531 C528 1.386 . S
C532 C527 1.490 . S
C532 C534 1.395 . S
C532 C535 1.403 . S
H533 C539 0.930 . S
C534 H520 0.930 . S
C534 C532 1.395 . S
C534 C537 1.403 . S
C535 C532 1.403 . S
C535 C536 1.524 . S
C535 C539 1.400 . S
C536 H521 0.960 . S
C536 H522 0.960 . S
C536 H523 0.960 . S
C536 C535 1.524 . S
C537 C534 1.403 . S
C537 C538 1.392 . S
C537 C541 1.495 . S
C538 C537 1.392 . S
C538 C539 1.385 . S
C538 C540 1.478 . S
C539 H533 0.930 . S
C539 C535 1.400 . S
C539 C538 1.385 . S
C540 C538 1.478 . S
C540 C542 1.381 . S
C540 C546 1.383 . S
C541 C537 1.495 . S
C541 H547 0.959 . S
C541 H548 0.961 . S
C541 H549 0.960 . S
C542 C540 1.381 . S
C542 C543 1.394 . S
C542 H550 0.930 . S
C543 C542 1.394 . S
C543 C544 1.383 . S
C543 H551 0.929 . S
C544 C543 1.383 . S
C544 C545 1.377 . S
C545 H529 0.930 . S
C545 C544 1.377 . S
C545 C546 1.379 . S
C546 H530 0.931 . S
C546 C540 1.383 . S
C546 C545 1.379 . S
H547 C541 0.959 . S
H548 C541 0.961 . S
H549 C541 0.960 . S
H550 C542 0.930 . S
H551 C543 0.929 . S
H552 C560 0.929 . S
H553 C562 0.930 . S
H554 C564 0.930 . S
H555 C567 0.929 . S
H556 C570 0.930 . S
H557 C572 0.960 . S
H558 C572 0.960 . S
H559 C572 0.960 . S
C560 H552 0.929 . S
C560 C561 1.377 . S
C560 C562 1.384 . S
C561 C560 1.377 . S
C561 C567 1.390 . S
C562 H553 0.930 . S
C562 C560 1.384 . S
C562 C563 1.372 . S
C563 C562 1.372 . S
C563 C564 1.400 . S
C563 C568 1.490 . S
C564 H554 0.930 . S
C564 C563 1.400 . S
C564 C567 1.386 . S
H565 C581 0.930 . S
H566 C582 0.931 . S
C567 H555 0.929 . S
C567 C561 1.390 . S
C567 C564 1.386 . S
C568 C563 1.490 . S
C568 C570 1.395 . S
C568 C571 1.403 . S
H569 C575 0.930 . S
C570 H556 0.930 . S
C570 C568 1.395 . S
C570 C573 1.403 . S
C571 C568 1.403 . S
C571 C572 1.524 . S
C571 C575 1.400 . S
C572 H557 0.960 . S
C572 H558 0.960 . S
C572 H559 0.960 . S
C572 C571 1.524 . S
C573 C570 1.403 . S
C573 C574 1.392 . S
C573 C577 1.495 . S
C574 C573 1.392 . S
C574 C575 1.385 . S
C574 C576 1.478 . S
C575 H569 0.930 . S
C575 C571 1.400 . S
C575 C574 1.385 . S
C576 C574 1.478 . S
C576 C578 1.381 . S
C576 C582 1.383 . S
C577 C573 1.495 . S
C577 H583 0.959 . S
C577 H584 0.961 . S
C577 H585 0.960 . S
C578 C576 1.381 . S
C578 C579 1.394 . S
C578 H586 0.930 . S
C579 C578 1.394 . S
C579 C580 1.383 . S
C579 H587 0.929 . S
C580 C579 1.383 . S
C580 C581 1.377 . S
C581 H565 0.930 . S
C581 C580 1.377 . S
C581 C582 1.379 . S
C582 H566 0.931 . S
C582 C576 1.383 . S
C582 C581 1.379 . S
H583 C577 0.959 . S
H584 C577 0.961 . S
H585 C577 0.960 . S
H586 C578 0.930 . S
H587 C579 0.929 . S
H588 C596 0.929 . S
H589 C598 0.930 . S
H590 C600 0.930 . S
H591 C603 0.929 . S
H592 C606 0.930 . S
H593 C608 0.960 . S
H594 C608 0.960 . S
H595 C608 0.960 . S
C596 H588 0.929 . S
C596 C597 1.377 . S
C596 C598 1.384 . S
C597 C596 1.377 . S
C597 C603 1.390 . S
C598 H589 0.930 . S
C598 C596 1.384 . S
C598 C599 1.372 . S
C599 C598 1.372 . S
C599 C600 1.400 . S
C599 C604 1.490 . S
C600 H590 0.930 . S
C600 C599 1.400 . S
C600 C603 1.386 . S
H601 C617 0.930 . S
H602 C618 0.931 . S
C603 H591 0.929 . S
C603 C597 1.390 . S
C603 C600 1.386 . S
C604 C599 1.490 . S
C604 C606 1.395 . S
C604 C607 1.403 . S
H605 C611 0.930 . S
C606 H592 0.930 . S
C606 C604 1.395 . S
C606 C609 1.403 . S
C607 C604 1.403 . S
C607 C608 1.524 . S
C607 C611 1.400 . S
C608 H593 0.960 . S
C608 H594 0.960 . S
C608 H595 0.960 . S
C608 C607 1.524 . S
C609 C606 1.403 . S
C609 C610 1.392 . S
C609 C613 1.495 . S
C610 C609 1.392 . S
C610 C611 1.385 . S
C610 C612 1.478 . S
C611 H605 0.930 . S
C611 C607 1.400 . S
C611 C610 1.385 . S
C612 C610 1.478 . S
C612 C614 1.381 . S
C612 C618 1.383 . S
C613 C609 1.495 . S
C613 H619 0.959 . S
C613 H620 0.961 . S
C613 H621 0.960 . S
C614 C612 1.381 . S
C614 C615 1.394 . S
C614 H622 0.930 . S
C615 C614 1.394 . S
C615 C616 1.383 . S
C615 H623 0.929 . S
C616 C615 1.383 . S
C616 C617 1.377 . S
C617 H601 0.930 . S
C617 C616 1.377 . S
C617 C618 1.379 . S
C618 H602 0.931 . S
C618 C612 1.383 . S
C618 C617 1.379 . S
H619 C613 0.959 . S
H620 C613 0.961 . S
H621 C613 0.960 . S
H622 C614 0.930 . S
H623 C615 0.929 . S
H624 C632 0.929 . S
H625 C634 0.930 . S
H626 C636 0.930 . S
H627 C639 0.929 . S
H628 C642 0.930 . S
H629 C644 0.960 . S
H630 C644 0.960 . S
H631 C644 0.960 . S
C632 H624 0.929 . S
C632 C633 1.377 . S
C632 C634 1.384 . S
C633 C632 1.377 . S
C633 C639 1.390 . S
C634 H625 0.930 . S
C634 C632 1.384 . S
C634 C635 1.372 . S
C635 C634 1.372 . S
C635 C636 1.400 . S
C635 C640 1.490 . S
C636 H626 0.930 . S
C636 C635 1.400 . S
C636 C639 1.386 . S
H637 C653 0.930 . S
H638 C654 0.931 . S
C639 H627 0.929 . S
C639 C633 1.390 . S
C639 C636 1.386 . S
C640 C635 1.490 . S
C640 C642 1.395 . S
C640 C643 1.403 . S
H641 C647 0.930 . S
C642 H628 0.930 . S
C642 C640 1.395 . S
C642 C645 1.403 . S
C643 C640 1.403 . S
C643 C644 1.524 . S
C643 C647 1.400 . S
C644 H629 0.960 . S
C644 H630 0.960 . S
C644 H631 0.960 . S
C644 C643 1.524 . S
C645 C642 1.403 . S
C645 C646 1.392 . S
C645 C649 1.495 . S
C646 C645 1.392 . S
C646 C647 1.385 . S
C646 C648 1.478 . S
C647 H641 0.930 . S
C647 C643 1.400 . S
C647 C646 1.385 . S
C648 C646 1.478 . S
C648 C650 1.381 . S
C648 C654 1.383 . S
C649 C645 1.495 . S
C649 H655 0.959 . S
C649 H656 0.961 . S
C649 H657 0.960 . S
C650 C648 1.381 . S
C650 C651 1.394 . S
C650 H658 0.930 . S
C651 C650 1.394 . S
C651 C652 1.383 . S
C651 H659 0.929 . S
C652 C651 1.383 . S
C652 C653 1.377 . S
C653 H637 0.930 . S
C653 C652 1.377 . S
C653 C654 1.379 . S
C654 H638 0.931 . S
C654 C648 1.383 . S
C654 C653 1.379 . S
H655 C649 0.959 . S
H656 C649 0.961 . S
H657 C649 0.960 . S
H658 C650 0.930 . S
H659 C651 0.929 . S
H660 C668 0.929 . S
H661 C670 0.930 . S
H662 C672 0.930 . S
H663 C675 0.929 . S
H664 C678 0.930 . S
H665 C680 0.960 . S
H666 C680 0.960 . S
H667 C680 0.960 . S
C668 H660 0.929 . S
C668 C669 1.377 . S
C668 C670 1.384 . S
C669 C668 1.377 . S
C669 C675 1.390 . S
C670 H661 0.930 . S
C670 C668 1.384 . S
C670 C671 1.372 . S
C671 C670 1.372 . S
C671 C672 1.400 . S
C671 C676 1.490 . S
C672 H662 0.930 . S
C672 C671 1.400 . S
C672 C675 1.386 . S
H673 C689 0.930 . S
H674 C690 0.931 . S
C675 H663 0.929 . S
C675 C669 1.390 . S
C675 C672 1.386 . S
C676 C671 1.490 . S
C676 C678 1.395 . S
C676 C679 1.403 . S
H677 C683 0.930 . S
C678 H664 0.930 . S
C678 C676 1.395 . S
C678 C681 1.403 . S
C679 C676 1.403 . S
C679 C680 1.524 . S
C679 C683 1.400 . S
C680 H665 0.960 . S
C680 H666 0.960 . S
C680 H667 0.960 . S
C680 C679 1.524 . S
C681 C678 1.403 . S
C681 C682 1.392 . S
C681 C685 1.495 . S
C682 C681 1.392 . S
C682 C683 1.385 . S
C682 C684 1.478 . S
C683 H677 0.930 . S
C683 C679 1.400 . S
C683 C682 1.385 . S
C684 C682 1.478 . S
C684 C686 1.381 . S
C684 C690 1.383 . S
C685 C681 1.495 . S
C685 H691 0.959 . S
C685 H692 0.961 . S
C685 H693 0.960 . S
C686 C684 1.381 . S
C686 C687 1.394 . S
C686 H694 0.930 . S
C687 C686 1.394 . S
C687 C688 1.383 . S
C687 H695 0.929 . S
C688 C687 1.383 . S
C688 C689 1.377 . S
C689 H673 0.930 . S
C689 C688 1.377 . S
C689 C690 1.379 . S
C690 H674 0.931 . S
C690 C684 1.383 . S
C690 C689 1.379 . S
H691 C685 0.959 . S
H692 C685 0.961 . S
H693 C685 0.960 . S
H694 C686 0.930 . S
H695 C687 0.929 . S
H696 C704 0.929 . S
H697 C706 0.930 . S
H698 C708 0.930 . S
H699 C711 0.929 . S
H700 C714 0.930 . S
H701 C716 0.960 . S
H702 C716 0.960 . S
H703 C716 0.960 . S
C704 H696 0.929 . S
C704 C705 1.377 . S
C704 C706 1.384 . S
C705 C704 1.377 . S
C705 C711 1.390 . S
C706 H697 0.930 . S
C706 C704 1.384 . S
C706 C707 1.372 . S
C707 C706 1.372 . S
C707 C708 1.400 . S
C707 C712 1.490 . S
C708 H698 0.930 . S
C708 C707 1.400 . S
C708 C711 1.386 . S
H709 C725 0.930 . S
H710 C726 0.931 . S
C711 H699 0.929 . S
C711 C705 1.390 . S
C711 C708 1.386 . S
C712 C707 1.490 . S
C712 C714 1.395 . S
C712 C715 1.403 . S
H713 C719 0.930 . S
C714 H700 0.930 . S
C714 C712 1.395 . S
C714 C717 1.403 . S
C715 C712 1.403 . S
C715 C716 1.524 . S
C715 C719 1.400 . S
C716 H701 0.960 . S
C716 H702 0.960 . S
C716 H703 0.960 . S
C716 C715 1.524 . S
C717 C714 1.403 . S
C717 C718 1.392 . S
C717 C721 1.495 . S
C718 C717 1.392 . S
C718 C719 1.385 . S
C718 C720 1.478 . S
C719 H713 0.930 . S
C719 C715 1.400 . S
C719 C718 1.385 . S
C720 C718 1.478 . S
C720 C722 1.381 . S
C720 C726 1.383 . S
C721 C717 1.495 . S
C721 H727 0.959 . S
C721 H728 0.961 . S
C721 H729 0.960 . S
C722 C720 1.381 . S
C722 C723 1.394 . S
C722 H730 0.930 . S
C723 C722 1.394 . S
C723 C724 1.383 . S
C723 H731 0.929 . S
C724 C723 1.383 . S
C724 C725 1.377 . S
C725 H709 0.930 . S
C725 C724 1.377 . S
C725 C726 1.379 . S
C726 H710 0.931 . S
C726 C720 1.383 . S
C726 C725 1.379 . S
H727 C721 0.959 . S
H728 C721 0.961 . S
H729 C721 0.960 . S
H730 C722 0.930 . S
H731 C723 0.929 . S
H732 C740 0.929 . S
H733 C742 0.930 . S
H734 C744 0.930 . S
H735 C747 0.929 . S
H736 C750 0.930 . S
H737 C752 0.960 . S
H738 C752 0.960 . S
H739 C752 0.960 . S
C740 H732 0.929 . S
C740 C741 1.377 . S
C740 C742 1.384 . S
C741 C740 1.377 . S
C741 C747 1.390 . S
C742 H733 0.930 . S
C742 C740 1.384 . S
C742 C743 1.372 . S
C743 C742 1.372 . S
C743 C744 1.400 . S
C743 C748 1.490 . S
C744 H734 0.930 . S
C744 C743 1.400 . S
C744 C747 1.386 . S
H745 C761 0.930 . S
H746 C762 0.931 . S
C747 H735 0.929 . S
C747 C741 1.390 . S
C747 C744 1.386 . S
C748 C743 1.490 . S
C748 C750 1.395 . S
C748 C751 1.403 . S
H749 C755 0.930 . S
C750 H736 0.930 . S
C750 C748 1.395 . S
C750 C753 1.403 . S
C751 C748 1.403 . S
C751 C752 1.524 . S
C751 C755 1.400 . S
C752 H737 0.960 . S
C752 H738 0.960 . S
C752 H739 0.960 . S
C752 C751 1.524 . S
C753 C750 1.403 . S
C753 C754 1.392 . S
C753 C757 1.495 . S
C754 C753 1.392 . S
C754 C755 1.385 . S
C754 C756 1.478 . S
C755 H749 0.930 . S
C755 C751 1.400 . S
C755 C754 1.385 . S
C756 C754 1.478 . S
C756 C758 1.381 . S
C756 C762 1.383 . S
C757 C753 1.495 . S
C757 H763 0.959 . S
C757 H764 0.961 . S
C757 H765 0.960 . S
C758 C756 1.381 . S
C758 C759 1.394 . S
C758 H766 0.930 . S
C759 C758 1.394 . S
C759 C760 1.383 . S
C759 H767 0.929 . S
C760 C759 1.383 . S
C760 C761 1.377 . S
C761 H745 0.930 . S
C761 C760 1.377 . S
C761 C762 1.379 . S
C762 H746 0.931 . S
C762 C756 1.383 . S
C762 C761 1.379 . S
H763 C757 0.959 . S
H764 C757 0.961 . S
H765 C757 0.960 . S
H766 C758 0.930 . S
H767 C759 0.929 . S
H768 C776 0.929 . S
H769 C778 0.930 . S
H770 C780 0.930 . S
H771 C783 0.929 . S
H772 C786 0.930 . S
H773 C788 0.960 . S
H774 C788 0.960 . S
H775 C788 0.960 . S
C776 H768 0.929 . S
C776 C777 1.377 . S
C776 C778 1.384 . S
C777 C776 1.377 . S
C777 C783 1.390 . S
C778 H769 0.930 . S
C778 C776 1.384 . S
C778 C779 1.372 . S
C779 C778 1.372 . S
C779 C780 1.400 . S
C779 C784 1.490 . S
C780 H770 0.930 . S
C780 C779 1.400 . S
C780 C783 1.386 . S
H781 C797 0.930 . S
H782 C798 0.931 . S
C783 H771 0.929 . S
C783 C777 1.390 . S
C783 C780 1.386 . S
C784 C779 1.490 . S
C784 C786 1.395 . S
C784 C787 1.403 . S
H785 C791 0.930 1_655 S
C786 H772 0.930 . S
C786 C784 1.395 . S
C786 C789 1.403 . S
C787 C784 1.403 . S
C787 C788 1.524 1_455 S
C787 C791 1.400 . S
C788 H773 0.960 . S
C788 H774 0.960 . S
C788 H775 0.960 . S
C788 C787 1.524 1_655 S
C789 C786 1.403 . S
C789 C790 1.392 . S
C789 C793 1.495 . S
C790 C789 1.392 . S
C790 C791 1.385 . S
C790 C792 1.478 . S
C791 H785 0.930 1_455 S
C791 C787 1.400 . S
C791 C790 1.385 . S
C792 C790 1.478 . S
C792 C794 1.381 . S
C792 C798 1.383 . S
C793 C789 1.495 . S
C793 H799 0.959 . S
C793 H800 0.961 . S
C793 H801 0.960 . S
C794 C792 1.381 . S
C794 C795 1.394 1_554 S
C794 H802 0.930 . S
C795 C794 1.394 1_556 S
C795 C796 1.383 . S
C795 H803 0.929 . S
C796 C795 1.383 . S
C796 C797 1.377 . S
C797 H781 0.930 . S
C797 C796 1.377 . S
C797 C798 1.379 1_556 S
C798 H782 0.931 . S
C798 C792 1.383 . S
C798 C797 1.379 1_554 S
H799 C793 0.959 . S
H800 C793 0.961 . S
H801 C793 0.960 . S
H802 C794 0.930 . S
H803 C795 0.929 . S
H804 C812 0.929 . S
H805 C814 0.930 . S
H806 C816 0.930 . S
H807 C819 0.929 . S
H808 C822 0.930 . S
H809 C824 0.960 . S
H810 C824 0.960 . S
H811 C824 0.960 . S
C812 H804 0.929 . S
C812 C813 1.377 . S
C812 C814 1.384 . S
C813 C812 1.377 . S
C813 C819 1.390 . S
C814 H805 0.930 . S
C814 C812 1.384 . S
C814 C815 1.372 . S
C815 C814 1.372 . S
C815 C816 1.400 . S
C815 C820 1.490 . S
C816 H806 0.930 . S
C816 C815 1.400 . S
C816 C819 1.386 . S
H817 C833 0.930 . S
H818 C834 0.931 . S
C819 H807 0.929 . S
C819 C813 1.390 . S
C819 C816 1.386 . S
C820 C815 1.490 . S
C820 C822 1.395 . S
C820 C823 1.403 1_545 S
H821 C827 0.930 . S
C822 H808 0.930 . S
C822 C820 1.395 . S
C822 C825 1.403 . S
C823 C820 1.403 1_565 S
C823 C824 1.524 . S
C823 C827 1.400 . S
C824 H809 0.960 . S
C824 H810 0.960 . S
C824 H811 0.960 . S
C824 C823 1.524 . S
C825 C822 1.403 . S
C825 C826 1.392 . S
C825 C829 1.495 . S
C826 C825 1.392 . S
C826 C827 1.385 1_545 S
C826 C828 1.478 . S
C827 H821 0.930 . S
C827 C823 1.400 . S
C827 C826 1.385 1_565 S
C828 C826 1.478 . S
C828 C830 1.381 . S
C828 C834 1.383 . S
C829 C825 1.495 . S
C829 H835 0.959 . S
C829 H836 0.961 . S
C829 H837 0.960 . S
C830 C828 1.381 . S
C830 C831 1.394 . S
C830 H838 0.930 . S
C831 C830 1.394 . S
C831 C832 1.383 . S
C831 H839 0.929 . S
C832 C831 1.383 . S
C832 C833 1.377 . S
C833 H817 0.930 . S
C833 C832 1.377 . S
C833 C834 1.379 . S
C834 H818 0.931 . S
C834 C828 1.383 . S
C834 C833 1.379 . S
H835 C829 0.959 . S
H836 C829 0.961 . S
H837 C829 0.960 . S
H838 C830 0.930 . S
H839 C831 0.929 . S
H840 C848 0.929 . S
H841 C850 0.930 . S
H842 C852 0.930 . S
H843 C855 0.929 . S
H844 C858 0.930 . S
H845 C860 0.960 . S
H846 C860 0.960 . S
H847 C860 0.960 . S
C848 H840 0.929 . S
C848 C849 1.377 . S
C848 C850 1.384 . S
C849 C848 1.377 . S
C849 C855 1.390 . S
C850 H841 0.930 . S
C850 C848 1.384 . S
C850 C851 1.372 . S
C851 C850 1.372 . S
C851 C852 1.400 . S
C851 C856 1.490 . S
C852 H842 0.930 . S
C852 C851 1.400 . S
C852 C855 1.386 . S
H853 C869 0.930 . S
H854 C870 0.931 . S
C855 H843 0.929 . S
C855 C849 1.390 . S
C855 C852 1.386 . S
C856 C851 1.490 . S
C856 C858 1.395 . S
C856 C859 1.403 . S
H857 C863 0.930 . S
C858 H844 0.930 . S
C858 C856 1.395 . S
C858 C861 1.403 . S
C859 C856 1.403 . S
C859 C860 1.524 . S
C859 C863 1.400 . S
C860 H845 0.960 . S
C860 H846 0.960 . S
C860 H847 0.960 . S
C860 C859 1.524 . S
C861 C858 1.403 . S
C861 C862 1.392 . S
C861 C865 1.495 . S
C862 C861 1.392 . S
C862 C863 1.385 . S
C862 C864 1.478 . S
C863 H857 0.930 . S
C863 C859 1.400 . S
C863 C862 1.385 . S
C864 C862 1.478 . S
C864 C866 1.381 . S
C864 C870 1.383 . S
C865 C861 1.495 . S
C865 H871 0.959 . S
C865 H872 0.961 . S
C865 H873 0.960 . S
C866 C864 1.381 . S
C866 C867 1.394 . S
C866 H874 0.930 . S
C867 C866 1.394 . S
C867 C868 1.383 . S
C867 H875 0.929 . S
C868 C867 1.383 . S
C868 C869 1.377 . S
C869 H853 0.930 . S
C869 C868 1.377 . S
C869 C870 1.379 . S
C870 H854 0.931 . S
C870 C864 1.383 . S
C870 C869 1.379 . S
H871 C865 0.959 . S
H872 C865 0.961 . S
H873 C865 0.960 . S
H874 C866 0.930 . S
H875 C867 0.929 . S
H876 C884 0.929 . S
H877 C886 0.930 . S
H878 C888 0.930 . S
H879 C891 0.929 . S
H880 C894 0.930 . S
H881 C896 0.960 . S
H882 C896 0.960 . S
H883 C896 0.960 . S
C884 H876 0.929 . S
C884 C885 1.377 . S
C884 C886 1.384 . S
C885 C884 1.377 . S
C885 C891 1.390 1_545 S
C886 H877 0.930 . S
C886 C884 1.384 . S
C886 C887 1.372 . S
C887 C886 1.372 . S
C887 C888 1.400 1_545 S
C887 C892 1.490 . S
C888 H878 0.930 . S
C888 C887 1.400 1_565 S
C888 C891 1.386 . S
H889 C905 0.930 . S
H890 C906 0.931 . S
C891 H879 0.929 . S
C891 C885 1.390 1_565 S
C891 C888 1.386 . S
C892 C887 1.490 . S
C892 C894 1.395 . S
C892 C895 1.403 1_545 S
H893 C899 0.930 . S
C894 H880 0.930 . S
C894 C892 1.395 . S
C894 C897 1.403 . S
C895 C892 1.403 1_565 S
C895 C896 1.524 . S
C895 C899 1.400 . S
C896 H881 0.960 . S
C896 H882 0.960 . S
C896 H883 0.960 . S
C896 C895 1.524 . S
C897 C894 1.403 . S
C897 C898 1.392 . S
C897 C901 1.495 . S
C898 C897 1.392 . S
C898 C899 1.385 1_545 S
C898 C900 1.478 . S
C899 H893 0.930 . S
C899 C895 1.400 . S
C899 C898 1.385 1_565 S
C900 C898 1.478 . S
C900 C902 1.381 . S
C900 C906 1.383 1_545 S
C901 C897 1.495 . S
C901 H907 0.959 . S
C901 H908 0.961 . S
C901 H909 0.960 . S
C902 C900 1.381 . S
C902 C903 1.394 . S
C902 H910 0.930 . S
C903 C902 1.394 . S
C903 C904 1.387 . S
C903 H911 0.929 . S
C904 C903 1.387 . S
C904 C905 1.375 1_545 S
C905 H889 0.930 . S
C905 C904 1.375 1_565 S
C905 C906 1.379 . S
C906 H890 0.931 . S
C906 C900 1.383 1_565 S
C906 C905 1.379 . S
H907 C901 0.959 . S
H908 C901 0.961 . S
H909 C901 0.960 . S
H910 C902 0.930 . S
H911 C903 0.929 . S
H912 C920 0.929 . S
H913 C922 0.930 . S
H914 C924 0.930 . S
H915 C927 0.929 . S
H916 C930 0.930 . S
H917 C932 0.960 . S
H918 C932 0.960 . S
H919 C932 0.960 . S
C920 H912 0.929 . S
C920 C921 1.377 . S
C920 C922 1.384 . S
C921 C920 1.377 . S
C921 C927 1.390 . S
C922 H913 0.930 . S
C922 C920 1.384 . S
C922 C923 1.372 . S
C923 C922 1.372 . S
C923 C924 1.400 . S
C923 C928 1.490 . S
C924 H914 0.930 . S
C924 C923 1.400 . S
C924 C927 1.386 . S
H925 C941 0.930 . S
H926 C942 0.931 . S
C927 H915 0.929 . S
C927 C921 1.390 . S
C927 C924 1.386 . S
C928 C923 1.490 . S
C928 C930 1.395 . S
C928 C931 1.403 . S
H929 C935 0.930 . S
C930 H916 0.930 . S
C930 C928 1.395 . S
C930 C933 1.403 . S
C931 C928 1.403 . S
C931 C932 1.524 . S
C931 C935 1.400 . S
C932 H917 0.960 . S
C932 H918 0.960 . S
C932 H919 0.960 . S
C932 C931 1.524 . S
C933 C930 1.403 . S
C933 C934 1.392 . S
C933 C937 1.495 . S
C934 C933 1.392 . S
C934 C935 1.385 . S
C934 C936 1.478 . S
C935 H929 0.930 . S
C935 C931 1.400 . S
C935 C934 1.385 . S
C936 C934 1.478 . S
C936 C938 1.381 . S
C936 C942 1.383 . S
C937 C933 1.495 . S
C937 H943 0.959 . S
C937 H944 0.961 . S
C937 H945 0.960 . S
C938 C936 1.381 . S
C938 C939 1.394 1_556 S
C938 H946 0.930 . S
C939 C938 1.394 1_554 S
C939 C940 1.383 . S
C939 H947 0.929 . S
C940 C939 1.383 . S
C940 C941 1.377 . S
C941 H925 0.930 . S
C941 C940 1.377 . S
C941 C942 1.379 1_554 S
C942 H926 0.931 . S
C942 C936 1.383 . S
C942 C941 1.379 1_556 S
H943 C937 0.959 . S
H944 C937 0.961 . S
H945 C937 0.960 . S
H946 C938 0.930 . S
H947 C939 0.929 . S
H948 C956 0.919 1_655 S
H949 C958 0.930 1_655 S
H950 C960 0.930 . S
H951 C963 0.929 . S
H952 C966 0.930 . S
H953 C968 0.960 . S
H954 C968 0.960 . S
H955 C968 0.960 . S
C956 H948 0.919 1_455 S
C956 C957 1.377 . S
C956 C958 1.384 . S
C957 C956 1.377 . S
C957 C963 1.390 . S
C958 H949 0.930 1_455 S
C958 C956 1.384 . S
C958 C959 1.372 . S
C959 C958 1.372 . S
C959 C960 1.400 . S
C959 C964 1.490 . S
C960 H950 0.930 . S
C960 C959 1.400 . S
C960 C963 1.386 . S
H961 C977 0.930 . S
H962 C978 0.931 . S
C963 H951 0.929 . S
C963 C957 1.390 . S
C963 C960 1.386 . S
C964 C959 1.490 . S
C964 C966 1.395 1_455 S
C964 C967 1.403 . S
H965 C971 0.930 . S
C966 H952 0.930 . S
C966 C964 1.395 1_655 S
C966 C969 1.403 . S
C967 C964 1.403 . S
C967 C968 1.524 . S
C967 C971 1.400 . S
C968 H953 0.960 . S
C968 H954 0.960 . S
C968 H955 0.960 . S
C968 C967 1.524 . S
C969 C966 1.403 . S
C969 C970 1.392 . S
C969 C973 1.495 . S
C970 C969 1.392 . S
C970 C971 1.385 1_655 S
C970 C972 1.478 . S
C971 H965 0.930 . S
C971 C967 1.400 . S
C971 C970 1.385 1_455 S
C972 C970 1.478 . S
C972 C974 1.381 . S
C972 C978 1.383 1_655 S
C973 C969 1.495 . S
C973 H979 0.959 . S
C973 H980 0.961 . S
C973 H981 0.960 . S
C974 C972 1.381 . S
C974 C975 1.394 . S
C974 H982 0.930 . S
C975 C974 1.394 . S
C975 C976 1.383 . S
C975 H983 0.929 . S
C976 C975 1.383 . S
C976 C977 1.377 1_655 S
C977 H961 0.930 . S
C977 C976 1.377 1_455 S
C977 C978 1.379 . S
C978 H962 0.931 . S
C978 C972 1.383 1_455 S
C978 C977 1.379 . S
H979 C973 0.959 . S
H980 C973 0.961 . S
H981 C973 0.960 . S
H982 C974 0.930 . S
H983 C975 0.929 . S
C345 C6 0.418 . S
C364 C325 0.356 . S
C381 C59 1.848 . S
C400 C253 1.804 . S
C417 C86 1.141 . S
C436 C289 1.120 . S
C453 C15 0.305 . S
C472 C301 0.245 . S
C508 C229 1.912 . S
C489 C50 1.935 . S
C544 C265 1.234 . S
C525 C95 1.247 . S
C561 C46 1.136 . S
C580 C181 1.111 . S
C597 C99 3.058 . S
C616 C193 3.019 . S
C633 C10 1.960 . S
C652 C121 1.951 . S
C688 C157 1.235 . S
C669 C55 1.230 . S
C724 C217 2.891 . S
C705 C90 2.931 . S
C741 C19 1.840 . S
C760 C145 1.811 . S
C796 C223 1.762 . S
C777 C18 1.688 . S
C813 C49 1.332 . S
C832 C151 1.381 . S
C849 C98 1.455 . S
C868 C187 1.494 . S
C904 C295 1.475 . S
C885 C58 1.444 . S
C940 C331 1.109 . S
C921 C89 1.084 . S
C957 C9 1.329 . S
C976 C259 1.371 1_655 S
