# Generated by pormake.
# Topology zzz, (3,6)-cn, num edge types: 1
# Building blocks:
#     Node 0, Type 0, BuildingBlock: VETTIZ_charged_linker_0, # of connection points: 3
#     Node 1, Type 0, BuildingBlock: VETTIZ_charged_linker_0, # of connection points: 3
#     Node 2, Type 0, BuildingBlock: VETTIZ_charged_linker_0, # of connection points: 3
#     Node 3, Type 0, BuildingBlock: VETTIZ_charged_linker_0, # of connection points: 3
#     Node 4, Type 0, BuildingBlock: VETTIZ_charged_linker_0, # of connection points: 3
#     Node 5, Type 0, BuildingBlock: VETTIZ_charged_linker_0, # of connection points: 3
#     Node 6, Type 0, BuildingBlock: VETTIZ_charged_linker_0, # of connection points: 3
#     Node 7, Type 0, BuildingBlock: VETTIZ_charged_linker_0, # of connection points: 3
#     Node 8, Type 1, BuildingBlock: KUMBOL_clean_sbu_1, # of connection points: 6
#     Node 9, Type 1, BuildingBlock: KUMBOL_clean_sbu_1, # of connection points: 6
#     Node 10, Type 1, BuildingBlock: KUMBOL_clean_sbu_1, # of connection points: 6
#     Node 11, Type 1, BuildingBlock: KUMBOL_clean_sbu_1, # of connection points: 6
#     Edge 12, Type (0, 1), BuildingBlock: EZIPEK_clean_linker_0, # of connection points: 2
#     Edge 13, Type (0, 1), BuildingBlock: EZIPEK_clean_linker_0, # of connection points: 2
#     Edge 14, Type (0, 1), BuildingBlock: EZIPEK_clean_linker_0, # of connection points: 2
#     Edge 15, Type (0, 1), BuildingBlock: EZIPEK_clean_linker_0, # of connection points: 2
#     Edge 16, Type (0, 1), BuildingBlock: EZIPEK_clean_linker_0, # of connection points: 2
#     Edge 17, Type (0, 1), BuildingBlock: EZIPEK_clean_linker_0, # of connection points: 2
#     Edge 18, Type (0, 1), BuildingBlock: EZIPEK_clean_linker_0, # of connection points: 2
#     Edge 19, Type (0, 1), BuildingBlock: EZIPEK_clean_linker_0, # of connection points: 2
#     Edge 20, Type (0, 1), BuildingBlock: EZIPEK_clean_linker_0, # of connection points: 2
#     Edge 21, Type (0, 1), BuildingBlock: EZIPEK_clean_linker_0, # of connection points: 2
#     Edge 22, Type (0, 1), BuildingBlock: EZIPEK_clean_linker_0, # of connection points: 2
#     Edge 23, Type (0, 1), BuildingBlock: EZIPEK_clean_linker_0, # of connection points: 2
#     Edge 24, Type (0, 1), BuildingBlock: EZIPEK_clean_linker_0, # of connection points: 2
#     Edge 25, Type (0, 1), BuildingBlock: EZIPEK_clean_linker_0, # of connection points: 2
#     Edge 26, Type (0, 1), BuildingBlock: EZIPEK_clean_linker_0, # of connection points: 2
#     Edge 27, Type (0, 1), BuildingBlock: EZIPEK_clean_linker_0, # of connection points: 2
#     Edge 28, Type (0, 1), BuildingBlock: EZIPEK_clean_linker_0, # of connection points: 2
#     Edge 29, Type (0, 1), BuildingBlock: EZIPEK_clean_linker_0, # of connection points: 2
#     Edge 30, Type (0, 1), BuildingBlock: EZIPEK_clean_linker_0, # of connection points: 2
#     Edge 31, Type (0, 1), BuildingBlock: EZIPEK_clean_linker_0, # of connection points: 2
#     Edge 32, Type (0, 1), BuildingBlock: EZIPEK_clean_linker_0, # of connection points: 2
#     Edge 33, Type (0, 1), BuildingBlock: EZIPEK_clean_linker_0, # of connection points: 2
#     Edge 34, Type (0, 1), BuildingBlock: EZIPEK_clean_linker_0, # of connection points: 2
#     Edge 35, Type (0, 1), BuildingBlock: EZIPEK_clean_linker_0, # of connection points: 2
# Relax obj value: 0.362
# Max RMSD: 0.208
# Mean RMSD: 0.188
data_MOF--net-zzz--node1-KUMBOL_clean_sbu_1--node2-VETTIZ_charged_linker_0--edge1-EZIPEK_clean_linker_0
_symmetry_space_group_name_H-M    P1
_symmetry_Int_Tables_number       1
_symmetry_cell_setting            triclinic
loop_
_symmetry_equiv_pos_as_xyz
'x, y, z'
_cell_length_a     43.298247
_cell_length_b     42.98843
_cell_length_c     16.213082
_cell_angle_alpha  90.201663
_cell_angle_beta   90.021422
_cell_angle_gamma 90.829251
loop_
_atom_site_label
_atom_site_type_symbol
_atom_site_fract_x
_atom_site_fract_y
_atom_site_fract_z
_atom_type_partial_charge
C0 C 0.83597 0.54939 0.39714 0.0
C1 C 0.85979 0.5274 0.41175 0.0
C2 C 0.85674 0.49763 0.37556 0.0
C3 C 0.81328 0.51464 0.29512 0.0
C4 C 0.81195 0.54179 0.33998 0.0
C5 C 0.78483 0.56103 0.30926 0.0
H6 H 0.6886 0.57796 0.96957 0.0
C7 C 0.79331 0.51703 0.22227 0.0
C8 C 0.77314 0.54199 0.23449 0.0
H9 H 0.65044 0.53889 0.1919 0.0
H10 H 0.70216 0.54232 0.25853 0.0
H11 H 0.76352 0.61401 0.04642 0.0
H12 H 0.72357 0.54946 0.90936 0.0
H13 H 0.7424 0.51898 0.96408 0.0
H14 H 0.76293 0.54599 0.89756 0.0
H15 H 0.7455 0.60809 0.94726 0.0
H16 H 0.78482 0.59681 0.96369 0.0
C17 C 0.79602 0.59384 0.28404 0.0
C18 C 0.75966 0.56289 0.37569 0.0
C19 C 0.83118 0.47037 0.95395 0.0
C20 C 0.83802 0.48425 0.87742 0.0
C21 C 0.83213 0.51616 0.86597 0.0
C22 C 0.81774 0.53332 0.92834 0.0
C23 C 0.80903 0.51817 1.00108 0.0
C24 C 0.81893 0.48856 1.01678 0.0
C25 C 0.81966 0.48183 0.10792 0.0
C26 C 0.80301 0.5103 0.14075 0.0
C27 C 0.79538 0.53041 0.0761 0.0
C28 C 0.85394 0.4803 0.13614 0.0
C29 C 0.80141 0.45161 0.12622 0.0
C30 C 0.69115 0.57107 0.03334 0.0
C31 C 0.6654 0.55887 0.07541 0.0
C32 C 0.66958 0.54927 0.1584 0.0
C33 C 0.69911 0.55125 0.19678 0.0
C34 C 0.72487 0.5612 0.15042 0.0
C35 C 0.72074 0.56892 0.06815 0.0
C36 C 0.75024 0.56552 1.01963 0.0
C37 C 0.77123 0.55187 0.08589 0.0
C38 C 0.75809 0.55491 0.16432 0.0
C39 C 0.76172 0.59795 0.99263 0.0
C40 C 0.74465 0.54364 0.94435 0.0
H41 H 0.83146 0.46818 0.29165 0.0
H42 H 0.83699 0.57209 0.42609 0.0
H43 H 0.75152 0.5392 0.39354 0.0
H44 H 0.73954 0.57601 0.35238 0.0
H45 H 0.76871 0.57488 0.43173 0.0
H46 H 0.81432 0.59239 0.23614 0.0
H47 H 0.80556 0.60674 0.33803 0.0
H48 H 0.77659 0.60746 0.25865 0.0
H49 H 0.83779 0.44665 0.96667 0.0
H50 H 0.83912 0.52774 0.80962 0.0
H51 H 0.81425 0.55789 0.92019 0.0
H52 H 0.86198 0.5027 0.16371 0.0
H53 H 0.86988 0.47523 0.08443 0.0
H54 H 0.85782 0.4612 0.18041 0.0
H55 H 0.77786 0.45249 0.09897 0.0
H56 H 0.79881 0.44806 0.19355 0.0
H57 H 0.81342 0.43115 0.10007 0.0
H58 H 0.87358 0.47989 0.38859 0.0
C59 C 0.83337 0.4911 0.31804 0.0
C60 C 0.88975 0.79889 0.91382 0.0
C61 C 0.87461 0.82753 0.92304 0.0
C62 C 0.87433 0.84079 1.00319 0.0
C63 C 0.91602 0.80737 0.04412 0.0
C64 C 0.91243 0.79093 0.97129 0.0
C65 C 0.93822 0.76842 0.957 0.0
H66 H 0.01604 0.66338 0.10644 0.0
C67 C 0.9449 0.79724 0.08388 0.0
C68 C 0.95872 0.77559 0.03163 0.0
H69 H 1.0136 0.69066 0.8491 0.0
H70 H 1.00498 0.74418 0.89173 0.0
H71 H 0.05581 0.74677 0.16018 0.0
H72 H 0.99308 0.69067 0.23992 0.0
H73 H 0.96169 0.71305 0.19899 0.0
H74 H 0.98446 0.72821 0.28345 0.0
H75 H 0.05076 0.70757 0.19753 0.0
H76 H 0.04097 0.73939 0.26279 0.0
C77 C 0.95443 0.77542 0.87354 0.0
C78 C 0.92458 0.73508 0.95987 0.0
C79 C 0.98333 0.85368 0.33845 0.0
C80 C 1.01138 0.85382 0.38169 0.0
C81 C 0.0326 0.8298 0.36356 0.0
C82 C 0.02571 0.80638 0.3033 0.0
C83 C 0.99708 0.80644 0.26188 0.0
C84 C 0.97706 0.83069 0.27838 0.0
C85 C 0.95103 0.83185 0.21749 0.0
C86 C 0.95929 0.80549 0.15961 0.0
C87 C 0.98512 0.78886 0.18774 0.0
C88 C 0.95245 0.86396 0.17368 0.0
C89 C 0.92048 0.82508 0.26424 0.0
C90 C 1.0127 0.68058 0.05883 0.0
C91 C 1.01279 0.67176 0.97297 0.0
C92 C 1.01123 0.69577 0.91412 0.0
C93 C 1.00467 0.72617 0.93746 0.0
C94 C 0.99854 0.7326 1.01993 0.0
C95 C 1.00708 0.7124 0.08055 0.0
C96 C 1.00769 0.73024 0.16362 0.0
C97 C 0.99602 0.763 0.13881 0.0
C98 C 0.98603 0.76059 0.05671 0.0
C99 C 0.04075 0.73124 0.19791 0.0
C100 C 0.98541 0.71458 0.22514 0.0
H101 H 0.8957 0.84375 0.12049 0.0
H102 H 0.88829 0.78607 0.8564 0.0
H103 H 0.91343 0.73045 1.02046 0.0
H104 H 0.94257 0.71742 0.95016 0.0
H105 H 0.90696 0.73171 0.91065 0.0
H106 H 0.93964 0.78801 0.82973 0.0
H107 H 0.96018 0.75372 0.84014 0.0
H108 H 0.97557 0.79004 0.88229 0.0
H109 H 0.96695 0.87208 0.34889 0.0
H110 H 0.05472 0.8296 0.39467 0.0
H111 H 0.04314 0.78979 0.2874 0.0
H112 H 0.94065 0.88205 0.21063 0.0
H113 H 0.94247 0.86361 0.11112 0.0
H114 H 0.97681 0.87183 0.16447 0.0
H115 H 0.92412 0.80836 0.31547 0.0
H116 H 0.90271 0.81384 0.22475 0.0
H117 H 0.91101 0.84668 0.29148 0.0
H118 H 0.86125 0.8614 1.01606 0.0
C119 C 0.895 0.83083 0.06377 0.0
C120 C 0.8548 1.01634 0.11604 0.0
C121 C 0.87859 0.99727 0.08134 0.0
C122 C 0.8784 0.96536 0.10212 0.0
C123 C 0.82807 0.97021 0.16356 0.0
C124 C 0.82995 1.00194 0.16073 0.0
C125 C 0.80147 1.01533 0.20495 0.0
H126 H 0.65188 0.98186 0.33806 0.0
C127 C 0.79695 0.96052 0.18695 0.0
C128 C 0.78212 0.98556 0.22543 0.0
H129 H 0.71052 0.04849 0.46341 0.0
H130 H 0.7548 0.03211 0.3774 0.0
H131 H 0.66281 0.98521 0.18058 0.0
H132 H 0.7008 0.92862 0.35588 0.0
H133 H 0.69749 0.90599 0.2651 0.0
H134 H 0.66436 0.92661 0.30273 0.0
H135 H 0.65933 0.94511 0.16095 0.0
H136 H 0.68932 0.96831 0.11204 0.0
C137 C 0.78368 0.03661 0.14616 0.0
C138 C 0.81214 0.03315 0.28249 0.0
C139 C 0.74101 0.91592 0.95213 0.0
C140 C 0.70926 0.921 0.94338 0.0
C141 C 0.68946 0.91228 1.00802 0.0
C142 C 0.7018 0.90763 0.08665 0.0
C143 C 0.73315 0.91466 0.0993 0.0
C144 C 0.7532 0.91446 0.03269 0.0
C145 C 0.78535 0.92464 0.05837 0.0
C146 C 0.77893 0.93768 0.14505 0.0
C147 C 0.74764 0.93367 0.16518 0.0
C148 C 0.79855 0.94977 0.99844 0.0
C149 C 0.80574 0.89561 0.06079 0.0
C150 C 0.67387 0.9939 0.34571 0.0
C151 C 0.67709 1.01713 0.40593 0.0
C152 C 0.70684 0.03122 0.41552 0.0
C153 C 0.73232 0.02224 0.365 0.0
C154 C 0.72813 0.99911 0.3039 0.0
C155 C 0.69937 0.98467 0.29849 0.0
C156 C 0.69922 0.95695 0.24277 0.0
C157 C 0.73319 0.95571 0.21799 0.0
C158 C 0.75014 0.98151 0.24966 0.0
C159 C 0.67672 0.96398 0.17028 0.0
C160 C 0.68979 0.92791 0.29385 0.0
H161 H 0.85316 0.92726 0.15771 0.0
H162 H 0.85511 0.04122 0.10611 0.0
H163 H 0.83227 0.04853 0.26809 0.0
H164 H 0.81906 1.01681 0.33193 0.0
H165 H 0.79381 0.0485 0.30582 0.0
H166 H 0.77708 0.02383 0.08891 0.0
H167 H 0.79806 0.05718 0.1288 0.0
H168 H 0.76224 0.04495 0.1761 0.0
H169 H 0.75568 0.91998 0.89936 0.0
H170 H 0.66463 0.91373 1.00095 0.0
H171 H 0.68626 0.90285 0.13662 0.0
H172 H 0.7859 0.97193 1.00463 0.0
H173 H 0.79754 0.94234 0.93332 0.0
H174 H 0.82331 0.95462 1.00824 0.0
H175 H 0.80093 0.88023 1.00697 0.0
H176 H 0.80145 0.88179 0.11758 0.0
H177 H 0.83049 0.90192 0.05748 0.0
H178 H 0.89696 0.95052 0.08198 0.0
C179 C 0.85333 0.95182 0.14395 0.0
C180 C 0.53549 0.72485 0.35529 0.0
C181 C 0.55245 0.7009 0.39549 0.0
C182 C 0.5847 0.70071 0.38543 0.0
C183 C 0.58246 0.74271 0.287 0.0
C184 C 0.55137 0.74612 0.30177 0.0
C185 C 0.53945 0.77452 0.25467 0.0
H186 H 0.56523 0.87189 0.92315 0.0
C187 C 0.59236 0.76419 0.22133 0.0
C188 C 0.56827 0.78507 0.20494 0.0
H189 H 0.51009 0.89884 0.13194 0.0
H190 H 0.52606 0.85157 0.20546 0.0
H191 H 0.61735 0.86861 0.03985 0.0
H192 H 0.56293 0.79566 0.92774 0.0
H193 H 0.60154 0.78425 0.92086 0.0
H194 H 0.58991 0.81978 0.87223 0.0
H195 H 0.62499 0.85539 0.93697 0.0
H196 H 0.64316 0.83826 0.02612 0.0
C197 C 0.52888 0.79917 0.31746 0.0
C198 C 0.51293 0.76464 0.1967 0.0
C199 C 0.67722 0.72462 0.037 0.0
C200 C 0.68103 0.72961 0.95146 0.0
C201 C 0.67502 0.75989 0.92217 0.0
C202 C 0.65722 0.78031 0.96898 0.0
C203 C 0.64607 0.77068 0.04637 0.0
C204 C 0.65785 0.74429 0.08164 0.0
C205 C 0.64222 0.73626 0.16183 0.0
C206 C 0.6178 0.76158 0.16645 0.0
C207 C 0.6201 0.78128 0.09818 0.0
C208 C 0.66648 0.73919 0.23212 0.0
C209 C 0.62782 0.70306 0.15243 0.0
C210 C 0.55516 0.86719 0.9831 0.0
C211 C 0.53525 0.88875 1.01928 0.0
C212 C 0.52438 0.88214 0.10028 0.0
C213 C 0.53312 0.85454 0.14252 0.0
C214 C 0.55335 0.83345 0.10454 0.0
C215 C 0.56532 0.84149 0.0281 0.0
C216 C 0.59381 0.82388 1.00764 0.0
C217 C 0.59678 0.80328 0.08265 0.0
C218 C 0.57184 0.80689 0.13774 0.0
C219 C 0.62131 0.84754 1.00147 0.0
C220 C 0.58706 0.80497 0.92779 0.0
H221 H 0.62424 0.72052 0.32948 0.0
H222 H 0.51088 0.72679 0.36517 0.0
H223 H 0.52055 0.74607 0.15366 0.0
H224 H 0.50521 0.78474 0.1595 0.0
H225 H 0.49287 0.75565 0.23259 0.0
H226 H 0.54897 0.81211 0.34402 0.0
H227 H 0.5159 0.78814 0.36903 0.0
H228 H 0.51277 0.81576 0.28936 0.0
H229 H 0.68424 0.70317 0.06544 0.0
H230 H 0.68016 0.76637 0.85926 0.0
H231 H 0.65036 0.80129 0.93913 0.0
H232 H 0.68874 0.74961 0.21075 0.0
H233 H 0.67194 0.71612 0.25863 0.0
H234 H 0.65848 0.7547 0.28245 0.0
H235 H 0.61486 0.70095 0.09349 0.0
H236 H 0.61139 0.69652 0.201 0.0
H237 H 0.64598 0.68508 0.15242 0.0
H238 H 0.59848 0.68371 0.4175 0.0
C239 C 0.59968 0.72188 0.33379 0.0
C240 C 0.365 0.5209 0.2787 0.0
C241 C 0.3722 0.51354 0.36274 0.0
C242 C 0.35212 0.49316 0.40489 0.0
C243 C 0.32852 0.47773 0.27655 0.0
C244 C 0.34118 0.50328 0.23777 0.0
C245 C 0.3224 0.50989 0.15903 0.0
H246 H 0.17518 0.48098 1.00193 0.0
C247 C 0.30633 0.46235 0.22221 0.0
C248 C 0.29828 0.48292 0.15914 0.0
H249 H 0.24262 0.54008 0.8826 0.0
H250 H 0.28196 0.52476 0.98595 0.0
H251 H 0.21999 0.42366 1.01155 0.0
H252 H 0.18231 0.49054 0.16581 0.0
H253 H 0.20363 0.47123 0.24256 0.0
H254 H 0.17278 0.45137 0.18713 0.0
H255 H 0.18147 0.42743 0.05153 0.0
H256 H 0.20996 0.40533 0.10558 0.0
C257 C 0.34352 0.50836 0.08303 0.0
C258 C 0.30707 0.5418 0.16716 0.0
C259 C 0.25599 0.41393 0.40432 0.0
C260 C 0.22656 0.42699 0.41574 0.0
C261 C 0.20346 0.42078 0.35718 0.0
C262 C 0.21194 0.41071 0.27898 0.0
C263 C 0.24337 0.40943 0.26041 0.0
C264 C 0.26429 0.4033 0.32437 0.0
C265 C 0.29653 0.40587 0.28858 0.0
C266 C 0.29044 0.43378 0.23343 0.0
C267 C 0.26011 0.43146 0.2047 0.0
C268 C 0.30241 0.37746 0.23084 0.0
C269 C 0.32398 0.40652 0.35043 0.0
C270 C 0.19812 0.49134 0.99857 0.0
C271 C 0.20543 0.51216 0.93539 0.0
C272 C 0.23607 0.52447 0.93206 0.0
C273 C 0.25866 0.51587 0.99168 0.0
C274 C 0.25053 0.49464 0.05441 0.0
C275 C 0.2208 0.48215 0.05436 0.0
C276 C 0.21638 0.45663 0.11548 0.0
C277 C 0.24889 0.45412 0.14916 0.0
C278 C 0.26878 0.47795 0.11882 0.0
C279 C 0.20626 0.4266 0.06898 0.0
C280 C 0.19267 0.46776 0.18124 0.0
H281 H 0.31197 0.46435 0.39712 0.0
H282 H 0.37736 0.5393 0.24678 0.0
H283 H 0.2917 0.54231 0.22208 0.0
H284 H 0.29306 0.54719 0.11212 0.0
H285 H 0.32486 0.56052 0.17419 0.0
H286 H 0.36151 0.52705 0.0857 0.0
H287 H 0.33014 0.51116 0.02537 0.0
H288 H 0.35527 0.48556 0.08006 0.0
H289 H 0.27307 0.41785 0.45176 0.0
H290 H 0.17991 0.42808 0.36741 0.0
H291 H 0.19443 0.40832 0.23241 0.0
H292 H 0.285 0.37478 0.18077 0.0
H293 H 0.30192 0.35544 0.26664 0.0
H294 H 0.32539 0.37984 0.20071 0.0
H295 H 0.31953 0.41742 0.41042 0.0
H296 H 0.34475 0.41718 0.32137 0.0
H297 H 0.33042 0.38249 0.36806 0.0
H298 H 0.35442 0.48973 0.47081 0.0
C299 C 0.32942 0.47651 0.36245 0.0
C300 C 0.04451 0.24087 0.51215 0.0
C301 C 0.02006 0.22042 0.53018 0.0
C302 C 1.00237 0.2074 0.4651 0.0
C303 C 0.03483 0.23331 0.36569 0.0
C304 C 0.05064 0.248 0.42918 0.0
C305 C 0.07196 0.27317 0.39782 0.0
H306 H 0.03929 0.3869 0.19353 0.0
C307 C 0.04538 0.24631 0.28713 0.0
C308 C 0.06587 0.27094 0.30448 0.0
H309 H 0.1082 0.37947 0.38666 0.0
H310 H 0.11781 0.32614 0.34428 0.0
H311 H 0.08723 0.32766 0.04942 0.0
H312 H 1.00444 0.31566 0.1992 0.0
H313 H 1.00351 0.30578 0.0911 0.0
H314 H 1.00555 0.34596 0.12252 0.0
H315 H 0.05653 0.35527 0.03901 0.0
H316 H 0.05105 0.31614 1.00214 0.0
C317 C 0.1054 0.26419 0.41892 0.0
C318 C 0.06241 0.30452 0.43802 0.0
C319 C 0.02936 0.18643 1.02278 0.0
C320 C 0.04023 0.19063 0.94172 0.0
C321 C 0.05324 0.22033 0.92194 0.0
C322 C 0.05556 0.24472 0.98209 0.0
C323 C 0.04419 0.23978 0.06251 0.0
C324 C 0.03201 0.21061 0.08165 0.0
C325 C 0.02403 0.20796 0.17171 0.0
C326 C 0.03762 0.23847 0.20477 0.0
C327 C 0.04659 0.25857 0.14092 0.0
C328 C 0.04031 0.1793 0.20839 0.0
C329 C 0.98829 0.20629 0.18018 0.0
C330 C 0.05635 0.3738 0.227 0.0
C331 C 0.07137 0.38708 0.29835 0.0
C332 C 0.09508 0.36981 0.33548 0.0
C333 C 0.10045 0.33905 0.31224 0.0
C334 C 0.08113 0.32493 0.25405 0.0
C335 C 0.06265 0.3423 0.20409 0.0
C336 C 0.04904 0.3209 0.13638 0.0
C337 C 0.06053 0.28827 0.16181 0.0
C338 C 0.07431 0.29192 0.24039 0.0
C339 C 0.06176 0.3305 0.05172 0.0
C340 C 1.01352 0.32218 0.13738 0.0
H341 H 0.99569 0.20316 0.33625 0.0
H342 H 0.05801 0.25144 0.56134 0.0
H343 H 0.04613 0.31737 0.39808 0.0
H344 H 0.08273 0.31938 0.45316 0.0
H345 H 0.05055 0.30148 0.4982 0.0
H346 H 0.10991 0.23976 0.40001 0.0
H347 H 0.10963 0.26625 0.48635 0.0
H348 H 0.12252 0.27898 0.38649 0.0
H349 H 0.01938 0.16419 0.04048 0.0
H350 H 0.06203 0.22444 0.86037 0.0
H351 H 0.06678 0.26648 0.96616 0.0
H352 H 0.0656 0.18067 0.19663 0.0
H353 H 0.03118 0.15739 0.18061 0.0
H354 H 0.03698 0.17734 0.27566 0.0
H355 H 0.97624 0.20848 0.11989 0.0
H356 H 0.97947 0.22549 0.21925 0.0
H357 H 0.98045 0.18377 0.20697 0.0
H358 H 0.98316 0.19172 0.47779 0.0
C359 C 1.00975 0.21366 0.38315 0.0
C360 C 0.33 0.06581 0.02975 0.0
C361 C 0.36088 0.07614 1.01091 0.0
C362 C 0.37558 0.09637 0.06712 0.0
C363 C 0.33028 0.09705 0.15573 0.0
C364 C 0.31517 0.07639 0.10367 0.0
C365 C 0.28309 0.06797 0.13913 0.0
H366 H 0.17986 0.09473 0.46457 0.0
C367 C 0.30968 0.10489 0.22567 0.0
C368 C 0.2814 0.08823 0.21788 0.0
H369 H 0.16452 0.0277 0.27055 0.0
H370 H 0.21372 0.04383 0.20468 0.0
H371 H 0.24179 0.07738 0.50043 0.0
H372 H 0.20691 0.15018 0.35065 0.0
H373 H 0.23858 0.16675 0.4034 0.0
H374 H 0.20665 0.15039 0.4613 0.0
H375 H 0.23347 0.1147 0.54333 0.0
H376 H 0.27146 0.1052 0.50591 0.0
C377 C 0.28228 0.03309 0.16004 0.0
C378 C 0.25787 0.07661 0.07688 0.0
C379 C 0.35502 0.16818 0.46015 0.0
C380 C 0.34449 0.17105 0.54255 0.0
C381 C 0.31221 0.17133 0.55496 0.0
C382 C 0.29203 0.16126 0.49251 0.0
C383 C 0.30425 0.15074 0.41717 0.0
C384 C 0.33493 0.15631 0.40004 0.0
C385 C 0.34452 0.14226 0.31913 0.0
C386 C 0.3149 0.12538 0.2933 0.0
C387 C 0.29157 0.13038 0.35103 0.0
C388 C 0.37123 0.11919 0.33594 0.0
C389 C 0.35288 0.16941 0.25992 0.0
C390 C 0.18661 0.08366 0.40728 0.0
C391 C 0.16803 0.06011 0.3733 0.0
C392 C 0.17833 0.04606 0.29869 0.0
C393 C 0.20693 0.05521 0.26088 0.0
C394 C 0.22575 0.07844 0.29821 0.0
C395 C 0.21479 0.09208 0.37015 0.0
C396 C 0.23704 0.1149 0.40664 0.0
C397 C 0.26332 0.11355 0.34555 0.0
C398 C 0.25753 0.09227 0.28024 0.0
C399 C 0.24642 0.10277 0.49359 0.0
C400 C 0.22162 0.14729 0.40634 0.0
H401 H 0.3736 0.12281 0.17552 0.0
H402 H 0.3179 0.05008 0.98823 0.0
H403 H 0.26011 0.10155 0.05963 0.0
H404 H 0.23451 0.07285 0.10297 0.0
H405 H 0.2598 0.06235 1.01986 0.0
H406 H 0.30192 0.02721 0.20109 0.0
H407 H 0.28406 1.01881 0.10302 0.0
H408 H 0.2608 0.02631 0.19236 0.0
H409 H 0.37927 0.16987 0.44459 0.0
H410 H 0.30254 0.17596 0.61509 0.0
H411 H 0.26805 0.15947 0.5083 0.0
H412 H 0.36936 0.10896 0.3986 0.0
H413 H 0.39418 0.13097 0.3318 0.0
H414 H 0.37089 0.09873 0.29451 0.0
H415 H 0.3399 0.19081 0.27542 0.0
H416 H 0.34654 0.16427 0.19508 0.0
H417 H 0.37787 0.17547 0.26322 0.0
H418 H 0.39899 0.10451 0.05557 0.0
C419 C 0.36056 0.1071 0.13747 0.0
C420 C 0.49384 0.35827 0.02772 0.0
C421 C 0.49138 0.3915 0.02737 0.0
C422 C 0.48285 0.40645 0.10068 0.0
C423 C 0.47525 0.35709 0.16928 0.0
C424 C 0.48625 0.34139 0.10128 0.0
C425 C 0.4872 0.3062 0.11963 0.0
H426 H 0.44369 0.19151 0.4037 0.0
C427 C 0.46463 0.33441 0.23123 0.0
C428 C 0.47312 0.30428 0.2074 0.0
H429 H 0.53247 0.1932 0.28506 0.0
H430 H 0.51997 0.24323 0.21995 0.0
H431 H 0.45347 0.23858 0.48236 0.0
H432 H 0.39722 0.23546 0.27312 0.0
H433 H 0.3811 0.26047 0.34848 0.0
H434 H 0.39144 0.22144 0.37648 0.0
H435 H 0.41519 0.2508 0.49351 0.0
H436 H 0.44656 0.27844 0.47704 0.0
C437 C 0.52085 0.29528 0.11594 0.0
C438 C 0.46692 0.28815 0.05743 0.0
C439 C 0.41731 0.37135 0.49311 0.0
C440 C 0.40854 0.35327 0.56148 0.0
C441 C 0.39282 0.32485 0.54664 0.0
C442 C 0.39439 0.311 0.46816 0.0
C443 C 0.41237 0.32573 0.40734 0.0
C444 C 0.4203 0.35666 0.41686 0.0
C445 C 0.43856 0.36892 0.34524 0.0
C446 C 0.44438 0.33902 0.29831 0.0
C447 C 0.42983 0.31362 0.33623 0.0
C448 C 0.46935 0.3836 0.3778 0.0
C449 C 0.41754 0.39141 0.29651 0.0
C450 C 0.45979 0.20152 0.3597 0.0
C451 C 0.48852 0.1877 0.34775 0.0
C452 C 0.50965 0.20268 0.29343 0.0
C453 C 0.50226 0.23133 0.25443 0.0
C454 C 0.47362 0.24543 0.27007 0.0
C455 C 0.45395 0.23103 0.32652 0.0
C456 C 0.43128 0.25324 0.36303 0.0
C457 C 0.43999 0.28311 0.31828 0.0
C458 C 0.46322 0.27835 0.25836 0.0
C459 C 0.43668 0.25552 0.45834 0.0
C460 C 0.39838 0.24207 0.33947 0.0
H461 H 0.46814 0.40309 0.22296 0.0
H462 H 0.50099 0.34604 0.97265 0.0
H463 H 0.44293 0.29703 0.05794 0.0
H464 H 0.46603 0.26302 0.07328 0.0
H465 H 0.47632 0.29056 0.99395 0.0
H466 H 0.53367 0.30218 0.1727 0.0
H467 H 0.53304 0.30562 0.06207 0.0
H468 H 0.52191 0.26976 0.1074 0.0
H469 H 0.42766 0.39422 0.50163 0.0
H470 H 0.38263 0.31186 0.59706 0.0
H471 H 0.38389 0.28851 0.45915 0.0
H472 H 0.47845 0.37006 0.43069 0.0
H473 H 0.46605 0.40787 0.39915 0.0
H474 H 0.48821 0.38347 0.33192 0.0
H475 H 0.41744 0.38631 0.2294 0.0
H476 H 0.42475 0.41599 0.30587 0.0
H477 H 0.39291 0.38944 0.31541 0.0
H478 H 0.48155 0.43162 0.10323 0.0
C479 C 0.4747 0.38967 0.17046 0.0
C480 C 0.11495 0.99179 0.84353 0.0
C481 C 0.12115 0.02569 0.96175 0.0
C482 C 0.10261 1.01246 0.89877 0.0
C483 C 0.15267 1.01848 0.96582 0.0
C484 C 0.14627 0.98344 0.84894 0.0
C485 C 0.16523 0.99737 0.90941 0.0
N486 N 0.0958 0.97848 0.78726 0.0
C487 C 0.10606 0.9552 0.73725 0.0
C488 C 0.15733 0.96075 0.79487 0.0
C489 C 0.137 0.94629 0.73942 0.0
Gd490 Gd 0.9848 0.02574 0.61972 0.0
Gd491 Gd 0.04485 0.99667 0.77926 0.0
N492 N 0.07204 1.01838 0.89333 0.0
C493 C 0.1073 0.04516 1.01978 0.0
C494 C 0.05823 0.03654 0.95183 0.0
C495 C 0.07562 0.05036 1.01517 0.0
H496 H 0.03386 0.04111 0.94941 0.0
H497 H 0.06455 0.06506 0.06036 0.0
H498 H 0.02051 0.06589 0.46497 0.0
H499 H 0.09047 0.94329 0.69554 0.0
H500 H 0.03442 0.05743 0.31952 0.0
H501 H 0.1207 0.05579 0.06911 0.0
H502 H 0.16734 0.02858 1.01334 0.0
H503 H 0.92832 0.97377 0.66008 0.0
H504 H 0.18123 0.95367 0.79689 0.0
H505 H 0.14508 0.92814 0.69869 0.0
H506 H 0.98393 0.96108 0.24805 0.0
H507 H 0.1894 0.99146 0.91422 0.0
H508 H 0.9172 0.91424 0.44922 0.0
H509 H 0.90256 0.92882 0.59161 0.0
N510 N 0.95801 0.98345 0.55848 0.0
C511 C 0.96463 0.97736 0.47809 0.0
C512 C 0.93466 0.96757 0.59773 0.0
C513 C 0.92847 0.93397 0.47887 0.0
C514 C 0.92013 0.94213 0.55924 0.0
C515 C 0.95047 0.95202 0.43663 0.0
H516 H 0.94772 0.92644 0.3214 0.0
N517 N 0.99732 0.02203 0.47775 0.0
C518 C 0.9851 0.997 0.43691 0.0
C519 C 1.01047 1.01329 0.31103 0.0
C520 C 0.99168 0.99177 0.35271 0.0
C521 C 1.01345 0.04441 0.43513 0.0
C522 C 0.02092 0.04 0.35207 0.0
O523 O 0.04215 0.04961 0.7888 0.0
O524 O 1.00655 0.06728 0.69221 0.0
O525 O 0.93918 0.04202 0.65083 0.0
O526 O 0.95939 0.05542 0.53584 0.0
O527 O 1.00358 0.02294 0.83444 0.0
O528 O 0.96414 1.01154 0.74576 0.0
O529 O 0.9941 0.9742 0.62919 0.0
O530 O 0.04502 0.97089 0.6538 0.0
O531 O 1.00588 0.96534 0.78431 0.0
O532 O 0.04565 0.95751 0.86592 0.0
O533 O 0.03572 0.04033 0.58968 0.0
O534 O 0.06982 1.009 0.66069 0.0
C535 C 0.02688 0.07234 0.75283 0.0
C536 C 0.97385 1.01749 0.82173 0.0
C537 C 0.92529 0.09026 0.59632 0.0
C538 C 0.94221 0.14308 0.62428 0.0
C539 C 0.8962 0.13312 0.54143 0.0
C540 C 0.90072 0.10115 0.54884 0.0
C541 C 0.91752 0.15405 0.57634 0.0
C542 C 0.94361 0.11128 0.64117 0.0
C543 C 0.93594 0.05844 0.58482 0.0
C544 C 0.97875 0.96571 0.31227 0.0
C545 C 0.95816 0.94593 0.35408 0.0
H546 H 0.0161 1.01006 0.24647 0.0
C547 C 0.0205 0.9613 0.61226 0.0
C548 C 0.0637 0.02804 0.59925 0.0
C549 C 1.00141 0.92119 0.87478 0.0
C550 C 0.95505 0.88861 0.87686 0.0
C551 C 0.99961 0.87467 0.95911 0.0
C552 C 0.01563 0.90093 0.93037 0.0
C553 C 0.96958 0.86832 0.93178 0.0
C554 C 0.9708 0.91522 0.8498 0.0
C555 C 0.01815 0.94837 0.84156 0.0
H556 H 0.8776 0.14163 0.50346 0.0
H557 H 0.88613 0.08509 0.51427 0.0
H558 H 0.91565 0.17856 0.56219 0.0
H559 H 0.96248 0.10271 0.67739 0.0
H560 H 1.01063 0.85896 1.00168 0.0
H561 H 0.0391 0.90522 0.95103 0.0
H562 H 0.95774 0.84748 0.95281 0.0
H563 H 0.95918 0.93093 0.80831 0.0
C564 C 0.51656 0.94696 0.53221 0.0
C565 C 0.50663 0.90413 0.62578 0.0
C566 C 0.50406 0.93581 0.60492 0.0
C567 C 0.52355 0.88424 0.57445 0.0
C568 C 0.53194 0.92665 0.47791 0.0
C569 C 0.53618 0.89549 0.50059 0.0
N570 N 0.51163 0.97708 0.51178 0.0
C571 C 0.51855 0.98734 0.43403 0.0
C572 C 0.54149 0.93795 0.40108 0.0
C573 C 0.5342 0.96826 0.37843 0.0
Gd574 Gd 0.53052 0.06919 0.76701 0.0
Gd575 Gd 0.48852 1.00834 0.61467 0.0
N576 N 0.48752 0.95552 0.65245 0.0
C577 C 0.49114 0.89316 0.69591 0.0
C578 C 0.47058 0.94449 0.71737 0.0
C579 C 0.47253 0.91332 0.74095 0.0
H580 H 0.45625 0.96007 0.75219 0.0
H581 H 0.45971 0.90489 0.79384 0.0
H582 H 0.56924 0.12588 0.66789 0.0
H583 H 0.51262 1.01053 0.41557 0.0
H584 H 0.57153 0.18327 0.66559 0.0
H585 H 0.49255 0.86899 0.71411 0.0
H586 H 0.5261 0.85991 0.58991 0.0
H587 H 0.49036 0.05002 0.93938 0.0
H588 H 0.55339 0.92312 0.35766 0.0
H589 H 0.54047 0.9769 0.318 0.0
H590 H 0.50226 0.21392 0.88132 0.0
H591 H 0.54825 0.87965 0.46014 0.0
H592 H 0.45568 0.13356 0.04565 0.0
H593 H 0.45948 0.07623 0.04509 0.0
N594 N 0.50349 0.09195 0.87776 0.0
C595 C 0.50248 0.12349 0.87877 0.0
C596 C 0.48907 0.07502 0.9382 0.0
C597 C 0.46928 0.12217 0.9986 0.0
C598 C 0.47145 0.08981 0.99862 0.0
C599 C 0.48526 0.13948 0.93898 0.0
H600 H 0.47168 0.18482 0.98398 0.0
N601 N 0.53632 0.12367 0.76513 0.0
C602 C 0.51951 0.13986 0.82081 0.0
C603 C 0.53878 0.18838 0.76453 0.0
C604 C 0.52006 0.17268 0.82167 0.0
C605 C 0.55542 0.13885 0.71103 0.0
C606 C 0.55676 0.17136 0.70951 0.0
O607 O 0.51811 0.98913 0.71933 0.0
O608 O 0.51216 0.02424 0.82418 0.0
O609 O 0.56321 0.03903 0.82664 0.0
O610 O 0.57064 0.08896 0.83058 0.0
O611 O 0.46177 0.02278 0.73 0.0
O612 O 0.47772 0.07209 0.7646 0.0
O613 O 0.52738 0.08695 0.6365 0.0
O614 O 0.48636 0.05994 0.57763 0.0
O615 O 0.44164 0.98995 0.60757 0.0
O616 O 0.46124 1.01424 0.50357 0.0
O617 O 0.561 0.05345 0.65942 0.0
O618 O 0.53665 1.01972 0.56678 0.0
C619 C 0.51599 0.99551 0.79863 0.0
C620 C 0.45583 0.05031 0.76176 0.0
C621 C 0.61318 0.05673 0.79761 0.0
C622 C 0.65528 0.02147 0.76794 0.0
C623 C 0.64799 0.06677 0.68238 0.0
C624 C 0.62284 0.07541 0.73099 0.0
C625 C 0.66387 0.03953 0.69968 0.0
C626 C 0.62993 0.03005 0.8164 0.0
C627 C 0.5831 0.06163 0.83828 0.0
C628 C 0.50232 0.18872 0.88008 0.0
C629 C 0.48492 0.17215 0.93853 0.0
H630 H 0.5398 0.21357 0.76309 0.0
C631 C 0.50553 0.08415 0.58065 0.0
C632 C 0.56117 0.03531 0.59328 0.0
C633 C 0.40895 0.02204 0.53225 0.0
C634 C 0.38361 0.07073 0.56502 0.0
C635 C 0.35778 0.03196 0.47878 0.0
C636 C 0.38332 1.01261 0.48523 0.0
C637 C 0.35792 0.06092 0.51819 0.0
C638 C 0.40871 0.05081 0.5736 0.0
C639 C 0.4363 1.00242 0.53626 0.0
H640 H 0.65497 0.08106 0.63062 0.0
H641 H 0.61035 0.09604 0.71443 0.0
H642 H 0.68342 0.03312 0.66191 0.0
H643 H 0.62292 1.01557 0.86798 0.0
H644 H 0.33802 0.0247 0.44219 0.0
H645 H 0.38318 0.99046 0.45315 0.0
H646 H 0.33823 0.07596 0.51094 0.0
H647 H 0.42839 0.0583 0.60987 0.0
C648 C 0.42261 0.56945 0.84497 0.0
C649 C 0.41847 0.60069 0.96829 0.0
C650 C 0.43613 0.58828 0.90311 0.0
C651 C 0.38634 0.59564 0.96954 0.0
C652 C 0.39082 0.56173 0.85032 0.0
C653 C 0.37248 0.57612 0.91043 0.0
N654 N 0.44162 0.55472 0.79185 0.0
C655 C 0.43089 0.52847 0.75257 0.0
C656 C 0.37909 0.53785 0.80017 0.0
C657 C 0.39949 0.52039 0.7531 0.0
Gd658 Gd 0.54403 0.52161 0.63722 0.0
Gd659 Gd 0.49398 0.57337 0.78252 0.0
N660 N 0.46729 0.59107 0.90171 0.0
C661 C 0.43385 0.61608 0.0327 0.0
C662 C 0.48242 0.60405 0.96769 0.0
C663 C 0.46606 0.61724 0.03312 0.0
H664 H 0.50712 0.60545 0.96838 0.0
H665 H 0.47833 0.62828 0.08377 0.0
H666 H 0.49874 0.4944 0.47949 0.0
H667 H 0.44672 0.51275 0.72408 0.0
H668 H 0.48896 0.50682 0.33404 0.0
H669 H 0.42119 0.62593 0.08394 0.0
H670 H 0.37231 0.60527 1.01845 0.0
H671 H 0.61701 0.54648 0.67631 0.0
H672 H 0.3549 0.53108 0.80256 0.0
H673 H 0.39131 0.50007 0.71959 0.0
H674 H 0.57132 0.57731 0.26303 0.0
H675 H 0.348 0.5708 0.91489 0.0
H676 H 0.65037 0.59557 0.46493 0.0
H677 H 0.65752 0.5777 0.6084 0.0
N678 N 0.58616 0.54757 0.57381 0.0
C679 C 0.58262 0.55562 0.49333 0.0
C680 C 0.61316 0.55438 0.61419 0.0
C681 C 0.63232 0.58193 0.49457 0.0
C682 C 0.63642 0.57193 0.57559 0.0
C683 C 0.60538 0.57345 0.45195 0.0
H684 H 0.61779 0.5958 0.33669 0.0
N685 N 0.5354 0.52753 0.49343 0.0
C686 C 0.55628 0.54556 0.45224 0.0
C687 C 0.52711 0.53934 0.32588 0.0
C688 C 0.55238 0.55246 0.36781 0.0
C689 C 0.51265 0.51216 0.45031 0.0
C690 C 0.5076 0.51846 0.36689 0.0
O691 O 0.50361 0.52638 0.84185 0.0
O692 O 0.51151 0.49542 0.72736 0.0
O693 O 0.55105 0.47961 0.56351 0.0
O694 O 0.57737 0.48719 0.67324 0.0
O695 O 0.53444 0.55082 0.85246 0.0
O696 O 0.57048 0.54037 0.75205 0.0
O697 O 0.54847 0.5744 0.62498 0.0
O698 O 0.49968 0.59091 0.64966 0.0
O699 O 0.53434 0.60294 0.77488 0.0
O700 O 0.49023 0.62311 0.80887 0.0
O701 O 0.49239 0.51894 0.61112 0.0
O702 O 0.46989 0.56377 0.65776 0.0
C703 C 0.50548 0.49859 0.80719 0.0
C704 C 0.5636 0.54615 0.83034 0.0
C705 C 0.55876 0.43629 0.65153 0.0
C706 C 0.51785 0.39829 0.68488 0.0
C707 C 0.56848 0.39478 0.74899 0.0
C708 C 0.57889 0.4205 0.7041 0.0
C709 C 0.53797 0.38428 0.74131 0.0
C710 C 0.52848 0.42434 0.6397 0.0
C711 C 0.56856 0.46698 0.61849 0.0
C712 C 0.57427 0.57135 0.32733 0.0
C713 C 0.60074 0.58183 0.36927 0.0
H714 H 0.5233 0.54407 0.2611 0.0
C715 C 0.5258 0.59338 0.60806 0.0
C716 C 0.47077 0.54016 0.60474 0.0
C717 C 0.53699 0.64997 0.85224 0.0
C718 C 0.58604 0.67455 0.89243 0.0
C719 C 0.53793 0.69287 0.95045 0.0
C720 C 0.52138 0.67074 0.90417 0.0
C721 C 0.57007 0.69506 0.94393 0.0
C722 C 0.56952 0.65188 0.84775 0.0
C723 C 0.51987 0.62804 0.79742 0.0
H724 H 0.58391 0.38341 0.79149 0.0
H725 H 0.60227 0.4291 0.71381 0.0
H726 H 0.53024 0.36461 0.77787 0.0
H727 H 0.51282 0.43577 0.59779 0.0
H728 H 0.52573 0.70888 0.99005 0.0
H729 H 0.49641 0.67016 0.90833 0.0
H730 H 0.58241 0.71314 0.97767 0.0
H731 H 0.58218 0.63613 0.80861 0.0
C732 C 0.03495 0.47845 0.90293 0.0
C733 C 0.99312 0.50154 0.97976 0.0
C734 C 1.00744 0.49432 0.90414 0.0
C735 C 1.00821 0.49464 0.05412 0.0
C736 C 0.04859 0.46863 0.97719 0.0
C737 C 0.0359 0.47808 0.05285 0.0
N738 N 0.04595 0.46898 0.82889 0.0
C739 C 0.06697 0.44567 0.82481 0.0
C740 C 0.07312 0.44778 0.97298 0.0
C741 C 0.0817 0.43549 0.8965 0.0
Gd742 Gd 0.05484 0.56372 0.58037 0.0
Gd743 Gd 0.02239 0.49024 0.71172 0.0
N744 N 0.99291 0.49914 0.8313 0.0
C745 C 0.96328 0.5137 0.97825 0.0
C746 C 0.96273 0.50788 0.82992 0.0
C747 C 0.94778 0.51626 0.903 0.0
H748 H 0.95051 0.50895 0.77222 0.0
H749 H 0.92421 0.52429 0.90131 0.0
H750 H 0.03526 0.55819 0.38345 0.0
H751 H 0.07271 0.43554 0.76578 0.0
H752 H 1.00235 0.58562 0.28265 0.0
H753 H 0.95146 0.51961 0.03494 0.0
H754 H 0.99783 0.50044 0.11289 0.0
H755 H 0.07527 0.61806 0.72331 0.0
H756 H 0.08421 0.43956 0.02856 0.0
H757 H 0.09937 0.41799 0.89282 0.0
H758 H 0.96973 0.6768 0.42946 0.0
H759 H 0.04636 0.47126 0.11065 0.0
H760 H 0.01787 0.69716 0.69077 0.0
H761 H 0.05816 0.66959 0.76927 0.0
N762 N 0.04304 0.61478 0.62442 0.0
C763 C 0.02277 0.63058 0.57709 0.0
C764 C 0.05697 0.62924 0.69011 0.0
C765 C 0.02484 0.67415 0.67141 0.0
C766 C 0.04757 0.6587 0.71581 0.0
C767 C 1.01284 0.66054 0.59953 0.0
H768 H 0.9845 0.69945 0.56385 0.0
N769 N 0.02698 0.59052 0.47984 0.0
C770 C 1.01457 0.61803 0.50178 0.0
C771 C 0.99095 0.62246 0.36742 0.0
C772 C 0.99601 0.63476 0.44648 0.0
C773 C 0.02393 0.57943 0.4013 0.0
C774 C 1.00541 0.59491 0.34429 0.0
O775 O 0.0718 0.50183 0.74978 0.0
O776 O 0.0894 0.54483 0.67542 0.0
O777 O 0.0919 0.54842 0.50151 0.0
O778 O 0.08985 0.59678 0.53707 0.0
O779 O 1.00602 0.53966 0.74165 0.0
O780 O 0.05047 0.56671 0.71909 0.0
O781 O 1.00401 0.55158 0.55148 0.0
O782 O 0.98388 0.51203 0.63586 0.0
O783 O 0.99858 0.44723 0.74577 0.0
O784 O 0.01578 0.45297 0.62289 0.0
O785 O 0.04321 0.51965 0.50797 0.0
O786 O 0.05745 0.48536 0.60633 0.0
C787 C 0.09341 0.52265 0.73117 0.0
C788 C 0.02499 0.5628 0.76101 0.0
C789 C 0.1385 0.57176 0.54386 0.0
C790 C 0.18226 0.53777 0.56669 0.0
C791 C 0.17452 0.58213 0.65641 0.0
C792 C 0.14806 0.58996 0.61188 0.0
C793 C 0.19113 0.55563 0.63538 0.0
C794 C 0.15672 0.54662 0.51944 0.0
C795 C 0.10714 0.57463 0.5084 0.0
C796 C 0.98429 0.66369 0.47068 0.0
C797 C 0.99268 0.67657 0.54724 0.0
H798 H 0.97684 0.63457 0.32301 0.0
C799 C 0.98103 0.53315 0.57696 0.0
C800 C 0.05091 0.49133 0.5283 0.0
C801 C 0.97031 0.42389 0.63702 0.0
C802 C 0.91452 0.42302 0.64454 0.0
C803 C 0.94085 0.38419 0.56322 0.0
C804 C 0.96938 0.39738 0.58636 0.0
C805 C 0.91337 0.39639 0.59442 0.0
C806 C 0.94286 0.43789 0.66006 0.0
C807 C 0.9995 0.43568 0.6715 0.0
H808 H 0.1814 0.59591 0.70949 0.0
H809 H 0.13446 0.60937 0.63299 0.0
H810 H 0.21075 0.54901 0.67256 0.0
H811 H 0.14973 0.53242 0.46708 0.0
H812 H 0.94015 0.36348 0.5251 0.0
H813 H 0.99057 0.38653 0.56661 0.0
H814 H 0.89164 0.38434 0.58302 0.0
H815 H 0.94357 0.45838 0.69928 0.0
C816 C 0.13906 0.02141 0.46586 0.0
C817 C 0.13942 0.04978 0.42145 0.0
C818 C 0.09322 0.06553 0.50104 0.0
C819 C 0.09 0.03545 0.53745 0.0
N820 N 0.1091 0.98228 0.53668 0.0
N821 N 0.11261 0.09655 0.38665 0.0
C822 C 0.11272 1.01273 0.51487 0.0
C823 C 0.115 0.07094 0.43562 0.0
N824 N 0.16454 1.00301 0.46462 0.0
N825 N 0.07761 0.09 0.53355 0.0
H826 H 0.12799 0.10116 0.3385 0.0
H827 H 0.09369 0.11127 0.38869 0.0
H828 H 0.06403 0.08805 0.58627 0.0
H829 H 0.08149 0.1129 0.51491 0.0
H830 H 0.16739 0.9843 0.50452 0.0
H831 H 0.1841 1.00801 0.42935 0.0
H832 H 0.12293 0.96463 0.5136 0.0
H833 H 0.0904 0.97362 0.56921 0.0
C834 C 0.49955 0.13001 0.37532 0.0
C835 C 0.49729 0.16114 0.40438 0.0
C836 C 0.49762 0.14134 0.54728 0.0
C837 C 0.50233 0.11045 0.51896 0.0
N838 N 0.51597 0.07742 0.40498 0.0
N839 N 0.50321 0.19647 0.51925 0.0
C840 C 0.50555 0.10535 0.43249 0.0
C841 C 0.49934 0.16674 0.4908 0.0
N842 N 0.49525 0.12378 0.29349 0.0
N843 N 0.48923 0.14637 0.62728 0.0
H844 H 0.50552 0.21548 0.47975 0.0
H845 H 0.50743 0.20174 0.58106 0.0
H846 H 0.48566 0.12825 0.6688 0.0
H847 H 0.48269 0.16802 0.64981 0.0
H848 H 0.49328 0.10125 0.26993 0.0
H849 H 0.49151 0.1412 0.25013 0.0
H850 H 0.52139 0.07298 0.34351 0.0
H851 H 0.52255 0.06005 0.44557 0.0
C852 C 0.40305 0.55381 0.44748 0.0
C853 C 0.40062 0.52403 0.41008 0.0
C854 C 0.438 0.50469 0.51098 0.0
C855 C 0.44475 0.53531 0.54113 0.0
N856 N 0.43471 0.59074 0.52327 0.0
N857 N 0.42291 0.47358 0.39296 0.0
C858 C 0.42756 0.56044 0.50534 0.0
C859 C 0.42082 0.50057 0.43696 0.0
N860 N 0.38141 0.5756 0.43001 0.0
N861 N 0.44574 0.47905 0.55556 0.0
H862 H 0.41074 0.46989 0.3381 0.0
H863 H 0.43923 0.45676 0.40652 0.0
H864 H 0.45482 0.48031 0.61478 0.0
H865 H 0.43908 0.45653 0.53838 0.0
H866 H 0.37943 0.59632 0.46301 0.0
H867 H 0.36406 0.57187 0.38624 0.0
H868 H 0.42517 0.60932 0.49151 0.0
H869 H 0.4522 0.59788 0.56282 0.0
C870 C 0.08681 0.4402 0.35579 0.0
C871 C 0.06301 0.41772 0.34033 0.0
C872 C 0.0291 0.44835 0.43242 0.0
C873 C 0.05474 0.4667 0.4608 0.0
N874 N 0.10914 0.47817 0.4503 0.0
N875 N 1.01157 0.3992 0.37349 0.0
C876 C 0.08386 0.46216 0.42214 0.0
C877 C 0.03402 0.4217 0.38043 0.0
N878 N 0.11233 0.44061 0.30624 0.0
N879 N 0.99985 0.45642 0.45409 0.0
H880 H 1.01401 0.37924 0.33767 0.0
H881 H 0.99139 0.39919 0.40843 0.0
H882 H 0.99531 0.47527 0.49247 0.0
H883 H 0.98014 0.44606 0.42848 0.0
H884 H 0.12933 0.45797 0.30877 0.0
H885 H 0.11473 0.42529 0.2566 0.0
H886 H 0.13155 0.47393 0.4303 0.0
H887 H 0.10791 0.49373 0.49939 0.0
C888 C 0.89554 1.01818 0.93969 0.0
C889 C 0.9033 1.0086 1.02075 0.0
C890 C 0.95797 1.00525 0.97507 0.0
C891 C 0.95055 1.01692 0.89452 0.0
N892 N 0.9128 0.04664 0.82011 0.0
N893 N 0.94373 1.00158 0.1201 0.0
C894 C 0.91943 0.02677 0.88256 0.0
C895 C 0.93512 1.00497 0.03962 0.0
N896 N 0.86536 1.01831 0.91531 0.0
N897 N 0.98613 0.9927 0.99052 0.0
H898 H 0.9278 1.00158 0.16841 0.0
H899 H 0.9667 1.00225 0.13937 0.0
H900 H 1.00402 0.99222 0.9484 0.0
H901 H 0.99094 0.98023 0.0439 0.0
H902 H 0.85884 0.02194 0.8542 0.0
H903 H 0.84711 1.01214 0.95412 0.0
H904 H 0.89105 0.05622 0.81163 0.0
H905 H 0.93019 0.05752 0.78656 0.0
C906 C 0.55527 0.93607 0.94054 0.0
C907 C 0.5296 0.91918 0.97386 0.0
C908 C 0.49575 0.95814 0.90965 0.0
C909 C 0.52081 0.97013 0.86185 0.0
N910 N 0.57484 0.96709 0.82729 0.0
N911 N 0.47409 0.91288 0.97881 0.0
C912 C 0.55067 0.95801 0.87584 0.0
C913 C 0.49941 0.93005 0.95604 0.0
N914 N 0.58405 0.93204 0.97297 0.0
N915 N 0.46839 0.97346 0.91119 0.0
H916 H 0.47559 0.89172 1.00954 0.0
H917 H 0.45176 0.91822 0.96003 0.0
H918 H 0.46503 0.99402 0.87887 0.0
H919 H 0.45027 0.9673 0.95043 0.0
H920 H 0.60319 0.94556 0.95606 0.0
H921 H 0.58791 0.91791 1.02403 0.0
H922 H 0.59638 0.95678 0.83112 0.0
H923 H 0.57274 0.98283 0.77895 0.0
C924 C 0.63964 0.53 0.95704 0.0
C925 C 0.63686 0.55094 0.02441 0.0
C926 C 0.58707 0.56806 0.96736 0.0
C927 C 0.58944 0.5474 0.8975 0.0
N928 N 0.6181 0.50451 0.83795 0.0
N929 N 0.60444 0.58404 0.10462 0.0
C930 C 0.61581 0.52733 0.89584 0.0
C931 C 0.60922 0.56765 0.03348 0.0
N932 N 0.66587 0.51275 0.95054 0.0
N933 N 0.56521 0.59044 0.96738 0.0
H934 H 0.62082 0.5857 0.15158 0.0
H935 H 0.58343 0.59385 0.12041 0.0
H936 H 0.55232 0.5951 0.91566 0.0
H937 H 0.56249 0.60718 1.01314 0.0
H938 H 0.67287 0.50175 0.89652 0.0
H939 H 0.68152 0.51043 0.99902 0.0
H940 H 0.63269 0.48557 0.84288 0.0
H941 H 0.60453 0.50326 0.78637 0.0
C942 C 0.98805 0.62997 0.88351 0.0
C943 C 1.01245 0.63866 0.93847 0.0
C944 C 0.03917 0.59076 0.8951 0.0
C945 C 0.018 0.58618 0.82861 0.0
N946 N 0.97496 0.60619 0.75222 0.0
N947 N 0.06313 0.62747 0.991 0.0
C948 C 0.99284 0.60678 0.82154 0.0
C949 C 0.0384 0.61883 0.94362 0.0
N950 N 0.96027 0.64439 0.88974 0.0
N951 N 0.05982 0.56804 0.91267 0.0
H952 H 0.06337 0.64754 0.02724 0.0
H953 H 0.08408 0.61585 0.98973 0.0
H954 H 0.06043 0.54718 0.87965 0.0
H955 H 0.07411 0.56865 0.96439 0.0
H956 H 0.94091 0.63748 0.8557 0.0
H957 H 0.95586 0.66087 0.93552 0.0
H958 H 0.95828 0.6228 0.74 0.0
H959 H 0.97924 0.59134 0.70275 0.0
C960 C 0.98582 0.21832 0.65004 0.0
C961 C 1.01402 0.20929 0.61478 0.0
C962 C 0.99982 0.15562 0.61933 0.0
C963 C 0.96913 0.16392 0.64294 0.0
N964 N 0.93781 0.20138 0.71465 0.0
N965 N 0.05369 0.17161 0.62231 0.0
C966 C 0.96389 0.19476 0.67138 0.0
C967 C 0.02319 0.1786 0.62551 0.0
N968 N 0.97908 0.24912 0.65354 0.0
N969 N 1.00604 0.12898 0.57679 0.0
H970 H 0.07055 0.1892 0.61902 0.0
H971 H 0.0615 0.14896 0.63011 0.0
H972 H 0.98941 0.11344 0.55472 0.0
H973 H 0.02766 0.12508 0.5512 0.0
H974 H 0.9575 0.25748 0.67026 0.0
H975 H 0.99551 0.26596 0.63656 0.0
H976 H 0.93364 0.22322 0.74003 0.0
H977 H 0.9219 0.18401 0.73116 0.0
C978 C 0.39651 0.15762 0.58982 0.0
C979 C 0.36595 0.16351 0.61305 0.0
C980 C 0.36127 0.11031 0.66147 0.0
C981 C 0.38408 0.10238 0.60214 0.0
N982 N 0.426 0.12006 0.51338 0.0
N983 N 0.33524 0.15288 0.73232 0.0
C984 C 0.40368 0.12637 0.56997 0.0
C985 C 0.35386 0.14228 0.67115 0.0
N986 N 0.41584 0.18195 0.57322 0.0
N987 N 0.3463 0.08753 0.70477 0.0
H988 H 0.33095 0.17665 0.73818 0.0
H989 H 0.32612 0.13882 0.77871 0.0
H990 H 0.35273 0.06426 0.70059 0.0
H991 H 0.32777 0.09172 0.74396 0.0
H992 H 0.43872 0.17907 0.55546 0.0
H993 H 0.40872 0.20478 0.58304 0.0
H994 H 0.43715 0.13756 0.48002 0.0
H995 H 0.43155 0.09759 0.49503 0.0
C996 C 0.42945 0.38968 0.66636 0.0
C997 C 0.42721 0.35871 0.63759 0.0
C998 C 0.48281 0.35288 0.6494 0.0
C999 C 0.48609 0.38471 0.67205 0.0
N1000 N 0.46159 0.43179 0.71837 0.0
N1001 N 0.44901 0.30774 0.64997 0.0
C1002 C 0.45902 0.40255 0.68668 0.0
C1003 C 0.45296 0.33921 0.64656 0.0
N1004 N 0.40346 0.40726 0.6658 0.0
N1005 N 0.50777 0.33614 0.62462 0.0
H1006 H 0.4272 0.29732 0.65377 0.0
H1007 H 0.46719 0.29262 0.66066 0.0
H1008 H 0.52992 0.34574 0.61912 0.0
H1009 H 0.50574 0.3137 0.60037 0.0
H1010 H 0.40326 0.43119 0.67566 0.0
H1011 H 0.38187 0.3973 0.65225 0.0
H1012 H 0.44291 0.44495 0.73741 0.0
H1013 H 0.48286 0.44236 0.72887 0.0
C1014 C 0.1984 0.45178 0.53189 0.0
C1015 C 0.22171 0.45404 0.47153 0.0
C1016 C 0.22534 0.51053 0.49612 0.0
C1017 C 0.1985 0.5087 0.54506 0.0
N1018 N 0.15566 0.47775 0.59446 0.0
N1019 N 0.25366 0.48878 0.3869 0.0
C1020 C 0.18424 0.47933 0.56018 0.0
C1021 C 0.23465 0.48394 0.45225 0.0
N1022 N 0.18915 0.42329 0.56037 0.0
N1023 N 0.24036 0.53833 0.48422 0.0
H1024 H 0.25963 0.47167 0.34475 0.0
H1025 H 0.25963 0.47167 0.34475 0.0
H1026 H 0.23383 0.55889 0.51327 0.0
H1027 H 0.26009 0.54037 0.44747 0.0
H1028 H 0.17383 0.42053 0.60951 0.0
H1029 H 0.19919 0.40271 0.53995 0.0
H1030 H 0.14228 0.45739 0.59311 0.0
H1031 H 0.14412 0.49735 0.61534 0.0
C1032 C 0.89012 0.84124 0.78301 0.0
C1033 C 0.86948 0.84767 0.84776 0.0
C1034 C 0.89718 0.89575 0.874 0.0
C1035 C 0.92403 0.88058 0.84428 0.0
N1036 N 0.94476 0.84249 0.74941 0.0
N1037 N 0.84081 0.8938 0.87289 0.0
C1038 C 0.92014 0.85482 0.7895 0.0
C1039 C 0.86844 0.87977 0.86419 0.0
N1040 N 0.88205 0.82026 0.72373 0.0
N1041 N 0.89914 0.92346 0.91478 0.0
H1042 H 0.82022 0.88102 0.86668 0.0
H1043 H 0.83904 0.91782 0.87862 0.0
H1044 H 0.92 0.93546 0.92332 0.0
H1045 H 0.87998 0.93379 0.94172 0.0
H1046 H 0.89616 0.81522 0.67348 0.0
H1047 H 0.86019 0.80961 0.72434 0.0
H1048 H 0.94298 0.82271 0.71227 0.0
H1049 H 0.96709 0.85155 0.75647 0.0
C1050 C 0.67864 0.93891 0.82063 0.0
C1051 C 0.69909 0.94589 0.88654 0.0
C1052 C 0.69858 1.00115 0.84973 0.0
C1053 C 0.67411 0.99493 0.7947 0.0
N1054 N 0.64077 0.95854 0.72403 0.0
N1055 N 0.72364 0.98537 0.97377 0.0
C1056 C 0.66434 0.96386 0.77823 0.0
C1057 C 0.70821 0.97739 0.90309 0.0
N1058 N 0.67284 0.90859 0.7995 0.0
N1059 N 0.71207 0.0301 0.85305 0.0
H1060 H 0.72974 0.96964 1.01881 0.0
H1061 H 0.72731 1.00829 0.99287 0.0
H1062 H 0.70491 0.04863 0.81683 0.0
H1063 H 0.73237 0.03482 0.88564 0.0
H1064 H 0.66001 0.9018 0.74806 0.0
H1065 H 0.68285 0.89005 0.83057 0.0
H1066 H 0.63044 0.93686 0.7138 0.0
H1067 H 0.63036 0.97663 0.69246 0.0
C1068 C 0.67281 0.67323 0.92958 0.0
C1069 C 0.67952 0.70215 0.8928 0.0
C1070 C 0.63125 0.69901 0.81799 0.0
C1071 C 0.61987 0.6786 0.88026 0.0
N1072 N 0.63143 0.64202 0.98869 0.0
N1073 N 0.67754 0.72152 0.75498 0.0
C1074 C 0.64131 0.66347 0.93271 0.0
C1075 C 0.66308 0.70734 0.81936 0.0
N1076 N 0.69582 0.65771 0.96802 0.0
N1077 N 0.61168 0.7119 0.76228 0.0
H1078 H 0.70087 0.72795 0.75917 0.0
H1079 H 0.66708 0.72465 0.69776 0.0
H1080 H 0.5881 0.70669 0.76156 0.0
H1081 H 0.61871 0.72892 0.7204 0.0
H1082 H 0.69265 0.63598 0.99506 0.0
H1083 H 0.71842 0.6666 0.96778 0.0
H1084 H 0.64585 0.63241 0.03297 0.0
H1085 H 0.60829 0.63546 0.99337 0.0
C1086 C 0.84462 0.46392 0.73143 0.0
C1087 C 0.85517 0.46627 0.81454 0.0
C1088 C 0.8947 0.42842 0.78494 0.0
C1089 C 0.88889 0.43147 0.69968 0.0
N1090 N 0.8592 0.4535 0.58933 0.0
N1091 N 0.89692 0.45753 0.91105 0.0
C1092 C 0.86388 0.44945 0.67182 0.0
C1093 C 0.88198 0.45021 0.83916 0.0
N1094 N 0.81625 0.47473 0.70996 0.0
N1095 N 0.91392 0.40591 0.81315 0.0
H1096 H 0.8906 0.4762 0.94825 0.0
H1097 H 0.91799 0.44784 0.92749 0.0
H1098 H 0.92364 0.38943 0.77385 0.0
H1099 H 0.91738 0.40187 0.87586 0.0
H1100 H 0.80668 0.47144 0.65155 0.0
H1101 H 0.80107 0.48429 0.75269 0.0
H1102 H 0.84309 0.46885 0.5656 0.0
H1103 H 0.87268 0.44258 0.54479 0.0
C1104 C 1.00778 0.15113 0.85997 0.0
C1105 C 0.0375 0.16338 0.88047 0.0
C1106 C 0.06014 0.11922 0.80197 0.0
C1107 C 0.03042 0.10492 0.79137 0.0
N1108 N 0.97699 0.10493 0.83288 0.0
N1109 N 0.09256 0.15621 0.87816 0.0
C1110 C 1.00449 0.12046 0.82573 0.0
C1111 C 0.06387 0.14676 0.85264 0.0
N1112 N 0.98237 0.16891 0.87318 0.0
N1113 N 0.08497 0.1067 0.76274 0.0
H1114 H 0.09629 0.17595 0.9145 0.0
H1115 H 0.11237 0.14322 0.8687 0.0
H1116 H 0.08328 0.08664 0.72656 0.0
H1117 H 0.10657 0.11762 0.76013 0.0
H1118 H 0.96037 0.16244 0.85267 0.0
H1119 H 0.98387 0.1915 0.89673 0.0
H1120 H 0.95816 0.11362 0.86513 0.0
H1121 H 0.9742 0.08197 0.81402 0.0
C1122 C 0.38876 0.03724 0.91627 0.0
C1123 C 0.37901 0.06801 0.93308 0.0
C1124 C 0.41469 0.08682 0.82293 0.0
C1125 C 0.42534 0.05594 0.80876 0.0
N1126 N 0.40757 1.00217 0.81195 0.0
N1127 N 0.37689 0.12098 0.88648 0.0
C1128 C 0.40801 0.03116 0.84628 0.0
C1129 C 0.39032 0.09245 0.8813 0.0
N1130 N 0.38072 1.01365 0.96848 0.0
N1131 N 0.42697 0.11074 0.7779 0.0
H1132 H 0.35803 0.12523 0.92472 0.0
H1133 H 0.38244 0.13971 0.84862 0.0
H1134 H 0.43921 0.10699 0.72356 0.0
H1135 H 0.42462 0.13412 0.79304 0.0
H1136 H 0.39014 0.99152 0.96399 0.0
H1137 H 0.36682 1.01686 1.0202 0.0
H1138 H 0.394 0.98393 0.83486 0.0
H1139 H 0.41595 0.99781 0.75313 0.0
C1140 C 0.46955 0.42958 0.92721 0.0
C1141 C 0.49567 0.41273 0.95366 0.0
C1142 C 0.5288 0.45125 0.8807 0.0
C1143 C 0.50256 0.4697 0.86174 0.0
N1144 N 0.44965 0.48036 0.8961 0.0
N1145 N 0.55077 0.40843 0.95957 0.0
C1146 C 0.47338 0.45996 0.8932 0.0
C1147 C 0.52555 0.42373 0.93075 0.0
N1148 N 0.44077 0.41672 0.93675 0.0
N1149 N 0.55708 0.46101 0.854 0.0
H1150 H 0.54886 0.38778 0.99287 0.0
H1151 H 0.57345 0.41629 0.95303 0.0
H1152 H 0.55986 0.48155 0.82145 0.0
H1153 H 0.57745 0.44889 0.862 0.0
H1154 H 0.42095 0.42663 0.91228 0.0
H1155 H 0.4374 0.3945 0.96133 0.0
H1156 H 0.42836 0.47519 0.92309 0.0
H1157 H 0.45303 0.50381 0.88346 0.0
C1158 C 0.16921 0.4918 0.82515 0.0
C1159 C 0.18079 0.51768 0.87093 0.0
C1160 C 0.13691 0.54845 0.81879 0.0
C1161 C 0.12391 0.5215 0.77858 0.0
N1162 N 0.12869 0.46646 0.749 0.0
N1163 N 0.17361 0.57002 0.91865 0.0
C1164 C 0.14018 0.49298 0.78463 0.0
C1165 C 0.16431 0.546 0.8686 0.0
N1166 N 0.18572 0.46516 0.81836 0.0
N1167 N 0.12289 0.57649 0.81119 0.0
H1168 H 0.19369 0.56938 0.95407 0.0
H1169 H 0.16061 0.5898 0.92941 0.0
H1170 H 0.10117 0.57895 0.78552 0.0
H1171 H 0.13328 0.59761 0.82751 0.0
H1172 H 0.20786 0.46238 0.84253 0.0
H1173 H 0.20786 0.46238 0.84253 0.0
H1174 H 0.13906 0.44484 0.75592 0.0
H1175 H 0.11003 0.46627 0.70857 0.0
C1176 C 0.03368 0.90762 0.42159 0.0
C1177 C 0.01767 0.87974 0.44416 0.0
C1178 C 1.00373 0.90509 0.57642 0.0
C1179 C 0.02108 0.93252 0.556 0.0
N1180 N 0.04922 0.96058 0.45073 0.0
N1181 N 0.99141 0.85058 0.54955 0.0
C1182 C 0.03548 0.93365 0.4769 0.0
C1183 C 1.00383 0.87823 0.52341 0.0
N1184 N 0.04692 0.91059 0.34584 0.0
N1185 N 0.98547 0.90509 0.64471 0.0
H1186 H 0.99084 0.8306 0.51282 0.0
H1187 H 0.98427 0.84665 0.60993 0.0
H1188 H 0.98613 0.92287 0.68798 0.0
H1189 H 0.96757 0.88907 0.65362 0.0
H1190 H 0.04664 0.89312 0.30095 0.0
H1191 H 0.04664 0.89312 0.30095 0.0
H1192 H 0.06009 0.96263 0.3935 0.0
H1193 H 0.04844 0.98114 0.48471 0.0
C1194 C 0.63405 0.05277 0.45928 0.0
C1195 C 0.6494 0.02371 0.46133 0.0
C1196 C 0.60565 1.00192 0.54279 0.0
C1197 C 0.5914 0.03158 0.54643 0.0
N1198 N 0.59405 0.08624 0.51377 0.0
N1199 N 0.65238 0.9724 0.51944 0.0
C1200 C 0.60637 0.05731 0.50683 0.0
C1201 C 0.63578 0.99883 0.50716 0.0
N1202 N 0.64483 0.07559 0.40789 0.0
N1203 N 0.59049 0.97642 0.57382 0.0
H1204 H 0.6751 0.97008 0.4992 0.0
H1205 H 0.64496 0.95387 0.55576 0.0
H1206 H 0.57044 0.97775 0.60905 0.0
H1207 H 0.59714 0.95367 0.56188 0.0
H1208 H 0.63288 0.09588 0.39539 0.0
H1209 H 0.66473 0.07326 0.37237 0.0
H1210 H 0.60572 0.10656 0.49668 0.0
H1211 H 0.57271 0.09017 0.54084 0.0
C1212 C 0.5492 0.67559 0.53482 0.0
C1213 C 0.53884 0.67615 0.4519 0.0
C1214 C 0.51725 0.62295 0.47237 0.0
C1215 C 0.53119 0.6213 0.55205 0.0
N1216 N 0.56938 0.64371 0.64372 0.0
N1217 N 0.51612 0.6481 0.33783 0.0
C1218 C 0.54956 0.64701 0.57918 0.0
C1219 C 0.5234 0.64926 0.41975 0.0
N1220 N 0.55924 0.70256 0.57116 0.0
N1221 N 0.49883 0.59896 0.44576 0.0
H1222 H 0.51955 0.66699 0.29854 0.0
H1223 H 0.50849 0.62796 0.30782 0.0
H1224 H 0.49591 0.57856 0.47943 0.0
H1225 H 0.48529 0.5999 0.39275 0.0
H1226 H 0.56424 0.70413 0.63383 0.0
H1227 H 0.5591 0.72388 0.54051 0.0
H1228 H 0.58537 0.6609 0.6608 0.0
H1229 H 0.57288 0.62244 0.6723 0.0
C1230 C 0.89221 0.5355 0.54296 0.0
C1231 C 0.88991 0.53512 0.45561 0.0
C1232 C 0.94689 0.53363 0.44703 0.0
C1233 C 0.94961 0.53566 0.53465 0.0
N1234 N 0.92391 0.54704 0.66296 0.0
N1235 N 0.91555 0.54247 0.32537 0.0
C1236 C 0.92193 0.53901 0.58172 0.0
C1237 C 0.91747 0.53712 0.40824 0.0
N1238 N 0.86612 0.53169 0.58927 0.0
N1239 N 0.97191 0.52612 0.40027 0.0
H1240 H 0.89451 0.54524 0.295 0.0
H1241 H 0.93476 0.54743 0.28876 0.0
H1242 H 0.99357 0.52217 0.42514 0.0
H1243 H 0.9705 0.52075 0.33766 0.0
H1244 H 0.86651 0.52794 0.65271 0.0
H1245 H 0.84412 0.53015 0.56315 0.0
H1246 H 0.90485 0.5526 0.69902 0.0
H1247 H 0.94498 0.55133 0.69189 0.0
loop_
_geom_bond_atom_site_label_1
_geom_bond_atom_site_label_2
_geom_bond_distance
_geom_bond_site_symmetry_2
_ccdc_geom_bond_type
C0 C1 1.391 . S
C0 C4 1.391 . S
C0 H42 0.948 . S
C1 C0 1.391 . S
C1 C2 1.391 . S
C2 C1 1.391 . S
C2 H58 0.947 . S
C2 C59 1.392 . S
C3 C4 1.391 . S
C3 C7 1.397 . S
C3 C59 1.419 . S
C4 C0 1.391 . S
C4 C3 1.391 . S
C4 C5 1.399 . S
C5 C4 1.399 . S
C5 C8 1.396 . S
C5 C17 1.453 . S
C5 C18 1.684 . S
H6 C30 0.948 . S
C7 C3 1.397 . S
C7 C8 1.394 . S
C7 C26 1.723 . S
C8 C5 1.396 . S
C8 C7 1.394 . S
C8 C38 1.723 . S
H9 C32 0.947 . S
H10 C33 0.948 . S
H11 C39 0.982 . S
H12 C40 0.979 . S
H13 C40 0.980 . S
H14 C40 0.983 . S
H15 C39 0.979 . S
H16 C39 0.977 . S
C17 C5 1.453 . S
C17 H46 0.982 . S
C17 H47 0.979 . S
C17 H48 0.977 . S
C18 C5 1.684 . S
C18 H43 0.979 . S
C18 H44 0.980 . S
C18 H45 0.983 . S
C19 C20 1.391 . S
C19 C24 1.391 . S
C19 H49 0.948 . S
C20 C19 1.391 . S
C20 C21 1.391 . S
C21 C20 1.391 . S
C21 C22 1.392 . S
C21 H50 0.947 1_554 S
C22 C21 1.392 . S
C22 C23 1.419 . S
C22 H51 0.948 . S
C23 C22 1.419 . S
C23 C24 1.391 . S
C23 C27 1.397 . S
C24 C19 1.391 . S
C24 C23 1.391 . S
C24 C25 1.399 . S
C25 C24 1.399 . S
C25 C26 1.396 . S
C25 C28 1.453 . S
C25 C29 1.684 . S
C26 C7 1.723 . S
C26 C25 1.396 . S
C26 C27 1.394 . S
C27 C23 1.397 . S
C27 C26 1.394 . S
C27 C37 1.723 . S
C28 C25 1.453 . S
C28 H52 0.982 . S
C28 H53 0.979 . S
C28 H54 0.977 . S
C29 C25 1.684 . S
C29 H55 0.979 . S
C29 H56 0.980 . S
C29 H57 0.983 . S
C30 H6 0.948 . S
C30 C31 1.391 . S
C30 C35 1.391 . S
C31 C30 1.391 . S
C31 C32 1.391 . S
C32 H9 0.947 . S
C32 C31 1.391 . S
C32 C33 1.392 . S
C33 H10 0.948 . S
C33 C32 1.392 . S
C33 C34 1.419 . S
C34 C33 1.419 . S
C34 C35 1.391 . S
C34 C38 1.397 . S
C35 C30 1.391 . S
C35 C34 1.391 . S
C35 C36 1.399 . S
C36 C35 1.399 . S
C36 C37 1.396 . S
C36 C39 1.453 . S
C36 C40 1.684 . S
C37 C27 1.723 . S
C37 C36 1.396 . S
C37 C38 1.394 . S
C38 C8 1.723 . S
C38 C34 1.397 . S
C38 C37 1.394 . S
C39 H11 0.982 . S
C39 H15 0.979 . S
C39 H16 0.977 . S
C39 C36 1.453 . S
C40 H12 0.979 . S
C40 H13 0.980 . S
C40 H14 0.983 . S
C40 C36 1.684 . S
H41 C59 0.948 . S
H42 C0 0.948 . S
H43 C18 0.979 . S
H44 C18 0.980 . S
H45 C18 0.983 . S
H46 C17 0.982 . S
H47 C17 0.979 . S
H48 C17 0.977 . S
H49 C19 0.948 . S
H50 C21 0.947 1_556 S
H51 C22 0.948 . S
H52 C28 0.982 . S
H53 C28 0.979 . S
H54 C28 0.977 . S
H55 C29 0.979 . S
H56 C29 0.980 . S
H57 C29 0.983 . S
H58 C2 0.947 . S
C59 C2 1.392 . S
C59 C3 1.419 . S
C59 H41 0.948 . S
C60 C61 1.391 . S
C60 C64 1.391 . S
C60 H102 0.948 . S
C61 C60 1.391 . S
C61 C62 1.391 . S
C62 C61 1.391 . S
C62 H118 0.947 . S
C62 C119 1.392 . S
C63 C64 1.391 . S
C63 C67 1.397 . S
C63 C119 1.419 . S
C64 C60 1.391 . S
C64 C63 1.391 . S
C64 C65 1.399 . S
C65 C64 1.399 . S
C65 C68 1.396 . S
C65 C77 1.453 . S
C65 C78 1.684 . S
H66 C90 0.948 . S
C67 C63 1.397 . S
C67 C68 1.394 . S
C67 C86 1.723 . S
C68 C65 1.396 . S
C68 C67 1.394 . S
C68 C98 1.723 . S
H69 C92 0.947 . S
H70 C93 0.948 . S
H71 C99 0.982 1_455 S
H72 C100 0.979 . S
H73 C100 0.980 . S
H74 C100 0.983 . S
H75 C99 0.979 . S
H76 C99 0.977 . S
C77 C65 1.453 . S
C77 H106 0.982 1_655 S
C77 H107 0.979 . S
C77 H108 0.977 . S
C78 C65 1.684 . S
C78 H103 0.979 . S
C78 H104 0.980 . S
C78 H105 0.983 . S
C79 C80 1.391 . S
C79 C84 1.391 . S
C79 H109 0.948 . S
C80 C79 1.391 . S
C80 C81 1.391 . S
C81 C80 1.391 . S
C81 C82 1.392 . S
C81 H110 0.947 . S
C82 C81 1.392 . S
C82 C83 1.419 . S
C82 H111 0.948 . S
C83 C82 1.419 . S
C83 C84 1.391 . S
C83 C87 1.397 . S
C84 C79 1.391 . S
C84 C83 1.391 . S
C84 C85 1.399 . S
C85 C84 1.399 . S
C85 C86 1.396 . S
C85 C88 1.453 . S
C85 C89 1.684 . S
C86 C67 1.723 . S
C86 C85 1.396 . S
C86 C87 1.394 . S
C87 C83 1.397 . S
C87 C86 1.394 . S
C87 C97 1.723 . S
C88 C85 1.453 . S
C88 H112 0.982 1_655 S
C88 H113 0.979 . S
C88 H114 0.977 . S
C89 C85 1.684 . S
C89 H115 0.979 . S
C89 H116 0.980 . S
C89 H117 0.983 . S
C90 H66 0.948 . S
C90 C91 1.391 . S
C90 C95 1.391 . S
C91 C90 1.391 . S
C91 C92 1.391 . S
C92 H69 0.947 . S
C92 C91 1.391 . S
C92 C93 1.392 . S
C93 H70 0.948 . S
C93 C92 1.392 . S
C93 C94 1.419 . S
C94 C93 1.419 . S
C94 C95 1.391 . S
C94 C98 1.397 . S
C95 C90 1.391 . S
C95 C94 1.391 . S
C95 C96 1.399 . S
C96 C95 1.399 . S
C96 C97 1.396 . S
C96 C99 1.453 . S
C96 C100 1.684 . S
C97 C87 1.723 . S
C97 C96 1.396 . S
C97 C98 1.394 . S
C98 C68 1.723 . S
C98 C94 1.397 . S
C98 C97 1.394 . S
C99 H71 0.982 1_655 S
C99 H75 0.979 . S
C99 H76 0.977 . S
C99 C96 1.453 . S
C100 H72 0.979 . S
C100 H73 0.980 . S
C100 H74 0.983 . S
C100 C96 1.684 . S
H101 C119 0.948 . S
H102 C60 0.948 . S
H103 C78 0.979 . S
H104 C78 0.980 . S
H105 C78 0.983 . S
H106 C77 0.982 1_455 S
H107 C77 0.979 . S
H108 C77 0.977 . S
H109 C79 0.948 . S
H110 C81 0.947 . S
H111 C82 0.948 . S
H112 C88 0.982 1_455 S
H113 C88 0.979 . S
H114 C88 0.977 . S
H115 C89 0.979 . S
H116 C89 0.980 . S
H117 C89 0.983 . S
H118 C62 0.947 . S
C119 C62 1.392 . S
C119 C63 1.419 . S
C119 H101 0.948 . S
C120 C121 1.391 . S
C120 C124 1.391 . S
C120 H162 0.948 . S
C121 C120 1.391 . S
C121 C122 1.391 . S
C122 C121 1.391 . S
C122 H178 0.947 . S
C122 C179 1.392 . S
C123 C124 1.391 . S
C123 C127 1.397 . S
C123 C179 1.419 . S
C124 C120 1.391 . S
C124 C123 1.391 . S
C124 C125 1.399 . S
C125 C124 1.399 . S
C125 C128 1.396 . S
C125 C137 1.453 . S
C125 C138 1.684 . S
H126 C150 0.948 . S
C127 C123 1.397 . S
C127 C128 1.394 . S
C127 C146 1.723 . S
C128 C125 1.396 . S
C128 C127 1.394 . S
C128 C158 1.723 . S
H129 C152 0.947 . S
H130 C153 0.948 . S
H131 C159 0.982 1_545 S
H132 C160 0.979 . S
H133 C160 0.980 . S
H134 C160 0.983 . S
H135 C159 0.979 . S
H136 C159 0.977 . S
C137 C125 1.453 . S
C137 H166 0.982 1_565 S
C137 H167 0.979 . S
C137 H168 0.977 . S
C138 C125 1.684 . S
C138 H163 0.979 . S
C138 H164 0.980 . S
C138 H165 0.983 . S
C139 C140 1.391 . S
C139 C144 1.391 . S
C139 H169 0.948 . S
C140 C139 1.391 . S
C140 C141 1.391 . S
C141 C140 1.391 . S
C141 C142 1.392 . S
C141 H170 0.947 . S
C142 C141 1.392 . S
C142 C143 1.419 . S
C142 H171 0.948 . S
C143 C142 1.419 . S
C143 C144 1.391 . S
C143 C147 1.397 . S
C144 C139 1.391 . S
C144 C143 1.391 . S
C144 C145 1.399 . S
C145 C144 1.399 . S
C145 C146 1.396 . S
C145 C148 1.453 . S
C145 C149 1.684 . S
C146 C127 1.723 . S
C146 C145 1.396 . S
C146 C147 1.394 . S
C147 C143 1.397 . S
C147 C146 1.394 . S
C147 C157 1.723 . S
C148 C145 1.453 . S
C148 H172 0.982 1_565 S
C148 H173 0.979 . S
C148 H174 0.977 . S
C149 C145 1.684 . S
C149 H175 0.979 . S
C149 H176 0.980 . S
C149 H177 0.983 . S
C150 H126 0.948 . S
C150 C151 1.391 . S
C150 C155 1.391 . S
C151 C150 1.391 . S
C151 C152 1.391 . S
C152 H129 0.947 . S
C152 C151 1.391 . S
C152 C153 1.392 . S
C153 H130 0.948 . S
C153 C152 1.392 . S
C153 C154 1.419 . S
C154 C153 1.419 . S
C154 C155 1.391 . S
C154 C158 1.397 . S
C155 C150 1.391 . S
C155 C154 1.391 . S
C155 C156 1.399 . S
C156 C155 1.399 . S
C156 C157 1.396 . S
C156 C159 1.453 . S
C156 C160 1.684 . S
C157 C147 1.723 . S
C157 C156 1.396 . S
C157 C158 1.394 . S
C158 C128 1.723 . S
C158 C154 1.397 . S
C158 C157 1.394 . S
C159 H131 0.982 1_565 S
C159 H135 0.979 . S
C159 H136 0.977 . S
C159 C156 1.453 . S
C160 H132 0.979 . S
C160 H133 0.980 . S
C160 H134 0.983 . S
C160 C156 1.684 . S
H161 C179 0.948 . S
H162 C120 0.948 . S
H163 C138 0.979 . S
H164 C138 0.980 . S
H165 C138 0.983 . S
H166 C137 0.982 1_545 S
H167 C137 0.979 . S
H168 C137 0.977 . S
H169 C139 0.948 . S
H170 C141 0.947 . S
H171 C142 0.948 . S
H172 C148 0.982 1_545 S
H173 C148 0.979 . S
H174 C148 0.977 . S
H175 C149 0.979 . S
H176 C149 0.980 . S
H177 C149 0.983 . S
H178 C122 0.947 . S
C179 C122 1.392 . S
C179 C123 1.419 . S
C179 H161 0.948 . S
C180 C181 1.391 . S
C180 C184 1.391 . S
C180 H222 0.948 . S
C181 C180 1.391 . S
C181 C182 1.391 . S
C182 C181 1.391 . S
C182 H238 0.947 . S
C182 C239 1.392 . S
C183 C184 1.391 . S
C183 C187 1.397 . S
C183 C239 1.419 . S
C184 C180 1.391 . S
C184 C183 1.391 . S
C184 C185 1.399 . S
C185 C184 1.399 . S
C185 C188 1.396 . S
C185 C197 1.453 . S
C185 C198 1.684 . S
H186 C210 0.948 . S
C187 C183 1.397 . S
C187 C188 1.394 . S
C187 C206 1.723 . S
C188 C185 1.396 . S
C188 C187 1.394 . S
C188 C218 1.723 . S
H189 C212 0.947 . S
H190 C213 0.948 . S
H191 C219 0.982 . S
H192 C220 0.979 . S
H193 C220 0.980 . S
H194 C220 0.983 . S
H195 C219 0.979 . S
H196 C219 0.977 . S
C197 C185 1.453 . S
C197 H226 0.982 . S
C197 H227 0.979 . S
C197 H228 0.977 . S
C198 C185 1.684 . S
C198 H223 0.979 . S
C198 H224 0.980 . S
C198 H225 0.983 . S
C199 C200 1.391 . S
C199 C204 1.391 . S
C199 H229 0.948 . S
C200 C199 1.391 . S
C200 C201 1.391 . S
C201 C200 1.391 . S
C201 C202 1.392 . S
C201 H230 0.947 1_554 S
C202 C201 1.392 . S
C202 C203 1.419 . S
C202 H231 0.948 . S
C203 C202 1.419 . S
C203 C204 1.391 . S
C203 C207 1.397 . S
C204 C199 1.391 . S
C204 C203 1.391 . S
C204 C205 1.399 . S
C205 C204 1.399 . S
C205 C206 1.396 . S
C205 C208 1.453 . S
C205 C209 1.684 . S
C206 C187 1.723 . S
C206 C205 1.396 . S
C206 C207 1.394 . S
C207 C203 1.397 . S
C207 C206 1.394 . S
C207 C217 1.723 . S
C208 C205 1.453 . S
C208 H232 0.982 . S
C208 H233 0.979 . S
C208 H234 0.977 . S
C209 C205 1.684 . S
C209 H235 0.979 . S
C209 H236 0.980 . S
C209 H237 0.983 . S
C210 H186 0.948 . S
C210 C211 1.391 . S
C210 C215 1.391 . S
C211 C210 1.391 . S
C211 C212 1.391 . S
C212 H189 0.947 . S
C212 C211 1.391 . S
C212 C213 1.392 . S
C213 H190 0.948 . S
C213 C212 1.392 . S
C213 C214 1.419 . S
C214 C213 1.419 . S
C214 C215 1.391 . S
C214 C218 1.397 . S
C215 C210 1.391 . S
C215 C214 1.391 . S
C215 C216 1.399 . S
C216 C215 1.399 . S
C216 C217 1.396 . S
C216 C219 1.453 . S
C216 C220 1.684 . S
C217 C207 1.723 . S
C217 C216 1.396 . S
C217 C218 1.394 . S
C218 C188 1.723 . S
C218 C214 1.397 . S
C218 C217 1.394 . S
C219 H191 0.982 . S
C219 H195 0.979 . S
C219 H196 0.977 . S
C219 C216 1.453 . S
C220 H192 0.979 . S
C220 H193 0.980 . S
C220 H194 0.983 . S
C220 C216 1.684 . S
H221 C239 0.948 . S
H222 C180 0.948 . S
H223 C198 0.979 . S
H224 C198 0.980 . S
H225 C198 0.983 . S
H226 C197 0.982 . S
H227 C197 0.979 . S
H228 C197 0.977 . S
H229 C199 0.948 . S
H230 C201 0.947 1_556 S
H231 C202 0.948 . S
H232 C208 0.982 . S
H233 C208 0.979 . S
H234 C208 0.977 . S
H235 C209 0.979 . S
H236 C209 0.980 . S
H237 C209 0.983 . S
H238 C182 0.947 . S
C239 C182 1.392 . S
C239 C183 1.419 . S
C239 H221 0.948 . S
C240 C241 1.391 . S
C240 C244 1.391 . S
C240 H282 0.948 . S
C241 C240 1.391 . S
C241 C242 1.391 . S
C242 C241 1.391 . S
C242 H298 0.947 . S
C242 C299 1.392 . S
C243 C244 1.391 . S
C243 C247 1.397 . S
C243 C299 1.419 . S
C244 C240 1.391 . S
C244 C243 1.391 . S
C244 C245 1.399 1_554 S
C245 C244 1.399 1_556 S
C245 C248 1.396 . S
C245 C257 1.453 . S
C245 C258 1.684 . S
H246 C270 0.948 . S
C247 C243 1.397 . S
C247 C248 1.394 1_554 S
C247 C266 1.723 . S
C248 C245 1.396 . S
C248 C247 1.394 1_556 S
C248 C278 1.723 . S
H249 C272 0.947 . S
H250 C273 0.948 . S
H251 C279 0.982 . S
H252 C280 0.979 . S
H253 C280 0.980 . S
H254 C280 0.983 . S
H255 C279 0.979 . S
H256 C279 0.976 . S
C257 C245 1.453 . S
C257 H286 0.982 . S
C257 H287 0.979 . S
C257 H288 0.977 . S
C258 C245 1.684 . S
C258 H283 0.979 . S
C258 H284 0.980 . S
C258 H285 0.983 . S
C259 C260 1.391 . S
C259 C264 1.391 . S
C259 H289 0.948 . S
C260 C259 1.391 . S
C260 C261 1.391 . S
C261 C260 1.391 . S
C261 C262 1.392 . S
C261 H290 0.947 . S
C262 C261 1.392 . S
C262 C263 1.419 . S
C262 H291 0.948 . S
C263 C262 1.419 . S
C263 C264 1.391 . S
C263 C267 1.397 . S
C264 C259 1.391 . S
C264 C263 1.391 . S
C264 C265 1.399 . S
C265 C264 1.399 . S
C265 C266 1.396 . S
C265 C268 1.453 . S
C265 C269 1.684 . S
C266 C247 1.723 . S
C266 C265 1.396 . S
C266 C267 1.394 . S
C267 C263 1.397 . S
C267 C266 1.394 . S
C267 C277 1.723 1_554 S
C268 C265 1.453 . S
C268 H292 0.982 . S
C268 H293 0.979 . S
C268 H294 0.977 . S
C269 C265 1.684 . S
C269 H295 0.979 . S
C269 H296 0.980 . S
C269 H297 0.983 . S
C270 H246 0.948 . S
C270 C271 1.391 . S
C270 C275 1.391 . S
C271 C270 1.391 . S
C271 C272 1.391 . S
C272 H249 0.947 . S
C272 C271 1.391 . S
C272 C273 1.392 . S
C273 H250 0.948 . S
C273 C272 1.392 . S
C273 C274 1.419 . S
C274 C273 1.419 . S
C274 C275 1.391 . S
C274 C278 1.397 . S
C275 C270 1.391 . S
C275 C274 1.391 . S
C275 C276 1.399 . S
C276 C275 1.399 . S
C276 C277 1.396 . S
C276 C279 1.453 . S
C276 C280 1.684 . S
C277 C267 1.723 1_556 S
C277 C276 1.396 . S
C277 C278 1.394 . S
C278 C248 1.723 . S
C278 C274 1.397 . S
C278 C277 1.394 . S
C279 H251 0.982 . S
C279 H255 0.979 . S
C279 H256 0.976 . S
C279 C276 1.453 . S
C280 H252 0.979 . S
C280 H253 0.980 . S
C280 H254 0.983 . S
C280 C276 1.684 . S
H281 C299 0.948 . S
H282 C240 0.948 . S
H283 C258 0.979 . S
H284 C258 0.980 . S
H285 C258 0.983 . S
H286 C257 0.982 . S
H287 C257 0.979 . S
H288 C257 0.977 . S
H289 C259 0.948 . S
H290 C261 0.947 . S
H291 C262 0.948 . S
H292 C268 0.982 . S
H293 C268 0.979 . S
H294 C268 0.977 . S
H295 C269 0.979 . S
H296 C269 0.980 . S
H297 C269 0.983 . S
H298 C242 0.947 . S
C299 C242 1.392 . S
C299 C243 1.419 . S
C299 H281 0.948 . S
C300 C301 1.391 . S
C300 C304 1.391 . S
C300 H342 0.948 . S
C301 C300 1.391 . S
C301 C302 1.391 . S
C302 C301 1.391 . S
C302 H358 0.947 . S
C302 C359 1.392 . S
C303 C304 1.391 . S
C303 C307 1.397 . S
C303 C359 1.419 . S
C304 C300 1.391 . S
C304 C303 1.391 . S
C304 C305 1.399 . S
C305 C304 1.399 . S
C305 C308 1.396 . S
C305 C317 1.453 . S
C305 C318 1.684 . S
H306 C330 0.948 . S
C307 C303 1.397 . S
C307 C308 1.394 . S
C307 C326 1.723 1_554 S
C308 C305 1.396 . S
C308 C307 1.394 . S
C308 C338 1.723 . S
H309 C332 0.947 . S
H310 C333 0.948 . S
H311 C339 0.982 . S
H312 C340 0.979 1_655 S
H313 C340 0.980 . S
H314 C340 0.983 . S
H315 C339 0.979 . S
H316 C339 0.977 . S
C317 C305 1.453 . S
C317 H346 0.982 . S
C317 H347 0.979 . S
C317 H348 0.977 . S
C318 C305 1.684 . S
C318 H343 0.979 1_455 S
C318 H344 0.980 . S
C318 H345 0.983 . S
C319 C320 1.391 . S
C319 C324 1.391 . S
C319 H349 0.948 . S
C320 C319 1.391 . S
C320 C321 1.391 . S
C321 C320 1.391 . S
C321 C322 1.392 . S
C321 H350 0.947 . S
C322 C321 1.392 . S
C322 C323 1.419 . S
C322 H351 0.948 . S
C323 C322 1.419 . S
C323 C324 1.391 . S
C323 C327 1.397 . S
C324 C319 1.391 . S
C324 C323 1.391 . S
C324 C325 1.399 . S
C325 C324 1.399 . S
C325 C326 1.396 . S
C325 C328 1.453 . S
C325 C329 1.684 . S
C326 C307 1.723 1_556 S
C326 C325 1.396 . S
C326 C327 1.394 . S
C327 C323 1.397 . S
C327 C326 1.394 . S
C327 C337 1.723 . S
C328 C325 1.453 . S
C328 H352 0.982 . S
C328 H353 0.979 . S
C328 H354 0.977 1_556 S
C329 C325 1.684 . S
C329 H355 0.979 1_455 S
C329 H356 0.993 . S
C329 H357 0.983 . S
C330 H306 0.948 . S
C330 C331 1.391 . S
C330 C335 1.391 . S
C331 C330 1.391 . S
C331 C332 1.391 . S
C332 H309 0.947 . S
C332 C331 1.391 . S
C332 C333 1.392 . S
C333 H310 0.948 . S
C333 C332 1.392 . S
C333 C334 1.419 . S
C334 C333 1.419 . S
C334 C335 1.391 . S
C334 C338 1.397 . S
C335 C330 1.391 . S
C335 C334 1.391 . S
C335 C336 1.399 1_554 S
C336 C335 1.399 1_556 S
C336 C337 1.396 . S
C336 C339 1.453 . S
C336 C340 1.684 . S
C337 C327 1.723 . S
C337 C336 1.396 . S
C337 C338 1.394 1_556 S
C338 C308 1.723 . S
C338 C334 1.397 . S
C338 C337 1.394 1_554 S
C339 H311 0.982 . S
C339 H315 0.979 . S
C339 H316 0.977 . S
C339 C336 1.453 . S
C340 H312 0.979 1_455 S
C340 H313 0.980 . S
C340 H314 0.983 . S
C340 C336 1.684 . S
H341 C359 0.948 . S
H342 C300 0.948 . S
H343 C318 0.979 1_655 S
H344 C318 0.980 . S
H345 C318 0.983 . S
H346 C317 0.982 . S
H347 C317 0.979 . S
H348 C317 0.977 . S
H349 C319 0.948 . S
H350 C321 0.947 . S
H351 C322 0.948 . S
H352 C328 0.982 . S
H353 C328 0.979 . S
H354 C328 0.977 1_554 S
H355 C329 0.979 1_655 S
H356 C329 0.993 . S
H357 C329 0.983 . S
H358 C302 0.947 . S
C359 C302 1.392 . S
C359 C303 1.419 . S
C359 H341 0.948 . S
C360 C361 1.391 . S
C360 C364 1.391 . S
C360 H402 0.948 . S
C361 C360 1.391 . S
C361 C362 1.391 . S
C362 C361 1.391 . S
C362 H418 0.947 . S
C362 C419 1.392 . S
C363 C364 1.391 . S
C363 C367 1.397 . S
C363 C419 1.419 . S
C364 C360 1.391 . S
C364 C363 1.391 . S
C364 C365 1.399 . S
C365 C364 1.399 . S
C365 C368 1.396 . S
C365 C377 1.453 . S
C365 C378 1.684 . S
H366 C390 0.948 . S
C367 C363 1.397 . S
C367 C368 1.394 . S
C367 C386 1.723 1_556 S
C368 C365 1.396 . S
C368 C367 1.394 . S
C368 C398 1.723 1_556 S
H369 C392 0.947 1_556 S
H370 C393 0.947 1_556 S
H371 C399 0.982 . S
H372 C400 0.979 . S
H373 C400 0.980 . S
H374 C400 0.983 . S
H375 C399 0.979 . S
H376 C399 0.977 . S
C377 C365 1.453 . S
C377 H406 0.982 . S
C377 H407 0.979 . S
C377 H408 0.977 . S
C378 C365 1.684 . S
C378 H403 0.979 . S
C378 H404 0.980 . S
C378 H405 0.983 . S
C379 C380 1.391 . S
C379 C384 1.391 . S
C379 H409 0.948 . S
C380 C379 1.391 . S
C380 C381 1.391 . S
C381 C380 1.391 . S
C381 C382 1.392 . S
C381 H410 0.947 . S
C382 C381 1.392 . S
C382 C383 1.419 . S
C382 H411 0.948 . S
C383 C382 1.419 . S
C383 C384 1.391 . S
C383 C387 1.397 . S
C384 C379 1.391 . S
C384 C383 1.391 . S
C384 C385 1.399 . S
C385 C384 1.399 . S
C385 C386 1.396 . S
C385 C388 1.453 . S
C385 C389 1.684 . S
C386 C367 1.723 1_554 S
C386 C385 1.396 . S
C386 C387 1.394 . S
C387 C383 1.397 . S
C387 C386 1.394 . S
C387 C397 1.723 . S
C388 C385 1.453 . S
C388 H412 0.982 . S
C388 H413 0.979 . S
C388 H414 0.977 1_554 S
C389 C385 1.684 . S
C389 H415 0.979 . S
C389 H416 0.980 1_554 S
C389 H417 0.983 . S
C390 H366 0.948 . S
C390 C391 1.391 . S
C390 C395 1.391 . S
C391 C390 1.391 . S
C391 C392 1.391 . S
C392 H369 0.947 1_554 S
C392 C391 1.391 . S
C392 C393 1.392 . S
C393 H370 0.947 1_554 S
C393 C392 1.392 . S
C393 C394 1.419 . S
C394 C393 1.419 . S
C394 C395 1.391 . S
C394 C398 1.397 . S
C395 C390 1.391 . S
C395 C394 1.391 . S
C395 C396 1.399 . S
C396 C395 1.399 . S
C396 C397 1.396 . S
C396 C399 1.453 . S
C396 C400 1.684 . S
C397 C387 1.723 . S
C397 C396 1.396 . S
C397 C398 1.394 . S
C398 C368 1.723 1_554 S
C398 C394 1.397 . S
C398 C397 1.394 . S
C399 H371 0.982 . S
C399 H375 0.979 . S
C399 H376 0.977 . S
C399 C396 1.453 . S
C400 H372 0.979 . S
C400 H373 0.980 . S
C400 H374 0.983 . S
C400 C396 1.684 . S
H401 C419 0.948 . S
H402 C360 0.948 . S
H403 C378 0.979 . S
H404 C378 0.980 . S
H405 C378 0.983 . S
H406 C377 0.982 . S
H407 C377 0.979 . S
H408 C377 0.977 . S
H409 C379 0.948 . S
H410 C381 0.947 . S
H411 C382 0.948 . S
H412 C388 0.982 . S
H413 C388 0.979 . S
H414 C388 0.977 1_556 S
H415 C389 0.979 . S
H416 C389 0.980 1_556 S
H417 C389 0.983 . S
H418 C362 0.947 . S
C419 C362 1.392 . S
C419 C363 1.419 . S
C419 H401 0.948 . S
C420 C421 1.391 . S
C420 C424 1.391 . S
C420 H462 0.948 . S
C421 C420 1.391 . S
C421 C422 1.391 . S
C422 C421 1.391 . S
C422 H478 0.947 . S
C422 C479 1.392 . S
C423 C424 1.391 . S
C423 C427 1.397 . S
C423 C479 1.419 . S
C424 C420 1.391 . S
C424 C423 1.391 . S
C424 C425 1.399 . S
C425 C424 1.399 . S
C425 C428 1.396 . S
C425 C437 1.453 . S
C425 C438 1.684 . S
H426 C450 0.948 . S
C427 C423 1.397 . S
C427 C428 1.394 . S
C427 C446 1.723 1_556 S
C428 C425 1.396 . S
C428 C427 1.394 . S
C428 C458 1.723 1_556 S
H429 C452 0.947 1_556 S
H430 C453 0.948 . S
H431 C459 0.982 . S
H432 C460 0.979 . S
H433 C460 0.980 . S
H434 C460 0.983 . S
H435 C459 0.979 . S
H436 C459 0.977 . S
C437 C425 1.453 . S
C437 H466 0.982 . S
C437 H467 0.979 . S
C437 H468 0.977 . S
C438 C425 1.684 . S
C438 H463 0.979 . S
C438 H464 0.980 . S
C438 H465 0.983 . S
C439 C440 1.391 . S
C439 C444 1.391 . S
C439 H469 0.948 . S
C440 C439 1.391 . S
C440 C441 1.391 . S
C441 C440 1.391 . S
C441 C442 1.392 . S
C441 H470 0.947 . S
C442 C441 1.392 . S
C442 C443 1.419 . S
C442 H471 0.948 . S
C443 C442 1.419 . S
C443 C444 1.391 . S
C443 C447 1.397 . S
C444 C439 1.391 . S
C444 C443 1.391 . S
C444 C445 1.399 . S
C445 C444 1.399 . S
C445 C446 1.396 . S
C445 C448 1.453 . S
C445 C449 1.684 . S
C446 C427 1.723 1_554 S
C446 C445 1.396 . S
C446 C447 1.394 . S
C447 C443 1.397 . S
C447 C446 1.394 . S
C447 C457 1.723 . S
C448 C445 1.453 . S
C448 H472 0.982 . S
C448 H473 0.979 . S
C448 H474 0.977 1_554 S
C449 C445 1.684 . S
C449 H475 0.979 . S
C449 H476 0.980 1_554 S
C449 H477 0.983 . S
C450 H426 0.948 . S
C450 C451 1.391 . S
C450 C455 1.391 . S
C451 C450 1.391 . S
C451 C452 1.391 . S
C452 H429 0.947 1_554 S
C452 C451 1.391 . S
C452 C453 1.392 1_554 S
C453 H430 0.948 . S
C453 C452 1.392 1_556 S
C453 C454 1.419 1_556 S
C454 C453 1.419 1_554 S
C454 C455 1.391 . S
C454 C458 1.397 . S
C455 C450 1.391 . S
C455 C454 1.391 . S
C455 C456 1.399 . S
C456 C455 1.399 . S
C456 C457 1.396 . S
C456 C459 1.453 . S
C456 C460 1.684 . S
C457 C447 1.723 . S
C457 C456 1.396 . S
C457 C458 1.394 . S
C458 C428 1.723 1_554 S
C458 C454 1.397 . S
C458 C457 1.394 . S
C459 H431 0.982 . S
C459 H435 0.979 . S
C459 H436 0.977 . S
C459 C456 1.453 . S
C460 H432 0.979 . S
C460 H433 0.980 . S
C460 H434 0.983 . S
C460 C456 1.684 . S
H461 C479 0.948 . S
H462 C420 0.948 . S
H463 C438 0.979 . S
H464 C438 0.980 . S
H465 C438 0.983 . S
H466 C437 0.982 . S
H467 C437 0.979 . S
H468 C437 0.977 . S
H469 C439 0.948 . S
H470 C441 0.947 . S
H471 C442 0.948 . S
H472 C448 0.982 . S
H473 C448 0.979 . S
H474 C448 0.977 1_556 S
H475 C449 0.979 . S
H476 C449 0.980 1_556 S
H477 C449 0.983 . S
H478 C422 0.947 . S
C479 C422 1.392 . S
C479 C423 1.419 . S
C479 H461 0.948 . S
C480 C482 1.422 . S
C480 C484 1.415 . S
C480 N486 1.369 . S
C481 C482 1.421 . S
C481 C483 1.417 1_556 S
C481 C493 1.422 1_556 S
C482 C480 1.422 . S
C482 C481 1.421 . S
C482 N492 1.359 . S
C483 C481 1.417 1_554 S
C483 C485 1.329 1_554 S
C483 H502 0.930 . S
C484 C480 1.415 . S
C484 C485 1.437 . S
C484 C488 1.413 . S
C485 C483 1.329 1_556 S
C485 C484 1.437 . S
C485 H507 0.929 . S
N486 C480 1.369 . S
N486 C487 1.338 1_545 S
N486 Gd491 2.622 1_545 S
C487 N486 1.338 1_565 S
C487 C489 1.378 1_565 S
C487 H499 0.929 . S
C488 C484 1.413 . S
C488 C489 1.348 . S
C488 H504 0.931 . S
C489 C487 1.378 1_545 S
C489 C488 1.348 . S
C489 H505 0.930 . S
Gd490 N510 2.622 . S
Gd490 N517 2.570 . S
Gd490 O524 2.353 1_655 S
Gd490 O525 2.468 . S
Gd490 O526 2.427 . S
Gd490 O528 2.388 . S
Gd490 O529 2.386 1_545 S
Gd490 O533 2.307 1_655 S
Gd490 C543 2.805 . S
Gd491 N486 2.622 1_565 S
Gd491 N492 2.570 1_565 S
Gd491 O523 2.386 1_565 S
Gd491 O527 2.305 1_465 S
Gd491 O530 2.353 . S
Gd491 O531 2.468 . S
Gd491 O532 2.427 . S
Gd491 O534 2.388 . S
Gd491 C555 2.805 . S
N492 C482 1.359 . S
N492 Gd491 2.570 1_545 S
N492 C494 1.343 . S
C493 C481 1.422 1_554 S
C493 C495 1.321 . S
C493 H501 0.931 . S
C494 N492 1.343 . S
C494 C495 1.390 1_556 S
C494 H496 0.931 . S
C495 C493 1.321 . S
C495 C494 1.390 1_554 S
C495 H497 0.930 . S
H496 C494 0.931 . S
H497 C495 0.930 . S
H498 C521 0.931 1_455 S
H499 C487 0.929 . S
H500 C522 0.930 1_455 S
H501 C493 0.931 . S
H502 C483 0.930 . S
H503 C512 0.929 . S
H504 C488 0.931 . S
H505 C489 0.930 . S
H506 C544 0.930 . S
H507 C485 0.929 . S
H508 C513 0.931 . S
H509 C514 0.930 . S
N510 Gd490 2.622 . S
N510 C511 1.355 1_545 S
N510 C512 1.338 . S
C511 N510 1.355 1_565 S
C511 C515 1.427 . S
C511 C518 1.426 . S
C512 H503 0.929 . S
C512 N510 1.338 . S
C512 C514 1.378 . S
C513 H508 0.931 . S
C513 C514 1.348 1_565 S
C513 C515 1.413 . S
C514 H509 0.930 . S
C514 C512 1.378 . S
C514 C513 1.348 1_545 S
C515 C511 1.427 . S
C515 C513 1.413 . S
C515 C545 1.437 . S
H516 C545 0.929 . S
N517 Gd490 2.570 . S
N517 C518 1.359 1_545 S
N517 C521 1.343 . S
C518 C511 1.426 . S
C518 N517 1.359 1_565 S
C518 C520 1.421 . S
C519 C520 1.422 . S
C519 C522 1.321 . S
C519 H546 0.931 . S
C520 C518 1.421 . S
C520 C519 1.422 . S
C520 C544 1.417 . S
C521 H498 0.931 1_655 S
C521 N517 1.343 . S
C521 C522 1.390 1_545 S
C522 H500 0.930 1_655 S
C522 C519 1.321 . S
C522 C521 1.390 1_565 S
O523 Gd491 2.386 1_545 S
O523 C535 1.265 . S
O524 Gd490 2.353 1_455 S
O524 C535 1.242 . S
O525 Gd490 2.468 . S
O525 C543 1.263 . S
O526 Gd490 2.427 . S
O526 C543 1.252 . S
O527 Gd491 2.305 1_645 S
O527 C536 1.263 . S
O528 Gd490 2.388 . S
O528 C536 1.252 . S
O529 Gd490 2.386 1_565 S
O529 C547 1.265 . S
O530 Gd491 2.353 . S
O530 C547 1.242 1_455 S
O531 Gd491 2.468 . S
O531 C555 1.263 . S
O532 Gd491 2.427 . S
O532 C555 1.252 . S
O533 Gd490 2.307 1_455 S
O533 C548 1.261 . S
O534 Gd491 2.388 . S
O534 C548 1.252 1_565 S
C535 O523 1.265 . S
C535 O524 1.242 . S
C536 O527 1.263 . S
C536 O528 1.252 . S
C537 C540 1.394 . S
C537 C542 1.370 . S
C537 C543 1.500 . S
C538 C541 1.383 . S
C538 C542 1.395 . S
C539 C540 1.396 . S
C539 C541 1.365 . S
C539 H556 0.929 . S
C540 C537 1.394 . S
C540 C539 1.396 . S
C540 H557 0.930 . S
C541 C538 1.383 . S
C541 C539 1.365 . S
C541 H558 0.931 . S
C542 C537 1.370 . S
C542 C538 1.395 . S
C542 H559 0.930 1_655 S
C543 Gd490 2.805 . S
C543 O525 1.263 . S
C543 O526 1.252 . S
C543 C537 1.500 . S
C544 H506 0.930 . S
C544 C520 1.417 . S
C544 C545 1.329 . S
C545 C515 1.437 . S
C545 H516 0.929 . S
C545 C544 1.329 . S
H546 C519 0.931 . S
C547 O529 1.265 . S
C547 O530 1.242 1_655 S
C548 O533 1.261 . S
C548 O534 1.252 1_545 S
C549 C552 1.394 . S
C549 C554 1.370 . S
C549 C555 1.500 . S
C550 C553 1.383 . S
C550 C554 1.395 . S
C551 C552 1.396 . S
C551 C553 1.365 . S
C551 H560 0.929 . S
C552 C549 1.394 . S
C552 C551 1.396 . S
C552 H561 0.930 . S
C553 C550 1.383 . S
C553 C551 1.365 . S
C553 H562 0.931 . S
C554 C549 1.370 . S
C554 C550 1.395 . S
C554 H563 0.930 . S
C555 Gd491 2.805 . S
C555 O531 1.263 . S
C555 O532 1.252 . S
C555 C549 1.500 . S
H556 C539 0.929 . S
H557 C540 0.930 . S
H558 C541 0.931 . S
H559 C542 0.930 1_455 S
H560 C551 0.929 . S
H561 C552 0.930 . S
H562 C553 0.931 . S
H563 C554 0.930 . S
C564 C566 1.422 . S
C564 C568 1.415 . S
C564 N570 1.369 . S
C565 C566 1.421 . S
C565 C567 1.417 . S
C565 C577 1.422 . S
C566 C564 1.422 . S
C566 C565 1.421 . S
C566 N576 1.359 . S
C567 C565 1.417 . S
C567 C569 1.329 . S
C567 H586 0.930 . S
C568 C564 1.415 . S
C568 C569 1.437 . S
C568 C572 1.413 . S
C569 C567 1.329 . S
C569 C568 1.437 . S
C569 H591 0.929 . S
N570 C564 1.369 . S
N570 C571 1.338 . S
N570 Gd575 2.622 . S
C571 N570 1.338 . S
C571 C573 1.378 . S
C571 H583 0.929 . S
C572 C568 1.413 . S
C572 C573 1.348 . S
C572 H588 0.931 . S
C573 C571 1.378 . S
C573 C572 1.348 . S
C573 H589 0.930 . S
Gd574 N594 2.622 . S
Gd574 N601 2.570 . S
Gd574 O608 2.353 1_545 S
Gd574 O609 2.468 . S
Gd574 O610 2.427 . S
Gd574 O612 2.388 . S
Gd574 O613 2.386 . S
Gd574 O617 2.307 . S
Gd574 C627 2.805 . S
Gd575 N570 2.622 . S
Gd575 N576 2.570 . S
Gd575 O607 2.386 . S
Gd575 O611 2.307 1_565 S
Gd575 O614 2.353 1_565 S
Gd575 O615 2.468 . S
Gd575 O616 2.427 . S
Gd575 O618 2.388 . S
Gd575 C639 2.805 . S
N576 C566 1.359 . S
N576 Gd575 2.570 . S
N576 C578 1.343 . S
C577 C565 1.422 . S
C577 C579 1.321 . S
C577 H585 0.931 . S
C578 N576 1.343 . S
C578 C579 1.390 . S
C578 H580 0.931 . S
C579 C577 1.321 . S
C579 C578 1.390 . S
C579 H581 0.930 . S
H580 C578 0.931 . S
H581 C579 0.930 . S
H582 C605 0.931 . S
H583 C571 0.929 . S
H584 C606 0.930 . S
H585 C577 0.931 . S
H586 C567 0.930 . S
H587 C596 0.929 . S
H588 C572 0.931 . S
H589 C573 0.930 . S
H590 C628 0.930 . S
H591 C569 0.929 . S
H592 C597 0.931 . S
H593 C598 0.930 . S
N594 Gd574 2.622 . S
N594 C595 1.369 . S
N594 C596 1.338 . S
C595 N594 1.369 . S
C595 C599 1.415 . S
C595 C602 1.422 . S
C596 H587 0.929 . S
C596 N594 1.338 . S
C596 C598 1.378 . S
C597 H592 0.931 . S
C597 C598 1.348 . S
C597 C599 1.413 . S
C598 H593 0.930 . S
C598 C596 1.378 . S
C598 C597 1.348 . S
C599 C595 1.415 . S
C599 C597 1.413 . S
C599 C629 1.437 . S
H600 C629 0.929 . S
N601 Gd574 2.570 . S
N601 C602 1.359 . S
N601 C605 1.343 . S
C602 C595 1.422 . S
C602 N601 1.359 . S
C602 C604 1.421 . S
C603 C604 1.422 . S
C603 C606 1.321 . S
C603 H630 0.931 . S
C604 C602 1.421 . S
C604 C603 1.422 . S
C604 C628 1.417 . S
C605 H582 0.931 . S
C605 N601 1.343 . S
C605 C606 1.390 . S
C606 H584 0.930 . S
C606 C603 1.321 . S
C606 C605 1.390 . S
O607 Gd575 2.386 . S
O607 C619 1.265 . S
O608 Gd574 2.353 1_565 S
O608 C619 1.242 . S
O609 Gd574 2.468 . S
O609 C627 1.263 . S
O610 Gd574 2.427 . S
O610 C627 1.252 . S
O611 Gd575 2.307 1_545 S
O611 C620 1.261 . S
O612 Gd574 2.388 . S
O612 C620 1.252 . S
O613 Gd574 2.386 . S
O613 C631 1.265 . S
O614 Gd575 2.353 1_545 S
O614 C631 1.242 . S
O615 Gd575 2.468 . S
O615 C639 1.263 . S
O616 Gd575 2.427 . S
O616 C639 1.252 . S
O617 Gd574 2.307 . S
O617 C632 1.261 1_545 S
O618 Gd575 2.388 . S
O618 C632 1.252 . S
C619 O607 1.265 . S
C619 O608 1.242 . S
C620 O611 1.261 . S
C620 O612 1.252 . S
C621 C624 1.394 1_556 S
C621 C626 1.370 . S
C621 C627 1.500 . S
C622 C625 1.383 1_556 S
C622 C626 1.395 . S
C623 C624 1.396 . S
C623 C625 1.365 . S
C623 H640 0.929 . S
C624 C621 1.394 1_554 S
C624 C623 1.396 . S
C624 H641 0.930 . S
C625 C622 1.383 1_554 S
C625 C623 1.365 . S
C625 H642 0.931 . S
C626 C621 1.370 . S
C626 C622 1.395 . S
C626 H643 0.930 . S
C627 Gd574 2.805 . S
C627 O609 1.263 . S
C627 O610 1.252 . S
C627 C621 1.500 . S
C628 H590 0.930 . S
C628 C604 1.417 . S
C628 C629 1.329 . S
C629 C599 1.437 . S
C629 H600 0.929 . S
C629 C628 1.329 . S
H630 C603 0.931 . S
C631 O613 1.265 . S
C631 O614 1.242 . S
C632 O617 1.261 1_565 S
C632 O618 1.252 . S
C633 C636 1.394 . S
C633 C638 1.370 . S
C633 C639 1.500 . S
C634 C637 1.383 . S
C634 C638 1.395 . S
C635 C636 1.396 . S
C635 C637 1.365 . S
C635 H644 0.929 . S
C636 C633 1.394 . S
C636 C635 1.396 . S
C636 H645 0.930 . S
C637 C634 1.383 . S
C637 C635 1.365 . S
C637 H646 0.931 . S
C638 C633 1.370 . S
C638 C634 1.395 . S
C638 H647 0.930 . S
C639 Gd575 2.805 . S
C639 O615 1.263 . S
C639 O616 1.252 . S
C639 C633 1.500 . S
H640 C623 0.929 . S
H641 C624 0.930 . S
H642 C625 0.931 . S
H643 C626 0.930 . S
H644 C635 0.929 . S
H645 C636 0.930 . S
H646 C637 0.931 . S
H647 C638 0.930 . S
C648 C650 1.422 . S
C648 C652 1.415 . S
C648 N654 1.369 . S
C649 C650 1.421 . S
C649 C651 1.417 1_556 S
C649 C661 1.422 1_556 S
C650 C648 1.422 . S
C650 C649 1.421 . S
C650 N660 1.359 . S
C651 C649 1.417 1_554 S
C651 C653 1.329 1_554 S
C651 H670 0.930 . S
C652 C648 1.415 . S
C652 C653 1.437 . S
C652 C656 1.413 . S
C653 C651 1.329 1_556 S
C653 C652 1.437 . S
C653 H675 0.929 . S
N654 C648 1.369 . S
N654 C655 1.338 . S
N654 Gd659 2.622 . S
C655 N654 1.338 . S
C655 C657 1.378 . S
C655 H667 0.929 . S
C656 C652 1.413 . S
C656 C657 1.348 . S
C656 H672 0.931 . S
C657 C655 1.378 . S
C657 C656 1.348 . S
C657 H673 0.930 . S
Gd658 N678 2.622 . S
Gd658 N685 2.570 . S
Gd658 O692 2.353 . S
Gd658 O693 2.468 . S
Gd658 O694 2.427 . S
Gd658 O696 2.388 . S
Gd658 O697 2.386 . S
Gd658 O701 2.307 . S
Gd658 C711 2.805 . S
Gd659 N654 2.622 . S
Gd659 N660 2.570 . S
Gd659 O691 2.386 . S
Gd659 O695 2.307 . S
Gd659 O698 2.353 . S
Gd659 O699 2.468 . S
Gd659 O700 2.427 . S
Gd659 O702 2.388 . S
Gd659 C723 2.805 . S
N660 C650 1.359 . S
N660 Gd659 2.570 . S
N660 C662 1.343 . S
C661 C649 1.422 1_554 S
C661 C663 1.321 . S
C661 H669 0.931 . S
C662 N660 1.343 . S
C662 C663 1.390 1_556 S
C662 H664 0.931 . S
C663 C661 1.321 . S
C663 C662 1.390 1_554 S
C663 H665 0.930 . S
H664 C662 0.931 . S
H665 C663 0.930 . S
H666 C689 0.931 . S
H667 C655 0.929 . S
H668 C690 0.930 . S
H669 C661 0.931 . S
H670 C651 0.930 . S
H671 C680 0.929 . S
H672 C656 0.931 . S
H673 C657 0.930 . S
H674 C712 0.930 . S
H675 C653 0.929 . S
H676 C681 0.931 . S
H677 C682 0.930 . S
N678 Gd658 2.622 . S
N678 C679 1.369 . S
N678 C680 1.338 . S
C679 N678 1.369 . S
C679 C683 1.415 . S
C679 C686 1.422 . S
C680 H671 0.929 . S
C680 N678 1.338 . S
C680 C682 1.378 . S
C681 H676 0.931 . S
C681 C682 1.348 . S
C681 C683 1.413 . S
C682 H677 0.930 . S
C682 C680 1.378 . S
C682 C681 1.348 . S
C683 C679 1.415 . S
C683 C681 1.413 . S
C683 C713 1.437 . S
H684 C713 0.929 . S
N685 Gd658 2.570 . S
N685 C686 1.359 . S
N685 C689 1.343 . S
C686 C679 1.422 . S
C686 N685 1.359 . S
C686 C688 1.421 . S
C687 C688 1.422 . S
C687 C690 1.321 . S
C687 H714 0.931 . S
C688 C686 1.421 . S
C688 C687 1.422 . S
C688 C712 1.417 . S
C689 H666 0.931 . S
C689 N685 1.343 . S
C689 C690 1.390 . S
C690 H668 0.930 . S
C690 C687 1.321 . S
C690 C689 1.390 . S
O691 Gd659 2.386 . S
O691 C703 1.265 . S
O692 Gd658 2.353 . S
O692 C703 1.242 . S
O693 Gd658 2.468 . S
O693 C711 1.263 . S
O694 Gd658 2.427 . S
O694 C711 1.252 . S
O695 Gd659 2.307 . S
O695 C704 1.261 . S
O696 Gd658 2.388 . S
O696 C704 1.252 . S
O697 Gd658 2.386 . S
O697 C715 1.265 . S
O698 Gd659 2.353 . S
O698 C715 1.242 . S
O699 Gd659 2.468 . S
O699 C723 1.263 . S
O700 Gd659 2.427 . S
O700 C723 1.252 . S
O701 Gd658 2.307 . S
O701 C716 1.261 . S
O702 Gd659 2.388 . S
O702 C716 1.252 . S
C703 O691 1.265 . S
C703 O692 1.242 . S
C704 O695 1.261 . S
C704 O696 1.252 . S
C705 C708 1.394 . S
C705 C710 1.370 . S
C705 C711 1.500 . S
C706 C709 1.383 . S
C706 C710 1.395 . S
C707 C708 1.396 . S
C707 C709 1.365 . S
C707 H724 0.929 . S
C708 C705 1.394 . S
C708 C707 1.396 . S
C708 H725 0.930 . S
C709 C706 1.383 . S
C709 C707 1.365 . S
C709 H726 0.931 . S
C710 C705 1.370 . S
C710 C706 1.395 . S
C710 H727 0.930 . S
C711 Gd658 2.805 . S
C711 O693 1.263 . S
C711 O694 1.252 . S
C711 C705 1.500 . S
C712 H674 0.930 . S
C712 C688 1.417 . S
C712 C713 1.329 . S
C713 C683 1.437 . S
C713 H684 0.929 . S
C713 C712 1.329 . S
H714 C687 0.931 . S
C715 O697 1.265 . S
C715 O698 1.242 . S
C716 O701 1.261 . S
C716 O702 1.252 . S
C717 C720 1.394 . S
C717 C722 1.370 . S
C717 C723 1.500 . S
C718 C721 1.383 . S
C718 C722 1.395 . S
C719 C720 1.396 . S
C719 C721 1.365 . S
C719 H728 0.929 . S
C720 C717 1.394 . S
C720 C719 1.396 . S
C720 H729 0.930 . S
C721 C718 1.383 . S
C721 C719 1.365 . S
C721 H730 0.931 . S
C722 C717 1.370 . S
C722 C718 1.395 . S
C722 H731 0.930 . S
C723 Gd659 2.805 . S
C723 O699 1.263 . S
C723 O700 1.252 . S
C723 C717 1.500 . S
H724 C707 0.929 . S
H725 C708 0.930 . S
H726 C709 0.931 . S
H727 C710 0.930 . S
H728 C719 0.929 . S
H729 C720 0.930 . S
H730 C721 0.931 . S
H731 C722 0.930 . S
C732 C734 1.422 . S
C732 C736 1.415 . S
C732 N738 1.369 1_455 S
C733 C734 1.421 . S
C733 C735 1.417 1_556 S
C733 C745 1.422 1_556 S
C734 C732 1.422 . S
C734 C733 1.421 . S
C734 N744 1.359 . S
C735 C733 1.417 1_554 S
C735 C737 1.329 1_554 S
C735 H754 0.930 . S
C736 C732 1.415 . S
C736 C737 1.437 . S
C736 C740 1.413 . S
C737 C735 1.329 1_556 S
C737 C736 1.437 . S
C737 H759 0.929 . S
N738 C732 1.369 1_655 S
N738 C739 1.338 . S
N738 Gd743 2.622 . S
C739 N738 1.338 . S
C739 C741 1.378 1_655 S
C739 H751 0.929 . S
C740 C736 1.413 . S
C740 C741 1.348 . S
C740 H756 0.931 . S
C741 C739 1.378 1_455 S
C741 C740 1.348 . S
C741 H757 0.930 . S
Gd742 N762 2.622 . S
Gd742 N769 2.570 . S
Gd742 O776 2.353 . S
Gd742 O777 2.468 . S
Gd742 O778 2.427 . S
Gd742 O780 2.388 . S
Gd742 O781 2.386 1_455 S
Gd742 O785 2.307 . S
Gd742 C795 2.805 . S
Gd743 N738 2.622 . S
Gd743 N744 2.570 1_655 S
Gd743 O775 2.386 1_655 S
Gd743 O779 2.307 . S
Gd743 O782 2.353 . S
Gd743 O783 2.468 . S
Gd743 O784 2.427 . S
Gd743 O786 2.388 . S
Gd743 C807 2.805 . S
N744 C734 1.359 . S
N744 Gd743 2.570 1_455 S
N744 C746 1.343 . S
C745 C733 1.422 1_554 S
C745 C747 1.321 . S
C745 H753 0.931 . S
C746 N744 1.343 . S
C746 C747 1.390 1_556 S
C746 H748 0.926 1_455 S
C747 C745 1.321 . S
C747 C746 1.390 1_554 S
C747 H749 0.930 . S
H748 C746 0.926 1_655 S
H749 C747 0.930 . S
H750 C773 0.931 . S
H751 C739 0.929 . S
H752 C774 0.930 . S
H753 C745 0.931 . S
H754 C735 0.930 . S
H755 C764 0.929 . S
H756 C740 0.931 . S
H757 C741 0.930 . S
H758 C796 0.930 . S
H759 C737 0.929 . S
H760 C765 0.931 . S
H761 C766 0.930 . S
N762 Gd742 2.622 . S
N762 C763 1.356 1_455 S
N762 C764 1.338 . S
C763 N762 1.356 1_655 S
C763 C767 1.426 . S
C763 C770 1.426 . S
C764 H755 0.929 . S
C764 N762 1.338 . S
C764 C766 1.378 . S
C765 H760 0.931 . S
C765 C766 1.348 1_655 S
C765 C767 1.413 . S
C766 H761 0.930 . S
C766 C764 1.378 . S
C766 C765 1.348 1_455 S
C767 C763 1.426 . S
C767 C765 1.413 . S
C767 C797 1.437 . S
H768 C797 0.929 . S
N769 Gd742 2.570 . S
N769 C770 1.359 1_455 S
N769 C773 1.343 . S
C770 C763 1.426 . S
C770 N769 1.359 1_655 S
C770 C772 1.421 . S
C771 C772 1.422 . S
C771 C774 1.321 . S
C771 H798 0.931 . S
C772 C770 1.421 . S
C772 C771 1.422 . S
C772 C796 1.417 . S
C773 H750 0.931 . S
C773 N769 1.343 . S
C773 C774 1.390 1_455 S
C774 H752 0.930 . S
C774 C771 1.321 . S
C774 C773 1.390 1_655 S
O775 Gd743 2.386 1_455 S
O775 C787 1.265 . S
O776 Gd742 2.353 . S
O776 C787 1.242 . S
O777 Gd742 2.468 . S
O777 C795 1.263 . S
O778 Gd742 2.427 . S
O778 C795 1.252 . S
O779 Gd743 2.307 . S
O779 C788 1.261 1_655 S
O780 Gd742 2.388 . S
O780 C788 1.252 . S
O781 Gd742 2.386 1_655 S
O781 C799 1.265 . S
O782 Gd743 2.353 . S
O782 C799 1.242 . S
O783 Gd743 2.468 . S
O783 C807 1.263 . S
O784 Gd743 2.427 . S
O784 C807 1.252 . S
O785 Gd742 2.307 . S
O785 C800 1.261 . S
O786 Gd743 2.388 . S
O786 C800 1.252 1_655 S
C787 O775 1.265 . S
C787 O776 1.242 . S
C788 O779 1.261 1_455 S
C788 O780 1.252 . S
C789 C792 1.394 . S
C789 C794 1.370 . S
C789 C795 1.500 . S
C790 C793 1.383 . S
C790 C794 1.395 . S
C791 C792 1.396 . S
C791 C793 1.365 . S
C791 H808 0.929 . S
C792 C789 1.394 . S
C792 C791 1.396 . S
C792 H809 0.930 . S
C793 C790 1.383 . S
C793 C791 1.365 . S
C793 H810 0.931 . S
C794 C789 1.370 . S
C794 C790 1.395 . S
C794 H811 0.930 . S
C795 Gd742 2.805 . S
C795 O777 1.263 . S
C795 O778 1.252 . S
C795 C789 1.500 . S
C796 H758 0.930 . S
C796 C772 1.417 . S
C796 C797 1.329 . S
C797 C767 1.437 . S
C797 H768 0.929 . S
C797 C796 1.329 . S
H798 C771 0.931 . S
C799 O781 1.265 . S
C799 O782 1.242 . S
C800 O785 1.261 . S
C800 O786 1.252 1_455 S
C801 C804 1.394 . S
C801 C806 1.370 . S
C801 C807 1.500 . S
C802 C805 1.383 . S
C802 C806 1.395 . S
C803 C804 1.396 . S
C803 C805 1.365 . S
C803 H812 0.929 . S
C804 C801 1.394 . S
C804 C803 1.396 . S
C804 H813 0.930 . S
C805 C802 1.383 . S
C805 C803 1.365 . S
C805 H814 0.931 . S
C806 C801 1.370 . S
C806 C802 1.395 . S
C806 H815 0.930 . S
C807 Gd743 2.805 . S
C807 O783 1.263 . S
C807 O784 1.252 . S
C807 C801 1.500 . S
H808 C791 0.929 . S
H809 C792 0.930 . S
H810 C793 0.931 . S
H811 C794 0.930 . S
H812 C803 0.929 . S
H813 C804 0.930 . S
H814 C805 0.931 . S
H815 C806 0.930 . S
C816 C817 1.363 . S
C816 C822 1.379 . S
C816 N824 1.356 1_545 S
C817 C816 1.363 . S
C817 C823 1.363 . S
C818 C819 1.363 . S
C818 C823 1.379 . S
C818 N825 1.356 . S
C819 C818 1.363 . S
C819 C822 1.363 . S
N820 C822 1.356 1_565 S
N820 H832 0.984 . S
N820 H833 0.985 . S
N821 C823 1.356 . S
N821 H826 0.984 . S
N821 H827 0.985 . S
C822 C816 1.379 . S
C822 C819 1.363 . S
C822 N820 1.356 1_545 S
C823 C817 1.363 . S
C823 C818 1.379 . S
C823 N821 1.356 . S
N824 C816 1.356 1_565 S
N824 H830 0.984 . S
N824 H831 0.984 1_565 S
N825 C818 1.356 . S
N825 H828 0.984 . S
N825 H829 0.985 . S
H826 N821 0.984 . S
H827 N821 0.985 . S
H828 N825 0.984 . S
H829 N825 0.985 . S
H830 N824 0.984 . S
H831 N824 0.984 1_545 S
H832 N820 0.984 . S
H833 N820 0.985 . S
C834 C835 1.363 . S
C834 C840 1.379 . S
C834 N842 1.356 . S
C835 C834 1.363 . S
C835 C841 1.363 . S
C836 C837 1.363 . S
C836 C841 1.379 . S
C836 N843 1.356 . S
C837 C836 1.363 . S
C837 C840 1.363 . S
N838 C840 1.356 . S
N838 H850 0.984 . S
N838 H851 0.985 . S
N839 C841 1.356 . S
N839 H844 0.984 . S
N839 H845 0.985 . S
C840 C834 1.379 . S
C840 C837 1.363 . S
C840 N838 1.356 . S
C841 C835 1.363 . S
C841 C836 1.379 . S
C841 N839 1.356 . S
N842 C834 1.356 . S
N842 H848 0.984 . S
N842 H849 0.984 . S
N843 C836 1.356 . S
N843 H846 0.984 . S
N843 H847 0.985 . S
H844 N839 0.984 . S
H845 N839 0.985 . S
H846 N843 0.984 . S
H847 N843 0.985 . S
H848 N842 0.984 . S
H849 N842 0.984 . S
H850 N838 0.984 . S
H851 N838 0.985 . S
C852 C853 1.363 . S
C852 C858 1.379 . S
C852 N860 1.356 . S
C853 C852 1.363 . S
C853 C859 1.363 . S
C854 C855 1.363 . S
C854 C859 1.379 . S
C854 N861 1.356 . S
C855 C854 1.363 . S
C855 C858 1.363 . S
N856 C858 1.356 . S
N856 H868 0.984 . S
N856 H869 0.985 . S
N857 C859 1.356 . S
N857 H862 0.984 . S
N857 H863 0.985 . S
C858 C852 1.379 . S
C858 C855 1.363 . S
C858 N856 1.356 . S
C859 C853 1.363 . S
C859 C854 1.379 . S
C859 N857 1.356 . S
N860 C852 1.356 . S
N860 H866 0.984 . S
N860 H867 0.984 . S
N861 C854 1.356 . S
N861 H864 0.984 . S
N861 H865 0.985 . S
H862 N857 0.984 . S
H863 N857 0.985 . S
H864 N861 0.984 . S
H865 N861 0.985 . S
H866 N860 0.984 . S
H867 N860 0.984 . S
H868 N856 0.984 . S
H869 N856 0.985 . S
C870 C871 1.363 . S
C870 C876 1.379 . S
C870 N878 1.356 . S
C871 C870 1.363 . S
C871 C877 1.363 . S
C872 C873 1.363 . S
C872 C877 1.379 . S
C872 N879 1.356 1_455 S
C873 C872 1.363 . S
C873 C876 1.363 . S
N874 C876 1.356 . S
N874 H886 0.984 . S
N874 H887 0.985 . S
N875 C877 1.356 . S
N875 H880 0.984 . S
N875 H881 0.985 1_455 S
C876 C870 1.379 . S
C876 C873 1.363 . S
C876 N874 1.356 . S
C877 C871 1.363 . S
C877 C872 1.379 . S
C877 N875 1.356 . S
N878 C870 1.356 . S
N878 H884 0.984 . S
N878 H885 0.984 . S
N879 C872 1.356 1_655 S
N879 H882 0.984 . S
N879 H883 0.985 . S
H880 N875 0.984 . S
H881 N875 0.985 1_655 S
H882 N879 0.984 . S
H883 N879 0.985 . S
H884 N878 0.984 . S
H885 N878 0.984 . S
H886 N874 0.984 . S
H887 N874 0.985 . S
C888 C889 1.363 1_545 S
C888 C894 1.379 1_554 S
C888 N896 1.356 . S
C889 C888 1.363 1_565 S
C889 C895 1.363 . S
C890 C891 1.363 . S
C890 C895 1.379 1_556 S
C890 N897 1.356 . S
C891 C890 1.363 . S
C891 C894 1.363 1_565 S
N892 C894 1.356 . S
N892 H904 0.984 . S
N892 H905 0.985 . S
N893 C895 1.356 . S
N893 H898 0.984 . S
N893 H899 0.985 . S
C894 C888 1.379 1_556 S
C894 C891 1.363 1_545 S
C894 N892 1.356 . S
C895 C889 1.363 . S
C895 C890 1.379 1_554 S
C895 N893 1.356 . S
N896 C888 1.356 . S
N896 H902 0.984 . S
N896 H903 0.984 . S
N897 C890 1.356 . S
N897 H900 0.984 . S
N897 H901 0.985 . S
H898 N893 0.984 . S
H899 N893 0.985 . S
H900 N897 0.984 . S
H901 N897 0.985 . S
H902 N896 0.984 . S
H903 N896 0.984 . S
H904 N892 0.984 . S
H905 N892 0.985 . S
C906 C907 1.363 . S
C906 C912 1.379 1_554 S
C906 N914 1.356 . S
C907 C906 1.363 . S
C907 C913 1.363 . S
C908 C909 1.363 . S
C908 C913 1.379 1_556 S
C908 N915 1.356 . S
C909 C908 1.363 . S
C909 C912 1.363 . S
N910 C912 1.356 . S
N910 H922 0.984 . S
N910 H923 0.985 . S
N911 C913 1.356 . S
N911 H916 0.984 . S
N911 H917 0.985 1_565 S
C912 C906 1.379 1_556 S
C912 C909 1.363 . S
C912 N910 1.356 . S
C913 C907 1.363 . S
C913 C908 1.379 1_554 S
C913 N911 1.356 . S
N914 C906 1.356 . S
N914 H920 0.984 . S
N914 H921 0.984 . S
N915 C908 1.356 . S
N915 H918 0.984 . S
N915 H919 0.985 1_565 S
H916 N911 0.984 . S
H917 N911 0.985 1_545 S
H918 N915 0.984 . S
H919 N915 0.985 1_545 S
H920 N914 0.984 . S
H921 N914 0.984 . S
H922 N910 0.984 . S
H923 N910 0.985 . S
C924 C925 1.363 . S
C924 C930 1.379 1_554 S
C924 N932 1.356 . S
C925 C924 1.363 . S
C925 C931 1.363 . S
C926 C927 1.363 . S
C926 C931 1.379 1_556 S
C926 N933 1.356 . S
C927 C926 1.363 . S
C927 C930 1.363 . S
N928 C930 1.356 . S
N928 H940 0.984 . S
N928 H941 0.985 . S
N929 C931 1.356 . S
N929 H934 0.984 . S
N929 H935 0.985 . S
C930 C924 1.379 1_556 S
C930 C927 1.363 . S
C930 N928 1.356 . S
C931 C925 1.363 . S
C931 C926 1.379 1_554 S
C931 N929 1.356 . S
N932 C924 1.356 . S
N932 H938 0.984 . S
N932 H939 0.984 . S
N933 C926 1.356 . S
N933 H936 0.984 . S
N933 H937 0.985 . S
H934 N929 0.984 . S
H935 N929 0.985 . S
H936 N933 0.984 . S
H937 N933 0.985 . S
H938 N932 0.984 . S
H939 N932 0.984 . S
H940 N928 0.984 . S
H941 N928 0.985 . S
C942 C943 1.363 . S
C942 C948 1.379 1_554 S
C942 N950 1.356 . S
C943 C942 1.363 . S
C943 C949 1.363 . S
C944 C945 1.363 1_455 S
C944 C949 1.379 1_456 S
C944 N951 1.356 . S
C945 C944 1.363 1_655 S
C945 C948 1.363 . S
N946 C948 1.356 . S
N946 H958 0.984 . S
N946 H959 0.985 . S
N947 C949 1.356 1_455 S
N947 H952 0.982 1_455 S
N947 H953 0.985 . S
C948 C942 1.379 1_556 S
C948 C945 1.363 . S
C948 N946 1.356 . S
C949 C943 1.363 . S
C949 C944 1.379 1_654 S
C949 N947 1.356 1_655 S
N950 C942 1.356 . S
N950 H956 0.984 . S
N950 H957 0.984 . S
N951 C944 1.356 . S
N951 H954 0.984 . S
N951 H955 0.985 . S
H952 N947 0.982 1_655 S
H953 N947 0.985 . S
H954 N951 0.984 . S
H955 N951 0.985 . S
H956 N950 0.984 . S
H957 N950 0.984 . S
H958 N946 0.984 . S
H959 N946 0.985 . S
C960 C961 1.363 . S
C960 C966 1.379 . S
C960 N968 1.356 . S
C961 C960 1.363 . S
C961 C967 1.363 . S
C962 C963 1.363 1_455 S
C962 C967 1.379 . S
C962 N969 1.356 1_455 S
C963 C962 1.363 1_655 S
C963 C966 1.363 1_655 S
N964 C966 1.356 1_655 S
N964 H976 0.984 . S
N964 H977 0.985 . S
N965 C967 1.356 . S
N965 H970 0.984 . S
N965 H971 0.985 . S
C966 C960 1.379 . S
C966 C963 1.363 1_455 S
C966 N964 1.356 1_455 S
C967 C961 1.363 . S
C967 C962 1.379 . S
C967 N965 1.356 . S
N968 C960 1.356 . S
N968 H974 0.984 . S
N968 H975 0.984 . S
N969 C962 1.356 1_655 S
N969 H972 0.984 . S
N969 H973 0.985 . S
H970 N965 0.984 . S
H971 N965 0.985 . S
H972 N969 0.984 . S
H973 N969 0.985 . S
H974 N968 0.984 . S
H975 N968 0.984 . S
H976 N964 0.984 . S
H977 N964 0.985 . S
C978 C979 1.363 . S
C978 C984 1.379 . S
C978 N986 1.356 . S
C979 C978 1.363 . S
C979 C985 1.363 . S
C980 C981 1.363 . S
C980 C985 1.379 1_565 S
C980 N987 1.356 . S
C981 C980 1.363 . S
C981 C984 1.363 1_565 S
N982 C984 1.356 . S
N982 H994 0.984 . S
N982 H995 0.985 . S
N983 C985 1.356 . S
N983 H988 0.984 . S
N983 H989 0.985 1_545 S
C984 C978 1.379 . S
C984 C981 1.363 1_545 S
C984 N982 1.356 . S
C985 C979 1.363 . S
C985 C980 1.379 1_545 S
C985 N983 1.356 . S
N986 C978 1.356 . S
N986 H992 0.984 . S
N986 H993 0.984 . S
N987 C980 1.356 . S
N987 H990 0.984 . S
N987 H991 0.985 . S
H988 N983 0.984 . S
H989 N983 0.985 1_565 S
H990 N987 0.984 . S
H991 N987 0.985 . S
H992 N986 0.984 . S
H993 N986 0.984 . S
H994 N982 0.984 . S
H995 N982 0.985 . S
C996 C997 1.363 . S
C996 C1002 1.379 . S
C996 N1004 1.356 . S
C997 C996 1.363 . S
C997 C1003 1.363 . S
C998 C999 1.363 . S
C998 C1003 1.379 . S
C998 N1005 1.356 . S
C999 C998 1.363 . S
C999 C1002 1.363 . S
N1000 C1002 1.356 . S
N1000 H1012 0.984 . S
N1000 H1013 0.985 . S
N1001 C1003 1.356 . S
N1001 H1006 0.984 . S
N1001 H1007 0.985 . S
C1002 C996 1.379 . S
C1002 C999 1.363 . S
C1002 N1000 1.356 . S
C1003 C997 1.363 . S
C1003 C998 1.379 . S
C1003 N1001 1.356 . S
N1004 C996 1.356 . S
N1004 H1010 0.984 . S
N1004 H1011 0.984 . S
N1005 C998 1.356 . S
N1005 H1008 0.984 . S
N1005 H1009 0.985 . S
H1006 N1001 0.984 . S
H1007 N1001 0.985 . S
H1008 N1005 0.984 . S
H1009 N1005 0.985 . S
H1010 N1004 0.984 . S
H1011 N1004 0.984 . S
H1012 N1000 0.984 . S
H1013 N1000 0.985 . S
C1014 C1015 1.363 . S
C1014 C1020 1.379 . S
C1014 N1022 1.356 . S
C1015 C1014 1.363 . S
C1015 C1021 1.363 . S
C1016 C1017 1.363 . S
C1016 C1021 1.379 . S
C1016 N1023 1.356 . S
C1017 C1016 1.363 . S
C1017 C1020 1.363 . S
N1018 C1020 1.356 . S
N1018 H1030 0.984 . S
N1018 H1031 0.985 . S
N1019 C1021 1.356 . S
N1019 H1024 0.984 . S
N1019 H1025 0.985 . S
C1020 C1014 1.379 . S
C1020 C1017 1.363 . S
C1020 N1018 1.356 . S
C1021 C1015 1.363 . S
C1021 C1016 1.379 . S
C1021 N1019 1.356 . S
N1022 C1014 1.356 . S
N1022 H1028 0.984 . S
N1022 H1029 0.984 . S
N1023 C1016 1.356 . S
N1023 H1026 0.984 . S
N1023 H1027 0.985 . S
H1024 N1019 0.984 . S
H1025 N1019 0.985 . S
H1026 N1023 0.984 . S
H1027 N1023 0.985 . S
H1028 N1022 0.984 . S
H1029 N1022 0.984 . S
H1030 N1018 0.984 . S
H1031 N1018 0.985 . S
C1032 C1033 1.363 1_455 S
C1032 C1038 1.379 1_554 S
C1032 N1040 1.357 . S
C1033 C1032 1.363 1_655 S
C1033 C1039 1.363 . S
C1034 C1035 1.363 1_655 S
C1034 C1039 1.379 1_556 S
C1034 N1041 1.356 . S
C1035 C1034 1.363 1_455 S
C1035 C1038 1.363 . S
N1036 C1038 1.356 . S
N1036 H1048 0.984 . S
N1036 H1049 0.985 . S
N1037 C1039 1.356 . S
N1037 H1042 0.984 . S
N1037 H1043 0.985 . S
C1038 C1032 1.379 1_556 S
C1038 C1035 1.363 . S
C1038 N1036 1.356 . S
C1039 C1033 1.363 . S
C1039 C1034 1.379 1_554 S
C1039 N1037 1.356 . S
N1040 C1032 1.357 . S
N1040 H1046 1.000 . S
N1040 H1047 0.968 1_455 S
N1041 C1034 1.356 . S
N1041 H1044 0.984 1_655 S
N1041 H1045 0.985 . S
H1042 N1037 0.984 . S
H1043 N1037 0.985 . S
H1044 N1041 0.984 1_455 S
H1045 N1041 0.985 . S
H1046 N1040 1.000 . S
H1047 N1040 0.968 1_655 S
H1048 N1036 0.984 . S
H1049 N1036 0.985 . S
C1050 C1051 1.363 1_556 S
C1050 C1056 1.400 . S
C1050 N1058 1.356 . S
C1051 C1050 1.363 1_554 S
C1051 C1057 1.363 . S
C1052 C1053 1.363 1_554 S
C1052 C1057 1.379 1_545 S
C1052 N1059 1.356 . S
C1053 C1052 1.363 1_556 S
C1053 C1056 1.344 1_545 S
N1054 C1056 1.347 1_545 S
N1054 H1066 0.984 1_545 S
N1054 H1067 0.985 . S
N1055 C1057 1.356 . S
N1055 H1060 0.984 . S
N1055 H1061 0.985 . S
C1056 C1050 1.400 . S
C1056 C1053 1.344 1_565 S
C1056 N1054 1.347 1_565 S
C1057 C1051 1.363 . S
C1057 C1052 1.379 1_565 S
C1057 N1055 1.356 . S
N1058 C1050 1.356 . S
N1058 H1064 0.984 . S
N1058 H1065 0.984 . S
N1059 C1052 1.356 . S
N1059 H1062 0.984 . S
N1059 H1063 0.985 . S
H1060 N1055 0.984 . S
H1061 N1055 0.985 . S
H1062 N1059 0.984 . S
H1063 N1059 0.985 . S
H1064 N1058 0.984 . S
H1065 N1058 0.984 . S
H1066 N1054 0.984 1_565 S
H1067 N1054 0.985 . S
C1068 C1069 1.363 . S
C1068 C1074 1.379 . S
C1068 N1076 1.356 . S
C1069 C1068 1.363 . S
C1069 C1075 1.363 1_554 S
C1070 C1071 1.363 . S
C1070 C1075 1.379 . S
C1070 N1077 1.356 . S
C1071 C1070 1.363 . S
C1071 C1074 1.363 1_556 S
N1072 C1074 1.356 . S
N1072 H1084 0.984 . S
N1072 H1085 0.985 . S
N1073 C1075 1.356 . S
N1073 H1078 0.984 . S
N1073 H1079 0.985 . S
C1074 C1068 1.379 . S
C1074 C1071 1.363 1_554 S
C1074 N1072 1.356 . S
C1075 C1069 1.363 1_556 S
C1075 C1070 1.379 . S
C1075 N1073 1.356 . S
N1076 C1068 1.356 . S
N1076 H1082 0.984 . S
N1076 H1083 0.984 . S
N1077 C1070 1.356 . S
N1077 H1080 0.984 . S
N1077 H1081 0.985 . S
H1078 N1073 0.984 . S
H1079 N1073 0.985 . S
H1080 N1077 0.984 . S
H1081 N1077 0.985 . S
H1082 N1076 0.984 . S
H1083 N1076 0.984 . S
H1084 N1072 0.984 . S
H1085 N1072 0.985 . S
C1086 C1087 1.363 1_556 S
C1086 C1092 1.379 . S
C1086 N1094 1.356 . S
C1087 C1086 1.363 1_554 S
C1087 C1093 1.363 . S
C1088 C1089 1.363 1_554 S
C1088 C1093 1.379 . S
C1088 N1095 1.356 . S
C1089 C1088 1.363 1_556 S
C1089 C1092 1.363 . S
N1090 C1092 1.356 . S
N1090 H1102 0.984 . S
N1090 H1103 0.985 . S
N1091 C1093 1.356 . S
N1091 H1096 0.984 . S
N1091 H1097 0.985 . S
C1092 C1086 1.379 . S
C1092 C1089 1.363 . S
C1092 N1090 1.356 . S
C1093 C1087 1.363 . S
C1093 C1088 1.379 . S
C1093 N1091 1.356 . S
N1094 C1086 1.356 . S
N1094 H1100 0.984 . S
N1094 H1101 0.984 . S
N1095 C1088 1.356 . S
N1095 H1098 0.984 . S
N1095 H1099 0.985 . S
H1096 N1091 0.984 . S
H1097 N1091 0.985 . S
H1098 N1095 0.984 . S
H1099 N1095 0.985 . S
H1100 N1094 0.984 . S
H1101 N1094 0.984 . S
H1102 N1090 0.984 . S
H1103 N1090 0.985 . S
C1104 C1105 1.363 . S
C1104 C1110 1.379 . S
C1104 N1112 1.356 1_455 S
C1105 C1104 1.363 . S
C1105 C1111 1.363 . S
C1106 C1107 1.363 . S
C1106 C1111 1.379 . S
C1106 N1113 1.356 . S
C1107 C1106 1.363 . S
C1107 C1110 1.363 . S
N1108 C1110 1.356 1_655 S
N1108 H1120 0.984 . S
N1108 H1121 0.985 . S
N1109 C1111 1.356 . S
N1109 H1114 0.984 . S
N1109 H1115 0.985 . S
C1110 C1104 1.379 . S
C1110 C1107 1.363 . S
C1110 N1108 1.356 1_455 S
C1111 C1105 1.363 . S
C1111 C1106 1.379 . S
C1111 N1109 1.356 . S
N1112 C1104 1.356 1_655 S
N1112 H1118 0.984 . S
N1112 H1119 0.984 . S
N1113 C1106 1.356 . S
N1113 H1116 0.984 . S
N1113 H1117 0.985 . S
H1114 N1109 0.984 . S
H1115 N1109 0.985 . S
H1116 N1113 0.984 . S
H1117 N1113 0.985 . S
H1118 N1112 0.984 . S
H1119 N1112 0.984 . S
H1120 N1108 0.984 . S
H1121 N1108 0.985 . S
C1122 C1123 1.363 . S
C1122 C1128 1.379 . S
C1122 N1130 1.356 1_545 S
C1123 C1122 1.363 . S
C1123 C1129 1.363 . S
C1124 C1125 1.363 . S
C1124 C1129 1.379 . S
C1124 N1131 1.356 . S
C1125 C1124 1.363 . S
C1125 C1128 1.363 . S
N1126 C1128 1.356 1_565 S
N1126 H1138 0.984 . S
N1126 H1139 0.985 . S
N1127 C1129 1.356 . S
N1127 H1132 0.984 . S
N1127 H1133 0.985 . S
C1128 C1122 1.379 . S
C1128 C1125 1.363 . S
C1128 N1126 1.356 1_545 S
C1129 C1123 1.363 . S
C1129 C1124 1.379 . S
C1129 N1127 1.356 . S
N1130 C1122 1.356 1_565 S
N1130 H1136 0.984 . S
N1130 H1137 0.984 1_565 S
N1131 C1124 1.356 . S
N1131 H1134 0.984 . S
N1131 H1135 0.985 . S
H1132 N1127 0.984 . S
H1133 N1127 0.985 . S
H1134 N1131 0.984 . S
H1135 N1131 0.985 . S
H1136 N1130 0.984 . S
H1137 N1130 0.984 1_545 S
H1138 N1126 0.984 . S
H1139 N1126 0.985 . S
C1140 C1141 1.363 . S
C1140 C1146 1.379 . S
C1140 N1148 1.356 . S
C1141 C1140 1.363 . S
C1141 C1147 1.363 . S
C1142 C1143 1.363 . S
C1142 C1147 1.379 . S
C1142 N1149 1.356 . S
C1143 C1142 1.363 . S
C1143 C1146 1.363 . S
N1144 C1146 1.356 . S
N1144 H1156 0.984 . S
N1144 H1157 0.985 . S
N1145 C1147 1.356 . S
N1145 H1150 0.984 . S
N1145 H1151 0.985 . S
C1146 C1140 1.379 . S
C1146 C1143 1.363 . S
C1146 N1144 1.356 . S
C1147 C1141 1.363 . S
C1147 C1142 1.379 . S
C1147 N1145 1.356 . S
N1148 C1140 1.356 . S
N1148 H1154 0.984 . S
N1148 H1155 0.984 . S
N1149 C1142 1.356 . S
N1149 H1152 0.984 . S
N1149 H1153 0.985 . S
H1150 N1145 0.984 . S
H1151 N1145 0.985 . S
H1152 N1149 0.984 . S
H1153 N1149 0.985 . S
H1154 N1148 0.984 . S
H1155 N1148 0.984 . S
H1156 N1144 0.984 . S
H1157 N1144 0.985 . S
C1158 C1159 1.363 . S
C1158 C1164 1.379 . S
C1158 N1166 1.356 . S
C1159 C1158 1.363 . S
C1159 C1165 1.363 . S
C1160 C1161 1.363 . S
C1160 C1165 1.379 . S
C1160 N1167 1.356 . S
C1161 C1160 1.363 . S
C1161 C1164 1.363 . S
N1162 C1164 1.356 . S
N1162 H1174 0.984 . S
N1162 H1175 0.985 . S
N1163 C1165 1.356 . S
N1163 H1168 0.984 . S
N1163 H1169 0.985 . S
C1164 C1158 1.379 . S
C1164 C1161 1.363 . S
C1164 N1162 1.356 . S
C1165 C1159 1.363 . S
C1165 C1160 1.379 . S
C1165 N1163 1.356 . S
N1166 C1158 1.356 . S
N1166 H1172 0.984 . S
N1166 H1173 0.984 . S
N1167 C1160 1.356 . S
N1167 H1170 0.984 . S
N1167 H1171 0.985 . S
H1168 N1163 0.984 . S
H1169 N1163 0.985 . S
H1170 N1167 0.984 . S
H1171 N1167 0.985 . S
H1172 N1166 0.984 . S
H1173 N1166 0.984 . S
H1174 N1162 0.984 . S
H1175 N1162 0.985 . S
C1176 C1177 1.363 . S
C1176 C1182 1.379 . S
C1176 N1184 1.356 . S
C1177 C1176 1.363 . S
C1177 C1183 1.363 . S
C1178 C1179 1.363 . S
C1178 C1183 1.379 . S
C1178 N1185 1.356 . S
C1179 C1178 1.363 . S
C1179 C1182 1.363 . S
N1180 C1182 1.356 . S
N1180 H1192 0.984 1_655 S
N1180 H1193 0.985 . S
N1181 C1183 1.356 . S
N1181 H1186 0.984 . S
N1181 H1187 0.985 . S
C1182 C1176 1.379 . S
C1182 C1179 1.363 . S
C1182 N1180 1.356 . S
C1183 C1177 1.363 . S
C1183 C1178 1.379 . S
C1183 N1181 1.356 . S
N1184 C1176 1.356 . S
N1184 H1190 0.984 . S
N1184 H1191 0.984 . S
N1185 C1178 1.356 . S
N1185 H1188 0.984 . S
N1185 H1189 0.985 . S
H1186 N1181 0.984 . S
H1187 N1181 0.985 . S
H1188 N1185 0.984 . S
H1189 N1185 0.985 . S
H1190 N1184 0.984 . S
H1191 N1184 0.984 . S
H1192 N1180 0.984 1_455 S
H1193 N1180 0.985 . S
C1194 C1195 1.363 1_545 S
C1194 C1200 1.379 . S
C1194 N1202 1.356 . S
C1195 C1194 1.363 1_565 S
C1195 C1201 1.363 . S
C1196 C1197 1.363 . S
C1196 C1201 1.379 . S
C1196 N1203 1.356 . S
C1197 C1196 1.363 . S
C1197 C1200 1.363 1_565 S
N1198 C1200 1.356 . S
N1198 H1210 0.984 . S
N1198 H1211 0.985 . S
N1199 C1201 1.356 . S
N1199 H1204 0.984 . S
N1199 H1205 0.985 . S
C1200 C1194 1.379 . S
C1200 C1197 1.363 1_545 S
C1200 N1198 1.356 . S
C1201 C1195 1.363 . S
C1201 C1196 1.379 . S
C1201 N1199 1.356 . S
N1202 C1194 1.356 . S
N1202 H1208 0.984 . S
N1202 H1209 0.984 . S
N1203 C1196 1.356 . S
N1203 H1206 0.984 . S
N1203 H1207 0.985 . S
H1204 N1199 0.984 . S
H1205 N1199 0.985 . S
H1206 N1203 0.984 . S
H1207 N1203 0.985 . S
H1208 N1202 0.984 . S
H1209 N1202 0.984 . S
H1210 N1198 0.984 . S
H1211 N1198 0.985 . S
C1212 C1213 1.363 . S
C1212 C1218 1.379 . S
C1212 N1220 1.356 . S
C1213 C1212 1.363 . S
C1213 C1219 1.363 . S
C1214 C1215 1.363 . S
C1214 C1219 1.379 . S
C1214 N1221 1.356 . S
C1215 C1214 1.363 . S
C1215 C1218 1.363 . S
N1216 C1218 1.356 . S
N1216 H1228 0.984 . S
N1216 H1229 0.985 . S
N1217 C1219 1.356 . S
N1217 H1222 0.984 . S
N1217 H1223 0.985 . S
C1218 C1212 1.379 . S
C1218 C1215 1.363 . S
C1218 N1216 1.356 . S
C1219 C1213 1.363 . S
C1219 C1214 1.379 . S
C1219 N1217 1.356 . S
N1220 C1212 1.356 . S
N1220 H1226 0.984 . S
N1220 H1227 0.984 . S
N1221 C1214 1.356 . S
N1221 H1224 0.984 . S
N1221 H1225 0.985 . S
H1222 N1217 0.984 . S
H1223 N1217 0.985 . S
H1224 N1221 0.984 . S
H1225 N1221 0.985 . S
H1226 N1220 0.984 . S
H1227 N1220 0.984 . S
H1228 N1216 0.984 . S
H1229 N1216 0.985 . S
C1230 C1231 1.363 . S
C1230 C1236 1.379 . S
C1230 N1238 1.356 . S
C1231 C1230 1.363 . S
C1231 C1237 1.363 . S
C1232 C1233 1.363 . S
C1232 C1237 1.379 . S
C1232 N1239 1.356 . S
C1233 C1232 1.363 . S
C1233 C1236 1.363 . S
N1234 C1236 1.356 . S
N1234 H1246 0.984 . S
N1234 H1247 0.985 . S
N1235 C1237 1.356 . S
N1235 H1240 0.984 . S
N1235 H1241 0.985 . S
C1236 C1230 1.379 . S
C1236 C1233 1.363 . S
C1236 N1234 1.356 . S
C1237 C1231 1.363 . S
C1237 C1232 1.379 . S
C1237 N1235 1.356 . S
N1238 C1230 1.356 . S
N1238 H1244 0.984 . S
N1238 H1245 0.984 . S
N1239 C1232 1.356 . S
N1239 H1242 0.984 . S
N1239 H1243 0.985 . S
H1240 N1235 0.984 . S
H1241 N1235 0.985 . S
H1242 N1239 0.984 . S
H1243 N1239 0.985 . S
H1244 N1238 0.984 . S
H1245 N1238 0.984 . S
H1246 N1234 0.984 . S
H1247 N1234 0.985 . S
C817 C391 2.748 . S
C819 C548 2.838 . S
C837 C631 2.837 . S
C835 C451 2.761 . S
C855 C716 2.845 . S
C853 C241 2.351 . S
C873 C800 2.820 . S
C871 C331 2.331 . S
C891 C536 2.838 1_565 S
C889 C121 2.387 . S
C907 C211 2.725 . S
C909 C619 2.837 . S
C925 C31 2.721 . S
C927 C704 2.845 . S
C943 C91 2.369 . S
C945 C788 2.820 1_655 S
C963 C538 0.776 . S
C961 C301 0.762 . S
C981 C634 0.765 . S
C979 C380 0.765 . S
C999 C706 0.798 . S
C997 C440 0.793 . S
C1015 C260 0.758 . S
C1017 C790 0.768 . S
C1033 C61 0.769 . S
C1035 C550 0.776 . S
C1053 C622 0.765 . S
C1051 C140 0.762 . S
C1071 C718 0.798 . S
C1069 C200 0.780 . S
C1087 C20 0.761 . S
C1089 C802 0.768 . S
C1105 C320 3.067 . S
C1107 C535 3.303 . S
C1123 C361 2.678 . S
C1125 C620 3.404 . S
C1143 C703 3.326 . S
C1141 C421 2.697 . S
C1161 C787 3.326 . S
C1159 C271 3.090 . S
C1177 C80 3.086 . S
C1179 C547 3.303 . S
C1197 C632 3.404 . S
C1195 C151 3.089 . S
C1215 C715 3.326 . S
C1213 C181 2.672 . S
C1231 C1 2.676 . S
C1233 C799 3.327 . S
