# Generated by pormake.
# Topology zzz, (3,6)-cn, num edge types: 1
# Building blocks:
#     Node 0, Type 0, BuildingBlock: MIDCAF_clean_linker_0, # of connection points: 3
#     Node 1, Type 0, BuildingBlock: MIDCAF_clean_linker_0, # of connection points: 3
#     Node 2, Type 0, BuildingBlock: MIDCAF_clean_linker_0, # of connection points: 3
#     Node 3, Type 0, BuildingBlock: MIDCAF_clean_linker_0, # of connection points: 3
#     Node 4, Type 0, BuildingBlock: MIDCAF_clean_linker_0, # of connection points: 3
#     Node 5, Type 0, BuildingBlock: MIDCAF_clean_linker_0, # of connection points: 3
#     Node 6, Type 0, BuildingBlock: MIDCAF_clean_linker_0, # of connection points: 3
#     Node 7, Type 0, BuildingBlock: MIDCAF_clean_linker_0, # of connection points: 3
#     Node 8, Type 1, BuildingBlock: FUNLAD_clean_sbu_0, # of connection points: 6
#     Node 9, Type 1, BuildingBlock: FUNLAD_clean_sbu_0, # of connection points: 6
#     Node 10, Type 1, BuildingBlock: FUNLAD_clean_sbu_0, # of connection points: 6
#     Node 11, Type 1, BuildingBlock: FUNLAD_clean_sbu_0, # of connection points: 6
#     Edge 12, Type (0, 1), BuildingBlock: TEMPAE_clean_linker_10, # of connection points: 2
#     Edge 13, Type (0, 1), BuildingBlock: TEMPAE_clean_linker_10, # of connection points: 2
#     Edge 14, Type (0, 1), BuildingBlock: TEMPAE_clean_linker_10, # of connection points: 2
#     Edge 15, Type (0, 1), BuildingBlock: TEMPAE_clean_linker_10, # of connection points: 2
#     Edge 16, Type (0, 1), BuildingBlock: TEMPAE_clean_linker_10, # of connection points: 2
#     Edge 17, Type (0, 1), BuildingBlock: TEMPAE_clean_linker_10, # of connection points: 2
#     Edge 18, Type (0, 1), BuildingBlock: TEMPAE_clean_linker_10, # of connection points: 2
#     Edge 19, Type (0, 1), BuildingBlock: TEMPAE_clean_linker_10, # of connection points: 2
#     Edge 20, Type (0, 1), BuildingBlock: TEMPAE_clean_linker_10, # of connection points: 2
#     Edge 21, Type (0, 1), BuildingBlock: TEMPAE_clean_linker_10, # of connection points: 2
#     Edge 22, Type (0, 1), BuildingBlock: TEMPAE_clean_linker_10, # of connection points: 2
#     Edge 23, Type (0, 1), BuildingBlock: TEMPAE_clean_linker_10, # of connection points: 2
#     Edge 24, Type (0, 1), BuildingBlock: TEMPAE_clean_linker_10, # of connection points: 2
#     Edge 25, Type (0, 1), BuildingBlock: TEMPAE_clean_linker_10, # of connection points: 2
#     Edge 26, Type (0, 1), BuildingBlock: TEMPAE_clean_linker_10, # of connection points: 2
#     Edge 27, Type (0, 1), BuildingBlock: TEMPAE_clean_linker_10, # of connection points: 2
#     Edge 28, Type (0, 1), BuildingBlock: TEMPAE_clean_linker_10, # of connection points: 2
#     Edge 29, Type (0, 1), BuildingBlock: TEMPAE_clean_linker_10, # of connection points: 2
#     Edge 30, Type (0, 1), BuildingBlock: TEMPAE_clean_linker_10, # of connection points: 2
#     Edge 31, Type (0, 1), BuildingBlock: TEMPAE_clean_linker_10, # of connection points: 2
#     Edge 32, Type (0, 1), BuildingBlock: TEMPAE_clean_linker_10, # of connection points: 2
#     Edge 33, Type (0, 1), BuildingBlock: TEMPAE_clean_linker_10, # of connection points: 2
#     Edge 34, Type (0, 1), BuildingBlock: TEMPAE_clean_linker_10, # of connection points: 2
#     Edge 35, Type (0, 1), BuildingBlock: TEMPAE_clean_linker_10, # of connection points: 2
# Relax obj value: 0.281
# Max RMSD: 0.227
# Mean RMSD: 0.193
data_MOF--net-zzz--node1-FUNLAD_clean_sbu_0--node2-MIDCAF_clean_linker_0--edge1-TEMPAE_clean_linker_10
_symmetry_space_group_name_H-M    P1
_symmetry_Int_Tables_number       1
_symmetry_cell_setting            triclinic
loop_
_symmetry_equiv_pos_as_xyz
'x, y, z'
_cell_length_a     58.164084
_cell_length_b     62.874093
_cell_length_c     22.761637
_cell_angle_alpha  86.845955
_cell_angle_beta   87.281389
_cell_angle_gamma 92.346787
loop_
_atom_site_label
_atom_site_type_symbol
_atom_site_fract_x
_atom_site_fract_y
_atom_site_fract_z
_atom_type_partial_charge
C0 C 0.85326 0.42891 0.38636 0.0
C1 C 0.84887 0.44997 0.39952 0.0
C2 C 0.83243 0.46098 0.36777 0.0
C3 C 0.82136 0.45136 0.32199 0.0
H4 H 0.76716 0.45442 0.19399 0.0
H5 H 0.73366 0.46522 0.14073 0.0
H6 H 0.73399 0.40628 0.05138 0.0
H7 H 0.76795 0.39609 0.10239 0.0
H8 H 0.82327 0.38629 0.0596 0.0
H9 H 0.854 0.38029 0.98666 0.0
H10 H 0.90459 0.39507 0.11317 0.0
H11 H 0.87414 0.40009 0.1863 0.0
H12 H 0.8471 0.40357 0.32952 0.0
H13 H 0.86601 0.42009 0.40952 0.0
H14 H 0.82869 0.47722 0.37717 0.0
H15 H 0.8095 0.46047 0.29652 0.0
N16 N 0.79842 0.42668 0.23002 0.0
N17 N 0.80739 0.40753 0.14666 0.0
N18 N 0.83392 0.41044 0.21994 0.0
C19 C 0.7923 0.41906 0.17781 0.0
C20 C 0.82831 0.40325 0.16723 0.0
C21 C 0.81913 0.42198 0.25177 0.0
C22 C 0.7703 0.42451 0.15191 0.0
C23 C 0.75987 0.44371 0.16341 0.0
C24 C 0.74063 0.44986 0.13291 0.0
C25 C 0.73126 0.43678 0.09094 0.0
C26 C 0.7411 0.41708 0.08194 0.0
C27 C 0.76048 0.41113 0.1116 0.0
C28 C 0.84621 0.39429 0.12835 0.0
C29 C 0.84095 0.38765 0.07235 0.0
C30 C 0.85859 0.38429 0.0304 0.0
C31 C 0.88182 0.38775 0.04338 0.0
C32 C 0.88697 0.39218 0.10133 0.0
C33 C 0.86938 0.39527 0.1434 0.0
C34 C 0.82694 0.43078 0.30664 0.0
C35 C 0.84253 0.41949 0.34027 0.0
C36 C 0.89907 0.80948 0.32971 0.0
C37 C 0.91565 0.80567 0.37147 0.0
C38 C 0.92956 0.788 0.3661 0.0
C39 C 0.92867 0.77588 0.3164 0.0
H40 H 0.93139 0.71347 0.20051 0.0
H41 H 0.93667 0.67854 0.15962 0.0
H42 H 0.92609 0.70615 0.98549 0.0
H43 H 0.92145 0.74074 0.02569 0.0
H44 H 0.96461 0.78516 0.01924 0.0
H45 H 0.98576 0.81417 0.96139 0.0
H46 H 0.9548 0.85989 0.07202 0.0
H47 H 0.93361 0.83109 0.12976 0.0
H48 H 0.88726 0.80233 0.24506 0.0
H49 H 0.88825 0.82304 0.3324 0.0
H50 H 0.94239 0.78465 0.39794 0.0
H51 H 0.94115 0.76376 0.31026 0.0
N52 N 0.91975 0.75556 0.19387 0.0
N53 N 0.93525 0.76806 0.10023 0.0
N54 N 0.92839 0.79213 0.17271 0.0
C55 C 0.92684 0.75165 0.13759 0.0
C56 C 0.9362 0.78831 0.1176 0.0
C57 C 0.92013 0.77602 0.21086 0.0
C58 C 0.92643 0.72987 0.11615 0.0
C59 C 0.92985 0.7119 0.15369 0.0
C60 C 0.93285 0.69195 0.13028 0.0
C61 C 0.9323 0.68971 0.06913 0.0
C62 C 0.92729 0.70745 0.03252 0.0
C63 C 0.92454 0.72728 0.05565 0.0
C64 C 0.94744 0.80581 0.07916 0.0
C65 C 0.96212 0.80141 0.03088 0.0
C66 C 0.97441 0.81796 0.99812 0.0
C67 C 0.97199 0.8392 0.01259 0.0
C68 C 0.9569 0.84364 0.05985 0.0
C69 C 0.94481 0.82712 0.09293 0.0
C70 C 0.91404 0.78144 0.27136 0.0
C71 C 0.89843 0.79757 0.27979 0.0
C72 C 0.70818 0.98798 0.32447 0.0
C73 C 0.69901 0.00338 0.36064 0.0
C74 C 0.70668 0.0248 0.34977 0.0
C75 C 0.72172 0.03088 0.30152 0.0
H76 H 0.79686 0.05419 0.06473 0.0
H77 H 0.83315 0.04816 0.01271 0.0
H78 H 0.82862 0.98221 0.07851 0.0
H79 H 0.79248 0.98879 0.13355 0.0
H80 H 0.73125 0.04029 0.99578 0.0
H81 H 0.69983 0.0505 0.93551 0.0
H82 H 0.66654 0.07849 0.08497 0.0
H83 H 0.69748 0.0669 0.14613 0.0
H84 H 0.72913 0.98216 0.24694 0.0
H85 H 0.70273 0.97133 0.33186 0.0
H86 H 0.69981 0.03713 0.37609 0.0
H87 H 0.72592 0.0477 0.29173 0.0
N88 N 0.76067 0.01811 0.18294 0.0
N89 N 0.75421 0.03736 0.09384 0.0
N90 N 0.72577 0.0351 0.17009 0.0
C91 C 0.76831 0.02569 0.12763 0.0
C92 C 0.73293 0.04205 0.1147 0.0
C93 C 0.73934 0.02315 0.20436 0.0
C94 C 0.79176 0.02193 0.10291 0.0
C95 C 0.80375 0.03844 0.0687 0.0
C96 C 0.8245 0.03489 0.03827 0.0
C97 C 0.83371 0.01453 0.03982 0.0
C98 C 0.82217 0.99813 0.07618 0.0
C99 C 0.80145 0.00185 0.10778 0.0
C100 C 0.71661 0.05248 0.07583 0.0
C101 C 0.71747 0.04904 0.01542 0.0
C102 C 0.69941 0.05507 0.9807 0.0
C103 C 0.68029 0.0651 0.00535 0.0
C104 C 0.68058 0.07025 0.06474 0.0
C105 C 0.69839 0.06376 0.09978 0.0
C106 C 0.72981 0.01571 0.26352 0.0
C107 C 0.72355 0.99409 0.27642 0.0
C108 C 0.55455 0.6421 0.07275 0.0
C109 C 0.53453 0.64595 0.04249 0.0
C110 C 0.52333 0.66504 0.04962 0.0
C111 C 0.53217 0.68018 0.08624 0.0
H112 H 0.59552 0.76086 0.18949 0.0
H113 H 0.5915 0.79655 0.14322 0.0
H114 H 0.52076 0.77977 0.10893 0.0
H115 H 0.52525 0.74404 0.15239 0.0
H116 H 0.56575 0.70429 0.35592 0.0
H117 H 0.57177 0.67951 0.43932 0.0
H118 H 0.62356 0.64901 0.33477 0.0
H119 H 0.61628 0.67305 0.25057 0.0
H120 H 0.57849 0.65354 0.13343 0.0
H121 H 0.56337 0.6274 0.06796 0.0
H122 H 0.50789 0.66828 0.02648 0.0
H123 H 0.52322 0.6948 0.09111 0.0
N124 N 0.55668 0.71269 0.14967 0.0
N125 N 0.57635 0.72024 0.23466 0.0
N126 N 0.57299 0.68514 0.20424 0.0
C127 C 0.56456 0.72703 0.18727 0.0
C128 C 0.58055 0.69915 0.24303 0.0
C129 C 0.56096 0.69176 0.15769 0.0
C130 C 0.56075 0.74975 0.17391 0.0
C131 C 0.57899 0.76509 0.17336 0.0
C132 C 0.57666 0.78549 0.14676 0.0
C133 C 0.55596 0.79086 0.12102 0.0
C134 C 0.53717 0.77597 0.12654 0.0
C135 C 0.53963 0.75558 0.15202 0.0
C136 C 0.59046 0.69042 0.29701 0.0
C137 C 0.57909 0.69285 0.35175 0.0
C138 C 0.58256 0.67856 0.39955 0.0
C139 C 0.59773 0.6618 0.39344 0.0
C140 C 0.61121 0.66125 0.34057 0.0
C141 C 0.60732 0.6752 0.29253 0.0
C142 C 0.55205 0.67621 0.11725 0.0
C143 C 0.56311 0.657 0.11026 0.0
C144 C 0.18134 0.5671 0.02367 0.0
C145 C 0.18685 0.54648 0.0086 0.0
C146 C 0.20407 0.53602 0.03882 0.0
C147 C 0.21488 0.5457 0.08484 0.0
H148 H 0.26862 0.54175 0.20989 0.0
H149 H 0.30317 0.53084 0.25932 0.0
H150 H 0.30217 0.58761 0.35752 0.0
H151 H 0.26766 0.5984 0.30904 0.0
H152 H 0.20712 0.59419 0.36185 0.0
H153 H 0.17417 0.5995 0.427 0.0
H154 H 0.13494 0.61834 0.27739 0.0
H155 H 0.16786 0.61176 0.21159 0.0
H156 H 0.18647 0.59212 0.08215 0.0
H157 H 0.16798 0.57547 0.00166 0.0
H158 H 0.20868 0.52014 0.02792 0.0
H159 H 0.22744 0.53697 0.10893 0.0
N160 N 0.237 0.56948 0.17822 0.0
N161 N 0.22845 0.58817 0.26258 0.0
N162 N 0.20179 0.58619 0.18917 0.0
C163 C 0.24332 0.57667 0.23072 0.0
C164 C 0.20763 0.59297 0.2422 0.0
C165 C 0.21633 0.57453 0.15684 0.0
C166 C 0.26539 0.57089 0.25575 0.0
C167 C 0.27596 0.55201 0.24149 0.0
C168 C 0.2956 0.5457 0.26996 0.0
C169 C 0.30525 0.55839 0.31221 0.0
C170 C 0.29515 0.57761 0.32485 0.0
C171 C 0.27534 0.58371 0.29728 0.0
C172 C 0.18994 0.60199 0.2814 0.0
C173 C 0.1917 0.6 0.34275 0.0
C174 C 0.17268 0.60324 0.38039 0.0
C175 C 0.15154 0.60893 0.35764 0.0
C176 C 0.15067 0.61331 0.29648 0.0
C177 C 0.1696 0.60966 0.2587 0.0
C178 C 0.20829 0.56579 0.10205 0.0
C179 C 0.19183 0.57658 0.07006 0.0
C180 C 0.13711 0.18122 0.08905 0.0
C181 C 0.12769 0.189 0.03672 0.0
C182 C 0.11912 0.20969 0.03473 0.0
C183 C 0.11771 0.22125 0.08573 0.0
H184 H 0.10604 0.28335 0.19243 0.0
H185 H 0.10424 0.31983 0.22596 0.0
H186 H 0.11385 0.29587 0.40417 0.0
H187 H 0.11538 0.25984 0.3712 0.0
H188 H 0.06686 0.21649 0.38111 0.0
H189 H 0.04529 0.18877 0.44349 0.0
H190 H 0.07929 0.14029 0.34898 0.0
H191 H 0.10082 0.16766 0.28723 0.0
H192 H 0.14143 0.18545 0.1803 0.0
H193 H 0.14368 0.16537 0.09301 0.0
H194 H 0.11214 0.21637 0.99485 0.0
H195 H 0.10918 0.23625 0.0845 0.0
N196 N 0.11734 0.24075 0.20855 0.0
N197 N 0.09892 0.23141 0.30148 0.0
N198 N 0.10652 0.20505 0.23604 0.0
C199 C 0.10895 0.2465 0.26218 0.0
C200 C 0.09753 0.21067 0.28845 0.0
C201 C 0.11641 0.21979 0.19602 0.0
C202 C 0.11066 0.2688 0.27932 0.0
C203 C 0.10815 0.28603 0.2385 0.0
C204 C 0.10703 0.30682 0.25767 0.0
C205 C 0.10896 0.31065 0.31762 0.0
C206 C 0.11257 0.29347 0.35764 0.0
C207 C 0.11325 0.2728 0.33879 0.0
C208 C 0.08554 0.19427 0.32921 0.0
C209 C 0.06987 0.19991 0.37409 0.0
C210 C 0.05738 0.1841 0.40939 0.0
C211 C 0.06063 0.16245 0.40087 0.0
C212 C 0.07659 0.15687 0.35676 0.0
C213 C 0.08885 0.17258 0.32126 0.0
C214 C 0.12488 0.21223 0.13918 0.0
C215 C 0.13573 0.19272 0.13952 0.0
C216 C 0.32953 0.97405 0.06592 0.0
C217 C 0.33644 0.99554 0.05277 0.0
C218 C 0.32649 0.01118 0.08672 0.0
C219 C 0.31117 0.0053 0.13505 0.0
H220 H 0.25868 0.97777 0.40936 0.0
H221 H 0.22168 0.9833 0.45781 0.0
H222 H 0.19283 0.99667 0.28918 0.0
H223 H 0.23048 0.99119 0.23963 0.0
H224 H 0.30709 0.96126 0.42094 0.0
H225 H 0.33848 0.95027 0.48008 0.0
H226 H 0.37085 0.92262 0.32889 0.0
H227 H 0.33985 0.93482 0.26879 0.0
H228 H 0.31106 0.95141 0.12628 0.0
H229 H 0.33699 0.96156 0.04127 0.0
H230 H 0.33134 0.02789 0.0775 0.0
H231 H 0.30506 0.01752 0.16294 0.0
N232 N 0.27639 0.98347 0.23447 0.0
N233 N 0.28437 0.96622 0.32518 0.0
N234 N 0.31061 0.96512 0.24481 0.0
C235 C 0.26996 0.97777 0.29203 0.0
C236 C 0.30461 0.95978 0.30199 0.0
C237 C 0.29681 0.97695 0.21085 0.0
C238 C 0.24761 0.9837 0.32023 0.0
C239 C 0.24459 0.98194 0.3821 0.0
C240 C 0.22325 0.98503 0.41015 0.0
C241 C 0.20413 0.98998 0.37746 0.0
C242 C 0.20724 0.9928 0.31566 0.0
C243 C 0.22879 0.98967 0.28727 0.0
C244 C 0.3212 0.94926 0.33997 0.0
C245 C 0.32066 0.95246 0.40054 0.0
C246 C 0.33868 0.94596 0.43468 0.0
C247 C 0.3575 0.93572 0.4093 0.0
C248 C 0.357 0.93094 0.34967 0.0
C249 C 0.33916 0.93783 0.31524 0.0
C250 C 0.30581 0.98369 0.15062 0.0
C251 C 0.31458 0.9682 0.11453 0.0
C252 C 0.48314 0.35674 0.33377 0.0
C253 C 0.5031 0.35304 0.36438 0.0
C254 C 0.51448 0.33404 0.35754 0.0
C255 C 0.50582 0.31878 0.32098 0.0
H256 H 0.44243 0.23755 0.22063 0.0
H257 H 0.44631 0.20211 0.2686 0.0
H258 H 0.51705 0.21899 0.30262 0.0
H259 H 0.5127 0.25448 0.25741 0.0
H260 H 0.47235 0.29418 0.05221 0.0
H261 H 0.4658 0.31885 0.96895 0.0
H262 H 0.41311 0.34814 0.07355 0.0
H263 H 0.4209 0.32423 0.15761 0.0
H264 H 0.45939 0.34505 0.27297 0.0
H265 H 0.47418 0.37138 0.33836 0.0
H266 H 0.52988 0.33092 0.38096 0.0
H267 H 0.51487 0.3042 0.31643 0.0
N268 N 0.48141 0.28593 0.25851 0.0
N269 N 0.46155 0.27792 0.17415 0.0
N270 N 0.46498 0.31321 0.20319 0.0
C271 C 0.47345 0.27138 0.22158 0.0
C272 C 0.45734 0.29898 0.16505 0.0
C273 C 0.47712 0.30682 0.24978 0.0
C274 C 0.47721 0.2487 0.23591 0.0
C275 C 0.45893 0.23338 0.23706 0.0
C276 C 0.46117 0.21312 0.26465 0.0
C277 C 0.48183 0.20788 0.2908 0.0
C278 C 0.50067 0.22271 0.2847 0.0
C279 C 0.49829 0.24296 0.25822 0.0
C280 C 0.4472 0.30745 0.11111 0.0
C281 C 0.45871 0.30531 0.05639 0.0
C282 C 0.45493 0.31954 0.00868 0.0
C283 C 0.43933 0.33595 0.01487 0.0
C284 C 0.42576 0.33618 0.0677 0.0
C285 C 0.42995 0.3223 0.11565 0.0
C286 C 0.48596 0.32257 0.28975 0.0
C287 C 0.47476 0.34173 0.29631 0.0
C288 C 0.03028 0.96506 0.76818 0.0
N289 N 0.99034 0.9692 0.6217 0.0
C290 C 1.00197 0.95153 0.609 0.0
C291 C 0.99078 0.93432 0.58492 0.0
C292 C 0.96748 0.93537 0.57271 0.0
C293 C 0.95608 0.95416 0.58306 0.0
C294 C 0.96788 0.97097 0.60838 0.0
Zn295 Zn 0.00718 0.99063 0.6712 0.0
C296 C 0.97787 0.00097 0.77765 0.0
N297 N 0.04418 0.03056 0.78353 0.0
C298 C 0.06742 0.02988 0.78788 0.0
C299 C 0.03225 0.04679 0.80557 0.0
C300 C 0.04372 0.06335 0.83214 0.0
C301 C 0.06772 0.06344 0.83484 0.0
C302 C 0.07966 0.04641 0.813 0.0
Zn303 Zn 0.0269 0.00938 0.73401 0.0
O304 O 0.0181 0.96469 0.72342 0.0
C305 C 0.05613 0.99895 0.62714 0.0
O306 O 0.0376 0.98288 0.78543 0.0
H307 H 0.0139 0.04739 0.80056 0.0
H308 H 0.01979 0.95037 0.61982 0.0
H309 H 0.07663 0.01691 0.77004 0.0
O310 O 0.0373 0.98983 0.61405 0.0
O311 O 0.05678 0.00832 0.67521 0.0
H312 H 0.95891 0.98507 0.61933 0.0
O313 O 0.01573 0.03543 0.68289 0.0
O314 O 0.99665 0.01723 0.6198 0.0
O315 O 0.99675 0.00999 0.79095 0.0
O316 O 0.97713 0.99165 0.72944 0.0
C317 C 0.00361 0.03505 0.63796 0.0
H318 H 1.00015 0.92015 0.57679 0.0
H319 H 0.93807 0.95545 0.57394 0.0
H320 H 0.03408 0.07639 0.84833 0.0
H321 H 0.09822 0.04608 0.81465 0.0
C322 C 0.48952 0.97666 0.64148 0.0
N323 N 0.50779 0.04175 0.63369 0.0
C324 C 0.50952 0.03989 0.57436 0.0
C325 C 0.5054 0.05715 0.53582 0.0
C326 C 0.49929 0.07656 0.55835 0.0
C327 C 0.49727 0.07802 0.61978 0.0
C328 C 0.50172 0.06032 0.6569 0.0
Zn329 Zn 0.5146 0.01542 0.68587 0.0
C330 C 0.48034 0.00584 0.78434 0.0
N331 N 0.52894 0.95808 0.78354 0.0
C332 C 0.53509 0.93957 0.76005 0.0
C333 C 0.52724 0.95984 0.84291 0.0
C334 C 0.53149 0.94255 0.88121 0.0
C335 C 0.53773 0.92322 0.85838 0.0
C336 C 0.53967 0.92186 0.79692 0.0
Zn337 Zn 0.52209 0.98442 0.73151 0.0
O338 O 0.49288 0.99678 0.63551 0.0
C339 C 0.55628 0.99396 0.63292 0.0
O340 O 0.50033 0.96609 0.67968 0.0
H341 H 0.52256 0.97474 0.86077 0.0
H342 H 0.51413 0.02494 0.5567 0.0
H343 H 0.53634 0.93853 0.71274 0.0
O344 O 0.54383 0.0101 0.62845 0.0
O345 O 0.55109 0.97956 0.67338 0.0
H346 H 0.50044 0.06144 0.70419 0.0
O347 O 0.54386 0.00305 0.78181 0.0
O348 O 0.53639 0.03375 0.73773 0.0
O349 O 0.49284 0.98974 0.78899 0.0
O350 O 0.48555 0.02025 0.74388 0.0
C351 C 0.54725 0.02316 0.7758 0.0
H352 H 0.50684 0.05527 0.48879 0.0
H353 H 0.49275 0.09279 0.63886 0.0
H354 H 0.53008 0.94435 0.92829 0.0
H355 H 0.54427 0.90715 0.77761 0.0
C356 C 0.53129 0.47264 0.61935 0.0
N357 N 0.47375 0.51004 0.63473 0.0
C358 C 0.47766 0.51578 0.57649 0.0
C359 C 0.45937 0.52025 0.54102 0.0
C360 C 0.43665 0.51851 0.56523 0.0
C361 C 0.4331 0.51252 0.62558 0.0
C362 C 0.45198 0.50843 0.65971 0.0
Zn363 Zn 0.50165 0.5032 0.68298 0.0
C364 C 0.49391 0.46482 0.76335 0.0
N365 N 0.56184 0.48841 0.77519 0.0
C366 C 0.58357 0.48981 0.7499 0.0
C367 C 0.55795 0.48248 0.83336 0.0
C368 C 0.57622 0.47737 0.86828 0.0
C369 C 0.59879 0.47867 0.84342 0.0
C370 C 0.60243 0.48513 0.78354 0.0
Zn371 Zn 0.53395 0.49536 0.72706 0.0
O372 O 0.51289 0.48283 0.61785 0.0
C373 C 0.54172 0.53371 0.6467 0.0
O374 O 0.54453 0.47482 0.66163 0.0
H375 H 0.54061 0.48172 0.8529 0.0
H376 H 0.49505 0.51684 0.55726 0.0
H377 H 0.58628 0.49453 0.70359 0.0
O378 O 0.52059 0.52927 0.63925 0.0
O379 O 0.55257 0.52176 0.68167 0.0
H380 H 0.44923 0.50379 0.70605 0.0
O381 O 0.52272 0.51573 0.79217 0.0
O382 O 0.49107 0.52375 0.74839 0.0
O383 O 0.51503 0.46931 0.77077 0.0
O384 O 0.48303 0.47675 0.72841 0.0
C385 C 0.50433 0.52595 0.79062 0.0
H386 H 0.46309 0.52519 0.49512 0.0
H387 H 0.41591 0.5107 0.64615 0.0
H388 H 0.57277 0.47269 0.91448 0.0
H389 H 0.61962 0.48619 0.76279 0.0
C390 C 0.03976 0.52871 0.62822 0.0
N391 N 0.04198 0.46234 0.62604 0.0
C392 C 0.04134 0.46551 0.56651 0.0
C393 C 0.05054 0.45075 0.52932 0.0
C394 C 0.06041 0.43247 0.55355 0.0
C395 C 0.06104 0.42968 0.61515 0.0
C396 C 0.05172 0.44491 0.65075 0.0
Zn397 Zn 0.02738 0.48418 0.67802 0.0
C398 C 0.0573 0.49865 0.76977 0.0
N399 N 0.99606 0.53134 0.77939 0.0
C400 C 0.98577 0.54846 0.75469 0.0
C401 C 0.99736 0.52857 0.83885 0.0
C402 C 0.9884 0.54347 0.87592 0.0
C403 C 0.97802 0.56149 0.8517 0.0
C404 C 0.9766 0.56379 0.79018 0.0
Zn405 Zn 0.01059 0.50944 0.72745 0.0
O406 O 0.04317 0.50907 0.6228 0.0
C407 C 0.9806 0.49506 0.63581 0.0
O408 O 0.02584 0.53417 0.66885 0.0
H409 H 0.00558 0.51483 0.85766 0.0
H410 H 0.03343 0.47941 0.54773 0.0
H411 H 0.98496 0.55038 0.70733 0.0
O412 O 0.99789 0.48374 0.62647 0.0
O413 O 0.98093 0.50793 0.67693 0.0
H414 H 0.05211 0.44274 0.69815 0.0
O415 O 0.99576 0.4845 0.78481 0.0
O416 O 0.01132 0.45948 0.7346 0.0
O417 O 0.04036 0.51052 0.77728 0.0
O418 O 0.0567 0.4851 0.73032 0.0
C419 C 0.99854 0.46485 0.77763 0.0
H420 H 0.04943 0.45338 0.48213 0.0
H421 H 0.0687 0.4159 0.63559 0.0
H422 H 0.98963 0.54091 0.92309 0.0
H423 H 0.96902 0.57758 0.76953 0.0
C424 C 0.17396 0.97619 0.45407 0.0
C425 C 0.18109 0.99139 0.40864 0.0
C426 C 0.15313 0.97776 0.48702 0.0
C427 C 0.13887 0.99498 0.47444 0.0
C428 C 0.14562 0.01012 0.42766 0.0
C429 C 0.16661 0.00812 0.39518 0.0
C430 C 0.14658 0.96114 0.53605 0.0
C431 C 0.13091 0.02871 0.4128 0.0
C432 C 0.07646 0.98795 0.53432 0.0
C433 C 0.07707 0.99865 0.58686 0.0
C434 C 0.09624 0.98713 0.49653 0.0
C435 C 0.11722 0.99724 0.51144 0.0
C436 C 0.11783 0.00841 0.5638 0.0
C437 C 0.0978 0.00897 0.60081 0.0
C438 C 0.0948 0.97504 0.44124 0.0
C439 C 0.1398 0.01941 0.58145 0.0
H440 H 0.1848 0.96298 0.4641 0.0
H441 H 0.17201 0.01998 0.36038 0.0
H442 H 0.14533 0.96878 0.57881 0.0
H443 H 0.12941 0.95363 0.52903 0.0
H444 H 0.15926 0.94842 0.53922 0.0
H445 H 0.13804 0.03859 0.37367 0.0
H446 H 0.11319 0.02289 0.40417 0.0
H447 H 0.12955 0.03896 0.45085 0.0
H448 H 0.06054 0.97998 0.52291 0.0
H449 H 0.09848 0.01736 0.64107 0.0
H450 H 0.10607 0.96124 0.44387 0.0
H451 H 0.10109 0.9854 0.40228 0.0
H452 H 0.07696 0.96906 0.43419 0.0
H453 H 0.15294 0.00743 0.58962 0.0
H454 H 0.13717 0.02835 0.62181 0.0
H455 H 0.14687 0.03065 0.54517 0.0
C456 C 0.49486 0.18845 0.38137 0.0
C457 C 0.48333 0.18792 0.32858 0.0
C458 C 0.49665 0.17002 0.41802 0.0
C459 C 0.48637 0.15052 0.40215 0.0
C460 C 0.47433 0.14986 0.34955 0.0
C461 C 0.47301 0.16857 0.31325 0.0
C462 C 0.50969 0.17141 0.47363 0.0
C463 C 0.46302 0.12936 0.33148 0.0
C464 C 0.51104 0.10038 0.46947 0.0
C465 C 0.4955 0.09521 0.51764 0.0
C466 C 0.50797 0.11805 0.43077 0.0
C467 C 0.4888 0.13082 0.44024 0.0
C468 C 0.47282 0.12549 0.48821 0.0
C469 C 0.47644 0.1078 0.52659 0.0
C470 C 0.52557 0.12338 0.38064 0.0
C471 C 0.45207 0.13863 0.49942 0.0
H472 H 0.50234 0.20341 0.39456 0.0
H473 H 0.46415 0.16798 0.27252 0.0
H474 H 0.49822 0.16627 0.51258 0.0
H475 H 0.52419 0.16048 0.47261 0.0
H476 H 0.51673 0.1878 0.47956 0.0
H477 H 0.45358 0.13167 0.29046 0.0
H478 H 0.47624 0.11741 0.32436 0.0
H479 H 0.45076 0.12261 0.36719 0.0
H480 H 0.52594 0.09082 0.46276 0.0
H481 H 0.46425 0.10369 0.56336 0.0
H482 H 0.53418 0.13915 0.38646 0.0
H483 H 0.51699 0.12453 0.33816 0.0
H484 H 0.53895 0.11132 0.37785 0.0
H485 H 0.45776 0.15501 0.50966 0.0
H486 H 0.4406 0.13166 0.53658 0.0
H487 H 0.44199 0.14001 0.4593 0.0
C488 C 0.34425 0.56532 0.35067 0.0
C489 C 0.32521 0.55132 0.34517 0.0
C490 C 0.36259 0.55937 0.38505 0.0
C491 C 0.36163 0.53906 0.41547 0.0
C492 C 0.34254 0.52476 0.40949 0.0
C493 C 0.32462 0.53101 0.37397 0.0
C494 C 0.38284 0.57491 0.38941 0.0
C495 C 0.34074 0.5031 0.4419 0.0
C496 C 0.41742 0.51727 0.46875 0.0
C497 C 0.41693 0.52303 0.52756 0.0
C498 C 0.39952 0.5223 0.43186 0.0
C499 C 0.38041 0.53301 0.4545 0.0
C500 C 0.37947 0.53841 0.51412 0.0
C501 C 0.3978 0.5335 0.54978 0.0
C502 C 0.40124 0.51643 0.36839 0.0
C503 C 0.35923 0.54963 0.54006 0.0
H504 H 0.34476 0.58099 0.32808 0.0
H505 H 0.30976 0.52027 0.37027 0.0
H506 H 0.38413 0.57938 0.43565 0.0
H507 H 0.39909 0.56734 0.37657 0.0
H508 H 0.38141 0.58968 0.36093 0.0
H509 H 0.32503 0.49368 0.43146 0.0
H510 H 0.35606 0.49393 0.43058 0.0
H511 H 0.34039 0.50501 0.49011 0.0
H512 H 0.43184 0.50877 0.45136 0.0
H513 H 0.39732 0.53829 0.59481 0.0
H514 H 0.40092 0.53103 0.33878 0.0
H515 H 0.3862 0.506 0.3588 0.0
H516 H 0.41723 0.50806 0.35765 0.0
H517 H 0.3581 0.56557 0.5172 0.0
H518 H 0.36056 0.55173 0.58794 0.0
H519 H 0.34294 0.54048 0.53332 0.0
C520 C 0.08545 0.34281 0.32656 0.0
C521 C 0.10525 0.33196 0.34033 0.0
C522 C 0.0793 0.36083 0.35653 0.0
C523 C 0.09339 0.36821 0.40092 0.0
C524 C 0.11423 0.35819 0.412 0.0
C525 C 0.11986 0.34012 0.38173 0.0
C526 C 0.05693 0.37105 0.34347 0.0
C527 C 0.12989 0.36574 0.45836 0.0
C528 C 0.08255 0.4221 0.46285 0.0
C529 C 0.06933 0.4161 0.51477 0.0
C530 C 0.0906 0.40672 0.4253 0.0
C531 C 0.08519 0.38486 0.43991 0.0
C532 C 0.07187 0.37873 0.49228 0.0
C533 C 0.06416 0.39441 0.52909 0.0
C534 C 0.10492 0.41384 0.37013 0.0
C535 C 0.06561 0.35558 0.50928 0.0
H536 H 0.07403 0.33643 0.29495 0.0
H537 H 0.1353 0.33185 0.39202 0.0
H538 H 0.04437 0.3677 0.38142 0.0
H539 H 0.0596 0.38862 0.33731 0.0
H540 H 0.04928 0.36499 0.30348 0.0
H541 H 0.14668 0.35791 0.45665 0.0
H542 H 0.13317 0.38326 0.45295 0.0
H543 H 0.12142 0.36215 0.5027 0.0
H544 H 0.08678 0.43884 0.45187 0.0
H545 H 0.05367 0.3897 0.56866 0.0
H546 H 0.09639 0.40829 0.33082 0.0
H547 H 0.12197 0.40656 0.37091 0.0
H548 H 0.10763 0.43145 0.36512 0.0
H549 H 0.05584 0.34841 0.47405 0.0
H550 H 0.05503 0.35349 0.5513 0.0
H551 H 0.08148 0.34656 0.514 0.0
C552 C 0.85816 0.02108 0.94573 0.0
C553 C 0.85474 0.01059 0.00186 0.0
C554 C 0.87819 0.01861 0.91025 0.0
C555 C 0.8952 0.00489 0.93038 0.0
C556 C 0.89162 0.99367 0.98604 0.0
C557 C 0.87154 0.99675 0.02124 0.0
C558 C 0.88129 0.031 0.85143 0.0
C559 C 0.90916 0.97862 0.00874 0.0
C560 C 0.93788 0.98747 0.81168 0.0
C561 C 0.95699 0.00139 0.81793 0.0
C562 C 0.91798 0.9879 0.84926 0.0
C563 C 0.91694 0.00287 0.89355 0.0
C564 C 0.93627 0.01683 0.90036 0.0
C565 C 0.95609 0.01579 0.86287 0.0
C566 C 0.89794 0.97251 0.84107 0.0
C567 C 0.93582 0.03326 0.94629 0.0
H568 H 0.8451 0.03131 0.92918 0.0
H569 H 0.86926 0.98861 0.06446 0.0
H570 H 0.89717 0.04145 0.85034 0.0
H571 H 0.8834 0.0199 0.81554 0.0
H572 H 0.86648 0.04107 0.84219 0.0
H573 H 0.90321 0.97009 0.05111 0.0
H574 H 0.91295 0.96669 0.97587 0.0
H575 H 0.92554 0.98763 0.01534 0.0
H576 H 0.93848 0.97615 0.77747 0.0
H577 H 0.97073 0.02664 0.86803 0.0
H578 H 0.88284 0.98142 0.82732 0.0
H579 H 0.89283 0.96357 0.88339 0.0
H580 H 0.90202 0.9609 0.80739 0.0
H581 H 0.92206 0.04454 0.93729 0.0
H582 H 0.95249 0.04249 0.94718 0.0
H583 H 0.93172 0.02542 0.9906 0.0
C584 C 0.56465 0.83028 0.10037 0.0
C585 C 0.55436 0.81102 0.08419 0.0
C586 C 0.56324 0.84918 0.06493 0.0
C587 C 0.55115 0.84882 0.01238 0.0
C588 C 0.5409 0.82943 0.99567 0.0
C589 C 0.54278 0.8108 0.03144 0.0
C590 C 0.57453 0.86957 0.08386 0.0
C591 C 0.5278 0.82835 0.94006 0.0
C592 C 0.52626 0.89917 0.94701 0.0
C593 C 0.54171 0.90453 0.89877 0.0
C594 C 0.52946 0.88138 0.98519 0.0
C595 C 0.54867 0.86871 0.97513 0.0
C596 C 0.56459 0.87428 0.92718 0.0
C597 C 0.56084 0.89207 0.88933 0.0
C598 C 0.51193 0.8758 0.03532 0.0
C599 C 0.58537 0.86125 0.91536 0.0
H600 H 0.57356 0.83063 0.14107 0.0
H601 H 0.53532 0.79592 0.0176 0.0
H602 H 0.58676 0.87652 0.04836 0.0
H603 H 0.5613 0.88145 0.09158 0.0
H604 H 0.584 0.86703 0.12476 0.0
H605 H 0.52076 0.81201 0.93347 0.0
H606 H 0.5133 0.83927 0.94166 0.0
H607 H 0.53924 0.8337 0.90122 0.0
H608 H 0.51132 0.90863 0.95411 0.0
H609 H 0.57297 0.89634 0.85252 0.0
H610 H 0.52057 0.87439 0.07768 0.0
H611 H 0.50329 0.86009 0.02889 0.0
H612 H 0.49857 0.88786 0.03878 0.0
H613 H 0.59544 0.85963 0.95544 0.0
H614 H 0.59684 0.86845 0.8785 0.0
H615 H 0.57973 0.84495 0.90431 0.0
C616 C 0.69389 0.4552 0.07982 0.0
C617 C 0.71186 0.44382 0.05506 0.0
C618 C 0.67555 0.46176 0.04609 0.0
C619 C 0.67498 0.45654 0.98643 0.0
C620 C 0.69306 0.44516 0.9611 0.0
C621 C 0.71136 0.43915 0.99546 0.0
C622 C 0.65669 0.4741 0.07442 0.0
C623 C 0.69299 0.43913 0.89776 0.0
C624 C 0.61727 0.45406 0.91518 0.0
C625 C 0.61833 0.47312 0.87998 0.0
C626 C 0.63556 0.44851 0.95017 0.0
C627 C 0.65523 0.46253 0.95064 0.0
C628 C 0.65628 0.48192 0.91565 0.0
C629 C 0.63787 0.4869 0.88028 0.0
C630 C 0.63397 0.42751 0.98598 0.0
C631 C 0.67681 0.49741 0.91567 0.0
H632 H 0.69395 0.45874 0.12587 0.0
H633 H 0.72539 0.43085 0.97533 0.0
H634 H 0.65462 0.48929 0.0484 0.0
H635 H 0.64005 0.46481 0.07479 0.0
H636 H 0.66023 0.47777 0.1204 0.0
H637 H 0.70828 0.4301 0.88485 0.0
H638 H 0.67723 0.42922 0.89079 0.0
H639 H 0.69266 0.45367 0.86797 0.0
H640 H 0.60224 0.44331 0.91456 0.0
H641 H 0.63859 0.50174 0.85352 0.0
H642 H 0.63571 0.43027 0.03331 0.0
H643 H 0.64834 0.41752 0.97219 0.0
H644 H 0.61743 0.41848 0.98098 0.0
H645 H 0.67967 0.50195 0.96127 0.0
H646 H 0.67461 0.51212 0.88753 0.0
H647 H 0.69256 0.48974 0.89956 0.0
C648 C 0.95282 0.67027 0.99108 0.0
C649 C 0.93835 0.66951 0.04234 0.0
C650 C 0.9584 0.65168 0.96348 0.0
C651 C 0.94946 0.63169 0.9879 0.0
C652 C 0.93516 0.63068 0.04023 0.0
C653 C 0.92977 0.64964 0.06695 0.0
C654 C 0.97382 0.65346 0.90793 0.0
C655 C 0.9254 0.60962 0.06758 0.0
C656 C 0.94888 0.58812 0.87897 0.0
C657 C 0.96952 0.57818 0.89012 0.0
C658 C 0.94156 0.60494 0.91235 0.0
C659 C 0.95521 0.61199 0.95798 0.0
C660 C 0.97558 0.6015 0.97095 0.0
C661 C 0.98252 0.58476 0.9368 0.0
C662 C 0.91971 0.61571 0.89723 0.0
C663 C 0.99063 0.60857 0.01916 0.0
H664 H 0.95995 0.68552 0.97254 0.0
H665 H 0.91853 0.64896 0.10643 0.0
H666 H 0.98941 0.64418 0.91435 0.0
H667 H 0.96467 0.64662 0.87118 0.0
H668 H 0.97936 0.67024 0.89472 0.0
H669 H 0.91496 0.61152 0.10897 0.0
H670 H 0.9144 0.60167 0.03606 0.0
H671 H 0.93957 0.59888 0.07733 0.0
H672 H 0.93855 0.58289 0.84365 0.0
H673 H 0.99861 0.57734 0.94536 0.0
H674 H 0.92398 0.63226 0.87942 0.0
H675 H 0.90831 0.61673 0.93736 0.0
H676 H 0.91005 0.60718 0.86402 0.0
H677 H 0.99859 0.62461 0.00656 0.0
H678 H 0.0046 0.59743 0.02762 0.0
H679 H 0.98015 0.60988 0.0607 0.0
C680 C 0.05923 0.12831 0.4618 0.0
C681 C 0.04759 0.14548 0.43758 0.0
C682 C 0.04724 0.11139 0.49383 0.0
C683 C 0.02295 0.11163 0.50174 0.0
C684 C 0.01106 0.12907 0.4781 0.0
C685 C 0.02358 0.1459 0.44632 0.0
C686 C 0.06065 0.09322 0.5191 0.0
C687 C 0.98519 0.12979 0.48562 0.0
C688 C 0.99983 0.05564 0.54231 0.0
C689 C 1.00093 0.05529 0.60366 0.0
C690 C 0.00461 0.07469 0.50795 0.0
C691 C 0.01048 0.0936 0.53599 0.0
C692 C 0.00877 0.09373 0.59813 0.0
C693 C 0.00401 0.07452 0.63127 0.0
C694 C 0.00592 0.074 0.44173 0.0
C695 C 0.01462 0.11357 0.62987 0.0
H696 H 0.07782 0.12813 0.45566 0.0
H697 H 0.01456 0.15912 0.42708 0.0
H698 H 0.05763 0.09162 0.56768 0.0
H699 H 0.05464 0.078 0.50132 0.0
H700 H 0.07948 0.09553 0.50883 0.0
H701 H 0.97869 0.14497 0.467 0.0
H702 H 0.97702 0.11637 0.46341 0.0
H703 H 0.97964 0.12781 0.53297 0.0
H704 H 0.99733 0.04081 0.52084 0.0
H705 H 0.00447 0.07433 0.67889 0.0
H706 H 0.02424 0.07362 0.42594 0.0
H707 H 0.99869 0.08843 0.4208 0.0
H708 H 0.99658 0.05964 0.42692 0.0
H709 H 0.03362 0.11626 0.62868 0.0
H710 H 0.00818 0.11211 0.67672 0.0
H711 H 0.00733 0.1278 0.60807 0.0
C712 C 0.40053 0.93701 0.41453 0.0
C713 C 0.37868 0.93285 0.44283 0.0
C714 C 0.42028 0.9393 0.447 0.0
C715 C 0.41808 0.93791 0.50925 0.0
C716 C 0.39654 0.93166 0.53791 0.0
C717 C 0.37715 0.92893 0.50426 0.0
C718 C 0.44306 0.94541 0.41464 0.0
C719 C 0.39341 0.93005 0.60424 0.0
C720 C 0.4711 0.94422 0.60004 0.0
C721 C 0.47183 0.96627 0.60695 0.0
C722 C 0.45382 0.9346 0.56785 0.0
C723 C 0.43672 0.94731 0.54341 0.0
C724 C 0.43733 0.96953 0.55091 0.0
C725 C 0.45497 0.97872 0.58197 0.0
C726 C 0.45396 0.91096 0.55952 0.0
C727 C 0.41924 0.98367 0.52638 0.0
H728 H 0.40213 0.94014 0.36721 0.0
H729 H 0.36051 0.92499 0.52652 0.0
H730 H 0.44655 0.96285 0.41612 0.0
H731 H 0.45737 0.93729 0.43576 0.0
H732 H 0.44301 0.94141 0.3677 0.0
H733 H 0.37699 0.92138 0.61944 0.0
H734 H 0.40789 0.92189 0.62438 0.0
H735 H 0.3932 0.94635 0.62064 0.0
H736 H 0.48415 0.93456 0.61923 0.0
H737 H 0.45527 0.99573 0.58766 0.0
H738 H 0.45549 0.90813 0.51183 0.0
H739 H 0.43747 0.90308 0.57718 0.0
H740 H 0.46836 0.9033 0.58165 0.0
H741 H 0.41969 0.98333 0.47767 0.0
H742 H 0.42176 0.0005 0.5381 0.0
H743 H 0.40182 0.9777 0.5433 0.0
C744 C 0.53397 0.3786 0.39324 0.0
C745 C 0.51182 0.36913 0.40345 0.0
C746 C 0.54148 0.39542 0.42669 0.0
C747 C 0.52656 0.40254 0.47177 0.0
C748 C 0.50458 0.39226 0.48391 0.0
C749 C 0.49738 0.37581 0.4491 0.0
C750 C 0.56486 0.40621 0.41202 0.0
C751 C 0.48831 0.3991 0.53237 0.0
C752 C 0.54501 0.43719 0.59343 0.0
C753 C 0.53525 0.45642 0.57621 0.0
C754 C 0.54373 0.41968 0.55786 0.0
C755 C 0.53285 0.42174 0.50361 0.0
C756 C 0.52498 0.44176 0.48372 0.0
C757 C 0.52603 0.45882 0.52065 0.0
C758 C 0.55211 0.39854 0.58084 0.0
C759 C 0.51376 0.44475 0.42551 0.0
H760 H 0.54502 0.3734 0.35758 0.0
H761 H 0.48033 0.36828 0.45705 0.0
H762 H 0.56269 0.42258 0.39291 0.0
H763 H 0.57458 0.4077 0.45245 0.0
H764 H 0.57525 0.39742 0.37991 0.0
H765 H 0.47272 0.38828 0.53929 0.0
H766 H 0.49718 0.39955 0.57441 0.0
H767 H 0.48275 0.41544 0.52122 0.0
H768 H 0.55202 0.4353 0.63661 0.0
H769 H 0.51865 0.47378 0.50718 0.0
H770 H 0.56168 0.39057 0.54558 0.0
H771 H 0.53706 0.38789 0.596 0.0
H772 H 0.56341 0.40036 0.61842 0.0
H773 H 0.52403 0.43752 0.39007 0.0
H774 H 0.51175 0.46185 0.41271 0.0
H775 H 0.49644 0.43657 0.4287 0.0
C776 C 0.10993 0.5972 0.37504 0.0
C777 C 0.13003 0.60656 0.39631 0.0
C778 C 0.09178 0.58916 0.41372 0.0
C779 C 0.09398 0.59005 0.47515 0.0
C780 C 0.11287 0.6017 0.49648 0.0
C781 C 0.13054 0.61008 0.45666 0.0
C782 C 0.07155 0.57746 0.38898 0.0
C783 C 0.11585 0.60316 0.56166 0.0
C784 C 0.04607 0.5658 0.58141 0.0
C785 C 0.05317 0.54482 0.58949 0.0
C786 C 0.05911 0.58091 0.54431 0.0
C787 C 0.07983 0.57489 0.51582 0.0
C788 C 0.08718 0.55381 0.52484 0.0
C789 C 0.07366 0.53904 0.56099 0.0
C790 C 0.05051 0.60308 0.53465 0.0
C791 C 0.10936 0.54674 0.49614 0.0
H792 H 0.10908 0.59434 0.32868 0.0
H793 H 0.14556 0.618 0.47346 0.0
H794 H 0.0741 0.56006 0.39294 0.0
H795 H 0.05527 0.58051 0.41386 0.0
H796 H 0.06976 0.58218 0.34171 0.0
H797 H 0.12852 0.61614 0.57072 0.0
H798 H 0.09923 0.60588 0.58535 0.0
H799 H 0.12218 0.58786 0.57985 0.0
H800 H 0.03019 0.57029 0.60331 0.0
H801 H 0.07938 0.52292 0.56759 0.0
H802 H 0.04565 0.60558 0.48831 0.0
H803 H 0.0643 0.61522 0.54193 0.0
H804 H 0.03528 0.60581 0.56416 0.0
H805 H 0.10836 0.54787 0.44752 0.0
H806 H 0.11311 0.53008 0.51005 0.0
H807 H 0.12403 0.55736 0.50734 0.0
C808 C 0.97367 0.87482 0.95869 0.0
C809 C 0.98506 0.85679 0.97844 0.0
C810 C 0.98562 0.89166 0.92617 0.0
C811 C 0.00962 0.89051 0.91353 0.0
C812 C 0.02131 0.87248 0.93408 0.0
C813 C 0.00883 0.85572 0.96608 0.0
C814 C 0.97243 0.91051 0.90435 0.0
C815 C 0.0469 0.87087 0.92191 0.0
C816 C 0.02705 0.92561 0.77863 0.0
C817 C 0.0323 0.94498 0.8038 0.0
C818 C 0.02171 0.90701 0.81398 0.0
C819 C 0.02183 0.90783 0.87592 0.0
C820 C 0.02982 0.92669 0.90114 0.0
C821 C 0.03497 0.94517 0.86461 0.0
C822 C 0.0134 0.88723 0.78516 0.0
C823 C 0.03063 0.92802 0.967 0.0
H824 H 0.95526 0.87555 0.96781 0.0
H825 H 0.01767 0.84185 0.982 0.0
H826 H 0.98 0.92545 0.9205 0.0
H827 H 0.97374 0.91202 0.85549 0.0
H828 H 0.95391 0.90906 0.91896 0.0
H829 H 0.0536 0.85629 0.94363 0.0
H830 H 0.05079 0.87067 0.87377 0.0
H831 H 0.05629 0.88504 0.93749 0.0
H832 H 0.02536 0.92533 0.73142 0.0
H833 H 0.03916 0.96008 0.88423 0.0
H834 H 0.02079 0.87278 0.80551 0.0
H835 H 0.0179 0.8881 0.73707 0.0
H836 H 0.99437 0.88534 0.7916 0.0
H837 H 0.01291 0.92965 0.98607 0.0
H838 H 0.04147 0.94196 0.97879 0.0
H839 H 0.03739 0.91329 0.98755 0.0
C840 C 0.66055 0.07076 0.90994 0.0
C841 C 0.65907 0.06739 0.97155 0.0
C842 C 0.64112 0.06774 0.87657 0.0
C843 C 0.61958 0.06176 0.90563 0.0
C844 C 0.61745 0.0608 0.96787 0.0
C845 C 0.63724 0.06335 1.00007 0.0
C846 C 0.64418 0.06884 0.81023 0.0
C847 C 0.59469 0.05498 0.00063 0.0
C848 C 0.56622 0.05561 0.81593 0.0
C849 C 0.56514 0.03351 0.8099 0.0
C850 C 0.58375 0.0652 0.84741 0.0
C851 C 0.60073 0.05239 0.87205 0.0
C852 C 0.59975 0.03012 0.86549 0.0
C853 C 0.58187 0.02097 0.83512 0.0
C854 C 0.58401 0.08891 0.85474 0.0
C855 C 0.61769 0.01587 0.89029 0.0
H856 H 0.67716 0.07458 0.8874 0.0
H857 H 0.63566 0.06058 0.0475 0.0
H858 H 0.64405 0.05241 0.79471 0.0
H859 H 0.62981 0.07708 0.78979 0.0
H860 H 0.66071 0.0772 0.79445 0.0
H861 H 0.59485 0.05917 0.0474 0.0
H862 H 0.58042 0.06313 0.97939 0.0
H863 H 0.59102 0.03754 0.99971 0.0
H864 H 0.55329 0.06535 0.79654 0.0
H865 H 0.5813 0.00391 0.83013 0.0
H866 H 0.6005 0.09652 0.83613 0.0
H867 H 0.58283 0.09203 0.90228 0.0
H868 H 0.56957 0.09662 0.83289 0.0
H869 H 0.63514 0.02156 0.8729 0.0
H870 H 0.61489 0.99899 0.87929 0.0
H871 H 0.61739 0.01646 0.93893 0.0
C872 C 0.53975 0.62286 0.95824 0.0
C873 C 0.52549 0.62989 0.00375 0.0
C874 C 0.53223 0.6064 0.92388 0.0
C875 C 0.5101 0.59646 0.93635 0.0
C876 C 0.49536 0.60394 0.98125 0.0
C877 C 0.5032 0.62077 0.01424 0.0
C878 C 0.54832 0.59916 0.87558 0.0
C879 C 0.47182 0.59353 0.99625 0.0
C880 C 0.49102 0.56161 0.81576 0.0
C881 C 0.50049 0.54229 0.83345 0.0
C882 C 0.49258 0.57924 0.85083 0.0
C883 C 0.50345 0.57721 0.9051 0.0
C884 C 0.51101 0.55713 0.92552 0.0
C885 C 0.50968 0.53995 0.88907 0.0
C886 C 0.48453 0.60043 0.82729 0.0
C887 C 0.5222 0.55418 0.98377 0.0
H888 H 0.55692 0.63012 0.95004 0.0
H889 H 0.49229 0.62622 0.04981 0.0
H890 H 0.55362 0.58276 0.88716 0.0
H891 H 0.53941 0.59869 0.83361 0.0
H892 H 0.56407 0.60975 0.86832 0.0
H893 H 0.46161 0.60261 0.02805 0.0
H894 H 0.46206 0.59201 0.95589 0.0
H895 H 0.47371 0.57719 0.01588 0.0
H896 H 0.48404 0.56346 0.77252 0.0
H897 H 0.51685 0.52493 0.9029 0.0
H898 H 0.49973 0.61081 0.81168 0.0
H899 H 0.47516 0.60868 0.86234 0.0
H900 H 0.47314 0.59862 0.78989 0.0
H901 H 0.53965 0.56211 0.98033 0.0
H902 H 0.52393 0.53708 0.99706 0.0
H903 H 0.51209 0.56169 0.01899 0.0
C904 C 0.92296 0.38526 0.00556 0.0
C905 C 0.90021 0.3906 0.99545 0.0
C906 C 0.94133 0.39308 0.96705 0.0
C907 C 0.93676 0.40638 0.91715 0.0
C908 C 0.9137 0.40982 0.9033 0.0
C909 C 0.89572 0.40199 0.94273 0.0
C910 C 0.96567 0.38874 0.98278 0.0
C911 C 0.90804 0.42364 0.84997 0.0
C912 C 0.97552 0.45458 0.87042 0.0
C913 C 0.98562 0.44862 0.81704 0.0
C914 C 0.96065 0.44042 0.90507 0.0
C915 C 0.95559 0.4198 0.88567 0.0
C916 C 0.96675 0.41323 0.83351 0.0
C917 C 0.98173 0.42775 0.79975 0.0
C918 C 0.94937 0.44799 0.96089 0.0
C919 C 0.96185 0.39138 0.81149 0.0
H920 H 0.92656 0.37601 0.0454 0.0
H921 H 0.87832 0.40639 0.93431 0.0
H922 H 0.97651 0.38565 0.94299 0.0
H923 H 0.97337 0.40297 0.00244 0.0
H924 H 0.96625 0.37492 0.01519 0.0
H925 H 0.8895 0.42209 0.84056 0.0
H926 H 0.91233 0.44059 0.85769 0.0
H927 H 0.91843 0.41946 0.81047 0.0
H928 H 0.9787 0.4706 0.88439 0.0
H929 H 0.98953 0.42305 0.75851 0.0
H930 H 0.95153 0.43634 0.99839 0.0
H931 H 0.93061 0.44928 0.95551 0.0
H932 H 0.95661 0.46379 0.97224 0.0
H933 H 0.96138 0.37898 0.84818 0.0
H934 H 0.97489 0.38733 0.7771 0.0
H935 H 0.94468 0.3909 0.79222 0.0
C936 C 0.10212 0.17369 0.9625 0.0
C937 C 0.12337 0.17402 0.98936 0.0
C938 C 0.09522 0.15658 0.92935 0.0
C939 C 0.1097 0.13917 0.92384 0.0
C940 C 0.13191 0.14019 0.94659 0.0
C941 C 0.1386 0.15776 0.97831 0.0
C942 C 0.07164 0.15639 0.90428 0.0
C943 C 0.14786 0.12195 0.94188 0.0
C944 C 0.07745 0.08569 0.91792 0.0
C945 C 0.08013 0.08182 0.85817 0.0
C946 C 0.08772 0.10396 0.94007 0.0
C947 C 0.10043 0.11896 0.90108 0.0
C948 C 0.10336 0.11494 0.84062 0.0
C949 C 0.09331 0.09624 0.81994 0.0
C950 C 0.08455 0.10743 0.00504 0.0
C951 C 0.11633 0.13072 0.79752 0.0
H952 H 0.09006 0.18599 0.97075 0.0
H953 H 0.15531 0.15811 0.99745 0.0
H954 H 0.07246 0.15106 0.8586 0.0
H955 H 0.05988 0.14495 0.93117 0.0
H956 H 0.06411 0.17235 0.9041 0.0
H957 H 0.16554 0.12635 0.95474 0.0
H958 H 0.14098 0.10827 0.97131 0.0
H959 H 0.14884 0.11649 0.89636 0.0
H960 H 0.06717 0.07445 0.94718 0.0
H961 H 0.09507 0.09323 0.77353 0.0
H962 H 0.0744 0.12175 0.01148 0.0
H963 H 0.10153 0.11036 0.02406 0.0
H964 H 0.07552 0.09359 0.02991 0.0
H965 H 0.10698 0.14574 0.79433 0.0
H966 H 0.11834 0.12458 0.75281 0.0
H967 H 0.13365 0.13475 0.81318 0.0
C968 C 0.3571 0.991 0.95478 0.0
C969 C 0.3558 0.00106 0.00832 0.0
C970 C 0.37682 0.99368 0.9164 0.0
C971 C 0.39587 0.00661 0.93197 0.0
C972 C 0.39427 0.01755 0.98471 0.0
C973 C 0.37427 0.0147 0.0221 0.0
C974 C 0.37765 0.98191 0.86034 0.0
C975 C 0.41415 0.03141 0.00322 0.0
C976 C 0.45489 0.99183 0.87109 0.0
C977 C 0.45936 0.00704 0.82399 0.0
C978 C 0.43454 0.99179 0.90696 0.0
C979 C 0.41804 0.00727 0.89554 0.0
C980 C 0.42259 0.02291 0.84871 0.0
C981 C 0.4432 0.02265 0.81362 0.0
C982 C 0.43053 0.97491 0.95664 0.0
C983 C 0.40547 0.03965 0.83494 0.0
H984 H 0.34285 0.9806 0.94352 0.0
H985 H 0.37359 0.02232 0.06367 0.0
H986 H 0.38294 0.99303 0.82211 0.0
H987 H 0.3907 0.96955 0.8631 0.0
H988 H 0.36077 0.97402 0.85202 0.0
H989 H 0.40946 0.04035 0.04248 0.0
H990 H 0.42878 0.02131 0.0138 0.0
H991 H 0.42026 0.04296 0.96667 0.0
H992 H 0.46724 0.97973 0.87971 0.0
H993 H 0.44642 0.03444 0.7773 0.0
H994 H 0.41497 0.96482 0.94907 0.0
H995 H 0.42735 0.98251 0.99895 0.0
H996 H 0.44537 0.96445 0.961 0.0
H997 H 0.38907 0.03188 0.82249 0.0
H998 H 0.41188 0.05114 0.79843 0.0
H999 H 0.4015 0.0486 0.87457 0.0
C1000 C 0.43942 0.37535 0.99123 0.0
C1001 C 0.4402 0.35462 0.97121 0.0
C1002 C 0.44456 0.39333 0.95302 0.0
C1003 C 0.45095 0.39063 0.89326 0.0
C1004 C 0.45019 0.36992 0.87167 0.0
C1005 C 0.44476 0.35215 0.91088 0.0
C1006 C 0.44502 0.41512 0.9779 0.0
C1007 C 0.45674 0.36638 0.80812 0.0
C1008 C 0.45889 0.44091 0.79159 0.0
C1009 C 0.4826 0.44558 0.79465 0.0
C1010 C 0.4483 0.42276 0.82225 0.0
C1011 C 0.46177 0.409 0.85645 0.0
C1012 C 0.48576 0.41345 0.85861 0.0
C1013 C 0.49583 0.43166 0.8279 0.0
C1014 C 0.42267 0.41856 0.81912 0.0
C1015 C 0.5008 0.3992 0.8944 0.0
H1016 H 0.4363 0.37762 0.03772 0.0
H1017 H 0.44501 0.33627 0.89466 0.0
H1018 H 0.46317 0.42098 0.98083 0.0
H1019 H 0.43648 0.42671 0.94861 0.0
H1020 H 0.43643 0.41484 0.0226 0.0
H1021 H 0.45181 0.34997 0.79616 0.0
H1022 H 0.44848 0.37799 0.77827 0.0
H1023 H 0.47567 0.36892 0.80049 0.0
H1024 H 0.44857 0.45155 0.76585 0.0
H1025 H 0.51418 0.43501 0.83026 0.0
H1026 H 0.41412 0.41995 0.86327 0.0
H1027 H 0.41898 0.40206 0.80613 0.0
H1028 H 0.41492 0.42988 0.78733 0.0
H1029 H 0.4953 0.39915 0.94176 0.0
H1030 H 0.51931 0.40439 0.88933 0.0
H1031 H 0.4989 0.38254 0.88097 0.0
C1032 C 0.16266 0.51515 0.98089 0.0
C1033 C 0.17285 0.53543 0.96573 0.0
C1034 C 0.14571 0.50627 0.94647 0.0
C1035 C 0.13893 0.51794 0.89566 0.0
C1036 C 0.15047 0.53767 0.87775 0.0
C1037 C 0.16723 0.54621 0.91314 0.0
C1038 C 0.13385 0.48519 0.96706 0.0
C1039 C 0.14398 0.5505 0.82346 0.0
C1040 C 0.09904 0.49339 0.78737 0.0
C1041 C 0.07788 0.50164 0.80479 0.0
C1042 C 0.11908 0.49806 0.81736 0.0
C1043 C 0.1178 0.51114 0.86602 0.0
C1044 C 0.0963 0.51878 0.88508 0.0
C1045 C 0.07666 0.51401 0.85416 0.0
C1046 C 0.1417 0.48966 0.79573 0.0
C1047 C 0.09411 0.5326 0.93717 0.0
H1048 H 0.16682 0.50681 0.02173 0.0
H1049 H 0.1753 0.56179 0.90097 0.0
H1050 H 0.11627 0.48798 0.98534 0.0
H1051 H 0.13198 0.47474 0.92971 0.0
H1052 H 0.14335 0.47668 0.00175 0.0
H1053 H 0.15649 0.56404 0.81145 0.0
H1054 H 0.14292 0.54024 0.78548 0.0
H1055 H 0.12671 0.55697 0.83147 0.0
H1056 H 0.10012 0.48385 0.74915 0.0
H1057 H 0.06034 0.5203 0.86821 0.0
H1058 H 0.15039 0.48168 0.83271 0.0
H1059 H 0.15332 0.50315 0.77775 0.0
H1060 H 0.13947 0.47821 0.76077 0.0
H1061 H 0.10124 0.52454 0.97646 0.0
H1062 H 0.07595 0.5363 0.9482 0.0
H1063 H 0.10424 0.54783 0.92748 0.0
C1064 C 0.90399 0.83223 0.44479 0.0
C1065 C 0.92134 0.8224 0.41262 0.0
C1066 C 0.90913 0.85027 0.47648 0.0
C1067 C 0.93206 0.8589 0.47474 0.0
C1068 C 0.9497 0.84867 0.44359 0.0
C1069 C 0.94415 0.83049 0.41333 0.0
C1070 C 0.88997 0.86046 0.51033 0.0
C1071 C 0.97432 0.85748 0.43996 0.0
C1072 C 0.94567 0.91752 0.4958 0.0
C1073 C 0.95533 0.91648 0.55094 0.0
C1074 C 0.93705 0.89894 0.47136 0.0
C1075 C 0.93776 0.87902 0.50352 0.0
C1076 C 0.94621 0.87819 0.56085 0.0
C1077 C 0.95516 0.89691 0.58359 0.0
C1078 C 0.92848 0.90046 0.40976 0.0
C1079 C 0.94683 0.85739 0.59706 0.0
H1080 H 0.88634 0.82604 0.44417 0.0
H1081 H 0.95755 0.82324 0.38751 0.0
H1082 H 0.89486 0.86281 0.55614 0.0
H1083 H 0.88702 0.87642 0.48952 0.0
H1084 H 0.87356 0.85072 0.51173 0.0
H1085 H 0.98606 0.84739 0.41482 0.0
H1086 H 0.9752 0.87376 0.41828 0.0
H1087 H 0.9807 0.8588 0.48482 0.0
H1088 H 0.94595 0.93268 0.47059 0.0
H1089 H 0.96252 0.89622 0.62652 0.0
H1090 H 0.91122 0.89235 0.40875 0.0
H1091 H 0.94031 0.89223 0.37975 0.0
H1092 H 0.9274 0.91725 0.39252 0.0
H1093 H 0.92996 0.84847 0.5972 0.0
H1094 H 0.95112 0.85984 0.64332 0.0
H1095 H 0.95996 0.84727 0.57721 0.0
C1096 C 0.66082 0.98485 0.39113 0.0
C1097 C 0.67976 0.99781 0.40538 0.0
C1098 C 0.64098 0.98207 0.42911 0.0
C1099 C 0.64002 0.99242 0.48286 0.0
C1100 C 0.65953 0.00464 0.49884 0.0
C1101 C 0.6791 0.00722 0.45993 0.0
C1102 C 0.6206 0.96895 0.41022 0.0
C1103 C 0.65938 0.01579 0.55591 0.0
C1104 C 0.58183 0.00819 0.54662 0.0
C1105 C 0.57712 0.99266 0.59282 0.0
C1106 C 0.602 0.00804 0.51015 0.0
C1107 C 0.61804 0.99201 0.51997 0.0
C1108 C 0.61323 0.97606 0.56587 0.0
C1109 C 0.59283 0.97655 0.60166 0.0
C1110 C 0.60632 0.02529 0.46158 0.0
C1111 C 0.62985 0.95871 0.57784 0.0
H1112 H 0.66101 0.97772 0.34882 0.0
H1113 H 0.69373 0.01707 0.47161 0.0
H1114 H 0.61429 0.95722 0.44616 0.0
H1115 H 0.60627 0.97954 0.40076 0.0
H1116 H 0.62482 0.96026 0.37017 0.0
H1117 H 0.67653 0.02311 0.56429 0.0
H1118 H 0.64672 0.02852 0.5546 0.0
H1119 H 0.65393 0.00441 0.59345 0.0
H1120 H 0.56983 0.02068 0.53917 0.0
H1121 H 0.5894 0.9645 0.63725 0.0
H1122 H 0.60899 0.01805 0.41856 0.0
H1123 H 0.62226 0.03482 0.46933 0.0
H1124 H 0.59184 0.03623 0.45855 0.0
H1125 H 0.6333 0.95004 0.53741 0.0
H1126 H 0.62326 0.94705 0.61377 0.0
H1127 H 0.64656 0.96588 0.59027 0.0
C1128 C 0.59211 0.64581 0.4976 0.0
C1129 C 0.59648 0.64318 0.43728 0.0
C1130 C 0.58641 0.62817 0.53706 0.0
C1131 C 0.58517 0.60743 0.51573 0.0
C1132 C 0.59132 0.60454 0.45593 0.0
C1133 C 0.59675 0.6224 0.41748 0.0
C1134 C 0.58012 0.63189 0.60064 0.0
C1135 C 0.59035 0.58271 0.43133 0.0
C1136 C 0.5769 0.55731 0.61788 0.0
C1137 C 0.55313 0.55288 0.61531 0.0
C1138 C 0.58762 0.57534 0.58695 0.0
C1139 C 0.57422 0.58923 0.553 0.0
C1140 C 0.55016 0.58505 0.55142 0.0
C1141 C 0.53996 0.56695 0.58238 0.0
C1142 C 0.61332 0.57925 0.58944 0.0
C1143 C 0.53518 0.59948 0.51592 0.0
H1144 H 0.59225 0.66172 0.51364 0.0
H1145 H 0.5997 0.62002 0.371 0.0
H1146 H 0.56119 0.6296 0.60866 0.0
H1147 H 0.5883 0.62022 0.63047 0.0
H1148 H 0.58534 0.64827 0.61229 0.0
H1149 H 0.59873 0.5828 0.38641 0.0
H1150 H 0.59884 0.57103 0.46047 0.0
H1151 H 0.5721 0.57709 0.42902 0.0
H1152 H 0.58719 0.54655 0.64337 0.0
H1153 H 0.52156 0.56379 0.58044 0.0
H1154 H 0.61731 0.59575 0.60202 0.0
H1155 H 0.62168 0.57763 0.54518 0.0
H1156 H 0.62101 0.5679 0.62126 0.0
H1157 H 0.53743 0.61613 0.52909 0.0
H1158 H 0.51662 0.59453 0.52159 0.0
H1159 H 0.54046 0.59937 0.46846 0.0
C1160 C 0.86847 0.45016 0.49505 0.0
C1161 C 0.86339 0.4608 0.44179 0.0
C1162 C 0.88573 0.4582 0.52982 0.0
C1163 C 0.89828 0.4773 0.51068 0.0
C1164 C 0.89208 0.48892 0.45918 0.0
C1165 C 0.87466 0.48053 0.42534 0.0
C1166 C 0.8916 0.44545 0.58485 0.0
C1167 C 0.90499 0.50936 0.43737 0.0
C1168 C 0.93907 0.50125 0.61782 0.0
C1169 C 0.95989 0.4922 0.60108 0.0
C1170 C 0.9189 0.49701 0.58798 0.0
C1171 C 0.91964 0.4835 0.54024 0.0
C1172 C 0.94079 0.47493 0.52199 0.0
C1173 C 0.9606 0.47935 0.55266 0.0
C1174 C 0.89668 0.50642 0.60868 0.0
C1175 C 0.94238 0.46057 0.47098 0.0
H1176 H 0.85959 0.43503 0.50823 0.0
H1177 H 0.87093 0.48875 0.38398 0.0
H1178 H 0.90851 0.43823 0.5774 0.0
H1179 H 0.89314 0.45594 0.62221 0.0
H1180 H 0.87849 0.43246 0.59749 0.0
H1181 H 0.89599 0.51801 0.40195 0.0
H1182 H 0.90734 0.52006 0.47399 0.0
H1183 H 0.92239 0.50567 0.41967 0.0
H1184 H 0.93836 0.51118 0.65525 0.0
H1185 H 0.97663 0.4724 0.53916 0.0
H1186 H 0.88439 0.49347 0.62676 0.0
H1187 H 0.88853 0.51464 0.57116 0.0
H1188 H 0.89934 0.51794 0.64329 0.0
H1189 H 0.93151 0.44581 0.48145 0.0
H1190 H 0.96032 0.45603 0.46064 0.0
H1191 H 0.93574 0.46862 0.43103 0.0
loop_
_geom_bond_atom_site_label_1
_geom_bond_atom_site_label_2
_geom_bond_distance
_geom_bond_site_symmetry_2
_ccdc_geom_bond_type
C0 C1 1.384 . S
C0 H13 0.947 . S
C0 C35 1.382 . S
C1 C0 1.384 . S
C1 C2 1.378 . S
C2 C1 1.378 . S
C2 C3 1.378 . S
C2 H14 0.952 . S
C3 C2 1.378 . S
C3 H15 0.950 . S
C3 C34 1.383 . S
H4 C23 0.947 . S
H5 C24 0.946 . S
H6 C26 0.952 1_556 S
H7 C27 0.945 . S
H8 C29 0.952 . S
H9 C30 0.949 . S
H10 C32 0.950 . S
H11 C33 0.948 . S
H12 C35 0.951 . S
H13 C0 0.947 . S
H14 C2 0.952 . S
H15 C3 0.950 . S
N16 C19 1.382 . S
N16 C21 1.363 . S
N17 C19 1.371 . S
N17 C20 1.372 . S
N18 C20 1.361 . S
N18 C21 1.377 . S
C19 N16 1.382 . S
C19 N17 1.371 . S
C19 C22 1.480 . S
C20 N17 1.372 . S
C20 N18 1.361 . S
C20 C28 1.457 . S
C21 N16 1.363 . S
C21 N18 1.377 . S
C21 C34 1.479 . S
C22 C19 1.480 . S
C22 C23 1.383 . S
C22 C27 1.385 . S
C23 H4 0.947 . S
C23 C22 1.383 . S
C23 C24 1.388 . S
C24 H5 0.946 . S
C24 C23 1.388 . S
C24 C25 1.384 . S
C25 C24 1.384 . S
C25 C26 1.377 . S
C26 H6 0.952 1_554 S
C26 C25 1.377 . S
C26 C27 1.369 . S
C27 H7 0.945 . S
C27 C22 1.385 . S
C27 C26 1.369 . S
C28 C20 1.457 . S
C28 C29 1.372 1_554 S
C28 C33 1.364 . S
C29 H8 0.952 . S
C29 C28 1.372 1_556 S
C29 C30 1.389 . S
C30 H9 0.949 . S
C30 C29 1.389 . S
C30 C31 1.387 . S
C31 C30 1.387 . S
C31 C32 1.372 1_556 S
C32 H10 0.950 . S
C32 C31 1.372 1_554 S
C32 C33 1.379 . S
C33 H11 0.948 . S
C33 C28 1.364 . S
C33 C32 1.379 . S
C34 C3 1.383 . S
C34 C21 1.479 . S
C34 C35 1.398 . S
C35 C0 1.382 . S
C35 H12 0.951 . S
C35 C34 1.398 . S
C36 C37 1.384 . S
C36 H49 0.947 . S
C36 C71 1.382 . S
C37 C36 1.384 . S
C37 C38 1.378 . S
C38 C37 1.378 . S
C38 C39 1.378 . S
C38 H50 0.952 . S
C39 C38 1.378 . S
C39 H51 0.950 . S
C39 C70 1.383 . S
H40 C59 0.947 . S
H41 C60 0.946 . S
H42 C62 0.953 . S
H43 C63 0.945 . S
H44 C65 0.952 . S
H45 C66 0.949 . S
H46 C68 0.950 . S
H47 C69 0.948 . S
H48 C71 0.951 . S
H49 C36 0.947 . S
H50 C38 0.952 . S
H51 C39 0.950 . S
N52 C55 1.382 1_554 S
N52 C57 1.363 . S
N53 C55 1.371 . S
N53 C56 1.372 . S
N54 C56 1.361 1_554 S
N54 C57 1.377 . S
C55 N52 1.382 1_556 S
C55 N53 1.371 . S
C55 C58 1.480 . S
C56 N53 1.372 . S
C56 N54 1.361 1_556 S
C56 C64 1.457 . S
C57 N52 1.363 . S
C57 N54 1.377 . S
C57 C70 1.479 . S
C58 C55 1.480 . S
C58 C59 1.383 1_556 S
C58 C63 1.385 . S
C59 H40 0.947 . S
C59 C58 1.383 1_554 S
C59 C60 1.388 . S
C60 H41 0.946 . S
C60 C59 1.388 . S
C60 C61 1.384 1_554 S
C61 C60 1.384 1_556 S
C61 C62 1.377 . S
C62 H42 0.953 . S
C62 C61 1.377 . S
C62 C63 1.369 . S
C63 H43 0.945 . S
C63 C58 1.385 . S
C63 C62 1.369 . S
C64 C56 1.457 . S
C64 C65 1.372 . S
C64 C69 1.364 . S
C65 H44 0.952 . S
C65 C64 1.372 . S
C65 C66 1.389 . S
C66 H45 0.949 . S
C66 C65 1.389 . S
C66 C67 1.387 . S
C67 C66 1.387 . S
C67 C68 1.372 . S
C68 H46 0.950 . S
C68 C67 1.372 . S
C68 C69 1.379 . S
C69 H47 0.948 . S
C69 C64 1.364 . S
C69 C68 1.379 . S
C70 C39 1.383 . S
C70 C57 1.479 . S
C70 C71 1.398 . S
C71 C36 1.382 . S
C71 H48 0.951 . S
C71 C70 1.398 . S
C72 C73 1.383 1_565 S
C72 H85 0.947 . S
C72 C107 1.382 1_565 S
C73 C72 1.383 1_545 S
C73 C74 1.378 . S
C74 C73 1.378 . S
C74 C75 1.378 . S
C74 H86 0.952 . S
C75 C74 1.378 . S
C75 H87 0.950 . S
C75 C106 1.383 . S
H76 C95 0.947 . S
H77 C96 0.952 . S
H78 C98 0.953 . S
H79 C99 0.945 . S
H80 C101 0.948 1_565 S
H81 C102 0.959 . S
H82 C104 0.950 . S
H83 C105 0.948 . S
H84 C107 0.952 1_565 S
H85 C72 0.947 . S
H86 C74 0.952 . S
H87 C75 0.950 . S
N88 C91 1.382 . S
N88 C93 1.363 . S
N89 C91 1.371 . S
N89 C92 1.372 . S
N90 C92 1.361 . S
N90 C93 1.377 . S
C91 N88 1.382 . S
C91 N89 1.371 . S
C91 C94 1.480 . S
C92 N89 1.372 . S
C92 N90 1.361 . S
C92 C100 1.457 1_554 S
C93 N88 1.363 . S
C93 N90 1.377 . S
C93 C106 1.479 . S
C94 C91 1.480 . S
C94 C95 1.383 . S
C94 C99 1.385 1_554 S
C95 H76 0.947 . S
C95 C94 1.383 . S
C95 C96 1.384 1_545 S
C96 H77 0.952 . S
C96 C95 1.384 1_565 S
C96 C97 1.383 1_565 S
C97 C96 1.383 1_545 S
C97 C98 1.377 1_554 S
C98 H78 0.953 . S
C98 C97 1.377 1_556 S
C98 C99 1.369 . S
C99 H79 0.945 . S
C99 C94 1.385 1_556 S
C99 C98 1.369 . S
C100 C92 1.457 1_556 S
C100 C101 1.377 . S
C100 C105 1.364 1_556 S
C101 H80 0.948 1_545 S
C101 C100 1.377 . S
C101 C102 1.386 1_545 S
C102 H81 0.959 . S
C102 C101 1.386 1_565 S
C102 C103 1.380 1_565 S
C103 C102 1.380 1_545 S
C103 C104 1.372 . S
C104 H82 0.950 . S
C104 C103 1.372 . S
C104 C105 1.379 1_556 S
C105 H83 0.948 . S
C105 C100 1.364 1_554 S
C105 C104 1.379 1_554 S
C106 C75 1.383 . S
C106 C93 1.479 . S
C106 C107 1.398 . S
C107 C72 1.382 1_545 S
C107 H84 0.952 1_545 S
C107 C106 1.398 . S
C108 C109 1.384 . S
C108 H121 0.947 . S
C108 C143 1.382 1_556 S
C109 C108 1.384 . S
C109 C110 1.378 . S
C110 C109 1.378 . S
C110 C111 1.378 . S
C110 H122 0.952 . S
C111 C110 1.378 . S
C111 H123 0.950 . S
C111 C142 1.383 1_556 S
H112 C131 0.947 1_556 S
H113 C132 0.946 . S
H114 C134 0.953 . S
H115 C135 0.945 . S
H116 C137 0.952 . S
H117 C138 0.949 . S
H118 C140 0.950 . S
H119 C141 0.948 . S
H120 C143 0.951 . S
H121 C108 0.947 . S
H122 C110 0.952 . S
H123 C111 0.950 . S
N124 C127 1.382 . S
N124 C129 1.363 . S
N125 C127 1.371 . S
N125 C128 1.372 . S
N126 C128 1.361 . S
N126 C129 1.377 . S
C127 N124 1.382 . S
C127 N125 1.371 . S
C127 C130 1.480 . S
C128 N125 1.372 . S
C128 N126 1.361 . S
C128 C136 1.457 . S
C129 N124 1.363 . S
C129 N126 1.377 . S
C129 C142 1.479 . S
C130 C127 1.480 . S
C130 C131 1.383 . S
C130 C135 1.385 . S
C131 H112 0.947 1_554 S
C131 C130 1.383 . S
C131 C132 1.388 1_554 S
C132 H113 0.946 . S
C132 C131 1.388 1_556 S
C132 C133 1.384 1_556 S
C133 C132 1.384 1_554 S
C133 C134 1.377 . S
C134 H114 0.953 . S
C134 C133 1.377 . S
C134 C135 1.369 . S
C135 H115 0.945 . S
C135 C130 1.385 . S
C135 C134 1.369 . S
C136 C128 1.457 . S
C136 C137 1.372 . S
C136 C141 1.364 . S
C137 H116 0.952 . S
C137 C136 1.372 . S
C137 C138 1.389 . S
C138 H117 0.949 . S
C138 C137 1.389 . S
C138 C139 1.387 . S
C139 C138 1.387 . S
C139 C140 1.372 . S
C140 H118 0.950 . S
C140 C139 1.372 . S
C140 C141 1.379 . S
C141 H119 0.948 . S
C141 C136 1.364 . S
C141 C140 1.379 . S
C142 C111 1.383 1_554 S
C142 C129 1.479 . S
C142 C143 1.398 . S
C143 C108 1.382 1_554 S
C143 H120 0.951 . S
C143 C142 1.398 . S
C144 C145 1.384 . S
C144 H157 0.947 . S
C144 C179 1.382 . S
C145 C144 1.384 . S
C145 C146 1.378 . S
C146 C145 1.378 . S
C146 C147 1.378 . S
C146 H158 0.952 . S
C147 C146 1.378 . S
C147 H159 0.950 . S
C147 C178 1.383 . S
H148 C167 0.947 . S
H149 C168 0.946 . S
H150 C170 0.953 . S
H151 C171 0.945 . S
H152 C173 0.952 . S
H153 C174 0.949 . S
H154 C176 0.950 . S
H155 C177 0.948 . S
H156 C179 0.951 . S
H157 C144 0.947 . S
H158 C146 0.952 . S
H159 C147 0.950 . S
N160 C163 1.382 . S
N160 C165 1.363 . S
N161 C163 1.371 . S
N161 C164 1.372 . S
N162 C164 1.361 . S
N162 C165 1.377 . S
C163 N160 1.382 . S
C163 N161 1.371 . S
C163 C166 1.480 . S
C164 N161 1.372 . S
C164 N162 1.361 . S
C164 C172 1.457 . S
C165 N160 1.363 . S
C165 N162 1.377 . S
C165 C178 1.479 . S
C166 C163 1.480 . S
C166 C167 1.383 . S
C166 C171 1.385 . S
C167 H148 0.947 . S
C167 C166 1.383 . S
C167 C168 1.388 . S
C168 H149 0.946 . S
C168 C167 1.388 . S
C168 C169 1.384 . S
C169 C168 1.384 . S
C169 C170 1.377 . S
C170 H150 0.953 . S
C170 C169 1.377 . S
C170 C171 1.369 . S
C171 H151 0.945 . S
C171 C166 1.385 . S
C171 C170 1.369 . S
C172 C164 1.457 . S
C172 C173 1.372 . S
C172 C177 1.364 . S
C173 H152 0.952 . S
C173 C172 1.372 . S
C173 C174 1.389 . S
C174 H153 0.949 . S
C174 C173 1.389 . S
C174 C175 1.387 . S
C175 C174 1.387 . S
C175 C176 1.372 . S
C176 H154 0.950 . S
C176 C175 1.372 . S
C176 C177 1.379 . S
C177 H155 0.948 . S
C177 C172 1.364 . S
C177 C176 1.379 . S
C178 C147 1.383 . S
C178 C165 1.479 . S
C178 C179 1.398 . S
C179 C144 1.382 . S
C179 H156 0.951 . S
C179 C178 1.398 . S
C180 C181 1.384 . S
C180 H193 0.947 . S
C180 C215 1.382 . S
C181 C180 1.384 . S
C181 C182 1.378 . S
C182 C181 1.378 . S
C182 C183 1.378 . S
C182 H194 0.952 . S
C183 C182 1.378 . S
C183 H195 0.950 . S
C183 C214 1.383 . S
H184 C203 0.947 . S
H185 C204 0.946 . S
H186 C206 0.953 . S
H187 C207 0.945 . S
H188 C209 0.952 . S
H189 C210 0.949 . S
H190 C212 0.950 . S
H191 C213 0.948 . S
H192 C215 0.951 . S
H193 C180 0.947 . S
H194 C182 0.952 . S
H195 C183 0.950 . S
N196 C199 1.382 . S
N196 C201 1.363 . S
N197 C199 1.371 . S
N197 C200 1.372 . S
N198 C200 1.361 . S
N198 C201 1.377 . S
C199 N196 1.382 . S
C199 N197 1.371 . S
C199 C202 1.480 . S
C200 N197 1.372 . S
C200 N198 1.361 . S
C200 C208 1.457 . S
C201 N196 1.363 . S
C201 N198 1.377 . S
C201 C214 1.479 . S
C202 C199 1.480 . S
C202 C203 1.383 . S
C202 C207 1.385 . S
C203 H184 0.947 . S
C203 C202 1.383 . S
C203 C204 1.388 . S
C204 H185 0.946 . S
C204 C203 1.388 . S
C204 C205 1.384 . S
C205 C204 1.384 . S
C205 C206 1.377 . S
C206 H186 0.953 . S
C206 C205 1.377 . S
C206 C207 1.369 . S
C207 H187 0.945 . S
C207 C202 1.385 . S
C207 C206 1.369 . S
C208 C200 1.457 . S
C208 C209 1.372 . S
C208 C213 1.364 . S
C209 H188 0.952 . S
C209 C208 1.372 . S
C209 C210 1.389 . S
C210 H189 0.949 . S
C210 C209 1.389 . S
C210 C211 1.387 . S
C211 C210 1.387 . S
C211 C212 1.372 . S
C212 H190 0.950 . S
C212 C211 1.372 . S
C212 C213 1.379 . S
C213 H191 0.948 . S
C213 C208 1.364 . S
C213 C212 1.379 . S
C214 C183 1.383 . S
C214 C201 1.479 . S
C214 C215 1.398 . S
C215 C180 1.382 . S
C215 H192 0.951 . S
C215 C214 1.398 . S
C216 C217 1.384 . S
C216 H229 0.948 1_545 S
C216 C251 1.381 . S
C217 C216 1.384 . S
C217 C218 1.378 . S
C218 C217 1.378 . S
C218 C219 1.378 . S
C218 H230 0.952 . S
C219 C218 1.378 . S
C219 H231 0.950 . S
C219 C250 1.383 . S
H220 C239 0.947 . S
H221 C240 0.949 . S
H222 C242 0.953 . S
H223 C243 0.945 . S
H224 C245 0.949 1_565 S
H225 C246 0.952 . S
H226 C248 0.950 . S
H227 C249 0.948 . S
H228 C251 0.950 1_565 S
H229 C216 0.948 1_565 S
H230 C218 0.952 . S
H231 C219 0.950 . S
N232 C235 1.382 . S
N232 C237 1.363 . S
N233 C235 1.371 . S
N233 C236 1.372 . S
N234 C236 1.361 . S
N234 C237 1.377 . S
C235 N232 1.382 . S
C235 N233 1.371 . S
C235 C238 1.480 . S
C236 N233 1.372 . S
C236 N234 1.361 . S
C236 C244 1.457 . S
C237 N232 1.363 . S
C237 N234 1.377 . S
C237 C250 1.479 . S
C238 C235 1.480 . S
C238 C239 1.383 . S
C238 C243 1.385 . S
C239 H220 0.947 . S
C239 C238 1.383 . S
C239 C240 1.388 1_545 S
C240 H221 0.949 . S
C240 C239 1.388 1_565 S
C240 C241 1.381 1_565 S
C241 C240 1.381 1_545 S
C241 C242 1.377 . S
C242 H222 0.953 . S
C242 C241 1.377 . S
C242 C243 1.369 . S
C243 H223 0.945 . S
C243 C238 1.385 . S
C243 C242 1.369 . S
C244 C236 1.457 . S
C244 C245 1.377 . S
C244 C249 1.364 . S
C245 H224 0.949 1_545 S
C245 C244 1.377 . S
C245 C246 1.387 1_545 S
C246 H225 0.952 . S
C246 C245 1.387 1_565 S
C246 C247 1.385 1_565 S
C247 C246 1.385 1_545 S
C247 C248 1.372 . S
C248 H226 0.950 . S
C248 C247 1.372 . S
C248 C249 1.379 . S
C249 H227 0.948 . S
C249 C244 1.364 . S
C249 C248 1.379 . S
C250 C219 1.383 . S
C250 C237 1.479 . S
C250 C251 1.400 . S
C251 C216 1.381 . S
C251 H228 0.950 1_545 S
C251 C250 1.400 . S
C252 C253 1.384 . S
C252 H265 0.947 . S
C252 C287 1.382 . S
C253 C252 1.384 . S
C253 C254 1.378 . S
C254 C253 1.378 . S
C254 C255 1.378 . S
C254 H266 0.952 . S
C255 C254 1.378 . S
C255 H267 0.950 . S
C255 C286 1.383 . S
H256 C275 0.947 . S
H257 C276 0.946 . S
H258 C278 0.953 . S
H259 C279 0.945 . S
H260 C281 0.952 . S
H261 C282 0.949 . S
H262 C284 0.950 . S
H263 C285 0.948 . S
H264 C287 0.951 . S
H265 C252 0.947 . S
H266 C254 0.952 . S
H267 C255 0.950 . S
N268 C271 1.382 . S
N268 C273 1.363 . S
N269 C271 1.371 . S
N269 C272 1.372 . S
N270 C272 1.361 . S
N270 C273 1.377 . S
C271 N268 1.382 . S
C271 N269 1.371 . S
C271 C274 1.480 . S
C272 N269 1.372 . S
C272 N270 1.361 . S
C272 C280 1.457 . S
C273 N268 1.363 . S
C273 N270 1.377 . S
C273 C286 1.479 . S
C274 C271 1.480 . S
C274 C275 1.383 . S
C274 C279 1.385 . S
C275 H256 0.947 . S
C275 C274 1.383 . S
C275 C276 1.388 . S
C276 H257 0.946 . S
C276 C275 1.388 . S
C276 C277 1.384 . S
C277 C276 1.384 . S
C277 C278 1.377 . S
C278 H258 0.953 . S
C278 C277 1.377 . S
C278 C279 1.369 . S
C279 H259 0.945 . S
C279 C274 1.385 . S
C279 C278 1.369 . S
C280 C272 1.457 . S
C280 C281 1.372 . S
C280 C285 1.364 . S
C281 H260 0.952 . S
C281 C280 1.372 . S
C281 C282 1.389 . S
C282 H261 0.949 . S
C282 C281 1.389 . S
C282 C283 1.387 . S
C283 C282 1.387 . S
C283 C284 1.372 . S
C284 H262 0.950 . S
C284 C283 1.372 . S
C284 C285 1.379 . S
C285 H263 0.948 . S
C285 C280 1.364 . S
C285 C284 1.379 . S
C286 C255 1.383 . S
C286 C273 1.479 . S
C286 C287 1.398 . S
C287 C252 1.382 . S
C287 H264 0.951 . S
C287 C286 1.398 . S
C288 O304 1.251 . S
C288 O306 1.254 . S
N289 C290 1.333 . S
N289 C294 1.307 . S
N289 Zn295 2.020 1_655 S
C290 N289 1.333 . S
C290 C291 1.379 . S
C290 H308 0.952 1_655 S
C291 C290 1.379 . S
C291 C292 1.390 . S
C291 H318 0.949 . S
C292 C291 1.390 . S
C292 C293 1.357 . S
C293 C292 1.357 . S
C293 C294 1.370 . S
C293 H319 0.950 . S
C294 N289 1.307 . S
C294 C293 1.370 . S
C294 H312 0.950 . S
Zn295 N289 2.020 1_455 S
Zn295 O304 2.039 . S
Zn295 O310 2.034 . S
Zn295 O314 2.025 1_565 S
Zn295 O316 2.036 1_455 S
C296 O315 1.246 . S
C296 O316 1.232 1_545 S
N297 C298 1.307 . S
N297 C299 1.333 . S
N297 Zn303 2.020 . S
C298 N297 1.307 . S
C298 C302 1.370 . S
C298 H309 0.963 . S
C299 N297 1.333 . S
C299 C300 1.379 . S
C299 H307 0.952 . S
C300 C299 1.379 . S
C300 C301 1.390 . S
C300 H320 0.949 . S
C301 C300 1.390 . S
C301 C302 1.357 . S
C302 C298 1.370 . S
C302 C301 1.357 . S
C302 H321 0.950 . S
Zn303 N297 2.020 . S
Zn303 O306 2.025 1_545 S
Zn303 O311 2.041 . S
Zn303 O313 2.039 . S
Zn303 O315 2.034 1_455 S
O304 C288 1.251 . S
O304 Zn295 2.039 . S
C305 O310 1.246 . S
C305 O311 1.227 1_565 S
O306 C288 1.254 . S
O306 Zn303 2.025 1_565 S
H307 C299 0.952 . S
H308 C290 0.952 1_455 S
H309 C298 0.963 . S
O310 Zn295 2.034 . S
O310 C305 1.246 . S
O311 Zn303 2.041 . S
O311 C305 1.227 1_545 S
H312 C294 0.950 . S
O313 Zn303 2.039 . S
O313 C317 1.251 . S
O314 Zn295 2.025 1_545 S
O314 C317 1.254 . S
O315 C296 1.246 . S
O315 Zn303 2.034 1_655 S
O316 Zn295 2.036 1_655 S
O316 C296 1.232 1_565 S
C317 O313 1.251 . S
C317 O314 1.254 . S
H318 C291 0.949 . S
H319 C293 0.950 . S
H320 C300 0.949 . S
H321 C302 0.950 . S
C322 O338 1.251 1_565 S
C322 O340 1.254 . S
N323 C324 1.333 . S
N323 C328 1.307 . S
N323 Zn329 2.020 . S
C324 N323 1.333 . S
C324 C325 1.379 . S
C324 H342 0.952 . S
C325 C324 1.379 . S
C325 C326 1.390 . S
C325 H352 0.949 . S
C326 C325 1.390 . S
C326 C327 1.357 . S
C327 C326 1.357 . S
C327 C328 1.370 . S
C327 H353 0.950 . S
C328 N323 1.307 . S
C328 C327 1.370 . S
C328 H346 0.948 . S
Zn329 N323 2.020 . S
Zn329 O338 2.039 . S
Zn329 O344 2.034 . S
Zn329 O348 2.025 . S
Zn329 O350 2.024 . S
C330 O349 1.246 1_545 S
C330 O350 1.249 . S
N331 C332 1.307 . S
N331 C333 1.333 . S
N331 Zn337 2.020 . S
C332 N331 1.307 . S
C332 C336 1.370 . S
C332 H343 0.948 . S
C333 N331 1.333 . S
C333 C334 1.379 . S
C333 H341 0.952 . S
C334 C333 1.379 . S
C334 C335 1.390 . S
C334 H354 0.949 . S
C335 C334 1.390 . S
C335 C336 1.357 . S
C336 C332 1.370 . S
C336 C335 1.357 . S
C336 H355 0.950 . S
Zn337 N331 2.020 . S
Zn337 O340 2.025 . S
Zn337 O345 2.024 . S
Zn337 O347 2.039 . S
Zn337 O349 2.034 . S
O338 C322 1.251 1_545 S
O338 Zn329 2.039 . S
C339 O344 1.246 1_565 S
C339 O345 1.249 . S
O340 C322 1.254 . S
O340 Zn337 2.025 . S
H341 C333 0.952 . S
H342 C324 0.952 . S
H343 C332 0.948 . S
O344 Zn329 2.034 . S
O344 C339 1.246 1_545 S
O345 Zn337 2.024 . S
O345 C339 1.249 . S
H346 C328 0.948 . S
O347 Zn337 2.039 . S
O347 C351 1.251 1_565 S
O348 Zn329 2.025 . S
O348 C351 1.254 . S
O349 C330 1.246 1_565 S
O349 Zn337 2.034 . S
O350 Zn329 2.024 . S
O350 C330 1.249 . S
C351 O347 1.251 1_545 S
C351 O348 1.254 . S
H352 C325 0.949 . S
H353 C327 0.950 . S
H354 C334 0.949 . S
H355 C336 0.950 . S
C356 O372 1.251 . S
C356 O374 1.254 . S
N357 C358 1.333 . S
N357 C362 1.307 . S
N357 Zn363 2.020 . S
C358 N357 1.333 . S
C358 C359 1.379 . S
C358 H376 0.952 . S
C359 C358 1.379 . S
C359 C360 1.390 . S
C359 H386 0.949 . S
C360 C359 1.390 . S
C360 C361 1.357 . S
C361 C360 1.357 . S
C361 C362 1.370 . S
C361 H387 0.950 . S
C362 N357 1.307 . S
C362 C361 1.370 . S
C362 H380 0.948 . S
Zn363 N357 2.020 . S
Zn363 O372 2.039 . S
Zn363 O378 2.034 . S
Zn363 O382 2.025 . S
Zn363 O384 2.024 . S
C364 O383 1.246 . S
C364 O384 1.249 . S
N365 C366 1.307 . S
N365 C367 1.333 . S
N365 Zn371 2.020 . S
C366 N365 1.307 . S
C366 C370 1.370 . S
C366 H377 0.948 . S
C367 N365 1.333 . S
C367 C368 1.379 . S
C367 H375 0.952 . S
C368 C367 1.379 . S
C368 C369 1.390 . S
C368 H388 0.949 . S
C369 C368 1.390 . S
C369 C370 1.357 . S
C370 C366 1.370 . S
C370 C369 1.357 . S
C370 H389 0.950 . S
Zn371 N365 2.020 . S
Zn371 O374 2.025 . S
Zn371 O379 2.024 . S
Zn371 O381 2.039 . S
Zn371 O383 2.034 . S
O372 C356 1.251 . S
O372 Zn363 2.039 . S
C373 O378 1.246 . S
C373 O379 1.249 . S
O374 C356 1.254 . S
O374 Zn371 2.025 . S
H375 C367 0.952 . S
H376 C358 0.952 . S
H377 C366 0.948 . S
O378 Zn363 2.034 . S
O378 C373 1.246 . S
O379 Zn371 2.024 . S
O379 C373 1.249 . S
H380 C362 0.948 . S
O381 Zn371 2.039 . S
O381 C385 1.251 . S
O382 Zn363 2.025 . S
O382 C385 1.254 . S
O383 C364 1.246 . S
O383 Zn371 2.034 . S
O384 Zn363 2.024 . S
O384 C364 1.249 . S
C385 O381 1.251 . S
C385 O382 1.254 . S
H386 C359 0.949 . S
H387 C361 0.950 . S
H388 C368 0.949 . S
H389 C370 0.950 . S
C390 O406 1.251 . S
C390 O408 1.254 . S
N391 C392 1.333 . S
N391 C396 1.307 . S
N391 Zn397 2.020 . S
C392 N391 1.333 . S
C392 C393 1.379 . S
C392 H410 0.952 . S
C393 C392 1.379 . S
C393 C394 1.390 . S
C393 H420 0.949 . S
C394 C393 1.390 . S
C394 C395 1.357 . S
C395 C394 1.357 . S
C395 C396 1.370 . S
C395 H421 0.950 . S
C396 N391 1.307 . S
C396 C395 1.370 . S
C396 H414 0.948 . S
Zn397 N391 2.020 . S
Zn397 O406 2.039 . S
Zn397 O412 2.034 1_455 S
Zn397 O416 2.025 1_455 S
Zn397 O418 2.024 . S
C398 O417 1.246 . S
C398 O418 1.249 . S
N399 C400 1.307 . S
N399 C401 1.333 1_455 S
N399 Zn405 2.020 . S
C400 N399 1.307 . S
C400 C404 1.370 1_455 S
C400 H411 0.948 . S
C401 N399 1.333 1_655 S
C401 C402 1.379 . S
C401 H409 0.952 . S
C402 C401 1.379 . S
C402 C403 1.390 . S
C402 H422 0.949 . S
C403 C402 1.390 . S
C403 C404 1.357 . S
C404 C400 1.370 1_655 S
C404 C403 1.357 . S
C404 H423 0.953 . S
Zn405 N399 2.020 . S
Zn405 O408 2.025 . S
Zn405 O413 2.024 1_455 S
Zn405 O415 2.039 1_455 S
Zn405 O417 2.034 . S
O406 C390 1.251 . S
O406 Zn397 2.039 . S
C407 O412 1.246 . S
C407 O413 1.249 . S
O408 C390 1.254 . S
O408 Zn405 2.025 . S
H409 C401 0.952 . S
H410 C392 0.952 . S
H411 C400 0.948 . S
O412 Zn397 2.034 1_655 S
O412 C407 1.246 . S
O413 Zn405 2.024 1_655 S
O413 C407 1.249 . S
H414 C396 0.948 . S
O415 Zn405 2.039 1_655 S
O415 C419 1.251 . S
O416 Zn397 2.025 1_655 S
O416 C419 1.254 . S
O417 C398 1.246 . S
O417 Zn405 2.034 . S
O418 Zn397 2.024 . S
O418 C398 1.249 . S
C419 O415 1.251 . S
C419 O416 1.254 . S
H420 C393 0.949 . S
H421 C395 0.950 . S
H422 C402 0.949 . S
H423 C404 0.953 . S
C424 C425 1.391 . S
C424 C426 1.394 . S
C424 H440 0.931 . S
C425 C424 1.391 . S
C425 C429 1.377 . S
C426 C424 1.394 . S
C426 C427 1.369 . S
C426 C430 1.531 . S
C427 C426 1.369 . S
C427 C428 1.410 . S
C427 C435 1.503 . S
C428 C427 1.410 . S
C428 C429 1.393 . S
C428 C431 1.512 1_565 S
C429 C425 1.377 . S
C429 C428 1.393 . S
C429 H441 0.928 1_565 S
C430 C426 1.531 . S
C430 H442 0.960 . S
C430 H443 0.962 . S
C430 H444 0.960 . S
C431 C428 1.512 1_545 S
C431 H445 0.957 . S
C431 H446 0.959 . S
C431 H447 0.965 1_545 S
C432 C433 1.370 1_545 S
C432 C434 1.363 . S
C432 H448 0.931 . S
C433 C432 1.370 1_565 S
C433 C437 1.408 . S
C434 C432 1.363 . S
C434 C435 1.370 1_545 S
C434 C438 1.524 . S
C435 C427 1.503 . S
C435 C434 1.370 1_565 S
C435 C436 1.403 . S
C436 C435 1.403 . S
C436 C437 1.404 . S
C436 C439 1.539 . S
C437 C433 1.408 . S
C437 C436 1.404 . S
C437 H449 0.930 . S
C438 C434 1.524 . S
C438 H450 0.956 . S
C438 H451 0.961 . S
C438 H452 0.961 . S
C439 C436 1.539 . S
C439 H453 0.958 . S
C439 H454 0.961 . S
C439 H455 0.960 . S
H440 C424 0.931 . S
H441 C429 0.928 1_545 S
H442 C430 0.960 . S
H443 C430 0.962 . S
H444 C430 0.960 . S
H445 C431 0.957 . S
H446 C431 0.959 . S
H447 C431 0.965 1_565 S
H448 C432 0.931 . S
H449 C437 0.930 . S
H450 C438 0.956 . S
H451 C438 0.961 . S
H452 C438 0.961 . S
H453 C439 0.958 . S
H454 C439 0.961 . S
H455 C439 0.960 . S
C456 C457 1.391 . S
C456 C458 1.394 . S
C456 H472 0.931 . S
C457 C456 1.391 . S
C457 C461 1.376 . S
C458 C456 1.394 . S
C458 C459 1.369 . S
C458 C462 1.531 . S
C459 C458 1.369 . S
C459 C460 1.410 . S
C459 C467 1.503 . S
C460 C459 1.410 . S
C460 C461 1.392 . S
C460 C463 1.511 . S
C461 C457 1.376 . S
C461 C460 1.392 . S
C461 H473 0.929 . S
C462 C458 1.531 . S
C462 H474 0.960 . S
C462 H475 0.962 . S
C462 H476 0.960 . S
C463 C460 1.511 . S
C463 H477 0.961 . S
C463 H478 0.961 . S
C463 H479 0.961 . S
C464 C465 1.370 . S
C464 C466 1.363 . S
C464 H480 0.931 . S
C465 C464 1.370 . S
C465 C469 1.408 . S
C466 C464 1.363 . S
C466 C467 1.370 . S
C466 C470 1.524 . S
C467 C459 1.503 . S
C467 C466 1.370 . S
C467 C468 1.403 . S
C468 C467 1.403 . S
C468 C469 1.404 . S
C468 C471 1.539 . S
C469 C465 1.408 . S
C469 C468 1.404 . S
C469 H481 0.930 . S
C470 C466 1.524 . S
C470 H482 0.956 . S
C470 H483 0.961 . S
C470 H484 0.961 . S
C471 C468 1.539 . S
C471 H485 0.958 . S
C471 H486 0.961 . S
C471 H487 0.960 . S
H472 C456 0.931 . S
H473 C461 0.929 . S
H474 C462 0.960 . S
H475 C462 0.962 . S
H476 C462 0.960 . S
H477 C463 0.961 . S
H478 C463 0.961 . S
H479 C463 0.961 . S
H480 C464 0.931 . S
H481 C469 0.930 . S
H482 C470 0.956 . S
H483 C470 0.961 . S
H484 C470 0.961 . S
H485 C471 0.958 . S
H486 C471 0.961 . S
H487 C471 0.960 . S
C488 C489 1.391 . S
C488 C490 1.394 . S
C488 H504 0.931 . S
C489 C488 1.391 . S
C489 C493 1.376 . S
C490 C488 1.394 . S
C490 C491 1.369 . S
C490 C494 1.531 . S
C491 C490 1.369 . S
C491 C492 1.410 . S
C491 C499 1.503 . S
C492 C491 1.410 . S
C492 C493 1.392 . S
C492 C495 1.511 . S
C493 C489 1.376 . S
C493 C492 1.392 . S
C493 H505 0.929 . S
C494 C490 1.531 . S
C494 H506 0.960 . S
C494 H507 0.962 . S
C494 H508 0.960 . S
C495 C492 1.511 . S
C495 H509 0.961 . S
C495 H510 0.961 . S
C495 H511 0.961 . S
C496 C497 1.370 . S
C496 C498 1.363 . S
C496 H512 0.931 . S
C497 C496 1.370 . S
C497 C501 1.408 . S
C498 C496 1.363 . S
C498 C499 1.370 . S
C498 C502 1.524 . S
C499 C491 1.503 . S
C499 C498 1.370 . S
C499 C500 1.403 . S
C500 C499 1.403 . S
C500 C501 1.404 . S
C500 C503 1.539 . S
C501 C497 1.408 . S
C501 C500 1.404 . S
C501 H513 0.930 . S
C502 C498 1.524 . S
C502 H514 0.956 . S
C502 H515 0.961 . S
C502 H516 0.961 . S
C503 C500 1.539 . S
C503 H517 0.958 . S
C503 H518 0.961 . S
C503 H519 0.960 . S
H504 C488 0.931 . S
H505 C493 0.929 . S
H506 C494 0.960 . S
H507 C494 0.962 . S
H508 C494 0.960 . S
H509 C495 0.961 . S
H510 C495 0.961 . S
H511 C495 0.961 . S
H512 C496 0.931 . S
H513 C501 0.930 . S
H514 C502 0.956 . S
H515 C502 0.961 . S
H516 C502 0.961 . S
H517 C503 0.958 . S
H518 C503 0.961 . S
H519 C503 0.960 . S
C520 C521 1.391 . S
C520 C522 1.394 . S
C520 H536 0.931 . S
C521 C520 1.391 . S
C521 C525 1.376 . S
C522 C520 1.394 . S
C522 C523 1.369 . S
C522 C526 1.531 . S
C523 C522 1.369 . S
C523 C524 1.410 . S
C523 C531 1.503 . S
C524 C523 1.410 . S
C524 C525 1.392 . S
C524 C527 1.511 . S
C525 C521 1.376 . S
C525 C524 1.392 . S
C525 H537 0.929 . S
C526 C522 1.531 . S
C526 H538 0.960 . S
C526 H539 0.962 . S
C526 H540 0.960 . S
C527 C524 1.511 . S
C527 H541 0.961 . S
C527 H542 0.961 . S
C527 H543 0.961 . S
C528 C529 1.370 . S
C528 C530 1.363 . S
C528 H544 0.931 . S
C529 C528 1.370 . S
C529 C533 1.408 . S
C530 C528 1.363 . S
C530 C531 1.370 . S
C530 C534 1.524 . S
C531 C523 1.503 . S
C531 C530 1.370 . S
C531 C532 1.403 . S
C532 C531 1.403 . S
C532 C533 1.404 . S
C532 C535 1.539 . S
C533 C529 1.408 . S
C533 C532 1.404 . S
C533 H545 0.930 . S
C534 C530 1.524 . S
C534 H546 0.956 . S
C534 H547 0.961 . S
C534 H548 0.961 . S
C535 C532 1.539 . S
C535 H549 0.958 . S
C535 H550 0.961 . S
C535 H551 0.960 . S
H536 C520 0.931 . S
H537 C525 0.929 . S
H538 C526 0.960 . S
H539 C526 0.962 . S
H540 C526 0.960 . S
H541 C527 0.961 . S
H542 C527 0.961 . S
H543 C527 0.961 . S
H544 C528 0.931 . S
H545 C533 0.930 . S
H546 C534 0.956 . S
H547 C534 0.961 . S
H548 C534 0.961 . S
H549 C535 0.958 . S
H550 C535 0.961 . S
H551 C535 0.960 . S
C552 C553 1.391 . S
C552 C554 1.394 . S
C552 H568 0.931 . S
C553 C552 1.391 . S
C553 C557 1.376 1_545 S
C554 C552 1.394 . S
C554 C555 1.369 . S
C554 C558 1.531 . S
C555 C554 1.369 . S
C555 C556 1.410 1_545 S
C555 C563 1.503 . S
C556 C555 1.410 1_565 S
C556 C557 1.392 . S
C556 C559 1.511 . S
C557 C553 1.376 1_565 S
C557 C556 1.392 . S
C557 H569 0.929 1_556 S
C558 C554 1.531 . S
C558 H570 0.960 . S
C558 H571 0.962 . S
C558 H572 0.960 . S
C559 C556 1.511 . S
C559 H573 0.961 . S
C559 H574 0.961 . S
C559 H575 0.961 . S
C560 C561 1.370 1_565 S
C560 C562 1.363 . S
C560 H576 0.931 . S
C561 C560 1.370 1_545 S
C561 C565 1.408 . S
C562 C560 1.363 . S
C562 C563 1.370 1_565 S
C562 C566 1.524 . S
C563 C555 1.503 . S
C563 C562 1.370 1_545 S
C563 C564 1.403 . S
C564 C563 1.403 . S
C564 C565 1.404 . S
C564 C567 1.539 . S
C565 C561 1.408 . S
C565 C564 1.404 . S
C565 H577 0.930 . S
C566 C562 1.524 . S
C566 H578 0.956 . S
C566 H579 0.961 . S
C566 H580 0.961 . S
C567 C564 1.539 . S
C567 H581 0.958 . S
C567 H582 0.961 . S
C567 H583 0.960 . S
H568 C552 0.931 . S
H569 C557 0.929 1_554 S
H570 C558 0.960 . S
H571 C558 0.962 . S
H572 C558 0.960 . S
H573 C559 0.961 . S
H574 C559 0.961 . S
H575 C559 0.961 . S
H576 C560 0.931 . S
H577 C565 0.930 . S
H578 C566 0.956 . S
H579 C566 0.961 . S
H580 C566 0.961 . S
H581 C567 0.958 . S
H582 C567 0.961 . S
H583 C567 0.960 . S
C584 C585 1.391 . S
C584 C586 1.394 . S
C584 H600 0.931 . S
C585 C584 1.391 . S
C585 C589 1.376 . S
C586 C584 1.394 . S
C586 C587 1.369 . S
C586 C590 1.531 . S
C587 C586 1.369 . S
C587 C588 1.410 . S
C587 C595 1.503 . S
C588 C587 1.410 . S
C588 C589 1.392 . S
C588 C591 1.511 . S
C589 C585 1.376 . S
C589 C588 1.392 . S
C589 H601 0.929 1_556 S
C590 C586 1.531 . S
C590 H602 0.960 . S
C590 H603 0.962 . S
C590 H604 0.960 . S
C591 C588 1.511 . S
C591 H605 0.961 . S
C591 H606 0.961 . S
C591 H607 0.961 . S
C592 C593 1.370 . S
C592 C594 1.363 . S
C592 H608 0.931 . S
C593 C592 1.370 . S
C593 C597 1.408 . S
C594 C592 1.363 . S
C594 C595 1.370 . S
C594 C598 1.524 . S
C595 C587 1.503 . S
C595 C594 1.370 . S
C595 C596 1.403 . S
C596 C595 1.403 . S
C596 C597 1.404 . S
C596 C599 1.539 . S
C597 C593 1.408 . S
C597 C596 1.404 . S
C597 H609 0.930 . S
C598 C594 1.524 . S
C598 H610 0.956 . S
C598 H611 0.961 . S
C598 H612 0.961 . S
C599 C596 1.539 . S
C599 H613 0.958 . S
C599 H614 0.961 . S
C599 H615 0.960 . S
H600 C584 0.931 . S
H601 C589 0.929 1_554 S
H602 C590 0.960 . S
H603 C590 0.962 . S
H604 C590 0.960 . S
H605 C591 0.961 . S
H606 C591 0.961 . S
H607 C591 0.961 . S
H608 C592 0.931 . S
H609 C597 0.930 . S
H610 C598 0.956 . S
H611 C598 0.961 . S
H612 C598 0.961 . S
H613 C599 0.958 . S
H614 C599 0.961 . S
H615 C599 0.960 . S
C616 C617 1.391 . S
C616 C618 1.394 . S
C616 H632 0.931 . S
C617 C616 1.391 . S
C617 C621 1.376 1_554 S
C618 C616 1.394 . S
C618 C619 1.369 1_554 S
C618 C622 1.531 . S
C619 C618 1.369 1_556 S
C619 C620 1.410 . S
C619 C627 1.503 . S
C620 C619 1.410 . S
C620 C621 1.392 . S
C620 C623 1.511 . S
C621 C617 1.376 1_556 S
C621 C620 1.392 . S
C621 H633 0.929 . S
C622 C618 1.531 . S
C622 H634 0.960 1_554 S
C622 H635 0.962 . S
C622 H636 0.960 . S
C623 C620 1.511 . S
C623 H637 0.961 . S
C623 H638 0.961 . S
C623 H639 0.961 . S
C624 C625 1.370 . S
C624 C626 1.363 . S
C624 H640 0.931 . S
C625 C624 1.370 . S
C625 C629 1.408 . S
C626 C624 1.363 . S
C626 C627 1.370 . S
C626 C630 1.524 . S
C627 C619 1.503 . S
C627 C626 1.370 . S
C627 C628 1.403 . S
C628 C627 1.403 . S
C628 C629 1.404 . S
C628 C631 1.539 . S
C629 C625 1.408 . S
C629 C628 1.404 . S
C629 H641 0.930 . S
C630 C626 1.524 . S
C630 H642 0.956 . S
C630 H643 0.961 . S
C630 H644 0.961 . S
C631 C628 1.539 . S
C631 H645 0.958 . S
C631 H646 0.961 . S
C631 H647 0.960 . S
H632 C616 0.931 . S
H633 C621 0.929 . S
H634 C622 0.960 1_556 S
H635 C622 0.962 . S
H636 C622 0.960 . S
H637 C623 0.961 . S
H638 C623 0.961 . S
H639 C623 0.961 . S
H640 C624 0.931 . S
H641 C629 0.930 . S
H642 C630 0.956 . S
H643 C630 0.961 . S
H644 C630 0.961 . S
H645 C631 0.958 . S
H646 C631 0.961 . S
H647 C631 0.960 . S
C648 C649 1.391 . S
C648 C650 1.394 . S
C648 H664 0.931 . S
C649 C648 1.391 . S
C649 C653 1.376 . S
C650 C648 1.394 . S
C650 C651 1.369 . S
C650 C654 1.531 . S
C651 C650 1.369 . S
C651 C652 1.410 . S
C651 C659 1.503 . S
C652 C651 1.410 . S
C652 C653 1.392 . S
C652 C655 1.511 . S
C653 C649 1.376 . S
C653 C652 1.392 . S
C653 H665 0.929 . S
C654 C650 1.531 . S
C654 H666 0.960 . S
C654 H667 0.962 . S
C654 H668 0.960 . S
C655 C652 1.511 . S
C655 H669 0.961 . S
C655 H670 0.961 . S
C655 H671 0.961 . S
C656 C657 1.370 . S
C656 C658 1.363 . S
C656 H672 0.931 . S
C657 C656 1.370 . S
C657 C661 1.408 . S
C658 C656 1.363 . S
C658 C659 1.370 . S
C658 C662 1.524 . S
C659 C651 1.503 . S
C659 C658 1.370 . S
C659 C660 1.403 . S
C660 C659 1.403 . S
C660 C661 1.404 . S
C660 C663 1.539 . S
C661 C657 1.408 . S
C661 C660 1.404 . S
C661 H673 0.930 1_655 S
C662 C658 1.524 . S
C662 H674 0.956 . S
C662 H675 0.961 . S
C662 H676 0.961 . S
C663 C660 1.539 . S
C663 H677 0.958 1_655 S
C663 H678 0.961 . S
C663 H679 0.960 . S
H664 C648 0.931 . S
H665 C653 0.929 . S
H666 C654 0.960 . S
H667 C654 0.962 . S
H668 C654 0.960 . S
H669 C655 0.961 . S
H670 C655 0.961 . S
H671 C655 0.961 . S
H672 C656 0.931 . S
H673 C661 0.930 1_455 S
H674 C662 0.956 . S
H675 C662 0.961 . S
H676 C662 0.961 . S
H677 C663 0.958 1_455 S
H678 C663 0.961 . S
H679 C663 0.960 . S
C680 C681 1.391 . S
C680 C682 1.394 . S
C680 H696 0.931 . S
C681 C680 1.391 . S
C681 C685 1.376 . S
C682 C680 1.394 . S
C682 C683 1.369 . S
C682 C686 1.531 . S
C683 C682 1.369 . S
C683 C684 1.410 . S
C683 C691 1.503 . S
C684 C683 1.410 . S
C684 C685 1.392 . S
C684 C687 1.511 . S
C685 C681 1.376 . S
C685 C684 1.392 . S
C685 H697 0.929 . S
C686 C682 1.531 . S
C686 H698 0.960 . S
C686 H699 0.962 . S
C686 H700 0.960 . S
C687 C684 1.511 . S
C687 H701 0.961 . S
C687 H702 0.961 . S
C687 H703 0.961 . S
C688 C689 1.370 . S
C688 C690 1.363 . S
C688 H704 0.931 . S
C689 C688 1.370 . S
C689 C693 1.408 . S
C690 C688 1.363 . S
C690 C691 1.370 . S
C690 C694 1.524 . S
C691 C683 1.503 . S
C691 C690 1.370 . S
C691 C692 1.403 . S
C692 C691 1.403 . S
C692 C693 1.404 . S
C692 C695 1.539 . S
C693 C689 1.408 . S
C693 C692 1.404 . S
C693 H705 0.930 . S
C694 C690 1.524 . S
C694 H706 0.956 . S
C694 H707 0.961 . S
C694 H708 0.961 . S
C695 C692 1.539 . S
C695 H709 0.958 . S
C695 H710 0.961 . S
C695 H711 0.960 . S
H696 C680 0.931 . S
H697 C685 0.929 . S
H698 C686 0.960 . S
H699 C686 0.962 . S
H700 C686 0.960 . S
H701 C687 0.961 . S
H702 C687 0.961 . S
H703 C687 0.961 . S
H704 C688 0.931 . S
H705 C693 0.930 . S
H706 C694 0.956 . S
H707 C694 0.961 . S
H708 C694 0.961 . S
H709 C695 0.958 . S
H710 C695 0.961 . S
H711 C695 0.960 . S
C712 C713 1.391 . S
C712 C714 1.394 . S
C712 H728 0.931 . S
C713 C712 1.391 . S
C713 C717 1.376 1_545 S
C714 C712 1.394 . S
C714 C715 1.393 . S
C714 C718 1.531 . S
C715 C714 1.393 . S
C715 C716 1.390 1_545 S
C715 C723 1.496 1_545 S
C716 C715 1.390 1_565 S
C716 C717 1.392 . S
C716 C719 1.511 . S
C717 C713 1.376 1_565 S
C717 C716 1.392 . S
C717 H729 0.929 . S
C718 C714 1.531 . S
C718 H730 0.960 . S
C718 H731 0.962 . S
C718 H732 0.960 . S
C719 C716 1.511 . S
C719 H733 0.961 . S
C719 H734 0.961 . S
C719 H735 0.961 . S
C720 C721 1.370 . S
C720 C722 1.363 . S
C720 H736 0.931 . S
C721 C720 1.370 . S
C721 C725 1.408 1_565 S
C722 C720 1.363 . S
C722 C723 1.370 . S
C722 C726 1.524 . S
C723 C715 1.496 1_565 S
C723 C722 1.370 . S
C723 C724 1.403 1_565 S
C724 C723 1.403 1_545 S
C724 C725 1.404 . S
C724 C727 1.539 . S
C725 C721 1.408 1_545 S
C725 C724 1.404 . S
C725 H737 0.930 . S
C726 C722 1.524 . S
C726 H738 0.956 . S
C726 H739 0.961 . S
C726 H740 0.961 . S
C727 C724 1.539 . S
C727 H741 0.958 . S
C727 H742 0.961 . S
C727 H743 0.960 . S
H728 C712 0.931 . S
H729 C717 0.929 . S
H730 C718 0.960 . S
H731 C718 0.962 . S
H732 C718 0.960 . S
H733 C719 0.961 . S
H734 C719 0.961 . S
H735 C719 0.961 . S
H736 C720 0.931 . S
H737 C725 0.930 . S
H738 C726 0.956 . S
H739 C726 0.961 . S
H740 C726 0.961 . S
H741 C727 0.958 . S
H742 C727 0.961 . S
H743 C727 0.960 . S
C744 C745 1.391 . S
C744 C746 1.394 . S
C744 H760 0.931 . S
C745 C744 1.391 . S
C745 C749 1.376 . S
C746 C744 1.394 . S
C746 C747 1.369 . S
C746 C750 1.531 . S
C747 C746 1.369 . S
C747 C748 1.410 . S
C747 C755 1.503 . S
C748 C747 1.410 . S
C748 C749 1.392 . S
C748 C751 1.511 . S
C749 C745 1.376 . S
C749 C748 1.392 . S
C749 H761 0.929 . S
C750 C746 1.531 . S
C750 H762 0.960 . S
C750 H763 0.962 . S
C750 H764 0.960 . S
C751 C748 1.511 . S
C751 H765 0.961 . S
C751 H766 0.961 . S
C751 H767 0.961 . S
C752 C753 1.370 . S
C752 C754 1.363 . S
C752 H768 0.931 . S
C753 C752 1.370 . S
C753 C757 1.408 . S
C754 C752 1.363 . S
C754 C755 1.370 . S
C754 C758 1.524 . S
C755 C747 1.503 . S
C755 C754 1.370 . S
C755 C756 1.403 . S
C756 C755 1.403 . S
C756 C757 1.404 . S
C756 C759 1.539 . S
C757 C753 1.408 . S
C757 C756 1.404 . S
C757 H769 0.930 . S
C758 C754 1.524 . S
C758 H770 0.956 . S
C758 H771 0.961 . S
C758 H772 0.961 . S
C759 C756 1.539 . S
C759 H773 0.958 . S
C759 H774 0.961 . S
C759 H775 0.960 . S
H760 C744 0.931 . S
H761 C749 0.929 . S
H762 C750 0.960 . S
H763 C750 0.962 . S
H764 C750 0.960 . S
H765 C751 0.961 . S
H766 C751 0.961 . S
H767 C751 0.961 . S
H768 C752 0.931 . S
H769 C757 0.930 . S
H770 C758 0.956 . S
H771 C758 0.961 . S
H772 C758 0.961 . S
H773 C759 0.958 . S
H774 C759 0.961 . S
H775 C759 0.960 . S
C776 C777 1.391 . S
C776 C778 1.394 . S
C776 H792 0.931 . S
C777 C776 1.391 . S
C777 C781 1.376 . S
C778 C776 1.394 . S
C778 C779 1.369 . S
C778 C782 1.531 . S
C779 C778 1.369 . S
C779 C780 1.410 . S
C779 C787 1.503 . S
C780 C779 1.410 . S
C780 C781 1.392 . S
C780 C783 1.511 . S
C781 C777 1.376 . S
C781 C780 1.392 . S
C781 H793 0.929 . S
C782 C778 1.531 . S
C782 H794 0.960 . S
C782 H795 0.962 . S
C782 H796 0.960 . S
C783 C780 1.511 . S
C783 H797 0.961 . S
C783 H798 0.961 . S
C783 H799 0.961 . S
C784 C785 1.370 . S
C784 C786 1.363 . S
C784 H800 0.931 . S
C785 C784 1.370 . S
C785 C789 1.408 . S
C786 C784 1.363 . S
C786 C787 1.370 . S
C786 C790 1.524 . S
C787 C779 1.503 . S
C787 C786 1.370 . S
C787 C788 1.403 . S
C788 C787 1.403 . S
C788 C789 1.404 . S
C788 C791 1.539 . S
C789 C785 1.408 . S
C789 C788 1.404 . S
C789 H801 0.930 . S
C790 C786 1.524 . S
C790 H802 0.956 . S
C790 H803 0.961 . S
C790 H804 0.961 . S
C791 C788 1.539 . S
C791 H805 0.958 . S
C791 H806 0.961 . S
C791 H807 0.960 . S
H792 C776 0.931 . S
H793 C781 0.929 . S
H794 C782 0.960 . S
H795 C782 0.962 . S
H796 C782 0.960 . S
H797 C783 0.961 . S
H798 C783 0.961 . S
H799 C783 0.961 . S
H800 C784 0.931 . S
H801 C789 0.930 . S
H802 C790 0.956 . S
H803 C790 0.961 . S
H804 C790 0.961 . S
H805 C791 0.958 . S
H806 C791 0.961 . S
H807 C791 0.960 . S
C808 C809 1.391 . S
C808 C810 1.394 . S
C808 H824 0.931 . S
C809 C808 1.391 . S
C809 C813 1.376 . S
C810 C808 1.394 . S
C810 C811 1.369 . S
C810 C814 1.531 . S
C811 C810 1.369 . S
C811 C812 1.410 . S
C811 C819 1.503 . S
C812 C811 1.410 . S
C812 C813 1.392 . S
C812 C815 1.511 . S
C813 C809 1.376 . S
C813 C812 1.392 . S
C813 H825 0.929 . S
C814 C810 1.531 . S
C814 H826 0.960 . S
C814 H827 0.962 . S
C814 H828 0.960 . S
C815 C812 1.511 . S
C815 H829 0.961 . S
C815 H830 0.961 . S
C815 H831 0.961 . S
C816 C817 1.370 1_655 S
C816 C818 1.363 . S
C816 H832 0.931 . S
C817 C816 1.370 1_455 S
C817 C821 1.408 . S
C818 C816 1.363 . S
C818 C819 1.370 . S
C818 C822 1.524 . S
C819 C811 1.503 . S
C819 C818 1.370 . S
C819 C820 1.403 . S
C820 C819 1.403 . S
C820 C821 1.404 1_655 S
C820 C823 1.539 . S
C821 C817 1.408 . S
C821 C820 1.404 1_455 S
C821 H833 0.930 . S
C822 C818 1.524 . S
C822 H834 0.956 . S
C822 H835 0.961 . S
C822 H836 0.961 . S
C823 C820 1.539 . S
C823 H837 0.958 . S
C823 H838 0.961 1_655 S
C823 H839 0.960 . S
H824 C808 0.931 . S
H825 C813 0.929 . S
H826 C814 0.960 . S
H827 C814 0.962 . S
H828 C814 0.960 . S
H829 C815 0.961 . S
H830 C815 0.961 . S
H831 C815 0.961 . S
H832 C816 0.931 . S
H833 C821 0.930 . S
H834 C822 0.956 . S
H835 C822 0.961 . S
H836 C822 0.961 . S
H837 C823 0.958 . S
H838 C823 0.961 1_455 S
H839 C823 0.960 . S
C840 C841 1.391 1_545 S
C840 C842 1.394 . S
C840 H856 0.931 . S
C841 C840 1.391 1_565 S
C841 C845 1.376 . S
C842 C840 1.394 . S
C842 C843 1.369 1_545 S
C842 C846 1.531 . S
C843 C842 1.369 1_565 S
C843 C844 1.410 . S
C843 C851 1.503 1_565 S
C844 C843 1.410 . S
C844 C845 1.392 . S
C844 C847 1.511 . S
C845 C841 1.376 . S
C845 C844 1.392 . S
C845 H857 0.929 . S
C846 C842 1.531 . S
C846 H858 0.960 . S
C846 H859 0.962 . S
C846 H860 0.960 . S
C847 C844 1.511 . S
C847 H861 0.961 . S
C847 H862 0.961 . S
C847 H863 0.961 . S
C848 C849 1.370 . S
C848 C850 1.363 . S
C848 H864 0.931 . S
C849 C848 1.370 . S
C849 C853 1.408 1_545 S
C850 C848 1.363 . S
C850 C851 1.370 . S
C850 C854 1.524 . S
C851 C843 1.503 1_545 S
C851 C850 1.370 . S
C851 C852 1.403 1_545 S
C852 C851 1.403 1_565 S
C852 C853 1.404 . S
C852 C855 1.539 . S
C853 C849 1.408 1_565 S
C853 C852 1.404 . S
C853 H865 0.930 . S
C854 C850 1.524 . S
C854 H866 0.956 . S
C854 H867 0.961 . S
C854 H868 0.961 . S
C855 C852 1.539 . S
C855 H869 0.958 . S
C855 H870 0.961 . S
C855 H871 0.960 . S
H856 C840 0.931 . S
H857 C845 0.929 . S
H858 C846 0.960 . S
H859 C846 0.962 . S
H860 C846 0.960 . S
H861 C847 0.961 . S
H862 C847 0.961 . S
H863 C847 0.961 . S
H864 C848 0.931 . S
H865 C853 0.930 . S
H866 C854 0.956 . S
H867 C854 0.961 . S
H868 C854 0.961 . S
H869 C855 0.958 . S
H870 C855 0.961 . S
H871 C855 0.960 . S
C872 C873 1.391 . S
C872 C874 1.394 . S
C872 H888 0.931 . S
C873 C872 1.391 . S
C873 C877 1.376 . S
C874 C872 1.394 . S
C874 C875 1.369 . S
C874 C878 1.531 . S
C875 C874 1.369 . S
C875 C876 1.410 . S
C875 C883 1.503 . S
C876 C875 1.410 . S
C876 C877 1.392 . S
C876 C879 1.511 . S
C877 C873 1.376 . S
C877 C876 1.392 . S
C877 H889 0.929 . S
C878 C874 1.531 . S
C878 H890 0.960 . S
C878 H891 0.962 . S
C878 H892 0.960 . S
C879 C876 1.511 . S
C879 H893 0.961 . S
C879 H894 0.961 . S
C879 H895 0.961 . S
C880 C881 1.370 . S
C880 C882 1.363 . S
C880 H896 0.931 . S
C881 C880 1.370 . S
C881 C885 1.408 . S
C882 C880 1.363 . S
C882 C883 1.370 . S
C882 C886 1.524 . S
C883 C875 1.503 . S
C883 C882 1.370 . S
C883 C884 1.403 . S
C884 C883 1.403 . S
C884 C885 1.404 . S
C884 C887 1.539 . S
C885 C881 1.408 . S
C885 C884 1.404 . S
C885 H897 0.930 . S
C886 C882 1.524 . S
C886 H898 0.956 . S
C886 H899 0.961 . S
C886 H900 0.961 . S
C887 C884 1.539 . S
C887 H901 0.958 . S
C887 H902 0.961 . S
C887 H903 0.960 . S
H888 C872 0.931 . S
H889 C877 0.929 . S
H890 C878 0.960 . S
H891 C878 0.962 . S
H892 C878 0.960 . S
H893 C879 0.961 . S
H894 C879 0.961 . S
H895 C879 0.961 . S
H896 C880 0.931 . S
H897 C885 0.930 . S
H898 C886 0.956 . S
H899 C886 0.961 . S
H900 C886 0.961 . S
H901 C887 0.958 . S
H902 C887 0.961 . S
H903 C887 0.960 . S
C904 C905 1.391 . S
C904 C906 1.394 . S
C904 H920 0.931 1_556 S
C905 C904 1.391 . S
C905 C909 1.376 . S
C906 C904 1.394 . S
C906 C907 1.369 . S
C906 C910 1.531 . S
C907 C906 1.369 . S
C907 C908 1.410 . S
C907 C915 1.503 . S
C908 C907 1.410 . S
C908 C909 1.392 . S
C908 C911 1.511 . S
C909 C905 1.376 . S
C909 C908 1.392 . S
C909 H921 0.929 . S
C910 C906 1.531 . S
C910 H922 0.960 . S
C910 H923 0.962 . S
C910 H924 0.960 1_556 S
C911 C908 1.511 . S
C911 H925 0.961 . S
C911 H926 0.961 . S
C911 H927 0.961 . S
C912 C913 1.370 . S
C912 C914 1.363 . S
C912 H928 0.931 . S
C913 C912 1.370 . S
C913 C917 1.408 . S
C914 C912 1.363 . S
C914 C915 1.370 . S
C914 C918 1.524 . S
C915 C907 1.503 . S
C915 C914 1.370 . S
C915 C916 1.403 . S
C916 C915 1.403 . S
C916 C917 1.404 . S
C916 C919 1.539 . S
C917 C913 1.408 . S
C917 C916 1.404 . S
C917 H929 0.930 . S
C918 C914 1.524 . S
C918 H930 0.956 . S
C918 H931 0.961 . S
C918 H932 0.961 . S
C919 C916 1.539 . S
C919 H933 0.958 . S
C919 H934 0.961 . S
C919 H935 0.960 . S
H920 C904 0.931 1_554 S
H921 C909 0.929 . S
H922 C910 0.960 . S
H923 C910 0.962 . S
H924 C910 0.960 1_554 S
H925 C911 0.961 . S
H926 C911 0.961 . S
H927 C911 0.961 . S
H928 C912 0.931 . S
H929 C917 0.930 . S
H930 C918 0.956 . S
H931 C918 0.961 . S
H932 C918 0.961 . S
H933 C919 0.958 . S
H934 C919 0.961 . S
H935 C919 0.960 . S
C936 C937 1.391 . S
C936 C938 1.394 . S
C936 H952 0.931 . S
C937 C936 1.391 . S
C937 C941 1.376 . S
C938 C936 1.394 . S
C938 C939 1.369 . S
C938 C942 1.531 1_554 S
C939 C938 1.369 . S
C939 C940 1.410 . S
C939 C947 1.503 . S
C940 C939 1.410 . S
C940 C941 1.392 . S
C940 C943 1.511 . S
C941 C937 1.376 . S
C941 C940 1.392 . S
C941 H953 0.929 . S
C942 C938 1.531 1_556 S
C942 H954 0.960 . S
C942 H955 0.962 1_556 S
C942 H956 0.960 . S
C943 C940 1.511 . S
C943 H957 0.961 . S
C943 H958 0.961 . S
C943 H959 0.961 . S
C944 C945 1.370 1_554 S
C944 C946 1.363 . S
C944 H960 0.931 . S
C945 C944 1.370 1_556 S
C945 C949 1.408 . S
C946 C944 1.363 . S
C946 C947 1.370 . S
C946 C950 1.524 . S
C947 C939 1.503 . S
C947 C946 1.370 . S
C947 C948 1.403 1_554 S
C948 C947 1.403 1_556 S
C948 C949 1.404 . S
C948 C951 1.539 . S
C949 C945 1.408 . S
C949 C948 1.404 . S
C949 H961 0.930 . S
C950 C946 1.524 . S
C950 H962 0.956 . S
C950 H963 0.961 . S
C950 H964 0.961 . S
C951 C948 1.539 . S
C951 H965 0.958 . S
C951 H966 0.961 . S
C951 H967 0.960 . S
H952 C936 0.931 . S
H953 C941 0.929 . S
H954 C942 0.960 . S
H955 C942 0.962 1_554 S
H956 C942 0.960 . S
H957 C943 0.961 . S
H958 C943 0.961 . S
H959 C943 0.961 . S
H960 C944 0.931 . S
H961 C949 0.930 . S
H962 C950 0.956 . S
H963 C950 0.961 . S
H964 C950 0.961 . S
H965 C951 0.958 . S
H966 C951 0.961 . S
H967 C951 0.960 . S
C968 C969 1.391 1_566 S
C968 C970 1.394 . S
C968 H984 0.931 . S
C969 C968 1.391 1_544 S
C969 C973 1.376 . S
C970 C968 1.394 . S
C970 C971 1.369 1_565 S
C970 C974 1.531 . S
C971 C970 1.369 1_545 S
C971 C972 1.410 . S
C971 C979 1.503 . S
C972 C971 1.410 . S
C972 C973 1.392 1_556 S
C972 C975 1.511 1_556 S
C973 C969 1.376 . S
C973 C972 1.392 1_554 S
C973 H985 0.929 . S
C974 C970 1.531 . S
C974 H986 0.960 . S
C974 H987 0.962 . S
C974 H988 0.960 . S
C975 C972 1.511 1_554 S
C975 H989 0.961 . S
C975 H990 0.961 1_554 S
C975 H991 0.961 1_554 S
C976 C977 1.370 1_565 S
C976 C978 1.363 . S
C976 H992 0.931 . S
C977 C976 1.370 1_545 S
C977 C981 1.408 . S
C978 C976 1.363 . S
C978 C979 1.370 1_565 S
C978 C982 1.524 . S
C979 C971 1.503 . S
C979 C978 1.370 1_545 S
C979 C980 1.403 . S
C980 C979 1.403 . S
C980 C981 1.404 . S
C980 C983 1.539 . S
C981 C977 1.408 . S
C981 C980 1.404 . S
C981 H993 0.930 . S
C982 C978 1.524 . S
C982 H994 0.956 . S
C982 H995 0.961 1_556 S
C982 H996 0.961 . S
C983 C980 1.539 . S
C983 H997 0.958 . S
C983 H998 0.961 . S
C983 H999 0.960 . S
H984 C968 0.931 . S
H985 C973 0.929 . S
H986 C974 0.960 . S
H987 C974 0.962 . S
H988 C974 0.960 . S
H989 C975 0.961 . S
H990 C975 0.961 1_556 S
H991 C975 0.961 1_556 S
H992 C976 0.931 . S
H993 C981 0.930 . S
H994 C982 0.956 . S
H995 C982 0.961 1_554 S
H996 C982 0.961 . S
H997 C983 0.958 . S
H998 C983 0.961 . S
H999 C983 0.960 . S
C1000 C1001 1.391 . S
C1000 C1002 1.394 . S
C1000 H1016 0.931 . S
C1001 C1000 1.391 . S
C1001 C1005 1.376 1_554 S
C1002 C1000 1.394 . S
C1002 C1003 1.369 1_554 S
C1002 C1006 1.531 . S
C1003 C1002 1.369 1_556 S
C1003 C1004 1.410 . S
C1003 C1011 1.503 . S
C1004 C1003 1.410 . S
C1004 C1005 1.392 . S
C1004 C1007 1.511 . S
C1005 C1001 1.376 1_556 S
C1005 C1004 1.392 . S
C1005 H1017 0.929 . S
C1006 C1002 1.531 . S
C1006 H1018 0.960 . S
C1006 H1019 0.962 . S
C1006 H1020 0.960 . S
C1007 C1004 1.511 . S
C1007 H1021 0.961 . S
C1007 H1022 0.961 . S
C1007 H1023 0.961 . S
C1008 C1009 1.370 . S
C1008 C1010 1.363 . S
C1008 H1024 0.931 . S
C1009 C1008 1.370 . S
C1009 C1013 1.408 . S
C1010 C1008 1.363 . S
C1010 C1011 1.370 . S
C1010 C1014 1.524 . S
C1011 C1003 1.503 . S
C1011 C1010 1.370 . S
C1011 C1012 1.403 . S
C1012 C1011 1.403 . S
C1012 C1013 1.404 . S
C1012 C1015 1.539 . S
C1013 C1009 1.408 . S
C1013 C1012 1.404 . S
C1013 H1025 0.930 . S
C1014 C1010 1.524 . S
C1014 H1026 0.956 . S
C1014 H1027 0.961 . S
C1014 H1028 0.961 . S
C1015 C1012 1.539 . S
C1015 H1029 0.958 . S
C1015 H1030 0.961 . S
C1015 H1031 0.960 . S
H1016 C1000 0.931 . S
H1017 C1005 0.929 . S
H1018 C1006 0.960 . S
H1019 C1006 0.962 . S
H1020 C1006 0.960 . S
H1021 C1007 0.961 . S
H1022 C1007 0.961 . S
H1023 C1007 0.961 . S
H1024 C1008 0.931 . S
H1025 C1013 0.930 . S
H1026 C1014 0.956 . S
H1027 C1014 0.961 . S
H1028 C1014 0.961 . S
H1029 C1015 0.958 . S
H1030 C1015 0.961 . S
H1031 C1015 0.960 . S
C1032 C1033 1.391 . S
C1032 C1034 1.394 . S
C1032 H1048 0.931 . S
C1033 C1032 1.391 . S
C1033 C1037 1.376 . S
C1034 C1032 1.394 . S
C1034 C1035 1.369 . S
C1034 C1038 1.531 . S
C1035 C1034 1.369 . S
C1035 C1036 1.410 . S
C1035 C1043 1.503 . S
C1036 C1035 1.410 . S
C1036 C1037 1.392 . S
C1036 C1039 1.511 . S
C1037 C1033 1.376 . S
C1037 C1036 1.392 . S
C1037 H1049 0.929 . S
C1038 C1034 1.531 . S
C1038 H1050 0.960 . S
C1038 H1051 0.962 . S
C1038 H1052 0.960 . S
C1039 C1036 1.511 . S
C1039 H1053 0.961 . S
C1039 H1054 0.961 . S
C1039 H1055 0.961 . S
C1040 C1041 1.370 . S
C1040 C1042 1.363 . S
C1040 H1056 0.931 . S
C1041 C1040 1.370 . S
C1041 C1045 1.408 . S
C1042 C1040 1.363 . S
C1042 C1043 1.370 . S
C1042 C1046 1.524 . S
C1043 C1035 1.503 . S
C1043 C1042 1.370 . S
C1043 C1044 1.403 . S
C1044 C1043 1.403 . S
C1044 C1045 1.404 . S
C1044 C1047 1.539 . S
C1045 C1041 1.408 . S
C1045 C1044 1.404 . S
C1045 H1057 0.930 . S
C1046 C1042 1.524 . S
C1046 H1058 0.956 . S
C1046 H1059 0.961 . S
C1046 H1060 0.961 . S
C1047 C1044 1.539 . S
C1047 H1061 0.958 1_556 S
C1047 H1062 0.961 . S
C1047 H1063 0.960 1_556 S
H1048 C1032 0.931 . S
H1049 C1037 0.929 . S
H1050 C1038 0.960 . S
H1051 C1038 0.962 . S
H1052 C1038 0.960 . S
H1053 C1039 0.961 . S
H1054 C1039 0.961 . S
H1055 C1039 0.961 . S
H1056 C1040 0.931 . S
H1057 C1045 0.930 . S
H1058 C1046 0.956 . S
H1059 C1046 0.961 . S
H1060 C1046 0.961 . S
H1061 C1047 0.958 1_554 S
H1062 C1047 0.961 . S
H1063 C1047 0.960 1_554 S
C1064 C1065 1.391 . S
C1064 C1066 1.394 . S
C1064 H1080 0.931 . S
C1065 C1064 1.391 . S
C1065 C1069 1.376 . S
C1066 C1064 1.394 . S
C1066 C1067 1.369 . S
C1066 C1070 1.531 . S
C1067 C1066 1.369 . S
C1067 C1068 1.410 . S
C1067 C1075 1.503 . S
C1068 C1067 1.410 . S
C1068 C1069 1.392 . S
C1068 C1071 1.511 . S
C1069 C1065 1.376 . S
C1069 C1068 1.392 . S
C1069 H1081 0.929 . S
C1070 C1066 1.531 . S
C1070 H1082 0.960 . S
C1070 H1083 0.962 . S
C1070 H1084 0.960 . S
C1071 C1068 1.511 . S
C1071 H1085 0.961 . S
C1071 H1086 0.961 . S
C1071 H1087 0.961 . S
C1072 C1073 1.370 . S
C1072 C1074 1.363 . S
C1072 H1088 0.931 . S
C1073 C1072 1.370 . S
C1073 C1077 1.408 . S
C1074 C1072 1.363 . S
C1074 C1075 1.370 . S
C1074 C1078 1.524 . S
C1075 C1067 1.503 . S
C1075 C1074 1.370 . S
C1075 C1076 1.403 . S
C1076 C1075 1.403 . S
C1076 C1077 1.404 . S
C1076 C1079 1.539 . S
C1077 C1073 1.408 . S
C1077 C1076 1.404 . S
C1077 H1089 0.930 . S
C1078 C1074 1.524 . S
C1078 H1090 0.956 . S
C1078 H1091 0.961 . S
C1078 H1092 0.961 . S
C1079 C1076 1.539 . S
C1079 H1093 0.958 . S
C1079 H1094 0.961 . S
C1079 H1095 0.960 . S
H1080 C1064 0.931 . S
H1081 C1069 0.929 . S
H1082 C1070 0.960 . S
H1083 C1070 0.962 . S
H1084 C1070 0.960 . S
H1085 C1071 0.961 . S
H1086 C1071 0.961 . S
H1087 C1071 0.961 . S
H1088 C1072 0.931 . S
H1089 C1077 0.930 . S
H1090 C1078 0.956 . S
H1091 C1078 0.961 . S
H1092 C1078 0.961 . S
H1093 C1079 0.958 . S
H1094 C1079 0.961 . S
H1095 C1079 0.960 . S
C1096 C1097 1.394 . S
C1096 C1098 1.394 . S
C1096 H1112 0.928 1_565 S
C1097 C1096 1.394 . S
C1097 C1101 1.376 . S
C1098 C1096 1.394 . S
C1098 C1099 1.369 . S
C1098 C1102 1.532 . S
C1099 C1098 1.369 . S
C1099 C1100 1.410 . S
C1099 C1107 1.503 . S
C1100 C1099 1.410 . S
C1100 C1101 1.392 . S
C1100 C1103 1.511 . S
C1101 C1097 1.376 . S
C1101 C1100 1.392 . S
C1101 H1113 0.929 . S
C1102 C1098 1.532 . S
C1102 H1114 0.965 . S
C1102 H1115 0.953 1_565 S
C1102 H1116 0.964 . S
C1103 C1100 1.511 . S
C1103 H1117 0.961 . S
C1103 H1118 0.961 . S
C1103 H1119 0.961 . S
C1104 C1105 1.370 1_545 S
C1104 C1106 1.363 . S
C1104 H1120 0.931 . S
C1105 C1104 1.370 1_565 S
C1105 C1109 1.408 . S
C1106 C1104 1.363 . S
C1106 C1107 1.370 1_545 S
C1106 C1110 1.524 . S
C1107 C1099 1.503 . S
C1107 C1106 1.370 1_565 S
C1107 C1108 1.403 . S
C1108 C1107 1.403 . S
C1108 C1109 1.404 . S
C1108 C1111 1.539 . S
C1109 C1105 1.408 . S
C1109 C1108 1.404 . S
C1109 H1121 0.930 . S
C1110 C1106 1.524 . S
C1110 H1122 0.956 . S
C1110 H1123 0.961 . S
C1110 H1124 0.961 . S
C1111 C1108 1.539 . S
C1111 H1125 0.958 . S
C1111 H1126 0.961 . S
C1111 H1127 0.960 . S
H1112 C1096 0.928 1_545 S
H1113 C1101 0.929 . S
H1114 C1102 0.965 . S
H1115 C1102 0.953 1_545 S
H1116 C1102 0.964 . S
H1117 C1103 0.961 . S
H1118 C1103 0.961 . S
H1119 C1103 0.961 . S
H1120 C1104 0.931 . S
H1121 C1109 0.930 . S
H1122 C1110 0.956 . S
H1123 C1110 0.961 . S
H1124 C1110 0.961 . S
H1125 C1111 0.958 . S
H1126 C1111 0.961 . S
H1127 C1111 0.960 . S
C1128 C1129 1.391 . S
C1128 C1130 1.394 . S
C1128 H1144 0.931 . S
C1129 C1128 1.391 . S
C1129 C1133 1.376 . S
C1130 C1128 1.394 . S
C1130 C1131 1.369 . S
C1130 C1134 1.531 . S
C1131 C1130 1.369 . S
C1131 C1132 1.410 . S
C1131 C1139 1.503 . S
C1132 C1131 1.410 . S
C1132 C1133 1.392 . S
C1132 C1135 1.511 . S
C1133 C1129 1.376 . S
C1133 C1132 1.392 . S
C1133 H1145 0.929 . S
C1134 C1130 1.531 . S
C1134 H1146 0.960 . S
C1134 H1147 0.962 . S
C1134 H1148 0.960 . S
C1135 C1132 1.511 . S
C1135 H1149 0.961 . S
C1135 H1150 0.961 . S
C1135 H1151 0.961 . S
C1136 C1137 1.370 . S
C1136 C1138 1.363 . S
C1136 H1152 0.931 . S
C1137 C1136 1.370 . S
C1137 C1141 1.408 . S
C1138 C1136 1.363 . S
C1138 C1139 1.370 . S
C1138 C1142 1.524 . S
C1139 C1131 1.503 . S
C1139 C1138 1.370 . S
C1139 C1140 1.403 . S
C1140 C1139 1.403 . S
C1140 C1141 1.404 . S
C1140 C1143 1.539 . S
C1141 C1137 1.408 . S
C1141 C1140 1.404 . S
C1141 H1153 0.930 . S
C1142 C1138 1.524 . S
C1142 H1154 0.956 . S
C1142 H1155 0.961 . S
C1142 H1156 0.961 . S
C1143 C1140 1.539 . S
C1143 H1157 0.958 . S
C1143 H1158 0.961 . S
C1143 H1159 0.960 . S
H1144 C1128 0.931 . S
H1145 C1133 0.929 . S
H1146 C1134 0.960 . S
H1147 C1134 0.962 . S
H1148 C1134 0.960 . S
H1149 C1135 0.961 . S
H1150 C1135 0.961 . S
H1151 C1135 0.961 . S
H1152 C1136 0.931 . S
H1153 C1141 0.930 . S
H1154 C1142 0.956 . S
H1155 C1142 0.961 . S
H1156 C1142 0.961 . S
H1157 C1143 0.958 . S
H1158 C1143 0.961 . S
H1159 C1143 0.960 . S
C1160 C1161 1.391 . S
C1160 C1162 1.394 . S
C1160 H1176 0.931 . S
C1161 C1160 1.391 . S
C1161 C1165 1.376 . S
C1162 C1160 1.394 . S
C1162 C1163 1.369 . S
C1162 C1166 1.531 . S
C1163 C1162 1.369 . S
C1163 C1164 1.410 . S
C1163 C1171 1.503 . S
C1164 C1163 1.410 . S
C1164 C1165 1.392 . S
C1164 C1167 1.511 . S
C1165 C1161 1.376 . S
C1165 C1164 1.392 . S
C1165 H1177 0.929 . S
C1166 C1162 1.531 . S
C1166 H1178 0.960 . S
C1166 H1179 0.962 . S
C1166 H1180 0.960 . S
C1167 C1164 1.511 . S
C1167 H1181 0.961 . S
C1167 H1182 0.961 . S
C1167 H1183 0.961 . S
C1168 C1169 1.370 . S
C1168 C1170 1.363 . S
C1168 H1184 0.931 . S
C1169 C1168 1.370 . S
C1169 C1173 1.408 . S
C1170 C1168 1.363 . S
C1170 C1171 1.370 . S
C1170 C1174 1.524 . S
C1171 C1163 1.503 . S
C1171 C1170 1.370 . S
C1171 C1172 1.403 . S
C1172 C1171 1.403 . S
C1172 C1173 1.404 . S
C1172 C1175 1.539 . S
C1173 C1169 1.408 . S
C1173 C1172 1.404 . S
C1173 H1185 0.930 . S
C1174 C1170 1.524 . S
C1174 H1186 0.956 . S
C1174 H1187 0.961 . S
C1174 H1188 0.961 . S
C1175 C1172 1.539 . S
C1175 H1189 0.958 . S
C1175 H1190 0.961 . S
C1175 H1191 0.960 . S
H1176 C1160 0.931 . S
H1177 C1165 0.929 . S
H1178 C1166 0.960 . S
H1179 C1166 0.962 . S
H1180 C1166 0.960 . S
H1181 C1167 0.961 . S
H1182 C1167 0.961 . S
H1183 C1167 0.961 . S
H1184 C1168 0.931 . S
H1185 C1173 0.930 . S
H1186 C1174 0.956 . S
H1187 C1174 0.961 . S
H1188 C1174 0.961 . S
H1189 C1175 0.958 . S
H1190 C1175 0.961 . S
H1191 C1175 0.960 . S
C425 C241 1.843 1_565 S
C433 C305 1.892 . S
C465 C326 1.739 . S
C457 C277 1.689 . S
C497 C360 1.563 . S
C489 C169 1.489 . S
C529 C394 1.718 . S
C521 C205 1.664 . S
C561 C296 1.884 . S
C553 C97 1.851 1_556 S
C585 C133 1.711 1_556 S
C593 C335 1.752 . S
C617 C25 1.506 . S
C625 C369 1.564 . S
C649 C61 1.626 . S
C657 C403 1.710 . S
C689 C317 0.581 . S
C681 C211 0.766 . S
C721 C322 0.407 . S
C713 C247 0.506 . S
C753 C356 0.577 . S
C745 C253 0.665 . S
C777 C175 0.453 . S
C785 C390 0.141 . S
C809 C67 0.588 . S
C817 C288 0.667 . S
C849 C351 0.410 . S
C841 C103 0.534 1_565 S
C881 C385 0.602 . S
C873 C109 0.579 . S
C905 C31 0.368 . S
C913 C419 0.126 . S
C937 C181 1.713 . S
C945 C301 1.749 . S
C969 C217 2.047 . S
C977 C330 2.133 . S
C1009 C364 1.886 . S
C1001 C283 1.732 . S
C1041 C398 1.932 . S
C1033 C145 1.771 1_556 S
C1065 C37 1.685 . S
C1073 C292 1.755 . S
C1105 C339 2.135 . S
C1097 C73 2.038 1_565 S
C1137 C373 1.886 . S
C1129 C139 1.789 . S
C1161 C1 1.834 . S
C1169 C407 1.928 . S
