# Generated by pormake.
# Topology pyr, (3,6)-cn, num edge types: 1
# Building blocks:
#     Node 0, Type 0, BuildingBlock: KAKCAD_clean_linker_0, # of connection points: 3
#     Node 1, Type 0, BuildingBlock: KAKCAD_clean_linker_0, # of connection points: 3
#     Node 2, Type 0, BuildingBlock: KAKCAD_clean_linker_0, # of connection points: 3
#     Node 3, Type 0, BuildingBlock: KAKCAD_clean_linker_0, # of connection points: 3
#     Node 4, Type 0, BuildingBlock: KAKCAD_clean_linker_0, # of connection points: 3
#     Node 5, Type 0, BuildingBlock: KAKCAD_clean_linker_0, # of connection points: 3
#     Node 6, Type 0, BuildingBlock: KAKCAD_clean_linker_0, # of connection points: 3
#     Node 7, Type 0, BuildingBlock: KAKCAD_clean_linker_0, # of connection points: 3
#     Node 8, Type 1, BuildingBlock: JUFBIX_clean_sbu_0, # of connection points: 6
#     Node 9, Type 1, BuildingBlock: JUFBIX_clean_sbu_0, # of connection points: 6
#     Node 10, Type 1, BuildingBlock: JUFBIX_clean_sbu_0, # of connection points: 6
#     Node 11, Type 1, BuildingBlock: JUFBIX_clean_sbu_0, # of connection points: 6
#     Edge 12, Type (0, 1), BuildingBlock: ZUJKAS_clean_linker_0, # of connection points: 2
#     Edge 13, Type (0, 1), BuildingBlock: ZUJKAS_clean_linker_0, # of connection points: 2
#     Edge 14, Type (0, 1), BuildingBlock: ZUJKAS_clean_linker_0, # of connection points: 2
#     Edge 15, Type (0, 1), BuildingBlock: ZUJKAS_clean_linker_0, # of connection points: 2
#     Edge 16, Type (0, 1), BuildingBlock: ZUJKAS_clean_linker_0, # of connection points: 2
#     Edge 17, Type (0, 1), BuildingBlock: ZUJKAS_clean_linker_0, # of connection points: 2
#     Edge 18, Type (0, 1), BuildingBlock: ZUJKAS_clean_linker_0, # of connection points: 2
#     Edge 19, Type (0, 1), BuildingBlock: ZUJKAS_clean_linker_0, # of connection points: 2
#     Edge 20, Type (0, 1), BuildingBlock: ZUJKAS_clean_linker_0, # of connection points: 2
#     Edge 21, Type (0, 1), BuildingBlock: ZUJKAS_clean_linker_0, # of connection points: 2
#     Edge 22, Type (0, 1), BuildingBlock: ZUJKAS_clean_linker_0, # of connection points: 2
#     Edge 23, Type (0, 1), BuildingBlock: ZUJKAS_clean_linker_0, # of connection points: 2
#     Edge 24, Type (0, 1), BuildingBlock: ZUJKAS_clean_linker_0, # of connection points: 2
#     Edge 25, Type (0, 1), BuildingBlock: ZUJKAS_clean_linker_0, # of connection points: 2
#     Edge 26, Type (0, 1), BuildingBlock: ZUJKAS_clean_linker_0, # of connection points: 2
#     Edge 27, Type (0, 1), BuildingBlock: ZUJKAS_clean_linker_0, # of connection points: 2
#     Edge 28, Type (0, 1), BuildingBlock: ZUJKAS_clean_linker_0, # of connection points: 2
#     Edge 29, Type (0, 1), BuildingBlock: ZUJKAS_clean_linker_0, # of connection points: 2
#     Edge 30, Type (0, 1), BuildingBlock: ZUJKAS_clean_linker_0, # of connection points: 2
#     Edge 31, Type (0, 1), BuildingBlock: ZUJKAS_clean_linker_0, # of connection points: 2
#     Edge 32, Type (0, 1), BuildingBlock: ZUJKAS_clean_linker_0, # of connection points: 2
#     Edge 33, Type (0, 1), BuildingBlock: ZUJKAS_clean_linker_0, # of connection points: 2
#     Edge 34, Type (0, 1), BuildingBlock: ZUJKAS_clean_linker_0, # of connection points: 2
#     Edge 35, Type (0, 1), BuildingBlock: ZUJKAS_clean_linker_0, # of connection points: 2
# Relax obj value: 0.036
# Max RMSD: 0.087
# Mean RMSD: 0.030
data_MOF--net-pyr--node1-JUFBIX_clean_sbu_0--node2-KAKCAD_clean_linker_0--edge1-ZUJKAS_clean_linker_0
_symmetry_space_group_name_H-M    P1
_symmetry_Int_Tables_number       1
_symmetry_cell_setting            triclinic
loop_
_symmetry_equiv_pos_as_xyz
'x, y, z'
_cell_length_a     56.994148
_cell_length_b     54.77868
_cell_length_c     56.829105
_cell_angle_alpha  85.995877
_cell_angle_beta   89.599209
_cell_angle_gamma 91.624713
loop_
_atom_site_label
_atom_site_type_symbol
_atom_site_fract_x
_atom_site_fract_y
_atom_site_fract_z
_atom_type_partial_charge
C0 C 0.12584 0.12564 0.2317 0.0
C1 C 0.13905 0.11959 0.25202 0.0
C2 C 0.13673 0.13574 0.21095 0.0
C3 C 0.16119 0.13988 0.2098 0.0
C4 C 0.17452 0.13338 0.22988 0.0
C5 C 0.1636 0.12347 0.25074 0.0
C6 C 0.17255 0.15158 0.18792 0.0
C7 C 0.16247 0.17206 0.17608 0.0
C8 C 0.17268 0.1834 0.15535 0.0
C9 C 0.19343 0.1739 0.14651 0.0
C10 C 0.20391 0.15333 0.15797 0.0
C11 C 0.19331 0.14241 0.17878 0.0
C12 C 0.2257 0.14311 0.14802 0.0
C13 C 0.22889 0.14247 0.12348 0.0
C14 C 0.24353 0.13392 0.16291 0.0
C15 C 0.2639 0.1244 0.15353 0.0
C16 C 0.26712 0.12385 0.12898 0.0
C17 C 0.16159 0.20518 0.14309 0.0
C18 C 0.13701 0.20638 0.14147 0.0
C19 C 0.17538 0.2251 0.13321 0.0
C20 C 0.16487 0.2457 0.12225 0.0
C21 C 0.14028 0.247 0.12096 0.0
C22 C 0.12651 0.22701 0.13062 0.0
C23 C 0.24929 0.13307 0.11411 0.0
H24 H 0.10701 0.12245 0.2317 0.0
H25 H 0.12597 0.14017 0.19569 0.0
H26 H 0.19337 0.13656 0.22966 0.0
H27 H 0.1744 0.11941 0.26603 0.0
H28 H 0.14686 0.17957 0.18343 0.0
H29 H 0.20079 0.12627 0.18754 0.0
H30 H 0.20142 0.18255 0.13059 0.0
H31 H 0.21549 0.14902 0.11139 0.0
H32 H 0.2419 0.1343 0.18187 0.0
H33 H 0.27702 0.11723 0.16563 0.0
H34 H 0.12579 0.19125 0.14843 0.0
H35 H 0.19433 0.22503 0.13438 0.0
H36 H 0.25114 0.1333 0.09513 0.0
H37 H 0.10755 0.22716 0.12959 0.0
H38 H 0.17602 0.26088 0.11526 0.0
C39 C 0.42343 0.91571 0.69839 0.0
C40 C 0.44787 0.91735 0.70121 0.0
C41 C 0.41383 0.90621 0.67838 0.0
C42 C 0.42842 0.89817 0.66063 0.0
C43 C 0.45291 0.9004 0.66311 0.0
C44 C 0.46256 0.91002 0.6832 0.0
C45 C 0.41784 0.88627 0.64041 0.0
C46 C 0.39736 0.89549 0.62995 0.0
C47 C 0.38515 0.88254 0.6132 0.0
C48 C 0.39425 0.86065 0.60613 0.0
C49 C 0.41485 0.85123 0.6162 0.0
C50 C 0.42664 0.86427 0.63322 0.0
C51 C 0.4229 0.82682 0.61038 0.0
C52 C 0.40653 0.80746 0.60821 0.0
C53 C 0.44691 0.8225 0.60748 0.0
C54 C 0.45434 0.7993 0.60244 0.0
C55 C 0.43791 0.77997 0.60022 0.0
C56 C 0.36179 0.89059 0.60486 0.0
C57 C 0.3456 0.89917 0.6209 0.0
C58 C 0.35501 0.88862 0.5813 0.0
C59 C 0.33245 0.89491 0.57403 0.0
C60 C 0.31632 0.90342 0.59015 0.0
C61 C 0.32317 0.90556 0.61361 0.0
C62 C 0.41392 0.78436 0.60309 0.0
H63 H 0.41167 0.92152 0.71184 0.0
H64 H 0.3949 0.90445 0.6772 0.0
H65 H 0.46458 0.89448 0.64964 0.0
H66 H 0.48147 0.91103 0.68498 0.0
H67 H 0.3906 0.91257 0.6353 0.0
H68 H 0.44185 0.85651 0.64193 0.0
H69 H 0.3848 0.85043 0.59338 0.0
H70 H 0.38793 0.81002 0.61076 0.0
H71 H 0.45994 0.83708 0.60896 0.0
H72 H 0.47296 0.79646 0.60054 0.0
H73 H 0.35002 0.90034 0.6393 0.0
H74 H 0.36715 0.88225 0.56848 0.0
H75 H 0.40077 0.76999 0.60118 0.0
H76 H 0.31097 0.91168 0.62652 0.0
H77 H 0.32769 0.89333 0.55577 0.0
C78 C 0.75192 0.40357 0.87286 0.0
C79 C 0.7691 0.38726 0.8812 0.0
C80 C 0.73108 0.39483 0.8632 0.0
C81 C 0.7269 0.36958 0.86169 0.0
C82 C 0.74417 0.35328 0.86982 0.0
C83 C 0.76501 0.36202 0.87945 0.0
C84 C 0.70447 0.36023 0.852 0.0
C85 C 0.69463 0.37198 0.83176 0.0
C86 C 0.67334 0.36332 0.8226 0.0
C87 C 0.66184 0.34273 0.8341 0.0
C88 C 0.67148 0.33064 0.85422 0.0
C89 C 0.69279 0.33952 0.86304 0.0
C90 C 0.65938 0.30859 0.86585 0.0
C91 C 0.63498 0.30806 0.86973 0.0
C92 C 0.67214 0.28777 0.87282 0.0
C93 C 0.66071 0.26678 0.88323 0.0
C94 C 0.63629 0.2662 0.88704 0.0
C95 C 0.66321 0.3755 0.8009 0.0
C96 C 0.66384 0.40117 0.79712 0.0
C97 C 0.65265 0.36148 0.78383 0.0
C98 C 0.64266 0.37283 0.76369 0.0
C99 C 0.64312 0.39846 0.76002 0.0
C100 C 0.65396 0.41252 0.77686 0.0
C101 C 0.62357 0.28712 0.88029 0.0
H102 H 0.75435 0.4231 0.87425 0.0
H103 H 0.718 0.40784 0.85738 0.0
H104 H 0.74165 0.33375 0.86856 0.0
H105 H 0.77803 0.34898 0.88534 0.0
H106 H 0.70392 0.38749 0.82275 0.0
H107 H 0.7 0.33061 0.8789 0.0
H108 H 0.64537 0.33596 0.82729 0.0
H109 H 0.62471 0.32391 0.86473 0.0
H110 H 0.69093 0.28755 0.86989 0.0
H111 H 0.67103 0.25104 0.88847 0.0
H112 H 0.67157 0.41254 0.81003 0.0
H113 H 0.65228 0.34167 0.78589 0.0
H114 H 0.60472 0.28718 0.88283 0.0
H115 H 0.65438 0.43233 0.77462 0.0
H116 H 0.63479 0.36149 0.75083 0.0
C117 C 0.91797 0.61054 0.32303 0.0
C118 C 0.94131 0.60665 0.31646 0.0
C119 C 0.91257 0.61718 0.34563 0.0
C120 C 0.93038 0.62017 0.36224 0.0
C121 C 0.95382 0.61697 0.35556 0.0
C122 C 0.95923 0.61023 0.33288 0.0
C123 C 0.92424 0.6264 0.38648 0.0
C124 C 0.90482 0.61473 0.39821 0.0
C125 C 0.8974 0.62176 0.42025 0.0
C126 C 0.91008 0.64022 0.43098 0.0
C127 C 0.92951 0.65233 0.41944 0.0
C128 C 0.93664 0.64504 0.39728 0.0
C129 C 0.94076 0.67422 0.42924 0.0
C130 C 0.92684 0.69156 0.43938 0.0
C131 C 0.96514 0.6788 0.42725 0.0
C132 C 0.97523 0.70056 0.43461 0.0
C133 C 0.96114 0.71819 0.44406 0.0
C134 C 0.87503 0.61152 0.43077 0.0
C135 C 0.85497 0.6103 0.41664 0.0
C136 C 0.87326 0.60364 0.45481 0.0
C137 C 0.85177 0.59466 0.46449 0.0
C138 C 0.83167 0.59385 0.45034 0.0
C139 C 0.83355 0.60163 0.42632 0.0
C140 C 0.93691 0.71319 0.44678 0.0
H141 H 0.9038 0.60849 0.31064 0.0
H142 H 0.8944 0.6201 0.35007 0.0
H143 H 0.96788 0.6191 0.36804 0.0
H144 H 0.97738 0.60721 0.32841 0.0
H145 H 0.89516 0.60031 0.38998 0.0
H146 H 0.95096 0.65483 0.38777 0.0
H147 H 0.90418 0.64587 0.44788 0.0
H148 H 0.90798 0.68887 0.44091 0.0
H149 H 0.97638 0.66572 0.41971 0.0
H150 H 0.99394 0.7039 0.4322 0.0
H151 H 0.85573 0.61652 0.39812 0.0
H152 H 0.8885 0.60435 0.46606 0.0
H153 H 0.92561 0.72618 0.45437 0.0
H154 H 0.81839 0.60096 0.41495 0.0
H155 H 0.85074 0.58883 0.48308 0.0
C156 C 0.87546 0.86312 0.76854 0.0
C157 C 0.87813 0.88868 0.76433 0.0
C158 C 0.8648 0.85282 0.78932 0.0
C159 C 0.85645 0.86774 0.80655 0.0
C160 C 0.85882 0.89331 0.80225 0.0
C161 C 0.86954 0.90364 0.78144 0.0
C162 C 0.84564 0.85655 0.82898 0.0
C163 C 0.85538 0.83566 0.84051 0.0
C164 C 0.84529 0.82445 0.86137 0.0
C165 C 0.82506 0.83452 0.87073 0.0
C166 C 0.81506 0.85553 0.85966 0.0
C167 C 0.82557 0.86645 0.83884 0.0
C168 C 0.79353 0.8659 0.86978 0.0
C169 C 0.77462 0.85046 0.87801 0.0
C170 C 0.79175 0.89129 0.87146 0.0
C171 C 0.7717 0.90095 0.88133 0.0
C172 C 0.75279 0.88551 0.88954 0.0
C173 C 0.85599 0.80229 0.87332 0.0
C174 C 0.86504 0.7839 0.86003 0.0
C175 C 0.85757 0.79946 0.89806 0.0
C176 C 0.86805 0.77892 0.90917 0.0
C177 C 0.87724 0.76061 0.89585 0.0
C178 C 0.87552 0.76339 0.87112 0.0
C179 C 0.75449 0.86014 0.88765 0.0
H180 H 0.88138 0.85098 0.75561 0.0
H181 H 0.86289 0.83308 0.79177 0.0
H182 H 0.85285 0.90538 0.81522 0.0
H183 H 0.87151 0.92337 0.779 0.0
H184 H 0.87128 0.82844 0.8335 0.0
H185 H 0.81766 0.88226 0.82991 0.0
H186 H 0.81706 0.826 0.88671 0.0
H187 H 0.7753 0.83085 0.8768 0.0
H188 H 0.80603 0.90369 0.86545 0.0
H189 H 0.77091 0.92058 0.88231 0.0
H190 H 0.86391 0.78526 0.84097 0.0
H191 H 0.85103 0.81332 0.9089 0.0
H192 H 0.74036 0.84768 0.89396 0.0
H193 H 0.8826 0.74987 0.86022 0.0
H194 H 0.86879 0.77732 0.92825 0.0
C195 C 0.57641 0.06852 0.34551 0.0
C196 C 0.56396 0.08102 0.32738 0.0
C197 C 0.58604 0.08118 0.36382 0.0
C198 C 0.58361 0.10663 0.36424 0.0
C199 C 0.57023 0.11888 0.34665 0.0
C200 C 0.56044 0.10619 0.32847 0.0
C201 C 0.59652 0.12069 0.38174 0.0
C202 C 0.6198 0.11501 0.38747 0.0
C203 C 0.63302 0.12951 0.4022 0.0
C204 C 0.6227 0.1497 0.41152 0.0
C205 C 0.5995 0.15568 0.40604 0.0
C206 C 0.58646 0.141 0.39129 0.0
C207 C 0.5897 0.17833 0.41439 0.0
C208 C 0.59338 0.18457 0.43766 0.0
C209 C 0.57815 0.19473 0.39862 0.0
C210 C 0.57121 0.21735 0.40574 0.0
C211 C 0.57566 0.22397 0.42878 0.0
C212 C 0.65803 0.12441 0.40674 0.0
C213 C 0.66509 0.1004 0.41251 0.0
C214 C 0.67507 0.14351 0.40489 0.0
C215 C 0.69872 0.1387 0.40863 0.0
C216 C 0.70584 0.11468 0.41436 0.0
C217 C 0.68874 0.09559 0.41636 0.0
C218 C 0.5864 0.20714 0.44479 0.0
H219 H 0.57915 0.04906 0.34523 0.0
H220 H 0.59588 0.07112 0.37734 0.0
H221 H 0.56827 0.13851 0.34621 0.0
H222 H 0.5512 0.11636 0.31456 0.0
H223 H 0.62811 0.10005 0.37945 0.0
H224 H 0.5685 0.14551 0.38713 0.0
H225 H 0.63299 0.16119 0.42259 0.0
H226 H 0.60196 0.17211 0.45027 0.0
H227 H 0.57536 0.19054 0.38049 0.0
H228 H 0.5632 0.23001 0.39291 0.0
H229 H 0.65229 0.08538 0.41428 0.0
H230 H 0.67016 0.16215 0.40008 0.0
H231 H 0.58964 0.21153 0.4628 0.0
H232 H 0.69359 0.07694 0.42115 0.0
H233 H 0.71147 0.15375 0.40659 0.0
C234 C 0.25546 0.621 0.1606 0.0
C235 C 0.25278 0.62116 0.13601 0.0
C236 C 0.27649 0.62926 0.17026 0.0
C237 C 0.29533 0.63787 0.15556 0.0
C238 C 0.29265 0.63799 0.13097 0.0
C239 C 0.27163 0.62975 0.12132 0.0
C240 C 0.3177 0.64672 0.16579 0.0
C241 C 0.32732 0.63417 0.18572 0.0
C242 C 0.3485 0.64238 0.1954 0.0
C243 C 0.36012 0.66336 0.18484 0.0
C244 C 0.35077 0.67627 0.16498 0.0
C245 C 0.32952 0.6678 0.15563 0.0
C246 C 0.36308 0.69869 0.15416 0.0
C247 C 0.374 0.71561 0.1684 0.0
C248 C 0.36405 0.70335 0.12951 0.0
C249 C 0.37557 0.72443 0.11937 0.0
C250 C 0.38654 0.74123 0.13363 0.0
C251 C 0.35841 0.62925 0.21669 0.0
C252 C 0.3438 0.62106 0.23584 0.0
C253 C 0.38265 0.62539 0.21829 0.0
C254 C 0.39211 0.61401 0.23871 0.0
C255 C 0.37756 0.6062 0.25803 0.0
C256 C 0.35327 0.60969 0.25628 0.0
C257 C 0.38567 0.73657 0.15825 0.0
H258 H 0.24117 0.61482 0.1724 0.0
H259 H 0.27785 0.62926 0.18926 0.0
H260 H 0.30695 0.64412 0.11915 0.0
H261 H 0.27028 0.62974 0.10232 0.0
H262 H 0.31858 0.61765 0.1934 0.0
H263 H 0.32181 0.678 0.14075 0.0
H264 H 0.37649 0.66972 0.1922 0.0
H265 H 0.37325 0.71287 0.18745 0.0
H266 H 0.35617 0.69054 0.11799 0.0
H267 H 0.37619 0.72739 0.10032 0.0
H268 H 0.32508 0.62392 0.23524 0.0
H269 H 0.39435 0.63122 0.20375 0.0
H270 H 0.39368 0.74937 0.1697 0.0
H271 H 0.34154 0.60365 0.27074 0.0
H272 H 0.41092 0.61182 0.23954 0.0
C273 C 0.07981 0.29668 0.57362 0.0
C274 C 0.05552 0.29247 0.57682 0.0
C275 C 0.09062 0.31822 0.58041 0.0
C276 C 0.0774 0.33611 0.59055 0.0
C277 C 0.05299 0.33224 0.59314 0.0
C278 C 0.04214 0.31066 0.58628 0.0
C279 C 0.08935 0.35801 0.59956 0.0
C280 C 0.10812 0.36998 0.58686 0.0
C281 C 0.12097 0.38917 0.59634 0.0
C282 C 0.11467 0.39657 0.61861 0.0
C283 C 0.09608 0.38476 0.63161 0.0
C284 C 0.0833 0.36571 0.62184 0.0
C285 C 0.09124 0.39114 0.65609 0.0
C286 C 0.10988 0.39423 0.67175 0.0
C287 C 0.06815 0.3939 0.66407 0.0
C288 C 0.06383 0.40003 0.68717 0.0
C289 C 0.08253 0.4034 0.70276 0.0
C290 C 0.14236 0.39998 0.58422 0.0
C291 C 0.15911 0.38468 0.57521 0.0
C292 C 0.14719 0.42534 0.58341 0.0
C293 C 0.16874 0.43507 0.5747 0.0
C294 C 0.18593 0.41959 0.56682 0.0
C295 C 0.18069 0.39438 0.56666 0.0
C296 C 0.10558 0.40025 0.6948 0.0
H297 H 0.09056 0.28316 0.56608 0.0
H298 H 0.10949 0.32047 0.57841 0.0
H299 H 0.0423 0.34579 0.60071 0.0
H300 H 0.02341 0.30789 0.58907 0.0
H301 H 0.11292 0.36421 0.56966 0.0
H302 H 0.06952 0.35595 0.6322 0.0
H303 H 0.12483 0.41101 0.62626 0.0
H304 H 0.12784 0.39168 0.66628 0.0
H305 H 0.05346 0.39172 0.65233 0.0
H306 H 0.04589 0.40258 0.69266 0.0
H307 H 0.15599 0.36505 0.57577 0.0
H308 H 0.13451 0.43758 0.59006 0.0
H309 H 0.12036 0.40217 0.70648 0.0
H310 H 0.19353 0.38205 0.56045 0.0
H311 H 0.17234 0.45456 0.57511 0.0
Co312 Co 0.99036 0.00801 0.50047 0.0
C313 C 0.01256 0.96332 0.49637 0.0
Co314 Co 0.02525 0.00536 0.51685 0.0
C315 C 0.94896 0.02646 0.47694 0.0
C316 C 0.9459 0.98812 0.48712 0.0
N317 N 0.96078 0.0077 0.48738 0.0
N318 N 0.92734 0.01931 0.47015 0.0
C319 C 0.9254 0.99518 0.47647 0.0
H320 H 0.95601 0.04504 0.47454 0.0
H321 H 0.9495 0.96997 0.4947 0.0
C322 C 1.00276 0.04994 0.5211 0.0
N323 N 0.05505 0.00584 0.5298 0.0
C324 C 0.06861 0.98701 0.53719 0.0
C325 C 0.06876 0.02607 0.53186 0.0
N326 N 0.09012 0.99479 0.54379 0.0
C327 C 0.09018 0.01937 0.54054 0.0
C328 C 0.02597 0.02387 0.4694 0.0
O329 O 0.98628 0.04033 0.50969 0.0
O330 O 0.02087 0.03767 0.52589 0.0
O331 O 0.03846 0.01808 0.4873 0.0
O332 O 1.00376 0.02103 0.47112 0.0
O333 O 0.02908 0.97288 0.50781 0.0
H334 H 0.06396 0.04456 0.52645 0.0
H335 H 0.06305 0.96795 0.53722 0.0
O336 O 0.99462 0.97578 0.49129 0.0
O337 O 0.97718 0.99495 0.52999 0.0
O338 O 0.01191 0.99263 0.54627 0.0
C339 C 0.98972 0.98943 0.54794 0.0
H340 H 0.90991 0.98365 0.47439 0.0
H341 H 0.1051 0.03158 0.54299 0.0
Co342 Co 0.50114 1.00119 0.99541 0.0
C343 C 0.49597 0.96305 0.03013 0.0
Co344 Co 0.52098 0.00712 0.02771 0.0
C345 C 0.49205 0.99526 0.94629 0.0
C346 C 0.46116 0.98926 0.9678 0.0
N347 N 0.48412 0.99575 0.96867 0.0
N348 N 0.47503 0.98837 0.93155 0.0
C349 C 0.45553 0.9847 0.94502 0.0
H350 H 0.51022 0.99875 0.94114 0.0
H351 H 0.44944 0.98718 0.98291 0.0
C352 C 0.52614 0.04527 0.99301 0.0
N353 N 0.53789 0.01233 0.05454 0.0
C354 C 0.52985 0.01101 0.07697 0.0
C355 C 0.56086 0.01861 0.05596 0.0
N356 N 0.54685 0.01624 0.09238 0.0
C357 C 0.56644 0.02097 0.07923 0.0
C358 C 0.54652 0.9836 0.9942 0.0
O359 O 0.51241 0.03193 0.98147 0.0
O360 O 0.53201 0.03783 0.01377 0.0
O361 O 0.54742 0.99168 0.01463 0.0
O362 O 0.52759 0.98565 0.98262 0.0
O363 O 0.50978 0.97635 0.04158 0.0
H364 H 0.5727 0.0216 0.04102 0.0
H365 H 0.51183 0.00625 0.0819 0.0
O366 O 0.49004 0.9705 0.00941 0.0
O367 O 0.47478 0.01675 0.00845 0.0
O368 O 0.49449 0.02258 0.04057 0.0
C369 C 0.47561 0.02473 0.02892 0.0
H370 H 0.4385 0.97867 0.93896 0.0
H371 H 0.58341 0.02643 0.08586 0.0
Co372 Co 0.52642 0.51281 0.50309 0.0
C373 C 0.48899 0.51572 0.47183 0.0
Co374 Co 0.49327 0.49612 0.51769 0.0
C375 C 0.57608 0.52205 0.49452 0.0
C376 C 0.55484 0.54881 0.47637 0.0
N377 N 0.55356 0.52818 0.49079 0.0
N378 N 0.59133 0.53803 0.48293 0.0
C379 C 0.578 0.55485 0.47145 0.0
H380 H 0.58118 0.50618 0.50551 0.0
H381 H 0.53988 0.55904 0.47014 0.0
C382 C 0.53069 0.49321 0.54894 0.0
N383 N 0.46616 0.48062 0.52988 0.0
C384 C 0.44364 0.48716 0.52692 0.0
C385 C 0.46488 0.45871 0.54228 0.0
N386 N 0.4284 0.47001 0.53674 0.0
C387 C 0.44172 0.45213 0.54649 0.0
C388 C 0.52157 0.46424 0.49486 0.0
O389 O 0.54187 0.50476 0.53203 0.0
O390 O 0.50913 0.48759 0.54632 0.0
O391 O 0.50224 0.46646 0.50562 0.0
O392 O 0.53552 0.48271 0.49164 0.0
O393 O 0.47762 0.50478 0.48895 0.0
H394 H 0.47985 0.44791 0.54739 0.0
H395 H 0.43853 0.50369 0.51694 0.0
O396 O 0.51069 0.52071 0.47427 0.0
O397 O 0.51714 0.54276 0.51462 0.0
O398 O 0.48449 0.52592 0.52969 0.0
C399 C 0.49806 0.54463 0.52599 0.0
H400 H 0.58453 0.57079 0.4608 0.0
H401 H 0.43518 0.43537 0.5558 0.0
Co402 Co 0.02027 0.5051 0.99249 0.0
C403 C 0.97591 0.48327 0.99038 0.0
Co404 Co 1.00032 0.50511 0.02584 0.0
C405 C 0.03711 0.48876 0.94851 0.0
C406 C 0.04987 0.52492 0.95446 0.0
N407 N 0.03669 0.50603 0.9643 0.0
N408 N 0.04992 0.49616 0.92908 0.0
C409 C 0.05803 0.51891 0.93285 0.0
H410 H 0.02797 0.47119 0.95118 0.0
H411 H 0.05284 0.54219 0.96224 0.0
C412 C 0.04471 0.5269 0.02794 0.0
N413 N 0.98391 0.5041 0.05407 0.0
C414 C 0.98428 0.52075 0.07048 0.0
C415 C 0.97019 0.4854 0.06343 0.0
N416 N 0.97146 0.51312 0.08984 0.0
C417 C 0.96249 0.49089 0.08536 0.0
C418 C 0.02808 0.46405 0.02236 0.0
O419 O 0.0458 0.52159 1.00657 0.0
O420 O 0.0261 0.52138 0.03979 0.0
O421 O 0.01354 0.47431 0.03529 0.0
O422 O 0.03363 0.47441 1.00227 0.0
O423 O 0.97472 0.48886 0.01166 0.0
H424 H 0.96663 0.46851 0.05515 0.0
H425 H 0.99408 0.53799 0.06837 0.0
O426 O 0.9946 0.48856 0.97859 0.0
O427 O 1.00681 0.53578 0.98292 0.0
O428 O 0.9872 0.53593 0.01622 0.0
C429 C 0.9925 0.54616 0.99601 0.0
H430 H 0.06841 0.53077 0.92053 0.0
H431 H 0.95194 0.47895 0.09745 0.0
H432 H 0.15488 0.08484 0.28522 0.0
H433 H 0.13549 0.06904 0.32199 0.0
H434 H 0.07676 0.11503 0.30636 0.0
H435 H 0.09626 0.13168 0.27003 0.0
H436 H 0.11415 0.10376 0.36024 0.0
H437 H 0.05306 0.03779 0.31976 0.0
H438 H 0.08125 0.04666 0.30657 0.0
H439 H 0.05788 0.06789 0.30529 0.0
C440 C 0.13797 0.09187 0.28965 0.0
C441 C 0.12721 0.10959 0.27444 0.0
C442 C 0.12685 0.08266 0.31064 0.0
C443 C 0.10464 0.09076 0.31679 0.0
C444 C 0.09382 0.10838 0.3018 0.0
H445 H 1.005 0.04462 0.42977 0.0
H446 H 0.02411 0.06152 0.39318 0.0
C447 C 0.10498 0.11775 0.28092 0.0
C448 C 0.09286 0.08102 0.33904 0.0
H449 H 0.0497 0.0409 0.36075 0.0
C450 C 0.1001 0.08998 0.36042 0.0
C451 C 0.07437 0.06329 0.33914 0.0
C452 C 0.06608 0.05315 0.31654 0.0
C453 C 0.08919 0.08178 0.38195 0.0
C454 C 0.07097 0.06356 0.38219 0.0
C455 C 0.06367 0.05476 0.36068 0.0
C456 C 0.05937 0.0533 0.40453 0.0
C457 C 0.09691 0.09327 0.40411 0.0
C458 C 0.0727 0.04267 0.42305 0.0
C459 C 0.06185 0.03324 0.44407 0.0
C460 C 0.03732 0.03379 0.44694 0.0
C461 C 0.02392 0.04393 0.42819 0.0
C462 C 0.03483 0.05359 0.40723 0.0
H463 H 0.10523 0.11169 0.40006 0.0
H464 H 0.08189 0.09507 0.41636 0.0
H465 H 0.11011 0.08159 0.41323 0.0
H466 H 0.09154 0.0415 0.42123 0.0
H467 H 0.07271 0.02533 0.45801 0.0
H468 H 0.43337 0.90324 0.74581 0.0
H469 H 0.44749 0.91842 0.78262 0.0
H470 H 0.49905 0.96483 0.74409 0.0
H471 H 0.48459 0.94996 0.70683 0.0
H472 H 0.4943 0.91768 0.80174 0.0
H473 H 0.46087 0.01185 0.78368 0.0
H474 H 0.45073 0.98656 0.76733 0.0
H475 H 0.47962 0.99967 0.762 0.0
C476 C 0.44764 0.91677 0.74512 0.0
C477 C 0.45767 0.92569 0.72344 0.0
C478 C 0.4558 0.92527 0.76617 0.0
C479 C 0.47412 0.94289 0.766 0.0
C480 C 0.4847 0.95141 0.74449 0.0
H481 H 0.50555 0.01056 0.89943 0.0
H482 H 0.51061 1.00085 0.85815 0.0
C483 C 0.47655 0.94281 0.72331 0.0
C484 C 0.4813 0.95251 0.78859 0.0
H485 H 0.47378 1.00115 0.82202 0.0
C486 C 0.4903 0.9361 0.80607 0.0
C487 C 0.47615 0.97658 0.79407 0.0
C488 C 0.46621 0.99478 0.77591 0.0
C489 C 0.49301 0.94268 0.82929 0.0
C490 C 0.48624 0.96612 0.83516 0.0
C491 C 0.47885 0.98315 0.81737 0.0
C492 C 0.48378 0.97205 0.85998 0.0
C493 C 0.50217 0.92416 0.84761 0.0
C494 C 0.46678 0.95933 0.87438 0.0
C495 C 0.46379 0.96488 0.89774 0.0
C496 C 0.47775 0.98328 0.90719 0.0
C497 C 0.4947 0.99614 0.89267 0.0
C498 C 0.49757 0.99069 0.86914 0.0
H499 H 0.51282 0.91027 0.83942 0.0
H500 H 0.51305 0.93321 0.86081 0.0
H501 H 0.48712 0.91446 0.85701 0.0
H502 H 0.45574 0.94512 0.86748 0.0
H503 H 0.4508 0.95444 0.90852 0.0
H504 H 0.60056 0.38731 0.74111 0.0
H505 H 0.58281 0.40629 0.70549 0.0
H506 H 0.64281 0.45571 0.69538 0.0
H507 H 0.66085 0.43665 0.73091 0.0
H508 H 0.57353 0.45939 0.69559 0.0
H509 H 0.63452 0.42084 0.63172 0.0
H510 H 0.63045 0.40755 0.66151 0.0
H511 H 0.64737 0.43551 0.65611 0.0
C512 C 0.61005 0.40212 0.73123 0.0
C513 C 0.63216 0.4104 0.73873 0.0
C514 C 0.59983 0.41301 0.71099 0.0
C515 C 0.61162 0.43221 0.69776 0.0
C516 C 0.63357 0.44074 0.70528 0.0
H517 H 0.57556 0.50522 0.56179 0.0
H518 H 0.59538 0.49245 0.59851 0.0
C519 C 0.64375 0.42996 0.72564 0.0
C520 C 0.60084 0.44322 0.67608 0.0
H521 H 0.60534 0.44664 0.61602 0.0
C522 C 0.58048 0.45671 0.67817 0.0
C523 C 0.61011 0.43977 0.65346 0.0
C524 C 0.63174 0.42502 0.65037 0.0
C525 C 0.56905 0.46687 0.65815 0.0
C526 C 0.5779 0.46282 0.63545 0.0
C527 C 0.59855 0.44969 0.63342 0.0
C528 C 0.5656 0.4713 0.61358 0.0
C529 C 0.54777 0.48207 0.66155 0.0
C530 C 0.54237 0.46346 0.60975 0.0
C531 C 0.53095 0.47085 0.58889 0.0
C532 C 0.54266 0.48596 0.57127 0.0
C533 C 0.56602 0.49363 0.57504 0.0
C534 C 0.57738 0.48634 0.596 0.0
H535 H 0.54779 0.48977 0.67912 0.0
H536 H 0.54689 0.49737 0.64773 0.0
H537 H 0.53169 0.47031 0.66049 0.0
H538 H 0.53314 0.4513 0.62276 0.0
H539 H 0.51305 0.46441 0.58646 0.0
H540 H 0.97774 0.62172 0.28649 0.0
H541 H 0.98602 0.60769 0.24731 0.0
H542 H 0.92505 0.55916 0.25365 0.0
H543 H 0.91711 0.57239 0.29295 0.0
H544 H 0.96514 0.53708 0.23792 0.0
H545 H 0.94985 0.62527 0.18641 0.0
H546 H 0.97079 0.62654 0.20984 0.0
H547 H 0.94044 0.61951 0.21674 0.0
C548 C 0.9662 0.60795 0.27957 0.0
C549 C 0.94666 0.5983 0.29276 0.0
C550 C 0.97081 0.60017 0.2571 0.0
C551 C 0.95592 0.58269 0.24746 0.0
C552 C 0.93664 0.57281 0.26071 0.0
H553 H 0.93611 0.50709 0.12201 0.0
H554 H 0.93397 0.52482 0.16018 0.0
C555 C 0.93204 0.58053 0.2831 0.0
C556 C 0.9605 0.57411 0.22377 0.0
H557 H 0.96158 0.59218 0.165 0.0
C558 C 0.96446 0.54914 0.22199 0.0
C559 C 0.95967 0.58994 0.20305 0.0
C560 C 0.95479 0.61679 0.20394 0.0
C561 C 0.96731 0.53948 0.19999 0.0
C562 C 0.96587 0.55516 0.17925 0.0
C563 C 0.9626 0.58025 0.181 0.0
C564 C 0.96676 0.54552 0.15563 0.0
C565 C 0.9718 0.51254 0.19907 0.0
C566 C 0.98558 0.55188 0.14019 0.0
C567 C 0.98693 0.54167 0.11836 0.0
C568 C 0.96937 0.52503 0.11157 0.0
C569 C 0.95015 0.51941 0.12685 0.0
C570 C 0.94887 0.52957 0.14865 0.0
H571 H 0.97808 0.50436 0.21625 0.0
H572 H 0.95522 0.5028 0.19474 0.0
H573 H 0.98498 0.50943 0.18519 0.0
H574 H 0.99951 0.56425 0.14529 0.0
H575 H 1.00208 0.54625 0.10718 0.0
H576 H 0.31258 0.12771 0.14491 0.0
H577 H 0.34803 0.11126 0.12823 0.0
H578 H 0.30694 0.0811 0.0733 0.0
H579 H 0.27131 0.09686 0.09013 0.0
H580 H 0.35749 0.06088 0.11951 0.0
H581 H 0.36013 0.12213 0.03735 0.0
H582 H 0.34307 0.12863 0.06295 0.0
H583 H 0.33258 0.10617 0.0437 0.0
C584 C 0.31095 0.11737 0.12942 0.0
C585 C 0.28891 0.11377 0.11888 0.0
C586 C 0.33132 0.1081 0.11982 0.0
C587 C 0.33023 0.09524 0.09932 0.0
C588 C 0.30831 0.09138 0.08886 0.0
H589 H 0.43134 0.0278 0.0106 0.0
H590 H 0.39659 0.04464 0.02825 0.0
C591 C 0.28792 0.10051 0.09851 0.0
C592 C 0.35192 0.08553 0.08905 0.0
H593 H 0.38725 0.09015 0.03997 0.0
C594 C 0.36409 0.06735 0.10217 0.0
C595 C 0.36046 0.0939 0.06638 0.0
C596 C 0.34855 0.11392 0.05178 0.0
C597 C 0.38423 0.05691 0.09304 0.0
C598 C 0.39287 0.06534 0.07036 0.0
C599 C 0.38071 0.08364 0.05732 0.0
C600 C 0.41426 0.05524 0.0597 0.0
C601 C 0.39558 0.03639 0.10751 0.0
C602 C 0.43599 0.05589 0.07124 0.0
C603 C 0.45591 0.0461 0.06125 0.0
C604 C 0.45465 0.03574 0.03928 0.0
C605 C 0.43299 0.03561 0.02752 0.0
C606 C 0.41306 0.04525 0.03761 0.0
H607 H 0.38321 0.02741 0.12085 0.0
H608 H 0.40203 0.02228 0.09613 0.0
H609 H 0.41075 0.04393 0.11706 0.0
H610 H 0.43761 0.06406 0.08798 0.0
H611 H 0.47231 0.04668 0.07074 0.0
H612 H 0.29242 0.94365 0.60066 0.0
H613 H 0.25215 0.95367 0.59016 0.0
H614 H 0.24572 0.88838 0.55219 0.0
H615 H 0.28605 0.87795 0.56299 0.0
H616 H 0.23343 0.95958 0.54247 0.0
H617 H 0.18822 0.8853 0.59935 0.0
H618 H 0.21819 0.89509 0.60439 0.0
H619 H 0.21145 0.87703 0.58006 0.0
C620 C 0.2824 0.93134 0.5902 0.0
C621 C 0.2923 0.90995 0.58275 0.0
C622 C 0.25947 0.93713 0.58414 0.0
C623 C 0.24597 0.9216 0.57067 0.0
C624 C 0.25584 0.9004 0.56286 0.0
H625 H 0.1004 0.95043 0.52845 0.0
H626 H 0.13758 0.92929 0.53412 0.0
C627 C 0.27889 0.89462 0.56884 0.0
C628 C 0.22168 0.9281 0.56467 0.0
H629 H 0.16435 0.91396 0.57893 0.0
C630 C 0.2183 0.94945 0.55019 0.0
C631 C 0.20207 0.91471 0.57471 0.0
C632 C 0.20497 0.89179 0.59061 0.0
C633 C 0.19579 0.95828 0.54609 0.0
C634 C 0.17626 0.9456 0.55708 0.0
C635 C 0.17947 0.92361 0.57067 0.0
C636 C 0.15277 0.9562 0.55605 0.0
C637 C 0.19306 0.98144 0.53048 0.0
C638 C 0.14884 0.97769 0.5673 0.0
C639 C 0.12775 0.98967 0.56419 0.0
C640 C 0.11017 0.98035 0.54981 0.0
C641 C 0.11358 0.95797 0.53972 0.0
C642 C 0.1348 0.94595 0.54283 0.0
H643 H 0.20868 0.98553 0.51891 0.0
H644 H 0.17726 0.98008 0.51927 0.0
H645 H 0.1909 0.99704 0.54168 0.0
H646 H 0.16245 0.98562 0.57787 0.0
H647 H 0.12541 0.00662 0.57253 0.0
H648 H 0.79162 0.36777 0.92029 0.0
H649 H 0.82733 0.38336 0.93837 0.0
H650 H 0.83188 0.44323 0.88496 0.0
H651 H 0.79629 0.42765 0.86657 0.0
H652 H 0.8728 0.39209 0.91865 0.0
H653 H 0.83405 0.47714 0.94748 0.0
H654 H 0.81634 0.4517 0.93834 0.0
H655 H 0.83072 0.47254 0.91667 0.0
C656 C 0.80032 0.38413 0.91223 0.0
C657 C 0.79103 0.39652 0.89201 0.0
C658 C 0.82067 0.39306 0.92266 0.0
C659 C 0.83205 0.41461 0.91319 0.0
C660 C 0.82308 0.42683 0.89282 0.0
H661 H 0.97229 0.46955 0.94508 0.0
H662 H 0.93775 0.45203 0.92637 0.0
C663 C 0.80273 0.41792 0.88236 0.0
C664 C 0.85334 0.42424 0.92463 0.0
H665 H 0.87505 0.47324 0.95239 0.0
C666 C 0.87332 0.40982 0.92606 0.0
C667 C 0.85384 0.44724 0.9345 0.0
C668 C 0.83255 0.46301 0.93441 0.0
C669 C 0.89393 0.41794 0.93686 0.0
C670 C 0.8946 0.4412 0.94623 0.0
C671 C 0.87453 0.45549 0.94503 0.0
C672 C 0.91583 0.45098 0.95769 0.0
C673 C 0.91466 0.4014 0.93854 0.0
C674 C 0.91486 0.45648 0.98141 0.0
C675 C 0.9345 0.46657 0.99214 0.0
C676 C 0.95548 0.47152 0.97927 0.0
C677 C 0.95644 0.46586 0.95552 0.0
C678 C 0.93676 0.45574 0.94481 0.0
H679 H 0.90948 0.38211 0.93579 0.0
H680 H 0.92778 0.40768 0.92475 0.0
H681 H 0.92323 0.40202 0.95599 0.0
H682 H 0.89884 0.45302 0.99162 0.0
H683 H 0.93314 0.47074 0.01044 0.0
H684 H 0.82127 0.55227 0.47861 0.0
H685 H 0.78209 0.53666 0.49179 0.0
H686 H 0.7511 0.60051 0.45751 0.0
H687 H 0.78996 0.61618 0.44448 0.0
H688 H 0.73367 0.58443 0.50596 0.0
H689 H 0.73331 0.51182 0.44184 0.0
H690 H 0.75803 0.51455 0.46115 0.0
H691 H 0.75306 0.53821 0.43848 0.0
C692 C 0.80609 0.56309 0.47423 0.0
C693 C 0.80856 0.5853 0.46034 0.0
C694 C 0.78379 0.55412 0.48165 0.0
C695 C 0.76378 0.56738 0.47542 0.0
C696 C 0.76636 0.59002 0.46243 0.0
H697 H 0.62102 0.55472 0.44788 0.0
H698 H 0.66382 0.55786 0.44955 0.0
C699 C 0.78852 0.59886 0.45489 0.0
C700 C 0.73988 0.55743 0.48107 0.0
H701 H 0.69786 0.51838 0.46134 0.0
C702 C 0.7259 0.56961 0.49667 0.0
C703 C 0.7299 0.53823 0.46871 0.0
C704 C 0.7442 0.5249 0.4515 0.0
C705 C 0.70185 0.56379 0.49943 0.0
C706 C 0.69166 0.54534 0.48626 0.0
C707 C 0.70585 0.53241 0.47148 0.0
C708 C 0.66593 0.54154 0.48521 0.0
C709 C 0.68718 0.57837 0.51528 0.0
C710 C 0.65304 0.53093 0.50461 0.0
C711 C 0.62851 0.52911 0.50369 0.0
C712 C 0.61659 0.53805 0.48341 0.0
C713 C 0.62969 0.54803 0.46384 0.0
C714 C 0.65412 0.54967 0.46471 0.0
H715 H 0.69747 0.59352 0.52271 0.0
H716 H 0.67212 0.58621 0.50537 0.0
H717 H 0.67997 0.56611 0.53012 0.0
H718 H 0.66192 0.52445 0.52054 0.0
H719 H 0.61886 0.52147 0.51908 0.0
H720 H 0.10169 0.27014 0.13657 0.0
H721 H 0.08303 0.30638 0.11837 0.0
H722 H 0.13481 0.3109 0.06248 0.0
H723 H 0.15335 0.27435 0.08033 0.0
H724 H 0.10386 0.35402 0.10823 0.0
H725 H 0.07156 0.31349 0.0271 0.0
H726 H 0.08053 0.29499 0.05285 0.0
H727 H 0.10221 0.30979 0.03324 0.0
C728 C 0.10897 0.27864 0.12025 0.0
C729 C 0.12897 0.26919 0.10986 0.0
C730 C 0.09835 0.29946 0.10994 0.0
C731 C 0.10732 0.3112 0.0889 0.0
C732 C 0.12735 0.30195 0.07852 0.0
H733 H 0.06332 0.43957 1.0017 0.0
H734 H 0.08287 0.40279 0.01767 0.0
C735 C 0.13807 0.28118 0.08889 0.0
C736 C 0.09601 0.33346 0.07821 0.0
H737 H 0.06645 0.35593 0.02959 0.0
C738 C 0.09564 0.35443 0.09106 0.0
C739 C 0.08542 0.33404 0.05573 0.0
C740 C 0.08471 0.31185 0.04143 0.0
C741 C 0.08517 0.37601 0.08198 0.0
C742 C 0.0742 0.37649 0.05965 0.0
C743 C 0.07478 0.35557 0.0467 0.0
C744 C 0.06182 0.39843 0.04961 0.0
C745 C 0.08642 0.39825 0.09622 0.0
C746 C 0.04309 0.40794 0.06192 0.0
C747 C 0.03196 0.42899 0.0529 0.0
C748 C 0.03911 0.44091 0.03118 0.0
C749 C 0.05739 0.43091 0.01849 0.0
C750 C 0.0686 0.40988 0.02761 0.0
H751 H 0.10104 0.39724 0.10905 0.0
H752 H 0.0888 0.41533 0.08463 0.0
H753 H 0.06981 0.39933 0.10635 0.0
H754 H 0.03709 0.3991 0.07861 0.0
H755 H 0.01782 0.43601 0.06307 0.0
H756 H 0.60211 0.26305 0.92129 0.0
H757 H 0.58256 0.22598 0.93949 0.0
H758 H 0.62315 0.18181 0.89528 0.0
H759 H 0.64286 0.21874 0.87714 0.0
H760 H 0.55566 0.19032 0.92005 0.0
H761 H 0.63536 0.15053 0.9608 0.0
H762 H 0.63465 0.18184 0.94871 0.0
H763 H 0.63823 0.15739 0.92956 0.0
C764 C 0.60679 0.24544 0.91539 0.0
C765 C 0.62416 0.2438 0.89791 0.0
C766 C 0.59566 0.22428 0.92584 0.0
C767 C 0.60169 0.20111 0.91903 0.0
C768 C 0.61865 0.19945 0.90124 0.0
H769 H 0.52216 0.06404 0.9473 0.0
H770 H 0.53965 0.1023 0.92944 0.0
C771 C 0.62988 0.22057 0.89087 0.0
C772 C 0.59009 0.1787 0.93041 0.0
H773 H 0.60113 0.12467 0.9614 0.0
C774 C 0.56557 0.17599 0.92918 0.0
C775 C 0.60303 0.16019 0.94259 0.0
C776 C 0.62924 0.16268 0.94574 0.0
C777 C 0.55365 0.15507 0.93948 0.0
C778 C 0.56669 0.13617 0.95091 0.0
C779 C 0.59118 0.13907 0.95244 0.0
C780 C 0.55536 0.11334 0.96176 0.0
C781 C 0.52721 0.15365 0.93842 0.0
C782 C 0.55876 0.10657 0.98574 0.0
C783 C 0.54904 0.0846 0.99592 0.0
C784 C 0.5357 0.06893 0.98231 0.0
C785 C 0.53217 0.0758 0.95831 0.0
C786 C 0.54205 0.09774 0.9481 0.0
H787 H 0.51971 0.17206 0.93514 0.0
H788 H 0.52183 0.14247 0.92372 0.0
H789 H 0.51954 0.14491 0.95505 0.0
H790 H 0.56904 0.11828 0.99659 0.0
H791 H 0.5521 0.07986 0.01445 0.0
H792 H 0.94256 0.76318 0.43528 0.0
H793 H 0.95805 0.80258 0.44656 0.0
H794 H 0.0184 0.76749 0.47739 0.0
H795 H 1.00275 0.7276 0.46649 0.0
H796 H 0.96967 0.81274 0.49568 0.0
H797 H 0.04463 0.82726 0.43214 0.0
H798 H 0.02006 0.80688 0.42675 0.0
H799 H 0.0411 0.79815 0.44883 0.0
C800 C 0.95905 0.76372 0.44461 0.0
C801 C 0.9713 0.74219 0.45021 0.0
C802 C 0.96795 0.78629 0.45088 0.0
C803 C 0.98937 0.7879 0.46269 0.0
C804 C 1.00194 0.76659 0.46803 0.0
H805 H 0.0455 0.92902 0.50863 0.0
H806 H 0.04328 0.88513 0.50198 0.0
C807 C 0.99299 0.74387 0.46178 0.0
C808 C 0.99769 0.81194 0.47017 0.0
H809 H 0.03593 0.85981 0.45546 0.0
C810 C 0.9844 0.8229 0.48717 0.0
C811 C 0.01697 0.825 0.4591 0.0
C812 C 0.03157 0.81391 0.4406 0.0
C813 C 0.98927 0.84702 0.49272 0.0
C814 C 1.00768 0.8606 0.48068 0.0
C815 C 0.0218 0.84927 0.46458 0.0
C816 C 0.01063 0.88721 0.48289 0.0
C817 C 0.97419 0.85813 0.51086 0.0
C818 C 0.99336 0.90281 0.47375 0.0
C819 C 0.99455 0.92769 0.47744 0.0
C820 C 0.01309 0.9375 0.49036 0.0
C821 C 0.03098 0.922 0.49865 0.0
C822 C 0.02976 0.89697 0.49489 0.0
H823 H 0.96486 0.84386 0.52255 0.0
H824 H 0.98493 0.87004 0.52189 0.0
H825 H 0.96082 0.8696 0.50171 0.0
H826 H 0.9786 0.89559 0.46423 0.0
H827 H 0.98056 0.93909 0.47066 0.0
H828 H 0.42073 0.73545 0.6186 0.0
H829 H 0.43165 0.69491 0.60758 0.0
H830 H 0.4835 0.728 0.5588 0.0
H831 H 0.47231 0.76871 0.56921 0.0
H832 H 0.43055 0.6797 0.5587 0.0
H833 H 0.5184 0.67386 0.60047 0.0
H834 H 0.49632 0.69432 0.60969 0.0
H835 H 0.51272 0.70167 0.58295 0.0
C836 C 0.4344 0.73415 0.60546 0.0
C837 C 0.44558 0.75534 0.59469 0.0
C838 C 0.4407 0.71098 0.59932 0.0
C839 C 0.45846 0.70857 0.58256 0.0
C840 C 0.46996 0.72957 0.57205 0.0
H841 H 0.52066 0.58883 0.51668 0.0
H842 H 0.51025 0.62824 0.53075 0.0
C843 C 0.46359 0.75278 0.57807 0.0
C844 C 0.46414 0.68413 0.57518 0.0
H845 H 0.50743 0.64241 0.57588 0.0
C846 C 0.44729 0.67141 0.56253 0.0
C847 C 0.48602 0.6736 0.58018 0.0
C848 C 0.50442 0.68641 0.59421 0.0
C849 C 0.45196 0.64853 0.55423 0.0
C850 C 0.47387 0.6379 0.55927 0.0
C851 C 0.49065 0.6506 0.57209 0.0
C852 C 0.47996 0.61389 0.55092 0.0
C853 C 0.4337 0.63632 0.53953 0.0
C854 C 0.46649 0.59272 0.55781 0.0
C855 C 0.47227 0.57016 0.54964 0.0
C856 C 0.49182 0.56839 0.5347 0.0
C857 C 0.50548 0.58958 0.52815 0.0
C858 C 0.49959 0.61212 0.5362 0.0
H859 H 0.42087 0.64959 0.53207 0.0
H860 H 0.44199 0.62732 0.52479 0.0
H861 H 0.42387 0.62209 0.55079 0.0
H862 H 0.45158 0.59361 0.56961 0.0
H863 H 0.46152 0.55412 0.55515 0.0
H864 H 0.86652 0.93001 0.73699 0.0
H865 H 0.88561 0.94728 0.70058 0.0
H866 H 0.93542 0.88942 0.70505 0.0
H867 H 0.91669 0.8722 0.74156 0.0
H868 H 0.93245 0.96381 0.69205 0.0
H869 H 0.90907 0.88612 0.63819 0.0
H870 H 0.89517 0.89024 0.66623 0.0
H871 H 0.92387 0.87755 0.66519 0.0
C872 C 0.88165 0.92103 0.73037 0.0
C873 C 0.8899 0.89955 0.74224 0.0
C874 C 0.89249 0.93089 0.70946 0.0
C875 C 0.91173 0.91945 0.69984 0.0
C876 C 0.92027 0.89828 0.71181 0.0
H877 H 0.01046 0.97961 0.59093 0.0
H878 H 0.99167 0.96312 0.62783 0.0
C879 C 0.90948 0.88842 0.73271 0.0
C880 C 0.92299 0.92975 0.6774 0.0
H881 H 0.93554 0.91652 0.62081 0.0
C882 C 0.9331 0.95349 0.67647 0.0
C883 C 0.92362 0.91639 0.65696 0.0
C884 C 0.91218 0.89125 0.65651 0.0
C885 C 0.94415 0.96404 0.65581 0.0
C886 C 0.9453 0.95043 0.63557 0.0
C887 C 0.93486 0.92685 0.63639 0.0
C888 C 0.95681 0.96053 0.61321 0.0
C889 C 0.95417 0.98984 0.65566 0.0
C890 C 0.94358 0.96417 0.59259 0.0
C891 C 0.95426 0.9736 0.57147 0.0
C892 C 0.97849 0.97939 0.57043 0.0
C893 C 0.99177 0.97545 0.59108 0.0
C894 C 0.98103 0.96613 0.61224 0.0
H895 H 0.94729 0.99968 0.67059 0.0
H896 H 0.97354 0.98926 0.65724 0.0
H897 H 0.95009 1.0004 0.63887 0.0
H898 H 0.92491 0.95987 0.59287 0.0
H899 H 0.94348 0.97628 0.55593 0.0
H900 H 0.58994 0.05082 0.30228 0.0
H901 H 0.58054 0.03518 0.26417 0.0
H902 H 0.51243 0.06742 0.26627 0.0
H903 H 0.52194 0.08354 0.30436 0.0
H904 H 0.54575 0.00534 0.24729 0.0
H905 H 0.54122 0.10032 0.20626 0.0
H906 H 0.5521 0.09376 0.23567 0.0
H907 H 0.52105 0.09308 0.2303 0.0
C908 C 0.57277 0.05416 0.29487 0.0
C909 C 0.55673 0.06857 0.30617 0.0
C910 C 0.56745 0.04527 0.27306 0.0
C911 C 0.54599 0.05057 0.26219 0.0
C912 C 0.52933 0.06364 0.27411 0.0
H913 H 0.50821 0.02932 0.1159 0.0
H914 H 0.50489 0.03485 0.15817 0.0
C915 C 0.53473 0.07276 0.29585 0.0
C916 C 0.54194 0.04378 0.23776 0.0
H917 H 0.53523 0.06828 0.18139 0.0
C918 C 0.54325 0.01907 0.2329 0.0
C919 C 0.53878 0.06177 0.21901 0.0
C920 C 0.5384 0.08874 0.22294 0.0
C921 C 0.54185 0.01191 0.2097 0.0
C922 C 0.53924 0.02996 0.19099 0.0
C923 C 0.53714 0.05453 0.19588 0.0
C924 C 0.54037 0.02413 0.16603 0.0
C925 C 0.54344 0.98516 0.20532 0.0
C926 C 0.56143 0.01629 0.15655 0.0
C927 C 0.56341 0.01323 0.13245 0.0
C928 C 0.54435 0.01794 0.11741 0.0
C929 C 0.5231 0.02526 0.12708 0.0
C930 C 0.52119 0.0285 0.15117 0.0
H931 H 0.53937 0.97321 0.22153 0.0
H932 H 0.53124 0.98018 0.19116 0.0
H933 H 0.56156 0.98148 0.19955 0.0
H934 H 0.57656 0.01323 0.1677 0.0
H935 H 0.57991 0.00738 0.12552 0.0
H936 H 0.36591 0.61453 0.30355 0.0
H937 H 0.38381 0.59747 0.33983 0.0
H938 H 0.43074 0.55641 0.29896 0.0
H939 H 0.41246 0.5728 0.26257 0.0
H940 H 0.41087 0.52924 0.33859 0.0
H941 H 0.44934 0.61851 0.36209 0.0
H942 H 0.41826 0.61849 0.35709 0.0
H943 H 0.438 0.61377 0.33314 0.0
C944 C 0.37984 0.60163 0.30226 0.0
C945 C 0.38783 0.59512 0.28013 0.0
C946 C 0.39021 0.5921 0.32301 0.0
C947 C 0.40884 0.576 0.32205 0.0
C948 C 0.41648 0.56896 0.30007 0.0
H949 H 0.50849 0.53921 0.43214 0.0
H950 H 0.48875 0.55256 0.39565 0.0
C951 C 0.40613 0.57848 0.27929 0.0
C952 C 0.42057 0.56671 0.34394 0.0
H953 H 0.4524 0.58506 0.39055 0.0
C954 C 0.41998 0.5414 0.34997 0.0
C955 C 0.43267 0.58262 0.35855 0.0
C956 C 0.43486 0.60984 0.35235 0.0
C957 C 0.43095 0.5316 0.37044 0.0
C958 C 0.44253 0.5476 0.38536 0.0
C959 C 0.44333 0.57286 0.37917 0.0
C960 C 0.45441 0.53853 0.40725 0.0
C961 C 0.43045 0.50421 0.37567 0.0
C962 C 0.44162 0.52627 0.42593 0.0
C963 C 0.45287 0.51855 0.44684 0.0
C964 C 0.4771 0.52311 0.44948 0.0
C965 C 0.48983 0.53536 0.43069 0.0
C966 C 0.47858 0.54304 0.40982 0.0
H967 H 0.42603 0.49434 0.35979 0.0
H968 H 0.44764 0.49794 0.38247 0.0
H969 H 0.4169 0.49912 0.38939 0.0
H970 H 0.42287 0.52303 0.42448 0.0
H971 H 0.44253 0.5093 0.46102 0.0
H972 H 0.10773 0.43638 0.72709 0.0
H973 H 0.10114 0.44762 0.76737 0.0
H974 H 0.04069 0.39842 0.77386 0.0
H975 H 0.04739 0.38664 0.73358 0.0
H976 H 0.03355 0.44675 0.78859 0.0
H977 H 0.11252 0.40506 0.82913 0.0
H978 H 0.1185 0.42434 0.80278 0.0
H979 H 0.10108 0.39665 0.80116 0.0
C980 C 0.09323 0.42764 0.73716 0.0
C981 C 0.0782 0.41045 0.72716 0.0
C982 C 0.08949 0.43411 0.76017 0.0
C983 C 0.07068 0.42352 0.77367 0.0
C984 C 0.0554 0.40665 0.76372 0.0
H985 H 0.02108 0.46078 0.91285 0.0
H986 H 0.02547 0.44058 0.87615 0.0
C987 C 0.05917 0.40008 0.74068 0.0
C988 C 0.06662 0.43088 0.79788 0.0
H989 H 0.09257 0.43338 0.85162 0.0
C990 C 0.04626 0.44358 0.80251 0.0
C991 C 0.08329 0.42667 0.81591 0.0
C992 C 0.10499 0.41224 0.81213 0.0
C993 C 0.04261 0.45319 0.82446 0.0
C994 C 0.05959 0.44952 0.84232 0.0
C995 C 0.07962 0.4362 0.83787 0.0
C996 C 0.05751 0.46049 0.8653 0.0
C997 C 0.02114 0.46808 0.82798 0.0
C998 C 0.07453 0.47769 0.87177 0.0
C999 C 0.07226 0.48902 0.89289 0.0
C1000 C 0.05293 0.48334 0.908 0.0
C1001 C 0.03625 0.46553 0.90175 0.0
C1002 C 0.03858 0.45415 0.88063 0.0
H1003 H 0.01272 0.47377 0.81097 0.0
H1004 H 1.0081 0.4569 0.83895 0.0
H1005 H 0.02569 0.48472 0.83727 0.0
H1006 H 0.08939 0.48269 0.86025 0.0
H1007 H 0.08564 0.50229 0.89732 0.0
H1008 H 0.70656 0.873 0.88217 0.0
H1009 H 0.67162 0.88985 0.89953 0.0
H1010 H 0.71564 0.93754 0.93872 0.0
H1011 H 0.75059 0.92106 0.92111 0.0
H1012 H 0.65652 0.88975 0.9441 0.0
H1013 H 0.67121 0.98606 0.90954 0.0
H1014 H 0.68796 0.9614 0.89926 0.0
H1015 H 0.69551 0.97463 0.92643 0.0
C1016 C 0.70881 0.88708 0.89449 0.0
C1017 C 0.73142 0.89578 0.9001 0.0
C1018 C 0.68879 0.89676 0.90437 0.0
C1019 C 0.69086 0.91536 0.92014 0.0
C1020 C 0.71344 0.92377 0.92608 0.0
H1021 H 0.59133 0.98217 0.01144 0.0
H1022 H 0.62598 0.9652 0.99348 0.0
C1023 C 0.73346 0.91426 0.91604 0.0
C1024 C 0.66944 0.92545 0.93078 0.0
H1025 H 0.64135 0.97868 0.93901 0.0
C1026 C 0.65318 0.90918 0.94283 0.0
C1027 C 0.66488 0.95084 0.92909 0.0
C1028 C 0.68068 0.96922 0.91518 0.0
C1029 C 0.63288 0.91763 0.95352 0.0
C1030 C 0.62867 0.94297 0.95222 0.0
C1031 C 0.64475 0.95926 0.94012 0.0
C1032 C 0.60752 0.95287 0.96321 0.0
C1033 C 0.61608 0.89952 0.96642 0.0
C1034 C 0.58565 0.95161 0.95209 0.0
C1035 C 0.56582 0.96143 0.96221 0.0
C1036 C 0.56743 0.97258 0.98375 0.0
C1037 C 0.58939 0.97363 0.99491 0.0
C1038 C 0.60925 0.96399 0.98466 0.0
H1039 H 0.62282 0.88064 0.96762 0.0
H1040 H 0.61272 0.90512 0.98452 0.0
H1041 H 0.59903 0.89938 0.95709 0.0
H1042 H 0.58397 0.94318 0.93547 0.0
H1043 H 0.54923 0.96032 0.9531 0.0
H1044 H 0.73015 0.07608 0.39974 0.0
H1045 H 0.77113 0.06663 0.40735 0.0
H1046 H 0.77989 0.13261 0.44395 0.0
H1047 H 0.73858 0.14169 0.43732 0.0
H1048 H 0.81241 0.0932 0.39492 0.0
H1049 H 0.80137 0.07958 0.49241 0.0
H1050 H 0.77671 0.08139 0.47271 0.0
H1051 H 0.79271 0.10873 0.47939 0.0
C1052 C 0.74069 0.08845 0.40965 0.0
C1053 C 0.73101 0.10949 0.41816 0.0
C1054 C 0.76417 0.08315 0.41376 0.0
C1055 C 0.77842 0.09876 0.42646 0.0
C1056 C 0.76906 0.12013 0.43444 0.0
H1057 H 0.91947 0.06648 0.47849 0.0
H1058 H 0.88557 0.09033 0.46546 0.0
C1059 C 0.74552 0.1254 0.43042 0.0
C1060 C 0.8029 0.09215 0.43174 0.0
H1061 H 0.83898 0.07393 0.47689 0.0
C1062 C 0.81832 0.0892 0.41284 0.0
C1063 C 0.81054 0.08706 0.45516 0.0
C1064 C 0.79447 0.08914 0.47612 0.0
C1065 C 0.84102 0.08064 0.41673 0.0
C1066 C 0.84831 0.07468 0.44008 0.0
C1067 C 0.83329 0.07863 0.45901 0.0
C1068 C 0.87035 0.06189 0.44528 0.0
C1069 C 0.85689 0.07767 0.39584 0.0
C1070 C 0.87303 0.03817 0.43805 0.0
C1071 C 0.89224 0.02455 0.44551 0.0
C1072 C 0.90911 0.03441 0.46036 0.0
C1073 C 0.90687 0.05854 0.46685 0.0
C1074 C 0.88751 0.07212 0.45951 0.0
H1075 H 0.8517 0.08959 0.38023 0.0
H1076 H 0.87547 0.08202 0.40006 0.0
H1077 H 0.85564 0.05839 0.39102 0.0
H1078 H 0.85975 0.0298 0.42741 0.0
H1079 H 0.89365 0.00609 0.4401 0.0
H1080 H 0.2295 0.64129 0.09769 0.0
H1081 H 0.1933 0.62608 0.08021 0.0
H1082 H 0.18909 0.56619 0.13364 0.0
H1083 H 0.22565 0.58088 0.15087 0.0
H1084 H 0.1825 0.55182 0.08791 0.0
H1085 H 0.12604 0.6294 0.10596 0.0
H1086 H 0.15306 0.63828 0.09084 0.0
H1087 H 0.15378 0.62441 0.12043 0.0
C1088 C 0.22092 0.62483 0.10568 0.0
C1089 C 0.23045 0.61232 0.12571 0.0
C1090 C 0.2001 0.61632 0.09582 0.0
C1091 C 0.18833 0.59522 0.10585 0.0
C1092 C 0.19781 0.58263 0.12576 0.0
H1093 H 0.04832 0.54038 0.07331 0.0
H1094 H 0.08308 0.55707 0.09234 0.0
C1095 C 0.21862 0.59114 0.13566 0.0
C1096 C 0.16661 0.58575 0.09504 0.0
H1097 H 0.11044 0.60043 0.08049 0.0
C1098 C 0.16672 0.56239 0.08635 0.0
C1099 C 0.14597 0.59949 0.09329 0.0
C1100 C 0.14453 0.6242 0.10331 0.0
C1101 C 0.14685 0.55258 0.07554 0.0
C1102 C 0.12647 0.56666 0.07308 0.0
C1103 C 0.12619 0.5898 0.08219 0.0
C1104 C 0.10522 0.55751 0.06123 0.0
C1105 C 0.14774 0.5271 0.0671 0.0
C1106 C 0.10605 0.55275 0.0373 0.0
C1107 C 0.08625 0.54323 0.02637 0.0
C1108 C 0.06522 0.53838 0.03916 0.0
C1109 C 0.06427 0.54381 0.06298 0.0
C1110 C 0.0841 0.55337 0.07388 0.0
H1111 H 0.16227 0.5166 0.07542 0.0
H1112 H 0.13094 0.51679 0.07095 0.0
H1113 H 0.15066 0.52836 0.04772 0.0
H1114 H 0.12208 0.55626 0.02712 0.0
H1115 H 0.08755 0.53939 1.00797 0.0
H1116 H 0.22741 0.40054 0.58112 0.0
H1117 H 0.26703 0.4169 0.57206 0.0
H1118 H 0.23844 0.47717 0.52976 0.0
H1119 H 0.19846 0.46082 0.53876 0.0
H1120 H 0.27907 0.44666 0.50981 0.0
H1121 H 0.29445 0.48511 0.59654 0.0
H1122 H 0.28079 0.45501 0.59751 0.0
H1123 H 0.26542 0.48072 0.58462 0.0
C1124 C 0.22952 0.41714 0.56969 0.0
C1125 C 0.20986 0.42934 0.56053 0.0
C1126 C 0.25213 0.42655 0.56471 0.0
C1127 C 0.25553 0.44828 0.55042 0.0
C1128 C 0.23605 0.46042 0.54094 0.0
H1129 H 0.40034 0.50908 0.53731 0.0
H1130 H 0.35716 0.50823 0.53741 0.0
C1131 C 0.21331 0.45112 0.54612 0.0
C1132 C 0.27965 0.45781 0.54538 0.0
H1133 H 0.32826 0.47949 0.57276 0.0
C1134 C 0.28976 0.45432 0.52336 0.0
C1135 C 0.29339 0.46794 0.56307 0.0
C1136 C 0.283 0.47264 0.58675 0.0
C1137 C 0.31376 0.4593 0.51908 0.0
C1138 C 0.32785 0.46784 0.53734 0.0
C1139 C 0.31739 0.47284 0.55883 0.0
C1140 C 0.35375 0.46898 0.53551 0.0
C1141 C 0.32406 0.45465 0.49534 0.0
C1142 C 0.36596 0.44722 0.53456 0.0
C1143 C 0.39043 0.44765 0.53473 0.0
C1144 C 0.40318 0.46987 0.53579 0.0
C1145 C 0.39092 0.49175 0.53632 0.0
C1146 C 0.36634 0.49128 0.53642 0.0
H1147 H 0.31039 0.45475 0.48149 0.0
H1148 H 0.33795 0.4686 0.48998 0.0
H1149 H 0.3321 0.4364 0.49644 0.0
H1150 H 0.35653 0.4298 0.5342 0.0
H1151 H 0.39939 0.43055 0.53402 0.0
H1152 H 0.8745 0.7128 0.88397 0.0
H1153 H 0.89417 0.67748 0.90256 0.0
H1154 H 0.92516 0.72324 0.9534 0.0
H1155 H 0.90629 0.7589 0.93435 0.0
H1156 H 0.95713 0.69318 0.93561 0.0
H1157 H 0.87708 0.63908 0.96414 0.0
H1158 H 0.87761 0.64792 0.93313 0.0
H1159 H 0.87635 0.67103 0.95406 0.0
C1160 C 0.8856 0.71545 0.89902 0.0
C1161 C 0.88871 0.73881 0.90764 0.0
C1162 C 0.89661 0.69511 0.90985 0.0
C1163 C 0.91084 0.69755 0.92967 0.0
C1164 C 0.91411 0.72082 0.93826 0.0
H1165 H 0.96112 0.57341 0.01915 0.0
H1166 H 0.94216 0.61087 1.00409 0.0
C1167 C 0.90313 0.7412 0.92743 0.0
C1168 C 0.92289 0.67599 0.94099 0.0
H1169 H 0.91317 0.61806 0.96631 0.0
C1170 C 0.94749 0.67681 0.94244 0.0
C1171 C 0.91036 0.65472 0.95026 0.0
C1172 C 0.88388 0.65315 0.95057 0.0
C1173 C 0.9599 0.6568 0.95232 0.0
C1174 C 0.94743 0.63513 0.96062 0.0
C1175 C 0.92279 0.63454 0.95974 0.0
C1176 C 0.95957 0.61279 0.97003 0.0
C1177 C 0.98626 0.65921 0.95402 0.0
C1178 C 0.9756 0.60124 0.95589 0.0
C1179 C 0.98654 0.57989 0.96448 0.0
C1180 C 0.98155 0.56942 0.98736 0.0
C1181 C 0.96546 0.58099 1.00149 0.0
C1182 C 0.95455 0.6024 0.99288 0.0
H1183 H 0.99231 0.6787 0.95357 0.0
H1184 H 0.99268 0.64957 0.97047 0.0
H1185 H 0.99439 0.65095 0.93877 0.0
H1186 H 0.97938 0.60852 0.93802 0.0
H1187 H 0.99868 0.57141 0.95301 0.0
H1188 H 0.3711 0.77278 0.09807 0.0
H1189 H 0.39118 0.80995 0.08059 0.0
H1190 H 0.4494 0.79758 0.12752 0.0
H1191 H 0.42951 0.76031 0.14503 0.0
H1192 H 0.40887 0.85199 0.10807 0.0
H1193 H 0.47727 0.80669 0.05743 0.0
H1194 H 0.44986 0.79138 0.06653 0.0
H1195 H 0.47246 0.79574 0.08775 0.0
C1196 C 0.38827 0.77787 0.10452 0.0
C1197 C 0.39877 0.76362 0.12288 0.0
C1198 C 0.39963 0.79913 0.09461 0.0
C1199 C 0.42179 0.80633 0.10269 0.0
C1200 C 0.43237 0.79217 0.12097 0.0
H1201 H 0.4992 0.94499 0.07611 0.0
H1202 H 0.48164 0.90674 0.09416 0.0
C1203 C 0.42093 0.77101 0.13103 0.0
C1204 C 0.43363 0.82895 0.09228 0.0
H1205 H 0.47951 0.84988 0.05675 0.0
C1206 C 0.42434 0.85158 0.09689 0.0
C1207 C 0.45371 0.82822 0.07764 0.0
C1208 C 0.46395 0.80425 0.07183 0.0
C1209 C 0.43476 0.87362 0.08731 0.0
C1210 C 0.45491 0.8729 0.07279 0.0
C1211 C 0.46413 0.85027 0.06804 0.0
C1212 C 0.46622 0.89555 0.06182 0.0
C1213 C 0.42402 0.89757 0.09243 0.0
C1214 C 0.46355 0.90163 0.03764 0.0
C1215 C 0.47341 0.92347 0.0273 0.0
C1216 C 0.48633 0.93949 0.04095 0.0
C1217 C 0.48938 0.93304 0.06512 0.0
C1218 C 0.47932 0.91126 0.07547 0.0
H1219 H 0.4067 0.89485 0.10148 0.0
H1220 H 0.43597 0.90769 0.10389 0.0
H1221 H 0.42179 0.90914 0.0758 0.0
H1222 H 0.4535 0.88965 0.02686 0.0
H1223 H 0.4708 0.92786 0.00864 0.0
H1224 H 0.07229 0.24691 0.58697 0.0
H1225 H 0.05488 0.20766 0.57738 0.0
H1226 H 0.99609 0.24459 0.54533 0.0
H1227 H 0.01373 0.28423 0.55445 0.0
H1228 H 1.009 0.18728 0.5912 0.0
H1229 H 0.0214 0.2012 0.49371 0.0
H1230 H 0.0373 0.21951 0.51385 0.0
H1231 H 1.00678 0.22454 0.50854 0.0
C1232 C 0.05578 0.24675 0.57765 0.0
C1233 C 0.04451 0.26869 0.57123 0.0
C1234 C 0.04576 0.2243 0.57237 0.0
C1235 C 0.02433 0.22328 0.56049 0.0
C1236 C 0.01278 0.24506 0.5543 0.0
H1237 H 0.97048 0.08458 0.50806 0.0
H1238 H 0.97055 0.12739 0.51844 0.0
C1239 C 0.02279 0.26762 0.55966 0.0
C1240 C 0.01448 0.1992 0.55461 0.0
H1241 H 1.00774 0.16243 0.50891 0.0
C1242 C 1.00835 0.18193 0.57318 0.0
C1243 C 0.01347 0.19239 0.53108 0.0
C1244 C 0.02017 0.21025 0.51056 0.0
C1245 C 1.00225 0.15767 0.56892 0.0
C1246 C 1.00272 0.15045 0.54552 0.0
C1247 C 1.00745 0.16806 0.52683 0.0
C1248 C 1.00134 0.12433 0.54039 0.0
C1249 C 0.99601 0.1398 0.58957 0.0
C1250 C 0.01868 0.1086 0.54918 0.0
C1251 C 0.01877 0.08435 0.54324 0.0
C1252 C 1.00153 0.07531 0.52829 0.0
C1253 C 0.98393 0.091 0.5197 0.0
C1254 C 0.98395 0.11542 0.52558 0.0
H1255 H 0.98903 0.14933 0.60465 0.0
H1256 H 0.98278 0.12584 0.58459 0.0
H1257 H 0.01203 0.13024 0.59559 0.0
H1258 H 0.03256 0.11525 0.56022 0.0
H1259 H 0.0326 0.0728 0.55014 0.0
H1260 H 0.60262 0.25401 0.45466 0.0
H1261 H 0.59395 0.29523 0.46546 0.0
H1262 H 0.52802 0.29163 0.42893 0.0
H1263 H 0.53638 0.25019 0.41826 0.0
H1264 H 0.55583 0.3357 0.41846 0.0
H1265 H 0.54434 0.31266 0.51476 0.0
H1266 H 0.57113 0.30264 0.50218 0.0
H1267 H 0.5435 0.28971 0.49344 0.0
C1268 C 0.5861 0.26182 0.44922 0.0
C1269 C 0.57009 0.24876 0.43576 0.0
C1270 C 0.58124 0.28539 0.45533 0.0
C1271 C 0.56027 0.29629 0.44817 0.0
C1272 C 0.5443 0.28345 0.43461 0.0
H1273 H 0.49516 0.42196 0.49929 0.0
H1274 H 0.5053 0.38187 0.48682 0.0
C1275 C 0.54913 0.25984 0.4285 0.0
C1276 C 0.55509 0.32121 0.45467 0.0
H1277 H 0.54439 0.35466 0.5018 0.0
C1278 C 0.55331 0.33992 0.43666 0.0
C1279 C 0.55169 0.32647 0.47842 0.0
C1280 C 0.55255 0.30682 0.49835 0.0
C1281 C 0.5483 0.36391 0.44182 0.0
C1282 C 0.54525 0.36923 0.46561 0.0
C1283 C 0.54695 0.35049 0.48359 0.0
C1284 C 0.53918 0.39387 0.47225 0.0
C1285 C 0.5458 0.38324 0.42182 0.0
C1286 C 0.55497 0.41388 0.46819 0.0
C1287 C 0.54924 0.43693 0.47529 0.0
C1288 C 0.52766 0.44021 0.48664 0.0
C1289 C 0.51192 0.42008 0.49057 0.0
C1290 C 0.51766 0.39714 0.48349 0.0
H1291 H 0.54387 0.37511 0.40454 0.0
H1292 H 0.53038 0.39462 0.42479 0.0
H1293 H 0.56169 0.39547 0.4209 0.0
H1294 H 0.57184 0.41158 0.45986 0.0
H1295 H 0.56177 0.45206 0.47212 0.0
loop_
_geom_bond_atom_site_label_1
_geom_bond_atom_site_label_2
_geom_bond_distance
_geom_bond_site_symmetry_2
_ccdc_geom_bond_type
C0 C1 1.386 . S
C0 C2 1.397 . S
C0 H24 0.931 . S
C1 C0 1.386 . S
C1 C5 1.397 . S
C2 C0 1.397 . S
C2 C3 1.384 . S
C2 H25 0.930 . S
C3 C2 1.384 . S
C3 C4 1.377 . S
C3 C6 1.481 . S
C4 C3 1.377 . S
C4 C5 1.389 . S
C4 H26 0.929 . S
C5 C1 1.397 . S
C5 C4 1.389 . S
C5 H27 0.931 . S
C6 C3 1.481 . S
C6 C7 1.387 . S
C6 C11 1.390 . S
C7 C6 1.387 . S
C7 C8 1.401 . S
C7 H28 0.930 . S
C8 C7 1.401 . S
C8 C9 1.376 . S
C8 C17 1.511 . S
C9 C8 1.376 . S
C9 C10 1.392 . S
C9 H30 0.931 . S
C10 C9 1.392 . S
C10 C11 1.361 . S
C10 C12 1.500 . S
C11 C6 1.390 . S
C11 C10 1.361 . S
C11 H29 0.931 . S
C12 C10 1.500 . S
C12 C13 1.371 . S
C12 C14 1.365 . S
C13 C12 1.371 . S
C13 C23 1.386 . S
C13 H31 0.931 . S
C14 C12 1.365 . S
C14 C15 1.409 . S
C14 H32 0.929 . S
C15 C14 1.409 . S
C15 C16 1.380 . S
C15 H33 0.930 . S
C16 C15 1.380 . S
C16 C23 1.357 . S
C17 C8 1.511 . S
C17 C18 1.341 . S
C17 C19 1.371 . S
C18 C17 1.341 . S
C18 C22 1.394 . S
C18 H34 0.930 . S
C19 C17 1.371 . S
C19 C20 1.392 . S
C19 H35 0.931 . S
C20 C19 1.392 . S
C20 C21 1.331 . S
C20 H38 0.932 . S
C21 C20 1.331 . S
C21 C22 1.336 . S
C22 C18 1.394 . S
C22 C21 1.336 . S
C22 H37 0.929 . S
C23 C13 1.386 . S
C23 C16 1.357 . S
C23 H36 0.928 . S
H24 C0 0.931 . S
H25 C2 0.930 . S
H26 C4 0.929 . S
H27 C5 0.931 . S
H28 C7 0.930 . S
H29 C11 0.931 . S
H30 C9 0.931 . S
H31 C13 0.931 . S
H32 C14 0.929 . S
H33 C15 0.930 . S
H34 C18 0.930 . S
H35 C19 0.931 . S
H36 C23 0.928 . S
H37 C22 0.929 . S
H38 C20 0.932 . S
C39 C40 1.386 . S
C39 C41 1.397 . S
C39 H63 0.931 . S
C40 C39 1.386 . S
C40 C44 1.397 . S
C41 C39 1.397 . S
C41 C42 1.384 . S
C41 H64 0.930 . S
C42 C41 1.384 . S
C42 C43 1.377 . S
C42 C45 1.481 . S
C43 C42 1.377 . S
C43 C44 1.389 . S
C43 H65 0.929 . S
C44 C40 1.397 . S
C44 C43 1.389 . S
C44 H66 0.931 . S
C45 C42 1.481 . S
C45 C46 1.387 . S
C45 C50 1.390 . S
C46 C45 1.387 . S
C46 C47 1.401 . S
C46 H67 0.930 . S
C47 C46 1.401 . S
C47 C48 1.376 . S
C47 C56 1.511 . S
C48 C47 1.376 . S
C48 C49 1.392 . S
C48 H69 0.931 . S
C49 C48 1.392 . S
C49 C50 1.361 . S
C49 C51 1.500 . S
C50 C45 1.390 . S
C50 C49 1.361 . S
C50 H68 0.931 . S
C51 C49 1.500 . S
C51 C52 1.371 . S
C51 C53 1.365 . S
C52 C51 1.371 . S
C52 C62 1.386 . S
C52 H70 0.931 . S
C53 C51 1.365 . S
C53 C54 1.409 . S
C53 H71 0.929 . S
C54 C53 1.409 . S
C54 C55 1.380 . S
C54 H72 0.930 . S
C55 C54 1.380 . S
C55 C62 1.357 . S
C56 C47 1.511 . S
C56 C57 1.341 . S
C56 C58 1.371 . S
C57 C56 1.341 . S
C57 C61 1.394 . S
C57 H73 0.930 . S
C58 C56 1.371 . S
C58 C59 1.392 . S
C58 H74 0.931 . S
C59 C58 1.392 . S
C59 C60 1.331 . S
C59 H77 0.932 . S
C60 C59 1.331 . S
C60 C61 1.336 . S
C61 C57 1.394 . S
C61 C60 1.336 . S
C61 H76 0.929 . S
C62 C52 1.386 . S
C62 C55 1.357 . S
C62 H75 0.928 . S
H63 C39 0.931 . S
H64 C41 0.930 . S
H65 C43 0.929 . S
H66 C44 0.931 . S
H67 C46 0.930 . S
H68 C50 0.931 . S
H69 C48 0.931 . S
H70 C52 0.931 . S
H71 C53 0.929 . S
H72 C54 0.930 . S
H73 C57 0.930 . S
H74 C58 0.931 . S
H75 C62 0.928 . S
H76 C61 0.929 . S
H77 C59 0.932 . S
C78 C79 1.386 . S
C78 C80 1.397 . S
C78 H102 0.931 . S
C79 C78 1.386 . S
C79 C83 1.397 . S
C80 C78 1.397 . S
C80 C81 1.384 . S
C80 H103 0.930 . S
C81 C80 1.384 . S
C81 C82 1.377 . S
C81 C84 1.481 . S
C82 C81 1.377 . S
C82 C83 1.389 . S
C82 H104 0.929 . S
C83 C79 1.397 . S
C83 C82 1.389 . S
C83 H105 0.931 . S
C84 C81 1.481 . S
C84 C85 1.387 . S
C84 C89 1.390 . S
C85 C84 1.387 . S
C85 C86 1.401 . S
C85 H106 0.930 . S
C86 C85 1.401 . S
C86 C87 1.376 . S
C86 C95 1.511 . S
C87 C86 1.376 . S
C87 C88 1.392 . S
C87 H108 0.931 . S
C88 C87 1.392 . S
C88 C89 1.361 . S
C88 C90 1.500 . S
C89 C84 1.390 . S
C89 C88 1.361 . S
C89 H107 0.931 . S
C90 C88 1.500 . S
C90 C91 1.371 . S
C90 C92 1.365 . S
C91 C90 1.371 . S
C91 C101 1.386 . S
C91 H109 0.931 . S
C92 C90 1.365 . S
C92 C93 1.409 . S
C92 H110 0.929 . S
C93 C92 1.409 . S
C93 C94 1.380 . S
C93 H111 0.930 . S
C94 C93 1.380 . S
C94 C101 1.357 . S
C95 C86 1.511 . S
C95 C96 1.341 . S
C95 C97 1.371 . S
C96 C95 1.341 . S
C96 C100 1.394 . S
C96 H112 0.930 . S
C97 C95 1.371 . S
C97 C98 1.392 . S
C97 H113 0.931 . S
C98 C97 1.392 . S
C98 C99 1.331 . S
C98 H116 0.932 . S
C99 C98 1.331 . S
C99 C100 1.336 . S
C100 C96 1.394 . S
C100 C99 1.336 . S
C100 H115 0.929 . S
C101 C91 1.386 . S
C101 C94 1.357 . S
C101 H114 0.928 . S
H102 C78 0.931 . S
H103 C80 0.930 . S
H104 C82 0.929 . S
H105 C83 0.931 . S
H106 C85 0.930 . S
H107 C89 0.931 . S
H108 C87 0.931 . S
H109 C91 0.931 . S
H110 C92 0.929 . S
H111 C93 0.930 . S
H112 C96 0.930 . S
H113 C97 0.931 . S
H114 C101 0.928 . S
H115 C100 0.929 . S
H116 C98 0.932 . S
C117 C118 1.386 . S
C117 C119 1.397 . S
C117 H141 0.931 . S
C118 C117 1.386 . S
C118 C122 1.397 . S
C119 C117 1.397 . S
C119 C120 1.384 . S
C119 H142 0.930 . S
C120 C119 1.384 . S
C120 C121 1.377 . S
C120 C123 1.481 . S
C121 C120 1.377 . S
C121 C122 1.389 . S
C121 H143 0.929 . S
C122 C118 1.397 . S
C122 C121 1.389 . S
C122 H144 0.931 . S
C123 C120 1.481 . S
C123 C124 1.387 . S
C123 C128 1.390 . S
C124 C123 1.387 . S
C124 C125 1.401 . S
C124 H145 0.930 . S
C125 C124 1.401 . S
C125 C126 1.376 . S
C125 C134 1.511 . S
C126 C125 1.376 . S
C126 C127 1.392 . S
C126 H147 0.931 . S
C127 C126 1.392 . S
C127 C128 1.361 . S
C127 C129 1.500 . S
C128 C123 1.390 . S
C128 C127 1.361 . S
C128 H146 0.931 . S
C129 C127 1.500 . S
C129 C130 1.371 . S
C129 C131 1.365 . S
C130 C129 1.371 . S
C130 C140 1.386 . S
C130 H148 0.931 . S
C131 C129 1.365 . S
C131 C132 1.409 . S
C131 H149 0.929 . S
C132 C131 1.409 . S
C132 C133 1.380 . S
C132 H150 0.930 . S
C133 C132 1.380 . S
C133 C140 1.357 . S
C134 C125 1.511 . S
C134 C135 1.341 . S
C134 C136 1.371 . S
C135 C134 1.341 . S
C135 C139 1.394 . S
C135 H151 0.930 . S
C136 C134 1.371 . S
C136 C137 1.392 . S
C136 H152 0.931 . S
C137 C136 1.392 . S
C137 C138 1.331 . S
C137 H155 0.932 . S
C138 C137 1.331 . S
C138 C139 1.336 . S
C139 C135 1.394 . S
C139 C138 1.336 . S
C139 H154 0.929 . S
C140 C130 1.386 . S
C140 C133 1.357 . S
C140 H153 0.928 . S
H141 C117 0.931 . S
H142 C119 0.930 . S
H143 C121 0.929 . S
H144 C122 0.931 . S
H145 C124 0.930 . S
H146 C128 0.931 . S
H147 C126 0.931 . S
H148 C130 0.931 . S
H149 C131 0.929 . S
H150 C132 0.930 . S
H151 C135 0.930 . S
H152 C136 0.931 . S
H153 C140 0.928 . S
H154 C139 0.929 . S
H155 C137 0.932 . S
C156 C157 1.386 . S
C156 C158 1.397 . S
C156 H180 0.931 . S
C157 C156 1.386 . S
C157 C161 1.397 . S
C158 C156 1.397 . S
C158 C159 1.384 . S
C158 H181 0.930 . S
C159 C158 1.384 . S
C159 C160 1.377 . S
C159 C162 1.481 . S
C160 C159 1.377 . S
C160 C161 1.389 . S
C160 H182 0.929 . S
C161 C157 1.397 . S
C161 C160 1.389 . S
C161 H183 0.931 . S
C162 C159 1.481 . S
C162 C163 1.387 . S
C162 C167 1.390 . S
C163 C162 1.387 . S
C163 C164 1.401 . S
C163 H184 0.930 . S
C164 C163 1.401 . S
C164 C165 1.376 . S
C164 C173 1.511 . S
C165 C164 1.376 . S
C165 C166 1.392 . S
C165 H186 0.931 . S
C166 C165 1.392 . S
C166 C167 1.361 . S
C166 C168 1.500 . S
C167 C162 1.390 . S
C167 C166 1.361 . S
C167 H185 0.931 . S
C168 C166 1.500 . S
C168 C169 1.371 . S
C168 C170 1.365 . S
C169 C168 1.371 . S
C169 C179 1.386 . S
C169 H187 0.931 . S
C170 C168 1.365 . S
C170 C171 1.409 . S
C170 H188 0.929 . S
C171 C170 1.409 . S
C171 C172 1.380 . S
C171 H189 0.930 . S
C172 C171 1.380 . S
C172 C179 1.357 . S
C173 C164 1.511 . S
C173 C174 1.341 . S
C173 C175 1.371 . S
C174 C173 1.341 . S
C174 C178 1.394 . S
C174 H190 0.930 . S
C175 C173 1.371 . S
C175 C176 1.392 . S
C175 H191 0.931 . S
C176 C175 1.392 . S
C176 C177 1.331 . S
C176 H194 0.932 . S
C177 C176 1.331 . S
C177 C178 1.336 . S
C178 C174 1.394 . S
C178 C177 1.336 . S
C178 H193 0.929 . S
C179 C169 1.386 . S
C179 C172 1.357 . S
C179 H192 0.928 . S
H180 C156 0.931 . S
H181 C158 0.930 . S
H182 C160 0.929 . S
H183 C161 0.931 . S
H184 C163 0.930 . S
H185 C167 0.931 . S
H186 C165 0.931 . S
H187 C169 0.931 . S
H188 C170 0.929 . S
H189 C171 0.930 . S
H190 C174 0.930 . S
H191 C175 0.931 . S
H192 C179 0.928 . S
H193 C178 0.929 . S
H194 C176 0.932 . S
C195 C196 1.386 . S
C195 C197 1.397 . S
C195 H219 0.931 . S
C196 C195 1.386 . S
C196 C200 1.397 . S
C197 C195 1.397 . S
C197 C198 1.384 . S
C197 H220 0.930 . S
C198 C197 1.384 . S
C198 C199 1.377 . S
C198 C201 1.481 . S
C199 C198 1.377 . S
C199 C200 1.389 . S
C199 H221 0.929 . S
C200 C196 1.397 . S
C200 C199 1.389 . S
C200 H222 0.931 . S
C201 C198 1.481 . S
C201 C202 1.387 . S
C201 C206 1.390 . S
C202 C201 1.387 . S
C202 C203 1.401 . S
C202 H223 0.930 . S
C203 C202 1.401 . S
C203 C204 1.376 . S
C203 C212 1.511 . S
C204 C203 1.376 . S
C204 C205 1.392 . S
C204 H225 0.931 . S
C205 C204 1.392 . S
C205 C206 1.361 . S
C205 C207 1.500 . S
C206 C201 1.390 . S
C206 C205 1.361 . S
C206 H224 0.931 . S
C207 C205 1.500 . S
C207 C208 1.371 . S
C207 C209 1.365 . S
C208 C207 1.371 . S
C208 C218 1.386 . S
C208 H226 0.931 . S
C209 C207 1.365 . S
C209 C210 1.409 . S
C209 H227 0.929 . S
C210 C209 1.409 . S
C210 C211 1.380 . S
C210 H228 0.930 . S
C211 C210 1.380 . S
C211 C218 1.357 . S
C212 C203 1.511 . S
C212 C213 1.341 . S
C212 C214 1.371 . S
C213 C212 1.341 . S
C213 C217 1.394 . S
C213 H229 0.930 . S
C214 C212 1.371 . S
C214 C215 1.392 . S
C214 H230 0.931 . S
C215 C214 1.392 . S
C215 C216 1.331 . S
C215 H233 0.932 . S
C216 C215 1.331 . S
C216 C217 1.336 . S
C217 C213 1.394 . S
C217 C216 1.336 . S
C217 H232 0.929 . S
C218 C208 1.386 . S
C218 C211 1.357 . S
C218 H231 0.928 . S
H219 C195 0.931 . S
H220 C197 0.930 . S
H221 C199 0.929 . S
H222 C200 0.931 . S
H223 C202 0.930 . S
H224 C206 0.931 . S
H225 C204 0.931 . S
H226 C208 0.931 . S
H227 C209 0.929 . S
H228 C210 0.930 . S
H229 C213 0.930 . S
H230 C214 0.931 . S
H231 C218 0.928 . S
H232 C217 0.929 . S
H233 C215 0.932 . S
C234 C235 1.386 . S
C234 C236 1.397 . S
C234 H258 0.931 . S
C235 C234 1.386 . S
C235 C239 1.397 . S
C236 C234 1.397 . S
C236 C237 1.384 . S
C236 H259 0.930 . S
C237 C236 1.384 . S
C237 C238 1.377 . S
C237 C240 1.481 . S
C238 C237 1.377 . S
C238 C239 1.389 . S
C238 H260 0.929 . S
C239 C235 1.397 . S
C239 C238 1.389 . S
C239 H261 0.931 . S
C240 C237 1.481 . S
C240 C241 1.387 . S
C240 C245 1.390 . S
C241 C240 1.387 . S
C241 C242 1.401 . S
C241 H262 0.930 . S
C242 C241 1.401 . S
C242 C243 1.376 . S
C242 C251 1.511 . S
C243 C242 1.376 . S
C243 C244 1.392 . S
C243 H264 0.931 . S
C244 C243 1.392 . S
C244 C245 1.361 . S
C244 C246 1.500 . S
C245 C240 1.390 . S
C245 C244 1.361 . S
C245 H263 0.931 . S
C246 C244 1.500 . S
C246 C247 1.371 . S
C246 C248 1.365 . S
C247 C246 1.371 . S
C247 C257 1.386 . S
C247 H265 0.931 . S
C248 C246 1.365 . S
C248 C249 1.409 . S
C248 H266 0.929 . S
C249 C248 1.409 . S
C249 C250 1.380 . S
C249 H267 0.930 . S
C250 C249 1.380 . S
C250 C257 1.357 . S
C251 C242 1.511 . S
C251 C252 1.341 . S
C251 C253 1.371 . S
C252 C251 1.341 . S
C252 C256 1.394 . S
C252 H268 0.930 . S
C253 C251 1.371 . S
C253 C254 1.392 . S
C253 H269 0.931 . S
C254 C253 1.392 . S
C254 C255 1.331 . S
C254 H272 0.932 . S
C255 C254 1.331 . S
C255 C256 1.336 . S
C256 C252 1.394 . S
C256 C255 1.336 . S
C256 H271 0.929 . S
C257 C247 1.386 . S
C257 C250 1.357 . S
C257 H270 0.928 . S
H258 C234 0.931 . S
H259 C236 0.930 . S
H260 C238 0.929 . S
H261 C239 0.931 . S
H262 C241 0.930 . S
H263 C245 0.931 . S
H264 C243 0.931 . S
H265 C247 0.931 . S
H266 C248 0.929 . S
H267 C249 0.930 . S
H268 C252 0.930 . S
H269 C253 0.931 . S
H270 C257 0.928 . S
H271 C256 0.929 . S
H272 C254 0.932 . S
C273 C274 1.386 . S
C273 C275 1.397 . S
C273 H297 0.931 . S
C274 C273 1.386 . S
C274 C278 1.397 . S
C275 C273 1.397 . S
C275 C276 1.384 . S
C275 H298 0.930 . S
C276 C275 1.384 . S
C276 C277 1.377 . S
C276 C279 1.481 . S
C277 C276 1.377 . S
C277 C278 1.389 . S
C277 H299 0.929 . S
C278 C274 1.397 . S
C278 C277 1.389 . S
C278 H300 0.931 . S
C279 C276 1.481 . S
C279 C280 1.387 . S
C279 C284 1.390 . S
C280 C279 1.387 . S
C280 C281 1.401 . S
C280 H301 0.930 . S
C281 C280 1.401 . S
C281 C282 1.376 . S
C281 C290 1.511 . S
C282 C281 1.376 . S
C282 C283 1.392 . S
C282 H303 0.931 . S
C283 C282 1.392 . S
C283 C284 1.361 . S
C283 C285 1.500 . S
C284 C279 1.390 . S
C284 C283 1.361 . S
C284 H302 0.931 . S
C285 C283 1.500 . S
C285 C286 1.371 . S
C285 C287 1.365 . S
C286 C285 1.371 . S
C286 C296 1.386 . S
C286 H304 0.931 . S
C287 C285 1.365 . S
C287 C288 1.409 . S
C287 H305 0.929 . S
C288 C287 1.409 . S
C288 C289 1.380 . S
C288 H306 0.930 . S
C289 C288 1.380 . S
C289 C296 1.357 . S
C290 C281 1.511 . S
C290 C291 1.341 . S
C290 C292 1.371 . S
C291 C290 1.341 . S
C291 C295 1.394 . S
C291 H307 0.930 . S
C292 C290 1.371 . S
C292 C293 1.392 . S
C292 H308 0.931 . S
C293 C292 1.392 . S
C293 C294 1.331 . S
C293 H311 0.932 . S
C294 C293 1.331 . S
C294 C295 1.336 . S
C295 C291 1.394 . S
C295 C294 1.336 . S
C295 H310 0.929 . S
C296 C286 1.386 . S
C296 C289 1.357 . S
C296 H309 0.928 . S
H297 C273 0.931 . S
H298 C275 0.930 . S
H299 C277 0.929 . S
H300 C278 0.931 . S
H301 C280 0.930 . S
H302 C284 0.931 . S
H303 C282 0.931 . S
H304 C286 0.931 . S
H305 C287 0.929 . S
H306 C288 0.930 . S
H307 C291 0.930 . S
H308 C292 0.931 . S
H309 C296 0.928 . S
H310 C295 0.929 . S
H311 C293 0.932 . S
Co312 N317 2.057 . S
Co312 O329 2.021 . S
Co312 O332 2.062 . S
Co312 O336 2.117 1_545 S
Co312 O337 2.020 1_545 S
C313 O333 1.259 1_655 S
C313 O336 1.258 . S
Co314 N323 2.057 . S
Co314 O330 2.117 1_565 S
Co314 O331 2.020 1_565 S
Co314 O333 2.021 . S
Co314 O338 2.062 . S
C315 N317 1.316 . S
C315 N318 1.347 . S
C315 H320 0.931 . S
C316 N317 1.375 1_565 S
C316 C319 1.350 1_565 S
C316 H321 0.930 . S
N317 Co312 2.057 . S
N317 C315 1.316 . S
N317 C316 1.375 1_545 S
N318 C315 1.347 . S
N318 C319 1.373 . S
C319 C316 1.350 1_545 S
C319 N318 1.373 . S
C319 H340 0.931 1_545 S
H320 C315 0.931 . S
H321 C316 0.930 . S
C322 O329 1.259 1_455 S
C322 O330 1.258 . S
N323 Co314 2.057 . S
N323 C324 1.316 . S
N323 C325 1.375 1_565 S
C324 N323 1.316 . S
C324 N326 1.347 . S
C324 H335 0.931 . S
C325 N323 1.375 1_545 S
C325 C327 1.350 1_545 S
C325 H334 0.930 . S
N326 C324 1.347 . S
N326 C327 1.373 . S
C327 C325 1.350 1_565 S
C327 N326 1.373 . S
C327 H341 0.931 1_565 S
C328 O331 1.256 . S
C328 O332 1.255 1_455 S
O329 Co312 2.021 . S
O329 C322 1.259 1_655 S
O330 Co314 2.117 1_545 S
O330 C322 1.258 . S
O331 Co314 2.020 1_545 S
O331 C328 1.256 . S
O332 Co312 2.062 . S
O332 C328 1.255 1_655 S
O333 C313 1.259 1_455 S
O333 Co314 2.021 . S
H334 C325 0.930 . S
H335 C324 0.931 . S
O336 Co312 2.117 1_565 S
O336 C313 1.258 . S
O337 Co312 2.020 1_565 S
O337 C339 1.256 . S
O338 Co314 2.062 . S
O338 C339 1.255 1_455 S
C339 O337 1.256 . S
C339 O338 1.255 1_655 S
H340 C319 0.931 1_565 S
H341 C327 0.931 1_545 S
Co342 N347 2.057 . S
Co342 O359 2.021 1_565 S
Co342 O362 2.062 . S
Co342 O366 2.138 . S
Co342 O367 2.020 1_565 S
C343 O363 1.259 . S
C343 O366 1.221 1_554 S
Co344 N353 2.057 . S
Co344 O360 2.117 . S
Co344 O361 2.020 1_545 S
Co344 O363 2.021 1_545 S
Co344 O368 2.062 . S
C345 N347 1.316 . S
C345 N348 1.347 . S
C345 H350 0.931 1_565 S
C346 N347 1.375 . S
C346 C349 1.350 . S
C346 H351 0.930 . S
N347 Co342 2.057 . S
N347 C345 1.316 . S
N347 C346 1.375 . S
N348 C345 1.347 . S
N348 C349 1.373 . S
C349 C346 1.350 . S
C349 N348 1.373 . S
C349 H370 0.931 . S
H350 C345 0.931 1_545 S
H351 C346 0.930 . S
C352 O359 1.259 . S
C352 O360 1.258 1_556 S
N353 Co344 2.057 . S
N353 C354 1.316 . S
N353 C355 1.375 . S
C354 N353 1.316 . S
C354 N356 1.347 . S
C354 H365 0.931 1_545 S
C355 N353 1.375 . S
C355 C357 1.350 . S
C355 H364 0.930 . S
N356 C354 1.347 . S
N356 C357 1.373 . S
C357 C355 1.350 . S
C357 N356 1.373 . S
C357 H371 0.931 . S
C358 O361 1.256 1_556 S
C358 O362 1.255 . S
O359 Co342 2.021 1_545 S
O359 C352 1.259 . S
O360 Co344 2.117 . S
O360 C352 1.258 1_554 S
O361 Co344 2.020 1_565 S
O361 C358 1.256 1_554 S
O362 Co342 2.062 . S
O362 C358 1.255 . S
O363 C343 1.259 . S
O363 Co344 2.021 1_565 S
H364 C355 0.930 . S
H365 C354 0.931 1_565 S
O366 Co342 2.138 . S
O366 C343 1.221 1_556 S
O367 Co342 2.020 1_545 S
O367 C369 1.256 1_556 S
O368 Co344 2.062 . S
O368 C369 1.255 . S
C369 O367 1.256 1_554 S
C369 O368 1.255 . S
H370 C349 0.931 . S
H371 C357 0.931 . S
Co372 N377 2.057 . S
Co372 O389 2.021 . S
Co372 O392 2.062 . S
Co372 O396 2.117 . S
Co372 O397 2.020 . S
C373 O393 1.259 . S
C373 O396 1.258 . S
Co374 N383 2.057 . S
Co374 O390 2.117 . S
Co374 O391 2.020 . S
Co374 O393 2.021 . S
Co374 O398 2.062 . S
C375 N377 1.316 . S
C375 N378 1.347 . S
C375 H380 0.931 . S
C376 N377 1.375 . S
C376 C379 1.350 . S
C376 H381 0.930 . S
N377 Co372 2.057 . S
N377 C375 1.316 . S
N377 C376 1.375 . S
N378 C375 1.347 . S
N378 C379 1.373 . S
C379 C376 1.350 . S
C379 N378 1.373 . S
C379 H400 0.931 . S
H380 C375 0.931 . S
H381 C376 0.930 . S
C382 O389 1.259 . S
C382 O390 1.258 . S
N383 Co374 2.057 . S
N383 C384 1.316 . S
N383 C385 1.375 . S
C384 N383 1.316 . S
C384 N386 1.347 . S
C384 H395 0.931 . S
C385 N383 1.375 . S
C385 C387 1.350 . S
C385 H394 0.930 . S
N386 C384 1.347 . S
N386 C387 1.373 . S
C387 C385 1.350 . S
C387 N386 1.373 . S
C387 H401 0.931 . S
C388 O391 1.256 . S
C388 O392 1.255 . S
O389 Co372 2.021 . S
O389 C382 1.259 . S
O390 Co374 2.117 . S
O390 C382 1.258 . S
O391 Co374 2.020 . S
O391 C388 1.256 . S
O392 Co372 2.062 . S
O392 C388 1.255 . S
O393 C373 1.259 . S
O393 Co374 2.021 . S
H394 C385 0.930 . S
H395 C384 0.931 . S
O396 Co372 2.117 . S
O396 C373 1.258 . S
O397 Co372 2.020 . S
O397 C399 1.256 . S
O398 Co374 2.062 . S
O398 C399 1.255 . S
C399 O397 1.256 . S
C399 O398 1.255 . S
H400 C379 0.931 . S
H401 C387 0.931 . S
Co402 N407 2.057 . S
Co402 O419 2.021 . S
Co402 O422 2.062 . S
Co402 O426 2.117 1_455 S
Co402 O427 2.020 1_455 S
C403 O423 1.259 1_556 S
C403 O426 1.258 . S
Co404 N413 2.057 . S
Co404 O420 2.117 1_655 S
Co404 O421 2.020 1_655 S
Co404 O423 2.021 . S
Co404 O428 2.062 . S
C405 N407 1.316 . S
C405 N408 1.347 . S
C405 H410 0.931 . S
C406 N407 1.375 1_655 S
C406 C409 1.350 1_655 S
C406 H411 0.930 . S
N407 Co402 2.057 . S
N407 C405 1.316 . S
N407 C406 1.375 1_455 S
N408 C405 1.347 . S
N408 C409 1.373 . S
C409 C406 1.350 1_455 S
C409 N408 1.373 . S
C409 H430 0.931 1_455 S
H410 C405 0.931 . S
H411 C406 0.930 . S
C412 O419 1.259 1_554 S
C412 O420 1.258 . S
N413 Co404 2.057 . S
N413 C414 1.316 . S
N413 C415 1.375 1_655 S
C414 N413 1.316 . S
C414 N416 1.347 . S
C414 H425 0.931 . S
C415 N413 1.375 1_455 S
C415 C417 1.350 1_455 S
C415 H424 0.930 . S
N416 C414 1.347 . S
N416 C417 1.373 . S
C417 C415 1.350 1_655 S
C417 N416 1.373 . S
C417 H431 0.931 1_655 S
C418 O421 1.256 . S
C418 O422 1.255 1_554 S
O419 Co402 2.021 . S
O419 C412 1.259 1_556 S
O420 Co404 2.117 1_455 S
O420 C412 1.258 . S
O421 Co404 2.020 1_455 S
O421 C418 1.256 . S
O422 Co402 2.062 . S
O422 C418 1.255 1_556 S
O423 C403 1.259 1_554 S
O423 Co404 2.021 . S
H424 C415 0.930 . S
H425 C414 0.931 . S
O426 Co402 2.117 1_655 S
O426 C403 1.258 . S
O427 Co402 2.020 1_655 S
O427 C429 1.256 . S
O428 Co404 2.062 . S
O428 C429 1.255 1_554 S
C429 O427 1.256 . S
C429 O428 1.255 1_556 S
H430 C409 0.931 1_655 S
H431 C417 0.931 1_455 S
H432 C440 0.929 . S
H433 C442 0.930 . S
H434 C444 0.930 . S
H435 C447 0.929 . S
H436 C450 0.930 . S
H437 C452 0.960 . S
H438 C452 0.960 . S
H439 C452 0.960 . S
C440 H432 0.929 . S
C440 C441 1.377 . S
C440 C442 1.384 . S
C441 C440 1.377 . S
C441 C447 1.390 . S
C442 H433 0.930 . S
C442 C440 1.384 . S
C442 C443 1.372 . S
C443 C442 1.372 . S
C443 C444 1.400 . S
C443 C448 1.490 . S
C444 H434 0.930 . S
C444 C443 1.400 . S
C444 C447 1.386 . S
H445 C461 0.930 . S
H446 C462 0.931 . S
C447 H435 0.929 . S
C447 C441 1.390 . S
C447 C444 1.386 . S
C448 C443 1.490 . S
C448 C450 1.395 . S
C448 C451 1.403 . S
H449 C455 0.930 . S
C450 H436 0.930 . S
C450 C448 1.395 . S
C450 C453 1.403 . S
C451 C448 1.403 . S
C451 C452 1.524 . S
C451 C455 1.400 . S
C452 H437 0.960 . S
C452 H438 0.960 . S
C452 H439 0.960 . S
C452 C451 1.524 . S
C453 C450 1.403 . S
C453 C454 1.392 . S
C453 C457 1.495 . S
C454 C453 1.392 . S
C454 C455 1.385 . S
C454 C456 1.478 . S
C455 H449 0.930 . S
C455 C451 1.400 . S
C455 C454 1.385 . S
C456 C454 1.478 . S
C456 C458 1.381 . S
C456 C462 1.383 . S
C457 C453 1.495 . S
C457 H463 0.959 . S
C457 H464 0.961 . S
C457 H465 0.960 1_545 S
C458 C456 1.381 . S
C458 C459 1.394 . S
C458 H466 0.930 1_545 S
C459 C458 1.394 . S
C459 C460 1.383 . S
C459 H467 0.929 1_545 S
C460 C459 1.383 . S
C460 C461 1.377 . S
C461 H445 0.930 . S
C461 C460 1.377 . S
C461 C462 1.379 . S
C462 H446 0.931 . S
C462 C456 1.383 . S
C462 C461 1.379 . S
H463 C457 0.959 . S
H464 C457 0.961 . S
H465 C457 0.960 1_565 S
H466 C458 0.930 1_565 S
H467 C459 0.929 1_565 S
H468 C476 0.929 . S
H469 C478 0.930 . S
H470 C480 0.930 . S
H471 C483 0.929 . S
H472 C486 0.930 . S
H473 C488 0.960 . S
H474 C488 0.960 . S
H475 C488 0.960 . S
C476 H468 0.929 . S
C476 C477 1.377 . S
C476 C478 1.384 . S
C477 C476 1.377 . S
C477 C483 1.390 . S
C478 H469 0.930 . S
C478 C476 1.384 . S
C478 C479 1.372 . S
C479 C478 1.372 . S
C479 C480 1.400 . S
C479 C484 1.490 . S
C480 H470 0.930 . S
C480 C479 1.400 . S
C480 C483 1.386 . S
H481 C497 0.930 . S
H482 C498 0.931 . S
C483 H471 0.929 . S
C483 C477 1.390 . S
C483 C480 1.386 . S
C484 C479 1.490 . S
C484 C486 1.395 . S
C484 C487 1.403 . S
H485 C491 0.930 . S
C486 H472 0.930 . S
C486 C484 1.395 . S
C486 C489 1.403 . S
C487 C484 1.403 . S
C487 C488 1.524 . S
C487 C491 1.400 . S
C488 H473 0.960 . S
C488 H474 0.960 . S
C488 H475 0.960 . S
C488 C487 1.524 . S
C489 C486 1.403 . S
C489 C490 1.392 . S
C489 C493 1.495 . S
C490 C489 1.392 . S
C490 C491 1.385 . S
C490 C492 1.478 . S
C491 H485 0.930 . S
C491 C487 1.400 . S
C491 C490 1.385 . S
C492 C490 1.478 . S
C492 C494 1.381 . S
C492 C498 1.383 . S
C493 C489 1.495 . S
C493 H499 0.959 . S
C493 H500 0.961 . S
C493 H501 0.960 . S
C494 C492 1.381 . S
C494 C495 1.394 . S
C494 H502 0.930 . S
C495 C494 1.394 . S
C495 C496 1.383 . S
C495 H503 0.929 . S
C496 C495 1.383 . S
C496 C497 1.377 . S
C497 H481 0.930 . S
C497 C496 1.377 . S
C497 C498 1.379 . S
C498 H482 0.931 . S
C498 C492 1.383 . S
C498 C497 1.379 . S
H499 C493 0.959 . S
H500 C493 0.961 . S
H501 C493 0.960 . S
H502 C494 0.930 . S
H503 C495 0.929 . S
H504 C512 0.929 . S
H505 C514 0.930 . S
H506 C516 0.930 . S
H507 C519 0.929 . S
H508 C522 0.930 . S
H509 C524 0.960 . S
H510 C524 0.960 . S
H511 C524 0.960 . S
C512 H504 0.929 . S
C512 C513 1.377 . S
C512 C514 1.384 . S
C513 C512 1.377 . S
C513 C519 1.390 . S
C514 H505 0.930 . S
C514 C512 1.384 . S
C514 C515 1.372 . S
C515 C514 1.372 . S
C515 C516 1.400 . S
C515 C520 1.490 . S
C516 H506 0.930 . S
C516 C515 1.400 . S
C516 C519 1.386 . S
H517 C533 0.930 . S
H518 C534 0.931 . S
C519 H507 0.929 . S
C519 C513 1.390 . S
C519 C516 1.386 . S
C520 C515 1.490 . S
C520 C522 1.395 . S
C520 C523 1.403 . S
H521 C527 0.930 . S
C522 H508 0.930 . S
C522 C520 1.395 . S
C522 C525 1.403 . S
C523 C520 1.403 . S
C523 C524 1.524 . S
C523 C527 1.400 . S
C524 H509 0.960 . S
C524 H510 0.960 . S
C524 H511 0.960 . S
C524 C523 1.524 . S
C525 C522 1.403 . S
C525 C526 1.392 . S
C525 C529 1.495 . S
C526 C525 1.392 . S
C526 C527 1.385 . S
C526 C528 1.478 . S
C527 H521 0.930 . S
C527 C523 1.400 . S
C527 C526 1.385 . S
C528 C526 1.478 . S
C528 C530 1.381 . S
C528 C534 1.383 . S
C529 C525 1.495 . S
C529 H535 0.959 . S
C529 H536 0.961 . S
C529 H537 0.960 . S
C530 C528 1.381 . S
C530 C531 1.394 . S
C530 H538 0.930 . S
C531 C530 1.394 . S
C531 C532 1.383 . S
C531 H539 0.929 . S
C532 C531 1.383 . S
C532 C533 1.377 . S
C533 H517 0.930 . S
C533 C532 1.377 . S
C533 C534 1.379 . S
C534 H518 0.931 . S
C534 C528 1.383 . S
C534 C533 1.379 . S
H535 C529 0.959 . S
H536 C529 0.961 . S
H537 C529 0.960 . S
H538 C530 0.930 . S
H539 C531 0.929 . S
H540 C548 0.929 . S
H541 C550 0.930 . S
H542 C552 0.930 . S
H543 C555 0.929 . S
H544 C558 0.930 . S
H545 C560 0.960 . S
H546 C560 0.960 . S
H547 C560 0.960 . S
C548 H540 0.929 . S
C548 C549 1.377 . S
C548 C550 1.384 . S
C549 C548 1.377 . S
C549 C555 1.390 . S
C550 H541 0.930 . S
C550 C548 1.384 . S
C550 C551 1.372 . S
C551 C550 1.372 . S
C551 C552 1.400 . S
C551 C556 1.490 . S
C552 H542 0.930 . S
C552 C551 1.400 . S
C552 C555 1.386 . S
H553 C569 0.930 . S
H554 C570 0.931 . S
C555 H543 0.929 . S
C555 C549 1.390 . S
C555 C552 1.386 . S
C556 C551 1.490 . S
C556 C558 1.395 . S
C556 C559 1.403 . S
H557 C563 0.930 . S
C558 H544 0.930 . S
C558 C556 1.395 . S
C558 C561 1.403 . S
C559 C556 1.403 . S
C559 C560 1.524 . S
C559 C563 1.400 . S
C560 H545 0.960 . S
C560 H546 0.960 . S
C560 H547 0.960 . S
C560 C559 1.524 . S
C561 C558 1.403 . S
C561 C562 1.392 . S
C561 C565 1.495 . S
C562 C561 1.392 . S
C562 C563 1.385 . S
C562 C564 1.478 . S
C563 H557 0.930 . S
C563 C559 1.400 . S
C563 C562 1.385 . S
C564 C562 1.478 . S
C564 C566 1.381 . S
C564 C570 1.383 . S
C565 C561 1.495 . S
C565 H571 0.959 . S
C565 H572 0.961 . S
C565 H573 0.960 . S
C566 C564 1.381 . S
C566 C567 1.394 . S
C566 H574 0.930 . S
C567 C566 1.394 . S
C567 C568 1.383 . S
C567 H575 0.929 . S
C568 C567 1.383 . S
C568 C569 1.377 . S
C569 H553 0.930 . S
C569 C568 1.377 . S
C569 C570 1.379 . S
C570 H554 0.931 . S
C570 C564 1.383 . S
C570 C569 1.379 . S
H571 C565 0.959 . S
H572 C565 0.961 . S
H573 C565 0.960 . S
H574 C566 0.930 . S
H575 C567 0.929 . S
H576 C584 0.929 . S
H577 C586 0.930 . S
H578 C588 0.930 . S
H579 C591 0.929 . S
H580 C594 0.930 . S
H581 C596 0.960 . S
H582 C596 0.960 . S
H583 C596 0.960 . S
C584 H576 0.929 . S
C584 C585 1.377 . S
C584 C586 1.384 . S
C585 C584 1.377 . S
C585 C591 1.390 . S
C586 H577 0.930 . S
C586 C584 1.384 . S
C586 C587 1.372 . S
C587 C586 1.372 . S
C587 C588 1.400 . S
C587 C592 1.490 . S
C588 H578 0.930 . S
C588 C587 1.400 . S
C588 C591 1.386 . S
H589 C605 0.930 1_556 S
H590 C606 0.931 . S
C591 H579 0.929 . S
C591 C585 1.390 . S
C591 C588 1.386 . S
C592 C587 1.490 . S
C592 C594 1.395 . S
C592 C595 1.403 . S
H593 C599 0.930 . S
C594 H580 0.930 . S
C594 C592 1.395 . S
C594 C597 1.403 . S
C595 C592 1.403 . S
C595 C596 1.524 . S
C595 C599 1.400 . S
C596 H581 0.960 . S
C596 H582 0.960 . S
C596 H583 0.960 . S
C596 C595 1.524 . S
C597 C594 1.403 . S
C597 C598 1.392 . S
C597 C601 1.495 . S
C598 C597 1.392 . S
C598 C599 1.385 . S
C598 C600 1.478 . S
C599 H593 0.930 . S
C599 C595 1.400 . S
C599 C598 1.385 . S
C600 C598 1.478 . S
C600 C602 1.381 . S
C600 C606 1.383 . S
C601 C597 1.495 . S
C601 H607 0.959 . S
C601 H608 0.961 1_545 S
C601 H609 0.960 . S
C602 C600 1.381 . S
C602 C603 1.394 . S
C602 H610 0.930 . S
C603 C602 1.394 . S
C603 C604 1.383 . S
C603 H611 0.929 . S
C604 C603 1.383 . S
C604 C605 1.377 . S
C605 H589 0.930 1_554 S
C605 C604 1.377 . S
C605 C606 1.379 . S
C606 H590 0.931 . S
C606 C600 1.383 . S
C606 C605 1.379 . S
H607 C601 0.959 . S
H608 C601 0.961 1_565 S
H609 C601 0.960 . S
H610 C602 0.930 . S
H611 C603 0.929 . S
H612 C620 0.929 . S
H613 C622 0.930 . S
H614 C624 0.930 . S
H615 C627 0.929 . S
H616 C630 0.930 . S
H617 C632 0.960 . S
H618 C632 0.960 . S
H619 C632 0.960 . S
C620 H612 0.929 . S
C620 C621 1.377 . S
C620 C622 1.384 . S
C621 C620 1.377 . S
C621 C627 1.390 . S
C622 H613 0.930 . S
C622 C620 1.384 . S
C622 C623 1.372 . S
C623 C622 1.372 . S
C623 C624 1.400 . S
C623 C628 1.490 . S
C624 H614 0.930 . S
C624 C623 1.400 . S
C624 C627 1.386 . S
H625 C641 0.930 . S
H626 C642 0.931 . S
C627 H615 0.929 . S
C627 C621 1.390 . S
C627 C624 1.386 . S
C628 C623 1.490 . S
C628 C630 1.395 . S
C628 C631 1.403 . S
H629 C635 0.930 . S
C630 H616 0.930 . S
C630 C628 1.395 . S
C630 C633 1.403 . S
C631 C628 1.403 . S
C631 C632 1.524 . S
C631 C635 1.400 . S
C632 H617 0.960 . S
C632 H618 0.960 . S
C632 H619 0.960 . S
C632 C631 1.524 . S
C633 C630 1.403 . S
C633 C634 1.392 . S
C633 C637 1.495 . S
C634 C633 1.392 . S
C634 C635 1.385 . S
C634 C636 1.478 . S
C635 H629 0.930 . S
C635 C631 1.400 . S
C635 C634 1.385 . S
C636 C634 1.478 . S
C636 C638 1.381 . S
C636 C642 1.383 . S
C637 C633 1.495 . S
C637 H643 0.959 . S
C637 H644 0.961 . S
C637 H645 0.960 . S
C638 C636 1.381 . S
C638 C639 1.394 . S
C638 H646 0.930 . S
C639 C638 1.394 . S
C639 C640 1.383 . S
C639 H647 0.929 . S
C640 C639 1.383 . S
C640 C641 1.377 . S
C641 H625 0.930 . S
C641 C640 1.377 . S
C641 C642 1.379 . S
C642 H626 0.931 . S
C642 C636 1.383 . S
C642 C641 1.379 . S
H643 C637 0.959 . S
H644 C637 0.961 . S
H645 C637 0.960 . S
H646 C638 0.930 . S
H647 C639 0.929 . S
H648 C656 0.929 . S
H649 C658 0.930 . S
H650 C660 0.930 . S
H651 C663 0.929 . S
H652 C666 0.930 . S
H653 C668 0.960 . S
H654 C668 0.960 . S
H655 C668 0.960 . S
C656 H648 0.929 . S
C656 C657 1.377 . S
C656 C658 1.384 . S
C657 C656 1.377 . S
C657 C663 1.390 . S
C658 H649 0.930 . S
C658 C656 1.384 . S
C658 C659 1.372 . S
C659 C658 1.372 . S
C659 C660 1.400 . S
C659 C664 1.490 . S
C660 H650 0.930 . S
C660 C659 1.400 . S
C660 C663 1.386 . S
H661 C677 0.930 . S
H662 C678 0.931 . S
C663 H651 0.929 . S
C663 C657 1.390 . S
C663 C660 1.386 . S
C664 C659 1.490 . S
C664 C666 1.395 . S
C664 C667 1.403 . S
H665 C671 0.930 . S
C666 H652 0.930 . S
C666 C664 1.395 . S
C666 C669 1.403 . S
C667 C664 1.403 . S
C667 C668 1.524 . S
C667 C671 1.400 . S
C668 H653 0.960 . S
C668 H654 0.960 . S
C668 H655 0.960 . S
C668 C667 1.524 . S
C669 C666 1.403 . S
C669 C670 1.392 . S
C669 C673 1.495 . S
C670 C669 1.392 . S
C670 C671 1.385 . S
C670 C672 1.478 . S
C671 H665 0.930 . S
C671 C667 1.400 . S
C671 C670 1.385 . S
C672 C670 1.478 . S
C672 C674 1.381 . S
C672 C678 1.383 . S
C673 C669 1.495 . S
C673 H679 0.959 . S
C673 H680 0.961 . S
C673 H681 0.960 . S
C674 C672 1.381 . S
C674 C675 1.394 . S
C674 H682 0.930 . S
C675 C674 1.394 . S
C675 C676 1.383 . S
C675 H683 0.929 1_556 S
C676 C675 1.383 . S
C676 C677 1.377 . S
C677 H661 0.930 . S
C677 C676 1.377 . S
C677 C678 1.379 . S
C678 H662 0.931 . S
C678 C672 1.383 . S
C678 C677 1.379 . S
H679 C673 0.959 . S
H680 C673 0.961 . S
H681 C673 0.960 . S
H682 C674 0.930 . S
H683 C675 0.929 1_554 S
H684 C692 0.929 . S
H685 C694 0.930 . S
H686 C696 0.930 . S
H687 C699 0.929 . S
H688 C702 0.930 . S
H689 C704 0.960 . S
H690 C704 0.960 . S
H691 C704 0.960 . S
C692 H684 0.929 . S
C692 C693 1.377 . S
C692 C694 1.384 . S
C693 C692 1.377 . S
C693 C699 1.390 . S
C694 H685 0.930 . S
C694 C692 1.384 . S
C694 C695 1.372 . S
C695 C694 1.372 . S
C695 C696 1.400 . S
C695 C700 1.490 . S
C696 H686 0.930 . S
C696 C695 1.400 . S
C696 C699 1.386 . S
H697 C713 0.930 . S
H698 C714 0.931 . S
C699 H687 0.929 . S
C699 C693 1.390 . S
C699 C696 1.386 . S
C700 C695 1.490 . S
C700 C702 1.395 . S
C700 C703 1.403 . S
H701 C707 0.930 . S
C702 H688 0.930 . S
C702 C700 1.395 . S
C702 C705 1.403 . S
C703 C700 1.403 . S
C703 C704 1.524 . S
C703 C707 1.400 . S
C704 H689 0.960 . S
C704 H690 0.960 . S
C704 H691 0.960 . S
C704 C703 1.524 . S
C705 C702 1.403 . S
C705 C706 1.392 . S
C705 C709 1.495 . S
C706 C705 1.392 . S
C706 C707 1.385 . S
C706 C708 1.478 . S
C707 H701 0.930 . S
C707 C703 1.400 . S
C707 C706 1.385 . S
C708 C706 1.478 . S
C708 C710 1.381 . S
C708 C714 1.383 . S
C709 C705 1.495 . S
C709 H715 0.959 . S
C709 H716 0.961 . S
C709 H717 0.960 . S
C710 C708 1.381 . S
C710 C711 1.394 . S
C710 H718 0.930 . S
C711 C710 1.394 . S
C711 C712 1.383 . S
C711 H719 0.929 . S
C712 C711 1.383 . S
C712 C713 1.377 . S
C713 H697 0.930 . S
C713 C712 1.377 . S
C713 C714 1.379 . S
C714 H698 0.931 . S
C714 C708 1.383 . S
C714 C713 1.379 . S
H715 C709 0.959 . S
H716 C709 0.961 . S
H717 C709 0.960 . S
H718 C710 0.930 . S
H719 C711 0.929 . S
H720 C728 0.929 . S
H721 C730 0.930 . S
H722 C732 0.930 . S
H723 C735 0.929 . S
H724 C738 0.930 . S
H725 C740 0.986 . S
H726 C740 0.960 . S
H727 C740 0.960 . S
C728 H720 0.929 . S
C728 C729 1.377 . S
C728 C730 1.384 . S
C729 C728 1.377 . S
C729 C735 1.390 . S
C730 H721 0.930 . S
C730 C728 1.384 . S
C730 C731 1.372 . S
C731 C730 1.372 . S
C731 C732 1.400 . S
C731 C736 1.490 . S
C732 H722 0.930 . S
C732 C731 1.400 . S
C732 C735 1.386 . S
H733 C749 0.930 1_556 S
H734 C750 0.939 . S
C735 H723 0.929 . S
C735 C729 1.390 . S
C735 C732 1.386 . S
C736 C731 1.490 . S
C736 C738 1.395 . S
C736 C739 1.403 . S
H737 C743 0.930 . S
C738 H724 0.930 . S
C738 C736 1.395 . S
C738 C741 1.403 . S
C739 C736 1.403 . S
C739 C740 1.524 . S
C739 C743 1.400 . S
C740 H725 0.986 . S
C740 H726 0.960 . S
C740 H727 0.960 . S
C740 C739 1.524 . S
C741 C738 1.403 . S
C741 C742 1.392 . S
C741 C745 1.495 . S
C742 C741 1.392 . S
C742 C743 1.385 . S
C742 C744 1.478 . S
C743 H737 0.930 . S
C743 C739 1.400 . S
C743 C742 1.385 . S
C744 C742 1.478 . S
C744 C746 1.381 . S
C744 C750 1.383 . S
C745 C741 1.495 . S
C745 H751 0.959 . S
C745 H752 0.961 . S
C745 H753 0.960 . S
C746 C744 1.381 . S
C746 C747 1.394 . S
C746 H754 0.930 . S
C747 C746 1.394 . S
C747 C748 1.383 . S
C747 H755 0.929 . S
C748 C747 1.383 . S
C748 C749 1.377 . S
C749 H733 0.930 1_554 S
C749 C748 1.377 . S
C749 C750 1.379 . S
C750 H734 0.939 . S
C750 C744 1.383 . S
C750 C749 1.379 . S
H751 C745 0.959 . S
H752 C745 0.961 . S
H753 C745 0.960 . S
H754 C746 0.930 . S
H755 C747 0.929 . S
H756 C764 0.929 . S
H757 C766 0.930 . S
H758 C768 0.930 . S
H759 C771 0.929 . S
H760 C774 0.930 . S
H761 C776 0.960 . S
H762 C776 0.960 . S
H763 C776 0.960 . S
C764 H756 0.929 . S
C764 C765 1.377 . S
C764 C766 1.384 . S
C765 C764 1.377 . S
C765 C771 1.390 . S
C766 H757 0.930 . S
C766 C764 1.384 . S
C766 C767 1.372 . S
C767 C766 1.372 . S
C767 C768 1.400 . S
C767 C772 1.490 . S
C768 H758 0.930 . S
C768 C767 1.400 . S
C768 C771 1.386 . S
H769 C785 0.930 . S
H770 C786 0.931 . S
C771 H759 0.929 . S
C771 C765 1.390 . S
C771 C768 1.386 . S
C772 C767 1.490 . S
C772 C774 1.395 . S
C772 C775 1.403 . S
H773 C779 0.930 . S
C774 H760 0.930 . S
C774 C772 1.395 . S
C774 C777 1.403 . S
C775 C772 1.403 . S
C775 C776 1.524 . S
C775 C779 1.400 . S
C776 H761 0.960 . S
C776 H762 0.960 . S
C776 H763 0.960 . S
C776 C775 1.524 . S
C777 C774 1.403 . S
C777 C778 1.392 . S
C777 C781 1.495 . S
C778 C777 1.392 . S
C778 C779 1.385 . S
C778 C780 1.478 . S
C779 H773 0.930 . S
C779 C775 1.400 . S
C779 C778 1.385 . S
C780 C778 1.478 . S
C780 C782 1.381 . S
C780 C786 1.383 . S
C781 C777 1.495 . S
C781 H787 0.959 . S
C781 H788 0.961 . S
C781 H789 0.960 . S
C782 C780 1.381 . S
C782 C783 1.394 . S
C782 H790 0.930 . S
C783 C782 1.394 . S
C783 C784 1.383 . S
C783 H791 0.929 1_556 S
C784 C783 1.383 . S
C784 C785 1.377 . S
C785 H769 0.930 . S
C785 C784 1.377 . S
C785 C786 1.379 . S
C786 H770 0.931 . S
C786 C780 1.383 . S
C786 C785 1.379 . S
H787 C781 0.959 . S
H788 C781 0.961 . S
H789 C781 0.960 . S
H790 C782 0.930 . S
H791 C783 0.929 1_554 S
H792 C800 0.929 . S
H793 C802 0.930 . S
H794 C804 0.930 . S
H795 C807 0.929 . S
H796 C810 0.930 . S
H797 C812 0.960 . S
H798 C812 0.960 . S
H799 C812 0.960 . S
C800 H792 0.929 . S
C800 C801 1.377 . S
C800 C802 1.384 . S
C801 C800 1.377 . S
C801 C807 1.390 . S
C802 H793 0.930 . S
C802 C800 1.384 . S
C802 C803 1.372 . S
C803 C802 1.372 . S
C803 C804 1.400 . S
C803 C808 1.490 . S
C804 H794 0.930 . S
C804 C803 1.400 . S
C804 C807 1.386 . S
H805 C821 0.930 . S
H806 C822 0.931 . S
C807 H795 0.929 . S
C807 C801 1.390 . S
C807 C804 1.386 . S
C808 C803 1.490 . S
C808 C810 1.395 . S
C808 C811 1.403 . S
H809 C815 0.930 . S
C810 H796 0.930 . S
C810 C808 1.395 . S
C810 C813 1.403 . S
C811 C808 1.403 . S
C811 C812 1.524 1_655 S
C811 C815 1.400 . S
C812 H797 0.960 . S
C812 H798 0.960 . S
C812 H799 0.960 . S
C812 C811 1.524 1_455 S
C813 C810 1.403 . S
C813 C814 1.392 . S
C813 C817 1.495 . S
C814 C813 1.392 . S
C814 C815 1.385 . S
C814 C816 1.478 . S
C815 H809 0.930 . S
C815 C811 1.400 . S
C815 C814 1.385 . S
C816 C814 1.478 . S
C816 C818 1.381 . S
C816 C822 1.383 . S
C817 C813 1.495 . S
C817 H823 0.959 . S
C817 H824 0.961 . S
C817 H825 0.960 . S
C818 C816 1.381 . S
C818 C819 1.394 . S
C818 H826 0.930 . S
C819 C818 1.394 . S
C819 C820 1.383 . S
C819 H827 0.929 . S
C820 C819 1.383 . S
C820 C821 1.377 . S
C821 H805 0.930 . S
C821 C820 1.377 . S
C821 C822 1.379 . S
C822 H806 0.931 . S
C822 C816 1.383 . S
C822 C821 1.379 . S
H823 C817 0.959 . S
H824 C817 0.961 . S
H825 C817 0.960 . S
H826 C818 0.930 . S
H827 C819 0.929 . S
H828 C836 0.929 . S
H829 C838 0.930 . S
H830 C840 0.930 . S
H831 C843 0.929 . S
H832 C846 0.930 . S
H833 C848 0.960 . S
H834 C848 0.960 . S
H835 C848 0.960 . S
C836 H828 0.929 . S
C836 C837 1.377 . S
C836 C838 1.384 . S
C837 C836 1.377 . S
C837 C843 1.390 . S
C838 H829 0.930 . S
C838 C836 1.384 . S
C838 C839 1.372 . S
C839 C838 1.372 . S
C839 C840 1.400 . S
C839 C844 1.490 . S
C840 H830 0.930 . S
C840 C839 1.400 . S
C840 C843 1.386 . S
H841 C857 0.930 . S
H842 C858 0.931 . S
C843 H831 0.929 . S
C843 C837 1.390 . S
C843 C840 1.386 . S
C844 C839 1.490 . S
C844 C846 1.395 . S
C844 C847 1.403 . S
H845 C851 0.930 . S
C846 H832 0.930 . S
C846 C844 1.395 . S
C846 C849 1.403 . S
C847 C844 1.403 . S
C847 C848 1.524 . S
C847 C851 1.400 . S
C848 H833 0.960 . S
C848 H834 0.960 . S
C848 H835 0.960 . S
C848 C847 1.524 . S
C849 C846 1.403 . S
C849 C850 1.392 . S
C849 C853 1.495 . S
C850 C849 1.392 . S
C850 C851 1.385 . S
C850 C852 1.478 . S
C851 H845 0.930 . S
C851 C847 1.400 . S
C851 C850 1.385 . S
C852 C850 1.478 . S
C852 C854 1.381 . S
C852 C858 1.383 . S
C853 C849 1.495 . S
C853 H859 0.959 . S
C853 H860 0.961 . S
C853 H861 0.960 . S
C854 C852 1.381 . S
C854 C855 1.394 . S
C854 H862 0.930 . S
C855 C854 1.394 . S
C855 C856 1.383 . S
C855 H863 0.929 . S
C856 C855 1.383 . S
C856 C857 1.377 . S
C857 H841 0.930 . S
C857 C856 1.377 . S
C857 C858 1.379 . S
C858 H842 0.931 . S
C858 C852 1.383 . S
C858 C857 1.379 . S
H859 C853 0.959 . S
H860 C853 0.961 . S
H861 C853 0.960 . S
H862 C854 0.930 . S
H863 C855 0.929 . S
H864 C872 0.929 . S
H865 C874 0.930 . S
H866 C876 0.930 . S
H867 C879 0.929 . S
H868 C882 0.930 . S
H869 C884 0.960 . S
H870 C884 0.960 . S
H871 C884 0.960 . S
C872 H864 0.929 . S
C872 C873 1.377 . S
C872 C874 1.384 . S
C873 C872 1.377 . S
C873 C879 1.390 . S
C874 H865 0.930 . S
C874 C872 1.384 . S
C874 C875 1.372 . S
C875 C874 1.372 . S
C875 C876 1.400 . S
C875 C880 1.490 . S
C876 H866 0.930 . S
C876 C875 1.400 . S
C876 C879 1.386 . S
H877 C893 0.930 1_455 S
H878 C894 0.966 . S
C879 H867 0.929 . S
C879 C873 1.390 . S
C879 C876 1.386 . S
C880 C875 1.490 . S
C880 C882 1.395 . S
C880 C883 1.403 . S
H881 C887 0.930 . S
C882 H868 0.930 . S
C882 C880 1.395 . S
C882 C885 1.403 . S
C883 C880 1.403 . S
C883 C884 1.524 . S
C883 C887 1.400 . S
C884 H869 0.960 . S
C884 H870 0.960 . S
C884 H871 0.960 . S
C884 C883 1.524 . S
C885 C882 1.403 . S
C885 C886 1.392 . S
C885 C889 1.495 1_565 S
C886 C885 1.392 . S
C886 C887 1.385 . S
C886 C888 1.478 . S
C887 H881 0.930 . S
C887 C883 1.400 . S
C887 C886 1.385 . S
C888 C886 1.478 . S
C888 C890 1.381 . S
C888 C894 1.383 . S
C889 C885 1.495 1_545 S
C889 H895 0.959 . S
C889 H896 0.961 . S
C889 H897 0.960 . S
C890 C888 1.381 . S
C890 C891 1.394 . S
C890 H898 0.930 . S
C891 C890 1.394 . S
C891 C892 1.383 . S
C891 H899 0.929 . S
C892 C891 1.383 . S
C892 C893 1.377 . S
C893 H877 0.930 1_655 S
C893 C892 1.377 . S
C893 C894 1.379 . S
C894 H878 0.966 . S
C894 C888 1.383 . S
C894 C893 1.379 . S
H895 C889 0.959 . S
H896 C889 0.961 . S
H897 C889 0.960 . S
H898 C890 0.930 . S
H899 C891 0.929 . S
H900 C908 0.929 . S
H901 C910 0.930 . S
H902 C912 0.930 . S
H903 C915 0.929 . S
H904 C918 0.930 . S
H905 C920 0.960 . S
H906 C920 0.960 . S
H907 C920 0.960 . S
C908 H900 0.929 . S
C908 C909 1.377 . S
C908 C910 1.384 . S
C909 C908 1.377 . S
C909 C915 1.390 . S
C910 H901 0.930 . S
C910 C908 1.384 . S
C910 C911 1.372 . S
C911 C910 1.372 . S
C911 C912 1.400 . S
C911 C916 1.490 . S
C912 H902 0.930 . S
C912 C911 1.400 . S
C912 C915 1.386 . S
H913 C929 0.930 . S
H914 C930 0.931 . S
C915 H903 0.929 . S
C915 C909 1.390 . S
C915 C912 1.386 . S
C916 C911 1.490 . S
C916 C918 1.395 . S
C916 C919 1.403 . S
H917 C923 0.930 . S
C918 H904 0.930 . S
C918 C916 1.395 . S
C918 C921 1.403 . S
C919 C916 1.403 . S
C919 C920 1.524 . S
C919 C923 1.400 . S
C920 H905 0.960 . S
C920 H906 0.960 . S
C920 H907 0.960 . S
C920 C919 1.524 . S
C921 C918 1.403 . S
C921 C922 1.392 . S
C921 C925 1.495 . S
C922 C921 1.392 . S
C922 C923 1.385 . S
C922 C924 1.478 . S
C923 H917 0.930 . S
C923 C919 1.400 . S
C923 C922 1.385 . S
C924 C922 1.478 . S
C924 C926 1.381 . S
C924 C930 1.383 . S
C925 C921 1.495 . S
C925 H931 0.959 . S
C925 H932 0.961 . S
C925 H933 0.960 . S
C926 C924 1.381 . S
C926 C927 1.394 . S
C926 H934 0.930 . S
C927 C926 1.394 . S
C927 C928 1.383 . S
C927 H935 0.929 . S
C928 C927 1.383 . S
C928 C929 1.377 . S
C929 H913 0.930 . S
C929 C928 1.377 . S
C929 C930 1.379 . S
C930 H914 0.931 . S
C930 C924 1.383 . S
C930 C929 1.379 . S
H931 C925 0.959 . S
H932 C925 0.961 . S
H933 C925 0.960 . S
H934 C926 0.930 . S
H935 C927 0.929 . S
H936 C944 0.929 . S
H937 C946 0.930 . S
H938 C948 0.930 . S
H939 C951 0.929 . S
H940 C954 0.930 . S
H941 C956 0.960 . S
H942 C956 0.960 . S
H943 C956 0.960 . S
C944 H936 0.929 . S
C944 C945 1.377 . S
C944 C946 1.384 . S
C945 C944 1.377 . S
C945 C951 1.390 . S
C946 H937 0.930 . S
C946 C944 1.384 . S
C946 C947 1.372 . S
C947 C946 1.372 . S
C947 C948 1.400 . S
C947 C952 1.490 . S
C948 H938 0.930 . S
C948 C947 1.400 . S
C948 C951 1.386 . S
H949 C965 0.930 . S
H950 C966 0.931 . S
C951 H939 0.929 . S
C951 C945 1.390 . S
C951 C948 1.386 . S
C952 C947 1.490 . S
C952 C954 1.395 . S
C952 C955 1.403 . S
H953 C959 0.930 . S
C954 H940 0.930 . S
C954 C952 1.395 . S
C954 C957 1.403 . S
C955 C952 1.403 . S
C955 C956 1.524 . S
C955 C959 1.400 . S
C956 H941 0.960 . S
C956 H942 0.960 . S
C956 H943 0.960 . S
C956 C955 1.524 . S
C957 C954 1.403 . S
C957 C958 1.392 . S
C957 C961 1.495 . S
C958 C957 1.392 . S
C958 C959 1.385 . S
C958 C960 1.478 . S
C959 H953 0.930 . S
C959 C955 1.400 . S
C959 C958 1.385 . S
C960 C958 1.478 . S
C960 C962 1.381 . S
C960 C966 1.383 . S
C961 C957 1.495 . S
C961 H967 0.959 . S
C961 H968 0.961 . S
C961 H969 0.960 . S
C962 C960 1.381 . S
C962 C963 1.394 . S
C962 H970 0.930 . S
C963 C962 1.394 . S
C963 C964 1.383 . S
C963 H971 0.929 . S
C964 C963 1.383 . S
C964 C965 1.377 . S
C965 H949 0.930 . S
C965 C964 1.377 . S
C965 C966 1.379 . S
C966 H950 0.931 . S
C966 C960 1.383 . S
C966 C965 1.379 . S
H967 C961 0.959 . S
H968 C961 0.961 . S
H969 C961 0.960 . S
H970 C962 0.930 . S
H971 C963 0.929 . S
H972 C980 0.929 . S
H973 C982 0.930 . S
H974 C984 0.930 . S
H975 C987 0.929 . S
H976 C990 0.930 . S
H977 C992 0.960 . S
H978 C992 0.960 . S
H979 C992 0.960 . S
C980 H972 0.929 . S
C980 C981 1.377 . S
C980 C982 1.384 . S
C981 C980 1.377 . S
C981 C987 1.390 . S
C982 H973 0.930 . S
C982 C980 1.384 . S
C982 C983 1.372 . S
C983 C982 1.372 . S
C983 C984 1.400 . S
C983 C988 1.490 . S
C984 H974 0.930 . S
C984 C983 1.400 . S
C984 C987 1.386 . S
H985 C1001 0.930 . S
H986 C1002 0.931 . S
C987 H975 0.929 . S
C987 C981 1.390 . S
C987 C984 1.386 . S
C988 C983 1.490 . S
C988 C990 1.395 . S
C988 C991 1.403 . S
H989 C995 0.930 . S
C990 H976 0.930 . S
C990 C988 1.395 . S
C990 C993 1.403 . S
C991 C988 1.403 . S
C991 C992 1.524 . S
C991 C995 1.400 . S
C992 H977 0.960 . S
C992 H978 0.960 . S
C992 H979 0.960 . S
C992 C991 1.524 . S
C993 C990 1.403 . S
C993 C994 1.392 . S
C993 C997 1.495 . S
C994 C993 1.392 . S
C994 C995 1.385 . S
C994 C996 1.478 . S
C995 H989 0.930 . S
C995 C991 1.400 . S
C995 C994 1.385 . S
C996 C994 1.478 . S
C996 C998 1.381 . S
C996 C1002 1.383 . S
C997 C993 1.495 . S
C997 H1003 0.959 . S
C997 H1004 0.961 . S
C997 H1005 0.960 . S
C998 C996 1.381 . S
C998 C999 1.394 . S
C998 H1006 0.930 . S
C999 C998 1.394 . S
C999 C1000 1.383 . S
C999 H1007 0.929 . S
C1000 C999 1.383 . S
C1000 C1001 1.377 . S
C1001 H985 0.930 . S
C1001 C1000 1.377 . S
C1001 C1002 1.379 . S
C1002 H986 0.931 . S
C1002 C996 1.383 . S
C1002 C1001 1.379 . S
H1003 C997 0.959 . S
H1004 C997 0.961 . S
H1005 C997 0.960 . S
H1006 C998 0.930 . S
H1007 C999 0.929 . S
H1008 C1016 0.929 . S
H1009 C1018 0.930 . S
H1010 C1020 0.930 . S
H1011 C1023 0.929 . S
H1012 C1026 0.930 . S
H1013 C1028 0.960 1_545 S
H1014 C1028 0.960 . S
H1015 C1028 0.960 . S
C1016 H1008 0.929 . S
C1016 C1017 1.377 . S
C1016 C1018 1.384 . S
C1017 C1016 1.377 . S
C1017 C1023 1.390 . S
C1018 H1009 0.930 . S
C1018 C1016 1.384 . S
C1018 C1019 1.372 . S
C1019 C1018 1.372 . S
C1019 C1020 1.400 . S
C1019 C1024 1.490 . S
C1020 H1010 0.930 . S
C1020 C1019 1.400 . S
C1020 C1023 1.386 . S
H1021 C1037 0.930 1_554 S
H1022 C1038 0.931 . S
C1023 H1011 0.929 . S
C1023 C1017 1.390 . S
C1023 C1020 1.386 . S
C1024 C1019 1.490 . S
C1024 C1026 1.395 . S
C1024 C1027 1.403 . S
H1025 C1031 0.930 . S
C1026 H1012 0.930 . S
C1026 C1024 1.395 . S
C1026 C1029 1.403 . S
C1027 C1024 1.403 . S
C1027 C1028 1.524 . S
C1027 C1031 1.400 . S
C1028 H1013 0.960 1_565 S
C1028 H1014 0.960 . S
C1028 H1015 0.960 . S
C1028 C1027 1.524 . S
C1029 C1026 1.403 . S
C1029 C1030 1.392 . S
C1029 C1033 1.495 . S
C1030 C1029 1.392 . S
C1030 C1031 1.385 . S
C1030 C1032 1.478 . S
C1031 H1025 0.930 . S
C1031 C1027 1.400 . S
C1031 C1030 1.385 . S
C1032 C1030 1.478 . S
C1032 C1034 1.381 . S
C1032 C1038 1.383 . S
C1033 C1029 1.495 . S
C1033 H1039 0.959 . S
C1033 H1040 0.961 . S
C1033 H1041 0.960 . S
C1034 C1032 1.381 . S
C1034 C1035 1.394 . S
C1034 H1042 0.930 . S
C1035 C1034 1.394 . S
C1035 C1036 1.383 . S
C1035 H1043 0.929 . S
C1036 C1035 1.383 . S
C1036 C1037 1.377 . S
C1037 H1021 0.930 1_556 S
C1037 C1036 1.377 . S
C1037 C1038 1.379 . S
C1038 H1022 0.931 . S
C1038 C1032 1.383 . S
C1038 C1037 1.379 . S
H1039 C1033 0.959 . S
H1040 C1033 0.961 . S
H1041 C1033 0.960 . S
H1042 C1034 0.930 . S
H1043 C1035 0.929 . S
H1044 C1052 0.929 . S
H1045 C1054 0.930 . S
H1046 C1056 0.930 . S
H1047 C1059 0.929 . S
H1048 C1062 0.930 . S
H1049 C1064 0.960 . S
H1050 C1064 0.960 . S
H1051 C1064 0.960 . S
C1052 H1044 0.929 . S
C1052 C1053 1.377 . S
C1052 C1054 1.384 . S
C1053 C1052 1.377 . S
C1053 C1059 1.390 . S
C1054 H1045 0.930 . S
C1054 C1052 1.384 . S
C1054 C1055 1.372 . S
C1055 C1054 1.372 . S
C1055 C1056 1.400 . S
C1055 C1060 1.490 . S
C1056 H1046 0.930 . S
C1056 C1055 1.400 . S
C1056 C1059 1.386 . S
H1057 C1073 0.930 . S
H1058 C1074 0.931 . S
C1059 H1047 0.929 . S
C1059 C1053 1.390 . S
C1059 C1056 1.386 . S
C1060 C1055 1.490 . S
C1060 C1062 1.395 . S
C1060 C1063 1.403 . S
H1061 C1067 0.930 . S
C1062 H1048 0.930 . S
C1062 C1060 1.395 . S
C1062 C1065 1.403 . S
C1063 C1060 1.403 . S
C1063 C1064 1.524 . S
C1063 C1067 1.400 . S
C1064 H1049 0.960 . S
C1064 H1050 0.960 . S
C1064 H1051 0.960 . S
C1064 C1063 1.524 . S
C1065 C1062 1.403 . S
C1065 C1066 1.392 . S
C1065 C1069 1.495 . S
C1066 C1065 1.392 . S
C1066 C1067 1.385 . S
C1066 C1068 1.478 . S
C1067 H1061 0.930 . S
C1067 C1063 1.400 . S
C1067 C1066 1.385 . S
C1068 C1066 1.478 . S
C1068 C1070 1.381 . S
C1068 C1074 1.383 . S
C1069 C1065 1.495 . S
C1069 H1075 0.959 . S
C1069 H1076 0.961 . S
C1069 H1077 0.960 . S
C1070 C1068 1.381 . S
C1070 C1071 1.394 . S
C1070 H1078 0.930 . S
C1071 C1070 1.394 . S
C1071 C1072 1.383 . S
C1071 H1079 0.929 . S
C1072 C1071 1.383 . S
C1072 C1073 1.377 . S
C1073 H1057 0.930 . S
C1073 C1072 1.377 . S
C1073 C1074 1.379 . S
C1074 H1058 0.931 . S
C1074 C1068 1.383 . S
C1074 C1073 1.379 . S
H1075 C1069 0.959 . S
H1076 C1069 0.961 . S
H1077 C1069 0.960 . S
H1078 C1070 0.930 . S
H1079 C1071 0.929 . S
H1080 C1088 0.929 . S
H1081 C1090 0.930 . S
H1082 C1092 0.930 . S
H1083 C1095 0.929 . S
H1084 C1098 0.930 . S
H1085 C1100 0.960 . S
H1086 C1100 0.960 . S
H1087 C1100 0.960 . S
C1088 H1080 0.929 . S
C1088 C1089 1.377 . S
C1088 C1090 1.384 . S
C1089 C1088 1.377 . S
C1089 C1095 1.390 . S
C1090 H1081 0.930 . S
C1090 C1088 1.384 . S
C1090 C1091 1.372 . S
C1091 C1090 1.372 . S
C1091 C1092 1.400 . S
C1091 C1096 1.490 . S
C1092 H1082 0.930 . S
C1092 C1091 1.400 . S
C1092 C1095 1.386 . S
H1093 C1109 0.930 . S
H1094 C1110 0.931 . S
C1095 H1083 0.929 . S
C1095 C1089 1.390 . S
C1095 C1092 1.386 . S
C1096 C1091 1.490 . S
C1096 C1098 1.395 . S
C1096 C1099 1.403 . S
H1097 C1103 0.930 . S
C1098 H1084 0.930 . S
C1098 C1096 1.395 . S
C1098 C1101 1.403 . S
C1099 C1096 1.403 . S
C1099 C1100 1.524 . S
C1099 C1103 1.400 . S
C1100 H1085 0.960 . S
C1100 H1086 0.960 . S
C1100 H1087 0.960 . S
C1100 C1099 1.524 . S
C1101 C1098 1.403 . S
C1101 C1102 1.392 . S
C1101 C1105 1.495 . S
C1102 C1101 1.392 . S
C1102 C1103 1.385 . S
C1102 C1104 1.478 . S
C1103 H1097 0.930 . S
C1103 C1099 1.400 . S
C1103 C1102 1.385 . S
C1104 C1102 1.478 . S
C1104 C1106 1.381 . S
C1104 C1110 1.383 . S
C1105 C1101 1.495 . S
C1105 H1111 0.949 1_554 S
C1105 H1112 0.961 . S
C1105 H1113 0.960 1_554 S
C1106 C1104 1.381 . S
C1106 C1107 1.394 . S
C1106 H1114 0.930 . S
C1107 C1106 1.394 . S
C1107 C1108 1.383 . S
C1107 H1115 0.929 1_554 S
C1108 C1107 1.383 . S
C1108 C1109 1.377 . S
C1109 H1093 0.930 . S
C1109 C1108 1.377 . S
C1109 C1110 1.379 . S
C1110 H1094 0.931 . S
C1110 C1104 1.383 . S
C1110 C1109 1.379 . S
H1111 C1105 0.949 1_556 S
H1112 C1105 0.961 . S
H1113 C1105 0.960 1_556 S
H1114 C1106 0.930 . S
H1115 C1107 0.929 1_556 S
H1116 C1124 0.929 . S
H1117 C1126 0.930 . S
H1118 C1128 0.930 . S
H1119 C1131 0.929 . S
H1120 C1134 0.930 . S
H1121 C1136 0.960 . S
H1122 C1136 0.960 . S
H1123 C1136 0.960 . S
C1124 H1116 0.929 . S
C1124 C1125 1.377 . S
C1124 C1126 1.384 . S
C1125 C1124 1.377 . S
C1125 C1131 1.390 . S
C1126 H1117 0.930 . S
C1126 C1124 1.384 . S
C1126 C1127 1.372 . S
C1127 C1126 1.372 . S
C1127 C1128 1.400 . S
C1127 C1132 1.490 . S
C1128 H1118 0.930 . S
C1128 C1127 1.400 . S
C1128 C1131 1.386 . S
H1129 C1145 0.930 . S
H1130 C1146 0.931 . S
C1131 H1119 0.929 . S
C1131 C1125 1.390 . S
C1131 C1128 1.386 . S
C1132 C1127 1.490 . S
C1132 C1134 1.395 . S
C1132 C1135 1.403 . S
H1133 C1139 0.930 . S
C1134 H1120 0.930 . S
C1134 C1132 1.395 . S
C1134 C1137 1.403 . S
C1135 C1132 1.403 . S
C1135 C1136 1.524 . S
C1135 C1139 1.400 . S
C1136 H1121 0.960 . S
C1136 H1122 0.960 . S
C1136 H1123 0.960 . S
C1136 C1135 1.524 . S
C1137 C1134 1.403 . S
C1137 C1138 1.392 . S
C1137 C1141 1.495 . S
C1138 C1137 1.392 . S
C1138 C1139 1.385 . S
C1138 C1140 1.478 . S
C1139 H1133 0.930 . S
C1139 C1135 1.400 . S
C1139 C1138 1.385 . S
C1140 C1138 1.478 . S
C1140 C1142 1.381 . S
C1140 C1146 1.383 . S
C1141 C1137 1.495 . S
C1141 H1147 0.959 . S
C1141 H1148 0.961 . S
C1141 H1149 0.960 . S
C1142 C1140 1.381 . S
C1142 C1143 1.394 . S
C1142 H1150 0.930 . S
C1143 C1142 1.394 . S
C1143 C1144 1.383 . S
C1143 H1151 0.929 . S
C1144 C1143 1.383 . S
C1144 C1145 1.377 . S
C1145 H1129 0.930 . S
C1145 C1144 1.377 . S
C1145 C1146 1.379 . S
C1146 H1130 0.931 . S
C1146 C1140 1.383 . S
C1146 C1145 1.379 . S
H1147 C1141 0.959 . S
H1148 C1141 0.961 . S
H1149 C1141 0.960 . S
H1150 C1142 0.930 . S
H1151 C1143 0.929 . S
H1152 C1160 0.929 . S
H1153 C1162 0.930 . S
H1154 C1164 0.930 . S
H1155 C1167 0.929 . S
H1156 C1170 0.930 . S
H1157 C1172 0.960 1_554 S
H1158 C1172 0.960 . S
H1159 C1172 0.960 . S
C1160 H1152 0.929 . S
C1160 C1161 1.377 . S
C1160 C1162 1.384 . S
C1161 C1160 1.377 . S
C1161 C1167 1.390 . S
C1162 H1153 0.930 . S
C1162 C1160 1.384 . S
C1162 C1163 1.372 . S
C1163 C1162 1.372 . S
C1163 C1164 1.400 . S
C1163 C1168 1.490 . S
C1164 H1154 0.930 . S
C1164 C1163 1.400 . S
C1164 C1167 1.386 . S
H1165 C1181 0.930 1_455 S
H1166 C1182 0.931 . S
C1167 H1155 0.929 . S
C1167 C1161 1.390 . S
C1167 C1164 1.386 . S
C1168 C1163 1.490 . S
C1168 C1170 1.395 . S
C1168 C1171 1.403 . S
H1169 C1175 0.930 . S
C1170 H1156 0.930 . S
C1170 C1168 1.395 . S
C1170 C1173 1.403 . S
C1171 C1168 1.403 . S
C1171 C1172 1.524 . S
C1171 C1175 1.400 . S
C1172 H1157 0.960 1_556 S
C1172 H1158 0.960 . S
C1172 H1159 0.960 . S
C1172 C1171 1.524 . S
C1173 C1170 1.403 . S
C1173 C1174 1.392 . S
C1173 C1177 1.495 . S
C1174 C1173 1.392 . S
C1174 C1175 1.385 . S
C1174 C1176 1.478 . S
C1175 H1169 0.930 . S
C1175 C1171 1.400 . S
C1175 C1174 1.385 . S
C1176 C1174 1.478 . S
C1176 C1178 1.381 . S
C1176 C1182 1.383 . S
C1177 C1173 1.495 . S
C1177 H1183 0.959 . S
C1177 H1184 0.961 . S
C1177 H1185 0.960 . S
C1178 C1176 1.381 . S
C1178 C1179 1.394 . S
C1178 H1186 0.930 . S
C1179 C1178 1.394 . S
C1179 C1180 1.383 . S
C1179 H1187 0.929 . S
C1180 C1179 1.383 . S
C1180 C1181 1.377 . S
C1181 H1165 0.930 1_655 S
C1181 C1180 1.377 . S
C1181 C1182 1.379 . S
C1182 H1166 0.931 . S
C1182 C1176 1.383 . S
C1182 C1181 1.379 . S
H1183 C1177 0.959 . S
H1184 C1177 0.961 . S
H1185 C1177 0.960 . S
H1186 C1178 0.930 . S
H1187 C1179 0.929 . S
H1188 C1196 0.929 . S
H1189 C1198 0.930 . S
H1190 C1200 0.930 . S
H1191 C1203 0.929 . S
H1192 C1206 0.930 . S
H1193 C1208 0.960 . S
H1194 C1208 0.960 . S
H1195 C1208 0.960 . S
C1196 H1188 0.929 . S
C1196 C1197 1.377 . S
C1196 C1198 1.384 . S
C1197 C1196 1.377 . S
C1197 C1203 1.390 . S
C1198 H1189 0.930 . S
C1198 C1196 1.384 . S
C1198 C1199 1.372 . S
C1199 C1198 1.372 . S
C1199 C1200 1.400 . S
C1199 C1204 1.490 . S
C1200 H1190 0.930 . S
C1200 C1199 1.400 . S
C1200 C1203 1.386 . S
H1201 C1217 0.930 . S
H1202 C1218 0.931 . S
C1203 H1191 0.929 . S
C1203 C1197 1.390 . S
C1203 C1200 1.386 . S
C1204 C1199 1.490 . S
C1204 C1206 1.395 . S
C1204 C1207 1.403 . S
H1205 C1211 0.930 . S
C1206 H1192 0.930 . S
C1206 C1204 1.395 . S
C1206 C1209 1.403 . S
C1207 C1204 1.403 . S
C1207 C1208 1.524 . S
C1207 C1211 1.400 . S
C1208 H1193 0.960 . S
C1208 H1194 0.960 . S
C1208 H1195 0.960 . S
C1208 C1207 1.524 . S
C1209 C1206 1.403 . S
C1209 C1210 1.392 . S
C1209 C1213 1.495 . S
C1210 C1209 1.392 . S
C1210 C1211 1.385 . S
C1210 C1212 1.478 . S
C1211 H1205 0.930 . S
C1211 C1207 1.400 . S
C1211 C1210 1.385 . S
C1212 C1210 1.478 . S
C1212 C1214 1.381 . S
C1212 C1218 1.383 . S
C1213 C1209 1.495 . S
C1213 H1219 0.959 . S
C1213 H1220 0.961 . S
C1213 H1221 0.960 . S
C1214 C1212 1.381 . S
C1214 C1215 1.394 . S
C1214 H1222 0.930 . S
C1215 C1214 1.394 . S
C1215 C1216 1.383 . S
C1215 H1223 0.929 . S
C1216 C1215 1.383 . S
C1216 C1217 1.377 . S
C1217 H1201 0.930 . S
C1217 C1216 1.377 . S
C1217 C1218 1.379 . S
C1218 H1202 0.931 . S
C1218 C1212 1.383 . S
C1218 C1217 1.379 . S
H1219 C1213 0.959 . S
H1220 C1213 0.961 . S
H1221 C1213 0.960 . S
H1222 C1214 0.930 . S
H1223 C1215 0.929 . S
H1224 C1232 0.929 . S
H1225 C1234 0.930 . S
H1226 C1236 0.930 . S
H1227 C1239 0.929 . S
H1228 C1242 0.930 . S
H1229 C1244 0.960 . S
H1230 C1244 0.960 . S
H1231 C1244 0.960 . S
C1232 H1224 0.929 . S
C1232 C1233 1.377 . S
C1232 C1234 1.384 . S
C1233 C1232 1.377 . S
C1233 C1239 1.390 . S
C1234 H1225 0.930 . S
C1234 C1232 1.384 . S
C1234 C1235 1.372 . S
C1235 C1234 1.372 . S
C1235 C1236 1.400 . S
C1235 C1240 1.490 . S
C1236 H1226 0.930 . S
C1236 C1235 1.400 . S
C1236 C1239 1.386 . S
H1237 C1253 0.930 1_655 S
H1238 C1254 0.931 1_655 S
C1239 H1227 0.929 . S
C1239 C1233 1.390 . S
C1239 C1236 1.386 . S
C1240 C1235 1.490 . S
C1240 C1242 1.395 . S
C1240 C1243 1.403 . S
H1241 C1247 0.930 . S
C1242 H1228 0.930 . S
C1242 C1240 1.395 . S
C1242 C1245 1.403 . S
C1243 C1240 1.403 . S
C1243 C1244 1.524 . S
C1243 C1247 1.400 . S
C1244 H1229 0.960 . S
C1244 H1230 0.960 . S
C1244 H1231 0.960 . S
C1244 C1243 1.524 . S
C1245 C1242 1.403 . S
C1245 C1246 1.392 . S
C1245 C1249 1.495 . S
C1246 C1245 1.392 . S
C1246 C1247 1.385 . S
C1246 C1248 1.478 . S
C1247 H1241 0.930 . S
C1247 C1243 1.400 . S
C1247 C1246 1.385 . S
C1248 C1246 1.478 . S
C1248 C1250 1.381 . S
C1248 C1254 1.383 . S
C1249 C1245 1.495 . S
C1249 H1255 0.959 . S
C1249 H1256 0.961 . S
C1249 H1257 0.960 . S
C1250 C1248 1.381 . S
C1250 C1251 1.394 . S
C1250 H1258 0.930 . S
C1251 C1250 1.394 . S
C1251 C1252 1.383 . S
C1251 H1259 0.929 . S
C1252 C1251 1.383 . S
C1252 C1253 1.377 . S
C1253 H1237 0.930 1_455 S
C1253 C1252 1.377 . S
C1253 C1254 1.379 . S
C1254 H1238 0.931 1_455 S
C1254 C1248 1.383 . S
C1254 C1253 1.379 . S
H1255 C1249 0.959 . S
H1256 C1249 0.961 . S
H1257 C1249 0.960 . S
H1258 C1250 0.930 . S
H1259 C1251 0.929 . S
H1260 C1268 0.929 . S
H1261 C1270 0.930 . S
H1262 C1272 0.930 . S
H1263 C1275 0.929 . S
H1264 C1278 0.930 . S
H1265 C1280 0.960 . S
H1266 C1280 0.960 . S
H1267 C1280 0.960 . S
C1268 H1260 0.929 . S
C1268 C1269 1.377 . S
C1268 C1270 1.384 . S
C1269 C1268 1.377 . S
C1269 C1275 1.390 . S
C1270 H1261 0.930 . S
C1270 C1268 1.384 . S
C1270 C1271 1.372 . S
C1271 C1270 1.372 . S
C1271 C1272 1.400 . S
C1271 C1276 1.490 . S
C1272 H1262 0.930 . S
C1272 C1271 1.400 . S
C1272 C1275 1.386 . S
H1273 C1289 0.930 . S
H1274 C1290 0.931 . S
C1275 H1263 0.929 . S
C1275 C1269 1.390 . S
C1275 C1272 1.386 . S
C1276 C1271 1.490 . S
C1276 C1278 1.395 . S
C1276 C1279 1.403 . S
H1277 C1283 0.930 . S
C1278 H1264 0.930 . S
C1278 C1276 1.395 . S
C1278 C1281 1.403 . S
C1279 C1276 1.403 . S
C1279 C1280 1.524 . S
C1279 C1283 1.400 . S
C1280 H1265 0.960 . S
C1280 H1266 0.960 . S
C1280 H1267 0.960 . S
C1280 C1279 1.524 . S
C1281 C1278 1.403 . S
C1281 C1282 1.392 . S
C1281 C1285 1.495 . S
C1282 C1281 1.392 . S
C1282 C1283 1.385 . S
C1282 C1284 1.478 . S
C1283 H1277 0.930 . S
C1283 C1279 1.400 . S
C1283 C1282 1.385 . S
C1284 C1282 1.478 . S
C1284 C1286 1.381 . S
C1284 C1290 1.383 . S
C1285 C1281 1.495 . S
C1285 H1291 0.959 . S
C1285 H1292 0.961 . S
C1285 H1293 0.960 . S
C1286 C1284 1.381 . S
C1286 C1287 1.394 . S
C1286 H1294 0.930 . S
C1287 C1286 1.394 . S
C1287 C1288 1.383 . S
C1287 H1295 0.929 . S
C1288 C1287 1.383 . S
C1288 C1289 1.377 . S
C1289 H1273 0.930 . S
C1289 C1288 1.377 . S
C1289 C1290 1.379 . S
C1290 H1274 0.931 . S
C1290 C1284 1.383 . S
C1290 C1289 1.379 . S
H1291 C1285 0.959 . S
H1292 C1285 0.961 . S
H1293 C1285 0.960 . S
H1294 C1286 0.930 . S
H1295 C1287 0.929 . S
C441 C1 2.192 . S
C460 C328 2.199 . S
C477 C40 1.089 . S
C496 N348 1.075 . S
C532 C382 1.974 . S
C513 C99 1.976 . S
C549 C118 1.318 . S
C568 N416 1.238 . S
C604 C369 2.387 . S
C585 C16 2.377 . S
C640 N326 1.132 . S
C621 C60 1.199 . S
C676 C403 1.979 . S
C657 C79 1.972 . S
C712 N378 0.971 . S
C693 C138 0.994 . S
C729 C21 1.851 . S
C748 C418 1.857 . S
C784 C352 1.712 . S
C765 C94 1.707 . S
C801 C133 1.453 . S
C820 C313 1.474 . S
C837 C55 1.459 . S
C856 C399 1.472 . S
C892 C339 2.203 . S
C873 C157 2.188 . S
C909 C196 1.091 . S
C928 N356 1.106 . S
C945 C255 1.962 . S
C964 C373 1.973 . S
C981 C289 1.315 . S
C1000 N408 1.230 . S
C1017 C172 2.380 . S
C1036 C358 2.391 . S
C1072 N318 1.195 . S
C1053 C216 1.214 . S
C1108 C412 1.974 . S
C1089 C235 1.967 . S
C1144 N386 1.000 . S
C1125 C294 0.982 . S
C1161 C177 1.840 . S
C1180 C429 1.859 . S
C1216 C343 1.721 . S
C1197 C250 1.711 . S
C1252 C322 1.473 . S
C1233 C274 1.453 . S
C1269 C211 1.453 . S
C1288 C388 1.467 . S
