# Generated by pormake.
# Topology zzz, (3,6)-cn, num edge types: 1
# Building blocks:
#     Node 0, Type 0, BuildingBlock: BELTOD_clean_linker_0, # of connection points: 3
#     Node 1, Type 0, BuildingBlock: BELTOD_clean_linker_0, # of connection points: 3
#     Node 2, Type 0, BuildingBlock: BELTOD_clean_linker_0, # of connection points: 3
#     Node 3, Type 0, BuildingBlock: BELTOD_clean_linker_0, # of connection points: 3
#     Node 4, Type 0, BuildingBlock: BELTOD_clean_linker_0, # of connection points: 3
#     Node 5, Type 0, BuildingBlock: BELTOD_clean_linker_0, # of connection points: 3
#     Node 6, Type 0, BuildingBlock: BELTOD_clean_linker_0, # of connection points: 3
#     Node 7, Type 0, BuildingBlock: BELTOD_clean_linker_0, # of connection points: 3
#     Node 8, Type 1, BuildingBlock: BETDEL_clean_sbu_0, # of connection points: 6
#     Node 9, Type 1, BuildingBlock: BETDEL_clean_sbu_0, # of connection points: 6
#     Node 10, Type 1, BuildingBlock: BETDEL_clean_sbu_0, # of connection points: 6
#     Node 11, Type 1, BuildingBlock: BETDEL_clean_sbu_0, # of connection points: 6
#     Edge 12, Type (0, 1), BuildingBlock: OJICUG_clean_linker_0, # of connection points: 2
#     Edge 13, Type (0, 1), BuildingBlock: OJICUG_clean_linker_0, # of connection points: 2
#     Edge 14, Type (0, 1), BuildingBlock: OJICUG_clean_linker_0, # of connection points: 2
#     Edge 15, Type (0, 1), BuildingBlock: OJICUG_clean_linker_0, # of connection points: 2
#     Edge 16, Type (0, 1), BuildingBlock: OJICUG_clean_linker_0, # of connection points: 2
#     Edge 17, Type (0, 1), BuildingBlock: OJICUG_clean_linker_0, # of connection points: 2
#     Edge 18, Type (0, 1), BuildingBlock: OJICUG_clean_linker_0, # of connection points: 2
#     Edge 19, Type (0, 1), BuildingBlock: OJICUG_clean_linker_0, # of connection points: 2
#     Edge 20, Type (0, 1), BuildingBlock: OJICUG_clean_linker_0, # of connection points: 2
#     Edge 21, Type (0, 1), BuildingBlock: OJICUG_clean_linker_0, # of connection points: 2
#     Edge 22, Type (0, 1), BuildingBlock: OJICUG_clean_linker_0, # of connection points: 2
#     Edge 23, Type (0, 1), BuildingBlock: OJICUG_clean_linker_0, # of connection points: 2
#     Edge 24, Type (0, 1), BuildingBlock: OJICUG_clean_linker_0, # of connection points: 2
#     Edge 25, Type (0, 1), BuildingBlock: OJICUG_clean_linker_0, # of connection points: 2
#     Edge 26, Type (0, 1), BuildingBlock: OJICUG_clean_linker_0, # of connection points: 2
#     Edge 27, Type (0, 1), BuildingBlock: OJICUG_clean_linker_0, # of connection points: 2
#     Edge 28, Type (0, 1), BuildingBlock: OJICUG_clean_linker_0, # of connection points: 2
#     Edge 29, Type (0, 1), BuildingBlock: OJICUG_clean_linker_0, # of connection points: 2
#     Edge 30, Type (0, 1), BuildingBlock: OJICUG_clean_linker_0, # of connection points: 2
#     Edge 31, Type (0, 1), BuildingBlock: OJICUG_clean_linker_0, # of connection points: 2
#     Edge 32, Type (0, 1), BuildingBlock: OJICUG_clean_linker_0, # of connection points: 2
#     Edge 33, Type (0, 1), BuildingBlock: OJICUG_clean_linker_0, # of connection points: 2
#     Edge 34, Type (0, 1), BuildingBlock: OJICUG_clean_linker_0, # of connection points: 2
#     Edge 35, Type (0, 1), BuildingBlock: OJICUG_clean_linker_0, # of connection points: 2
# Relax obj value: 0.330
# Max RMSD: 0.216
# Mean RMSD: 0.203
data_MOF--net-zzz--node1-BETDEL_clean_sbu_0--node2-BELTOD_clean_linker_0--edge1-OJICUG_clean_linker_0
_symmetry_space_group_name_H-M    P1
_symmetry_Int_Tables_number       1
_symmetry_cell_setting            triclinic
loop_
_symmetry_equiv_pos_as_xyz
'x, y, z'
_cell_length_a     40.184367
_cell_length_b     40.192865
_cell_length_c     13.998934
_cell_angle_alpha  91.245348
_cell_angle_beta   89.006065
_cell_angle_gamma 95.538631
loop_
_atom_site_label
_atom_site_type_symbol
_atom_site_fract_x
_atom_site_fract_y
_atom_site_fract_z
_atom_type_partial_charge
P0 P 0.73703 0.46149 0.1405 0.0
H1 H 0.73962 0.48154 0.34381 0.0
H2 H 0.78757 0.50428 0.43656 0.0
H3 H 0.84188 0.52895 0.17378 0.0
H4 H 0.79305 0.50901 0.0834 0.0
H5 H 0.67007 0.43464 0.08679 0.0
H6 H 0.63072 0.45105 0.97039 0.0
H7 H 0.6981 0.5381 0.90366 0.0
H8 H 0.73765 0.52128 0.02084 0.0
H9 H 0.79082 0.42453 0.20224 0.0
H10 H 0.75208 0.45352 0.93403 0.0
O11 O 0.71731 0.43479 0.21711 0.0
H12 H 0.84344 0.41376 0.12215 0.0
H13 H 0.80419 0.44176 0.85366 0.0
C14 C 0.76295 0.49287 0.20651 0.0
C15 C 0.76127 0.49344 0.30653 0.0
C16 C 0.78915 0.50586 0.35951 0.0
C17 C 0.81951 0.51703 0.31313 0.0
C18 C 0.81936 0.52049 0.21316 0.0
C19 C 0.79112 0.50906 0.16067 0.0
C20 C 0.70659 0.477 0.06377 0.0
C21 C 0.67615 0.45765 0.04873 0.0
C22 C 0.65356 0.46714 0.98211 0.0
C23 C 0.6611 0.49603 0.92791 0.0
C24 C 0.69155 0.51566 0.94398 0.0
C25 C 0.71409 0.50621 0.01144 0.0
C26 C 0.76751 0.4399 0.07429 0.0
C27 C 0.79298 0.42701 0.12541 0.0
C28 C 0.82315 0.42119 0.08 0.0
C29 C 0.82783 0.42725 0.98222 0.0
C30 C 0.80105 0.43679 0.9292 0.0
C31 C 0.77117 0.44341 0.97513 0.0
P32 P 0.03732 0.73478 0.14367 0.0
H33 H 0.02938 0.74843 0.34825 0.0
H34 H 0.00552 0.79522 0.42629 0.0
H35 H 0.95279 0.81268 0.16844 0.0
H36 H 0.97786 0.76659 0.08958 0.0
H37 H 0.07198 0.67743 0.08642 0.0
H38 H 0.05984 0.63207 0.9703 0.0
H39 H 0.96322 0.6665 0.92101 0.0
H40 H 0.97516 0.71157 0.03969 0.0
H41 H 0.07715 0.79736 0.18609 0.0
H42 H 0.0289 0.74863 0.94048 0.0
O43 O 0.06781 0.72602 0.21583 0.0
H44 H 0.07885 0.85125 0.10681 0.0
H45 H 0.03045 0.80214 0.86201 0.0
C46 C 0.0056 0.75377 0.21271 0.0
C47 C 0.01141 0.76115 0.30964 0.0
C48 C 0.99771 0.78822 0.35439 0.0
C49 C 0.97785 0.80837 0.30288 0.0
C50 C 0.96857 0.79817 0.20959 0.0
C51 C 0.98235 0.77112 0.1649 0.0
C52 C 0.02443 0.69786 0.0727 0.0
C53 C 0.04775 0.67477 0.05292 0.0
C54 C 0.0408 0.64879 0.98632 0.0
C55 C 0.01058 0.64575 0.9365 0.0
C56 C 0.98677 0.66835 0.95816 0.0
C57 C 0.99355 0.69406 0.02636 0.0
C58 C 0.05297 0.76888 0.06931 0.0
C59 C 0.06846 0.79794 0.11339 0.0
C60 C 0.06914 0.82876 0.06857 0.0
C61 C 0.05413 0.83076 0.97947 0.0
C62 C 0.0417 0.8012 0.93157 0.0
C63 C 0.04114 0.77048 0.97614 0.0
P64 P 0.77133 0.04758 0.11625 0.0
H65 H 0.75539 0.04619 0.32092 0.0
H66 H 0.70481 0.02416 0.40605 0.0
H67 H 0.67119 0.96892 0.1524 0.0
H68 H 0.72168 0.99151 0.06649 0.0
H69 H 0.83943 0.07464 0.07489 0.0
H70 H 0.88245 0.05704 0.96624 0.0
H71 H 0.82182 0.96436 0.90864 0.0
H72 H 0.77866 0.98207 0.01971 0.0
H73 H 0.72306 0.09695 0.13267 0.0
H74 H 0.76032 0.03348 0.91104 0.0
O75 O 0.78714 0.07924 0.18599 0.0
H76 H 0.67909 0.11114 0.02637 0.0
H77 H 0.7163 0.04648 0.80661 0.0
C78 C 0.74254 0.02052 0.18707 0.0
C79 C 0.73788 0.02837 0.28422 0.0
C80 C 0.70878 0.01593 0.33288 0.0
C81 C 0.68389 0.99516 0.2855 0.0
C82 C 0.69005 0.9847 0.1909 0.0
C83 C 0.71909 0.99745 0.14187 0.0
C84 C 0.80583 0.0296 0.05647 0.0
C85 C 0.83573 0.05 0.04174 0.0
C86 C 0.86044 0.03989 0.97925 0.0
C87 C 0.85559 0.00931 0.92844 0.0
C88 C 0.82623 0.98814 0.94643 0.0
C89 C 0.80164 0.99812 0.01051 0.0
C90 C 0.74525 0.06442 0.02978 0.0
C91 C 0.72238 0.0868 0.06034 0.0
C92 C 0.69705 0.09462 -0.00016 0.0
C93 C 0.69399 0.07984 0.90799 0.0
C94 C 0.71812 0.05883 0.8761 0.0
C95 C 0.74342 0.05115 0.93645 0.0
P96 P 0.48267 0.77595 0.19993 0.0
H97 H 0.48887 0.76294 0.40269 0.0
H98 H 0.51326 0.71659 0.47291 0.0
H99 H 0.57073 0.70314 0.21358 0.0
H100 H 0.54568 0.74953 0.14301 0.0
H101 H 0.44131 0.81823 0.10255 0.0
H102 H 0.45259 0.85944 0.97815 0.0
H103 H 0.55857 0.85231 0.00322 0.0
H104 H 0.54707 0.81074 0.1293 0.0
H105 H 0.44407 0.71253 0.2407 0.0
H106 H 0.49553 0.75965 0.99863 0.0
O107 O 0.45113 0.7844 0.2728 0.0
H108 H 0.44305 0.65808 0.15728 0.0
H109 H 0.49447 0.70577 0.91606 0.0
C110 C 0.51509 0.75965 0.2671 0.0
C111 C 0.50809 0.75136 0.36252 0.0
C112 C 0.52205 0.7245 0.40267 0.0
C113 C 0.54328 0.70543 0.34784 0.0
C114 C 0.55388 0.71682 0.25697 0.0
C115 C 0.54003 0.74389 0.21714 0.0
C116 C 0.4933 0.81153 0.12547 0.0
C117 C 0.46706 0.82604 0.08315 0.0
C118 C 0.4735 0.84938 0.01148 0.0
C119 C 0.50641 0.8587 0.98032 0.0
C120 C 0.53298 0.84552 0.02613 0.0
C121 C 0.52642 0.82179 0.09799 0.0
C122 C 0.4694 0.74029 0.12549 0.0
C123 C 0.45371 0.71144 0.16808 0.0
C124 C 0.45341 0.68035 0.12093 0.0
C125 C 0.46918 0.67785 0.03122 0.0
C126 C 0.48252 0.70709 0.98585 0.0
C127 C 0.48269 0.73803 0.03263 0.0
P128 P 0.27771 0.44594 0.98904 0.0
H129 H 0.2655 0.42808 0.7876 0.0
H130 H 0.21818 0.44178 0.69479 0.0
H131 H 0.20544 0.5256 0.88513 0.0
H132 H 0.25312 0.51214 0.97709 0.0
H133 H 0.32835 0.4124 0.08309 0.0
H134 H 0.37306 0.4315 0.19154 0.0
H135 H 0.35381 0.53388 0.14694 0.0
H136 H 0.30866 0.51434 0.03748 0.0
H137 H 0.20943 0.4179 0.96598 0.0
H138 H 0.2664 0.47531 0.18161 0.0
O139 O 0.28182 0.40669 0.95267 0.0
H140 H 0.15856 0.43805 0.02873 0.0
H141 H 0.21521 0.49305 0.25148 0.0
C142 C 0.26286 0.46871 0.89064 0.0
C143 C 0.25397 0.45063 0.80642 0.0
C144 C 0.22645 0.45824 0.75379 0.0
C145 C 0.20738 0.48407 0.78468 0.0
C146 C 0.21924 0.50507 0.86082 0.0
C147 C 0.24718 0.49784 0.91219 0.0
C148 C 0.31535 0.4619 0.05067 0.0
C149 C 0.33426 0.43905 0.09418 0.0
C150 C 0.35995 0.45004 0.15658 0.0
C151 C 0.36714 0.48426 0.17828 0.0
C152 C 0.34879 0.50731 0.13236 0.0
C153 C 0.32315 0.49621 0.06895 0.0
C154 C 0.24185 0.44548 0.06781 0.0
C155 C 0.21078 0.43341 0.03034 0.0
C156 C 0.18151 0.44528 0.06634 0.0
C157 C 0.18259 0.46833 0.14367 0.0
C158 C 0.21342 0.47675 0.18886 0.0
C159 C 0.24286 0.46586 0.15034 0.0
P160 P 0.09843 0.2728 0.00124 0.0
H161 H 0.13077 0.25158 0.824 0.0
H162 H 0.11228 0.20405 0.72025 0.0
H163 H 0.01202 0.20525 0.83396 0.0
H164 H 0.03016 0.25355 0.93506 0.0
H165 H 0.13561 0.32254 0.12015 0.0
H166 H 0.11786 0.36671 0.22452 0.0
H167 H 0.01971 0.35381 0.10008 0.0
H168 H 0.03843 0.31064 0.99118 0.0
H169 H 0.11821 0.20688 0.04232 0.0
H170 H 0.0389 0.26684 0.12733 0.0
O171 O 0.14 0.27289 0.99837 0.0
H172 H 0.08686 0.15792 0.11119 0.0
H173 H 0.00669 0.21825 0.18926 0.0
C174 C 0.08204 0.25608 0.88889 0.0
C175 C 0.10439 0.24306 0.82288 0.0
C176 C 0.0939 0.21554 0.76411 0.0
C177 C 0.06097 0.20052 0.77133 0.0
C178 C 0.03768 0.21617 0.82818 0.0
C179 C 0.04802 0.2442 0.88504 0.0
C180 C 0.08831 0.31294 0.0481 0.0
C181 C 0.11064 0.33001 0.11227 0.0
C182 C 0.10027 0.35501 0.17331 0.0
C183 C 0.06699 0.36301 0.17328 0.0
C184 C 0.04548 0.34817 0.10255 0.0
C185 C 0.05618 0.32343 0.03992 0.0
C186 C 0.08139 0.24083 0.08114 0.0
C187 C 0.09453 0.20978 0.07817 0.0
C188 C 0.07611 0.1816 0.11534 0.0
C189 C 0.04383 0.18386 0.15431 0.0
C190 C 0.03152 0.2154 0.16099 0.0
C191 C 0.0502 0.24356 0.12555 0.0
P192 P 0.25252 0.04428 0.00558 0.0
H193 H 0.26586 0.07908 0.82466 0.0
H194 H 0.31006 0.07159 0.70735 0.0
H195 H 0.32138 0.97428 0.82177 0.0
H196 H 0.27529 0.98092 0.93237 0.0
H197 H 0.20535 0.08547 0.09807 0.0
H198 H 0.15435 0.07116 0.18916 0.0
H199 H 0.15293 0.96876 0.08833 0.0
H200 H 0.20431 0.98361 0.99418 0.0
H201 H 0.32337 0.05494 0.03918 0.0
H202 H 0.23981 0.99098 0.15089 0.0
O203 O 0.26215 0.08556 0.01498 0.0
H204 H 0.36178 0.02211 0.12063 0.0
H205 H 0.27812 0.9578 0.23031 0.0
C206 C 0.26791 0.03107 0.88979 0.0
C207 C 0.27663 0.05539 0.82116 0.0
C208 C 0.30266 0.05134 0.7553 0.0
C209 C 0.32094 0.02311 0.75805 0.0
C210 C 0.3086 0.99667 0.81745 0.0
C211 C 0.28188 1.0004 0.88129 0.0
C212 C 0.20889 0.0356 0.03924 0.0
C213 C 0.19351 0.06019 0.09179 0.0
C214 C 0.16417 0.05195 0.14442 0.0
C215 C 0.14977 0.01873 0.14718 0.0
C216 C 0.16363 0.99455 0.08829 0.0
C217 C 0.19277 0.00306 0.0336 0.0
C218 C 0.27865 0.02558 0.08839 0.0
C219 C 0.31321 0.03429 0.08267 0.0
C220 C 0.33515 0.01509 0.12759 0.0
C221 C 0.32288 0.98683 0.17939 0.0
C222 C 0.28821 0.97923 0.18982 0.0
C223 C 0.26624 0.99839 0.14429 0.0
P224 P 0.42393 0.24031 0.98758 0.0
H225 H 0.38924 0.26107 0.81985 0.0
H226 H 0.40693 0.30789 0.7168 0.0
H227 H 0.50863 0.30505 0.80675 0.0
H228 H 0.49124 0.25753 0.90718 0.0
H229 H 0.38807 0.19198 0.11052 0.0
H230 H 0.40501 0.14503 0.19796 0.0
H231 H 0.50091 0.15487 0.05229 0.0
H232 H 0.4833 0.20171 0.96176 0.0
H233 H 0.40425 0.30593 0.04231 0.0
H234 H 0.4861 0.24732 0.09646 0.0
O235 O 0.38242 0.24059 0.99349 0.0
H236 H 0.436 0.35516 0.11121 0.0
H237 H 0.51865 0.29633 0.15871 0.0
C238 C 0.43875 0.2559 0.87298 0.0
C239 C 0.41568 0.26903 0.81336 0.0
C240 C 0.42573 0.29611 0.75492 0.0
C241 C 0.45894 0.3105 0.75609 0.0
C242 C 0.48277 0.29455 0.80566 0.0
C243 C 0.47282 0.26698 0.86221 0.0
C244 C 0.43424 0.20032 0.02869 0.0
C245 C 0.41234 0.18346 0.09448 0.0
C246 C 0.42213 0.15664 0.14508 0.0
C247 C 0.45437 0.14643 0.13253 0.0
C248 C 0.47598 0.16242 0.06387 0.0
C249 C 0.46582 0.18898 0.01147 0.0
C250 C 0.44233 0.27265 0.06621 0.0
C251 C 0.42866 0.3034 0.07137 0.0
C252 C 0.44727 0.33175 0.10847 0.0
C253 C 0.48023 0.32996 0.1391 0.0
C254 C 0.49328 0.29874 0.13703 0.0
C255 C 0.47444 0.27039 0.10164 0.0
Dy256 Dy 0.02071 0.98642 0.62943 0.0
C257 C 0.9786 0.06514 0.31649 0.0
C258 C 0.02814 0.94926 0.7858 0.0
Dy259 Dy 0.98627 0.0216 0.4584 0.0
O260 O 0.05129 0.97072 0.75072 0.0
O261 O 1.00079 0.9493 0.73749 0.0
O262 O 0.06956 0.97881 0.54827 0.0
O263 O 0.03219 0.00192 0.48747 0.0
C264 C 0.06071 0.99299 0.47132 0.0
C265 C 0.9465 0.00233 0.60712 0.0
O266 O 0.98207 0.96874 0.4037 0.0
O267 O 0.99154 0.94436 0.54975 0.0
O268 O 0.96539 0.06661 0.40168 0.0
O269 O 0.99391 0.03816 0.30692 0.0
O270 O 0.93577 0.00399 0.52003 0.0
O271 O 0.97685 0.01378 0.61051 0.0
O272 O 0.0282 0.04 0.67892 0.0
O273 O 0.01832 0.06334 0.53183 0.0
C274 C 0.98239 0.94225 0.45882 0.0
C275 C 0.02848 0.06606 0.62176 0.0
Dy276 Dy 0.48246 0.97244 0.47261 0.0
C277 C 0.57617 0.06045 0.68335 0.0
C278 C 0.42961 0.9413 0.37549 0.0
Dy279 Dy 0.5245 0.02568 0.58923 0.0
O280 O 0.45907 0.94974 0.33893 0.0
O281 O 0.43 0.94817 0.46638 0.0
O282 O 0.52862 0.94757 0.42971 0.0
O283 O 0.53146 0.99947 0.45437 0.0
C284 C 0.5484 0.97516 0.4368 0.0
C285 C 0.45847 0.02527 0.61898 0.0
O286 O 0.51609 0.0566 0.46192 0.0
O287 O 0.47225 0.02036 0.40424 0.0
O288 O 0.54598 0.05448 0.71752 0.0
O289 O 0.57788 0.04781 0.59765 0.0
O290 O 0.47921 0.05219 0.62535 0.0
O291 O 0.4745 0.99992 0.60584 0.0
O292 O 0.48981 0.94124 0.59719 0.0
O293 O 0.5312 0.97783 0.66702 0.0
C294 C 0.49089 0.04939 0.40256 0.0
C295 C 0.51272 0.94852 0.6631 0.0
Dy296 Dy 0.49811 0.52481 0.64566 0.0
C297 C 0.54223 0.44865 0.3154 0.0
C298 C 0.49159 0.56071 0.81033 0.0
Dy299 Dy 0.53267 0.49112 0.46495 0.0
O300 O 0.46807 0.53993 0.77386 0.0
O301 O 0.51873 0.56083 0.75832 0.0
O302 O 0.44824 0.53079 0.57405 0.0
O303 O 0.48655 0.51052 0.50186 0.0
C304 C 0.45719 0.51778 0.49282 0.0
C305 C 0.57227 0.50886 0.61372 0.0
O306 O 0.5372 0.54433 0.41942 0.0
O307 O 0.52659 0.5677 0.57004 0.0
O308 O 0.55435 0.44661 0.40023 0.0
O309 O 0.52677 0.47554 0.31072 0.0
O310 O 0.58308 0.50813 0.52537 0.0
O311 O 0.54189 0.49751 0.61747 0.0
O312 O 0.4913 0.47098 0.68606 0.0
O313 O 0.50022 0.44888 0.53303 0.0
C314 C 0.53643 0.57042 0.47914 0.0
C315 C 0.49057 0.44541 0.6239 0.0
Dy316 Dy 0.99464 0.47604 0.63643 0.0
C317 C 0.06734 0.52198 0.30866 0.0
C318 C 0.9516 0.45018 0.7749 0.0
Dy319 Dy 0.02814 0.51543 0.46896 0.0
O320 O 0.95707 0.43616 0.69268 0.0
O321 O 0.9706 0.4782 0.78329 0.0
O322 O 0.01701 0.43039 0.57917 0.0
O323 O 1.00218 0.46605 0.48495 0.0
C324 C 0.01597 0.43931 0.49065 0.0
C325 C 0.00976 0.55368 0.61512 0.0
O326 O 0.97574 0.51795 0.42375 0.0
O327 O 0.95179 0.49834 0.56694 0.0
O328 O 0.07173 0.54039 0.38593 0.0
O329 O 0.04004 0.50225 0.31754 0.0
O330 O 0.01228 0.56412 0.52721 0.0
O331 O 0.02092 0.52548 0.62017 0.0
O332 O 0.04684 0.48174 0.69243 0.0
O333 O 0.07116 0.49564 0.54495 0.0
C334 C 0.94947 0.51118 0.48087 0.0
C335 C 0.07359 0.48724 0.63569 0.0
C336 C 0.09729 0.02921 0.24001 0.0
C337 C 0.12361 0.00916 0.22103 0.0
H338 H 0.057 0.04 0.33479 0.0
C339 C 0.12743 0.98242 0.28178 0.0
H340 H 0.09376 0.05011 0.1949 0.0
C341 C 0.10646 0.97681 0.36192 0.0
C342 C 0.08087 0.99745 0.38226 0.0
H343 H 0.14776 0.96687 0.27028 0.0
H344 H 0.11072 0.9567 0.40917 0.0
C345 C 0.07606 0.02331 0.31965 0.0
C346 C 0.44447 0.09115 0.2122 0.0
C347 C 0.46549 0.12046 0.19546 0.0
H348 H 0.43592 0.04601 0.29 0.0
C349 C 0.49563 0.12601 0.24558 0.0
H350 H 0.42116 0.08614 0.17439 0.0
C351 C 0.50408 0.10308 0.31319 0.0
C352 C 0.48268 0.07401 0.3311 0.0
H353 H 0.51213 0.14861 0.23482 0.0
H354 H 0.52722 0.10821 0.35166 0.0
C355 C 0.453 0.06817 0.27874 0.0
C356 C 0.38477 0.51937 0.32341 0.0
C357 C 0.39194 0.49522 0.25366 0.0
H358 H 0.39973 0.54519 0.45385 0.0
C359 C 0.42173 0.4797 0.26132 0.0
H360 H 0.36187 0.53145 0.32079 0.0
C361 C 0.44326 0.48749 0.33794 0.0
C362 C 0.43564 0.511 0.4085 0.0
H363 H 0.42815 0.46107 0.20887 0.0
H364 H 0.46521 0.47418 0.34383 0.0
C365 C 0.4063 0.52703 0.40017 0.0
C366 C 0.06458 0.37912 0.3473 0.0
C367 C 0.05418 0.38364 0.25325 0.0
H368 H 0.06058 0.39305 0.49527 0.0
C369 C 0.0307 0.40671 0.23811 0.0
H370 H 0.08192 0.36096 0.36236 0.0
C371 C 0.0184 0.42513 0.31504 0.0
C372 C 0.02903 0.42051 0.40857 0.0
H373 H 0.02212 0.41081 0.16681 0.0
H374 H 1.00029 0.44268 0.30149 0.0
C375 C 0.05209 0.39724 0.42388 0.0
C376 C 0.9142 0.00875 0.86193 0.0
C377 C 0.87949 1.00175 0.85014 0.0
H378 H 0.96271 0.01387 0.79451 0.0
C379 C 0.86758 0.99125 0.75942 0.0
H380 H 0.92419 0.01657 0.93109 0.0
C381 C 0.88963 0.98987 0.68116 0.0
C382 C 0.92405 0.99874 0.69205 0.0
H383 H 0.84101 0.98598 0.74762 0.0
H384 H 0.87953 0.98318 0.61134 0.0
C385 C 0.93626 0.00711 0.78379 0.0
C386 C 0.49372 0.87167 0.81263 0.0
C387 C 0.51203 0.88012 0.89555 0.0
H388 H 0.48011 0.88608 0.6742 0.0
C389 C 0.53358 0.90981 0.89802 0.0
H390 H 0.47736 0.84864 0.80826 0.0
C391 C 0.53512 0.93165 0.82072 0.0
C392 C 0.51533 0.92391 0.73961 0.0
H393 H 0.54801 0.91681 0.9612 0.0
H394 H 0.5508 0.95506 0.82608 0.0
C395 C 0.49542 0.89318 0.73562 0.0
C396 C 0.65095 0.51362 0.76027 0.0
C397 C 0.63817 0.50403 0.85083 0.0
H398 H 0.64006 0.52285 0.61435 0.0
C399 C 0.60325 0.49949 0.86461 0.0
H400 H 0.67767 0.51706 0.74687 0.0
C401 C 0.58172 0.50274 0.78855 0.0
C402 C 0.59463 0.51049 0.69695 0.0
H403 H 0.59256 0.49262 0.93379 0.0
H404 H 0.555 0.49795 0.80073 0.0
C405 C 0.6294 0.51678 0.68415 0.0
C406 C 0.01357 0.58779 0.86887 0.0
C407 C 0.00552 0.6207 0.85725 0.0
H408 H 0.02066 0.54061 0.80152 0.0
C409 C 0.99582 0.6304 0.76672 0.0
H410 H 0.02087 0.57957 0.93798 0.0
C411 C 0.99599 0.60819 0.6883 0.0
C412 C 0.00555 0.57581 0.69926 0.0
H413 H 0.98973 0.65569 0.75552 0.0
H414 H 0.98969 0.6167 0.61859 0.0
C415 C 0.01338 0.5655 0.79079 0.0
C416 C 0.02494 0.12233 0.14066 0.0
C417 C 0.02296 0.15355 0.18709 0.0
H418 H 0.01168 0.06941 0.14465 0.0
C419 C 1.00134 0.15544 0.26672 0.0
H420 H 0.04043 0.12003 0.07724 0.0
C421 C 0.98377 0.12667 0.30238 0.0
C422 C 0.98807 0.09526 0.26085 0.0
H423 H 0.99925 0.17884 0.30506 0.0
H424 H 0.96891 0.12885 0.36713 0.0
C425 C 0.00789 0.09339 0.17782 0.0
C426 C 0.34238 0.95709 0.31993 0.0
C427 C 0.34654 0.96608 0.22383 0.0
H428 H 0.36584 0.9406 0.44396 0.0
C429 C 0.37538 0.95824 0.17331 0.0
H430 H 0.32027 0.9626 0.36032 0.0
C431 C 0.40138 0.94544 0.22094 0.0
C432 C 0.3989 0.94055 0.3198 0.0
H433 H 0.37873 0.96406 0.09833 0.0
H434 H 0.42453 0.94249 0.18225 0.0
C435 C 0.36841 0.94429 0.36763 0.0
C436 C 0.5232 0.35855 0.24883 0.0
C437 C 0.50086 0.36041 0.17336 0.0
H438 H 0.55526 0.38528 0.34999 0.0
C439 C 0.49753 0.3918 0.13364 0.0
H440 H 0.52637 0.33497 0.2818 0.0
C441 C 0.51378 0.42088 0.17424 0.0
C442 C 0.53404 0.41897 0.25413 0.0
H443 H 0.48145 0.39409 0.07334 0.0
H444 H 0.50885 0.44489 0.14683 0.0
C445 C 0.53991 0.38749 0.28799 0.0
C446 C 0.12008 0.46764 0.16366 0.0
C447 C 0.15217 0.4845 0.17454 0.0
H448 H 0.06778 0.46776 0.19128 0.0
C449 C 0.15488 0.51705 0.21542 0.0
H450 H 0.11655 0.44258 0.13337 0.0
C451 C 0.12667 0.53094 0.25237 0.0
C452 C 0.09509 0.51301 0.24641 0.0
H453 H 0.17888 0.5316 0.22144 0.0
H454 H 0.12979 0.55491 0.28965 0.0
C455 C 0.09188 0.48208 0.19733 0.0
C456 C 0.07317 0.88919 0.92824 0.0
C457 C 0.04746 0.86338 0.94128 0.0
H458 H 0.0871 0.9374 0.86851 0.0
C459 C 0.01475 0.86837 0.91539 0.0
H460 H 0.09851 0.88597 0.94878 0.0
C461 C 0.00815 0.89768 0.8713 0.0
C462 C 0.03418 0.92251 0.85162 0.0
H463 H 0.99435 0.84913 0.92709 0.0
H464 H 0.9829 0.90012 0.84833 0.0
C465 C 0.06659 0.91858 0.88304 0.0
C466 C 0.66597 0.08271 0.74966 0.0
C467 C 0.66374 0.08256 0.85005 0.0
H468 H 0.63969 0.07595 0.61782 0.0
C469 C 0.63188 0.08041 0.89421 0.0
H470 H 0.69008 0.08504 0.71337 0.0
C471 C 0.60303 0.07579 0.8393 0.0
C472 C 0.60555 0.07295 0.73948 0.0
H473 H 0.62914 0.07989 0.97126 0.0
H474 H 0.57891 0.07217 0.87534 0.0
C475 C 0.63714 0.07773 0.6949 0.0
C476 C 0.44842 0.62037 0.9709 0.0
C477 C 0.47496 0.645 0.98816 0.0
H478 H 0.43296 0.57355 0.90055 0.0
C479 C 0.5075 0.63902 0.9592 0.0
H480 H 0.42317 0.62441 0.99342 0.0
C481 C 0.51315 0.61006 0.90758 0.0
C482 C 0.48633 0.5866 0.88348 0.0
H483 H 0.52847 0.65736 0.97372 0.0
H484 H 0.5383 0.60694 0.88219 0.0
C485 C 0.45406 0.59132 0.91833 0.0
C486 C 0.86682 0.41095 0.85212 0.0
C487 C 0.86157 0.42837 0.93803 0.0
H488 H 0.90017 0.40352 0.73458 0.0
C489 C 0.88776 0.45018 0.97588 0.0
H490 H 0.84695 0.39407 0.82168 0.0
C491 C 0.91801 0.45611 0.92533 0.0
C492 C 0.92267 0.43985 0.83715 0.0
H493 H 0.8841 0.46415 0.04168 0.0
H494 H 0.93716 0.47441 0.9532 0.0
C495 C 0.89728 0.41634 0.80265 0.0
C496 C 0.04119 0.1403 0.79343 0.0
C497 C 0.05239 0.16631 0.73171 0.0
H498 H 0.02566 0.08806 0.80755 0.0
C499 C 0.05695 0.15895 0.63422 0.0
H500 H 0.03801 0.14529 0.86927 0.0
C501 C 0.04954 0.12627 0.59865 0.0
C502 C 0.03833 0.10017 0.6604 0.0
H503 H 0.06585 0.17855 0.58551 0.0
H504 H 0.05268 0.12141 0.52276 0.0
C505 C 0.03453 0.1075 0.75832 0.0
C506 C 0.37551 0.0537 0.70298 0.0
C507 C 0.35487 0.02341 0.71079 0.0
H508 H 0.42375 0.07791 0.6672 0.0
C509 C 0.36848 0.99359 0.68232 0.0
H510 H 0.36675 0.07724 0.72611 0.0
C511 C 0.40194 0.99402 0.65103 0.0
C512 C 0.42245 0.02431 0.64568 0.0
H513 H 0.35356 0.96973 0.68583 0.0
H514 H 0.41192 0.97057 0.6334 0.0
C515 C 0.40862 0.05413 0.67026 0.0
C516 C 0.46227 0.35245 0.62478 0.0
C517 C 0.46736 0.34474 0.72035 0.0
H518 H 0.46596 0.39048 0.51889 0.0
C519 C 0.4789 0.37047 0.78461 0.0
H520 H 0.45306 0.33305 0.57433 0.0
C521 C 0.48537 0.40336 0.75391 0.0
C522 C 0.48104 0.4111 0.65783 0.0
H523 H 0.48247 0.36518 0.85913 0.0
H524 H 0.49449 0.42258 0.80504 0.0
C525 C 0.46951 0.38528 0.59344 0.0
C526 C 0.16774 0.48409 0.64717 0.0
C527 C 0.17335 0.48622 0.74594 0.0
H528 H 0.13202 0.48277 0.53509 0.0
C529 C 0.14573 0.488 0.80856 0.0
H530 H 0.18845 0.48252 0.59723 0.0
C531 C 0.11325 0.48759 0.7732 0.0
C532 C 0.10767 0.48578 0.6743 0.0
H533 H 0.14915 0.48899 0.88521 0.0
H534 H 0.0926 0.48907 0.82335 0.0
C535 C 0.13535 0.48416 0.61175 0.0
C536 C 0.97618 0.87004 0.28002 0.0
C537 C 0.97191 0.84231 0.3405 0.0
H538 H 0.98256 0.92338 0.26975 0.0
C539 C 0.96664 0.84804 0.43875 0.0
H540 H 0.98082 0.86673 0.20413 0.0
C541 C 0.96819 0.88063 0.47647 0.0
C542 C 0.97474 0.90829 0.41674 0.0
H543 H 0.9627 0.82733 0.48717 0.0
H544 H 0.96551 0.8841 0.55308 0.0
C545 C 0.97742 0.90266 0.3177 0.0
C546 C 0.63278 0.95667 0.33093 0.0
C547 C 0.64998 0.98885 0.32952 0.0
H548 H 0.58723 0.92687 0.36833 0.0
C549 C 0.63372 0.01602 0.36527 0.0
H550 H 0.64466 0.93533 0.30314 0.0
C551 C 0.60091 0.01134 0.40025 0.0
C552 C 0.58368 0.97926 0.40269 0.0
H553 H 0.64601 0.04121 0.36304 0.0
H554 H 0.58878 0.03309 0.42315 0.0
C555 C 0.59999 0.95187 0.36819 0.0
C556 C 0.54531 0.64405 0.31325 0.0
C557 C 0.54905 0.67124 0.37876 0.0
H558 H 0.53858 0.59082 0.29337 0.0
C559 C 0.55312 0.66467 0.47581 0.0
H560 H 0.54161 0.64808 0.23808 0.0
C561 C 0.55084 0.63179 0.50758 0.0
C562 C 0.5447 0.60467 0.44297 0.0
H563 H 0.55656 0.68496 0.52795 0.0
H564 H 0.55262 0.6277 0.58348 0.0
C565 C 0.5433 0.61112 0.345 0.0
C566 C 0.87995 0.54062 0.33323 0.0
C567 C 0.85189 0.51986 0.36567 0.0
H568 H 0.93282 0.55393 0.34318 0.0
C569 C 0.85619 0.49856 0.44231 0.0
H570 H 0.87777 0.55796 0.27613 0.0
C571 C 0.88758 0.49705 0.48237 0.0
C572 C 0.91579 0.51619 0.44573 0.0
H573 H 0.83576 0.48153 0.46864 0.0
H574 H 0.88998 0.47949 0.53892 0.0
C575 C 0.91158 0.53848 0.37197 0.0
loop_
_geom_bond_atom_site_label_1
_geom_bond_atom_site_label_2
_geom_bond_distance
_geom_bond_site_symmetry_2
_ccdc_geom_bond_type
P0 O11 1.490 . S
P0 C14 1.812 . S
P0 C20 1.803 . S
P0 C26 1.819 1_554 S
H1 C15 0.941 . S
H2 C16 0.939 . S
H3 C18 0.940 . S
H4 C19 0.940 . S
H5 C21 0.939 . S
H6 C22 0.942 . S
H7 C24 0.940 . S
H8 C25 0.939 . S
H9 C27 0.941 . S
H10 C31 0.939 . S
O11 P0 1.490 . S
H12 C28 0.939 . S
H13 C30 0.940 . S
C14 P0 1.812 . S
C14 C15 1.389 . S
C14 C19 1.391 . S
C15 H1 0.941 . S
C15 C14 1.389 . S
C15 C16 1.397 . S
C16 H2 0.939 . S
C16 C15 1.397 . S
C16 C17 1.378 . S
C17 C16 1.378 . S
C17 C18 1.378 . S
C18 H3 0.940 . S
C18 C17 1.378 . S
C18 C19 1.396 . S
C19 H4 0.940 . S
C19 C14 1.391 . S
C19 C18 1.396 . S
C20 P0 1.803 . S
C20 C21 1.378 1_554 S
C20 C25 1.400 . S
C21 H5 0.939 . S
C21 C20 1.378 1_556 S
C21 C22 1.361 . S
C22 H6 0.942 . S
C22 C21 1.361 . S
C22 C23 1.369 . S
C23 C22 1.369 . S
C23 C24 1.404 1_556 S
C24 H7 0.940 . S
C24 C23 1.404 1_554 S
C24 C25 1.389 . S
C25 H8 0.939 . S
C25 C20 1.400 . S
C25 C24 1.389 . S
C26 P0 1.819 1_556 S
C26 C27 1.391 . S
C26 C31 1.391 . S
C27 H9 0.941 . S
C27 C26 1.391 . S
C27 C28 1.396 . S
C28 H12 0.939 . S
C28 C27 1.396 . S
C28 C29 1.397 . S
C29 C28 1.397 . S
C29 C30 1.385 . S
C30 H13 0.940 . S
C30 C29 1.385 . S
C30 C31 1.388 . S
C31 H10 0.939 . S
C31 C26 1.391 . S
C31 C30 1.388 . S
P32 O43 1.490 1_655 S
P32 C46 1.812 . S
P32 C52 1.803 . S
P32 C58 1.819 1_554 S
H33 C47 0.941 1_455 S
H34 C48 0.939 . S
H35 C50 0.940 . S
H36 C51 0.940 . S
H37 C53 0.939 1_455 S
H38 C54 0.942 . S
H39 C56 0.940 . S
H40 C57 0.939 . S
H41 C59 0.941 1_455 S
H42 C63 0.939 . S
O43 P32 1.490 1_455 S
H44 C60 0.939 . S
H45 C62 0.940 . S
C46 P32 1.812 . S
C46 C47 1.389 . S
C46 C51 1.391 . S
C47 H33 0.941 1_655 S
C47 C46 1.389 . S
C47 C48 1.397 . S
C48 H34 0.939 . S
C48 C47 1.397 . S
C48 C49 1.378 . S
C49 C48 1.378 . S
C49 C50 1.378 . S
C50 H35 0.940 . S
C50 C49 1.378 . S
C50 C51 1.396 . S
C51 H36 0.940 . S
C51 C46 1.391 . S
C51 C50 1.396 . S
C52 P32 1.803 . S
C52 C53 1.378 1_554 S
C52 C57 1.400 . S
C53 H37 0.939 1_655 S
C53 C52 1.378 1_556 S
C53 C54 1.361 . S
C54 H38 0.942 . S
C54 C53 1.361 . S
C54 C55 1.369 . S
C55 C54 1.369 . S
C55 C56 1.404 1_556 S
C56 H39 0.940 . S
C56 C55 1.404 1_554 S
C56 C57 1.389 . S
C57 H40 0.939 . S
C57 C52 1.400 . S
C57 C56 1.389 . S
C58 P32 1.819 1_556 S
C58 C59 1.391 . S
C58 C63 1.391 . S
C59 H41 0.941 1_655 S
C59 C58 1.391 . S
C59 C60 1.396 . S
C60 H44 0.939 . S
C60 C59 1.396 . S
C60 C61 1.397 . S
C61 C60 1.397 . S
C61 C62 1.385 . S
C62 H45 0.940 . S
C62 C61 1.385 . S
C62 C63 1.388 . S
C63 H42 0.939 . S
C63 C58 1.391 . S
C63 C62 1.388 . S
P64 O75 1.490 . S
P64 C78 1.812 . S
P64 C84 1.803 . S
P64 C90 1.819 1_554 S
H65 C79 0.941 . S
H66 C80 0.939 . S
H67 C82 0.940 . S
H68 C83 0.950 . S
H69 C85 0.939 . S
H70 C86 0.942 . S
H71 C88 0.940 . S
H72 C89 0.958 . S
H73 C91 0.941 1_554 S
H74 C95 0.926 1_565 S
O75 P64 1.490 . S
H76 C92 0.939 . S
H77 C94 0.940 . S
C78 P64 1.812 . S
C78 C79 1.389 . S
C78 C83 1.376 1_545 S
C79 H65 0.941 . S
C79 C78 1.389 . S
C79 C80 1.397 . S
C80 H66 0.939 . S
C80 C79 1.397 . S
C80 C81 1.378 . S
C81 C80 1.378 . S
C81 C82 1.378 1_545 S
C82 H67 0.940 . S
C82 C81 1.378 1_565 S
C82 C83 1.402 . S
C83 H68 0.950 . S
C83 C78 1.376 1_565 S
C83 C82 1.402 . S
C84 P64 1.803 . S
C84 C85 1.378 1_554 S
C84 C89 1.367 1_545 S
C85 H69 0.939 . S
C85 C84 1.378 1_556 S
C85 C86 1.361 . S
C86 H70 0.942 . S
C86 C85 1.361 . S
C86 C87 1.369 . S
C87 C86 1.369 . S
C87 C88 1.404 1_546 S
C88 H71 0.940 . S
C88 C87 1.404 1_564 S
C88 C89 1.405 . S
C89 H72 0.958 . S
C89 C84 1.367 1_565 S
C89 C88 1.405 . S
C90 P64 1.819 1_556 S
C90 C91 1.391 . S
C90 C95 1.391 . S
C91 H73 0.941 1_556 S
C91 C90 1.391 . S
C91 C92 1.396 . S
C92 H76 0.939 . S
C92 C91 1.396 . S
C92 C93 1.397 . S
C93 C92 1.397 . S
C93 C94 1.385 1_545 S
C94 H77 0.940 . S
C94 C93 1.385 1_565 S
C94 C95 1.388 1_565 S
C95 H74 0.926 1_545 S
C95 C90 1.391 . S
C95 C94 1.388 1_545 S
P96 O107 1.490 . S
P96 C110 1.812 . S
P96 C116 1.803 . S
P96 C122 1.819 1_554 S
H97 C111 0.941 . S
H98 C112 0.939 . S
H99 C114 0.940 . S
H100 C115 0.940 . S
H101 C117 0.939 1_556 S
H102 C118 0.942 . S
H103 C120 0.940 . S
H104 C121 0.939 . S
H105 C123 0.941 1_554 S
H106 C127 0.939 . S
O107 P96 1.490 . S
H108 C124 0.939 . S
H109 C126 0.940 . S
C110 P96 1.812 . S
C110 C111 1.389 . S
C110 C115 1.391 . S
C111 H97 0.941 . S
C111 C110 1.389 . S
C111 C112 1.397 . S
C112 H98 0.939 . S
C112 C111 1.397 . S
C112 C113 1.378 . S
C113 C112 1.378 . S
C113 C114 1.378 . S
C114 H99 0.940 . S
C114 C113 1.378 . S
C114 C115 1.396 . S
C115 H100 0.940 . S
C115 C110 1.391 . S
C115 C114 1.396 . S
C116 P96 1.803 . S
C116 C117 1.378 . S
C116 C121 1.400 . S
C117 H101 0.939 1_554 S
C117 C116 1.378 . S
C117 C118 1.361 1_554 S
C118 H102 0.942 . S
C118 C117 1.361 1_556 S
C118 C119 1.369 1_556 S
C119 C118 1.369 1_554 S
C119 C120 1.404 . S
C120 H103 0.940 . S
C120 C119 1.404 . S
C120 C121 1.389 . S
C121 H104 0.939 . S
C121 C116 1.400 . S
C121 C120 1.389 . S
C122 P96 1.819 1_556 S
C122 C123 1.391 . S
C122 C127 1.391 . S
C123 H105 0.941 1_556 S
C123 C122 1.391 . S
C123 C124 1.396 . S
C124 H108 0.939 . S
C124 C123 1.396 . S
C124 C125 1.397 . S
C125 C124 1.397 . S
C125 C126 1.385 . S
C126 H109 0.940 . S
C126 C125 1.385 . S
C126 C127 1.388 . S
C127 H106 0.939 . S
C127 C122 1.391 . S
C127 C126 1.388 . S
P128 O139 1.490 . S
P128 C142 1.812 1_554 S
P128 C148 1.803 . S
P128 C154 1.819 . S
H129 C143 0.941 . S
H130 C144 0.939 . S
H131 C146 0.940 . S
H132 C147 0.940 . S
H133 C149 0.939 . S
H134 C150 0.942 . S
H135 C152 0.940 . S
H136 C153 0.939 . S
H137 C155 0.941 . S
H138 C159 0.939 . S
O139 P128 1.490 . S
H140 C156 0.939 . S
H141 C158 0.940 . S
C142 P128 1.812 1_556 S
C142 C143 1.389 . S
C142 C147 1.391 . S
C143 H129 0.941 . S
C143 C142 1.389 . S
C143 C144 1.397 . S
C144 H130 0.939 . S
C144 C143 1.397 . S
C144 C145 1.378 . S
C145 C144 1.378 . S
C145 C146 1.378 . S
C146 H131 0.940 . S
C146 C145 1.378 . S
C146 C147 1.396 . S
C147 H132 0.940 . S
C147 C142 1.391 . S
C147 C146 1.396 . S
C148 P128 1.803 . S
C148 C149 1.378 . S
C148 C153 1.400 . S
C149 H133 0.939 . S
C149 C148 1.378 . S
C149 C150 1.361 . S
C150 H134 0.942 . S
C150 C149 1.361 . S
C150 C151 1.369 . S
C151 C150 1.369 . S
C151 C152 1.404 . S
C152 H135 0.940 . S
C152 C151 1.404 . S
C152 C153 1.389 . S
C153 H136 0.939 . S
C153 C148 1.400 . S
C153 C152 1.389 . S
C154 P128 1.819 . S
C154 C155 1.391 . S
C154 C159 1.391 . S
C155 H137 0.941 . S
C155 C154 1.391 . S
C155 C156 1.396 . S
C156 H140 0.939 . S
C156 C155 1.396 . S
C156 C157 1.397 . S
C157 C156 1.397 . S
C157 C158 1.385 . S
C158 H141 0.940 . S
C158 C157 1.385 . S
C158 C159 1.388 . S
C159 H138 0.939 . S
C159 C154 1.391 . S
C159 C158 1.388 . S
P160 O171 1.490 . S
P160 C174 1.812 1_554 S
P160 C180 1.803 . S
P160 C186 1.819 . S
H161 C175 0.941 . S
H162 C176 0.939 . S
H163 C178 0.940 . S
H164 C179 0.940 1_554 S
H165 C181 0.939 . S
H166 C182 0.942 . S
H167 C184 0.940 . S
H168 C185 0.939 . S
H169 C187 0.941 . S
H170 C191 0.939 . S
O171 P160 1.490 . S
H172 C188 0.939 . S
H173 C190 0.940 . S
C174 P160 1.812 1_556 S
C174 C175 1.389 . S
C174 C179 1.391 . S
C175 H161 0.941 . S
C175 C174 1.389 . S
C175 C176 1.397 . S
C176 H162 0.939 . S
C176 C175 1.397 . S
C176 C177 1.378 . S
C177 C176 1.378 . S
C177 C178 1.378 . S
C178 H163 0.940 . S
C178 C177 1.378 . S
C178 C179 1.396 . S
C179 H164 0.940 1_556 S
C179 C174 1.391 . S
C179 C178 1.396 . S
C180 P160 1.803 . S
C180 C181 1.378 . S
C180 C185 1.400 . S
C181 H165 0.939 . S
C181 C180 1.378 . S
C181 C182 1.361 . S
C182 H166 0.942 . S
C182 C181 1.361 . S
C182 C183 1.369 . S
C183 C182 1.369 . S
C183 C184 1.404 . S
C184 H167 0.940 . S
C184 C183 1.404 . S
C184 C185 1.389 . S
C185 H168 0.939 . S
C185 C180 1.400 . S
C185 C184 1.389 . S
C186 P160 1.819 . S
C186 C187 1.391 . S
C186 C191 1.391 . S
C187 H169 0.941 . S
C187 C186 1.391 . S
C187 C188 1.396 . S
C188 H172 0.939 . S
C188 C187 1.396 . S
C188 C189 1.397 . S
C189 C188 1.397 . S
C189 C190 1.385 . S
C190 H173 0.940 . S
C190 C189 1.385 . S
C190 C191 1.388 . S
C191 H170 0.939 . S
C191 C186 1.391 . S
C191 C190 1.388 . S
P192 O203 1.490 . S
P192 C206 1.812 1_554 S
P192 C212 1.803 . S
P192 C218 1.819 . S
H193 C207 0.941 . S
H194 C208 0.939 . S
H195 C210 0.940 . S
H196 C211 0.946 . S
H197 C213 0.939 . S
H198 C214 0.942 . S
H199 C216 0.940 . S
H200 C217 0.956 . S
H201 C219 0.941 . S
H202 C223 0.934 1_565 S
O203 P192 1.490 . S
H204 C220 0.939 . S
H205 C222 0.940 . S
C206 P192 1.812 1_556 S
C206 C207 1.389 . S
C206 C211 1.382 1_545 S
C207 H193 0.941 . S
C207 C206 1.389 . S
C207 C208 1.397 . S
C208 H194 0.939 . S
C208 C207 1.397 . S
C208 C209 1.378 . S
C209 C208 1.378 . S
C209 C210 1.378 1_545 S
C210 H195 0.940 . S
C210 C209 1.378 1_565 S
C210 C211 1.400 . S
C211 H196 0.946 . S
C211 C206 1.382 1_565 S
C211 C210 1.400 . S
C212 P192 1.803 . S
C212 C213 1.378 . S
C212 C217 1.377 1_545 S
C213 H197 0.939 . S
C213 C212 1.378 . S
C213 C214 1.361 . S
C214 H198 0.942 . S
C214 C213 1.361 . S
C214 C215 1.369 . S
C215 C214 1.369 . S
C215 C216 1.404 1_545 S
C216 H199 0.940 . S
C216 C215 1.404 1_565 S
C216 C217 1.397 . S
C217 H200 0.956 . S
C217 C212 1.377 1_565 S
C217 C216 1.397 . S
C218 P192 1.819 . S
C218 C219 1.391 . S
C218 C223 1.391 . S
C219 H201 0.941 . S
C219 C218 1.391 . S
C219 C220 1.396 . S
C220 H204 0.939 . S
C220 C219 1.396 . S
C220 C221 1.397 . S
C221 C220 1.397 . S
C221 C222 1.385 1_545 S
C222 H205 0.940 . S
C222 C221 1.385 1_565 S
C222 C223 1.388 1_565 S
C223 H202 0.934 1_545 S
C223 C218 1.391 . S
C223 C222 1.388 1_545 S
P224 O235 1.490 . S
P224 C238 1.812 1_554 S
P224 C244 1.803 . S
P224 C250 1.819 . S
H225 C239 0.941 . S
H226 C240 0.939 . S
H227 C242 0.940 . S
H228 C243 0.940 . S
H229 C245 0.939 . S
H230 C246 0.942 . S
H231 C248 0.940 . S
H232 C249 0.939 1_556 S
H233 C251 0.941 . S
H234 C255 0.939 . S
O235 P224 1.490 . S
H236 C252 0.939 . S
H237 C254 0.940 . S
C238 P224 1.812 1_556 S
C238 C239 1.389 . S
C238 C243 1.391 . S
C239 H225 0.941 . S
C239 C238 1.389 . S
C239 C240 1.397 . S
C240 H226 0.939 . S
C240 C239 1.397 . S
C240 C241 1.378 . S
C241 C240 1.378 . S
C241 C242 1.378 . S
C242 H227 0.940 . S
C242 C241 1.378 . S
C242 C243 1.396 . S
C243 H228 0.940 . S
C243 C238 1.391 . S
C243 C242 1.396 . S
C244 P224 1.803 . S
C244 C245 1.378 . S
C244 C249 1.400 . S
C245 H229 0.939 . S
C245 C244 1.378 . S
C245 C246 1.361 . S
C246 H230 0.942 . S
C246 C245 1.361 . S
C246 C247 1.369 . S
C247 C246 1.369 . S
C247 C248 1.404 . S
C248 H231 0.940 . S
C248 C247 1.404 . S
C248 C249 1.389 . S
C249 H232 0.939 1_554 S
C249 C244 1.400 . S
C249 C248 1.389 . S
C250 P224 1.819 . S
C250 C251 1.391 . S
C250 C255 1.391 . S
C251 H233 0.941 . S
C251 C250 1.391 . S
C251 C252 1.396 . S
C252 H236 0.939 . S
C252 C251 1.396 . S
C252 C253 1.397 . S
C253 C252 1.397 . S
C253 C254 1.385 . S
C254 H237 0.940 . S
C254 C253 1.385 . S
C254 C255 1.388 . S
C255 H234 0.939 . S
C255 C250 1.391 . S
C255 C254 1.388 . S
Dy256 O260 2.398 . S
Dy256 O261 2.491 1_455 S
Dy256 O262 2.403 . S
Dy256 O263 2.664 1_565 S
Dy256 O267 2.326 . S
Dy256 O271 2.310 1_455 S
Dy256 O272 2.351 1_565 S
C257 O268 1.185 1_455 S
C257 O269 1.355 . S
C258 O260 1.185 . S
C258 O261 1.355 1_455 S
Dy259 O263 2.310 1_655 S
Dy259 O266 2.351 1_545 S
Dy259 O268 2.398 . S
Dy259 O269 2.491 1_655 S
Dy259 O270 2.403 . S
Dy259 O271 2.664 1_545 S
Dy259 O273 2.326 1_655 S
O260 Dy256 2.398 . S
O260 C258 1.185 . S
O261 Dy256 2.491 1_655 S
O261 C258 1.355 1_655 S
O262 Dy256 2.403 . S
O262 C264 1.254 . S
O263 Dy256 2.664 1_545 S
O263 Dy259 2.310 1_455 S
O263 C264 1.268 1_545 S
C264 O262 1.254 . S
C264 O263 1.268 1_565 S
C265 O270 1.254 . S
C265 O271 1.268 1_545 S
O266 Dy259 2.351 1_565 S
O266 C274 1.249 . S
O267 Dy256 2.326 . S
O267 C274 1.267 1_455 S
O268 C257 1.185 1_655 S
O268 Dy259 2.398 . S
O269 C257 1.355 . S
O269 Dy259 2.491 1_455 S
O270 Dy259 2.403 . S
O270 C265 1.254 . S
O271 Dy256 2.310 1_655 S
O271 Dy259 2.664 1_565 S
O271 C265 1.268 1_565 S
O272 Dy256 2.351 1_545 S
O272 C275 1.249 . S
O273 Dy259 2.326 1_455 S
O273 C275 1.267 . S
C274 O266 1.249 . S
C274 O267 1.267 1_655 S
C275 O272 1.249 . S
C275 O273 1.267 . S
Dy276 O280 2.398 . S
Dy276 O281 2.491 . S
Dy276 O282 2.403 . S
Dy276 O283 2.664 . S
Dy276 O287 2.326 1_565 S
Dy276 O291 2.310 1_565 S
Dy276 O292 2.351 . S
C277 O288 1.185 . S
C277 O289 1.355 . S
C278 O280 1.185 . S
C278 O281 1.355 . S
Dy279 O283 2.310 1_545 S
Dy279 O286 2.351 . S
Dy279 O288 2.398 . S
Dy279 O289 2.491 . S
Dy279 O290 2.403 . S
Dy279 O291 2.664 . S
Dy279 O293 2.326 1_545 S
O280 Dy276 2.398 . S
O280 C278 1.185 . S
O281 Dy276 2.491 . S
O281 C278 1.355 . S
O282 Dy276 2.403 . S
O282 C284 1.254 . S
O283 Dy276 2.664 . S
O283 Dy279 2.310 1_565 S
O283 C284 1.268 . S
C284 O282 1.254 . S
C284 O283 1.268 . S
C285 O290 1.254 . S
C285 O291 1.268 . S
O286 Dy279 2.351 . S
O286 C294 1.249 . S
O287 Dy276 2.326 1_545 S
O287 C294 1.267 . S
O288 C277 1.185 . S
O288 Dy279 2.398 . S
O289 C277 1.355 . S
O289 Dy279 2.491 . S
O290 Dy279 2.403 . S
O290 C285 1.254 . S
O291 Dy276 2.310 1_545 S
O291 Dy279 2.664 . S
O291 C285 1.268 . S
O292 Dy276 2.351 . S
O292 C295 1.249 . S
O293 Dy279 2.326 1_565 S
O293 C295 1.267 . S
C294 O286 1.249 . S
C294 O287 1.267 . S
C295 O292 1.249 . S
C295 O293 1.267 . S
Dy296 O300 2.398 . S
Dy296 O301 2.491 . S
Dy296 O302 2.403 . S
Dy296 O303 2.664 . S
Dy296 O307 2.326 . S
Dy296 O311 2.310 . S
Dy296 O312 2.351 . S
C297 O308 1.185 . S
C297 O309 1.355 . S
C298 O300 1.185 . S
C298 O301 1.355 . S
Dy299 O303 2.310 . S
Dy299 O306 2.351 . S
Dy299 O308 2.398 . S
Dy299 O309 2.491 . S
Dy299 O310 2.403 . S
Dy299 O311 2.664 . S
Dy299 O313 2.326 . S
O300 Dy296 2.398 . S
O300 C298 1.185 . S
O301 Dy296 2.491 . S
O301 C298 1.355 . S
O302 Dy296 2.403 . S
O302 C304 1.254 . S
O303 Dy296 2.664 . S
O303 Dy299 2.310 . S
O303 C304 1.268 . S
C304 O302 1.254 . S
C304 O303 1.268 . S
C305 O310 1.254 . S
C305 O311 1.268 . S
O306 Dy299 2.351 . S
O306 C314 1.249 . S
O307 Dy296 2.326 . S
O307 C314 1.267 . S
O308 C297 1.185 . S
O308 Dy299 2.398 . S
O309 C297 1.355 . S
O309 Dy299 2.491 . S
O310 Dy299 2.403 . S
O310 C305 1.254 . S
O311 Dy296 2.310 . S
O311 Dy299 2.664 . S
O311 C305 1.268 . S
O312 Dy296 2.351 . S
O312 C315 1.249 . S
O313 Dy299 2.326 . S
O313 C315 1.267 . S
C314 O306 1.249 . S
C314 O307 1.267 . S
C315 O312 1.249 . S
C315 O313 1.267 . S
Dy316 O320 2.398 . S
Dy316 O321 2.491 . S
Dy316 O322 2.403 . S
Dy316 O323 2.664 1_655 S
Dy316 O327 2.326 . S
Dy316 O331 2.310 . S
Dy316 O332 2.351 1_655 S
C317 O328 1.185 . S
C317 O329 1.355 . S
C318 O320 1.185 . S
C318 O321 1.355 . S
Dy319 O323 2.310 . S
Dy319 O326 2.351 1_455 S
Dy319 O328 2.398 . S
Dy319 O329 2.491 . S
Dy319 O330 2.403 . S
Dy319 O331 2.664 1_455 S
Dy319 O333 2.326 . S
O320 Dy316 2.398 . S
O320 C318 1.185 . S
O321 Dy316 2.491 . S
O321 C318 1.355 . S
O322 Dy316 2.403 . S
O322 C324 1.254 1_655 S
O323 Dy316 2.664 1_455 S
O323 Dy319 2.310 . S
O323 C324 1.268 . S
C324 O322 1.254 1_455 S
C324 O323 1.268 . S
C325 O330 1.254 1_655 S
C325 O331 1.268 . S
O326 Dy319 2.351 1_655 S
O326 C334 1.249 . S
O327 Dy316 2.326 . S
O327 C334 1.267 . S
O328 C317 1.185 . S
O328 Dy319 2.398 . S
O329 C317 1.355 . S
O329 Dy319 2.491 . S
O330 Dy319 2.403 . S
O330 C325 1.254 1_455 S
O331 Dy316 2.310 . S
O331 Dy319 2.664 1_655 S
O331 C325 1.268 . S
O332 Dy316 2.351 1_455 S
O332 C335 1.249 . S
O333 Dy319 2.326 . S
O333 C335 1.267 . S
C334 O326 1.249 . S
C334 O327 1.267 . S
C335 O332 1.249 . S
C335 O333 1.267 . S
C336 C337 1.364 1_545 S
C336 H340 0.950 . S
C336 C345 1.390 . S
C337 C336 1.364 1_565 S
C337 C339 1.411 . S
H338 C345 0.950 . S
C339 C337 1.411 . S
C339 C341 1.390 . S
C339 H343 0.950 . S
H340 C336 0.950 . S
C341 C339 1.390 . S
C341 C342 1.387 . S
C341 H344 0.950 . S
C342 C341 1.387 . S
C342 C345 1.387 1_565 S
H343 C339 0.950 . S
H344 C341 0.950 . S
C345 C336 1.390 . S
C345 H338 0.950 . S
C345 C342 1.387 1_545 S
C346 C347 1.387 . S
C346 H350 0.950 . S
C346 C355 1.390 . S
C347 C346 1.387 . S
C347 C349 1.387 . S
H348 C355 0.950 . S
C349 C347 1.387 . S
C349 C351 1.390 . S
C349 H353 0.950 . S
H350 C346 0.950 . S
C351 C349 1.390 . S
C351 C352 1.387 . S
C351 H354 0.950 . S
C352 C351 1.387 . S
C352 C355 1.387 . S
H353 C349 0.950 . S
H354 C351 0.950 . S
C355 C346 1.390 . S
C355 H348 0.950 . S
C355 C352 1.387 . S
C356 C357 1.387 . S
C356 H360 0.950 . S
C356 C365 1.390 . S
C357 C356 1.387 . S
C357 C359 1.387 . S
H358 C365 0.950 . S
C359 C357 1.387 . S
C359 C361 1.390 . S
C359 H363 0.950 . S
H360 C356 0.950 . S
C361 C359 1.390 . S
C361 C362 1.387 . S
C361 H364 0.950 . S
C362 C361 1.387 . S
C362 C365 1.387 . S
H363 C359 0.950 . S
H364 C361 0.950 . S
C365 C356 1.390 . S
C365 H358 0.950 . S
C365 C362 1.387 . S
C366 C367 1.387 . S
C366 H370 0.950 . S
C366 C375 1.390 . S
C367 C366 1.387 . S
C367 C369 1.387 . S
H368 C375 0.950 . S
C369 C367 1.387 . S
C369 C371 1.390 . S
C369 H373 0.950 . S
H370 C366 0.950 . S
C371 C369 1.390 . S
C371 C372 1.387 . S
C371 H374 0.950 1_455 S
C372 C371 1.387 . S
C372 C375 1.387 . S
H373 C369 0.950 . S
H374 C371 0.950 1_655 S
C375 C366 1.390 . S
C375 H368 0.950 . S
C375 C372 1.387 . S
C376 C377 1.387 . S
C376 H380 0.950 . S
C376 C385 1.390 . S
C377 C376 1.387 . S
C377 C379 1.387 1_545 S
H378 C385 0.950 . S
C379 C377 1.387 1_565 S
C379 C381 1.390 . S
C379 H383 0.950 . S
H380 C376 0.950 . S
C381 C379 1.390 . S
C381 C382 1.387 1_565 S
C381 H384 0.950 . S
C382 C381 1.387 1_545 S
C382 C385 1.387 . S
H383 C379 0.950 . S
H384 C381 0.950 . S
C385 C376 1.390 . S
C385 H378 0.950 . S
C385 C382 1.387 . S
C386 C387 1.387 . S
C386 H390 0.950 . S
C386 C395 1.390 . S
C387 C386 1.387 . S
C387 C389 1.387 . S
H388 C395 0.950 . S
C389 C387 1.387 . S
C389 C391 1.390 . S
C389 H393 0.950 . S
H390 C386 0.950 . S
C391 C389 1.390 . S
C391 C392 1.387 . S
C391 H394 0.950 . S
C392 C391 1.387 . S
C392 C395 1.387 . S
H393 C389 0.950 . S
H394 C391 0.950 . S
C395 C386 1.390 . S
C395 H388 0.950 . S
C395 C392 1.387 . S
C396 C397 1.387 . S
C396 H400 0.950 . S
C396 C405 1.390 . S
C397 C396 1.387 . S
C397 C399 1.387 . S
H398 C405 0.950 . S
C399 C397 1.387 . S
C399 C401 1.390 . S
C399 H403 0.950 . S
H400 C396 0.950 . S
C401 C399 1.390 . S
C401 C402 1.387 . S
C401 H404 0.950 . S
C402 C401 1.387 . S
C402 C405 1.387 . S
H403 C399 0.950 . S
H404 C401 0.950 . S
C405 C396 1.390 . S
C405 H398 0.950 . S
C405 C402 1.387 . S
C406 C407 1.387 . S
C406 H410 0.950 . S
C406 C415 1.390 . S
C407 C406 1.387 . S
C407 C409 1.387 . S
H408 C415 0.950 . S
C409 C407 1.387 . S
C409 C411 1.390 . S
C409 H413 0.950 . S
H410 C406 0.950 . S
C411 C409 1.390 . S
C411 C412 1.387 . S
C411 H414 0.950 . S
C412 C411 1.387 . S
C412 C415 1.387 . S
H413 C409 0.950 . S
H414 C411 0.950 . S
C415 C406 1.390 . S
C415 H408 0.950 . S
C415 C412 1.387 . S
C416 C417 1.387 . S
C416 H420 0.950 . S
C416 C425 1.390 . S
C417 C416 1.387 . S
C417 C419 1.387 . S
H418 C425 0.950 . S
C419 C417 1.387 . S
C419 C421 1.390 . S
C419 H423 0.950 . S
H420 C416 0.950 . S
C421 C419 1.390 . S
C421 C422 1.387 . S
C421 H424 0.950 . S
C422 C421 1.387 . S
C422 C425 1.387 . S
H423 C419 0.950 . S
H424 C421 0.950 . S
C425 C416 1.390 . S
C425 H418 0.950 . S
C425 C422 1.387 . S
C426 C427 1.385 1_565 S
C426 H430 0.950 . S
C426 C435 1.390 . S
C427 C426 1.385 1_545 S
C427 C429 1.386 1_545 S
H428 C435 0.950 . S
C429 C427 1.386 1_565 S
C429 C431 1.390 . S
C429 H433 0.944 1_565 S
H430 C426 0.950 . S
C431 C429 1.390 . S
C431 C432 1.387 . S
C431 H434 0.950 . S
C432 C431 1.387 . S
C432 C435 1.387 . S
H433 C429 0.944 1_545 S
H434 C431 0.950 . S
C435 C426 1.390 . S
C435 H428 0.950 . S
C435 C432 1.387 . S
C436 C437 1.387 . S
C436 H440 0.950 . S
C436 C445 1.390 . S
C437 C436 1.387 . S
C437 C439 1.387 . S
H438 C445 0.950 . S
C439 C437 1.387 . S
C439 C441 1.390 . S
C439 H443 0.950 . S
H440 C436 0.950 . S
C441 C439 1.390 . S
C441 C442 1.387 . S
C441 H444 0.950 . S
C442 C441 1.387 . S
C442 C445 1.387 . S
H443 C439 0.950 . S
H444 C441 0.950 . S
C445 C436 1.390 . S
C445 H438 0.950 . S
C445 C442 1.387 . S
C446 C447 1.387 . S
C446 H450 0.950 . S
C446 C455 1.390 . S
C447 C446 1.387 . S
C447 C449 1.387 . S
H448 C455 0.950 . S
C449 C447 1.387 . S
C449 C451 1.390 . S
C449 H453 0.950 . S
H450 C446 0.950 . S
C451 C449 1.390 . S
C451 C452 1.387 . S
C451 H454 0.950 . S
C452 C451 1.387 . S
C452 C455 1.387 . S
H453 C449 0.950 . S
H454 C451 0.950 . S
C455 C446 1.390 . S
C455 H448 0.950 . S
C455 C452 1.387 . S
C456 C457 1.387 . S
C456 H460 0.950 . S
C456 C465 1.390 . S
C457 C456 1.387 . S
C457 C459 1.387 . S
H458 C465 0.950 . S
C459 C457 1.387 . S
C459 C461 1.390 . S
C459 H463 0.950 . S
H460 C456 0.950 . S
C461 C459 1.390 . S
C461 C462 1.387 . S
C461 H464 0.950 1_655 S
C462 C461 1.387 . S
C462 C465 1.387 . S
H463 C459 0.950 . S
H464 C461 0.950 1_455 S
C465 C456 1.390 . S
C465 H458 0.950 . S
C465 C462 1.387 . S
C466 C467 1.387 . S
C466 H470 0.950 . S
C466 C475 1.390 . S
C467 C466 1.387 . S
C467 C469 1.388 1_545 S
H468 C475 0.950 . S
C469 C467 1.388 1_565 S
C469 C471 1.390 1_565 S
C469 H473 0.950 . S
H470 C466 0.950 . S
C471 C469 1.390 1_545 S
C471 C472 1.387 . S
C471 H474 0.950 . S
C472 C471 1.387 . S
C472 C475 1.387 . S
H473 C469 0.950 . S
H474 C471 0.950 . S
C475 C466 1.390 . S
C475 H468 0.950 . S
C475 C472 1.387 . S
C476 C477 1.387 . S
C476 H480 0.950 . S
C476 C485 1.390 . S
C477 C476 1.387 . S
C477 C479 1.387 . S
H478 C485 0.950 . S
C479 C477 1.387 . S
C479 C481 1.390 . S
C479 H483 0.950 . S
H480 C476 0.950 . S
C481 C479 1.390 . S
C481 C482 1.387 . S
C481 H484 0.950 . S
C482 C481 1.387 . S
C482 C485 1.387 . S
H483 C479 0.950 . S
H484 C481 0.950 . S
C485 C476 1.390 . S
C485 H478 0.950 . S
C485 C482 1.387 . S
C486 C487 1.387 . S
C486 H490 0.950 . S
C486 C495 1.390 . S
C487 C486 1.387 . S
C487 C489 1.387 . S
H488 C495 0.950 . S
C489 C487 1.387 . S
C489 C491 1.390 . S
C489 H493 0.950 . S
H490 C486 0.950 . S
C491 C489 1.390 . S
C491 C492 1.387 . S
C491 H494 0.950 . S
C492 C491 1.387 . S
C492 C495 1.387 . S
H493 C489 0.950 . S
H494 C491 0.950 . S
C495 C486 1.390 . S
C495 H488 0.950 . S
C495 C492 1.387 . S
C496 C497 1.387 . S
C496 H500 0.950 . S
C496 C505 1.390 . S
C497 C496 1.387 . S
C497 C499 1.387 . S
H498 C505 0.950 . S
C499 C497 1.387 . S
C499 C501 1.390 . S
C499 H503 0.950 . S
H500 C496 0.950 . S
C501 C499 1.390 . S
C501 C502 1.387 . S
C501 H504 0.950 . S
C502 C501 1.387 . S
C502 C505 1.387 . S
H503 C499 0.950 . S
H504 C501 0.950 . S
C505 C496 1.390 . S
C505 H498 0.950 . S
C505 C502 1.387 . S
C506 C507 1.387 . S
C506 H510 0.950 . S
C506 C515 1.390 . S
C507 C506 1.387 . S
C507 C509 1.387 1_545 S
H508 C515 0.950 . S
C509 C507 1.387 1_565 S
C509 C511 1.390 . S
C509 H513 0.950 . S
H510 C506 0.950 . S
C511 C509 1.390 . S
C511 C512 1.387 1_565 S
C511 H514 0.950 . S
C512 C511 1.387 1_545 S
C512 C515 1.387 . S
H513 C509 0.950 . S
H514 C511 0.950 . S
C515 C506 1.390 . S
C515 H508 0.950 . S
C515 C512 1.387 . S
C516 C517 1.387 . S
C516 H520 0.950 . S
C516 C525 1.390 . S
C517 C516 1.387 . S
C517 C519 1.387 . S
H518 C525 0.950 . S
C519 C517 1.387 . S
C519 C521 1.390 . S
C519 H523 0.950 . S
H520 C516 0.950 . S
C521 C519 1.390 . S
C521 C522 1.387 . S
C521 H524 0.950 . S
C522 C521 1.387 . S
C522 C525 1.387 . S
H523 C519 0.950 . S
H524 C521 0.950 . S
C525 C516 1.390 . S
C525 H518 0.950 . S
C525 C522 1.387 . S
C526 C527 1.387 . S
C526 H530 0.950 . S
C526 C535 1.390 . S
C527 C526 1.387 . S
C527 C529 1.387 . S
H528 C535 0.950 . S
C529 C527 1.387 . S
C529 C531 1.390 . S
C529 H533 0.950 . S
H530 C526 0.950 . S
C531 C529 1.390 . S
C531 C532 1.387 . S
C531 H534 0.950 . S
C532 C531 1.387 . S
C532 C535 1.387 . S
H533 C529 0.950 . S
H534 C531 0.950 . S
C535 C526 1.390 . S
C535 H528 0.950 . S
C535 C532 1.387 . S
C536 C537 1.387 . S
C536 H540 0.950 . S
C536 C545 1.390 . S
C537 C536 1.387 . S
C537 C539 1.387 . S
H538 C545 0.950 . S
C539 C537 1.387 . S
C539 C541 1.390 . S
C539 H543 0.950 . S
H540 C536 0.950 . S
C541 C539 1.390 . S
C541 C542 1.387 . S
C541 H544 0.950 . S
C542 C541 1.387 . S
C542 C545 1.387 . S
H543 C539 0.950 . S
H544 C541 0.950 . S
C545 C536 1.390 . S
C545 H538 0.950 . S
C545 C542 1.387 . S
C546 C547 1.387 . S
C546 H550 0.950 . S
C546 C555 1.390 . S
C547 C546 1.387 . S
C547 C549 1.387 1_565 S
H548 C555 0.950 . S
C549 C547 1.387 1_545 S
C549 C551 1.390 . S
C549 H553 0.950 . S
H550 C546 0.950 . S
C551 C549 1.390 . S
C551 C552 1.387 1_545 S
C551 H554 0.950 . S
C552 C551 1.387 1_565 S
C552 C555 1.387 . S
H553 C549 0.950 . S
H554 C551 0.950 . S
C555 C546 1.390 . S
C555 H548 0.950 . S
C555 C552 1.387 . S
C556 C557 1.387 . S
C556 H560 0.950 . S
C556 C565 1.390 . S
C557 C556 1.387 . S
C557 C559 1.387 . S
H558 C565 0.950 . S
C559 C557 1.387 . S
C559 C561 1.390 . S
C559 H563 0.950 . S
H560 C556 0.950 . S
C561 C559 1.390 . S
C561 C562 1.387 . S
C561 H564 0.950 . S
C562 C561 1.387 . S
C562 C565 1.387 . S
H563 C559 0.950 . S
H564 C561 0.950 . S
C565 C556 1.390 . S
C565 H558 0.950 . S
C565 C562 1.387 . S
C566 C567 1.387 . S
C566 H570 0.950 . S
C566 C575 1.390 . S
C567 C566 1.387 . S
C567 C569 1.387 . S
H568 C575 0.950 . S
C569 C567 1.387 . S
C569 C571 1.390 . S
C569 H573 0.950 . S
H570 C566 0.950 . S
C571 C569 1.390 . S
C571 C572 1.387 . S
C571 H574 0.950 . S
C572 C571 1.387 . S
C572 C575 1.387 . S
H573 C569 0.950 . S
H574 C571 0.950 . S
C575 C566 1.390 . S
C575 H568 0.950 . S
C575 C572 1.387 . S
C337 C215 1.759 1_565 S
C342 C264 1.892 . S
C352 C294 2.248 . S
C347 C247 2.205 . S
C362 C304 1.952 . S
C357 C151 1.746 . S
C372 C324 1.871 . S
C367 C183 1.756 . S
C382 C265 1.891 . S
C377 C87 1.749 . S
C387 C119 2.016 1_556 S
C392 C295 2.251 . S
C397 C23 1.876 . S
C402 C305 1.952 . S
C407 C55 1.610 . S
C412 C325 1.872 . S
C422 C257 1.102 . S
C417 C189 1.115 . S
C432 C278 0.730 . S
C427 C221 0.734 . S
C442 C297 1.306 . S
C437 C253 1.316 . S
C447 C157 0.806 . S
C452 C317 0.822 . S
C457 C61 0.953 . S
C462 C258 1.104 1_655 S
C472 C277 0.729 . S
C467 C93 0.728 . S
C482 C298 1.306 . S
C477 C125 1.084 . S
C487 C29 0.814 . S
C492 C318 0.822 . S
C497 C177 2.127 . S
C502 C275 2.316 . S
C507 C209 1.822 . S
C512 C285 2.112 . S
C522 C315 2.513 . S
C517 C241 2.304 . S
C532 C335 2.419 . S
C527 C145 2.113 . S
C537 C49 2.031 . S
C542 C274 2.323 . S
C552 C284 2.111 . S
C547 C81 1.838 1_565 S
C562 C314 2.513 . S
C557 C113 2.166 . S
C567 C17 2.258 . S
C572 C334 2.418 . S
