# Generated by pormake.
# Topology zzz, (3,6)-cn, num edge types: 1
# Building blocks:
#     Node 0, Type 0, BuildingBlock: BETDAH_clean_linker_0, # of connection points: 3
#     Node 1, Type 0, BuildingBlock: BETDAH_clean_linker_0, # of connection points: 3
#     Node 2, Type 0, BuildingBlock: BETDAH_clean_linker_0, # of connection points: 3
#     Node 3, Type 0, BuildingBlock: BETDAH_clean_linker_0, # of connection points: 3
#     Node 4, Type 0, BuildingBlock: BETDAH_clean_linker_0, # of connection points: 3
#     Node 5, Type 0, BuildingBlock: BETDAH_clean_linker_0, # of connection points: 3
#     Node 6, Type 0, BuildingBlock: BETDAH_clean_linker_0, # of connection points: 3
#     Node 7, Type 0, BuildingBlock: BETDAH_clean_linker_0, # of connection points: 3
#     Node 8, Type 1, BuildingBlock: BETFEN_clean_sbu_0, # of connection points: 6
#     Node 9, Type 1, BuildingBlock: BETFEN_clean_sbu_0, # of connection points: 6
#     Node 10, Type 1, BuildingBlock: BETFEN_clean_sbu_0, # of connection points: 6
#     Node 11, Type 1, BuildingBlock: BETFEN_clean_sbu_0, # of connection points: 6
#     Edge 12, Type (0, 1), None
#     Edge 13, Type (0, 1), None
#     Edge 14, Type (0, 1), None
#     Edge 15, Type (0, 1), None
#     Edge 16, Type (0, 1), None
#     Edge 17, Type (0, 1), None
#     Edge 18, Type (0, 1), None
#     Edge 19, Type (0, 1), None
#     Edge 20, Type (0, 1), None
#     Edge 21, Type (0, 1), None
#     Edge 22, Type (0, 1), None
#     Edge 23, Type (0, 1), None
#     Edge 24, Type (0, 1), None
#     Edge 25, Type (0, 1), None
#     Edge 26, Type (0, 1), None
#     Edge 27, Type (0, 1), None
#     Edge 28, Type (0, 1), None
#     Edge 29, Type (0, 1), None
#     Edge 30, Type (0, 1), None
#     Edge 31, Type (0, 1), None
#     Edge 32, Type (0, 1), None
#     Edge 33, Type (0, 1), None
#     Edge 34, Type (0, 1), None
#     Edge 35, Type (0, 1), None
# Relax obj value: 0.666
# Max RMSD: 0.259
# Mean RMSD: 0.150
data_MOF--net-zzz--node1-BETFEN_clean_sbu_0--node2-BETDAH_clean_linker_0--edge1-none
_symmetry_space_group_name_H-M    P1
_symmetry_Int_Tables_number       1
_symmetry_cell_setting            triclinic
loop_
_symmetry_equiv_pos_as_xyz
'x, y, z'
_cell_length_a     24.262542
_cell_length_b     24.225034
_cell_length_c     8.578841
_cell_angle_alpha  88.472026
_cell_angle_beta   90.414907
_cell_angle_gamma 90.069721
loop_
_atom_site_label
_atom_site_type_symbol
_atom_site_fract_x
_atom_site_fract_y
_atom_site_fract_z
_atom_type_partial_charge
H0 H 0.87723 0.502 0.43775 0.0
H1 H 0.70284 0.49497 0.50665 0.0
H2 H 0.80562 0.59237 0.80757 0.0
C3 C 0.84117 0.51481 0.50125 0.0
C4 C 0.84797 0.549 0.62652 0.0
C5 C 0.79012 0.49208 0.46373 0.0
C6 C 0.74294 0.50915 0.54267 0.0
C7 C 0.74815 0.54663 0.66518 0.0
C8 C 0.80114 0.56512 0.71016 0.0
N9 N 0.70052 0.57177 0.7273 0.0
C10 C 0.66726 0.54757 0.84213 0.0
H11 H 0.98337 0.86847 0.44081 0.0
H12 H 0.0622 0.72529 0.645 0.0
H13 H 0.96082 0.82752 -0.07572 0.0
C14 C 0.9876 0.83897 0.53764 0.0
C15 C 0.97198 0.85529 0.68471 0.0
C16 C 0.02465 0.79511 0.52447 0.0
C17 C 0.03224 0.7581 0.6522 0.0
C18 C 1.00434 0.76713 0.79372 0.0
C19 C 0.97572 0.81686 0.81019 0.0
N20 N 1.00976 0.73072 -0.07394 0.0
C21 C 0.02329 0.67546 0.9119 0.0
H22 H 0.67723 0.99043 0.4504 0.0
H23 H 0.81533 0.07802 0.64039 0.0
H24 H 0.71699 0.97235 -0.06517 0.0
C25 C 0.706 0.99687 0.5457 0.0
C26 C 0.68968 0.9812 0.69504 0.0
C27 C 0.74791 0.0363 0.52643 0.0
C28 C 0.784 0.04638 0.65214 0.0
C29 C 0.77547 1.01888 0.79763 0.0
C30 C 0.7273 0.9875 0.81874 0.0
N31 N 0.80952 0.02817 -0.06974 0.0
C32 C 0.86494 0.04216 0.92055 0.0
H33 H 0.54363 0.66784 0.46825 0.0
H34 H 0.46041 0.80962 0.64385 0.0
H35 H 0.56722 0.71267 -0.05715 0.0
C36 C 0.53858 0.69763 0.5593 0.0
C37 C 0.55698 0.68332 0.70849 0.0
C38 C 0.50006 0.74031 0.53723 0.0
C39 C 0.49129 0.77761 0.65802 0.0
C40 C 0.5195 0.76992 0.80201 0.0
C41 C 0.55108 0.72192 0.82701 0.0
N42 N 0.51127 0.80519 -0.0699 0.0
C43 C 0.49915 0.86106 0.91221 0.0
H44 H 0.16947 0.50681 0.11812 0.0
H45 H 0.31935 0.57812 -0.06023 0.0
H46 H 0.21789 0.47775 0.64867 0.0
C47 C 0.20053 0.50906 0.02771 0.0
C48 C 0.18688 0.49049 0.88085 0.0
C49 C 0.24584 0.54428 0.04682 0.0
C50 C 0.28518 0.54973 -0.07268 0.0
C51 C 0.27707 0.52166 0.78649 0.0
C52 C 0.22702 0.49359 0.76296 0.0
N53 N 0.31443 0.52663 0.65931 0.0
C54 C 0.37043 0.53802 0.67535 0.0
H55 H 0.05093 0.18091 0.09251 0.0
H56 H 0.96907 0.32119 0.8799 0.0
H57 H 0.07411 0.22016 0.60894 0.0
C58 C 0.04628 0.20994 -0.0053 0.0
C59 C 0.06245 0.19318 0.84874 0.0
C60 C 1.00833 0.25317 0.00555 0.0
C61 C 1.00012 0.28936 0.87577 0.0
C62 C 0.02885 0.28032 0.73562 0.0
C63 C 0.05865 0.23111 0.72218 0.0
N64 N 0.02259 0.31515 0.60015 0.0
C65 C 1.00815 0.37058 0.60465 0.0
H66 H 0.35934 0.0518 0.10996 0.0
H67 H 0.22127 0.96484 0.91737 0.0
H68 H 0.32189 0.06856 0.62407 0.0
C69 C 0.33088 0.04524 0.01395 0.0
C70 C 0.34827 0.05948 0.86468 0.0
C71 C 0.28887 1.00598 0.0327 0.0
C72 C 0.25293 0.99616 0.90618 0.0
C73 C 0.262 0.02365 0.76069 0.0
C74 C 0.31091 0.05385 0.74006 0.0
N75 N 0.22749 1.01559 0.62811 0.0
C76 C 0.17148 1.00443 0.63938 0.0
H77 H 0.48516 0.35204 0.15225 0.0
H78 H 0.58246 0.22573 -0.05556 0.0
H79 H 0.4661 0.31896 0.6685 0.0
C80 C 0.49292 0.32549 0.05472 0.0
C81 C 0.47549 0.34327 0.90741 0.0
C82 C 0.53661 0.28798 0.06648 0.0
C83 C 0.54805 0.25414 -0.06118 0.0
C84 C 0.51728 0.26152 0.79867 0.0
C85 C 0.48232 0.30753 0.78293 0.0
N86 N 0.52784 0.23095 0.66263 0.0
C87 C 0.54023 0.175 0.66274 0.0
Pr88 Pr 0.04415 1.00116 0.90413 0.0
Pr89 Pr 0.99025 0.04717 0.63272 0.0
C90 C 0.09472 0.95643 0.15925 0.0
C91 C 0.0939 0.90017 0.22881 0.0
C92 C 0.06044 0.85936 0.16365 0.0
C93 C 0.04794 0.81117 0.24987 0.0
C94 C 0.06708 0.80506 0.4044 0.0
C95 C 0.11078 0.83921 0.45238 0.0
C96 C 0.12292 0.88772 0.36681 0.0
C97 C 0.11297 0.99661 0.64978 0.0
C98 C 0.97363 0.91503 0.71383 0.0
C99 C 0.93947 0.09237 0.37816 0.0
C100 C 0.94047 0.14836 0.30626 0.0
C101 C 0.91087 0.1604 0.16892 0.0
C102 C 0.92271 0.20855 0.08126 0.0
C103 C 0.96636 0.24312 0.1271 0.0
C104 C 0.98608 0.23748 0.28126 0.0
C105 C 0.97419 0.18942 0.36901 0.0
C106 C 0.92256 0.05087 0.89288 0.0
C107 C 0.06095 0.13329 0.8211 0.0
O108 O 0.04882 0.98467 0.16623 0.0
O109 O 0.11763 0.96065 0.02302 0.0
O110 O 0.08394 0.03794 0.68088 0.0
O111 O 0.09615 0.95298 0.7254 0.0
O112 O 0.98182 0.95122 0.59764 0.0
O113 O 0.98308 0.92991 0.85718 0.0
O114 O 0.98493 0.06344 0.37042 0.0
O115 O 0.91718 0.08898 0.51535 0.0
O116 O 0.95105 1.00993 0.85639 0.0
O117 O 0.9369 0.09421 0.81174 0.0
O118 O 0.05236 0.09736 -0.06228 0.0
O119 O 0.05178 0.11805 0.67804 0.0
H120 H 0.03988 0.86723 0.05331 0.0
H121 H 1.01499 0.785 0.20866 0.0
H122 H 0.12746 0.8347 0.56958 0.0
H123 H 0.15121 0.91745 0.41492 0.0
H124 H 0.88216 0.13064 0.12311 0.0
H125 H 0.90556 0.21258 -0.0355 0.0
H126 H 0.01915 0.26385 0.32055 0.0
H127 H 0.99526 0.1819 0.47874 0.0
Pr128 Pr 0.53957 0.04199 -0.07822 0.0
Pr129 Pr 0.49761 0.99372 0.64478 0.0
C130 C 0.5801 0.08918 0.18027 0.0
C131 C 0.63711 0.09521 0.23796 0.0
C132 C 0.6799 0.06532 0.17069 0.0
C133 C 0.72993 0.05785 0.25081 0.0
C134 C 0.73576 0.07804 0.40218 0.0
C135 C 0.69904 0.11959 0.4479 0.0
C136 C 0.64873 0.1267 0.36857 0.0
C137 C 0.54795 0.11627 0.67305 0.0
C138 C 0.62976 0.97986 0.72558 0.0
C139 C 0.45554 0.94667 0.38721 0.0
C140 C 0.39878 0.94352 0.32473 0.0
C141 C 0.38699 0.9132 0.19193 0.0
C142 C 0.33738 0.92217 0.11035 0.0
C143 C 0.30118 0.96409 0.15665 0.0
C144 C 0.30717 0.98384 0.30853 0.0
C145 C 0.35657 0.97459 0.39058 0.0
C146 C 0.49112 0.91966 0.89539 0.0
C147 C 0.40825 0.05811 0.83643 0.0
O148 O 0.56028 0.03888 0.18024 0.0
O149 O 0.56857 0.11683 0.05236 0.0
O150 O 0.50621 0.08648 0.69978 0.0
O151 O 0.59012 0.09855 0.75238 0.0
O152 O 0.59395 0.98898 0.61021 0.0
O153 O 0.61393 0.98587 0.86967 0.0
O154 O 0.47855 0.9956 0.38502 0.0
O155 O 0.46409 0.91978 0.5182 0.0
O156 O 0.53244 0.94954 0.86572 0.0
O157 O 0.44824 0.93696 0.81833 0.0
O158 O 0.44315 0.04721 -0.04714 0.0
O159 O 0.42461 0.05198 0.69302 0.0
H160 H 0.67246 0.04318 0.06519 0.0
H161 H 0.75811 0.02675 0.21076 0.0
H162 H 0.70344 0.1376 0.56162 0.0
H163 H 0.61736 0.15278 0.41686 0.0
H164 H 0.41782 0.88637 0.1442 0.0
H165 H 0.33313 0.9048 -0.00426 0.0
H166 H 0.27959 1.0155 0.34851 0.0
H167 H 0.36408 0.99597 0.49731 0.0
Pr168 Pr 0.49951 0.53292 -0.0402 0.0
Pr169 Pr 0.55085 0.49177 0.70319 0.0
C170 C 0.4521 0.57289 0.21679 0.0
C171 C 0.44243 0.63073 0.26013 0.0
C172 C 0.4728 0.67361 0.18828 0.0
C173 C 0.47968 0.72387 0.26307 0.0
C174 C 0.45871 0.72964 0.4141 0.0
C175 C 0.41622 0.69339 0.46212 0.0
C176 C 0.40938 0.64299 0.38759 0.0
C177 C 0.42871 0.54436 0.70259 0.0
C178 C 0.5617 0.62369 0.74855 0.0
C179 C 0.61189 0.4346 0.49837 0.0
C180 C 0.60553 0.38627 0.39714 0.0
C181 C 0.62904 0.38625 0.24825 0.0
C182 C 0.61578 0.34431 0.14444 0.0
C183 C 0.57765 0.30263 0.18692 0.0
C184 C 0.56064 0.29875 0.34268 0.0
C185 C 0.57415 0.3404 0.44637 0.0
C186 C 0.63573 0.52413 -0.02974 0.0
C187 C 0.47628 0.40358 0.87717 0.0
O188 O 0.50377 0.55772 0.21236 0.0
O189 O 0.42366 0.55524 0.099 0.0
O190 O 0.45682 0.50171 0.73321 0.0
O191 O 0.4452 0.58517 0.78515 0.0
O192 O 0.55648 0.58642 0.63914 0.0
O193 O 0.55364 0.6089 0.89436 0.0
O194 O 0.58564 0.48021 0.4587 0.0
O195 O 0.6107 0.42407 0.64807 0.0
O196 O 0.59028 0.49807 -0.05485 0.0
O197 O 0.58995 0.4977 -0.05237 0.0
O198 O 0.48494 0.43725 -0.00606 0.0
O199 O 0.48669 0.42148 0.73483 0.0
H200 H 0.4963 0.66591 0.0849 0.0
H201 H 0.51116 0.75201 0.22027 0.0
H202 H 0.39721 0.698 0.57497 0.0
H203 H 0.38256 0.61187 0.43813 0.0
H204 H 0.65452 0.42053 0.20857 0.0
H205 H 0.62882 0.34913 0.02426 0.0
H206 H 0.53004 0.26831 0.37655 0.0
H207 H 0.55673 0.33901 0.56156 0.0
Pr208 Pr 0.9929 0.4931 0.89179 0.0
Pr209 Pr 0.04031 0.55255 0.63739 0.0
C210 C 0.94691 0.43655 0.13331 0.0
C211 C 0.88899 0.43156 0.18255 0.0
C212 C 0.84852 0.46618 0.11436 0.0
C213 C 0.79844 0.47406 0.19064 0.0
C214 C 0.79132 0.45069 0.34064 0.0
C215 C 0.82337 0.40378 0.38127 0.0
C216 C 0.87415 0.39623 0.30739 0.0
C217 C 0.99705 0.42776 0.63019 0.0
C218 C 0.90532 0.55696 0.67924 0.0
C219 C 0.08577 0.60956 0.39528 0.0
C220 C 0.14184 0.61066 0.33097 0.0
C221 C 0.1533 0.64034 0.19278 0.0
C222 C 0.20212 0.62996 0.11251 0.0
C223 C 0.23703 0.58663 0.1644 0.0
C224 C 0.23171 0.56698 0.31913 0.0
C225 C 0.18347 0.57809 0.40093 0.0
C226 C 0.03438 0.6178 0.89731 0.0
C227 C 0.12752 0.48661 0.84072 0.0
O228 O 0.97014 0.48502 0.14829 0.0
O229 O 0.95784 0.41481 0.00041 0.0
O230 O 0.03597 0.45788 0.6763 0.0
O231 O 0.95189 0.43954 0.70084 0.0
O232 O 0.94554 0.55454 0.57598 0.0
O233 O 0.91645 0.54687 0.82653 0.0
O234 O 0.05755 0.56396 0.37795 0.0
O235 O 0.08172 0.62854 0.53492 0.0
O236 O 0.99585 0.58748 0.85025 0.0
O237 O 0.08044 0.60474 0.83324 0.0
O238 O 0.08902 0.49181 -0.05135 0.0
O239 O 0.11383 0.49486 0.69437 0.0
H240 H 0.85762 0.4913 0.01192 0.0
H241 H 0.77219 0.50775 0.15029 0.0
H242 H 0.81669 0.38238 0.49207 0.0
H243 H 0.90362 0.36705 0.3572 0.0
H244 H 0.12263 0.66758 0.14017 0.0
H245 H 0.20609 0.64709 -0.00491 0.0
H246 H 0.25869 0.53456 0.36371 0.0
H247 H 0.17627 0.55699 0.51137 0.0
loop_
_geom_bond_atom_site_label_1
_geom_bond_atom_site_label_2
_geom_bond_distance
_geom_bond_site_symmetry_2
_ccdc_geom_bond_type
H0 C3 0.929 . S
H1 C6 0.929 . S
H2 C8 0.930 . S
C3 H0 0.929 . S
C3 C4 1.398 . S
C3 C5 1.396 . S
C4 C3 1.398 . S
C4 C8 1.407 . S
C5 C3 1.396 . S
C5 C6 1.394 . S
C6 H1 0.929 . S
C6 C5 1.394 . S
C6 C7 1.382 . S
C7 C6 1.382 . S
C7 C8 1.392 . S
C7 N9 1.420 . S
C8 H2 0.930 . S
C8 C4 1.407 . S
C8 C7 1.392 . S
N9 C7 1.420 . S
N9 C10 1.244 . S
C10 N9 1.244 . S
H11 C14 0.929 . S
H12 C17 0.929 . S
H13 C19 0.930 . S
C14 H11 0.929 . S
C14 C15 1.398 1_655 S
C14 C16 1.394 1_655 S
C15 C14 1.398 1_455 S
C15 C19 1.407 . S
C16 C14 1.394 1_455 S
C16 C17 1.398 . S
C17 H12 0.929 . S
C17 C16 1.398 . S
C17 C18 1.382 . S
C18 C17 1.382 . S
C18 C19 1.392 . S
C18 N20 1.420 . S
C19 H13 0.930 . S
C19 C15 1.407 . S
C19 C18 1.392 . S
N20 C18 1.420 . S
N20 C21 1.244 1_455 S
C21 N20 1.244 1_655 S
H22 C25 0.929 . S
H23 C28 0.929 . S
H24 C30 0.930 . S
C25 H22 0.929 . S
C25 C26 1.398 1_565 S
C25 C27 1.394 1_565 S
C26 C25 1.398 1_545 S
C26 C30 1.407 . S
C27 C25 1.394 1_545 S
C27 C28 1.397 . S
C28 H23 0.929 . S
C28 C27 1.397 . S
C28 C29 1.382 . S
C29 C28 1.382 . S
C29 C30 1.392 . S
C29 N31 1.420 . S
C30 H24 0.930 . S
C30 C26 1.407 . S
C30 C29 1.392 . S
N31 C29 1.420 . S
N31 C32 1.244 1_545 S
C32 N31 1.244 1_565 S
H33 C36 0.929 . S
H34 C39 0.929 . S
H35 C41 0.930 . S
C36 H33 0.929 . S
C36 C37 1.398 . S
C36 C38 1.396 . S
C37 C36 1.398 . S
C37 C41 1.407 . S
C38 C36 1.396 . S
C38 C39 1.394 . S
C39 H34 0.929 . S
C39 C38 1.394 . S
C39 C40 1.382 . S
C40 C39 1.382 . S
C40 C41 1.392 . S
C40 N42 1.420 . S
C41 H35 0.930 . S
C41 C37 1.407 . S
C41 C40 1.392 . S
N42 C40 1.420 . S
N42 C43 1.244 . S
C43 N42 1.244 . S
H44 C47 0.929 . S
H45 C50 0.929 . S
H46 C52 0.930 . S
C47 H44 0.929 . S
C47 C48 1.398 . S
C47 C49 1.396 1_556 S
C48 C47 1.398 . S
C48 C52 1.407 . S
C49 C47 1.396 1_554 S
C49 C50 1.394 . S
C50 H45 0.929 . S
C50 C49 1.394 . S
C50 C51 1.382 . S
C51 C50 1.382 . S
C51 C52 1.392 1_554 S
C51 N53 1.420 . S
C52 H46 0.930 . S
C52 C48 1.407 . S
C52 C51 1.392 1_556 S
N53 C51 1.420 . S
N53 C54 1.244 . S
C54 N53 1.244 . S
H55 C58 0.929 . S
H56 C61 0.929 . S
H57 C63 0.930 . S
C58 H55 0.929 . S
C58 C59 1.398 1_655 S
C58 C60 1.396 1_656 S
C59 C58 1.398 1_455 S
C59 C63 1.407 . S
C60 C58 1.396 1_454 S
C60 C61 1.394 . S
C61 H56 0.929 . S
C61 C60 1.394 . S
C61 C62 1.382 . S
C62 C61 1.382 . S
C62 C63 1.392 1_554 S
C62 N64 1.420 . S
C63 H57 0.930 . S
C63 C59 1.407 . S
C63 C62 1.392 1_556 S
N64 C62 1.420 . S
N64 C65 1.244 1_455 S
C65 N64 1.244 1_655 S
H66 C69 0.929 . S
H67 C72 0.929 . S
H68 C74 0.930 . S
C69 H66 0.929 . S
C69 C70 1.398 1_565 S
C69 C71 1.396 1_566 S
C70 C69 1.398 1_545 S
C70 C74 1.407 . S
C71 C69 1.396 1_544 S
C71 C72 1.394 . S
C72 H67 0.929 . S
C72 C71 1.394 . S
C72 C73 1.382 . S
C73 C72 1.382 . S
C73 C74 1.392 1_554 S
C73 N75 1.420 . S
C74 H68 0.930 . S
C74 C70 1.407 . S
C74 C73 1.392 1_556 S
N75 C73 1.420 . S
N75 C76 1.244 1_545 S
C76 N75 1.244 1_565 S
H77 C80 0.929 . S
H78 C83 0.929 . S
H79 C85 0.930 . S
C80 H77 0.929 . S
C80 C81 1.398 . S
C80 C82 1.396 1_556 S
C81 C80 1.398 . S
C81 C85 1.407 . S
C82 C80 1.396 1_554 S
C82 C83 1.394 . S
C83 H78 0.929 . S
C83 C82 1.394 . S
C83 C84 1.382 . S
C84 C83 1.382 . S
C84 C85 1.392 1_554 S
C84 N86 1.420 . S
C85 H79 0.930 . S
C85 C81 1.407 . S
C85 C84 1.392 1_556 S
N86 C84 1.420 . S
N86 C87 1.244 . S
C87 N86 1.244 . S
Pr88 C90 2.880 . S
Pr88 O108 2.562 . S
Pr88 O109 2.490 . S
Pr88 O110 2.695 1_564 S
Pr88 O111 2.512 1_554 S
Pr88 O113 2.437 1_554 S
Pr88 O116 2.436 1_455 S
Pr88 O118 2.438 1_565 S
Pr89 C99 2.880 . S
Pr89 O110 2.436 1_655 S
Pr89 O112 2.438 1_545 S
Pr89 O114 2.562 . S
Pr89 O115 2.490 . S
Pr89 O116 2.695 1_546 S
Pr89 O117 2.512 . S
Pr89 O119 2.437 . S
C90 Pr88 2.880 . S
C90 C91 1.491 . S
C90 O108 1.254 . S
C90 O109 1.225 . S
C91 C90 1.491 . S
C91 C92 1.392 . S
C91 C96 1.356 . S
C92 C91 1.392 . S
C92 C93 1.368 . S
C92 H120 0.929 . S
C93 C92 1.368 . S
C93 C94 1.386 . S
C93 H121 0.929 . S
C94 C93 1.386 . S
C94 C95 1.373 . S
C95 C94 1.373 . S
C95 C96 1.409 . S
C95 H122 0.931 . S
C96 C91 1.356 . S
C96 C95 1.409 . S
C96 H123 0.930 . S
C97 O110 1.270 1_565 S
C97 O111 1.248 . S
C98 O112 1.267 . S
C98 O113 1.278 1_655 S
C99 Pr89 2.880 . S
C99 C100 1.491 . S
C99 O114 1.254 . S
C99 O115 1.225 . S
C100 C99 1.491 . S
C100 C101 1.392 . S
C100 C105 1.356 . S
C101 C100 1.392 . S
C101 C102 1.368 . S
C101 H124 0.929 . S
C102 C101 1.368 . S
C102 C103 1.386 . S
C102 H125 0.929 . S
C103 C102 1.386 . S
C103 C104 1.373 . S
C104 C103 1.373 . S
C104 C105 1.409 . S
C104 H126 0.931 . S
C105 C100 1.356 . S
C105 C104 1.409 . S
C105 H127 0.930 . S
C106 O116 1.270 1_545 S
C106 O117 1.248 1_554 S
C107 O118 1.267 1_556 S
C107 O119 1.278 1_455 S
O108 Pr88 2.562 . S
O108 C90 1.254 . S
O109 Pr88 2.490 . S
O109 C90 1.225 . S
O110 Pr88 2.695 1_546 S
O110 Pr89 2.436 1_455 S
O110 C97 1.270 1_545 S
O111 Pr88 2.512 1_556 S
O111 C97 1.248 . S
O112 Pr89 2.438 1_565 S
O112 C98 1.267 . S
O113 Pr88 2.437 1_556 S
O113 C98 1.278 1_455 S
O114 Pr89 2.562 . S
O114 C99 1.254 . S
O115 Pr89 2.490 . S
O115 C99 1.225 . S
O116 Pr88 2.436 1_655 S
O116 Pr89 2.695 1_564 S
O116 C106 1.270 1_565 S
O117 Pr89 2.512 . S
O117 C106 1.248 1_556 S
O118 Pr88 2.438 1_545 S
O118 C107 1.267 1_554 S
O119 Pr89 2.437 . S
O119 C107 1.278 1_655 S
H120 C92 0.929 . S
H121 C93 0.929 . S
H122 C95 0.931 . S
H123 C96 0.930 . S
H124 C101 0.929 . S
H125 C102 0.929 . S
H126 C104 0.931 . S
H127 C105 0.930 . S
Pr128 C130 2.880 . S
Pr128 O148 2.562 . S
Pr128 O149 2.490 . S
Pr128 O150 2.695 1_554 S
Pr128 O151 2.512 1_554 S
Pr128 O153 2.437 1_554 S
Pr128 O156 2.436 1_545 S
Pr128 O158 2.438 . S
Pr129 C139 2.880 . S
Pr129 O150 2.436 1_565 S
Pr129 O152 2.438 . S
Pr129 O154 2.562 . S
Pr129 O155 2.490 . S
Pr129 O156 2.695 1_556 S
Pr129 O157 2.512 . S
Pr129 O159 2.437 . S
C130 Pr128 2.880 . S
C130 C131 1.491 . S
C130 O148 1.254 . S
C130 O149 1.225 . S
C131 C130 1.491 . S
C131 C132 1.392 . S
C131 C136 1.356 . S
C132 C131 1.392 . S
C132 C133 1.368 . S
C132 H160 0.929 . S
C133 C132 1.368 . S
C133 C134 1.386 . S
C133 H161 0.929 . S
C134 C133 1.386 . S
C134 C135 1.373 . S
C135 C134 1.373 . S
C135 C136 1.409 . S
C135 H162 0.931 . S
C136 C131 1.356 . S
C136 C135 1.409 . S
C136 H163 0.944 . S
C137 O150 1.270 . S
C137 O151 1.248 . S
C138 O152 1.267 . S
C138 O153 1.278 1_565 S
C139 Pr129 2.880 . S
C139 C140 1.491 . S
C139 O154 1.254 . S
C139 O155 1.225 . S
C140 C139 1.491 . S
C140 C141 1.392 . S
C140 C145 1.356 . S
C141 C140 1.392 . S
C141 C142 1.368 . S
C141 H164 0.929 . S
C142 C141 1.368 . S
C142 C143 1.386 . S
C142 H165 0.929 . S
C143 C142 1.386 . S
C143 C144 1.373 . S
C144 C143 1.373 . S
C144 C145 1.409 . S
C144 H166 0.931 . S
C145 C140 1.356 . S
C145 C144 1.409 . S
C145 H167 0.939 . S
C146 O156 1.270 . S
C146 O157 1.248 1_554 S
C147 O158 1.267 1_556 S
C147 O159 1.278 1_545 S
O148 Pr128 2.562 . S
O148 C130 1.254 . S
O149 Pr128 2.490 . S
O149 C130 1.225 . S
O150 Pr128 2.695 1_556 S
O150 Pr129 2.436 1_545 S
O150 C137 1.270 . S
O151 Pr128 2.512 1_556 S
O151 C137 1.248 . S
O152 Pr129 2.438 . S
O152 C138 1.267 . S
O153 Pr128 2.437 1_556 S
O153 C138 1.278 1_545 S
O154 Pr129 2.562 . S
O154 C139 1.254 . S
O155 Pr129 2.490 . S
O155 C139 1.225 . S
O156 Pr128 2.436 1_565 S
O156 Pr129 2.695 1_554 S
O156 C146 1.270 . S
O157 Pr129 2.512 . S
O157 C146 1.248 1_556 S
O158 Pr128 2.438 . S
O158 C147 1.267 1_554 S
O159 Pr129 2.437 . S
O159 C147 1.278 1_565 S
H160 C132 0.929 . S
H161 C133 0.929 . S
H162 C135 0.931 . S
H163 C136 0.944 . S
H164 C141 0.929 . S
H165 C142 0.929 . S
H166 C144 0.931 . S
H167 C145 0.939 . S
Pr168 C170 2.880 . S
Pr168 O188 2.562 . S
Pr168 O189 2.490 . S
Pr168 O190 2.695 1_554 S
Pr168 O191 2.512 1_554 S
Pr168 O193 2.437 1_554 S
Pr168 O196 2.436 . S
Pr168 O198 2.438 . S
Pr169 C179 2.880 . S
Pr169 O190 2.436 . S
Pr169 O192 2.438 . S
Pr169 O194 2.562 . S
Pr169 O195 2.490 . S
Pr169 O196 2.695 1_556 S
Pr169 O197 2.512 . S
Pr169 O199 2.437 . S
C170 Pr168 2.880 . S
C170 C171 1.491 . S
C170 O188 1.254 . S
C170 O189 1.225 . S
C171 C170 1.491 . S
C171 C172 1.392 . S
C171 C176 1.356 . S
C172 C171 1.392 . S
C172 C173 1.368 . S
C172 H200 0.929 . S
C173 C172 1.368 . S
C173 C174 1.386 . S
C173 H201 0.929 . S
C174 C173 1.386 . S
C174 C175 1.373 . S
C175 C174 1.373 . S
C175 C176 1.409 . S
C175 H202 0.931 . S
C176 C171 1.356 . S
C176 C175 1.409 . S
C176 H203 0.930 . S
C177 O190 1.270 . S
C177 O191 1.248 . S
C178 O192 1.267 . S
C178 O193 1.278 . S
C179 Pr169 2.880 . S
C179 C180 1.491 . S
C179 O194 1.254 . S
C179 O195 1.225 . S
C180 C179 1.491 . S
C180 C181 1.392 . S
C180 C185 1.356 . S
C181 C180 1.392 . S
C181 C182 1.368 . S
C181 H204 0.929 . S
C182 C181 1.368 . S
C182 C183 1.386 . S
C182 H205 0.929 . S
C183 C182 1.386 . S
C183 C184 1.373 . S
C184 C183 1.373 . S
C184 C185 1.409 . S
C184 H206 0.931 . S
C185 C180 1.356 . S
C185 C184 1.409 . S
C185 H207 0.930 . S
C186 O196 1.270 . S
C186 O197 1.248 1_554 S
C187 O198 1.267 1_556 S
C187 O199 1.278 . S
O188 Pr168 2.562 . S
O188 C170 1.254 . S
O189 Pr168 2.490 . S
O189 C170 1.225 . S
O190 Pr168 2.695 1_556 S
O190 Pr169 2.436 . S
O190 C177 1.270 . S
O191 Pr168 2.512 1_556 S
O191 C177 1.248 . S
O192 Pr169 2.438 . S
O192 C178 1.267 . S
O193 Pr168 2.437 1_556 S
O193 C178 1.278 . S
O194 Pr169 2.562 . S
O194 C179 1.254 . S
O195 Pr169 2.490 . S
O195 C179 1.225 . S
O196 Pr168 2.436 . S
O196 Pr169 2.695 1_554 S
O196 C186 1.270 . S
O197 Pr169 2.512 . S
O197 C186 1.248 1_556 S
O198 Pr168 2.438 . S
O198 C187 1.267 1_554 S
O199 Pr169 2.437 . S
O199 C187 1.278 . S
H200 C172 0.929 . S
H201 C173 0.929 . S
H202 C175 0.931 . S
H203 C176 0.930 . S
H204 C181 0.929 . S
H205 C182 0.929 . S
H206 C184 0.931 . S
H207 C185 0.930 . S
Pr208 C210 2.880 . S
Pr208 O228 2.562 . S
Pr208 O229 2.490 . S
Pr208 O230 2.695 1_654 S
Pr208 O231 2.512 1_554 S
Pr208 O233 2.437 1_554 S
Pr208 O236 2.436 . S
Pr208 O238 2.438 1_655 S
Pr209 C219 2.880 . S
Pr209 O230 2.436 . S
Pr209 O232 2.438 1_455 S
Pr209 O234 2.562 . S
Pr209 O235 2.490 . S
Pr209 O236 2.695 1_456 S
Pr209 O237 2.512 . S
Pr209 O239 2.437 . S
C210 Pr208 2.880 . S
C210 C211 1.491 . S
C210 O228 1.254 . S
C210 O229 1.225 . S
C211 C210 1.491 . S
C211 C212 1.392 . S
C211 C216 1.356 . S
C212 C211 1.392 . S
C212 C213 1.368 . S
C212 H240 0.929 . S
C213 C212 1.368 . S
C213 C214 1.386 . S
C213 H241 0.929 . S
C214 C213 1.386 . S
C214 C215 1.373 . S
C215 C214 1.373 . S
C215 C216 1.409 . S
C215 H242 0.931 . S
C216 C211 1.356 . S
C216 C215 1.409 . S
C216 H243 0.930 . S
C217 O230 1.268 1_655 S
C217 O231 1.252 . S
C218 O232 1.267 . S
C218 O233 1.278 . S
C219 Pr209 2.880 . S
C219 C220 1.491 . S
C219 O234 1.254 . S
C219 O235 1.225 . S
C220 C219 1.491 . S
C220 C221 1.392 . S
C220 C225 1.356 . S
C221 C220 1.392 . S
C221 C222 1.368 . S
C221 H244 0.929 . S
C222 C221 1.368 . S
C222 C223 1.386 . S
C222 H245 0.929 . S
C223 C222 1.386 . S
C223 C224 1.373 . S
C224 C223 1.373 . S
C224 C225 1.409 . S
C224 H246 0.931 . S
C225 C220 1.356 . S
C225 C224 1.409 . S
C225 H247 0.930 . S
C226 O236 1.267 1_455 S
C226 O237 1.254 1_554 S
C227 O238 1.267 1_556 S
C227 O239 1.278 . S
O228 Pr208 2.562 . S
O228 C210 1.254 . S
O229 Pr208 2.490 . S
O229 C210 1.225 . S
O230 Pr208 2.695 1_456 S
O230 Pr209 2.436 . S
O230 C217 1.268 1_455 S
O231 Pr208 2.512 1_556 S
O231 C217 1.252 . S
O232 Pr209 2.438 1_655 S
O232 C218 1.267 . S
O233 Pr208 2.437 1_556 S
O233 C218 1.278 . S
O234 Pr209 2.562 . S
O234 C219 1.254 . S
O235 Pr209 2.490 . S
O235 C219 1.225 . S
O236 Pr208 2.436 . S
O236 Pr209 2.695 1_654 S
O236 C226 1.267 1_655 S
O237 Pr209 2.512 . S
O237 C226 1.254 1_556 S
O238 Pr208 2.438 1_455 S
O238 C227 1.267 1_554 S
O239 Pr209 2.437 . S
O239 C227 1.278 . S
H240 C212 0.929 . S
H241 C213 0.929 . S
H242 C215 0.931 . S
H243 C216 0.930 . S
H244 C221 0.929 . S
H245 C222 0.929 . S
H246 C224 0.931 . S
H247 C225 0.930 . S
C76 C97 3.591 1_554 S
C137 C87 3.606 1_556 S
C177 C54 3.616 1_556 S
C217 C65 3.573 1_556 S
C106 C32 3.595 1_544 S
C43 C146 3.600 1_556 S
C10 C186 3.606 1_556 S
C21 C226 3.572 1_656 S
C103 C60 2.637 1_655 S
C143 C71 2.465 1_565 S
C183 C82 2.319 . S
C49 C223 2.463 . S
C16 C94 2.611 . S
C134 C27 2.440 . S
C174 C38 2.268 . S
C5 C214 2.413 . S
C59 C107 4.007 . S
C70 C147 3.927 . S
C187 C81 3.931 . S
C227 C48 4.007 . S
C15 C98 4.024 1_455 S
C138 C26 3.940 1_565 S
C178 C37 3.956 . S
C4 C218 4.035 . S
