# Generated by pormake.
# Topology eea, (3,6)-cn, num edge types: 1
# Building blocks:
#     Node 0, Type 0, BuildingBlock: BELTOD_clean_linker_0, # of connection points: 3
#     Node 1, Type 0, BuildingBlock: BELTOD_clean_linker_0, # of connection points: 3
#     Node 2, Type 0, BuildingBlock: BELTOD_clean_linker_0, # of connection points: 3
#     Node 3, Type 0, BuildingBlock: BELTOD_clean_linker_0, # of connection points: 3
#     Node 4, Type 0, BuildingBlock: BELTOD_clean_linker_0, # of connection points: 3
#     Node 5, Type 0, BuildingBlock: BELTOD_clean_linker_0, # of connection points: 3
#     Node 6, Type 0, BuildingBlock: BELTOD_clean_linker_0, # of connection points: 3
#     Node 7, Type 0, BuildingBlock: BELTOD_clean_linker_0, # of connection points: 3
#     Node 8, Type 0, BuildingBlock: BELTOD_clean_linker_0, # of connection points: 3
#     Node 9, Type 0, BuildingBlock: BELTOD_clean_linker_0, # of connection points: 3
#     Node 10, Type 0, BuildingBlock: BELTOD_clean_linker_0, # of connection points: 3
#     Node 11, Type 0, BuildingBlock: BELTOD_clean_linker_0, # of connection points: 3
#     Node 12, Type 0, BuildingBlock: BELTOD_clean_linker_0, # of connection points: 3
#     Node 13, Type 0, BuildingBlock: BELTOD_clean_linker_0, # of connection points: 3
#     Node 14, Type 0, BuildingBlock: BELTOD_clean_linker_0, # of connection points: 3
#     Node 15, Type 0, BuildingBlock: BELTOD_clean_linker_0, # of connection points: 3
#     Node 16, Type 0, BuildingBlock: BELTOD_clean_linker_0, # of connection points: 3
#     Node 17, Type 0, BuildingBlock: BELTOD_clean_linker_0, # of connection points: 3
#     Node 18, Type 1, BuildingBlock: CIFDUS_clean_sbu_1, # of connection points: 6
#     Node 19, Type 1, BuildingBlock: CIFDUS_clean_sbu_1, # of connection points: 6
#     Node 20, Type 1, BuildingBlock: CIFDUS_clean_sbu_1, # of connection points: 6
#     Node 21, Type 1, BuildingBlock: CIFDUS_clean_sbu_1, # of connection points: 6
#     Node 22, Type 1, BuildingBlock: CIFDUS_clean_sbu_1, # of connection points: 6
#     Node 23, Type 1, BuildingBlock: CIFDUS_clean_sbu_1, # of connection points: 6
#     Node 24, Type 1, BuildingBlock: CIFDUS_clean_sbu_1, # of connection points: 6
#     Node 25, Type 1, BuildingBlock: CIFDUS_clean_sbu_1, # of connection points: 6
#     Node 26, Type 1, BuildingBlock: CIFDUS_clean_sbu_1, # of connection points: 6
#     Edge 27, Type (0, 1), BuildingBlock: XUDNAN_clean_linker_2, # of connection points: 2
#     Edge 28, Type (0, 1), BuildingBlock: XUDNAN_clean_linker_2, # of connection points: 2
#     Edge 29, Type (0, 1), BuildingBlock: XUDNAN_clean_linker_2, # of connection points: 2
#     Edge 30, Type (0, 1), BuildingBlock: XUDNAN_clean_linker_2, # of connection points: 2
#     Edge 31, Type (0, 1), BuildingBlock: XUDNAN_clean_linker_2, # of connection points: 2
#     Edge 32, Type (0, 1), BuildingBlock: XUDNAN_clean_linker_2, # of connection points: 2
#     Edge 33, Type (0, 1), BuildingBlock: XUDNAN_clean_linker_2, # of connection points: 2
#     Edge 34, Type (0, 1), BuildingBlock: XUDNAN_clean_linker_2, # of connection points: 2
#     Edge 35, Type (0, 1), BuildingBlock: XUDNAN_clean_linker_2, # of connection points: 2
#     Edge 36, Type (0, 1), BuildingBlock: XUDNAN_clean_linker_2, # of connection points: 2
#     Edge 37, Type (0, 1), BuildingBlock: XUDNAN_clean_linker_2, # of connection points: 2
#     Edge 38, Type (0, 1), BuildingBlock: XUDNAN_clean_linker_2, # of connection points: 2
#     Edge 39, Type (0, 1), BuildingBlock: XUDNAN_clean_linker_2, # of connection points: 2
#     Edge 40, Type (0, 1), BuildingBlock: XUDNAN_clean_linker_2, # of connection points: 2
#     Edge 41, Type (0, 1), BuildingBlock: XUDNAN_clean_linker_2, # of connection points: 2
#     Edge 42, Type (0, 1), BuildingBlock: XUDNAN_clean_linker_2, # of connection points: 2
#     Edge 43, Type (0, 1), BuildingBlock: XUDNAN_clean_linker_2, # of connection points: 2
#     Edge 44, Type (0, 1), BuildingBlock: XUDNAN_clean_linker_2, # of connection points: 2
#     Edge 45, Type (0, 1), BuildingBlock: XUDNAN_clean_linker_2, # of connection points: 2
#     Edge 46, Type (0, 1), BuildingBlock: XUDNAN_clean_linker_2, # of connection points: 2
#     Edge 47, Type (0, 1), BuildingBlock: XUDNAN_clean_linker_2, # of connection points: 2
#     Edge 48, Type (0, 1), BuildingBlock: XUDNAN_clean_linker_2, # of connection points: 2
#     Edge 49, Type (0, 1), BuildingBlock: XUDNAN_clean_linker_2, # of connection points: 2
#     Edge 50, Type (0, 1), BuildingBlock: XUDNAN_clean_linker_2, # of connection points: 2
#     Edge 51, Type (0, 1), BuildingBlock: XUDNAN_clean_linker_2, # of connection points: 2
#     Edge 52, Type (0, 1), BuildingBlock: XUDNAN_clean_linker_2, # of connection points: 2
#     Edge 53, Type (0, 1), BuildingBlock: XUDNAN_clean_linker_2, # of connection points: 2
#     Edge 54, Type (0, 1), BuildingBlock: XUDNAN_clean_linker_2, # of connection points: 2
#     Edge 55, Type (0, 1), BuildingBlock: XUDNAN_clean_linker_2, # of connection points: 2
#     Edge 56, Type (0, 1), BuildingBlock: XUDNAN_clean_linker_2, # of connection points: 2
#     Edge 57, Type (0, 1), BuildingBlock: XUDNAN_clean_linker_2, # of connection points: 2
#     Edge 58, Type (0, 1), BuildingBlock: XUDNAN_clean_linker_2, # of connection points: 2
#     Edge 59, Type (0, 1), BuildingBlock: XUDNAN_clean_linker_2, # of connection points: 2
#     Edge 60, Type (0, 1), BuildingBlock: XUDNAN_clean_linker_2, # of connection points: 2
#     Edge 61, Type (0, 1), BuildingBlock: XUDNAN_clean_linker_2, # of connection points: 2
#     Edge 62, Type (0, 1), BuildingBlock: XUDNAN_clean_linker_2, # of connection points: 2
#     Edge 63, Type (0, 1), BuildingBlock: XUDNAN_clean_linker_2, # of connection points: 2
#     Edge 64, Type (0, 1), BuildingBlock: XUDNAN_clean_linker_2, # of connection points: 2
#     Edge 65, Type (0, 1), BuildingBlock: XUDNAN_clean_linker_2, # of connection points: 2
#     Edge 66, Type (0, 1), BuildingBlock: XUDNAN_clean_linker_2, # of connection points: 2
#     Edge 67, Type (0, 1), BuildingBlock: XUDNAN_clean_linker_2, # of connection points: 2
#     Edge 68, Type (0, 1), BuildingBlock: XUDNAN_clean_linker_2, # of connection points: 2
#     Edge 69, Type (0, 1), BuildingBlock: XUDNAN_clean_linker_2, # of connection points: 2
#     Edge 70, Type (0, 1), BuildingBlock: XUDNAN_clean_linker_2, # of connection points: 2
#     Edge 71, Type (0, 1), BuildingBlock: XUDNAN_clean_linker_2, # of connection points: 2
#     Edge 72, Type (0, 1), BuildingBlock: XUDNAN_clean_linker_2, # of connection points: 2
#     Edge 73, Type (0, 1), BuildingBlock: XUDNAN_clean_linker_2, # of connection points: 2
#     Edge 74, Type (0, 1), BuildingBlock: XUDNAN_clean_linker_2, # of connection points: 2
#     Edge 75, Type (0, 1), BuildingBlock: XUDNAN_clean_linker_2, # of connection points: 2
#     Edge 76, Type (0, 1), BuildingBlock: XUDNAN_clean_linker_2, # of connection points: 2
#     Edge 77, Type (0, 1), BuildingBlock: XUDNAN_clean_linker_2, # of connection points: 2
#     Edge 78, Type (0, 1), BuildingBlock: XUDNAN_clean_linker_2, # of connection points: 2
#     Edge 79, Type (0, 1), BuildingBlock: XUDNAN_clean_linker_2, # of connection points: 2
#     Edge 80, Type (0, 1), BuildingBlock: XUDNAN_clean_linker_2, # of connection points: 2
# Relax obj value: 0.094
# Max RMSD: 0.176
# Mean RMSD: 0.087
data_MOF--net-eea--node1-CIFDUS_clean_sbu_1--node2-BELTOD_clean_linker_0--edge1-XUDNAN_clean_linker_2
_symmetry_space_group_name_H-M    P1
_symmetry_Int_Tables_number       1
_symmetry_cell_setting            triclinic
loop_
_symmetry_equiv_pos_as_xyz
'x, y, z'
_cell_length_a     62.457458
_cell_length_b     61.855874
_cell_length_c     60.910277
_cell_angle_alpha  90.491134
_cell_angle_beta   90.09446
_cell_angle_gamma 119.86222
loop_
_atom_site_label
_atom_site_type_symbol
_atom_site_fract_x
_atom_site_fract_y
_atom_site_fract_z
_atom_type_partial_charge
P0 P 0.28334 0.13963 0.39128 0.0
H1 H 0.27817 0.11232 0.35031 0.0
H2 H 0.25231 0.06818 0.33988 0.0
H3 H 0.22096 0.05227 0.40486 0.0
H4 H 0.2463 0.09621 0.41503 0.0
H5 H 0.30312 0.19199 0.38076 0.0
H6 H 0.28362 0.21771 0.37731 0.0
H7 H 0.21184 0.15202 0.38363 0.0
H8 H 0.23142 0.12642 0.3871 0.0
H9 H 0.30488 0.11809 0.4201 0.0
H10 H 0.27324 0.16598 0.427 0.0
O11 O 0.31051 0.15137 0.37866 0.0
H12 H 0.31344 0.1219 0.4598 0.0
H13 H 0.28227 0.1701 0.46626 0.0
C14 C 0.26449 0.10739 0.38355 0.0
C15 C 0.26573 0.09929 0.36227 0.0
C16 C 0.25094 0.07416 0.35633 0.0
C17 C 0.23482 0.05689 0.37167 0.0
C18 C 0.2335 0.06518 0.39287 0.0
C19 C 0.248 0.09027 0.39868 0.0
C20 C 0.2687 0.15727 0.38382 0.0
C21 C 0.28316 0.18305 0.38086 0.0
C22 C 0.27203 0.19775 0.37915 0.0
C23 C 0.24623 0.18686 0.38044 0.0
C24 C 0.23174 0.16087 0.38247 0.0
C25 C 0.24292 0.14621 0.38436 0.0
C26 C 0.28867 0.14191 0.42051 0.0
C27 C 0.29963 0.12924 0.43012 0.0
C28 C 0.30427 0.13118 0.45273 0.0
C29 C 0.29826 0.14608 0.46589 0.0
C30 C 0.28685 0.15835 0.45635 0.0
C31 C 0.28192 0.15615 0.43384 0.0
P32 P 0.88713 0.10979 0.41267 0.0
H33 H 0.87782 0.06034 0.40081 0.0
H34 H 0.8437 0.02552 0.38158 0.0
H35 H 0.81103 0.07126 0.36797 0.0
H36 H 0.84545 0.10644 0.38768 0.0
H37 H 0.93263 0.11769 0.39363 0.0
H38 H 0.96595 0.15308 0.37497 0.0
H39 H 0.92351 0.19077 0.37541 0.0
H40 H 0.88945 0.15463 0.39381 0.0
H41 H 0.83949 0.08402 0.43385 0.0
H42 H 0.90531 0.15637 0.438 0.0
O43 O 0.90195 0.09797 0.42654 0.0
H44 H 0.82524 0.09213 0.46837 0.0
H45 H 0.89076 0.16449 0.47291 0.0
C46 C 0.86385 0.08572 0.39588 0.0
C47 C 0.86341 0.063 0.39371 0.0
C48 C 0.84388 0.0431 0.38287 0.0
C49 C 0.82468 0.04575 0.37383 0.0
C50 C 0.82563 0.06888 0.37506 0.0
C51 C 0.84521 0.08886 0.38615 0.0
C52 C 0.90907 0.13406 0.39566 0.0
C53 C 0.93012 0.13322 0.38923 0.0
C54 C 0.94896 0.15322 0.37828 0.0
C55 C 0.94695 0.17428 0.37367 0.0
C56 C 0.92512 0.17445 0.37866 0.0
C57 C 0.90596 0.15409 0.38937 0.0
C58 C 0.87325 0.1198 0.43309 0.0
C59 C 0.85034 0.10216 0.44156 0.0
C60 C 0.84219 0.10671 0.46136 0.0
C61 C 0.85694 0.12887 0.47305 0.0
C62 C 0.87902 0.1474 0.46388 0.0
C63 C 0.88727 0.14278 0.44399 0.0
P64 P 0.85612 0.71051 0.39198 0.0
H65 H 0.81502 0.70268 0.36314 0.0
H66 H 0.79392 0.72617 0.35753 0.0
H67 H 0.84632 0.78383 0.40159 0.0
H68 H 0.86443 0.75821 0.40952 0.0
H69 H 0.8871 0.69014 0.37768 0.0
H70 H 0.92942 0.70924 0.36382 0.0
H71 H 0.93834 0.78227 0.37493 0.0
H72 H 0.89627 0.76336 0.38827 0.0
H73 H 0.81201 0.67875 0.41627 0.0
H74 H 0.88926 0.72691 0.43094 0.0
O75 O 0.84087 0.68368 0.37798 0.0
H76 H 0.8037 0.66871 0.45501 0.0
H77 H 0.88124 0.71638 0.46996 0.0
C78 C 0.84193 0.7291 0.38619 0.0
C79 C 0.82188 0.72039 0.3716 0.0
C80 C 0.80992 0.73415 0.36822 0.0
C81 C 0.81822 0.75736 0.37889 0.0
C82 C 0.83864 0.76596 0.39331 0.0
C83 C 0.84973 0.75162 0.39743 0.0
C84 C 0.88814 0.72518 0.38375 0.0
C85 C 0.89813 0.71027 0.37715 0.0
C86 C 0.92229 0.72117 0.36919 0.0
C87 C 0.93706 0.74724 0.36813 0.0
C88 C 0.92738 0.76213 0.37562 0.0
C89 C 0.90314 0.75122 0.38327 0.0
C90 C 0.85129 0.70309 0.4207 0.0
C91 C 0.82726 0.68692 0.42787 0.0
C92 C 0.82256 0.68115 0.45005 0.0
C93 C 0.84184 0.69145 0.46563 0.0
C94 C 0.86594 0.70817 0.45843 0.0
C95 C 0.87061 0.71402 0.4361 0.0
P96 P 0.14361 0.28836 0.62245 0.0
H97 H 0.11108 0.29464 0.65398 0.0
H98 H 0.06624 0.27132 0.65917 0.0
H99 H 0.06053 0.21786 0.60988 0.0
H100 H 0.1047 0.24216 0.60382 0.0
H101 H 0.19604 0.30465 0.62536 0.0
H102 H 0.21867 0.28232 0.6323 0.0
H103 H 0.14998 0.21514 0.64506 0.0
H104 H 0.12741 0.23717 0.63802 0.0
H105 H 0.12383 0.312 0.59441 0.0
H106 H 0.169 0.27787 0.58602 0.0
O107 O 0.1557 0.31556 0.63594 0.0
H108 H 0.12719 0.32126 0.5553 0.0
H109 H 0.17334 0.28801 0.54701 0.0
C110 C 0.11112 0.27021 0.62833 0.0
C111 C 0.10006 0.27789 0.64431 0.0
C112 C 0.07442 0.26439 0.64741 0.0
C113 C 0.05954 0.24286 0.63468 0.0
C114 C 0.07112 0.23474 0.61951 0.0
C115 C 0.09649 0.24848 0.61612 0.0
C116 C 0.16 0.27257 0.63079 0.0
C117 C 0.18587 0.28521 0.62993 0.0
C118 C 0.19877 0.27251 0.63391 0.0
C119 C 0.18595 0.2471 0.63919 0.0
C120 C 0.1602 0.2348 0.64118 0.0
C121 C 0.14729 0.24741 0.63693 0.0
C122 C 0.14643 0.2946 0.5933 0.0
C123 C 0.13464 0.30666 0.58417 0.0
C124 C 0.1367 0.31204 0.56176 0.0
C125 C 0.15084 0.3057 0.54792 0.0
C126 C 0.16219 0.29306 0.55707 0.0
C127 C 0.15995 0.28751 0.57953 0.0
P128 P 0.77203 0.88579 0.59807 0.0
H129 H 0.79664 0.91338 0.63806 0.0
H130 H 0.79723 0.94939 0.65497 0.0
H131 H 0.73562 0.93687 0.61316 0.0
H132 H 0.73378 0.90007 0.5987 0.0
H133 H 0.80152 0.86229 0.59312 0.0
H134 H 0.79837 0.82442 0.60767 0.0
H135 H 0.73309 0.80976 0.64361 0.0
H136 H 0.73644 0.84859 0.62898 0.0
H137 H 0.77917 0.91264 0.55764 0.0
H138 H 0.72263 0.84428 0.58591 0.0
O139 O 0.80135 0.90353 0.59036 0.0
H140 H 0.7531 0.90586 0.52575 0.0
H141 H 0.69586 0.83758 0.55407 0.0
C142 C 0.76578 0.90464 0.61656 0.0
C143 C 0.78267 0.918 0.63335 0.0
C144 C 0.78331 0.93908 0.64261 0.0
C145 C 0.76761 0.94762 0.63456 0.0
C146 C 0.74859 0.9319 0.61983 0.0
C147 C 0.74755 0.91051 0.61117 0.0
C148 C 0.76939 0.85834 0.6102 0.0
C149 C 0.78662 0.85122 0.60426 0.0
C150 C 0.78476 0.82954 0.61247 0.0
C151 C 0.76546 0.8144 0.62653 0.0
C152 C 0.7481 0.82137 0.63273 0.0
C153 C 0.75004 0.84339 0.62446 0.0
C154 C 0.75312 0.87864 0.57383 0.0
C155 C 0.76117 0.89599 0.55686 0.0
C156 C 0.74601 0.8923 0.53878 0.0
C157 C 0.72223 0.87129 0.53739 0.0
C158 C 0.71413 0.85386 0.55453 0.0
C159 C 0.72945 0.85759 0.57269 0.0
P160 P 0.14528 0.85285 0.62072 0.0
H161 H 0.16476 0.88191 0.66137 0.0
H162 H 0.18376 0.92685 0.66947 0.0
H163 H 0.17768 0.94055 0.60102 0.0
H164 H 0.15838 0.8961 0.59307 0.0
H165 H 0.10938 0.80435 0.63875 0.0
H166 H 0.06498 0.78517 0.64619 0.0
H167 H 0.06621 0.85181 0.62382 0.0
H168 H 0.11041 0.87096 0.61667 0.0
H169 H 0.18761 0.85892 0.59648 0.0
H170 H 0.11247 0.83954 0.58175 0.0
O171 O 0.15816 0.83978 0.63565 0.0
H172 H 0.19514 0.85669 0.55734 0.0
H173 H 0.12012 0.83751 0.54248 0.0
C174 C 0.16064 0.88574 0.62658 0.0
C175 C 0.1677 0.89466 0.64813 0.0
C176 C 0.1784 0.9202 0.65275 0.0
C177 C 0.18224 0.93699 0.63579 0.0
C178 C 0.17519 0.92795 0.61427 0.0
C179 C 0.16423 0.90252 0.60974 0.0
C180 C 0.11319 0.8392 0.6275 0.0
C181 C 0.10014 0.81494 0.63577 0.0
C182 C 0.07486 0.80403 0.64003 0.0
C183 C 0.06234 0.81713 0.63561 0.0
C184 C 0.07551 0.84138 0.62731 0.0
C185 C 0.10075 0.85235 0.62334 0.0
C186 C 0.14934 0.84869 0.59208 0.0
C187 C 0.17267 0.85389 0.58487 0.0
C188 C 0.17703 0.85289 0.56256 0.0
C189 C 0.15819 0.84699 0.54708 0.0
C190 C 0.13493 0.84229 0.55419 0.0
C191 C 0.13051 0.84313 0.57663 0.0
P192 P 0.95165 0.47798 0.72383 0.0
H193 H 0.95192 0.4459 0.68793 0.0
H194 H 0.93138 0.40028 0.68364 0.0
H195 H 0.89569 0.39171 0.74615 0.0
H196 H 0.91546 0.43689 0.75008 0.0
H197 H 0.96387 0.52924 0.71538 0.0
H198 H 0.93874 0.54802 0.70541 0.0
H199 H 0.87348 0.47498 0.70514 0.0
H200 H 0.89864 0.45645 0.71466 0.0
H201 H 0.98315 0.46712 0.75086 0.0
H202 H 0.93346 0.49592 0.76048 0.0
O203 O 0.97808 0.49111 0.7099 0.0
H204 H 0.98654 0.46448 0.79077 0.0
H205 H 0.93743 0.49385 0.80038 0.0
C206 C 0.93558 0.44474 0.7195 0.0
C207 C 0.93958 0.43417 0.70062 0.0
C208 C 0.9279 0.40821 0.6982 0.0
C209 C 0.91232 0.39264 0.71478 0.0
C210 C 0.90799 0.40335 0.73338 0.0
C211 C 0.91928 0.42916 0.73559 0.0
C212 C 0.9332 0.49144 0.71545 0.0
C213 C 0.94418 0.5173 0.71296 0.0
C214 C 0.92976 0.52801 0.70745 0.0
C215 C 0.90407 0.51298 0.70445 0.0
C216 C 0.89323 0.48705 0.70699 0.0
C217 C 0.90764 0.47642 0.71252 0.0
C218 C 0.95847 0.48217 0.75273 0.0
C219 C 0.97352 0.4735 0.76155 0.0
C220 C 0.97519 0.47166 0.78423 0.0
C221 C 0.96202 0.47872 0.79834 0.0
C222 C 0.94761 0.48822 0.78962 0.0
C223 C 0.94562 0.48969 0.76688 0.0
P224 P 0.555 0.44166 0.74687 0.0
H225 H 0.5508 0.4152 0.7063 0.0
H226 H 0.51586 0.37788 0.69042 0.0
H227 H 0.46672 0.3858 0.73531 0.0
H228 H 0.50159 0.42277 0.75135 0.0
H229 H 0.60707 0.45846 0.74189 0.0
H230 H 0.64 0.49259 0.72188 0.0
H231 H 0.58832 0.51341 0.69662 0.0
H232 H 0.55456 0.47794 0.71601 0.0
H233 H 0.55503 0.4333 0.79397 0.0
H234 H 0.53565 0.47615 0.75119 0.0
O235 O 0.56615 0.4239 0.75621 0.0
H236 H 0.54133 0.4472 0.82549 0.0
H237 H 0.52035 0.48905 0.78253 0.0
C238 C 0.52884 0.42153 0.73016 0.0
C239 C 0.53236 0.40952 0.71209 0.0
C240 C 0.51238 0.38825 0.70297 0.0
C241 C 0.48876 0.37879 0.712 0.0
C242 C 0.48488 0.39261 0.72833 0.0
C243 C 0.50486 0.41381 0.73748 0.0
C244 C 0.57842 0.46581 0.73056 0.0
C245 C 0.6025 0.46981 0.73164 0.0
C246 C 0.62128 0.48913 0.72001 0.0
C247 C 0.61641 0.50509 0.70747 0.0
C248 C 0.59223 0.50089 0.70588 0.0
C249 C 0.57316 0.481 0.71721 0.0
C250 C 0.54661 0.45388 0.77021 0.0
C251 C 0.54784 0.44579 0.79133 0.0
C252 C 0.53956 0.45348 0.80943 0.0
C253 C 0.52935 0.46911 0.80677 0.0
C254 C 0.52838 0.47735 0.78545 0.0
C255 C 0.5371 0.46995 0.76739 0.0
P256 P 0.52212 0.04355 0.72536 0.0
H257 H 0.50417 0.04995 0.68294 0.0
H258 H 0.48627 0.07554 0.67126 0.0
H259 H 0.49592 0.10575 0.73702 0.0
H260 H 0.51415 0.08064 0.74846 0.0
H261 H 0.5503 0.03196 0.69388 0.0
H262 H 0.59265 0.05544 0.681 0.0
H263 H 0.60696 0.11479 0.72708 0.0
H264 H 0.56404 0.09132 0.73938 0.0
H265 H 0.47724 0.02361 0.75059 0.0
H266 H 0.5539 0.04817 0.76352 0.0
O267 O 0.50745 0.01642 0.71175 0.0
H268 H 0.46805 0.01544 0.78943 0.0
H269 H 0.54478 0.03923 0.80256 0.0
C270 C 0.50967 0.06279 0.71671 0.0
C271 C 0.50246 0.06215 0.69479 0.0
C272 C 0.49251 0.07692 0.68809 0.0
C273 C 0.48963 0.09246 0.70329 0.0
C274 C 0.49774 0.09373 0.72504 0.0
C275 C 0.50797 0.07924 0.73163 0.0
C276 C 0.55418 0.05971 0.71788 0.0
C277 C 0.56258 0.04991 0.70138 0.0
C278 C 0.58687 0.06341 0.69401 0.0
C279 C 0.60332 0.08704 0.70302 0.0
C280 C 0.59475 0.09682 0.71957 0.0
C281 C 0.57034 0.0833 0.72685 0.0
C282 C 0.51628 0.0369 0.75421 0.0
C283 C 0.4921 0.02712 0.76185 0.0
C284 C 0.48685 0.02223 0.78411 0.0
C285 C 0.50564 0.02666 0.7993 0.0
C286 C 0.52988 0.036 0.79146 0.0
C287 C 0.53514 0.04104 0.76909 0.0
P288 P 0.81024 0.62159 0.95524 0.0
H289 H 0.7847 0.62321 0.99494 0.0
H290 H 0.74169 0.59916 0.0066 0.0
H291 H 0.72313 0.55737 0.94551 0.0
H292 H 0.76588 0.58224 0.9337 0.0
H293 H 0.86097 0.63691 0.96852 0.0
H294 H 0.88217 0.61314 0.97575 0.0
H295 H 0.81393 0.54447 0.96456 0.0
H296 H 0.79277 0.56799 0.9575 0.0
H297 H 0.79453 0.64951 0.9279 0.0
H298 H 0.83065 0.60618 0.91837 0.0
O299 O 0.82417 0.64911 0.96829 0.0
H300 H 0.79948 0.6599 0.88883 0.0
H301 H 0.83577 0.61663 0.87942 0.0
C302 C 0.77834 0.60478 0.96331 0.0
C303 C 0.77126 0.60906 0.98398 0.0
C304 C 0.7467 0.59506 0.99073 0.0
C305 C 0.72884 0.57624 0.97703 0.0
C306 C 0.7362 0.57197 0.95636 0.0
C307 C 0.76068 0.58615 0.94956 0.0
C308 C 0.82518 0.60422 0.96286 0.0
C309 C 0.85046 0.61673 0.9681 0.0
C310 C 0.86253 0.60322 0.97225 0.0
C311 C 0.84946 0.57709 0.97094 0.0
C312 C 0.82419 0.56463 0.96589 0.0
C313 C 0.81214 0.57809 0.96187 0.0
C314 C 0.81244 0.62733 0.92612 0.0
C315 C 0.80342 0.64215 0.91739 0.0
C316 C 0.8063 0.6481 0.89509 0.0
C317 C 0.81818 0.63922 0.8811 0.0
C318 C 0.82639 0.6236 0.88976 0.0
C319 C 0.82361 0.61776 0.9121 0.0
P320 P 0.44185 0.21884 0.92604 0.0
H321 H 0.48003 0.26375 0.94732 0.0
H322 H 0.47896 0.2986 0.96535 0.0
H323 H 0.39935 0.25824 0.96229 0.0
H324 H 0.40042 0.22328 0.94366 0.0
H325 H 0.47501 0.19892 0.92919 0.0
H326 H 0.47085 0.16099 0.94465 0.0
H327 H 0.39884 0.14135 0.96944 0.0
H328 H 0.40324 0.18032 0.9542 0.0
H329 H 0.43905 0.24855 0.89147 0.0
H330 H 0.39528 0.17274 0.91346 0.0
O331 O 0.46937 0.23321 0.91385 0.0
H332 H 0.41058 0.23973 0.86101 0.0
H333 H 0.36596 0.16402 0.8836 0.0
C334 C 0.44034 0.2412 0.94386 0.0
C335 C 0.46231 0.26224 0.95063 0.0
C336 C 0.46172 0.2822 0.96071 0.0
C337 C 0.43913 0.2812 0.96451 0.0
C338 C 0.41697 0.25944 0.95912 0.0
C339 C 0.41759 0.2395 0.9487 0.0
C340 C 0.43924 0.19225 0.9402 0.0
C341 C 0.45836 0.18677 0.93807 0.0
C342 C 0.456 0.16507 0.94686 0.0
C343 C 0.43443 0.14833 0.95779 0.0
C344 C 0.41553 0.15406 0.96081 0.0
C345 C 0.41806 0.17619 0.95219 0.0
C346 C 0.41949 0.21128 0.90455 0.0
C347 C 0.42311 0.23004 0.88985 0.0
C348 C 0.40658 0.22504 0.87261 0.0
C349 C 0.38587 0.20117 0.86987 0.0
C350 C 0.38187 0.18254 0.8851 0.0
C351 C 0.39862 0.18754 0.90229 0.0
P352 P 0.8133 0.18921 0.95338 0.0
H353 H 0.83575 0.219 0.99326 0.0
H354 H 0.85356 0.2638 0.00139 0.0
H355 H 0.83308 0.27474 0.93651 0.0
H356 H 0.81457 0.23008 0.92868 0.0
H357 H 0.79121 0.1576 0.99092 0.0
H358 H 0.74914 0.13175 0.00295 0.0
H359 H 0.72272 0.15406 0.94669 0.0
H360 H 0.76577 0.18149 0.93533 0.0
H361 H 0.85746 0.2167 0.92815 0.0
H362 H 0.78307 0.15727 0.91572 0.0
O363 O 0.83031 0.17989 0.96722 0.0
H364 H 0.86712 0.21725 0.88951 0.0
H365 H 0.79275 0.15742 0.87673 0.0
C366 C 0.82425 0.22137 0.96025 0.0
C367 C 0.83487 0.23102 0.9809 0.0
C368 C 0.84502 0.25649 0.98552 0.0
C369 C 0.84477 0.27249 0.96944 0.0
C370 C 0.8336 0.26267 0.94903 0.0
C371 C 0.82306 0.23722 0.94459 0.0
C372 C 0.78159 0.1706 0.9617 0.0
C373 C 0.77648 0.15694 0.98103 0.0
C374 C 0.75225 0.14198 0.98785 0.0
C375 C 0.73234 0.13998 0.97536 0.0
C376 C 0.73753 0.15484 0.95655 0.0
C377 C 0.76208 0.17029 0.9499 0.0
C378 C 0.8194 0.18744 0.92474 0.0
C379 C 0.84318 0.20369 0.91705 0.0
C380 C 0.84874 0.20384 0.89493 0.0
C381 C 0.83071 0.1874 0.87996 0.0
C382 C 0.80694 0.17061 0.88778 0.0
C383 C 0.80137 0.17051 0.91009 0.0
P384 P 0.61378 0.80619 0.05955 0.0
H385 H 0.6092 0.77869 0.01871 0.0
H386 H 0.5844 0.73433 0.00858 0.0
H387 H 0.55237 0.71834 0.07328 0.0
H388 H 0.57672 0.76253 0.08318 0.0
H389 H 0.63313 0.85856 0.04796 0.0
H390 H 0.61283 0.88223 0.0369 0.0
H391 H 0.54168 0.81651 0.04522 0.0
H392 H 0.56183 0.79292 0.05624 0.0
H393 H 0.63979 0.78809 0.08677 0.0
H394 H 0.60026 0.82813 0.0964 0.0
O395 O 0.64076 0.81807 0.04658 0.0
H396 H 0.64926 0.79176 0.12631 0.0
H397 H 0.61001 0.83207 0.13557 0.0
C398 C 0.59512 0.77381 0.05181 0.0
C399 C 0.5968 0.76562 0.03068 0.0
C400 C 0.58261 0.74034 0.0249 0.0
C401 C 0.56666 0.72294 0.04025 0.0
C402 C 0.56481 0.73132 0.06127 0.0
C403 C 0.57871 0.75657 0.06692 0.0
C404 C 0.59895 0.82378 0.05221 0.0
C405 C 0.61315 0.84928 0.04747 0.0
C406 C 0.60162 0.86286 0.04146 0.0
C407 C 0.57577 0.85111 0.04044 0.0
C408 C 0.56165 0.82591 0.04612 0.0
C409 C 0.57315 0.81239 0.05212 0.0
C410 C 0.61975 0.80823 0.0886 0.0
C411 C 0.63308 0.79754 0.09738 0.0
C412 C 0.63825 0.79939 0.11989 0.0
C413 C 0.63029 0.81214 0.13378 0.0
C414 C 0.61632 0.82216 0.12506 0.0
C415 C 0.61092 0.82007 0.10265 0.0
P416 P 0.22084 0.77646 0.08173 0.0
H417 H 0.21894 0.737 0.05448 0.0
H418 H 0.18446 0.69985 0.03848 0.0
H419 H 0.13557 0.7283 0.0546 0.0
H420 H 0.17045 0.76551 0.07098 0.0
H421 H 0.26844 0.81789 0.09338 0.0
H422 H 0.3021 0.84918 0.0714 0.0
H423 H 0.25612 0.82241 0.01332 0.0
H424 H 0.22213 0.79112 0.0355 0.0
H425 H 0.19122 0.74762 0.11785 0.0
H426 H 0.21987 0.82245 0.09415 0.0
O427 O 0.23602 0.76341 0.09296 0.0
H428 H 0.17271 0.75691 0.14897 0.0
H429 H 0.20092 0.83196 0.12535 0.0
C430 C 0.19691 0.75328 0.06471 0.0
C431 C 0.2009 0.73548 0.05414 0.0
C432 C 0.18115 0.71435 0.04477 0.0
C433 C 0.15712 0.71083 0.04579 0.0
C434 C 0.15377 0.73022 0.05412 0.0
C435 C 0.17365 0.75143 0.06349 0.0
C436 C 0.2429 0.8023 0.06608 0.0
C437 C 0.26535 0.81915 0.07604 0.0
C438 C 0.28453 0.83691 0.06349 0.0
C439 C 0.28152 0.83801 0.04075 0.0
C440 C 0.25875 0.8217 0.03082 0.0
C441 C 0.23939 0.80398 0.04351 0.0
C442 C 0.20715 0.78443 0.10396 0.0
C443 C 0.19338 0.76607 0.11934 0.0
C444 C 0.18253 0.77134 0.13699 0.0
C445 C 0.18515 0.79513 0.13958 0.0
C446 C 0.19868 0.81349 0.12385 0.0
C447 C 0.20953 0.80811 0.10606 0.0
P448 P 0.19225 0.3785 0.05682 0.0
H449 H 0.15712 0.37427 0.02228 0.0
H450 H 0.13341 0.39562 0.01684 0.0
H451 H 0.16866 0.44139 0.07432 0.0
H452 H 0.19106 0.41914 0.08016 0.0
H453 H 0.22835 0.3643 0.04227 0.0
H454 H 0.27226 0.38868 0.03297 0.0
H455 H 0.26987 0.45663 0.04342 0.0
H456 H 0.22653 0.43236 0.05297 0.0
H457 H 0.15059 0.34861 0.08521 0.0
H458 H 0.22935 0.39602 0.09259 0.0
O459 O 0.17847 0.35125 0.04333 0.0
H460 H 0.14644 0.34438 0.12512 0.0
H461 H 0.2254 0.39153 0.13237 0.0
C462 C 0.17567 0.39496 0.05175 0.0
C463 C 0.15962 0.38886 0.03371 0.0
C464 C 0.14621 0.40125 0.03054 0.0
C465 C 0.14885 0.42016 0.04526 0.0
C466 C 0.16554 0.42654 0.06294 0.0
C467 C 0.17861 0.41396 0.06623 0.0
C468 C 0.22398 0.39644 0.04804 0.0
C469 C 0.23727 0.38445 0.04232 0.0
C470 C 0.26237 0.39842 0.03697 0.0
C471 C 0.27469 0.42468 0.03753 0.0
C472 C 0.26114 0.43649 0.04313 0.0
C473 C 0.23614 0.42254 0.04841 0.0
C474 C 0.19025 0.3725 0.08589 0.0
C475 C 0.16704 0.35769 0.0954 0.0
C476 C 0.1647 0.35527 0.11821 0.0
C477 C 0.18557 0.36777 0.13195 0.0
C478 C 0.20891 0.38199 0.12227 0.0
C479 C 0.21122 0.38439 0.09946 0.0
P480 P 0.47705 0.95262 0.29009 0.0
H481 H 0.44652 0.95241 0.32711 0.0
H482 H 0.40151 0.93098 0.33256 0.0
H483 H 0.39085 0.89461 0.2694 0.0
H484 H 0.4353 0.91593 0.26407 0.0
H485 H 0.52577 0.96688 0.30871 0.0
H486 H 0.546 0.94262 0.31727 0.0
H487 H 0.4785 0.87478 0.30098 0.0
H488 H 0.45866 0.89902 0.29226 0.0
H489 H 0.46348 0.97826 0.2573 0.0
H490 H 0.50246 0.93703 0.25827 0.0
O491 O 0.48998 0.98036 0.30273 0.0
H492 H 0.46807 0.98186 0.21722 0.0
H493 H 0.50733 0.94084 0.21883 0.0
C494 C 0.4442 0.93631 0.29489 0.0
C495 C 0.4344 0.93982 0.31447 0.0
C496 C 0.40874 0.92745 0.31764 0.0
C497 C 0.39262 0.91142 0.30123 0.0
C498 C 0.40273 0.90726 0.28213 0.0
C499 C 0.42819 0.91949 0.27904 0.0
C500 C 0.49052 0.93473 0.30031 0.0
C501 C 0.5152 0.94673 0.30748 0.0
C502 C 0.52676 0.93285 0.3123 0.0
C503 C 0.51391 0.90674 0.3097 0.0
C504 C 0.48904 0.89485 0.30291 0.0
C505 C 0.47753 0.9087 0.29819 0.0
C506 C 0.4825 0.9573 0.26089 0.0
C507 C 0.4732 0.9702 0.24897 0.0
C508 C 0.47585 0.97225 0.22607 0.0
C509 C 0.48778 0.96131 0.21475 0.0
C510 C 0.49753 0.94896 0.22691 0.0
C511 C 0.49491 0.94695 0.24966 0.0
P512 P 0.10237 0.55312 0.26488 0.0
H513 H 0.13709 0.58663 0.29719 0.0
H514 H 0.14071 0.62397 0.31402 0.0
H515 H 0.06604 0.60135 0.29348 0.0
H516 H 0.0629 0.56416 0.27606 0.0
H517 H 0.11981 0.52077 0.24899 0.0
H518 H 0.12549 0.48878 0.26633 0.0
H519 H 0.08909 0.49442 0.32465 0.0
H520 H 0.08394 0.5272 0.3071 0.0
H521 H 0.10104 0.57845 0.22537 0.0
H522 H 0.05305 0.50971 0.25839 0.0
O523 O 0.12989 0.56955 0.25301 0.0
H524 H 0.07364 0.5642 0.19329 0.0
H525 H 0.02512 0.49562 0.22664 0.0
C526 C 0.10018 0.57336 0.2847 0.0
C527 C 0.1212 0.58927 0.297 0.0
C528 C 0.12314 0.61059 0.30677 0.0
C529 C 0.10393 0.61606 0.3044 0.0
C530 C 0.08143 0.59799 0.29492 0.0
C531 C 0.0796 0.57671 0.285 0.0
C532 C 0.10191 0.52658 0.27693 0.0
C533 C 0.11266 0.51484 0.26537 0.0
C534 C 0.11567 0.49635 0.27526 0.0
C535 C 0.10775 0.48906 0.29689 0.0
C536 C 0.0956 0.49987 0.30804 0.0
C537 C 0.09263 0.51852 0.29805 0.0
C538 C 0.07953 0.54457 0.24368 0.0
C539 C 0.0843 0.56048 0.22584 0.0
C540 C 0.06843 0.55252 0.20767 0.0
C541 C 0.04751 0.52862 0.2073 0.0
C542 C 0.04139 0.51398 0.22636 0.0
C543 C 0.05738 0.52188 0.24442 0.0
P544 P 0.47828 0.51774 0.2846 0.0
H545 H 0.51146 0.55166 0.31877 0.0
H546 H 0.53422 0.59724 0.322 0.0
H547 H 0.49918 0.60219 0.26255 0.0
H548 H 0.47664 0.55678 0.25934 0.0
H549 H 0.44956 0.47202 0.30956 0.0
H550 H 0.40712 0.45087 0.32322 0.0
H551 H 0.39504 0.50707 0.2936 0.0
H552 H 0.43765 0.52848 0.28032 0.0
H553 H 0.51986 0.52492 0.25853 0.0
H554 H 0.44319 0.50193 0.24712 0.0
O555 O 0.49429 0.50726 0.29849 0.0
H556 H 0.52559 0.52218 0.21902 0.0
H557 H 0.44909 0.49954 0.20747 0.0
C558 C 0.49261 0.55089 0.28868 0.0
C559 C 0.50852 0.56256 0.30656 0.0
C560 C 0.52147 0.58858 0.3084 0.0
C561 C 0.51867 0.60322 0.29233 0.0
C562 C 0.50202 0.59137 0.27491 0.0
C563 C 0.48903 0.56542 0.27316 0.0
C564 C 0.44688 0.50203 0.29417 0.0
C565 C 0.43789 0.47994 0.30615 0.0
C566 C 0.41369 0.4679 0.31399 0.0
C567 C 0.39798 0.47752 0.3096 0.0
C568 C 0.40686 0.49935 0.29722 0.0
C569 C 0.43119 0.5116 0.28968 0.0
C570 C 0.48097 0.51297 0.25581 0.0
C571 C 0.5042 0.519 0.24757 0.0
C572 C 0.50755 0.51772 0.22506 0.0
C573 C 0.4878 0.51082 0.21045 0.0
C574 C 0.46458 0.50511 0.21857 0.0
C575 C 0.46117 0.50619 0.24119 0.0
O576 O 0.46613 0.97118 0.00633 0.0
Mn577 Mn 0.5027 -0.00087 0.00706 0.0
O578 O 0.45321 0.97768 0.0385 0.0
Mn579 Mn 0.47706 0.01097 0.04215 0.0
O580 O 0.5401 0.02809 0.00911 0.0
O581 O 0.5112 0.97215 0.99557 0.0
Mn582 Mn 0.53293 0.99181 0.97533 0.0
O583 O 0.49689 0.00854 0.9751 0.0
O584 O 0.5611 0.01557 0.9881 0.0
O585 O 0.50749 0.99022 0.04036 0.0
O586 O 0.50222 0.01738 0.0606 0.0
O587 O 0.53265 0.96375 0.9702 0.0
O588 O 0.52117 0.00202 0.95274 0.0
C589 C 0.47741 0.03253 0.0164 0.0
C590 C 0.44964 0.96484 0.02109 0.0
C591 C 0.56048 0.03036 0.00206 0.0
C592 C 0.51776 0.95663 0.9868 0.0
C593 C 0.5055 0.0088 0.95596 0.0
C594 C 0.50977 0.0019 0.05886 0.0
O595 O 0.4933 0.0247 0.01781 0.0
O596 O 0.4652 0.03085 0.03412 0.0
O597 O 0.02914 0.493 0.00775 0.0
Mn598 Mn 0.99587 0.49415 0.0055 0.0
O599 O 0.01853 0.45333 0.0037 0.0
Mn600 Mn 0.99011 0.44499 0.0188 0.0
O601 O 0.96343 0.49711 0.00338 0.0
O602 O 0.01634 0.53178 0.00587 0.0
Mn603 Mn 0.00424 0.54271 0.98503 0.0
O604 O 0.99598 0.49128 0.9715 0.0
O605 O 0.97634 0.53796 0.99914 0.0
O606 O 0.99588 0.49462 0.04028 0.0
O607 O 0.99428 0.458 0.04672 0.0
O608 O 0.03675 0.56614 0.98814 0.0
O609 O -0.00217 0.52572 0.95855 0.0
C610 C 0.95728 0.43312 0.0018 0.0
C611 C 0.035 0.47602 0.00477 0.0
C612 C 0.9593 0.51566 0.00265 0.0
C613 C 0.03778 0.55066 0.00167 0.0
C614 C 0.99545 0.50434 0.95564 0.0
C615 C 0.99668 0.47871 0.05344 0.0
O616 O 0.97376 0.45651 0.00443 0.0
O617 O 0.96192 0.41707 0.01103 0.0
O618 O 0.53527 0.50236 0.0015 0.0
Mn619 Mn 0.50135 0.50235 0.00361 0.0
O620 O 0.56345 0.54002 0.98901 0.0
Mn621 Mn 0.54089 0.54886 0.98018 0.0
O622 O 0.4673 0.50398 0.00441 0.0
O623 O 0.48544 0.46312 0.00781 0.0
Mn624 Mn 0.464 0.4689 0.02342 0.0
O625 O 0.50914 0.50909 0.03679 0.0
O626 O 0.43966 0.4647 0.00507 0.0
O627 O 0.49605 0.49698 0.96918 0.0
O628 O 0.5239 0.53395 0.95478 0.0
O629 O 0.45945 0.44183 0.03576 0.0
O630 O 0.47102 0.49129 0.04668 0.0
C631 C 0.52481 0.56327 0.00189 0.0
C632 C 0.55758 0.51868 0.99641 0.0
C633 C 0.44483 0.48646 0.00087 0.0
C634 C 0.47516 0.4436 0.02108 0.0
C635 C 0.49336 0.50535 0.05136 0.0
C636 C 0.50585 0.5118 0.95278 0.0
O637 O 0.51822 0.53983 0.00048 0.0
O638 O 0.54307 0.57795 0.98951 0.0
O639 O 0.13418 0.29764 0.33881 0.0
Mn640 Mn 0.16858 0.33057 0.33858 0.0
O641 O 0.10707 0.31007 0.33776 0.0
Mn642 Mn 0.12725 0.33417 0.35761 0.0
O643 O 0.20428 0.36132 0.33824 0.0
O644 O 0.1824 0.30774 0.33251 0.0
Mn645 Mn 0.19876 0.31768 0.30756 0.0
O646 O 0.16467 0.33581 0.30506 0.0
O647 O 0.22388 0.3501 0.31325 0.0
O648 O 0.1712 0.32734 0.37279 0.0
O649 O 0.13583 0.32536 0.3839 0.0
O650 O 0.20196 0.29116 0.31596 0.0
O651 O 0.17728 0.31406 0.28522 0.0
C652 C 0.14734 0.37013 0.34646 0.0
C653 C 0.11205 0.29284 0.33559 0.0
C654 C 0.22342 0.36569 0.32691 0.0
C655 C 0.18918 0.29108 0.33271 0.0
C656 C 0.1667 0.32692 0.28661 0.0
C657 C 0.15575 0.32507 0.38793 0.0
O658 O 0.15492 0.35409 0.34381 0.0
O659 O 0.12694 0.36298 0.35701 0.0
O660 O 0.69614 0.82665 0.34097 0.0
Mn661 Mn 0.66247 0.82664 0.33934 0.0
O662 O 0.68875 0.79369 0.36172 0.0
Mn663 Mn 0.65601 0.783 0.36656 0.0
O664 O 0.62683 0.82473 0.3392 0.0
O665 O 0.68562 0.86539 0.33483 0.0
Mn666 Mn 0.65801 0.86251 0.32304 0.0
O667 O 0.66145 0.82028 0.30573 0.0
O668 O 0.63893 0.86363 0.34483 0.0
O669 O 0.66414 0.83377 0.37354 0.0
O670 O 0.64934 0.79708 0.39021 0.0
O671 O 0.67939 0.89129 0.31247 0.0
O672 O 0.64276 0.84145 0.29898 0.0
C673 C 0.62941 0.76512 0.34191 0.0
C674 C 0.70306 0.81262 0.35048 0.0
C675 C 0.6218 0.84161 0.34565 0.0
C676 C 0.69408 0.8862 0.32347 0.0
C677 C 0.65029 0.82701 0.29236 0.0
C678 C 0.65684 0.82026 0.39089 0.0
O679 O 0.64363 0.78915 0.34288 0.0
O680 O 0.63293 0.75246 0.35695 0.0
O681 O 0.20053 0.83611 0.33681 0.0
Mn682 Mn 0.16609 0.83508 0.33969 0.0
O683 O 0.22844 0.87598 0.3348 0.0
Mn684 Mn 0.20651 0.88091 0.31853 0.0
O685 O 0.13068 0.83198 0.34068 0.0
O686 O 0.15146 0.79855 0.34526 0.0
Mn687 Mn 0.12873 0.78889 0.3657 0.0
O688 O 0.17194 0.84216 0.37362 0.0
O689 O 0.10455 0.79384 0.35398 0.0
O690 O 0.16156 0.82888 0.30581 0.0
O691 O 0.19457 0.86308 0.29243 0.0
O692 O 0.13046 0.76105 0.35841 0.0
O693 O 0.14438 0.80685 0.39048 0.0
C694 C 0.18695 0.8957 0.33411 0.0
C695 C 0.2232 0.85361 0.33686 0.0
C696 C 0.10876 0.81392 0.34481 0.0
C697 C 0.1471 0.7759 0.34479 0.0
C698 C 0.1623 0.82913 0.39091 0.0
C699 C 0.17509 0.84188 0.28972 0.0
O700 O 0.18057 0.87228 0.33514 0.0
O701 O 0.20623 0.90977 0.32249 0.0
O702 O 0.80485 0.63083 0.67793 0.0
Mn703 Mn 0.83794 0.66527 0.67336 0.0
O704 O 0.77705 0.64238 0.6765 0.0
Mn705 Mn 0.79784 0.66804 0.69467 0.0
O706 O 0.87182 0.699 0.66919 0.0
O707 O 0.85548 0.64541 0.66929 0.0
Mn708 Mn 0.8772 0.66117 0.64796 0.0
O709 O 0.82971 0.66338 0.64006 0.0
O710 O 0.90049 0.68788 0.66375 0.0
O711 O 0.84504 0.66711 0.70709 0.0
O712 O 0.80926 0.66161 0.72051 0.0
O713 O 0.86919 0.62852 0.64611 0.0
O714 O 0.86476 0.67037 0.62428 0.0
C715 C 0.81269 0.70192 0.68032 0.0
C716 C 0.78229 0.62526 0.67546 0.0
C717 C 0.89458 0.70423 0.66868 0.0
C718 C 0.85305 0.62495 0.66098 0.0
C719 C 0.84351 0.66821 0.62326 0.0
C720 C 0.83039 0.66369 0.72314 0.0
O721 O 0.82252 0.68769 0.6776 0.0
O722 O 0.79475 0.69512 0.69415 0.0
O723 O 0.36021 0.15671 0.67588 0.0
Mn724 Mn 0.32754 0.15902 0.67188 0.0
O725 O 0.34745 0.11795 0.68793 0.0
Mn726 Mn 0.31641 0.11115 0.69515 0.0
O727 O 0.2941 0.16037 0.66794 0.0
O728 O 0.34959 0.19734 0.6714 0.0
Mn729 Mn 0.33003 0.20216 0.65303 0.0
O730 O 0.33025 0.15538 0.63819 0.0
O731 O 0.30552 0.2002 0.67045 0.0
O732 O 0.32572 0.163 0.70598 0.0
O733 O 0.31435 0.12579 0.72083 0.0
O734 O 0.35991 0.22815 0.64812 0.0
O735 O 0.31955 0.18285 0.62765 0.0
C736 C 0.28851 0.09824 0.67132 0.0
C737 C 0.3644 0.13909 0.68161 0.0
C738 C 0.28857 0.1777 0.67096 0.0
C739 C 0.36713 0.2168 0.66147 0.0
C740 C 0.32426 0.16566 0.62321 0.0
C741 C 0.32042 0.14863 0.72264 0.0
O742 O 0.30535 0.12155 0.67345 0.0
O743 O 0.28997 0.08292 0.6848 0.0
O744 O 0.86968 0.17626 0.66857 0.0
Mn745 Mn 0.83326 0.169 0.67192 0.0
O746 O 0.88458 0.20405 0.6411 0.0
Mn747 Mn 0.85744 0.20823 0.63742 0.0
O748 O 0.79657 0.16124 0.67454 0.0
O749 O 0.82327 0.13408 0.68102 0.0
Mn750 Mn 0.80508 0.12597 0.70471 0.0
O751 O 0.84061 0.18187 0.70469 0.0
O752 O 0.77741 0.12743 0.69613 0.0
O753 O 0.82595 0.15513 0.63942 0.0
O754 O 0.83414 0.187 0.61779 0.0
O755 O 0.80718 0.09827 0.69722 0.0
O756 O 0.82412 0.148 0.72629 0.0
C757 C 0.84925 0.22789 0.66072 0.0
C758 C 0.8868 0.19 0.65503 0.0
C759 C 0.7771 0.14372 0.68362 0.0
C760 C 0.81886 0.11135 0.68032 0.0
C761 C 0.83674 0.1714 0.72357 0.0
C762 C 0.82535 0.16389 0.62053 0.0
O763 O 0.84364 0.20475 0.66335 0.0
O764 O 0.85998 0.23817 0.64245 0.0
H765 H 0.3079 0.88778 0.04617 0.0
H766 H 0.3041 0.82679 0.0078 0.0
H767 H 0.34643 0.85466 0.99407 0.0
H768 H 0.34957 0.94024 0.00773 0.0
H769 H 0.36518 0.96018 0.031 0.0
H770 H 0.33286 0.93725 0.03267 0.0
H771 H 0.34218 0.91933 0.06739 0.0
H772 H 0.37452 0.94147 0.06547 0.0
H773 H 0.3642 0.90858 0.0658 0.0
H774 H 0.392 0.88755 0.9903 0.0
H775 H 0.43497 0.92258 0.99542 0.0
H776 H 0.40764 0.96011 0.03778 0.0
C777 C 0.31564 0.88071 0.03408 0.0
C778 C 0.30295 0.85546 0.02778 0.0
C779 C 0.31358 0.84635 0.0124 0.0
C780 C 0.3376 0.862 0.00464 0.0
C781 C 0.35034 0.88662 0.01227 0.0
C782 C 0.33943 0.89599 0.02633 0.0
C783 C 0.35765 0.92183 0.03452 0.0
C784 C 0.35091 0.94101 0.02596 0.0
C785 C 0.35976 0.92283 0.05977 0.0
C786 C 0.38082 0.92507 0.02391 0.0
C787 C 0.37638 0.90495 0.01073 0.0
C788 C 0.39559 0.90358 0.00028 0.0
C789 C 0.41988 0.92341 0.00336 0.0
C790 C 0.42456 0.94382 0.01717 0.0
C791 C 0.40469 0.94459 0.02731 0.0
H792 H 0.13397 0.4328 0.00681 0.0
H793 H 0.12917 0.43575 0.07782 0.0
H794 H 0.10614 0.45818 0.07408 0.0
H795 H 0.13778 0.49314 0.99566 0.0
H796 H 0.11853 0.48164 0.97147 0.0
H797 H 0.13764 0.46866 0.97929 0.0
H798 H 0.09931 0.42426 0.97987 0.0
H799 H 0.08033 0.43704 0.97148 0.0
H800 H 0.07293 0.41871 0.99607 0.0
H801 H 0.08289 0.47949 0.063 0.0
H802 H 0.05316 0.48938 0.0456 0.0
H803 H 0.06863 0.46849 0.98206 0.0
C804 C 0.12815 0.43817 0.0216 0.0
C805 C 0.13411 0.433 0.04265 0.0
C806 C 0.12581 0.44027 0.06151 0.0
C807 C 0.11263 0.45303 0.05957 0.0
C808 C 0.10761 0.45831 0.03865 0.0
C809 C 0.11462 0.45065 0.01998 0.0
C810 C 0.10468 0.45649 0.99949 0.0
C811 C 0.12593 0.47614 0.98566 0.0
C812 C 0.08833 0.43271 0.98595 0.0
C813 C 0.08982 0.46729 0.00964 0.0
C814 C 0.09277 0.46925 0.03221 0.0
C815 C 0.08063 0.47828 0.04533 0.0
C816 C 0.06404 0.48422 0.03526 0.0
C817 C 0.05915 0.48032 0.01243 0.0
C818 C 0.0727 0.47241 0.9994 0.0
H819 H 0.56415 0.68364 0.06263 0.0
H820 H 0.53664 0.7019 0.00445 0.0
H821 H 0.51159 0.65703 0.99507 0.0
H822 H 0.574 0.63921 0.03818 0.0
H823 H 0.56531 0.61899 0.06162 0.0
H824 H 0.57656 0.65167 0.06555 0.0
H825 H 0.53659 0.64063 0.08706 0.0
H826 H 0.5249 0.6078 0.08219 0.0
H827 H 0.50694 0.6219 0.07399 0.0
H828 H 0.49158 0.611 0.99083 0.0
H829 H 0.48995 0.57091 0.98459 0.0
H830 H 0.53361 0.5827 0.04322 0.0
C831 C 0.55233 0.67805 0.04822 0.0
C832 C 0.5518 0.69608 0.03451 0.0
C833 C 0.53699 0.68829 0.0153 0.0
C834 C 0.52244 0.66285 0.01005 0.0
C835 C 0.52298 0.64544 0.02414 0.0
C836 C 0.53808 0.65275 0.04253 0.0
C837 C 0.5386 0.63077 0.05281 0.0
C838 C 0.56518 0.63544 0.0546 0.0
C839 C 0.52601 0.62493 0.07535 0.0
C840 C 0.52314 0.61036 0.03626 0.0
C841 C 0.51293 0.61887 0.02075 0.0
C842 C 0.49926 0.60407 0.00298 0.0
C843 C 0.49802 0.58103 0.99977 0.0
C844 C 0.51157 0.5738 0.01349 0.0
C845 C 0.52255 0.58758 0.03289 0.0
H846 H 0.88609 0.30903 0.95031 0.0
H847 H 0.82997 0.2964 0.99816 0.0
H848 H 0.84859 0.34208 0.00367 0.0
H849 H 0.93465 0.3576 0.98104 0.0
H850 H 0.95131 0.37403 0.95694 0.0
H851 H 0.93116 0.3409 0.95567 0.0
H852 H 0.90849 0.34757 0.92286 0.0
H853 H 0.92775 0.38095 0.92518 0.0
H854 H 0.89463 0.36689 0.92648 0.0
H855 H 0.87569 0.3883 0.0068 0.0
H856 H 0.91342 0.42861 0.01377 0.0
H857 H 0.95085 0.41215 0.96242 0.0
C858 C 0.87756 0.31604 0.96164 0.0
C859 C 0.85643 0.29953 0.97355 0.0
C860 C 0.84608 0.309 0.98879 0.0
C861 C 0.85635 0.33484 0.99179 0.0
C862 C 0.87695 0.35081 0.97941 0.0
C863 C 0.88775 0.3417 0.965 0.0
C864 C 0.91182 0.36243 0.9562 0.0
C865 C 0.93349 0.35851 0.96287 0.0
C866 C 0.91058 0.36458 0.93119 0.0
C867 C 0.91304 0.3847 0.96798 0.0
C868 C 0.89255 0.37768 0.98106 0.0
C869 C 0.89154 0.39415 0.99628 0.0
C870 C 0.91291 0.41734 0.99984 0.0
C871 C 0.93485 0.42337 0.98849 0.0
C872 C 0.93397 0.40818 0.97074 0.0
H873 H 0.68733 0.56047 0.95163 0.0
H874 H 0.71078 0.5588 0.01839 0.0
H875 H 0.66713 0.53572 0.02989 0.0
H876 H 0.64002 0.57158 0.96485 0.0
H877 H 0.61989 0.55272 0.94282 0.0
H878 H 0.65272 0.56651 0.94005 0.0
H879 H 0.64706 0.52269 0.93206 0.0
H880 H 0.61413 0.5087 0.93537 0.0
H881 H 0.63119 0.49808 0.95162 0.0
H882 H 0.6208 0.51732 0.03475 0.0
H883 H 0.57764 0.50901 0.0326 0.0
H884 H 0.58495 0.51992 0.9624 0.0
C885 C 0.68338 0.55463 0.96855 0.0
C886 C 0.70259 0.56134 0.98402 0.0
C887 C 0.69645 0.55407 0.0062 0.0
C888 C 0.67166 0.54066 0.01285 0.0
C889 C 0.65318 0.53432 0.9971 0.0
C890 C 0.65884 0.54111 0.97539 0.0
C891 C 0.63593 0.53427 0.96198 0.0
C892 C 0.63723 0.55765 0.95185 0.0
C893 C 0.63184 0.51477 0.94421 0.0
C894 C 0.61648 0.52325 0.97962 0.0
C895 C 0.62661 0.52309 0.99978 0.0
C896 C 0.61253 0.51669 0.01896 0.0
C897 C 0.58794 0.51168 0.01761 0.0
C898 C 0.57792 0.51319 0.99725 0.0
C899 C 0.59201 0.51779 0.97801 0.0
H900 H 0.45142 0.14079 0.99604 0.0
H901 H 0.41583 0.10496 0.93477 0.0
H902 H 0.42624 0.07172 0.94123 0.0
H903 H 0.50136 0.13435 0.992 0.0
H904 H 0.50356 0.127 0.02021 0.0
H905 H 0.48901 0.14496 0.01363 0.0
H906 H 0.44854 0.11332 0.03282 0.0
H907 H 0.46348 0.09608 0.04082 0.0
H908 H 0.4346 0.08065 0.02599 0.0
H909 H 0.44383 0.04419 0.95357 0.0
H910 H 0.46131 0.02173 0.97367 0.0
H911 H 0.4898 0.07965 0.02368 0.0
C912 C 0.44483 0.12525 0.98459 0.0
C913 C 0.43245 0.12491 0.96519 0.0
C914 C 0.42479 0.10495 0.95001 0.0
C915 C 0.43091 0.08625 0.95342 0.0
C916 C 0.44468 0.08799 0.97206 0.0
C917 C 0.45091 0.10662 0.98769 0.0
C918 C 0.46662 0.10509 0.00578 0.0
C919 C 0.49162 0.12929 0.008 0.0
C920 C 0.45247 0.09838 0.02764 0.0
C921 C 0.46963 0.08378 0.9972 0.0
C922 C 0.45637 0.07364 0.97805 0.0
C923 C 0.45456 0.05219 0.96841 0.0
C924 C 0.46511 0.03987 0.97957 0.0
C925 C 0.47772 0.04954 0.99971 0.0
C926 C 0.48116 0.07249 0.0078 0.0
H927 H 0.68965 0.14392 0.97327 0.0
H928 H 0.71619 0.09349 0.99136 0.0
H929 H 0.67594 0.06486 0.00725 0.0
H930 H 0.64838 0.13175 0.01957 0.0
H931 H 0.62394 0.13146 0.00358 0.0
H932 H 0.65562 0.15021 0.99509 0.0
H933 H 0.6452 0.12821 0.95696 0.0
H934 H 0.61343 0.1103 0.9651 0.0
H935 H 0.6295 0.09462 0.95551 0.0
H936 H 0.63479 0.0432 0.02377 0.0
H937 H 0.5896 0.0207 0.02704 0.0
H938 H 0.5863 0.08045 0.99348 0.0
C939 C 0.68697 0.12684 0.98051 0.0
C940 C 0.70664 0.12166 0.98205 0.0
C941 C 0.70199 0.09867 0.99109 0.0
C942 C 0.67914 0.0822 1.00017 0.0
C943 C 0.66072 0.08855 0.99967 0.0
C944 C 0.66384 0.10965 0.98923 0.0
C945 C 0.63975 0.11018 0.98888 0.0
C946 C 0.64208 0.13222 0.00259 0.0
C947 C 0.63148 0.11084 0.9652 0.0
C948 C 0.62262 0.08564 1.00001 0.0
C949 C 0.63561 0.0743 0.00712 0.0
C950 C 0.62432 0.05175 0.01815 0.0
C951 C 0.5987 0.03935 0.02033 0.0
C952 C 0.58462 0.04902 0.0107 0.0
C953 C 0.59675 0.07305 0.00147 0.0
H954 H 0.8655 0.56468 0.00817 0.0
H955 H 0.86284 0.5579 0.93726 0.0
H956 H 0.88439 0.5335 0.93912 0.0
H957 H 0.92447 0.57422 0.01647 0.0
H958 H 0.91756 0.55561 0.04085 0.0
H959 H 0.89925 0.5696 0.03392 0.0
H960 H 0.85983 0.52606 0.03508 0.0
H961 H 0.87822 0.51187 0.04157 0.0
H962 H 0.85784 0.50113 0.01808 0.0
H963 H 0.90742 0.51168 0.94835 0.0
H964 H 0.93766 0.50114 0.96346 0.0
H965 H 0.92808 0.52418 0.02828 0.0
C966 C 0.86931 0.55775 0.99315 0.0
C967 C 0.86247 0.5628 0.97256 0.0
C968 C 0.8678 0.55382 0.95313 0.0
C969 C 0.8798 0.53983 0.95407 0.0
C970 C 0.88602 0.53473 0.97462 0.0
C971 C 0.8812 0.5436 0.99382 0.0
C972 C 0.89164 0.5371 0.01358 0.0
C973 C 0.9093 0.56054 0.02697 0.0
C974 C 0.87063 0.51791 0.02793 0.0
C975 C 0.90501 0.5253 0.0023 0.0
C976 C 0.90029 0.52287 0.97995 0.0
C977 C 0.91094 0.5131 0.96586 0.0
C978 C 0.92783 0.50682 0.97464 0.0
C979 C 0.93456 0.51116 0.99711 0.0
C980 C 0.92249 0.51983 0.01123 0.0
H981 H 0.4596 0.32831 0.94825 0.0
H982 H 0.41959 0.28276 0.00377 0.0
H983 H 0.42761 0.3207 0.02445 0.0
H984 H 0.50616 0.37845 0.97735 0.0
H985 H 0.50764 0.40286 0.96034 0.0
H986 H 0.49742 0.37232 0.94878 0.0
H987 H 0.45635 0.36901 0.93585 0.0
H988 H 0.46688 0.39994 0.94658 0.0
H989 H 0.43772 0.37436 0.95533 0.0
H990 H 0.4472 0.36267 0.0411 0.0
H991 H 0.46336 0.40673 0.04998 0.0
H992 H 0.48541 0.42627 0.98209 0.0
C993 C 0.45206 0.32643 0.96457 0.0
C994 C 0.43923 0.30287 0.97469 0.0
C995 C 0.42947 0.30076 0.99594 0.0
C996 C 0.43413 0.32216 0.00779 0.0
C997 C 0.44809 0.34526 0.99785 0.0
C998 C 0.45597 0.34757 0.97642 0.0
C999 C 0.47016 0.37478 0.96969 0.0
C1000 C 0.49693 0.38255 0.96368 0.0
C1001 C 0.45698 0.37982 0.95075 0.0
C1002 C 0.46925 0.38738 0.99086 0.0
C1003 C 0.45716 0.36985 0.00697 0.0
C1004 C 0.45582 0.37654 0.02846 0.0
C1005 C 0.46533 0.40172 0.03331 0.0
C1006 C 0.47488 0.41994 0.01655 0.0
C1007 C 0.47798 0.41283 0.99519 0.0
H1008 H 0.151 0.6773 0.01306 0.0
H1009 H 0.11537 0.68684 0.07053 0.0
H1010 H 0.08482 0.64198 0.06963 0.0
H1011 H 0.09523 0.63092 0.98571 0.0
H1012 H 0.11025 0.61466 0.97497 0.0
H1013 H 0.12795 0.64759 0.98045 0.0
H1014 H 0.15708 0.63926 0.00496 0.0
H1015 H 0.13834 0.60608 0.00067 0.0
H1016 H 0.14462 0.61888 0.02816 0.0
H1017 H 0.05916 0.59585 0.06345 0.0
H1018 H 0.0328 0.55518 0.04543 0.0
H1019 H 0.08637 0.57508 0.9935 0.0
C1020 C 0.13667 0.66998 0.02537 0.0
C1021 C 0.13579 0.68553 0.04201 0.0
C1022 C 0.1164 0.67535 0.05752 0.0
C1023 C 0.09923 0.64978 0.05743 0.0
C1024 C 0.10178 0.63468 0.0418 0.0
C1025 C 0.11951 0.64452 0.02563 0.0
C1026 C 0.11749 0.62451 0.00996 0.0
C1027 C 0.1124 0.62972 0.98639 0.0
C1028 C 0.14077 0.62204 0.01101 0.0
C1029 C 0.09544 0.60187 0.01957 0.0
C1030 C 0.08705 0.60804 0.03828 0.0
C1031 C 0.06561 0.59073 0.0489 0.0
C1032 C 0.05099 0.56736 0.03883 0.0
C1033 C 0.05759 0.56222 0.01804 0.0
C1034 C 0.08125 0.5785 0.00961 0.0
H1035 H 0.30146 0.41668 0.0056 0.0
H1036 H 0.30916 0.46683 0.05916 0.0
H1037 H 0.35343 0.493 0.05091 0.0
H1038 H 0.35904 0.41908 0.01551 0.0
H1039 H 0.36492 0.41707 0.98682 0.0
H1040 H 0.33368 0.40352 0.99638 0.0
H1041 H 0.32561 0.42963 0.96797 0.0
H1042 H 0.35712 0.44383 0.95878 0.0
H1043 H 0.34478 0.4631 0.96822 0.0
H1044 H 0.39768 0.51249 0.0383 0.0
H1045 H 0.43841 0.52007 0.02543 0.0
H1046 H 0.40181 0.45834 0.97947 0.0
C1047 C 0.31243 0.43319 0.01558 0.0
C1048 C 0.30162 0.43989 0.0328 0.0
C1049 C 0.31678 0.46161 0.04551 0.0
C1050 C 0.342 0.47661 0.04097 0.0
C1051 C 0.35194 0.46981 0.02358 0.0
C1052 C 0.33767 0.44843 0.01124 0.0
C1053 C 0.35318 0.44434 0.99444 0.0
C1054 C 0.35269 0.41955 0.99854 0.0
C1055 C 0.34466 0.44529 0.97096 0.0
C1056 C 0.37842 0.46665 0.99935 0.0
C1057 C 0.37735 0.48126 0.01611 0.0
C1058 C 0.39872 0.50151 0.02486 0.0
C1059 C 0.42184 0.50604 0.01717 0.0
C1060 C 0.42328 0.49024 0.00106 0.0
C1061 C 0.40123 0.47126 0.99125 0.0
H1062 H 0.56193 0.88294 0.05969 0.0
H1063 H 0.5622 0.84731 0.9982 0.0
H1064 H 0.53843 0.86456 0.98048 0.0
H1065 H 0.49936 0.8755 0.05203 0.0
H1066 H 0.50778 0.90542 0.0641 0.0
H1067 H 0.52275 0.88851 0.07319 0.0
H1068 H 0.56573 0.9262 0.06426 0.0
H1069 H 0.55081 0.94333 0.05602 0.0
H1070 H 0.57116 0.93969 0.03728 0.0
H1071 H 0.51377 0.88376 0.96974 0.0
H1072 H 0.50199 0.91536 0.96238 0.0
H1073 H 0.52122 0.94317 0.02922 0.0
C1074 C 0.55683 0.87883 0.04253 0.0
C1075 C 0.56342 0.86355 0.03023 0.0
C1076 C 0.55689 0.8587 0.0078 0.0
C1077 C 0.54321 0.86818 0.99772 0.0
C1078 C 0.53612 0.88241 0.01036 0.0
C1079 C 0.54325 0.88839 0.03208 0.0
C1080 C 0.53501 0.90609 0.04111 0.0
C1081 C 0.51505 0.89311 0.05866 0.0
C1082 C 0.557 0.93027 0.05017 0.0
C1083 C 0.52394 0.91058 0.0206 0.0
C1084 C 0.52342 0.8954 0.00355 0.0
C1085 C 0.51413 0.89579 0.98292 0.0
C1086 C 0.50711 0.9136 0.97901 0.0
C1087 C 0.51078 0.93175 0.99521 0.0
C1088 C 0.51777 0.92925 0.01671 0.0
H1089 H 0.97115 0.18977 0.33437 0.0
H1090 H 0.97474 0.20883 0.40345 0.0
H1091 H 0.0196 0.23729 0.40051 0.0
H1092 H 0.02587 0.18984 0.33029 0.0
H1093 H 0.03597 0.20531 0.30429 0.0
H1094 H 0.0035 0.18782 0.31042 0.0
H1095 H -0.00146 0.2264 0.30368 0.0
H1096 H 0.03062 0.24356 0.29622 0.0
H1097 H 0.01906 0.25545 0.31745 0.0
H1098 H 0.06361 0.25337 0.39255 0.0
H1099 H 0.10494 0.27698 0.37659 0.0
H1100 H 0.07331 0.25646 0.31111 0.0
C1101 C 0.98129 0.20096 0.3485 0.0
C1102 C 0.96984 0.19735 0.36914 0.0
C1103 C 0.98343 0.21173 0.38753 0.0
C1104 C 0.00887 0.22751 0.3861 0.0
C1105 C 0.02003 0.22912 0.36599 0.0
C1106 C 0.00666 0.21772 0.34715 0.0
C1107 C 0.02353 0.22394 0.32747 0.0
C1108 C 0.02212 0.20032 0.31753 0.0
C1109 C 0.01759 0.23821 0.3102 0.0
C1110 C 0.04839 0.24033 0.33841 0.0
C1111 C 0.04579 0.24171 0.36081 0.0
C1112 C 0.06592 0.25335 0.37495 0.0
C1113 C 0.08934 0.26624 0.36574 0.0
C1114 C 0.09207 0.26883 0.3427 0.0
C1115 C 0.07159 0.25467 0.32878 0.0
H1116 H 0.78959 0.75651 0.34319 0.0
H1117 H 0.81624 0.79152 0.40736 0.0
H1118 H 0.79712 0.81709 0.40142 0.0
H1119 H 0.7904 0.80832 0.31447 0.0
H1120 H 0.76101 0.78892 0.30117 0.0
H1121 H 0.78061 0.77621 0.30801 0.0
H1122 H 0.74531 0.74105 0.33036 0.0
H1123 H 0.72554 0.75324 0.32294 0.0
H1124 H 0.73029 0.74921 0.35147 0.0
H1125 H 0.77341 0.83747 0.39014 0.0
H1126 H 0.73868 0.84325 0.37864 0.0
H1127 H 0.72287 0.79163 0.32451 0.0
C1128 C 0.79162 0.76948 0.35613 0.0
C1129 C 0.8056 0.77235 0.37545 0.0
C1130 C 0.80709 0.7896 0.39181 0.0
C1131 C 0.79606 0.80427 0.38869 0.0
C1132 C 0.78294 0.80123 0.36937 0.0
C1133 C 0.77997 0.78369 0.35368 0.0
C1134 C 0.76167 0.78131 0.33609 0.0
C1135 C 0.77418 0.78916 0.3136 0.0
C1136 C 0.73939 0.75464 0.33518 0.0
C1137 C 0.75451 0.79991 0.34466 0.0
C1138 C 0.76769 0.81183 0.36346 0.0
C1139 C 0.76323 0.82859 0.37524 0.0
C1140 C 0.74375 0.8321 0.36841 0.0
C1141 C 0.7288 0.81854 0.35028 0.0
C1142 C 0.73484 0.80304 0.33778 0.0
H1143 H 0.2308 0.01682 0.39363 0.0
H1144 H 0.20449 0.03716 0.33589 0.0
H1145 H 0.17806 0.99253 0.32624 0.0
H1146 H 0.23785 0.9708 0.36802 0.0
H1147 H 0.22911 0.95071 0.39154 0.0
H1148 H 0.24188 0.98365 0.39539 0.0
H1149 H 0.20312 0.97464 0.418 0.0
H1150 H 0.18989 0.94159 0.41323 0.0
H1151 H 0.17289 0.95694 0.40567 0.0
H1152 H 0.15767 0.94678 0.32106 0.0
H1153 H 0.15454 0.90597 0.31484 0.0
H1154 H 0.19493 0.91483 0.375 0.0
C1155 C 0.21896 0.01175 0.37927 0.0
C1156 C 0.21919 0.03025 0.36571 0.0
C1157 C 0.20431 0.02315 0.34656 0.0
C1158 C 0.189 -0.00212 0.34116 0.0
C1159 C 0.18884 0.98 0.35508 0.0
C1160 C 0.20388 0.98664 0.37348 0.0
C1161 C 0.20344 0.96416 0.38364 0.0
C1162 C 0.2296 0.96753 0.38467 0.0
C1163 C 0.19163 0.95903 0.40649 0.0
C1164 C 0.18693 0.94401 0.36734 0.0
C1165 C 0.17774 0.95335 0.35161 0.0
C1166 C 0.16431 0.93911 0.33349 0.0
C1167 C 0.16217 0.91568 0.33027 0.0
C1168 C 0.17417 0.90726 0.34466 0.0
C1169 C 0.18483 0.92055 0.36429 0.0
H1170 H 0.52655 0.63314 0.32814 0.0
H1171 H 0.54434 0.63536 0.25915 0.0
H1172 H 0.5704 0.68134 0.26157 0.0
H1173 H 0.52341 0.68994 0.33138 0.0
H1174 H 0.53849 0.69868 0.35784 0.0
H1175 H 0.52021 0.66623 0.35032 0.0
H1176 H 0.55771 0.65977 0.3577 0.0
H1177 H 0.57565 0.69196 0.36583 0.0
H1178 H 0.58663 0.67981 0.34439 0.0
H1179 H 0.60136 0.72644 0.27445 0.0
H1180 H 0.63061 0.76388 0.29632 0.0
H1181 H 0.58467 0.73299 0.3534 0.0
C1182 C 0.53566 0.64332 0.31347 0.0
C1183 C 0.53339 0.63079 0.29346 0.0
C1184 C 0.54569 0.64474 0.27462 0.0
C1185 C 0.56052 0.67082 0.27584 0.0
C1186 C 0.56241 0.68267 0.2959 0.0
C1187 C 0.55002 0.66925 0.31428 0.0
C1188 C 0.55616 0.68582 0.33426 0.0
C1189 C 0.53317 0.6851 0.344 0.0
C1190 C 0.56984 0.67893 0.35154 0.0
C1191 C 0.5732 0.71074 0.32423 0.0
C1192 C 0.57758 0.70876 0.30227 0.0
C1193 C 0.59728 0.72849 0.29135 0.0
C1194 C 0.61356 0.74994 0.30369 0.0
C1195 C 0.60918 0.75144 0.32629 0.0
C1196 C 0.58768 0.73257 0.33591 0.0
H1197 H 0.36252 0.88748 0.33687 0.0
H1198 H 0.36114 0.9101 0.26986 0.0
H1199 H 0.3158 0.88879 0.27077 0.0
H1200 H 0.30375 0.82615 0.33144 0.0
H1201 H 0.29395 0.82751 0.35896 0.0
H1202 H 0.32642 0.84177 0.35282 0.0
H1203 H 0.33398 0.88428 0.36809 0.0
H1204 H 0.30181 0.86987 0.37492 0.0
H1205 H 0.31558 0.8971 0.35779 0.0
H1206 H 0.2712 0.86436 0.27791 0.0
H1207 H 0.2307 0.85074 0.29439 0.0
H1208 H 0.26 0.84901 0.35847 0.0
C1209 C 0.3526 0.88784 0.32241 0.0
C1210 C 0.36535 0.89985 0.30304 0.0
C1211 C 0.35175 0.90027 0.28458 0.0
C1212 C 0.32597 0.88811 0.28489 0.0
C1213 C 0.31389 0.87554 0.30381 0.0
C1214 C 0.32664 0.87583 0.32247 0.0
C1215 C 0.30885 0.86268 0.34119 0.0
C1216 C 0.30822 0.83808 0.34643 0.0
C1217 C 0.31545 0.87952 0.3617 0.0
C1218 C 0.28457 0.85746 0.33075 0.0
C1219 C 0.28784 0.86334 0.30871 0.0
C1220 C 0.2684 0.85976 0.29516 0.0
C1221 C 0.24534 0.85171 0.30465 0.0
C1222 C 0.24223 0.84879 0.32767 0.0
C1223 C 0.2618 0.85067 0.34081 0.0
H1224 H 0.10619 0.44683 0.28055 0.0
H1225 H 0.12622 0.49434 0.3386 0.0
H1226 H 0.14666 0.47253 0.35423 0.0
H1227 H 0.09428 0.39022 0.30825 0.0
H1228 H 0.10668 0.38071 0.28585 0.0
H1229 H 0.09301 0.39978 0.28062 0.0
H1230 H 0.13371 0.43149 0.26156 0.0
H1231 H 0.1479 0.41309 0.2681 0.0
H1232 H 0.16232 0.44527 0.27682 0.0
H1233 H 0.16752 0.44814 0.36226 0.0
H1234 H 0.17488 0.41306 0.36821 0.0
H1235 H 0.14177 0.38155 0.30506 0.0
C1236 C 0.11474 0.45253 0.29662 0.0
C1237 C 0.11501 0.47256 0.3082 0.0
C1238 C 0.12581 0.47907 0.32942 0.0
C1239 C 0.13784 0.46709 0.33826 0.0
C1240 C 0.13888 0.44875 0.32564 0.0
C1241 C 0.12687 0.44085 0.30565 0.0
C1242 C 0.12976 0.41987 0.29589 0.0
C1243 C 0.10443 0.39625 0.29248 0.0
C1244 C 0.14429 0.42792 0.27431 0.0
C1245 C 0.14477 0.41673 0.31388 0.0
C1246 C 0.15055 0.43422 0.33048 0.0
C1247 C 0.16319 0.4344 0.34938 0.0
C1248 C 0.16787 0.41473 0.3524 0.0
C1249 C 0.15904 0.39489 0.33702 0.0
C1250 C 0.14931 0.39694 0.31673 0.0
H1251 H 0.35604 0.46118 0.2852 0.0
H1252 H 0.38207 0.46383 0.35167 0.0
H1253 H 0.3388 0.44084 0.36463 0.0
H1254 H 0.30069 0.46558 0.29846 0.0
H1255 H 0.28242 0.44347 0.27727 0.0
H1256 H 0.31526 0.46304 0.27381 0.0
H1257 H 0.31971 0.42394 0.26743 0.0
H1258 H 0.28694 0.40439 0.27054 0.0
H1259 H 0.30778 0.39959 0.28761 0.0
H1260 H 0.29244 0.41528 0.36977 0.0
H1261 H 0.24785 0.38441 0.36572 0.0
H1262 H 0.25284 0.39702 0.29566 0.0
C1263 C 0.35256 0.45737 0.30255 0.0
C1264 C 0.37223 0.46454 0.31754 0.0
C1265 C 0.36712 0.45858 0.34001 0.0
C1266 C 0.34266 0.44573 0.34751 0.0
C1267 C 0.32359 0.43887 0.33228 0.0
C1268 C 0.32831 0.44423 0.31021 0.0
C1269 C 0.30473 0.43236 0.29677 0.0
C1270 C 0.30054 0.45231 0.28594 0.0
C1271 C 0.3048 0.41398 0.27959 0.0
C1272 C 0.28601 0.41898 0.3146 0.0
C1273 C 0.2971 0.42345 0.33508 0.0
C1274 C 0.28353 0.41192 0.35387 0.0
C1275 C 0.25821 0.39463 0.35149 0.0
C1276 C 0.24703 0.38881 0.33045 0.0
C1277 C 0.26096 0.40166 0.31196 0.0
H1278 H 0.54617 0.91158 0.34295 0.0
H1279 H 0.51039 0.86854 0.28407 0.0
H1280 H 0.52963 0.84261 0.29027 0.0
H1281 H 0.60346 0.91243 0.3351 0.0
H1282 H 0.60835 0.91029 0.36399 0.0
H1283 H 0.59079 0.92451 0.35513 0.0
H1284 H 0.5544 0.89381 0.37932 0.0
H1285 H 0.57165 0.87905 0.38783 0.0
H1286 H 0.54158 0.8607 0.37536 0.0
H1287 H 0.55391 0.82208 0.30216 0.0
H1288 H 0.58539 0.81244 0.31617 0.0
H1289 H 0.60469 0.8681 0.36756 0.0
C1290 C 0.54238 0.8967 0.33136 0.0
C1291 C 0.52637 0.89183 0.31323 0.0
C1292 C 0.52205 0.87224 0.2984 0.0
C1293 C 0.53294 0.85741 0.30176 0.0
C1294 C 0.54809 0.86227 0.32008 0.0
C1295 C 0.55305 0.88164 0.3345 0.0
C1296 C 0.57096 0.8837 0.35231 0.0
C1297 C 0.5948 0.90923 0.35157 0.0
C1298 C 0.55892 0.87903 0.37505 0.0
C1299 C 0.57547 0.86263 0.34551 0.0
C1300 C 0.56193 0.85032 0.32701 0.0
C1301 C 0.56431 0.83128 0.31688 0.0
C1302 C 0.58192 0.82554 0.32519 0.0
C1303 C 0.59704 0.83899 0.34332 0.0
C1304 C 0.59282 0.85692 0.35414 0.0
H1305 H 0.13166 0.64956 0.33697 0.0
H1306 H 0.0896 0.64188 0.27765 0.0
H1307 H 0.10651 0.68724 0.27721 0.0
H1308 H 0.12513 0.69864 0.36184 0.0
H1309 H 0.15587 0.71337 0.37337 0.0
H1310 H 0.13949 0.68036 0.36826 0.0
H1311 H 0.1769 0.68619 0.34507 0.0
H1312 H 0.19239 0.71954 0.34895 0.0
H1313 H 0.1863 0.70637 0.3216 0.0
H1314 H 0.12791 0.73305 0.28274 0.0
H1315 H 0.14117 0.77348 0.30093 0.0
H1316 H 0.17194 0.7524 0.35463 0.0
C1317 C 0.12595 0.65741 0.32392 0.0
C1318 C 0.10952 0.64214 0.30724 0.0
C1319 C 0.10201 0.65309 0.29076 0.0
C1320 C 0.11196 0.67893 0.29004 0.0
C1321 C 0.12953 0.69356 0.30577 0.0
C1322 C 0.13588 0.68317 0.32279 0.0
C1323 C 0.15379 0.7029 0.33855 0.0
C1324 C 0.14291 0.69857 0.36186 0.0
C1325 C 0.17883 0.7038 0.33853 0.0
C1326 C 0.15576 0.72598 0.32817 0.0
C1327 C 0.14226 0.72025 0.30884 0.0
C1328 C 0.13882 0.73789 0.29768 0.0
C1329 C 0.14694 0.76111 0.30783 0.0
C1330 C 0.15725 0.76562 0.32912 0.0
C1331 C 0.16441 0.74926 0.33812 0.0
H1332 H 0.79424 0.00061 0.39171 0.0
H1333 H 0.80975 0.04229 0.33134 0.0
H1334 H 0.78141 0.00339 0.31113 0.0
H1335 H 0.79117 0.94635 0.36961 0.0
H1336 H 0.76567 0.92462 0.38611 0.0
H1337 H 0.78622 0.95566 0.39638 0.0
H1338 H 0.74965 0.96374 0.4022 0.0
H1339 H 0.72894 0.9323 0.39308 0.0
H1340 H 0.72849 0.95801 0.37981 0.0
H1341 H 0.75524 0.96016 0.29725 0.0
H1342 H 0.72204 0.91681 0.29158 0.0
H1343 H 0.72157 0.90316 0.36134 0.0
C1344 C 0.79127 0.00148 0.37429 0.0
C1345 C 0.80419 0.02412 0.36286 0.0
C1346 C 0.7999 0.02495 0.3402 0.0
C1347 C 0.78416 0.00299 0.32863 0.0
C1348 C 0.77284 0.98066 0.34015 0.0
C1349 C 0.7754 0.97984 0.36259 0.0
C1350 C 0.76019 0.95356 0.37114 0.0
C1351 C 0.77681 0.94452 0.38142 0.0
C1352 C 0.74066 0.95181 0.38751 0.0
C1353 C 0.74854 0.93968 0.34994 0.0
C1354 C 0.75673 0.95566 0.33224 0.0
C1355 C 0.74849 0.94751 0.31096 0.0
C1356 C 0.72987 0.92283 0.30789 0.0
C1357 C 0.71935 0.90689 0.32606 0.0
C1358 C 0.72967 0.91491 0.34718 0.0
H1359 H 0.98006 0.78472 0.38591 0.0
H1360 H 0.95072 0.73573 0.32911 0.0
H1361 H 0.99251 0.75537 0.31299 0.0
H1362 H 0.0286 0.84016 0.35724 0.0
H1363 H 0.05055 0.84794 0.37934 0.0
H1364 H 0.01795 0.83262 0.38511 0.0
H1365 H 0.02046 0.79689 0.40481 0.0
H1366 H 0.05306 0.81252 0.39965 0.0
H1367 H 0.03371 0.78071 0.39057 0.0
H1368 H 0.03772 0.77807 0.3044 0.0
H1369 H 0.08288 0.79594 0.30724 0.0
H1370 H 0.08316 0.82925 0.37 0.0
C1371 C 0.98243 0.77851 0.36989 0.0
C1372 C 0.96218 0.75894 0.3586 0.0
C1373 C 0.96602 0.75074 0.33798 0.0
C1374 C 0.98962 0.76199 0.3286 0.0
C1375 C 0.00922 0.7814 0.34007 0.0
C1376 C 0.00592 0.78931 0.36044 0.0
C1377 C 0.03039 0.80829 0.37061 0.0
C1378 C 0.03195 0.83376 0.37323 0.0
C1379 C 0.03465 0.79904 0.3927 0.0
C1380 C 0.04809 0.80917 0.35318 0.0
C1381 C 0.03545 0.79414 0.33535 0.0
C1382 C 0.0478 0.79031 0.31803 0.0
C1383 C 0.07352 0.80086 0.31959 0.0
C1384 C 0.08653 0.81475 0.33845 0.0
C1385 C 0.07377 0.81978 0.35496 0.0
H1386 H 0.20622 0.18049 0.35665 0.0
H1387 H 0.26052 0.22927 0.40466 0.0
H1388 H 0.24218 0.25658 0.40449 0.0
H1389 H 0.20889 0.22627 0.32437 0.0
H1390 H 0.17651 0.21055 0.31729 0.0
H1391 H 0.19075 0.19271 0.32493 0.0
H1392 H 0.15777 0.17159 0.35525 0.0
H1393 H 0.144 0.1902 0.34801 0.0
H1394 H 0.15404 0.19055 0.37583 0.0
H1395 H 0.22189 0.28126 0.39581 0.0
H1396 H 0.2077 0.30513 0.37381 0.0
H1397 H 0.16716 0.24124 0.33097 0.0
C1398 C 0.21374 0.19655 0.36758 0.0
C1399 C 0.23459 0.20268 0.38082 0.0
C1400 C 0.24452 0.22426 0.39438 0.0
C1401 C 0.23399 0.23967 0.39465 0.0
C1402 C 0.21343 0.23318 0.38136 0.0
C1403 C 0.20358 0.21225 0.36787 0.0
C1404 C 0.18406 0.21152 0.35263 0.0
C1405 C 0.19047 0.21023 0.32839 0.0
C1406 C 0.15845 0.18966 0.35828 0.0
C1407 C 0.18587 0.23626 0.35847 0.0
C1408 C 0.202 0.24789 0.37584 0.0
C1409 C 0.20878 0.27213 0.38256 0.0
C1410 C 0.20038 0.2855 0.37017 0.0
C1411 C 0.18602 0.27471 0.35107 0.0
C1412 C 0.17743 0.24941 0.34601 0.0
H1413 H 0.64433 0.51418 0.67019 0.0
H1414 H 0.63735 0.54739 0.73076 0.0
H1415 H 0.68163 0.57858 0.72964 0.0
H1416 H 0.7004 0.52016 0.67871 0.0
H1417 H 0.7136 0.5301 0.65187 0.0
H1418 H 0.68059 0.51179 0.65488 0.0
H1419 H 0.67431 0.54545 0.63581 0.0
H1420 H 0.70713 0.56318 0.63144 0.0
H1421 H 0.69163 0.57737 0.64525 0.0
H1422 H 0.72658 0.59482 0.72865 0.0
H1423 H 0.76989 0.61654 0.71728 0.0
H1424 H 0.74832 0.58269 0.65246 0.0
C1425 C 0.65193 0.52899 0.68242 0.0
C1426 C 0.63775 0.52857 0.70064 0.0
C1427 C 0.64809 0.54772 0.71668 0.0
C1428 C 0.67323 0.56516 0.71637 0.0
C1429 C 0.68728 0.56363 0.69939 0.0
C1430 C 0.6769 0.54747 0.68177 0.0
C1431 C 0.69659 0.55087 0.66529 0.0
C1432 C 0.69785 0.52679 0.66253 0.0
C1433 C 0.69216 0.55977 0.64314 0.0
C1434 C 0.71957 0.57099 0.67686 0.0
C1435 C 0.71362 0.57672 0.69708 0.0
C1436 C 0.7315 0.59161 0.7124 0.0
C1437 C 0.75612 0.6033 0.70597 0.0
C1438 C 0.76232 0.6018 0.68387 0.0
C1439 C 0.74405 0.5843 0.66941 0.0
H1440 H 0.45043 0.09012 0.72414 0.0
H1441 H 0.49806 0.1236 0.66825 0.0
H1442 H 0.47419 0.14449 0.65823 0.0
H1443 H 0.39561 0.07676 0.69591 0.0
H1444 H 0.38153 0.08158 0.71985 0.0
H1445 H 0.40381 0.07146 0.72291 0.0
H1446 H 0.4299 0.10926 0.74873 0.0
H1447 H 0.40784 0.11971 0.7455 0.0
H1448 H 0.43991 0.14039 0.73926 0.0
H1449 H 0.4421 0.15944 0.65347 0.0
H1450 H 0.40437 0.16363 0.65328 0.0
H1451 H 0.38046 0.12098 0.71322 0.0
C1452 C 0.45617 0.10229 0.71006 0.0
C1453 C 0.47626 0.10568 0.69717 0.0
C1454 C 0.48272 0.12096 0.67838 0.0
C1455 C 0.46937 0.13295 0.67267 0.0
C1456 C 0.44956 0.12924 0.68585 0.0
C1457 C 0.44299 0.11405 0.70407 0.0
C1458 C 0.41987 0.111 0.71458 0.0
C1459 C 0.39899 0.08359 0.71322 0.0
C1460 C 0.42469 0.12069 0.73843 0.0
C1461 C 0.41464 0.12733 0.69985 0.0
C1462 C 0.43168 0.13768 0.68321 0.0
C1463 C 0.42885 0.15165 0.66662 0.0
C1464 C 0.40754 0.15417 0.66669 0.0
C1465 C 0.38959 0.14267 0.68323 0.0
C1466 C 0.39392 0.13008 0.70037 0.0
H1467 H 0.88379 0.36369 0.68084 0.0
H1468 H 0.91364 0.36014 0.74407 0.0
H1469 H 0.89295 0.31409 0.74064 0.0
H1470 H 0.82391 0.30657 0.68625 0.0
H1471 H 0.82296 0.29807 0.65773 0.0
H1472 H 0.83876 0.33047 0.6659 0.0
H1473 H 0.87917 0.33722 0.64765 0.0
H1474 H 0.86316 0.30519 0.63878 0.0
H1475 H 0.89113 0.317 0.6548 0.0
H1476 H 0.8736 0.26903 0.7275 0.0
H1477 H 0.85971 0.23075 0.70499 0.0
H1478 H 0.838 0.26331 0.65305 0.0
C1479 C 0.88577 0.35314 0.694 0.0
C1480 C 0.90019 0.36525 0.7127 0.0
C1481 C 0.90246 0.351 0.72967 0.0
C1482 C 0.8907 0.3249 0.72791 0.0
C1483 C 0.8763 0.3134 0.70931 0.0
C1484 C 0.87377 0.32714 0.69271 0.0
C1485 C 0.85866 0.3107 0.67379 0.0
C1486 C 0.83464 0.3115 0.67076 0.0
C1487 C 0.87394 0.31795 0.65252 0.0
C1488 C 0.85356 0.28559 0.68202 0.0
C1489 C 0.86381 0.28735 0.70255 0.0
C1490 C 0.86477 0.2672 0.71175 0.0
C1491 C 0.85646 0.2453 0.69903 0.0
C1492 C 0.84728 0.24396 0.67754 0.0
C1493 C 0.8443 0.26368 0.66971 0.0
H1494 H 0.22312 0.97478 0.61711 0.0
H1495 H 0.16604 0.95957 0.66475 0.0
H1496 H 0.18295 0.00496 0.67038 0.0
H1497 H 0.27046 0.02332 0.64747 0.0
H1498 H 0.28671 0.04073 0.62358 0.0
H1499 H 0.26733 0.00754 0.62164 0.0
H1500 H 0.24367 0.01408 0.58957 0.0
H1501 H 0.26228 0.04749 0.59247 0.0
H1502 H 0.22912 0.03262 0.59408 0.0
H1503 H 0.20761 0.0514 0.67269 0.0
H1504 H 0.24388 0.09254 0.68017 0.0
H1505 H 0.28548 0.07793 0.63163 0.0
C1506 C 0.21399 0.98112 0.62843 0.0
C1507 C 0.19309 0.96392 0.64023 0.0
C1508 C 0.182 0.97263 0.65547 0.0
C1509 C 0.19125 -0.00169 0.65849 0.0
C1510 C 0.21159 0.01491 0.64615 0.0
C1511 C 0.22321 0.00662 0.63187 0.0
C1512 C 0.24698 0.02801 0.62327 0.0
C1513 C 0.26916 0.02471 0.62938 0.0
C1514 C 0.24541 0.0307 0.59836 0.0
C1515 C 0.2475 0.04965 0.63558 0.0
C1516 C 0.2264 0.04182 0.64801 0.0
C1517 C 0.224 0.05781 0.66278 0.0
C1518 C 0.24456 0.08147 0.66659 0.0
C1519 C 0.26734 0.08822 0.65643 0.0
C1520 C 0.26802 0.07334 0.63912 0.0
H1521 H 0.02923 0.23524 0.67095 0.0
H1522 H 0.02715 0.22205 0.60053 0.0
H1523 H 0.98211 0.19943 0.60123 0.0
H1524 H 0.97127 0.17579 0.68412 0.0
H1525 H 0.96145 0.19053 0.70422 0.0
H1526 H 0.99392 0.20226 0.69971 0.0
H1527 H 0.00035 0.24614 0.69181 0.0
H1528 H 0.96809 0.23465 0.69671 0.0
H1529 H 0.98162 0.24962 0.67111 0.0
H1530 H 0.9384 0.18024 0.60796 0.0
H1531 H 0.8977 0.17351 0.61877 0.0
H1532 H 0.92569 0.20208 0.68412 0.0
C1533 C 0.01929 0.22738 0.65572 0.0
C1534 C 0.03202 0.22968 0.6358 0.0
C1535 C 0.01814 0.21956 0.61621 0.0
C1536 C 0.9924 0.20666 0.61639 0.0
C1537 C 0.9805 0.20419 0.63623 0.0
C1538 C 0.99331 0.21467 0.65551 0.0
C1539 C 0.97556 0.21165 0.6739 0.0
C1540 C 0.97556 0.19401 0.69154 0.0
C1541 C 0.98177 0.23703 0.68395 0.0
C1542 C 0.95111 0.19958 0.66139 0.0
C1543 C 0.95452 0.19436 0.63997 0.0
C1544 C 0.93537 0.18406 0.62469 0.0
C1545 C 0.91232 0.18022 0.631 0.0
C1546 C 0.90865 0.18714 0.65223 0.0
C1547 C 0.92799 0.19614 0.66796 0.0
H1548 H 0.78147 0.80698 0.66566 0.0
H1549 H 0.7499 0.77213 0.60291 0.0
H1550 H 0.76512 0.7425 0.60813 0.0
H1551 H 0.83513 0.80616 0.66227 0.0
H1552 H 0.83706 0.79783 0.69021 0.0
H1553 H 0.82047 0.81393 0.68399 0.0
H1554 H 0.78035 0.77906 0.70137 0.0
H1555 H 0.79738 0.7639 0.70921 0.0
H1556 H 0.76927 0.74706 0.69342 0.0
H1557 H 0.78933 0.72157 0.61731 0.0
H1558 H 0.80784 0.69961 0.63624 0.0
H1559 H 0.8236 0.74803 0.69293 0.0
C1560 C 0.77669 0.79223 0.65365 0.0
C1561 C 0.76444 0.79148 0.63399 0.0
C1562 C 0.75898 0.77252 0.6182 0.0
C1563 C 0.76794 0.756 0.62085 0.0
C1564 C 0.78201 0.75868 0.63948 0.0
C1565 C 0.78533 0.77545 0.65614 0.0
C1566 C 0.80108 0.77438 0.67452 0.0
C1567 C 0.82484 0.79958 0.67793 0.0
C1568 C 0.78613 0.76556 0.69588 0.0
C1569 C 0.80666 0.75495 0.66524 0.0
C1570 C 0.79582 0.74644 0.64486 0.0
C1571 C 0.79776 0.72791 0.63335 0.0
C1572 C 0.80891 0.71598 0.64394 0.0
C1573 C 0.81721 0.72236 0.66587 0.0
C1574 C 0.81787 0.74331 0.67593 0.0
H1575 H 0.03603 0.79497 0.67268 0.0
H1576 H 0.02817 0.8122 0.60536 0.0
H1577 H 0.98295 0.79183 0.60996 0.0
H1578 H 0.98592 0.73593 0.6745 0.0
H1579 H 0.97668 0.73833 0.70204 0.0
H1580 H 0.00832 0.75732 0.69408 0.0
H1581 H 0.00657 0.79672 0.70613 0.0
H1582 H 0.97457 0.77773 0.71357 0.0
H1583 H 0.98358 0.8027 0.6943 0.0
H1584 H 0.93896 0.76673 0.62059 0.0
H1585 H 0.8993 0.73303 0.63436 0.0
H1586 H 0.93526 0.73087 0.69442 0.0
C1587 C 0.02471 0.79468 0.65906 0.0
C1588 C 0.03541 0.80531 0.63875 0.0
C1589 C 0.02021 0.80451 0.62116 0.0
C1590 C 0.99458 0.79313 0.62367 0.0
C1591 C 0.98454 0.78308 0.64401 0.0
C1592 C -0.0009 0.78363 0.66139 0.0
C1593 C 0.98348 0.7696 0.68088 0.0
C1594 C 0.98891 0.74907 0.68827 0.0
C1595 C 0.98728 0.78776 0.69985 0.0
C1596 C 0.95786 0.759 0.67099 0.0
C1597 C 0.95889 0.7681 0.65011 0.0
C1598 C 0.93782 0.75991 0.63709 0.0
C1599 C 0.91531 0.74097 0.64514 0.0
C1600 C 0.91429 0.72999 0.66565 0.0
C1601 C 0.93557 0.7397 0.67905 0.0
H1602 H 0.1921 0.22351 0.67468 0.0
H1603 H 0.20941 0.23892 0.60573 0.0
H1604 H 0.22987 0.21348 0.60593 0.0
H1605 H 0.24897 0.23066 0.69056 0.0
H1606 H 0.23685 0.20602 0.71048 0.0
H1607 H 0.22003 0.22173 0.70395 0.0
H1608 H 0.18168 0.17906 0.69424 0.0
H1609 H 0.19876 0.16332 0.70023 0.0
H1610 H 0.18421 0.15925 0.67378 0.0
H1611 H 0.24768 0.18622 0.61325 0.0
H1612 H 0.27386 0.17101 0.62905 0.0
H1613 H 0.25178 0.17937 0.6945 0.0
C1614 C 0.2 0.22118 0.65964 0.0
C1615 C 0.19898 0.23273 0.64008 0.0
C1616 C 0.20991 0.22994 0.62077 0.0
C1617 C 0.22124 0.2153 0.62068 0.0
C1618 C 0.22164 0.20375 0.6401 0.0
C1619 C 0.21198 0.20709 0.65941 0.0
C1620 C 0.21792 0.19538 0.67858 0.0
C1621 C 0.23179 0.21461 0.69696 0.0
C1622 C 0.19423 0.17293 0.68722 0.0
C1623 C 0.23407 0.18676 0.66731 0.0
C1624 C 0.2344 0.19021 0.64489 0.0
C1625 C 0.24762 0.18347 0.63077 0.0
C1626 C 0.26226 0.17458 0.63992 0.0
C1627 C 0.26474 0.17393 0.66298 0.0
C1628 C 0.24973 0.17915 0.67683 0.0
H1629 H 0.8117 0.98885 0.64896 0.0
H1630 H 0.73613 0.96738 0.63061 0.0
H1631 H 0.74778 0.0113 0.62952 0.0
H1632 H 0.81477 0.03349 0.68809 0.0
H1633 H 0.84747 0.05367 0.68431 0.0
H1634 H 0.83388 0.02071 0.67962 0.0
H1635 H 0.85275 0.03022 0.64053 0.0
H1636 H 0.86509 0.06321 0.64481 0.0
H1637 H 0.84485 0.04761 0.6218 0.0
H1638 H 0.76715 0.05754 0.63023 0.0
H1639 H 0.78639 0.09928 0.64738 0.0
H1640 H 0.84653 0.08999 0.6712 0.0
C1641 C 0.79723 0.99286 0.64483 0.0
C1642 C 0.77313 0.97391 0.63861 0.0
C1643 C 0.75518 0.98103 0.63395 0.0
C1644 C 0.76159 0.00617 0.63331 0.0
C1645 C 0.78581 0.02419 0.6382 0.0
C1646 C 0.80294 0.01777 0.64505 0.0
C1647 C 0.8262 0.0403 0.65359 0.0
C1648 C 0.83083 0.03684 0.67783 0.0
C1649 C 0.84854 0.04564 0.63932 0.0
C1650 C 0.81921 0.06034 0.65092 0.0
C1651 C 0.79631 0.05083 0.64094 0.0
C1652 C 0.78512 0.06525 0.63798 0.0
C1653 C 0.79643 0.08916 0.64741 0.0
C1654 C 0.81806 0.09782 0.66032 0.0
C1655 C 0.83047 0.08405 0.66075 0.0
H1656 H 0.47156 0.35434 0.67238 0.0
H1657 H 0.46462 0.34383 0.74287 0.0
H1658 H 0.4381 0.29853 0.73724 0.0
H1659 H 0.4078 0.30747 0.66075 0.0
H1660 H 0.41549 0.29823 0.63517 0.0
H1661 H 0.43417 0.3296 0.64534 0.0
H1662 H 0.47259 0.32408 0.64268 0.0
H1663 H 0.45378 0.29225 0.63348 0.0
H1664 H 0.4732 0.29924 0.65746 0.0
H1665 H 0.41163 0.25468 0.72421 0.0
H1666 H 0.38052 0.21687 0.70453 0.0
H1667 H 0.40657 0.25515 0.64262 0.0
C1668 C 0.46433 0.34243 0.68656 0.0
C1669 C 0.47006 0.35245 0.70803 0.0
C1670 C 0.46013 0.33646 0.72626 0.0
C1671 C 0.44539 0.3107 0.72325 0.0
C1672 C 0.44071 0.30123 0.70191 0.0
C1673 C 0.44934 0.31663 0.68386 0.0
C1674 C 0.43985 0.30188 0.66271 0.0
C1675 C 0.42335 0.30975 0.65027 0.0
C1676 C 0.46114 0.30452 0.64824 0.0
C1677 C 0.42492 0.27576 0.67172 0.0
C1678 C 0.4257 0.27576 0.69438 0.0
C1679 C 0.41104 0.25429 0.70645 0.0
C1680 C 0.39365 0.23274 0.69513 0.0
C1681 C 0.39117 0.23315 0.67209 0.0
C1682 C 0.40835 0.25427 0.66025 0.0
H1683 H 0.63315 0.06774 0.69318 0.0
H1684 H 0.63294 0.13771 0.69673 0.0
H1685 H 0.6772 0.16034 0.68686 0.0
H1686 H 0.68937 0.08796 0.71746 0.0
H1687 H 0.69807 0.06967 0.7004 0.0
H1688 H 0.66601 0.0593 0.70493 0.0
H1689 H 0.65868 0.05754 0.66286 0.0
H1690 H 0.69088 0.06808 0.65819 0.0
H1691 H 0.67693 0.08491 0.64667 0.0
H1692 H 0.72304 0.17545 0.68012 0.0
H1693 H 0.76533 0.18106 0.67953 0.0
H1694 H 0.73383 0.10084 0.67958 0.0
C1695 C 0.64211 0.08775 0.69126 0.0
C1696 C 0.62947 0.10088 0.69565 0.0
C1697 C 0.64227 0.12721 0.69364 0.0
C1698 C 0.66735 0.14021 0.68779 0.0
C1699 C 0.67929 0.12661 0.68378 0.0
C1700 C 0.66694 0.1009 0.68536 0.0
C1701 C 0.68411 0.09058 0.68213 0.0
C1702 C 0.68441 0.07605 0.70244 0.0
C1703 C 0.67724 0.07432 0.66122 0.0
C1704 C 0.70832 0.11452 0.67949 0.0
C1705 C 0.70529 0.13518 0.68 0.0
C1706 C 0.72555 0.15937 0.67939 0.0
C1707 C 0.74947 0.16242 0.679 0.0
C1708 C 0.75271 0.14137 0.67963 0.0
C1709 C 0.73183 0.11726 0.67913 0.0
H1710 H 0.90749 0.55611 0.72103 0.0
H1711 H 0.86586 0.49552 0.67479 0.0
H1712 H 0.84004 0.51401 0.66538 0.0
H1713 H 0.85581 0.56547 0.73871 0.0
H1714 H 0.87508 0.5989 0.73984 0.0
H1715 H 0.88814 0.57925 0.74544 0.0
H1716 H 0.92088 0.601 0.71501 0.0
H1717 H 0.9085 0.62122 0.71006 0.0
H1718 H 0.91081 0.60315 0.68777 0.0
H1719 H 0.82264 0.54152 0.65734 0.0
H1720 H 0.81941 0.57844 0.64772 0.0
H1721 H 0.87073 0.62066 0.69988 0.0
C1722 C 0.89278 0.54659 0.70908 0.0
C1723 C 0.88849 0.52415 0.69888 0.0
C1724 C 0.86915 0.5124 0.68322 0.0
C1725 C 0.85432 0.52273 0.67781 0.0
C1726 C 0.85886 0.54472 0.68835 0.0
C1727 C 0.87776 0.55662 0.70353 0.0
C1728 C 0.8806 0.58144 0.71066 0.0
C1729 C 0.87454 0.58124 0.73512 0.0
C1730 C 0.90673 0.60295 0.70555 0.0
C1731 C 0.86112 0.58221 0.69634 0.0
C1732 C 0.84836 0.56054 0.68397 0.0
C1733 C 0.83193 0.55825 0.66737 0.0
C1734 C 0.82986 0.5792 0.66221 0.0
C1735 C 0.84418 0.60203 0.67357 0.0
C1736 C 0.85866 0.60302 0.69176 0.0
H1737 H 0.49915 0.0013 0.18793 0.0
H1738 H 0.48183 0.9241 0.18634 0.0
H1739 H 0.48956 0.92694 0.14646 0.0
H1740 H 0.4701 -0.00179 0.13463 0.0
H1741 H 0.49275 0.02983 0.12805 0.0
H1742 H 0.48496 0.02101 0.15626 0.0
H1743 H 0.53116 0.03754 0.16494 0.0
H1744 H 0.53901 0.04577 0.13664 0.0
H1745 H 0.54774 0.02533 0.1499 0.0
H1746 H 0.49906 0.93827 0.10613 0.0
H1747 H 0.50576 0.95635 0.06885 0.0
H1748 H 0.51969 0.02657 0.09791 0.0
C1749 C 0.49673 0.98491 0.17918 0.0
C1750 C 0.49027 0.96259 0.19039 0.0
C1751 C 0.48731 0.94159 0.17823 0.0
C1752 C 0.49159 0.94298 0.15554 0.0
C1753 C 0.49876 0.96549 0.14511 0.0
C1754 C 0.50097 0.98597 0.15651 0.0
C1755 C 0.50843 0.00782 0.14139 0.0
C1756 C 0.48784 0.0146 0.14 0.0
C1757 C 0.53306 0.03044 0.14866 0.0
C1758 C 0.51093 0.99668 0.11994 0.0
C1759 C 0.50491 0.97213 0.12223 0.0
C1760 C 0.50405 0.95759 0.10415 0.0
C1761 C 0.50825 0.96808 0.08303 0.0
C1762 C 0.51344 0.99291 0.08032 0.0
C1763 C 0.516 0.00757 0.09928 0.0
H1764 H 0.03187 0.54759 0.17315 0.0
H1765 H 0.03853 0.48375 0.19282 0.0
H1766 H 0.02494 0.46519 0.15641 0.0
H1767 H 0.97615 0.51027 0.13708 0.0
H1768 H 0.9859 0.53435 0.11678 0.0
H1769 H 0.99438 0.54256 0.14522 0.0
H1770 H 0.04034 0.56752 0.13424 0.0
H1771 H 0.03211 0.55913 0.10581 0.0
H1772 H 0.05382 0.55219 0.119 0.0
H1773 H 0.01562 0.45516 0.11911 0.0
H1774 H 0.00558 0.44996 0.08073 0.0
H1775 H 0.00234 0.51886 0.08094 0.0
C1776 C 0.02991 0.52947 0.16978 0.0
C1777 C 0.0358 0.51686 0.18603 0.0
C1778 C 0.03342 0.49341 0.18099 0.0
C1779 C 0.02595 0.48279 0.16023 0.0
C1780 C 0.02063 0.49567 0.14459 0.0
C1781 C 0.02201 0.51823 0.14891 0.0
C1782 C 0.01527 0.52765 0.12835 0.0
C1783 C 0.99151 0.52878 0.13208 0.0
C1784 C 0.03667 0.55314 0.12144 0.0
C1785 C 0.01097 0.50719 0.11176 0.0
C1786 C 0.0142 0.48915 0.12198 0.0
C1787 C 0.0124 0.46875 0.11094 0.0
C1788 C 0.00655 0.46608 0.08883 0.0
C1789 C 0.00239 0.48366 0.07739 0.0
C1790 C 0.00489 0.50482 0.0891 0.0
H1791 H 0.49045 0.54109 0.17658 0.0
H1792 H 0.49303 0.47412 0.19184 0.0
H1793 H 0.5001 0.46897 0.1527 0.0
H1794 H 0.45832 0.52105 0.12627 0.0
H1795 H 0.47582 0.55041 0.11246 0.0
H1796 H 0.47284 0.54985 0.14184 0.0
H1797 H 0.52051 0.57456 0.14565 0.0
H1798 H 0.52355 0.57473 0.11619 0.0
H1799 H 0.53854 0.56241 0.13316 0.0
H1800 H 0.50545 0.47004 0.11272 0.0
H1801 H 0.50364 0.47419 0.07263 0.0
H1802 H 0.49651 0.53983 0.08208 0.0
C1803 C 0.4926 0.52546 0.17152 0.0
C1804 C 0.49128 0.50793 0.18696 0.0
C1805 C 0.49415 0.48768 0.18008 0.0
C1806 C 0.49832 0.48475 0.15799 0.0
C1807 C 0.49991 0.50246 0.14313 0.0
C1808 C 0.49702 0.52237 0.14946 0.0
C1809 C 0.49846 0.53798 0.1298 0.0
C1810 C 0.47495 0.5399 0.12746 0.0
C1811 C 0.52164 0.56396 0.13129 0.0
C1812 C 0.5008 0.52266 0.11135 0.0
C1813 C 0.50258 0.50284 0.1196 0.0
C1814 C 0.50435 0.48562 0.10602 0.0
C1815 C 0.50345 0.48819 0.08334 0.0
C1816 C 0.50033 0.5075 0.07454 0.0
C1817 C 0.49939 0.52524 0.0886 0.0
H1818 H 0.98862 0.51636 0.82695 0.0
H1819 H 0.93987 0.4365 0.82289 0.0
H1820 H 0.94449 0.4333 0.86312 0.0
H1821 H 0.03043 0.51456 0.86679 0.0
H1822 H 0.03583 0.54274 0.88062 0.0
H1823 H 0.02832 0.53842 0.85176 0.0
H1824 H 0.99123 0.54552 0.85857 0.0
H1825 H -0.00111 0.55024 0.88735 0.0
H1826 H 0.96836 0.52684 0.87861 0.0
H1827 H 0.9549 0.43967 0.9043 0.0
H1828 H 0.96816 0.45527 0.94241 0.0
H1829 H 0.01063 0.53067 0.91805 0.0
C1830 C 0.97888 0.49827 0.83464 0.0
C1831 C 0.96386 0.47669 0.82219 0.0
C1832 C 0.95145 0.45319 0.83247 0.0
C1833 C 0.95404 0.45123 0.85518 0.0
C1834 C 0.96934 0.47295 0.8671 0.0
C1835 C 0.9815 0.496 0.85711 0.0
C1836 C 0.9969 0.51653 0.87333 0.0
C1837 C 0.0245 0.52878 0.86779 0.0
C1838 C 0.98832 0.53591 0.87454 0.0
C1839 C 0.9911 0.50165 0.89415 0.0
C1840 C 0.97541 0.4765 0.89034 0.0
C1841 C 0.9673 0.45932 0.90741 0.0
C1842 C 0.97505 0.46828 0.92895 0.0
C1843 C 0.99047 0.49413 0.93307 0.0
C1844 C -0.00115 0.5108 0.91536 0.0
H1845 H 0.50841 0.44284 0.84488 0.0
H1846 H 0.53005 0.51357 0.81336 0.0
H1847 H 0.5162 0.52704 0.84567 0.0
H1848 H 0.45613 0.4386 0.87785 0.0
H1849 H 0.46417 0.4265 0.90134 0.0
H1850 H 0.47038 0.4197 0.87399 0.0
H1851 H 0.51656 0.4378 0.88421 0.0
H1852 H 0.51032 0.44423 0.91154 0.0
H1853 H 0.53372 0.46901 0.89538 0.0
H1854 H 0.50367 0.53467 0.88178 0.0
H1855 H 0.50187 0.54001 0.92155 0.0
H1856 H 0.49346 0.46694 0.93219 0.0
C1857 C 0.51016 0.46113 0.84459 0.0
C1858 C 0.52002 0.47688 0.82614 0.0
C1859 C 0.5218 0.50065 0.82674 0.0
C1860 C 0.51398 0.50855 0.84512 0.0
C1861 C 0.50455 0.49262 0.86296 0.0
C1862 C 0.50301 0.46959 0.86304 0.0
C1863 C 0.49573 0.45773 0.88554 0.0
C1864 C 0.47008 0.43423 0.88462 0.0
C1865 C 0.51526 0.45188 0.89471 0.0
C1866 C 0.495 0.47843 0.89845 0.0
C1867 C 0.49895 0.4978 0.88472 0.0
C1868 C 0.50038 0.51959 0.89265 0.0
C1869 C 0.49926 0.52239 0.9153 0.0
C1870 C 0.49754 0.50388 0.92992 0.0
C1871 C 0.49421 0.4811 0.92137 0.0
H1872 H 0.53433 0.05357 0.8349 0.0
H1873 H 0.46395 0.98856 0.81799 0.0
H1874 H 0.45316 0.98205 0.85719 0.0
H1875 H 0.54552 0.02627 0.88158 0.0
H1876 H 0.56059 0.05511 0.89702 0.0
H1877 H 0.56135 0.05563 0.86753 0.0
H1878 H 0.54279 0.08497 0.86812 0.0
H1879 H 0.54123 0.08375 0.89767 0.0
H1880 H 0.51378 0.07516 0.88167 0.0
H1881 H 0.45046 0.98154 0.89845 0.0
H1882 H 0.45962 0.98247 0.93814 0.0
H1883 H 0.53211 0.04632 0.92813 0.0
C1884 C 0.51665 0.03791 0.83936 0.0
C1885 C 0.49981 0.02192 0.82315 0.0
C1886 C 0.47691 0.00161 0.82992 0.0
C1887 C 0.47058 -0.00229 0.8522 0.0
C1888 C 0.48733 0.01421 0.86766 0.0
C1889 C 0.51011 0.0336 0.86155 0.0
C1890 C 0.5257 0.04726 0.88147 0.0
C1891 C 0.54969 0.04597 0.88193 0.0
C1892 C 0.53119 0.0744 0.88226 0.0
C1893 C 0.50835 0.03216 0.89973 0.0
C1894 C 0.48605 0.01355 0.89145 0.0
C1895 C 0.4677 0.99626 0.90515 0.0
C1896 C 0.47285 -0.00286 0.92772 0.0
C1897 C 0.49625 0.01489 0.93615 0.0
C1898 C 0.51376 0.03318 0.92213 0.0
H1899 H 0.15269 0.27951 0.51122 0.0
H1900 H 0.1577 0.34952 0.53112 0.0
H1901 H 0.16336 0.36272 0.49265 0.0
H1902 H 0.19923 0.30661 0.46726 0.0
H1903 H 0.18306 0.28003 0.44918 0.0
H1904 H 0.18044 0.27599 0.47854 0.0
H1905 H 0.13284 0.25459 0.47543 0.0
H1906 H 0.13528 0.25831 0.4461 0.0
H1907 H 0.11906 0.27046 0.46175 0.0
H1908 H 0.16761 0.36849 0.45267 0.0
H1909 H 0.1663 0.36496 0.41237 0.0
H1910 H 0.15824 0.29134 0.41661 0.0
C1911 C 0.15529 0.29774 0.50751 0.0
C1912 C 0.1546 0.31339 0.52438 0.0
C1913 C 0.15772 0.33695 0.51864 0.0
C1914 C 0.16124 0.34478 0.4968 0.0
C1915 C 0.16185 0.32901 0.48068 0.0
C1916 C 0.15885 0.30593 0.48563 0.0
C1917 C 0.15937 0.29237 0.4648 0.0
C1918 C 0.18186 0.28852 0.46496 0.0
C1919 C 0.13519 0.26746 0.46185 0.0
C1920 C 0.16214 0.31107 0.44736 0.0
C1921 C 0.16414 0.33229 0.45713 0.0
C1922 C 0.16634 0.35211 0.44483 0.0
C1923 C 0.16578 0.35001 0.42195 0.0
C1924 C 0.16281 0.32819 0.4114 0.0
C1925 C 0.16132 0.30853 0.42426 0.0
H1926 H 0.69279 0.82741 0.51528 0.0
H1927 H 0.71697 0.90642 0.51436 0.0
H1928 H 0.69744 0.90114 0.47799 0.0
H1929 H 0.70477 0.82135 0.46238 0.0
H1930 H 0.67825 0.79104 0.45736 0.0
H1931 H 0.69027 0.80011 0.48475 0.0
H1932 H 0.64748 0.79146 0.4984 0.0
H1933 H 0.63518 0.7821 0.47099 0.0
H1934 H 0.63242 0.80631 0.48514 0.0
H1935 H 0.68251 0.88862 0.43881 0.0
H1936 H 0.67042 0.86899 0.40184 0.0
H1937 H 0.65307 0.79792 0.43009 0.0
C1938 C 0.69317 0.84344 0.50787 0.0
C1939 C 0.70666 0.86736 0.5176 0.0
C1940 C 0.70716 0.88795 0.50703 0.0
C1941 C 0.69591 0.88512 0.48644 0.0
C1942 C 0.68372 0.86146 0.47683 0.0
C1943 C 0.6818 0.84087 0.48745 0.0
C1944 C 0.66958 0.81789 0.4729 0.0
C1945 C 0.68675 0.80699 0.46913 0.0
C1946 C 0.64468 0.79829 0.48243 0.0
C1947 C 0.66602 0.82901 0.45213 0.0
C1948 C 0.67411 0.85411 0.45464 0.0
C1949 C 0.6754 0.86879 0.43681 0.0
C1950 C 0.66856 0.85754 0.41585 0.0
C1951 C 0.6605 0.83187 0.413 0.0
C1952 C 0.65862 0.81748 0.43161 0.0
H1953 H 0.15522 0.87232 0.51115 0.0
H1954 H 0.17085 0.81437 0.53097 0.0
H1955 H 0.18095 0.80973 0.49275 0.0
H1956 H 0.12594 0.84541 0.46059 0.0
H1957 H 0.13932 0.87426 0.44568 0.0
H1958 H 0.13528 0.87446 0.47488 0.0
H1959 H 0.18191 0.90658 0.47912 0.0
H1960 H 0.18608 0.90577 0.44988 0.0
H1961 H 0.20439 0.89909 0.46855 0.0
H1962 H 0.18845 0.81029 0.4537 0.0
H1963 H 0.18454 0.80943 0.41355 0.0
H1964 H 0.16273 0.8658 0.41718 0.0
C1965 C 0.16087 0.85877 0.50729 0.0
C1966 C 0.16267 0.84387 0.52386 0.0
C1967 C 0.16986 0.82617 0.51843 0.0
C1968 C 0.17578 0.82356 0.49687 0.0
C1969 C 0.17469 0.83902 0.48099 0.0
C1970 C 0.16707 0.85603 0.4857 0.0
C1971 C 0.16598 0.86898 0.46497 0.0
C1972 C 0.14008 0.86553 0.46132 0.0
C1973 C 0.18576 0.89676 0.46568 0.0
C1974 C 0.17231 0.85512 0.44782 0.0
C1975 C 0.17841 0.83884 0.45771 0.0
C1976 C 0.18405 0.82315 0.4457 0.0
C1977 C 0.18202 0.82298 0.42292 0.0
C1978 C 0.17381 0.83787 0.41246 0.0
C1979 C 0.16981 0.85489 0.42488 0.0
H1980 H 0.62057 0.77914 0.1676 0.0
H1981 H 0.65874 0.85769 0.15148 0.0
H1982 H 0.67254 0.86853 0.18993 0.0
H1983 H 0.59701 0.78532 0.21784 0.0
H1984 H 0.60067 0.76202 0.23229 0.0
H1985 H 0.59678 0.75989 0.20294 0.0
H1986 H 0.63743 0.75871 0.19888 0.0
H1987 H 0.64151 0.76102 0.2283 0.0
H1988 H 0.66551 0.78335 0.21088 0.0
H1989 H 0.68001 0.87158 0.22901 0.0
H1990 H 0.6771 0.86754 0.26904 0.0
H1991 H 0.63217 0.78714 0.26234 0.0
C1992 C 0.63223 0.79853 0.17226 0.0
C1993 C 0.63889 0.81769 0.15674 0.0
C1994 C 0.65364 0.84288 0.16324 0.0
C1995 C 0.66169 0.84916 0.18494 0.0
C1996 C 0.65476 0.83 0.19995 0.0
C1997 C 0.64018 0.80519 0.19411 0.0
C1998 C 0.63347 0.78867 0.21422 0.0
C1999 C 0.60531 0.77307 0.21698 0.0
C2000 C 0.64518 0.77194 0.21299 0.0
C2001 C 0.64543 0.80827 0.2323 0.0
C2002 C 0.65828 0.83185 0.22337 0.0
C2003 C 0.6702 0.85328 0.23625 0.0
C2004 C 0.66839 0.85078 0.25894 0.0
C2005 C 0.65447 0.8271 0.26864 0.0
C2006 C 0.64324 0.8054 0.25526 0.0
H2007 H 0.20779 0.83722 0.16528 0.0
H2008 H 0.14059 0.76561 0.1595 0.0
H2009 H 0.12797 0.77169 0.19636 0.0
H2010 H 0.22102 0.83262 0.21807 0.0
H2011 H 0.23218 0.86462 0.22604 0.0
H2012 H 0.23387 0.85691 0.19784 0.0
H2013 H 0.20904 0.87818 0.18582 0.0
H2014 H 0.20752 0.88627 0.21405 0.0
H2015 H 0.17955 0.86895 0.19817 0.0
H2016 H 0.12608 0.78259 0.23616 0.0
H2017 H 0.13411 0.79883 0.27439 0.0
H2018 H 0.20199 0.86344 0.25306 0.0
C2019 C 0.18995 0.82327 0.17136 0.0
C2020 C 0.17524 0.80091 0.15955 0.0
C2021 C 0.15231 0.78279 0.16839 0.0
C2022 C 0.14489 0.78614 0.18925 0.0
C2023 C 0.16038 0.80792 0.20092 0.0
C2024 C 0.18222 0.82641 0.19209 0.0
C2025 C 0.19659 0.84707 0.20861 0.0
C2026 C 0.22242 0.85047 0.21288 0.0
C2027 C 0.19826 0.87156 0.20122 0.0
C2028 C 0.18015 0.83662 0.22842 0.0
C2029 C 0.15914 0.81425 0.22368 0.0
C2030 C 0.14225 0.80035 0.23997 0.0
C2031 C 0.14706 0.80958 0.26168 0.0
C2032 C 0.16873 0.83234 0.26685 0.0
C2033 C 0.18514 0.84605 0.2498 0.0
H2034 H 0.15654 0.32704 0.15746 0.0
H2035 H 0.20873 0.40642 0.16142 0.0
H2036 H 0.20427 0.40517 0.20172 0.0
H2037 H 0.11677 0.32578 0.20314 0.0
H2038 H 0.11128 0.29595 0.21265 0.0
H2039 H 0.11648 0.30336 0.18388 0.0
H2040 H 0.15271 0.29414 0.18395 0.0
H2041 H 0.14725 0.28624 0.2125 0.0
H2042 H 0.17743 0.30987 0.20369 0.0
H2043 H 0.1948 0.3952 0.24164 0.0
H2044 H 0.18714 0.37602 0.27828 0.0
H2045 H 0.14322 0.30285 0.24856 0.0
C2046 C 0.16671 0.34424 0.16678 0.0
C2047 C 0.18287 0.36686 0.15625 0.0
C2048 C 0.19633 0.38884 0.16911 0.0
C2049 C 0.19368 0.38838 0.19199 0.0
C2050 C 0.17743 0.36582 0.20182 0.0
C2051 C 0.16442 0.34408 0.18966 0.0
C2052 C 0.14981 0.32191 0.20439 0.0
C2053 C 0.12193 0.31111 0.2008 0.0
C2054 C 0.15727 0.30188 0.20093 0.0
C2055 C 0.15773 0.33433 0.22677 0.0
C2056 C 0.17283 0.35984 0.22491 0.0
C2057 C 0.18284 0.37529 0.2433 0.0
C2058 C 0.1782 0.36427 0.26405 0.0
C2059 C 0.16434 0.33803 0.26614 0.0
C2060 C 0.15349 0.32297 0.24734 0.0
H2061 H 0.81171 0.61085 0.84382 0.0
H2062 H 0.83659 0.68657 0.86612 0.0
H2063 H 0.84706 0.70135 0.82806 0.0
H2064 H 0.85769 0.62617 0.80106 0.0
H2065 H 0.83641 0.60286 0.78202 0.0
H2066 H 0.83182 0.59795 0.81117 0.0
H2067 H 0.78763 0.59142 0.80738 0.0
H2068 H 0.79194 0.59579 0.77822 0.0
H2069 H 0.78327 0.61491 0.79411 0.0
H2070 H 0.85485 0.70815 0.78797 0.0
H2071 H 0.85343 0.70557 0.74743 0.0
H2072 H 0.82215 0.62554 0.75041 0.0
C2073 C 0.81955 0.63056 0.84066 0.0
C2074 C 0.82349 0.64761 0.85795 0.0
C2075 C 0.83331 0.67317 0.85314 0.0
C2076 C 0.83956 0.68179 0.83161 0.0
C2077 C 0.83581 0.66461 0.81501 0.0
C2078 C 0.82565 0.63946 0.81916 0.0
C2079 C 0.82203 0.62478 0.79805 0.0
C2080 C 0.83794 0.6122 0.79809 0.0
C2081 C 0.79459 0.60561 0.79421 0.0
C2082 C 0.83142 0.64558 0.78139 0.0
C2083 C 0.83979 0.66846 0.79163 0.0
C2084 C 0.84865 0.6904 0.77977 0.0
C2085 C 0.8481 0.68883 0.75679 0.0
C2086 C 0.83858 0.66551 0.74598 0.0
C2087 C 0.83047 0.64366 0.75839 0.0
H2088 H 0.3656 0.15856 0.84484 0.0
H2089 H 0.37077 0.23106 0.84973 0.0
H2090 H 0.3506 0.22412 0.81342 0.0
H2091 H 0.3801 0.16118 0.79081 0.0
H2092 H 0.35902 0.12886 0.78437 0.0
H2093 H 0.37065 0.13795 0.81189 0.0
H2094 H 0.32604 0.1176 0.82685 0.0
H2095 H 0.31417 0.10804 0.79935 0.0
H2096 H 0.30472 0.1263 0.81558 0.0
H2097 H 0.33613 0.21189 0.77397 0.0
H2098 H 0.32499 0.19348 0.73646 0.0
H2099 H 0.32675 0.12816 0.75951 0.0
C2100 C 0.36166 0.17262 0.83875 0.0
C2101 C 0.36989 0.1954 0.85012 0.0
C2102 C 0.36497 0.21358 0.84116 0.0
C2103 C 0.35336 0.20975 0.82062 0.0
C2104 C 0.34636 0.18744 0.80946 0.0
C2105 C 0.34989 0.16898 0.81846 0.0
C2106 C 0.34232 0.14742 0.80264 0.0
C2107 C 0.36433 0.14366 0.79711 0.0
C2108 C 0.32051 0.12342 0.81165 0.0
C2109 C 0.33462 0.15692 0.78313 0.0
C2110 C 0.33706 0.18003 0.78724 0.0
C2111 C 0.33344 0.19346 0.77074 0.0
C2112 C 0.32718 0.18293 0.7495 0.0
C2113 C 0.32442 0.15916 0.74514 0.0
C2114 C 0.32791 0.14603 0.76236 0.0
H2115 H 0.8019 0.18302 0.84397 0.0
H2116 H 0.8736 0.19329 0.86243 0.0
H2117 H 0.88562 0.19815 0.82353 0.0
H2118 H 0.79461 0.14544 0.79648 0.0
H2119 H 0.7787 0.15779 0.7808 0.0
H2120 H 0.77675 0.15702 0.81025 0.0
H2121 H 0.79256 0.20455 0.8107 0.0
H2122 H 0.79531 0.2055 0.78122 0.0
H2123 H 0.8217 0.2255 0.79813 0.0
H2124 H 0.8894 0.1999 0.78278 0.0
H2125 H 0.8819 0.19162 0.74286 0.0
H2126 H 0.8081 0.18004 0.75067 0.0
C2127 C 0.8201 0.18622 0.83984 0.0
C2128 C 0.83699 0.18829 0.85634 0.0
C2129 C 0.86058 0.19234 0.85017 0.0
C2130 C 0.86761 0.19515 0.8281 0.0
C2131 C 0.85084 0.19378 0.81232 0.0
C2132 C 0.8274 0.18894 0.81785 0.0
C2133 C 0.81221 0.18627 0.79756 0.0
C2134 C 0.78923 0.16008 0.79619 0.0
C2135 C 0.80503 0.20668 0.79687 0.0
C2136 C 0.83069 0.19002 0.77981 0.0
C2137 C 0.85302 0.19476 0.78867 0.0
C2138 C 0.87221 0.19673 0.77557 0.0
C2139 C 0.868 0.19239 0.75291 0.0
C2140 C 0.84483 0.18619 0.7438 0.0
C2141 C 0.82635 0.18593 0.75726 0.0
H2142 H 0.28259 0.11438 0.50123 0.0
H2143 H 0.33296 0.19047 0.4819 0.0
H2144 H 0.34908 0.20097 0.51981 0.0
H2145 H 0.26668 0.13031 0.55255 0.0
H2146 H 0.26453 0.10408 0.56717 0.0
H2147 H 0.25883 0.10175 0.53804 0.0
H2148 H 0.29231 0.08915 0.53257 0.0
H2149 H 0.29839 0.09197 0.56172 0.0
H2150 H 0.32317 0.10937 0.5428 0.0
H2151 H 0.35938 0.20383 0.55858 0.0
H2152 H 0.35809 0.20177 0.59883 0.0
H2153 H 0.29909 0.12478 0.59533 0.0
C2154 C 0.29721 0.13311 0.50511 0.0
C2155 C 0.30693 0.15165 0.4888 0.0
C2156 C 0.32557 0.17611 0.49428 0.0
C2157 C 0.33493 0.18214 0.51565 0.0
C2158 C 0.32529 0.16349 0.53136 0.0
C2159 C 0.3065 0.1396 0.52661 0.0
C2160 C 0.29789 0.12401 0.5473 0.0
C2161 C 0.27035 0.1145 0.55151 0.0
C2162 C 0.30326 0.10234 0.54601 0.0
C2163 C 0.31423 0.14322 0.56443 0.0
C2164 C 0.33043 0.16553 0.55455 0.0
C2165 C 0.34693 0.18649 0.56655 0.0
C2166 C 0.34615 0.18509 0.58936 0.0
C2167 C 0.3287 0.16308 0.59998 0.0
C2168 C 0.31297 0.14157 0.58747 0.0
H2169 H 0.84122 0.15861 0.49273 0.0
H2170 H 0.8605 0.10151 0.50526 0.0
H2171 H 0.84888 0.10022 0.54418 0.0
H2172 H 0.86391 0.19146 0.54402 0.0
H2173 H 0.83942 0.1987 0.54675 0.0
H2174 H 0.84888 0.19454 0.51991 0.0
H2175 H 0.80371 0.16073 0.51117 0.0
H2176 H 0.79424 0.16431 0.53826 0.0
H2177 H 0.78817 0.13408 0.52877 0.0
H2178 H 0.83664 0.10592 0.58151 0.0
H2179 H 0.82949 0.12213 0.61608 0.0
H2180 H 0.81572 0.17385 0.57936 0.0
C2181 C 0.84297 0.14594 0.50379 0.0
C2182 C 0.85149 0.13001 0.49629 0.0
C2183 C 0.85375 0.11366 0.51096 0.0
C2184 C 0.84709 0.11271 0.53296 0.0
C2185 C 0.83802 0.12809 0.53987 0.0
C2186 C 0.83619 0.1446 0.52585 0.0
C2187 C 0.8268 0.15974 0.5378 0.0
C2188 C 0.84589 0.18776 0.53708 0.0
C2189 C 0.80174 0.15438 0.52844 0.0
C2190 C 0.82412 0.14945 0.56075 0.0
C2191 C 0.83041 0.131 0.56151 0.0
C2192 C 0.83121 0.12002 0.58115 0.0
C2193 C 0.82669 0.12906 0.60073 0.0
C2194 C 0.82153 0.14888 0.60045 0.0
C2195 C 0.81915 0.15834 0.58008 0.0
H2196 H 0.86149 0.72113 0.50275 0.0
H2197 H 0.81083 0.64502 0.48176 0.0
H2198 H 0.8014 0.63248 0.52036 0.0
H2199 H 0.88735 0.70609 0.54731 0.0
H2200 H 0.89001 0.73076 0.56513 0.0
H2201 H 0.89069 0.73438 0.53583 0.0
H2202 H 0.85433 0.74323 0.53851 0.0
H2203 H 0.85335 0.73922 0.56785 0.0
H2204 H 0.82603 0.72083 0.55143 0.0
H2205 H 0.79854 0.62745 0.56103 0.0
H2206 H 0.80683 0.62941 0.60098 0.0
H2207 H 0.86104 0.70778 0.59582 0.0
C2208 C 0.84838 0.70184 0.50626 0.0
C2209 C 0.83662 0.68416 0.48911 0.0
C2210 C 0.8196 0.65908 0.49451 0.0
C2211 C 0.81411 0.65174 0.51642 0.0
C2212 C 0.82576 0.66964 0.53287 0.0
C2213 C 0.84272 0.69413 0.52812 0.0
C2214 C 0.85391 0.70922 0.54898 0.0
C2215 C 0.88216 0.72077 0.54933 0.0
C2216 C 0.84646 0.72932 0.55185 0.0
C2217 C 0.84157 0.68906 0.56605 0.0
C2218 C 0.82474 0.66656 0.55645 0.0
C2219 C 0.81145 0.64502 0.56878 0.0
C2220 C 0.81608 0.6463 0.59144 0.0
C2221 C 0.83416 0.66882 0.60131 0.0
C2222 C 0.84673 0.69052 0.58857 0.0
loop_
_geom_bond_atom_site_label_1
_geom_bond_atom_site_label_2
_geom_bond_distance
_geom_bond_site_symmetry_2
_ccdc_geom_bond_type
P0 O11 1.490 . S
P0 C14 1.812 . S
P0 C20 1.803 . S
P0 C26 1.819 . S
H1 C15 0.941 . S
H2 C16 0.939 . S
H3 C18 0.940 . S
H4 C19 0.940 . S
H5 C21 0.939 . S
H6 C22 0.942 . S
H7 C24 0.940 . S
H8 C25 0.939 . S
H9 C27 0.941 . S
H10 C31 0.939 . S
O11 P0 1.490 . S
H12 C28 0.939 . S
H13 C30 0.940 . S
C14 P0 1.812 . S
C14 C15 1.389 . S
C14 C19 1.391 . S
C15 H1 0.941 . S
C15 C14 1.389 . S
C15 C16 1.397 . S
C16 H2 0.939 . S
C16 C15 1.397 . S
C16 C17 1.378 . S
C17 C16 1.378 . S
C17 C18 1.378 . S
C18 H3 0.940 . S
C18 C17 1.378 . S
C18 C19 1.396 . S
C19 H4 0.940 . S
C19 C14 1.391 . S
C19 C18 1.396 . S
C20 P0 1.803 . S
C20 C21 1.378 . S
C20 C25 1.400 . S
C21 H5 0.939 . S
C21 C20 1.378 . S
C21 C22 1.361 . S
C22 H6 0.942 . S
C22 C21 1.361 . S
C22 C23 1.369 . S
C23 C22 1.369 . S
C23 C24 1.404 . S
C24 H7 0.940 . S
C24 C23 1.404 . S
C24 C25 1.389 . S
C25 H8 0.939 . S
C25 C20 1.400 . S
C25 C24 1.389 . S
C26 P0 1.819 . S
C26 C27 1.391 . S
C26 C31 1.391 . S
C27 H9 0.941 . S
C27 C26 1.391 . S
C27 C28 1.396 . S
C28 H12 0.939 . S
C28 C27 1.396 . S
C28 C29 1.397 . S
C29 C28 1.397 . S
C29 C30 1.385 . S
C30 H13 0.940 . S
C30 C29 1.385 . S
C30 C31 1.388 . S
C31 H10 0.939 . S
C31 C26 1.391 . S
C31 C30 1.388 . S
P32 O43 1.490 . S
P32 C46 1.812 . S
P32 C52 1.803 . S
P32 C58 1.819 . S
H33 C47 0.941 . S
H34 C48 0.939 . S
H35 C50 0.940 . S
H36 C51 0.940 . S
H37 C53 0.939 . S
H38 C54 0.942 . S
H39 C56 0.940 . S
H40 C57 0.939 . S
H41 C59 0.941 . S
H42 C63 0.939 . S
O43 P32 1.490 . S
H44 C60 0.939 . S
H45 C62 0.940 . S
C46 P32 1.812 . S
C46 C47 1.389 . S
C46 C51 1.391 . S
C47 H33 0.941 . S
C47 C46 1.389 . S
C47 C48 1.397 . S
C48 H34 0.939 . S
C48 C47 1.397 . S
C48 C49 1.378 . S
C49 C48 1.378 . S
C49 C50 1.378 . S
C50 H35 0.940 . S
C50 C49 1.378 . S
C50 C51 1.396 . S
C51 H36 0.940 . S
C51 C46 1.391 . S
C51 C50 1.396 . S
C52 P32 1.803 . S
C52 C53 1.378 . S
C52 C57 1.400 . S
C53 H37 0.939 . S
C53 C52 1.378 . S
C53 C54 1.361 . S
C54 H38 0.942 . S
C54 C53 1.361 . S
C54 C55 1.369 . S
C55 C54 1.369 . S
C55 C56 1.404 . S
C56 H39 0.940 . S
C56 C55 1.404 . S
C56 C57 1.389 . S
C57 H40 0.939 . S
C57 C52 1.400 . S
C57 C56 1.389 . S
C58 P32 1.819 . S
C58 C59 1.391 . S
C58 C63 1.391 . S
C59 H41 0.941 . S
C59 C58 1.391 . S
C59 C60 1.396 . S
C60 H44 0.939 . S
C60 C59 1.396 . S
C60 C61 1.397 . S
C61 C60 1.397 . S
C61 C62 1.385 . S
C62 H45 0.940 . S
C62 C61 1.385 . S
C62 C63 1.388 . S
C63 H42 0.939 . S
C63 C58 1.391 . S
C63 C62 1.388 . S
P64 O75 1.490 . S
P64 C78 1.812 . S
P64 C84 1.803 . S
P64 C90 1.819 . S
H65 C79 0.941 . S
H66 C80 0.939 . S
H67 C82 0.940 . S
H68 C83 0.940 . S
H69 C85 0.939 . S
H70 C86 0.942 . S
H71 C88 0.940 . S
H72 C89 0.939 . S
H73 C91 0.941 . S
H74 C95 0.939 . S
O75 P64 1.490 . S
H76 C92 0.939 . S
H77 C94 0.940 . S
C78 P64 1.812 . S
C78 C79 1.389 . S
C78 C83 1.391 . S
C79 H65 0.941 . S
C79 C78 1.389 . S
C79 C80 1.397 . S
C80 H66 0.939 . S
C80 C79 1.397 . S
C80 C81 1.378 . S
C81 C80 1.378 . S
C81 C82 1.378 . S
C82 H67 0.940 . S
C82 C81 1.378 . S
C82 C83 1.396 . S
C83 H68 0.940 . S
C83 C78 1.391 . S
C83 C82 1.396 . S
C84 P64 1.803 . S
C84 C85 1.378 . S
C84 C89 1.400 . S
C85 H69 0.939 . S
C85 C84 1.378 . S
C85 C86 1.361 . S
C86 H70 0.942 . S
C86 C85 1.361 . S
C86 C87 1.369 . S
C87 C86 1.369 . S
C87 C88 1.404 . S
C88 H71 0.940 . S
C88 C87 1.404 . S
C88 C89 1.389 . S
C89 H72 0.939 . S
C89 C84 1.400 . S
C89 C88 1.389 . S
C90 P64 1.819 . S
C90 C91 1.391 . S
C90 C95 1.391 . S
C91 H73 0.941 . S
C91 C90 1.391 . S
C91 C92 1.396 . S
C92 H76 0.939 . S
C92 C91 1.396 . S
C92 C93 1.397 . S
C93 C92 1.397 . S
C93 C94 1.385 . S
C94 H77 0.940 . S
C94 C93 1.385 . S
C94 C95 1.388 . S
C95 H74 0.939 . S
C95 C90 1.391 . S
C95 C94 1.388 . S
P96 O107 1.490 . S
P96 C110 1.812 . S
P96 C116 1.803 . S
P96 C122 1.819 . S
H97 C111 0.941 . S
H98 C112 0.939 . S
H99 C114 0.940 . S
H100 C115 0.940 . S
H101 C117 0.939 . S
H102 C118 0.942 . S
H103 C120 0.940 . S
H104 C121 0.939 . S
H105 C123 0.941 . S
H106 C127 0.939 . S
O107 P96 1.490 . S
H108 C124 0.939 . S
H109 C126 0.940 . S
C110 P96 1.812 . S
C110 C111 1.389 . S
C110 C115 1.391 . S
C111 H97 0.941 . S
C111 C110 1.389 . S
C111 C112 1.397 . S
C112 H98 0.939 . S
C112 C111 1.397 . S
C112 C113 1.378 . S
C113 C112 1.378 . S
C113 C114 1.378 . S
C114 H99 0.940 . S
C114 C113 1.378 . S
C114 C115 1.396 . S
C115 H100 0.940 . S
C115 C110 1.391 . S
C115 C114 1.396 . S
C116 P96 1.803 . S
C116 C117 1.378 . S
C116 C121 1.400 . S
C117 H101 0.939 . S
C117 C116 1.378 . S
C117 C118 1.361 . S
C118 H102 0.942 . S
C118 C117 1.361 . S
C118 C119 1.369 . S
C119 C118 1.369 . S
C119 C120 1.404 . S
C120 H103 0.940 . S
C120 C119 1.404 . S
C120 C121 1.389 . S
C121 H104 0.939 . S
C121 C116 1.400 . S
C121 C120 1.389 . S
C122 P96 1.819 . S
C122 C123 1.391 . S
C122 C127 1.391 . S
C123 H105 0.941 . S
C123 C122 1.391 . S
C123 C124 1.396 . S
C124 H108 0.939 . S
C124 C123 1.396 . S
C124 C125 1.397 . S
C125 C124 1.397 . S
C125 C126 1.385 . S
C126 H109 0.940 . S
C126 C125 1.385 . S
C126 C127 1.388 . S
C127 H106 0.939 . S
C127 C122 1.391 . S
C127 C126 1.388 . S
P128 O139 1.490 . S
P128 C142 1.812 . S
P128 C148 1.803 . S
P128 C154 1.819 . S
H129 C143 0.941 . S
H130 C144 0.939 . S
H131 C146 0.940 . S
H132 C147 0.940 . S
H133 C149 0.939 . S
H134 C150 0.942 . S
H135 C152 0.940 . S
H136 C153 0.939 . S
H137 C155 0.941 . S
H138 C159 0.939 . S
O139 P128 1.490 . S
H140 C156 0.939 . S
H141 C158 0.940 . S
C142 P128 1.812 . S
C142 C143 1.389 . S
C142 C147 1.391 . S
C143 H129 0.941 . S
C143 C142 1.389 . S
C143 C144 1.397 . S
C144 H130 0.939 . S
C144 C143 1.397 . S
C144 C145 1.378 . S
C145 C144 1.378 . S
C145 C146 1.378 . S
C146 H131 0.940 . S
C146 C145 1.378 . S
C146 C147 1.396 . S
C147 H132 0.940 . S
C147 C142 1.391 . S
C147 C146 1.396 . S
C148 P128 1.803 . S
C148 C149 1.378 . S
C148 C153 1.400 . S
C149 H133 0.939 . S
C149 C148 1.378 . S
C149 C150 1.361 . S
C150 H134 0.942 . S
C150 C149 1.361 . S
C150 C151 1.369 . S
C151 C150 1.369 . S
C151 C152 1.404 . S
C152 H135 0.940 . S
C152 C151 1.404 . S
C152 C153 1.389 . S
C153 H136 0.939 . S
C153 C148 1.400 . S
C153 C152 1.389 . S
C154 P128 1.819 . S
C154 C155 1.391 . S
C154 C159 1.391 . S
C155 H137 0.941 . S
C155 C154 1.391 . S
C155 C156 1.396 . S
C156 H140 0.939 . S
C156 C155 1.396 . S
C156 C157 1.397 . S
C157 C156 1.397 . S
C157 C158 1.385 . S
C158 H141 0.940 . S
C158 C157 1.385 . S
C158 C159 1.388 . S
C159 H138 0.939 . S
C159 C154 1.391 . S
C159 C158 1.388 . S
P160 O171 1.490 . S
P160 C174 1.812 . S
P160 C180 1.803 . S
P160 C186 1.819 . S
H161 C175 0.941 . S
H162 C176 0.939 . S
H163 C178 0.940 . S
H164 C179 0.940 . S
H165 C181 0.939 . S
H166 C182 0.942 . S
H167 C184 0.940 . S
H168 C185 0.939 . S
H169 C187 0.941 . S
H170 C191 0.939 . S
O171 P160 1.490 . S
H172 C188 0.939 . S
H173 C190 0.940 . S
C174 P160 1.812 . S
C174 C175 1.389 . S
C174 C179 1.391 . S
C175 H161 0.941 . S
C175 C174 1.389 . S
C175 C176 1.397 . S
C176 H162 0.939 . S
C176 C175 1.397 . S
C176 C177 1.378 . S
C177 C176 1.378 . S
C177 C178 1.378 . S
C178 H163 0.940 . S
C178 C177 1.378 . S
C178 C179 1.396 . S
C179 H164 0.940 . S
C179 C174 1.391 . S
C179 C178 1.396 . S
C180 P160 1.803 . S
C180 C181 1.378 . S
C180 C185 1.400 . S
C181 H165 0.939 . S
C181 C180 1.378 . S
C181 C182 1.361 . S
C182 H166 0.942 . S
C182 C181 1.361 . S
C182 C183 1.369 . S
C183 C182 1.369 . S
C183 C184 1.404 . S
C184 H167 0.940 . S
C184 C183 1.404 . S
C184 C185 1.389 . S
C185 H168 0.939 . S
C185 C180 1.400 . S
C185 C184 1.389 . S
C186 P160 1.819 . S
C186 C187 1.391 . S
C186 C191 1.391 . S
C187 H169 0.941 . S
C187 C186 1.391 . S
C187 C188 1.396 . S
C188 H172 0.939 . S
C188 C187 1.396 . S
C188 C189 1.397 . S
C189 C188 1.397 . S
C189 C190 1.385 . S
C190 H173 0.940 . S
C190 C189 1.385 . S
C190 C191 1.388 . S
C191 H170 0.939 . S
C191 C186 1.391 . S
C191 C190 1.388 . S
P192 O203 1.490 . S
P192 C206 1.812 . S
P192 C212 1.803 . S
P192 C218 1.819 . S
H193 C207 0.941 . S
H194 C208 0.939 . S
H195 C210 0.940 . S
H196 C211 0.940 . S
H197 C213 0.939 . S
H198 C214 0.942 . S
H199 C216 0.940 . S
H200 C217 0.939 . S
H201 C219 0.941 . S
H202 C223 0.939 . S
O203 P192 1.490 . S
H204 C220 0.939 . S
H205 C222 0.940 . S
C206 P192 1.812 . S
C206 C207 1.389 . S
C206 C211 1.391 . S
C207 H193 0.941 . S
C207 C206 1.389 . S
C207 C208 1.397 . S
C208 H194 0.939 . S
C208 C207 1.397 . S
C208 C209 1.378 . S
C209 C208 1.378 . S
C209 C210 1.378 . S
C210 H195 0.940 . S
C210 C209 1.378 . S
C210 C211 1.396 . S
C211 H196 0.940 . S
C211 C206 1.391 . S
C211 C210 1.396 . S
C212 P192 1.803 . S
C212 C213 1.378 . S
C212 C217 1.400 . S
C213 H197 0.939 . S
C213 C212 1.378 . S
C213 C214 1.361 . S
C214 H198 0.942 . S
C214 C213 1.361 . S
C214 C215 1.369 . S
C215 C214 1.369 . S
C215 C216 1.404 . S
C216 H199 0.940 . S
C216 C215 1.404 . S
C216 C217 1.389 . S
C217 H200 0.939 . S
C217 C212 1.400 . S
C217 C216 1.389 . S
C218 P192 1.819 . S
C218 C219 1.391 . S
C218 C223 1.391 . S
C219 H201 0.941 . S
C219 C218 1.391 . S
C219 C220 1.396 . S
C220 H204 0.939 . S
C220 C219 1.396 . S
C220 C221 1.397 . S
C221 C220 1.397 . S
C221 C222 1.385 . S
C222 H205 0.940 . S
C222 C221 1.385 . S
C222 C223 1.388 . S
C223 H202 0.939 . S
C223 C218 1.391 . S
C223 C222 1.388 . S
P224 O235 1.490 . S
P224 C238 1.812 . S
P224 C244 1.803 . S
P224 C250 1.819 . S
H225 C239 0.941 . S
H226 C240 0.939 . S
H227 C242 0.940 . S
H228 C243 0.940 . S
H229 C245 0.939 . S
H230 C246 0.942 . S
H231 C248 0.940 . S
H232 C249 0.939 . S
H233 C251 0.941 . S
H234 C255 0.939 . S
O235 P224 1.490 . S
H236 C252 0.939 . S
H237 C254 0.940 . S
C238 P224 1.812 . S
C238 C239 1.389 . S
C238 C243 1.391 . S
C239 H225 0.941 . S
C239 C238 1.389 . S
C239 C240 1.397 . S
C240 H226 0.939 . S
C240 C239 1.397 . S
C240 C241 1.378 . S
C241 C240 1.378 . S
C241 C242 1.378 . S
C242 H227 0.940 . S
C242 C241 1.378 . S
C242 C243 1.396 . S
C243 H228 0.940 . S
C243 C238 1.391 . S
C243 C242 1.396 . S
C244 P224 1.803 . S
C244 C245 1.378 . S
C244 C249 1.400 . S
C245 H229 0.939 . S
C245 C244 1.378 . S
C245 C246 1.361 . S
C246 H230 0.942 . S
C246 C245 1.361 . S
C246 C247 1.369 . S
C247 C246 1.369 . S
C247 C248 1.404 . S
C248 H231 0.940 . S
C248 C247 1.404 . S
C248 C249 1.389 . S
C249 H232 0.939 . S
C249 C244 1.400 . S
C249 C248 1.389 . S
C250 P224 1.819 . S
C250 C251 1.391 . S
C250 C255 1.391 . S
C251 H233 0.941 . S
C251 C250 1.391 . S
C251 C252 1.396 . S
C252 H236 0.939 . S
C252 C251 1.396 . S
C252 C253 1.397 . S
C253 C252 1.397 . S
C253 C254 1.385 . S
C254 H237 0.940 . S
C254 C253 1.385 . S
C254 C255 1.388 . S
C255 H234 0.939 . S
C255 C250 1.391 . S
C255 C254 1.388 . S
P256 O267 1.490 . S
P256 C270 1.812 . S
P256 C276 1.803 . S
P256 C282 1.819 . S
H257 C271 0.941 . S
H258 C272 0.939 . S
H259 C274 0.940 . S
H260 C275 0.940 . S
H261 C277 0.939 . S
H262 C278 0.942 . S
H263 C280 0.940 . S
H264 C281 0.939 . S
H265 C283 0.941 . S
H266 C287 0.939 . S
O267 P256 1.490 . S
H268 C284 0.939 . S
H269 C286 0.940 . S
C270 P256 1.812 . S
C270 C271 1.389 . S
C270 C275 1.391 . S
C271 H257 0.941 . S
C271 C270 1.389 . S
C271 C272 1.397 . S
C272 H258 0.939 . S
C272 C271 1.397 . S
C272 C273 1.378 . S
C273 C272 1.378 . S
C273 C274 1.378 . S
C274 H259 0.940 . S
C274 C273 1.378 . S
C274 C275 1.396 . S
C275 H260 0.940 . S
C275 C270 1.391 . S
C275 C274 1.396 . S
C276 P256 1.803 . S
C276 C277 1.378 . S
C276 C281 1.400 . S
C277 H261 0.939 . S
C277 C276 1.378 . S
C277 C278 1.361 . S
C278 H262 0.942 . S
C278 C277 1.361 . S
C278 C279 1.369 . S
C279 C278 1.369 . S
C279 C280 1.404 . S
C280 H263 0.940 . S
C280 C279 1.404 . S
C280 C281 1.389 . S
C281 H264 0.939 . S
C281 C276 1.400 . S
C281 C280 1.389 . S
C282 P256 1.819 . S
C282 C283 1.391 . S
C282 C287 1.391 . S
C283 H265 0.941 . S
C283 C282 1.391 . S
C283 C284 1.396 . S
C284 H268 0.939 . S
C284 C283 1.396 . S
C284 C285 1.397 . S
C285 C284 1.397 . S
C285 C286 1.385 . S
C286 H269 0.940 . S
C286 C285 1.385 . S
C286 C287 1.388 . S
C287 H266 0.939 . S
C287 C282 1.391 . S
C287 C286 1.388 . S
P288 O299 1.490 . S
P288 C302 1.812 . S
P288 C308 1.803 . S
P288 C314 1.819 . S
H289 C303 0.941 . S
H290 C304 0.939 1_554 S
H291 C306 0.940 . S
H292 C307 0.940 . S
H293 C309 0.939 . S
H294 C310 0.942 . S
H295 C312 0.940 . S
H296 C313 0.939 . S
H297 C315 0.941 . S
H298 C319 0.939 . S
O299 P288 1.490 . S
H300 C316 0.939 . S
H301 C318 0.940 . S
C302 P288 1.812 . S
C302 C303 1.389 . S
C302 C307 1.391 . S
C303 H289 0.941 . S
C303 C302 1.389 . S
C303 C304 1.397 . S
C304 H290 0.939 1_556 S
C304 C303 1.397 . S
C304 C305 1.378 . S
C305 C304 1.378 . S
C305 C306 1.378 . S
C306 H291 0.940 . S
C306 C305 1.378 . S
C306 C307 1.396 . S
C307 H292 0.940 . S
C307 C302 1.391 . S
C307 C306 1.396 . S
C308 P288 1.803 . S
C308 C309 1.378 . S
C308 C313 1.400 . S
C309 H293 0.939 . S
C309 C308 1.378 . S
C309 C310 1.361 . S
C310 H294 0.942 . S
C310 C309 1.361 . S
C310 C311 1.369 . S
C311 C310 1.369 . S
C311 C312 1.404 . S
C312 H295 0.940 . S
C312 C311 1.404 . S
C312 C313 1.389 . S
C313 H296 0.939 . S
C313 C308 1.400 . S
C313 C312 1.389 . S
C314 P288 1.819 . S
C314 C315 1.391 . S
C314 C319 1.391 . S
C315 H297 0.941 . S
C315 C314 1.391 . S
C315 C316 1.396 . S
C316 H300 0.939 . S
C316 C315 1.396 . S
C316 C317 1.397 . S
C317 C316 1.397 . S
C317 C318 1.385 . S
C318 H301 0.940 . S
C318 C317 1.385 . S
C318 C319 1.388 . S
C319 H298 0.939 . S
C319 C314 1.391 . S
C319 C318 1.388 . S
P320 O331 1.490 . S
P320 C334 1.812 . S
P320 C340 1.803 . S
P320 C346 1.819 . S
H321 C335 0.941 . S
H322 C336 0.939 . S
H323 C338 0.940 . S
H324 C339 0.940 . S
H325 C341 0.939 . S
H326 C342 0.942 . S
H327 C344 0.940 . S
H328 C345 0.939 . S
H329 C347 0.941 . S
H330 C351 0.939 . S
O331 P320 1.490 . S
H332 C348 0.939 . S
H333 C350 0.940 . S
C334 P320 1.812 . S
C334 C335 1.389 . S
C334 C339 1.391 . S
C335 H321 0.941 . S
C335 C334 1.389 . S
C335 C336 1.397 . S
C336 H322 0.939 . S
C336 C335 1.397 . S
C336 C337 1.378 . S
C337 C336 1.378 . S
C337 C338 1.378 . S
C338 H323 0.940 . S
C338 C337 1.378 . S
C338 C339 1.396 . S
C339 H324 0.940 . S
C339 C334 1.391 . S
C339 C338 1.396 . S
C340 P320 1.803 . S
C340 C341 1.378 . S
C340 C345 1.400 . S
C341 H325 0.939 . S
C341 C340 1.378 . S
C341 C342 1.361 . S
C342 H326 0.942 . S
C342 C341 1.361 . S
C342 C343 1.369 . S
C343 C342 1.369 . S
C343 C344 1.404 . S
C344 H327 0.940 . S
C344 C343 1.404 . S
C344 C345 1.389 . S
C345 H328 0.939 . S
C345 C340 1.400 . S
C345 C344 1.389 . S
C346 P320 1.819 . S
C346 C347 1.391 . S
C346 C351 1.391 . S
C347 H329 0.941 . S
C347 C346 1.391 . S
C347 C348 1.396 . S
C348 H332 0.939 . S
C348 C347 1.396 . S
C348 C349 1.397 . S
C349 C348 1.397 . S
C349 C350 1.385 . S
C350 H333 0.940 . S
C350 C349 1.385 . S
C350 C351 1.388 . S
C351 H330 0.939 . S
C351 C346 1.391 . S
C351 C350 1.388 . S
P352 O363 1.490 . S
P352 C366 1.812 . S
P352 C372 1.803 . S
P352 C378 1.819 . S
H353 C367 0.941 . S
H354 C368 0.952 . S
H355 C370 0.940 . S
H356 C371 0.940 . S
H357 C373 0.939 . S
H358 C374 0.942 . S
H359 C376 0.940 . S
H360 C377 0.939 . S
H361 C379 0.941 . S
H362 C383 0.939 . S
O363 P352 1.490 . S
H364 C380 0.939 . S
H365 C382 0.940 . S
C366 P352 1.812 . S
C366 C367 1.389 . S
C366 C371 1.391 . S
C367 H353 0.941 . S
C367 C366 1.389 . S
C367 C368 1.397 . S
C368 H354 0.952 . S
C368 C367 1.397 . S
C368 C369 1.378 . S
C369 C368 1.378 . S
C369 C370 1.378 . S
C370 H355 0.940 . S
C370 C369 1.378 . S
C370 C371 1.396 . S
C371 H356 0.940 . S
C371 C366 1.391 . S
C371 C370 1.396 . S
C372 P352 1.803 . S
C372 C373 1.378 . S
C372 C377 1.400 . S
C373 H357 0.939 . S
C373 C372 1.378 . S
C373 C374 1.361 . S
C374 H358 0.942 . S
C374 C373 1.361 . S
C374 C375 1.369 . S
C375 C374 1.369 . S
C375 C376 1.404 . S
C376 H359 0.940 . S
C376 C375 1.404 . S
C376 C377 1.389 . S
C377 H360 0.939 . S
C377 C372 1.400 . S
C377 C376 1.389 . S
C378 P352 1.819 . S
C378 C379 1.391 . S
C378 C383 1.391 . S
C379 H361 0.941 . S
C379 C378 1.391 . S
C379 C380 1.396 . S
C380 H364 0.939 . S
C380 C379 1.396 . S
C380 C381 1.397 . S
C381 C380 1.397 . S
C381 C382 1.385 . S
C382 H365 0.940 . S
C382 C381 1.385 . S
C382 C383 1.388 . S
C383 H362 0.939 . S
C383 C378 1.391 . S
C383 C382 1.388 . S
P384 O395 1.490 . S
P384 C398 1.812 . S
P384 C404 1.803 . S
P384 C410 1.819 . S
H385 C399 0.941 . S
H386 C400 0.939 . S
H387 C402 0.940 . S
H388 C403 0.940 . S
H389 C405 0.939 . S
H390 C406 0.942 . S
H391 C408 0.940 . S
H392 C409 0.939 . S
H393 C411 0.941 . S
H394 C415 0.939 . S
O395 P384 1.490 . S
H396 C412 0.939 . S
H397 C414 0.940 . S
C398 P384 1.812 . S
C398 C399 1.389 . S
C398 C403 1.391 . S
C399 H385 0.941 . S
C399 C398 1.389 . S
C399 C400 1.397 . S
C400 H386 0.939 . S
C400 C399 1.397 . S
C400 C401 1.378 . S
C401 C400 1.378 . S
C401 C402 1.378 . S
C402 H387 0.940 . S
C402 C401 1.378 . S
C402 C403 1.396 . S
C403 H388 0.940 . S
C403 C398 1.391 . S
C403 C402 1.396 . S
C404 P384 1.803 . S
C404 C405 1.378 . S
C404 C409 1.400 . S
C405 H389 0.939 . S
C405 C404 1.378 . S
C405 C406 1.361 . S
C406 H390 0.942 . S
C406 C405 1.361 . S
C406 C407 1.369 . S
C407 C406 1.369 . S
C407 C408 1.404 . S
C408 H391 0.940 . S
C408 C407 1.404 . S
C408 C409 1.389 . S
C409 H392 0.939 . S
C409 C404 1.400 . S
C409 C408 1.389 . S
C410 P384 1.819 . S
C410 C411 1.391 . S
C410 C415 1.391 . S
C411 H393 0.941 . S
C411 C410 1.391 . S
C411 C412 1.396 . S
C412 H396 0.939 . S
C412 C411 1.396 . S
C412 C413 1.397 . S
C413 C412 1.397 . S
C413 C414 1.385 . S
C414 H397 0.940 . S
C414 C413 1.385 . S
C414 C415 1.388 . S
C415 H394 0.939 . S
C415 C410 1.391 . S
C415 C414 1.388 . S
P416 O427 1.490 . S
P416 C430 1.812 . S
P416 C436 1.803 . S
P416 C442 1.819 . S
H417 C431 0.941 . S
H418 C432 0.939 . S
H419 C434 0.940 . S
H420 C435 0.940 . S
H421 C437 0.939 . S
H422 C438 0.942 . S
H423 C440 0.940 . S
H424 C441 0.939 . S
H425 C443 0.941 . S
H426 C447 0.939 . S
O427 P416 1.490 . S
H428 C444 0.939 . S
H429 C446 0.940 . S
C430 P416 1.812 . S
C430 C431 1.389 . S
C430 C435 1.391 . S
C431 H417 0.941 . S
C431 C430 1.389 . S
C431 C432 1.397 . S
C432 H418 0.939 . S
C432 C431 1.397 . S
C432 C433 1.378 . S
C433 C432 1.378 . S
C433 C434 1.378 . S
C434 H419 0.940 . S
C434 C433 1.378 . S
C434 C435 1.396 . S
C435 H420 0.940 . S
C435 C430 1.391 . S
C435 C434 1.396 . S
C436 P416 1.803 . S
C436 C437 1.378 . S
C436 C441 1.400 . S
C437 H421 0.939 . S
C437 C436 1.378 . S
C437 C438 1.361 . S
C438 H422 0.942 . S
C438 C437 1.361 . S
C438 C439 1.369 . S
C439 C438 1.369 . S
C439 C440 1.404 . S
C440 H423 0.940 . S
C440 C439 1.404 . S
C440 C441 1.389 . S
C441 H424 0.939 . S
C441 C436 1.400 . S
C441 C440 1.389 . S
C442 P416 1.819 . S
C442 C443 1.391 . S
C442 C447 1.391 . S
C443 H425 0.941 . S
C443 C442 1.391 . S
C443 C444 1.396 . S
C444 H428 0.939 . S
C444 C443 1.396 . S
C444 C445 1.397 . S
C445 C444 1.397 . S
C445 C446 1.385 . S
C446 H429 0.940 . S
C446 C445 1.385 . S
C446 C447 1.388 . S
C447 H426 0.939 . S
C447 C442 1.391 . S
C447 C446 1.388 . S
P448 O459 1.490 . S
P448 C462 1.812 . S
P448 C468 1.803 . S
P448 C474 1.819 . S
H449 C463 0.941 . S
H450 C464 0.939 . S
H451 C466 0.940 . S
H452 C467 0.940 . S
H453 C469 0.939 . S
H454 C470 0.942 . S
H455 C472 0.940 . S
H456 C473 0.939 . S
H457 C475 0.941 . S
H458 C479 0.939 . S
O459 P448 1.490 . S
H460 C476 0.939 . S
H461 C478 0.940 . S
C462 P448 1.812 . S
C462 C463 1.389 . S
C462 C467 1.391 . S
C463 H449 0.941 . S
C463 C462 1.389 . S
C463 C464 1.397 . S
C464 H450 0.939 . S
C464 C463 1.397 . S
C464 C465 1.378 . S
C465 C464 1.378 . S
C465 C466 1.378 . S
C466 H451 0.940 . S
C466 C465 1.378 . S
C466 C467 1.396 . S
C467 H452 0.940 . S
C467 C462 1.391 . S
C467 C466 1.396 . S
C468 P448 1.803 . S
C468 C469 1.378 . S
C468 C473 1.400 . S
C469 H453 0.939 . S
C469 C468 1.378 . S
C469 C470 1.361 . S
C470 H454 0.942 . S
C470 C469 1.361 . S
C470 C471 1.369 . S
C471 C470 1.369 . S
C471 C472 1.404 . S
C472 H455 0.940 . S
C472 C471 1.404 . S
C472 C473 1.389 . S
C473 H456 0.939 . S
C473 C468 1.400 . S
C473 C472 1.389 . S
C474 P448 1.819 . S
C474 C475 1.391 . S
C474 C479 1.391 . S
C475 H457 0.941 . S
C475 C474 1.391 . S
C475 C476 1.396 . S
C476 H460 0.939 . S
C476 C475 1.396 . S
C476 C477 1.397 . S
C477 C476 1.397 . S
C477 C478 1.385 . S
C478 H461 0.940 . S
C478 C477 1.385 . S
C478 C479 1.388 . S
C479 H458 0.939 . S
C479 C474 1.391 . S
C479 C478 1.388 . S
P480 O491 1.490 . S
P480 C494 1.812 . S
P480 C500 1.803 . S
P480 C506 1.819 . S
H481 C495 0.941 . S
H482 C496 0.939 . S
H483 C498 0.940 . S
H484 C499 0.940 . S
H485 C501 0.939 . S
H486 C502 0.942 . S
H487 C504 0.940 . S
H488 C505 0.939 . S
H489 C507 0.941 . S
H490 C511 0.939 . S
O491 P480 1.490 . S
H492 C508 0.939 . S
H493 C510 0.940 . S
C494 P480 1.812 . S
C494 C495 1.389 . S
C494 C499 1.391 . S
C495 H481 0.941 . S
C495 C494 1.389 . S
C495 C496 1.397 . S
C496 H482 0.939 . S
C496 C495 1.397 . S
C496 C497 1.378 . S
C497 C496 1.378 . S
C497 C498 1.378 . S
C498 H483 0.940 . S
C498 C497 1.378 . S
C498 C499 1.396 . S
C499 H484 0.940 . S
C499 C494 1.391 . S
C499 C498 1.396 . S
C500 P480 1.803 . S
C500 C501 1.378 . S
C500 C505 1.400 . S
C501 H485 0.939 . S
C501 C500 1.378 . S
C501 C502 1.361 . S
C502 H486 0.942 . S
C502 C501 1.361 . S
C502 C503 1.369 . S
C503 C502 1.369 . S
C503 C504 1.404 . S
C504 H487 0.940 . S
C504 C503 1.404 . S
C504 C505 1.389 . S
C505 H488 0.939 . S
C505 C500 1.400 . S
C505 C504 1.389 . S
C506 P480 1.819 . S
C506 C507 1.391 . S
C506 C511 1.391 . S
C507 H489 0.941 . S
C507 C506 1.391 . S
C507 C508 1.396 . S
C508 H492 0.939 . S
C508 C507 1.396 . S
C508 C509 1.397 . S
C509 C508 1.397 . S
C509 C510 1.385 . S
C510 H493 0.940 . S
C510 C509 1.385 . S
C510 C511 1.388 . S
C511 H490 0.939 . S
C511 C506 1.391 . S
C511 C510 1.388 . S
P512 O523 1.490 . S
P512 C526 1.812 . S
P512 C532 1.803 . S
P512 C538 1.819 . S
H513 C527 0.941 . S
H514 C528 0.939 . S
H515 C530 0.940 . S
H516 C531 0.940 . S
H517 C533 0.939 . S
H518 C534 0.942 . S
H519 C536 0.940 . S
H520 C537 0.939 . S
H521 C539 0.941 . S
H522 C543 0.939 . S
O523 P512 1.490 . S
H524 C540 0.939 . S
H525 C542 0.940 . S
C526 P512 1.812 . S
C526 C527 1.389 . S
C526 C531 1.391 . S
C527 H513 0.941 . S
C527 C526 1.389 . S
C527 C528 1.397 . S
C528 H514 0.939 . S
C528 C527 1.397 . S
C528 C529 1.378 . S
C529 C528 1.378 . S
C529 C530 1.378 . S
C530 H515 0.940 . S
C530 C529 1.378 . S
C530 C531 1.396 . S
C531 H516 0.940 . S
C531 C526 1.391 . S
C531 C530 1.396 . S
C532 P512 1.803 . S
C532 C533 1.378 . S
C532 C537 1.400 . S
C533 H517 0.939 . S
C533 C532 1.378 . S
C533 C534 1.361 . S
C534 H518 0.942 . S
C534 C533 1.361 . S
C534 C535 1.369 . S
C535 C534 1.369 . S
C535 C536 1.404 . S
C536 H519 0.940 . S
C536 C535 1.404 . S
C536 C537 1.389 . S
C537 H520 0.939 . S
C537 C532 1.400 . S
C537 C536 1.389 . S
C538 P512 1.819 . S
C538 C539 1.391 . S
C538 C543 1.391 . S
C539 H521 0.941 . S
C539 C538 1.391 . S
C539 C540 1.396 . S
C540 H524 0.939 . S
C540 C539 1.396 . S
C540 C541 1.397 . S
C541 C540 1.397 . S
C541 C542 1.385 . S
C542 H525 0.940 . S
C542 C541 1.385 . S
C542 C543 1.388 . S
C543 H522 0.939 . S
C543 C538 1.391 . S
C543 C542 1.388 . S
P544 O555 1.490 . S
P544 C558 1.812 . S
P544 C564 1.803 . S
P544 C570 1.819 . S
H545 C559 0.941 . S
H546 C560 0.939 . S
H547 C562 0.940 . S
H548 C563 0.940 . S
H549 C565 0.939 . S
H550 C566 0.942 . S
H551 C568 0.940 . S
H552 C569 0.939 . S
H553 C571 0.941 . S
H554 C575 0.939 . S
O555 P544 1.490 . S
H556 C572 0.939 . S
H557 C574 0.940 . S
C558 P544 1.812 . S
C558 C559 1.389 . S
C558 C563 1.391 . S
C559 H545 0.941 . S
C559 C558 1.389 . S
C559 C560 1.397 . S
C560 H546 0.939 . S
C560 C559 1.397 . S
C560 C561 1.378 . S
C561 C560 1.378 . S
C561 C562 1.378 . S
C562 H547 0.940 . S
C562 C561 1.378 . S
C562 C563 1.396 . S
C563 H548 0.940 . S
C563 C558 1.391 . S
C563 C562 1.396 . S
C564 P544 1.803 . S
C564 C565 1.378 . S
C564 C569 1.400 . S
C565 H549 0.939 . S
C565 C564 1.378 . S
C565 C566 1.361 . S
C566 H550 0.942 . S
C566 C565 1.361 . S
C566 C567 1.369 . S
C567 C566 1.369 . S
C567 C568 1.404 . S
C568 H551 0.940 . S
C568 C567 1.404 . S
C568 C569 1.389 . S
C569 H552 0.939 . S
C569 C564 1.400 . S
C569 C568 1.389 . S
C570 P544 1.819 . S
C570 C571 1.391 . S
C570 C575 1.391 . S
C571 H553 0.941 . S
C571 C570 1.391 . S
C571 C572 1.396 . S
C572 H556 0.939 . S
C572 C571 1.396 . S
C572 C573 1.397 . S
C573 C572 1.397 . S
C573 C574 1.385 . S
C574 H557 0.940 . S
C574 C573 1.385 . S
C574 C575 1.388 . S
C575 H554 0.939 . S
C575 C570 1.391 . S
C575 C574 1.388 . S
O576 Mn577 2.163 1_565 S
O576 C590 1.244 . S
Mn577 O576 2.163 1_545 S
Mn577 O580 2.160 . S
Mn577 O581 2.221 1_545 S
Mn577 O583 2.163 1_554 S
Mn577 O585 2.160 . S
Mn577 O595 2.221 . S
O578 Mn579 2.087 1_565 S
O578 C590 1.256 . S
Mn579 O578 2.087 1_545 S
Mn579 O586 2.089 . S
Mn579 O595 2.290 . S
Mn579 O596 2.251 . S
O580 Mn577 2.160 . S
O580 C591 1.239 1_554 S
O581 Mn577 2.221 1_565 S
O581 Mn582 2.290 1_554 S
O581 C592 1.286 . S
Mn582 O581 2.290 1_556 S
Mn582 O584 2.089 1_565 S
Mn582 O587 2.251 . S
Mn582 O588 2.087 . S
O583 Mn577 2.163 1_556 S
O583 C593 1.244 . S
O584 Mn582 2.089 1_545 S
O584 C591 1.256 . S
O585 Mn577 2.160 . S
O585 C594 1.239 . S
O586 Mn579 2.089 . S
O586 C594 1.256 . S
O587 Mn582 2.251 . S
O587 C592 1.205 1_556 S
O588 Mn582 2.087 . S
O588 C593 1.256 1_565 S
C589 O595 1.278 . S
C589 O596 1.241 . S
C590 O576 1.244 . S
C590 O578 1.256 . S
C591 O580 1.239 1_556 S
C591 O584 1.256 . S
C592 O581 1.286 . S
C592 O587 1.205 1_554 S
C593 O583 1.244 . S
C593 O588 1.256 1_545 S
C594 O585 1.239 . S
C594 O586 1.256 . S
O595 Mn577 2.221 . S
O595 Mn579 2.290 . S
O595 C589 1.278 . S
O596 Mn579 2.251 . S
O596 C589 1.241 . S
O597 Mn598 2.135 1_455 S
O597 C611 1.244 . S
Mn598 O597 2.135 1_655 S
Mn598 O601 2.188 . S
Mn598 O602 2.219 1_655 S
Mn598 O604 2.163 1_554 S
Mn598 O606 2.161 . S
Mn598 O616 2.226 . S
O599 Mn600 2.087 1_455 S
O599 C611 1.256 . S
Mn600 O599 2.087 1_655 S
Mn600 O607 2.089 1_655 S
Mn600 O616 2.290 . S
Mn600 O617 2.251 . S
O601 Mn598 2.188 . S
O601 C612 1.239 1_554 S
O602 Mn598 2.219 1_455 S
O602 Mn603 2.290 1_554 S
O602 C613 1.278 . S
Mn603 O602 2.290 1_556 S
Mn603 O605 2.089 1_455 S
Mn603 O608 2.251 . S
Mn603 O609 2.087 . S
O604 Mn598 2.163 1_556 S
O604 C614 1.242 . S
O605 Mn603 2.089 1_655 S
O605 C612 1.256 . S
O606 Mn598 2.161 . S
O606 C615 1.234 1_655 S
O607 Mn600 2.089 1_455 S
O607 C615 1.256 . S
O608 Mn603 2.251 . S
O608 C613 1.241 1_556 S
O609 Mn603 2.087 . S
O609 C614 1.257 1_455 S
C610 O616 1.278 . S
C610 O617 1.241 . S
C611 O597 1.244 . S
C611 O599 1.256 . S
C612 O601 1.239 1_556 S
C612 O605 1.256 . S
C613 O602 1.278 . S
C613 O608 1.241 1_554 S
C614 O604 1.242 . S
C614 O609 1.257 1_655 S
C615 O606 1.234 1_455 S
C615 O607 1.256 . S
O616 Mn598 2.226 . S
O616 Mn600 2.290 . S
O616 C610 1.278 . S
O617 Mn600 2.251 . S
O617 C610 1.241 . S
O618 Mn619 2.162 1_556 S
O618 C632 1.244 . S
Mn619 O618 2.162 1_554 S
Mn619 O622 2.160 . S
Mn619 O623 2.223 . S
Mn619 O625 2.184 . S
Mn619 O627 2.138 1_554 S
Mn619 O637 2.218 1_554 S
O620 Mn621 2.087 . S
O620 C632 1.256 . S
Mn621 O620 2.087 . S
Mn621 O628 2.089 . S
Mn621 O637 2.290 . S
Mn621 O638 2.251 1_556 S
O622 Mn619 2.160 . S
O622 C633 1.259 . S
O623 Mn619 2.223 . S
O623 Mn624 2.290 . S
O623 C634 1.278 . S
Mn624 O623 2.290 . S
Mn624 O626 2.089 . S
Mn624 O629 2.251 . S
Mn624 O630 2.087 . S
O625 Mn619 2.184 . S
O625 C635 1.244 . S
O626 Mn624 2.089 . S
O626 C633 1.256 . S
O627 Mn619 2.138 1_556 S
O627 C636 1.239 . S
O628 Mn621 2.089 . S
O628 C636 1.256 . S
O629 Mn624 2.251 . S
O629 C634 1.241 . S
O630 Mn624 2.087 . S
O630 C635 1.256 . S
C631 O637 1.278 1_554 S
C631 O638 1.241 . S
C632 O618 1.244 . S
C632 O620 1.256 . S
C633 O622 1.259 . S
C633 O626 1.256 . S
C634 O623 1.278 . S
C634 O629 1.241 . S
C635 O625 1.244 . S
C635 O630 1.256 . S
C636 O627 1.239 . S
C636 O628 1.256 . S
O637 Mn619 2.218 1_556 S
O637 Mn621 2.290 . S
O637 C631 1.278 1_556 S
O638 Mn621 2.251 1_554 S
O638 C631 1.241 . S
O639 Mn640 2.163 . S
O639 C653 1.244 . S
Mn640 O639 2.163 . S
Mn640 O643 2.160 . S
Mn640 O644 2.221 . S
Mn640 O646 2.163 . S
Mn640 O648 2.160 . S
Mn640 O658 2.221 . S
O641 Mn642 2.087 . S
O641 C653 1.256 . S
Mn642 O641 2.087 . S
Mn642 O649 2.089 . S
Mn642 O658 2.290 . S
Mn642 O659 2.251 . S
O643 Mn640 2.160 . S
O643 C654 1.239 . S
O644 Mn640 2.221 . S
O644 Mn645 2.290 . S
O644 C655 1.278 . S
Mn645 O644 2.290 . S
Mn645 O647 2.089 . S
Mn645 O650 2.251 . S
Mn645 O651 2.087 . S
O646 Mn640 2.163 . S
O646 C656 1.244 . S
O647 Mn645 2.089 . S
O647 C654 1.256 . S
O648 Mn640 2.160 . S
O648 C657 1.239 . S
O649 Mn642 2.089 . S
O649 C657 1.256 . S
O650 Mn645 2.251 . S
O650 C655 1.241 . S
O651 Mn645 2.087 . S
O651 C656 1.256 . S
C652 O658 1.278 . S
C652 O659 1.241 . S
C653 O639 1.244 . S
C653 O641 1.256 . S
C654 O643 1.239 . S
C654 O647 1.256 . S
C655 O644 1.278 . S
C655 O650 1.241 . S
C656 O646 1.244 . S
C656 O651 1.256 . S
C657 O648 1.239 . S
C657 O649 1.256 . S
O658 Mn640 2.221 . S
O658 Mn642 2.290 . S
O658 C652 1.278 . S
O659 Mn642 2.251 . S
O659 C652 1.241 . S
O660 Mn661 2.163 . S
O660 C674 1.244 . S
Mn661 O660 2.163 . S
Mn661 O664 2.160 . S
Mn661 O665 2.221 . S
Mn661 O667 2.163 . S
Mn661 O669 2.160 . S
Mn661 O679 2.221 . S
O662 Mn663 2.087 . S
O662 C674 1.256 . S
Mn663 O662 2.087 . S
Mn663 O670 2.089 . S
Mn663 O679 2.290 . S
Mn663 O680 2.251 . S
O664 Mn661 2.160 . S
O664 C675 1.239 . S
O665 Mn661 2.221 . S
O665 Mn666 2.290 . S
O665 C676 1.278 . S
Mn666 O665 2.290 . S
Mn666 O668 2.089 . S
Mn666 O671 2.251 . S
Mn666 O672 2.087 . S
O667 Mn661 2.163 . S
O667 C677 1.244 . S
O668 Mn666 2.089 . S
O668 C675 1.256 . S
O669 Mn661 2.160 . S
O669 C678 1.239 . S
O670 Mn663 2.089 . S
O670 C678 1.256 . S
O671 Mn666 2.251 . S
O671 C676 1.241 . S
O672 Mn666 2.087 . S
O672 C677 1.256 . S
C673 O679 1.278 . S
C673 O680 1.241 . S
C674 O660 1.244 . S
C674 O662 1.256 . S
C675 O664 1.239 . S
C675 O668 1.256 . S
C676 O665 1.278 . S
C676 O671 1.241 . S
C677 O667 1.244 . S
C677 O672 1.256 . S
C678 O669 1.239 . S
C678 O670 1.256 . S
O679 Mn661 2.221 . S
O679 Mn663 2.290 . S
O679 C673 1.278 . S
O680 Mn663 2.251 . S
O680 C673 1.241 . S
O681 Mn682 2.163 . S
O681 C695 1.244 . S
Mn682 O681 2.163 . S
Mn682 O685 2.160 . S
Mn682 O686 2.221 . S
Mn682 O688 2.163 . S
Mn682 O690 2.160 . S
Mn682 O700 2.221 . S
O683 Mn684 2.087 . S
O683 C695 1.256 . S
Mn684 O683 2.087 . S
Mn684 O691 2.089 . S
Mn684 O700 2.290 . S
Mn684 O701 2.251 . S
O685 Mn682 2.160 . S
O685 C696 1.239 . S
O686 Mn682 2.221 . S
O686 Mn687 2.290 . S
O686 C697 1.278 . S
Mn687 O686 2.290 . S
Mn687 O689 2.089 . S
Mn687 O692 2.251 . S
Mn687 O693 2.087 . S
O688 Mn682 2.163 . S
O688 C698 1.244 . S
O689 Mn687 2.089 . S
O689 C696 1.256 . S
O690 Mn682 2.160 . S
O690 C699 1.239 . S
O691 Mn684 2.089 . S
O691 C699 1.256 . S
O692 Mn687 2.251 . S
O692 C697 1.241 . S
O693 Mn687 2.087 . S
O693 C698 1.256 . S
C694 O700 1.278 . S
C694 O701 1.241 . S
C695 O681 1.244 . S
C695 O683 1.256 . S
C696 O685 1.239 . S
C696 O689 1.256 . S
C697 O686 1.278 . S
C697 O692 1.241 . S
C698 O688 1.244 . S
C698 O693 1.256 . S
C699 O690 1.239 . S
C699 O691 1.256 . S
O700 Mn682 2.221 . S
O700 Mn684 2.290 . S
O700 C694 1.278 . S
O701 Mn684 2.251 . S
O701 C694 1.241 . S
O702 Mn703 2.163 . S
O702 C716 1.244 . S
Mn703 O702 2.163 . S
Mn703 O706 2.160 . S
Mn703 O707 2.221 . S
Mn703 O709 2.163 . S
Mn703 O711 2.160 . S
Mn703 O721 2.221 . S
O704 Mn705 2.087 . S
O704 C716 1.256 . S
Mn705 O704 2.087 . S
Mn705 O712 2.089 . S
Mn705 O721 2.290 . S
Mn705 O722 2.251 . S
O706 Mn703 2.160 . S
O706 C717 1.239 . S
O707 Mn703 2.221 . S
O707 Mn708 2.290 . S
O707 C718 1.278 . S
Mn708 O707 2.290 . S
Mn708 O710 2.089 . S
Mn708 O713 2.251 . S
Mn708 O714 2.087 . S
O709 Mn703 2.163 . S
O709 C719 1.244 . S
O710 Mn708 2.089 . S
O710 C717 1.256 . S
O711 Mn703 2.160 . S
O711 C720 1.239 . S
O712 Mn705 2.089 . S
O712 C720 1.256 . S
O713 Mn708 2.251 . S
O713 C718 1.241 . S
O714 Mn708 2.087 . S
O714 C719 1.256 . S
C715 O721 1.278 . S
C715 O722 1.241 . S
C716 O702 1.244 . S
C716 O704 1.256 . S
C717 O706 1.239 . S
C717 O710 1.256 . S
C718 O707 1.278 . S
C718 O713 1.241 . S
C719 O709 1.244 . S
C719 O714 1.256 . S
C720 O711 1.239 . S
C720 O712 1.256 . S
O721 Mn703 2.221 . S
O721 Mn705 2.290 . S
O721 C715 1.278 . S
O722 Mn705 2.251 . S
O722 C715 1.241 . S
O723 Mn724 2.163 . S
O723 C737 1.244 . S
Mn724 O723 2.163 . S
Mn724 O727 2.160 . S
Mn724 O728 2.221 . S
Mn724 O730 2.163 . S
Mn724 O732 2.160 . S
Mn724 O742 2.221 . S
O725 Mn726 2.087 . S
O725 C737 1.256 . S
Mn726 O725 2.087 . S
Mn726 O733 2.089 . S
Mn726 O742 2.290 . S
Mn726 O743 2.251 . S
O727 Mn724 2.160 . S
O727 C738 1.239 . S
O728 Mn724 2.221 . S
O728 Mn729 2.290 . S
O728 C739 1.278 . S
Mn729 O728 2.290 . S
Mn729 O731 2.089 . S
Mn729 O734 2.251 . S
Mn729 O735 2.087 . S
O730 Mn724 2.163 . S
O730 C740 1.244 . S
O731 Mn729 2.089 . S
O731 C738 1.256 . S
O732 Mn724 2.160 . S
O732 C741 1.239 . S
O733 Mn726 2.089 . S
O733 C741 1.256 . S
O734 Mn729 2.251 . S
O734 C739 1.241 . S
O735 Mn729 2.087 . S
O735 C740 1.256 . S
C736 O742 1.278 . S
C736 O743 1.241 . S
C737 O723 1.244 . S
C737 O725 1.256 . S
C738 O727 1.239 . S
C738 O731 1.256 . S
C739 O728 1.278 . S
C739 O734 1.241 . S
C740 O730 1.244 . S
C740 O735 1.256 . S
C741 O732 1.239 . S
C741 O733 1.256 . S
O742 Mn724 2.221 . S
O742 Mn726 2.290 . S
O742 C736 1.278 . S
O743 Mn726 2.251 . S
O743 C736 1.241 . S
O744 Mn745 2.163 . S
O744 C758 1.244 . S
Mn745 O744 2.163 . S
Mn745 O748 2.160 . S
Mn745 O749 2.221 . S
Mn745 O751 2.163 . S
Mn745 O753 2.160 . S
Mn745 O763 2.221 . S
O746 Mn747 2.087 . S
O746 C758 1.256 . S
Mn747 O746 2.087 . S
Mn747 O754 2.089 . S
Mn747 O763 2.290 . S
Mn747 O764 2.251 . S
O748 Mn745 2.160 . S
O748 C759 1.239 . S
O749 Mn745 2.221 . S
O749 Mn750 2.290 . S
O749 C760 1.278 . S
Mn750 O749 2.290 . S
Mn750 O752 2.089 . S
Mn750 O755 2.251 . S
Mn750 O756 2.087 . S
O751 Mn745 2.163 . S
O751 C761 1.244 . S
O752 Mn750 2.089 . S
O752 C759 1.256 . S
O753 Mn745 2.160 . S
O753 C762 1.239 . S
O754 Mn747 2.089 . S
O754 C762 1.256 . S
O755 Mn750 2.251 . S
O755 C760 1.241 . S
O756 Mn750 2.087 . S
O756 C761 1.256 . S
C757 O763 1.278 . S
C757 O764 1.241 . S
C758 O744 1.244 . S
C758 O746 1.256 . S
C759 O748 1.239 . S
C759 O752 1.256 . S
C760 O749 1.278 . S
C760 O755 1.241 . S
C761 O751 1.244 . S
C761 O756 1.256 . S
C762 O753 1.239 . S
C762 O754 1.256 . S
O763 Mn745 2.221 . S
O763 Mn747 2.290 . S
O763 C757 1.278 . S
O764 Mn747 2.251 . S
O764 C757 1.241 . S
H765 C777 0.930 . S
H766 C779 0.930 . S
H767 C780 0.930 . S
H768 C784 0.959 . S
H769 C784 0.959 . S
H770 C784 0.961 . S
H771 C785 0.960 . S
H772 C785 0.961 . S
H773 C785 0.959 . S
H774 C788 0.929 . S
H775 C789 0.947 . S
H776 C791 0.930 . S
C777 H765 0.930 . S
C777 C778 1.399 . S
C777 C782 1.399 . S
C778 C777 1.399 . S
C778 C779 1.376 . S
C779 H766 0.930 . S
C779 C778 1.376 . S
C779 C780 1.388 . S
C780 H767 0.930 . S
C780 C779 1.388 . S
C780 C781 1.390 . S
C781 C780 1.390 . S
C781 C782 1.394 . S
C781 C787 1.465 . S
C782 C777 1.399 . S
C782 C781 1.394 . S
C782 C783 1.516 . S
C783 C782 1.516 . S
C783 C784 1.502 . S
C783 C785 1.561 . S
C783 C786 1.526 . S
C784 H768 0.959 . S
C784 H769 0.959 . S
C784 H770 0.961 . S
C784 C783 1.502 . S
C785 H771 0.960 . S
C785 H772 0.961 . S
C785 H773 0.959 . S
C785 C783 1.561 . S
C786 C783 1.526 . S
C786 C787 1.396 . S
C786 C791 1.390 . S
C787 C781 1.465 . S
C787 C786 1.396 . S
C787 C788 1.399 . S
C788 H774 0.929 . S
C788 C787 1.399 . S
C788 C789 1.385 . S
C789 H775 0.947 . S
C789 C788 1.385 . S
C789 C790 1.389 . S
C790 C789 1.389 . S
C790 C791 1.387 . S
C791 H776 0.930 . S
C791 C786 1.390 . S
C791 C790 1.387 . S
H792 C804 0.930 . S
H793 C806 0.930 . S
H794 C807 0.930 . S
H795 C811 0.959 1_554 S
H796 C811 0.959 . S
H797 C811 0.961 . S
H798 C812 0.960 . S
H799 C812 0.961 . S
H800 C812 0.959 . S
H801 C815 0.929 . S
H802 C816 0.931 . S
H803 C818 0.930 1_556 S
C804 H792 0.930 . S
C804 C805 1.399 . S
C804 C809 1.399 . S
C805 C804 1.399 . S
C805 C806 1.376 . S
C806 H793 0.930 . S
C806 C805 1.376 . S
C806 C807 1.388 . S
C807 H794 0.930 . S
C807 C806 1.388 . S
C807 C808 1.390 . S
C808 C807 1.390 . S
C808 C809 1.394 . S
C808 C814 1.465 . S
C809 C804 1.399 . S
C809 C808 1.394 . S
C809 C810 1.553 . S
C810 C809 1.553 . S
C810 C811 1.485 1_554 S
C810 C812 1.521 1_554 S
C810 C813 1.551 . S
C811 H795 0.959 1_556 S
C811 H796 0.959 . S
C811 H797 0.961 . S
C811 C810 1.485 1_556 S
C812 H798 0.960 . S
C812 H799 0.961 . S
C812 H800 0.959 . S
C812 C810 1.521 1_556 S
C813 C810 1.551 . S
C813 C814 1.396 . S
C813 C818 1.390 . S
C814 C808 1.465 . S
C814 C813 1.396 . S
C814 C815 1.399 . S
C815 H801 0.929 . S
C815 C814 1.399 . S
C815 C816 1.385 . S
C816 H802 0.931 . S
C816 C815 1.385 . S
C816 C817 1.389 . S
C817 C816 1.389 . S
C817 C818 1.387 . S
C818 H803 0.930 1_554 S
C818 C813 1.390 . S
C818 C817 1.387 . S
H819 C831 0.930 . S
H820 C833 0.930 1_556 S
H821 C834 0.932 1_556 S
H822 C838 0.959 . S
H823 C838 0.959 . S
H824 C838 0.961 . S
H825 C839 0.960 . S
H826 C839 0.961 . S
H827 C839 0.959 . S
H828 C842 0.929 . S
H829 C843 0.931 . S
H830 C845 0.930 . S
C831 H819 0.930 . S
C831 C832 1.399 . S
C831 C836 1.399 . S
C832 C831 1.399 . S
C832 C833 1.376 . S
C833 H820 0.930 1_554 S
C833 C832 1.376 . S
C833 C834 1.388 . S
C834 H821 0.932 1_554 S
C834 C833 1.388 . S
C834 C835 1.388 . S
C835 C834 1.388 . S
C835 C836 1.394 . S
C835 C841 1.465 . S
C836 C831 1.399 . S
C836 C835 1.394 . S
C836 C837 1.516 . S
C837 C836 1.516 . S
C837 C838 1.502 . S
C837 C839 1.561 . S
C837 C840 1.526 . S
C838 H822 0.959 . S
C838 H823 0.959 . S
C838 H824 0.961 . S
C838 C837 1.502 . S
C839 H825 0.960 . S
C839 H826 0.961 . S
C839 H827 0.959 . S
C839 C837 1.561 . S
C840 C837 1.526 . S
C840 C841 1.396 . S
C840 C845 1.390 . S
C841 C835 1.465 . S
C841 C840 1.396 . S
C841 C842 1.399 1_554 S
C842 H828 0.929 . S
C842 C841 1.399 1_556 S
C842 C843 1.385 . S
C843 H829 0.931 . S
C843 C842 1.385 . S
C843 C844 1.389 1_556 S
C844 C843 1.389 1_554 S
C844 C845 1.387 . S
C845 H830 0.930 . S
C845 C840 1.390 . S
C845 C844 1.387 . S
H846 C858 0.930 . S
H847 C860 0.949 . S
H848 C861 0.899 1_554 S
H849 C865 0.959 . S
H850 C865 0.959 . S
H851 C865 0.961 . S
H852 C866 0.960 . S
H853 C866 0.961 . S
H854 C866 0.959 . S
H855 C869 0.929 . S
H856 C870 0.931 . S
H857 C872 0.930 . S
C858 H846 0.930 . S
C858 C859 1.399 . S
C858 C863 1.399 . S
C859 C858 1.399 . S
C859 C860 1.376 . S
C860 H847 0.949 . S
C860 C859 1.376 . S
C860 C861 1.401 . S
C861 H848 0.899 1_556 S
C861 C860 1.401 . S
C861 C862 1.411 . S
C862 C861 1.411 . S
C862 C863 1.394 . S
C862 C868 1.465 . S
C863 C858 1.399 . S
C863 C862 1.394 . S
C863 C864 1.516 . S
C864 C863 1.516 . S
C864 C865 1.502 . S
C864 C866 1.561 . S
C864 C867 1.526 . S
C865 H849 0.959 . S
C865 H850 0.959 . S
C865 H851 0.961 . S
C865 C864 1.502 . S
C866 H852 0.960 . S
C866 H853 0.961 . S
C866 H854 0.959 . S
C866 C864 1.561 . S
C867 C864 1.526 . S
C867 C868 1.396 . S
C867 C872 1.390 . S
C868 C862 1.465 . S
C868 C867 1.396 . S
C868 C869 1.399 1_556 S
C869 H855 0.929 . S
C869 C868 1.399 1_554 S
C869 C870 1.385 . S
C870 H856 0.931 . S
C870 C869 1.385 . S
C870 C871 1.389 1_554 S
C871 C870 1.389 1_556 S
C871 C872 1.387 . S
C872 H857 0.930 . S
C872 C867 1.390 . S
C872 C871 1.387 . S
H873 C885 0.930 . S
H874 C887 0.930 . S
H875 C888 0.930 . S
H876 C892 0.959 . S
H877 C892 0.959 . S
H878 C892 0.961 . S
H879 C893 0.960 . S
H880 C893 0.961 . S
H881 C893 0.959 . S
H882 C896 0.929 . S
H883 C897 0.931 . S
H884 C899 0.930 . S
C885 H873 0.930 . S
C885 C886 1.399 . S
C885 C890 1.399 . S
C886 C885 1.399 . S
C886 C887 1.376 1_556 S
C887 H874 0.930 . S
C887 C886 1.376 1_554 S
C887 C888 1.388 . S
C888 H875 0.930 . S
C888 C887 1.388 . S
C888 C889 1.390 1_554 S
C889 C888 1.390 1_556 S
C889 C890 1.394 . S
C889 C895 1.465 . S
C890 C885 1.399 . S
C890 C889 1.394 . S
C890 C891 1.516 . S
C891 C890 1.516 . S
C891 C892 1.502 . S
C891 C893 1.561 . S
C891 C894 1.526 . S
C892 H876 0.959 . S
C892 H877 0.959 . S
C892 H878 0.961 . S
C892 C891 1.502 . S
C893 H879 0.960 . S
C893 H880 0.961 . S
C893 H881 0.959 . S
C893 C891 1.561 . S
C894 C891 1.526 . S
C894 C895 1.396 . S
C894 C899 1.390 . S
C895 C889 1.465 . S
C895 C894 1.396 . S
C895 C896 1.399 1_556 S
C896 H882 0.929 . S
C896 C895 1.399 1_554 S
C896 C897 1.385 . S
C897 H883 0.931 . S
C897 C896 1.385 . S
C897 C898 1.389 1_554 S
C898 C897 1.389 1_556 S
C898 C899 1.387 . S
C899 H884 0.930 . S
C899 C894 1.390 . S
C899 C898 1.387 . S
H900 C912 0.930 1_554 S
H901 C914 0.930 . S
H902 C915 0.930 . S
H903 C919 0.959 . S
H904 C919 0.959 . S
H905 C919 0.961 . S
H906 C920 0.960 . S
H907 C920 0.961 . S
H908 C920 0.959 . S
H909 C923 0.929 . S
H910 C924 0.931 . S
H911 C926 0.930 . S
C912 H900 0.930 1_556 S
C912 C913 1.399 . S
C912 C917 1.399 . S
C913 C912 1.399 . S
C913 C914 1.376 . S
C914 H901 0.930 . S
C914 C913 1.376 . S
C914 C915 1.388 . S
C915 H902 0.930 . S
C915 C914 1.388 . S
C915 C916 1.390 . S
C916 C915 1.390 . S
C916 C917 1.394 . S
C916 C922 1.465 . S
C917 C912 1.399 . S
C917 C916 1.394 . S
C917 C918 1.516 1_556 S
C918 C917 1.516 1_554 S
C918 C919 1.502 . S
C918 C920 1.561 . S
C918 C921 1.527 1_554 S
C919 H903 0.959 . S
C919 H904 0.959 . S
C919 H905 0.961 . S
C919 C918 1.502 . S
C920 H906 0.960 . S
C920 H907 0.961 . S
C920 H908 0.959 . S
C920 C918 1.561 . S
C921 C918 1.527 1_556 S
C921 C922 1.395 . S
C921 C926 1.390 1_556 S
C922 C916 1.465 . S
C922 C921 1.395 . S
C922 C923 1.399 . S
C923 H909 0.929 . S
C923 C922 1.399 . S
C923 C924 1.385 . S
C924 H910 0.931 . S
C924 C923 1.385 . S
C924 C925 1.389 . S
C925 C924 1.389 . S
C925 C926 1.387 1_556 S
C926 H911 0.930 . S
C926 C921 1.390 1_554 S
C926 C925 1.387 1_554 S
H927 C939 0.930 . S
H928 C941 0.930 . S
H929 C942 0.930 . S
H930 C946 0.959 . S
H931 C946 0.959 . S
H932 C946 0.961 . S
H933 C947 0.960 . S
H934 C947 0.961 . S
H935 C947 0.959 . S
H936 C950 0.929 . S
H937 C951 0.931 . S
H938 C953 0.930 . S
C939 H927 0.930 . S
C939 C940 1.399 . S
C939 C944 1.399 . S
C940 C939 1.399 . S
C940 C941 1.376 . S
C941 H928 0.930 . S
C941 C940 1.376 . S
C941 C942 1.388 . S
C942 H929 0.930 . S
C942 C941 1.388 . S
C942 C943 1.390 . S
C943 C942 1.390 . S
C943 C944 1.394 . S
C943 C949 1.465 . S
C944 C939 1.399 . S
C944 C943 1.394 . S
C944 C945 1.516 . S
C945 C944 1.516 . S
C945 C946 1.502 1_556 S
C945 C947 1.561 . S
C945 C948 1.526 . S
C946 H930 0.959 . S
C946 H931 0.959 . S
C946 H932 0.961 . S
C946 C945 1.502 1_554 S
C947 H933 0.960 . S
C947 H934 0.961 . S
C947 H935 0.959 . S
C947 C945 1.561 . S
C948 C945 1.526 . S
C948 C949 1.396 . S
C948 C953 1.390 . S
C949 C943 1.465 . S
C949 C948 1.396 . S
C949 C950 1.399 . S
C950 H936 0.929 . S
C950 C949 1.399 . S
C950 C951 1.385 . S
C951 H937 0.931 . S
C951 C950 1.385 . S
C951 C952 1.389 . S
C952 C951 1.389 . S
C952 C953 1.387 . S
C953 H938 0.930 . S
C953 C948 1.390 . S
C953 C952 1.387 . S
H954 C966 0.930 1_554 S
H955 C968 0.930 . S
H956 C969 0.930 . S
H957 C973 0.959 . S
H958 C973 0.959 . S
H959 C973 0.961 . S
H960 C974 0.960 . S
H961 C974 0.961 . S
H962 C974 0.959 . S
H963 C977 0.929 . S
H964 C978 0.931 . S
H965 C980 0.930 . S
C966 H954 0.930 1_556 S
C966 C967 1.399 . S
C966 C971 1.399 . S
C967 C966 1.399 . S
C967 C968 1.376 . S
C968 H955 0.930 . S
C968 C967 1.376 . S
C968 C969 1.388 . S
C969 H956 0.930 . S
C969 C968 1.388 . S
C969 C970 1.390 . S
C970 C969 1.390 . S
C970 C971 1.394 . S
C970 C976 1.465 . S
C971 C966 1.399 . S
C971 C970 1.394 . S
C971 C972 1.516 1_556 S
C972 C971 1.516 1_554 S
C972 C973 1.502 . S
C972 C974 1.561 . S
C972 C975 1.548 . S
C973 H957 0.959 . S
C973 H958 0.959 . S
C973 H959 0.961 . S
C973 C972 1.502 . S
C974 H960 0.960 . S
C974 H961 0.961 . S
C974 H962 0.959 . S
C974 C972 1.561 . S
C975 C972 1.548 . S
C975 C976 1.353 1_554 S
C975 C980 1.406 . S
C976 C970 1.465 . S
C976 C975 1.353 1_556 S
C976 C977 1.399 . S
C977 H963 0.929 . S
C977 C976 1.399 . S
C977 C978 1.385 . S
C978 H964 0.931 . S
C978 C977 1.385 . S
C978 C979 1.389 . S
C979 C978 1.389 . S
C979 C980 1.387 1_556 S
C980 H965 0.930 . S
C980 C975 1.406 . S
C980 C979 1.387 1_554 S
H981 C993 0.930 . S
H982 C995 0.930 . S
H983 C996 0.930 . S
H984 C1000 0.959 . S
H985 C1000 0.959 . S
H986 C1000 0.961 . S
H987 C1001 0.960 . S
H988 C1001 0.961 . S
H989 C1001 0.959 . S
H990 C1004 0.929 . S
H991 C1005 0.931 . S
H992 C1007 0.930 . S
C993 H981 0.930 . S
C993 C994 1.399 . S
C993 C998 1.399 . S
C994 C993 1.399 . S
C994 C995 1.376 1_556 S
C995 H982 0.930 . S
C995 C994 1.376 1_554 S
C995 C996 1.388 . S
C996 H983 0.930 . S
C996 C995 1.388 . S
C996 C997 1.390 1_554 S
C997 C996 1.390 1_556 S
C997 C998 1.394 . S
C997 C1003 1.466 1_556 S
C998 C993 1.399 . S
C998 C997 1.394 . S
C998 C999 1.516 . S
C999 C998 1.516 . S
C999 C1000 1.502 . S
C999 C1001 1.561 . S
C999 C1002 1.526 . S
C1000 H984 0.959 . S
C1000 H985 0.959 . S
C1000 H986 0.961 . S
C1000 C999 1.502 . S
C1001 H987 0.960 . S
C1001 H988 0.961 . S
C1001 H989 0.959 . S
C1001 C999 1.561 . S
C1002 C999 1.526 . S
C1002 C1003 1.398 1_556 S
C1002 C1007 1.390 . S
C1003 C997 1.466 1_554 S
C1003 C1002 1.398 1_554 S
C1003 C1004 1.397 . S
C1004 H990 0.929 . S
C1004 C1003 1.397 . S
C1004 C1005 1.385 . S
C1005 H991 0.931 . S
C1005 C1004 1.385 . S
C1005 C1006 1.357 1_554 S
C1006 C1005 1.357 1_556 S
C1006 C1007 1.419 . S
C1007 H992 0.930 . S
C1007 C1002 1.390 . S
C1007 C1006 1.419 . S
H1008 C1020 0.930 . S
H1009 C1022 0.930 . S
H1010 C1023 0.930 . S
H1011 C1027 0.959 . S
H1012 C1027 0.959 . S
H1013 C1027 0.961 . S
H1014 C1028 0.960 . S
H1015 C1028 0.961 . S
H1016 C1028 0.959 . S
H1017 C1031 0.929 . S
H1018 C1032 0.931 . S
H1019 C1034 0.930 1_556 S
C1020 H1008 0.930 . S
C1020 C1021 1.399 . S
C1020 C1025 1.399 . S
C1021 C1020 1.399 . S
C1021 C1022 1.376 . S
C1022 H1009 0.930 . S
C1022 C1021 1.376 . S
C1022 C1023 1.388 . S
C1023 H1010 0.930 . S
C1023 C1022 1.388 . S
C1023 C1024 1.390 . S
C1024 C1023 1.390 . S
C1024 C1025 1.394 . S
C1024 C1030 1.465 . S
C1025 C1020 1.399 . S
C1025 C1024 1.394 . S
C1025 C1026 1.516 . S
C1026 C1025 1.516 . S
C1026 C1027 1.502 1_554 S
C1026 C1028 1.561 . S
C1026 C1029 1.526 . S
C1027 H1011 0.959 . S
C1027 H1012 0.959 . S
C1027 H1013 0.961 . S
C1027 C1026 1.502 1_556 S
C1028 H1014 0.960 . S
C1028 H1015 0.961 . S
C1028 H1016 0.959 . S
C1028 C1026 1.561 . S
C1029 C1026 1.526 . S
C1029 C1030 1.396 . S
C1029 C1034 1.390 . S
C1030 C1024 1.465 . S
C1030 C1029 1.396 . S
C1030 C1031 1.399 . S
C1031 H1017 0.929 . S
C1031 C1030 1.399 . S
C1031 C1032 1.385 . S
C1032 H1018 0.931 . S
C1032 C1031 1.385 . S
C1032 C1033 1.389 . S
C1033 C1032 1.389 . S
C1033 C1034 1.387 . S
C1034 H1019 0.930 1_554 S
C1034 C1029 1.390 . S
C1034 C1033 1.387 . S
H1035 C1047 0.930 . S
H1036 C1049 0.930 . S
H1037 C1050 0.930 . S
H1038 C1054 0.959 1_554 S
H1039 C1054 0.959 . S
H1040 C1054 0.961 . S
H1041 C1055 0.960 . S
H1042 C1055 0.961 . S
H1043 C1055 0.959 . S
H1044 C1058 0.929 . S
H1045 C1059 0.931 . S
H1046 C1061 0.930 1_556 S
C1047 H1035 0.930 . S
C1047 C1048 1.399 . S
C1047 C1052 1.399 . S
C1048 C1047 1.399 . S
C1048 C1049 1.376 . S
C1049 H1036 0.930 . S
C1049 C1048 1.376 . S
C1049 C1050 1.388 . S
C1050 H1037 0.930 . S
C1050 C1049 1.388 . S
C1050 C1051 1.390 . S
C1051 C1050 1.390 . S
C1051 C1052 1.394 . S
C1051 C1057 1.465 . S
C1052 C1047 1.399 . S
C1052 C1051 1.394 . S
C1052 C1053 1.483 1_554 S
C1053 C1052 1.483 1_556 S
C1053 C1054 1.509 . S
C1053 C1055 1.606 . S
C1053 C1056 1.507 1_556 S
C1054 H1038 0.959 1_556 S
C1054 H1039 0.959 . S
C1054 H1040 0.961 . S
C1054 C1053 1.509 . S
C1055 H1041 0.960 . S
C1055 H1042 0.961 . S
C1055 H1043 0.959 . S
C1055 C1053 1.606 . S
C1056 C1053 1.507 1_554 S
C1056 C1057 1.396 . S
C1056 C1061 1.390 . S
C1057 C1051 1.465 . S
C1057 C1056 1.396 . S
C1057 C1058 1.399 . S
C1058 H1044 0.929 . S
C1058 C1057 1.399 . S
C1058 C1059 1.385 . S
C1059 H1045 0.931 . S
C1059 C1058 1.385 . S
C1059 C1060 1.389 . S
C1060 C1059 1.389 . S
C1060 C1061 1.387 . S
C1061 H1046 0.930 1_554 S
C1061 C1056 1.390 . S
C1061 C1060 1.387 . S
H1062 C1074 0.930 . S
H1063 C1076 0.930 1_556 S
H1064 C1077 0.930 . S
H1065 C1081 0.959 . S
H1066 C1081 0.959 . S
H1067 C1081 0.961 . S
H1068 C1082 0.960 . S
H1069 C1082 0.961 . S
H1070 C1082 0.959 . S
H1071 C1085 0.929 . S
H1072 C1086 0.931 . S
H1073 C1088 0.930 . S
C1074 H1062 0.930 . S
C1074 C1075 1.399 . S
C1074 C1079 1.399 . S
C1075 C1074 1.399 . S
C1075 C1076 1.376 . S
C1076 H1063 0.930 1_554 S
C1076 C1075 1.376 . S
C1076 C1077 1.388 1_554 S
C1077 H1064 0.930 . S
C1077 C1076 1.388 1_556 S
C1077 C1078 1.390 1_556 S
C1078 C1077 1.390 1_554 S
C1078 C1079 1.394 . S
C1078 C1084 1.465 . S
C1079 C1074 1.399 . S
C1079 C1078 1.394 . S
C1079 C1080 1.516 . S
C1080 C1079 1.516 . S
C1080 C1081 1.502 . S
C1080 C1082 1.561 . S
C1080 C1083 1.526 . S
C1081 H1065 0.959 . S
C1081 H1066 0.959 . S
C1081 H1067 0.961 . S
C1081 C1080 1.502 . S
C1082 H1068 0.960 . S
C1082 H1069 0.961 . S
C1082 H1070 0.959 . S
C1082 C1080 1.561 . S
C1083 C1080 1.526 . S
C1083 C1084 1.396 . S
C1083 C1088 1.390 . S
C1084 C1078 1.465 . S
C1084 C1083 1.396 . S
C1084 C1085 1.399 1_554 S
C1085 H1071 0.929 . S
C1085 C1084 1.399 1_556 S
C1085 C1086 1.385 . S
C1086 H1072 0.931 . S
C1086 C1085 1.385 . S
C1086 C1087 1.389 1_556 S
C1087 C1086 1.389 1_554 S
C1087 C1088 1.387 . S
C1088 H1073 0.930 . S
C1088 C1083 1.390 . S
C1088 C1087 1.387 . S
H1089 C1101 0.930 . S
H1090 C1103 0.930 . S
H1091 C1104 0.930 . S
H1092 C1108 0.959 . S
H1093 C1108 0.959 . S
H1094 C1108 0.961 . S
H1095 C1109 0.960 . S
H1096 C1109 0.961 . S
H1097 C1109 0.959 . S
H1098 C1112 0.929 . S
H1099 C1113 0.931 . S
H1100 C1115 0.930 . S
C1101 H1089 0.930 . S
C1101 C1102 1.399 . S
C1101 C1106 1.399 1_655 S
C1102 C1101 1.399 . S
C1102 C1103 1.376 . S
C1103 H1090 0.930 . S
C1103 C1102 1.376 . S
C1103 C1104 1.388 1_655 S
C1104 H1091 0.930 . S
C1104 C1103 1.388 1_455 S
C1104 C1105 1.390 . S
C1105 C1104 1.390 . S
C1105 C1106 1.394 . S
C1105 C1111 1.465 . S
C1106 C1101 1.399 1_455 S
C1106 C1105 1.394 . S
C1106 C1107 1.516 . S
C1107 C1106 1.516 . S
C1107 C1108 1.502 . S
C1107 C1109 1.561 . S
C1107 C1110 1.526 . S
C1108 H1092 0.959 . S
C1108 H1093 0.959 . S
C1108 H1094 0.961 . S
C1108 C1107 1.502 . S
C1109 H1095 0.960 . S
C1109 H1096 0.961 . S
C1109 H1097 0.959 . S
C1109 C1107 1.561 . S
C1110 C1107 1.526 . S
C1110 C1111 1.396 . S
C1110 C1115 1.390 . S
C1111 C1105 1.465 . S
C1111 C1110 1.396 . S
C1111 C1112 1.399 . S
C1112 H1098 0.929 . S
C1112 C1111 1.399 . S
C1112 C1113 1.385 . S
C1113 H1099 0.931 . S
C1113 C1112 1.385 . S
C1113 C1114 1.389 . S
C1114 C1113 1.389 . S
C1114 C1115 1.387 . S
C1115 H1100 0.930 . S
C1115 C1110 1.390 . S
C1115 C1114 1.387 . S
H1116 C1128 0.930 . S
H1117 C1130 0.930 . S
H1118 C1131 0.930 . S
H1119 C1135 0.959 . S
H1120 C1135 0.959 . S
H1121 C1135 0.961 . S
H1122 C1136 0.960 . S
H1123 C1136 0.961 . S
H1124 C1136 0.959 . S
H1125 C1139 0.929 . S
H1126 C1140 0.931 . S
H1127 C1142 0.930 . S
C1128 H1116 0.930 . S
C1128 C1129 1.399 . S
C1128 C1133 1.399 . S
C1129 C1128 1.399 . S
C1129 C1130 1.376 . S
C1130 H1117 0.930 . S
C1130 C1129 1.376 . S
C1130 C1131 1.388 . S
C1131 H1118 0.930 . S
C1131 C1130 1.388 . S
C1131 C1132 1.390 . S
C1132 C1131 1.390 . S
C1132 C1133 1.394 . S
C1132 C1138 1.465 . S
C1133 C1128 1.399 . S
C1133 C1132 1.394 . S
C1133 C1134 1.516 . S
C1134 C1133 1.516 . S
C1134 C1135 1.502 . S
C1134 C1136 1.561 . S
C1134 C1137 1.526 . S
C1135 H1119 0.959 . S
C1135 H1120 0.959 . S
C1135 H1121 0.961 . S
C1135 C1134 1.502 . S
C1136 H1122 0.960 . S
C1136 H1123 0.961 . S
C1136 H1124 0.959 . S
C1136 C1134 1.561 . S
C1137 C1134 1.526 . S
C1137 C1138 1.396 . S
C1137 C1142 1.390 . S
C1138 C1132 1.465 . S
C1138 C1137 1.396 . S
C1138 C1139 1.399 . S
C1139 H1125 0.929 . S
C1139 C1138 1.399 . S
C1139 C1140 1.385 . S
C1140 H1126 0.931 . S
C1140 C1139 1.385 . S
C1140 C1141 1.389 . S
C1141 C1140 1.389 . S
C1141 C1142 1.387 . S
C1142 H1127 0.930 . S
C1142 C1137 1.390 . S
C1142 C1141 1.387 . S
H1143 C1155 0.930 . S
H1144 C1157 0.930 . S
H1145 C1158 0.930 . S
H1146 C1162 0.959 . S
H1147 C1162 0.959 . S
H1148 C1162 0.961 . S
H1149 C1163 0.960 . S
H1150 C1163 0.961 . S
H1151 C1163 0.959 . S
H1152 C1166 0.929 . S
H1153 C1167 0.931 . S
H1154 C1169 0.930 . S
C1155 H1143 0.930 . S
C1155 C1156 1.399 . S
C1155 C1160 1.399 1_545 S
C1156 C1155 1.399 . S
C1156 C1157 1.376 . S
C1157 H1144 0.930 . S
C1157 C1156 1.376 . S
C1157 C1158 1.388 . S
C1158 H1145 0.930 . S
C1158 C1157 1.388 . S
C1158 C1159 1.390 1_545 S
C1159 C1158 1.390 1_565 S
C1159 C1160 1.394 . S
C1159 C1165 1.465 . S
C1160 C1155 1.399 1_565 S
C1160 C1159 1.394 . S
C1160 C1161 1.516 . S
C1161 C1160 1.516 . S
C1161 C1162 1.502 . S
C1161 C1163 1.561 . S
C1161 C1164 1.526 . S
C1162 H1146 0.959 . S
C1162 H1147 0.959 . S
C1162 H1148 0.961 . S
C1162 C1161 1.502 . S
C1163 H1149 0.960 . S
C1163 H1150 0.961 . S
C1163 H1151 0.959 . S
C1163 C1161 1.561 . S
C1164 C1161 1.526 . S
C1164 C1165 1.396 . S
C1164 C1169 1.390 . S
C1165 C1159 1.465 . S
C1165 C1164 1.396 . S
C1165 C1166 1.399 . S
C1166 H1152 0.929 . S
C1166 C1165 1.399 . S
C1166 C1167 1.385 . S
C1167 H1153 0.931 . S
C1167 C1166 1.385 . S
C1167 C1168 1.389 . S
C1168 C1167 1.389 . S
C1168 C1169 1.387 . S
C1169 H1154 0.930 . S
C1169 C1164 1.390 . S
C1169 C1168 1.387 . S
H1170 C1182 0.930 . S
H1171 C1184 0.930 . S
H1172 C1185 0.930 . S
H1173 C1189 0.959 . S
H1174 C1189 0.959 . S
H1175 C1189 0.961 . S
H1176 C1190 0.960 . S
H1177 C1190 0.961 . S
H1178 C1190 0.959 . S
H1179 C1193 0.929 . S
H1180 C1194 0.931 . S
H1181 C1196 0.930 . S
C1182 H1170 0.930 . S
C1182 C1183 1.399 . S
C1182 C1187 1.399 . S
C1183 C1182 1.399 . S
C1183 C1184 1.376 . S
C1184 H1171 0.930 . S
C1184 C1183 1.376 . S
C1184 C1185 1.388 . S
C1185 H1172 0.930 . S
C1185 C1184 1.388 . S
C1185 C1186 1.390 . S
C1186 C1185 1.390 . S
C1186 C1187 1.394 . S
C1186 C1192 1.465 . S
C1187 C1182 1.399 . S
C1187 C1186 1.394 . S
C1187 C1188 1.516 . S
C1188 C1187 1.516 . S
C1188 C1189 1.502 . S
C1188 C1190 1.561 . S
C1188 C1191 1.526 . S
C1189 H1173 0.959 . S
C1189 H1174 0.959 . S
C1189 H1175 0.961 . S
C1189 C1188 1.502 . S
C1190 H1176 0.960 . S
C1190 H1177 0.961 . S
C1190 H1178 0.959 . S
C1190 C1188 1.561 . S
C1191 C1188 1.526 . S
C1191 C1192 1.396 . S
C1191 C1196 1.390 . S
C1192 C1186 1.465 . S
C1192 C1191 1.396 . S
C1192 C1193 1.399 . S
C1193 H1179 0.929 . S
C1193 C1192 1.399 . S
C1193 C1194 1.385 . S
C1194 H1180 0.931 . S
C1194 C1193 1.385 . S
C1194 C1195 1.389 . S
C1195 C1194 1.389 . S
C1195 C1196 1.387 . S
C1196 H1181 0.930 . S
C1196 C1191 1.390 . S
C1196 C1195 1.387 . S
H1197 C1209 0.930 . S
H1198 C1211 0.930 . S
H1199 C1212 0.930 . S
H1200 C1216 0.959 . S
H1201 C1216 0.959 . S
H1202 C1216 0.961 . S
H1203 C1217 0.960 . S
H1204 C1217 0.961 . S
H1205 C1217 0.959 . S
H1206 C1220 0.929 . S
H1207 C1221 0.931 . S
H1208 C1223 0.930 . S
C1209 H1197 0.930 . S
C1209 C1210 1.399 . S
C1209 C1214 1.399 . S
C1210 C1209 1.399 . S
C1210 C1211 1.376 . S
C1211 H1198 0.930 . S
C1211 C1210 1.376 . S
C1211 C1212 1.388 . S
C1212 H1199 0.930 . S
C1212 C1211 1.388 . S
C1212 C1213 1.390 . S
C1213 C1212 1.390 . S
C1213 C1214 1.394 . S
C1213 C1219 1.465 . S
C1214 C1209 1.399 . S
C1214 C1213 1.394 . S
C1214 C1215 1.516 . S
C1215 C1214 1.516 . S
C1215 C1216 1.502 . S
C1215 C1217 1.561 . S
C1215 C1218 1.526 . S
C1216 H1200 0.959 . S
C1216 H1201 0.959 . S
C1216 H1202 0.961 . S
C1216 C1215 1.502 . S
C1217 H1203 0.960 . S
C1217 H1204 0.961 . S
C1217 H1205 0.959 . S
C1217 C1215 1.561 . S
C1218 C1215 1.526 . S
C1218 C1219 1.396 . S
C1218 C1223 1.390 . S
C1219 C1213 1.465 . S
C1219 C1218 1.396 . S
C1219 C1220 1.399 . S
C1220 H1206 0.929 . S
C1220 C1219 1.399 . S
C1220 C1221 1.385 . S
C1221 H1207 0.931 . S
C1221 C1220 1.385 . S
C1221 C1222 1.389 . S
C1222 C1221 1.389 . S
C1222 C1223 1.387 . S
C1223 H1208 0.930 . S
C1223 C1218 1.390 . S
C1223 C1222 1.387 . S
H1224 C1236 0.930 . S
H1225 C1238 0.930 . S
H1226 C1239 0.930 . S
H1227 C1243 0.959 . S
H1228 C1243 0.959 . S
H1229 C1243 0.961 . S
H1230 C1244 0.960 . S
H1231 C1244 0.961 . S
H1232 C1244 0.959 . S
H1233 C1247 0.929 . S
H1234 C1248 0.931 . S
H1235 C1250 0.930 . S
C1236 H1224 0.930 . S
C1236 C1237 1.399 . S
C1236 C1241 1.399 . S
C1237 C1236 1.399 . S
C1237 C1238 1.376 . S
C1238 H1225 0.930 . S
C1238 C1237 1.376 . S
C1238 C1239 1.388 . S
C1239 H1226 0.930 . S
C1239 C1238 1.388 . S
C1239 C1240 1.390 . S
C1240 C1239 1.390 . S
C1240 C1241 1.394 . S
C1240 C1246 1.465 . S
C1241 C1236 1.399 . S
C1241 C1240 1.394 . S
C1241 C1242 1.516 . S
C1242 C1241 1.516 . S
C1242 C1243 1.502 . S
C1242 C1244 1.561 . S
C1242 C1245 1.526 . S
C1243 H1227 0.959 . S
C1243 H1228 0.959 . S
C1243 H1229 0.961 . S
C1243 C1242 1.502 . S
C1244 H1230 0.960 . S
C1244 H1231 0.961 . S
C1244 H1232 0.959 . S
C1244 C1242 1.561 . S
C1245 C1242 1.526 . S
C1245 C1246 1.396 . S
C1245 C1250 1.390 . S
C1246 C1240 1.465 . S
C1246 C1245 1.396 . S
C1246 C1247 1.399 . S
C1247 H1233 0.929 . S
C1247 C1246 1.399 . S
C1247 C1248 1.385 . S
C1248 H1234 0.931 . S
C1248 C1247 1.385 . S
C1248 C1249 1.389 . S
C1249 C1248 1.389 . S
C1249 C1250 1.387 . S
C1250 H1235 0.930 . S
C1250 C1245 1.390 . S
C1250 C1249 1.387 . S
H1251 C1263 0.930 . S
H1252 C1265 0.930 . S
H1253 C1266 0.930 . S
H1254 C1270 0.959 . S
H1255 C1270 0.959 . S
H1256 C1270 0.961 . S
H1257 C1271 0.960 . S
H1258 C1271 0.961 . S
H1259 C1271 0.959 . S
H1260 C1274 0.929 . S
H1261 C1275 0.931 . S
H1262 C1277 0.930 . S
C1263 H1251 0.930 . S
C1263 C1264 1.399 . S
C1263 C1268 1.399 . S
C1264 C1263 1.399 . S
C1264 C1265 1.376 . S
C1265 H1252 0.930 . S
C1265 C1264 1.376 . S
C1265 C1266 1.388 . S
C1266 H1253 0.930 . S
C1266 C1265 1.388 . S
C1266 C1267 1.390 . S
C1267 C1266 1.390 . S
C1267 C1268 1.394 . S
C1267 C1273 1.465 . S
C1268 C1263 1.399 . S
C1268 C1267 1.394 . S
C1268 C1269 1.516 . S
C1269 C1268 1.516 . S
C1269 C1270 1.502 . S
C1269 C1271 1.561 . S
C1269 C1272 1.526 . S
C1270 H1254 0.959 . S
C1270 H1255 0.959 . S
C1270 H1256 0.961 . S
C1270 C1269 1.502 . S
C1271 H1257 0.960 . S
C1271 H1258 0.961 . S
C1271 H1259 0.959 . S
C1271 C1269 1.561 . S
C1272 C1269 1.526 . S
C1272 C1273 1.396 . S
C1272 C1277 1.390 . S
C1273 C1267 1.465 . S
C1273 C1272 1.396 . S
C1273 C1274 1.399 . S
C1274 H1260 0.929 . S
C1274 C1273 1.399 . S
C1274 C1275 1.385 . S
C1275 H1261 0.931 . S
C1275 C1274 1.385 . S
C1275 C1276 1.389 . S
C1276 C1275 1.389 . S
C1276 C1277 1.387 . S
C1277 H1262 0.930 . S
C1277 C1272 1.390 . S
C1277 C1276 1.387 . S
H1278 C1290 0.930 . S
H1279 C1292 0.930 . S
H1280 C1293 0.930 . S
H1281 C1297 0.959 . S
H1282 C1297 0.959 . S
H1283 C1297 0.961 . S
H1284 C1298 0.960 . S
H1285 C1298 0.961 . S
H1286 C1298 0.959 . S
H1287 C1301 0.929 . S
H1288 C1302 0.931 . S
H1289 C1304 0.930 . S
C1290 H1278 0.930 . S
C1290 C1291 1.399 . S
C1290 C1295 1.399 . S
C1291 C1290 1.399 . S
C1291 C1292 1.376 . S
C1292 H1279 0.930 . S
C1292 C1291 1.376 . S
C1292 C1293 1.388 . S
C1293 H1280 0.930 . S
C1293 C1292 1.388 . S
C1293 C1294 1.390 . S
C1294 C1293 1.390 . S
C1294 C1295 1.394 . S
C1294 C1300 1.465 . S
C1295 C1290 1.399 . S
C1295 C1294 1.394 . S
C1295 C1296 1.516 . S
C1296 C1295 1.516 . S
C1296 C1297 1.502 . S
C1296 C1298 1.561 . S
C1296 C1299 1.526 . S
C1297 H1281 0.959 . S
C1297 H1282 0.959 . S
C1297 H1283 0.961 . S
C1297 C1296 1.502 . S
C1298 H1284 0.960 . S
C1298 H1285 0.961 . S
C1298 H1286 0.959 . S
C1298 C1296 1.561 . S
C1299 C1296 1.526 . S
C1299 C1300 1.396 . S
C1299 C1304 1.390 . S
C1300 C1294 1.465 . S
C1300 C1299 1.396 . S
C1300 C1301 1.399 . S
C1301 H1287 0.929 . S
C1301 C1300 1.399 . S
C1301 C1302 1.385 . S
C1302 H1288 0.931 . S
C1302 C1301 1.385 . S
C1302 C1303 1.389 . S
C1303 C1302 1.389 . S
C1303 C1304 1.387 . S
C1304 H1289 0.930 . S
C1304 C1299 1.390 . S
C1304 C1303 1.387 . S
H1305 C1317 0.930 . S
H1306 C1319 0.930 . S
H1307 C1320 0.930 . S
H1308 C1324 0.959 . S
H1309 C1324 0.959 . S
H1310 C1324 0.961 . S
H1311 C1325 0.960 . S
H1312 C1325 0.961 . S
H1313 C1325 0.959 . S
H1314 C1328 0.929 . S
H1315 C1329 0.931 . S
H1316 C1331 0.930 . S
C1317 H1305 0.930 . S
C1317 C1318 1.399 . S
C1317 C1322 1.399 . S
C1318 C1317 1.399 . S
C1318 C1319 1.376 . S
C1319 H1306 0.930 . S
C1319 C1318 1.376 . S
C1319 C1320 1.388 . S
C1320 H1307 0.930 . S
C1320 C1319 1.388 . S
C1320 C1321 1.390 . S
C1321 C1320 1.390 . S
C1321 C1322 1.394 . S
C1321 C1327 1.465 . S
C1322 C1317 1.399 . S
C1322 C1321 1.394 . S
C1322 C1323 1.516 . S
C1323 C1322 1.516 . S
C1323 C1324 1.502 . S
C1323 C1325 1.561 . S
C1323 C1326 1.526 . S
C1324 H1308 0.959 . S
C1324 H1309 0.959 . S
C1324 H1310 0.961 . S
C1324 C1323 1.502 . S
C1325 H1311 0.960 . S
C1325 H1312 0.961 . S
C1325 H1313 0.959 . S
C1325 C1323 1.561 . S
C1326 C1323 1.526 . S
C1326 C1327 1.396 . S
C1326 C1331 1.390 . S
C1327 C1321 1.465 . S
C1327 C1326 1.396 . S
C1327 C1328 1.399 . S
C1328 H1314 0.929 . S
C1328 C1327 1.399 . S
C1328 C1329 1.385 . S
C1329 H1315 0.931 . S
C1329 C1328 1.385 . S
C1329 C1330 1.389 . S
C1330 C1329 1.389 . S
C1330 C1331 1.387 . S
C1331 H1316 0.930 . S
C1331 C1326 1.390 . S
C1331 C1330 1.387 . S
H1332 C1344 0.930 . S
H1333 C1346 0.930 . S
H1334 C1347 0.930 . S
H1335 C1351 0.959 . S
H1336 C1351 0.959 . S
H1337 C1351 0.961 . S
H1338 C1352 0.960 . S
H1339 C1352 0.961 . S
H1340 C1352 0.959 . S
H1341 C1355 0.929 . S
H1342 C1356 0.931 . S
H1343 C1358 0.930 . S
C1344 H1332 0.930 . S
C1344 C1345 1.399 . S
C1344 C1349 1.399 1_545 S
C1345 C1344 1.399 . S
C1345 C1346 1.376 . S
C1346 H1333 0.930 . S
C1346 C1345 1.376 . S
C1346 C1347 1.388 . S
C1347 H1334 0.930 . S
C1347 C1346 1.388 . S
C1347 C1348 1.390 1_545 S
C1348 C1347 1.390 1_565 S
C1348 C1349 1.394 . S
C1348 C1354 1.465 . S
C1349 C1344 1.399 1_565 S
C1349 C1348 1.394 . S
C1349 C1350 1.516 . S
C1350 C1349 1.516 . S
C1350 C1351 1.502 . S
C1350 C1352 1.561 . S
C1350 C1353 1.526 . S
C1351 H1335 0.959 . S
C1351 H1336 0.959 . S
C1351 H1337 0.961 . S
C1351 C1350 1.502 . S
C1352 H1338 0.960 . S
C1352 H1339 0.961 . S
C1352 H1340 0.959 . S
C1352 C1350 1.561 . S
C1353 C1350 1.526 . S
C1353 C1354 1.396 . S
C1353 C1358 1.390 . S
C1354 C1348 1.465 . S
C1354 C1353 1.396 . S
C1354 C1355 1.399 . S
C1355 H1341 0.929 . S
C1355 C1354 1.399 . S
C1355 C1356 1.385 . S
C1356 H1342 0.931 . S
C1356 C1355 1.385 . S
C1356 C1357 1.389 . S
C1357 C1356 1.389 . S
C1357 C1358 1.387 . S
C1358 H1343 0.930 . S
C1358 C1353 1.390 . S
C1358 C1357 1.387 . S
H1359 C1371 0.930 . S
H1360 C1373 0.930 . S
H1361 C1374 0.930 . S
H1362 C1378 0.959 . S
H1363 C1378 0.959 . S
H1364 C1378 0.961 . S
H1365 C1379 0.960 . S
H1366 C1379 0.961 . S
H1367 C1379 0.959 . S
H1368 C1382 0.929 . S
H1369 C1383 0.931 . S
H1370 C1385 0.930 . S
C1371 H1359 0.930 . S
C1371 C1372 1.399 . S
C1371 C1376 1.399 1_655 S
C1372 C1371 1.399 . S
C1372 C1373 1.376 . S
C1373 H1360 0.930 . S
C1373 C1372 1.376 . S
C1373 C1374 1.388 . S
C1374 H1361 0.930 . S
C1374 C1373 1.388 . S
C1374 C1375 1.390 1_655 S
C1375 C1374 1.390 1_455 S
C1375 C1376 1.394 . S
C1375 C1381 1.465 . S
C1376 C1371 1.399 1_455 S
C1376 C1375 1.394 . S
C1376 C1377 1.516 . S
C1377 C1376 1.516 . S
C1377 C1378 1.502 . S
C1377 C1379 1.561 . S
C1377 C1380 1.526 . S
C1378 H1362 0.959 . S
C1378 H1363 0.959 . S
C1378 H1364 0.961 . S
C1378 C1377 1.502 . S
C1379 H1365 0.960 . S
C1379 H1366 0.961 . S
C1379 H1367 0.959 . S
C1379 C1377 1.561 . S
C1380 C1377 1.526 . S
C1380 C1381 1.396 . S
C1380 C1385 1.390 . S
C1381 C1375 1.465 . S
C1381 C1380 1.396 . S
C1381 C1382 1.399 . S
C1382 H1368 0.929 . S
C1382 C1381 1.399 . S
C1382 C1383 1.385 . S
C1383 H1369 0.931 . S
C1383 C1382 1.385 . S
C1383 C1384 1.389 . S
C1384 C1383 1.389 . S
C1384 C1385 1.387 . S
C1385 H1370 0.930 . S
C1385 C1380 1.390 . S
C1385 C1384 1.387 . S
H1386 C1398 0.930 . S
H1387 C1400 0.930 . S
H1388 C1401 0.930 . S
H1389 C1405 0.959 . S
H1390 C1405 0.959 . S
H1391 C1405 0.961 . S
H1392 C1406 0.960 . S
H1393 C1406 0.961 . S
H1394 C1406 0.959 . S
H1395 C1409 0.929 . S
H1396 C1410 0.931 . S
H1397 C1412 0.930 . S
C1398 H1386 0.930 . S
C1398 C1399 1.399 . S
C1398 C1403 1.399 . S
C1399 C1398 1.399 . S
C1399 C1400 1.376 . S
C1400 H1387 0.930 . S
C1400 C1399 1.376 . S
C1400 C1401 1.388 . S
C1401 H1388 0.930 . S
C1401 C1400 1.388 . S
C1401 C1402 1.390 . S
C1402 C1401 1.390 . S
C1402 C1403 1.394 . S
C1402 C1408 1.465 . S
C1403 C1398 1.399 . S
C1403 C1402 1.394 . S
C1403 C1404 1.516 . S
C1404 C1403 1.516 . S
C1404 C1405 1.502 . S
C1404 C1406 1.561 . S
C1404 C1407 1.526 . S
C1405 H1389 0.959 . S
C1405 H1390 0.959 . S
C1405 H1391 0.961 . S
C1405 C1404 1.502 . S
C1406 H1392 0.960 . S
C1406 H1393 0.961 . S
C1406 H1394 0.959 . S
C1406 C1404 1.561 . S
C1407 C1404 1.526 . S
C1407 C1408 1.396 . S
C1407 C1412 1.390 . S
C1408 C1402 1.465 . S
C1408 C1407 1.396 . S
C1408 C1409 1.399 . S
C1409 H1395 0.929 . S
C1409 C1408 1.399 . S
C1409 C1410 1.385 . S
C1410 H1396 0.931 . S
C1410 C1409 1.385 . S
C1410 C1411 1.389 . S
C1411 C1410 1.389 . S
C1411 C1412 1.387 . S
C1412 H1397 0.930 . S
C1412 C1407 1.390 . S
C1412 C1411 1.387 . S
H1413 C1425 0.930 . S
H1414 C1427 0.930 . S
H1415 C1428 0.930 . S
H1416 C1432 0.959 . S
H1417 C1432 0.959 . S
H1418 C1432 0.961 . S
H1419 C1433 0.960 . S
H1420 C1433 0.961 . S
H1421 C1433 0.959 . S
H1422 C1436 0.929 . S
H1423 C1437 0.931 . S
H1424 C1439 0.930 . S
C1425 H1413 0.930 . S
C1425 C1426 1.399 . S
C1425 C1430 1.399 . S
C1426 C1425 1.399 . S
C1426 C1427 1.376 . S
C1427 H1414 0.930 . S
C1427 C1426 1.376 . S
C1427 C1428 1.388 . S
C1428 H1415 0.930 . S
C1428 C1427 1.388 . S
C1428 C1429 1.390 . S
C1429 C1428 1.390 . S
C1429 C1430 1.394 . S
C1429 C1435 1.465 . S
C1430 C1425 1.399 . S
C1430 C1429 1.394 . S
C1430 C1431 1.516 . S
C1431 C1430 1.516 . S
C1431 C1432 1.502 . S
C1431 C1433 1.561 . S
C1431 C1434 1.526 . S
C1432 H1416 0.959 . S
C1432 H1417 0.959 . S
C1432 H1418 0.961 . S
C1432 C1431 1.502 . S
C1433 H1419 0.960 . S
C1433 H1420 0.961 . S
C1433 H1421 0.959 . S
C1433 C1431 1.561 . S
C1434 C1431 1.526 . S
C1434 C1435 1.396 . S
C1434 C1439 1.390 . S
C1435 C1429 1.465 . S
C1435 C1434 1.396 . S
C1435 C1436 1.399 . S
C1436 H1422 0.929 . S
C1436 C1435 1.399 . S
C1436 C1437 1.385 . S
C1437 H1423 0.931 . S
C1437 C1436 1.385 . S
C1437 C1438 1.389 . S
C1438 C1437 1.389 . S
C1438 C1439 1.387 . S
C1439 H1424 0.930 . S
C1439 C1434 1.390 . S
C1439 C1438 1.387 . S
H1440 C1452 0.930 . S
H1441 C1454 0.930 . S
H1442 C1455 0.930 . S
H1443 C1459 0.959 . S
H1444 C1459 0.959 . S
H1445 C1459 0.961 . S
H1446 C1460 0.960 . S
H1447 C1460 0.961 . S
H1448 C1460 0.959 . S
H1449 C1463 0.929 . S
H1450 C1464 0.931 . S
H1451 C1466 0.930 . S
C1452 H1440 0.930 . S
C1452 C1453 1.399 . S
C1452 C1457 1.399 . S
C1453 C1452 1.399 . S
C1453 C1454 1.376 . S
C1454 H1441 0.930 . S
C1454 C1453 1.376 . S
C1454 C1455 1.388 . S
C1455 H1442 0.930 . S
C1455 C1454 1.388 . S
C1455 C1456 1.390 . S
C1456 C1455 1.390 . S
C1456 C1457 1.394 . S
C1456 C1462 1.465 . S
C1457 C1452 1.399 . S
C1457 C1456 1.394 . S
C1457 C1458 1.516 . S
C1458 C1457 1.516 . S
C1458 C1459 1.502 . S
C1458 C1460 1.561 . S
C1458 C1461 1.526 . S
C1459 H1443 0.959 . S
C1459 H1444 0.959 . S
C1459 H1445 0.961 . S
C1459 C1458 1.502 . S
C1460 H1446 0.960 . S
C1460 H1447 0.961 . S
C1460 H1448 0.959 . S
C1460 C1458 1.561 . S
C1461 C1458 1.526 . S
C1461 C1462 1.396 . S
C1461 C1466 1.390 . S
C1462 C1456 1.465 . S
C1462 C1461 1.396 . S
C1462 C1463 1.399 . S
C1463 H1449 0.929 . S
C1463 C1462 1.399 . S
C1463 C1464 1.385 . S
C1464 H1450 0.931 . S
C1464 C1463 1.385 . S
C1464 C1465 1.389 . S
C1465 C1464 1.389 . S
C1465 C1466 1.387 . S
C1466 H1451 0.930 . S
C1466 C1461 1.390 . S
C1466 C1465 1.387 . S
H1467 C1479 0.930 . S
H1468 C1481 0.930 . S
H1469 C1482 0.930 . S
H1470 C1486 0.959 . S
H1471 C1486 0.959 . S
H1472 C1486 0.961 . S
H1473 C1487 0.960 . S
H1474 C1487 0.961 . S
H1475 C1487 0.959 . S
H1476 C1490 0.929 . S
H1477 C1491 0.931 . S
H1478 C1493 0.930 . S
C1479 H1467 0.930 . S
C1479 C1480 1.399 . S
C1479 C1484 1.399 . S
C1480 C1479 1.399 . S
C1480 C1481 1.376 . S
C1481 H1468 0.930 . S
C1481 C1480 1.376 . S
C1481 C1482 1.388 . S
C1482 H1469 0.930 . S
C1482 C1481 1.388 . S
C1482 C1483 1.390 . S
C1483 C1482 1.390 . S
C1483 C1484 1.394 . S
C1483 C1489 1.465 . S
C1484 C1479 1.399 . S
C1484 C1483 1.394 . S
C1484 C1485 1.516 . S
C1485 C1484 1.516 . S
C1485 C1486 1.502 . S
C1485 C1487 1.561 . S
C1485 C1488 1.526 . S
C1486 H1470 0.959 . S
C1486 H1471 0.959 . S
C1486 H1472 0.961 . S
C1486 C1485 1.502 . S
C1487 H1473 0.960 . S
C1487 H1474 0.961 . S
C1487 H1475 0.959 . S
C1487 C1485 1.561 . S
C1488 C1485 1.526 . S
C1488 C1489 1.396 . S
C1488 C1493 1.390 . S
C1489 C1483 1.465 . S
C1489 C1488 1.396 . S
C1489 C1490 1.399 . S
C1490 H1476 0.929 . S
C1490 C1489 1.399 . S
C1490 C1491 1.385 . S
C1491 H1477 0.931 . S
C1491 C1490 1.385 . S
C1491 C1492 1.389 . S
C1492 C1491 1.389 . S
C1492 C1493 1.387 . S
C1493 H1478 0.930 . S
C1493 C1488 1.390 . S
C1493 C1492 1.387 . S
H1494 C1506 0.930 . S
H1495 C1508 0.930 . S
H1496 C1509 0.930 1_545 S
H1497 C1513 0.959 . S
H1498 C1513 0.959 . S
H1499 C1513 0.961 . S
H1500 C1514 0.960 . S
H1501 C1514 0.961 . S
H1502 C1514 0.959 . S
H1503 C1517 0.929 . S
H1504 C1518 0.931 . S
H1505 C1520 0.930 . S
C1506 H1494 0.930 . S
C1506 C1507 1.399 . S
C1506 C1511 1.399 1_565 S
C1507 C1506 1.399 . S
C1507 C1508 1.376 . S
C1508 H1495 0.930 . S
C1508 C1507 1.376 . S
C1508 C1509 1.388 . S
C1509 H1496 0.930 1_565 S
C1509 C1508 1.388 . S
C1509 C1510 1.390 1_565 S
C1510 C1509 1.390 1_545 S
C1510 C1511 1.394 . S
C1510 C1516 1.465 . S
C1511 C1506 1.399 1_545 S
C1511 C1510 1.394 . S
C1511 C1512 1.516 . S
C1512 C1511 1.516 . S
C1512 C1513 1.502 . S
C1512 C1514 1.561 . S
C1512 C1515 1.526 . S
C1513 H1497 0.959 . S
C1513 H1498 0.959 . S
C1513 H1499 0.961 . S
C1513 C1512 1.502 . S
C1514 H1500 0.960 . S
C1514 H1501 0.961 . S
C1514 H1502 0.959 . S
C1514 C1512 1.561 . S
C1515 C1512 1.526 . S
C1515 C1516 1.396 . S
C1515 C1520 1.390 . S
C1516 C1510 1.465 . S
C1516 C1515 1.396 . S
C1516 C1517 1.399 . S
C1517 H1503 0.929 . S
C1517 C1516 1.399 . S
C1517 C1518 1.385 . S
C1518 H1504 0.931 . S
C1518 C1517 1.385 . S
C1518 C1519 1.389 . S
C1519 C1518 1.389 . S
C1519 C1520 1.387 . S
C1520 H1505 0.930 . S
C1520 C1515 1.390 . S
C1520 C1519 1.387 . S
H1521 C1533 0.930 . S
H1522 C1535 0.930 . S
H1523 C1536 0.930 1_655 S
H1524 C1540 0.959 . S
H1525 C1540 0.959 . S
H1526 C1540 0.961 . S
H1527 C1541 0.950 1_455 S
H1528 C1541 0.961 . S
H1529 C1541 0.959 . S
H1530 C1544 0.929 . S
H1531 C1545 0.931 . S
H1532 C1547 0.930 . S
C1533 H1521 0.930 . S
C1533 C1534 1.399 . S
C1533 C1538 1.347 1_455 S
C1534 C1533 1.399 . S
C1534 C1535 1.376 . S
C1535 H1522 0.930 . S
C1535 C1534 1.376 . S
C1535 C1536 1.388 . S
C1536 H1523 0.930 1_455 S
C1536 C1535 1.388 . S
C1536 C1537 1.390 1_455 S
C1537 C1536 1.390 1_655 S
C1537 C1538 1.422 . S
C1537 C1543 1.465 . S
C1538 C1533 1.347 1_655 S
C1538 C1537 1.422 . S
C1538 C1539 1.548 . S
C1539 C1538 1.548 . S
C1539 C1540 1.502 . S
C1539 C1541 1.561 . S
C1539 C1542 1.526 . S
C1540 H1524 0.959 . S
C1540 H1525 0.959 . S
C1540 H1526 0.961 . S
C1540 C1539 1.502 . S
C1541 H1527 0.950 1_655 S
C1541 H1528 0.961 . S
C1541 H1529 0.959 . S
C1541 C1539 1.561 . S
C1542 C1539 1.526 . S
C1542 C1543 1.396 . S
C1542 C1547 1.390 . S
C1543 C1537 1.465 . S
C1543 C1542 1.396 . S
C1543 C1544 1.399 . S
C1544 H1530 0.929 . S
C1544 C1543 1.399 . S
C1544 C1545 1.385 . S
C1545 H1531 0.931 . S
C1545 C1544 1.385 . S
C1545 C1546 1.389 . S
C1546 C1545 1.389 . S
C1546 C1547 1.387 . S
C1547 H1532 0.930 . S
C1547 C1542 1.390 . S
C1547 C1546 1.387 . S
H1548 C1560 0.930 . S
H1549 C1562 0.930 . S
H1550 C1563 0.930 . S
H1551 C1567 0.959 . S
H1552 C1567 0.959 . S
H1553 C1567 0.961 . S
H1554 C1568 0.960 . S
H1555 C1568 0.961 . S
H1556 C1568 0.959 . S
H1557 C1571 0.929 . S
H1558 C1572 0.931 . S
H1559 C1574 0.930 . S
C1560 H1548 0.930 . S
C1560 C1561 1.399 . S
C1560 C1565 1.399 . S
C1561 C1560 1.399 . S
C1561 C1562 1.376 . S
C1562 H1549 0.930 . S
C1562 C1561 1.376 . S
C1562 C1563 1.388 . S
C1563 H1550 0.930 . S
C1563 C1562 1.388 . S
C1563 C1564 1.390 . S
C1564 C1563 1.390 . S
C1564 C1565 1.394 . S
C1564 C1570 1.465 . S
C1565 C1560 1.399 . S
C1565 C1564 1.394 . S
C1565 C1566 1.516 . S
C1566 C1565 1.516 . S
C1566 C1567 1.502 . S
C1566 C1568 1.561 . S
C1566 C1569 1.526 . S
C1567 H1551 0.959 . S
C1567 H1552 0.959 . S
C1567 H1553 0.961 . S
C1567 C1566 1.502 . S
C1568 H1554 0.960 . S
C1568 H1555 0.961 . S
C1568 H1556 0.959 . S
C1568 C1566 1.561 . S
C1569 C1566 1.526 . S
C1569 C1570 1.396 . S
C1569 C1574 1.390 . S
C1570 C1564 1.465 . S
C1570 C1569 1.396 . S
C1570 C1571 1.399 . S
C1571 H1557 0.929 . S
C1571 C1570 1.399 . S
C1571 C1572 1.385 . S
C1572 H1558 0.931 . S
C1572 C1571 1.385 . S
C1572 C1573 1.389 . S
C1573 C1572 1.389 . S
C1573 C1574 1.387 . S
C1574 H1559 0.930 . S
C1574 C1569 1.390 . S
C1574 C1573 1.387 . S
H1575 C1587 0.930 . S
H1576 C1589 0.930 . S
H1577 C1590 0.930 1_655 S
H1578 C1594 0.959 . S
H1579 C1594 0.959 . S
H1580 C1594 0.961 1_455 S
H1581 C1595 0.960 1_455 S
H1582 C1595 0.961 . S
H1583 C1595 0.959 . S
H1584 C1598 0.929 . S
H1585 C1599 0.931 . S
H1586 C1601 0.930 . S
C1587 H1575 0.930 . S
C1587 C1588 1.399 . S
C1587 C1592 1.399 . S
C1588 C1587 1.399 . S
C1588 C1589 1.376 . S
C1589 H1576 0.930 . S
C1589 C1588 1.376 . S
C1589 C1590 1.388 . S
C1590 H1577 0.930 1_455 S
C1590 C1589 1.388 . S
C1590 C1591 1.390 1_455 S
C1591 C1590 1.390 1_655 S
C1591 C1592 1.394 1_655 S
C1591 C1597 1.465 . S
C1592 C1587 1.399 . S
C1592 C1591 1.394 1_455 S
C1592 C1593 1.516 1_455 S
C1593 C1592 1.516 1_655 S
C1593 C1594 1.502 . S
C1593 C1595 1.561 . S
C1593 C1596 1.526 . S
C1594 H1578 0.959 . S
C1594 H1579 0.959 . S
C1594 H1580 0.961 1_655 S
C1594 C1593 1.502 . S
C1595 H1581 0.960 1_655 S
C1595 H1582 0.961 . S
C1595 H1583 0.959 . S
C1595 C1593 1.561 . S
C1596 C1593 1.526 . S
C1596 C1597 1.396 . S
C1596 C1601 1.390 . S
C1597 C1591 1.465 . S
C1597 C1596 1.396 . S
C1597 C1598 1.399 . S
C1598 H1584 0.929 . S
C1598 C1597 1.399 . S
C1598 C1599 1.385 . S
C1599 H1585 0.931 . S
C1599 C1598 1.385 . S
C1599 C1600 1.389 . S
C1600 C1599 1.389 . S
C1600 C1601 1.387 . S
C1601 H1586 0.930 . S
C1601 C1596 1.390 . S
C1601 C1600 1.387 . S
H1602 C1614 0.930 . S
H1603 C1616 0.930 . S
H1604 C1617 0.930 . S
H1605 C1621 0.959 . S
H1606 C1621 0.959 . S
H1607 C1621 0.961 . S
H1608 C1622 0.960 . S
H1609 C1622 0.961 . S
H1610 C1622 0.959 . S
H1611 C1625 0.929 . S
H1612 C1626 0.931 . S
H1613 C1628 0.930 . S
C1614 H1602 0.930 . S
C1614 C1615 1.399 . S
C1614 C1619 1.399 . S
C1615 C1614 1.399 . S
C1615 C1616 1.376 . S
C1616 H1603 0.930 . S
C1616 C1615 1.376 . S
C1616 C1617 1.388 . S
C1617 H1604 0.930 . S
C1617 C1616 1.388 . S
C1617 C1618 1.390 . S
C1618 C1617 1.390 . S
C1618 C1619 1.394 . S
C1618 C1624 1.465 . S
C1619 C1614 1.399 . S
C1619 C1618 1.394 . S
C1619 C1620 1.516 . S
C1620 C1619 1.516 . S
C1620 C1621 1.502 . S
C1620 C1622 1.561 . S
C1620 C1623 1.526 . S
C1621 H1605 0.959 . S
C1621 H1606 0.959 . S
C1621 H1607 0.961 . S
C1621 C1620 1.502 . S
C1622 H1608 0.960 . S
C1622 H1609 0.961 . S
C1622 H1610 0.959 . S
C1622 C1620 1.561 . S
C1623 C1620 1.526 . S
C1623 C1624 1.396 . S
C1623 C1628 1.390 . S
C1624 C1618 1.465 . S
C1624 C1623 1.396 . S
C1624 C1625 1.399 . S
C1625 H1611 0.929 . S
C1625 C1624 1.399 . S
C1625 C1626 1.385 . S
C1626 H1612 0.931 . S
C1626 C1625 1.385 . S
C1626 C1627 1.389 . S
C1627 C1626 1.389 . S
C1627 C1628 1.387 . S
C1628 H1613 0.930 . S
C1628 C1623 1.390 . S
C1628 C1627 1.387 . S
H1629 C1641 0.930 . S
H1630 C1643 0.930 . S
H1631 C1644 0.930 1_545 S
H1632 C1648 0.959 . S
H1633 C1648 0.959 . S
H1634 C1648 0.961 . S
H1635 C1649 0.960 . S
H1636 C1649 0.961 . S
H1637 C1649 0.959 . S
H1638 C1652 0.929 . S
H1639 C1653 0.931 . S
H1640 C1655 0.930 . S
C1641 H1629 0.930 . S
C1641 C1642 1.399 . S
C1641 C1646 1.399 1_565 S
C1642 C1641 1.399 . S
C1642 C1643 1.376 . S
C1643 H1630 0.930 . S
C1643 C1642 1.376 . S
C1643 C1644 1.388 . S
C1644 H1631 0.930 1_565 S
C1644 C1643 1.388 . S
C1644 C1645 1.390 1_565 S
C1645 C1644 1.390 1_545 S
C1645 C1646 1.394 . S
C1645 C1651 1.465 . S
C1646 C1641 1.399 1_545 S
C1646 C1645 1.394 . S
C1646 C1647 1.516 . S
C1647 C1646 1.516 . S
C1647 C1648 1.502 . S
C1647 C1649 1.561 . S
C1647 C1650 1.526 . S
C1648 H1632 0.959 . S
C1648 H1633 0.959 . S
C1648 H1634 0.961 . S
C1648 C1647 1.502 . S
C1649 H1635 0.960 . S
C1649 H1636 0.961 . S
C1649 H1637 0.959 . S
C1649 C1647 1.561 . S
C1650 C1647 1.526 . S
C1650 C1651 1.396 . S
C1650 C1655 1.390 . S
C1651 C1645 1.465 . S
C1651 C1650 1.396 . S
C1651 C1652 1.399 . S
C1652 H1638 0.929 . S
C1652 C1651 1.399 . S
C1652 C1653 1.385 . S
C1653 H1639 0.931 . S
C1653 C1652 1.385 . S
C1653 C1654 1.389 . S
C1654 C1653 1.389 . S
C1654 C1655 1.387 . S
C1655 H1640 0.930 . S
C1655 C1650 1.390 . S
C1655 C1654 1.387 . S
H1656 C1668 0.930 . S
H1657 C1670 0.930 . S
H1658 C1671 0.930 . S
H1659 C1675 0.959 . S
H1660 C1675 0.959 . S
H1661 C1675 0.961 . S
H1662 C1676 0.960 . S
H1663 C1676 0.961 . S
H1664 C1676 0.959 . S
H1665 C1679 0.929 . S
H1666 C1680 0.931 . S
H1667 C1682 0.930 . S
C1668 H1656 0.930 . S
C1668 C1669 1.399 . S
C1668 C1673 1.399 . S
C1669 C1668 1.399 . S
C1669 C1670 1.376 . S
C1670 H1657 0.930 . S
C1670 C1669 1.376 . S
C1670 C1671 1.388 . S
C1671 H1658 0.930 . S
C1671 C1670 1.388 . S
C1671 C1672 1.390 . S
C1672 C1671 1.390 . S
C1672 C1673 1.394 . S
C1672 C1678 1.465 . S
C1673 C1668 1.399 . S
C1673 C1672 1.394 . S
C1673 C1674 1.516 . S
C1674 C1673 1.516 . S
C1674 C1675 1.502 . S
C1674 C1676 1.561 . S
C1674 C1677 1.526 . S
C1675 H1659 0.959 . S
C1675 H1660 0.959 . S
C1675 H1661 0.961 . S
C1675 C1674 1.502 . S
C1676 H1662 0.960 . S
C1676 H1663 0.961 . S
C1676 H1664 0.959 . S
C1676 C1674 1.561 . S
C1677 C1674 1.526 . S
C1677 C1678 1.396 . S
C1677 C1682 1.390 . S
C1678 C1672 1.465 . S
C1678 C1677 1.396 . S
C1678 C1679 1.399 . S
C1679 H1665 0.929 . S
C1679 C1678 1.399 . S
C1679 C1680 1.385 . S
C1680 H1666 0.931 . S
C1680 C1679 1.385 . S
C1680 C1681 1.389 . S
C1681 C1680 1.389 . S
C1681 C1682 1.387 . S
C1682 H1667 0.930 . S
C1682 C1677 1.390 . S
C1682 C1681 1.387 . S
H1683 C1695 0.930 . S
H1684 C1697 0.930 . S
H1685 C1698 0.930 . S
H1686 C1702 0.959 . S
H1687 C1702 0.959 . S
H1688 C1702 0.961 . S
H1689 C1703 0.960 . S
H1690 C1703 0.961 . S
H1691 C1703 0.959 . S
H1692 C1706 0.929 . S
H1693 C1707 0.931 . S
H1694 C1709 0.930 . S
C1695 H1683 0.930 . S
C1695 C1696 1.399 . S
C1695 C1700 1.399 . S
C1696 C1695 1.399 . S
C1696 C1697 1.376 . S
C1697 H1684 0.930 . S
C1697 C1696 1.376 . S
C1697 C1698 1.388 . S
C1698 H1685 0.930 . S
C1698 C1697 1.388 . S
C1698 C1699 1.390 . S
C1699 C1698 1.390 . S
C1699 C1700 1.394 . S
C1699 C1705 1.465 . S
C1700 C1695 1.399 . S
C1700 C1699 1.394 . S
C1700 C1701 1.516 . S
C1701 C1700 1.516 . S
C1701 C1702 1.502 . S
C1701 C1703 1.561 . S
C1701 C1704 1.526 . S
C1702 H1686 0.959 . S
C1702 H1687 0.959 . S
C1702 H1688 0.961 . S
C1702 C1701 1.502 . S
C1703 H1689 0.960 . S
C1703 H1690 0.961 . S
C1703 H1691 0.959 . S
C1703 C1701 1.561 . S
C1704 C1701 1.526 . S
C1704 C1705 1.396 . S
C1704 C1709 1.390 . S
C1705 C1699 1.465 . S
C1705 C1704 1.396 . S
C1705 C1706 1.399 . S
C1706 H1692 0.929 . S
C1706 C1705 1.399 . S
C1706 C1707 1.385 . S
C1707 H1693 0.931 . S
C1707 C1706 1.385 . S
C1707 C1708 1.389 . S
C1708 C1707 1.389 . S
C1708 C1709 1.387 . S
C1709 H1694 0.930 . S
C1709 C1704 1.390 . S
C1709 C1708 1.387 . S
H1710 C1722 0.930 . S
H1711 C1724 0.930 . S
H1712 C1725 0.930 . S
H1713 C1729 0.959 . S
H1714 C1729 0.959 . S
H1715 C1729 0.961 . S
H1716 C1730 0.960 . S
H1717 C1730 0.961 . S
H1718 C1730 0.959 . S
H1719 C1733 0.929 . S
H1720 C1734 0.931 . S
H1721 C1736 0.930 . S
C1722 H1710 0.930 . S
C1722 C1723 1.399 . S
C1722 C1727 1.399 . S
C1723 C1722 1.399 . S
C1723 C1724 1.376 . S
C1724 H1711 0.930 . S
C1724 C1723 1.376 . S
C1724 C1725 1.388 . S
C1725 H1712 0.930 . S
C1725 C1724 1.388 . S
C1725 C1726 1.390 . S
C1726 C1725 1.390 . S
C1726 C1727 1.394 . S
C1726 C1732 1.465 . S
C1727 C1722 1.399 . S
C1727 C1726 1.394 . S
C1727 C1728 1.516 . S
C1728 C1727 1.516 . S
C1728 C1729 1.502 . S
C1728 C1730 1.561 . S
C1728 C1731 1.526 . S
C1729 H1713 0.959 . S
C1729 H1714 0.959 . S
C1729 H1715 0.961 . S
C1729 C1728 1.502 . S
C1730 H1716 0.960 . S
C1730 H1717 0.961 . S
C1730 H1718 0.959 . S
C1730 C1728 1.561 . S
C1731 C1728 1.526 . S
C1731 C1732 1.396 . S
C1731 C1736 1.390 . S
C1732 C1726 1.465 . S
C1732 C1731 1.396 . S
C1732 C1733 1.399 . S
C1733 H1719 0.929 . S
C1733 C1732 1.399 . S
C1733 C1734 1.385 . S
C1734 H1720 0.931 . S
C1734 C1733 1.385 . S
C1734 C1735 1.389 . S
C1735 C1734 1.389 . S
C1735 C1736 1.387 . S
C1736 H1721 0.930 . S
C1736 C1731 1.390 . S
C1736 C1735 1.387 . S
H1737 C1749 0.930 1_545 S
H1738 C1751 0.930 . S
H1739 C1752 0.930 . S
H1740 C1756 0.959 . S
H1741 C1756 0.959 . S
H1742 C1756 0.961 . S
H1743 C1757 0.960 . S
H1744 C1757 0.961 . S
H1745 C1757 0.959 . S
H1746 C1760 0.929 . S
H1747 C1761 0.931 . S
H1748 C1763 0.930 . S
C1749 H1737 0.930 1_565 S
C1749 C1750 1.399 . S
C1749 C1754 1.399 . S
C1750 C1749 1.399 . S
C1750 C1751 1.376 . S
C1751 H1738 0.930 . S
C1751 C1750 1.376 . S
C1751 C1752 1.388 . S
C1752 H1739 0.930 . S
C1752 C1751 1.388 . S
C1752 C1753 1.390 . S
C1753 C1752 1.390 . S
C1753 C1754 1.394 . S
C1753 C1759 1.465 . S
C1754 C1749 1.399 . S
C1754 C1753 1.394 . S
C1754 C1755 1.516 1_565 S
C1755 C1754 1.516 1_545 S
C1755 C1756 1.502 . S
C1755 C1757 1.561 . S
C1755 C1758 1.537 . S
C1756 H1740 0.959 . S
C1756 H1741 0.959 . S
C1756 H1742 0.961 . S
C1756 C1755 1.502 . S
C1757 H1743 0.960 . S
C1757 H1744 0.961 . S
C1757 H1745 0.959 . S
C1757 C1755 1.561 . S
C1758 C1755 1.537 . S
C1758 C1759 1.372 1_545 S
C1758 C1763 1.399 . S
C1759 C1753 1.465 . S
C1759 C1758 1.372 1_565 S
C1759 C1760 1.399 . S
C1760 H1746 0.929 . S
C1760 C1759 1.399 . S
C1760 C1761 1.385 . S
C1761 H1747 0.931 . S
C1761 C1760 1.385 . S
C1761 C1762 1.389 . S
C1762 C1761 1.389 . S
C1762 C1763 1.387 1_565 S
C1763 H1748 0.930 . S
C1763 C1758 1.399 . S
C1763 C1762 1.387 1_545 S
H1764 C1776 0.930 . S
H1765 C1778 0.930 . S
H1766 C1779 0.930 . S
H1767 C1783 0.961 . S
H1768 C1783 0.960 . S
H1769 C1783 0.961 1_455 S
H1770 C1784 0.960 . S
H1771 C1784 0.961 . S
H1772 C1784 0.959 . S
H1773 C1787 0.929 . S
H1774 C1788 0.931 . S
H1775 C1790 0.930 . S
C1776 H1764 0.930 . S
C1776 C1777 1.399 . S
C1776 C1781 1.399 . S
C1777 C1776 1.399 . S
C1777 C1778 1.376 . S
C1778 H1765 0.930 . S
C1778 C1777 1.376 . S
C1778 C1779 1.388 . S
C1779 H1766 0.930 . S
C1779 C1778 1.388 . S
C1779 C1780 1.390 . S
C1780 C1779 1.390 . S
C1780 C1781 1.394 . S
C1780 C1786 1.465 . S
C1781 C1776 1.399 . S
C1781 C1780 1.394 . S
C1781 C1782 1.516 . S
C1782 C1781 1.516 . S
C1782 C1783 1.499 1_455 S
C1782 C1784 1.561 . S
C1782 C1785 1.526 . S
C1783 H1767 0.961 . S
C1783 H1768 0.960 . S
C1783 H1769 0.961 1_655 S
C1783 C1782 1.499 1_655 S
C1784 H1770 0.960 . S
C1784 H1771 0.961 . S
C1784 H1772 0.959 . S
C1784 C1782 1.561 . S
C1785 C1782 1.526 . S
C1785 C1786 1.396 . S
C1785 C1790 1.390 . S
C1786 C1780 1.465 . S
C1786 C1785 1.396 . S
C1786 C1787 1.399 . S
C1787 H1773 0.929 . S
C1787 C1786 1.399 . S
C1787 C1788 1.385 . S
C1788 H1774 0.931 . S
C1788 C1787 1.385 . S
C1788 C1789 1.389 . S
C1789 C1788 1.389 . S
C1789 C1790 1.387 . S
C1790 H1775 0.930 . S
C1790 C1785 1.390 . S
C1790 C1789 1.387 . S
H1791 C1803 0.930 . S
H1792 C1805 0.930 . S
H1793 C1806 0.930 . S
H1794 C1810 0.959 . S
H1795 C1810 0.959 . S
H1796 C1810 0.961 . S
H1797 C1811 0.960 . S
H1798 C1811 0.961 . S
H1799 C1811 0.959 . S
H1800 C1814 0.929 . S
H1801 C1815 0.931 . S
H1802 C1817 0.930 . S
C1803 H1791 0.930 . S
C1803 C1804 1.399 . S
C1803 C1808 1.399 . S
C1804 C1803 1.399 . S
C1804 C1805 1.376 . S
C1805 H1792 0.930 . S
C1805 C1804 1.376 . S
C1805 C1806 1.388 . S
C1806 H1793 0.930 . S
C1806 C1805 1.388 . S
C1806 C1807 1.390 . S
C1807 C1806 1.390 . S
C1807 C1808 1.394 . S
C1807 C1813 1.465 . S
C1808 C1803 1.399 . S
C1808 C1807 1.394 . S
C1808 C1809 1.516 . S
C1809 C1808 1.516 . S
C1809 C1810 1.502 . S
C1809 C1811 1.561 . S
C1809 C1812 1.526 . S
C1810 H1794 0.959 . S
C1810 H1795 0.959 . S
C1810 H1796 0.961 . S
C1810 C1809 1.502 . S
C1811 H1797 0.960 . S
C1811 H1798 0.961 . S
C1811 H1799 0.959 . S
C1811 C1809 1.561 . S
C1812 C1809 1.526 . S
C1812 C1813 1.396 . S
C1812 C1817 1.390 . S
C1813 C1807 1.465 . S
C1813 C1812 1.396 . S
C1813 C1814 1.399 . S
C1814 H1800 0.929 . S
C1814 C1813 1.399 . S
C1814 C1815 1.385 . S
C1815 H1801 0.931 . S
C1815 C1814 1.385 . S
C1815 C1816 1.389 . S
C1816 C1815 1.389 . S
C1816 C1817 1.387 . S
C1817 H1802 0.930 . S
C1817 C1812 1.390 . S
C1817 C1816 1.387 . S
H1818 C1830 0.930 . S
H1819 C1832 0.930 . S
H1820 C1833 0.930 . S
H1821 C1837 0.959 . S
H1822 C1837 0.959 . S
H1823 C1837 0.961 . S
H1824 C1838 0.960 . S
H1825 C1838 0.949 1_455 S
H1826 C1838 0.959 . S
H1827 C1841 0.929 . S
H1828 C1842 0.931 . S
H1829 C1844 0.928 1_455 S
C1830 H1818 0.930 . S
C1830 C1831 1.399 . S
C1830 C1835 1.399 . S
C1831 C1830 1.399 . S
C1831 C1832 1.376 . S
C1832 H1819 0.930 . S
C1832 C1831 1.376 . S
C1832 C1833 1.388 . S
C1833 H1820 0.930 . S
C1833 C1832 1.388 . S
C1833 C1834 1.390 . S
C1834 C1833 1.390 . S
C1834 C1835 1.394 . S
C1834 C1840 1.465 . S
C1835 C1830 1.399 . S
C1835 C1834 1.394 . S
C1835 C1836 1.516 . S
C1836 C1835 1.516 . S
C1836 C1837 1.502 1_655 S
C1836 C1838 1.561 . S
C1836 C1839 1.526 . S
C1837 H1821 0.959 . S
C1837 H1822 0.959 . S
C1837 H1823 0.961 . S
C1837 C1836 1.502 1_455 S
C1838 H1824 0.960 . S
C1838 H1825 0.949 1_655 S
C1838 H1826 0.959 . S
C1838 C1836 1.561 . S
C1839 C1836 1.526 . S
C1839 C1840 1.396 . S
C1839 C1844 1.391 . S
C1840 C1834 1.465 . S
C1840 C1839 1.396 . S
C1840 C1841 1.399 . S
C1841 H1827 0.929 . S
C1841 C1840 1.399 . S
C1841 C1842 1.385 . S
C1842 H1828 0.931 . S
C1842 C1841 1.385 . S
C1842 C1843 1.389 . S
C1843 C1842 1.389 . S
C1843 C1844 1.387 . S
C1844 H1829 0.928 1_655 S
C1844 C1839 1.391 . S
C1844 C1843 1.387 . S
H1845 C1857 0.930 . S
H1846 C1859 0.930 . S
H1847 C1860 0.930 . S
H1848 C1864 0.959 . S
H1849 C1864 0.959 . S
H1850 C1864 0.961 . S
H1851 C1865 0.960 . S
H1852 C1865 0.961 . S
H1853 C1865 0.959 . S
H1854 C1868 0.929 . S
H1855 C1869 0.931 . S
H1856 C1871 0.930 . S
C1857 H1845 0.930 . S
C1857 C1858 1.399 . S
C1857 C1862 1.399 . S
C1858 C1857 1.399 . S
C1858 C1859 1.376 . S
C1859 H1846 0.930 . S
C1859 C1858 1.376 . S
C1859 C1860 1.388 . S
C1860 H1847 0.930 . S
C1860 C1859 1.388 . S
C1860 C1861 1.390 . S
C1861 C1860 1.390 . S
C1861 C1862 1.394 . S
C1861 C1867 1.465 . S
C1862 C1857 1.399 . S
C1862 C1861 1.394 . S
C1862 C1863 1.516 . S
C1863 C1862 1.516 . S
C1863 C1864 1.502 . S
C1863 C1865 1.561 . S
C1863 C1866 1.526 . S
C1864 H1848 0.959 . S
C1864 H1849 0.959 . S
C1864 H1850 0.961 . S
C1864 C1863 1.502 . S
C1865 H1851 0.960 . S
C1865 H1852 0.961 . S
C1865 H1853 0.959 . S
C1865 C1863 1.561 . S
C1866 C1863 1.526 . S
C1866 C1867 1.396 . S
C1866 C1871 1.390 . S
C1867 C1861 1.465 . S
C1867 C1866 1.396 . S
C1867 C1868 1.399 . S
C1868 H1854 0.929 . S
C1868 C1867 1.399 . S
C1868 C1869 1.385 . S
C1869 H1855 0.931 . S
C1869 C1868 1.385 . S
C1869 C1870 1.389 . S
C1870 C1869 1.389 . S
C1870 C1871 1.387 . S
C1871 H1856 0.930 . S
C1871 C1866 1.390 . S
C1871 C1870 1.387 . S
H1872 C1884 0.930 . S
H1873 C1886 0.930 . S
H1874 C1887 0.930 1_565 S
H1875 C1891 0.959 . S
H1876 C1891 0.959 . S
H1877 C1891 0.961 . S
H1878 C1892 0.960 . S
H1879 C1892 0.961 . S
H1880 C1892 0.959 . S
H1881 C1895 0.929 . S
H1882 C1896 0.931 . S
H1883 C1898 0.930 . S
C1884 H1872 0.930 . S
C1884 C1885 1.399 . S
C1884 C1889 1.399 . S
C1885 C1884 1.399 . S
C1885 C1886 1.376 . S
C1886 H1873 0.930 . S
C1886 C1885 1.376 . S
C1886 C1887 1.388 . S
C1887 H1874 0.930 1_545 S
C1887 C1886 1.388 . S
C1887 C1888 1.390 . S
C1888 C1887 1.390 . S
C1888 C1889 1.394 . S
C1888 C1894 1.465 . S
C1889 C1884 1.399 . S
C1889 C1888 1.394 . S
C1889 C1890 1.516 . S
C1890 C1889 1.516 . S
C1890 C1891 1.502 . S
C1890 C1892 1.561 . S
C1890 C1893 1.526 . S
C1891 H1875 0.959 . S
C1891 H1876 0.959 . S
C1891 H1877 0.961 . S
C1891 C1890 1.502 . S
C1892 H1878 0.960 . S
C1892 H1879 0.961 . S
C1892 H1880 0.959 . S
C1892 C1890 1.561 . S
C1893 C1890 1.526 . S
C1893 C1894 1.396 . S
C1893 C1898 1.390 . S
C1894 C1888 1.465 . S
C1894 C1893 1.396 . S
C1894 C1895 1.399 1_545 S
C1895 H1881 0.929 . S
C1895 C1894 1.399 1_565 S
C1895 C1896 1.385 . S
C1896 H1882 0.931 . S
C1896 C1895 1.385 . S
C1896 C1897 1.389 1_565 S
C1897 C1896 1.389 1_545 S
C1897 C1898 1.387 . S
C1898 H1883 0.930 . S
C1898 C1893 1.390 . S
C1898 C1897 1.387 . S
H1899 C1911 0.930 . S
H1900 C1913 0.930 . S
H1901 C1914 0.930 . S
H1902 C1918 0.959 . S
H1903 C1918 0.959 . S
H1904 C1918 0.961 . S
H1905 C1919 0.960 . S
H1906 C1919 0.961 . S
H1907 C1919 0.959 . S
H1908 C1922 0.929 . S
H1909 C1923 0.931 . S
H1910 C1925 0.930 . S
C1911 H1899 0.930 . S
C1911 C1912 1.399 . S
C1911 C1916 1.399 . S
C1912 C1911 1.399 . S
C1912 C1913 1.376 . S
C1913 H1900 0.930 . S
C1913 C1912 1.376 . S
C1913 C1914 1.388 . S
C1914 H1901 0.930 . S
C1914 C1913 1.388 . S
C1914 C1915 1.390 . S
C1915 C1914 1.390 . S
C1915 C1916 1.394 . S
C1915 C1921 1.465 . S
C1916 C1911 1.399 . S
C1916 C1915 1.394 . S
C1916 C1917 1.516 . S
C1917 C1916 1.516 . S
C1917 C1918 1.502 . S
C1917 C1919 1.561 . S
C1917 C1920 1.526 . S
C1918 H1902 0.959 . S
C1918 H1903 0.959 . S
C1918 H1904 0.961 . S
C1918 C1917 1.502 . S
C1919 H1905 0.960 . S
C1919 H1906 0.961 . S
C1919 H1907 0.959 . S
C1919 C1917 1.561 . S
C1920 C1917 1.526 . S
C1920 C1921 1.396 . S
C1920 C1925 1.390 . S
C1921 C1915 1.465 . S
C1921 C1920 1.396 . S
C1921 C1922 1.399 . S
C1922 H1908 0.929 . S
C1922 C1921 1.399 . S
C1922 C1923 1.385 . S
C1923 H1909 0.931 . S
C1923 C1922 1.385 . S
C1923 C1924 1.389 . S
C1924 C1923 1.389 . S
C1924 C1925 1.387 . S
C1925 H1910 0.930 . S
C1925 C1920 1.390 . S
C1925 C1924 1.387 . S
H1926 C1938 0.930 . S
H1927 C1940 0.930 . S
H1928 C1941 0.930 . S
H1929 C1945 0.959 . S
H1930 C1945 0.959 . S
H1931 C1945 0.961 . S
H1932 C1946 0.960 . S
H1933 C1946 0.961 . S
H1934 C1946 0.959 . S
H1935 C1949 0.929 . S
H1936 C1950 0.931 . S
H1937 C1952 0.930 . S
C1938 H1926 0.930 . S
C1938 C1939 1.399 . S
C1938 C1943 1.399 . S
C1939 C1938 1.399 . S
C1939 C1940 1.376 . S
C1940 H1927 0.930 . S
C1940 C1939 1.376 . S
C1940 C1941 1.388 . S
C1941 H1928 0.930 . S
C1941 C1940 1.388 . S
C1941 C1942 1.390 . S
C1942 C1941 1.390 . S
C1942 C1943 1.394 . S
C1942 C1948 1.465 . S
C1943 C1938 1.399 . S
C1943 C1942 1.394 . S
C1943 C1944 1.516 . S
C1944 C1943 1.516 . S
C1944 C1945 1.502 . S
C1944 C1946 1.561 . S
C1944 C1947 1.526 . S
C1945 H1929 0.959 . S
C1945 H1930 0.959 . S
C1945 H1931 0.961 . S
C1945 C1944 1.502 . S
C1946 H1932 0.960 . S
C1946 H1933 0.961 . S
C1946 H1934 0.959 . S
C1946 C1944 1.561 . S
C1947 C1944 1.526 . S
C1947 C1948 1.396 . S
C1947 C1952 1.390 . S
C1948 C1942 1.465 . S
C1948 C1947 1.396 . S
C1948 C1949 1.399 . S
C1949 H1935 0.929 . S
C1949 C1948 1.399 . S
C1949 C1950 1.385 . S
C1950 H1936 0.931 . S
C1950 C1949 1.385 . S
C1950 C1951 1.389 . S
C1951 C1950 1.389 . S
C1951 C1952 1.387 . S
C1952 H1937 0.930 . S
C1952 C1947 1.390 . S
C1952 C1951 1.387 . S
H1953 C1965 0.930 . S
H1954 C1967 0.930 . S
H1955 C1968 0.930 . S
H1956 C1972 0.959 . S
H1957 C1972 0.959 . S
H1958 C1972 0.961 . S
H1959 C1973 0.960 . S
H1960 C1973 0.961 . S
H1961 C1973 0.959 . S
H1962 C1976 0.929 . S
H1963 C1977 0.931 . S
H1964 C1979 0.930 . S
C1965 H1953 0.930 . S
C1965 C1966 1.399 . S
C1965 C1970 1.399 . S
C1966 C1965 1.399 . S
C1966 C1967 1.376 . S
C1967 H1954 0.930 . S
C1967 C1966 1.376 . S
C1967 C1968 1.388 . S
C1968 H1955 0.930 . S
C1968 C1967 1.388 . S
C1968 C1969 1.390 . S
C1969 C1968 1.390 . S
C1969 C1970 1.394 . S
C1969 C1975 1.465 . S
C1970 C1965 1.399 . S
C1970 C1969 1.394 . S
C1970 C1971 1.516 . S
C1971 C1970 1.516 . S
C1971 C1972 1.502 . S
C1971 C1973 1.561 . S
C1971 C1974 1.526 . S
C1972 H1956 0.959 . S
C1972 H1957 0.959 . S
C1972 H1958 0.961 . S
C1972 C1971 1.502 . S
C1973 H1959 0.960 . S
C1973 H1960 0.961 . S
C1973 H1961 0.959 . S
C1973 C1971 1.561 . S
C1974 C1971 1.526 . S
C1974 C1975 1.396 . S
C1974 C1979 1.390 . S
C1975 C1969 1.465 . S
C1975 C1974 1.396 . S
C1975 C1976 1.399 . S
C1976 H1962 0.929 . S
C1976 C1975 1.399 . S
C1976 C1977 1.385 . S
C1977 H1963 0.931 . S
C1977 C1976 1.385 . S
C1977 C1978 1.389 . S
C1978 C1977 1.389 . S
C1978 C1979 1.387 . S
C1979 H1964 0.930 . S
C1979 C1974 1.390 . S
C1979 C1978 1.387 . S
H1980 C1992 0.930 . S
H1981 C1994 0.930 . S
H1982 C1995 0.930 . S
H1983 C1999 0.959 . S
H1984 C1999 0.959 . S
H1985 C1999 0.961 . S
H1986 C2000 0.960 . S
H1987 C2000 0.961 . S
H1988 C2000 0.959 . S
H1989 C2003 0.929 . S
H1990 C2004 0.931 . S
H1991 C2006 0.930 . S
C1992 H1980 0.930 . S
C1992 C1993 1.399 . S
C1992 C1997 1.399 . S
C1993 C1992 1.399 . S
C1993 C1994 1.376 . S
C1994 H1981 0.930 . S
C1994 C1993 1.376 . S
C1994 C1995 1.388 . S
C1995 H1982 0.930 . S
C1995 C1994 1.388 . S
C1995 C1996 1.390 . S
C1996 C1995 1.390 . S
C1996 C1997 1.394 . S
C1996 C2002 1.465 . S
C1997 C1992 1.399 . S
C1997 C1996 1.394 . S
C1997 C1998 1.516 . S
C1998 C1997 1.516 . S
C1998 C1999 1.502 . S
C1998 C2000 1.561 . S
C1998 C2001 1.526 . S
C1999 H1983 0.959 . S
C1999 H1984 0.959 . S
C1999 H1985 0.961 . S
C1999 C1998 1.502 . S
C2000 H1986 0.960 . S
C2000 H1987 0.961 . S
C2000 H1988 0.959 . S
C2000 C1998 1.561 . S
C2001 C1998 1.526 . S
C2001 C2002 1.396 . S
C2001 C2006 1.390 . S
C2002 C1996 1.465 . S
C2002 C2001 1.396 . S
C2002 C2003 1.399 . S
C2003 H1989 0.929 . S
C2003 C2002 1.399 . S
C2003 C2004 1.385 . S
C2004 H1990 0.931 . S
C2004 C2003 1.385 . S
C2004 C2005 1.389 . S
C2005 C2004 1.389 . S
C2005 C2006 1.387 . S
C2006 H1991 0.930 . S
C2006 C2001 1.390 . S
C2006 C2005 1.387 . S
H2007 C2019 0.930 . S
H2008 C2021 0.930 . S
H2009 C2022 0.930 . S
H2010 C2026 0.959 . S
H2011 C2026 0.959 . S
H2012 C2026 0.961 . S
H2013 C2027 0.960 . S
H2014 C2027 0.961 . S
H2015 C2027 0.959 . S
H2016 C2030 0.929 . S
H2017 C2031 0.931 . S
H2018 C2033 0.930 . S
C2019 H2007 0.930 . S
C2019 C2020 1.399 . S
C2019 C2024 1.399 . S
C2020 C2019 1.399 . S
C2020 C2021 1.376 . S
C2021 H2008 0.930 . S
C2021 C2020 1.376 . S
C2021 C2022 1.388 . S
C2022 H2009 0.930 . S
C2022 C2021 1.388 . S
C2022 C2023 1.390 . S
C2023 C2022 1.390 . S
C2023 C2024 1.394 . S
C2023 C2029 1.465 . S
C2024 C2019 1.399 . S
C2024 C2023 1.394 . S
C2024 C2025 1.516 . S
C2025 C2024 1.516 . S
C2025 C2026 1.502 . S
C2025 C2027 1.561 . S
C2025 C2028 1.526 . S
C2026 H2010 0.959 . S
C2026 H2011 0.959 . S
C2026 H2012 0.961 . S
C2026 C2025 1.502 . S
C2027 H2013 0.960 . S
C2027 H2014 0.961 . S
C2027 H2015 0.959 . S
C2027 C2025 1.561 . S
C2028 C2025 1.526 . S
C2028 C2029 1.396 . S
C2028 C2033 1.390 . S
C2029 C2023 1.465 . S
C2029 C2028 1.396 . S
C2029 C2030 1.399 . S
C2030 H2016 0.929 . S
C2030 C2029 1.399 . S
C2030 C2031 1.385 . S
C2031 H2017 0.931 . S
C2031 C2030 1.385 . S
C2031 C2032 1.389 . S
C2032 C2031 1.389 . S
C2032 C2033 1.387 . S
C2033 H2018 0.930 . S
C2033 C2028 1.390 . S
C2033 C2032 1.387 . S
H2034 C2046 0.930 . S
H2035 C2048 0.930 . S
H2036 C2049 0.930 . S
H2037 C2053 0.959 . S
H2038 C2053 0.959 . S
H2039 C2053 0.961 . S
H2040 C2054 0.960 . S
H2041 C2054 0.961 . S
H2042 C2054 0.959 . S
H2043 C2057 0.929 . S
H2044 C2058 0.931 . S
H2045 C2060 0.930 . S
C2046 H2034 0.930 . S
C2046 C2047 1.399 . S
C2046 C2051 1.399 . S
C2047 C2046 1.399 . S
C2047 C2048 1.376 . S
C2048 H2035 0.930 . S
C2048 C2047 1.376 . S
C2048 C2049 1.388 . S
C2049 H2036 0.930 . S
C2049 C2048 1.388 . S
C2049 C2050 1.390 . S
C2050 C2049 1.390 . S
C2050 C2051 1.394 . S
C2050 C2056 1.465 . S
C2051 C2046 1.399 . S
C2051 C2050 1.394 . S
C2051 C2052 1.516 . S
C2052 C2051 1.516 . S
C2052 C2053 1.502 . S
C2052 C2054 1.561 . S
C2052 C2055 1.526 . S
C2053 H2037 0.959 . S
C2053 H2038 0.959 . S
C2053 H2039 0.961 . S
C2053 C2052 1.502 . S
C2054 H2040 0.960 . S
C2054 H2041 0.961 . S
C2054 H2042 0.959 . S
C2054 C2052 1.561 . S
C2055 C2052 1.526 . S
C2055 C2056 1.396 . S
C2055 C2060 1.390 . S
C2056 C2050 1.465 . S
C2056 C2055 1.396 . S
C2056 C2057 1.399 . S
C2057 H2043 0.929 . S
C2057 C2056 1.399 . S
C2057 C2058 1.385 . S
C2058 H2044 0.931 . S
C2058 C2057 1.385 . S
C2058 C2059 1.389 . S
C2059 C2058 1.389 . S
C2059 C2060 1.387 . S
C2060 H2045 0.930 . S
C2060 C2055 1.390 . S
C2060 C2059 1.387 . S
H2061 C2073 0.930 . S
H2062 C2075 0.930 . S
H2063 C2076 0.930 . S
H2064 C2080 0.959 . S
H2065 C2080 0.959 . S
H2066 C2080 0.961 . S
H2067 C2081 0.960 . S
H2068 C2081 0.961 . S
H2069 C2081 0.959 . S
H2070 C2084 0.929 . S
H2071 C2085 0.931 . S
H2072 C2087 0.930 . S
C2073 H2061 0.930 . S
C2073 C2074 1.399 . S
C2073 C2078 1.399 . S
C2074 C2073 1.399 . S
C2074 C2075 1.376 . S
C2075 H2062 0.930 . S
C2075 C2074 1.376 . S
C2075 C2076 1.388 . S
C2076 H2063 0.930 . S
C2076 C2075 1.388 . S
C2076 C2077 1.390 . S
C2077 C2076 1.390 . S
C2077 C2078 1.394 . S
C2077 C2083 1.465 . S
C2078 C2073 1.399 . S
C2078 C2077 1.394 . S
C2078 C2079 1.516 . S
C2079 C2078 1.516 . S
C2079 C2080 1.502 . S
C2079 C2081 1.561 . S
C2079 C2082 1.526 . S
C2080 H2064 0.959 . S
C2080 H2065 0.959 . S
C2080 H2066 0.961 . S
C2080 C2079 1.502 . S
C2081 H2067 0.960 . S
C2081 H2068 0.961 . S
C2081 H2069 0.959 . S
C2081 C2079 1.561 . S
C2082 C2079 1.526 . S
C2082 C2083 1.396 . S
C2082 C2087 1.390 . S
C2083 C2077 1.465 . S
C2083 C2082 1.396 . S
C2083 C2084 1.399 . S
C2084 H2070 0.929 . S
C2084 C2083 1.399 . S
C2084 C2085 1.385 . S
C2085 H2071 0.931 . S
C2085 C2084 1.385 . S
C2085 C2086 1.389 . S
C2086 C2085 1.389 . S
C2086 C2087 1.387 . S
C2087 H2072 0.930 . S
C2087 C2082 1.390 . S
C2087 C2086 1.387 . S
H2088 C2100 0.930 . S
H2089 C2102 0.930 . S
H2090 C2103 0.930 . S
H2091 C2107 0.959 . S
H2092 C2107 0.959 . S
H2093 C2107 0.961 . S
H2094 C2108 0.960 . S
H2095 C2108 0.961 . S
H2096 C2108 0.959 . S
H2097 C2111 0.929 . S
H2098 C2112 0.931 . S
H2099 C2114 0.930 . S
C2100 H2088 0.930 . S
C2100 C2101 1.399 . S
C2100 C2105 1.399 . S
C2101 C2100 1.399 . S
C2101 C2102 1.376 . S
C2102 H2089 0.930 . S
C2102 C2101 1.376 . S
C2102 C2103 1.388 . S
C2103 H2090 0.930 . S
C2103 C2102 1.388 . S
C2103 C2104 1.390 . S
C2104 C2103 1.390 . S
C2104 C2105 1.394 . S
C2104 C2110 1.465 . S
C2105 C2100 1.399 . S
C2105 C2104 1.394 . S
C2105 C2106 1.516 . S
C2106 C2105 1.516 . S
C2106 C2107 1.502 . S
C2106 C2108 1.561 . S
C2106 C2109 1.526 . S
C2107 H2091 0.959 . S
C2107 H2092 0.959 . S
C2107 H2093 0.961 . S
C2107 C2106 1.502 . S
C2108 H2094 0.960 . S
C2108 H2095 0.961 . S
C2108 H2096 0.959 . S
C2108 C2106 1.561 . S
C2109 C2106 1.526 . S
C2109 C2110 1.396 . S
C2109 C2114 1.390 . S
C2110 C2104 1.465 . S
C2110 C2109 1.396 . S
C2110 C2111 1.399 . S
C2111 H2097 0.929 . S
C2111 C2110 1.399 . S
C2111 C2112 1.385 . S
C2112 H2098 0.931 . S
C2112 C2111 1.385 . S
C2112 C2113 1.389 . S
C2113 C2112 1.389 . S
C2113 C2114 1.387 . S
C2114 H2099 0.930 . S
C2114 C2109 1.390 . S
C2114 C2113 1.387 . S
H2115 C2127 0.930 . S
H2116 C2129 0.930 . S
H2117 C2130 0.930 . S
H2118 C2134 0.959 . S
H2119 C2134 0.959 . S
H2120 C2134 0.961 . S
H2121 C2135 0.960 . S
H2122 C2135 0.961 . S
H2123 C2135 0.959 . S
H2124 C2138 0.929 . S
H2125 C2139 0.931 . S
H2126 C2141 0.930 . S
C2127 H2115 0.930 . S
C2127 C2128 1.399 . S
C2127 C2132 1.399 . S
C2128 C2127 1.399 . S
C2128 C2129 1.376 . S
C2129 H2116 0.930 . S
C2129 C2128 1.376 . S
C2129 C2130 1.388 . S
C2130 H2117 0.930 . S
C2130 C2129 1.388 . S
C2130 C2131 1.390 . S
C2131 C2130 1.390 . S
C2131 C2132 1.394 . S
C2131 C2137 1.465 . S
C2132 C2127 1.399 . S
C2132 C2131 1.394 . S
C2132 C2133 1.516 . S
C2133 C2132 1.516 . S
C2133 C2134 1.502 . S
C2133 C2135 1.561 . S
C2133 C2136 1.526 . S
C2134 H2118 0.959 . S
C2134 H2119 0.959 . S
C2134 H2120 0.961 . S
C2134 C2133 1.502 . S
C2135 H2121 0.960 . S
C2135 H2122 0.961 . S
C2135 H2123 0.959 . S
C2135 C2133 1.561 . S
C2136 C2133 1.526 . S
C2136 C2137 1.396 . S
C2136 C2141 1.390 . S
C2137 C2131 1.465 . S
C2137 C2136 1.396 . S
C2137 C2138 1.399 . S
C2138 H2124 0.929 . S
C2138 C2137 1.399 . S
C2138 C2139 1.385 . S
C2139 H2125 0.931 . S
C2139 C2138 1.385 . S
C2139 C2140 1.389 . S
C2140 C2139 1.389 . S
C2140 C2141 1.387 . S
C2141 H2126 0.930 . S
C2141 C2136 1.390 . S
C2141 C2140 1.387 . S
H2142 C2154 0.930 . S
H2143 C2156 0.930 . S
H2144 C2157 0.930 . S
H2145 C2161 0.959 . S
H2146 C2161 0.959 . S
H2147 C2161 0.961 . S
H2148 C2162 0.960 . S
H2149 C2162 0.961 . S
H2150 C2162 0.959 . S
H2151 C2165 0.929 . S
H2152 C2166 0.931 . S
H2153 C2168 0.930 . S
C2154 H2142 0.930 . S
C2154 C2155 1.399 . S
C2154 C2159 1.399 . S
C2155 C2154 1.399 . S
C2155 C2156 1.376 . S
C2156 H2143 0.930 . S
C2156 C2155 1.376 . S
C2156 C2157 1.388 . S
C2157 H2144 0.930 . S
C2157 C2156 1.388 . S
C2157 C2158 1.390 . S
C2158 C2157 1.390 . S
C2158 C2159 1.394 . S
C2158 C2164 1.465 . S
C2159 C2154 1.399 . S
C2159 C2158 1.394 . S
C2159 C2160 1.516 . S
C2160 C2159 1.516 . S
C2160 C2161 1.502 . S
C2160 C2162 1.561 . S
C2160 C2163 1.526 . S
C2161 H2145 0.959 . S
C2161 H2146 0.959 . S
C2161 H2147 0.961 . S
C2161 C2160 1.502 . S
C2162 H2148 0.960 . S
C2162 H2149 0.961 . S
C2162 H2150 0.959 . S
C2162 C2160 1.561 . S
C2163 C2160 1.526 . S
C2163 C2164 1.396 . S
C2163 C2168 1.390 . S
C2164 C2158 1.465 . S
C2164 C2163 1.396 . S
C2164 C2165 1.399 . S
C2165 H2151 0.929 . S
C2165 C2164 1.399 . S
C2165 C2166 1.385 . S
C2166 H2152 0.931 . S
C2166 C2165 1.385 . S
C2166 C2167 1.389 . S
C2167 C2166 1.389 . S
C2167 C2168 1.387 . S
C2168 H2153 0.930 . S
C2168 C2163 1.390 . S
C2168 C2167 1.387 . S
H2169 C2181 0.930 . S
H2170 C2183 0.930 . S
H2171 C2184 0.930 . S
H2172 C2188 0.959 . S
H2173 C2188 0.959 . S
H2174 C2188 0.961 . S
H2175 C2189 0.960 . S
H2176 C2189 0.961 . S
H2177 C2189 0.959 . S
H2178 C2192 0.929 . S
H2179 C2193 0.931 . S
H2180 C2195 0.930 . S
C2181 H2169 0.930 . S
C2181 C2182 1.399 . S
C2181 C2186 1.399 . S
C2182 C2181 1.399 . S
C2182 C2183 1.376 . S
C2183 H2170 0.930 . S
C2183 C2182 1.376 . S
C2183 C2184 1.388 . S
C2184 H2171 0.930 . S
C2184 C2183 1.388 . S
C2184 C2185 1.390 . S
C2185 C2184 1.390 . S
C2185 C2186 1.394 . S
C2185 C2191 1.465 . S
C2186 C2181 1.399 . S
C2186 C2185 1.394 . S
C2186 C2187 1.516 . S
C2187 C2186 1.516 . S
C2187 C2188 1.502 . S
C2187 C2189 1.561 . S
C2187 C2190 1.526 . S
C2188 H2172 0.959 . S
C2188 H2173 0.959 . S
C2188 H2174 0.961 . S
C2188 C2187 1.502 . S
C2189 H2175 0.960 . S
C2189 H2176 0.961 . S
C2189 H2177 0.959 . S
C2189 C2187 1.561 . S
C2190 C2187 1.526 . S
C2190 C2191 1.396 . S
C2190 C2195 1.390 . S
C2191 C2185 1.465 . S
C2191 C2190 1.396 . S
C2191 C2192 1.399 . S
C2192 H2178 0.929 . S
C2192 C2191 1.399 . S
C2192 C2193 1.385 . S
C2193 H2179 0.931 . S
C2193 C2192 1.385 . S
C2193 C2194 1.389 . S
C2194 C2193 1.389 . S
C2194 C2195 1.387 . S
C2195 H2180 0.930 . S
C2195 C2190 1.390 . S
C2195 C2194 1.387 . S
H2196 C2208 0.930 . S
H2197 C2210 0.930 . S
H2198 C2211 0.930 . S
H2199 C2215 0.959 . S
H2200 C2215 0.959 . S
H2201 C2215 0.961 . S
H2202 C2216 0.960 . S
H2203 C2216 0.961 . S
H2204 C2216 0.959 . S
H2205 C2219 0.929 . S
H2206 C2220 0.931 . S
H2207 C2222 0.930 . S
C2208 H2196 0.930 . S
C2208 C2209 1.399 . S
C2208 C2213 1.399 . S
C2209 C2208 1.399 . S
C2209 C2210 1.376 . S
C2210 H2197 0.930 . S
C2210 C2209 1.376 . S
C2210 C2211 1.388 . S
C2211 H2198 0.930 . S
C2211 C2210 1.388 . S
C2211 C2212 1.390 . S
C2212 C2211 1.390 . S
C2212 C2213 1.394 . S
C2212 C2218 1.465 . S
C2213 C2208 1.399 . S
C2213 C2212 1.394 . S
C2213 C2214 1.516 . S
C2214 C2213 1.516 . S
C2214 C2215 1.502 . S
C2214 C2216 1.561 . S
C2214 C2217 1.526 . S
C2215 H2199 0.959 . S
C2215 H2200 0.959 . S
C2215 H2201 0.961 . S
C2215 C2214 1.502 . S
C2216 H2202 0.960 . S
C2216 H2203 0.961 . S
C2216 H2204 0.959 . S
C2216 C2214 1.561 . S
C2217 C2214 1.526 . S
C2217 C2218 1.396 . S
C2217 C2222 1.390 . S
C2218 C2212 1.465 . S
C2218 C2217 1.396 . S
C2218 C2219 1.399 . S
C2219 H2205 0.929 . S
C2219 C2218 1.399 . S
C2219 C2220 1.385 . S
C2220 H2206 0.931 . S
C2220 C2219 1.385 . S
C2220 C2221 1.389 . S
C2221 C2220 1.389 . S
C2221 C2222 1.387 . S
C2222 H2207 0.930 . S
C2222 C2217 1.390 . S
C2222 C2221 1.387 . S
C778 C439 1.296 . S
C790 C590 1.384 . S
C805 C465 1.470 . S
C817 C611 1.347 . S
C832 C401 1.379 . S
C844 C631 1.114 . S
C859 C369 1.401 . S
C871 C610 1.175 1_556 S
C898 C632 1.425 . S
C886 C305 1.511 . S
C913 C343 1.296 . S
C925 C589 1.187 1_556 S
C952 C591 1.252 . S
C940 C375 1.395 . S
C979 C612 1.279 . S
C967 C311 1.390 . S
C994 C337 1.406 . S
C1006 C634 1.090 1_556 S
C1021 C433 1.306 . S
C1033 C613 1.169 . S
C1048 C471 1.375 . S
C1060 C633 1.303 . S
C1087 C592 1.139 . S
C1075 C407 1.422 . S
C1114 C653 1.302 . S
C1102 C55 1.341 . S
C1129 C81 1.471 . S
C1141 C674 1.385 . S
C1156 C17 1.379 . S
C1168 C694 1.124 . S
C1183 C561 1.386 . S
C1195 C673 1.209 . S
C1210 C497 1.502 . S
C1222 C695 1.353 . S
C1237 C535 1.306 . S
C1249 C652 1.111 . S
C1264 C567 1.401 . S
C1276 C654 1.308 . S
C1291 C503 1.396 . S
C1303 C675 1.318 . S
C1330 C697 1.208 . S
C1318 C529 1.336 . S
C1345 C49 1.368 . S
C1357 C676 1.082 . S
C1384 C696 1.258 . S
C1372 C87 1.362 . S
C1399 C23 1.416 . S
C1411 C655 1.177 . S
C1438 C716 1.288 . S
C1426 C247 1.361 . S
C1453 C273 1.482 . S
C1465 C737 1.429 . S
C1492 C757 1.169 . S
C1480 C209 1.357 . S
C1519 C736 1.167 . S
C1507 C177 1.401 . S
C1546 C758 1.377 . S
C1534 C113 1.500 . S
C1561 C151 1.305 . S
C1573 C715 1.173 . S
C1588 C183 1.401 . S
C1600 C717 1.290 . S
C1615 C119 1.387 . S
C1627 C738 1.267 . S
C1654 C760 1.142 . S
C1642 C145 1.377 . S
C1669 C241 1.268 . S
C1681 C739 1.240 . S
C1696 C279 1.379 . S
C1708 C759 1.337 . S
C1723 C215 1.427 . S
C1735 C718 1.166 . S
C1750 C509 1.439 . S
C1762 C594 1.413 1_565 S
C1789 C615 1.353 . S
C1777 C541 1.336 . S
C1804 C573 1.488 . S
C1816 C635 1.445 . S
C1831 C221 1.558 . S
C1843 C614 1.542 . S
C1858 C253 1.393 . S
C1870 C636 1.377 . S
C1897 C593 1.516 . S
C1885 C285 1.526 . S
C1912 C125 1.438 . S
C1924 C657 1.372 . S
C1939 C157 1.374 . S
C1951 C678 1.422 . S
C1966 C189 1.488 . S
C1978 C698 1.445 . S
C1993 C413 1.526 . S
C2005 C677 1.484 . S
C2032 C699 1.442 . S
C2020 C445 1.413 . S
C2047 C477 1.531 . S
C2059 C656 1.492 . S
C2074 C317 1.432 . S
C2086 C720 1.383 . S
C2101 C349 1.389 . S
C2113 C741 1.426 . S
C2140 C761 1.485 . S
C2128 C381 1.502 . S
C2155 C29 1.526 . S
C2167 C740 1.487 . S
C2182 C61 1.363 . S
C2194 C762 1.410 . S
C2209 C93 1.519 . S
C2221 C719 1.500 . S
