# Generated by pormake.
# Topology anh, (6,3)-cn, num edge types: 1
# Building blocks:
#     Node 0, Type 0, BuildingBlock: VOLQOD_clean_sbu_1, # of connection points: 6
#     Node 1, Type 0, BuildingBlock: VOLQOD_clean_sbu_1, # of connection points: 6
#     Node 2, Type 0, BuildingBlock: VOLQOD_clean_sbu_1, # of connection points: 6
#     Node 3, Type 1, BuildingBlock: VETTIZ_charged_linker_0, # of connection points: 3
#     Node 4, Type 1, BuildingBlock: VETTIZ_charged_linker_0, # of connection points: 3
#     Node 5, Type 1, BuildingBlock: VETTIZ_charged_linker_0, # of connection points: 3
#     Node 6, Type 1, BuildingBlock: VETTIZ_charged_linker_0, # of connection points: 3
#     Node 7, Type 1, BuildingBlock: VETTIZ_charged_linker_0, # of connection points: 3
#     Node 8, Type 1, BuildingBlock: VETTIZ_charged_linker_0, # of connection points: 3
#     Edge 9, Type (0, 1), BuildingBlock: AJUNOK_clean_linker_0, # of connection points: 2
#     Edge 10, Type (0, 1), BuildingBlock: AJUNOK_clean_linker_0, # of connection points: 2
#     Edge 11, Type (0, 1), BuildingBlock: AJUNOK_clean_linker_0, # of connection points: 2
#     Edge 12, Type (0, 1), BuildingBlock: AJUNOK_clean_linker_0, # of connection points: 2
#     Edge 13, Type (0, 1), BuildingBlock: AJUNOK_clean_linker_0, # of connection points: 2
#     Edge 14, Type (0, 1), BuildingBlock: AJUNOK_clean_linker_0, # of connection points: 2
#     Edge 15, Type (0, 1), BuildingBlock: AJUNOK_clean_linker_0, # of connection points: 2
#     Edge 16, Type (0, 1), BuildingBlock: AJUNOK_clean_linker_0, # of connection points: 2
#     Edge 17, Type (0, 1), BuildingBlock: AJUNOK_clean_linker_0, # of connection points: 2
#     Edge 18, Type (0, 1), BuildingBlock: AJUNOK_clean_linker_0, # of connection points: 2
#     Edge 19, Type (0, 1), BuildingBlock: AJUNOK_clean_linker_0, # of connection points: 2
#     Edge 20, Type (0, 1), BuildingBlock: AJUNOK_clean_linker_0, # of connection points: 2
#     Edge 21, Type (0, 1), BuildingBlock: AJUNOK_clean_linker_0, # of connection points: 2
#     Edge 22, Type (0, 1), BuildingBlock: AJUNOK_clean_linker_0, # of connection points: 2
#     Edge 23, Type (0, 1), BuildingBlock: AJUNOK_clean_linker_0, # of connection points: 2
#     Edge 24, Type (0, 1), BuildingBlock: AJUNOK_clean_linker_0, # of connection points: 2
#     Edge 25, Type (0, 1), BuildingBlock: AJUNOK_clean_linker_0, # of connection points: 2
#     Edge 26, Type (0, 1), BuildingBlock: AJUNOK_clean_linker_0, # of connection points: 2
# Relax obj value: 0.169
# Max RMSD: 0.231
# Mean RMSD: 0.116
data_MOF--net-anh--node1-VOLQOD_clean_sbu_1--node2-VETTIZ_charged_linker_0--edge1-AJUNOK_clean_linker_0
_symmetry_space_group_name_H-M    P1
_symmetry_Int_Tables_number       1
_symmetry_cell_setting            triclinic
loop_
_symmetry_equiv_pos_as_xyz
'x, y, z'
_cell_length_a     27.262865
_cell_length_b     27.229911
_cell_length_c     59.069133
_cell_angle_alpha  90.014968
_cell_angle_beta   89.733176
_cell_angle_gamma 120.37688
loop_
_atom_site_label
_atom_site_type_symbol
_atom_site_fract_x
_atom_site_fract_y
_atom_site_fract_z
_atom_type_partial_charge
O0 O -0.00149 0.56203 0.21343 0.0
Zn1 Zn -5e-05 0.57604 0.17992 0.0
O2 O 0.00504 0.51675 0.16333 0.0
Zn3 Zn 0.93558 0.46823 0.14664 0.0
Zn4 Zn 0.01862 0.47 0.18438 0.0
Zn5 Zn 0.06726 0.55287 0.1421 0.0
O6 O 0.94963 0.47179 0.11285 0.0
O7 O 0.03979 0.5407 0.11011 0.0
O8 O 0.92868 0.57704 0.17187 0.0
O9 O 0.88257 0.49725 0.15176 0.0
O10 O 0.89393 0.387 0.15802 0.0
O11 O 0.94962 0.39254 0.18639 0.0
O12 O 0.08518 0.46141 0.17493 0.0
O13 O 0.06908 0.65335 0.17431 0.0
O14 O 0.11553 0.51786 0.14482 0.0
O15 O 0.11729 0.6364 0.14825 0.0
C16 C 0.01419 0.53331 0.22525 0.0
C17 C -0.00701 0.50508 0.1009 0.0
C18 C 0.90428 0.3649 0.17497 0.0
C19 C 0.88473 0.54012 0.16136 0.0
C20 C 0.11916 0.4833 0.15822 0.0
C21 C 0.11249 0.67061 0.16151 0.0
O22 O 0.02849 0.50017 0.21597 0.0
O23 O 0.46281 0.0119 0.44475 0.0
Zn24 Zn 0.44184 0.01562 0.47695 0.0
O25 O 0.49389 0.00886 0.49741 0.0
Zn26 Zn 0.53493 0.07715 0.51544 0.0
Zn27 Zn 0.54884 -0.0023 0.48004 0.0
Zn28 Zn 0.44972 0.94517 0.51764 0.0
O29 O 0.5239 0.06113 0.54891 0.0
O30 O 0.45691 0.97006 0.54987 0.0
O31 O 0.43962 0.08766 0.48221 0.0
O32 O 0.50682 0.12987 0.50833 0.0
O33 O 0.61765 0.12033 0.50762 0.0
O34 O 0.62695 0.06773 0.48126 0.0
O35 O 0.55325 0.93072 0.49216 0.0
O36 O 0.36309 0.94889 0.4802 0.0
O37 O 0.47958 0.89214 0.516 0.0
O38 O 0.36706 0.90015 0.50953 0.0
C39 C 0.49399 0.99531 0.43533 0.0
C40 C 0.48948 0.0166 0.55996 0.0
C41 C 0.64795 0.11274 0.49321 0.0
C42 C 0.46976 0.12938 0.49522 0.0
C43 C 0.52067 0.89167 0.50594 0.0
C44 C 0.33939 0.90693 0.49379 0.0
O45 O 0.5268 0.98465 0.44698 0.0
O46 O 0.45179 0.45668 0.78131 0.0
Zn47 Zn 0.43879 0.44462 0.81495 0.0
O48 O 0.50407 0.5049 0.83122 0.0
Zn49 Zn 0.47992 0.5474 0.84983 0.0
Zn50 Zn 0.56227 0.55771 0.81002 0.0
Zn51 Zn 0.53544 0.47049 0.85078 0.0
O52 O 0.49191 0.54101 0.88285 0.0
O53 O 0.52526 0.48185 0.88366 0.0
O54 O 0.36515 0.44139 0.8234 0.0
O55 O 0.39717 0.5164 0.84611 0.0
O56 O 0.51625 0.62888 0.84061 0.0
O57 O 0.5692 0.63494 0.811 0.0
O58 O 0.63925 0.56754 0.81686 0.0
O59 O 0.42994 0.36798 0.82125 0.0
O60 O 0.61822 0.50442 0.84459 0.0
O61 O 0.49932 0.38687 0.84532 0.0
C62 C 0.49471 0.49003 0.76919 0.0
C63 C 0.50835 0.51183 0.89385 0.0
C64 C 0.54898 0.65716 0.82431 0.0
C65 C 0.35685 0.47491 0.83571 0.0
C66 C 0.65369 0.54213 0.83108 0.0
C67 C 0.45747 0.35165 0.8334 0.0
O68 O 0.54039 0.52894 0.77816 0.0
C69 C 0.66679 0.12365 0.1994 0.0
C70 C 0.71972 0.1516 0.2105 0.0
C71 C 0.72532 0.12963 0.23133 0.0
C72 C 0.62439 0.06301 0.23224 0.0
C73 C 0.61987 0.07869 0.21047 0.0
C74 C 0.56052 0.04234 0.20133 0.0
H75 H 0.2855 0.84242 0.22221 0.0
C76 C 0.56732 0.02061 0.2403 0.0
C77 C 0.52967 0.00677 0.22211 0.0
H78 H 0.36321 0.91137 0.15721 0.0
H79 H 0.45385 0.9724 0.17556 0.0
H80 H 0.37966 0.82344 0.24056 0.0
H81 H 0.35089 0.96359 0.24935 0.0
H82 H 0.37597 0.95453 0.27536 0.0
H83 H 0.31009 0.89752 0.26424 0.0
H84 H 0.32377 0.81915 0.25817 0.0
H85 H 0.39425 0.8444 0.26903 0.0
C86 C 0.56259 0.0054 0.18176 0.0
C87 C 0.53732 0.0814 0.19424 0.0
C88 C 0.5327 0.98802 0.32493 0.0
C89 C 0.48271 0.95861 0.33788 0.0
C90 C 0.43067 0.92373 0.32687 0.0
C91 C 0.42796 0.9207 0.30321 0.0
C92 C 0.47782 0.953 0.2904 0.0
C93 C 0.52926 0.98495 0.30127 0.0
C94 C 0.57778 0.01662 0.28489 0.0
C95 C 0.54635 0.00024 0.26243 0.0
C96 C 0.48797 0.96319 0.26583 0.0
C97 C 0.6193 0.99363 0.28717 0.0
C98 C 0.60527 0.08107 0.28986 0.0
C99 C 0.32162 0.87173 0.21195 0.0
C100 C 0.31717 0.87296 0.18832 0.0
C101 C 0.36572 0.91014 0.17548 0.0
C102 C 0.41819 0.94502 0.18611 0.0
C103 C 0.42214 0.94199 0.20975 0.0
C104 C 0.37417 0.90601 0.22223 0.0
C105 C 0.38633 0.90644 0.24701 0.0
C106 C 0.4501 0.94639 0.24725 0.0
C107 C 0.4708 0.96788 0.22548 0.0
C108 C 0.36992 0.84525 0.25429 0.0
C109 C 0.35406 0.93136 0.25984 0.0
H110 H 0.6843 0.07236 0.25851 0.0
H111 H 0.6615 0.13776 0.18293 0.0
H112 H 0.54404 0.1121 0.20798 0.0
H113 H 0.49123 0.05753 0.19085 0.0
H114 H 0.5594 0.10615 0.17879 0.0
H115 H 0.60078 0.00075 0.18282 0.0
H116 H 0.56381 0.02443 0.16499 0.0
H117 H 0.52612 0.96123 0.1823 0.0
H118 H 0.57328 0.01476 0.33304 0.0
H119 H 0.39184 0.8996 0.3366 0.0
H120 H 0.38693 0.89417 0.29583 0.0
H121 H 0.5996 0.95213 0.29627 0.0
H122 H 0.65811 0.02377 0.29666 0.0
H123 H 0.63202 0.98506 0.27044 0.0
H124 H 0.57227 0.09362 0.29034 0.0
H125 H 0.6368 0.10831 0.27706 0.0
H126 H 0.62709 0.09178 0.30649 0.0
H127 H 0.76627 0.1476 0.23954 0.0
C128 C 0.67788 0.08585 0.24232 0.0
C129 C 0.53926 0.66269 0.5295 0.0
C130 C 0.553 0.7133 0.54074 0.0
C131 C 0.56334 0.71781 0.56417 0.0
C132 C 0.53809 0.61887 0.56537 0.0
C133 C 0.53192 0.61608 0.54211 0.0
C134 C 0.51307 0.5578 0.53299 0.0
H135 H 0.43552 0.28394 0.55224 0.0
C136 C 0.52057 0.56114 0.57364 0.0
C137 C 0.50616 0.52535 0.55474 0.0
H138 H 0.46748 0.37115 0.4881 0.0
H139 H 0.48395 0.45666 0.5072 0.0
H140 H 0.53852 0.37884 0.57644 0.0
H141 H 0.36566 0.34358 0.5765 0.0
H142 H 0.39135 0.36158 0.60428 0.0
H143 H 0.38682 0.29958 0.59115 0.0
H144 H 0.48281 0.31997 0.59178 0.0
H145 H 0.52248 0.38987 0.60413 0.0
C146 C 0.56148 0.56164 0.51778 0.0
C147 C 0.45549 0.5359 0.52076 0.0
C148 C 0.50792 0.52209 0.65811 0.0
C149 C 0.48961 0.47221 0.67086 0.0
C150 C 0.47162 0.42033 0.65954 0.0
C151 C 0.47119 0.41806 0.63583 0.0
C152 C 0.48916 0.46827 0.6233 0.0
C153 C 0.50724 0.51915 0.63447 0.0
C154 C 0.52405 0.56805 0.61844 0.0
C155 C 0.51332 0.53819 0.59578 0.0
C156 C 0.49283 0.47978 0.59873 0.0
C157 C 0.58794 0.61183 0.62196 0.0
C158 C 0.48379 0.59185 0.62263 0.0
C159 C 0.44433 0.32113 0.54239 0.0
C160 C 0.44968 0.3213 0.51875 0.0
C161 C 0.4628 0.3705 0.50635 0.0
C162 C 0.47297 0.42008 0.51751 0.0
C163 C 0.47064 0.42042 0.54129 0.0
C164 C 0.45559 0.37126 0.55334 0.0
C165 C 0.45854 0.38056 0.57853 0.0
C166 C 0.47941 0.44379 0.57958 0.0
C167 C 0.48594 0.46658 0.55774 0.0
C168 C 0.50248 0.36631 0.58844 0.0
C169 C 0.39767 0.34431 0.58833 0.0
H170 H 0.56253 0.67595 0.59453 0.0
H171 H 0.53129 0.65861 0.51144 0.0
H172 H 0.42783 0.5478 0.53037 0.0
H173 H 0.43047 0.4891 0.51936 0.0
H174 H 0.46194 0.55459 0.50353 0.0
H175 H 0.60367 0.59802 0.52267 0.0
H176 H 0.55464 0.56759 0.4997 0.0
H177 H 0.56633 0.52383 0.51942 0.0
H178 H 0.52172 0.56251 0.66637 0.0
H179 H 0.45838 0.38156 0.66905 0.0
H180 H 0.45703 0.37734 0.62819 0.0
H181 H 0.61197 0.59006 0.62624 0.0
H182 H 0.59409 0.6415 0.63601 0.0
H183 H 0.6089 0.63672 0.60653 0.0
H184 H 0.43986 0.55682 0.6265 0.0
H185 H 0.4792 0.61353 0.60772 0.0
H186 H 0.49837 0.62167 0.63719 0.0
H187 H 0.57375 0.75672 0.57304 0.0
C188 C 0.55604 0.67074 0.57659 0.0
C189 C 0.11108 0.46433 0.85812 0.0
C190 C 0.14602 0.44682 0.86838 0.0
C191 C 0.13901 0.43282 0.89156 0.0
C192 C 0.06825 0.46126 0.89458 0.0
C193 C 0.07267 0.47136 0.87152 0.0
C194 C 0.03478 0.49299 0.86357 0.0
H195 H 0.84302 0.57248 0.8883 0.0
C196 C 0.02886 0.4784 0.90393 0.0
C197 C 0.00884 0.49663 0.88582 0.0
H198 H 0.89874 0.55111 0.82237 0.0
H199 H 0.96511 0.52866 0.83981 0.0
H200 H 0.82982 0.46441 0.90899 0.0
H201 H 0.97257 0.63535 0.91271 0.0
H202 H 0.96256 0.60458 0.93972 0.0
H203 H 0.90688 0.61318 0.92744 0.0
H204 H 0.82886 0.51782 0.92649 0.0
H205 H 0.85651 0.47416 0.93663 0.0
C206 C 0.98973 0.44799 0.84741 0.0
C207 C 0.07257 0.55252 0.85275 0.0
C208 C 0.00271 0.47997 0.98902 0.0
C209 C 0.97272 0.49814 0.00274 0.0
C210 C 0.93853 0.5169 0.99249 0.0
C211 C 0.9358 0.51936 0.96885 0.0
C212 C 0.96744 0.50269 0.95533 0.0
C213 C -0.0003 0.48284 0.96547 0.0
C214 C 0.03116 0.46772 0.9485 0.0
C215 C 0.01275 0.48208 0.92647 0.0
C216 C 0.97561 0.50269 0.93059 0.0
C217 C 0.00941 0.40316 0.9506 0.0
C218 C 0.09573 0.50673 0.95276 0.0
C219 C 0.87099 0.56482 0.87769 0.0
C220 C 0.86667 0.56435 0.854 0.0
C221 C 0.90205 0.55216 0.84066 0.0
C222 C 0.93997 0.53857 0.85084 0.0
C223 C 0.94185 0.53641 0.87458 0.0
C224 C 0.90835 0.55024 0.88761 0.0
C225 C 0.91361 0.54251 0.91252 0.0
C226 C 0.9545 0.52014 0.91224 0.0
C227 C 0.97118 0.51719 0.89001 0.0
C228 C 0.85425 0.49776 0.92185 0.0
C229 C 0.93989 0.60171 0.9239 0.0
H230 H 0.09796 0.43026 0.92245 0.0
H231 H 0.11547 0.4748 0.84026 0.0
H232 H 0.11173 0.5781 0.86291 0.0
H233 H 0.05164 0.57815 0.8521 0.0
H234 H 0.08592 0.54885 0.83533 0.0
H235 H 0.98221 0.40459 0.85099 0.0
H236 H 0.00341 0.45796 0.82944 0.0
H237 H 0.94743 0.44385 0.84945 0.0
H238 H 0.02856 0.46445 0.99648 0.0
H239 H 0.91507 0.53105 0.00279 0.0
H240 H 0.90964 0.53475 0.96204 0.0
H241 H 0.96367 0.37912 0.9555 0.0
H242 H 0.03341 0.39474 0.96367 0.0
H243 H 0.01152 0.38395 0.9344 0.0
H244 H 0.10582 0.55058 0.95721 0.0
H245 H 0.12217 0.51211 0.93774 0.0
H246 H 0.11001 0.4904 0.96698 0.0
H247 H 0.16582 0.41941 0.89973 0.0
C248 C 0.10017 0.43986 0.90474 0.0
C249 C 0.89297 0.35244 0.46669 0.0
C250 C 0.85292 0.3013 0.45626 0.0
C251 C 0.85137 0.29807 0.43243 0.0
C252 C 0.92281 0.39785 0.42988 0.0
C253 C 0.92675 0.40039 0.45323 0.0
C254 C 0.96709 0.45979 0.46151 0.0
H255 H 0.11753 0.74114 0.43754 0.0
C256 C 0.95741 0.45608 0.42093 0.0
C257 C 0.98267 0.49283 0.43936 0.0
H258 H 0.12318 0.65741 0.49894 0.0
H259 H 0.05245 0.56678 0.48378 0.0
H260 H 0.14469 0.67021 0.41104 0.0
H261 H 0.98097 0.65363 0.42083 0.0
H262 H 0.99029 0.64579 0.39171 0.0
H263 H 0.03948 0.71089 0.40589 0.0
H264 H 0.1206 0.70644 0.39297 0.0
H265 H 0.10692 0.63573 0.38663 0.0
C266 C 0.01905 0.46053 0.47248 0.0
C267 C 0.93454 0.47813 0.47772 0.0
C268 C 0.97165 0.49224 0.3362 0.0
C269 C -0.00094 0.54248 0.32326 0.0
C270 C 0.02319 0.59551 0.33424 0.0
C271 C 0.02246 0.59855 0.35787 0.0
C272 C -0.0022 0.54805 0.37065 0.0
C273 C 0.97173 0.49602 0.35982 0.0
C274 C 0.94585 0.44695 0.37624 0.0
C275 C 0.96453 0.4783 0.39866 0.0
C276 C -0.0053 0.53734 0.39521 0.0
C277 C 0.97308 0.40972 0.37208 0.0
C278 C 0.88027 0.41489 0.37336 0.0
C279 C 0.103 0.70359 0.44801 0.0
C280 C 0.12579 0.70721 0.46966 0.0
C281 C 0.10549 0.65677 0.48251 0.0
C282 C 0.06529 0.6038 0.47348 0.0
C283 C 0.0466 0.60092 0.45114 0.0
C284 C 0.06616 0.65035 0.43872 0.0
C285 C 0.05205 0.63908 0.41403 0.0
C286 C 0.01917 0.57463 0.41382 0.0
C287 C 0.01457 0.5525 0.43568 0.0
C288 C 0.10863 0.66427 0.40032 0.0
C289 C 0.01392 0.66383 0.40758 0.0
H290 H 0.88201 0.3412 0.4012 0.0
H291 H 0.89604 0.35571 0.48496 0.0
H292 H 0.89397 0.46976 0.46992 0.0
H293 H 0.9586 0.5239 0.48178 0.0
H294 H 0.92416 0.45409 0.49392 0.0
H295 H 0.02367 0.42418 0.46669 0.0
H296 H 0.01522 0.45791 0.49123 0.0
H297 H 0.05971 0.49896 0.46769 0.0
H298 H 0.95113 0.45091 0.32811 0.0
H299 H 0.04401 0.63469 0.32453 0.0
H300 H 0.04203 0.64013 0.36527 0.0
H301 H 0.01996 0.43691 0.37004 0.0
H302 H 0.95606 0.38399 0.35644 0.0
H303 H 0.96643 0.38068 0.38631 0.0
H304 H 0.86572 0.44187 0.36499 0.0
H305 H 0.85749 0.40291 0.38982 0.0
H306 H 0.86525 0.37604 0.36288 0.0
H307 H 0.82089 0.25923 0.42397 0.0
C308 C 0.88623 0.34598 0.41921 0.0
C309 C 0.54854 0.89846 0.79969 0.0
C310 C 0.55983 0.85963 0.78848 0.0
C311 C 0.56289 0.86073 0.76464 0.0
C312 C 0.53797 0.93422 0.76354 0.0
C313 C 0.53689 0.93462 0.78692 0.0
C314 C 0.51856 0.97447 0.79605 0.0
H315 H 0.43356 0.16427 0.77508 0.0
C316 C 0.51992 0.97371 0.75532 0.0
C317 C 0.50816 -0.00274 0.77426 0.0
H318 H 0.46225 0.11115 0.84019 0.0
H319 H 0.48565 0.0461 0.82175 0.0
H320 H 0.53896 0.17761 0.75206 0.0
H321 H 0.3678 0.03524 0.75191 0.0
H322 H 0.39407 0.04487 0.72404 0.0
H323 H 0.38848 0.10114 0.73764 0.0
H324 H 0.48452 0.17693 0.73488 0.0
H325 H 0.52745 0.14813 0.72485 0.0
C326 C 0.56858 0.02167 0.80969 0.0
C327 C 0.46309 0.93906 0.80993 0.0
C328 C 0.50559 -0.00266 0.67088 0.0
C329 C 0.48904 0.02996 0.65813 0.0
C330 C 0.47405 0.06619 0.6693 0.0
C331 C 0.47418 0.06879 0.69299 0.0
C332 C 0.4898 0.03504 0.70558 0.0
C333 C 0.50564 0.00051 0.69448 0.0
C334 C 0.5213 0.96793 0.71054 0.0
C335 C 0.51223 0.98859 0.73316 0.0
C336 C 0.49349 0.02752 0.73014 0.0
C337 C 0.58464 0.98678 0.70644 0.0
C338 C 0.47917 0.90347 0.70696 0.0
C339 C 0.44302 0.13725 0.78542 0.0
C340 C 0.44497 0.14182 0.80911 0.0
C341 C 0.45999 0.10779 0.8219 0.0
C342 C 0.47382 0.07038 0.81115 0.0
C343 C 0.47298 0.06739 0.78737 0.0
C344 C 0.45716 0.10011 0.77497 0.0
C345 C 0.46057 0.0933 0.74989 0.0
C346 C 0.48138 0.05124 0.74921 0.0
C347 C 0.4885 0.0361 0.77117 0.0
C348 C 0.50476 0.15188 0.73969 0.0
C349 C 0.39982 0.06766 0.74015 0.0
H350 H 0.55406 0.89573 0.73405 0.0
H351 H 0.54689 0.89939 0.818 0.0
H352 H 0.43566 0.89671 0.80202 0.0
H353 H 0.43634 0.95878 0.81064 0.0
H354 H 0.47252 0.93168 0.82747 0.0
H355 H 0.61003 0.0336 0.80153 0.0
H356 H 0.56934 0.00713 0.82719 0.0
H357 H 0.56762 0.06167 0.81048 0.0
H358 H 0.51827 0.96989 0.66265 0.0
H359 H 0.46132 0.09174 0.65968 0.0
H360 H 0.46184 0.09676 0.70056 0.0
H361 H 0.60992 0.033 0.70235 0.0
H362 H 0.58941 0.96322 0.69206 0.0
H363 H 0.60536 0.98153 0.72152 0.0
H364 H 0.43648 0.89555 0.70193 0.0
H365 H 0.47122 0.87807 0.72255 0.0
H366 H 0.49434 0.88599 0.69341 0.0
H367 H 0.57106 0.83098 0.75557 0.0
C368 C 0.5523 0.89794 0.75214 0.0
C369 C 0.6409 0.53396 0.13935 0.0
C370 C 0.69508 0.55363 0.12993 0.0
C371 C 0.70348 0.56418 0.10651 0.0
C372 C 0.60307 0.52858 0.10177 0.0
C373 C 0.59551 0.52161 0.12495 0.0
C374 C 0.53444 0.49783 0.13187 0.0
H375 H 0.26499 0.40985 0.10039 0.0
C376 C 0.54681 0.50641 0.09139 0.0
C377 C 0.50636 0.48834 0.10889 0.0
H378 H 0.33636 0.45132 0.16754 0.0
H379 H 0.42473 0.46226 0.15329 0.0
H380 H 0.35855 0.50933 0.07901 0.0
H381 H 0.33345 0.34032 0.08223 0.0
H382 H 0.35878 0.36666 0.05488 0.0
H383 H 0.29204 0.35869 0.06437 0.0
H384 H 0.30797 0.45264 0.06145 0.0
H385 H 0.38097 0.49738 0.05284 0.0
C386 C 0.53011 0.54367 0.14595 0.0
C387 C 0.51399 0.44095 0.14459 0.0
C388 C 0.52939 0.50518 0.00584 0.0
C389 C 0.48251 0.48673 0.99145 0.0
C390 C 0.42724 0.45927 0.00071 0.0
C391 C 0.41879 0.45183 0.02412 0.0
C392 C 0.46616 0.47249 0.03843 0.0
C393 C 0.52024 0.49779 0.02922 0.0
C394 C 0.56533 0.51622 0.04704 0.0
C395 C 0.5294 0.49904 0.06845 0.0
C396 C 0.47149 0.4736 0.06328 0.0
C397 C 0.60487 0.58167 0.04524 0.0
C398 C 0.5957 0.48155 0.04371 0.0
C399 C 0.29918 0.41947 0.11211 0.0
C400 C 0.29415 0.42999 0.13501 0.0
C401 C 0.3393 0.44271 0.14983 0.0
C402 C 0.39088 0.45025 0.14143 0.0
C403 C 0.39731 0.44598 0.11799 0.0
C404 C 0.35133 0.42915 0.10384 0.0
C405 C 0.36713 0.43274 0.07924 0.0
C406 C 0.43061 0.45653 0.08091 0.0
C407 C 0.44793 0.46361 0.1036 0.0
C408 C 0.35276 0.47477 0.06731 0.0
C409 C 0.33612 0.37164 0.06946 0.0
H410 H 0.6665 0.559 0.07458 0.0
H411 H 0.6337 0.52606 0.15737 0.0
H412 H 0.52815 0.41441 0.13552 0.0
H413 H 0.46723 0.41473 0.14577 0.0
H414 H 0.53166 0.44862 0.16198 0.0
H415 H 0.56683 0.58713 0.14275 0.0
H416 H 0.52906 0.5353 0.1644 0.0
H417 H 0.49234 0.5467 0.14145 0.0
H418 H 0.57229 0.52609 -0.00092 0.0
H419 H 0.39053 0.44362 0.98979 0.0
H420 H 0.37574 0.43112 0.03018 0.0
H421 H 0.58063 0.60254 0.03997 0.0
H422 H 0.63917 0.593 0.03255 0.0
H423 H 0.62414 0.60171 0.06158 0.0
H424 H 0.56523 0.43748 0.03799 0.0
H425 H 0.61379 0.47593 0.05951 0.0
H426 H 0.62989 0.50157 0.03073 0.0
H427 H 0.74496 0.579 0.09896 0.0
C428 C 0.65773 0.55173 0.09236 0.0
C429 C 0.19844 0.49221 0.13434 0.0
C430 C 0.16331 0.46816 0.15349 0.0
C431 C 0.23988 0.47886 0.12866 0.0
C432 C 0.2482 0.44072 0.14178 0.0
H433 H 0.19417 0.52185 0.12347 0.0
H434 H 0.26625 0.49932 0.11391 0.0
S435 S 0.16875 0.36609 0.19369 0.0
N436 N 0.14018 0.40433 0.18582 0.0
N437 N 0.21896 0.37925 0.17486 0.0
C438 C 0.21418 0.41655 0.1611 0.0
C439 C 0.17143 0.43011 0.16697 0.0
C440 C 0.7417 0.15131 0.47335 0.0
C441 C 0.70605 0.16035 0.48795 0.0
C442 C 0.79161 0.19709 0.46439 0.0
C443 C 0.80774 0.25365 0.46965 0.0
H444 H 0.72971 0.10868 0.46792 0.0
H445 H 0.81641 0.18824 0.45243 0.0
S446 S 0.73201 0.30058 0.50848 0.0
N447 N 0.69321 0.23048 0.50872 0.0
N448 N 0.78604 0.31619 0.49142 0.0
C449 C 0.77453 0.26323 0.48534 0.0
C450 C 0.72394 0.21666 0.49461 0.0
C451 C 0.60102 0.75019 0.80378 0.0
C452 C 0.55748 0.71406 0.81886 0.0
C453 C 0.60372 0.79938 0.79513 0.0
C454 C 0.56274 0.81406 0.80108 0.0
H455 H 0.63207 0.73932 0.79794 0.0
H456 H 0.6369 0.82495 0.78299 0.0
S457 S 0.44183 0.73557 0.84093 0.0
N458 N 0.47451 0.69853 0.84054 0.0
N459 N 0.47868 0.78987 0.8237 0.0
C460 C 0.52071 0.77997 0.81704 0.0
C461 C 0.51831 0.73023 0.82607 0.0
C462 C 0.84259 0.59931 0.15082 0.0
C463 C 0.83539 0.54756 0.15891 0.0
C464 C 0.7959 0.60256 0.14294 0.0
C465 C 0.74084 0.5545 0.14341 0.0
H466 H 0.88484 0.63608 0.14894 0.0
H467 H 0.80323 0.64185 0.13525 0.0
S468 S 0.6995 0.41161 0.16602 0.0
N469 N 0.76915 0.44924 0.16918 0.0
N470 N 0.68126 0.45545 0.15467 0.0
C471 C 0.73277 0.50403 0.1533 0.0
C472 C 0.78022 0.50053 0.16097 0.0
C473 C 0.26941 0.84261 0.46591 0.0
C474 C 0.28197 0.86014 0.48849 0.0
C475 C 0.21861 0.79387 0.46017 0.0
C476 C 0.17708 0.76138 0.47667 0.0
H477 H 0.30043 0.86507 0.45263 0.0
H478 H 0.21321 0.78056 0.44264 0.0
S479 S 0.18762 0.7938 0.53814 0.0
N480 N 0.2489 0.84375 0.52748 0.0
N481 N 0.15075 0.75372 0.51655 0.0
C482 C 0.18821 0.78012 0.49931 0.0
C483 C 0.24119 0.82914 0.50524 0.0
C484 C 0.48614 0.27887 0.8394 0.0
C485 C 0.44578 0.29242 0.83139 0.0
C486 C 0.48291 0.22749 0.83364 0.0
C487 C 0.43906 0.18768 0.81979 0.0
H488 H 0.5227 0.30958 0.84895 0.0
H489 H 0.51727 0.22085 0.83872 0.0
S490 S 0.316 0.19659 0.79864 0.0
N491 N 0.35557 0.25752 0.8119 0.0
N492 N 0.34953 0.16063 0.80129 0.0
C493 C 0.39546 0.19806 0.81354 0.0
C494 C 0.39877 0.2505 0.81931 0.0
C495 C 0.58505 0.85664 0.51805 0.0
C496 C 0.53086 0.84502 0.51127 0.0
C497 C 0.59282 0.81339 0.52707 0.0
C498 C 0.54685 0.7574 0.52894 0.0
H499 H 0.62083 0.8998 0.51752 0.0
H500 H 0.63448 0.82392 0.53311 0.0
S501 S 0.39774 0.7049 0.51198 0.0
N502 N 0.43145 0.77359 0.50601 0.0
N503 N 0.44629 0.69212 0.52241 0.0
C504 C 0.49321 0.74495 0.52118 0.0
C505 C 0.48514 0.78891 0.51245 0.0
C506 C 0.72513 0.5128 0.82635 0.0
C507 C 0.71267 0.55528 0.83214 0.0
C508 C 0.77761 0.51858 0.83182 0.0
C509 C 0.81862 0.56646 0.84371 0.0
H510 H 0.69301 0.47362 0.81857 0.0
H511 H 0.78449 0.4835 0.82818 0.0
S512 S 0.80768 0.69131 0.8611 0.0
N513 N 0.74628 0.64841 0.84875 0.0
N514 N 0.84501 0.65888 0.85961 0.0
C515 C 0.80772 0.61058 0.84852 0.0
C516 C 0.75457 0.60507 0.84258 0.0
C517 C 0.21503 0.74311 0.15496 0.0
C518 C 0.16188 0.72908 0.16442 0.0
C519 C 0.26497 0.79266 0.16136 0.0
C520 C 0.26363 0.83011 0.17737 0.0
H521 H 0.21887 0.71391 0.14365 0.0
H522 H 0.30526 0.79944 0.15497 0.0
S523 S 0.13487 0.81998 0.20342 0.0
N524 N 0.11042 0.76185 0.18791 0.0
N525 N 0.20451 0.85501 0.19978 0.0
C526 C 0.21048 0.81961 0.18526 0.0
C527 C 0.15955 0.76915 0.1788 0.0
C528 C 0.40874 0.17133 0.50246 0.0
C529 C 0.46159 0.17848 0.49597 0.0
C530 C 0.40391 0.21847 0.50862 0.0
C531 C 0.4515 0.27375 0.50784 0.0
H532 H 0.37207 0.129 0.50434 0.0
H533 H 0.36357 0.21155 0.51501 0.0
S534 S 0.59773 0.31455 0.48997 0.0
N535 N 0.56122 0.2445 0.48776 0.0
N536 N 0.55182 0.33324 0.49867 0.0
C537 C 0.50351 0.28147 0.49989 0.0
C538 C 0.50864 0.23365 0.4941 0.0
C539 C 0.25532 0.41138 0.84653 0.0
C540 C 0.29923 0.46499 0.83931 0.0
C541 C 0.20414 0.40474 0.85503 0.0
C542 C 0.19518 0.45124 0.85598 0.0
H543 H 0.262 0.3754 0.84705 0.0
H544 H 0.17227 0.36366 0.86166 0.0
S545 S 0.29528 0.59892 0.83703 0.0
N546 N 0.32934 0.56415 0.83219 0.0
N547 N 0.23289 0.55153 0.84769 0.0
C548 C 0.23748 0.50408 0.84744 0.0
C549 C 0.28966 0.51099 0.8392 0.0
C550 C 0.82576 0.26388 0.16946 0.0
C551 C 0.85915 0.30979 0.18391 0.0
C552 C 0.78119 0.21234 0.17812 0.0
C553 C 0.76793 0.20557 0.20142 0.0
H554 H 0.8344 0.26774 0.15143 0.0
H555 H 0.75707 0.17761 0.16649 0.0
S556 S 0.8384 0.31657 0.24568 0.0
N557 N 0.87402 0.34684 0.22223 0.0
N558 N 0.78886 0.25177 0.23832 0.0
C559 C 0.80021 0.25215 0.21584 0.0
C560 C 0.84614 0.3038 0.20713 0.0
C561 C 0.93522 0.47535 0.06533 0.0
C562 C 0.98888 0.50287 0.07583 0.0
C563 C 0.93024 0.47403 0.04168 0.0
C564 C 0.97869 0.49955 0.02767 0.0
H565 H 0.89664 0.4552 0.07542 0.0
H566 H 0.88817 0.45255 0.0343 0.0
S567 S 0.12893 0.5771 0.04638 0.0
N568 N 0.0916 0.55618 0.0701 0.0
N569 N 0.08184 0.55376 0.02577 0.0
C570 C 0.03252 0.52696 0.03785 0.0
C571 C 0.03771 0.52864 0.06189 0.0
C572 C 0.52638 0.97038 0.39951 0.0
C573 C 0.49067 0.98664 0.4104 0.0
C574 C 0.52347 0.9611 0.37607 0.0
C575 C 0.48441 0.96718 0.36268 0.0
H576 H 0.55696 0.96476 0.4091 0.0
H577 H 0.55171 0.94865 0.36839 0.0
S578 S 0.38289 0.01106 0.38234 0.0
N579 N 0.41565 0.00959 0.40553 0.0
N580 N 0.41083 0.99242 0.3616 0.0
C581 C 0.44876 0.98373 0.3732 0.0
C582 C 0.45175 0.99343 0.39701 0.0
C583 C 0.5397 0.52033 0.73084 0.0
C584 C 0.49194 0.48369 0.74416 0.0
C585 C 0.5386 0.51602 0.70722 0.0
C586 C 0.48982 0.47478 0.69591 0.0
H587 H 0.57849 0.55288 0.73865 0.0
H588 H 0.57643 0.54507 0.69772 0.0
S589 S 0.35287 0.36923 0.72242 0.0
N590 N 0.39393 0.40482 0.74395 0.0
N591 N 0.39214 0.39737 0.6995 0.0
C592 C 0.44176 0.43778 0.70886 0.0
C593 C 0.44272 0.44212 0.73297 0.0
C594 C 0.51721 0.0717 0.59622 0.0
C595 C 0.48755 0.0189 0.58502 0.0
C596 C 0.51675 0.07509 0.61987 0.0
C597 C 0.48709 0.02581 0.63319 0.0
H598 H 0.54111 0.11087 0.58668 0.0
H599 H 0.5406 0.11647 0.62782 0.0
S600 S 0.40073 0.87751 0.61262 0.0
N601 N 0.42623 0.91617 0.5894 0.0
N602 N 0.42561 0.92309 0.63382 0.0
C603 C 0.45669 0.97291 0.62236 0.0
C604 C 0.45681 0.96932 0.59829 0.0
C605 C 0.52952 0.4839 0.93129 0.0
C606 C 0.50454 0.50979 0.91891 0.0
C607 C 0.52314 0.47757 0.95483 0.0
C608 C 0.4911 0.49635 0.9668 0.0
H609 H 0.55368 0.4677 0.92275 0.0
H610 H 0.54227 0.45658 0.96366 0.0
S611 S 0.41997 0.57006 0.94297 0.0
N612 N 0.44852 0.55672 0.92082 0.0
N613 N 0.43683 0.5446 0.96506 0.0
C614 C 0.46711 0.52354 0.95484 0.0
C615 C 0.47384 0.53041 0.93091 0.0
C616 C -0.00692 0.56981 0.2607 0.0
C617 C 0.01289 0.53642 0.25032 0.0
C618 C 0.98877 0.57158 0.28427 0.0
C619 C 0.00385 0.53988 0.29839 0.0
H620 H 0.98016 0.59445 0.25058 0.0
H621 H 0.97276 0.59737 0.2915 0.0
S622 S 0.06147 0.44851 0.2802 0.0
N623 N 0.04987 0.47251 0.25636 0.0
N624 N 0.04203 0.4765 0.30065 0.0
C625 C 0.02457 0.50709 0.2884 0.0
C626 C 0.02911 0.50526 0.26439 0.0
loop_
_geom_bond_atom_site_label_1
_geom_bond_atom_site_label_2
_geom_bond_distance
_geom_bond_site_symmetry_2
_ccdc_geom_bond_type
O0 Zn1 1.953 . S
O0 C16 1.225 1_655 S
Zn1 O0 1.953 . S
Zn1 O2 1.949 1_655 S
Zn1 O8 1.919 . S
Zn1 O13 1.924 1_655 S
O2 Zn1 1.949 1_455 S
O2 Zn3 1.923 1_455 S
O2 Zn4 1.950 . S
O2 Zn5 1.945 . S
Zn3 O2 1.923 1_655 S
Zn3 O6 1.933 . S
Zn3 O9 1.941 . S
Zn3 O10 1.965 . S
Zn4 O2 1.950 . S
Zn4 O11 1.938 1_455 S
Zn4 O12 1.906 . S
Zn4 O22 1.953 . S
Zn5 O2 1.945 . S
Zn5 O7 1.932 . S
Zn5 O14 1.977 . S
Zn5 O15 1.910 . S
O6 Zn3 1.933 . S
O6 C17 1.226 1_655 S
O7 Zn5 1.932 . S
O7 C17 1.307 . S
O8 Zn1 1.919 . S
O8 C19 1.253 . S
O9 Zn3 1.941 . S
O9 C19 1.283 . S
O10 Zn3 1.965 . S
O10 C18 1.303 . S
O11 Zn4 1.938 1_655 S
O11 C18 1.247 . S
O12 Zn4 1.906 . S
O12 C20 1.304 . S
O13 Zn1 1.924 1_455 S
O13 C21 1.311 . S
O14 Zn5 1.977 . S
O14 C20 1.272 . S
O15 Zn5 1.910 . S
O15 C21 1.231 . S
C16 O0 1.225 1_455 S
C16 O22 1.298 . S
C17 O6 1.226 1_455 S
C17 O7 1.307 . S
C18 O10 1.303 . S
C18 O11 1.247 . S
C19 O8 1.253 . S
C19 O9 1.283 . S
C20 O12 1.304 . S
C20 O14 1.272 . S
C21 O13 1.311 . S
C21 O15 1.231 . S
O22 Zn4 1.953 . S
O22 C16 1.298 . S
O23 Zn24 1.953 . S
O23 C39 1.225 . S
Zn24 O23 1.953 . S
Zn24 O25 1.949 . S
Zn24 O31 1.919 . S
Zn24 O36 1.924 1_545 S
O25 Zn24 1.949 . S
O25 Zn26 1.923 . S
O25 Zn27 1.950 1_545 S
O25 Zn28 1.945 1_545 S
Zn26 O25 1.923 . S
Zn26 O29 1.933 . S
Zn26 O32 1.941 . S
Zn26 O33 1.965 . S
Zn27 O25 1.950 1_565 S
Zn27 O34 1.938 1_565 S
Zn27 O35 1.906 . S
Zn27 O45 1.953 . S
Zn28 O25 1.945 1_565 S
Zn28 O30 1.932 . S
Zn28 O37 1.977 . S
Zn28 O38 1.910 . S
O29 Zn26 1.933 . S
O29 C40 1.226 . S
O30 Zn28 1.932 . S
O30 C40 1.307 1_565 S
O31 Zn24 1.919 . S
O31 C42 1.253 . S
O32 Zn26 1.941 . S
O32 C42 1.283 . S
O33 Zn26 1.965 . S
O33 C41 1.303 . S
O34 Zn27 1.938 1_545 S
O34 C41 1.247 . S
O35 Zn27 1.906 . S
O35 C43 1.304 . S
O36 Zn24 1.924 1_565 S
O36 C44 1.311 . S
O37 Zn28 1.977 . S
O37 C43 1.272 . S
O38 Zn28 1.910 . S
O38 C44 1.231 . S
C39 O23 1.225 . S
C39 O45 1.298 1_545 S
C40 O29 1.226 . S
C40 O30 1.307 1_545 S
C41 O33 1.303 . S
C41 O34 1.247 . S
C42 O31 1.253 . S
C42 O32 1.283 . S
C43 O35 1.304 . S
C43 O37 1.272 . S
C44 O36 1.311 . S
C44 O38 1.231 . S
O45 Zn27 1.953 . S
O45 C39 1.298 1_565 S
O46 Zn47 1.953 . S
O46 C62 1.225 . S
Zn47 O46 1.953 . S
Zn47 O48 1.949 . S
Zn47 O54 1.919 . S
Zn47 O59 1.924 . S
O48 Zn47 1.949 . S
O48 Zn49 1.923 . S
O48 Zn50 1.950 . S
O48 Zn51 1.945 . S
Zn49 O48 1.923 . S
Zn49 O52 1.933 . S
Zn49 O55 1.941 . S
Zn49 O56 1.965 . S
Zn50 O48 1.950 . S
Zn50 O57 1.938 . S
Zn50 O58 1.906 . S
Zn50 O68 1.953 . S
Zn51 O48 1.945 . S
Zn51 O53 1.932 . S
Zn51 O60 1.977 . S
Zn51 O61 1.910 . S
O52 Zn49 1.933 . S
O52 C63 1.226 . S
O53 Zn51 1.932 . S
O53 C63 1.307 . S
O54 Zn47 1.919 . S
O54 C65 1.253 . S
O55 Zn49 1.941 . S
O55 C65 1.283 . S
O56 Zn49 1.965 . S
O56 C64 1.303 . S
O57 Zn50 1.938 . S
O57 C64 1.247 . S
O58 Zn50 1.906 . S
O58 C66 1.304 . S
O59 Zn47 1.924 . S
O59 C67 1.311 . S
O60 Zn51 1.977 . S
O60 C66 1.272 . S
O61 Zn51 1.910 . S
O61 C67 1.231 . S
C62 O46 1.225 . S
C62 O68 1.298 . S
C63 O52 1.226 . S
C63 O53 1.307 . S
C64 O56 1.303 . S
C64 O57 1.247 . S
C65 O54 1.253 . S
C65 O55 1.283 . S
C66 O58 1.304 . S
C66 O60 1.272 . S
C67 O59 1.311 . S
C67 O61 1.231 . S
O68 Zn50 1.953 . S
O68 C62 1.298 . S
C69 C70 1.391 . S
C69 C73 1.391 . S
C69 H111 0.948 . S
C70 C69 1.391 . S
C70 C71 1.391 . S
C71 C70 1.391 . S
C71 H127 0.947 . S
C71 C128 1.392 . S
C72 C73 1.391 . S
C72 C76 1.397 . S
C72 C128 1.419 . S
C73 C69 1.391 . S
C73 C72 1.391 . S
C73 C74 1.399 . S
C74 C73 1.399 . S
C74 C77 1.396 . S
C74 C86 1.453 . S
C74 C87 1.684 . S
H75 C99 0.948 . S
C76 C72 1.397 . S
C76 C77 1.394 . S
C76 C95 1.723 . S
C77 C74 1.396 . S
C77 C76 1.394 . S
C77 C107 1.723 1_545 S
H78 C101 0.947 . S
H79 C102 0.948 . S
H80 C108 0.982 . S
H81 C109 0.979 . S
H82 C109 0.980 . S
H83 C109 0.983 . S
H84 C108 0.979 . S
H85 C108 0.977 . S
C86 C74 1.453 . S
C86 H115 0.982 . S
C86 H116 0.979 . S
C86 H117 0.977 1_545 S
C87 C74 1.684 . S
C87 H112 0.979 . S
C87 H113 0.980 . S
C87 H114 0.983 . S
C88 C89 1.391 . S
C88 C93 1.391 . S
C88 H118 0.948 . S
C89 C88 1.391 . S
C89 C90 1.391 1_545 S
C90 C89 1.391 1_565 S
C90 C91 1.392 . S
C90 H119 0.947 . S
C91 C90 1.392 . S
C91 C92 1.419 . S
C91 H120 0.948 . S
C92 C91 1.419 . S
C92 C93 1.391 1_565 S
C92 C96 1.397 1_565 S
C93 C88 1.391 . S
C93 C92 1.391 1_545 S
C93 C94 1.399 . S
C94 C93 1.399 . S
C94 C95 1.396 . S
C94 C97 1.453 . S
C94 C98 1.684 . S
C95 C76 1.723 . S
C95 C94 1.396 . S
C95 C96 1.394 . S
C96 C92 1.397 1_545 S
C96 C95 1.394 . S
C96 C106 1.723 1_545 S
C97 C94 1.453 . S
C97 H121 0.982 . S
C97 H122 0.979 . S
C97 H123 0.977 . S
C98 C94 1.684 . S
C98 H124 0.979 . S
C98 H125 0.980 . S
C98 H126 0.983 . S
C99 H75 0.948 . S
C99 C100 1.391 . S
C99 C104 1.391 . S
C100 C99 1.391 . S
C100 C101 1.391 . S
C101 H78 0.947 . S
C101 C100 1.391 . S
C101 C102 1.392 . S
C102 H79 0.948 . S
C102 C101 1.392 . S
C102 C103 1.419 . S
C103 C102 1.419 . S
C103 C104 1.391 . S
C103 C107 1.397 . S
C104 C99 1.391 . S
C104 C103 1.391 . S
C104 C105 1.399 . S
C105 C104 1.399 . S
C105 C106 1.396 . S
C105 C108 1.453 . S
C105 C109 1.684 . S
C106 C96 1.723 1_565 S
C106 C105 1.396 . S
C106 C107 1.394 . S
C107 C77 1.723 1_565 S
C107 C103 1.397 . S
C107 C106 1.394 . S
C108 H80 0.982 . S
C108 H84 0.979 . S
C108 H85 0.977 . S
C108 C105 1.453 . S
C109 H81 0.979 . S
C109 H82 0.980 . S
C109 H83 0.983 . S
C109 C105 1.684 . S
H110 C128 0.948 . S
H111 C69 0.948 . S
H112 C87 0.979 . S
H113 C87 0.980 . S
H114 C87 0.983 . S
H115 C86 0.982 . S
H116 C86 0.979 . S
H117 C86 0.977 1_565 S
H118 C88 0.948 . S
H119 C90 0.947 . S
H120 C91 0.948 . S
H121 C97 0.982 . S
H122 C97 0.979 . S
H123 C97 0.977 . S
H124 C98 0.979 . S
H125 C98 0.980 . S
H126 C98 0.983 . S
H127 C71 0.947 . S
C128 C71 1.392 . S
C128 C72 1.419 . S
C128 H110 0.948 . S
C129 C130 1.391 . S
C129 C133 1.391 . S
C129 H171 0.948 . S
C130 C129 1.391 . S
C130 C131 1.391 . S
C131 C130 1.391 . S
C131 H187 0.947 . S
C131 C188 1.392 . S
C132 C133 1.391 . S
C132 C136 1.397 . S
C132 C188 1.419 . S
C133 C129 1.391 . S
C133 C132 1.391 . S
C133 C134 1.399 . S
C134 C133 1.399 . S
C134 C137 1.396 . S
C134 C146 1.453 . S
C134 C147 1.684 . S
H135 C159 0.948 . S
C136 C132 1.397 . S
C136 C137 1.394 . S
C136 C155 1.723 . S
C137 C134 1.396 . S
C137 C136 1.394 . S
C137 C167 1.723 . S
H138 C161 0.947 . S
H139 C162 0.948 . S
H140 C168 0.982 . S
H141 C169 0.979 . S
H142 C169 0.980 . S
H143 C169 0.983 . S
H144 C168 0.979 . S
H145 C168 0.977 . S
C146 C134 1.453 . S
C146 H175 0.982 . S
C146 H176 0.979 . S
C146 H177 0.977 . S
C147 C134 1.684 . S
C147 H172 0.979 . S
C147 H173 0.980 . S
C147 H174 0.983 . S
C148 C149 1.391 . S
C148 C153 1.391 . S
C148 H178 0.948 . S
C149 C148 1.391 . S
C149 C150 1.391 . S
C150 C149 1.391 . S
C150 C151 1.392 . S
C150 H179 0.947 . S
C151 C150 1.392 . S
C151 C152 1.419 . S
C151 H180 0.948 . S
C152 C151 1.419 . S
C152 C153 1.391 . S
C152 C156 1.397 . S
C153 C148 1.391 . S
C153 C152 1.391 . S
C153 C154 1.399 . S
C154 C153 1.399 . S
C154 C155 1.396 . S
C154 C157 1.453 . S
C154 C158 1.684 . S
C155 C136 1.723 . S
C155 C154 1.396 . S
C155 C156 1.394 . S
C156 C152 1.397 . S
C156 C155 1.394 . S
C156 C166 1.723 . S
C157 C154 1.453 . S
C157 H181 0.982 . S
C157 H182 0.979 . S
C157 H183 0.977 . S
C158 C154 1.684 . S
C158 H184 0.979 . S
C158 H185 0.980 . S
C158 H186 0.983 . S
C159 H135 0.948 . S
C159 C160 1.391 . S
C159 C164 1.391 . S
C160 C159 1.391 . S
C160 C161 1.391 . S
C161 H138 0.947 . S
C161 C160 1.391 . S
C161 C162 1.392 . S
C162 H139 0.948 . S
C162 C161 1.392 . S
C162 C163 1.419 . S
C163 C162 1.419 . S
C163 C164 1.391 . S
C163 C167 1.397 . S
C164 C159 1.391 . S
C164 C163 1.391 . S
C164 C165 1.399 . S
C165 C164 1.399 . S
C165 C166 1.396 . S
C165 C168 1.453 . S
C165 C169 1.684 . S
C166 C156 1.723 . S
C166 C165 1.396 . S
C166 C167 1.394 . S
C167 C137 1.723 . S
C167 C163 1.397 . S
C167 C166 1.394 . S
C168 H140 0.982 . S
C168 H144 0.979 . S
C168 H145 0.977 . S
C168 C165 1.453 . S
C169 H141 0.979 . S
C169 H142 0.980 . S
C169 H143 0.983 . S
C169 C165 1.684 . S
H170 C188 0.948 . S
H171 C129 0.948 . S
H172 C147 0.979 . S
H173 C147 0.980 . S
H174 C147 0.983 . S
H175 C146 0.982 . S
H176 C146 0.979 . S
H177 C146 0.977 . S
H178 C148 0.948 . S
H179 C150 0.947 . S
H180 C151 0.948 . S
H181 C157 0.982 . S
H182 C157 0.979 . S
H183 C157 0.977 . S
H184 C158 0.979 . S
H185 C158 0.980 . S
H186 C158 0.983 . S
H187 C131 0.947 . S
C188 C131 1.392 . S
C188 C132 1.419 . S
C188 H170 0.948 . S
C189 C190 1.391 . S
C189 C193 1.391 . S
C189 H231 0.948 . S
C190 C189 1.391 . S
C190 C191 1.391 . S
C191 C190 1.391 . S
C191 H247 0.947 . S
C191 C248 1.392 . S
C192 C193 1.391 . S
C192 C196 1.397 . S
C192 C248 1.419 . S
C193 C189 1.391 . S
C193 C192 1.391 . S
C193 C194 1.399 . S
C194 C193 1.399 . S
C194 C197 1.396 . S
C194 C206 1.453 . S
C194 C207 1.684 . S
H195 C219 0.948 . S
C196 C192 1.397 . S
C196 C197 1.394 . S
C196 C215 1.723 . S
C197 C194 1.396 . S
C197 C196 1.394 . S
C197 C227 1.723 1_455 S
H198 C221 0.947 . S
H199 C222 0.948 . S
H200 C228 0.982 . S
H201 C229 0.979 . S
H202 C229 0.980 . S
H203 C229 0.983 . S
H204 C228 0.979 . S
H205 C228 0.977 . S
C206 C194 1.453 . S
C206 H235 0.982 . S
C206 H236 0.979 . S
C206 H237 0.977 1_455 S
C207 C194 1.684 . S
C207 H232 0.979 . S
C207 H233 0.980 . S
C207 H234 0.983 . S
C208 C209 1.391 1_556 S
C208 C213 1.391 . S
C208 H238 0.948 1_556 S
C209 C208 1.391 1_554 S
C209 C210 1.391 1_454 S
C210 C209 1.391 1_656 S
C210 C211 1.392 . S
C210 H239 0.947 1_556 S
C211 C210 1.392 . S
C211 C212 1.419 1_655 S
C211 H240 0.948 . S
C212 C211 1.419 1_455 S
C212 C213 1.391 . S
C212 C216 1.397 . S
C213 C208 1.391 . S
C213 C212 1.391 . S
C213 C214 1.399 . S
C214 C213 1.399 . S
C214 C215 1.396 . S
C214 C217 1.453 . S
C214 C218 1.684 . S
C215 C196 1.723 . S
C215 C214 1.396 . S
C215 C216 1.394 . S
C216 C212 1.397 . S
C216 C215 1.394 . S
C216 C226 1.723 1_455 S
C217 C214 1.453 . S
C217 H241 0.982 . S
C217 H242 0.979 . S
C217 H243 0.977 . S
C218 C214 1.684 . S
C218 H244 0.979 . S
C218 H245 0.980 . S
C218 H246 0.983 . S
C219 H195 0.948 . S
C219 C220 1.391 . S
C219 C224 1.391 . S
C220 C219 1.391 . S
C220 C221 1.391 . S
C221 H198 0.947 . S
C221 C220 1.391 . S
C221 C222 1.392 . S
C222 H199 0.948 . S
C222 C221 1.392 . S
C222 C223 1.419 . S
C223 C222 1.419 . S
C223 C224 1.391 . S
C223 C227 1.397 . S
C224 C219 1.391 . S
C224 C223 1.391 . S
C224 C225 1.399 . S
C225 C224 1.399 . S
C225 C226 1.396 . S
C225 C228 1.453 . S
C225 C229 1.684 . S
C226 C216 1.723 1_655 S
C226 C225 1.396 . S
C226 C227 1.394 . S
C227 C197 1.723 1_655 S
C227 C223 1.397 . S
C227 C226 1.394 . S
C228 H200 0.982 . S
C228 H204 0.979 . S
C228 H205 0.977 . S
C228 C225 1.453 . S
C229 H201 0.979 . S
C229 H202 0.980 . S
C229 H203 0.983 . S
C229 C225 1.684 . S
H230 C248 0.948 . S
H231 C189 0.948 . S
H232 C207 0.979 . S
H233 C207 0.980 . S
H234 C207 0.983 . S
H235 C206 0.982 . S
H236 C206 0.979 . S
H237 C206 0.977 1_655 S
H238 C208 0.948 1_554 S
H239 C210 0.947 1_554 S
H240 C211 0.948 . S
H241 C217 0.982 . S
H242 C217 0.979 . S
H243 C217 0.977 . S
H244 C218 0.979 . S
H245 C218 0.980 . S
H246 C218 0.983 . S
H247 C191 0.947 . S
C248 C191 1.392 . S
C248 C192 1.419 . S
C248 H230 0.948 . S
C249 C250 1.391 . S
C249 C253 1.391 . S
C249 H291 0.948 . S
C250 C249 1.391 . S
C250 C251 1.391 . S
C251 C250 1.391 . S
C251 H307 0.947 . S
C251 C308 1.392 . S
C252 C253 1.391 . S
C252 C256 1.397 . S
C252 C308 1.419 . S
C253 C249 1.391 . S
C253 C252 1.391 . S
C253 C254 1.399 . S
C254 C253 1.399 . S
C254 C257 1.396 . S
C254 C266 1.453 . S
C254 C267 1.684 . S
H255 C279 0.948 . S
C256 C252 1.397 . S
C256 C257 1.394 . S
C256 C275 1.723 . S
C257 C254 1.396 . S
C257 C256 1.394 . S
C257 C287 1.723 1_655 S
H258 C281 0.947 . S
H259 C282 0.948 . S
H260 C288 0.982 . S
H261 C289 0.979 . S
H262 C289 0.980 . S
H263 C289 0.983 . S
H264 C288 0.979 . S
H265 C288 0.977 . S
C266 C254 1.453 . S
C266 H295 0.982 1_655 S
C266 H296 0.979 . S
C266 H297 0.977 1_655 S
C267 C254 1.684 . S
C267 H292 0.979 . S
C267 H293 0.980 . S
C267 H294 0.983 . S
C268 C269 1.391 1_655 S
C268 C273 1.391 . S
C268 H298 0.948 . S
C269 C268 1.391 1_455 S
C269 C270 1.391 . S
C270 C269 1.391 . S
C270 C271 1.392 . S
C270 H299 0.947 . S
C271 C270 1.392 . S
C271 C272 1.419 . S
C271 H300 0.948 . S
C272 C271 1.419 . S
C272 C273 1.391 1_455 S
C272 C276 1.397 . S
C273 C268 1.391 . S
C273 C272 1.391 1_655 S
C273 C274 1.399 . S
C274 C273 1.399 . S
C274 C275 1.396 . S
C274 C277 1.453 . S
C274 C278 1.684 . S
C275 C256 1.723 . S
C275 C274 1.396 . S
C275 C276 1.394 1_655 S
C276 C272 1.397 . S
C276 C275 1.394 1_455 S
C276 C286 1.723 . S
C277 C274 1.453 . S
C277 H301 0.982 . S
C277 H302 0.979 . S
C277 H303 0.977 . S
C278 C274 1.684 . S
C278 H304 0.979 . S
C278 H305 0.980 . S
C278 H306 0.983 . S
C279 H255 0.948 . S
C279 C280 1.391 . S
C279 C284 1.391 . S
C280 C279 1.391 . S
C280 C281 1.391 . S
C281 H258 0.947 . S
C281 C280 1.391 . S
C281 C282 1.392 . S
C282 H259 0.948 . S
C282 C281 1.392 . S
C282 C283 1.419 . S
C283 C282 1.419 . S
C283 C284 1.391 . S
C283 C287 1.397 . S
C284 C279 1.391 . S
C284 C283 1.391 . S
C284 C285 1.399 . S
C285 C284 1.399 . S
C285 C286 1.396 . S
C285 C288 1.453 . S
C285 C289 1.684 . S
C286 C276 1.723 . S
C286 C285 1.396 . S
C286 C287 1.394 . S
C287 C257 1.723 1_455 S
C287 C283 1.397 . S
C287 C286 1.394 . S
C288 H260 0.982 . S
C288 H264 0.979 . S
C288 H265 0.977 . S
C288 C285 1.453 . S
C289 H261 0.979 . S
C289 H262 0.980 . S
C289 H263 0.983 . S
C289 C285 1.684 . S
H290 C308 0.948 . S
H291 C249 0.948 . S
H292 C267 0.979 . S
H293 C267 0.980 . S
H294 C267 0.983 . S
H295 C266 0.982 1_455 S
H296 C266 0.979 . S
H297 C266 0.977 1_455 S
H298 C268 0.948 . S
H299 C270 0.947 . S
H300 C271 0.948 . S
H301 C277 0.982 . S
H302 C277 0.979 . S
H303 C277 0.977 . S
H304 C278 0.979 . S
H305 C278 0.980 . S
H306 C278 0.983 . S
H307 C251 0.947 . S
C308 C251 1.392 . S
C308 C252 1.419 . S
C308 H290 0.948 . S
C309 C310 1.391 . S
C309 C313 1.391 . S
C309 H351 0.948 . S
C310 C309 1.391 . S
C310 C311 1.391 . S
C311 C310 1.391 . S
C311 H367 0.947 . S
C311 C368 1.392 . S
C312 C313 1.391 . S
C312 C316 1.397 . S
C312 C368 1.419 . S
C313 C309 1.391 . S
C313 C312 1.391 . S
C313 C314 1.399 . S
C314 C313 1.399 . S
C314 C317 1.396 . S
C314 C326 1.453 . S
C314 C327 1.684 . S
H315 C339 0.948 . S
C316 C312 1.397 . S
C316 C317 1.394 . S
C316 C335 1.723 . S
C317 C314 1.396 . S
C317 C316 1.394 . S
C317 C347 1.723 1_565 S
H318 C341 0.947 . S
H319 C342 0.948 . S
H320 C348 0.982 . S
H321 C349 0.979 . S
H322 C349 0.980 . S
H323 C349 0.983 . S
H324 C348 0.979 . S
H325 C348 0.977 . S
C326 C314 1.453 . S
C326 H355 0.982 1_565 S
C326 H356 0.979 . S
C326 H357 0.977 1_565 S
C327 C314 1.684 . S
C327 H352 0.979 . S
C327 H353 0.980 . S
C327 H354 0.983 . S
C328 C329 1.391 1_565 S
C328 C333 1.391 . S
C328 H358 0.948 . S
C329 C328 1.391 1_545 S
C329 C330 1.391 . S
C330 C329 1.391 . S
C330 C331 1.392 . S
C330 H359 0.947 . S
C331 C330 1.392 . S
C331 C332 1.419 . S
C331 H360 0.948 . S
C332 C331 1.419 . S
C332 C333 1.391 1_545 S
C332 C336 1.397 . S
C333 C328 1.391 . S
C333 C332 1.391 1_565 S
C333 C334 1.399 . S
C334 C333 1.399 . S
C334 C335 1.396 . S
C334 C337 1.453 . S
C334 C338 1.684 . S
C335 C316 1.723 . S
C335 C334 1.396 . S
C335 C336 1.394 1_565 S
C336 C332 1.397 . S
C336 C335 1.394 1_545 S
C336 C346 1.723 . S
C337 C334 1.453 . S
C337 H361 0.982 . S
C337 H362 0.979 . S
C337 H363 0.977 . S
C338 C334 1.684 . S
C338 H364 0.979 . S
C338 H365 0.980 . S
C338 H366 0.983 . S
C339 H315 0.948 . S
C339 C340 1.391 . S
C339 C344 1.391 . S
C340 C339 1.391 . S
C340 C341 1.391 . S
C341 H318 0.947 . S
C341 C340 1.391 . S
C341 C342 1.392 . S
C342 H319 0.948 . S
C342 C341 1.392 . S
C342 C343 1.419 . S
C343 C342 1.419 . S
C343 C344 1.391 . S
C343 C347 1.397 . S
C344 C339 1.391 . S
C344 C343 1.391 . S
C344 C345 1.399 . S
C345 C344 1.399 . S
C345 C346 1.396 . S
C345 C348 1.453 . S
C345 C349 1.684 . S
C346 C336 1.723 . S
C346 C345 1.396 . S
C346 C347 1.394 . S
C347 C317 1.723 1_545 S
C347 C343 1.397 . S
C347 C346 1.394 . S
C348 H320 0.982 . S
C348 H324 0.979 . S
C348 H325 0.977 . S
C348 C345 1.453 . S
C349 H321 0.979 . S
C349 H322 0.980 . S
C349 H323 0.983 . S
C349 C345 1.684 . S
H350 C368 0.948 . S
H351 C309 0.948 . S
H352 C327 0.979 . S
H353 C327 0.980 . S
H354 C327 0.983 . S
H355 C326 0.982 1_545 S
H356 C326 0.979 . S
H357 C326 0.977 1_545 S
H358 C328 0.948 . S
H359 C330 0.947 . S
H360 C331 0.948 . S
H361 C337 0.982 . S
H362 C337 0.979 . S
H363 C337 0.977 . S
H364 C338 0.979 . S
H365 C338 0.980 . S
H366 C338 0.983 . S
H367 C311 0.947 . S
C368 C311 1.392 . S
C368 C312 1.419 . S
C368 H350 0.948 . S
C369 C370 1.391 . S
C369 C373 1.391 . S
C369 H411 0.948 . S
C370 C369 1.391 . S
C370 C371 1.391 . S
C371 C370 1.391 . S
C371 H427 0.947 . S
C371 C428 1.392 . S
C372 C373 1.391 . S
C372 C376 1.397 . S
C372 C428 1.419 . S
C373 C369 1.391 . S
C373 C372 1.391 . S
C373 C374 1.399 . S
C374 C373 1.399 . S
C374 C377 1.396 . S
C374 C386 1.453 . S
C374 C387 1.684 . S
H375 C399 0.948 . S
C376 C372 1.397 . S
C376 C377 1.394 . S
C376 C395 1.723 . S
C377 C374 1.396 . S
C377 C376 1.394 . S
C377 C407 1.723 . S
H378 C401 0.947 . S
H379 C402 0.948 . S
H380 C408 0.982 . S
H381 C409 0.979 . S
H382 C409 0.980 . S
H383 C409 0.983 . S
H384 C408 0.979 . S
H385 C408 0.977 . S
C386 C374 1.453 . S
C386 H415 0.982 . S
C386 H416 0.979 . S
C386 H417 0.977 . S
C387 C374 1.684 . S
C387 H412 0.979 . S
C387 H413 0.980 . S
C387 H414 0.983 . S
C388 C389 1.391 1_554 S
C388 C393 1.391 . S
C388 H418 0.948 1_554 S
C389 C388 1.391 1_556 S
C389 C390 1.391 1_556 S
C390 C389 1.391 1_554 S
C390 C391 1.392 . S
C390 H419 0.947 1_554 S
C391 C390 1.392 . S
C391 C392 1.419 . S
C391 H420 0.948 . S
C392 C391 1.419 . S
C392 C393 1.391 . S
C392 C396 1.397 . S
C393 C388 1.391 . S
C393 C392 1.391 . S
C393 C394 1.399 . S
C394 C393 1.399 . S
C394 C395 1.396 . S
C394 C397 1.453 . S
C394 C398 1.684 . S
C395 C376 1.723 . S
C395 C394 1.396 . S
C395 C396 1.394 . S
C396 C392 1.397 . S
C396 C395 1.394 . S
C396 C406 1.723 . S
C397 C394 1.453 . S
C397 H421 0.982 . S
C397 H422 0.979 . S
C397 H423 0.977 . S
C398 C394 1.684 . S
C398 H424 0.979 . S
C398 H425 0.980 . S
C398 H426 0.983 . S
C399 H375 0.948 . S
C399 C400 1.391 . S
C399 C404 1.391 . S
C400 C399 1.391 . S
C400 C401 1.391 . S
C401 H378 0.947 . S
C401 C400 1.391 . S
C401 C402 1.392 . S
C402 H379 0.948 . S
C402 C401 1.392 . S
C402 C403 1.419 . S
C403 C402 1.419 . S
C403 C404 1.391 . S
C403 C407 1.397 . S
C404 C399 1.391 . S
C404 C403 1.391 . S
C404 C405 1.399 . S
C405 C404 1.399 . S
C405 C406 1.396 . S
C405 C408 1.453 . S
C405 C409 1.684 . S
C406 C396 1.723 . S
C406 C405 1.396 . S
C406 C407 1.394 . S
C407 C377 1.723 . S
C407 C403 1.397 . S
C407 C406 1.394 . S
C408 H380 0.982 . S
C408 H384 0.979 . S
C408 H385 0.977 . S
C408 C405 1.453 . S
C409 H381 0.979 . S
C409 H382 0.980 . S
C409 H383 0.983 . S
C409 C405 1.684 . S
H410 C428 0.948 . S
H411 C369 0.948 . S
H412 C387 0.979 . S
H413 C387 0.980 . S
H414 C387 0.983 . S
H415 C386 0.982 . S
H416 C386 0.979 . S
H417 C386 0.977 . S
H418 C388 0.948 1_556 S
H419 C390 0.947 1_556 S
H420 C391 0.948 . S
H421 C397 0.982 . S
H422 C397 0.979 . S
H423 C397 0.977 . S
H424 C398 0.979 . S
H425 C398 0.980 . S
H426 C398 0.983 . S
H427 C371 0.947 . S
C428 C371 1.392 . S
C428 C372 1.419 . S
C428 H410 0.948 . S
C429 C430 1.369 . S
C429 C431 1.419 . S
C429 H433 0.930 . S
C430 C429 1.369 . S
C430 C439 1.429 . S
C431 C429 1.419 . S
C431 C432 1.363 . S
C431 H434 0.929 . S
C432 C431 1.363 . S
C432 C438 1.428 . S
H433 C429 0.930 . S
H434 C431 0.929 . S
S435 N436 1.613 . S
S435 N437 1.610 . S
N436 S435 1.613 . S
N436 C439 1.350 . S
N437 S435 1.610 . S
N437 C438 1.351 . S
C438 C432 1.428 . S
C438 N437 1.351 . S
C438 C439 1.434 . S
C439 C430 1.429 . S
C439 N436 1.350 . S
C439 C438 1.434 . S
C440 C441 1.369 . S
C440 C442 1.419 . S
C440 H444 0.930 . S
C441 C440 1.369 . S
C441 C450 1.429 . S
C442 C440 1.419 . S
C442 C443 1.363 . S
C442 H445 0.929 . S
C443 C442 1.363 . S
C443 C449 1.428 . S
H444 C440 0.930 . S
H445 C442 0.929 . S
S446 N447 1.613 . S
S446 N448 1.610 . S
N447 S446 1.613 . S
N447 C450 1.350 . S
N448 S446 1.610 . S
N448 C449 1.351 . S
C449 C443 1.428 . S
C449 N448 1.351 . S
C449 C450 1.434 . S
C450 C441 1.429 . S
C450 N447 1.350 . S
C450 C449 1.434 . S
C451 C452 1.369 . S
C451 C453 1.419 . S
C451 H455 0.930 . S
C452 C451 1.369 . S
C452 C461 1.429 . S
C453 C451 1.419 . S
C453 C454 1.363 . S
C453 H456 0.929 . S
C454 C453 1.363 . S
C454 C460 1.428 . S
H455 C451 0.930 . S
H456 C453 0.929 . S
S457 N458 1.613 . S
S457 N459 1.610 . S
N458 S457 1.613 . S
N458 C461 1.350 . S
N459 S457 1.610 . S
N459 C460 1.351 . S
C460 C454 1.428 . S
C460 N459 1.351 . S
C460 C461 1.434 . S
C461 C452 1.429 . S
C461 N458 1.350 . S
C461 C460 1.434 . S
C462 C463 1.369 . S
C462 C464 1.419 . S
C462 H466 0.930 . S
C463 C462 1.369 . S
C463 C472 1.429 . S
C464 C462 1.419 . S
C464 C465 1.363 . S
C464 H467 0.929 . S
C465 C464 1.363 . S
C465 C471 1.428 . S
H466 C462 0.930 . S
H467 C464 0.929 . S
S468 N469 1.613 . S
S468 N470 1.610 . S
N469 S468 1.613 . S
N469 C472 1.350 . S
N470 S468 1.610 . S
N470 C471 1.351 . S
C471 C465 1.428 . S
C471 N470 1.351 . S
C471 C472 1.434 . S
C472 C463 1.429 . S
C472 N469 1.350 . S
C472 C471 1.434 . S
C473 C474 1.369 . S
C473 C475 1.419 . S
C473 H477 0.930 . S
C474 C473 1.369 . S
C474 C483 1.429 . S
C475 C473 1.419 . S
C475 C476 1.363 . S
C475 H478 0.929 . S
C476 C475 1.363 . S
C476 C482 1.428 . S
H477 C473 0.930 . S
H478 C475 0.929 . S
S479 N480 1.613 . S
S479 N481 1.610 . S
N480 S479 1.613 . S
N480 C483 1.350 . S
N481 S479 1.610 . S
N481 C482 1.351 . S
C482 C476 1.428 . S
C482 N481 1.351 . S
C482 C483 1.434 . S
C483 C474 1.429 . S
C483 N480 1.350 . S
C483 C482 1.434 . S
C484 C485 1.369 . S
C484 C486 1.419 . S
C484 H488 0.930 . S
C485 C484 1.369 . S
C485 C494 1.429 . S
C486 C484 1.419 . S
C486 C487 1.363 . S
C486 H489 0.929 . S
C487 C486 1.363 . S
C487 C493 1.428 . S
H488 C484 0.930 . S
H489 C486 0.929 . S
S490 N491 1.613 . S
S490 N492 1.610 . S
N491 S490 1.613 . S
N491 C494 1.350 . S
N492 S490 1.610 . S
N492 C493 1.351 . S
C493 C487 1.428 . S
C493 N492 1.351 . S
C493 C494 1.434 . S
C494 C485 1.429 . S
C494 N491 1.350 . S
C494 C493 1.434 . S
C495 C496 1.369 . S
C495 C497 1.419 . S
C495 H499 0.930 . S
C496 C495 1.369 . S
C496 C505 1.429 . S
C497 C495 1.419 . S
C497 C498 1.363 . S
C497 H500 0.929 . S
C498 C497 1.363 . S
C498 C504 1.428 . S
H499 C495 0.930 . S
H500 C497 0.929 . S
S501 N502 1.613 . S
S501 N503 1.610 . S
N502 S501 1.613 . S
N502 C505 1.350 . S
N503 S501 1.610 . S
N503 C504 1.351 . S
C504 C498 1.428 . S
C504 N503 1.351 . S
C504 C505 1.434 . S
C505 C496 1.429 . S
C505 N502 1.350 . S
C505 C504 1.434 . S
C506 C507 1.369 . S
C506 C508 1.419 . S
C506 H510 0.930 . S
C507 C506 1.369 . S
C507 C516 1.429 . S
C508 C506 1.419 . S
C508 C509 1.363 . S
C508 H511 0.929 . S
C509 C508 1.363 . S
C509 C515 1.428 . S
H510 C506 0.930 . S
H511 C508 0.929 . S
S512 N513 1.613 . S
S512 N514 1.610 . S
N513 S512 1.613 . S
N513 C516 1.350 . S
N514 S512 1.610 . S
N514 C515 1.351 . S
C515 C509 1.428 . S
C515 N514 1.351 . S
C515 C516 1.434 . S
C516 C507 1.429 . S
C516 N513 1.350 . S
C516 C515 1.434 . S
C517 C518 1.369 . S
C517 C519 1.419 . S
C517 H521 0.930 . S
C518 C517 1.369 . S
C518 C527 1.429 . S
C519 C517 1.419 . S
C519 C520 1.363 . S
C519 H522 0.929 . S
C520 C519 1.363 . S
C520 C526 1.428 . S
H521 C517 0.930 . S
H522 C519 0.929 . S
S523 N524 1.613 . S
S523 N525 1.610 . S
N524 S523 1.613 . S
N524 C527 1.350 . S
N525 S523 1.610 . S
N525 C526 1.351 . S
C526 C520 1.428 . S
C526 N525 1.351 . S
C526 C527 1.434 . S
C527 C518 1.429 . S
C527 N524 1.350 . S
C527 C526 1.434 . S
C528 C529 1.369 . S
C528 C530 1.419 . S
C528 H532 0.930 . S
C529 C528 1.369 . S
C529 C538 1.429 . S
C530 C528 1.419 . S
C530 C531 1.363 . S
C530 H533 0.929 . S
C531 C530 1.363 . S
C531 C537 1.428 . S
H532 C528 0.930 . S
H533 C530 0.929 . S
S534 N535 1.613 . S
S534 N536 1.610 . S
N535 S534 1.613 . S
N535 C538 1.350 . S
N536 S534 1.610 . S
N536 C537 1.351 . S
C537 C531 1.428 . S
C537 N536 1.351 . S
C537 C538 1.434 . S
C538 C529 1.429 . S
C538 N535 1.350 . S
C538 C537 1.434 . S
C539 C540 1.369 . S
C539 C541 1.419 . S
C539 H543 0.930 . S
C540 C539 1.369 . S
C540 C549 1.429 . S
C541 C539 1.419 . S
C541 C542 1.363 . S
C541 H544 0.929 . S
C542 C541 1.363 . S
C542 C548 1.428 . S
H543 C539 0.930 . S
H544 C541 0.929 . S
S545 N546 1.613 . S
S545 N547 1.610 . S
N546 S545 1.613 . S
N546 C549 1.350 . S
N547 S545 1.610 . S
N547 C548 1.351 . S
C548 C542 1.428 . S
C548 N547 1.351 . S
C548 C549 1.434 . S
C549 C540 1.429 . S
C549 N546 1.350 . S
C549 C548 1.434 . S
C550 C551 1.369 . S
C550 C552 1.419 . S
C550 H554 0.930 . S
C551 C550 1.369 . S
C551 C560 1.429 . S
C552 C550 1.419 . S
C552 C553 1.363 . S
C552 H555 0.929 . S
C553 C552 1.363 . S
C553 C559 1.428 . S
H554 C550 0.930 . S
H555 C552 0.929 . S
S556 N557 1.613 . S
S556 N558 1.610 . S
N557 S556 1.613 . S
N557 C560 1.350 . S
N558 S556 1.610 . S
N558 C559 1.351 . S
C559 C553 1.428 . S
C559 N558 1.351 . S
C559 C560 1.434 . S
C560 C551 1.429 . S
C560 N557 1.350 . S
C560 C559 1.434 . S
C561 C562 1.369 1_655 S
C561 C563 1.419 . S
C561 H565 0.930 . S
C562 C561 1.369 1_455 S
C562 C571 1.429 . S
C563 C561 1.419 . S
C563 C564 1.363 1_655 S
C563 H566 0.929 . S
C564 C563 1.363 1_455 S
C564 C570 1.428 . S
H565 C561 0.930 . S
H566 C563 0.929 . S
S567 N568 1.613 . S
S567 N569 1.610 . S
N568 S567 1.613 . S
N568 C571 1.350 . S
N569 S567 1.610 . S
N569 C570 1.351 . S
C570 C564 1.428 . S
C570 N569 1.351 . S
C570 C571 1.434 . S
C571 C562 1.429 . S
C571 N568 1.350 . S
C571 C570 1.434 . S
C572 C573 1.369 1_565 S
C572 C574 1.419 . S
C572 H576 0.930 . S
C573 C572 1.369 1_545 S
C573 C582 1.429 . S
C574 C572 1.419 . S
C574 C575 1.363 1_565 S
C574 H577 0.929 . S
C575 C574 1.363 1_545 S
C575 C581 1.428 . S
H576 C572 0.930 . S
H577 C574 0.929 . S
S578 N579 1.613 . S
S578 N580 1.610 . S
N579 S578 1.613 . S
N579 C582 1.350 . S
N580 S578 1.610 . S
N580 C581 1.351 . S
C581 C575 1.428 . S
C581 N580 1.351 . S
C581 C582 1.434 . S
C582 C573 1.429 . S
C582 N579 1.350 . S
C582 C581 1.434 . S
C583 C584 1.369 . S
C583 C585 1.419 . S
C583 H587 0.930 . S
C584 C583 1.369 . S
C584 C593 1.429 . S
C585 C583 1.419 . S
C585 C586 1.363 . S
C585 H588 0.929 . S
C586 C585 1.363 . S
C586 C592 1.428 . S
H587 C583 0.930 . S
H588 C585 0.929 . S
S589 N590 1.613 . S
S589 N591 1.610 . S
N590 S589 1.613 . S
N590 C593 1.350 . S
N591 S589 1.610 . S
N591 C592 1.351 . S
C592 C586 1.428 . S
C592 N591 1.351 . S
C592 C593 1.434 . S
C593 C584 1.429 . S
C593 N590 1.350 . S
C593 C592 1.434 . S
C594 C595 1.369 . S
C594 C596 1.419 . S
C594 H598 0.930 . S
C595 C594 1.369 . S
C595 C604 1.429 1_545 S
C596 C594 1.419 . S
C596 C597 1.361 . S
C596 H599 0.929 . S
C597 C596 1.361 . S
C597 C603 1.431 1_545 S
H598 C594 0.930 . S
H599 C596 0.929 . S
S600 N601 1.613 . S
S600 N602 1.610 . S
N601 S600 1.613 . S
N601 C604 1.350 . S
N602 S600 1.610 . S
N602 C603 1.351 . S
C603 C597 1.431 1_565 S
C603 N602 1.351 . S
C603 C604 1.434 . S
C604 C595 1.429 1_565 S
C604 N601 1.350 . S
C604 C603 1.434 . S
C605 C606 1.369 . S
C605 C607 1.419 . S
C605 H609 0.930 . S
C606 C605 1.369 . S
C606 C615 1.429 . S
C607 C605 1.419 . S
C607 C608 1.363 . S
C607 H610 0.929 . S
C608 C607 1.363 . S
C608 C614 1.428 . S
H609 C605 0.930 . S
H610 C607 0.929 . S
S611 N612 1.613 . S
S611 N613 1.610 . S
N612 S611 1.613 . S
N612 C615 1.350 . S
N613 S611 1.610 . S
N613 C614 1.351 . S
C614 C608 1.428 . S
C614 N613 1.351 . S
C614 C615 1.434 . S
C615 C606 1.429 . S
C615 N612 1.350 . S
C615 C614 1.434 . S
C616 C617 1.369 1_655 S
C616 C618 1.419 . S
C616 H620 0.930 . S
C617 C616 1.369 1_455 S
C617 C626 1.429 . S
C618 C616 1.419 . S
C618 C619 1.363 1_655 S
C618 H621 0.929 . S
C619 C618 1.363 1_455 S
C619 C625 1.428 . S
H620 C616 0.930 . S
H621 C618 0.929 . S
S622 N623 1.613 . S
S622 N624 1.610 . S
N623 S622 1.613 . S
N623 C626 1.350 . S
N624 S622 1.610 . S
N624 C625 1.351 . S
C625 C619 1.428 . S
C625 N624 1.351 . S
C625 C626 1.434 . S
C626 C617 1.429 . S
C626 N623 1.350 . S
C626 C625 1.434 . S
C430 C20 1.269 . S
C432 C400 1.315 . S
C441 C41 1.363 . S
C443 C250 1.308 . S
C452 C64 1.395 . S
C454 C310 1.342 . S
C463 C19 1.317 . S
C465 C370 1.347 . S
C476 C280 1.343 . S
C474 C44 1.343 . S
C487 C340 1.329 . S
C485 C67 1.331 . S
C496 C43 1.266 . S
C498 C130 1.274 . S
C507 C66 1.276 . S
C509 C220 1.314 . S
C518 C21 1.347 . S
C520 C100 1.341 . S
C531 C160 1.361 . S
C529 C42 1.309 . S
C542 C190 1.347 . S
C540 C65 1.317 . S
C551 C18 1.367 . S
C553 C70 1.308 . S
C564 C209 1.450 . S
C562 C17 1.470 . S
C573 C39 1.465 . S
C575 C89 1.443 . S
C584 C62 1.482 . S
C586 C149 1.452 . S
C597 C329 1.430 . S
C595 C40 1.454 . S
C608 C389 1.450 . S
C606 C63 1.471 . S
C617 C16 1.466 . S
C619 C269 1.444 . S
