# Generated by pormake.
# Topology pyr, (3,6)-cn, num edge types: 1
# Building blocks:
#     Node 0, Type 0, BuildingBlock: VETTIZ_charged_linker_0, # of connection points: 3
#     Node 1, Type 0, BuildingBlock: VETTIZ_charged_linker_0, # of connection points: 3
#     Node 2, Type 0, BuildingBlock: VETTIZ_charged_linker_0, # of connection points: 3
#     Node 3, Type 0, BuildingBlock: VETTIZ_charged_linker_0, # of connection points: 3
#     Node 4, Type 0, BuildingBlock: VETTIZ_charged_linker_0, # of connection points: 3
#     Node 5, Type 0, BuildingBlock: VETTIZ_charged_linker_0, # of connection points: 3
#     Node 6, Type 0, BuildingBlock: VETTIZ_charged_linker_0, # of connection points: 3
#     Node 7, Type 0, BuildingBlock: VETTIZ_charged_linker_0, # of connection points: 3
#     Node 8, Type 1, BuildingBlock: BETDEL_clean_sbu_0, # of connection points: 6
#     Node 9, Type 1, BuildingBlock: BETDEL_clean_sbu_0, # of connection points: 6
#     Node 10, Type 1, BuildingBlock: BETDEL_clean_sbu_0, # of connection points: 6
#     Node 11, Type 1, BuildingBlock: BETDEL_clean_sbu_0, # of connection points: 6
#     Edge 12, Type (0, 1), BuildingBlock: XIVTED_clean_linker_0, # of connection points: 2
#     Edge 13, Type (0, 1), BuildingBlock: XIVTED_clean_linker_0, # of connection points: 2
#     Edge 14, Type (0, 1), BuildingBlock: XIVTED_clean_linker_0, # of connection points: 2
#     Edge 15, Type (0, 1), BuildingBlock: XIVTED_clean_linker_0, # of connection points: 2
#     Edge 16, Type (0, 1), BuildingBlock: XIVTED_clean_linker_0, # of connection points: 2
#     Edge 17, Type (0, 1), BuildingBlock: XIVTED_clean_linker_0, # of connection points: 2
#     Edge 18, Type (0, 1), BuildingBlock: XIVTED_clean_linker_0, # of connection points: 2
#     Edge 19, Type (0, 1), BuildingBlock: XIVTED_clean_linker_0, # of connection points: 2
#     Edge 20, Type (0, 1), BuildingBlock: XIVTED_clean_linker_0, # of connection points: 2
#     Edge 21, Type (0, 1), BuildingBlock: XIVTED_clean_linker_0, # of connection points: 2
#     Edge 22, Type (0, 1), BuildingBlock: XIVTED_clean_linker_0, # of connection points: 2
#     Edge 23, Type (0, 1), BuildingBlock: XIVTED_clean_linker_0, # of connection points: 2
#     Edge 24, Type (0, 1), BuildingBlock: XIVTED_clean_linker_0, # of connection points: 2
#     Edge 25, Type (0, 1), BuildingBlock: XIVTED_clean_linker_0, # of connection points: 2
#     Edge 26, Type (0, 1), BuildingBlock: XIVTED_clean_linker_0, # of connection points: 2
#     Edge 27, Type (0, 1), BuildingBlock: XIVTED_clean_linker_0, # of connection points: 2
#     Edge 28, Type (0, 1), BuildingBlock: XIVTED_clean_linker_0, # of connection points: 2
#     Edge 29, Type (0, 1), BuildingBlock: XIVTED_clean_linker_0, # of connection points: 2
#     Edge 30, Type (0, 1), BuildingBlock: XIVTED_clean_linker_0, # of connection points: 2
#     Edge 31, Type (0, 1), BuildingBlock: XIVTED_clean_linker_0, # of connection points: 2
#     Edge 32, Type (0, 1), BuildingBlock: XIVTED_clean_linker_0, # of connection points: 2
#     Edge 33, Type (0, 1), BuildingBlock: XIVTED_clean_linker_0, # of connection points: 2
#     Edge 34, Type (0, 1), BuildingBlock: XIVTED_clean_linker_0, # of connection points: 2
#     Edge 35, Type (0, 1), BuildingBlock: XIVTED_clean_linker_0, # of connection points: 2
# Relax obj value: 0.028
# Max RMSD: 0.091
# Mean RMSD: 0.039
data_MOF--net-pyr--node1-BETDEL_clean_sbu_0--node2-VETTIZ_charged_linker_0--edge1-XIVTED_clean_linker_0
_symmetry_space_group_name_H-M    P1
_symmetry_Int_Tables_number       1
_symmetry_cell_setting            triclinic
loop_
_symmetry_equiv_pos_as_xyz
'x, y, z'
_cell_length_a     45.116907
_cell_length_b     46.839031
_cell_length_c     43.348058
_cell_angle_alpha  91.600216
_cell_angle_beta   89.301457
_cell_angle_gamma 94.617638
loop_
_atom_site_label
_atom_site_type_symbol
_atom_site_fract_x
_atom_site_fract_y
_atom_site_fract_z
_atom_type_partial_charge
C0 C 0.17489 0.15472 0.26123 0.0
C1 C 0.14622 0.16177 0.27002 0.0
C2 C 0.13528 0.18667 0.25844 0.0
C3 C 0.18011 0.19543 0.22779 0.0
C4 C 0.19127 0.17163 0.23998 0.0
C5 C 0.22098 0.1657 0.22623 0.0
H6 H 0.32016 0.1869 0.11038 0.0
C7 C 0.20135 0.20669 0.20416 0.0
C8 C 0.22537 0.18948 0.20311 0.0
H9 H 0.32143 0.12731 0.18464 0.0
H10 H 0.27991 0.14843 0.20933 0.0
H11 H 0.30771 0.24229 0.15674 0.0
H12 H 0.25095 0.18362 0.10105 0.0
H13 H 0.2401 0.21841 0.09608 0.0
H14 H 0.27701 0.21015 0.08466 0.0
H15 H 0.30677 0.24427 0.11548 0.0
H16 H 0.28096 0.26211 0.13999 0.0
C17 C 0.24453 0.16897 0.25212 0.0
C18 C 0.21766 0.1356 0.21026 0.0
C19 C 0.17436 0.28879 0.1398 0.0
C20 C 0.18724 0.30199 0.11369 0.0
C21 C 0.21392 0.29264 0.10135 0.0
C22 C 0.22769 0.27047 0.11519 0.0
C23 C 0.21431 0.25734 0.14127 0.0
C24 C 0.18808 0.26663 0.15306 0.0
C25 C 0.17601 0.24951 0.17976 0.0
C26 C 0.19982 0.22885 0.18283 0.0
C27 C 0.22215 0.23342 0.16027 0.0
C28 C 0.17472 0.26993 0.20841 0.0
C29 C 0.14553 0.2341 0.17028 0.0
C30 C 0.31147 0.17857 0.13203 0.0
C31 C 0.32358 0.1552 0.14542 0.0
C32 C 0.31233 0.14529 0.17395 0.0
C33 C 0.28807 0.15736 0.18806 0.0
C34 C 0.27491 0.17942 0.17336 0.0
C35 C 0.28735 0.19049 0.14653 0.0
C36 C 0.27116 0.21491 0.13512 0.0
C37 C 0.24628 0.21582 0.15889 0.0
C38 C 0.2483 0.19457 0.18081 0.0
C39 C 0.29265 0.24241 0.13661 0.0
C40 C 0.25924 0.20664 0.10243 0.0
H41 H 0.14239 0.22199 0.22918 0.0
H42 H 0.1842 0.13608 0.27021 0.0
H43 H 0.19675 0.13282 0.19676 0.0
H44 H 0.2356 0.13175 0.1936 0.0
H45 H 0.21678 0.1185 0.22757 0.0
H46 H 0.23779 0.18361 0.27114 0.0
H47 H 0.24783 0.148 0.26237 0.0
H48 H 0.26622 0.17881 0.24388 0.0
H49 H 0.15341 0.295 0.14926 0.0
H50 H 0.22409 0.30254 0.08111 0.0
H51 H 0.24796 0.26415 0.10483 0.0
H52 H 0.19477 0.28539 0.20929 0.0
H53 H 0.15489 0.2825 0.20774 0.0
H54 H 0.17456 0.25861 0.23042 0.0
H55 H 0.14367 0.23128 0.14478 0.0
H56 H 0.14219 0.21206 0.1789 0.0
H57 H 0.12678 0.24645 0.17838 0.0
H58 H 0.11322 0.19255 0.26468 0.0
C59 C 0.15215 0.20361 0.23754 0.0
C60 C 0.19536 0.84125 0.61539 0.0
C61 C 0.18269 0.86613 0.62662 0.0
C62 C 0.19132 0.87761 0.6559 0.0
C63 C 0.22369 0.83948 0.66249 0.0
C64 C 0.21574 0.82835 0.63364 0.0
C65 C 0.23164 0.80205 0.62521 0.0
H66 H 0.32656 0.70484 0.66707 0.0
C67 C 0.24445 0.82065 0.67605 0.0
C68 C 0.24902 0.79843 0.65449 0.0
H69 H 0.28786 0.71325 0.5775 0.0
H70 H 0.26068 0.75263 0.59731 0.0
H71 H 0.34258 0.77226 0.67718 0.0
H72 H 0.26993 0.71481 0.70838 0.0
H73 H 0.27603 0.74087 0.73803 0.0
H74 H 0.30508 0.71787 0.72757 0.0
H75 H 0.3465 0.74422 0.70391 0.0
H76 H 0.33708 0.77909 0.71682 0.0
C77 C 0.25241 0.80903 0.5972 0.0
C78 C 0.20814 0.77665 0.61931 0.0
C79 C 0.29088 0.84647 0.78048 0.0
C80 C 0.30977 0.83221 0.79943 0.0
C81 C 0.31547 0.80372 0.7914 0.0
C82 C 0.30472 0.79063 0.76391 0.0
C83 C 0.28789 0.80601 0.74414 0.0
C84 C 0.27998 0.83286 0.75322 0.0
C85 C 0.25969 0.84481 0.73038 0.0
C86 C 0.2585 0.82147 0.70523 0.0
C87 C 0.27559 0.79914 0.7132 0.0
C88 C 0.2748 0.87343 0.71874 0.0
C89 C 0.22896 0.84748 0.74623 0.0
C90 C 0.3118 0.71485 0.65189 0.0
C91 C 0.30907 0.70587 0.62085 0.0
C92 C 0.29027 0.71988 0.60154 0.0
C93 C 0.27463 0.74275 0.61306 0.0
C94 C 0.27832 0.75204 0.64402 0.0
C95 C 0.2967 0.73808 0.66282 0.0
C96 C 0.29994 0.75205 0.69432 0.0
C97 C 0.28056 0.77681 0.69141 0.0
C98 C 0.26767 0.77661 0.66205 0.0
C99 C 0.3332 0.7624 0.69861 0.0
C100 C 0.28734 0.73036 0.7185 0.0
H101 H 0.21721 0.87431 0.69582 0.0
H102 H 0.18931 0.83175 0.59306 0.0
H103 H 0.19072 0.7761 0.63772 0.0
H104 H 0.2176 0.75566 0.61954 0.0
H105 H 0.19703 0.77862 0.59683 0.0
H106 H 0.25978 0.83227 0.59681 0.0
H107 H 0.241 0.80325 0.57507 0.0
H108 H 0.27329 0.79823 0.59796 0.0
H109 H 0.28559 0.86818 0.78592 0.0
H110 H 0.3288 0.79162 0.80607 0.0
H111 H 0.31054 0.76926 0.75875 0.0
H112 H 0.29881 0.87139 0.71385 0.0
H113 H 0.2731 0.89095 0.73632 0.0
H114 H 0.26543 0.8801 0.69693 0.0
H115 H 0.22535 0.83264 0.76577 0.0
H116 H 0.21023 0.84142 0.73049 0.0
H117 H 0.22687 0.86955 0.75562 0.0
H118 H 0.18267 0.89711 0.6649 0.0
C119 C 0.21158 0.86442 0.67385 0.0
C120 C 0.62495 0.23956 0.88209 0.0
C121 C 0.59799 0.2255 0.87151 0.0
C122 C 0.58218 0.23889 0.84872 0.0
C123 C 0.62025 0.27859 0.84687 0.0
C124 C 0.63552 0.26593 0.86961 0.0
C125 C 0.66358 0.28369 0.87858 0.0
H126 H 0.75799 0.40223 0.85875 0.0
C127 C 0.63752 0.30566 0.8384 0.0
C128 C 0.66295 0.30875 0.85709 0.0
H129 H 0.76434 0.33562 0.92492 0.0
H130 H 0.71934 0.31074 0.90512 0.0
H131 H 0.68681 0.40687 0.86729 0.0
H132 H 0.74004 0.36154 0.80256 0.0
H133 H 0.70985 0.37191 0.78162 0.0
H134 H 0.73549 0.39901 0.79924 0.0
H135 H 0.71029 0.42431 0.83858 0.0
H136 H 0.67255 0.41108 0.83027 0.0
C137 C 0.6606 0.29325 0.91292 0.0
C138 C 0.69032 0.26575 0.87147 0.0
C139 C 0.60219 0.36692 0.75213 0.0
C140 C 0.61504 0.39179 0.738 0.0
C141 C 0.64235 0.40448 0.74917 0.0
C142 C 0.65671 0.39275 0.77375 0.0
C143 C 0.64388 0.36778 0.78743 0.0
C144 C 0.61714 0.35514 0.77653 0.0
C145 C 0.60766 0.32796 0.79322 0.0
C146 C 0.63299 0.32657 0.81596 0.0
C147 C 0.65399 0.35014 0.81254 0.0
C148 C 0.57773 0.33207 0.80992 0.0
C149 C 0.60643 0.3027 0.76934 0.0
C150 C 0.74959 0.38245 0.86926 0.0
C151 C 0.76494 0.37104 0.89358 0.0
C152 C 0.75332 0.34485 0.90598 0.0
C153 C 0.72697 0.33049 0.89458 0.0
C154 C 0.71184 0.34232 0.87044 0.0
C155 C 0.72328 0.36787 0.85818 0.0
C156 C 0.70441 0.37725 0.83253 0.0
C157 C 0.67947 0.35342 0.83173 0.0
C158 C 0.68392 0.33292 0.85392 0.0
C159 C 0.69295 0.4065 0.84235 0.0
C160 C 0.72328 0.37772 0.80236 0.0
H161 H 0.57997 0.27401 0.81915 0.0
H162 H 0.63793 0.23011 0.89938 0.0
H163 H 0.68699 0.25334 0.84935 0.0
H164 H 0.71143 0.27902 0.86838 0.0
H165 H 0.69311 0.25024 0.88994 0.0
H166 H 0.63717 0.2971 0.91888 0.0
H167 H 0.66755 0.27661 0.92847 0.0
H168 H 0.67341 0.3138 0.91845 0.0
H169 H 0.5814 0.35646 0.74385 0.0
H170 H 0.6526 0.42372 0.73891 0.0
H171 H 0.67738 0.40357 0.78105 0.0
H172 H 0.57732 0.35432 0.81953 0.0
H173 H 0.55878 0.32817 0.79381 0.0
H174 H 0.57384 0.31817 0.82996 0.0
H175 H 0.6251 0.30548 0.75241 0.0
H176 H 0.60895 0.28186 0.77982 0.0
H177 H 0.58533 0.30132 0.75624 0.0
H178 H 0.56102 0.22923 0.84053 0.0
C179 C 0.59312 0.26515 0.83639 0.0
C180 C 0.88601 0.75266 0.35816 0.0
C181 C 0.87723 0.76626 0.38582 0.0
C182 C 0.85301 0.75352 0.40276 0.0
C183 C 0.84719 0.71423 0.36524 0.0
C184 C 0.87076 0.7267 0.3484 0.0
C185 C 0.87734 0.70907 0.31987 0.0
H186 H 0.85112 0.58604 0.23517 0.0
C187 C 0.83624 0.68731 0.34907 0.0
C188 C 0.85374 0.6841 0.32241 0.0
H189 H 0.91463 0.65811 0.21676 0.0
H190 H 0.89701 0.68344 0.26126 0.0
H191 H 0.85495 0.58718 0.31094 0.0
H192 H 0.79807 0.62517 0.24722 0.0
H193 H 0.77657 0.61751 0.28042 0.0
H194 H 0.7912 0.58855 0.25809 0.0
H195 H 0.82959 0.56699 0.28537 0.0
H196 H 0.81732 0.58023 0.32223 0.0
C197 C 0.90918 0.69938 0.32277 0.0
C198 C 0.87269 0.72722 0.29123 0.0
C199 C 0.749 0.62675 0.39452 0.0
C200 C 0.73185 0.60197 0.38407 0.0
C201 C 0.74043 0.58845 0.35614 0.0
C202 C 0.76527 0.59945 0.33909 0.0
C203 C 0.78166 0.62452 0.34969 0.0
C204 C 0.7732 0.63781 0.37685 0.0
C205 C 0.79188 0.66521 0.38376 0.0
C206 C 0.81298 0.66624 0.35623 0.0
C207 C 0.80727 0.64213 0.33657 0.0
C208 C 0.80843 0.6617 0.41438 0.0
C209 C 0.7713 0.69023 0.38418 0.0
C210 C 0.86119 0.60734 0.24041 0.0
C211 C 0.88503 0.61951 0.22245 0.0
C212 C 0.8971 0.64748 0.23052 0.0
C213 C 0.88664 0.66242 0.25636 0.0
C214 C 0.86351 0.6496 0.27444 0.0
C215 C 0.85067 0.6228 0.26594 0.0
C216 C 0.82487 0.61346 0.28673 0.0
C217 C 0.82534 0.63849 0.30986 0.0
C218 C 0.84823 0.6595 0.30267 0.0
C219 C 0.83179 0.58539 0.30214 0.0
C220 C 0.79611 0.61079 0.26727 0.0
H221 H 0.81988 0.71922 0.40675 0.0
H222 H 0.90463 0.76173 0.34467 0.0
H223 H 0.85506 0.74217 0.29565 0.0
H224 H 0.86484 0.71403 0.27095 0.0
H225 H 0.89341 0.74029 0.28495 0.0
H226 H 0.91313 0.69263 0.34669 0.0
H227 H 0.92613 0.71713 0.31741 0.0
H228 H 0.91328 0.68064 0.30784 0.0
H229 H 0.74377 0.63765 0.41599 0.0
H230 H 0.72761 0.56968 0.34694 0.0
H231 H 0.77057 0.5882 0.3181 0.0
H232 H 0.8155 0.63958 0.416 0.0
H233 H 0.79389 0.66573 0.43464 0.0
H234 H 0.82918 0.67578 0.4164 0.0
H235 H 0.75221 0.68557 0.3683 0.0
H236 H 0.78256 0.71043 0.37583 0.0
H237 H 0.76203 0.69407 0.40765 0.0
H238 H 0.84537 0.7637 0.42381 0.0
C239 C 0.83804 0.72769 0.39269 0.0
C240 C 0.81921 0.72622 0.89039 0.0
C241 C 0.84677 0.71633 0.88176 0.0
C242 C 0.8583 0.72174 0.85195 0.0
C243 C 0.8168 0.74928 0.84121 0.0
C244 C 0.80464 0.74262 0.86976 0.0
C245 C 0.77607 0.75635 0.8758 0.0
H246 H 0.68259 0.8538 0.83533 0.0
C247 C 0.79775 0.76894 0.82654 0.0
C248 C 0.77355 0.77283 0.8464 0.0
H249 H 0.67922 0.80292 0.91711 0.0
H250 H 0.71979 0.77686 0.89729 0.0
H251 H 0.69742 0.80014 0.78455 0.0
H252 H 0.74671 0.86788 0.83516 0.0
H253 H 0.76705 0.86341 0.80102 0.0
H254 H 0.7296 0.8741 0.79912 0.0
H255 H 0.69639 0.83748 0.77674 0.0
H256 H 0.72418 0.8164 0.75927 0.0
C257 C 0.75064 0.73229 0.87894 0.0
C258 C 0.78046 0.77653 0.90464 0.0
C259 C 0.83626 0.82206 0.7323 0.0
C260 C 0.82655 0.84579 0.7173 0.0
C261 C 0.79801 0.85461 0.7244 0.0
C262 C 0.7803 0.84115 0.74731 0.0
C263 C 0.79141 0.819 0.76377 0.0
C264 C 0.81861 0.80932 0.75564 0.0
C265 C 0.82765 0.78673 0.77675 0.0
C266 C 0.80163 0.78495 0.79931 0.0
C267 C 0.78056 0.80392 0.79161 0.0
C268 C 0.82948 0.75846 0.75762 0.0
C269 C 0.85719 0.79826 0.79237 0.0
C270 C 0.69009 0.83651 0.84855 0.0
C271 C 0.67786 0.83031 0.87775 0.0
C272 C 0.68859 0.80813 0.89464 0.0
C273 C 0.71214 0.79312 0.88312 0.0
C274 C 0.72541 0.8008 0.85472 0.0
C275 C 0.71391 0.8217 0.83762 0.0
C276 C 0.73171 0.82812 0.80879 0.0
C277 C 0.75577 0.80754 0.81135 0.0
C278 C 0.75209 0.79179 0.83839 0.0
C279 C 0.71148 0.82037 0.7807 0.0
C280 C 0.74435 0.85999 0.81079 0.0
H281 H 0.85349 0.74176 0.8094 0.0
H282 H 0.80975 0.72225 0.91311 0.0
H283 H 0.80326 0.78754 0.90481 0.0
H284 H 0.76549 0.794 0.90543 0.0
H285 H 0.77747 0.76436 0.92624 0.0
H286 H 0.75487 0.71335 0.86394 0.0
H287 H 0.74844 0.72496 0.90307 0.0
H288 H 0.72897 0.73883 0.87127 0.0
H289 H 0.85778 0.81433 0.72701 0.0
H290 H 0.7899 0.87291 0.71343 0.0
H291 H 0.75923 0.84941 0.75228 0.0
H292 H 0.81339 0.75697 0.73827 0.0
H293 H 0.85204 0.75694 0.74746 0.0
H294 H 0.82339 0.73924 0.7713 0.0
H295 H 0.85721 0.82163 0.79778 0.0
H296 H 0.86092 0.78862 0.81473 0.0
H297 H 0.87658 0.79502 0.77701 0.0
H298 H 0.87911 0.71361 0.84451 0.0
C299 C 0.84334 0.73797 0.83156 0.0
C300 C 0.80671 0.16427 0.3826 0.0
C301 C 0.82405 0.14337 0.36911 0.0
C302 C 0.82147 0.13722 0.33716 0.0
C303 C 0.78308 0.17011 0.33339 0.0
C304 C 0.78659 0.17748 0.36427 0.0
C305 C 0.76666 0.20041 0.3745 0.0
H306 H 0.65599 0.28375 0.33905 0.0
C307 C 0.75943 0.18642 0.32111 0.0
C308 C 0.74991 0.20461 0.34491 0.0
H309 H 0.70307 0.28319 0.42527 0.0
H310 H 0.73352 0.24689 0.40411 0.0
H311 H 0.64844 0.21723 0.32922 0.0
H312 H 0.71285 0.28142 0.29485 0.0
H313 H 0.70367 0.25741 0.26391 0.0
H314 H 0.67507 0.2771 0.28192 0.0
H315 H 0.64054 0.23937 0.29774 0.0
H316 H 0.65703 0.20579 0.29159 0.0
C317 C 0.74573 0.18836 0.40038 0.0
C318 C 0.78654 0.22758 0.38425 0.0
C319 C 0.7192 0.16122 0.21394 0.0
C320 C 0.69478 0.16996 0.19774 0.0
C321 C 0.6792 0.19257 0.21032 0.0
C322 C 0.68701 0.20541 0.23893 0.0
C323 C 0.71047 0.19542 0.2555 0.0
C324 C 0.72642 0.17399 0.24276 0.0
C325 C 0.75003 0.1655 0.26412 0.0
C326 C 0.74515 0.185 0.29203 0.0
C327 C 0.72198 0.20241 0.28679 0.0
C328 C 0.743 0.13344 0.27144 0.0
C329 C 0.78085 0.17256 0.24866 0.0
C330 C 0.67267 0.27569 0.35355 0.0
C331 C 0.67697 0.28625 0.38394 0.0
C332 C 0.69941 0.27553 0.40171 0.0
C333 C 0.717 0.25442 0.38941 0.0
C334 C 0.71222 0.244 0.35897 0.0
C335 C 0.69039 0.25481 0.34163 0.0
C336 C 0.68819 0.2415 0.30979 0.0
C337 C 0.7127 0.22127 0.3105 0.0
C338 C 0.72662 0.22254 0.3394 0.0
C339 C 0.65695 0.22524 0.30659 0.0
C340 C 0.69507 0.26547 0.28618 0.0
H341 H 0.80009 0.14444 0.2953 0.0
H342 H 0.80819 0.16981 0.40698 0.0
H343 H 0.80726 0.22966 0.37002 0.0
H344 H 0.77578 0.24757 0.3806 0.0
H345 H 0.79314 0.22684 0.4088 0.0
H346 H 0.73684 0.16608 0.39434 0.0
H347 H 0.75775 0.18787 0.42255 0.0
H348 H 0.72607 0.20063 0.40409 0.0
H349 H 0.732 0.14425 0.20483 0.0
H350 H 0.66005 0.19959 0.19873 0.0
H351 H 0.67386 0.22208 0.24742 0.0
H352 H 0.71874 0.12867 0.2756 0.0
H353 H 0.74963 0.11942 0.25188 0.0
H354 H 0.75377 0.12694 0.29251 0.0
H355 H 0.78022 0.19025 0.23213 0.0
H356 H 0.79807 0.18039 0.26553 0.0
H357 H 0.78841 0.15367 0.23565 0.0
H358 H 0.8352 0.12211 0.32576 0.0
C359 C 0.80115 0.15039 0.31934 0.0
C360 C 0.40572 0.64432 0.25239 0.0
C361 C 0.39285 0.61921 0.26608 0.0
C362 C 0.36648 0.60573 0.25353 0.0
C363 C 0.36554 0.64235 0.21516 0.0
C364 C 0.39151 0.65566 0.22718 0.0
C365 C 0.40097 0.68296 0.21063 0.0
H366 H 0.37113 0.77982 0.10292 0.0
C367 C 0.35569 0.65986 0.18984 0.0
C368 C 0.37618 0.68392 0.18714 0.0
H369 H 0.44768 0.78175 0.16234 0.0
H370 H 0.4287 0.73718 0.18436 0.0
H371 H 0.32291 0.75881 0.15214 0.0
H372 H 0.37145 0.7111 0.08485 0.0
H373 H 0.3339 0.69773 0.08387 0.0
H374 H 0.34377 0.73451 0.07452 0.0
H375 H 0.31417 0.75819 0.11183 0.0
H376 H 0.29817 0.7311 0.13728 0.0
C377 C 0.40119 0.70825 0.23438 0.0
C378 C 0.43142 0.67933 0.19482 0.0
C379 C 0.26185 0.62604 0.13089 0.0
C380 C 0.24535 0.63827 0.10792 0.0
C381 C 0.25575 0.6656 0.09731 0.0
C382 C 0.28196 0.68007 0.10887 0.0
C383 C 0.29808 0.66742 0.13167 0.0
C384 C 0.28767 0.64103 0.14258 0.0
C385 C 0.30654 0.63159 0.1682 0.0
C386 C 0.33055 0.65625 0.17021 0.0
C387 C 0.32567 0.6771 0.14859 0.0
C388 C 0.28712 0.62944 0.19801 0.0
C389 C 0.31945 0.60321 0.15764 0.0
C390 C 0.38406 0.77061 0.12042 0.0
C391 C 0.41095 0.78484 0.13091 0.0
C392 C 0.42663 0.77187 0.15412 0.0
C393 C 0.41567 0.74575 0.16681 0.0
C394 C 0.38867 0.73206 0.15628 0.0
C395 C 0.37351 0.74441 0.13323 0.0
C396 C 0.34548 0.7266 0.12437 0.0
C397 C 0.34624 0.7016 0.14589 0.0
C398 C 0.37153 0.70492 0.16479 0.0
C399 C 0.31865 0.74449 0.13148 0.0
C400 C 0.34848 0.71701 0.09007 0.0
H401 H 0.33296 0.60556 0.21986 0.0
H402 H 0.42587 0.65528 0.26162 0.0
H403 H 0.43259 0.65703 0.1856 0.0
H404 H 0.43545 0.69302 0.17464 0.0
H405 H 0.44991 0.68385 0.21139 0.0
H406 H 0.38156 0.70566 0.25013 0.0
H407 H 0.42149 0.7094 0.24875 0.0
H408 H 0.39967 0.72912 0.2236 0.0
H409 H 0.25506 0.60511 0.13968 0.0
H410 H 0.24344 0.6762 0.08035 0.0
H411 H 0.28852 0.70072 0.09976 0.0
H412 H 0.26844 0.64353 0.19734 0.0
H413 H 0.27728 0.6072 0.20125 0.0
H414 H 0.29962 0.63685 0.21893 0.0
H415 H 0.32688 0.6042 0.13309 0.0
H416 H 0.3393 0.59864 0.17068 0.0
H417 H 0.30247 0.5848 0.15961 0.0
H418 H 0.35632 0.58625 0.26336 0.0
C419 C 0.35292 0.61701 0.22819 0.0
C420 C 0.118 0.24964 0.64667 0.0
C421 C 0.12849 0.23484 0.6205 0.0
C422 C 0.15434 0.24637 0.60523 0.0
C423 C 0.1579 0.28725 0.64083 0.0
C424 C 0.133 0.27573 0.65636 0.0
C425 C 0.12468 0.29458 0.68332 0.0
H426 H 0.14978 0.41868 0.76687 0.0
C427 C 0.1677 0.31499 0.65602 0.0
C428 C 0.14842 0.31943 0.68104 0.0
H429 H 0.08165 0.34991 0.78168 0.0
H430 H 0.10065 0.32305 0.73853 0.0
H431 H 0.14435 0.41826 0.69311 0.0
H432 H 0.20321 0.37781 0.75274 0.0
H433 H 0.22442 0.3918 0.72156 0.0
H434 H 0.20604 0.41579 0.74729 0.0
H435 H 0.17375 0.43819 0.71385 0.0
H436 H 0.18011 0.42176 0.67648 0.0
C437 C 0.09314 0.30408 0.67767 0.0
C438 C 0.12751 0.27775 0.71327 0.0
C439 C 0.25615 0.37503 0.61183 0.0
C440 C 0.27028 0.40202 0.61997 0.0
C441 C 0.25917 0.41732 0.64555 0.0
C442 C 0.23459 0.40593 0.66267 0.0
C443 C 0.22079 0.3789 0.6542 0.0
C444 C 0.23162 0.36401 0.6291 0.0
C445 C 0.21414 0.33573 0.62321 0.0
C446 C 0.19111 0.33599 0.649 0.0
C447 C 0.19506 0.3613 0.66713 0.0
C448 C 0.19983 0.33646 0.59092 0.0
C449 C 0.23531 0.31157 0.6269 0.0
C450 C 0.13883 0.3979 0.76073 0.0
C451 C 0.11409 0.38649 0.77778 0.0
C452 C 0.1009 0.35912 0.76923 0.0
C453 C 0.11186 0.3436 0.74399 0.0
C454 C 0.13634 0.35548 0.72699 0.0
C455 C 0.14954 0.38211 0.73561 0.0
C456 C 0.17551 0.39126 0.71505 0.0
C457 C 0.17568 0.3658 0.69261 0.0
C458 C 0.15259 0.34493 0.69962 0.0
C459 C 0.16838 0.41892 0.69881 0.0
C460 C 0.20388 0.39459 0.73502 0.0
H461 H 0.18844 0.27994 0.6024 0.0
H462 H 0.09817 0.24148 0.65891 0.0
H463 H 0.14606 0.2635 0.71128 0.0
H464 H 0.13303 0.29183 0.73359 0.0
H465 H 0.10681 0.26408 0.71815 0.0
H466 H 0.09034 0.30892 0.65294 0.0
H467 H 0.07578 0.28694 0.68377 0.0
H468 H 0.08865 0.32397 0.69049 0.0
H469 H 0.26425 0.36241 0.59267 0.0
H470 H 0.26928 0.43831 0.65218 0.0
H471 H 0.22724 0.41866 0.68181 0.0
H472 H 0.19326 0.3583 0.58614 0.0
H473 H 0.21561 0.33051 0.57241 0.0
H474 H 0.17904 0.32247 0.58877 0.0
H475 H 0.25219 0.31753 0.64495 0.0
H476 H 0.22369 0.29136 0.63476 0.0
H477 H 0.24743 0.3073 0.60501 0.0
H478 H 0.16335 0.2352 0.58548 0.0
C479 C 0.16903 0.27238 0.61521 0.0
Dy480 Dy 0.0135 0.00938 0.47103 0.0
C481 C 0.95592 0.97287 0.58189 0.0
C482 C 0.03172 0.03706 0.41904 0.0
Dy483 Dy 0.98373 0.99651 0.53159 0.0
O484 O 0.0413 0.0132 0.42777 0.0
O485 O 0.01208 0.04562 0.43853 0.0
O486 O 0.0425 0.97319 0.47482 0.0
O487 O 0.02941 0.99512 0.51513 0.0
C488 C 0.04234 0.97385 0.50479 0.0
C489 C 0.95682 0.03267 0.49667 0.0
O490 O 0.01468 0.03253 0.54941 0.0
O491 O 0.02859 0.04817 0.50064 0.0
O492 O 0.94453 0.98997 0.56322 0.0
O493 O 0.9831 0.96899 0.57358 0.0
O494 O 0.95886 0.03562 0.52641 0.0
O495 O 0.96804 0.01018 0.4873 0.0
O496 O 0.98191 0.97319 0.45471 0.0
O497 O 0.97362 0.95569 0.50362 0.0
C498 C 0.02809 0.05188 0.53114 0.0
C499 C 0.97183 0.95252 0.4732 0.0
Dy500 Dy 0.53054 0.01745 0.01938 0.0
C501 C 0.43272 0.95342 0.94987 0.0
C502 C 0.57593 0.05204 0.04413 0.0
Dy503 Dy 0.47608 0.99027 0.97504 0.0
O504 O 0.57617 0.02448 0.0397 0.0
O505 O 0.55092 0.0607 0.03493 0.0
O506 O 0.52239 0.98509 0.05743 0.0
O507 O 0.49598 0.98295 0.01893 0.0
C508 C 0.5001 0.97074 0.0438 0.0
C509 C 0.50635 0.03717 0.95071 0.0
O510 O 0.4524 0.01373 0.01231 0.0
O511 O 0.49243 0.04214 0.03434 0.0
O512 O 0.42991 0.9804 0.95624 0.0
O513 O 0.459 0.94673 0.95744 0.0
O514 O 0.48379 0.02304 0.93729 0.0
O515 O 0.51073 0.02471 0.97536 0.0
O516 O 0.55423 0.99284 0.98306 0.0
O517 O 0.51391 0.96474 0.96141 0.0
C518 C 0.46354 0.03509 0.03069 0.0
C519 C 0.54282 0.97116 0.96533 0.0
Dy520 Dy 0.51215 0.47866 0.48231 0.0
C521 C 0.45393 0.56634 0.54915 0.0
C522 C 0.5477 0.44032 0.45542 0.0
Dy523 Dy 0.48974 0.52837 0.52185 0.0
O524 O 0.519 0.43951 0.45245 0.0
O525 O 0.55694 0.46232 0.47256 0.0
O526 O 0.46543 0.45747 0.48 0.0
O527 O 0.4791 0.48245 0.51872 0.0
C528 C 0.45713 0.46902 0.50598 0.0
C529 C 0.54526 0.53737 0.49967 0.0
O530 O 0.50817 0.50422 0.56039 0.0
O531 O 0.53326 0.47302 0.52862 0.0
O532 O 0.47888 0.57324 0.53495 0.0
O533 O 0.44889 0.53866 0.54908 0.0
O534 O 0.53654 0.54849 0.5258 0.0
O535 O 0.52345 0.52449 0.48589 0.0
O536 O 0.49808 0.50634 0.44455 0.0
O537 O 0.46667 0.53139 0.47601 0.0
C538 C 0.52696 0.48394 0.55638 0.0
C539 C 0.47649 0.52387 0.44813 0.0
Dy540 Dy 0.01364 0.47642 0.0164 0.0
C541 C 0.96527 0.58215 0.98586 0.0
C542 C 0.04424 0.43219 0.03417 0.0
Dy543 Dy 0.99427 0.53403 0.98952 0.0
O544 O 0.03034 0.44894 0.05265 0.0
O545 O 0.04081 0.43906 0.00568 0.0
O546 O 0.97577 0.47828 0.05055 0.0
O547 O 0.99815 0.51632 0.03494 0.0
C548 C 0.9768 0.50614 0.05131 0.0
C549 C 0.02181 0.50389 0.9455 0.0
O550 O 0.03652 0.55075 0.01262 0.0
O551 O 0.05437 0.5069 0.02431 0.0
O552 O 0.9923 0.57958 0.97598 0.0
O553 O 0.95412 0.55842 0.99772 0.0
O554 O 0.0118 0.52866 0.94064 0.0
O555 O 0.01637 0.49775 0.97314 0.0
O556 O 0.97508 0.45874 0.98802 0.0
O557 O 0.95454 0.5023 0.981 0.0
C558 C 0.05759 0.53532 0.02288 0.0
C559 C 0.95313 0.47377 0.97901 0.0
H560 H 0.141 0.10314 0.26872 0.0
H561 H 0.01985 0.09103 0.40447 0.0
H562 H 0.10791 0.1765 0.31642 0.0
H563 H 0.07232 0.02172 0.37592 0.0
H564 H 0.04546 0.12117 0.36564 0.0
H565 H 0.11015 0.0717 0.30216 0.0
C566 C 0.12742 0.11267 0.28637 0.0
C567 C 0.12732 0.14254 0.29001 0.0
C568 C 0.0512 0.0993 0.36774 0.0
C569 C 0.09144 0.10662 0.32779 0.0
C570 C 0.03652 0.08208 0.38972 0.0
C571 C 0.04425 0.05402 0.39341 0.0
C572 C 0.07358 0.08823 0.34929 0.0
C573 C 0.06591 0.04336 0.37382 0.0
C574 C 0.10964 0.09468 0.30525 0.0
C575 C 0.10857 0.15362 0.31265 0.0
N576 N 0.07998 0.06056 0.35261 0.0
N577 N 0.09141 0.13563 0.33075 0.0
H578 H 0.36605 0.82596 0.81991 0.0
H579 H 0.37738 0.96411 0.92969 0.0
H580 H 0.28973 0.87399 0.83925 0.0
H581 H 0.43892 0.89833 0.93174 0.0
H582 H 0.34449 0.93237 0.89664 0.0
H583 H 0.39279 0.85288 0.86075 0.0
C584 C 0.35458 0.84177 0.83305 0.0
C585 C 0.32535 0.84747 0.82598 0.0
C586 C 0.36502 0.9248 0.90469 0.0
C587 C 0.35664 0.87931 0.87249 0.0
C588 C 0.38375 0.94287 0.92348 0.0
C589 C 0.41095 0.93384 0.93314 0.0
C590 C 0.37386 0.89777 0.89533 0.0
C591 C 0.41822 0.90618 0.92458 0.0
C592 C 0.37008 0.85736 0.85633 0.0
C593 C 0.31233 0.86905 0.84343 0.0
N594 N 0.39996 0.88926 0.90589 0.0
N595 N 0.32816 0.88439 0.86569 0.0
H596 H 0.55691 0.40474 0.73199 0.0
H597 H 0.57745 0.45554 0.55797 0.0
H598 H 0.64087 0.40785 0.68317 0.0
H599 H 0.5069 0.48335 0.61678 0.0
H600 H 0.59817 0.43281 0.602 0.0
H601 H 0.53513 0.428 0.68831 0.0
C602 C 0.57067 0.41011 0.71201 0.0
C603 C 0.60078 0.40443 0.71126 0.0
C604 C 0.57822 0.44397 0.60535 0.0
C605 C 0.57605 0.43088 0.66128 0.0
C606 C 0.56632 0.45695 0.58018 0.0
C607 C 0.54041 0.47151 0.58364 0.0
C608 C 0.56391 0.44501 0.63427 0.0
C609 C 0.52704 0.47258 0.61309 0.0
C610 C 0.55831 0.42357 0.68723 0.0
C611 C 0.61765 0.41205 0.68486 0.0
N612 N 0.5388 0.45931 0.63721 0.0
N613 N 0.60506 0.4247 0.66095 0.0
H614 H 0.94294 0.62235 0.20088 0.0
H615 H 0.92671 0.48954 0.08471 0.0
H616 H 0.85643 0.57877 0.18298 0.0
H617 H 0.99021 0.56177 0.06956 0.0
H618 H 0.90264 0.51777 0.12517 0.0
H619 H 0.96311 0.5962 0.15726 0.0
C620 C 0.92796 0.60761 0.18773 0.0
C621 C 0.89766 0.6032 0.19581 0.0
C622 C 0.9217 0.52742 0.11276 0.0
C623 C 0.9213 0.57221 0.14619 0.0
C624 C 0.93544 0.51136 0.08979 0.0
C625 C 0.96051 0.52334 0.07392 0.0
C626 C 0.93362 0.55533 0.12032 0.0
C627 C 0.97094 0.55171 0.08128 0.0
C628 C 0.93968 0.59251 0.16286 0.0
C629 C 0.87995 0.58279 0.17818 0.0
N630 N 0.95771 0.56661 0.10423 0.0
N631 N 0.89207 0.56792 0.15437 0.0
H632 H 0.37582 0.13798 0.16704 0.0
H633 H 0.40499 0.04042 0.01838 0.0
H634 H 0.32149 0.13615 0.08569 0.0
H635 H 0.47476 0.06916 0.08204 0.0
H636 H 0.37143 0.07077 0.04624 0.0
H637 H 0.41044 0.10846 0.13916 0.0
C638 C 0.37136 0.13148 0.14326 0.0
C639 C 0.34598 0.13952 0.1285 0.0
C640 C 0.39412 0.07041 0.05403 0.0
C641 C 0.3849 0.10565 0.09684 0.0
C642 C 0.41319 0.05297 0.0383 0.0
C643 C 0.44269 0.05235 0.04789 0.0
C644 C 0.40453 0.08696 0.07975 0.0
C645 C 0.45221 0.06917 0.07376 0.0
C646 C 0.39105 0.11475 0.1274 0.0
C647 C 0.34106 0.13064 0.0977 0.0
N648 N 0.43312 0.08574 0.08891 0.0
N649 N 0.36024 0.11395 0.08293 0.0
H650 H 0.18178 0.87251 0.56367 0.0
H651 H 0.04749 0.97386 0.5677 0.0
H652 H 0.13339 0.89227 0.64713 0.0
H653 H 0.08011 0.93492 0.48394 0.0
H654 H 0.08055 0.94625 0.59753 0.0
H655 H 0.14631 0.89715 0.53412 0.0
C656 C 0.1636 0.88177 0.57581 0.0
C657 C 0.16077 0.88033 0.60806 0.0
C658 C 0.08035 0.94366 0.57263 0.0
C659 C 0.12031 0.90912 0.57429 0.0
C660 C 0.06152 0.95941 0.55564 0.0
C661 C 0.06116 0.95668 0.52335 0.0
C662 C 0.09914 0.92531 0.55715 0.0
C663 C 0.07977 0.9377 0.50882 0.0
C664 C 0.14342 0.896 0.55891 0.0
C665 C 0.13693 0.89327 0.62244 0.0
N666 N 0.09814 0.92288 0.52579 0.0
N667 N 0.11776 0.90722 0.6055 0.0
H668 H 0.77764 0.42908 0.90292 0.0
H669 H 0.94076 0.41559 0.97021 0.0
H670 H 0.81587 0.34833 0.91295 0.0
H671 H 0.90256 0.49621 0.95882 0.0
H672 H 0.89533 0.39058 0.94948 0.0
H673 H 0.82328 0.45391 0.92317 0.0
C674 C 0.79567 0.41652 0.90918 0.0
C675 C 0.79275 0.38647 0.90609 0.0
C676 C 0.89689 0.41374 0.95151 0.0
C677 C 0.84525 0.41494 0.92979 0.0
C678 C 0.92288 0.42809 0.96338 0.0
C679 C 0.92565 0.45815 0.96635 0.0
C680 C 0.87334 0.42947 0.94249 0.0
C681 C 0.90159 0.47306 0.95702 0.0
C682 C 0.82172 0.43075 0.92095 0.0
C683 C 0.81683 0.37146 0.91522 0.0
N684 N 0.87654 0.4586 0.94556 0.0
N685 N 0.84199 0.38581 0.92658 0.0
H686 H 0.70741 0.54599 0.38879 0.0
H687 H 0.58786 0.57901 0.51774 0.0
H688 H 0.69384 0.63253 0.42007 0.0
H689 H 0.56813 0.51387 0.44702 0.0
H690 H 0.63416 0.59389 0.49023 0.0
H691 H 0.66265 0.52906 0.41745 0.0
C692 C 0.69518 0.56153 0.40146 0.0
C693 C 0.70483 0.59089 0.40182 0.0
C694 C 0.61974 0.57619 0.48094 0.0
C695 C 0.65416 0.57122 0.43565 0.0
C696 C 0.59345 0.56762 0.49665 0.0
C697 C 0.57421 0.54516 0.48462 0.0
C698 C 0.62711 0.56178 0.45343 0.0
C699 C 0.58246 0.53119 0.45713 0.0
C700 C 0.66974 0.55172 0.418 0.0
C701 C 0.68808 0.60967 0.41949 0.0
N702 N 0.60841 0.53963 0.44249 0.0
N703 N 0.66378 0.59949 0.43582 0.0
H704 H 0.17367 0.30656 0.05265 0.0
H705 H 0.05668 0.4208 0.0932 0.0
H706 H 0.1646 0.34795 0.14203 0.0
H707 H 0.0792 0.39843 0.99905 0.0
H708 H 0.09467 0.39135 0.11106 0.0
H709 H 0.13935 0.33898 0.03145 0.0
C710 C 0.16495 0.32288 0.0676 0.0
C711 C 0.17159 0.32448 0.09915 0.0
C712 C 0.09138 0.39281 0.08647 0.0
C713 C 0.13214 0.36087 0.07545 0.0
C714 C 0.06951 0.40942 0.07629 0.0
C715 C 0.06489 0.41194 0.04466 0.0
C716 C 0.1087 0.37846 0.06486 0.0
C717 C 0.08213 0.39687 0.02368 0.0
C718 C 0.14523 0.34115 0.0556 0.0
C719 C 0.15961 0.34576 0.11767 0.0
N720 N 0.1034 0.38067 0.03417 0.0
N721 N 0.14022 0.36291 0.10561 0.0
H722 H 0.60203 0.20515 0.93068 0.0
H723 H 0.4978 0.06181 0.89603 0.0
H724 H 0.56735 0.18032 0.84061 0.0
H725 H 0.55024 0.07359 0.97843 0.0
H726 H 0.52125 0.10671 0.87686 0.0
H727 H 0.58194 0.15878 0.94997 0.0
C728 C 0.59043 0.19001 0.91482 0.0
C729 C 0.58634 0.19706 0.88385 0.0
C730 C 0.52778 0.09955 0.89913 0.0
C731 C 0.56275 0.14386 0.90617 0.0
C732 C 0.51434 0.07386 0.91014 0.0
C733 C 0.52193 0.06397 0.93904 0.0
C734 C 0.54889 0.11587 0.91721 0.0
C735 C 0.54357 0.08052 0.95621 0.0
C736 C 0.57882 0.16352 0.92598 0.0
C737 C 0.57061 0.17643 0.86476 0.0
N738 N 0.55617 0.10576 0.94516 0.0
N739 N 0.55935 0.15101 0.87623 0.0
H740 H 0.89837 0.81321 0.35283 0.0
H741 H 0.9508 0.90488 0.50412 0.0
H742 H 0.89242 0.78134 0.44535 0.0
H743 H 0.96229 0.93722 0.41206 0.0
H744 H 0.92925 0.85956 0.48238 0.0
H745 H 0.92234 0.85853 0.37333 0.0
C746 C 0.9023 0.81563 0.37739 0.0
C747 C 0.89312 0.79347 0.39741 0.0
C748 C 0.93648 0.87652 0.46686 0.0
C749 C 0.92024 0.84536 0.42105 0.0
C750 C 0.94877 0.90251 0.47929 0.0
C751 C 0.95838 0.92502 0.45992 0.0
C752 C 0.93361 0.87282 0.43474 0.0
C753 C 0.95518 0.92051 0.4279 0.0
C754 C 0.91582 0.84157 0.3891 0.0
C755 C 0.89856 0.79796 0.42908 0.0
N756 N 0.94303 0.89493 0.41631 0.0
N757 N 0.91164 0.82334 0.43986 0.0
H758 H 0.31538 0.6531 0.64425 0.0
H759 H 0.45575 0.62355 0.53867 0.0
H760 H 0.34561 0.70803 0.57014 0.0
H761 H 0.40398 0.55558 0.58461 0.0
H762 H 0.41885 0.65676 0.55471 0.0
H763 H 0.35038 0.61844 0.62674 0.0
C764 C 0.32922 0.65769 0.62412 0.0
C765 C 0.32759 0.68336 0.60851 0.0
C766 C 0.41558 0.63458 0.56128 0.0
C767 C 0.36797 0.64423 0.5888 0.0
C768 C 0.43671 0.6157 0.55235 0.0
C769 C 0.43287 0.58686 0.56042 0.0
C770 C 0.39066 0.62462 0.5788 0.0
C771 C 0.40774 0.5777 0.57798 0.0
C772 C 0.34913 0.63795 0.61415 0.0
C773 C 0.34599 0.68834 0.58259 0.0
N774 N 0.38762 0.59657 0.58674 0.0
N775 N 0.36567 0.6691 0.57373 0.0
H776 H 0.88679 0.85792 0.72329 0.0
H777 H 0.89727 0.97494 0.5943 0.0
H778 H 0.81321 0.87345 0.66475 0.0
H779 H 0.97436 0.93302 0.62109 0.0
H780 H 0.86628 0.94326 0.62731 0.0
H781 H 0.91951 0.8893 0.69152 0.0
C782 C 0.87752 0.86751 0.70352 0.0
C783 C 0.84707 0.86294 0.6967 0.0
C784 C 0.88999 0.94105 0.62606 0.0
C785 C 0.88434 0.89966 0.66109 0.0
C786 C 0.90772 0.95926 0.60747 0.0
C787 C 0.93833 0.95641 0.60497 0.0
C788 C 0.90302 0.92006 0.64251 0.0
C789 C 0.95078 0.93578 0.62247 0.0
C790 C 0.89623 0.88563 0.68561 0.0
C791 C 0.83635 0.87666 0.67124 0.0
N792 N 0.933 0.91825 0.6406 0.0
N793 N 0.85493 0.89458 0.6545 0.0
H794 H 0.67022 0.19101 0.14596 0.0
H795 H 0.62463 0.03516 0.07302 0.0
H796 H 0.69371 0.11216 0.18513 0.0
H797 H 0.57952 0.11012 0.05276 0.0
H798 H 0.65927 0.06496 0.10575 0.0
H799 H 0.64576 0.16315 0.10356 0.0
C800 C 0.67047 0.16791 0.14559 0.0
C801 C 0.68376 0.15396 0.16949 0.0
C802 C 0.64199 0.07493 0.09386 0.0
C803 C 0.65622 0.12207 0.12074 0.0
C804 C 0.62231 0.05797 0.07515 0.0
C805 C 0.59906 0.07023 0.06055 0.0
C806 C 0.63843 0.10432 0.09781 0.0
C807 C 0.59703 0.09986 0.06392 0.0
C808 C 0.65661 0.15206 0.1213 0.0
C809 C 0.68402 0.12398 0.16723 0.0
N810 N 0.61636 0.11592 0.0824 0.0
N811 N 0.67024 0.10906 0.14346 0.0
H812 H 0.36456 0.6035 0.31971 0.0
H813 H 0.50034 0.52748 0.38945 0.0
H814 H 0.45073 0.60675 0.27532 0.0
H815 H 0.42527 0.55128 0.44423 0.0
H816 H 0.48101 0.5519 0.34544 0.0
H817 H 0.385 0.58036 0.36372 0.0
C818 C 0.38785 0.59939 0.31928 0.0
C819 C 0.40596 0.60704 0.29376 0.0
C820 C 0.4688 0.55174 0.36711 0.0
C821 C 0.42952 0.58016 0.34409 0.0
C822 C 0.4797 0.53763 0.3922 0.0
C823 C 0.4644 0.53723 0.42066 0.0
C824 C 0.44216 0.56522 0.37029 0.0
C825 C 0.43788 0.55101 0.42283 0.0
C826 C 0.39953 0.58623 0.34446 0.0
C827 C 0.43605 0.60136 0.29459 0.0
N828 N 0.42758 0.56427 0.39802 0.0
N829 N 0.44683 0.58802 0.3192 0.0
H830 H 0.09304 0.36752 0.83413 0.0
H831 H 0.04247 0.52101 0.88954 0.0
H832 H 0.10642 0.44395 0.78071 0.0
H833 H 0.03441 0.44741 0.94739 0.0
H834 H 0.06585 0.49261 0.84951 0.0
H835 H 0.07138 0.39575 0.87585 0.0
C836 C 0.09138 0.39021 0.83113 0.0
C837 C 0.10159 0.40335 0.8038 0.0
C838 C 0.05917 0.4826 0.87099 0.0
C839 C 0.07695 0.43582 0.85157 0.0
C840 C 0.04578 0.49882 0.89386 0.0
C841 C 0.03674 0.48657 0.92192 0.0
C842 C 0.06339 0.45371 0.87601 0.0
C843 C 0.04149 0.45774 0.92627 0.0
C844 C 0.07916 0.40634 0.85504 0.0
C845 C 0.09922 0.43292 0.80143 0.0
N846 N 0.05442 0.44221 0.90349 0.0
N847 N 0.08709 0.44807 0.8249 0.0
H848 H 0.67971 0.85572 0.93496 0.0
H849 H 0.53161 0.93471 0.91589 0.0
H850 H 0.62787 0.84817 0.85172 0.0
H851 H 0.60001 0.96323 0.98118 0.0
H852 H 0.56381 0.8994 0.89465 0.0
H853 H 0.647 0.89088 0.95577 0.0
C854 C 0.66112 0.86116 0.9213 0.0
C855 C 0.65631 0.84903 0.89168 0.0
C856 C 0.57182 0.91353 0.91348 0.0
C857 C 0.61924 0.88939 0.91505 0.0
C858 C 0.55349 0.93367 0.92562 0.0
C859 C 0.56318 0.95189 0.95036 0.0
C860 C 0.59981 0.91132 0.92648 0.0
C861 C 0.59175 0.9497 0.962 0.0
C862 C 0.64273 0.88144 0.93301 0.0
C863 C 0.63229 0.85716 0.87465 0.0
N864 N 0.609 0.92955 0.95012 0.0
N865 N 0.61456 0.87685 0.88662 0.0
H866 H 0.83604 0.087 0.36254 0.0
H867 H 0.9351 0.08377 0.51255 0.0
H868 H 0.85809 0.16296 0.41914 0.0
H869 H 0.93874 0.02193 0.43726 0.0
H870 H 0.90363 0.11177 0.48132 0.0
H871 H 0.87009 0.06132 0.39241 0.0
C872 C 0.84823 0.09846 0.38103 0.0
C873 C 0.84432 0.12743 0.38797 0.0
C874 C 0.91147 0.09217 0.4716 0.0
C875 C 0.88294 0.09763 0.42294 0.0
C876 C 0.92934 0.07617 0.48939 0.0
C877 C 0.93934 0.05048 0.47745 0.0
C878 C 0.90322 0.08212 0.44187 0.0
C879 C 0.9314 0.04161 0.44732 0.0
C880 C 0.86759 0.08365 0.39819 0.0
C881 C 0.8601 0.14064 0.41301 0.0
N882 N 0.91357 0.05728 0.43064 0.0
N883 N 0.87866 0.12562 0.42964 0.0
H884 H 0.20474 0.60043 0.13742 0.0
H885 H 0.0834 0.5877 0.00614 0.0
H886 H 0.22136 0.64054 0.04954 0.0
H887 H 0.09536 0.51769 0.06619 0.0
H888 H 0.12938 0.61268 0.02634 0.0
H889 H 0.16011 0.57483 0.11608 0.0
C890 C 0.19937 0.60382 0.11361 0.0
C891 C 0.21741 0.6228 0.09536 0.0
C892 C 0.12191 0.59182 0.03498 0.0
C893 C 0.16525 0.59405 0.07121 0.0
C894 C 0.09566 0.5776 0.02358 0.0
C895 C 0.08557 0.55053 0.03443 0.0
C896 C 0.13778 0.5792 0.05796 0.0
C897 C 0.10242 0.53843 0.05701 0.0
C898 C 0.17364 0.58925 0.10155 0.0
C899 C 0.20821 0.62669 0.0649 0.0
N900 N 0.12751 0.55297 0.06824 0.0
N901 N 0.18275 0.61262 0.0539 0.0
H902 H 0.28022 0.39872 0.55725 0.0
H903 H 0.44232 0.48186 0.56561 0.0
H904 H 0.32075 0.4324 0.6418 0.0
H905 H 0.40726 0.43889 0.483 0.0
H906 H 0.39599 0.46757 0.59277 0.0
H907 H 0.32473 0.41641 0.52879 0.0
C908 C 0.29847 0.40976 0.56989 0.0
C909 C 0.29669 0.41389 0.6021 0.0
C910 C 0.39831 0.46133 0.56868 0.0
C911 C 0.34768 0.43458 0.56944 0.0
C912 C 0.42472 0.46961 0.5531 0.0
C913 C 0.42858 0.46156 0.52199 0.0
C914 C 0.37551 0.44484 0.55306 0.0
C915 C 0.40516 0.44548 0.50701 0.0
C916 C 0.32384 0.41999 0.55356 0.0
C917 C 0.32088 0.42893 0.61702 0.0
N918 N 0.37962 0.43758 0.5227 0.0
N919 N 0.34534 0.43863 0.6006 0.0
H920 H 0.90603 0.72479 0.89348 0.0
H921 H 0.90645 0.58727 0.99756 0.0
H922 H 0.82662 0.6736 0.92049 0.0
H923 H 0.98536 0.63245 0.96021 0.0
H924 H 0.87684 0.62467 0.97894 0.0
H925 H 0.93517 0.69682 0.92667 0.0
C926 C 0.89475 0.70764 0.90647 0.0
C927 C 0.86401 0.70104 0.9038 0.0
C928 C 0.90068 0.62661 0.97523 0.0
C929 C 0.89711 0.66914 0.94198 0.0
C930 C 0.91757 0.60536 0.98592 0.0
C931 C 0.94822 0.6067 0.97988 0.0
C932 C 0.91468 0.64919 0.95842 0.0
C933 C 0.96168 0.63055 0.96494 0.0
C934 C 0.91135 0.69182 0.92556 0.0
C935 C 0.85033 0.67922 0.9218 0.0
N936 N 0.94473 0.65073 0.95435 0.0
N937 N 0.86707 0.66376 0.93988 0.0
H938 H 0.44082 0.83075 0.16123 0.0
H939 H 0.45745 0.93326 0.01554 0.0
H940 H 0.40744 0.80396 0.07118 0.0
H941 H 0.50688 0.94782 0.09969 0.0
H942 H 0.43434 0.88822 0.03631 0.0
H943 H 0.46078 0.87596 0.13994 0.0
C944 C 0.43781 0.83416 0.13691 0.0
C945 C 0.42256 0.81307 0.11805 0.0
C946 C 0.45021 0.90134 0.0502 0.0
C947 C 0.44507 0.86564 0.09344 0.0
C948 C 0.46334 0.92705 0.03835 0.0
C949 C 0.48424 0.94423 0.0558 0.0
C950 C 0.45782 0.89301 0.07987 0.0
C951 C 0.49097 0.93522 0.08535 0.0
C952 C 0.44909 0.86021 0.12477 0.0
C953 C 0.41876 0.81949 0.08682 0.0
N954 N 0.47784 0.91037 0.09639 0.0
N955 N 0.42994 0.84511 0.07552 0.0
H956 H 0.10236 0.18964 0.65322 0.0
H957 H 0.056 0.09694 0.50069 0.0
H958 H 0.11789 0.21854 0.5603 0.0
H959 H 0.03409 0.06803 0.59254 0.0
H960 H 0.07954 0.14121 0.52284 0.0
H961 H 0.07744 0.14494 0.63221 0.0
C962 C 0.1004 0.18669 0.62844 0.0
C963 C 0.11248 0.20784 0.60851 0.0
C964 C 0.06962 0.12524 0.53823 0.0
C965 C 0.08426 0.15666 0.58433 0.0
C966 C 0.05618 0.09982 0.52557 0.0
C967 C 0.04301 0.0786 0.54475 0.0
C968 C 0.07005 0.12966 0.57041 0.0
C969 C 0.04396 0.08375 0.57684 0.0
C970 C 0.08632 0.1611 0.61647 0.0
C971 C 0.10949 0.20268 0.57659 0.0
N972 N 0.05726 0.10876 0.58868 0.0
N973 N 0.09578 0.17767 0.56556 0.0
H974 H 0.69384 0.33438 0.4192 0.0
H975 H 0.53093 0.39171 0.42173 0.0
H976 H 0.617 0.28881 0.37726 0.0
H977 H 0.60741 0.43826 0.46313 0.0
H978 H 0.5623 0.35371 0.40531 0.0
H979 H 0.66255 0.37217 0.43666 0.0
C980 C 0.67035 0.33219 0.41392 0.0
C981 C 0.65808 0.30847 0.39657 0.0
C982 C 0.57228 0.37226 0.41791 0.0
C983 C 0.62221 0.35178 0.41612 0.0
C984 C 0.55439 0.39398 0.42718 0.0
C985 C 0.56665 0.41811 0.44373 0.0
C986 C 0.60266 0.37468 0.42531 0.0
C987 C 0.59712 0.41998 0.45033 0.0
C988 C 0.65254 0.35386 0.42368 0.0
C989 C 0.62754 0.30693 0.39013 0.0
N990 N 0.61409 0.39851 0.44115 0.0
N991 N 0.61071 0.32827 0.39982 0.0
loop_
_geom_bond_atom_site_label_1
_geom_bond_atom_site_label_2
_geom_bond_distance
_geom_bond_site_symmetry_2
_ccdc_geom_bond_type
C0 C1 1.391 . S
C0 C4 1.391 . S
C0 H42 0.948 . S
C1 C0 1.391 . S
C1 C2 1.391 . S
C2 C1 1.391 . S
C2 H58 0.947 . S
C2 C59 1.392 . S
C3 C4 1.391 . S
C3 C7 1.397 . S
C3 C59 1.419 . S
C4 C0 1.391 . S
C4 C3 1.391 . S
C4 C5 1.399 . S
C5 C4 1.399 . S
C5 C8 1.396 . S
C5 C17 1.453 . S
C5 C18 1.684 . S
H6 C30 0.948 . S
C7 C3 1.397 . S
C7 C8 1.394 . S
C7 C26 1.723 . S
C8 C5 1.396 . S
C8 C7 1.394 . S
C8 C38 1.723 . S
H9 C32 0.947 . S
H10 C33 0.948 . S
H11 C39 0.982 . S
H12 C40 0.979 . S
H13 C40 0.980 . S
H14 C40 0.983 . S
H15 C39 0.979 . S
H16 C39 0.977 . S
C17 C5 1.453 . S
C17 H46 0.982 . S
C17 H47 0.979 . S
C17 H48 0.977 . S
C18 C5 1.684 . S
C18 H43 0.979 . S
C18 H44 0.980 . S
C18 H45 0.983 . S
C19 C20 1.391 . S
C19 C24 1.391 . S
C19 H49 0.948 . S
C20 C19 1.391 . S
C20 C21 1.391 . S
C21 C20 1.391 . S
C21 C22 1.392 . S
C21 H50 0.947 . S
C22 C21 1.392 . S
C22 C23 1.419 . S
C22 H51 0.948 . S
C23 C22 1.419 . S
C23 C24 1.391 . S
C23 C27 1.397 . S
C24 C19 1.391 . S
C24 C23 1.391 . S
C24 C25 1.399 . S
C25 C24 1.399 . S
C25 C26 1.396 . S
C25 C28 1.453 . S
C25 C29 1.684 . S
C26 C7 1.723 . S
C26 C25 1.396 . S
C26 C27 1.394 . S
C27 C23 1.397 . S
C27 C26 1.394 . S
C27 C37 1.723 . S
C28 C25 1.453 . S
C28 H52 0.982 . S
C28 H53 0.979 . S
C28 H54 0.977 . S
C29 C25 1.684 . S
C29 H55 0.979 . S
C29 H56 0.980 . S
C29 H57 0.983 . S
C30 H6 0.948 . S
C30 C31 1.391 . S
C30 C35 1.391 . S
C31 C30 1.391 . S
C31 C32 1.391 . S
C32 H9 0.947 . S
C32 C31 1.391 . S
C32 C33 1.392 . S
C33 H10 0.948 . S
C33 C32 1.392 . S
C33 C34 1.419 . S
C34 C33 1.419 . S
C34 C35 1.391 . S
C34 C38 1.397 . S
C35 C30 1.391 . S
C35 C34 1.391 . S
C35 C36 1.399 . S
C36 C35 1.399 . S
C36 C37 1.396 . S
C36 C39 1.453 . S
C36 C40 1.684 . S
C37 C27 1.723 . S
C37 C36 1.396 . S
C37 C38 1.394 . S
C38 C8 1.723 . S
C38 C34 1.397 . S
C38 C37 1.394 . S
C39 H11 0.982 . S
C39 H15 0.979 . S
C39 H16 0.977 . S
C39 C36 1.453 . S
C40 H12 0.979 . S
C40 H13 0.980 . S
C40 H14 0.983 . S
C40 C36 1.684 . S
H41 C59 0.948 . S
H42 C0 0.948 . S
H43 C18 0.979 . S
H44 C18 0.980 . S
H45 C18 0.983 . S
H46 C17 0.982 . S
H47 C17 0.979 . S
H48 C17 0.977 . S
H49 C19 0.948 . S
H50 C21 0.947 . S
H51 C22 0.948 . S
H52 C28 0.982 . S
H53 C28 0.979 . S
H54 C28 0.977 . S
H55 C29 0.979 . S
H56 C29 0.980 . S
H57 C29 0.983 . S
H58 C2 0.947 . S
C59 C2 1.392 . S
C59 C3 1.419 . S
C59 H41 0.948 . S
C60 C61 1.391 . S
C60 C64 1.391 . S
C60 H102 0.948 . S
C61 C60 1.391 . S
C61 C62 1.391 . S
C62 C61 1.391 . S
C62 H118 0.947 . S
C62 C119 1.392 . S
C63 C64 1.391 . S
C63 C67 1.397 . S
C63 C119 1.419 . S
C64 C60 1.391 . S
C64 C63 1.391 . S
C64 C65 1.399 . S
C65 C64 1.399 . S
C65 C68 1.396 . S
C65 C77 1.453 . S
C65 C78 1.684 . S
H66 C90 0.948 . S
C67 C63 1.397 . S
C67 C68 1.394 . S
C67 C86 1.723 . S
C68 C65 1.396 . S
C68 C67 1.394 . S
C68 C98 1.723 . S
H69 C92 0.947 . S
H70 C93 0.948 . S
H71 C99 0.982 . S
H72 C100 0.979 . S
H73 C100 0.980 . S
H74 C100 0.983 . S
H75 C99 0.979 . S
H76 C99 0.977 . S
C77 C65 1.453 . S
C77 H106 0.982 . S
C77 H107 0.979 . S
C77 H108 0.977 . S
C78 C65 1.684 . S
C78 H103 0.979 . S
C78 H104 0.980 . S
C78 H105 0.983 . S
C79 C80 1.391 . S
C79 C84 1.391 . S
C79 H109 0.948 . S
C80 C79 1.391 . S
C80 C81 1.391 . S
C81 C80 1.391 . S
C81 C82 1.392 . S
C81 H110 0.947 . S
C82 C81 1.392 . S
C82 C83 1.419 . S
C82 H111 0.948 . S
C83 C82 1.419 . S
C83 C84 1.391 . S
C83 C87 1.397 . S
C84 C79 1.391 . S
C84 C83 1.391 . S
C84 C85 1.399 . S
C85 C84 1.399 . S
C85 C86 1.396 . S
C85 C88 1.453 . S
C85 C89 1.684 . S
C86 C67 1.723 . S
C86 C85 1.396 . S
C86 C87 1.394 . S
C87 C83 1.397 . S
C87 C86 1.394 . S
C87 C97 1.723 . S
C88 C85 1.453 . S
C88 H112 0.982 . S
C88 H113 0.979 . S
C88 H114 0.977 . S
C89 C85 1.684 . S
C89 H115 0.979 . S
C89 H116 0.980 . S
C89 H117 0.983 . S
C90 H66 0.948 . S
C90 C91 1.391 . S
C90 C95 1.391 . S
C91 C90 1.391 . S
C91 C92 1.391 . S
C92 H69 0.947 . S
C92 C91 1.391 . S
C92 C93 1.392 . S
C93 H70 0.948 . S
C93 C92 1.392 . S
C93 C94 1.419 . S
C94 C93 1.419 . S
C94 C95 1.391 . S
C94 C98 1.397 . S
C95 C90 1.391 . S
C95 C94 1.391 . S
C95 C96 1.399 . S
C96 C95 1.399 . S
C96 C97 1.396 . S
C96 C99 1.453 . S
C96 C100 1.684 . S
C97 C87 1.723 . S
C97 C96 1.396 . S
C97 C98 1.394 . S
C98 C68 1.723 . S
C98 C94 1.397 . S
C98 C97 1.394 . S
C99 H71 0.982 . S
C99 H75 0.979 . S
C99 H76 0.977 . S
C99 C96 1.453 . S
C100 H72 0.979 . S
C100 H73 0.980 . S
C100 H74 0.983 . S
C100 C96 1.684 . S
H101 C119 0.948 . S
H102 C60 0.948 . S
H103 C78 0.979 . S
H104 C78 0.980 . S
H105 C78 0.983 . S
H106 C77 0.982 . S
H107 C77 0.979 . S
H108 C77 0.977 . S
H109 C79 0.948 . S
H110 C81 0.947 . S
H111 C82 0.948 . S
H112 C88 0.982 . S
H113 C88 0.979 . S
H114 C88 0.977 . S
H115 C89 0.979 . S
H116 C89 0.980 . S
H117 C89 0.983 . S
H118 C62 0.947 . S
C119 C62 1.392 . S
C119 C63 1.419 . S
C119 H101 0.948 . S
C120 C121 1.391 . S
C120 C124 1.391 . S
C120 H162 0.948 . S
C121 C120 1.391 . S
C121 C122 1.391 . S
C122 C121 1.391 . S
C122 H178 0.947 . S
C122 C179 1.392 . S
C123 C124 1.391 . S
C123 C127 1.397 . S
C123 C179 1.419 . S
C124 C120 1.391 . S
C124 C123 1.391 . S
C124 C125 1.399 . S
C125 C124 1.399 . S
C125 C128 1.396 . S
C125 C137 1.453 . S
C125 C138 1.684 . S
H126 C150 0.948 . S
C127 C123 1.397 . S
C127 C128 1.394 . S
C127 C146 1.723 . S
C128 C125 1.396 . S
C128 C127 1.394 . S
C128 C158 1.723 . S
H129 C152 0.947 . S
H130 C153 0.948 . S
H131 C159 0.982 . S
H132 C160 0.979 . S
H133 C160 0.980 . S
H134 C160 0.983 . S
H135 C159 0.979 . S
H136 C159 0.977 . S
C137 C125 1.453 . S
C137 H166 0.982 . S
C137 H167 0.979 . S
C137 H168 0.977 . S
C138 C125 1.684 . S
C138 H163 0.979 . S
C138 H164 0.980 . S
C138 H165 0.983 . S
C139 C140 1.391 . S
C139 C144 1.391 . S
C139 H169 0.948 . S
C140 C139 1.391 . S
C140 C141 1.391 . S
C141 C140 1.391 . S
C141 C142 1.392 . S
C141 H170 0.947 . S
C142 C141 1.392 . S
C142 C143 1.419 . S
C142 H171 0.948 . S
C143 C142 1.419 . S
C143 C144 1.391 . S
C143 C147 1.397 . S
C144 C139 1.391 . S
C144 C143 1.391 . S
C144 C145 1.399 . S
C145 C144 1.399 . S
C145 C146 1.396 . S
C145 C148 1.453 . S
C145 C149 1.684 . S
C146 C127 1.723 . S
C146 C145 1.396 . S
C146 C147 1.394 . S
C147 C143 1.397 . S
C147 C146 1.394 . S
C147 C157 1.723 . S
C148 C145 1.453 . S
C148 H172 0.982 . S
C148 H173 0.979 . S
C148 H174 0.977 . S
C149 C145 1.684 . S
C149 H175 0.979 . S
C149 H176 0.980 . S
C149 H177 0.983 . S
C150 H126 0.948 . S
C150 C151 1.391 . S
C150 C155 1.391 . S
C151 C150 1.391 . S
C151 C152 1.391 . S
C152 H129 0.947 . S
C152 C151 1.391 . S
C152 C153 1.392 . S
C153 H130 0.948 . S
C153 C152 1.392 . S
C153 C154 1.419 . S
C154 C153 1.419 . S
C154 C155 1.391 . S
C154 C158 1.397 . S
C155 C150 1.391 . S
C155 C154 1.391 . S
C155 C156 1.399 . S
C156 C155 1.399 . S
C156 C157 1.396 . S
C156 C159 1.453 . S
C156 C160 1.684 . S
C157 C147 1.723 . S
C157 C156 1.396 . S
C157 C158 1.394 . S
C158 C128 1.723 . S
C158 C154 1.397 . S
C158 C157 1.394 . S
C159 H131 0.982 . S
C159 H135 0.979 . S
C159 H136 0.977 . S
C159 C156 1.453 . S
C160 H132 0.979 . S
C160 H133 0.980 . S
C160 H134 0.983 . S
C160 C156 1.684 . S
H161 C179 0.948 . S
H162 C120 0.948 . S
H163 C138 0.979 . S
H164 C138 0.980 . S
H165 C138 0.983 . S
H166 C137 0.982 . S
H167 C137 0.979 . S
H168 C137 0.977 . S
H169 C139 0.948 . S
H170 C141 0.947 . S
H171 C142 0.948 . S
H172 C148 0.982 . S
H173 C148 0.979 . S
H174 C148 0.977 . S
H175 C149 0.979 . S
H176 C149 0.980 . S
H177 C149 0.983 . S
H178 C122 0.947 . S
C179 C122 1.392 . S
C179 C123 1.419 . S
C179 H161 0.948 . S
C180 C181 1.391 . S
C180 C184 1.391 . S
C180 H222 0.948 . S
C181 C180 1.391 . S
C181 C182 1.391 . S
C182 C181 1.391 . S
C182 H238 0.947 . S
C182 C239 1.392 . S
C183 C184 1.391 . S
C183 C187 1.397 . S
C183 C239 1.419 . S
C184 C180 1.391 . S
C184 C183 1.391 . S
C184 C185 1.399 . S
C185 C184 1.399 . S
C185 C188 1.396 . S
C185 C197 1.453 . S
C185 C198 1.684 . S
H186 C210 0.948 . S
C187 C183 1.397 . S
C187 C188 1.394 . S
C187 C206 1.723 . S
C188 C185 1.396 . S
C188 C187 1.394 . S
C188 C218 1.723 . S
H189 C212 0.947 . S
H190 C213 0.948 . S
H191 C219 0.982 . S
H192 C220 0.979 . S
H193 C220 0.980 . S
H194 C220 0.983 . S
H195 C219 0.979 . S
H196 C219 0.977 . S
C197 C185 1.453 . S
C197 H226 0.982 . S
C197 H227 0.979 . S
C197 H228 0.977 . S
C198 C185 1.684 . S
C198 H223 0.979 . S
C198 H224 0.980 . S
C198 H225 0.983 . S
C199 C200 1.391 . S
C199 C204 1.391 . S
C199 H229 0.948 . S
C200 C199 1.391 . S
C200 C201 1.391 . S
C201 C200 1.391 . S
C201 C202 1.392 . S
C201 H230 0.947 . S
C202 C201 1.392 . S
C202 C203 1.419 . S
C202 H231 0.948 . S
C203 C202 1.419 . S
C203 C204 1.391 . S
C203 C207 1.397 . S
C204 C199 1.391 . S
C204 C203 1.391 . S
C204 C205 1.399 . S
C205 C204 1.399 . S
C205 C206 1.396 . S
C205 C208 1.453 . S
C205 C209 1.684 . S
C206 C187 1.723 . S
C206 C205 1.396 . S
C206 C207 1.394 . S
C207 C203 1.397 . S
C207 C206 1.394 . S
C207 C217 1.723 . S
C208 C205 1.453 . S
C208 H232 0.982 . S
C208 H233 0.979 . S
C208 H234 0.977 . S
C209 C205 1.684 . S
C209 H235 0.979 . S
C209 H236 0.980 . S
C209 H237 0.983 . S
C210 H186 0.948 . S
C210 C211 1.391 . S
C210 C215 1.391 . S
C211 C210 1.391 . S
C211 C212 1.391 . S
C212 H189 0.947 . S
C212 C211 1.391 . S
C212 C213 1.392 . S
C213 H190 0.948 . S
C213 C212 1.392 . S
C213 C214 1.419 . S
C214 C213 1.419 . S
C214 C215 1.391 . S
C214 C218 1.397 . S
C215 C210 1.391 . S
C215 C214 1.391 . S
C215 C216 1.399 . S
C216 C215 1.399 . S
C216 C217 1.396 . S
C216 C219 1.453 . S
C216 C220 1.684 . S
C217 C207 1.723 . S
C217 C216 1.396 . S
C217 C218 1.394 . S
C218 C188 1.723 . S
C218 C214 1.397 . S
C218 C217 1.394 . S
C219 H191 0.982 . S
C219 H195 0.979 . S
C219 H196 0.977 . S
C219 C216 1.453 . S
C220 H192 0.979 . S
C220 H193 0.980 . S
C220 H194 0.983 . S
C220 C216 1.684 . S
H221 C239 0.948 . S
H222 C180 0.948 . S
H223 C198 0.979 . S
H224 C198 0.980 . S
H225 C198 0.983 . S
H226 C197 0.982 . S
H227 C197 0.979 . S
H228 C197 0.977 . S
H229 C199 0.948 . S
H230 C201 0.947 . S
H231 C202 0.948 . S
H232 C208 0.982 . S
H233 C208 0.979 . S
H234 C208 0.977 . S
H235 C209 0.979 . S
H236 C209 0.980 . S
H237 C209 0.983 . S
H238 C182 0.947 . S
C239 C182 1.392 . S
C239 C183 1.419 . S
C239 H221 0.948 . S
C240 C241 1.391 . S
C240 C244 1.391 . S
C240 H282 0.948 . S
C241 C240 1.391 . S
C241 C242 1.391 . S
C242 C241 1.391 . S
C242 H298 0.947 . S
C242 C299 1.392 . S
C243 C244 1.391 . S
C243 C247 1.397 . S
C243 C299 1.419 . S
C244 C240 1.391 . S
C244 C243 1.391 . S
C244 C245 1.399 . S
C245 C244 1.399 . S
C245 C248 1.396 . S
C245 C257 1.453 . S
C245 C258 1.684 . S
H246 C270 0.948 . S
C247 C243 1.397 . S
C247 C248 1.394 . S
C247 C266 1.723 . S
C248 C245 1.396 . S
C248 C247 1.394 . S
C248 C278 1.723 . S
H249 C272 0.947 . S
H250 C273 0.948 . S
H251 C279 0.982 . S
H252 C280 0.979 . S
H253 C280 0.980 . S
H254 C280 0.983 . S
H255 C279 0.979 . S
H256 C279 0.977 . S
C257 C245 1.453 . S
C257 H286 0.982 . S
C257 H287 0.979 . S
C257 H288 0.977 . S
C258 C245 1.684 . S
C258 H283 0.979 . S
C258 H284 0.980 . S
C258 H285 0.983 . S
C259 C260 1.391 . S
C259 C264 1.391 . S
C259 H289 0.948 . S
C260 C259 1.391 . S
C260 C261 1.391 . S
C261 C260 1.391 . S
C261 C262 1.392 . S
C261 H290 0.947 . S
C262 C261 1.392 . S
C262 C263 1.419 . S
C262 H291 0.948 . S
C263 C262 1.419 . S
C263 C264 1.391 . S
C263 C267 1.397 . S
C264 C259 1.391 . S
C264 C263 1.391 . S
C264 C265 1.399 . S
C265 C264 1.399 . S
C265 C266 1.396 . S
C265 C268 1.453 . S
C265 C269 1.684 . S
C266 C247 1.723 . S
C266 C265 1.396 . S
C266 C267 1.394 . S
C267 C263 1.397 . S
C267 C266 1.394 . S
C267 C277 1.723 . S
C268 C265 1.453 . S
C268 H292 0.982 . S
C268 H293 0.979 . S
C268 H294 0.977 . S
C269 C265 1.684 . S
C269 H295 0.979 . S
C269 H296 0.980 . S
C269 H297 0.983 . S
C270 H246 0.948 . S
C270 C271 1.391 . S
C270 C275 1.391 . S
C271 C270 1.391 . S
C271 C272 1.391 . S
C272 H249 0.947 . S
C272 C271 1.391 . S
C272 C273 1.392 . S
C273 H250 0.948 . S
C273 C272 1.392 . S
C273 C274 1.419 . S
C274 C273 1.419 . S
C274 C275 1.391 . S
C274 C278 1.397 . S
C275 C270 1.391 . S
C275 C274 1.391 . S
C275 C276 1.399 . S
C276 C275 1.399 . S
C276 C277 1.396 . S
C276 C279 1.453 . S
C276 C280 1.684 . S
C277 C267 1.723 . S
C277 C276 1.396 . S
C277 C278 1.394 . S
C278 C248 1.723 . S
C278 C274 1.397 . S
C278 C277 1.394 . S
C279 H251 0.982 . S
C279 H255 0.979 . S
C279 H256 0.977 . S
C279 C276 1.453 . S
C280 H252 0.979 . S
C280 H253 0.980 . S
C280 H254 0.983 . S
C280 C276 1.684 . S
H281 C299 0.948 . S
H282 C240 0.948 . S
H283 C258 0.979 . S
H284 C258 0.980 . S
H285 C258 0.983 . S
H286 C257 0.982 . S
H287 C257 0.979 . S
H288 C257 0.977 . S
H289 C259 0.948 . S
H290 C261 0.947 . S
H291 C262 0.948 . S
H292 C268 0.982 . S
H293 C268 0.979 . S
H294 C268 0.977 . S
H295 C269 0.979 . S
H296 C269 0.980 . S
H297 C269 0.983 . S
H298 C242 0.947 . S
C299 C242 1.392 . S
C299 C243 1.419 . S
C299 H281 0.948 . S
C300 C301 1.391 . S
C300 C304 1.391 . S
C300 H342 0.948 . S
C301 C300 1.391 . S
C301 C302 1.391 . S
C302 C301 1.391 . S
C302 H358 0.947 . S
C302 C359 1.392 . S
C303 C304 1.391 . S
C303 C307 1.397 . S
C303 C359 1.419 . S
C304 C300 1.391 . S
C304 C303 1.391 . S
C304 C305 1.399 . S
C305 C304 1.399 . S
C305 C308 1.396 . S
C305 C317 1.453 . S
C305 C318 1.684 . S
H306 C330 0.948 . S
C307 C303 1.397 . S
C307 C308 1.394 . S
C307 C326 1.723 . S
C308 C305 1.396 . S
C308 C307 1.394 . S
C308 C338 1.723 . S
H309 C332 0.947 . S
H310 C333 0.948 . S
H311 C339 0.982 . S
H312 C340 0.979 . S
H313 C340 0.980 . S
H314 C340 0.983 . S
H315 C339 0.979 . S
H316 C339 0.977 . S
C317 C305 1.453 . S
C317 H346 0.982 . S
C317 H347 0.979 . S
C317 H348 0.977 . S
C318 C305 1.684 . S
C318 H343 0.979 . S
C318 H344 0.980 . S
C318 H345 0.983 . S
C319 C320 1.391 . S
C319 C324 1.391 . S
C319 H349 0.948 . S
C320 C319 1.391 . S
C320 C321 1.391 . S
C321 C320 1.391 . S
C321 C322 1.392 . S
C321 H350 0.947 . S
C322 C321 1.392 . S
C322 C323 1.419 . S
C322 H351 0.948 . S
C323 C322 1.419 . S
C323 C324 1.391 . S
C323 C327 1.397 . S
C324 C319 1.391 . S
C324 C323 1.391 . S
C324 C325 1.399 . S
C325 C324 1.399 . S
C325 C326 1.396 . S
C325 C328 1.453 . S
C325 C329 1.684 . S
C326 C307 1.723 . S
C326 C325 1.396 . S
C326 C327 1.394 . S
C327 C323 1.397 . S
C327 C326 1.394 . S
C327 C337 1.723 . S
C328 C325 1.453 . S
C328 H352 0.982 . S
C328 H353 0.979 . S
C328 H354 0.977 . S
C329 C325 1.684 . S
C329 H355 0.979 . S
C329 H356 0.980 . S
C329 H357 0.983 . S
C330 H306 0.948 . S
C330 C331 1.391 . S
C330 C335 1.391 . S
C331 C330 1.391 . S
C331 C332 1.391 . S
C332 H309 0.947 . S
C332 C331 1.391 . S
C332 C333 1.392 . S
C333 H310 0.948 . S
C333 C332 1.392 . S
C333 C334 1.419 . S
C334 C333 1.419 . S
C334 C335 1.391 . S
C334 C338 1.397 . S
C335 C330 1.391 . S
C335 C334 1.391 . S
C335 C336 1.399 . S
C336 C335 1.399 . S
C336 C337 1.396 . S
C336 C339 1.453 . S
C336 C340 1.684 . S
C337 C327 1.723 . S
C337 C336 1.396 . S
C337 C338 1.394 . S
C338 C308 1.723 . S
C338 C334 1.397 . S
C338 C337 1.394 . S
C339 H311 0.982 . S
C339 H315 0.979 . S
C339 H316 0.977 . S
C339 C336 1.453 . S
C340 H312 0.979 . S
C340 H313 0.980 . S
C340 H314 0.983 . S
C340 C336 1.684 . S
H341 C359 0.948 . S
H342 C300 0.948 . S
H343 C318 0.979 . S
H344 C318 0.980 . S
H345 C318 0.983 . S
H346 C317 0.982 . S
H347 C317 0.979 . S
H348 C317 0.977 . S
H349 C319 0.948 . S
H350 C321 0.947 . S
H351 C322 0.948 . S
H352 C328 0.982 . S
H353 C328 0.979 . S
H354 C328 0.977 . S
H355 C329 0.979 . S
H356 C329 0.980 . S
H357 C329 0.983 . S
H358 C302 0.947 . S
C359 C302 1.392 . S
C359 C303 1.419 . S
C359 H341 0.948 . S
C360 C361 1.391 . S
C360 C364 1.391 . S
C360 H402 0.948 . S
C361 C360 1.391 . S
C361 C362 1.391 . S
C362 C361 1.391 . S
C362 H418 0.947 . S
C362 C419 1.392 . S
C363 C364 1.391 . S
C363 C367 1.397 . S
C363 C419 1.419 . S
C364 C360 1.391 . S
C364 C363 1.391 . S
C364 C365 1.399 . S
C365 C364 1.399 . S
C365 C368 1.396 . S
C365 C377 1.453 . S
C365 C378 1.684 . S
H366 C390 0.948 . S
C367 C363 1.397 . S
C367 C368 1.394 . S
C367 C386 1.723 . S
C368 C365 1.396 . S
C368 C367 1.394 . S
C368 C398 1.723 . S
H369 C392 0.947 . S
H370 C393 0.948 . S
H371 C399 0.982 . S
H372 C400 0.979 . S
H373 C400 0.980 . S
H374 C400 0.983 . S
H375 C399 0.979 . S
H376 C399 0.977 . S
C377 C365 1.453 . S
C377 H406 0.982 . S
C377 H407 0.979 . S
C377 H408 0.977 . S
C378 C365 1.684 . S
C378 H403 0.979 . S
C378 H404 0.980 . S
C378 H405 0.983 . S
C379 C380 1.391 . S
C379 C384 1.391 . S
C379 H409 0.948 . S
C380 C379 1.391 . S
C380 C381 1.391 . S
C381 C380 1.391 . S
C381 C382 1.392 . S
C381 H410 0.947 . S
C382 C381 1.392 . S
C382 C383 1.419 . S
C382 H411 0.948 . S
C383 C382 1.419 . S
C383 C384 1.391 . S
C383 C387 1.397 . S
C384 C379 1.391 . S
C384 C383 1.391 . S
C384 C385 1.399 . S
C385 C384 1.399 . S
C385 C386 1.396 . S
C385 C388 1.453 . S
C385 C389 1.684 . S
C386 C367 1.723 . S
C386 C385 1.396 . S
C386 C387 1.394 . S
C387 C383 1.397 . S
C387 C386 1.394 . S
C387 C397 1.723 . S
C388 C385 1.453 . S
C388 H412 0.982 . S
C388 H413 0.979 . S
C388 H414 0.977 . S
C389 C385 1.684 . S
C389 H415 0.979 . S
C389 H416 0.980 . S
C389 H417 0.983 . S
C390 H366 0.948 . S
C390 C391 1.391 . S
C390 C395 1.391 . S
C391 C390 1.391 . S
C391 C392 1.391 . S
C392 H369 0.947 . S
C392 C391 1.391 . S
C392 C393 1.392 . S
C393 H370 0.948 . S
C393 C392 1.392 . S
C393 C394 1.419 . S
C394 C393 1.419 . S
C394 C395 1.391 . S
C394 C398 1.397 . S
C395 C390 1.391 . S
C395 C394 1.391 . S
C395 C396 1.399 . S
C396 C395 1.399 . S
C396 C397 1.396 . S
C396 C399 1.453 . S
C396 C400 1.684 . S
C397 C387 1.723 . S
C397 C396 1.396 . S
C397 C398 1.394 . S
C398 C368 1.723 . S
C398 C394 1.397 . S
C398 C397 1.394 . S
C399 H371 0.982 . S
C399 H375 0.979 . S
C399 H376 0.977 . S
C399 C396 1.453 . S
C400 H372 0.979 . S
C400 H373 0.980 . S
C400 H374 0.983 . S
C400 C396 1.684 . S
H401 C419 0.948 . S
H402 C360 0.948 . S
H403 C378 0.979 . S
H404 C378 0.980 . S
H405 C378 0.983 . S
H406 C377 0.982 . S
H407 C377 0.979 . S
H408 C377 0.977 . S
H409 C379 0.948 . S
H410 C381 0.947 . S
H411 C382 0.948 . S
H412 C388 0.982 . S
H413 C388 0.979 . S
H414 C388 0.977 . S
H415 C389 0.979 . S
H416 C389 0.980 . S
H417 C389 0.983 . S
H418 C362 0.947 . S
C419 C362 1.392 . S
C419 C363 1.419 . S
C419 H401 0.948 . S
C420 C421 1.391 . S
C420 C424 1.391 . S
C420 H462 0.948 . S
C421 C420 1.391 . S
C421 C422 1.391 . S
C422 C421 1.391 . S
C422 H478 0.947 . S
C422 C479 1.392 . S
C423 C424 1.391 . S
C423 C427 1.397 . S
C423 C479 1.419 . S
C424 C420 1.391 . S
C424 C423 1.391 . S
C424 C425 1.399 . S
C425 C424 1.399 . S
C425 C428 1.396 . S
C425 C437 1.453 . S
C425 C438 1.684 . S
H426 C450 0.948 . S
C427 C423 1.397 . S
C427 C428 1.394 . S
C427 C446 1.723 . S
C428 C425 1.396 . S
C428 C427 1.394 . S
C428 C458 1.723 . S
H429 C452 0.947 . S
H430 C453 0.948 . S
H431 C459 0.982 . S
H432 C460 0.979 . S
H433 C460 0.980 . S
H434 C460 0.983 . S
H435 C459 0.979 . S
H436 C459 0.977 . S
C437 C425 1.453 . S
C437 H466 0.982 . S
C437 H467 0.979 . S
C437 H468 0.977 . S
C438 C425 1.684 . S
C438 H463 0.979 . S
C438 H464 0.980 . S
C438 H465 0.983 . S
C439 C440 1.391 . S
C439 C444 1.391 . S
C439 H469 0.948 . S
C440 C439 1.391 . S
C440 C441 1.391 . S
C441 C440 1.391 . S
C441 C442 1.392 . S
C441 H470 0.947 . S
C442 C441 1.392 . S
C442 C443 1.419 . S
C442 H471 0.948 . S
C443 C442 1.419 . S
C443 C444 1.391 . S
C443 C447 1.397 . S
C444 C439 1.391 . S
C444 C443 1.391 . S
C444 C445 1.399 . S
C445 C444 1.399 . S
C445 C446 1.396 . S
C445 C448 1.453 . S
C445 C449 1.684 . S
C446 C427 1.723 . S
C446 C445 1.396 . S
C446 C447 1.394 . S
C447 C443 1.397 . S
C447 C446 1.394 . S
C447 C457 1.723 . S
C448 C445 1.453 . S
C448 H472 0.982 . S
C448 H473 0.979 . S
C448 H474 0.977 . S
C449 C445 1.684 . S
C449 H475 0.979 . S
C449 H476 0.980 . S
C449 H477 0.983 . S
C450 H426 0.948 . S
C450 C451 1.391 . S
C450 C455 1.391 . S
C451 C450 1.391 . S
C451 C452 1.391 . S
C452 H429 0.947 . S
C452 C451 1.391 . S
C452 C453 1.392 . S
C453 H430 0.948 . S
C453 C452 1.392 . S
C453 C454 1.419 . S
C454 C453 1.419 . S
C454 C455 1.391 . S
C454 C458 1.397 . S
C455 C450 1.391 . S
C455 C454 1.391 . S
C455 C456 1.399 . S
C456 C455 1.399 . S
C456 C457 1.396 . S
C456 C459 1.453 . S
C456 C460 1.684 . S
C457 C447 1.723 . S
C457 C456 1.396 . S
C457 C458 1.394 . S
C458 C428 1.723 . S
C458 C454 1.397 . S
C458 C457 1.394 . S
C459 H431 0.982 . S
C459 H435 0.979 . S
C459 H436 0.977 . S
C459 C456 1.453 . S
C460 H432 0.979 . S
C460 H433 0.980 . S
C460 H434 0.983 . S
C460 C456 1.684 . S
H461 C479 0.948 . S
H462 C420 0.948 . S
H463 C438 0.979 . S
H464 C438 0.980 . S
H465 C438 0.983 . S
H466 C437 0.982 . S
H467 C437 0.979 . S
H468 C437 0.977 . S
H469 C439 0.948 . S
H470 C441 0.947 . S
H471 C442 0.948 . S
H472 C448 0.982 . S
H473 C448 0.979 . S
H474 C448 0.977 . S
H475 C449 0.979 . S
H476 C449 0.980 . S
H477 C449 0.983 . S
H478 C422 0.947 . S
C479 C422 1.392 . S
C479 C423 1.419 . S
C479 H461 0.948 . S
Dy480 O484 2.398 . S
Dy480 O485 2.491 . S
Dy480 O486 2.403 1_545 S
Dy480 O487 2.664 1_545 S
Dy480 O491 2.326 . S
Dy480 O495 2.310 1_455 S
Dy480 O496 2.351 1_445 S
C481 O492 1.185 . S
C481 O493 1.355 . S
C482 O484 1.185 . S
C482 O485 1.355 . S
Dy483 O487 2.310 1_655 S
Dy483 O490 2.351 1_665 S
Dy483 O492 2.398 . S
Dy483 O493 2.491 . S
Dy483 O494 2.403 1_565 S
Dy483 O495 2.664 1_565 S
Dy483 O497 2.326 . S
O484 Dy480 2.398 . S
O484 C482 1.185 . S
O485 Dy480 2.491 . S
O485 C482 1.355 . S
O486 Dy480 2.403 1_565 S
O486 C488 1.254 . S
O487 Dy480 2.664 1_565 S
O487 Dy483 2.310 1_455 S
O487 C488 1.268 . S
C488 O486 1.254 . S
C488 O487 1.268 . S
C489 O494 1.254 . S
C489 O495 1.268 . S
O490 Dy483 2.351 1_445 S
O490 C498 1.249 . S
O491 Dy480 2.326 . S
O491 C498 1.267 . S
O492 C481 1.185 . S
O492 Dy483 2.398 . S
O493 C481 1.355 . S
O493 Dy483 2.491 . S
O494 Dy483 2.403 1_545 S
O494 C489 1.254 . S
O495 Dy480 2.310 1_655 S
O495 Dy483 2.664 1_545 S
O495 C489 1.268 . S
O496 Dy480 2.351 1_665 S
O496 C499 1.249 . S
O497 Dy483 2.326 . S
O497 C499 1.267 . S
C498 O490 1.249 . S
C498 O491 1.267 . S
C499 O496 1.249 . S
C499 O497 1.267 . S
Dy500 O504 2.398 . S
Dy500 O505 2.491 . S
Dy500 O506 2.403 1_545 S
Dy500 O507 2.664 1_545 S
Dy500 O511 2.326 . S
Dy500 O515 2.310 1_554 S
Dy500 O516 2.351 1_544 S
C501 O512 1.185 . S
C501 O513 1.355 . S
C502 O504 1.185 . S
C502 O505 1.355 . S
Dy503 O507 2.334 1_556 S
Dy503 O510 2.331 1_566 S
Dy503 O512 2.403 . S
Dy503 O513 2.525 . S
Dy503 O514 2.373 1_565 S
Dy503 O515 2.646 1_565 S
Dy503 O517 2.342 . S
O504 Dy500 2.398 . S
O504 C502 1.185 . S
O505 Dy500 2.491 . S
O505 C502 1.355 . S
O506 Dy500 2.403 1_565 S
O506 C508 1.254 . S
O507 Dy500 2.664 1_565 S
O507 Dy503 2.334 1_554 S
O507 C508 1.268 . S
C508 O506 1.254 . S
C508 O507 1.268 . S
C509 O514 1.254 . S
C509 O515 1.268 . S
O510 Dy503 2.331 1_544 S
O510 C518 1.249 . S
O511 Dy500 2.326 . S
O511 C518 1.267 . S
O512 C501 1.185 . S
O512 Dy503 2.403 . S
O513 C501 1.355 . S
O513 Dy503 2.525 . S
O514 Dy503 2.373 1_545 S
O514 C509 1.254 . S
O515 Dy500 2.310 1_556 S
O515 Dy503 2.646 1_545 S
O515 C509 1.268 . S
O516 Dy500 2.351 1_566 S
O516 C519 1.249 . S
O517 Dy503 2.342 . S
O517 C519 1.267 . S
C518 O510 1.249 . S
C518 O511 1.267 . S
C519 O516 1.249 . S
C519 O517 1.267 . S
Dy520 O524 2.398 . S
Dy520 O525 2.491 . S
Dy520 O526 2.403 . S
Dy520 O527 2.664 . S
Dy520 O531 2.326 . S
Dy520 O535 2.310 . S
Dy520 O536 2.351 . S
C521 O532 1.185 . S
C521 O533 1.355 . S
C522 O524 1.185 . S
C522 O525 1.355 . S
Dy523 O527 2.310 . S
Dy523 O530 2.351 . S
Dy523 O532 2.398 . S
Dy523 O533 2.491 . S
Dy523 O534 2.403 . S
Dy523 O535 2.664 . S
Dy523 O537 2.326 . S
O524 Dy520 2.398 . S
O524 C522 1.185 . S
O525 Dy520 2.491 . S
O525 C522 1.355 . S
O526 Dy520 2.403 . S
O526 C528 1.254 . S
O527 Dy520 2.664 . S
O527 Dy523 2.310 . S
O527 C528 1.268 . S
C528 O526 1.254 . S
C528 O527 1.268 . S
C529 O534 1.254 . S
C529 O535 1.268 . S
O530 Dy523 2.351 . S
O530 C538 1.249 . S
O531 Dy520 2.326 . S
O531 C538 1.267 . S
O532 C521 1.185 . S
O532 Dy523 2.398 . S
O533 C521 1.355 . S
O533 Dy523 2.491 . S
O534 Dy523 2.403 . S
O534 C529 1.254 . S
O535 Dy520 2.310 . S
O535 Dy523 2.664 . S
O535 C529 1.268 . S
O536 Dy520 2.351 . S
O536 C539 1.249 . S
O537 Dy523 2.326 . S
O537 C539 1.267 . S
C538 O530 1.249 . S
C538 O531 1.267 . S
C539 O536 1.249 . S
C539 O537 1.267 . S
Dy540 O544 2.398 . S
Dy540 O545 2.491 . S
Dy540 O546 2.403 1_455 S
Dy540 O547 2.664 1_455 S
Dy540 O551 2.326 . S
Dy540 O555 2.310 1_554 S
Dy540 O556 2.351 1_454 S
C541 O552 1.185 . S
C541 O553 1.355 . S
C542 O544 1.185 . S
C542 O545 1.355 . S
Dy543 O547 2.310 1_556 S
Dy543 O550 2.351 1_656 S
Dy543 O552 2.398 . S
Dy543 O553 2.491 . S
Dy543 O554 2.403 1_655 S
Dy543 O555 2.664 1_655 S
Dy543 O557 2.326 . S
O544 Dy540 2.398 . S
O544 C542 1.185 . S
O545 Dy540 2.491 . S
O545 C542 1.355 . S
O546 Dy540 2.403 1_655 S
O546 C548 1.254 . S
O547 Dy540 2.664 1_655 S
O547 Dy543 2.310 1_554 S
O547 C548 1.268 . S
C548 O546 1.254 . S
C548 O547 1.268 . S
C549 O554 1.254 . S
C549 O555 1.268 . S
O550 Dy543 2.351 1_454 S
O550 C558 1.249 . S
O551 Dy540 2.326 . S
O551 C558 1.267 . S
O552 C541 1.185 . S
O552 Dy543 2.398 . S
O553 C541 1.355 . S
O553 Dy543 2.491 . S
O554 Dy543 2.403 1_455 S
O554 C549 1.254 . S
O555 Dy540 2.310 1_556 S
O555 Dy543 2.664 1_455 S
O555 C549 1.268 . S
O556 Dy540 2.351 1_656 S
O556 C559 1.249 . S
O557 Dy543 2.326 . S
O557 C559 1.267 . S
C558 O550 1.249 . S
C558 O551 1.267 . S
C559 O556 1.249 . S
C559 O557 1.267 . S
H560 C566 0.930 . S
H561 C570 0.930 . S
H562 C575 0.929 . S
H563 C573 0.929 . S
H564 C568 0.929 . S
H565 C574 0.929 . S
C566 H560 0.930 . S
C566 C567 1.367 . S
C566 C574 1.378 . S
C567 C566 1.367 . S
C567 C575 1.433 . S
C568 H564 0.929 . S
C568 C570 1.378 . S
C568 C572 1.350 . S
C569 C572 1.463 . S
C569 C574 1.350 . S
C569 N577 1.427 . S
C570 H561 0.930 . S
C570 C568 1.378 . S
C570 C571 1.367 . S
C571 C570 1.367 . S
C571 C573 1.433 . S
C572 C568 1.350 . S
C572 C569 1.463 . S
C572 N576 1.427 . S
C573 H563 0.929 . S
C573 C571 1.433 . S
C573 N576 1.384 . S
C574 H565 0.929 . S
C574 C566 1.378 . S
C574 C569 1.350 . S
C575 H562 0.929 . S
C575 C567 1.433 . S
C575 N577 1.384 . S
N576 C572 1.427 . S
N576 C573 1.384 . S
N577 C569 1.427 . S
N577 C575 1.384 . S
H578 C584 0.930 . S
H579 C588 0.930 . S
H580 C593 0.929 . S
H581 C591 0.929 . S
H582 C586 0.929 . S
H583 C592 0.929 . S
C584 H578 0.930 . S
C584 C585 1.367 . S
C584 C592 1.378 . S
C585 C584 1.367 . S
C585 C593 1.433 . S
C586 H582 0.929 . S
C586 C588 1.378 . S
C586 C590 1.350 . S
C587 C590 1.463 . S
C587 C592 1.350 . S
C587 N595 1.427 . S
C588 H579 0.930 . S
C588 C586 1.378 . S
C588 C589 1.367 . S
C589 C588 1.367 . S
C589 C591 1.433 . S
C590 C586 1.350 . S
C590 C587 1.463 . S
C590 N594 1.427 . S
C591 H581 0.929 . S
C591 C589 1.433 . S
C591 N594 1.384 . S
C592 H583 0.929 . S
C592 C584 1.378 . S
C592 C587 1.350 . S
C593 H580 0.929 . S
C593 C585 1.433 . S
C593 N595 1.384 . S
N594 C590 1.427 . S
N594 C591 1.384 . S
N595 C587 1.427 . S
N595 C593 1.384 . S
H596 C602 0.930 . S
H597 C606 0.930 . S
H598 C611 0.929 . S
H599 C609 0.929 . S
H600 C604 0.929 . S
H601 C610 0.929 . S
C602 H596 0.930 . S
C602 C603 1.367 . S
C602 C610 1.378 . S
C603 C602 1.367 . S
C603 C611 1.433 . S
C604 H600 0.929 . S
C604 C606 1.378 . S
C604 C608 1.350 . S
C605 C608 1.463 . S
C605 C610 1.350 . S
C605 N613 1.427 . S
C606 H597 0.930 . S
C606 C604 1.378 . S
C606 C607 1.367 . S
C607 C606 1.367 . S
C607 C609 1.433 . S
C608 C604 1.350 . S
C608 C605 1.463 . S
C608 N612 1.427 . S
C609 H599 0.929 . S
C609 C607 1.433 . S
C609 N612 1.384 . S
C610 H601 0.929 . S
C610 C602 1.378 . S
C610 C605 1.350 . S
C611 H598 0.929 . S
C611 C603 1.433 . S
C611 N613 1.384 . S
N612 C608 1.427 . S
N612 C609 1.384 . S
N613 C605 1.427 . S
N613 C611 1.384 . S
H614 C620 0.930 . S
H615 C624 0.930 . S
H616 C629 0.929 . S
H617 C627 0.929 . S
H618 C622 0.929 . S
H619 C628 0.929 . S
C620 H614 0.930 . S
C620 C621 1.367 . S
C620 C628 1.378 . S
C621 C620 1.367 . S
C621 C629 1.433 . S
C622 H618 0.929 . S
C622 C624 1.378 . S
C622 C626 1.350 . S
C623 C626 1.463 . S
C623 C628 1.350 . S
C623 N631 1.427 . S
C624 H615 0.930 . S
C624 C622 1.378 . S
C624 C625 1.367 . S
C625 C624 1.367 . S
C625 C627 1.433 . S
C626 C622 1.350 . S
C626 C623 1.463 . S
C626 N630 1.427 . S
C627 H617 0.929 . S
C627 C625 1.433 . S
C627 N630 1.384 . S
C628 H619 0.929 . S
C628 C620 1.378 . S
C628 C623 1.350 . S
C629 H616 0.929 . S
C629 C621 1.433 . S
C629 N631 1.384 . S
N630 C626 1.427 . S
N630 C627 1.384 . S
N631 C623 1.427 . S
N631 C629 1.384 . S
H632 C638 0.930 . S
H633 C642 0.930 . S
H634 C647 0.929 . S
H635 C645 0.929 . S
H636 C640 0.929 . S
H637 C646 0.929 . S
C638 H632 0.930 . S
C638 C639 1.367 . S
C638 C646 1.378 . S
C639 C638 1.367 . S
C639 C647 1.433 . S
C640 H636 0.929 . S
C640 C642 1.378 . S
C640 C644 1.350 . S
C641 C644 1.463 . S
C641 C646 1.350 . S
C641 N649 1.427 . S
C642 H633 0.930 . S
C642 C640 1.378 . S
C642 C643 1.367 . S
C643 C642 1.367 . S
C643 C645 1.433 . S
C644 C640 1.350 . S
C644 C641 1.463 . S
C644 N648 1.427 . S
C645 H635 0.929 . S
C645 C643 1.433 . S
C645 N648 1.384 . S
C646 H637 0.929 . S
C646 C638 1.378 . S
C646 C641 1.350 . S
C647 H634 0.929 . S
C647 C639 1.433 . S
C647 N649 1.384 . S
N648 C644 1.427 . S
N648 C645 1.384 . S
N649 C641 1.427 . S
N649 C647 1.384 . S
H650 C656 0.930 . S
H651 C660 0.930 . S
H652 C665 0.929 . S
H653 C663 0.929 . S
H654 C658 0.929 . S
H655 C664 0.929 . S
C656 H650 0.930 . S
C656 C657 1.367 . S
C656 C664 1.378 . S
C657 C656 1.367 . S
C657 C665 1.433 . S
C658 H654 0.929 . S
C658 C660 1.378 . S
C658 C662 1.350 . S
C659 C662 1.463 . S
C659 C664 1.350 . S
C659 N667 1.427 . S
C660 H651 0.930 . S
C660 C658 1.378 . S
C660 C661 1.367 . S
C661 C660 1.367 . S
C661 C663 1.433 . S
C662 C658 1.350 . S
C662 C659 1.463 . S
C662 N666 1.427 . S
C663 H653 0.929 . S
C663 C661 1.433 . S
C663 N666 1.384 . S
C664 H655 0.929 . S
C664 C656 1.378 . S
C664 C659 1.350 . S
C665 H652 0.929 . S
C665 C657 1.433 . S
C665 N667 1.384 . S
N666 C662 1.427 . S
N666 C663 1.384 . S
N667 C659 1.427 . S
N667 C665 1.384 . S
H668 C674 0.930 . S
H669 C678 0.930 . S
H670 C683 0.929 . S
H671 C681 0.929 . S
H672 C676 0.929 . S
H673 C682 0.929 . S
C674 H668 0.930 . S
C674 C675 1.367 . S
C674 C682 1.378 . S
C675 C674 1.367 . S
C675 C683 1.433 . S
C676 H672 0.929 . S
C676 C678 1.378 . S
C676 C680 1.350 . S
C677 C680 1.463 . S
C677 C682 1.350 . S
C677 N685 1.427 . S
C678 H669 0.930 . S
C678 C676 1.378 . S
C678 C679 1.367 . S
C679 C678 1.367 . S
C679 C681 1.433 . S
C680 C676 1.350 . S
C680 C677 1.463 . S
C680 N684 1.427 . S
C681 H671 0.929 . S
C681 C679 1.433 . S
C681 N684 1.384 . S
C682 H673 0.929 . S
C682 C674 1.378 . S
C682 C677 1.350 . S
C683 H670 0.929 . S
C683 C675 1.433 . S
C683 N685 1.384 . S
N684 C680 1.427 . S
N684 C681 1.384 . S
N685 C677 1.427 . S
N685 C683 1.384 . S
H686 C692 0.930 . S
H687 C696 0.930 . S
H688 C701 0.929 . S
H689 C699 0.929 . S
H690 C694 0.929 . S
H691 C700 0.929 . S
C692 H686 0.930 . S
C692 C693 1.367 . S
C692 C700 1.378 . S
C693 C692 1.367 . S
C693 C701 1.433 . S
C694 H690 0.929 . S
C694 C696 1.378 . S
C694 C698 1.350 . S
C695 C698 1.463 . S
C695 C700 1.350 . S
C695 N703 1.427 . S
C696 H687 0.930 . S
C696 C694 1.378 . S
C696 C697 1.367 . S
C697 C696 1.367 . S
C697 C699 1.433 . S
C698 C694 1.350 . S
C698 C695 1.463 . S
C698 N702 1.427 . S
C699 H689 0.929 . S
C699 C697 1.433 . S
C699 N702 1.384 . S
C700 H691 0.929 . S
C700 C692 1.378 . S
C700 C695 1.350 . S
C701 H688 0.929 . S
C701 C693 1.433 . S
C701 N703 1.384 . S
N702 C698 1.427 . S
N702 C699 1.384 . S
N703 C695 1.427 . S
N703 C701 1.384 . S
H704 C710 0.930 . S
H705 C714 0.930 . S
H706 C719 0.929 . S
H707 C717 0.929 . S
H708 C712 0.929 . S
H709 C718 0.929 . S
C710 H704 0.930 . S
C710 C711 1.367 . S
C710 C718 1.378 . S
C711 C710 1.367 . S
C711 C719 1.433 . S
C712 H708 0.929 . S
C712 C714 1.378 . S
C712 C716 1.350 . S
C713 C716 1.463 . S
C713 C718 1.350 . S
C713 N721 1.427 . S
C714 H705 0.930 . S
C714 C712 1.378 . S
C714 C715 1.367 . S
C715 C714 1.367 . S
C715 C717 1.433 . S
C716 C712 1.350 . S
C716 C713 1.463 . S
C716 N720 1.427 . S
C717 H707 0.929 . S
C717 C715 1.433 . S
C717 N720 1.384 . S
C718 H709 0.929 . S
C718 C710 1.378 . S
C718 C713 1.350 . S
C719 H706 0.929 . S
C719 C711 1.433 . S
C719 N721 1.384 . S
N720 C716 1.427 . S
N720 C717 1.384 . S
N721 C713 1.427 . S
N721 C719 1.384 . S
H722 C728 0.930 . S
H723 C732 0.930 . S
H724 C737 0.929 . S
H725 C735 0.929 1_554 S
H726 C730 0.929 . S
H727 C736 0.929 . S
C728 H722 0.930 . S
C728 C729 1.367 . S
C728 C736 1.378 . S
C729 C728 1.367 . S
C729 C737 1.433 . S
C730 H726 0.929 . S
C730 C732 1.378 . S
C730 C734 1.350 . S
C731 C734 1.463 . S
C731 C736 1.350 . S
C731 N739 1.427 . S
C732 H723 0.930 . S
C732 C730 1.378 . S
C732 C733 1.367 . S
C733 C732 1.367 . S
C733 C735 1.433 . S
C734 C730 1.350 . S
C734 C731 1.463 . S
C734 N738 1.427 . S
C735 H725 0.929 1_556 S
C735 C733 1.433 . S
C735 N738 1.384 . S
C736 H727 0.929 . S
C736 C728 1.378 . S
C736 C731 1.350 . S
C737 H724 0.929 . S
C737 C729 1.433 . S
C737 N739 1.384 . S
N738 C734 1.427 . S
N738 C735 1.384 . S
N739 C731 1.427 . S
N739 C737 1.384 . S
H740 C746 0.930 . S
H741 C750 0.930 . S
H742 C755 0.929 . S
H743 C753 0.929 . S
H744 C748 0.929 . S
H745 C754 0.929 . S
C746 H740 0.930 . S
C746 C747 1.367 . S
C746 C754 1.378 . S
C747 C746 1.367 . S
C747 C755 1.433 . S
C748 H744 0.929 . S
C748 C750 1.378 . S
C748 C752 1.350 . S
C749 C752 1.463 . S
C749 C754 1.350 . S
C749 N757 1.427 . S
C750 H741 0.930 . S
C750 C748 1.378 . S
C750 C751 1.367 . S
C751 C750 1.367 . S
C751 C753 1.433 . S
C752 C748 1.350 . S
C752 C749 1.463 . S
C752 N756 1.427 . S
C753 H743 0.929 . S
C753 C751 1.433 . S
C753 N756 1.384 . S
C754 H745 0.929 . S
C754 C746 1.378 . S
C754 C749 1.350 . S
C755 H742 0.929 . S
C755 C747 1.433 . S
C755 N757 1.384 . S
N756 C752 1.427 . S
N756 C753 1.384 . S
N757 C749 1.427 . S
N757 C755 1.384 . S
H758 C764 0.930 . S
H759 C768 0.930 . S
H760 C773 0.929 . S
H761 C771 0.929 . S
H762 C766 0.929 . S
H763 C772 0.929 . S
C764 H758 0.930 . S
C764 C765 1.367 . S
C764 C772 1.378 . S
C765 C764 1.367 . S
C765 C773 1.433 . S
C766 H762 0.929 . S
C766 C768 1.378 . S
C766 C770 1.350 . S
C767 C770 1.463 . S
C767 C772 1.350 . S
C767 N775 1.427 . S
C768 H759 0.930 . S
C768 C766 1.378 . S
C768 C769 1.367 . S
C769 C768 1.367 . S
C769 C771 1.433 . S
C770 C766 1.350 . S
C770 C767 1.463 . S
C770 N774 1.427 . S
C771 H761 0.929 . S
C771 C769 1.433 . S
C771 N774 1.384 . S
C772 H763 0.929 . S
C772 C764 1.378 . S
C772 C767 1.350 . S
C773 H760 0.929 . S
C773 C765 1.433 . S
C773 N775 1.384 . S
N774 C770 1.427 . S
N774 C771 1.384 . S
N775 C767 1.427 . S
N775 C773 1.384 . S
H776 C782 0.930 . S
H777 C786 0.930 . S
H778 C791 0.929 . S
H779 C789 0.929 . S
H780 C784 0.929 . S
H781 C790 0.929 . S
C782 H776 0.930 . S
C782 C783 1.367 . S
C782 C790 1.378 . S
C783 C782 1.367 . S
C783 C791 1.433 . S
C784 H780 0.929 . S
C784 C786 1.378 . S
C784 C788 1.350 . S
C785 C788 1.463 . S
C785 C790 1.350 . S
C785 N793 1.427 . S
C786 H777 0.930 . S
C786 C784 1.378 . S
C786 C787 1.367 . S
C787 C786 1.367 . S
C787 C789 1.433 . S
C788 C784 1.350 . S
C788 C785 1.463 . S
C788 N792 1.427 . S
C789 H779 0.929 . S
C789 C787 1.433 . S
C789 N792 1.384 . S
C790 H781 0.929 . S
C790 C782 1.378 . S
C790 C785 1.350 . S
C791 H778 0.929 . S
C791 C783 1.433 . S
C791 N793 1.384 . S
N792 C788 1.427 . S
N792 C789 1.384 . S
N793 C785 1.427 . S
N793 C791 1.384 . S
H794 C800 0.930 . S
H795 C804 0.930 . S
H796 C809 0.929 . S
H797 C807 0.929 . S
H798 C802 0.929 . S
H799 C808 0.929 . S
C800 H794 0.930 . S
C800 C801 1.367 . S
C800 C808 1.378 . S
C801 C800 1.367 . S
C801 C809 1.433 . S
C802 H798 0.929 . S
C802 C804 1.378 . S
C802 C806 1.350 . S
C803 C806 1.463 . S
C803 C808 1.350 . S
C803 N811 1.427 . S
C804 H795 0.930 . S
C804 C802 1.378 . S
C804 C805 1.367 . S
C805 C804 1.367 . S
C805 C807 1.433 . S
C806 C802 1.350 . S
C806 C803 1.463 . S
C806 N810 1.427 . S
C807 H797 0.929 . S
C807 C805 1.433 . S
C807 N810 1.384 . S
C808 H799 0.929 . S
C808 C800 1.378 . S
C808 C803 1.350 . S
C809 H796 0.929 . S
C809 C801 1.433 . S
C809 N811 1.384 . S
N810 C806 1.427 . S
N810 C807 1.384 . S
N811 C803 1.427 . S
N811 C809 1.384 . S
H812 C818 0.930 . S
H813 C822 0.930 . S
H814 C827 0.929 . S
H815 C825 0.929 . S
H816 C820 0.929 . S
H817 C826 0.929 . S
C818 H812 0.930 . S
C818 C819 1.367 . S
C818 C826 1.378 . S
C819 C818 1.367 . S
C819 C827 1.433 . S
C820 H816 0.929 . S
C820 C822 1.378 . S
C820 C824 1.350 . S
C821 C824 1.463 . S
C821 C826 1.350 . S
C821 N829 1.427 . S
C822 H813 0.930 . S
C822 C820 1.378 . S
C822 C823 1.367 . S
C823 C822 1.367 . S
C823 C825 1.433 . S
C824 C820 1.350 . S
C824 C821 1.463 . S
C824 N828 1.427 . S
C825 H815 0.929 . S
C825 C823 1.433 . S
C825 N828 1.384 . S
C826 H817 0.929 . S
C826 C818 1.378 . S
C826 C821 1.350 . S
C827 H814 0.929 . S
C827 C819 1.433 . S
C827 N829 1.384 . S
N828 C824 1.427 . S
N828 C825 1.384 . S
N829 C821 1.427 . S
N829 C827 1.384 . S
H830 C836 0.930 . S
H831 C840 0.930 . S
H832 C845 0.929 . S
H833 C843 0.929 . S
H834 C838 0.929 . S
H835 C844 0.929 . S
C836 H830 0.930 . S
C836 C837 1.367 . S
C836 C844 1.378 . S
C837 C836 1.367 . S
C837 C845 1.433 . S
C838 H834 0.929 . S
C838 C840 1.378 . S
C838 C842 1.350 . S
C839 C842 1.463 . S
C839 C844 1.350 . S
C839 N847 1.427 . S
C840 H831 0.930 . S
C840 C838 1.378 . S
C840 C841 1.367 . S
C841 C840 1.367 . S
C841 C843 1.433 . S
C842 C838 1.350 . S
C842 C839 1.463 . S
C842 N846 1.427 . S
C843 H833 0.929 . S
C843 C841 1.433 . S
C843 N846 1.384 . S
C844 H835 0.929 . S
C844 C836 1.378 . S
C844 C839 1.350 . S
C845 H832 0.929 . S
C845 C837 1.433 . S
C845 N847 1.384 . S
N846 C842 1.427 . S
N846 C843 1.384 . S
N847 C839 1.427 . S
N847 C845 1.384 . S
H848 C854 0.930 . S
H849 C858 0.930 . S
H850 C863 0.929 . S
H851 C861 0.929 . S
H852 C856 0.929 . S
H853 C862 0.929 . S
C854 H848 0.930 . S
C854 C855 1.367 . S
C854 C862 1.378 . S
C855 C854 1.367 . S
C855 C863 1.433 . S
C856 H852 0.929 . S
C856 C858 1.378 . S
C856 C860 1.350 . S
C857 C860 1.463 . S
C857 C862 1.350 . S
C857 N865 1.427 . S
C858 H849 0.930 . S
C858 C856 1.378 . S
C858 C859 1.367 . S
C859 C858 1.367 . S
C859 C861 1.433 . S
C860 C856 1.350 . S
C860 C857 1.463 . S
C860 N864 1.427 . S
C861 H851 0.929 . S
C861 C859 1.433 . S
C861 N864 1.384 . S
C862 H853 0.929 . S
C862 C854 1.378 . S
C862 C857 1.350 . S
C863 H850 0.929 . S
C863 C855 1.433 . S
C863 N865 1.384 . S
N864 C860 1.427 . S
N864 C861 1.384 . S
N865 C857 1.427 . S
N865 C863 1.384 . S
H866 C872 0.930 . S
H867 C876 0.930 . S
H868 C881 0.929 . S
H869 C879 0.941 . S
H870 C874 0.929 . S
H871 C880 0.929 . S
C872 H866 0.930 . S
C872 C873 1.367 . S
C872 C880 1.378 . S
C873 C872 1.367 . S
C873 C881 1.433 . S
C874 H870 0.929 . S
C874 C876 1.378 . S
C874 C878 1.350 . S
C875 C878 1.463 . S
C875 C880 1.350 . S
C875 N883 1.427 . S
C876 H867 0.930 . S
C876 C874 1.378 . S
C876 C877 1.367 . S
C877 C876 1.367 . S
C877 C879 1.433 . S
C878 C874 1.350 . S
C878 C875 1.463 . S
C878 N882 1.427 . S
C879 H869 0.941 . S
C879 C877 1.433 . S
C879 N882 1.384 . S
C880 H871 0.929 . S
C880 C872 1.378 . S
C880 C875 1.350 . S
C881 H868 0.929 . S
C881 C873 1.433 . S
C881 N883 1.384 . S
N882 C878 1.427 . S
N882 C879 1.384 . S
N883 C875 1.427 . S
N883 C881 1.384 . S
H884 C890 0.930 . S
H885 C894 0.930 1_556 S
H886 C899 0.929 . S
H887 C897 0.929 . S
H888 C892 0.929 . S
H889 C898 0.929 . S
C890 H884 0.930 . S
C890 C891 1.367 . S
C890 C898 1.378 . S
C891 C890 1.367 . S
C891 C899 1.433 . S
C892 H888 0.929 . S
C892 C894 1.378 . S
C892 C896 1.350 . S
C893 C896 1.463 . S
C893 C898 1.350 . S
C893 N901 1.427 . S
C894 H885 0.930 1_554 S
C894 C892 1.378 . S
C894 C895 1.367 . S
C895 C894 1.367 . S
C895 C897 1.433 . S
C896 C892 1.350 . S
C896 C893 1.463 . S
C896 N900 1.427 . S
C897 H887 0.929 . S
C897 C895 1.433 . S
C897 N900 1.384 . S
C898 H889 0.929 . S
C898 C890 1.378 . S
C898 C893 1.350 . S
C899 H886 0.929 . S
C899 C891 1.433 . S
C899 N901 1.384 . S
N900 C896 1.427 . S
N900 C897 1.384 . S
N901 C893 1.427 . S
N901 C899 1.384 . S
H902 C908 0.930 . S
H903 C912 0.930 . S
H904 C917 0.929 . S
H905 C915 0.929 . S
H906 C910 0.929 . S
H907 C916 0.929 . S
C908 H902 0.930 . S
C908 C909 1.367 . S
C908 C916 1.378 . S
C909 C908 1.367 . S
C909 C917 1.433 . S
C910 H906 0.929 . S
C910 C912 1.378 . S
C910 C914 1.350 . S
C911 C914 1.463 . S
C911 C916 1.350 . S
C911 N919 1.427 . S
C912 H903 0.930 . S
C912 C910 1.378 . S
C912 C913 1.367 . S
C913 C912 1.367 . S
C913 C915 1.433 . S
C914 C910 1.350 . S
C914 C911 1.463 . S
C914 N918 1.427 . S
C915 H905 0.929 . S
C915 C913 1.433 . S
C915 N918 1.384 . S
C916 H907 0.929 . S
C916 C908 1.378 . S
C916 C911 1.350 . S
C917 H904 0.929 . S
C917 C909 1.433 . S
C917 N919 1.384 . S
N918 C914 1.427 . S
N918 C915 1.384 . S
N919 C911 1.427 . S
N919 C917 1.384 . S
H920 C926 0.930 . S
H921 C930 0.930 . S
H922 C935 0.929 . S
H923 C933 0.929 . S
H924 C928 0.929 . S
H925 C934 0.929 . S
C926 H920 0.930 . S
C926 C927 1.367 . S
C926 C934 1.378 . S
C927 C926 1.367 . S
C927 C935 1.433 . S
C928 H924 0.929 . S
C928 C930 1.378 . S
C928 C932 1.350 . S
C929 C932 1.463 . S
C929 C934 1.350 . S
C929 N937 1.427 . S
C930 H921 0.930 . S
C930 C928 1.378 . S
C930 C931 1.367 . S
C931 C930 1.367 . S
C931 C933 1.433 . S
C932 C928 1.350 . S
C932 C929 1.463 . S
C932 N936 1.427 . S
C933 H923 0.929 . S
C933 C931 1.433 . S
C933 N936 1.384 . S
C934 H925 0.929 . S
C934 C926 1.378 . S
C934 C929 1.350 . S
C935 H922 0.929 . S
C935 C927 1.433 . S
C935 N937 1.384 . S
N936 C932 1.427 . S
N936 C933 1.384 . S
N937 C929 1.427 . S
N937 C935 1.384 . S
H938 C944 0.930 . S
H939 C948 0.947 . S
H940 C953 0.929 . S
H941 C951 0.929 . S
H942 C946 0.929 . S
H943 C952 0.929 . S
C944 H938 0.930 . S
C944 C945 1.367 . S
C944 C952 1.378 . S
C945 C944 1.367 . S
C945 C953 1.433 . S
C946 H942 0.929 . S
C946 C948 1.378 . S
C946 C950 1.350 . S
C947 C950 1.463 . S
C947 C952 1.350 . S
C947 N955 1.427 . S
C948 H939 0.947 . S
C948 C946 1.378 . S
C948 C949 1.367 . S
C949 C948 1.367 . S
C949 C951 1.433 . S
C950 C946 1.350 . S
C950 C947 1.463 . S
C950 N954 1.427 . S
C951 H941 0.929 . S
C951 C949 1.433 . S
C951 N954 1.384 . S
C952 H943 0.929 . S
C952 C944 1.378 . S
C952 C947 1.350 . S
C953 H940 0.929 . S
C953 C945 1.433 . S
C953 N955 1.384 . S
N954 C950 1.427 . S
N954 C951 1.384 . S
N955 C947 1.427 . S
N955 C953 1.384 . S
H956 C962 0.930 . S
H957 C966 0.930 . S
H958 C971 0.929 . S
H959 C969 0.929 . S
H960 C964 0.929 . S
H961 C970 0.929 . S
C962 H956 0.930 . S
C962 C963 1.367 . S
C962 C970 1.378 . S
C963 C962 1.367 . S
C963 C971 1.433 . S
C964 H960 0.929 . S
C964 C966 1.378 . S
C964 C968 1.350 . S
C965 C968 1.463 . S
C965 C970 1.350 . S
C965 N973 1.427 . S
C966 H957 0.930 . S
C966 C964 1.378 . S
C966 C967 1.367 . S
C967 C966 1.367 . S
C967 C969 1.433 . S
C968 C964 1.350 . S
C968 C965 1.463 . S
C968 N972 1.427 . S
C969 H959 0.929 . S
C969 C967 1.433 . S
C969 N972 1.384 . S
C970 H961 0.929 . S
C970 C962 1.378 . S
C970 C965 1.350 . S
C971 H958 0.929 . S
C971 C963 1.433 . S
C971 N973 1.384 . S
N972 C968 1.427 . S
N972 C969 1.384 . S
N973 C965 1.427 . S
N973 C971 1.384 . S
H974 C980 0.930 . S
H975 C984 0.930 . S
H976 C989 0.929 . S
H977 C987 0.929 . S
H978 C982 0.929 . S
H979 C988 0.929 . S
C980 H974 0.930 . S
C980 C981 1.367 . S
C980 C988 1.378 . S
C981 C980 1.367 . S
C981 C989 1.433 . S
C982 H978 0.929 . S
C982 C984 1.378 . S
C982 C986 1.350 . S
C983 C986 1.463 . S
C983 C988 1.350 . S
C983 N991 1.427 . S
C984 H975 0.930 . S
C984 C982 1.378 . S
C984 C985 1.367 . S
C985 C984 1.367 . S
C985 C987 1.433 . S
C986 C982 1.350 . S
C986 C983 1.463 . S
C986 N990 1.427 . S
C987 H977 0.929 . S
C987 C985 1.433 . S
C987 N990 1.384 . S
C988 H979 0.929 . S
C988 C980 1.378 . S
C988 C983 1.350 . S
C989 H976 0.929 . S
C989 C981 1.433 . S
C989 N991 1.384 . S
N990 C986 1.427 . S
N990 C987 1.384 . S
N991 C983 1.427 . S
N991 C989 1.384 . S
C567 C1 1.459 . S
C571 C482 1.547 . S
C585 C80 1.312 . S
C589 C501 1.332 . S
C607 C538 1.749 . S
C603 C140 1.737 . S
C621 C211 1.673 . S
C625 C548 1.659 . S
C643 C518 2.008 . S
C639 C31 1.861 . S
C661 C488 1.425 . S
C657 C61 1.432 . S
C679 C559 1.501 . S
C675 C151 1.516 . S
C697 C529 1.402 . S
C693 C200 1.398 . S
C711 C20 1.694 . S
C715 C542 1.769 . S
C733 C509 1.698 . S
C729 C121 1.737 . S
C747 C181 1.703 . S
C751 C499 1.748 . S
C765 C91 1.230 . S
C769 C521 1.242 . S
C787 C481 1.550 . S
C783 C260 1.468 . S
C801 C320 1.312 . S
C805 C502 1.328 . S
C819 C361 1.742 . S
C823 C539 1.741 . S
C837 C451 1.670 . S
C841 C549 1.657 . S
C855 C271 1.909 . S
C859 C519 2.012 . S
C877 C489 1.415 . S
C873 C301 1.422 . S
C895 C558 1.506 . S
C891 C380 1.506 . S
C913 C528 1.411 . S
C909 C440 1.408 . S
C927 C241 1.660 . S
C931 C541 1.780 . S
C949 C508 1.703 . S
C945 C391 1.740 . S
C967 C498 1.744 . S
C963 C421 1.701 . S
C981 C331 1.231 . S
C985 C522 1.234 . S
