# Generated by pormake.
# Topology eea, (3,6)-cn, num edge types: 1
# Building blocks:
#     Node 0, Type 0, BuildingBlock: VETTIZ_charged_linker_0, # of connection points: 3
#     Node 1, Type 0, BuildingBlock: VETTIZ_charged_linker_0, # of connection points: 3
#     Node 2, Type 0, BuildingBlock: VETTIZ_charged_linker_0, # of connection points: 3
#     Node 3, Type 0, BuildingBlock: VETTIZ_charged_linker_0, # of connection points: 3
#     Node 4, Type 0, BuildingBlock: VETTIZ_charged_linker_0, # of connection points: 3
#     Node 5, Type 0, BuildingBlock: VETTIZ_charged_linker_0, # of connection points: 3
#     Node 6, Type 0, BuildingBlock: VETTIZ_charged_linker_0, # of connection points: 3
#     Node 7, Type 0, BuildingBlock: VETTIZ_charged_linker_0, # of connection points: 3
#     Node 8, Type 0, BuildingBlock: VETTIZ_charged_linker_0, # of connection points: 3
#     Node 9, Type 0, BuildingBlock: VETTIZ_charged_linker_0, # of connection points: 3
#     Node 10, Type 0, BuildingBlock: VETTIZ_charged_linker_0, # of connection points: 3
#     Node 11, Type 0, BuildingBlock: VETTIZ_charged_linker_0, # of connection points: 3
#     Node 12, Type 0, BuildingBlock: VETTIZ_charged_linker_0, # of connection points: 3
#     Node 13, Type 0, BuildingBlock: VETTIZ_charged_linker_0, # of connection points: 3
#     Node 14, Type 0, BuildingBlock: VETTIZ_charged_linker_0, # of connection points: 3
#     Node 15, Type 0, BuildingBlock: VETTIZ_charged_linker_0, # of connection points: 3
#     Node 16, Type 0, BuildingBlock: VETTIZ_charged_linker_0, # of connection points: 3
#     Node 17, Type 0, BuildingBlock: VETTIZ_charged_linker_0, # of connection points: 3
#     Node 18, Type 1, BuildingBlock: CUWYAW_clean_sbu_0, # of connection points: 6
#     Node 19, Type 1, BuildingBlock: CUWYAW_clean_sbu_0, # of connection points: 6
#     Node 20, Type 1, BuildingBlock: CUWYAW_clean_sbu_0, # of connection points: 6
#     Node 21, Type 1, BuildingBlock: CUWYAW_clean_sbu_0, # of connection points: 6
#     Node 22, Type 1, BuildingBlock: CUWYAW_clean_sbu_0, # of connection points: 6
#     Node 23, Type 1, BuildingBlock: CUWYAW_clean_sbu_0, # of connection points: 6
#     Node 24, Type 1, BuildingBlock: CUWYAW_clean_sbu_0, # of connection points: 6
#     Node 25, Type 1, BuildingBlock: CUWYAW_clean_sbu_0, # of connection points: 6
#     Node 26, Type 1, BuildingBlock: CUWYAW_clean_sbu_0, # of connection points: 6
#     Edge 27, Type (0, 1), None
#     Edge 28, Type (0, 1), None
#     Edge 29, Type (0, 1), None
#     Edge 30, Type (0, 1), None
#     Edge 31, Type (0, 1), None
#     Edge 32, Type (0, 1), None
#     Edge 33, Type (0, 1), None
#     Edge 34, Type (0, 1), None
#     Edge 35, Type (0, 1), None
#     Edge 36, Type (0, 1), None
#     Edge 37, Type (0, 1), None
#     Edge 38, Type (0, 1), None
#     Edge 39, Type (0, 1), None
#     Edge 40, Type (0, 1), None
#     Edge 41, Type (0, 1), None
#     Edge 42, Type (0, 1), None
#     Edge 43, Type (0, 1), None
#     Edge 44, Type (0, 1), None
#     Edge 45, Type (0, 1), None
#     Edge 46, Type (0, 1), None
#     Edge 47, Type (0, 1), None
#     Edge 48, Type (0, 1), None
#     Edge 49, Type (0, 1), None
#     Edge 50, Type (0, 1), None
#     Edge 51, Type (0, 1), None
#     Edge 52, Type (0, 1), None
#     Edge 53, Type (0, 1), None
#     Edge 54, Type (0, 1), None
#     Edge 55, Type (0, 1), None
#     Edge 56, Type (0, 1), None
#     Edge 57, Type (0, 1), None
#     Edge 58, Type (0, 1), None
#     Edge 59, Type (0, 1), None
#     Edge 60, Type (0, 1), None
#     Edge 61, Type (0, 1), None
#     Edge 62, Type (0, 1), None
#     Edge 63, Type (0, 1), None
#     Edge 64, Type (0, 1), None
#     Edge 65, Type (0, 1), None
#     Edge 66, Type (0, 1), None
#     Edge 67, Type (0, 1), None
#     Edge 68, Type (0, 1), None
#     Edge 69, Type (0, 1), None
#     Edge 70, Type (0, 1), None
#     Edge 71, Type (0, 1), None
#     Edge 72, Type (0, 1), None
#     Edge 73, Type (0, 1), None
#     Edge 74, Type (0, 1), None
#     Edge 75, Type (0, 1), None
#     Edge 76, Type (0, 1), None
#     Edge 77, Type (0, 1), None
#     Edge 78, Type (0, 1), None
#     Edge 79, Type (0, 1), None
#     Edge 80, Type (0, 1), None
# Relax obj value: 0.034
# Max RMSD: 0.131
# Mean RMSD: 0.113
data_MOF--net-eea--node1-CUWYAW_clean_sbu_0--node2-VETTIZ_charged_linker_0--edge1-none
_symmetry_space_group_name_H-M    P1
_symmetry_Int_Tables_number       1
_symmetry_cell_setting            triclinic
loop_
_symmetry_equiv_pos_as_xyz
'x, y, z'
_cell_length_a     33.525901
_cell_length_b     33.357996
_cell_length_c     55.137899
_cell_angle_alpha  92.849187
_cell_angle_beta   92.340165
_cell_angle_gamma 119.8754
loop_
_atom_site_label
_atom_site_type_symbol
_atom_site_fract_x
_atom_site_fract_y
_atom_site_fract_z
_atom_type_partial_charge
C0 C 0.14853 0.17846 0.37171 0.0
C1 C 0.16678 0.22574 0.37822 0.0
C2 C 0.19741 0.24633 0.39919 0.0
C3 C 0.19171 0.17251 0.40637 0.0
C4 C 0.16253 0.15309 0.38543 0.0
C5 C 0.15265 0.10501 0.37811 0.0
H6 H 0.21453 0.94386 0.38611 0.0
C7 C 0.20267 0.13761 0.41499 0.0
C8 C 0.18109 0.09877 0.39797 0.0
H9 H 0.1063 0.93883 0.33844 0.0
H10 H 0.1189 0.01047 0.35844 0.0
H11 H 0.28794 0.05546 0.39529 0.0
H12 H 0.17164 0.95743 0.43055 0.0
H13 H 0.2008 0.00408 0.45288 0.0
H14 H 0.22883 0.97336 0.44165 0.0
H15 H 0.28365 0.00792 0.41127 0.0
H16 H 0.30155 0.06328 0.42721 0.0
C17 C 0.1709 0.10551 0.35262 0.0
C18 C 0.10021 0.07109 0.37923 0.0
C19 C 0.28295 0.15716 0.49877 0.0
C20 C 0.29702 0.12907 0.51045 0.0
C21 C 0.29504 0.09104 0.49692 0.0
C22 C 0.27769 0.07985 0.4726 0.0
C23 C 0.26175 0.10665 0.46155 0.0
C24 C 0.2657 0.14548 0.4742 0.0
C25 C 0.2493 0.17104 0.45841 0.0
C26 C 0.22947 0.13751 0.43562 0.0
C27 C 0.23754 0.10029 0.4376 0.0
C28 C 0.2916 0.21795 0.45326 0.0
C29 C 0.21175 0.17652 0.47097 0.0
C30 C 0.19323 0.95793 0.38023 0.0
C31 C 0.1595 0.93589 0.36071 0.0
C32 C 0.13272 0.95545 0.35335 0.0
C33 C 0.14001 -0.00305 0.365 0.0
C34 C 0.17395 0.0187 0.38445 0.0
C35 C 0.19836 -0.00191 0.39253 0.0
C36 C 0.22662 0.02175 0.41615 0.0
C37 C 0.21854 0.06268 0.41939 0.0
C38 C 0.18881 0.06114 0.40035 0.0
C39 C 0.27777 0.03791 0.41245 0.0
C40 C 0.20629 0.98759 0.43638 0.0
H41 H 0.23264 0.23679 0.42951 0.0
H42 H 0.12574 0.16192 0.35537 0.0
H43 H 0.08472 0.08509 0.39221 0.0
H44 H 0.0929 0.0376 0.38606 0.0
H45 H 0.08131 0.06445 0.36112 0.0
H46 H 0.20495 0.13735 0.35153 0.0
H47 H 0.14677 0.10508 0.33805 0.0
H48 H 0.17693 0.07653 0.3482 0.0
H49 H 0.28503 0.18715 0.50859 0.0
H50 H 0.3054 0.06873 0.50543 0.0
H51 H 0.2768 0.05036 0.46339 0.0
H52 H 0.32461 0.21811 0.4567 0.0
H53 H 0.29382 0.24719 0.46497 0.0
H54 H 0.2909 0.22529 0.43392 0.0
H55 H 0.18389 0.1423 0.47585 0.0
H56 H 0.19551 0.19101 0.45914 0.0
H57 H 0.22652 0.19993 0.48793 0.0
H58 H 0.21221 0.28286 0.40427 0.0
C59 C 0.20942 0.21971 0.41361 0.0
C60 C 0.99509 0.21093 0.37232 0.0
C61 C 0.03028 0.25237 0.38411 0.0
C62 C 0.02645 0.26413 0.40857 0.0
C63 C 0.9534 0.1925 0.40908 0.0
C64 C 0.95773 0.18149 0.38514 0.0
C65 C 0.92072 0.13401 0.37569 0.0
H66 H 0.71598 0.94499 0.38591 0.0
C67 C 0.91049 0.15325 0.41697 0.0
C68 C 0.89139 0.11932 0.39722 0.0
H69 H 0.81168 0.96912 0.33079 0.0
H70 H 0.86453 0.04408 0.35078 0.0
H71 H 0.78633 0.96674 0.42667 0.0
H72 H 0.73719 0.05309 0.39895 0.0
H73 H 0.73944 0.05825 0.43109 0.0
H74 H 0.70421 0.00218 0.41482 0.0
H75 H 0.73892 0.96873 0.43927 0.0
H76 H 0.79766 0.00746 0.4512 0.0
C77 C 0.94356 0.10392 0.37077 0.0
C78 C 0.89486 0.13877 0.35306 0.0
C79 C 0.85685 0.15325 0.50285 0.0
C80 C 0.81666 0.12153 0.51365 0.0
C81 C 0.78255 0.08209 0.4993 0.0
C82 C 0.78812 0.07395 0.47491 0.0
C83 C 0.82834 0.10539 0.46445 0.0
C84 C 0.86176 0.14467 0.47814 0.0
C85 C 0.90157 0.17451 0.46325 0.0
C86 C 0.88716 0.14545 0.43887 0.0
C87 C 0.84416 0.10494 0.43991 0.0
C88 C 0.94627 0.17936 0.47543 0.0
C89 C 0.90307 0.22125 0.46114 0.0
C90 C 0.74873 0.96614 0.37851 0.0
C91 C 0.76017 0.95099 0.35705 0.0
C92 C 0.80245 0.97999 0.34746 0.0
C93 C 0.83327 0.02341 0.35925 0.0
C94 C 0.82241 0.03734 0.3813 0.0
C95 C 0.78123 0.00843 0.39092 0.0
C96 C 0.77859 0.02623 0.41613 0.0
C97 C 0.82467 0.07133 0.41963 0.0
C98 C 0.84908 0.07803 0.39881 0.0
C99 C 0.77494 0.99057 0.43432 0.0
C100 C 0.73757 0.03528 0.41543 0.0
H101 H 0.98718 0.24502 0.43968 0.0
H102 H -0.00222 0.20014 0.35389 0.0
H103 H 0.88796 0.16783 0.35653 0.0
H104 H 0.86083 0.10783 0.3481 0.0
H105 H 0.91572 0.14607 0.337 0.0
H106 H 0.9782 0.11898 0.38068 0.0
H107 H 0.94818 0.10049 0.35109 0.0
H108 H 0.92357 0.06889 0.37737 0.0
H109 H 0.88356 0.18404 0.51332 0.0
H110 H 0.75166 0.05672 0.50712 0.0
H111 H 0.76092 0.04315 0.46517 0.0
H112 H 0.94002 0.14532 0.48118 0.0
H113 H 0.95874 0.20426 0.49187 0.0
H114 H 0.97427 0.19066 0.46304 0.0
H115 H 0.86762 0.21563 0.45778 0.0
H116 H 0.92206 0.23986 0.44574 0.0
H117 H 0.91883 0.24418 0.4782 0.0
H118 H 0.05361 0.29584 0.41818 0.0
C119 C 0.98799 0.23459 0.42106 0.0
C120 C 0.98834 0.75661 0.37371 0.0
C121 C 0.02664 0.75571 0.38412 0.0
C122 C 0.02518 0.74126 0.40789 0.0
C123 C 0.94998 0.73368 0.41143 0.0
C124 C 0.95095 0.74644 0.38781 0.0
C125 C 0.91089 0.75283 0.3808 0.0
H126 H 0.73281 0.77776 0.41392 0.0
C127 C 0.90902 0.73126 0.42213 0.0
C128 C 0.88652 0.74315 0.40422 0.0
H129 H 0.78352 0.78567 0.34244 0.0
H130 H 0.83857 0.7648 0.35769 0.0
H131 H 0.72797 0.68423 0.42228 0.0
H132 H 0.83018 0.82444 0.4459 0.0
H133 H 0.823 0.79108 0.4708 0.0
H134 H 0.77447 0.7941 0.45774 0.0
H135 H 0.7224 0.71371 0.44885 0.0
H136 H 0.7516 0.68064 0.45046 0.0
C137 C 0.88104 0.71605 0.35965 0.0
C138 C 0.93027 0.80386 0.37461 0.0
C139 C 0.86811 0.68315 0.50866 0.0
C140 C 0.83372 0.68194 0.52304 0.0
C141 C 0.80453 0.69751 0.5138 0.0
C142 C 0.80845 0.71296 0.49048 0.0
C143 C 0.84228 0.71343 0.47611 0.0
C144 C 0.87212 0.6996 0.4853 0.0
C145 C 0.90784 0.70586 0.46762 0.0
C146 C 0.89188 0.72199 0.44572 0.0
C147 C 0.85361 0.72649 0.45108 0.0
C148 C 0.90447 0.65852 0.46157 0.0
C149 C 0.95574 0.74393 0.47917 0.0
C150 C 0.75618 0.77544 0.40167 0.0
C151 C 0.75457 0.7841 0.3771 0.0
C152 C 0.78438 0.7793 0.36149 0.0
C153 C 0.81636 0.76728 0.37038 0.0
C154 C 0.81834 0.75967 0.39512 0.0
C155 C 0.78775 0.76256 0.41015 0.0
C156 C 0.79218 0.74925 0.43533 0.0
C157 C 0.83179 0.73971 0.43316 0.0
C158 C 0.84744 0.74675 0.40972 0.0
C159 C 0.74626 0.7049 0.43969 0.0
C160 C 0.80534 0.7916 0.45357 0.0
H161 H 0.98806 0.71959 0.43954 0.0
H162 H 0.98901 0.7686 0.35575 0.0
H163 H 0.96024 0.82784 0.3875 0.0
H164 H 0.90543 0.81617 0.37626 0.0
H165 H 0.94216 0.80874 0.35592 0.0
H166 H 0.88415 0.68442 0.36035 0.0
H167 H 0.8917 0.72982 0.34166 0.0
H168 H 0.84374 0.70328 0.36059 0.0
H169 H 0.8915 0.6721 0.51555 0.0
H170 H 0.77788 0.69684 0.52455 0.0
H171 H 0.78474 0.72382 0.48453 0.0
H172 H 0.86789 0.63107 0.45709 0.0
H173 H 0.91816 0.64831 0.47733 0.0
H174 H 0.92324 0.65841 0.44562 0.0
H175 H 0.95277 0.76996 0.49121 0.0
H176 H 0.97924 0.76434 0.46547 0.0
H177 H 0.97242 0.72881 0.49039 0.0
H178 H 0.0545 0.7404 0.41631 0.0
C179 C 0.98688 0.72971 0.42147 0.0
C180 C 0.20903 0.21674 0.66401 0.0
C181 C 0.24526 0.21437 0.65348 0.0
C182 C 0.25634 0.2289 0.6299 0.0
C183 C 0.19309 0.24401 0.62668 0.0
C184 C 0.18294 0.23099 0.6501 0.0
C185 C 0.14008 0.23096 0.6572 0.0
H186 H 0.94211 0.22457 0.62274 0.0
C187 C 0.1571 0.25265 0.61625 0.0
C188 C 0.12572 0.24481 0.63391 0.0
H189 H 0.99221 0.21551 0.69468 0.0
H190 H 0.06536 0.23413 0.67993 0.0
H191 H 0.04142 0.3206 0.61523 0.0
H192 H 0.98911 0.17754 0.589 0.0
H193 H 0.01017 0.21446 0.56501 0.0
H194 H 0.962 0.21006 0.58028 0.0
H195 H -0.00301 0.29269 0.59086 0.0
H196 H 0.05732 0.31889 0.58541 0.0
C197 C 0.15363 0.26801 0.67886 0.0
C198 C 0.10454 0.1809 0.6628 0.0
C199 C 0.16584 0.30021 0.52994 0.0
C200 C 0.13723 0.30882 0.51433 0.0
C201 C 0.09495 0.30182 0.52248 0.0
C202 C 0.08182 0.28698 0.54581 0.0
C203 C 0.11138 0.27929 0.56128 0.0
C204 C 0.1524 0.28565 0.55307 0.0
C205 C 0.17947 0.27526 0.57151 0.0
C206 C 0.1492 0.26387 0.5927 0.0
C207 C 0.10905 0.26582 0.58669 0.0
C208 C 0.22687 0.3198 0.57772 0.0
C209 C 0.18229 0.23271 0.56098 0.0
C210 C 0.96895 0.22647 0.63518 0.0
C211 C 0.96112 0.2175 0.65978 0.0
C212 C -0.00274 0.22193 0.67567 0.0
C213 C 0.03965 0.23233 0.66704 0.0
C214 C 0.04622 0.23855 0.64226 0.0
C215 C 0.01226 0.23795 0.62694 0.0
C216 C 0.02853 0.2514 0.60189 0.0
C217 C 0.07629 0.2564 0.6044 0.0
C218 C 0.08565 0.24766 0.62804 0.0
C219 C 0.03102 0.29817 0.59789 0.0
C220 C -0.00427 0.21147 0.58288 0.0
H221 H 0.24086 0.25425 0.59869 0.0
H222 H 0.19975 0.20545 0.68204 0.0
H223 H 0.10275 0.15535 0.6484 0.0
H224 H 0.0691 0.17459 0.66336 0.0
H225 H 0.11442 0.17247 0.68049 0.0
H226 H 0.19105 0.29428 0.68009 0.0
H227 H 0.146 0.25194 0.6965 0.0
H228 H 0.13596 0.28839 0.67688 0.0
H229 H 0.19873 0.3056 0.52452 0.0
H230 H 0.07183 0.30751 0.51074 0.0
H231 H 0.04917 0.28193 0.55091 0.0
H232 H 0.22282 0.35096 0.57925 0.0
H233 H 0.25079 0.3247 0.56333 0.0
H234 H 0.2436 0.32 0.59543 0.0
H235 H 0.1539 0.21132 0.54673 0.0
H236 H 0.17819 0.20835 0.57488 0.0
H237 H 0.21533 0.24363 0.55252 0.0
H238 H 0.28458 0.22788 0.62156 0.0
C239 C 0.23078 0.24405 0.61657 0.0
C240 C 0.84378 0.80913 0.66208 0.0
C241 C 0.82042 0.76078 0.65818 0.0
C242 C 0.78539 0.73883 0.63907 0.0
C243 C 0.79747 0.81363 0.62851 0.0
C244 C 0.83026 0.83443 0.64799 0.0
C245 C 0.84272 0.88365 0.65439 0.0
H246 H 0.77081 0.03696 0.65319 0.0
C247 C 0.78706 0.84869 0.61973 0.0
C248 C 0.81128 0.88863 0.63581 0.0
H249 H 0.88481 0.04523 0.69716 0.0
H250 H 0.8756 0.97716 0.67443 0.0
H251 H 0.81539 0.03041 0.60629 0.0
H252 H 0.70145 0.9267 0.64054 0.0
H253 H 0.68787 0.92262 0.60866 0.0
H254 H 0.70489 0.97586 0.62658 0.0
H255 H 0.75762 0.01171 0.59499 0.0
H256 H 0.7885 0.9842 0.58349 0.0
C257 C 0.89407 0.91525 0.64969 0.0
C258 C 0.83126 0.8884 0.68116 0.0
C259 C 0.70626 0.82986 0.53626 0.0
C260 C 0.69283 0.85855 0.52464 0.0
C261 C 0.69505 0.89653 0.53836 0.0
C262 C 0.71196 0.90708 0.56278 0.0
C263 C 0.72718 0.87967 0.57376 0.0
C264 C 0.72298 0.84083 0.56096 0.0
C265 C 0.73864 0.81456 0.57676 0.0
C266 C 0.75901 0.84823 0.59955 0.0
C267 C 0.75143 0.88578 0.59765 0.0
C268 C 0.77571 0.80796 0.56446 0.0
C269 C 0.69596 0.76777 0.58185 0.0
C270 C 0.7943 0.02461 0.65756 0.0
C271 C 0.82849 0.04629 0.67695 0.0
C272 C 0.85793 0.02876 0.68246 0.0
C273 C 0.85264 0.98939 0.66926 0.0
C274 C 0.8181 0.9679 0.6501 0.0
C275 C 0.79135 0.98691 0.64359 0.0
C276 C 0.76258 0.96393 0.61995 0.0
C277 C 0.77177 0.92389 0.61561 0.0
C278 C 0.80345 0.92619 0.63373 0.0
C279 C 0.78168 -0.00081 0.60014 0.0
C280 C 0.71133 0.94636 0.62402 0.0
H281 H 0.74719 0.74737 0.60971 0.0
H282 H 0.86949 0.8269 0.67723 0.0
H283 H 0.8099 0.85423 0.68858 0.0
H284 H 0.81027 0.9054 0.6829 0.0
H285 H 0.86308 0.90789 0.69356 0.0
H286 H 0.9023 0.9031 0.63245 0.0
H287 H 0.9171 0.91501 0.66468 0.0
H288 H 0.90296 0.95144 0.64742 0.0
H289 H 0.70398 0.79988 0.52632 0.0
H290 H 0.68516 0.91929 0.52996 0.0
H291 H 0.71294 0.93646 0.57219 0.0
H292 H 0.80504 0.84197 0.56038 0.0
H293 H 0.76109 0.7857 0.54712 0.0
H294 H 0.78948 0.7911 0.57632 0.0
H295 H 0.66349 0.76245 0.57245 0.0
H296 H 0.69024 0.76581 0.60157 0.0
H297 H 0.69957 0.73771 0.57544 0.0
H298 H 0.76603 0.70144 0.6362 0.0
C299 C 0.77442 0.76523 0.62384 0.0
C300 C 0.99166 0.777 0.66603 0.0
C301 C 0.95646 0.73547 0.65422 0.0
C302 C 0.96071 0.72314 0.62997 0.0
C303 C 0.03433 0.79409 0.62968 0.0
C304 C 0.02964 0.80587 0.6534 0.0
C305 C 0.06724 0.85331 0.66273 0.0
H306 H 0.27232 0.04193 0.65 0.0
C307 C 0.07776 0.83251 0.62187 0.0
C308 C 0.09707 0.86699 0.64136 0.0
H309 H 0.17839 0.02064 0.70575 0.0
H310 H 0.12538 0.94429 0.68707 0.0
H311 H 0.25259 0.93391 0.64038 0.0
H312 H 0.201 0.01594 0.6095 0.0
H313 H 0.19206 0.97487 0.58569 0.0
H314 H 0.24999 0.01521 0.59824 0.0
H315 H 0.28462 0.98209 0.62257 0.0
H316 H 0.24866 0.92412 0.60843 0.0
C317 C 0.09237 0.84859 0.68568 0.0
C318 C 0.04538 0.88442 0.66713 0.0
C319 C 0.13144 0.82811 0.53665 0.0
C320 C 0.17191 0.85885 0.5258 0.0
C321 C 0.20667 0.89818 0.53992 0.0
C322 C 0.20126 0.90733 0.56416 0.0
C323 C 0.16058 0.87704 0.57463 0.0
C324 C 0.12671 0.8377 0.56119 0.0
C325 C 0.08651 0.80909 0.57607 0.0
C326 C 0.10125 0.83899 0.60014 0.0
C327 C 0.14462 0.87882 0.59895 0.0
C328 C 0.08388 0.76194 0.5788 0.0
C329 C 0.04243 0.80505 0.56348 0.0
C330 C 0.24009 0.02094 0.65795 0.0
C331 C 0.22908 0.03733 0.67909 0.0
C332 C 0.18728 0.00875 0.68928 0.0
C333 C 0.15641 0.96453 0.67831 0.0
C334 C 0.16684 0.94933 0.65651 0.0
C335 C 0.20773 0.9777 0.64645 0.0
C336 C 0.21027 0.95831 0.62171 0.0
C337 C 0.16424 0.91323 0.61882 0.0
C338 C 0.13986 0.90775 0.63957 0.0
C339 C 0.25131 0.94927 0.62311 0.0
C340 C 0.21378 0.99271 0.60273 0.0
H341 H 0.00081 0.74114 0.59923 0.0
H342 H 0.98863 0.78815 0.68432 0.0
H343 H 0.01099 0.86985 0.65701 0.0
H344 H 0.06618 0.91923 0.66042 0.0
H345 H 0.04051 0.8884 0.68673 0.0
H346 H 0.09919 0.81942 0.6825 0.0
H347 H 0.07105 0.8415 0.70153 0.0
H348 H 0.12634 0.87957 0.69075 0.0
H349 H 0.10428 0.79741 0.52632 0.0
H350 H 0.23781 0.92278 0.532 0.0
H351 H 0.22886 0.9381 0.57371 0.0
H352 H 0.11905 0.76666 0.58171 0.0
H353 H 0.0667 0.73804 0.56217 0.0
H354 H 0.06578 0.7448 0.59475 0.0
H355 H 0.04977 0.83894 0.55697 0.0
H356 H 0.01457 0.79563 0.57584 0.0
H357 H 0.02922 0.77911 0.54746 0.0
H358 H 0.93359 0.69138 0.62039 0.0
C359 C -0.00034 0.75207 0.6177 0.0
C360 C 0.8152 0.51179 0.70505 0.0
C361 C 0.83344 0.55907 0.71155 0.0
C362 C 0.86408 0.57966 0.73252 0.0
C363 C 0.85838 0.50585 0.73971 0.0
C364 C 0.8292 0.48642 0.71876 0.0
C365 C 0.81932 0.43835 0.71144 0.0
H366 H 0.8812 0.27719 0.71944 0.0
C367 C 0.86934 0.47094 0.74832 0.0
C368 C 0.84776 0.4321 0.73131 0.0
H369 H 0.77297 0.27216 0.67177 0.0
H370 H 0.78557 0.34381 0.69178 0.0
H371 H 0.95461 0.3888 0.72862 0.0
H372 H 0.83831 0.29076 0.76389 0.0
H373 H 0.86747 0.33741 0.78622 0.0
H374 H 0.8955 0.30669 0.77499 0.0
H375 H 0.95032 0.34126 0.7446 0.0
H376 H 0.96822 0.39662 0.76054 0.0
C377 C 0.83757 0.43885 0.68595 0.0
C378 C 0.76688 0.40443 0.71256 0.0
C379 C 0.94962 0.49049 0.83211 0.0
C380 C 0.96368 0.4624 0.84379 0.0
C381 C 0.9617 0.42437 0.83026 0.0
C382 C 0.94436 0.41319 0.80593 0.0
C383 C 0.92842 0.43999 0.79488 0.0
C384 C 0.93237 0.47882 0.80754 0.0
C385 C 0.91597 0.50438 0.79174 0.0
C386 C 0.89614 0.47085 0.76896 0.0
C387 C 0.90421 0.43363 0.77094 0.0
C388 C 0.95826 0.55129 0.7866 0.0
C389 C 0.87842 0.50985 0.8043 0.0
C390 C 0.8599 0.29126 0.71356 0.0
C391 C 0.82617 0.26922 0.69404 0.0
C392 C 0.79939 0.28879 0.68668 0.0
C393 C 0.80668 0.33029 0.69834 0.0
C394 C 0.84062 0.35204 0.71778 0.0
C395 C 0.86503 0.33142 0.72586 0.0
C396 C 0.89329 0.35508 0.74948 0.0
C397 C 0.88521 0.39601 0.75273 0.0
C398 C 0.85548 0.39447 0.73368 0.0
C399 C 0.94444 0.37124 0.74579 0.0
C400 C 0.87296 0.32093 0.76972 0.0
H401 H 0.8993 0.57012 0.76284 0.0
H402 H 0.7924 0.49525 0.68871 0.0
H403 H 0.75139 0.41842 0.72554 0.0
H404 H 0.75956 0.37094 0.7194 0.0
H405 H 0.74798 0.39779 0.69445 0.0
H406 H 0.87162 0.47068 0.68486 0.0
H407 H 0.81344 0.43841 0.67139 0.0
H408 H 0.8436 0.40987 0.68153 0.0
H409 H 0.9517 0.52049 0.84192 0.0
H410 H 0.97207 0.40206 0.83876 0.0
H411 H 0.94347 0.3837 0.79673 0.0
H412 H 0.99128 0.55144 0.79004 0.0
H413 H 0.96049 0.58053 0.7983 0.0
H414 H 0.95756 0.55863 0.76725 0.0
H415 H 0.85056 0.47563 0.80919 0.0
H416 H 0.86217 0.52434 0.79247 0.0
H417 H 0.89319 0.53327 0.82126 0.0
H418 H 0.87887 0.6162 0.73761 0.0
C419 C 0.87609 0.55304 0.74694 0.0
C420 C 0.66176 0.54427 0.70565 0.0
C421 C 0.69695 0.5857 0.71744 0.0
C422 C 0.69312 0.59747 0.7419 0.0
C423 C 0.62007 0.52584 0.74241 0.0
C424 C 0.6244 0.51482 0.71847 0.0
C425 C 0.58739 0.46735 0.70903 0.0
H426 H 0.38265 0.27832 0.71924 0.0
C427 C 0.57715 0.48659 0.75031 0.0
C428 C 0.55806 0.45265 0.73055 0.0
H429 H 0.47835 0.30245 0.66413 0.0
H430 H 0.5312 0.37741 0.68412 0.0
H431 H 0.45299 0.30007 0.76 0.0
H432 H 0.40386 0.38642 0.73229 0.0
H433 H 0.40611 0.39159 0.76443 0.0
H434 H 0.37088 0.33551 0.74815 0.0
H435 H 0.40559 0.30207 0.77261 0.0
H436 H 0.46432 0.34079 0.78454 0.0
C437 C 0.61023 0.43726 0.70411 0.0
C438 C 0.56153 0.47211 0.68639 0.0
C439 C 0.52352 0.48658 0.83619 0.0
C440 C 0.48332 0.45486 0.84698 0.0
C441 C 0.44921 0.41542 0.83263 0.0
C442 C 0.45479 0.40728 0.80824 0.0
C443 C 0.495 0.43872 0.79778 0.0
C444 C 0.52843 0.47801 0.81147 0.0
C445 C 0.56824 0.50784 0.79658 0.0
C446 C 0.55383 0.47878 0.77221 0.0
C447 C 0.51083 0.43827 0.77324 0.0
C448 C 0.61293 0.51269 0.80876 0.0
C449 C 0.56973 0.55459 0.79448 0.0
C450 C 0.4154 0.29947 0.71184 0.0
C451 C 0.42684 0.28433 0.69038 0.0
C452 C 0.46912 0.31332 0.6808 0.0
C453 C 0.49993 0.35674 0.69258 0.0
C454 C 0.48907 0.37067 0.71463 0.0
C455 C 0.4479 0.34176 0.72426 0.0
C456 C 0.44525 0.35956 0.74946 0.0
C457 C 0.49133 0.40466 0.75296 0.0
C458 C 0.51575 0.41136 0.73215 0.0
C459 C 0.4416 0.32391 0.76766 0.0
C460 C 0.40424 0.36862 0.74876 0.0
H461 H 0.65385 0.57835 0.77301 0.0
H462 H 0.66445 0.53348 0.68722 0.0
H463 H 0.55463 0.50116 0.68986 0.0
H464 H 0.5275 0.44117 0.68144 0.0
H465 H 0.58239 0.47941 0.67034 0.0
H466 H 0.64487 0.45231 0.71401 0.0
H467 H 0.61485 0.43382 0.68442 0.0
H468 H 0.59024 0.40222 0.7107 0.0
H469 H 0.55023 0.51738 0.84666 0.0
H470 H 0.41833 0.39006 0.84045 0.0
H471 H 0.42759 0.37649 0.7985 0.0
H472 H 0.60669 0.47866 0.81452 0.0
H473 H 0.62541 0.5376 0.8252 0.0
H474 H 0.64094 0.52399 0.79637 0.0
H475 H 0.53429 0.54896 0.79111 0.0
H476 H 0.58873 0.5732 0.77907 0.0
H477 H 0.5855 0.57752 0.81154 0.0
H478 H 0.72028 0.62918 0.75151 0.0
C479 C 0.65465 0.56792 0.75439 0.0
C480 C 0.65501 0.08995 0.70705 0.0
C481 C 0.69331 0.08905 0.71746 0.0
C482 C 0.69185 0.0746 0.74123 0.0
C483 C 0.61665 0.06702 0.74476 0.0
C484 C 0.61762 0.07977 0.72114 0.0
C485 C 0.57756 0.08617 0.71413 0.0
H486 H 0.39948 0.11109 0.74725 0.0
C487 C 0.57569 0.0646 0.75546 0.0
C488 C 0.55319 0.07648 0.73756 0.0
H489 H 0.45019 0.119 0.67578 0.0
H490 H 0.50524 0.09814 0.69102 0.0
H491 H 0.39464 0.01756 0.75561 0.0
H492 H 0.49685 0.15777 0.77924 0.0
H493 H 0.48967 0.12441 0.80413 0.0
H494 H 0.44113 0.12744 0.79108 0.0
H495 H 0.38906 0.04704 0.78218 0.0
H496 H 0.41827 0.01397 0.78379 0.0
C497 C 0.54771 0.04938 0.69299 0.0
C498 C 0.59694 0.13719 0.70795 0.0
C499 C 0.53478 0.01648 0.84199 0.0
C500 C 0.50039 0.01528 0.85637 0.0
C501 C 0.4712 0.03084 0.84714 0.0
C502 C 0.47511 0.04629 0.82381 0.0
C503 C 0.50895 0.04676 0.80945 0.0
C504 C 0.53879 0.03293 0.81863 0.0
C505 C 0.57451 0.0392 0.80095 0.0
C506 C 0.55855 0.05532 0.77906 0.0
C507 C 0.52028 0.05983 0.78442 0.0
C508 C 0.57114 0.99185 0.7949 0.0
C509 C 0.62241 0.07726 0.8125 0.0
C510 C 0.42284 0.10877 0.735 0.0
C511 C 0.42124 0.11743 0.71043 0.0
C512 C 0.45104 0.11263 0.69482 0.0
C513 C 0.48303 0.10061 0.70372 0.0
C514 C 0.48501 0.093 0.72846 0.0
C515 C 0.45442 0.09589 0.74348 0.0
C516 C 0.45885 0.08258 0.76866 0.0
C517 C 0.49846 0.07305 0.76649 0.0
C518 C 0.51411 0.08008 0.74306 0.0
C519 C 0.41293 0.03824 0.77303 0.0
C520 C 0.47201 0.12494 0.78691 0.0
H521 H 0.65473 0.05293 0.77287 0.0
H522 H 0.65568 0.10194 0.68908 0.0
H523 H 0.62691 0.16117 0.72083 0.0
H524 H 0.5721 0.1495 0.70959 0.0
H525 H 0.60883 0.14207 0.68925 0.0
H526 H 0.55081 0.01775 0.69369 0.0
H527 H 0.55837 0.06315 0.67499 0.0
H528 H 0.51041 0.03662 0.69392 0.0
H529 H 0.55817 0.00543 0.84889 0.0
H530 H 0.44454 0.03018 0.85789 0.0
H531 H 0.45141 0.05716 0.81786 0.0
H532 H 0.53456 0.96441 0.79043 0.0
H533 H 0.58483 0.98164 0.81067 0.0
H534 H 0.58991 0.99174 0.77895 0.0
H535 H 0.61944 0.10329 0.82454 0.0
H536 H 0.64591 0.09768 0.79881 0.0
H537 H 0.63909 0.06214 0.82373 0.0
H538 H 0.72117 0.07374 0.74964 0.0
C539 C 0.65355 0.06304 0.7548 0.0
C540 C 0.8757 0.55007 0.99734 0.0
C541 C 0.91192 0.54771 0.98682 0.0
C542 C 0.923 0.56224 0.96324 0.0
C543 C 0.85975 0.57735 0.96002 0.0
C544 C 0.8496 0.56433 0.98343 0.0
C545 C 0.80675 0.56429 0.99053 0.0
H546 H 0.60877 0.55791 0.95607 0.0
C547 C 0.82376 0.58599 0.94959 0.0
C548 C 0.79239 0.57815 0.96724 0.0
H549 H 0.65887 0.54884 0.02801 0.0
H550 H 0.73202 0.56746 1.01326 0.0
H551 H 0.70808 0.65393 0.94857 0.0
H552 H 0.65578 0.51088 0.92234 0.0
H553 H 0.67684 0.54779 0.89834 0.0
H554 H 0.62867 0.54339 0.91362 0.0
H555 H 0.66366 0.62603 0.92419 0.0
H556 H 0.72399 0.65223 0.91875 0.0
C557 C 0.8203 0.60134 1.01219 0.0
C558 C 0.77121 0.51423 0.99613 0.0
C559 C 0.8325 0.63354 0.86327 0.0
C560 C 0.8039 0.64216 0.84766 0.0
C561 C 0.76161 0.63516 0.85582 0.0
C562 C 0.74849 0.62032 0.87915 0.0
C563 C 0.77804 0.61263 0.89462 0.0
C564 C 0.81907 0.61898 0.8864 0.0
C565 C 0.84614 0.60859 0.90484 0.0
C566 C 0.81587 0.5972 0.92604 0.0
C567 C 0.77572 0.59915 0.92002 0.0
C568 C 0.89353 0.65313 0.91105 0.0
C569 C 0.84896 0.56604 0.89431 0.0
C570 C 0.63562 0.5598 0.96852 0.0
C571 C 0.62778 0.55083 0.99312 0.0
C572 C 0.66393 0.55526 1.009 0.0
C573 C 0.70631 0.56567 1.00037 0.0
C574 C 0.71289 0.57189 0.9756 0.0
C575 C 0.67892 0.57129 0.96027 0.0
C576 C 0.69519 0.58473 0.93522 0.0
C577 C 0.74296 0.58973 0.93773 0.0
C578 C 0.75231 0.58099 0.96138 0.0
C579 C 0.69768 0.6315 0.93122 0.0
C580 C 0.6624 0.5448 0.91622 0.0
H581 H 0.90752 0.58758 0.93202 0.0
H582 H 0.86641 0.53879 1.01538 0.0
H583 H 0.76942 0.48868 0.98174 0.0
H584 H 0.73577 0.50792 0.99669 0.0
H585 H 0.78109 0.5058 1.01382 0.0
H586 H 0.85772 0.62762 1.01342 0.0
H587 H 0.81266 0.58527 0.02983 0.0
H588 H 0.80262 0.62172 1.01022 0.0
H589 H 0.8654 0.63893 0.85785 0.0
H590 H 0.7385 0.64084 0.84408 0.0
H591 H 0.71583 0.61526 0.88425 0.0
H592 H 0.88949 0.68429 0.91258 0.0
H593 H 0.91746 0.65803 0.89666 0.0
H594 H 0.91026 0.65334 0.92876 0.0
H595 H 0.82057 0.54465 0.88007 0.0
H596 H 0.84486 0.54169 0.90821 0.0
H597 H 0.882 0.57697 0.88586 0.0
H598 H 0.95124 0.56121 0.95489 0.0
C599 C 0.89745 0.57739 0.9499 0.0
C600 C 0.51044 0.14247 0.99541 0.0
C601 C 0.48709 0.09411 0.99151 0.0
C602 C 0.45206 0.07216 0.9724 0.0
C603 C 0.46414 0.14696 0.96185 0.0
C604 C 0.49692 0.16776 0.98132 0.0
C605 C 0.50939 0.21698 0.98772 0.0
H606 H 0.43747 0.37029 0.98653 0.0
C607 C 0.45373 0.18202 0.95306 0.0
C608 C 0.47795 0.22196 0.96914 0.0
H609 H 0.55148 0.37857 0.03049 0.0
H610 H 0.54227 0.31049 1.00776 0.0
H611 H 0.48206 0.36374 0.93962 0.0
H612 H 0.36811 0.26003 0.97388 0.0
H613 H 0.35453 0.25595 0.942 0.0
H614 H 0.37156 0.30919 0.95992 0.0
H615 H 0.42428 0.34504 0.92832 0.0
H616 H 0.45516 0.31753 0.91683 0.0
C617 C 0.56073 0.24858 0.98302 0.0
C618 C 0.49792 0.22173 1.01449 0.0
C619 C 0.37293 0.1632 0.8696 0.0
C620 C 0.3595 0.19189 0.85797 0.0
C621 C 0.36171 0.22987 0.8717 0.0
C622 C 0.37863 0.24042 0.89611 0.0
C623 C 0.39384 0.213 0.9071 0.0
C624 C 0.38964 0.17416 0.8943 0.0
C625 C 0.4053 0.14789 0.9101 0.0
C626 C 0.42568 0.18156 0.93289 0.0
C627 C 0.41809 0.21911 0.93099 0.0
C628 C 0.44238 0.14129 0.89779 0.0
C629 C 0.36263 0.10111 0.91518 0.0
C630 C 0.46097 0.35794 0.99089 0.0
C631 C 0.49515 0.37962 1.01028 0.0
C632 C 0.52459 0.36209 1.01579 0.0
C633 C 0.5193 0.32272 1.00259 0.0
C634 C 0.48477 0.30123 0.98344 0.0
C635 C 0.45801 0.32024 0.97692 0.0
C636 C 0.42924 0.29726 0.95328 0.0
C637 C 0.43844 0.25722 0.94894 0.0
C638 C 0.47012 0.25953 0.96706 0.0
C639 C 0.44834 0.33252 0.93347 0.0
C640 C 0.37799 0.2797 0.95736 0.0
H641 H 0.41386 0.0807 0.94304 0.0
H642 H 0.53615 0.16023 1.01056 0.0
H643 H 0.47656 0.18756 0.02192 0.0
H644 H 0.47693 0.23873 1.01623 0.0
H645 H 0.52975 0.24122 0.02689 0.0
H646 H 0.56897 0.23643 0.96578 0.0
H647 H 0.58376 0.24834 0.99802 0.0
H648 H 0.56962 0.28477 0.98075 0.0
H649 H 0.37064 0.13322 0.85966 0.0
H650 H 0.35183 0.25262 0.8633 0.0
H651 H 0.3796 0.26979 0.90553 0.0
H652 H 0.4717 0.1753 0.89371 0.0
H653 H 0.42776 0.11903 0.88045 0.0
H654 H 0.45615 0.12443 0.90965 0.0
H655 H 0.33016 0.09578 0.90578 0.0
H656 H 0.3569 0.09915 0.9349 0.0
H657 H 0.36624 0.07104 0.90877 0.0
H658 H 0.4327 0.03478 0.96953 0.0
C659 C 0.44108 0.09856 0.95717 0.0
C660 C 0.65833 0.11033 0.99936 0.0
C661 C 0.62313 0.0688 0.98756 0.0
C662 C 0.62738 0.05648 0.96331 0.0
C663 C 0.70099 0.12742 0.96301 0.0
C664 C 0.69631 0.1392 0.98674 0.0
C665 C 0.7339 0.18664 0.99607 0.0
H666 H 0.93899 0.37526 0.98333 0.0
C667 C 0.74443 0.16584 0.9552 0.0
C668 C 0.76374 0.20032 0.97469 0.0
H669 H 0.84506 0.35397 0.03908 0.0
H670 H 0.79204 0.27762 0.0204 0.0
H671 H 0.91926 0.26725 0.97372 0.0
H672 H 0.86767 0.34928 0.94283 0.0
H673 H 0.85873 0.3082 0.91902 0.0
H674 H 0.91666 0.34854 0.93157 0.0
H675 H 0.95128 0.31543 0.9559 0.0
H676 H 0.91533 0.25745 0.94177 0.0
C677 C 0.75904 0.18193 0.01901 0.0
C678 C 0.71205 0.21776 1.00046 0.0
C679 C 0.7981 0.16144 0.86998 0.0
C680 C 0.83858 0.19219 0.85913 0.0
C681 C 0.87333 0.23152 0.87326 0.0
C682 C 0.86793 0.24066 0.8975 0.0
C683 C 0.82724 0.21037 0.90797 0.0
C684 C 0.79337 0.17103 0.89452 0.0
C685 C 0.75317 0.14242 0.9094 0.0
C686 C 0.76792 0.17232 0.93348 0.0
C687 C 0.81129 0.21215 0.93228 0.0
C688 C 0.75055 0.09527 0.91213 0.0
C689 C 0.7091 0.13838 0.89681 0.0
C690 C 0.90676 0.35428 0.99129 0.0
C691 C 0.89575 0.37066 1.01243 0.0
C692 C 0.85394 0.34208 0.02262 0.0
C693 C 0.82308 0.29786 1.01164 0.0
C694 C 0.8335 0.28266 0.98984 0.0
C695 C 0.8744 0.31103 0.97978 0.0
C696 C 0.87693 0.29164 0.95504 0.0
C697 C 0.8309 0.24656 0.95215 0.0
C698 C 0.80653 0.24108 0.9729 0.0
C699 C 0.91798 0.28261 0.95645 0.0
C700 C 0.88045 0.32605 0.93606 0.0
H701 H 0.66748 0.07448 0.93257 0.0
H702 H 0.6553 0.12148 1.01765 0.0
H703 H 0.67766 0.20319 0.99035 0.0
H704 H 0.73284 0.25256 0.99375 0.0
H705 H 0.70717 0.22174 0.02006 0.0
H706 H 0.76585 0.15275 1.01583 0.0
H707 H 0.73772 0.17483 0.03486 0.0
H708 H 0.793 0.21291 0.02409 0.0
H709 H 0.77094 0.13075 0.85965 0.0
H710 H 0.90448 0.25611 0.86533 0.0
H711 H 0.89553 0.27143 0.90705 0.0
H712 H 0.78572 0.09999 0.91504 0.0
H713 H 0.73336 0.07138 0.89551 0.0
H714 H 0.73245 0.07813 0.92808 0.0
H715 H 0.71644 0.17227 0.89031 0.0
H716 H 0.68124 0.12896 0.90917 0.0
H717 H 0.69589 0.11245 0.8808 0.0
H718 H 0.60026 0.02471 0.95372 0.0
C719 C 0.66633 0.0854 0.95103 0.0
C720 C 0.48187 0.84513 0.03838 0.0
C721 C 0.50011 0.8924 0.04489 0.0
C722 C 0.53074 0.91299 0.06585 0.0
C723 C 0.52504 0.83918 0.07304 0.0
C724 C 0.49586 0.81975 0.0521 0.0
C725 C 0.48598 0.77168 0.04477 0.0
H726 H 0.54787 0.61053 0.05278 0.0
C727 C 0.536 0.80427 0.08165 0.0
C728 C 0.51442 0.76543 0.06464 0.0
H729 H 0.43964 0.6055 1.0051 0.0
H730 H 0.45223 0.67714 0.02511 0.0
H731 H 0.62128 0.72213 0.06195 0.0
H732 H 0.50497 0.62409 0.09722 0.0
H733 H 0.53414 0.67075 0.11955 0.0
H734 H 0.56217 0.64003 0.10832 0.0
H735 H 0.61698 0.67459 0.07794 0.0
H736 H 0.63488 0.72995 0.09388 0.0
C737 C 0.50424 0.77218 0.01929 0.0
C738 C 0.43355 0.73776 0.04589 0.0
C739 C 0.61628 0.82383 0.16544 0.0
C740 C 0.63035 0.79573 0.17712 0.0
C741 C 0.62837 0.75771 0.16359 0.0
C742 C 0.61102 0.74652 0.13927 0.0
C743 C 0.59508 0.77332 0.12821 0.0
C744 C 0.59904 0.81215 0.14087 0.0
C745 C 0.58263 0.83771 0.12507 0.0
C746 C 0.5628 0.80418 0.10229 0.0
C747 C 0.57087 0.76696 0.10427 0.0
C748 C 0.62493 0.88462 0.11993 0.0
C749 C 0.54508 0.84319 0.13764 0.0
C750 C 0.52656 0.62459 0.0469 0.0
C751 C 0.49284 0.60255 0.02738 0.0
C752 C 0.46606 0.62212 0.02001 0.0
C753 C 0.47335 0.66362 0.03167 0.0
C754 C 0.50729 0.68537 0.05112 0.0
C755 C 0.53169 0.66476 0.0592 0.0
C756 C 0.55995 0.68842 0.08282 0.0
C757 C 0.55187 0.72934 0.08606 0.0
C758 C 0.52214 0.7278 0.06702 0.0
C759 C 0.6111 0.70458 0.07912 0.0
C760 C 0.53962 0.65426 0.10305 0.0
H761 H 0.56597 0.90346 0.09617 0.0
H762 H 0.45907 0.82858 0.02204 0.0
H763 H 0.41805 0.75176 0.05887 0.0
H764 H 0.42623 0.70427 0.05273 0.0
H765 H 0.41464 0.73112 0.02779 0.0
H766 H 0.53828 0.80402 0.01819 0.0
H767 H 0.4801 0.77174 1.00472 0.0
H768 H 0.51027 0.7432 1.01486 0.0
H769 H 0.61837 0.85382 0.17526 0.0
H770 H 0.63874 0.73539 0.17209 0.0
H771 H 0.61014 0.71703 0.13006 0.0
H772 H 0.65794 0.88477 0.12337 0.0
H773 H 0.62715 0.91386 0.13163 0.0
H774 H 0.62423 0.89196 0.10059 0.0
H775 H 0.51723 0.80896 0.14252 0.0
H776 H 0.52884 0.85767 0.12581 0.0
H777 H 0.55985 0.8666 0.1546 0.0
H778 H 0.54554 0.94953 0.07094 0.0
C779 C 0.54275 0.88637 0.08027 0.0
C780 C 0.32842 0.8776 0.03899 0.0
C781 C 0.36361 0.91903 0.05077 0.0
C782 C 0.35978 0.9308 0.07524 0.0
C783 C 0.28673 0.85917 0.07574 0.0
C784 C 0.29106 0.84815 0.0518 0.0
C785 C 0.25406 0.80068 0.04236 0.0
H786 H 0.04931 0.61165 0.05258 0.0
C787 C 0.24382 0.81992 0.08364 0.0
C788 C 0.22473 0.78598 0.06388 0.0
H789 H 0.14502 0.63578 0.99746 0.0
H790 H 0.19786 0.71075 1.01745 0.0
H791 H 0.11966 0.63341 0.09334 0.0
H792 H 0.07053 0.71975 0.06562 0.0
H793 H 0.07277 0.72492 0.09776 0.0
H794 H 0.03754 0.66884 0.08149 0.0
H795 H 0.07226 0.6354 0.10594 0.0
H796 H 0.13099 0.67412 0.11787 0.0
C797 C 0.27689 0.77059 0.03744 0.0
C798 C 0.2282 0.80544 0.01972 0.0
C799 C 0.19019 0.81992 0.16952 0.0
C800 C 0.14999 0.78819 0.18032 0.0
C801 C 0.11588 0.74875 0.16596 0.0
C802 C 0.12145 0.74062 0.14157 0.0
C803 C 0.16167 0.77206 0.13112 0.0
C804 C 0.19509 0.81134 0.14481 0.0
C805 C 0.2349 0.84118 0.12991 0.0
C806 C 0.2205 0.81212 0.10554 0.0
C807 C 0.17749 0.77161 0.10658 0.0
C808 C 0.2796 0.84602 0.1421 0.0
C809 C 0.2364 0.88792 0.12781 0.0
C810 C 0.08207 0.6328 0.04517 0.0
C811 C 0.0935 0.61766 0.02371 0.0
C812 C 0.13578 0.64666 1.01413 0.0
C813 C 0.1666 0.69008 0.02591 0.0
C814 C 0.15574 0.704 0.04797 0.0
C815 C 0.11457 0.67509 0.05759 0.0
C816 C 0.11192 0.69289 0.08279 0.0
C817 C 0.158 0.738 0.08629 0.0
C818 C 0.18242 0.74469 0.06548 0.0
C819 C 0.10827 0.65724 0.10099 0.0
C820 C 0.07091 0.70195 0.08209 0.0
H821 H 0.32052 0.91168 0.10634 0.0
H822 H 0.33111 0.86681 0.02055 0.0
H823 H 0.22129 0.8345 0.02319 0.0
H824 H 0.19417 0.7745 1.01477 0.0
H825 H 0.24905 0.81274 1.00367 0.0
H826 H 0.31153 0.78565 0.04735 0.0
H827 H 0.28152 0.76716 1.01776 0.0
H828 H 0.2569 0.73556 0.04403 0.0
H829 H 0.21689 0.85071 0.17999 0.0
H830 H 0.08499 0.72339 0.17378 0.0
H831 H 0.09426 0.70982 0.13184 0.0
H832 H 0.27335 0.81199 0.14785 0.0
H833 H 0.29207 0.87093 0.15854 0.0
H834 H 0.3076 0.85733 0.1297 0.0
H835 H 0.20096 0.88229 0.12444 0.0
H836 H 0.2554 0.90653 0.11241 0.0
H837 H 0.25216 0.91085 0.14487 0.0
H838 H 0.38694 0.96251 0.08484 0.0
C839 C 0.32132 0.90125 0.08772 0.0
C840 C 0.32167 0.42328 0.04038 0.0
C841 C 0.35998 0.42238 0.05079 0.0
C842 C 0.35852 0.40793 0.07456 0.0
C843 C 0.28332 0.40035 0.0781 0.0
C844 C 0.28429 0.4131 0.05447 0.0
C845 C 0.24422 0.4195 0.04747 0.0
H846 H 0.06614 0.44442 0.08059 0.0
C847 C 0.24236 0.39793 0.08879 0.0
C848 C 0.21985 0.40981 0.07089 0.0
H849 H 0.11686 0.45234 1.00911 0.0
H850 H 0.17191 0.43147 0.02435 0.0
H851 H 0.06131 0.35089 0.08894 0.0
H852 H 0.16351 0.4911 0.11257 0.0
H853 H 0.15634 0.45774 0.13747 0.0
H854 H 0.1078 0.46077 0.12441 0.0
H855 H 0.05573 0.38038 0.11551 0.0
H856 H 0.08494 0.3473 0.11712 0.0
C857 C 0.21438 0.38271 0.02632 0.0
C858 C 0.26361 0.47053 0.04128 0.0
C859 C 0.20145 0.34981 0.17532 0.0
C860 C 0.16705 0.34861 0.18971 0.0
C861 C 0.13786 0.36417 0.18047 0.0
C862 C 0.14178 0.37962 0.15714 0.0
C863 C 0.17561 0.38009 0.14278 0.0
C864 C 0.20546 0.36627 0.15196 0.0
C865 C 0.24117 0.37253 0.13428 0.0
C866 C 0.22522 0.38865 0.11239 0.0
C867 C 0.18694 0.39316 0.11775 0.0
C868 C 0.23781 0.32518 0.12824 0.0
C869 C 0.28907 0.4106 0.14584 0.0
C870 C 0.08951 0.4421 0.06833 0.0
C871 C 0.08791 0.45077 0.04377 0.0
C872 C 0.11771 0.44596 0.02815 0.0
C873 C 0.14969 0.43394 0.03705 0.0
C874 C 0.15168 0.42633 0.06179 0.0
C875 C 0.12108 0.42922 0.07681 0.0
C876 C 0.12551 0.41592 0.10199 0.0
C877 C 0.16513 0.40638 0.09982 0.0
C878 C 0.18077 0.41341 0.07639 0.0
C879 C 0.07959 0.37157 0.10636 0.0
C880 C 0.13867 0.45827 0.12024 0.0
H881 H 0.3214 0.38626 0.1062 0.0
H882 H 0.32234 0.43527 0.02242 0.0
H883 H 0.29358 0.49451 0.05416 0.0
H884 H 0.23877 0.48283 0.04293 0.0
H885 H 0.2755 0.47541 0.02258 0.0
H886 H 0.21748 0.35108 0.02702 0.0
H887 H 0.22504 0.39648 1.00833 0.0
H888 H 0.17708 0.36995 0.02726 0.0
H889 H 0.22484 0.33877 0.18222 0.0
H890 H 0.11121 0.36351 0.19122 0.0
H891 H 0.11807 0.39049 0.1512 0.0
H892 H 0.20122 0.29774 0.12376 0.0
H893 H 0.25149 0.31498 0.144 0.0
H894 H 0.25658 0.32507 0.11228 0.0
H895 H 0.28611 0.43663 0.15787 0.0
H896 H 0.31257 0.43101 0.13214 0.0
H897 H 0.30575 0.39547 0.15706 0.0
H898 H 0.38784 0.40707 0.08297 0.0
C899 C 0.32021 0.39637 0.08814 0.0
C900 C 0.54237 0.88341 0.33068 0.0
C901 C 0.57859 0.88104 0.32015 0.0
C902 C 0.58967 0.89557 0.29657 0.0
C903 C 0.52642 0.91068 0.29335 0.0
C904 C 0.51627 0.89766 0.31676 0.0
C905 C 0.47341 0.89763 0.32387 0.0
H906 H 0.27544 0.89124 0.28941 0.0
C907 C 0.49043 0.91932 0.28292 0.0
C908 C 0.45905 0.91148 0.30058 0.0
H909 H 0.32554 0.88217 0.36135 0.0
H910 H 0.39869 0.90079 0.3466 0.0
H911 H 0.37475 0.98727 0.2819 0.0
H912 H 0.32244 0.84421 0.25567 0.0
H913 H 0.34351 0.88112 0.23167 0.0
H914 H 0.29533 0.87673 0.24695 0.0
H915 H 0.33032 0.95936 0.25752 0.0
H916 H 0.39065 0.98556 0.25208 0.0
C917 C 0.48696 0.93467 0.34553 0.0
C918 C 0.43787 0.84757 0.32947 0.0
C919 C 0.49917 0.96688 0.1966 0.0
C920 C 0.47057 0.97549 0.181 0.0
C921 C 0.42828 0.96849 0.18915 0.0
C922 C 0.41516 0.95365 0.21248 0.0
C923 C 0.44471 0.94596 0.22795 0.0
C924 C 0.48573 0.95231 0.21973 0.0
C925 C 0.5128 0.94192 0.23817 0.0
C926 C 0.48253 0.93053 0.25937 0.0
C927 C 0.44238 0.93248 0.25336 0.0
C928 C 0.5602 0.98647 0.24439 0.0
C929 C 0.51563 0.89937 0.22765 0.0
C930 C 0.30228 0.89314 0.30185 0.0
C931 C 0.29445 0.88417 0.32645 0.0
C932 C 0.33059 0.8886 0.34233 0.0
C933 C 0.37298 0.899 0.3337 0.0
C934 C 0.37956 0.90522 0.30893 0.0
C935 C 0.34559 0.90462 0.2936 0.0
C936 C 0.36186 0.91806 0.26855 0.0
C937 C 0.40963 0.92307 0.27106 0.0
C938 C 0.41898 0.91433 0.29471 0.0
C939 C 0.36435 0.96483 0.26455 0.0
C940 C 0.32906 0.87813 0.24955 0.0
H941 H 0.57419 0.92091 0.26535 0.0
H942 H 0.53308 0.87212 0.34871 0.0
H943 H 0.43609 0.82201 0.31507 0.0
H944 H 0.40243 0.84125 0.33003 0.0
H945 H 0.44775 0.83913 0.34716 0.0
H946 H 0.52439 0.96095 0.34676 0.0
H947 H 0.47933 0.91861 0.36316 0.0
H948 H 0.46929 0.95506 0.34355 0.0
H949 H 0.53207 0.97226 0.19118 0.0
H950 H 0.40517 0.97417 0.17741 0.0
H951 H 0.3825 0.94859 0.21758 0.0
H952 H 0.55616 0.01762 0.24592 0.0
H953 H 0.58412 0.99137 0.22999 0.0
H954 H 0.57693 0.98667 0.2621 0.0
H955 H 0.48723 0.87799 0.2134 0.0
H956 H 0.51152 0.87502 0.24154 0.0
H957 H 0.54866 0.9103 0.21919 0.0
H958 H 0.61791 0.89455 0.28823 0.0
C959 C 0.56412 0.91072 0.28324 0.0
C960 C 0.17711 0.4758 0.32874 0.0
C961 C 0.15376 0.42744 0.32484 0.0
C962 C 0.11873 0.40549 0.30573 0.0
C963 C 0.1308 0.4803 0.29518 0.0
C964 C 0.16359 0.5011 0.31465 0.0
C965 C 0.17606 0.55032 0.32106 0.0
H966 H 0.10414 0.70363 0.31986 0.0
C967 C 0.1204 0.51536 0.28639 0.0
C968 C 0.14461 0.55529 0.30248 0.0
H969 H 0.21814 0.7119 0.36383 0.0
H970 H 0.20893 0.64382 0.3411 0.0
H971 H 0.14872 0.69707 0.27295 0.0
H972 H 0.03478 0.59336 0.30721 0.0
H973 H 0.0212 0.58928 0.27533 0.0
H974 H 0.03822 0.64252 0.29325 0.0
H975 H 0.09095 0.67837 0.26166 0.0
H976 H 0.12183 0.65086 0.25016 0.0
C977 C 0.2274 0.58191 0.31635 0.0
C978 C 0.16459 0.55506 0.34783 0.0
C979 C 0.0396 0.49653 0.20293 0.0
C980 C 0.02617 0.52522 0.1913 0.0
C981 C 0.02838 0.5632 0.20503 0.0
C982 C 0.04529 0.57375 0.22945 0.0
C983 C 0.06051 0.54633 0.24043 0.0
C984 C 0.05631 0.50749 0.22763 0.0
C985 C 0.07197 0.48123 0.24343 0.0
C986 C 0.09234 0.51489 0.26622 0.0
C987 C 0.08476 0.55244 0.26432 0.0
C988 C 0.10905 0.47462 0.23112 0.0
C989 C 0.02929 0.43444 0.24852 0.0
C990 C 0.12763 0.69127 0.32422 0.0
C991 C 0.16182 0.71296 0.34361 0.0
C992 C 0.19126 0.69543 0.34913 0.0
C993 C 0.18597 0.65605 0.33593 0.0
C994 C 0.15143 0.63456 0.31677 0.0
C995 C 0.12468 0.65357 0.31025 0.0
C996 C 0.09591 0.6306 0.28661 0.0
C997 C 0.10511 0.59055 0.28228 0.0
C998 C 0.13678 0.59286 0.3004 0.0
C999 C 0.11501 0.66585 0.2668 0.0
C1000 C 0.04466 0.61303 0.29069 0.0
H1001 H 0.08052 0.41403 0.27638 0.0
H1002 H 0.20282 0.49356 0.34389 0.0
H1003 H 0.14323 0.52089 0.35525 0.0
H1004 H 0.1436 0.57206 0.34957 0.0
H1005 H 0.19642 0.57455 0.36022 0.0
H1006 H 0.23564 0.56976 0.29911 0.0
H1007 H 0.25043 0.58168 0.33135 0.0
H1008 H 0.23629 0.61811 0.31409 0.0
H1009 H 0.03731 0.46655 0.19299 0.0
H1010 H 0.0185 0.58596 0.19663 0.0
H1011 H 0.04627 0.60312 0.23886 0.0
H1012 H 0.13837 0.50864 0.22705 0.0
H1013 H 0.09443 0.45236 0.21378 0.0
H1014 H 0.12282 0.45777 0.24298 0.0
H1015 H -0.00317 0.42912 0.23912 0.0
H1016 H 0.02357 0.43248 0.26823 0.0
H1017 H 0.0329 0.40437 0.24211 0.0
H1018 H 0.09936 0.36811 0.30287 0.0
C1019 C 0.10775 0.43189 0.29051 0.0
C1020 C 0.32499 0.44366 0.3327 0.0
C1021 C 0.2898 0.40213 0.32089 0.0
C1022 C 0.29405 0.38981 0.29664 0.0
C1023 C 0.36766 0.46076 0.29634 0.0
C1024 C 0.36298 0.47253 0.32007 0.0
C1025 C 0.40057 0.51997 0.3294 0.0
H1026 H 0.60566 0.70859 0.31667 0.0
C1027 C 0.4111 0.49917 0.28853 0.0
C1028 C 0.43041 0.53366 0.30803 0.0
H1029 H 0.51172 0.6873 0.37241 0.0
H1030 H 0.45871 0.61095 0.35374 0.0
H1031 H 0.58592 0.60058 0.30705 0.0
H1032 H 0.53433 0.68261 0.27616 0.0
H1033 H 0.5254 0.64153 0.25235 0.0
H1034 H 0.58333 0.68187 0.26491 0.0
H1035 H 0.61795 0.64876 0.28923 0.0
H1036 H 0.582 0.59079 0.2751 0.0
C1037 C 0.4257 0.51526 0.35234 0.0
C1038 C 0.37871 0.55109 0.3338 0.0
C1039 C 0.46477 0.49478 0.20332 0.0
C1040 C 0.50525 0.52552 0.19247 0.0
C1041 C 0.54 0.56485 0.20659 0.0
C1042 C 0.5346 0.574 0.23083 0.0
C1043 C 0.49391 0.5437 0.2413 0.0
C1044 C 0.46004 0.50437 0.22786 0.0
C1045 C 0.41984 0.47576 0.24273 0.0
C1046 C 0.43458 0.50566 0.26681 0.0
C1047 C 0.47796 0.54549 0.26562 0.0
C1048 C 0.41721 0.42861 0.24547 0.0
C1049 C 0.37576 0.47171 0.23015 0.0
C1050 C 0.57342 0.68761 0.32462 0.0
C1051 C 0.56241 0.704 0.34576 0.0
C1052 C 0.52061 0.67542 0.35595 0.0
C1053 C 0.48974 0.6312 0.34497 0.0
C1054 C 0.50017 0.616 0.32318 0.0
C1055 C 0.54107 0.64436 0.31312 0.0
C1056 C 0.5436 0.62498 0.28838 0.0
C1057 C 0.49757 0.5799 0.28549 0.0
C1058 C 0.4732 0.57441 0.30624 0.0
C1059 C 0.58464 0.61594 0.28978 0.0
C1060 C 0.54711 0.65938 0.2694 0.0
H1061 H 0.33415 0.40781 0.2659 0.0
H1062 H 0.32196 0.45482 0.35099 0.0
H1063 H 0.34432 0.53652 0.32368 0.0
H1064 H 0.39951 0.5859 0.32709 0.0
H1065 H 0.37384 0.55507 0.3534 0.0
H1066 H 0.43252 0.48608 0.34917 0.0
H1067 H 0.40438 0.50817 0.3682 0.0
H1068 H 0.45967 0.54624 0.35742 0.0
H1069 H 0.43761 0.46408 0.19299 0.0
H1070 H 0.57114 0.58945 0.19866 0.0
H1071 H 0.56219 0.60477 0.24038 0.0
H1072 H 0.45239 0.43333 0.24838 0.0
H1073 H 0.40003 0.40471 0.22884 0.0
H1074 H 0.39912 0.41147 0.26141 0.0
H1075 H 0.3831 0.50561 0.22364 0.0
H1076 H 0.3479 0.4623 0.24251 0.0
H1077 H 0.36255 0.44578 0.21413 0.0
H1078 H 0.26692 0.35805 0.28706 0.0
C1079 C 0.33299 0.41873 0.28437 0.0
C1080 C 0.53975 0.05021 0.08892 0.0
Eu1081 Eu 0.51622 0.02276 0.04289 0.0
C1082 C 0.52106 0.03004 0.11212 0.0
C1083 C 0.49679 0.04645 0.12575 0.0
C1084 C 0.47928 0.02796 0.14773 0.0
C1085 C 0.48581 0.99272 0.15668 0.0
C1086 C 0.50952 0.97587 0.14282 0.0
C1087 C 0.52713 -0.00556 0.12094 0.0
C1088 C 0.49829 0.06797 1.00861 0.0
C1089 C 0.40636 0.94668 0.0386 0.0
C1090 C 0.4469 0.93736 0.94872 0.0
Eu1091 Eu 0.47009 0.96477 0.9948 0.0
C1092 C 0.46446 0.95856 0.9257 0.0
C1093 C 0.46662 0.93172 0.90588 0.0
C1094 C 0.48116 0.95095 0.88363 0.0
C1095 C 0.49321 -0.00282 0.88081 0.0
C1096 C 0.49269 0.02444 0.90092 0.0
C1097 C 0.47904 0.0055 0.92321 0.0
C1098 C 0.48768 0.91923 0.02897 0.0
C1099 C 0.58017 0.04122 0.99951 0.0
O1100 O 0.55852 0.03092 0.07593 0.0
O1101 O 0.51452 0.06167 0.07544 0.0
O1102 O 0.53343 0.08766 0.02461 0.0
O1103 O 0.47191 0.02624 1.01267 0.0
O1104 O 0.44505 0.9701 0.05255 0.0
O1105 O 0.40579 0.94333 1.01454 0.0
O1106 O 0.42691 0.95506 0.96192 0.0
O1107 O 0.47409 0.92798 0.9619 0.0
O1108 O 0.45275 0.89966 1.01285 0.0
O1109 O 0.51415 0.961 0.02496 0.0
O1110 O 0.54148 0.01811 0.98548 0.0
O1111 O 0.58063 0.04409 0.02353 0.0
H1112 H 0.49171 0.074 0.11954 0.0
H1113 H 0.46177 0.04223 0.15804 0.0
H1114 H 0.51472 0.94834 0.14894 0.0
H1115 H 0.54577 0.98099 0.11109 0.0
H1116 H 0.45612 0.8956 0.90747 0.0
H1117 H 0.48091 0.92914 0.86833 0.0
H1118 H 0.5019 0.06022 0.89921 0.0
H1119 H 0.47907 0.02738 0.93833 0.0
C1120 C 0.99234 0.53414 0.08916 0.0
Eu1121 Eu 0.98468 0.50436 0.0436 0.0
C1122 C -0.00353 0.52319 0.11449 0.0
C1123 C 0.96806 0.52695 0.13133 0.0
C1124 C 0.97576 0.52435 0.15614 0.0
C1125 C 0.01231 0.51822 0.16474 0.0
C1126 C 0.03894 0.51142 0.1477 0.0
C1127 C 0.03118 0.514 0.12278 0.0
C1128 C 0.92658 0.41795 0.02332 0.0
C1129 C 0.0554 0.46469 0.03433 0.0
C1130 C -0.00154 0.45492 0.94572 0.0
Eu1131 Eu 0.00452 0.48489 0.99101 0.0
C1132 C 0.9937 0.46521 0.9204 0.0
C1133 C 0.02262 0.46227 0.90364 0.0
C1134 C 0.01483 0.46472 0.87885 0.0
C1135 C 0.9777 0.46989 0.87027 0.0
C1136 C 0.95055 0.47595 0.88724 0.0
C1137 C 0.95842 0.47354 0.91215 0.0
C1138 C 0.06267 0.57119 1.01182 0.0
C1139 C 0.93652 0.52707 0.99887 0.0
O1140 O 0.02751 0.54513 0.07606 0.0
O1141 O 0.95255 0.50915 0.07658 0.0
O1142 O 0.91485 0.43909 0.03939 0.0
O1143 O 0.96904 0.44111 0.02062 0.0
O1144 O 0.04212 0.48732 0.04933 0.0
O1145 O 0.03946 0.45302 1.01128 0.0
O1146 O 0.96283 0.442 0.95872 0.0
O1147 O 0.03785 0.48199 0.95826 0.0
O1148 O 0.07461 0.55041 0.99565 0.0
O1149 O 0.02021 0.54785 1.01417 0.0
O1150 O 0.94853 0.50258 0.98455 0.0
O1151 O 0.951 0.53786 0.02229 0.0
H1152 H 0.94108 0.53398 0.1254 0.0
H1153 H 0.95422 0.52907 0.16876 0.0
H1154 H 0.0675 0.50688 0.15374 0.0
H1155 H 0.0536 0.51081 0.11018 0.0
H1156 H 0.05012 0.45603 0.90961 0.0
H1157 H 0.03671 0.46058 0.86624 0.0
H1158 H 0.92155 0.47974 0.88116 0.0
H1159 H 0.93574 0.47621 0.92475 0.0
C1160 C 0.44349 0.44639 0.948 0.0
Eu1161 Eu 0.46839 0.47724 0.99375 0.0
C1162 C 0.4571 0.45676 0.92283 0.0
C1163 C 0.42312 0.44896 0.90459 0.0
C1164 C 0.43261 0.45116 0.88008 0.0
C1165 C 0.47635 0.46097 0.87318 0.0
C1166 C 0.51131 0.47154 0.89156 0.0
C1167 C 0.50174 0.46931 0.91619 0.0
C1168 C 0.48421 0.55858 1.01516 0.0
C1169 C 0.58183 0.53392 1.00231 0.0
C1170 C 0.54348 0.5336 0.09165 0.0
Eu1171 Eu 0.51675 0.50212 0.04625 0.0
C1172 C 0.53014 0.52336 0.11675 0.0
C1173 C 0.56399 0.52982 0.13474 0.0
C1174 C 0.55479 0.52744 0.15925 0.0
C1175 C 0.51155 0.51883 0.16633 0.0
C1176 C 0.47661 0.50939 0.14818 0.0
C1177 C 0.48585 0.51172 0.12355 0.0
C1178 C 0.50173 0.4214 0.0242 0.0
C1179 C 0.40402 0.44364 0.03903 0.0
O1180 O 0.46882 0.4361 0.96211 0.0
O1181 O 0.42905 0.47136 0.95963 0.0
O1182 O 0.44986 0.53328 0.99926 0.0
O1183 O 0.51087 0.54235 1.01712 0.0
O1184 O 0.54463 0.508 0.98734 0.0
O1185 O 0.57934 0.54253 0.0257 0.0
O1186 O 0.5186 0.54484 0.07774 0.0
O1187 O 0.55658 0.50752 0.07994 0.0
O1188 O 0.53629 0.44682 0.03999 0.0
O1189 O 0.47475 0.43727 0.02269 0.0
O1190 O 0.44168 0.46949 0.05354 0.0
O1191 O 0.40517 0.43697 1.01514 0.0
H1192 H 0.3885 0.43924 0.90921 0.0
H1193 H 0.4051 0.44353 0.86642 0.0
H1194 H 0.54527 0.47902 0.88686 0.0
H1195 H 0.52873 0.47557 0.9299 0.0
H1196 H 0.59829 0.53866 0.12992 0.0
H1197 H 0.58219 0.53417 0.17279 0.0
H1198 H 0.44304 0.50284 0.15307 0.0
H1199 H 0.45899 0.50634 0.10998 0.0
C1200 C 0.20641 0.38354 0.42225 0.0
Eu1201 Eu 0.18289 0.35609 0.37622 0.0
C1202 C 0.18773 0.36338 0.44546 0.0
C1203 C 0.16345 0.37978 0.45909 0.0
C1204 C 0.14594 0.36129 0.48106 0.0
C1205 C 0.15248 0.32605 0.49001 0.0
C1206 C 0.17619 0.30921 0.47616 0.0
C1207 C 0.1938 0.32778 0.45428 0.0
C1208 C 0.16496 0.4013 0.34195 0.0
C1209 C 0.07303 0.28001 0.37193 0.0
C1210 C 0.11357 0.27069 0.28205 0.0
Eu1211 Eu 0.13675 0.2981 0.32814 0.0
C1212 C 0.13112 0.29189 0.25903 0.0
C1213 C 0.13329 0.26505 0.23922 0.0
C1214 C 0.14782 0.28428 0.21696 0.0
C1215 C 0.15988 0.33051 0.21414 0.0
C1216 C 0.15935 0.35778 0.23425 0.0
C1217 C 0.14571 0.33883 0.25654 0.0
C1218 C 0.15435 0.25256 0.36231 0.0
C1219 C 0.24684 0.37455 0.33285 0.0
O1220 O 0.22519 0.36425 0.40926 0.0
O1221 O 0.18118 0.395 0.40877 0.0
O1222 O 0.2001 0.42099 0.35795 0.0
O1223 O 0.13858 0.35957 0.346 0.0
O1224 O 0.11172 0.30343 0.38589 0.0
O1225 O 0.07246 0.27666 0.34787 0.0
O1226 O 0.09357 0.28839 0.29525 0.0
O1227 O 0.14076 0.26132 0.29523 0.0
O1228 O 0.11942 0.23299 0.34619 0.0
O1229 O 0.18082 0.29433 0.35829 0.0
O1230 O 0.20815 0.35144 0.31881 0.0
O1231 O 0.2473 0.37742 0.35687 0.0
H1232 H 0.15838 0.40734 0.45287 0.0
H1233 H 0.12844 0.37556 0.49137 0.0
H1234 H 0.18138 0.28167 0.48227 0.0
H1235 H 0.21244 0.31432 0.44443 0.0
H1236 H 0.12279 0.22894 0.2408 0.0
H1237 H 0.14758 0.26248 0.20166 0.0
H1238 H 0.16857 0.39355 0.23254 0.0
H1239 H 0.14573 0.36071 0.27166 0.0
C1240 C 0.659 0.86747 0.42249 0.0
Eu1241 Eu 0.65135 0.83769 0.37693 0.0
C1242 C 0.66313 0.85652 0.44782 0.0
C1243 C 0.63473 0.86029 0.46466 0.0
C1244 C 0.64243 0.85769 0.48948 0.0
C1245 C 0.67898 0.85156 0.49807 0.0
C1246 C 0.70561 0.84475 0.48103 0.0
C1247 C 0.69785 0.84733 0.45611 0.0
C1248 C 0.59324 0.75128 0.35666 0.0
C1249 C 0.72206 0.79802 0.36766 0.0
C1250 C 0.66513 0.78826 0.27905 0.0
Eu1251 Eu 0.67119 0.81822 0.32434 0.0
C1252 C 0.66037 0.79855 0.25374 0.0
C1253 C 0.68929 0.7956 0.23698 0.0
C1254 C 0.6815 0.79806 0.21218 0.0
C1255 C 0.64436 0.80322 0.2036 0.0
C1256 C 0.61721 0.80929 0.22057 0.0
C1257 C 0.62509 0.80688 0.24548 0.0
C1258 C 0.72934 0.90452 0.34516 0.0
C1259 C 0.60319 0.8604 0.33221 0.0
O1260 O 0.69417 0.87847 0.4094 0.0
O1261 O 0.61922 0.84248 0.40992 0.0
O1262 O 0.58151 0.77242 0.37273 0.0
O1263 O 0.63571 0.77444 0.35396 0.0
O1264 O 0.70878 0.82066 0.38266 0.0
O1265 O 0.70613 0.78635 0.34461 0.0
O1266 O 0.6295 0.77533 0.29206 0.0
O1267 O 0.70452 0.81533 0.2916 0.0
O1268 O 0.74128 0.88374 0.32898 0.0
O1269 O 0.68687 0.88119 0.3475 0.0
O1270 O 0.61519 0.83592 0.31788 0.0
O1271 O 0.61766 0.87119 0.35563 0.0
H1272 H 0.60775 0.86731 0.45874 0.0
H1273 H 0.62088 0.8624 0.50209 0.0
H1274 H 0.73416 0.84022 0.48707 0.0
H1275 H 0.72027 0.84414 0.44351 0.0
H1276 H 0.71678 0.78936 0.24295 0.0
H1277 H 0.70338 0.79392 0.19958 0.0
H1278 H 0.58821 0.81307 0.2145 0.0
H1279 H 0.6024 0.80954 0.25808 0.0
C1280 C 0.11016 0.77972 0.28133 0.0
Eu1281 Eu 0.13505 0.81057 0.32709 0.0
C1282 C 0.12376 0.79009 0.25617 0.0
C1283 C 0.08978 0.7823 0.23792 0.0
C1284 C 0.09928 0.78449 0.21342 0.0
C1285 C 0.14301 0.7943 0.20651 0.0
C1286 C 0.17797 0.80487 0.22489 0.0
C1287 C 0.16841 0.80265 0.24952 0.0
C1288 C 0.15087 0.89191 0.3485 0.0
C1289 C 0.2485 0.86725 0.33565 0.0
C1290 C 0.21015 0.86693 0.42498 0.0
Eu1291 Eu 0.18342 0.83545 0.37958 0.0
C1292 C 0.19681 0.85669 0.45009 0.0
C1293 C 0.23066 0.86315 0.46808 0.0
C1294 C 0.22146 0.86077 0.49259 0.0
C1295 C 0.17822 0.85216 0.49967 0.0
C1296 C 0.14328 0.84272 0.48151 0.0
C1297 C 0.15252 0.84505 0.45689 0.0
C1298 C 0.16839 0.75473 0.35754 0.0
C1299 C 0.07068 0.77697 0.37237 0.0
O1300 O 0.13548 0.76944 0.29544 0.0
O1301 O 0.09571 0.80469 0.29296 0.0
O1302 O 0.11653 0.86661 0.33259 0.0
O1303 O 0.17754 0.87569 0.35046 0.0
O1304 O 0.2113 0.84133 0.32068 0.0
O1305 O 0.24601 0.87586 0.35904 0.0
O1306 O 0.18527 0.87817 0.41108 0.0
O1307 O 0.22325 0.84085 0.41327 0.0
O1308 O 0.20295 0.78015 0.37333 0.0
O1309 O 0.14141 0.7706 0.35602 0.0
O1310 O 0.10835 0.80282 0.38687 0.0
O1311 O 0.07184 0.7703 0.34848 0.0
H1312 H 0.05517 0.77258 0.24255 0.0
H1313 H 0.07177 0.77686 0.19975 0.0
H1314 H 0.21194 0.81235 0.22019 0.0
H1315 H 0.19539 0.8089 0.26323 0.0
H1316 H 0.26495 0.87199 0.46325 0.0
H1317 H 0.24886 0.8675 0.50613 0.0
H1318 H 0.1097 0.83617 0.4864 0.0
H1319 H 0.12565 0.83967 0.44332 0.0
C1320 C 0.87308 0.71688 0.75558 0.0
Eu1321 Eu 0.84955 0.68942 0.70955 0.0
C1322 C 0.8544 0.69671 0.77879 0.0
C1323 C 0.83012 0.71312 0.79242 0.0
C1324 C 0.81261 0.69463 0.8144 0.0
C1325 C 0.81914 0.65939 0.82334 0.0
C1326 C 0.84285 0.64254 0.80949 0.0
C1327 C 0.86046 0.66111 0.78761 0.0
C1328 C 0.83163 0.73463 0.67528 0.0
C1329 C 0.73969 0.61335 0.70527 0.0
C1330 C 0.78023 0.60403 0.61539 0.0
Eu1331 Eu 0.80342 0.63144 0.66147 0.0
C1332 C 0.79779 0.62523 0.59236 0.0
C1333 C 0.79995 0.59839 0.57255 0.0
C1334 C 0.81449 0.61762 0.5503 0.0
C1335 C 0.82654 0.66384 0.54747 0.0
C1336 C 0.82602 0.69111 0.56758 0.0
C1337 C 0.81237 0.67217 0.58987 0.0
C1338 C 0.82101 0.5859 0.69564 0.0
C1339 C 0.9135 0.70788 0.66618 0.0
O1340 O 0.89185 0.69759 0.74259 0.0
O1341 O 0.84785 0.72834 0.74211 0.0
O1342 O 0.86676 0.75433 0.69128 0.0
O1343 O 0.80524 0.69291 0.67934 0.0
O1344 O 0.77839 0.63677 0.71922 0.0
O1345 O 0.73913 0.61 0.6812 0.0
O1346 O 0.76024 0.62173 0.62858 0.0
O1347 O 0.80742 0.59465 0.62857 0.0
O1348 O 0.78608 0.56632 0.67952 0.0
O1349 O 0.84748 0.62767 0.69163 0.0
O1350 O 0.87482 0.68478 0.65214 0.0
O1351 O 0.91397 0.71076 0.6902 0.0
H1352 H 0.82505 0.74067 0.7862 0.0
H1353 H 0.79511 0.7089 0.8247 0.0
H1354 H 0.84805 0.615 0.8156 0.0
H1355 H 0.8791 0.64766 0.77776 0.0
H1356 H 0.78946 0.56227 0.57413 0.0
H1357 H 0.81425 0.59581 0.535 0.0
H1358 H 0.83524 0.72688 0.56588 0.0
H1359 H 0.8124 0.69405 0.60499 0.0
C1360 C 0.32567 0.2008 0.75583 0.0
Eu1361 Eu 0.31801 0.17102 0.71026 0.0
C1362 C 0.3298 0.18985 0.78116 0.0
C1363 C 0.3014 0.19362 0.79799 0.0
C1364 C 0.30909 0.19102 0.82281 0.0
C1365 C 0.34564 0.18489 0.8314 0.0
C1366 C 0.37227 0.17808 0.81437 0.0
C1367 C 0.36451 0.18066 0.78944 0.0
C1368 C 0.25991 0.08462 0.68999 0.0
C1369 C 0.38873 0.13135 0.701 0.0
C1370 C 0.33179 0.12159 0.61239 0.0
Eu1371 Eu 0.33786 0.15155 0.65767 0.0
C1372 C 0.32704 0.13188 0.58707 0.0
C1373 C 0.35595 0.12893 0.57031 0.0
C1374 C 0.34816 0.13139 0.54552 0.0
C1375 C 0.31103 0.13656 0.53694 0.0
C1376 C 0.28388 0.14262 0.55391 0.0
C1377 C 0.29176 0.14021 0.57882 0.0
C1378 C 0.39601 0.23785 0.67849 0.0
C1379 C 0.26986 0.19374 0.66554 0.0
O1380 O 0.36084 0.2118 0.74273 0.0
O1381 O 0.28588 0.17581 0.74325 0.0
O1382 O 0.24818 0.10576 0.70606 0.0
O1383 O 0.30238 0.10777 0.68729 0.0
O1384 O 0.37545 0.15399 0.71599 0.0
O1385 O 0.3728 0.11968 0.67795 0.0
O1386 O 0.29617 0.10867 0.62539 0.0
O1387 O 0.37118 0.14866 0.62493 0.0
O1388 O 0.40795 0.21707 0.66231 0.0
O1389 O 0.35354 0.21452 0.68083 0.0
O1390 O 0.28186 0.16925 0.65122 0.0
O1391 O 0.28433 0.20452 0.68896 0.0
H1392 H 0.27442 0.20065 0.79207 0.0
H1393 H 0.28755 0.19574 0.83542 0.0
H1394 H 0.40083 0.17355 0.8204 0.0
H1395 H 0.38693 0.17747 0.77685 0.0
H1396 H 0.38345 0.1227 0.57628 0.0
H1397 H 0.37005 0.12725 0.53291 0.0
H1398 H 0.25488 0.14641 0.54783 0.0
H1399 H 0.26907 0.14288 0.59142 0.0
C1400 C 0.77683 0.11306 0.61466 0.0
Eu1401 Eu 0.80172 0.14391 0.66042 0.0
C1402 C 0.79043 0.12342 0.5895 0.0
C1403 C 0.75645 0.11563 0.57125 0.0
C1404 C 0.76594 0.11783 0.54675 0.0
C1405 C 0.80968 0.12764 0.53984 0.0
C1406 C 0.84464 0.13821 0.55822 0.0
C1407 C 0.83508 0.13598 0.58285 0.0
C1408 C 0.81754 0.22524 0.68183 0.0
C1409 C 0.91517 0.20059 0.66898 0.0
C1410 C 0.87682 0.20027 0.75831 0.0
Eu1411 Eu 0.85009 0.16879 0.71292 0.0
C1412 C 0.86347 0.19002 0.78342 0.0
C1413 C 0.89733 0.19649 0.80141 0.0
C1414 C 0.88813 0.19411 0.82592 0.0
C1415 C 0.84488 0.1855 0.833 0.0
C1416 C 0.80995 0.17605 0.81485 0.0
C1417 C 0.81919 0.17839 0.79022 0.0
C1418 C 0.83506 0.08806 0.69087 0.0
C1419 C 0.73735 0.1103 0.7057 0.0
O1420 O 0.80215 0.10277 0.62877 0.0
O1421 O 0.76238 0.13803 0.6263 0.0
O1422 O 0.7832 0.19994 0.66593 0.0
O1423 O 0.84421 0.20902 0.68379 0.0
O1424 O 0.87797 0.17467 0.65401 0.0
O1425 O 0.91267 0.20919 0.69237 0.0
O1426 O 0.85194 0.21151 0.74441 0.0
O1427 O 0.88992 0.17419 0.7466 0.0
O1428 O 0.86962 0.11349 0.70666 0.0
O1429 O 0.80808 0.10394 0.68936 0.0
O1430 O 0.77502 0.13615 0.72021 0.0
O1431 O 0.7385 0.10363 0.68181 0.0
H1432 H 0.72184 0.10591 0.57588 0.0
H1433 H 0.73844 0.1102 0.53308 0.0
H1434 H 0.8786 0.14568 0.55353 0.0
H1435 H 0.86206 0.14224 0.59656 0.0
H1436 H 0.93162 0.20533 0.79659 0.0
H1437 H 0.91553 0.20083 0.83946 0.0
H1438 H 0.77637 0.16951 0.81974 0.0
H1439 H 0.79232 0.173 0.77665 0.0
loop_
_geom_bond_atom_site_label_1
_geom_bond_atom_site_label_2
_geom_bond_distance
_geom_bond_site_symmetry_2
_ccdc_geom_bond_type
C0 C1 1.391 . S
C0 C4 1.391 . S
C0 H42 0.948 . S
C1 C0 1.391 . S
C1 C2 1.391 . S
C2 C1 1.391 . S
C2 H58 0.947 . S
C2 C59 1.392 . S
C3 C4 1.391 . S
C3 C7 1.397 . S
C3 C59 1.419 . S
C4 C0 1.391 . S
C4 C3 1.391 . S
C4 C5 1.399 . S
C5 C4 1.399 . S
C5 C8 1.396 . S
C5 C17 1.453 . S
C5 C18 1.684 . S
H6 C30 0.948 1_565 S
C7 C3 1.397 . S
C7 C8 1.394 . S
C7 C26 1.723 . S
C8 C5 1.396 . S
C8 C7 1.394 . S
C8 C38 1.723 . S
H9 C32 0.947 . S
H10 C33 0.948 . S
H11 C39 0.982 . S
H12 C40 0.979 . S
H13 C40 0.980 . S
H14 C40 0.983 . S
H15 C39 0.979 . S
H16 C39 0.977 . S
C17 C5 1.453 . S
C17 H46 0.982 . S
C17 H47 0.979 . S
C17 H48 0.977 . S
C18 C5 1.684 . S
C18 H43 0.979 . S
C18 H44 0.980 . S
C18 H45 0.983 . S
C19 C20 1.391 . S
C19 C24 1.391 . S
C19 H49 0.948 . S
C20 C19 1.391 . S
C20 C21 1.391 . S
C21 C20 1.391 . S
C21 C22 1.392 . S
C21 H50 0.947 . S
C22 C21 1.392 . S
C22 C23 1.419 . S
C22 H51 0.948 . S
C23 C22 1.419 . S
C23 C24 1.391 . S
C23 C27 1.397 . S
C24 C19 1.391 . S
C24 C23 1.391 . S
C24 C25 1.399 . S
C25 C24 1.399 . S
C25 C26 1.396 . S
C25 C28 1.453 . S
C25 C29 1.684 . S
C26 C7 1.723 . S
C26 C25 1.396 . S
C26 C27 1.394 . S
C27 C23 1.397 . S
C27 C26 1.394 . S
C27 C37 1.723 . S
C28 C25 1.453 . S
C28 H52 0.982 . S
C28 H53 0.979 . S
C28 H54 0.977 . S
C29 C25 1.684 . S
C29 H55 0.979 . S
C29 H56 0.980 . S
C29 H57 0.983 . S
C30 H6 0.948 1_545 S
C30 C31 1.391 1_545 S
C30 C35 1.391 . S
C31 C30 1.391 1_565 S
C31 C32 1.391 1_565 S
C32 H9 0.947 . S
C32 C31 1.391 1_545 S
C32 C33 1.392 . S
C33 H10 0.948 . S
C33 C32 1.392 . S
C33 C34 1.419 . S
C34 C33 1.419 . S
C34 C35 1.391 . S
C34 C38 1.397 . S
C35 C30 1.391 . S
C35 C34 1.391 . S
C35 C36 1.399 . S
C36 C35 1.399 . S
C36 C37 1.396 . S
C36 C39 1.453 . S
C36 C40 1.684 . S
C37 C27 1.723 . S
C37 C36 1.396 . S
C37 C38 1.394 . S
C38 C8 1.723 . S
C38 C34 1.397 . S
C38 C37 1.394 . S
C39 H11 0.982 . S
C39 H15 0.979 . S
C39 H16 0.977 . S
C39 C36 1.453 . S
C40 H12 0.979 . S
C40 H13 0.980 . S
C40 H14 0.983 . S
C40 C36 1.684 . S
H41 C59 0.948 . S
H42 C0 0.948 . S
H43 C18 0.979 . S
H44 C18 0.980 . S
H45 C18 0.983 . S
H46 C17 0.982 . S
H47 C17 0.979 . S
H48 C17 0.977 . S
H49 C19 0.948 . S
H50 C21 0.947 . S
H51 C22 0.948 . S
H52 C28 0.982 . S
H53 C28 0.979 . S
H54 C28 0.977 . S
H55 C29 0.979 . S
H56 C29 0.980 . S
H57 C29 0.983 . S
H58 C2 0.947 . S
C59 C2 1.392 . S
C59 C3 1.419 . S
C59 H41 0.948 . S
C60 C61 1.391 1_655 S
C60 C64 1.391 . S
C60 H102 0.948 . S
C61 C60 1.391 1_455 S
C61 C62 1.391 . S
C62 C61 1.391 . S
C62 H118 0.947 . S
C62 C119 1.392 1_455 S
C63 C64 1.391 . S
C63 C67 1.397 . S
C63 C119 1.419 . S
C64 C60 1.391 . S
C64 C63 1.391 . S
C64 C65 1.399 . S
C65 C64 1.399 . S
C65 C68 1.396 . S
C65 C77 1.453 . S
C65 C78 1.684 . S
H66 C90 0.948 1_565 S
C67 C63 1.397 . S
C67 C68 1.394 . S
C67 C86 1.723 . S
C68 C65 1.396 . S
C68 C67 1.394 . S
C68 C98 1.723 . S
H69 C92 0.947 . S
H70 C93 0.948 . S
H71 C99 0.982 . S
H72 C100 0.979 . S
H73 C100 0.980 . S
H74 C100 0.983 . S
H75 C99 0.979 . S
H76 C99 0.977 . S
C77 C65 1.453 . S
C77 H106 0.982 . S
C77 H107 0.979 . S
C77 H108 0.977 . S
C78 C65 1.684 . S
C78 H103 0.979 . S
C78 H104 0.980 . S
C78 H105 0.983 . S
C79 C80 1.391 . S
C79 C84 1.391 . S
C79 H109 0.948 . S
C80 C79 1.391 . S
C80 C81 1.391 . S
C81 C80 1.391 . S
C81 C82 1.392 . S
C81 H110 0.947 . S
C82 C81 1.392 . S
C82 C83 1.419 . S
C82 H111 0.948 . S
C83 C82 1.419 . S
C83 C84 1.391 . S
C83 C87 1.397 . S
C84 C79 1.391 . S
C84 C83 1.391 . S
C84 C85 1.399 . S
C85 C84 1.399 . S
C85 C86 1.396 . S
C85 C88 1.453 . S
C85 C89 1.684 . S
C86 C67 1.723 . S
C86 C85 1.396 . S
C86 C87 1.394 . S
C87 C83 1.397 . S
C87 C86 1.394 . S
C87 C97 1.723 . S
C88 C85 1.453 . S
C88 H112 0.982 . S
C88 H113 0.979 . S
C88 H114 0.977 . S
C89 C85 1.684 . S
C89 H115 0.979 . S
C89 H116 0.980 . S
C89 H117 0.983 . S
C90 H66 0.948 1_545 S
C90 C91 1.391 1_545 S
C90 C95 1.391 . S
C91 C90 1.391 1_565 S
C91 C92 1.391 1_565 S
C92 H69 0.947 . S
C92 C91 1.391 1_545 S
C92 C93 1.392 . S
C93 H70 0.948 . S
C93 C92 1.392 . S
C93 C94 1.419 . S
C94 C93 1.419 . S
C94 C95 1.391 . S
C94 C98 1.397 . S
C95 C90 1.391 . S
C95 C94 1.391 . S
C95 C96 1.399 . S
C96 C95 1.399 . S
C96 C97 1.396 . S
C96 C99 1.453 . S
C96 C100 1.684 . S
C97 C87 1.723 . S
C97 C96 1.396 . S
C97 C98 1.394 . S
C98 C68 1.723 . S
C98 C94 1.397 . S
C98 C97 1.394 . S
C99 H71 0.982 . S
C99 H75 0.979 . S
C99 H76 0.977 . S
C99 C96 1.453 . S
C100 H72 0.979 . S
C100 H73 0.980 . S
C100 H74 0.983 . S
C100 C96 1.684 . S
H101 C119 0.948 . S
H102 C60 0.948 . S
H103 C78 0.979 . S
H104 C78 0.980 . S
H105 C78 0.983 . S
H106 C77 0.982 . S
H107 C77 0.979 . S
H108 C77 0.977 . S
H109 C79 0.948 . S
H110 C81 0.947 . S
H111 C82 0.948 . S
H112 C88 0.982 . S
H113 C88 0.979 . S
H114 C88 0.977 . S
H115 C89 0.979 . S
H116 C89 0.980 . S
H117 C89 0.983 . S
H118 C62 0.947 . S
C119 C62 1.392 1_655 S
C119 C63 1.419 . S
C119 H101 0.948 . S
C120 C121 1.391 . S
C120 C124 1.391 1_455 S
C120 H162 0.948 . S
C121 C120 1.391 . S
C121 C122 1.391 . S
C122 C121 1.391 . S
C122 H178 0.947 . S
C122 C179 1.392 . S
C123 C124 1.391 . S
C123 C127 1.397 . S
C123 C179 1.419 1_655 S
C124 C120 1.391 1_655 S
C124 C123 1.391 . S
C124 C125 1.399 . S
C125 C124 1.399 . S
C125 C128 1.396 . S
C125 C137 1.453 . S
C125 C138 1.684 . S
H126 C150 0.948 . S
C127 C123 1.397 . S
C127 C128 1.394 . S
C127 C146 1.723 . S
C128 C125 1.396 . S
C128 C127 1.394 . S
C128 C158 1.723 . S
H129 C152 0.947 . S
H130 C153 0.948 . S
H131 C159 0.982 . S
H132 C160 0.979 . S
H133 C160 0.980 . S
H134 C160 0.983 . S
H135 C159 0.979 . S
H136 C159 0.977 . S
C137 C125 1.453 . S
C137 H166 0.982 . S
C137 H167 0.979 . S
C137 H168 0.977 . S
C138 C125 1.684 . S
C138 H163 0.979 . S
C138 H164 0.980 . S
C138 H165 0.983 . S
C139 C140 1.391 . S
C139 C144 1.391 . S
C139 H169 0.948 . S
C140 C139 1.391 . S
C140 C141 1.391 . S
C141 C140 1.391 . S
C141 C142 1.392 . S
C141 H170 0.947 . S
C142 C141 1.392 . S
C142 C143 1.419 . S
C142 H171 0.948 . S
C143 C142 1.419 . S
C143 C144 1.391 . S
C143 C147 1.397 . S
C144 C139 1.391 . S
C144 C143 1.391 . S
C144 C145 1.399 . S
C145 C144 1.399 . S
C145 C146 1.396 . S
C145 C148 1.453 . S
C145 C149 1.684 . S
C146 C127 1.723 . S
C146 C145 1.396 . S
C146 C147 1.394 . S
C147 C143 1.397 . S
C147 C146 1.394 . S
C147 C157 1.723 . S
C148 C145 1.453 . S
C148 H172 0.982 . S
C148 H173 0.979 . S
C148 H174 0.977 . S
C149 C145 1.684 . S
C149 H175 0.979 . S
C149 H176 0.980 1_655 S
C149 H177 0.983 . S
C150 H126 0.948 . S
C150 C151 1.391 . S
C150 C155 1.391 . S
C151 C150 1.391 . S
C151 C152 1.391 . S
C152 H129 0.947 . S
C152 C151 1.391 . S
C152 C153 1.392 . S
C153 H130 0.948 . S
C153 C152 1.392 . S
C153 C154 1.419 . S
C154 C153 1.419 . S
C154 C155 1.391 . S
C154 C158 1.397 . S
C155 C150 1.391 . S
C155 C154 1.391 . S
C155 C156 1.399 . S
C156 C155 1.399 . S
C156 C157 1.396 . S
C156 C159 1.453 . S
C156 C160 1.684 . S
C157 C147 1.723 . S
C157 C156 1.396 . S
C157 C158 1.394 . S
C158 C128 1.723 . S
C158 C154 1.397 . S
C158 C157 1.394 . S
C159 H131 0.982 . S
C159 H135 0.979 . S
C159 H136 0.977 . S
C159 C156 1.453 . S
C160 H132 0.979 . S
C160 H133 0.980 . S
C160 H134 0.983 . S
C160 C156 1.684 . S
H161 C179 0.948 . S
H162 C120 0.948 . S
H163 C138 0.979 . S
H164 C138 0.980 . S
H165 C138 0.983 . S
H166 C137 0.982 . S
H167 C137 0.979 . S
H168 C137 0.977 . S
H169 C139 0.948 . S
H170 C141 0.947 . S
H171 C142 0.948 . S
H172 C148 0.982 . S
H173 C148 0.979 . S
H174 C148 0.977 . S
H175 C149 0.979 . S
H176 C149 0.980 1_455 S
H177 C149 0.983 . S
H178 C122 0.947 . S
C179 C122 1.392 . S
C179 C123 1.419 1_455 S
C179 H161 0.948 . S
C180 C181 1.391 . S
C180 C184 1.391 . S
C180 H222 0.948 . S
C181 C180 1.391 . S
C181 C182 1.391 . S
C182 C181 1.391 . S
C182 H238 0.947 . S
C182 C239 1.392 . S
C183 C184 1.391 . S
C183 C187 1.397 . S
C183 C239 1.419 . S
C184 C180 1.391 . S
C184 C183 1.391 . S
C184 C185 1.399 . S
C185 C184 1.399 . S
C185 C188 1.396 . S
C185 C197 1.453 . S
C185 C198 1.684 . S
H186 C210 0.948 . S
C187 C183 1.397 . S
C187 C188 1.394 . S
C187 C206 1.723 . S
C188 C185 1.396 . S
C188 C187 1.394 . S
C188 C218 1.723 . S
H189 C212 0.947 . S
H190 C213 0.948 . S
H191 C219 0.982 . S
H192 C220 0.979 . S
H193 C220 0.980 1_455 S
H194 C220 0.983 . S
H195 C219 0.979 . S
H196 C219 0.977 . S
C197 C185 1.453 . S
C197 H226 0.982 . S
C197 H227 0.979 . S
C197 H228 0.977 . S
C198 C185 1.684 . S
C198 H223 0.979 . S
C198 H224 0.980 . S
C198 H225 0.983 . S
C199 C200 1.391 . S
C199 C204 1.391 . S
C199 H229 0.948 . S
C200 C199 1.391 . S
C200 C201 1.391 . S
C201 C200 1.391 . S
C201 C202 1.392 . S
C201 H230 0.947 . S
C202 C201 1.392 . S
C202 C203 1.419 . S
C202 H231 0.948 . S
C203 C202 1.419 . S
C203 C204 1.391 . S
C203 C207 1.397 . S
C204 C199 1.391 . S
C204 C203 1.391 . S
C204 C205 1.399 . S
C205 C204 1.399 . S
C205 C206 1.396 . S
C205 C208 1.453 . S
C205 C209 1.684 . S
C206 C187 1.723 . S
C206 C205 1.396 . S
C206 C207 1.394 . S
C207 C203 1.397 . S
C207 C206 1.394 . S
C207 C217 1.723 . S
C208 C205 1.453 . S
C208 H232 0.982 . S
C208 H233 0.979 . S
C208 H234 0.977 . S
C209 C205 1.684 . S
C209 H235 0.979 . S
C209 H236 0.980 . S
C209 H237 0.983 . S
C210 H186 0.948 . S
C210 C211 1.391 . S
C210 C215 1.391 1_655 S
C211 C210 1.391 . S
C211 C212 1.391 . S
C212 H189 0.947 . S
C212 C211 1.391 . S
C212 C213 1.392 1_655 S
C213 H190 0.948 . S
C213 C212 1.392 1_455 S
C213 C214 1.419 . S
C214 C213 1.419 . S
C214 C215 1.391 . S
C214 C218 1.397 . S
C215 C210 1.391 1_455 S
C215 C214 1.391 . S
C215 C216 1.399 . S
C216 C215 1.399 . S
C216 C217 1.396 . S
C216 C219 1.453 . S
C216 C220 1.684 1_455 S
C217 C207 1.723 . S
C217 C216 1.396 . S
C217 C218 1.394 . S
C218 C188 1.723 . S
C218 C214 1.397 . S
C218 C217 1.394 . S
C219 H191 0.982 . S
C219 H195 0.979 . S
C219 H196 0.977 . S
C219 C216 1.453 . S
C220 H192 0.979 . S
C220 H193 0.980 1_655 S
C220 H194 0.983 . S
C220 C216 1.684 1_655 S
H221 C239 0.948 . S
H222 C180 0.948 . S
H223 C198 0.979 . S
H224 C198 0.980 . S
H225 C198 0.983 . S
H226 C197 0.982 . S
H227 C197 0.979 . S
H228 C197 0.977 . S
H229 C199 0.948 . S
H230 C201 0.947 . S
H231 C202 0.948 . S
H232 C208 0.982 . S
H233 C208 0.979 . S
H234 C208 0.977 . S
H235 C209 0.979 . S
H236 C209 0.980 . S
H237 C209 0.983 . S
H238 C182 0.947 . S
C239 C182 1.392 . S
C239 C183 1.419 . S
C239 H221 0.948 . S
C240 C241 1.391 . S
C240 C244 1.391 . S
C240 H282 0.948 . S
C241 C240 1.391 . S
C241 C242 1.391 . S
C242 C241 1.391 . S
C242 H298 0.947 . S
C242 C299 1.392 . S
C243 C244 1.391 . S
C243 C247 1.397 . S
C243 C299 1.419 . S
C244 C240 1.391 . S
C244 C243 1.391 . S
C244 C245 1.399 . S
C245 C244 1.399 . S
C245 C248 1.396 . S
C245 C257 1.453 . S
C245 C258 1.684 . S
H246 C270 0.948 1_545 S
C247 C243 1.397 . S
C247 C248 1.394 . S
C247 C266 1.723 . S
C248 C245 1.396 . S
C248 C247 1.394 . S
C248 C278 1.723 . S
H249 C272 0.947 . S
H250 C273 0.948 . S
H251 C279 0.982 . S
H252 C280 0.979 . S
H253 C280 0.980 . S
H254 C280 0.983 . S
H255 C279 0.979 . S
H256 C279 0.977 . S
C257 C245 1.453 . S
C257 H286 0.982 . S
C257 H287 0.979 . S
C257 H288 0.977 . S
C258 C245 1.684 . S
C258 H283 0.979 . S
C258 H284 0.980 . S
C258 H285 0.983 . S
C259 C260 1.391 . S
C259 C264 1.391 . S
C259 H289 0.948 . S
C260 C259 1.391 . S
C260 C261 1.391 . S
C261 C260 1.391 . S
C261 C262 1.392 . S
C261 H290 0.947 . S
C262 C261 1.392 . S
C262 C263 1.419 . S
C262 H291 0.948 . S
C263 C262 1.419 . S
C263 C264 1.391 . S
C263 C267 1.397 . S
C264 C259 1.391 . S
C264 C263 1.391 . S
C264 C265 1.399 . S
C265 C264 1.399 . S
C265 C266 1.396 . S
C265 C268 1.453 . S
C265 C269 1.684 . S
C266 C247 1.723 . S
C266 C265 1.396 . S
C266 C267 1.394 . S
C267 C263 1.397 . S
C267 C266 1.394 . S
C267 C277 1.723 . S
C268 C265 1.453 . S
C268 H292 0.982 . S
C268 H293 0.979 . S
C268 H294 0.977 . S
C269 C265 1.684 . S
C269 H295 0.979 . S
C269 H296 0.980 . S
C269 H297 0.983 . S
C270 H246 0.948 1_565 S
C270 C271 1.393 . S
C270 C275 1.391 . S
C271 C270 1.393 . S
C271 C272 1.414 . S
C272 H249 0.947 . S
C272 C271 1.414 . S
C272 C273 1.392 . S
C273 H250 0.948 . S
C273 C272 1.392 . S
C273 C274 1.419 . S
C274 C273 1.419 . S
C274 C275 1.391 . S
C274 C278 1.397 . S
C275 C270 1.391 . S
C275 C274 1.391 . S
C275 C276 1.399 . S
C276 C275 1.399 . S
C276 C277 1.396 . S
C276 C279 1.453 . S
C276 C280 1.684 . S
C277 C267 1.723 . S
C277 C276 1.396 . S
C277 C278 1.394 . S
C278 C248 1.723 . S
C278 C274 1.397 . S
C278 C277 1.394 . S
C279 H251 0.982 . S
C279 H255 0.979 . S
C279 H256 0.977 . S
C279 C276 1.453 . S
C280 H252 0.979 . S
C280 H253 0.980 . S
C280 H254 0.983 . S
C280 C276 1.684 . S
H281 C299 0.948 . S
H282 C240 0.948 . S
H283 C258 0.979 . S
H284 C258 0.980 . S
H285 C258 0.983 . S
H286 C257 0.982 . S
H287 C257 0.979 . S
H288 C257 0.977 . S
H289 C259 0.948 . S
H290 C261 0.947 . S
H291 C262 0.948 . S
H292 C268 0.982 . S
H293 C268 0.979 . S
H294 C268 0.977 . S
H295 C269 0.979 . S
H296 C269 0.980 . S
H297 C269 0.983 . S
H298 C242 0.947 . S
C299 C242 1.392 . S
C299 C243 1.419 . S
C299 H281 0.948 . S
C300 C301 1.391 1_455 S
C300 C304 1.391 . S
C300 H342 0.948 . S
C301 C300 1.391 1_655 S
C301 C302 1.391 . S
C302 C301 1.391 . S
C302 H358 0.947 . S
C302 C359 1.392 1_655 S
C303 C304 1.391 . S
C303 C307 1.397 . S
C303 C359 1.419 . S
C304 C300 1.391 . S
C304 C303 1.391 . S
C304 C305 1.399 . S
C305 C304 1.399 . S
C305 C308 1.396 . S
C305 C317 1.453 . S
C305 C318 1.684 . S
H306 C330 0.948 . S
C307 C303 1.397 . S
C307 C308 1.394 . S
C307 C326 1.723 . S
C308 C305 1.396 . S
C308 C307 1.394 . S
C308 C338 1.723 . S
H309 C332 0.947 . S
H310 C333 0.948 . S
H311 C339 0.982 . S
H312 C340 0.979 . S
H313 C340 0.980 . S
H314 C340 0.983 1_545 S
H315 C339 0.979 . S
H316 C339 0.977 . S
C317 C305 1.453 . S
C317 H346 0.982 . S
C317 H347 0.979 . S
C317 H348 0.977 . S
C318 C305 1.684 . S
C318 H343 0.979 . S
C318 H344 0.980 . S
C318 H345 0.983 . S
C319 C320 1.391 . S
C319 C324 1.391 . S
C319 H349 0.948 . S
C320 C319 1.391 . S
C320 C321 1.391 . S
C321 C320 1.391 . S
C321 C322 1.392 . S
C321 H350 0.947 . S
C322 C321 1.392 . S
C322 C323 1.419 . S
C322 H351 0.948 . S
C323 C322 1.419 . S
C323 C324 1.391 . S
C323 C327 1.397 . S
C324 C319 1.391 . S
C324 C323 1.391 . S
C324 C325 1.399 . S
C325 C324 1.399 . S
C325 C326 1.396 . S
C325 C328 1.453 . S
C325 C329 1.684 . S
C326 C307 1.723 . S
C326 C325 1.396 . S
C326 C327 1.394 . S
C327 C323 1.397 . S
C327 C326 1.394 . S
C327 C337 1.723 . S
C328 C325 1.453 . S
C328 H352 0.982 . S
C328 H353 0.979 . S
C328 H354 0.977 . S
C329 C325 1.684 . S
C329 H355 0.979 . S
C329 H356 0.980 . S
C329 H357 0.983 . S
C330 H306 0.948 . S
C330 C331 1.391 . S
C330 C335 1.391 1_545 S
C331 C330 1.391 . S
C331 C332 1.391 1_545 S
C332 H309 0.947 . S
C332 C331 1.391 1_565 S
C332 C333 1.392 . S
C333 H310 0.948 . S
C333 C332 1.392 . S
C333 C334 1.419 . S
C334 C333 1.419 . S
C334 C335 1.391 . S
C334 C338 1.397 . S
C335 C330 1.391 1_565 S
C335 C334 1.391 . S
C335 C336 1.399 . S
C336 C335 1.399 . S
C336 C337 1.396 . S
C336 C339 1.453 . S
C336 C340 1.684 . S
C337 C327 1.723 . S
C337 C336 1.396 . S
C337 C338 1.394 . S
C338 C308 1.723 . S
C338 C334 1.397 . S
C338 C337 1.394 . S
C339 H311 0.982 . S
C339 H315 0.979 . S
C339 H316 0.977 . S
C339 C336 1.453 . S
C340 H312 0.979 . S
C340 H313 0.980 . S
C340 H314 0.983 1_565 S
C340 C336 1.684 . S
H341 C359 0.948 . S
H342 C300 0.948 . S
H343 C318 0.979 . S
H344 C318 0.980 . S
H345 C318 0.983 . S
H346 C317 0.982 . S
H347 C317 0.979 . S
H348 C317 0.977 . S
H349 C319 0.948 . S
H350 C321 0.947 . S
H351 C322 0.948 . S
H352 C328 0.982 . S
H353 C328 0.979 . S
H354 C328 0.977 . S
H355 C329 0.979 . S
H356 C329 0.980 . S
H357 C329 0.983 . S
H358 C302 0.947 . S
C359 C302 1.392 1_455 S
C359 C303 1.419 . S
C359 H341 0.948 . S
C360 C361 1.391 . S
C360 C364 1.391 . S
C360 H402 0.948 . S
C361 C360 1.391 . S
C361 C362 1.391 . S
C362 C361 1.391 . S
C362 H418 0.947 . S
C362 C419 1.392 . S
C363 C364 1.391 . S
C363 C367 1.397 . S
C363 C419 1.419 . S
C364 C360 1.391 . S
C364 C363 1.391 . S
C364 C365 1.399 . S
C365 C364 1.399 . S
C365 C368 1.396 . S
C365 C377 1.453 . S
C365 C378 1.684 . S
H366 C390 0.948 . S
C367 C363 1.397 . S
C367 C368 1.394 . S
C367 C386 1.723 . S
C368 C365 1.396 . S
C368 C367 1.394 . S
C368 C398 1.723 . S
H369 C392 0.947 . S
H370 C393 0.948 . S
H371 C399 0.974 1_455 S
H372 C400 0.979 . S
H373 C400 0.980 . S
H374 C400 0.983 . S
H375 C399 0.972 . S
H376 C399 0.979 1_455 S
C377 C365 1.453 . S
C377 H406 0.982 . S
C377 H407 0.979 . S
C377 H408 0.977 . S
C378 C365 1.684 . S
C378 H403 0.979 . S
C378 H404 0.980 . S
C378 H405 0.983 . S
C379 C380 1.391 1_655 S
C379 C384 1.391 . S
C379 H409 0.951 1_655 S
C380 C379 1.391 1_455 S
C380 C381 1.391 1_455 S
C381 C380 1.391 1_655 S
C381 C382 1.392 . S
C381 H410 0.947 1_655 S
C382 C381 1.392 . S
C382 C383 1.419 . S
C382 H411 0.948 . S
C383 C382 1.419 . S
C383 C384 1.391 . S
C383 C387 1.397 . S
C384 C379 1.391 . S
C384 C383 1.391 . S
C384 C385 1.399 . S
C385 C384 1.399 . S
C385 C386 1.396 . S
C385 C388 1.453 1_655 S
C385 C389 1.684 . S
C386 C367 1.723 . S
C386 C385 1.396 . S
C386 C387 1.394 . S
C387 C383 1.397 . S
C387 C386 1.394 . S
C387 C397 1.723 . S
C388 C385 1.453 1_455 S
C388 H412 0.982 . S
C388 H413 0.979 . S
C388 H414 0.977 . S
C389 C385 1.684 . S
C389 H415 0.979 . S
C389 H416 0.980 . S
C389 H417 0.983 . S
C390 H366 0.948 . S
C390 C391 1.391 . S
C390 C395 1.391 . S
C391 C390 1.391 . S
C391 C392 1.391 . S
C392 H369 0.947 . S
C392 C391 1.391 . S
C392 C393 1.392 . S
C393 H370 0.948 . S
C393 C392 1.392 . S
C393 C394 1.419 . S
C394 C393 1.419 . S
C394 C395 1.391 . S
C394 C398 1.397 . S
C395 C390 1.391 . S
C395 C394 1.391 . S
C395 C396 1.399 . S
C396 C395 1.399 . S
C396 C397 1.396 . S
C396 C399 1.467 . S
C396 C400 1.684 . S
C397 C387 1.723 . S
C397 C396 1.396 . S
C397 C398 1.394 . S
C398 C368 1.723 . S
C398 C394 1.397 . S
C398 C397 1.394 . S
C399 H371 0.974 1_655 S
C399 H375 0.972 . S
C399 H376 0.979 1_655 S
C399 C396 1.467 . S
C400 H372 0.979 . S
C400 H373 0.980 . S
C400 H374 0.983 . S
C400 C396 1.684 . S
H401 C419 0.948 . S
H402 C360 0.948 . S
H403 C378 0.979 . S
H404 C378 0.980 . S
H405 C378 0.983 . S
H406 C377 0.982 . S
H407 C377 0.979 . S
H408 C377 0.977 . S
H409 C379 0.951 1_455 S
H410 C381 0.947 1_455 S
H411 C382 0.948 . S
H412 C388 0.982 . S
H413 C388 0.979 . S
H414 C388 0.977 . S
H415 C389 0.979 . S
H416 C389 0.980 . S
H417 C389 0.983 . S
H418 C362 0.947 . S
C419 C362 1.392 . S
C419 C363 1.419 . S
C419 H401 0.948 . S
C420 C421 1.391 . S
C420 C424 1.391 . S
C420 H462 0.948 . S
C421 C420 1.391 . S
C421 C422 1.391 . S
C422 C421 1.391 . S
C422 H478 0.947 . S
C422 C479 1.392 . S
C423 C424 1.391 . S
C423 C427 1.397 . S
C423 C479 1.419 . S
C424 C420 1.391 . S
C424 C423 1.391 . S
C424 C425 1.399 . S
C425 C424 1.399 . S
C425 C428 1.396 . S
C425 C437 1.453 . S
C425 C438 1.684 . S
H426 C450 0.948 . S
C427 C423 1.397 . S
C427 C428 1.394 . S
C427 C446 1.723 . S
C428 C425 1.396 . S
C428 C427 1.394 . S
C428 C458 1.723 . S
H429 C452 0.947 . S
H430 C453 0.948 . S
H431 C459 0.982 . S
H432 C460 0.979 . S
H433 C460 0.980 . S
H434 C460 0.983 . S
H435 C459 0.979 . S
H436 C459 0.977 . S
C437 C425 1.453 . S
C437 H466 0.982 . S
C437 H467 0.979 . S
C437 H468 0.977 . S
C438 C425 1.684 . S
C438 H463 0.979 . S
C438 H464 0.980 . S
C438 H465 0.983 . S
C439 C440 1.391 . S
C439 C444 1.391 . S
C439 H469 0.948 . S
C440 C439 1.391 . S
C440 C441 1.391 . S
C441 C440 1.391 . S
C441 C442 1.392 . S
C441 H470 0.947 . S
C442 C441 1.392 . S
C442 C443 1.419 . S
C442 H471 0.948 . S
C443 C442 1.419 . S
C443 C444 1.391 . S
C443 C447 1.397 . S
C444 C439 1.391 . S
C444 C443 1.391 . S
C444 C445 1.399 . S
C445 C444 1.399 . S
C445 C446 1.396 . S
C445 C448 1.453 . S
C445 C449 1.684 . S
C446 C427 1.723 . S
C446 C445 1.396 . S
C446 C447 1.394 . S
C447 C443 1.397 . S
C447 C446 1.394 . S
C447 C457 1.723 . S
C448 C445 1.453 . S
C448 H472 0.982 . S
C448 H473 0.979 . S
C448 H474 0.977 . S
C449 C445 1.684 . S
C449 H475 0.979 . S
C449 H476 0.980 . S
C449 H477 0.983 . S
C450 H426 0.948 . S
C450 C451 1.391 . S
C450 C455 1.391 . S
C451 C450 1.391 . S
C451 C452 1.391 . S
C452 H429 0.947 . S
C452 C451 1.391 . S
C452 C453 1.392 . S
C453 H430 0.948 . S
C453 C452 1.392 . S
C453 C454 1.419 . S
C454 C453 1.419 . S
C454 C455 1.391 . S
C454 C458 1.397 . S
C455 C450 1.391 . S
C455 C454 1.391 . S
C455 C456 1.399 . S
C456 C455 1.399 . S
C456 C457 1.396 . S
C456 C459 1.453 . S
C456 C460 1.684 . S
C457 C447 1.723 . S
C457 C456 1.396 . S
C457 C458 1.394 . S
C458 C428 1.723 . S
C458 C454 1.397 . S
C458 C457 1.394 . S
C459 H431 0.982 . S
C459 H435 0.979 . S
C459 H436 0.977 . S
C459 C456 1.453 . S
C460 H432 0.979 . S
C460 H433 0.980 . S
C460 H434 0.983 . S
C460 C456 1.684 . S
H461 C479 0.948 . S
H462 C420 0.948 . S
H463 C438 0.979 . S
H464 C438 0.980 . S
H465 C438 0.983 . S
H466 C437 0.982 . S
H467 C437 0.979 . S
H468 C437 0.977 . S
H469 C439 0.948 . S
H470 C441 0.947 . S
H471 C442 0.948 . S
H472 C448 0.982 . S
H473 C448 0.979 . S
H474 C448 0.977 . S
H475 C449 0.979 . S
H476 C449 0.980 . S
H477 C449 0.983 . S
H478 C422 0.947 . S
C479 C422 1.392 . S
C479 C423 1.419 . S
C479 H461 0.948 . S
C480 C481 1.391 . S
C480 C484 1.391 . S
C480 H522 0.948 . S
C481 C480 1.391 . S
C481 C482 1.391 . S
C482 C481 1.391 . S
C482 H538 0.947 . S
C482 C539 1.392 . S
C483 C484 1.391 . S
C483 C487 1.397 . S
C483 C539 1.419 . S
C484 C480 1.391 . S
C484 C483 1.391 . S
C484 C485 1.399 . S
C485 C484 1.399 . S
C485 C488 1.396 . S
C485 C497 1.453 . S
C485 C498 1.684 . S
H486 C510 0.948 . S
C487 C483 1.397 . S
C487 C488 1.394 . S
C487 C506 1.723 . S
C488 C485 1.396 . S
C488 C487 1.394 . S
C488 C518 1.723 . S
H489 C512 0.947 . S
H490 C513 0.948 . S
H491 C519 0.982 1_565 S
H492 C520 0.979 . S
H493 C520 0.980 . S
H494 C520 0.983 . S
H495 C519 0.979 . S
H496 C519 0.977 . S
C497 C485 1.453 . S
C497 H526 0.982 . S
C497 H527 0.979 . S
C497 H528 0.977 . S
C498 C485 1.684 . S
C498 H523 0.979 . S
C498 H524 0.980 . S
C498 H525 0.983 . S
C499 C500 1.391 . S
C499 C504 1.391 . S
C499 H529 0.948 . S
C500 C499 1.391 . S
C500 C501 1.391 . S
C501 C500 1.391 . S
C501 C502 1.392 . S
C501 H530 0.947 . S
C502 C501 1.392 . S
C502 C503 1.419 . S
C502 H531 0.948 . S
C503 C502 1.419 . S
C503 C504 1.391 . S
C503 C507 1.397 . S
C504 C499 1.391 . S
C504 C503 1.391 . S
C504 C505 1.399 . S
C505 C504 1.399 . S
C505 C506 1.396 . S
C505 C508 1.453 . S
C505 C509 1.684 . S
C506 C487 1.723 . S
C506 C505 1.396 . S
C506 C507 1.394 . S
C507 C503 1.397 . S
C507 C506 1.394 . S
C507 C517 1.723 . S
C508 C505 1.453 . S
C508 H532 0.982 1_545 S
C508 H533 0.979 . S
C508 H534 0.977 . S
C509 C505 1.684 . S
C509 H535 0.979 . S
C509 H536 0.980 . S
C509 H537 0.983 . S
C510 H486 0.948 . S
C510 C511 1.391 . S
C510 C515 1.391 . S
C511 C510 1.391 . S
C511 C512 1.391 . S
C512 H489 0.947 . S
C512 C511 1.391 . S
C512 C513 1.392 . S
C513 H490 0.948 . S
C513 C512 1.392 . S
C513 C514 1.419 . S
C514 C513 1.419 . S
C514 C515 1.391 . S
C514 C518 1.397 . S
C515 C510 1.391 . S
C515 C514 1.391 . S
C515 C516 1.399 . S
C516 C515 1.399 . S
C516 C517 1.396 . S
C516 C519 1.453 . S
C516 C520 1.684 . S
C517 C507 1.723 . S
C517 C516 1.396 . S
C517 C518 1.394 . S
C518 C488 1.723 . S
C518 C514 1.397 . S
C518 C517 1.394 . S
C519 H491 0.982 1_545 S
C519 H495 0.979 . S
C519 H496 0.977 . S
C519 C516 1.453 . S
C520 H492 0.979 . S
C520 H493 0.980 . S
C520 H494 0.983 . S
C520 C516 1.684 . S
H521 C539 0.948 . S
H522 C480 0.948 . S
H523 C498 0.979 . S
H524 C498 0.980 . S
H525 C498 0.983 . S
H526 C497 0.982 . S
H527 C497 0.979 . S
H528 C497 0.977 . S
H529 C499 0.948 . S
H530 C501 0.947 . S
H531 C502 0.948 . S
H532 C508 0.982 1_565 S
H533 C508 0.979 . S
H534 C508 0.977 . S
H535 C509 0.979 . S
H536 C509 0.980 . S
H537 C509 0.983 . S
H538 C482 0.947 . S
C539 C482 1.392 . S
C539 C483 1.419 . S
C539 H521 0.948 . S
C540 C541 1.391 . S
C540 C544 1.391 . S
C540 H582 0.976 . S
C541 C540 1.391 . S
C541 C542 1.391 . S
C542 C541 1.391 . S
C542 H598 0.947 . S
C542 C599 1.392 . S
C543 C544 1.391 . S
C543 C547 1.397 . S
C543 C599 1.419 . S
C544 C540 1.391 . S
C544 C543 1.391 . S
C544 C545 1.399 . S
C545 C544 1.399 . S
C545 C548 1.396 . S
C545 C557 1.453 . S
C545 C558 1.684 . S
H546 C570 0.948 . S
C547 C543 1.397 . S
C547 C548 1.394 . S
C547 C566 1.723 . S
C548 C545 1.396 . S
C548 C547 1.394 . S
C548 C578 1.723 . S
H549 C572 0.947 1_554 S
H550 C573 0.948 . S
H551 C579 0.982 . S
H552 C580 0.979 . S
H553 C580 0.980 . S
H554 C580 0.983 . S
H555 C579 0.979 . S
H556 C579 0.977 . S
C557 C545 1.453 . S
C557 H586 0.982 . S
C557 H587 0.979 1_556 S
C557 H588 0.977 . S
C558 C545 1.684 . S
C558 H583 0.979 . S
C558 H584 0.980 . S
C558 H585 0.983 1_556 S
C559 C560 1.391 . S
C559 C564 1.391 . S
C559 H589 0.948 . S
C560 C559 1.391 . S
C560 C561 1.391 . S
C561 C560 1.391 . S
C561 C562 1.392 . S
C561 H590 0.947 . S
C562 C561 1.392 . S
C562 C563 1.419 . S
C562 H591 0.948 . S
C563 C562 1.419 . S
C563 C564 1.391 . S
C563 C567 1.397 . S
C564 C559 1.391 . S
C564 C563 1.391 . S
C564 C565 1.399 . S
C565 C564 1.399 . S
C565 C566 1.396 . S
C565 C568 1.453 . S
C565 C569 1.684 . S
C566 C547 1.723 . S
C566 C565 1.396 . S
C566 C567 1.394 . S
C567 C563 1.397 . S
C567 C566 1.394 . S
C567 C577 1.723 . S
C568 C565 1.453 . S
C568 H592 0.982 . S
C568 H593 0.979 . S
C568 H594 0.977 . S
C569 C565 1.684 . S
C569 H595 0.979 . S
C569 H596 0.980 . S
C569 H597 0.983 . S
C570 H546 0.948 . S
C570 C571 1.391 . S
C570 C575 1.391 . S
C571 C570 1.391 . S
C571 C572 1.391 . S
C572 H549 0.947 1_556 S
C572 C571 1.391 . S
C572 C573 1.392 . S
C573 H550 0.948 . S
C573 C572 1.392 . S
C573 C574 1.419 . S
C574 C573 1.419 . S
C574 C575 1.391 . S
C574 C578 1.397 . S
C575 C570 1.391 . S
C575 C574 1.391 . S
C575 C576 1.399 . S
C576 C575 1.399 . S
C576 C577 1.396 . S
C576 C579 1.453 . S
C576 C580 1.684 . S
C577 C567 1.723 . S
C577 C576 1.396 . S
C577 C578 1.394 . S
C578 C548 1.723 . S
C578 C574 1.397 . S
C578 C577 1.394 . S
C579 H551 0.982 . S
C579 H555 0.979 . S
C579 H556 0.977 . S
C579 C576 1.453 . S
C580 H552 0.979 . S
C580 H553 0.980 . S
C580 H554 0.983 . S
C580 C576 1.684 . S
H581 C599 0.948 . S
H582 C540 0.976 . S
H583 C558 0.979 . S
H584 C558 0.980 . S
H585 C558 0.983 1_554 S
H586 C557 0.982 . S
H587 C557 0.979 1_554 S
H588 C557 0.977 . S
H589 C559 0.948 . S
H590 C561 0.947 . S
H591 C562 0.948 . S
H592 C568 0.982 . S
H593 C568 0.979 . S
H594 C568 0.977 . S
H595 C569 0.979 . S
H596 C569 0.980 . S
H597 C569 0.983 . S
H598 C542 0.947 . S
C599 C542 1.392 . S
C599 C543 1.419 . S
C599 H581 0.948 . S
C600 C601 1.393 . S
C600 C604 1.394 . S
C600 H642 0.943 1_556 S
C601 C600 1.393 . S
C601 C602 1.391 . S
C602 C601 1.391 . S
C602 H658 0.947 1_545 S
C602 C659 1.392 . S
C603 C604 1.391 . S
C603 C607 1.397 . S
C603 C659 1.419 . S
C604 C600 1.394 . S
C604 C603 1.391 . S
C604 C605 1.399 . S
C605 C604 1.399 . S
C605 C608 1.396 . S
C605 C617 1.453 1_556 S
C605 C618 1.684 1_556 S
H606 C630 0.948 . S
C607 C603 1.397 . S
C607 C608 1.394 . S
C607 C626 1.723 . S
C608 C605 1.396 . S
C608 C607 1.394 . S
C608 C638 1.723 . S
H609 C632 0.947 . S
H610 C633 0.948 . S
H611 C639 0.982 . S
H612 C640 0.979 . S
H613 C640 0.980 . S
H614 C640 0.983 . S
H615 C639 0.979 . S
H616 C639 0.977 . S
C617 C605 1.453 1_554 S
C617 H646 0.982 1_554 S
C617 H647 0.979 . S
C617 H648 0.977 . S
C618 C605 1.684 1_554 S
C618 H643 0.979 . S
C618 H644 0.980 . S
C618 H645 0.983 . S
C619 C620 1.391 . S
C619 C624 1.391 . S
C619 H649 0.948 . S
C620 C619 1.391 . S
C620 C621 1.391 . S
C621 C620 1.391 . S
C621 C622 1.392 . S
C621 H650 0.947 . S
C622 C621 1.392 . S
C622 C623 1.419 . S
C622 H651 0.948 . S
C623 C622 1.419 . S
C623 C624 1.391 . S
C623 C627 1.397 . S
C624 C619 1.391 . S
C624 C623 1.391 . S
C624 C625 1.399 . S
C625 C624 1.399 . S
C625 C626 1.396 . S
C625 C628 1.453 . S
C625 C629 1.684 . S
C626 C607 1.723 . S
C626 C625 1.396 . S
C626 C627 1.394 . S
C627 C623 1.397 . S
C627 C626 1.394 . S
C627 C637 1.723 . S
C628 C625 1.453 . S
C628 H652 0.982 . S
C628 H653 0.979 . S
C628 H654 0.977 . S
C629 C625 1.684 . S
C629 H655 0.979 . S
C629 H656 0.980 . S
C629 H657 0.983 . S
C630 H606 0.948 . S
C630 C631 1.391 1_556 S
C630 C635 1.391 . S
C631 C630 1.391 1_554 S
C631 C632 1.391 . S
C632 H609 0.947 . S
C632 C631 1.391 . S
C632 C633 1.392 . S
C633 H610 0.948 . S
C633 C632 1.392 . S
C633 C634 1.419 1_554 S
C634 C633 1.419 1_556 S
C634 C635 1.391 . S
C634 C638 1.397 . S
C635 C630 1.391 . S
C635 C634 1.391 . S
C635 C636 1.399 . S
C636 C635 1.399 . S
C636 C637 1.396 . S
C636 C639 1.453 . S
C636 C640 1.684 . S
C637 C627 1.723 . S
C637 C636 1.396 . S
C637 C638 1.394 . S
C638 C608 1.723 . S
C638 C634 1.397 . S
C638 C637 1.394 . S
C639 H611 0.982 . S
C639 H615 0.979 . S
C639 H616 0.977 . S
C639 C636 1.453 . S
C640 H612 0.979 . S
C640 H613 0.980 . S
C640 H614 0.983 . S
C640 C636 1.684 . S
H641 C659 0.948 . S
H642 C600 0.943 1_554 S
H643 C618 0.979 . S
H644 C618 0.980 . S
H645 C618 0.983 . S
H646 C617 0.982 1_556 S
H647 C617 0.979 . S
H648 C617 0.977 . S
H649 C619 0.948 . S
H650 C621 0.947 . S
H651 C622 0.948 . S
H652 C628 0.982 . S
H653 C628 0.979 . S
H654 C628 0.977 . S
H655 C629 0.979 . S
H656 C629 0.980 . S
H657 C629 0.983 . S
H658 C602 0.947 1_565 S
C659 C602 1.392 . S
C659 C603 1.419 . S
C659 H641 0.948 . S
C660 C661 1.391 . S
C660 C664 1.391 . S
C660 H702 0.948 1_556 S
C661 C660 1.391 . S
C661 C662 1.391 . S
C662 C661 1.391 . S
C662 H718 0.947 . S
C662 C719 1.392 . S
C663 C664 1.391 . S
C663 C667 1.397 . S
C663 C719 1.419 . S
C664 C660 1.391 . S
C664 C663 1.391 . S
C664 C665 1.399 . S
C665 C664 1.399 . S
C665 C668 1.396 . S
C665 C677 1.453 1_556 S
C665 C678 1.684 1_556 S
H666 C690 0.948 . S
C667 C663 1.397 . S
C667 C668 1.394 . S
C667 C686 1.723 . S
C668 C665 1.396 . S
C668 C667 1.394 . S
C668 C698 1.723 . S
H669 C692 0.947 . S
H670 C693 0.948 1_554 S
H671 C699 0.982 . S
H672 C700 0.979 . S
H673 C700 0.980 . S
H674 C700 0.983 . S
H675 C699 0.979 . S
H676 C699 0.977 . S
C677 C665 1.453 1_554 S
C677 H706 0.976 1_554 S
C677 H707 0.979 . S
C677 H708 0.977 . S
C678 C665 1.684 1_554 S
C678 H703 0.979 1_554 S
C678 H704 0.980 . S
C678 H705 0.983 . S
C679 C680 1.391 . S
C679 C684 1.391 . S
C679 H709 0.948 . S
C680 C679 1.391 . S
C680 C681 1.391 . S
C681 C680 1.391 . S
C681 C682 1.392 . S
C681 H710 0.947 . S
C682 C681 1.392 . S
C682 C683 1.419 . S
C682 H711 0.948 . S
C683 C682 1.419 . S
C683 C684 1.391 . S
C683 C687 1.397 . S
C684 C679 1.391 . S
C684 C683 1.391 . S
C684 C685 1.399 . S
C685 C684 1.399 . S
C685 C686 1.396 . S
C685 C688 1.453 . S
C685 C689 1.684 . S
C686 C667 1.723 . S
C686 C685 1.396 . S
C686 C687 1.394 . S
C687 C683 1.397 . S
C687 C686 1.394 . S
C687 C697 1.723 . S
C688 C685 1.453 . S
C688 H712 0.982 . S
C688 H713 0.979 . S
C688 H714 0.977 . S
C689 C685 1.684 . S
C689 H715 0.979 . S
C689 H716 0.980 . S
C689 H717 0.983 . S
C690 H666 0.948 . S
C690 C691 1.391 . S
C690 C695 1.391 . S
C691 C690 1.391 . S
C691 C692 1.391 1_556 S
C692 H669 0.947 . S
C692 C691 1.391 1_554 S
C692 C693 1.392 1_554 S
C693 H670 0.948 1_556 S
C693 C692 1.392 1_556 S
C693 C694 1.419 . S
C694 C693 1.419 . S
C694 C695 1.391 . S
C694 C698 1.397 . S
C695 C690 1.391 . S
C695 C694 1.391 . S
C695 C696 1.399 . S
C696 C695 1.399 . S
C696 C697 1.396 . S
C696 C699 1.453 . S
C696 C700 1.684 . S
C697 C687 1.723 . S
C697 C696 1.396 . S
C697 C698 1.394 . S
C698 C668 1.723 . S
C698 C694 1.397 . S
C698 C697 1.394 . S
C699 H671 0.982 . S
C699 H675 0.979 . S
C699 H676 0.977 . S
C699 C696 1.453 . S
C700 H672 0.979 . S
C700 H673 0.980 . S
C700 H674 0.983 . S
C700 C696 1.684 . S
H701 C719 0.948 . S
H702 C660 0.948 1_554 S
H703 C678 0.979 1_556 S
H704 C678 0.980 . S
H705 C678 0.983 . S
H706 C677 0.976 1_556 S
H707 C677 0.979 . S
H708 C677 0.977 . S
H709 C679 0.948 . S
H710 C681 0.947 . S
H711 C682 0.948 . S
H712 C688 0.982 . S
H713 C688 0.979 . S
H714 C688 0.977 . S
H715 C689 0.979 . S
H716 C689 0.980 . S
H717 C689 0.983 . S
H718 C662 0.947 . S
C719 C662 1.392 . S
C719 C663 1.419 . S
C719 H701 0.948 . S
C720 C721 1.391 . S
C720 C724 1.391 . S
C720 H762 0.948 1_554 S
C721 C720 1.391 . S
C721 C722 1.391 . S
C722 C721 1.391 . S
C722 H778 0.947 1_565 S
C722 C779 1.392 . S
C723 C724 1.391 . S
C723 C727 1.397 . S
C723 C779 1.419 . S
C724 C720 1.391 . S
C724 C723 1.391 . S
C724 C725 1.399 . S
C725 C724 1.399 . S
C725 C728 1.396 . S
C725 C737 1.453 1_554 S
C725 C738 1.684 1_554 S
H726 C750 0.948 . S
C727 C723 1.397 . S
C727 C728 1.394 . S
C727 C746 1.723 . S
C728 C725 1.396 . S
C728 C727 1.394 . S
C728 C758 1.723 . S
H729 C752 0.947 . S
H730 C753 0.948 . S
H731 C759 0.982 . S
H732 C760 0.979 . S
H733 C760 0.980 . S
H734 C760 0.983 . S
H735 C759 0.979 . S
H736 C759 0.977 . S
C737 C725 1.453 1_556 S
C737 H766 0.982 . S
C737 H767 0.979 . S
C737 H768 0.977 . S
C738 C725 1.684 1_556 S
C738 H763 0.979 . S
C738 H764 0.980 . S
C738 H765 0.983 . S
C739 C740 1.391 . S
C739 C744 1.391 . S
C739 H769 0.948 . S
C740 C739 1.391 . S
C740 C741 1.391 . S
C741 C740 1.391 . S
C741 C742 1.392 . S
C741 H770 0.947 . S
C742 C741 1.392 . S
C742 C743 1.419 . S
C742 H771 0.948 . S
C743 C742 1.419 . S
C743 C744 1.391 . S
C743 C747 1.397 . S
C744 C739 1.391 . S
C744 C743 1.391 . S
C744 C745 1.399 . S
C745 C744 1.399 . S
C745 C746 1.396 . S
C745 C748 1.453 . S
C745 C749 1.684 . S
C746 C727 1.723 . S
C746 C745 1.396 . S
C746 C747 1.394 . S
C747 C743 1.397 . S
C747 C746 1.394 . S
C747 C757 1.723 . S
C748 C745 1.453 . S
C748 H772 0.982 . S
C748 H773 0.979 . S
C748 H774 0.977 . S
C749 C745 1.684 . S
C749 H775 0.979 . S
C749 H776 0.980 . S
C749 H777 0.983 . S
C750 H726 0.948 . S
C750 C751 1.383 1_554 S
C750 C755 1.391 . S
C751 C750 1.383 1_556 S
C751 C752 1.396 . S
C752 H729 0.947 . S
C752 C751 1.396 . S
C752 C753 1.392 . S
C753 H730 0.948 . S
C753 C752 1.392 . S
C753 C754 1.419 1_556 S
C754 C753 1.419 1_554 S
C754 C755 1.391 . S
C754 C758 1.397 . S
C755 C750 1.391 . S
C755 C754 1.391 . S
C755 C756 1.399 . S
C756 C755 1.399 . S
C756 C757 1.396 . S
C756 C759 1.453 . S
C756 C760 1.684 . S
C757 C747 1.723 . S
C757 C756 1.396 . S
C757 C758 1.394 . S
C758 C728 1.723 . S
C758 C754 1.397 . S
C758 C757 1.394 . S
C759 H731 0.982 . S
C759 H735 0.979 . S
C759 H736 0.977 . S
C759 C756 1.453 . S
C760 H732 0.979 . S
C760 H733 0.980 . S
C760 H734 0.983 . S
C760 C756 1.684 . S
H761 C779 0.948 . S
H762 C720 0.948 1_556 S
H763 C738 0.979 . S
H764 C738 0.980 . S
H765 C738 0.983 . S
H766 C737 0.982 . S
H767 C737 0.979 . S
H768 C737 0.977 . S
H769 C739 0.948 . S
H770 C741 0.947 . S
H771 C742 0.948 . S
H772 C748 0.982 . S
H773 C748 0.979 . S
H774 C748 0.977 . S
H775 C749 0.979 . S
H776 C749 0.980 . S
H777 C749 0.983 . S
H778 C722 0.947 1_545 S
C779 C722 1.392 . S
C779 C723 1.419 . S
C779 H761 0.948 . S
C780 C781 1.391 . S
C780 C784 1.391 . S
C780 H822 0.948 1_554 S
C781 C780 1.391 . S
C781 C782 1.391 . S
C782 C781 1.391 . S
C782 H838 0.958 . S
C782 C839 1.392 . S
C783 C784 1.391 . S
C783 C787 1.397 . S
C783 C839 1.419 . S
C784 C780 1.391 . S
C784 C783 1.391 . S
C784 C785 1.399 . S
C785 C784 1.399 . S
C785 C788 1.396 . S
C785 C797 1.453 . S
C785 C798 1.684 1_554 S
H786 C810 0.948 . S
C787 C783 1.397 . S
C787 C788 1.394 . S
C787 C806 1.723 . S
C788 C785 1.396 . S
C788 C787 1.394 . S
C788 C818 1.723 . S
H789 C812 0.947 . S
H790 C813 0.948 1_556 S
H791 C819 0.982 . S
H792 C820 0.979 . S
H793 C820 0.980 . S
H794 C820 0.983 . S
H795 C819 0.979 . S
H796 C819 0.977 . S
C797 C785 1.453 . S
C797 H826 0.982 . S
C797 H827 0.979 1_554 S
C797 H828 0.977 . S
C798 C785 1.684 1_556 S
C798 H823 0.979 . S
C798 H824 0.980 . S
C798 H825 0.983 . S
C799 C800 1.391 . S
C799 C804 1.391 . S
C799 H829 0.948 . S
C800 C799 1.391 . S
C800 C801 1.391 . S
C801 C800 1.391 . S
C801 C802 1.392 . S
C801 H830 0.947 . S
C802 C801 1.392 . S
C802 C803 1.419 . S
C802 H831 0.948 . S
C803 C802 1.419 . S
C803 C804 1.391 . S
C803 C807 1.397 . S
C804 C799 1.391 . S
C804 C803 1.391 . S
C804 C805 1.399 . S
C805 C804 1.399 . S
C805 C806 1.396 . S
C805 C808 1.453 . S
C805 C809 1.684 . S
C806 C787 1.723 . S
C806 C805 1.396 . S
C806 C807 1.394 . S
C807 C803 1.397 . S
C807 C806 1.394 . S
C807 C817 1.723 . S
C808 C805 1.453 . S
C808 H832 0.982 . S
C808 H833 0.979 . S
C808 H834 0.977 . S
C809 C805 1.684 . S
C809 H835 0.979 . S
C809 H836 0.980 . S
C809 H837 0.983 . S
C810 H786 0.948 . S
C810 C811 1.391 . S
C810 C815 1.391 . S
C811 C810 1.391 . S
C811 C812 1.391 1_554 S
C812 H789 0.947 . S
C812 C811 1.391 1_556 S
C812 C813 1.392 1_556 S
C813 H790 0.948 1_554 S
C813 C812 1.392 1_554 S
C813 C814 1.419 . S
C814 C813 1.419 . S
C814 C815 1.391 . S
C814 C818 1.397 . S
C815 C810 1.391 . S
C815 C814 1.391 . S
C815 C816 1.399 . S
C816 C815 1.399 . S
C816 C817 1.396 . S
C816 C819 1.453 . S
C816 C820 1.684 . S
C817 C807 1.723 . S
C817 C816 1.396 . S
C817 C818 1.394 . S
C818 C788 1.723 . S
C818 C814 1.397 . S
C818 C817 1.394 . S
C819 H791 0.982 . S
C819 H795 0.979 . S
C819 H796 0.977 . S
C819 C816 1.453 . S
C820 H792 0.979 . S
C820 H793 0.980 . S
C820 H794 0.983 . S
C820 C816 1.684 . S
H821 C839 0.948 . S
H822 C780 0.948 1_556 S
H823 C798 0.979 . S
H824 C798 0.980 . S
H825 C798 0.983 . S
H826 C797 0.982 . S
H827 C797 0.979 1_556 S
H828 C797 0.977 . S
H829 C799 0.948 . S
H830 C801 0.947 . S
H831 C802 0.948 . S
H832 C808 0.982 . S
H833 C808 0.979 . S
H834 C808 0.977 . S
H835 C809 0.979 . S
H836 C809 0.980 . S
H837 C809 0.983 . S
H838 C782 0.958 . S
C839 C782 1.392 . S
C839 C783 1.419 . S
C839 H821 0.948 . S
C840 C841 1.391 . S
C840 C844 1.391 . S
C840 H882 0.948 . S
C841 C840 1.391 . S
C841 C842 1.391 . S
C842 C841 1.391 . S
C842 H898 0.947 . S
C842 C899 1.392 . S
C843 C844 1.391 . S
C843 C847 1.397 . S
C843 C899 1.419 . S
C844 C840 1.391 . S
C844 C843 1.391 . S
C844 C845 1.399 . S
C845 C844 1.399 . S
C845 C848 1.396 . S
C845 C857 1.453 . S
C845 C858 1.684 . S
H846 C870 0.948 . S
C847 C843 1.397 . S
C847 C848 1.394 . S
C847 C866 1.723 . S
C848 C845 1.396 . S
C848 C847 1.394 . S
C848 C878 1.723 . S
H849 C872 0.947 1_556 S
H850 C873 0.948 . S
H851 C879 0.982 . S
H852 C880 0.979 . S
H853 C880 0.980 . S
H854 C880 0.983 . S
H855 C879 0.979 . S
H856 C879 0.977 . S
C857 C845 1.453 . S
C857 H886 0.982 . S
C857 H887 0.979 1_554 S
C857 H888 0.977 . S
C858 C845 1.684 . S
C858 H883 0.979 . S
C858 H884 0.980 . S
C858 H885 0.983 1_554 S
C859 C860 1.391 . S
C859 C864 1.391 . S
C859 H889 0.948 . S
C860 C859 1.391 . S
C860 C861 1.391 . S
C861 C860 1.391 . S
C861 C862 1.392 . S
C861 H890 0.947 . S
C862 C861 1.392 . S
C862 C863 1.419 . S
C862 H891 0.948 . S
C863 C862 1.419 . S
C863 C864 1.391 . S
C863 C867 1.397 . S
C864 C859 1.391 . S
C864 C863 1.391 . S
C864 C865 1.399 . S
C865 C864 1.399 . S
C865 C866 1.396 . S
C865 C868 1.453 . S
C865 C869 1.684 . S
C866 C847 1.723 . S
C866 C865 1.396 . S
C866 C867 1.394 . S
C867 C863 1.397 . S
C867 C866 1.394 . S
C867 C877 1.723 . S
C868 C865 1.453 . S
C868 H892 0.982 . S
C868 H893 0.979 . S
C868 H894 0.977 . S
C869 C865 1.684 . S
C869 H895 0.979 . S
C869 H896 0.980 . S
C869 H897 0.983 . S
C870 H846 0.948 . S
C870 C871 1.391 . S
C870 C875 1.391 . S
C871 C870 1.391 . S
C871 C872 1.391 . S
C872 H849 0.947 1_554 S
C872 C871 1.391 . S
C872 C873 1.392 . S
C873 H850 0.948 . S
C873 C872 1.392 . S
C873 C874 1.419 . S
C874 C873 1.419 . S
C874 C875 1.391 . S
C874 C878 1.397 . S
C875 C870 1.391 . S
C875 C874 1.391 . S
C875 C876 1.399 . S
C876 C875 1.399 . S
C876 C877 1.396 . S
C876 C879 1.453 . S
C876 C880 1.684 . S
C877 C867 1.723 . S
C877 C876 1.396 . S
C877 C878 1.394 . S
C878 C848 1.723 . S
C878 C874 1.397 . S
C878 C877 1.394 . S
C879 H851 0.982 . S
C879 H855 0.979 . S
C879 H856 0.977 . S
C879 C876 1.453 . S
C880 H852 0.979 . S
C880 H853 0.980 . S
C880 H854 0.983 . S
C880 C876 1.684 . S
H881 C899 0.948 . S
H882 C840 0.948 . S
H883 C858 0.979 . S
H884 C858 0.980 . S
H885 C858 0.983 1_556 S
H886 C857 0.982 . S
H887 C857 0.979 1_556 S
H888 C857 0.977 . S
H889 C859 0.948 . S
H890 C861 0.947 . S
H891 C862 0.948 . S
H892 C868 0.982 . S
H893 C868 0.979 . S
H894 C868 0.977 . S
H895 C869 0.979 . S
H896 C869 0.980 . S
H897 C869 0.983 . S
H898 C842 0.947 . S
C899 C842 1.392 . S
C899 C843 1.419 . S
C899 H881 0.948 . S
C900 C901 1.391 . S
C900 C904 1.391 . S
C900 H942 0.948 . S
C901 C900 1.391 . S
C901 C902 1.391 . S
C902 C901 1.391 . S
C902 H958 0.947 . S
C902 C959 1.392 . S
C903 C904 1.391 . S
C903 C907 1.397 . S
C903 C959 1.419 . S
C904 C900 1.391 . S
C904 C903 1.391 . S
C904 C905 1.399 . S
C905 C904 1.399 . S
C905 C908 1.396 . S
C905 C917 1.453 . S
C905 C918 1.684 . S
H906 C930 0.948 . S
C907 C903 1.397 . S
C907 C908 1.394 . S
C907 C926 1.723 . S
C908 C905 1.396 . S
C908 C907 1.394 . S
C908 C938 1.723 . S
H909 C932 0.947 . S
H910 C933 0.948 . S
H911 C939 0.982 1_545 S
H912 C940 0.979 . S
H913 C940 0.980 . S
H914 C940 0.983 . S
H915 C939 0.979 . S
H916 C939 0.977 . S
C917 C905 1.453 . S
C917 H946 0.982 . S
C917 H947 0.979 . S
C917 H948 0.977 . S
C918 C905 1.684 . S
C918 H943 0.979 . S
C918 H944 0.980 . S
C918 H945 0.983 . S
C919 C920 1.391 . S
C919 C924 1.391 . S
C919 H949 0.948 . S
C920 C919 1.391 . S
C920 C921 1.391 . S
C921 C920 1.391 . S
C921 C922 1.392 . S
C921 H950 0.947 . S
C922 C921 1.392 . S
C922 C923 1.419 . S
C922 H951 0.948 . S
C923 C922 1.419 . S
C923 C924 1.391 . S
C923 C927 1.397 . S
C924 C919 1.391 . S
C924 C923 1.391 . S
C924 C925 1.399 . S
C925 C924 1.399 . S
C925 C926 1.396 . S
C925 C928 1.453 . S
C925 C929 1.684 . S
C926 C907 1.723 . S
C926 C925 1.396 . S
C926 C927 1.394 . S
C927 C923 1.397 . S
C927 C926 1.394 . S
C927 C937 1.723 . S
C928 C925 1.453 . S
C928 H952 0.982 1_565 S
C928 H953 0.979 . S
C928 H954 0.977 . S
C929 C925 1.684 . S
C929 H955 0.979 . S
C929 H956 0.980 . S
C929 H957 0.983 . S
C930 H906 0.948 . S
C930 C931 1.391 . S
C930 C935 1.391 . S
C931 C930 1.391 . S
C931 C932 1.391 . S
C932 H909 0.947 . S
C932 C931 1.391 . S
C932 C933 1.392 . S
C933 H910 0.948 . S
C933 C932 1.392 . S
C933 C934 1.419 . S
C934 C933 1.419 . S
C934 C935 1.391 . S
C934 C938 1.397 . S
C935 C930 1.391 . S
C935 C934 1.391 . S
C935 C936 1.399 . S
C936 C935 1.399 . S
C936 C937 1.396 . S
C936 C939 1.453 . S
C936 C940 1.684 . S
C937 C927 1.723 . S
C937 C936 1.396 . S
C937 C938 1.394 . S
C938 C908 1.723 . S
C938 C934 1.397 . S
C938 C937 1.394 . S
C939 H911 0.982 1_565 S
C939 H915 0.979 . S
C939 H916 0.977 . S
C939 C936 1.453 . S
C940 H912 0.979 . S
C940 H913 0.980 . S
C940 H914 0.983 . S
C940 C936 1.684 . S
H941 C959 0.948 . S
H942 C900 0.948 . S
H943 C918 0.979 . S
H944 C918 0.980 . S
H945 C918 0.983 . S
H946 C917 0.982 . S
H947 C917 0.979 . S
H948 C917 0.977 . S
H949 C919 0.948 . S
H950 C921 0.947 . S
H951 C922 0.948 . S
H952 C928 0.982 1_545 S
H953 C928 0.979 . S
H954 C928 0.977 . S
H955 C929 0.979 . S
H956 C929 0.980 . S
H957 C929 0.983 . S
H958 C902 0.947 . S
C959 C902 1.392 . S
C959 C903 1.419 . S
C959 H941 0.948 . S
C960 C961 1.391 . S
C960 C964 1.391 . S
C960 H1002 0.948 . S
C961 C960 1.391 . S
C961 C962 1.391 . S
C962 C961 1.391 . S
C962 H1018 0.947 . S
C962 C1019 1.392 . S
C963 C964 1.391 . S
C963 C967 1.397 . S
C963 C1019 1.419 . S
C964 C960 1.391 . S
C964 C963 1.391 . S
C964 C965 1.399 . S
C965 C964 1.399 . S
C965 C968 1.396 . S
C965 C977 1.453 . S
C965 C978 1.684 . S
H966 C990 0.948 . S
C967 C963 1.397 . S
C967 C968 1.394 . S
C967 C986 1.723 . S
C968 C965 1.396 . S
C968 C967 1.394 . S
C968 C998 1.723 . S
H969 C992 0.947 . S
H970 C993 0.948 . S
H971 C999 0.982 . S
H972 C1000 0.979 . S
H973 C1000 0.980 . S
H974 C1000 0.983 . S
H975 C999 0.979 . S
H976 C999 0.977 . S
C977 C965 1.453 . S
C977 H1006 0.982 . S
C977 H1007 0.979 . S
C977 H1008 0.977 . S
C978 C965 1.684 . S
C978 H1003 0.979 . S
C978 H1004 0.980 . S
C978 H1005 0.983 . S
C979 C980 1.391 . S
C979 C984 1.391 1_655 S
C979 H1009 0.948 . S
C980 C979 1.391 . S
C980 C981 1.391 . S
C981 C980 1.391 . S
C981 C982 1.392 1_655 S
C981 H1010 0.947 . S
C982 C981 1.392 1_455 S
C982 C983 1.419 . S
C982 H1011 0.948 . S
C983 C982 1.419 . S
C983 C984 1.391 . S
C983 C987 1.397 . S
C984 C979 1.391 1_455 S
C984 C983 1.391 . S
C984 C985 1.399 . S
C985 C984 1.399 . S
C985 C986 1.396 . S
C985 C988 1.453 . S
C985 C989 1.684 1_455 S
C986 C967 1.723 . S
C986 C985 1.396 . S
C986 C987 1.394 . S
C987 C983 1.397 . S
C987 C986 1.394 . S
C987 C997 1.723 . S
C988 C985 1.453 . S
C988 H1012 0.982 . S
C988 H1013 0.979 . S
C988 H1014 0.977 . S
C989 C985 1.684 1_655 S
C989 H1015 0.979 . S
C989 H1016 0.980 . S
C989 H1017 0.983 . S
C990 H966 0.948 . S
C990 C991 1.391 . S
C990 C995 1.391 . S
C991 C990 1.391 . S
C991 C992 1.391 . S
C992 H969 0.947 . S
C992 C991 1.391 . S
C992 C993 1.392 . S
C993 H970 0.948 . S
C993 C992 1.392 . S
C993 C994 1.419 . S
C994 C993 1.419 . S
C994 C995 1.391 . S
C994 C998 1.397 . S
C995 C990 1.391 . S
C995 C994 1.391 . S
C995 C996 1.399 . S
C996 C995 1.399 . S
C996 C997 1.396 . S
C996 C999 1.453 . S
C996 C1000 1.684 1_455 S
C997 C987 1.723 . S
C997 C996 1.396 . S
C997 C998 1.394 . S
C998 C968 1.723 . S
C998 C994 1.397 . S
C998 C997 1.394 . S
C999 H971 0.982 . S
C999 H975 0.979 . S
C999 H976 0.977 . S
C999 C996 1.453 . S
C1000 H972 0.979 . S
C1000 H973 0.980 . S
C1000 H974 0.983 . S
C1000 C996 1.684 1_655 S
H1001 C1019 0.948 . S
H1002 C960 0.948 . S
H1003 C978 0.979 . S
H1004 C978 0.980 . S
H1005 C978 0.983 . S
H1006 C977 0.982 . S
H1007 C977 0.979 . S
H1008 C977 0.977 . S
H1009 C979 0.948 . S
H1010 C981 0.947 . S
H1011 C982 0.948 . S
H1012 C988 0.982 . S
H1013 C988 0.979 . S
H1014 C988 0.977 . S
H1015 C989 0.979 . S
H1016 C989 0.980 . S
H1017 C989 0.983 . S
H1018 C962 0.947 . S
C1019 C962 1.392 . S
C1019 C963 1.419 . S
C1019 H1001 0.948 . S
C1020 C1021 1.391 . S
C1020 C1024 1.391 . S
C1020 H1062 0.948 . S
C1021 C1020 1.391 . S
C1021 C1022 1.391 . S
C1022 C1021 1.391 . S
C1022 H1078 0.947 . S
C1022 C1079 1.392 . S
C1023 C1024 1.391 . S
C1023 C1027 1.397 . S
C1023 C1079 1.419 . S
C1024 C1020 1.391 . S
C1024 C1023 1.391 . S
C1024 C1025 1.399 . S
C1025 C1024 1.399 . S
C1025 C1028 1.396 . S
C1025 C1037 1.453 . S
C1025 C1038 1.684 . S
H1026 C1050 0.948 . S
C1027 C1023 1.397 . S
C1027 C1028 1.394 . S
C1027 C1046 1.723 . S
C1028 C1025 1.396 . S
C1028 C1027 1.394 . S
C1028 C1058 1.723 . S
H1029 C1052 0.947 . S
H1030 C1053 0.948 . S
H1031 C1059 0.982 . S
H1032 C1060 0.979 . S
H1033 C1060 0.980 . S
H1034 C1060 0.983 . S
H1035 C1059 0.979 . S
H1036 C1059 0.977 . S
C1037 C1025 1.453 . S
C1037 H1066 0.982 . S
C1037 H1067 0.979 . S
C1037 H1068 0.977 . S
C1038 C1025 1.684 . S
C1038 H1063 0.979 . S
C1038 H1064 0.980 . S
C1038 H1065 0.983 . S
C1039 C1040 1.391 . S
C1039 C1044 1.391 . S
C1039 H1069 0.948 . S
C1040 C1039 1.391 . S
C1040 C1041 1.391 . S
C1041 C1040 1.391 . S
C1041 C1042 1.392 . S
C1041 H1070 0.947 . S
C1042 C1041 1.392 . S
C1042 C1043 1.419 . S
C1042 H1071 0.948 . S
C1043 C1042 1.419 . S
C1043 C1044 1.391 . S
C1043 C1047 1.397 . S
C1044 C1039 1.391 . S
C1044 C1043 1.391 . S
C1044 C1045 1.399 . S
C1045 C1044 1.399 . S
C1045 C1046 1.396 . S
C1045 C1048 1.453 . S
C1045 C1049 1.684 . S
C1046 C1027 1.723 . S
C1046 C1045 1.396 . S
C1046 C1047 1.394 . S
C1047 C1043 1.397 . S
C1047 C1046 1.394 . S
C1047 C1057 1.723 . S
C1048 C1045 1.453 . S
C1048 H1072 0.982 . S
C1048 H1073 0.979 . S
C1048 H1074 0.977 . S
C1049 C1045 1.684 . S
C1049 H1075 0.979 . S
C1049 H1076 0.980 . S
C1049 H1077 0.983 . S
C1050 H1026 0.948 . S
C1050 C1051 1.391 . S
C1050 C1055 1.391 . S
C1051 C1050 1.391 . S
C1051 C1052 1.391 . S
C1052 H1029 0.947 . S
C1052 C1051 1.391 . S
C1052 C1053 1.392 . S
C1053 H1030 0.948 . S
C1053 C1052 1.392 . S
C1053 C1054 1.419 . S
C1054 C1053 1.419 . S
C1054 C1055 1.391 . S
C1054 C1058 1.397 . S
C1055 C1050 1.391 . S
C1055 C1054 1.391 . S
C1055 C1056 1.399 . S
C1056 C1055 1.399 . S
C1056 C1057 1.396 . S
C1056 C1059 1.453 . S
C1056 C1060 1.684 . S
C1057 C1047 1.723 . S
C1057 C1056 1.396 . S
C1057 C1058 1.394 . S
C1058 C1028 1.723 . S
C1058 C1054 1.397 . S
C1058 C1057 1.394 . S
C1059 H1031 0.982 . S
C1059 H1035 0.979 . S
C1059 H1036 0.977 . S
C1059 C1056 1.453 . S
C1060 H1032 0.979 . S
C1060 H1033 0.980 . S
C1060 H1034 0.983 . S
C1060 C1056 1.684 . S
H1061 C1079 0.948 . S
H1062 C1020 0.948 . S
H1063 C1038 0.979 . S
H1064 C1038 0.980 . S
H1065 C1038 0.983 . S
H1066 C1037 0.982 . S
H1067 C1037 0.979 . S
H1068 C1037 0.977 . S
H1069 C1039 0.948 . S
H1070 C1041 0.947 . S
H1071 C1042 0.948 . S
H1072 C1048 0.982 . S
H1073 C1048 0.979 . S
H1074 C1048 0.977 . S
H1075 C1049 0.979 . S
H1076 C1049 0.980 . S
H1077 C1049 0.983 . S
H1078 C1022 0.947 . S
C1079 C1022 1.392 . S
C1079 C1023 1.419 . S
C1079 H1061 0.948 . S
C1080 Eu1081 2.835 . S
C1080 C1082 1.500 . S
C1080 O1100 1.257 1_545 S
C1080 O1101 1.260 . S
Eu1081 C1080 2.835 . S
Eu1081 O1100 2.473 1_545 S
Eu1081 O1101 2.480 . S
Eu1081 O1102 2.430 . S
Eu1081 O1103 2.670 1_554 S
Eu1081 O1104 2.394 1_545 S
Eu1081 O1109 2.355 1_545 S
Eu1081 O1111 2.374 . S
C1082 C1080 1.500 . S
C1082 C1083 1.377 . S
C1082 C1087 1.377 1_545 S
C1083 C1082 1.377 . S
C1083 C1084 1.395 . S
C1083 H1112 0.931 . S
C1084 C1083 1.395 . S
C1084 C1085 1.400 . S
C1084 H1113 0.931 . S
C1085 C1084 1.400 . S
C1085 C1086 1.379 1_545 S
C1086 C1085 1.379 1_565 S
C1086 C1087 1.378 . S
C1086 H1114 0.931 . S
C1087 C1082 1.377 1_565 S
C1087 C1086 1.378 . S
C1087 H1115 0.931 . S
C1088 O1102 1.259 1_556 S
C1088 O1103 1.270 . S
C1089 O1104 1.251 . S
C1089 O1105 1.251 1_554 S
C1090 Eu1091 2.835 . S
C1090 C1092 1.500 . S
C1090 O1106 1.257 1_565 S
C1090 O1107 1.260 . S
Eu1091 C1090 2.835 . S
Eu1091 O1103 2.355 1_565 S
Eu1091 O1105 2.374 . S
Eu1091 O1106 2.473 1_565 S
Eu1091 O1107 2.480 . S
Eu1091 O1108 2.430 . S
Eu1091 O1109 2.670 1_556 S
Eu1091 O1110 2.394 1_565 S
C1092 C1090 1.500 . S
C1092 C1093 1.377 . S
C1092 C1097 1.377 1_565 S
C1093 C1092 1.377 . S
C1093 C1094 1.395 . S
C1093 H1116 0.931 . S
C1094 C1093 1.395 . S
C1094 C1095 1.394 . S
C1094 H1117 0.931 . S
C1095 C1094 1.394 . S
C1095 C1096 1.384 1_565 S
C1096 C1095 1.384 1_545 S
C1096 C1097 1.378 . S
C1096 H1118 0.931 . S
C1097 C1092 1.377 1_545 S
C1097 C1096 1.378 . S
C1097 H1119 0.931 . S
C1098 O1108 1.259 1_554 S
C1098 O1109 1.270 . S
C1099 O1110 1.251 . S
C1099 O1111 1.251 1_556 S
O1100 C1080 1.257 1_565 S
O1100 Eu1081 2.473 1_565 S
O1101 C1080 1.260 . S
O1101 Eu1081 2.480 . S
O1102 Eu1081 2.430 . S
O1102 C1088 1.259 1_554 S
O1103 Eu1081 2.670 1_556 S
O1103 C1088 1.270 . S
O1103 Eu1091 2.355 1_545 S
O1104 Eu1081 2.394 1_565 S
O1104 C1089 1.251 . S
O1105 C1089 1.251 1_556 S
O1105 Eu1091 2.374 . S
O1106 C1090 1.257 1_545 S
O1106 Eu1091 2.473 1_545 S
O1107 C1090 1.260 . S
O1107 Eu1091 2.480 . S
O1108 Eu1091 2.430 . S
O1108 C1098 1.259 1_556 S
O1109 Eu1081 2.355 1_565 S
O1109 Eu1091 2.670 1_554 S
O1109 C1098 1.270 . S
O1110 Eu1091 2.394 1_545 S
O1110 C1099 1.251 . S
O1111 Eu1081 2.374 . S
O1111 C1099 1.251 1_554 S
H1112 C1083 0.931 . S
H1113 C1084 0.931 . S
H1114 C1086 0.931 . S
H1115 C1087 0.931 . S
H1116 C1093 0.931 . S
H1117 C1094 0.931 . S
H1118 C1096 0.931 . S
H1119 C1097 0.931 . S
C1120 Eu1121 2.835 . S
C1120 C1122 1.500 1_655 S
C1120 O1140 1.257 1_655 S
C1120 O1141 1.260 . S
Eu1121 C1120 2.835 . S
Eu1121 O1140 2.473 1_655 S
Eu1121 O1141 2.480 . S
Eu1121 O1142 2.430 . S
Eu1121 O1143 2.670 1_554 S
Eu1121 O1144 2.394 1_655 S
Eu1121 O1149 2.355 1_655 S
Eu1121 O1151 2.377 . S
C1122 C1120 1.500 1_455 S
C1122 C1123 1.377 1_455 S
C1122 C1127 1.377 . S
C1123 C1122 1.377 1_655 S
C1123 C1124 1.395 . S
C1123 H1152 0.931 . S
C1124 C1123 1.395 . S
C1124 C1125 1.383 1_655 S
C1124 H1153 0.931 . S
C1125 C1124 1.383 1_455 S
C1125 C1126 1.394 . S
C1126 C1125 1.394 . S
C1126 C1127 1.378 . S
C1126 H1154 0.931 . S
C1127 C1122 1.377 . S
C1127 C1126 1.378 . S
C1127 H1155 0.931 . S
C1128 O1142 1.259 1_556 S
C1128 O1143 1.270 . S
C1129 O1144 1.251 . S
C1129 O1145 1.292 . S
C1130 Eu1131 2.835 . S
C1130 C1132 1.500 1_455 S
C1130 O1146 1.257 1_455 S
C1130 O1147 1.260 . S
Eu1131 C1130 2.835 . S
Eu1131 O1143 2.355 1_455 S
Eu1131 O1145 2.344 1_556 S
Eu1131 O1146 2.473 1_455 S
Eu1131 O1147 2.480 . S
Eu1131 O1148 2.430 . S
Eu1131 O1149 2.670 1_556 S
Eu1131 O1150 2.394 1_455 S
C1132 C1130 1.500 1_655 S
C1132 C1133 1.377 1_655 S
C1132 C1137 1.377 . S
C1133 C1132 1.377 1_455 S
C1133 C1134 1.395 . S
C1133 H1156 0.931 . S
C1134 C1133 1.395 . S
C1134 C1135 1.383 1_455 S
C1134 H1157 0.931 . S
C1135 C1134 1.383 1_655 S
C1135 C1136 1.394 . S
C1136 C1135 1.394 . S
C1136 C1137 1.378 . S
C1136 H1158 0.931 . S
C1137 C1132 1.377 . S
C1137 C1136 1.378 . S
C1137 H1159 0.931 . S
C1138 O1148 1.259 1_554 S
C1138 O1149 1.270 . S
C1139 O1150 1.251 . S
C1139 O1151 1.247 1_556 S
O1140 C1120 1.257 1_455 S
O1140 Eu1121 2.473 1_455 S
O1141 C1120 1.260 . S
O1141 Eu1121 2.480 . S
O1142 Eu1121 2.430 . S
O1142 C1128 1.259 1_554 S
O1143 Eu1121 2.670 1_556 S
O1143 C1128 1.270 . S
O1143 Eu1131 2.355 1_655 S
O1144 Eu1121 2.394 1_455 S
O1144 C1129 1.251 . S
O1145 C1129 1.292 . S
O1145 Eu1131 2.344 1_554 S
O1146 C1130 1.257 1_655 S
O1146 Eu1131 2.473 1_655 S
O1147 C1130 1.260 . S
O1147 Eu1131 2.480 . S
O1148 Eu1131 2.430 . S
O1148 C1138 1.259 1_556 S
O1149 Eu1121 2.355 1_455 S
O1149 Eu1131 2.670 1_554 S
O1149 C1138 1.270 . S
O1150 Eu1131 2.394 1_655 S
O1150 C1139 1.251 . S
O1151 Eu1121 2.377 . S
O1151 C1139 1.247 1_554 S
H1152 C1123 0.931 . S
H1153 C1124 0.931 . S
H1154 C1126 0.931 . S
H1155 C1127 0.931 . S
H1156 C1133 0.931 . S
H1157 C1134 0.931 . S
H1158 C1136 0.931 . S
H1159 C1137 0.931 . S
C1160 Eu1161 2.835 . S
C1160 C1162 1.500 . S
C1160 O1180 1.257 . S
C1160 O1181 1.260 . S
Eu1161 C1160 2.835 . S
Eu1161 O1180 2.473 . S
Eu1161 O1181 2.480 . S
Eu1161 O1182 2.430 . S
Eu1161 O1183 2.670 1_556 S
Eu1161 O1184 2.394 . S
Eu1161 O1189 2.355 . S
Eu1161 O1191 2.374 . S
C1162 C1160 1.500 . S
C1162 C1163 1.377 . S
C1162 C1167 1.377 . S
C1163 C1162 1.377 . S
C1163 C1164 1.395 . S
C1163 H1192 0.931 . S
C1164 C1163 1.395 . S
C1164 C1165 1.383 . S
C1164 H1193 0.931 . S
C1165 C1164 1.383 . S
C1165 C1166 1.394 . S
C1166 C1165 1.394 . S
C1166 C1167 1.378 . S
C1166 H1194 0.931 . S
C1167 C1162 1.377 . S
C1167 C1166 1.378 . S
C1167 H1195 0.931 . S
C1168 O1182 1.259 1_554 S
C1168 O1183 1.270 . S
C1169 O1184 1.251 . S
C1169 O1185 1.251 1_556 S
C1170 Eu1171 2.835 . S
C1170 C1172 1.500 . S
C1170 O1186 1.257 . S
C1170 O1187 1.260 . S
Eu1171 C1170 2.835 . S
Eu1171 O1183 2.355 . S
Eu1171 O1185 2.374 . S
Eu1171 O1186 2.473 . S
Eu1171 O1187 2.480 . S
Eu1171 O1188 2.430 . S
Eu1171 O1189 2.670 1_554 S
Eu1171 O1190 2.394 . S
C1172 C1170 1.500 . S
C1172 C1173 1.377 . S
C1172 C1177 1.377 . S
C1173 C1172 1.377 . S
C1173 C1174 1.395 . S
C1173 H1196 0.931 . S
C1174 C1173 1.395 . S
C1174 C1175 1.383 . S
C1174 H1197 0.931 . S
C1175 C1174 1.383 . S
C1175 C1176 1.394 . S
C1176 C1175 1.394 . S
C1176 C1177 1.378 . S
C1176 H1198 0.931 . S
C1177 C1172 1.377 . S
C1177 C1176 1.378 . S
C1177 H1199 0.931 . S
C1178 O1188 1.259 1_556 S
C1178 O1189 1.270 . S
C1179 O1190 1.251 . S
C1179 O1191 1.251 1_554 S
O1180 C1160 1.257 . S
O1180 Eu1161 2.473 . S
O1181 C1160 1.260 . S
O1181 Eu1161 2.480 . S
O1182 Eu1161 2.430 . S
O1182 C1168 1.259 1_556 S
O1183 Eu1161 2.670 1_554 S
O1183 C1168 1.270 . S
O1183 Eu1171 2.355 . S
O1184 Eu1161 2.394 . S
O1184 C1169 1.251 . S
O1185 C1169 1.251 1_554 S
O1185 Eu1171 2.374 . S
O1186 C1170 1.257 . S
O1186 Eu1171 2.473 . S
O1187 C1170 1.260 . S
O1187 Eu1171 2.480 . S
O1188 Eu1171 2.430 . S
O1188 C1178 1.259 1_554 S
O1189 Eu1161 2.355 . S
O1189 Eu1171 2.670 1_556 S
O1189 C1178 1.270 . S
O1190 Eu1171 2.394 . S
O1190 C1179 1.251 . S
O1191 Eu1161 2.374 . S
O1191 C1179 1.251 1_556 S
H1192 C1163 0.931 . S
H1193 C1164 0.931 . S
H1194 C1166 0.931 . S
H1195 C1167 0.931 . S
H1196 C1173 0.931 . S
H1197 C1174 0.931 . S
H1198 C1176 0.931 . S
H1199 C1177 0.931 . S
C1200 Eu1201 2.835 . S
C1200 C1202 1.500 . S
C1200 O1220 1.257 . S
C1200 O1221 1.260 . S
Eu1201 C1200 2.835 . S
Eu1201 O1220 2.473 . S
Eu1201 O1221 2.480 . S
Eu1201 O1222 2.430 . S
Eu1201 O1223 2.670 . S
Eu1201 O1224 2.394 . S
Eu1201 O1229 2.355 . S
Eu1201 O1231 2.374 . S
C1202 C1200 1.500 . S
C1202 C1203 1.377 . S
C1202 C1207 1.377 . S
C1203 C1202 1.377 . S
C1203 C1204 1.395 . S
C1203 H1232 0.931 . S
C1204 C1203 1.395 . S
C1204 C1205 1.383 . S
C1204 H1233 0.931 . S
C1205 C1204 1.383 . S
C1205 C1206 1.394 . S
C1206 C1205 1.394 . S
C1206 C1207 1.378 . S
C1206 H1234 0.931 . S
C1207 C1202 1.377 . S
C1207 C1206 1.378 . S
C1207 H1235 0.931 . S
C1208 O1222 1.259 . S
C1208 O1223 1.270 . S
C1209 O1224 1.251 . S
C1209 O1225 1.251 . S
C1210 Eu1211 2.835 . S
C1210 C1212 1.500 . S
C1210 O1226 1.257 . S
C1210 O1227 1.260 . S
Eu1211 C1210 2.835 . S
Eu1211 O1223 2.355 . S
Eu1211 O1225 2.374 . S
Eu1211 O1226 2.473 . S
Eu1211 O1227 2.480 . S
Eu1211 O1228 2.430 . S
Eu1211 O1229 2.670 . S
Eu1211 O1230 2.394 . S
C1212 C1210 1.500 . S
C1212 C1213 1.377 . S
C1212 C1217 1.377 . S
C1213 C1212 1.377 . S
C1213 C1214 1.395 . S
C1213 H1236 0.931 . S
C1214 C1213 1.395 . S
C1214 C1215 1.383 . S
C1214 H1237 0.931 . S
C1215 C1214 1.383 . S
C1215 C1216 1.394 . S
C1216 C1215 1.394 . S
C1216 C1217 1.378 . S
C1216 H1238 0.931 . S
C1217 C1212 1.377 . S
C1217 C1216 1.378 . S
C1217 H1239 0.931 . S
C1218 O1228 1.259 . S
C1218 O1229 1.270 . S
C1219 O1230 1.251 . S
C1219 O1231 1.251 . S
O1220 C1200 1.257 . S
O1220 Eu1201 2.473 . S
O1221 C1200 1.260 . S
O1221 Eu1201 2.480 . S
O1222 Eu1201 2.430 . S
O1222 C1208 1.259 . S
O1223 Eu1201 2.670 . S
O1223 C1208 1.270 . S
O1223 Eu1211 2.355 . S
O1224 Eu1201 2.394 . S
O1224 C1209 1.251 . S
O1225 C1209 1.251 . S
O1225 Eu1211 2.374 . S
O1226 C1210 1.257 . S
O1226 Eu1211 2.473 . S
O1227 C1210 1.260 . S
O1227 Eu1211 2.480 . S
O1228 Eu1211 2.430 . S
O1228 C1218 1.259 . S
O1229 Eu1201 2.355 . S
O1229 Eu1211 2.670 . S
O1229 C1218 1.270 . S
O1230 Eu1211 2.394 . S
O1230 C1219 1.251 . S
O1231 Eu1201 2.374 . S
O1231 C1219 1.251 . S
H1232 C1203 0.931 . S
H1233 C1204 0.931 . S
H1234 C1206 0.931 . S
H1235 C1207 0.931 . S
H1236 C1213 0.931 . S
H1237 C1214 0.931 . S
H1238 C1216 0.931 . S
H1239 C1217 0.931 . S
C1240 Eu1241 2.835 . S
C1240 C1242 1.500 . S
C1240 O1260 1.257 . S
C1240 O1261 1.260 . S
Eu1241 C1240 2.835 . S
Eu1241 O1260 2.473 . S
Eu1241 O1261 2.480 . S
Eu1241 O1262 2.430 . S
Eu1241 O1263 2.670 . S
Eu1241 O1264 2.394 . S
Eu1241 O1269 2.355 . S
Eu1241 O1271 2.374 . S
C1242 C1240 1.500 . S
C1242 C1243 1.377 . S
C1242 C1247 1.377 . S
C1243 C1242 1.377 . S
C1243 C1244 1.395 . S
C1243 H1272 0.931 . S
C1244 C1243 1.395 . S
C1244 C1245 1.383 . S
C1244 H1273 0.931 . S
C1245 C1244 1.383 . S
C1245 C1246 1.394 . S
C1246 C1245 1.394 . S
C1246 C1247 1.378 . S
C1246 H1274 0.931 . S
C1247 C1242 1.377 . S
C1247 C1246 1.378 . S
C1247 H1275 0.931 . S
C1248 O1262 1.259 . S
C1248 O1263 1.270 . S
C1249 O1264 1.251 . S
C1249 O1265 1.251 . S
C1250 Eu1251 2.835 . S
C1250 C1252 1.500 . S
C1250 O1266 1.257 . S
C1250 O1267 1.260 . S
Eu1251 C1250 2.835 . S
Eu1251 O1263 2.355 . S
Eu1251 O1265 2.374 . S
Eu1251 O1266 2.473 . S
Eu1251 O1267 2.480 . S
Eu1251 O1268 2.430 . S
Eu1251 O1269 2.670 . S
Eu1251 O1270 2.394 . S
C1252 C1250 1.500 . S
C1252 C1253 1.377 . S
C1252 C1257 1.377 . S
C1253 C1252 1.377 . S
C1253 C1254 1.395 . S
C1253 H1276 0.931 . S
C1254 C1253 1.395 . S
C1254 C1255 1.383 . S
C1254 H1277 0.931 . S
C1255 C1254 1.383 . S
C1255 C1256 1.394 . S
C1256 C1255 1.394 . S
C1256 C1257 1.378 . S
C1256 H1278 0.931 . S
C1257 C1252 1.377 . S
C1257 C1256 1.378 . S
C1257 H1279 0.931 . S
C1258 O1268 1.259 . S
C1258 O1269 1.270 . S
C1259 O1270 1.251 . S
C1259 O1271 1.251 . S
O1260 C1240 1.257 . S
O1260 Eu1241 2.473 . S
O1261 C1240 1.260 . S
O1261 Eu1241 2.480 . S
O1262 Eu1241 2.430 . S
O1262 C1248 1.259 . S
O1263 Eu1241 2.670 . S
O1263 C1248 1.270 . S
O1263 Eu1251 2.355 . S
O1264 Eu1241 2.394 . S
O1264 C1249 1.251 . S
O1265 C1249 1.251 . S
O1265 Eu1251 2.374 . S
O1266 C1250 1.257 . S
O1266 Eu1251 2.473 . S
O1267 C1250 1.260 . S
O1267 Eu1251 2.480 . S
O1268 Eu1251 2.430 . S
O1268 C1258 1.259 . S
O1269 Eu1241 2.355 . S
O1269 Eu1251 2.670 . S
O1269 C1258 1.270 . S
O1270 Eu1251 2.394 . S
O1270 C1259 1.251 . S
O1271 Eu1241 2.374 . S
O1271 C1259 1.251 . S
H1272 C1243 0.931 . S
H1273 C1244 0.931 . S
H1274 C1246 0.931 . S
H1275 C1247 0.931 . S
H1276 C1253 0.931 . S
H1277 C1254 0.931 . S
H1278 C1256 0.931 . S
H1279 C1257 0.931 . S
C1280 Eu1281 2.835 . S
C1280 C1282 1.500 . S
C1280 O1300 1.257 . S
C1280 O1301 1.260 . S
Eu1281 C1280 2.835 . S
Eu1281 O1300 2.473 . S
Eu1281 O1301 2.480 . S
Eu1281 O1302 2.430 . S
Eu1281 O1303 2.670 . S
Eu1281 O1304 2.394 . S
Eu1281 O1309 2.355 . S
Eu1281 O1311 2.374 . S
C1282 C1280 1.500 . S
C1282 C1283 1.377 . S
C1282 C1287 1.377 . S
C1283 C1282 1.377 . S
C1283 C1284 1.395 . S
C1283 H1312 0.931 . S
C1284 C1283 1.395 . S
C1284 C1285 1.383 . S
C1284 H1313 0.931 . S
C1285 C1284 1.383 . S
C1285 C1286 1.394 . S
C1286 C1285 1.394 . S
C1286 C1287 1.378 . S
C1286 H1314 0.931 . S
C1287 C1282 1.377 . S
C1287 C1286 1.378 . S
C1287 H1315 0.931 . S
C1288 O1302 1.259 . S
C1288 O1303 1.270 . S
C1289 O1304 1.251 . S
C1289 O1305 1.251 . S
C1290 Eu1291 2.835 . S
C1290 C1292 1.500 . S
C1290 O1306 1.257 . S
C1290 O1307 1.260 . S
Eu1291 C1290 2.835 . S
Eu1291 O1303 2.355 . S
Eu1291 O1305 2.374 . S
Eu1291 O1306 2.473 . S
Eu1291 O1307 2.480 . S
Eu1291 O1308 2.430 . S
Eu1291 O1309 2.670 . S
Eu1291 O1310 2.394 . S
C1292 C1290 1.500 . S
C1292 C1293 1.377 . S
C1292 C1297 1.377 . S
C1293 C1292 1.377 . S
C1293 C1294 1.395 . S
C1293 H1316 0.931 . S
C1294 C1293 1.395 . S
C1294 C1295 1.383 . S
C1294 H1317 0.931 . S
C1295 C1294 1.383 . S
C1295 C1296 1.394 . S
C1296 C1295 1.394 . S
C1296 C1297 1.378 . S
C1296 H1318 0.931 . S
C1297 C1292 1.377 . S
C1297 C1296 1.378 . S
C1297 H1319 0.931 . S
C1298 O1308 1.259 . S
C1298 O1309 1.270 . S
C1299 O1310 1.251 . S
C1299 O1311 1.251 . S
O1300 C1280 1.257 . S
O1300 Eu1281 2.473 . S
O1301 C1280 1.260 . S
O1301 Eu1281 2.480 . S
O1302 Eu1281 2.430 . S
O1302 C1288 1.259 . S
O1303 Eu1281 2.670 . S
O1303 C1288 1.270 . S
O1303 Eu1291 2.355 . S
O1304 Eu1281 2.394 . S
O1304 C1289 1.251 . S
O1305 C1289 1.251 . S
O1305 Eu1291 2.374 . S
O1306 C1290 1.257 . S
O1306 Eu1291 2.473 . S
O1307 C1290 1.260 . S
O1307 Eu1291 2.480 . S
O1308 Eu1291 2.430 . S
O1308 C1298 1.259 . S
O1309 Eu1281 2.355 . S
O1309 Eu1291 2.670 . S
O1309 C1298 1.270 . S
O1310 Eu1291 2.394 . S
O1310 C1299 1.251 . S
O1311 Eu1281 2.374 . S
O1311 C1299 1.251 . S
H1312 C1283 0.931 . S
H1313 C1284 0.931 . S
H1314 C1286 0.931 . S
H1315 C1287 0.931 . S
H1316 C1293 0.931 . S
H1317 C1294 0.931 . S
H1318 C1296 0.931 . S
H1319 C1297 0.931 . S
C1320 Eu1321 2.835 . S
C1320 C1322 1.500 . S
C1320 O1340 1.257 . S
C1320 O1341 1.260 . S
Eu1321 C1320 2.835 . S
Eu1321 O1340 2.473 . S
Eu1321 O1341 2.480 . S
Eu1321 O1342 2.430 . S
Eu1321 O1343 2.670 . S
Eu1321 O1344 2.394 . S
Eu1321 O1349 2.355 . S
Eu1321 O1351 2.374 . S
C1322 C1320 1.500 . S
C1322 C1323 1.377 . S
C1322 C1327 1.377 . S
C1323 C1322 1.377 . S
C1323 C1324 1.395 . S
C1323 H1352 0.931 . S
C1324 C1323 1.395 . S
C1324 C1325 1.383 . S
C1324 H1353 0.931 . S
C1325 C1324 1.383 . S
C1325 C1326 1.394 . S
C1326 C1325 1.394 . S
C1326 C1327 1.378 . S
C1326 H1354 0.931 . S
C1327 C1322 1.377 . S
C1327 C1326 1.378 . S
C1327 H1355 0.931 . S
C1328 O1342 1.259 . S
C1328 O1343 1.270 . S
C1329 O1344 1.251 . S
C1329 O1345 1.251 . S
C1330 Eu1331 2.835 . S
C1330 C1332 1.500 . S
C1330 O1346 1.257 . S
C1330 O1347 1.260 . S
Eu1331 C1330 2.835 . S
Eu1331 O1343 2.355 . S
Eu1331 O1345 2.374 . S
Eu1331 O1346 2.473 . S
Eu1331 O1347 2.480 . S
Eu1331 O1348 2.430 . S
Eu1331 O1349 2.670 . S
Eu1331 O1350 2.394 . S
C1332 C1330 1.500 . S
C1332 C1333 1.377 . S
C1332 C1337 1.377 . S
C1333 C1332 1.377 . S
C1333 C1334 1.395 . S
C1333 H1356 0.931 . S
C1334 C1333 1.395 . S
C1334 C1335 1.383 . S
C1334 H1357 0.931 . S
C1335 C1334 1.383 . S
C1335 C1336 1.394 . S
C1336 C1335 1.394 . S
C1336 C1337 1.378 . S
C1336 H1358 0.931 . S
C1337 C1332 1.377 . S
C1337 C1336 1.378 . S
C1337 H1359 0.931 . S
C1338 O1348 1.259 . S
C1338 O1349 1.270 . S
C1339 O1350 1.251 . S
C1339 O1351 1.251 . S
O1340 C1320 1.257 . S
O1340 Eu1321 2.473 . S
O1341 C1320 1.260 . S
O1341 Eu1321 2.480 . S
O1342 Eu1321 2.430 . S
O1342 C1328 1.259 . S
O1343 Eu1321 2.670 . S
O1343 C1328 1.270 . S
O1343 Eu1331 2.355 . S
O1344 Eu1321 2.394 . S
O1344 C1329 1.251 . S
O1345 C1329 1.251 . S
O1345 Eu1331 2.374 . S
O1346 C1330 1.257 . S
O1346 Eu1331 2.473 . S
O1347 C1330 1.260 . S
O1347 Eu1331 2.480 . S
O1348 Eu1331 2.430 . S
O1348 C1338 1.259 . S
O1349 Eu1321 2.355 . S
O1349 Eu1331 2.670 . S
O1349 C1338 1.270 . S
O1350 Eu1331 2.394 . S
O1350 C1339 1.251 . S
O1351 Eu1321 2.374 . S
O1351 C1339 1.251 . S
H1352 C1323 0.931 . S
H1353 C1324 0.931 . S
H1354 C1326 0.931 . S
H1355 C1327 0.931 . S
H1356 C1333 0.931 . S
H1357 C1334 0.931 . S
H1358 C1336 0.931 . S
H1359 C1337 0.931 . S
C1360 Eu1361 2.835 . S
C1360 C1362 1.500 . S
C1360 O1380 1.257 . S
C1360 O1381 1.260 . S
Eu1361 C1360 2.835 . S
Eu1361 O1380 2.473 . S
Eu1361 O1381 2.480 . S
Eu1361 O1382 2.430 . S
Eu1361 O1383 2.670 . S
Eu1361 O1384 2.394 . S
Eu1361 O1389 2.355 . S
Eu1361 O1391 2.374 . S
C1362 C1360 1.500 . S
C1362 C1363 1.377 . S
C1362 C1367 1.377 . S
C1363 C1362 1.377 . S
C1363 C1364 1.395 . S
C1363 H1392 0.931 . S
C1364 C1363 1.395 . S
C1364 C1365 1.383 . S
C1364 H1393 0.931 . S
C1365 C1364 1.383 . S
C1365 C1366 1.394 . S
C1366 C1365 1.394 . S
C1366 C1367 1.378 . S
C1366 H1394 0.931 . S
C1367 C1362 1.377 . S
C1367 C1366 1.378 . S
C1367 H1395 0.931 . S
C1368 O1382 1.259 . S
C1368 O1383 1.270 . S
C1369 O1384 1.251 . S
C1369 O1385 1.251 . S
C1370 Eu1371 2.835 . S
C1370 C1372 1.500 . S
C1370 O1386 1.257 . S
C1370 O1387 1.260 . S
Eu1371 C1370 2.835 . S
Eu1371 O1383 2.355 . S
Eu1371 O1385 2.374 . S
Eu1371 O1386 2.473 . S
Eu1371 O1387 2.480 . S
Eu1371 O1388 2.430 . S
Eu1371 O1389 2.670 . S
Eu1371 O1390 2.394 . S
C1372 C1370 1.500 . S
C1372 C1373 1.377 . S
C1372 C1377 1.377 . S
C1373 C1372 1.377 . S
C1373 C1374 1.395 . S
C1373 H1396 0.931 . S
C1374 C1373 1.395 . S
C1374 C1375 1.383 . S
C1374 H1397 0.931 . S
C1375 C1374 1.383 . S
C1375 C1376 1.394 . S
C1376 C1375 1.394 . S
C1376 C1377 1.378 . S
C1376 H1398 0.931 . S
C1377 C1372 1.377 . S
C1377 C1376 1.378 . S
C1377 H1399 0.931 . S
C1378 O1388 1.259 . S
C1378 O1389 1.270 . S
C1379 O1390 1.251 . S
C1379 O1391 1.251 . S
O1380 C1360 1.257 . S
O1380 Eu1361 2.473 . S
O1381 C1360 1.260 . S
O1381 Eu1361 2.480 . S
O1382 Eu1361 2.430 . S
O1382 C1368 1.259 . S
O1383 Eu1361 2.670 . S
O1383 C1368 1.270 . S
O1383 Eu1371 2.355 . S
O1384 Eu1361 2.394 . S
O1384 C1369 1.251 . S
O1385 C1369 1.251 . S
O1385 Eu1371 2.374 . S
O1386 C1370 1.257 . S
O1386 Eu1371 2.473 . S
O1387 C1370 1.260 . S
O1387 Eu1371 2.480 . S
O1388 Eu1371 2.430 . S
O1388 C1378 1.259 . S
O1389 Eu1361 2.355 . S
O1389 Eu1371 2.670 . S
O1389 C1378 1.270 . S
O1390 Eu1371 2.394 . S
O1390 C1379 1.251 . S
O1391 Eu1361 2.374 . S
O1391 C1379 1.251 . S
H1392 C1363 0.931 . S
H1393 C1364 0.931 . S
H1394 C1366 0.931 . S
H1395 C1367 0.931 . S
H1396 C1373 0.931 . S
H1397 C1374 0.931 . S
H1398 C1376 0.931 . S
H1399 C1377 0.931 . S
C1400 Eu1401 2.835 . S
C1400 C1402 1.500 . S
C1400 O1420 1.257 . S
C1400 O1421 1.260 . S
Eu1401 C1400 2.835 . S
Eu1401 O1420 2.473 . S
Eu1401 O1421 2.480 . S
Eu1401 O1422 2.430 . S
Eu1401 O1423 2.670 . S
Eu1401 O1424 2.394 . S
Eu1401 O1429 2.355 . S
Eu1401 O1431 2.374 . S
C1402 C1400 1.500 . S
C1402 C1403 1.377 . S
C1402 C1407 1.377 . S
C1403 C1402 1.377 . S
C1403 C1404 1.395 . S
C1403 H1432 0.931 . S
C1404 C1403 1.395 . S
C1404 C1405 1.383 . S
C1404 H1433 0.931 . S
C1405 C1404 1.383 . S
C1405 C1406 1.394 . S
C1406 C1405 1.394 . S
C1406 C1407 1.378 . S
C1406 H1434 0.931 . S
C1407 C1402 1.377 . S
C1407 C1406 1.378 . S
C1407 H1435 0.931 . S
C1408 O1422 1.259 . S
C1408 O1423 1.270 . S
C1409 O1424 1.251 . S
C1409 O1425 1.251 . S
C1410 Eu1411 2.835 . S
C1410 C1412 1.500 . S
C1410 O1426 1.257 . S
C1410 O1427 1.260 . S
Eu1411 C1410 2.835 . S
Eu1411 O1423 2.355 . S
Eu1411 O1425 2.374 . S
Eu1411 O1426 2.473 . S
Eu1411 O1427 2.480 . S
Eu1411 O1428 2.430 . S
Eu1411 O1429 2.670 . S
Eu1411 O1430 2.394 . S
C1412 C1410 1.500 . S
C1412 C1413 1.377 . S
C1412 C1417 1.377 . S
C1413 C1412 1.377 . S
C1413 C1414 1.395 . S
C1413 H1436 0.931 . S
C1414 C1413 1.395 . S
C1414 C1415 1.383 . S
C1414 H1437 0.931 . S
C1415 C1414 1.383 . S
C1415 C1416 1.394 . S
C1416 C1415 1.394 . S
C1416 C1417 1.378 . S
C1416 H1438 0.931 . S
C1417 C1412 1.377 . S
C1417 C1416 1.378 . S
C1417 H1439 0.931 . S
C1418 O1428 1.259 . S
C1418 O1429 1.270 . S
C1419 O1430 1.251 . S
C1419 O1431 1.251 . S
O1420 C1400 1.257 . S
O1420 Eu1401 2.473 . S
O1421 C1400 1.260 . S
O1421 Eu1401 2.480 . S
O1422 Eu1401 2.430 . S
O1422 C1408 1.259 . S
O1423 Eu1401 2.670 . S
O1423 C1408 1.270 . S
O1423 Eu1411 2.355 . S
O1424 Eu1401 2.394 . S
O1424 C1409 1.251 . S
O1425 C1409 1.251 . S
O1425 Eu1411 2.374 . S
O1426 C1410 1.257 . S
O1426 Eu1411 2.473 . S
O1427 C1410 1.260 . S
O1427 Eu1411 2.480 . S
O1428 Eu1411 2.430 . S
O1428 C1418 1.259 . S
O1429 Eu1401 2.355 . S
O1429 Eu1411 2.670 . S
O1429 C1418 1.270 . S
O1430 Eu1411 2.394 . S
O1430 C1419 1.251 . S
O1431 Eu1401 2.374 . S
O1431 C1419 1.251 . S
H1432 C1403 0.931 . S
H1433 C1404 0.931 . S
H1434 C1406 0.931 . S
H1435 C1407 0.931 . S
H1436 C1413 0.931 . S
H1437 C1414 0.931 . S
H1438 C1416 0.931 . S
H1439 C1417 0.931 . S
C781 C1089 2.381 . S
C871 C1129 2.018 . S
C751 C1168 2.511 1_556 S
C691 C1128 2.124 . S
C1169 C571 1.615 . S
C601 C1088 2.518 . S
C1099 C661 2.161 . S
C1139 C541 1.933 . S
C631 C1178 2.749 1_554 S
C811 C1138 2.359 . S
C841 C1179 1.754 . S
C1098 C721 2.265 . S
C1209 C61 2.383 . S
C151 C1249 2.020 . S
C31 C1288 2.514 . S
C1051 C1248 2.125 . S
C931 C1289 1.615 . S
C961 C1208 2.519 . S
C1021 C1219 2.160 . S
C901 C1259 1.931 . S
C1298 C991 2.749 . S
C91 C1258 2.358 . S
C1299 C121 1.753 . S
C1 C1218 2.265 . S
C1329 C421 2.382 . S
C511 C1369 2.020 . S
C1408 C391 2.515 . S
C1368 C331 2.126 . S
C1409 C211 1.614 . S
C241 C1328 2.518 . S
C301 C1339 2.160 . S
C181 C1379 1.930 . S
C1418 C271 2.736 1_545 S
C451 C1378 2.358 . S
C481 C1419 1.754 . S
C361 C1338 2.266 . S
C920 C1085 1.468 1_565 S
C1125 C980 2.283 1_455 S
C1040 C1175 1.569 . S
C380 C1135 2.128 1_455 S
C440 C1165 1.664 . S
C1095 C500 1.623 1_565 S
C200 C1205 1.477 . S
C260 C1245 2.282 . S
C320 C1295 1.569 . S
C740 C1255 2.129 . S
C1285 C800 1.664 . S
C860 C1215 1.632 . S
C560 C1325 1.477 . S
C620 C1365 2.282 . S
C1415 C680 1.569 . S
C20 C1375 2.129 . S
C80 C1405 1.664 . S
C140 C1335 1.632 . S
