# Generated by pormake.
# Topology zzz, (3,6)-cn, num edge types: 1
# Building blocks:
#     Node 0, Type 0, BuildingBlock: QEWDON_clean_linker_0, # of connection points: 3
#     Node 1, Type 0, BuildingBlock: QEWDON_clean_linker_0, # of connection points: 3
#     Node 2, Type 0, BuildingBlock: QEWDON_clean_linker_0, # of connection points: 3
#     Node 3, Type 0, BuildingBlock: QEWDON_clean_linker_0, # of connection points: 3
#     Node 4, Type 0, BuildingBlock: QEWDON_clean_linker_0, # of connection points: 3
#     Node 5, Type 0, BuildingBlock: QEWDON_clean_linker_0, # of connection points: 3
#     Node 6, Type 0, BuildingBlock: QEWDON_clean_linker_0, # of connection points: 3
#     Node 7, Type 0, BuildingBlock: QEWDON_clean_linker_0, # of connection points: 3
#     Node 8, Type 1, BuildingBlock: BETGAK_clean_sbu_0, # of connection points: 6
#     Node 9, Type 1, BuildingBlock: BETGAK_clean_sbu_0, # of connection points: 6
#     Node 10, Type 1, BuildingBlock: BETGAK_clean_sbu_0, # of connection points: 6
#     Node 11, Type 1, BuildingBlock: BETGAK_clean_sbu_0, # of connection points: 6
#     Edge 12, Type (0, 1), BuildingBlock: KIFKEQ_clean_linker_1, # of connection points: 2
#     Edge 13, Type (0, 1), BuildingBlock: KIFKEQ_clean_linker_1, # of connection points: 2
#     Edge 14, Type (0, 1), BuildingBlock: KIFKEQ_clean_linker_1, # of connection points: 2
#     Edge 15, Type (0, 1), BuildingBlock: KIFKEQ_clean_linker_1, # of connection points: 2
#     Edge 16, Type (0, 1), BuildingBlock: KIFKEQ_clean_linker_1, # of connection points: 2
#     Edge 17, Type (0, 1), BuildingBlock: KIFKEQ_clean_linker_1, # of connection points: 2
#     Edge 18, Type (0, 1), BuildingBlock: KIFKEQ_clean_linker_1, # of connection points: 2
#     Edge 19, Type (0, 1), BuildingBlock: KIFKEQ_clean_linker_1, # of connection points: 2
#     Edge 20, Type (0, 1), BuildingBlock: KIFKEQ_clean_linker_1, # of connection points: 2
#     Edge 21, Type (0, 1), BuildingBlock: KIFKEQ_clean_linker_1, # of connection points: 2
#     Edge 22, Type (0, 1), BuildingBlock: KIFKEQ_clean_linker_1, # of connection points: 2
#     Edge 23, Type (0, 1), BuildingBlock: KIFKEQ_clean_linker_1, # of connection points: 2
#     Edge 24, Type (0, 1), BuildingBlock: KIFKEQ_clean_linker_1, # of connection points: 2
#     Edge 25, Type (0, 1), BuildingBlock: KIFKEQ_clean_linker_1, # of connection points: 2
#     Edge 26, Type (0, 1), BuildingBlock: KIFKEQ_clean_linker_1, # of connection points: 2
#     Edge 27, Type (0, 1), BuildingBlock: KIFKEQ_clean_linker_1, # of connection points: 2
#     Edge 28, Type (0, 1), BuildingBlock: KIFKEQ_clean_linker_1, # of connection points: 2
#     Edge 29, Type (0, 1), BuildingBlock: KIFKEQ_clean_linker_1, # of connection points: 2
#     Edge 30, Type (0, 1), BuildingBlock: KIFKEQ_clean_linker_1, # of connection points: 2
#     Edge 31, Type (0, 1), BuildingBlock: KIFKEQ_clean_linker_1, # of connection points: 2
#     Edge 32, Type (0, 1), BuildingBlock: KIFKEQ_clean_linker_1, # of connection points: 2
#     Edge 33, Type (0, 1), BuildingBlock: KIFKEQ_clean_linker_1, # of connection points: 2
#     Edge 34, Type (0, 1), BuildingBlock: KIFKEQ_clean_linker_1, # of connection points: 2
#     Edge 35, Type (0, 1), BuildingBlock: KIFKEQ_clean_linker_1, # of connection points: 2
# Relax obj value: 0.177
# Max RMSD: 0.176
# Mean RMSD: 0.123
data_MOF--net-zzz--node1-BETGAK_clean_sbu_0--node2-QEWDON_clean_linker_0--edge1-KIFKEQ_clean_linker_1
_symmetry_space_group_name_H-M    P1
_symmetry_Int_Tables_number       1
_symmetry_cell_setting            triclinic
loop_
_symmetry_equiv_pos_as_xyz
'x, y, z'
_cell_length_a     56.598495
_cell_length_b     56.582538
_cell_length_c     13.043231
_cell_angle_alpha  89.871248
_cell_angle_beta   90.027777
_cell_angle_gamma 89.717964
loop_
_atom_site_label
_atom_site_type_symbol
_atom_site_fract_x
_atom_site_fract_y
_atom_site_fract_z
_atom_type_partial_charge
H0 H 0.75459 0.49528 0.25365 0.0
C1 C 0.76899 0.50105 0.30191 0.0
C2 C 0.79116 0.49069 0.28649 0.0
C3 C 0.76548 0.51829 0.37852 0.0
H4 H 0.82747 0.4893 0.33523 0.0
C5 C 0.81015 0.49695 0.34944 0.0
C6 C 0.80781 0.51405 0.42574 0.0
C7 C 0.78545 0.52507 0.43939 0.0
C8 C 0.74082 0.52807 0.39613 0.0
H9 H 0.78377 0.53866 0.49712 0.0
C10 C 0.72316 0.52825 0.31762 0.0
C11 C 0.69944 0.53511 0.33806 0.0
C12 C 0.73415 0.53578 0.49446 0.0
H13 H 0.74651 0.53547 0.55772 0.0
C14 C 0.71105 0.54315 0.51446 0.0
H15 H 0.72774 0.52327 0.24015 0.0
C16 C 0.69386 0.54265 0.43783 0.0
H17 H 0.67597 0.54763 0.45798 0.0
H18 H 0.70626 0.54876 0.59103 0.0
H19 H 0.06001 0.75109 0.2574 0.0
C20 C 0.0529 0.7658 0.30061 0.0
C21 C 0.06342 0.78795 0.28844 0.0
C22 C 0.03357 0.76268 0.36752 0.0
H23 H 0.06251 0.82464 0.33148 0.0
C24 C 0.05483 0.80733 0.34394 0.0
C25 C 0.03551 0.80537 0.40977 0.0
C26 C 1.0249 0.78288 0.4223 0.0
C27 C 1.02319 0.73826 0.38066 0.0
H28 H 1.00962 0.7814 0.4717 0.0
C29 C 1.02393 0.7209 0.3012 0.0
C30 C 1.01587 0.69742 0.31777 0.0
C31 C 1.01368 0.73161 0.47592 0.0
H32 H 1.01321 0.74385 0.53951 0.0
C33 C 1.00543 0.70873 0.49237 0.0
H34 H 0.03049 0.72561 0.22606 0.0
C35 C 1.00664 0.69181 0.41493 0.0
H36 H 1.00078 0.67407 0.4325 0.0
H37 H 0.99845 0.70391 0.56677 0.0
H38 H 0.79033 0.04287 0.20443 0.0
C39 C 0.77837 0.04026 0.26796 0.0
C40 C 0.75805 0.05439 0.27147 0.0
C41 C 0.78253 1.0225 0.34225 0.0
H42 H 0.7247 0.06069 0.3449 0.0
C43 C 0.74097 0.05046 0.34686 0.0
C44 C 0.7433 0.03211 0.41784 0.0
C45 C 0.76432 1.01836 0.41671 0.0
C46 C 0.80519 1.00792 0.3375 0.0
H47 H 0.76618 1.00475 0.47436 0.0
C48 C 0.82565 1.01562 0.28234 0.0
C49 C 0.84632 1.00141 0.27561 0.0
C50 C 0.80645 0.98565 0.38601 0.0
H51 H 0.79151 0.97824 0.42591 0.0
C52 C 0.82699 0.97195 0.38198 0.0
H53 H 0.82598 0.03271 0.24537 0.0
C54 C 0.84668 0.97966 0.32752 0.0
H55 H 0.86202 0.96818 0.32354 0.0
H56 H 0.82748 0.95491 0.41986 0.0
H57 H 0.49654 0.79283 0.23519 0.0
C58 C 0.5024 0.77857 0.28465 0.0
C59 C 0.49139 0.75661 0.27573 0.0
C60 C 0.52015 0.7822 0.35899 0.0
H61 H 0.48937 0.72094 0.33169 0.0
C62 C 0.49786 0.73799 0.34059 0.0
C63 C 0.51568 0.74051 0.41359 0.0
C64 C 0.52713 0.76261 0.42195 0.0
C65 C 0.52972 0.80675 0.37546 0.0
H66 H 0.54106 0.76453 0.47815 0.0
C67 C 0.53097 0.82383 0.29494 0.0
C68 C 0.53746 0.84765 0.31463 0.0
C69 C 0.53582 0.81392 0.47512 0.0
H70 H 0.53459 0.80189 0.53947 0.0
C71 C 0.54253 0.83711 0.49486 0.0
H72 H 0.52703 0.81861 0.21711 0.0
C73 C 0.54306 0.85382 0.41634 0.0
H74 H 0.54734 0.87182 0.43677 0.0
H75 H 0.54675 0.84235 0.57249 0.0
H76 H 0.29188 0.54978 0.23823 0.0
C77 C 0.27839 0.54323 0.18681 0.0
C78 C 0.25483 0.54892 0.20705 0.0
C79 C 0.28453 0.53015 0.0988 0.0
H80 H 0.21879 0.54674 0.15616 0.0
C81 C 0.23698 0.54184 0.1399 0.0
C82 C 0.24211 0.52926 0.0508 0.0
C83 C 0.26601 0.52323 0.03021 0.0
C84 C 0.31035 0.5259 0.07592 0.0
H85 H 0.27005 0.51333 0.96145 0.0
C86 C 0.32759 0.5231 0.15521 0.0
C87 C 0.35218 0.52185 0.13282 0.0
C88 C 0.31825 0.52667 0.97391 0.0
H89 H 0.30598 0.52931 0.91121 0.0
C90 C 0.34226 0.52525 0.95108 0.0
H91 H 0.32185 0.52179 0.23411 0.0
C92 C 0.35901 0.52317 0.02907 0.0
H93 H 0.37744 0.52317 0.00723 0.0
H94 H 0.34801 0.52635 0.87207 0.0
H95 H 1.00202 0.29474 0.20916 0.0
C96 C 1.00708 0.2804 0.15883 0.0
C97 C 0.99781 0.2581 0.1791 0.0
C98 C 1.0221 0.28429 0.0745 0.0
H99 H 0.99612 0.22176 0.13152 0.0
C100 C 1.00298 0.23917 0.11371 0.0
C101 C 1.01787 0.24185 0.02908 0.0
C102 C 0.02774 0.26452 0.00994 0.0
C103 C 0.03012 0.3093 0.05269 0.0
H104 H 0.03948 0.26667 0.94518 0.0
C105 C 0.03206 0.32666 0.13187 0.0
C106 C 0.03546 0.3509 0.10857 0.0
C107 C 0.0334 0.31676 0.95078 0.0
H108 H 0.03175 0.3045 0.88768 0.0
C109 C 0.0377 0.34048 0.92788 0.0
H110 H 0.03022 0.32165 0.21154 0.0
C111 C 0.03836 0.35742 0.00549 0.0
H112 H 0.04121 0.37575 0.98481 0.0
H113 H 0.03993 0.3459 0.84883 0.0
H114 H 0.25562 1.00786 0.22898 0.0
C115 C 0.26962 1.01258 0.17649 0.0
C116 C 0.29271 1.00773 0.20652 0.0
C117 C 0.26466 1.02268 0.0801 0.0
H118 H 0.32949 1.00899 0.16586 0.0
C119 C 0.31154 1.01252 0.14042 0.0
C120 C 0.30778 1.0224 0.04351 0.0
C121 C 0.28415 0.02755 0.01292 0.0
C122 C 0.23904 0.02657 0.05102 0.0
H123 H 0.28114 0.03552 0.93855 0.0
C124 C 0.22108 0.02992 0.12682 0.0
C125 C 0.19677 0.02933 0.10122 0.0
C126 C 0.2319 1.02453 0.94819 0.0
H127 H 0.24468 1.02163 0.88781 0.0
C128 C 0.20796 1.02505 0.92192 0.0
H129 H 0.2258 0.03221 0.20654 0.0
C130 C 0.19057 0.02705 0.99745 0.0
H131 H 0.17218 0.02686 0.97452 0.0
H132 H 0.2028 1.02324 0.8424 0.0
H133 H 0.55151 0.25883 0.25441 0.0
C134 C 0.54455 0.27274 0.20562 0.0
C135 C 0.55092 0.29605 0.22607 0.0
C136 C 0.53017 0.26737 0.12052 0.0
H137 H 0.5485 0.33239 0.1787 0.0
C138 C 0.54315 0.31437 0.16226 0.0
C139 C 0.52922 0.30994 0.07636 0.0
C140 C 0.52259 0.28633 0.05532 0.0
C141 C 0.52507 0.24185 0.09674 0.0
H142 H 0.51167 0.28285 0.98894 0.0
C143 C 0.52273 0.22447 0.17545 0.0
C144 C 0.52066 0.20004 0.15198 0.0
C145 C 0.52449 0.23434 0.99422 0.0
H146 H 0.52672 0.24677 0.93183 0.0
C147 C 0.52221 0.21047 0.97033 0.0
H148 H 0.52242 0.23 0.25478 0.0
C149 C 0.52063 0.19352 0.04775 0.0
H150 H 0.51993 0.17516 0.02499 0.0
H151 H 0.52226 0.20498 0.89087 0.0
La152 La 0.03985 1.01786 0.80465 0.0
La153 La 1.01196 0.02897 0.62806 0.0
C154 C 0.05556 0.9974 0.96227 0.0
C155 C 0.06058 0.97212 0.97924 0.0
C156 C 0.08224 0.96489 0.02133 0.0
C157 C 0.08826 0.94086 0.02506 0.0
C158 C 0.07286 0.92368 0.98491 0.0
C159 C 0.05109 0.93119 0.94379 0.0
C160 C 0.04488 0.95499 0.94261 0.0
C161 C 0.06586 0.03065 0.64482 0.0
C162 C 1.02328 0.97578 0.6512 0.0
C163 C 0.99709 0.04963 0.47038 0.0
C164 C 0.99595 0.0753 0.45353 0.0
C165 C 0.97423 0.08613 0.43124 0.0
C166 C 0.97166 0.11061 0.44007 0.0
C167 C 0.99072 0.12465 0.47284 0.0
C168 C 1.01279 0.11376 0.48925 0.0
C169 C 1.01541 0.08943 0.47905 0.0
C170 C 0.98577 1.01571 0.78603 0.0
C171 C 0.028 0.07106 0.78161 0.0
O172 O 0.06905 1.00763 0.89443 0.0
O173 O 0.03332 1.00318 0.94983 0.0
O174 O 0.06999 0.03658 0.73903 0.0
O175 O 0.04781 1.01752 0.6431 0.0
O176 O 0.03235 0.98221 0.7407 0.0
O177 O 1.01525 0.99188 0.58658 0.0
O178 O 0.98318 0.04197 0.54294 0.0
O179 O 1.01829 0.04042 0.47738 0.0
O180 O 0.98214 1.00977 0.69143 0.0
O181 O 1.00369 0.0291 0.78968 0.0
O182 O 1.02028 0.06459 0.68985 0.0
O183 O 0.03516 0.05488 0.84796 0.0
H184 H 0.09465 0.97784 0.04981 0.0
H185 H 0.10491 0.93583 0.05977 0.0
H186 H 0.03886 0.91878 0.91008 0.0
H187 H 0.02797 0.95994 0.91002 0.0
H188 H 0.95898 0.07554 0.41163 0.0
H189 H 0.95462 0.1184 0.42267 0.0
H190 H 0.02788 0.12371 0.51569 0.0
H191 H 0.03239 0.08162 0.49773 0.0
La192 La 0.53208 0.03747 0.83326 0.0
La193 La 0.52148 1.01262 0.64804 0.0
C194 C 0.55121 0.05186 0.99532 0.0
C195 C 0.57503 0.0617 0.01098 0.0
C196 C 0.57772 0.08553 0.0388 0.0
C197 C 0.60011 0.09593 0.0388 0.0
C198 C 0.62004 0.08267 0.00986 0.0
C199 C 0.61743 0.05866 0.9861 0.0
C200 C 0.5952 0.04825 0.98691 0.0
C201 C 0.52076 0.06617 0.67933 0.0
C202 C 0.57481 1.0223 0.68027 0.0
C203 C 0.50199 1.00114 0.48312 0.0
C204 C 0.47668 1.00322 0.45971 0.0
C205 C 0.46361 0.98272 0.44107 0.0
C206 C 0.43907 0.98309 0.45082 0.0
C207 C 0.42726 1.00398 0.47977 0.0
C208 C 0.44025 1.02497 0.48889 0.0
C209 C 0.46471 1.0246 0.47894 0.0
C210 C 0.53328 0.98378 0.8 0.0
C211 C 0.47904 0.0269 0.80189 0.0
O212 O 0.53709 0.06487 0.93939 0.0
O213 O 0.5501 0.02952 0.96983 0.0
O214 O 0.51455 0.06917 0.77378 0.0
O215 O 0.53352 0.0478 0.67419 0.0
O216 O 0.56807 0.03043 0.77122 0.0
O217 O 0.55894 1.01537 0.61274 0.0
O218 O 0.50696 0.98601 0.5559 0.0
O219 O 0.51333 1.02103 0.49519 0.0
O220 O 0.53926 0.981 0.70486 0.0
O221 O 0.52035 1.00206 0.80725 0.0
O222 O 0.48572 1.02232 0.70639 0.0
O223 O 0.49523 0.03066 0.87292 0.0
H224 H 0.56243 0.09626 0.05774 0.0
H225 H 0.60181 0.11439 0.05933 0.0
H226 H 0.63265 0.04788 0.9667 0.0
H227 H 0.59385 0.02983 0.96552 0.0
H228 H 0.47248 0.96607 0.42602 0.0
H229 H 0.42946 0.96682 0.43911 0.0
H230 H 0.43181 0.04138 0.51118 0.0
H231 H 0.47428 0.04074 0.49438 0.0
La232 La 0.50975 0.5306 0.83257 0.0
La233 La 0.53781 0.51833 0.64365 0.0
C234 C 0.49253 0.54958 0.99031 0.0
C235 C 0.48311 0.57359 0.00713 0.0
C236 C 0.45977 0.57668 0.04143 0.0
C237 C 0.44963 0.59928 0.04477 0.0
C238 C 0.46263 0.61902 0.01245 0.0
C239 C 0.48615 0.61593 0.98104 0.0
C240 C 0.49634 0.59348 0.97884 0.0
C241 C 0.48403 0.51779 0.67123 0.0
C242 C 0.52618 0.57226 0.67821 0.0
C243 C 0.54933 0.50118 0.47398 0.0
C244 C 0.5649 0.48086 0.45399 0.0
C245 C 0.58126 0.47361 0.52891 0.0
C246 C 0.59263 0.45179 0.52141 0.0
C247 C 0.58781 0.43678 0.43883 0.0
C248 C 0.57256 0.44471 0.36034 0.0
C249 C 0.56111 0.46659 0.36815 0.0
C250 C 0.56806 0.52186 0.80116 0.0
C251 C 0.52404 0.47782 0.80561 0.0
O252 O 0.48028 0.53678 0.92662 0.0
O253 O 0.51527 0.54763 0.97349 0.0
O254 O 0.47979 0.51201 0.76548 0.0
O255 O 0.50233 0.53059 0.6698 0.0
O256 O 0.5165 0.56606 0.7671 0.0
O257 O 0.53442 0.55623 0.61337 0.0
O258 O 0.55953 0.51984 0.5135 0.0
O259 O 0.52964 0.49578 0.52144 0.0
O260 O 0.57375 0.51755 0.70743 0.0
O261 O 0.5459 0.52456 0.80198 0.0
O262 O 0.52888 0.48339 0.70896 0.0
O263 O 0.51918 0.4944 0.87398 0.0
H264 H 0.44923 0.56155 0.06339 0.0
H265 H 0.43156 0.6013 0.0708 0.0
H266 H 0.49678 0.63097 0.95868 0.0
H267 H 0.51441 0.59171 0.9526 0.0
H268 H 0.58442 0.48417 0.5962 0.0
H269 H 0.60437 0.44621 0.58255 0.0
H270 H 0.56823 0.43335 0.29635 0.0
H271 H 0.54835 0.47173 0.31021 0.0
La272 La 1.02195 0.50899 0.80413 0.0
La273 La 0.03287 0.53776 0.6153 0.0
C274 C 1.00312 0.4922 0.96259 0.0
C275 C 0.97795 0.49012 0.98813 0.0
C276 C 0.96904 0.46845 0.02269 0.0
C277 C 0.94466 0.46471 0.02645 0.0
C278 C 0.92878 0.4825 0.99437 0.0
C279 C 0.93791 0.50454 0.96437 0.0
C280 C 0.96218 0.50834 0.96182 0.0
C281 C 0.03589 0.48395 0.64268 0.0
C282 C 0.97939 0.52567 0.65393 0.0
C283 C 0.04953 0.54999 0.44572 0.0
C284 C 0.06957 0.56582 0.42712 0.0
C285 C 0.07647 0.58181 0.5037 0.0
C286 C 0.09834 0.59291 0.49895 0.0
C287 C 0.11374 0.58823 0.41738 0.0
C288 C 0.10612 0.57357 0.33681 0.0
C289 C 0.08419 0.56234 0.34197 0.0
C290 C 0.02818 0.56759 0.77348 0.0
C291 C 0.07452 0.52385 0.77481 0.0
O292 O 1.00969 0.47935 0.88451 0.0
O293 O 1.01167 0.51366 0.95758 0.0
O294 O 0.04194 0.47981 0.73695 0.0
O295 O 1.02227 0.50183 0.64141 0.0
O296 O 0.98623 0.51691 0.74383 0.0
O297 O 0.99498 0.53343 0.58613 0.0
O298 O 0.03067 0.55984 0.48607 0.0
O299 O 0.05532 0.53015 0.49177 0.0
O300 O 0.03223 0.57361 0.67984 0.0
O301 O 0.02632 0.54535 0.77363 0.0
O302 O 0.06843 0.53025 0.68018 0.0
O303 O 0.05846 0.51715 0.84247 0.0
H304 H 0.98096 0.45413 0.04295 0.0
H305 H 0.93834 0.44776 0.05327 0.0
H306 H 0.92645 0.51864 0.93774 0.0
H307 H 0.96855 0.52519 0.93385 0.0
H308 H 0.06564 0.58473 0.57052 0.0
H309 H 0.10373 0.6042 0.56167 0.0
H310 H 0.11778 0.56939 0.2735 0.0
H311 H 0.07933 0.54986 0.28279 0.0
H312 H 0.15821 1.0005 0.11889 0.0
H313 H 0.19195 0.0595 0.26614 0.0
H314 H 0.12695 1.0012 0.24665 0.0
H315 H 0.16008 0.06116 0.39195 0.0
H316 H 0.11136 0.04604 0.66197 0.0
H317 H 0.14254 0.04559 0.53411 0.0
H318 H 0.09331 1.01814 0.3109 0.0
H319 H 0.06251 1.01733 0.44203 0.0
C320 C 0.15881 1.01386 0.17817 0.0
C321 C 0.17771 0.02995 0.18177 0.0
C322 C 0.14066 1.01441 0.25168 0.0
C323 C 0.14049 0.03132 0.33106 0.0
C324 C 0.15947 0.04749 0.33416 0.0
C325 C 0.17786 0.04667 0.2614 0.0
C326 C 0.10716 0.03993 0.58547 0.0
C327 C 0.08434 0.03168 0.5627 0.0
C328 C 0.12513 0.03984 0.51115 0.0
C329 C 0.12089 0.03184 0.41042 0.0
C330 C 0.09777 1.02401 0.38737 0.0
C331 C 0.07987 1.02376 0.46248 0.0
H332 H 0.5403 0.1996 0.34763 0.0
H333 H 0.49784 0.15686 0.1447 0.0
H334 H 0.53981 0.1677 0.47448 0.0
H335 H 0.49885 0.12475 0.26874 0.0
H336 H 0.53251 0.06445 0.4743 0.0
H337 H 0.53174 0.09697 0.34918 0.0
H338 H 0.50816 0.14482 0.58522 0.0
H339 H 0.50813 0.11228 0.70906 0.0
C340 C 0.53073 0.18363 0.3296 0.0
C341 C 0.51935 0.18109 0.23395 0.0
C342 C 0.53064 0.1652 0.40242 0.0
C343 C 0.51957 0.1435 0.38124 0.0
C344 C 0.50795 0.14102 0.28681 0.0
C345 C 0.50754 0.15956 0.21515 0.0
C346 C 0.52695 0.08183 0.49922 0.0
C347 C 0.52023 0.08564 0.60169 0.0
C348 C 0.52653 0.1005 0.42759 0.0
C349 C 0.51996 0.12356 0.45723 0.0
C350 C 0.51348 0.12737 0.55993 0.0
C351 C 0.51336 0.10864 0.63079 0.0
H352 H 0.39607 0.49994 0.12285 0.0
H353 H 0.3517 0.53922 0.33241 0.0
H354 H 0.42781 0.49994 0.24832 0.0
H355 H 0.38332 0.53786 0.46025 0.0
H356 H 0.43763 0.50612 0.69471 0.0
H357 H 0.40591 0.50718 0.56786 0.0
H358 H 0.45551 0.52973 0.33698 0.0
H359 H 0.4874 0.5292 0.46544 0.0
C360 C 0.39293 0.50877 0.1951 0.0
C361 C 0.37101 0.51994 0.21534 0.0
C362 C 0.4113 0.50862 0.2676 0.0
C363 C 0.40833 0.51906 0.36435 0.0
C364 C 0.38627 0.52956 0.38657 0.0
C365 C 0.36798 0.53017 0.31309 0.0
C366 C 0.44188 0.51131 0.61691 0.0
C367 C 0.46518 0.51756 0.59052 0.0
C368 C 0.42357 0.51206 0.54421 0.0
C369 C 0.42801 0.51863 0.44202 0.0
C370 C 0.45142 0.5245 0.41488 0.0
C371 C 0.46972 0.52422 0.48843 0.0
H372 H 1.00872 0.39132 0.11303 0.0
H373 H 0.06168 0.35366 0.28631 0.0
H374 H 1.00883 0.42302 0.23871 0.0
H375 H 0.06315 0.38597 0.4096 0.0
H376 H 0.04856 0.43772 0.66674 0.0
H377 H 0.0477 0.40597 0.54267 0.0
H378 H 1.02549 0.4556 0.3085 0.0
H379 H 1.02484 0.48713 0.43643 0.0
C380 C 1.02056 0.3899 0.17807 0.0
C381 C 0.03511 0.3698 0.18956 0.0
C382 C 1.02085 0.40834 0.25027 0.0
C383 C 0.0361 0.40764 0.33599 0.0
C384 C 0.0507 0.38738 0.34695 0.0
C385 C 0.05 0.36869 0.27566 0.0
C386 C 0.04351 0.44192 0.58864 0.0
C387 C 0.03674 0.46511 0.56202 0.0
C388 C 0.0432 0.42355 0.51634 0.0
C389 C 0.03659 0.42769 0.41347 0.0
C390 C 0.03024 0.45116 0.38655 0.0
C391 C 0.03009 0.4695 0.45986 0.0
H392 H 0.89358 0.99894 0.32497 0.0
H393 H 0.84665 1.01836 0.07782 0.0
H394 H 0.9276 1.00392 0.21143 0.0
H395 H 0.88069 1.02347 0.9642 0.0
H396 H 0.94207 0.99665 0.76294 0.0
H397 H 0.90919 0.99627 0.8829 0.0
H398 H 0.95201 0.03205 0.1075 0.0
H399 H 0.98524 0.03259 0.98564 0.0
C400 C 0.89052 1.0046 0.24667 0.0
C401 C 0.86724 1.00813 0.2107 0.0
C402 C 0.9101 1.00756 0.18156 0.0
C403 C 0.90703 1.01385 0.0779 0.0
C404 C 0.88381 1.01829 0.04305 0.0
C405 C 0.86424 1.01562 0.10858 0.0
C406 C 0.9446 1.00449 0.83784 0.0
C407 C 0.9664 1.01472 0.86418 0.0
C408 C 0.92557 1.00443 0.90662 0.0
C409 C 0.92767 1.01437 0.00495 0.0
C410 C 0.94967 1.02421 0.03254 0.0
C411 C 0.96875 1.02454 0.96275 0.0
H412 H 0.56635 0.88683 0.29928 0.0
H413 H 0.50928 0.85187 0.14057 0.0
H414 H 0.56385 0.91965 0.17905 0.0
H415 H 0.50816 0.88429 0.01578 0.0
H416 H 0.53952 0.93687 0.75964 0.0
H417 H 0.53986 0.90364 0.88004 0.0
H418 H 0.52896 0.95188 0.13116 0.0
H419 H 0.52765 0.98526 0.00976 0.0
C420 C 0.55315 0.88601 0.23941 0.0
C421 C 0.53768 0.86653 0.23223 0.0
C422 C 0.55187 0.90492 0.16989 0.0
C423 C 0.53562 0.90476 0.08868 0.0
C424 C 0.52084 0.88497 0.07791 0.0
C425 C 0.52168 0.86622 0.14919 0.0
C426 C 0.5371 0.94046 0.84049 0.0
C427 C 0.53363 0.9638 0.87506 0.0
C428 C 0.53717 0.92135 0.90935 0.0
C429 C 0.53443 0.92509 0.01509 0.0
C430 C 0.53117 0.94844 0.05006 0.0
C431 C 0.53042 0.96755 0.98067 0.0
H432 H 0.66122 0.56506 0.30766 0.0
H433 H 0.69318 0.50147 0.18737 0.0
H434 H 0.62867 0.5612 0.18632 0.0
H435 H 0.66075 0.49779 0.06543 0.0
H436 H 0.61464 0.51288 0.78627 0.0
H437 H 0.6454 0.51609 0.91434 0.0
H438 H 0.59357 0.53806 0.13792 0.0
H439 H 0.5623 0.53503 0.00675 0.0
C440 C 0.66135 0.55014 0.25585 0.0
C441 C 0.68013 0.53359 0.25819 0.0
C442 C 0.6425 0.5479 0.18611 0.0
C443 C 0.64182 0.52915 0.11549 0.0
C444 C 0.66066 0.51269 0.11733 0.0
C445 C 0.67946 0.51487 0.18731 0.0
C446 C 0.60962 0.51835 0.86267 0.0
C447 C 0.58587 0.52371 0.88568 0.0
C448 C 0.62738 0.52004 0.93691 0.0
C449 C 0.62221 0.5272 0.03751 0.0
C450 C 0.59837 0.53263 0.0612 0.0
C451 C 0.58038 0.53079 0.9862 0.0
H452 H 0.98482 0.66087 0.27857 0.0
H453 H 0.0508 0.6901 0.17257 0.0
H454 H 0.98868 0.62863 0.15615 0.0
H455 H 0.0544 0.65799 0.04882 0.0
H456 H 0.03935 0.61371 0.76304 0.0
H457 H 0.03663 0.64408 0.89313 0.0
H458 H 1.01113 0.59252 0.11046 0.0
H459 H 1.01371 0.56169 0.97745 0.0
C460 C 1.00029 0.66045 0.22981 0.0
C461 C 1.01753 0.67837 0.23672 0.0
C462 C 1.0025 0.64177 0.15934 0.0
C463 C 1.02189 0.64041 0.09216 0.0
C464 C 0.03903 0.65843 0.09819 0.0
C465 C 0.0369 0.67705 0.16916 0.0
C466 C 0.03322 0.60865 0.83861 0.0
C467 C 0.02676 0.5851 0.85932 0.0
C468 C 0.03183 0.6262 0.91391 0.0
C469 C 1.02378 0.62099 0.01329 0.0
C470 C 1.01729 0.59734 0.0347 0.0
C471 C 1.01889 0.57957 0.95874 0.0
H472 H 0.95491 0.23726 0.20477 0.0
H473 H 1.01336 0.26707 0.37179 0.0
H474 H 0.94635 0.21142 0.34848 0.0
H475 H 1.00477 0.2412 0.51632 0.0
H476 H 1.02373 0.15923 0.44252 0.0
H477 H 1.01775 0.20115 0.4409 0.0
H478 H 0.94479 0.19192 0.52841 0.0
H479 H 0.95121 0.14922 0.53822 0.0
C480 C 0.96496 0.23932 0.27492 0.0
C481 C 0.9854 0.2532 0.27613 0.0
C482 C 0.95995 0.22465 0.35799 0.0
C483 C 0.97573 0.22353 0.44112 0.0
C484 C 0.99273 0.24138 0.45168 0.0
C485 C 0.99772 0.25613 0.36863 0.0
C486 C 1.00666 0.16586 0.46664 0.0
C487 C 0.9878 0.15056 0.48772 0.0
C488 C 1.00325 0.19017 0.46639 0.0
C489 C 0.98072 0.19987 0.48422 0.0
C490 C 0.96232 0.18487 0.5144 0.0
C491 C 0.96592 0.1604 0.51741 0.0
H492 H 0.31216 0.96595 0.2641 0.0
H493 H 0.28606 0.03218 0.38222 0.0
H494 H 0.3382 0.96195 0.41062 0.0
H495 H 0.31238 0.0284 0.52967 0.0
H496 H 0.39479 0.03865 0.43901 0.0
H497 H 0.35248 0.03592 0.45029 0.0
H498 H 0.35865 0.96603 0.58213 0.0
H499 H 0.40165 0.96918 0.57518 0.0
C500 C 0.31098 0.97888 0.32508 0.0
C501 C 0.29798 0.99974 0.31114 0.0
C502 C 0.32576 0.97657 0.40984 0.0
C503 C 0.32812 0.99553 0.4786 0.0
C504 C 0.31125 1.01385 0.47607 0.0
C505 C 0.29629 1.01607 0.39149 0.0
C506 C 0.38734 1.02306 0.47443 0.0
C507 C 0.40162 1.00377 0.5024 0.0
C508 C 0.36291 1.02158 0.48221 0.0
C509 C 0.35219 1.00058 0.51605 0.0
C510 C 0.36648 0.98232 0.55504 0.0
C511 C 0.39103 0.98394 0.5485 0.0
H512 H 0.59863 0.29792 0.22302 0.0
H513 H 0.53793 0.31051 0.4146 0.0
H514 H 0.6206 0.32798 0.31655 0.0
H515 H 0.55937 0.34071 0.5069 0.0
H516 H 0.6062 0.41081 0.2817 0.0
H517 H 0.60834 0.36805 0.27312 0.0
H518 H 0.58961 0.3634 0.59386 0.0
H519 H 0.58682 0.40635 0.60131 0.0
C520 C 0.59056 0.30604 0.28965 0.0
C521 C 0.5666 0.30236 0.31121 0.0
C522 C 0.60303 0.32342 0.34255 0.0
C523 C 0.59142 0.3374 0.41615 0.0
C524 C 0.56886 0.33048 0.45007 0.0
C525 C 0.55647 0.31307 0.39737 0.0
C526 C 0.60324 0.40066 0.35103 0.0
C527 C 0.59579 0.41184 0.44122 0.0
C528 C 0.60481 0.37609 0.34683 0.0
C529 C 0.59879 0.36223 0.43271 0.0
C530 C 0.59411 0.37358 0.52626 0.0
C531 C 0.59258 0.3982 0.53046 0.0
H532 H 0.23801 0.53376 0.38883 0.0
H533 H 0.25398 0.59663 0.21605 0.0
H534 H 0.20797 0.55515 0.48371 0.0
H535 H 0.22399 0.61849 0.31196 0.0
H536 H 0.1408 0.60758 0.26629 0.0
H537 H 0.18364 0.60824 0.26137 0.0
H538 H 0.18627 0.58557 0.57797 0.0
H539 H 0.14324 0.58443 0.58182 0.0
C540 C 0.23616 0.55263 0.37642 0.0
C541 C 0.24787 0.56357 0.29473 0.0
C542 C 0.21889 0.565 0.43068 0.0
C543 C 0.21302 0.58834 0.40256 0.0
C544 C 0.22781 0.60037 0.33354 0.0
C545 C 0.24511 0.58795 0.27926 0.0
C546 C 0.15054 0.60351 0.3357 0.0
C547 C 0.13877 0.59546 0.42343 0.0
C548 C 0.17515 0.60419 0.33364 0.0
C549 C 0.18842 0.59661 0.41912 0.0
C550 C 0.17653 0.59131 0.51078 0.0
C551 C 0.15187 0.59071 0.51291 0.0
H552 H 0.10654 0.80919 0.30159 0.0
H553 H 0.05761 0.77886 0.08596 0.0
H554 H 0.11847 0.83802 0.17389 0.0
H555 H 0.06992 0.80738 0.95715 0.0
H556 H 0.04238 0.88674 0.00971 0.0
H557 H 0.05142 0.84559 0.03033 0.0
H558 H 0.12593 0.86011 1.00094 0.0
H559 H 0.11678 0.90199 0.97226 0.0
C560 C 0.09964 0.80757 0.22441 0.0
C561 C 0.08033 0.79273 0.20477 0.0
C562 C 0.10653 0.8241 0.15083 0.0
C563 C 0.09412 0.82565 0.05777 0.0
C564 C 0.07922 0.80691 0.02977 0.0
C565 C 0.07221 0.79048 0.10362 0.0
C566 C 0.06067 0.88136 1.00252 0.0
C567 C 0.07879 0.898 0.98932 0.0
C568 C 0.06588 0.85751 0.01412 0.0
C569 C 0.08941 0.8495 0.01554 0.0
C570 C 0.10763 0.86581 0.99885 0.0
C571 C 0.10235 0.88982 0.98449 0.0
H572 H 0.75094 0.10203 0.27973 0.0
H573 H 0.74925 0.04232 0.07559 0.0
H574 H 0.72222 0.12269 0.17215 0.0
H575 H 0.7198 0.06195 0.97149 0.0
H576 H 0.65313 0.08138 0.85795 0.0
H577 H 0.6955 0.08753 0.87944 0.0
H578 H 0.68282 0.11174 0.18936 0.0
H579 H 0.64084 0.10655 0.16525 0.0
C580 C 0.7453 0.09388 0.20876 0.0
C581 C 0.75169 0.07045 0.18675 0.0
C582 C 0.72863 0.10554 0.14774 0.0
C583 C 0.71763 0.0935 0.06644 0.0
C584 C 0.72744 0.0718 0.03421 0.0
C585 C 0.74446 0.06039 0.09403 0.0
C586 C 0.65952 0.08887 0.92908 0.0
C587 C 0.64396 0.09292 0.01111 0.0
C588 C 0.68376 0.09237 0.94157 0.0
C589 C 0.69283 0.09936 0.03724 0.0
C590 C 0.67677 0.10634 0.11431 0.0
C591 C 0.65254 0.1032 0.10111 0.0
H592 H 0.44402 0.74971 0.29208 0.0
H593 H 0.50171 0.74949 0.07698 0.0
H594 H 0.4232 0.72074 0.18804 0.0
H595 H 0.48196 0.71981 0.97595 0.0
H596 H 0.46243 0.6529 0.86309 0.0
H597 H 0.45611 0.69521 0.88821 0.0
H598 H 0.43557 0.68148 0.20236 0.0
H599 H 0.44089 0.63956 0.17495 0.0
C600 C 0.45158 0.74444 0.21926 0.0
C601 C 0.47459 0.75129 0.19305 0.0
C602 C 0.43987 0.72756 0.16037 0.0
C603 C 0.45144 0.71688 0.07677 0.0
C604 C 0.47249 0.7272 0.04054 0.0
C605 C 0.48394 0.7444 0.09839 0.0
C606 C 0.45574 0.65905 0.93622 0.0
C607 C 0.45269 0.64317 0.01804 0.0
C608 C 0.45215 0.68326 0.95075 0.0
C609 C 0.44602 0.69201 0.04814 0.0
C610 C 0.44021 0.67567 0.12596 0.0
C611 C 0.44344 0.65148 0.11081 0.0
H612 H 0.81134 0.44684 0.27781 0.0
H613 H 0.784 0.50321 0.08832 0.0
H614 H 0.8404 0.4374 0.14718 0.0
H615 H 0.81292 0.49359 0.95672 0.0
H616 H 0.89346 0.51446 0.03274 0.0
H617 H 0.85169 0.50753 0.04375 0.0
H618 H 0.86255 0.43385 0.97155 0.0
H619 H 0.90495 0.44106 0.95303 0.0
C620 C 0.81043 0.45606 0.20499 0.0
C621 C 0.79633 0.47642 0.19458 0.0
C622 C 0.82708 0.45062 0.12973 0.0
C623 C 0.82959 0.46561 0.04448 0.0
C624 C 0.81166 0.4822 0.02338 0.0
C625 C 0.79503 0.48768 0.09878 0.0
C626 C 0.88713 0.49694 0.01457 0.0
C627 C 0.90284 0.47832 0.99288 0.0
C628 C 0.86297 0.49298 0.02039 0.0
C629 C 0.85378 0.47017 0.00706 0.0
C630 C 0.86919 0.45163 0.98107 0.0
C631 C 0.89349 0.45573 0.97269 0.0
H632 H 0.98617 0.2174 0.91452 0.0
H633 H 0.05894 0.21563 0.00995 0.0
H634 H 0.98954 0.17712 0.8507 0.0
H635 H 0.06276 0.17516 0.94397 0.0
H636 H 0.05237 0.09361 0.9372 0.0
H637 H 0.05181 0.13558 0.98253 0.0
H638 H 1.00333 0.14936 0.73335 0.0
H639 H 1.00295 0.10736 0.69296 0.0
C640 C 1.00322 0.20865 0.91833 0.0
C641 C 1.0224 0.22009 0.96553 0.0
C642 C 1.00519 0.18532 0.88196 0.0
C643 C 0.02642 0.17232 0.89213 0.0
C644 C 0.04596 0.18418 0.93565 0.0
C645 C 0.04397 0.20767 0.97183 0.0
C646 C 0.04157 0.1056 0.89214 0.0
C647 C 0.028 0.09692 0.80991 0.0
C648 C 0.04143 0.12988 0.91748 0.0
C649 C 0.02763 0.14639 0.86177 0.0
C650 C 1.0141 0.13756 0.77939 0.0
C651 C 1.01418 0.11333 0.75461 0.0
H652 H 0.33853 0.05903 0.06339 0.0
H653 H 0.32755 0.99522 0.89156 0.0
H654 H 0.37897 0.06138 0.99907 0.0
H655 H 0.36825 0.99695 0.82854 0.0
H656 H 0.44112 1.01092 0.68992 0.0
H657 H 0.39904 1.01286 0.73122 0.0
H658 H 0.41606 0.04418 0.02337 0.0
H659 H 0.45789 0.04346 0.97864 0.0
C660 C 0.34455 0.04589 0.00895 0.0
C661 C 0.32945 0.02732 0.98047 0.0
C662 C 0.36805 0.04689 0.97355 0.0
C663 C 0.37752 0.02914 0.90933 0.0
C664 C 0.36194 1.01115 0.87692 0.0
C665 C 0.33837 1.01021 0.91237 0.0
C666 C 0.43584 1.01875 0.76174 0.0
C667 C 0.45312 0.02751 0.82934 0.0
C668 C 0.41157 1.01951 0.78658 0.0
C669 C 0.4036 0.02884 0.8808 0.0
C670 C 0.42103 0.03735 0.949 0.0
C671 C 0.44527 0.0367 0.92373 0.0
H672 H 0.55266 0.32644 0.90817 0.0
H673 H 0.49384 0.342 0.10608 0.0
H674 H 0.55057 0.36646 0.83704 0.0
H675 H 0.4911 0.38183 0.03385 0.0
H676 H 0.51338 0.45902 0.99478 0.0
H677 H 0.51212 0.41767 0.0462 0.0
H678 H 0.53159 0.39672 0.73932 0.0
H679 H 0.53339 0.43826 0.68853 0.0
C680 C 0.53857 0.33811 0.93305 0.0
C681 C 0.52301 0.33078 0.01082 0.0
C682 C 0.53745 0.36123 0.89294 0.0
C683 C 0.52085 0.37783 0.93021 0.0
C684 C 0.50447 0.36993 0.00419 0.0
C685 C 0.50565 0.34686 0.0443 0.0
C686 C 0.51741 0.44566 0.93794 0.0
C687 C 0.52347 0.45224 0.83719 0.0
C688 C 0.51645 0.42175 0.96735 0.0
C689 C 0.52149 0.40347 0.89709 0.0
C690 C 0.5277 0.41008 0.7963 0.0
C691 C 0.52865 0.43404 0.76682 0.0
H692 H 0.22453 0.556 0.89334 0.0
H693 H 0.21177 0.49204 0.06302 0.0
H694 H 0.18478 0.554 0.81977 0.0
H695 H 0.17222 0.48948 0.98831 0.0
H696 H 0.11366 0.5377 0.66239 0.0
H697 H 0.15531 0.53644 0.71294 0.0
H698 H 0.13537 0.50856 0.00878 0.0
H699 H 0.09407 0.50938 0.9577 0.0
C700 C 0.21358 0.5409 0.91128 0.0
C701 C 0.22164 0.52382 0.98192 0.0
C702 C 0.19059 0.53982 0.86976 0.0
C703 C 0.17479 0.52174 0.8986 0.0
C704 C 0.18345 0.50398 0.96526 0.0
C705 C 0.20641 0.50511 0.00669 0.0
C706 C 0.11815 0.53121 0.73816 0.0
C707 C 0.10022 0.52357 0.80551 0.0
C708 C 0.14217 0.53057 0.76752 0.0
C709 C 0.14912 0.52216 0.8651 0.0
C710 C 0.1311 0.51465 0.93224 0.0
C711 C 0.10717 0.51535 0.90308 0.0
H712 H 0.03639 0.81954 0.61252 0.0
H713 H 1.01669 0.84314 0.31029 0.0
H714 H 0.03122 0.85996 0.67746 0.0
H715 H 1.01235 0.88335 0.37242 0.0
H716 H 0.99454 0.95409 0.51027 0.0
H717 H 0.99307 0.91247 0.46319 0.0
H718 H 0.04932 0.89729 0.67802 0.0
H719 H 0.05022 0.93894 0.72627 0.0
C720 C 0.03024 0.83322 0.56063 0.0
C721 C 0.02648 0.82793 0.45658 0.0
C722 C 0.02772 0.85661 0.59723 0.0
C723 C 1.02151 0.87544 0.53063 0.0
C724 C 1.01675 0.86969 0.42748 0.0
C725 C 1.01918 0.84644 0.39138 0.0
C726 C 1.00658 0.94187 0.5477 0.0
C727 C 1.02241 0.95004 0.62276 0.0
C728 C 1.00583 0.91782 0.52032 0.0
C729 C 1.02114 0.90101 0.56593 0.0
C730 C 0.03687 0.90926 0.64184 0.0
C731 C 0.03745 0.93332 0.66973 0.0
H732 H 0.71706 0.99139 0.42956 0.0
H733 H 0.72064 0.06217 0.54906 0.0
H734 H 0.67722 0.98717 0.50133 0.0
H735 H 0.68095 0.05831 0.61927 0.0
H736 H 0.59618 1.00135 0.51331 0.0
H737 H 0.63792 1.00135 0.46594 0.0
H738 H 0.6541 0.0415 0.73801 0.0
H739 H 0.61228 0.04205 0.78299 0.0
C740 C 0.70966 1.00577 0.47406 0.0
C741 C 0.72225 0.02701 0.4845 0.0
C742 C 0.68657 1.00356 0.51372 0.0
C743 C 0.67542 1.02249 0.56547 0.0
C744 C 0.68871 0.04319 0.58099 0.0
C745 C 0.71164 0.04543 0.54088 0.0
C746 C 0.60862 1.01014 0.56334 0.0
C747 C 0.60064 1.02164 0.65268 0.0
C748 C 0.63274 1.00995 0.53654 0.0
C749 C 0.64977 1.02135 0.5979 0.0
C750 C 0.64174 0.03266 0.68779 0.0
C751 C 0.61764 0.0328 0.71451 0.0
H752 H 0.55631 0.71357 0.41652 0.0
H753 H 0.48674 0.71839 0.54843 0.0
H754 H 0.56091 0.67363 0.48831 0.0
H755 H 0.49083 0.67864 0.61803 0.0
H756 H 0.50719 0.61027 0.78054 0.0
H757 H 0.50799 0.65188 0.73393 0.0
H758 H 0.54668 0.63451 0.4586 0.0
H759 H 0.54662 0.59288 0.50809 0.0
C760 C 0.54232 0.70638 0.46365 0.0
C761 C 0.52134 0.71934 0.47827 0.0
C762 C 0.54471 0.68327 0.50331 0.0
C763 C 0.52616 0.6725 0.55864 0.0
C764 C 0.5057 0.68612 0.57733 0.0
C765 C 0.50333 0.70907 0.5376 0.0
C766 C 0.51616 0.61527 0.71085 0.0
C767 C 0.52691 0.59796 0.64888 0.0
C768 C 0.51644 0.63929 0.68326 0.0
C769 C 0.52738 0.64693 0.59194 0.0
C770 C 0.53838 0.62962 0.53029 0.0
C771 C 0.53814 0.60556 0.55826 0.0
H772 H 0.83402 0.55509 0.42682 0.0
H773 H 0.83243 0.48463 0.55153 0.0
H774 H 0.87477 0.55969 0.48829 0.0
H775 H 0.87297 0.48865 0.61018 0.0
H776 H 0.94328 0.50344 0.75497 0.0
H777 H 0.90119 0.50411 0.71869 0.0
H778 H 0.91405 0.54753 0.45179 0.0
H779 H 0.95623 0.54798 0.49294 0.0
C780 C 0.8421 0.54087 0.47035 0.0
C781 C 0.82969 0.51968 0.48614 0.0
C782 C 0.86573 0.54326 0.50391 0.0
C783 C 0.87769 0.52449 0.55402 0.0
C784 C 0.86469 0.50375 0.57366 0.0
C785 C 0.84122 0.50141 0.54024 0.0
C786 C 0.93715 0.51362 0.69 0.0
C787 C 0.95339 0.52597 0.62843 0.0
C788 C 0.91283 0.5137 0.66775 0.0
C789 C 0.90371 0.52584 0.58163 0.0
C790 C 0.92001 0.53826 0.51978 0.0
C791 C 0.9444 0.53831 0.54278 0.0
loop_
_geom_bond_atom_site_label_1
_geom_bond_atom_site_label_2
_geom_bond_distance
_geom_bond_site_symmetry_2
_ccdc_geom_bond_type
H0 C1 0.949 . S
C1 H0 0.949 . S
C1 C2 1.395 . S
C1 C3 1.391 . S
C2 C1 1.395 . S
C2 C5 1.390 . S
C3 C1 1.391 . S
C3 C7 1.387 . S
C3 C8 1.491 . S
H4 C5 0.950 . S
C5 C2 1.390 . S
C5 H4 0.950 . S
C5 C6 1.378 . S
C6 C5 1.378 . S
C6 C7 1.409 . S
C7 C3 1.387 . S
C7 C6 1.409 . S
C7 H9 0.951 . S
C8 C3 1.491 . S
C8 C10 1.382 . S
C8 C12 1.404 . S
H9 C7 0.951 . S
C10 C8 1.382 . S
C10 C11 1.390 . S
C10 H15 0.949 . S
C11 C10 1.390 . S
C11 C16 1.399 . S
C12 C8 1.404 . S
C12 H13 0.950 . S
C12 C14 1.375 . S
H13 C12 0.950 . S
C14 C12 1.375 . S
C14 C16 1.382 . S
C14 H18 0.950 . S
H15 C10 0.949 . S
C16 C11 1.399 . S
C16 C14 1.382 . S
C16 H17 0.952 . S
H17 C16 0.952 . S
H18 C14 0.950 . S
H19 C20 0.949 . S
C20 H19 0.949 . S
C20 C21 1.395 . S
C20 C22 1.391 . S
C21 C20 1.395 . S
C21 C24 1.390 1_655 S
C22 C20 1.391 . S
C22 C26 1.387 . S
C22 C27 1.491 . S
H23 C24 0.950 . S
C24 C21 1.390 1_455 S
C24 H23 0.950 . S
C24 C25 1.377 1_455 S
C25 C24 1.377 1_655 S
C25 C26 1.413 . S
C26 C22 1.387 . S
C26 C25 1.413 . S
C26 H28 0.951 . S
C27 C22 1.491 . S
C27 C29 1.382 . S
C27 C31 1.404 . S
H28 C26 0.951 . S
C29 C27 1.382 . S
C29 C30 1.390 . S
C29 H34 0.949 1_655 S
C30 C29 1.390 . S
C30 C35 1.399 . S
C31 C27 1.404 . S
C31 H32 0.950 . S
C31 C33 1.375 . S
H32 C31 0.950 . S
C33 C31 1.375 . S
C33 C35 1.382 . S
C33 H37 0.950 . S
H34 C29 0.949 1_455 S
C35 C30 1.399 . S
C35 C33 1.382 . S
C35 H36 0.952 . S
H36 C35 0.952 . S
H37 C33 0.950 . S
H38 C39 0.949 . S
C39 H38 0.949 . S
C39 C40 1.395 . S
C39 C41 1.391 . S
C40 C39 1.395 . S
C40 C43 1.390 1_565 S
C41 C39 1.391 . S
C41 C45 1.387 . S
C41 C46 1.491 . S
H42 C43 0.950 . S
C43 C40 1.390 1_545 S
C43 H42 0.950 . S
C43 C44 1.377 1_545 S
C44 C43 1.377 1_565 S
C44 C45 1.413 . S
C45 C41 1.387 . S
C45 C44 1.413 . S
C45 H47 0.951 . S
C46 C41 1.491 . S
C46 C48 1.382 . S
C46 C50 1.404 . S
H47 C45 0.951 . S
C48 C46 1.382 . S
C48 C49 1.390 . S
C48 H53 0.949 1_565 S
C49 C48 1.390 . S
C49 C54 1.399 . S
C50 C46 1.404 . S
C50 H51 0.950 . S
C50 C52 1.375 . S
H51 C50 0.950 . S
C52 C50 1.375 . S
C52 C54 1.382 . S
C52 H56 0.950 . S
H53 C48 0.949 1_545 S
C54 C49 1.399 . S
C54 C52 1.382 . S
C54 H55 0.952 . S
H55 C54 0.952 . S
H56 C52 0.950 . S
H57 C58 0.949 . S
C58 H57 0.949 . S
C58 C59 1.395 . S
C58 C60 1.391 . S
C59 C58 1.395 . S
C59 C62 1.390 . S
C60 C58 1.391 . S
C60 C64 1.387 . S
C60 C65 1.491 . S
H61 C62 0.950 . S
C62 C59 1.390 . S
C62 H61 0.950 . S
C62 C63 1.378 . S
C63 C62 1.378 . S
C63 C64 1.409 . S
C64 C60 1.387 . S
C64 C63 1.409 . S
C64 H66 0.951 . S
C65 C60 1.491 . S
C65 C67 1.382 . S
C65 C69 1.404 . S
H66 C64 0.951 . S
C67 C65 1.382 . S
C67 C68 1.390 . S
C67 H72 0.949 . S
C68 C67 1.390 . S
C68 C73 1.399 . S
C69 C65 1.404 . S
C69 H70 0.950 . S
C69 C71 1.375 . S
H70 C69 0.950 . S
C71 C69 1.375 . S
C71 C73 1.382 . S
C71 H75 0.950 . S
H72 C67 0.949 . S
C73 C68 1.399 . S
C73 C71 1.382 . S
C73 H74 0.952 . S
H74 C73 0.952 . S
H75 C71 0.950 . S
H76 C77 0.949 . S
C77 H76 0.949 . S
C77 C78 1.395 . S
C77 C79 1.391 1_554 S
C78 C77 1.395 . S
C78 C81 1.390 1_554 S
C79 C77 1.391 1_556 S
C79 C83 1.387 . S
C79 C84 1.491 . S
H80 C81 0.950 . S
C81 C78 1.390 1_556 S
C81 H80 0.950 . S
C81 C82 1.378 . S
C82 C81 1.378 . S
C82 C83 1.409 . S
C83 C79 1.387 . S
C83 C82 1.409 . S
C83 H85 0.951 . S
C84 C79 1.491 . S
C84 C86 1.382 1_556 S
C84 C88 1.404 . S
H85 C83 0.951 . S
C86 C84 1.382 1_554 S
C86 C87 1.390 . S
C86 H91 0.949 . S
C87 C86 1.390 . S
C87 C92 1.399 1_554 S
C88 C84 1.404 . S
C88 H89 0.950 . S
C88 C90 1.375 . S
H89 C88 0.950 . S
C90 C88 1.375 . S
C90 C92 1.382 . S
C90 H94 0.950 . S
H91 C86 0.949 . S
C92 C87 1.399 1_556 S
C92 C90 1.382 . S
C92 H93 0.952 . S
H93 C92 0.952 . S
H94 C90 0.950 . S
H95 C96 0.949 . S
C96 H95 0.949 . S
C96 C97 1.395 1_655 S
C96 C98 1.391 1_554 S
C97 C96 1.395 1_455 S
C97 C100 1.390 1_554 S
C98 C96 1.391 1_556 S
C98 C102 1.387 . S
C98 C103 1.491 . S
H99 C100 0.950 . S
C100 C97 1.390 1_556 S
C100 H99 0.950 . S
C100 C101 1.377 1_455 S
C101 C100 1.377 1_655 S
C101 C102 1.411 . S
C102 C98 1.387 . S
C102 C101 1.411 . S
C102 H104 0.951 . S
C103 C98 1.491 . S
C103 C105 1.402 1_556 S
C103 C107 1.404 . S
H104 C102 0.951 . S
C105 C103 1.402 1_554 S
C105 C106 1.400 . S
C105 H110 0.920 1_655 S
C106 C105 1.400 . S
C106 C111 1.399 1_554 S
C107 C103 1.404 . S
C107 H108 0.950 . S
C107 C109 1.375 . S
H108 C107 0.950 . S
C109 C107 1.375 . S
C109 C111 1.382 . S
C109 H113 0.950 . S
H110 C105 0.920 1_455 S
C111 C106 1.399 1_556 S
C111 C109 1.382 . S
C111 H112 0.952 . S
H112 C111 0.952 . S
H113 C109 0.950 . S
H114 C115 0.949 . S
C115 H114 0.949 . S
C115 C116 1.395 1_565 S
C115 C117 1.391 1_554 S
C116 C115 1.395 1_545 S
C116 C119 1.390 1_554 S
C117 C115 1.391 1_556 S
C117 C121 1.387 . S
C117 C122 1.491 . S
H118 C119 0.950 . S
C119 C116 1.390 1_556 S
C119 H118 0.950 . S
C119 C120 1.377 1_545 S
C120 C119 1.377 1_565 S
C120 C121 1.411 . S
C121 C117 1.387 . S
C121 C120 1.411 . S
C121 H123 0.951 . S
C122 C117 1.491 . S
C122 C124 1.402 1_556 S
C122 C126 1.404 . S
H123 C121 0.951 . S
C124 C122 1.402 1_554 S
C124 C125 1.400 . S
C124 H129 0.920 1_565 S
C125 C124 1.400 . S
C125 C130 1.399 1_554 S
C126 C122 1.404 . S
C126 H127 0.950 . S
C126 C128 1.375 . S
H127 C126 0.950 . S
C128 C126 1.375 . S
C128 C130 1.382 . S
C128 H132 0.950 . S
H129 C124 0.920 1_545 S
C130 C125 1.399 1_556 S
C130 C128 1.382 . S
C130 H131 0.952 . S
H131 C130 0.952 . S
H132 C128 0.950 . S
H133 C134 0.949 . S
C134 H133 0.949 . S
C134 C135 1.395 . S
C134 C136 1.391 1_554 S
C135 C134 1.395 . S
C135 C138 1.390 1_554 S
C136 C134 1.391 1_556 S
C136 C140 1.387 . S
C136 C141 1.491 . S
H137 C138 0.950 . S
C138 C135 1.390 1_556 S
C138 H137 0.950 . S
C138 C139 1.378 . S
C139 C138 1.378 . S
C139 C140 1.409 . S
C140 C136 1.387 . S
C140 C139 1.409 . S
C140 H142 0.951 . S
C141 C136 1.491 . S
C141 C143 1.382 1_556 S
C141 C145 1.404 . S
H142 C140 0.951 . S
C143 C141 1.382 1_554 S
C143 C144 1.390 . S
C143 H148 0.949 . S
C144 C143 1.390 . S
C144 C149 1.399 1_554 S
C145 C141 1.404 . S
C145 H146 0.950 . S
C145 C147 1.375 . S
H146 C145 0.950 . S
C147 C145 1.375 . S
C147 C149 1.382 . S
C147 H151 0.950 . S
H148 C143 0.949 . S
C149 C144 1.399 1_556 S
C149 C147 1.382 . S
C149 H150 0.952 . S
H150 C149 0.952 . S
H151 C147 0.950 . S
La152 C154 2.928 . S
La152 O172 2.521 . S
La152 O173 2.626 1_455 S
La152 O174 2.554 . S
La152 O175 2.757 1_565 S
La152 O176 2.470 . S
La152 O181 2.482 1_455 S
La152 O183 2.503 1_565 S
La153 C163 2.928 . S
La153 O175 2.482 1_655 S
La153 O177 2.503 1_545 S
La153 O178 2.521 . S
La153 O179 2.621 1_655 S
La153 O180 2.554 . S
La153 O181 2.757 1_545 S
La153 O182 2.470 . S
C154 La152 2.928 . S
C154 C155 1.503 1_556 S
C154 O172 1.261 . S
C154 O173 1.237 1_455 S
C155 C154 1.503 1_554 S
C155 C156 1.394 . S
C155 C160 1.373 . S
C156 C155 1.394 . S
C156 C157 1.380 . S
C156 H184 0.930 . S
C157 C156 1.380 . S
C157 C158 1.376 . S
C157 H185 0.930 . S
C158 C157 1.376 . S
C158 C159 1.370 . S
C159 C158 1.370 . S
C159 C160 1.396 . S
C159 H186 0.929 1_455 S
C160 C155 1.373 . S
C160 C159 1.396 . S
C160 H187 0.929 1_455 S
C161 O174 1.267 . S
C161 O175 1.273 1_565 S
C162 O176 1.258 1_655 S
C162 O177 1.256 . S
C163 La153 2.928 . S
C163 C164 1.503 . S
C163 O178 1.261 . S
C163 O179 1.227 1_655 S
C164 C163 1.503 . S
C164 C165 1.394 . S
C164 C169 1.373 . S
C165 C164 1.394 . S
C165 C166 1.380 . S
C165 H188 0.930 . S
C166 C165 1.380 . S
C166 C167 1.376 . S
C166 H189 0.930 . S
C167 C166 1.376 . S
C167 C168 1.370 . S
C168 C167 1.370 . S
C168 C169 1.396 . S
C168 H190 0.929 1_655 S
C169 C164 1.373 . S
C169 C168 1.396 . S
C169 H191 0.929 1_655 S
C170 O180 1.240 . S
C170 O181 1.289 1_545 S
C171 O182 1.258 1_455 S
C171 O183 1.256 . S
O172 La152 2.521 . S
O172 C154 1.261 . S
O173 La152 2.626 1_655 S
O173 C154 1.237 1_655 S
O174 La152 2.554 . S
O174 C161 1.267 . S
O175 La152 2.757 1_545 S
O175 La153 2.482 1_455 S
O175 C161 1.273 1_545 S
O176 La152 2.470 . S
O176 C162 1.258 1_455 S
O177 La153 2.503 1_565 S
O177 C162 1.256 . S
O178 La153 2.521 . S
O178 C163 1.261 . S
O179 La153 2.621 1_455 S
O179 C163 1.227 1_455 S
O180 La153 2.554 . S
O180 C170 1.240 . S
O181 La152 2.482 1_655 S
O181 La153 2.757 1_565 S
O181 C170 1.289 1_565 S
O182 La153 2.470 . S
O182 C171 1.258 1_655 S
O183 La152 2.503 1_545 S
O183 C171 1.256 . S
H184 C156 0.930 . S
H185 C157 0.930 . S
H186 C159 0.929 1_655 S
H187 C160 0.929 1_655 S
H188 C165 0.930 . S
H189 C166 0.930 . S
H190 C168 0.929 1_455 S
H191 C169 0.929 1_455 S
La192 C194 2.928 . S
La192 O212 2.521 . S
La192 O213 2.625 1_545 S
La192 O214 2.554 . S
La192 O215 2.757 . S
La192 O216 2.470 . S
La192 O221 2.482 1_545 S
La192 O223 2.503 . S
La193 C203 2.928 . S
La193 O215 2.482 1_565 S
La193 O217 2.503 . S
La193 O218 2.521 . S
La193 O219 2.620 1_565 S
La193 O220 2.554 . S
La193 O221 2.757 . S
La193 O222 2.470 . S
C194 La192 2.928 . S
C194 C195 1.503 1_556 S
C194 O212 1.261 . S
C194 O213 1.235 1_545 S
C195 C194 1.503 1_554 S
C195 C196 1.394 . S
C195 C200 1.373 . S
C196 C195 1.394 . S
C196 C197 1.380 . S
C196 H224 0.930 . S
C197 C196 1.380 . S
C197 C198 1.376 . S
C197 H225 0.930 . S
C198 C197 1.376 . S
C198 C199 1.370 . S
C199 C198 1.370 . S
C199 C200 1.396 . S
C199 H226 0.929 1_545 S
C200 C195 1.373 . S
C200 C199 1.396 . S
C200 H227 0.929 1_545 S
C201 O214 1.240 . S
C201 O215 1.289 . S
C202 O216 1.258 1_565 S
C202 O217 1.256 . S
C203 La193 2.928 . S
C203 C204 1.503 . S
C203 O218 1.261 . S
C203 O219 1.224 1_565 S
C204 C203 1.503 . S
C204 C205 1.394 . S
C204 C209 1.373 . S
C205 C204 1.394 . S
C205 C206 1.380 . S
C205 H228 0.930 . S
C206 C205 1.380 . S
C206 C207 1.376 . S
C206 H229 0.930 . S
C207 C206 1.376 . S
C207 C208 1.370 . S
C208 C207 1.370 . S
C208 C209 1.396 . S
C208 H230 0.929 1_565 S
C209 C204 1.373 . S
C209 C208 1.396 . S
C209 H231 0.929 1_565 S
C210 O220 1.240 . S
C210 O221 1.289 . S
C211 O222 1.258 1_545 S
C211 O223 1.256 . S
O212 La192 2.521 . S
O212 C194 1.261 . S
O213 La192 2.625 1_565 S
O213 C194 1.235 1_565 S
O214 La192 2.554 . S
O214 C201 1.240 . S
O215 La192 2.757 . S
O215 La193 2.482 1_545 S
O215 C201 1.289 . S
O216 La192 2.470 . S
O216 C202 1.258 1_545 S
O217 La193 2.503 . S
O217 C202 1.256 . S
O218 La193 2.521 . S
O218 C203 1.261 . S
O219 La193 2.620 1_545 S
O219 C203 1.224 1_545 S
O220 La193 2.554 . S
O220 C210 1.240 . S
O221 La192 2.482 1_565 S
O221 La193 2.757 . S
O221 C210 1.289 . S
O222 La193 2.470 . S
O222 C211 1.258 1_565 S
O223 La192 2.503 . S
O223 C211 1.256 . S
H224 C196 0.930 . S
H225 C197 0.930 . S
H226 C199 0.929 1_565 S
H227 C200 0.929 1_565 S
H228 C205 0.930 . S
H229 C206 0.930 . S
H230 C208 0.929 1_545 S
H231 C209 0.929 1_545 S
La232 C234 2.928 . S
La232 O252 2.521 . S
La232 O253 2.628 . S
La232 O254 2.554 . S
La232 O255 2.757 . S
La232 O256 2.470 . S
La232 O261 2.482 . S
La232 O263 2.503 . S
La233 C243 2.928 . S
La233 O255 2.482 . S
La233 O257 2.503 . S
La233 O258 2.521 . S
La233 O259 2.628 . S
La233 O260 2.554 . S
La233 O261 2.757 . S
La233 O262 2.470 . S
C234 La232 2.928 . S
C234 C235 1.503 1_556 S
C234 O252 1.261 . S
C234 O253 1.243 . S
C235 C234 1.503 1_554 S
C235 C236 1.394 . S
C235 C240 1.373 . S
C236 C235 1.394 . S
C236 C237 1.380 . S
C236 H264 0.930 . S
C237 C236 1.380 . S
C237 C238 1.376 . S
C237 H265 0.930 . S
C238 C237 1.376 . S
C238 C239 1.370 . S
C239 C238 1.370 . S
C239 C240 1.396 . S
C239 H266 0.929 . S
C240 C235 1.373 . S
C240 C239 1.396 . S
C240 H267 0.929 . S
C241 O254 1.240 . S
C241 O255 1.289 . S
C242 O256 1.258 . S
C242 O257 1.256 . S
C243 La233 2.928 . S
C243 C244 1.503 . S
C243 O258 1.261 . S
C243 O259 1.243 . S
C244 C243 1.503 . S
C244 C245 1.394 . S
C244 C249 1.373 . S
C245 C244 1.394 . S
C245 C246 1.380 . S
C245 H268 0.930 . S
C246 C245 1.380 . S
C246 C247 1.376 . S
C246 H269 0.930 . S
C247 C246 1.376 . S
C247 C248 1.370 . S
C248 C247 1.370 . S
C248 C249 1.396 . S
C248 H270 0.929 . S
C249 C244 1.373 . S
C249 C248 1.396 . S
C249 H271 0.929 . S
C250 O260 1.240 . S
C250 O261 1.289 . S
C251 O262 1.258 . S
C251 O263 1.256 . S
O252 La232 2.521 . S
O252 C234 1.261 . S
O253 La232 2.628 . S
O253 C234 1.243 . S
O254 La232 2.554 . S
O254 C241 1.240 . S
O255 La232 2.757 . S
O255 La233 2.482 . S
O255 C241 1.289 . S
O256 La232 2.470 . S
O256 C242 1.258 . S
O257 La233 2.503 . S
O257 C242 1.256 . S
O258 La233 2.521 . S
O258 C243 1.261 . S
O259 La233 2.628 . S
O259 C243 1.243 . S
O260 La233 2.554 . S
O260 C250 1.240 . S
O261 La232 2.482 . S
O261 La233 2.757 . S
O261 C250 1.289 . S
O262 La233 2.470 . S
O262 C251 1.258 . S
O263 La232 2.503 . S
O263 C251 1.256 . S
H264 C236 0.930 . S
H265 C237 0.930 . S
H266 C239 0.929 . S
H267 C240 0.929 . S
H268 C245 0.930 . S
H269 C246 0.930 . S
H270 C248 0.929 . S
H271 C249 0.929 . S
La272 C274 2.928 . S
La272 O292 2.521 . S
La272 O293 2.628 . S
La272 O294 2.554 . S
La272 O295 2.757 1_655 S
La272 O296 2.470 . S
La272 O301 2.482 . S
La272 O303 2.503 1_655 S
La273 C283 2.928 . S
La273 O295 2.482 . S
La273 O297 2.503 1_455 S
La273 O298 2.521 . S
La273 O299 2.628 . S
La273 O300 2.554 . S
La273 O301 2.757 1_455 S
La273 O302 2.470 . S
C274 La272 2.928 . S
C274 C275 1.503 1_556 S
C274 O292 1.261 . S
C274 O293 1.243 . S
C275 C274 1.503 1_554 S
C275 C276 1.394 . S
C275 C280 1.373 . S
C276 C275 1.394 . S
C276 C277 1.380 . S
C276 H304 0.930 . S
C277 C276 1.380 . S
C277 C278 1.376 . S
C277 H305 0.930 . S
C278 C277 1.376 . S
C278 C279 1.370 . S
C279 C278 1.370 . S
C279 C280 1.396 . S
C279 H306 0.929 . S
C280 C275 1.373 . S
C280 C279 1.396 . S
C280 H307 0.929 . S
C281 O294 1.263 . S
C281 O295 1.276 1_655 S
C282 O296 1.258 . S
C282 O297 1.256 . S
C283 La273 2.928 . S
C283 C284 1.503 . S
C283 O298 1.261 . S
C283 O299 1.243 . S
C284 C283 1.503 . S
C284 C285 1.394 . S
C284 C289 1.373 . S
C285 C284 1.394 . S
C285 C286 1.380 . S
C285 H308 0.930 . S
C286 C285 1.380 . S
C286 C287 1.376 . S
C286 H309 0.930 . S
C287 C286 1.376 . S
C287 C288 1.370 . S
C288 C287 1.370 . S
C288 C289 1.396 . S
C288 H310 0.929 . S
C289 C284 1.373 . S
C289 C288 1.396 . S
C289 H311 0.929 . S
C290 O300 1.240 . S
C290 O301 1.289 1_455 S
C291 O302 1.258 . S
C291 O303 1.256 . S
O292 La272 2.521 . S
O292 C274 1.261 . S
O293 La272 2.628 . S
O293 C274 1.243 . S
O294 La272 2.554 . S
O294 C281 1.263 . S
O295 La272 2.757 1_455 S
O295 La273 2.482 . S
O295 C281 1.276 1_455 S
O296 La272 2.470 . S
O296 C282 1.258 . S
O297 La273 2.503 1_655 S
O297 C282 1.256 . S
O298 La273 2.521 . S
O298 C283 1.261 . S
O299 La273 2.628 . S
O299 C283 1.243 . S
O300 La273 2.554 . S
O300 C290 1.240 . S
O301 La272 2.482 . S
O301 La273 2.757 1_655 S
O301 C290 1.289 1_655 S
O302 La273 2.470 . S
O302 C291 1.258 . S
O303 La272 2.503 1_455 S
O303 C291 1.256 . S
H304 C276 0.930 . S
H305 C277 0.930 . S
H306 C279 0.929 . S
H307 C280 0.929 . S
H308 C285 0.930 . S
H309 C286 0.930 . S
H310 C288 0.929 . S
H311 C289 0.929 . S
H312 C320 0.950 . S
H313 C325 0.950 . S
H314 C322 0.950 . S
H315 C324 0.950 . S
H316 C326 0.950 . S
H317 C328 0.950 . S
H318 C330 0.950 . S
H319 C331 0.950 . S
C320 H312 0.950 . S
C320 C321 1.382 . S
C320 C322 1.391 . S
C321 C320 1.382 . S
C321 C325 1.396 1_565 S
C322 H314 0.950 . S
C322 C320 1.391 . S
C322 C323 1.383 1_565 S
C323 C322 1.383 1_545 S
C323 C324 1.415 . S
C323 C329 1.491 . S
C324 H315 0.950 . S
C324 C323 1.415 . S
C324 C325 1.391 . S
C325 H313 0.950 . S
C325 C321 1.396 1_545 S
C325 C324 1.391 . S
C326 H316 0.950 . S
C326 C327 1.386 . S
C326 C328 1.391 . S
C327 C326 1.386 . S
C327 C331 1.393 1_545 S
C328 H317 0.950 . S
C328 C326 1.391 . S
C328 C329 1.400 . S
C329 C323 1.491 . S
C329 C328 1.400 . S
C329 C330 1.398 1_545 S
C330 H318 0.950 . S
C330 C329 1.398 1_565 S
C330 C331 1.391 . S
C331 H319 0.950 . S
C331 C327 1.393 1_565 S
C331 C330 1.391 . S
H332 C340 0.950 . S
H333 C345 0.950 . S
H334 C342 0.950 . S
H335 C344 0.950 . S
H336 C346 0.950 . S
H337 C348 0.950 . S
H338 C350 0.950 . S
H339 C351 0.950 . S
C340 H332 0.950 . S
C340 C341 1.386 . S
C340 C342 1.391 . S
C341 C340 1.386 . S
C341 C345 1.393 . S
C342 H334 0.950 . S
C342 C340 1.391 . S
C342 C343 1.400 . S
C343 C342 1.400 . S
C343 C344 1.398 . S
C343 C349 1.491 . S
C344 H335 0.950 . S
C344 C343 1.398 . S
C344 C345 1.391 . S
C345 H333 0.950 . S
C345 C341 1.393 . S
C345 C344 1.391 . S
C346 H336 0.950 . S
C346 C347 1.386 . S
C346 C348 1.391 . S
C347 C346 1.386 . S
C347 C351 1.393 . S
C348 H337 0.950 . S
C348 C346 1.391 . S
C348 C349 1.400 . S
C349 C343 1.491 . S
C349 C348 1.400 . S
C349 C350 1.398 . S
C350 H338 0.950 . S
C350 C349 1.398 . S
C350 C351 1.391 . S
C351 H339 0.950 . S
C351 C347 1.393 . S
C351 C350 1.391 . S
H352 C360 0.950 . S
H353 C365 0.950 . S
H354 C362 0.950 . S
H355 C364 0.950 . S
H356 C366 0.950 . S
H357 C368 0.950 . S
H358 C370 0.950 . S
H359 C371 0.950 . S
C360 H352 0.950 . S
C360 C361 1.386 . S
C360 C362 1.391 . S
C361 C360 1.386 . S
C361 C365 1.393 . S
C362 H354 0.950 . S
C362 C360 1.391 . S
C362 C363 1.400 . S
C363 C362 1.400 . S
C363 C364 1.398 . S
C363 C369 1.491 . S
C364 H355 0.950 . S
C364 C363 1.398 . S
C364 C365 1.391 . S
C365 H353 0.950 . S
C365 C361 1.393 . S
C365 C364 1.391 . S
C366 H356 0.950 . S
C366 C367 1.386 . S
C366 C368 1.391 . S
C367 C366 1.386 . S
C367 C371 1.393 . S
C368 H357 0.950 . S
C368 C366 1.391 . S
C368 C369 1.400 . S
C369 C363 1.491 . S
C369 C368 1.400 . S
C369 C370 1.398 . S
C370 H358 0.950 . S
C370 C369 1.398 . S
C370 C371 1.391 . S
C371 H359 0.950 . S
C371 C367 1.393 . S
C371 C370 1.391 . S
H372 C380 0.950 . S
H373 C385 0.950 . S
H374 C382 0.950 . S
H375 C384 0.950 . S
H376 C386 0.950 . S
H377 C388 0.950 . S
H378 C390 0.950 . S
H379 C391 0.950 . S
C380 H372 0.950 . S
C380 C381 1.376 1_655 S
C380 C382 1.391 . S
C381 C380 1.376 1_455 S
C381 C385 1.402 . S
C382 H374 0.950 . S
C382 C380 1.391 . S
C382 C383 1.371 1_655 S
C383 C382 1.371 1_455 S
C383 C384 1.428 . S
C383 C389 1.491 . S
C384 H375 0.950 . S
C384 C383 1.428 . S
C384 C385 1.391 . S
C385 H373 0.950 . S
C385 C381 1.402 . S
C385 C384 1.391 . S
C386 H376 0.950 . S
C386 C387 1.386 . S
C386 C388 1.391 . S
C387 C386 1.386 . S
C387 C391 1.393 1_455 S
C388 H377 0.950 . S
C388 C386 1.391 . S
C388 C389 1.442 . S
C389 C383 1.491 . S
C389 C388 1.442 . S
C389 C390 1.357 1_455 S
C390 H378 0.950 . S
C390 C389 1.357 1_655 S
C390 C391 1.391 . S
C391 H379 0.950 . S
C391 C387 1.393 1_655 S
C391 C390 1.391 . S
H392 C400 0.950 . S
H393 C405 0.950 . S
H394 C402 0.950 . S
H395 C404 0.950 . S
H396 C406 0.950 . S
H397 C408 0.950 . S
H398 C410 0.950 . S
H399 C411 0.950 . S
C400 H392 0.950 . S
C400 C401 1.364 1_545 S
C400 C402 1.391 . S
C401 C400 1.364 1_565 S
C401 C405 1.416 . S
C402 H394 0.950 . S
C402 C400 1.391 . S
C402 C403 1.375 1_545 S
C403 C402 1.375 1_565 S
C403 C404 1.424 . S
C403 C409 1.490 . S
C404 H395 0.950 . S
C404 C403 1.424 . S
C404 C405 1.391 . S
C405 H393 0.950 . S
C405 C401 1.416 . S
C405 C404 1.391 . S
C406 H396 0.950 . S
C406 C407 1.398 . S
C406 C408 1.391 . S
C407 C406 1.398 . S
C407 C411 1.380 1_565 S
C408 H397 0.950 . S
C408 C406 1.391 . S
C408 C409 1.409 1_556 S
C409 C403 1.490 . S
C409 C408 1.409 1_554 S
C409 C410 1.389 1_565 S
C410 H398 0.950 . S
C410 C409 1.389 1_545 S
C410 C411 1.391 1_554 S
C411 H399 0.950 . S
C411 C407 1.380 1_545 S
C411 C410 1.391 1_556 S
H412 C420 0.950 . S
H413 C425 0.950 . S
H414 C422 0.950 . S
H415 C424 0.950 . S
H416 C426 0.950 . S
H417 C428 0.950 . S
H418 C430 0.950 . S
H419 C431 0.950 1_554 S
C420 H412 0.950 . S
C420 C421 1.386 . S
C420 C422 1.391 . S
C421 C420 1.386 . S
C421 C425 1.393 . S
C422 H414 0.950 . S
C422 C420 1.391 . S
C422 C423 1.400 . S
C423 C422 1.400 . S
C423 C424 1.398 . S
C423 C429 1.491 . S
C424 H415 0.950 . S
C424 C423 1.398 . S
C424 C425 1.391 . S
C425 H413 0.950 . S
C425 C421 1.393 . S
C425 C424 1.391 . S
C426 H416 0.950 . S
C426 C427 1.386 . S
C426 C428 1.391 . S
C427 C426 1.386 . S
C427 C431 1.393 . S
C428 H417 0.950 . S
C428 C426 1.391 . S
C428 C429 1.400 1_556 S
C429 C423 1.491 . S
C429 C428 1.400 1_554 S
C429 C430 1.398 . S
C430 H418 0.950 . S
C430 C429 1.398 . S
C430 C431 1.391 1_554 S
C431 H419 0.950 1_556 S
C431 C427 1.393 . S
C431 C430 1.391 1_556 S
H432 C440 0.950 . S
H433 C445 0.950 . S
H434 C442 0.950 . S
H435 C444 0.950 . S
H436 C446 0.950 . S
H437 C448 0.950 . S
H438 C450 0.950 . S
H439 C451 0.950 . S
C440 H432 0.950 . S
C440 C441 1.386 . S
C440 C442 1.391 . S
C441 C440 1.386 . S
C441 C445 1.393 . S
C442 H434 0.950 . S
C442 C440 1.391 . S
C442 C443 1.400 . S
C443 C442 1.400 . S
C443 C444 1.398 . S
C443 C449 1.491 . S
C444 H435 0.950 . S
C444 C443 1.398 . S
C444 C445 1.391 . S
C445 H433 0.950 . S
C445 C441 1.393 . S
C445 C444 1.391 . S
C446 H436 0.950 . S
C446 C447 1.386 . S
C446 C448 1.391 . S
C447 C446 1.386 . S
C447 C451 1.393 . S
C448 H437 0.950 . S
C448 C446 1.391 . S
C448 C449 1.400 1_556 S
C449 C443 1.491 . S
C449 C448 1.400 1_554 S
C449 C450 1.398 . S
C450 H438 0.950 . S
C450 C449 1.398 . S
C450 C451 1.391 1_554 S
C451 H439 0.950 . S
C451 C447 1.393 . S
C451 C450 1.391 1_556 S
H452 C460 0.950 . S
H453 C465 0.950 . S
H454 C462 0.950 . S
H455 C464 0.950 . S
H456 C466 0.950 . S
H457 C468 0.950 . S
H458 C470 0.950 . S
H459 C471 0.950 . S
C460 H452 0.950 . S
C460 C461 1.397 . S
C460 C462 1.391 . S
C461 C460 1.397 . S
C461 C465 1.382 1_655 S
C462 H454 0.950 . S
C462 C460 1.391 . S
C462 C463 1.432 . S
C463 C462 1.432 . S
C463 C464 1.367 1_655 S
C463 C469 1.491 . S
C464 H455 0.950 . S
C464 C463 1.367 1_455 S
C464 C465 1.391 . S
C465 H453 0.950 . S
C465 C461 1.382 1_455 S
C465 C464 1.391 . S
C466 H456 0.950 . S
C466 C467 1.386 1_455 S
C466 C468 1.391 1_556 S
C467 C466 1.386 1_655 S
C467 C471 1.393 . S
C468 H457 0.950 . S
C468 C466 1.391 1_554 S
C468 C469 1.361 1_455 S
C469 C463 1.491 . S
C469 C468 1.361 1_655 S
C469 C470 1.438 . S
C470 H458 0.950 . S
C470 C469 1.438 . S
C470 C471 1.391 1_554 S
C471 H459 0.950 . S
C471 C467 1.393 . S
C471 C470 1.391 1_556 S
H472 C480 0.950 . S
H473 C485 0.950 1_556 S
H474 C482 0.950 . S
H475 C484 0.943 1_455 S
H476 C486 0.950 . S
H477 C488 0.950 . S
H478 C490 0.950 . S
H479 C491 0.950 . S
C480 H472 0.950 . S
C480 C481 1.372 1_655 S
C480 C482 1.391 . S
C481 C480 1.372 1_455 S
C481 C485 1.399 . S
C482 H474 0.950 . S
C482 C480 1.391 . S
C482 C483 1.400 . S
C483 C482 1.400 . S
C483 C484 1.398 . S
C483 C489 1.491 . S
C484 H475 0.943 1_655 S
C484 C483 1.398 . S
C484 C485 1.391 1_655 S
C485 H473 0.950 1_554 S
C485 C481 1.399 . S
C485 C484 1.391 1_455 S
C486 H476 0.950 . S
C486 C487 1.386 . S
C486 C488 1.391 . S
C487 C486 1.386 . S
C487 C491 1.393 . S
C488 H477 0.950 . S
C488 C486 1.391 . S
C488 C489 1.400 . S
C489 C483 1.491 . S
C489 C488 1.400 . S
C489 C490 1.398 . S
C490 H478 0.950 . S
C490 C489 1.398 . S
C490 C491 1.391 . S
C491 H479 0.950 . S
C491 C487 1.393 . S
C491 C490 1.391 . S
H492 C500 0.950 . S
H493 C505 0.950 . S
H494 C502 0.950 . S
H495 C504 0.950 . S
H496 C506 0.950 1_545 S
H497 C508 0.950 1_545 S
H498 C510 0.950 . S
H499 C511 0.950 . S
C500 H492 0.950 . S
C500 C501 1.386 1_565 S
C500 C502 1.391 . S
C501 C500 1.386 1_545 S
C501 C505 1.393 . S
C502 H494 0.950 . S
C502 C500 1.391 . S
C502 C503 1.400 . S
C503 C502 1.400 . S
C503 C504 1.398 1_565 S
C503 C509 1.491 . S
C504 H495 0.950 . S
C504 C503 1.398 1_545 S
C504 C505 1.391 . S
C505 H493 0.950 . S
C505 C501 1.393 . S
C505 C504 1.391 . S
C506 H496 0.950 1_565 S
C506 C507 1.386 . S
C506 C508 1.391 . S
C507 C506 1.386 . S
C507 C511 1.393 . S
C508 H497 0.950 1_565 S
C508 C506 1.391 . S
C508 C509 1.400 . S
C509 C503 1.491 . S
C509 C508 1.400 . S
C509 C510 1.398 . S
C510 H498 0.950 . S
C510 C509 1.398 . S
C510 C511 1.391 . S
C511 H499 0.950 . S
C511 C507 1.393 . S
C511 C510 1.391 . S
H512 C520 0.950 . S
H513 C525 0.950 . S
H514 C522 0.950 . S
H515 C524 0.950 . S
H516 C526 0.950 . S
H517 C528 0.950 . S
H518 C530 0.950 . S
H519 C531 0.950 . S
C520 H512 0.950 . S
C520 C521 1.386 . S
C520 C522 1.391 . S
C521 C520 1.386 . S
C521 C525 1.393 . S
C522 H514 0.950 . S
C522 C520 1.391 . S
C522 C523 1.400 . S
C523 C522 1.400 . S
C523 C524 1.398 . S
C523 C529 1.491 . S
C524 H515 0.950 . S
C524 C523 1.398 . S
C524 C525 1.391 . S
C525 H513 0.950 . S
C525 C521 1.393 . S
C525 C524 1.391 . S
C526 H516 0.950 . S
C526 C527 1.386 . S
C526 C528 1.391 . S
C527 C526 1.386 . S
C527 C531 1.393 . S
C528 H517 0.950 . S
C528 C526 1.391 . S
C528 C529 1.400 . S
C529 C523 1.491 . S
C529 C528 1.400 . S
C529 C530 1.398 . S
C530 H518 0.950 . S
C530 C529 1.398 . S
C530 C531 1.391 . S
C531 H519 0.950 . S
C531 C527 1.393 . S
C531 C530 1.391 . S
H532 C540 0.950 . S
H533 C545 0.950 1_556 S
H534 C542 0.950 . S
H535 C544 0.950 . S
H536 C546 0.950 . S
H537 C548 0.950 . S
H538 C550 0.950 . S
H539 C551 0.950 . S
C540 H532 0.950 . S
C540 C541 1.386 . S
C540 C542 1.391 . S
C541 C540 1.386 . S
C541 C545 1.393 . S
C542 H534 0.950 . S
C542 C540 1.391 . S
C542 C543 1.400 . S
C543 C542 1.400 . S
C543 C544 1.398 . S
C543 C549 1.491 . S
C544 H535 0.950 . S
C544 C543 1.398 . S
C544 C545 1.391 . S
C545 H533 0.950 1_554 S
C545 C541 1.393 . S
C545 C544 1.391 . S
C546 H536 0.950 . S
C546 C547 1.386 . S
C546 C548 1.391 . S
C547 C546 1.386 . S
C547 C551 1.393 . S
C548 H537 0.950 . S
C548 C546 1.391 . S
C548 C549 1.400 . S
C549 C543 1.491 . S
C549 C548 1.400 . S
C549 C550 1.398 . S
C550 H538 0.950 . S
C550 C549 1.398 . S
C550 C551 1.391 . S
C551 H539 0.950 . S
C551 C547 1.393 . S
C551 C550 1.391 . S
H552 C560 0.950 . S
H553 C565 0.950 . S
H554 C562 0.950 . S
H555 C564 0.950 . S
H556 C566 0.950 . S
H557 C568 0.950 1_655 S
H558 C570 0.950 . S
H559 C571 0.950 . S
C560 H552 0.950 . S
C560 C561 1.386 1_455 S
C560 C562 1.391 . S
C561 C560 1.386 1_655 S
C561 C565 1.393 . S
C562 H554 0.950 . S
C562 C560 1.391 . S
C562 C563 1.400 . S
C563 C562 1.400 . S
C563 C564 1.398 1_455 S
C563 C569 1.491 . S
C564 H555 0.950 . S
C564 C563 1.398 1_655 S
C564 C565 1.391 . S
C565 H553 0.950 . S
C565 C561 1.393 . S
C565 C564 1.391 . S
C566 H556 0.950 . S
C566 C567 1.386 . S
C566 C568 1.391 . S
C567 C566 1.386 . S
C567 C571 1.393 . S
C568 H557 0.950 1_455 S
C568 C566 1.391 . S
C568 C569 1.400 . S
C569 C563 1.491 . S
C569 C568 1.400 . S
C569 C570 1.398 . S
C570 H558 0.950 . S
C570 C569 1.398 . S
C570 C571 1.391 . S
C571 H559 0.950 . S
C571 C567 1.393 . S
C571 C570 1.391 . S
H572 C580 0.950 . S
H573 C585 0.950 . S
H574 C582 0.950 . S
H575 C584 0.950 . S
H576 C586 0.950 . S
H577 C588 0.950 1_565 S
H578 C590 0.950 . S
H579 C591 0.950 . S
C580 H572 0.950 . S
C580 C581 1.364 1_545 S
C580 C582 1.391 . S
C581 C580 1.364 1_565 S
C581 C585 1.407 . S
C582 H574 0.950 . S
C582 C580 1.391 . S
C582 C583 1.400 . S
C583 C582 1.400 . S
C583 C584 1.398 1_545 S
C583 C589 1.491 . S
C584 H575 0.950 . S
C584 C583 1.398 1_565 S
C584 C585 1.391 . S
C585 H573 0.950 . S
C585 C581 1.407 . S
C585 C584 1.391 . S
C586 H576 0.950 . S
C586 C587 1.386 . S
C586 C588 1.391 . S
C587 C586 1.386 . S
C587 C591 1.393 . S
C588 H577 0.950 1_545 S
C588 C586 1.391 . S
C588 C589 1.400 . S
C589 C583 1.491 . S
C589 C588 1.400 . S
C589 C590 1.398 . S
C590 H578 0.950 . S
C590 C589 1.398 . S
C590 C591 1.391 . S
C591 H579 0.950 . S
C591 C587 1.393 . S
C591 C590 1.391 . S
H592 C600 0.950 . S
H593 C605 0.950 . S
H594 C602 0.950 . S
H595 C604 0.950 . S
H596 C606 0.950 . S
H597 C608 0.950 . S
H598 C610 0.950 . S
H599 C611 0.950 . S
C600 H592 0.950 . S
C600 C601 1.386 . S
C600 C602 1.391 . S
C601 C600 1.386 . S
C601 C605 1.393 . S
C602 H594 0.950 . S
C602 C600 1.391 . S
C602 C603 1.400 . S
C603 C602 1.400 . S
C603 C604 1.398 . S
C603 C609 1.491 . S
C604 H595 0.950 . S
C604 C603 1.398 . S
C604 C605 1.391 . S
C605 H593 0.950 . S
C605 C601 1.393 . S
C605 C604 1.391 . S
C606 H596 0.950 . S
C606 C607 1.386 . S
C606 C608 1.391 . S
C607 C606 1.386 . S
C607 C611 1.393 . S
C608 H597 0.950 . S
C608 C606 1.391 . S
C608 C609 1.400 . S
C609 C603 1.491 . S
C609 C608 1.400 . S
C609 C610 1.398 . S
C610 H598 0.950 . S
C610 C609 1.398 . S
C610 C611 1.391 . S
C611 H599 0.950 . S
C611 C607 1.393 . S
C611 C610 1.391 . S
H612 C620 0.950 . S
H613 C625 0.950 . S
H614 C622 0.950 . S
H615 C624 0.950 . S
H616 C626 0.950 . S
H617 C628 0.950 . S
H618 C630 0.950 . S
H619 C631 0.950 1_556 S
C620 H612 0.950 . S
C620 C621 1.386 . S
C620 C622 1.391 . S
C621 C620 1.386 . S
C621 C625 1.393 . S
C622 H614 0.950 . S
C622 C620 1.391 . S
C622 C623 1.400 . S
C623 C622 1.400 . S
C623 C624 1.398 . S
C623 C629 1.491 . S
C624 H615 0.950 . S
C624 C623 1.398 . S
C624 C625 1.391 . S
C625 H613 0.950 . S
C625 C621 1.393 . S
C625 C624 1.391 . S
C626 H616 0.950 . S
C626 C627 1.386 . S
C626 C628 1.391 . S
C627 C626 1.386 . S
C627 C631 1.393 . S
C628 H617 0.950 . S
C628 C626 1.391 . S
C628 C629 1.400 . S
C629 C623 1.491 . S
C629 C628 1.400 . S
C629 C630 1.398 . S
C630 H618 0.950 . S
C630 C629 1.398 . S
C630 C631 1.391 . S
C631 H619 0.950 1_554 S
C631 C627 1.393 . S
C631 C630 1.391 . S
H632 C640 0.950 . S
H633 C645 0.950 . S
H634 C642 0.950 . S
H635 C644 0.950 . S
H636 C646 0.950 . S
H637 C648 0.950 . S
H638 C650 0.950 . S
H639 C651 0.950 . S
C640 H632 0.950 . S
C640 C641 1.386 1_655 S
C640 C642 1.391 . S
C641 C640 1.386 1_455 S
C641 C645 1.393 . S
C642 H634 0.950 . S
C642 C640 1.391 . S
C642 C643 1.400 1_655 S
C643 C642 1.400 1_455 S
C643 C644 1.398 . S
C643 C649 1.491 . S
C644 H635 0.950 . S
C644 C643 1.398 . S
C644 C645 1.391 . S
C645 H633 0.950 . S
C645 C641 1.393 . S
C645 C644 1.391 . S
C646 H636 0.950 . S
C646 C647 1.386 . S
C646 C648 1.391 . S
C647 C646 1.386 . S
C647 C651 1.393 1_455 S
C648 H637 0.950 . S
C648 C646 1.391 . S
C648 C649 1.400 . S
C649 C643 1.491 . S
C649 C648 1.400 . S
C649 C650 1.398 1_455 S
C650 H638 0.950 . S
C650 C649 1.398 1_655 S
C650 C651 1.391 . S
C651 H639 0.950 . S
C651 C647 1.393 1_655 S
C651 C650 1.391 . S
H652 C660 0.950 . S
H653 C665 0.950 . S
H654 C662 0.950 . S
H655 C664 0.950 . S
H656 C666 0.950 . S
H657 C668 0.950 . S
H658 C670 0.950 . S
H659 C671 0.950 . S
C660 H652 0.950 . S
C660 C661 1.386 . S
C660 C662 1.391 . S
C661 C660 1.386 . S
C661 C665 1.393 1_545 S
C662 H654 0.950 . S
C662 C660 1.391 . S
C662 C663 1.400 . S
C663 C662 1.400 . S
C663 C664 1.398 1_545 S
C663 C669 1.491 . S
C664 H655 0.950 . S
C664 C663 1.398 1_565 S
C664 C665 1.391 . S
C665 H653 0.950 . S
C665 C661 1.393 1_565 S
C665 C664 1.391 . S
C666 H656 0.950 . S
C666 C667 1.386 1_565 S
C666 C668 1.391 . S
C667 C666 1.386 1_545 S
C667 C671 1.393 . S
C668 H657 0.950 . S
C668 C666 1.391 . S
C668 C669 1.400 1_565 S
C669 C663 1.491 . S
C669 C668 1.400 1_545 S
C669 C670 1.398 . S
C670 H658 0.950 . S
C670 C669 1.398 . S
C670 C671 1.391 . S
C671 H659 0.950 . S
C671 C667 1.393 . S
C671 C670 1.391 . S
H672 C680 0.950 . S
H673 C685 0.950 . S
H674 C682 0.950 . S
H675 C684 0.950 . S
H676 C686 0.950 . S
H677 C688 0.950 . S
H678 C690 0.950 . S
H679 C691 0.950 . S
C680 H672 0.950 . S
C680 C681 1.386 . S
C680 C682 1.391 . S
C681 C680 1.386 . S
C681 C685 1.393 . S
C682 H674 0.950 . S
C682 C680 1.391 . S
C682 C683 1.400 . S
C683 C682 1.400 . S
C683 C684 1.398 . S
C683 C689 1.491 . S
C684 H675 0.950 . S
C684 C683 1.398 . S
C684 C685 1.391 . S
C685 H673 0.950 . S
C685 C681 1.393 . S
C685 C684 1.391 . S
C686 H676 0.950 . S
C686 C687 1.386 . S
C686 C688 1.391 . S
C687 C686 1.386 . S
C687 C691 1.393 . S
C688 H677 0.950 . S
C688 C686 1.391 . S
C688 C689 1.400 . S
C689 C683 1.491 . S
C689 C688 1.400 . S
C689 C690 1.398 . S
C690 H678 0.950 . S
C690 C689 1.398 . S
C690 C691 1.391 . S
C691 H679 0.950 . S
C691 C687 1.393 . S
C691 C690 1.391 . S
H692 C700 0.950 . S
H693 C705 0.950 . S
H694 C702 0.950 . S
H695 C704 0.950 . S
H696 C706 0.950 . S
H697 C708 0.950 . S
H698 C710 0.950 . S
H699 C711 0.950 . S
C700 H692 0.950 . S
C700 C701 1.386 . S
C700 C702 1.391 . S
C701 C700 1.386 . S
C701 C705 1.393 . S
C702 H694 0.950 . S
C702 C700 1.391 . S
C702 C703 1.400 . S
C703 C702 1.400 . S
C703 C704 1.398 . S
C703 C709 1.491 . S
C704 H695 0.950 . S
C704 C703 1.398 . S
C704 C705 1.391 . S
C705 H693 0.950 . S
C705 C701 1.393 . S
C705 C704 1.391 . S
C706 H696 0.950 . S
C706 C707 1.386 . S
C706 C708 1.391 . S
C707 C706 1.386 . S
C707 C711 1.393 . S
C708 H697 0.950 . S
C708 C706 1.391 . S
C708 C709 1.400 . S
C709 C703 1.491 . S
C709 C708 1.400 . S
C709 C710 1.398 . S
C710 H698 0.950 . S
C710 C709 1.398 . S
C710 C711 1.391 . S
C711 H699 0.950 . S
C711 C707 1.393 . S
C711 C710 1.391 . S
H712 C720 0.950 . S
H713 C725 0.950 . S
H714 C722 0.950 . S
H715 C724 0.950 . S
H716 C726 0.950 . S
H717 C728 0.950 . S
H718 C730 0.950 . S
H719 C731 0.950 . S
C720 H712 0.950 . S
C720 C721 1.386 1_455 S
C720 C722 1.391 . S
C721 C720 1.386 1_655 S
C721 C725 1.393 . S
C722 H714 0.950 . S
C722 C720 1.391 . S
C722 C723 1.400 1_455 S
C723 C722 1.400 1_655 S
C723 C724 1.398 . S
C723 C729 1.491 . S
C724 H715 0.950 . S
C724 C723 1.398 . S
C724 C725 1.391 . S
C725 H713 0.950 . S
C725 C721 1.393 . S
C725 C724 1.391 . S
C726 H716 0.950 . S
C726 C727 1.386 . S
C726 C728 1.391 . S
C727 C726 1.386 . S
C727 C731 1.393 1_655 S
C728 H717 0.950 . S
C728 C726 1.391 . S
C728 C729 1.400 . S
C729 C723 1.491 . S
C729 C728 1.400 . S
C729 C730 1.398 1_655 S
C730 H718 0.950 . S
C730 C729 1.398 1_455 S
C730 C731 1.391 . S
C731 H719 0.950 . S
C731 C727 1.393 1_455 S
C731 C730 1.391 . S
H732 C740 0.950 . S
H733 C745 0.950 . S
H734 C742 0.950 . S
H735 C744 0.950 . S
H736 C746 0.950 1_545 S
H737 C748 0.949 1_545 S
H738 C750 0.950 . S
H739 C751 0.950 . S
C740 H732 0.950 . S
C740 C741 1.400 . S
C740 C742 1.391 . S
C741 C740 1.400 . S
C741 C745 1.382 1_565 S
C742 H734 0.950 . S
C742 C740 1.391 . S
C742 C743 1.400 . S
C743 C742 1.400 . S
C743 C744 1.398 1_565 S
C743 C749 1.491 . S
C744 H735 0.950 . S
C744 C743 1.398 1_545 S
C744 C745 1.391 . S
C745 H733 0.950 . S
C745 C741 1.382 1_545 S
C745 C744 1.391 . S
C746 H736 0.950 1_565 S
C746 C747 1.386 . S
C746 C748 1.391 . S
C747 C746 1.386 . S
C747 C751 1.393 . S
C748 H737 0.949 1_565 S
C748 C746 1.391 . S
C748 C749 1.401 . S
C749 C743 1.491 . S
C749 C748 1.401 . S
C749 C750 1.398 . S
C750 H738 0.950 . S
C750 C749 1.398 . S
C750 C751 1.391 . S
C751 H739 0.950 . S
C751 C747 1.393 . S
C751 C750 1.391 . S
H752 C760 0.950 . S
H753 C765 0.950 . S
H754 C762 0.950 . S
H755 C764 0.950 . S
H756 C766 0.950 . S
H757 C768 0.950 . S
H758 C770 0.950 . S
H759 C771 0.950 . S
C760 H752 0.950 . S
C760 C761 1.386 . S
C760 C762 1.391 . S
C761 C760 1.386 . S
C761 C765 1.393 . S
C762 H754 0.950 . S
C762 C760 1.391 . S
C762 C763 1.400 . S
C763 C762 1.400 . S
C763 C764 1.398 . S
C763 C769 1.491 . S
C764 H755 0.950 . S
C764 C763 1.398 . S
C764 C765 1.391 . S
C765 H753 0.950 . S
C765 C761 1.393 . S
C765 C764 1.391 . S
C766 H756 0.950 . S
C766 C767 1.386 . S
C766 C768 1.391 . S
C767 C766 1.386 . S
C767 C771 1.393 . S
C768 H757 0.950 . S
C768 C766 1.391 . S
C768 C769 1.400 . S
C769 C763 1.491 . S
C769 C768 1.400 . S
C769 C770 1.398 . S
C770 H758 0.950 . S
C770 C769 1.398 . S
C770 C771 1.391 . S
C771 H759 0.950 . S
C771 C767 1.393 . S
C771 C770 1.391 . S
H772 C780 0.950 . S
H773 C785 0.950 . S
H774 C782 0.950 . S
H775 C784 0.950 . S
H776 C786 0.950 . S
H777 C788 0.950 . S
H778 C790 0.950 . S
H779 C791 0.950 . S
C780 H772 0.950 . S
C780 C781 1.386 . S
C780 C782 1.391 . S
C781 C780 1.386 . S
C781 C785 1.393 . S
C782 H774 0.950 . S
C782 C780 1.391 . S
C782 C783 1.400 . S
C783 C782 1.400 . S
C783 C784 1.398 . S
C783 C789 1.491 . S
C784 H775 0.950 . S
C784 C783 1.398 . S
C784 C785 1.391 . S
C785 H773 0.950 . S
C785 C781 1.393 . S
C785 C784 1.391 . S
C786 H776 0.950 . S
C786 C787 1.386 . S
C786 C788 1.391 . S
C787 C786 1.386 . S
C787 C791 1.393 . S
C788 H777 0.950 . S
C788 C786 1.391 . S
C788 C789 1.400 . S
C789 C783 1.491 . S
C789 C788 1.400 . S
C789 C790 1.398 . S
C790 H778 0.950 . S
C790 C789 1.398 . S
C790 C791 1.391 . S
C791 H779 0.950 . S
C791 C787 1.393 . S
C791 C790 1.391 . S
C321 C125 1.909 . S
C327 C161 1.948 1_545 S
C347 C201 1.949 . S
C341 C144 1.921 . S
C367 C241 1.959 . S
C361 C87 1.913 . S
C387 C281 1.952 1_455 S
C381 C106 1.913 1_455 S
C407 C170 1.945 1_565 S
C401 C49 1.913 . S
C421 C68 1.904 . S
C427 C210 1.956 . S
C441 C11 1.909 . S
C447 C250 1.955 . S
C461 C30 1.914 . S
C467 C290 1.956 1_655 S
C487 C167 0.492 . S
C481 C97 0.526 . S
C507 C207 0.515 . S
C501 C116 0.525 . S
C527 C247 0.505 . S
C521 C135 0.524 . S
C541 C78 0.557 . S
C547 C287 0.492 . S
C561 C21 0.596 . S
C567 C158 0.546 . S
C587 C198 0.514 . S
C581 C40 0.582 . S
C607 C238 0.513 . S
C601 C59 0.581 . S
C621 C2 0.578 . S
C627 C278 0.555 . S
C641 C101 2.073 1_455 S
C647 C171 2.264 . S
C661 C120 2.044 1_545 S
C667 C211 2.270 . S
C687 C251 2.267 . S
C681 C139 2.071 . S
C707 C291 2.278 . S
C701 C82 2.067 . S
C721 C25 2.051 . S
C727 C162 2.279 . S
C747 C202 2.276 . S
C741 C44 2.062 . S
C767 C242 2.266 . S
C761 C63 2.069 . S
C781 C6 2.062 . S
C787 C282 2.272 . S
