# Generated by pormake.
# Topology csq, (4,8)-cn, num edge types: 1
# Building blocks:
#     Node 0, Type 0, BuildingBlock: NAWXER_clean_linker_0, # of connection points: 4
#     Node 1, Type 0, BuildingBlock: NAWXER_clean_linker_0, # of connection points: 4
#     Node 2, Type 0, BuildingBlock: NAWXER_clean_linker_0, # of connection points: 4
#     Node 3, Type 0, BuildingBlock: NAWXER_clean_linker_0, # of connection points: 4
#     Node 4, Type 0, BuildingBlock: NAWXER_clean_linker_0, # of connection points: 4
#     Node 5, Type 0, BuildingBlock: NAWXER_clean_linker_0, # of connection points: 4
#     Node 6, Type 1, BuildingBlock: TAGTUT_clean_sbu_3, # of connection points: 8
#     Node 7, Type 1, BuildingBlock: TAGTUT_clean_sbu_3, # of connection points: 8
#     Node 8, Type 1, BuildingBlock: TAGTUT_clean_sbu_3, # of connection points: 8
#     Edge 9, Type (0, 1), BuildingBlock: KIFKEQ_clean_linker_1, # of connection points: 2
#     Edge 10, Type (0, 1), BuildingBlock: KIFKEQ_clean_linker_1, # of connection points: 2
#     Edge 11, Type (0, 1), BuildingBlock: KIFKEQ_clean_linker_1, # of connection points: 2
#     Edge 12, Type (0, 1), BuildingBlock: KIFKEQ_clean_linker_1, # of connection points: 2
#     Edge 13, Type (0, 1), BuildingBlock: KIFKEQ_clean_linker_1, # of connection points: 2
#     Edge 14, Type (0, 1), BuildingBlock: KIFKEQ_clean_linker_1, # of connection points: 2
#     Edge 15, Type (0, 1), BuildingBlock: KIFKEQ_clean_linker_1, # of connection points: 2
#     Edge 16, Type (0, 1), BuildingBlock: KIFKEQ_clean_linker_1, # of connection points: 2
#     Edge 17, Type (0, 1), BuildingBlock: KIFKEQ_clean_linker_1, # of connection points: 2
#     Edge 18, Type (0, 1), BuildingBlock: KIFKEQ_clean_linker_1, # of connection points: 2
#     Edge 19, Type (0, 1), BuildingBlock: KIFKEQ_clean_linker_1, # of connection points: 2
#     Edge 20, Type (0, 1), BuildingBlock: KIFKEQ_clean_linker_1, # of connection points: 2
#     Edge 21, Type (0, 1), BuildingBlock: KIFKEQ_clean_linker_1, # of connection points: 2
#     Edge 22, Type (0, 1), BuildingBlock: KIFKEQ_clean_linker_1, # of connection points: 2
#     Edge 23, Type (0, 1), BuildingBlock: KIFKEQ_clean_linker_1, # of connection points: 2
#     Edge 24, Type (0, 1), BuildingBlock: KIFKEQ_clean_linker_1, # of connection points: 2
#     Edge 25, Type (0, 1), BuildingBlock: KIFKEQ_clean_linker_1, # of connection points: 2
#     Edge 26, Type (0, 1), BuildingBlock: KIFKEQ_clean_linker_1, # of connection points: 2
#     Edge 27, Type (0, 1), BuildingBlock: KIFKEQ_clean_linker_1, # of connection points: 2
#     Edge 28, Type (0, 1), BuildingBlock: KIFKEQ_clean_linker_1, # of connection points: 2
#     Edge 29, Type (0, 1), BuildingBlock: KIFKEQ_clean_linker_1, # of connection points: 2
#     Edge 30, Type (0, 1), BuildingBlock: KIFKEQ_clean_linker_1, # of connection points: 2
#     Edge 31, Type (0, 1), BuildingBlock: KIFKEQ_clean_linker_1, # of connection points: 2
#     Edge 32, Type (0, 1), BuildingBlock: KIFKEQ_clean_linker_1, # of connection points: 2
# Relax obj value: 0.028
# Max RMSD: 0.111
# Mean RMSD: 0.042
data_MOF--net-csq--node1-TAGTUT_clean_sbu_3--node2-NAWXER_clean_linker_0--edge1-KIFKEQ_clean_linker_1
_symmetry_space_group_name_H-M    P1
_symmetry_Int_Tables_number       1
_symmetry_cell_setting            triclinic
loop_
_symmetry_equiv_pos_as_xyz
'x, y, z'
_cell_length_a     62.995584
_cell_length_b     62.173273
_cell_length_c     22.089448
_cell_angle_alpha  91.871565
_cell_angle_beta   92.300941
_cell_angle_gamma 120.01769
loop_
_atom_site_label
_atom_site_type_symbol
_atom_site_fract_x
_atom_site_fract_y
_atom_site_fract_z
_atom_type_partial_charge
C0 C 0.32772 0.50563 0.06515 0.0
C1 C 0.32346 0.48384 0.03278 0.0
C2 C 0.3084 0.50688 0.09046 0.0
C3 C 0.28448 0.48625 0.08499 0.0
C4 C 0.29929 0.46348 0.02555 0.0
C5 C 0.27997 0.46472 0.0513 0.0
C6 C 0.26443 0.48702 0.11597 0.0
C7 C 0.30936 0.47675 0.25538 0.0
C8 C 0.32899 0.49989 0.27818 0.0
C9 C 0.28883 0.4752 0.22511 0.0
C10 C 0.28734 0.49668 0.21746 0.0
C11 C 0.32697 0.52133 0.2728 0.0
C12 C 0.30614 0.51969 0.24286 0.0
C13 C 0.26709 0.49481 0.17785 0.0
C14 C 0.16692 0.47005 0.24161 0.0
C15 C 0.17138 0.49245 0.27107 0.0
C16 C 0.18483 0.46936 0.20773 0.0
C17 C 0.20755 0.49104 0.20279 0.0
C18 C 0.19397 0.51423 0.26521 0.0
C19 C 0.21202 0.51346 0.23185 0.0
C20 C 0.22722 0.49003 0.17087 0.0
C21 C 0.1711 0.47998 0.02146 0.0
C22 C 0.15783 0.45513 0.9981 0.0
C23 C 0.19245 0.48829 0.05894 0.0
C24 C 0.20095 0.47194 0.07263 0.0
C25 C 0.16612 0.43868 0.01263 0.0
C26 C 0.18777 0.44714 0.04905 0.0
C27 C 0.22397 0.48073 0.10994 0.0
H28 H 0.34606 0.52162 0.07186 0.0
H29 H 0.31223 0.52396 0.11486 0.0
H30 H 0.29527 0.44661 0.99978 0.0
H31 H 0.26161 0.44866 0.04605 0.0
H32 H 0.30992 0.45976 0.26041 0.0
H33 H 0.27431 0.45724 0.20616 0.0
H34 H 0.34178 0.53942 0.2899 0.0
H35 H 0.30523 0.53644 0.23703 0.0
H36 H 0.14962 0.45301 0.24523 0.0
H37 H 0.18116 0.45175 0.18667 0.0
H38 H 0.19796 0.53168 0.28794 0.0
H39 H 0.22954 0.53033 0.22901 0.0
H40 H 0.16489 0.49291 0.01076 0.0
H41 H 0.20253 0.50753 0.07644 0.0
H42 H 0.15613 0.41948 0.99481 0.0
H43 H 0.19418 0.43433 0.05918 0.0
N44 N 0.24275 0.47975 0.08441 0.0
N45 N 0.2486 0.4964 0.2031 0.0
C46 C 0.68272 0.17699 0.19209 0.0
C47 C 0.6901 0.1634 0.22829 0.0
C48 C 0.70006 0.19824 0.16548 0.0
C49 C 0.72518 0.20608 0.17305 0.0
C50 C 0.71538 0.17184 0.23775 0.0
C51 C 0.73276 0.19305 0.21048 0.0
C52 C 0.74334 0.22751 0.14076 0.0
C53 C 0.69969 0.16585 0.00256 0.0
C54 C 0.68192 0.16895 0.96991 0.0
C55 C 0.71885 0.18582 0.03684 0.0
C56 C 0.72053 0.2092 0.03907 0.0
C57 C 0.68389 0.1925 0.97124 0.0
C58 C 0.70326 0.2126 0.00519 0.0
C59 C 0.73998 0.22979 0.07832 0.0
C60 C 0.83436 0.31654 0.01396 0.0
C61 C 0.82513 0.32737 0.97345 0.0
C62 C 0.81879 0.29836 0.05178 0.0
C63 C 0.7937 0.29081 0.05026 0.0
C64 C 0.8001 0.3201 0.97292 0.0
C65 C 0.78455 0.3019 0.01064 0.0
C66 C 0.77637 0.26952 0.08429 0.0
C67 C 0.82606 0.32805 0.2296 0.0
C68 C 0.84011 0.32087 0.26558 0.0
C69 C 0.8068 0.31064 0.18988 0.0
C70 C 0.80134 0.2858 0.18558 0.0
C71 C 0.83458 0.29599 0.26114 0.0
C72 C 0.81521 0.27857 0.22185 0.0
C73 C 0.78028 0.26683 0.14649 0.0
H74 H 0.66347 0.17101 0.18328 0.0
H75 H 0.69377 0.20837 0.13817 0.0
H76 H 0.72175 0.16212 0.26633 0.0
H77 H 0.75207 0.19894 0.21752 0.0
H78 H 0.69852 0.14786 0.00241 0.0
H79 H 0.73222 0.18297 0.06224 0.0
H80 H 0.67054 0.19537 0.94579 0.0
H81 H 0.70441 0.23059 0.00629 0.0
H82 H 0.8536 0.32188 0.01584 0.0
H83 H 0.82624 0.28964 0.08063 0.0
H84 H 0.79234 0.32784 0.94179 0.0
H85 H 0.76519 0.29613 0.00808 0.0
H86 H 0.83007 0.34717 0.23187 0.0
H87 H 0.79599 0.3165 0.16325 0.0
H88 H 0.84498 0.28993 0.28875 0.0
H89 H 0.81109 0.25941 0.21964 0.0
N90 N 0.76356 0.24596 0.17241 0.0
N91 N 0.75636 0.25076 0.05253 0.0
C92 C 0.55947 0.70671 0.94931 0.0
C93 C 0.54601 0.69959 0.89268 0.0
C94 C 0.55684 0.72234 0.99141 0.0
C95 C 0.54014 0.73057 0.97853 0.0
C96 C 0.52991 0.70852 0.87929 0.0
C97 C 0.52693 0.7237 0.9218 0.0
C98 C 0.53785 0.74818 0.02072 0.0
C99 C 0.5169 0.68225 0.13602 0.0
C100 C 0.53126 0.68746 0.19082 0.0
C101 C 0.51974 0.70154 0.10002 0.0
C102 C 0.53719 0.72639 0.11774 0.0
C103 C 0.54884 0.71235 0.20802 0.0
C104 C 0.5517 0.73156 0.17202 0.0
C105 C 0.53842 0.7473 0.08458 0.0
C106 C 0.51202 0.82071 0.1779 0.0
C107 C 0.52883 0.8306 0.229 0.0
C108 C 0.51505 0.80679 0.13156 0.0
C109 C 0.53503 0.80268 0.13551 0.0
C110 C 0.54909 0.82691 0.23192 0.0
C111 C 0.55207 0.81301 0.18579 0.0
C112 C 0.53647 0.78472 0.09314 0.0
C113 C 0.54345 0.84592 0.97324 0.0
C114 C 0.52621 0.83727 0.92292 0.0
C115 C 0.54606 0.8291 0.00917 0.0
C116 C 0.53135 0.80334 0.99554 0.0
C117 C 0.51176 0.8115 0.90928 0.0
C118 C 0.51434 0.7948 0.94505 0.0
C119 C 0.53466 0.78491 0.02928 0.0
H120 H 0.57187 0.70003 0.96157 0.0
H121 H 0.56812 0.72818 0.03359 0.0
H122 H 0.51965 0.70394 0.83574 0.0
H123 H 0.51429 0.73018 0.91009 0.0
H124 H 0.50331 0.66329 0.12119 0.0
H125 H 0.50777 0.69705 0.05933 0.0
H126 H 0.55992 0.71714 0.25037 0.0
H127 H 0.56499 0.75059 0.18725 0.0
H128 H 0.49635 0.82345 0.17415 0.0
H129 H 0.50129 0.79844 0.09399 0.0
H130 H 0.56219 0.834 0.27096 0.0
H131 H 0.56739 0.80971 0.1902 0.0
H132 H 0.55478 0.86567 0.98512 0.0
H133 H 0.55984 0.83624 0.04675 0.0
H134 H 0.4986 0.80419 0.87036 0.0
H135 H 0.50301 0.77505 0.93299 0.0
N136 N 0.53567 0.76675 0.99597 0.0
N137 N 0.53814 0.76587 0.11797 0.0
C138 C 0.84993 0.55017 0.93458 0.0
C139 C 0.84521 0.52759 0.90544 0.0
C140 C 0.83226 0.5512 0.9686 0.0
C141 C 0.80943 0.52976 0.97394 0.0
C142 C 0.82182 0.50638 0.90851 0.0
C143 C 0.80399 0.50753 0.94213 0.0
C144 C 0.79225 0.53022 0.01687 0.0
C145 C 0.85141 0.52589 0.11949 0.0
C146 C 0.86759 0.54747 0.15566 0.0
C147 C 0.82898 0.52237 0.09615 0.0
C148 C 0.82256 0.54071 0.10664 0.0
C149 C 0.86084 0.56556 0.16753 0.0
C150 C 0.83845 0.56216 0.14324 0.0
C151 C 0.79928 0.53734 0.07904 0.0
C152 C 0.70435 0.52164 0.17579 0.0
C153 C 0.71287 0.54388 0.21139 0.0
C154 C 0.72016 0.51823 0.13954 0.0
C155 C 0.74464 0.53731 0.13664 0.0
C156 C 0.73773 0.56236 0.21167 0.0
C157 C 0.7535 0.55911 0.17438 0.0
C158 C 0.7609 0.53474 0.09387 0.0
C159 C 0.70054 0.53492 0.97895 0.0
C160 C 0.68371 0.51104 0.95267 0.0
C161 C 0.72329 0.54006 0.00472 0.0
C162 C 0.72971 0.52149 0.00437 0.0
C163 C 0.6903 0.49249 0.95262 0.0
C164 C 0.71322 0.49778 0.9777 0.0
C165 C 0.75359 0.52675 0.03199 0.0
H166 H 0.86743 0.56704 0.93178 0.0
H167 H 0.83666 0.56864 0.99218 0.0
H168 H 0.81755 0.48867 0.88691 0.0
H169 H 0.78645 0.49078 0.94584 0.0
H170 H 0.85605 0.51166 0.10898 0.0
H171 H 0.81667 0.50528 0.06959 0.0
H172 H 0.87265 0.58215 0.19628 0.0
H173 H 0.83367 0.57639 0.15244 0.0
H174 H 0.68536 0.5069 0.17589 0.0
H175 H 0.71311 0.50078 0.11305 0.0
H176 H 0.74471 0.5796 0.23909 0.0
H177 H 0.77242 0.57394 0.17361 0.0
H178 H 0.69644 0.54987 0.97846 0.0
H179 H 0.73598 0.55858 0.02447 0.0
H180 H 0.67774 0.47386 0.93343 0.0
H181 H 0.71794 0.48323 0.97725 0.0
N182 N 0.76953 0.52483 0.99562 0.0
N183 N 0.78354 0.53973 0.11521 0.0
C184 C 0.27728 0.87614 0.01052 0.0
C185 C 0.28163 0.87028 0.95184 0.0
C186 C 0.26251 0.85732 0.04797 0.0
C187 C 0.25256 0.83213 0.02879 0.0
C188 C 0.27001 0.84503 0.93117 0.0
C189 C 0.25586 0.82625 0.96929 0.0
C190 C 0.23836 0.81173 0.06938 0.0
C191 C 0.31196 0.85684 0.1703 0.0
C192 C 0.31174 0.86741 0.2273 0.0
C193 C 0.28998 0.83946 0.13883 0.0
C194 C 0.26736 0.83273 0.16317 0.0
C195 C 0.28905 0.86038 0.25183 0.0
C196 C 0.26708 0.84317 0.22008 0.0
C197 C 0.24414 0.81307 0.13234 0.0
C198 C 0.18114 0.71191 0.21912 0.0
C199 C 0.17222 0.71802 0.27047 0.0
C200 C 0.19246 0.72925 0.17524 0.0
C201 C 0.19495 0.75296 0.18184 0.0
C202 C 0.17464 0.74174 0.27652 0.0
C203 C 0.18602 0.75903 0.23292 0.0
C204 C 0.2093 0.77266 0.14033 0.0
C205 C 0.14525 0.71214 0.02061 0.0
C206 C 0.15256 0.70523 0.96741 0.0
C207 C 0.16206 0.73316 0.05725 0.0
C208 C 0.18652 0.74731 0.04169 0.0
C209 C 0.17697 0.7197 0.95189 0.0
C210 C 0.19371 0.74038 0.98865 0.0
C211 C 0.20477 0.77039 0.07659 0.0
H212 H 0.28581 0.89523 0.02858 0.0
H213 H 0.25929 0.86257 0.09237 0.0
H214 H 0.27202 0.83962 0.88566 0.0
H215 H 0.24791 0.80704 0.95244 0.0
H216 H 0.3291 0.86193 0.15006 0.0
H217 H 0.29069 0.83099 0.0959 0.0
H218 H 0.28824 0.86773 0.29626 0.0
H219 H 0.24985 0.83782 0.24025 0.0
H220 H 0.17942 0.69373 0.21293 0.0
H221 H 0.19979 0.72435 0.13704 0.0
H222 H 0.1683 0.74719 0.31584 0.0
H223 H 0.18815 0.77738 0.23952 0.0
H224 H 0.12659 0.7013 0.03402 0.0
H225 H 0.15584 0.7385 0.09694 0.0
H226 H 0.18315 0.71534 0.91065 0.0
H227 H 0.2124 0.75114 0.97522 0.0
N228 N 0.21921 0.7902 0.04411 0.0
N229 N 0.22898 0.79386 0.16542 0.0
C230 C 0.51211 0.19144 0.0836 0.0
C231 C 0.5031 0.18213 0.02375 0.0
C232 C 0.50143 0.20244 0.11764 0.0
C233 C 0.48102 0.20347 0.09293 0.0
C234 C 0.48287 0.1833 0.99898 0.0
C235 C 0.4719 0.19379 0.03329 0.0
C236 C 0.47093 0.21722 0.12533 0.0
C237 C 0.45989 0.15729 0.25106 0.0
C238 C 0.47188 0.16578 0.30931 0.0
C239 C 0.45893 0.17386 0.21127 0.0
C240 C 0.47021 0.19933 0.22853 0.0
C241 C 0.48308 0.19128 0.32653 0.0
C242 C 0.48214 0.20783 0.28667 0.0
C243 C 0.46805 0.21693 0.18854 0.0
C244 C 0.4251 0.27852 0.25489 0.0
C245 C 0.4438 0.2963 0.29614 0.0
C246 C 0.43001 0.26395 0.21456 0.0
C247 C 0.4536 0.26694 0.21531 0.0
C248 C 0.4676 0.2997 0.29464 0.0
C249 C 0.47233 0.28495 0.2552 0.0
C250 C 0.45826 0.24922 0.18158 0.0
C251 C 0.47446 0.3074 0.04173 0.0
C252 C 0.45839 0.29787 0.98932 0.0
C253 C 0.47375 0.29156 0.08615 0.0
C254 C 0.45712 0.26588 0.07858 0.0
C255 C 0.44099 0.27235 0.98318 0.0
C256 C 0.4406 0.25644 0.02707 0.0
C257 C 0.4597 0.24854 0.11827 0.0
H258 H 0.52778 0.19076 0.10335 0.0
H259 H 0.50959 0.21072 0.16247 0.0
H260 H 0.47544 0.17592 0.95308 0.0
H261 H 0.45642 0.19462 0.01287 0.0
H262 H 0.4513 0.13782 0.23604 0.0
H263 H 0.44901 0.16665 0.16741 0.0
H264 H 0.4922 0.1984 0.37124 0.0
H265 H 0.49071 0.22735 0.3014 0.0
H266 H 0.40658 0.2754 0.25486 0.0
H267 H 0.41526 0.24974 0.18457 0.0
H268 H 0.48267 0.31376 0.3241 0.0
H269 H 0.49061 0.28733 0.25643 0.0
H270 H 0.48799 0.32704 0.04759 0.0
H271 H 0.48708 0.29919 0.12472 0.0
H272 H 0.42851 0.26454 0.94305 0.0
H273 H 0.42791 0.23662 0.0199 0.0
N274 N 0.46618 0.2327 0.09271 0.0
N275 N 0.46221 0.23328 0.21416 0.0
C276 C 0.04374 0.48747 0.54203 0.0
C277 C 0.02175 0.44819 0.75523 0.0
C278 C 0.9544 0.44911 0.72093 0.0
Mg279 Mg 0.02656 0.52224 0.47692 0.0
Mg280 Mg 0.01364 0.55929 0.55811 0.0
O281 O 0.00657 0.52656 0.53988 0.0
Mg282 Mg 0.01116 0.50787 0.6058 0.0
O283 O 0.01597 0.48752 0.66695 0.0
Mg284 Mg -0.00307 0.45363 0.62324 0.0
Mg285 Mg 0.00742 0.48928 0.74628 0.0
C286 C 0.97888 0.53082 0.66393 0.0
O287 O 0.03836 0.54295 0.66581 0.0
O288 O 0.00948 0.5389 0.41171 0.0
O289 O 0.02747 0.52946 0.75961 0.0
O290 O 0.0597 0.56169 0.49639 0.0
O291 O 0.00035 0.56318 0.47041 0.0
O292 O 0.05281 0.5847 0.56318 0.0
O293 O 0.98338 0.47166 0.55318 0.0
O294 O 0.99371 0.48289 0.45903 0.0
C295 C 0.98053 0.4666 0.49578 0.0
C296 C 0.00075 0.55359 0.41844 0.0
O297 O 0.98188 0.51193 0.65592 0.0
O298 O 0.01407 0.44087 0.69941 0.0
O299 O 0.99084 0.55094 0.63595 0.0
O300 O 0.96217 0.44093 0.67833 0.0
O301 O 0.02081 0.46627 0.7821 0.0
O302 O 0.9685 0.46988 0.74993 0.0
O303 O 0.04026 0.50589 0.55123 0.0
O304 O 0.03074 0.46683 0.56678 0.0
C305 C 0.06704 0.582 0.52812 0.0
C306 C 0.03919 0.54689 0.7237 0.0
C307 C 0.49543 0.0389 0.51832 0.0
C308 C 0.56251 0.02075 0.44367 0.0
C309 C 0.51733 0.9483 0.5157 0.0
Mg310 Mg 0.46242 0.01968 0.63274 0.0
Mg311 Mg 0.47928 0.00062 0.75155 0.0
O312 O 0.47227 0.99615 0.66747 0.0
Mg313 Mg 0.49941 0.00217 0.61414 0.0
O314 O 0.52494 0.00869 0.55574 0.0
Mg315 Mg 0.50326 0.99259 0.47975 0.0
Mg316 Mg 0.54964 0.00081 0.57263 0.0
C317 C 0.49937 0.96437 0.71733 0.0
O318 O 0.53089 0.02796 0.683 0.0
O319 O 0.42941 0.00181 0.69527 0.0
O320 O 0.56109 0.0196 0.66303 0.0
O321 O 0.48545 0.05126 0.70654 0.0
O322 O 0.44304 0.99034 0.77699 0.0
O323 O 0.50325 0.03907 0.77571 0.0
O324 O 0.47011 0.97701 0.54063 0.0
O325 O 0.44258 0.98914 0.55712 0.0
C326 C 0.44974 0.97621 0.52685 0.0
C327 C 0.42623 0.99221 0.74723 0.0
O328 O 0.50187 0.97015 0.66141 0.0
O329 O 0.53949 0.01188 0.42944 0.0
O330 O 0.49275 0.975 0.75709 0.0
O331 O 0.50624 0.95743 0.48576 0.0
O332 O 0.57049 0.0187 0.49626 0.0
O333 O 0.53415 0.96129 0.55705 0.0
O334 O 0.49563 0.03383 0.57405 0.0
O335 O 0.49938 0.02691 0.47636 0.0
C336 C 0.50021 0.05597 0.75305 0.0
C337 C 0.5521 0.03032 0.69544 0.0
C338 C 0.52662 0.54802 0.6947 0.0
C339 C 0.44909 0.47368 0.79011 0.0
C340 C 0.47617 0.42914 0.71269 0.0
Mg341 Mg 0.55262 0.54644 0.57256 0.0
Mg342 Mg 0.51976 0.50639 0.46033 0.0
O343 O 0.53091 0.51068 0.54194 0.0
Mg344 Mg 0.50576 0.4989 0.60384 0.0
O345 O 0.48244 0.48868 0.6698 0.0
Mg346 Mg 0.50518 0.49191 0.74039 0.0
Mg347 Mg 0.45333 0.45761 0.65758 0.0
C348 C 0.48436 0.452 0.50309 0.0
O349 O 0.47592 0.4995 0.54321 0.0
O350 O 0.57956 0.54807 0.49965 0.0
O351 O 0.44172 0.46516 0.56967 0.0
O352 O 0.53576 0.56211 0.50389 0.0
O353 O 0.55519 0.51907 0.42621 0.0
O354 O 0.50826 0.53246 0.43817 0.0
O355 O 0.53349 0.49735 0.66977 0.0
O356 O 0.56788 0.53074 0.64371 0.0
C357 C 0.55669 0.51227 0.67712 0.0
C358 C 0.57649 0.53581 0.44869 0.0
O359 O 0.48932 0.45901 0.55993 0.0
O360 O 0.47267 0.48549 0.79998 0.0
O361 O 0.49267 0.46731 0.46082 0.0
O362 O 0.49155 0.4502 0.73901 0.0
O363 O 0.43827 0.4621 0.73914 0.0
O364 O 0.4601 0.42715 0.67233 0.0
O365 O 0.52272 0.53917 0.63972 0.0
O366 O 0.52009 0.5338 0.7392 0.0
C367 C 0.51953 0.55495 0.45964 0.0
C368 C 0.45285 0.48355 0.5356 0.0
H369 H 0.15396 0.52496 0.27241 0.0
H370 H 0.1475 0.46079 0.35834 0.0
H371 H 0.12275 0.5245 0.33572 0.0
H372 H 0.11716 0.46075 0.42296 0.0
H373 H 0.04582 0.44917 0.48537 0.0
H374 H 0.07614 0.4512 0.4181 0.0
H375 H 0.11397 0.5316 0.43618 0.0
H376 H 0.08274 0.52948 0.50192 0.0
C377 C 0.14598 0.5109 0.30523 0.0
C378 C 0.1529 0.49273 0.31006 0.0
C379 C 0.12819 0.51068 0.3417 0.0
C380 C 0.11719 0.49244 0.38418 0.0
C381 C 0.12467 0.47467 0.3897 0.0
C382 C 0.14215 0.47471 0.35283 0.0
C383 C 0.06058 0.46732 0.47501 0.0
C384 C 0.06201 0.48917 0.4995 0.0
C385 C 0.07811 0.46849 0.43662 0.0
C386 C 0.09782 0.49156 0.42235 0.0
C387 C 0.09898 0.51349 0.44581 0.0
C388 C 0.08116 0.5123 0.48374 0.0
H389 H 0.69024 0.11969 0.24255 0.0
H390 H 0.64749 0.15522 0.27645 0.0
H391 H 0.65909 0.08213 0.28689 0.0
H392 H 0.61624 0.11756 0.31874 0.0
H393 H 0.55441 0.04047 0.34231 0.0
H394 H 0.5853 0.07302 0.28442 0.0
H395 H 0.64275 0.07043 0.39141 0.0
H396 H 0.61196 0.03782 0.44943 0.0
C397 C 0.67431 0.11957 0.2596 0.0
C398 C 0.67139 0.14052 0.25573 0.0
C399 C 0.65641 0.098 0.28456 0.0
C400 C 0.63513 0.09684 0.30553 0.0
C401 C 0.6322 0.11772 0.30167 0.0
C402 C 0.65015 0.13932 0.2774 0.0
C403 C 0.57358 0.0464 0.3527 0.0
C404 C 0.58071 0.03672 0.40104 0.0
C405 C 0.59126 0.06518 0.3198 0.0
C406 C 0.61641 0.07448 0.33406 0.0
C407 C 0.6235 0.0636 0.3794 0.0
C408 C 0.60583 0.04497 0.41274 0.0
H409 H 0.56636 0.6824 0.25524 0.0
H410 H 0.48778 0.64674 0.21776 0.0
H411 H 0.56044 0.65055 0.32464 0.0
H412 H 0.48191 0.61457 0.28694 0.0
H413 H 0.48911 0.54774 0.35903 0.0
H414 H 0.49016 0.57964 0.29564 0.0
H415 H 0.54374 0.63686 0.424 0.0
H416 H 0.54301 0.60514 0.48697 0.0
C417 C 0.5478 0.66787 0.26209 0.0
C418 C 0.52756 0.66725 0.23104 0.0
C419 C 0.5444 0.64961 0.30203 0.0
C420 C 0.52068 0.63018 0.31186 0.0
C421 C 0.50042 0.62925 0.28013 0.0
C422 C 0.50381 0.64762 0.24027 0.0
C423 C 0.50082 0.56712 0.37429 0.0
C424 C 0.51632 0.57385 0.4276 0.0
C425 C 0.50137 0.5854 0.33796 0.0
C426 C 0.51743 0.61077 0.35417 0.0
C427 C 0.53162 0.61746 0.40953 0.0
C428 C 0.53104 0.59923 0.44589 0.0
H429 H 0.91272 0.59013 0.17141 0.0
H430 H 0.87516 0.51155 0.20209 0.0
H431 H 0.95023 0.59497 0.2223 0.0
H432 H 0.91257 0.51633 0.25074 0.0
H433 H 0.98851 0.5897 0.40837 0.0
H434 H 0.96011 0.59065 0.33201 0.0
H435 H 0.95614 0.52755 0.23301 0.0
H436 H 0.98448 0.52639 0.30972 0.0
C437 C 0.91248 0.5739 0.18857 0.0
C438 C 0.89091 0.55046 0.18281 0.0
C439 C 0.93398 0.57666 0.21714 0.0
C440 C 0.93433 0.55598 0.2398 0.0
C441 C 0.913 0.53248 0.23241 0.0
C442 C 0.89152 0.52977 0.20456 0.0
C443 C 0.98204 0.57637 0.36962 0.0
C444 C 0.9883 0.55762 0.36572 0.0
C445 C 0.96593 0.57707 0.32563 0.0
C446 C 0.9557 0.55895 0.27719 0.0
C447 C 0.96358 0.54153 0.27046 0.0
C448 C 0.97986 0.54094 0.31424 0.0
H449 H 0.32168 0.90928 0.29475 0.0
H450 H 0.35444 0.86576 0.23864 0.0
H451 H 0.35821 0.9364 0.35911 0.0
H452 H 0.39191 0.89407 0.30025 0.0
H453 H 0.43692 0.92905 0.48651 0.0
H454 H 0.40583 0.90372 0.4051 0.0
H455 H 0.39959 0.96763 0.35999 0.0
H456 H 0.42939 0.99218 0.44329 0.0
C457 C 0.3368 0.90564 0.29573 0.0
C458 C 0.33503 0.88522 0.26204 0.0
C459 C 0.35798 0.92147 0.3319 0.0
C460 C 0.37812 0.91752 0.33466 0.0
C461 C 0.37666 0.89751 0.29956 0.0
C462 C 0.3553 0.88147 0.2637 0.0
C463 C 0.42907 0.9376 0.45834 0.0
C464 C 0.43496 0.96223 0.47154 0.0
C465 C 0.41139 0.92321 0.4116 0.0
C466 C 0.39979 0.93352 0.3769 0.0
C467 C 0.40751 0.95888 0.38711 0.0
C468 C 0.42467 0.97299 0.43448 0.0
H469 H 0.4138 0.31617 0.27846 0.0
H470 H 0.46284 0.31162 0.41323 0.0
H471 H 0.41309 0.34841 0.34205 0.0
H472 H 0.46414 0.34541 0.47368 0.0
H473 H 0.47169 0.41127 0.57068 0.0
H474 H 0.45108 0.36772 0.53269 0.0
H475 H 0.44305 0.38981 0.35325 0.0
H476 H 0.46191 0.43239 0.39176 0.0
C477 C 0.42412 0.32172 0.32204 0.0
C478 C 0.43917 0.31201 0.3396 0.0
C479 C 0.42396 0.34046 0.3583 0.0
C480 C 0.43933 0.3503 0.41197 0.0
C481 C 0.45218 0.33859 0.4326 0.0
C482 C 0.45187 0.31948 0.39711 0.0
C483 C 0.46481 0.40661 0.52362 0.0
C484 C 0.46893 0.42533 0.48398 0.0
C485 C 0.45316 0.38167 0.50163 0.0
C486 C 0.44569 0.37513 0.43954 0.0
C487 C 0.44819 0.3938 0.40137 0.0
C488 C 0.45951 0.41849 0.42337 0.0
H489 H 0.56149 0.88179 0.88227 0.0
H490 H 0.48294 0.83233 0.87817 0.0
H491 H 0.55501 0.91108 0.82361 0.0
H492 H 0.47663 0.86105 0.81848 0.0
H493 H 0.47619 0.93419 0.8064 0.0
H494 H 0.48325 0.90277 0.84899 0.0
H495 H 0.53769 0.91651 0.71978 0.0
H496 H 0.53063 0.94864 0.67659 0.0
C497 C 0.5429 0.87711 0.86863 0.0
C498 C 0.52273 0.8548 0.88528 0.0
C499 C 0.53923 0.8937 0.83434 0.0
C500 C 0.51532 0.88834 0.81657 0.0
C501 C 0.49526 0.86574 0.83184 0.0
C502 C 0.4989 0.84922 0.8658 0.0
C503 C 0.48961 0.93052 0.78661 0.0
C504 C 0.50292 0.94396 0.73818 0.0
C505 C 0.49351 0.91234 0.81084 0.0
C506 C 0.51094 0.9071 0.78764 0.0
C507 C 0.52418 0.92027 0.73862 0.0
C508 C 0.52001 0.93844 0.71362 0.0
H509 H 0.6599 0.4821 0.8486 0.0
H510 H 0.6538 0.52882 0.98826 0.0
H511 H 0.62413 0.47856 0.79233 0.0
H512 H 0.61875 0.52616 0.92983 0.0
H513 H 0.59634 0.54899 0.74231 0.0
H514 H 0.62241 0.54462 0.81962 0.0
H515 H 0.57575 0.46473 0.80176 0.0
H516 H 0.54902 0.46912 0.72493 0.0
C517 C 0.65065 0.49113 0.86815 0.0
C518 C 0.66002 0.50608 0.92263 0.0
C519 C 0.63017 0.48907 0.83578 0.0
C520 C 0.61889 0.50218 0.85684 0.0
C521 C 0.62731 0.516 0.91272 0.0
C522 C 0.64752 0.51772 0.94567 0.0
C523 C 0.59146 0.53051 0.75541 0.0
C524 C 0.5709 0.50937 0.72736 0.0
C525 C 0.60623 0.52804 0.79995 0.0
C526 C 0.60097 0.50436 0.81643 0.0
C527 C 0.58004 0.48316 0.78965 0.0
C528 C 0.56485 0.48568 0.74595 0.0
H529 H 0.16143 0.67166 0.90727 0.0
H530 H 0.10394 0.68886 0.93699 0.0
H531 H 0.13316 0.63617 0.83961 0.0
H532 H 0.07539 0.6526 0.87068 0.0
H533 H 0.03101 0.56545 0.82707 0.0
H534 H 0.05768 0.60575 0.88037 0.0
H535 H 0.10771 0.62629 0.73689 0.0
H536 H 0.08078 0.58573 0.68283 0.0
C537 C 0.14285 0.66807 0.89891 0.0
C538 C 0.13499 0.6832 0.92751 0.0
C539 C 0.1267 0.64776 0.86003 0.0
C540 C 0.10223 0.64187 0.84956 0.0
C541 C 0.09423 0.65682 0.87813 0.0
C542 C 0.1105 0.67739 0.9165 0.0
C543 C 0.04758 0.57865 0.80652 0.0
C544 C 0.05407 0.57238 0.75132 0.0
C545 C 0.06269 0.60178 0.8368 0.0
C546 C 0.08475 0.61898 0.81285 0.0
C547 C 0.09082 0.61318 0.75638 0.0
C548 C 0.07543 0.5901 0.72545 0.0
H549 H 0.50947 0.14353 0.05237 0.0
H550 H 0.52081 0.19426 0.91225 0.0
H551 H 0.51854 0.11835 0.98315 0.0
H552 H 0.53107 0.16981 0.84326 0.0
H553 H 0.49409 0.09504 0.7256 0.0
H554 H 0.50435 0.13121 0.7913 0.0
H555 H 0.54344 0.11008 0.91932 0.0
H556 H 0.53212 0.07301 0.85437 0.0
C557 C 0.51481 0.14973 0.00732 0.0
C558 C 0.51403 0.17044 0.98699 0.0
C559 C 0.52018 0.13543 0.96762 0.0
C560 C 0.52514 0.14182 0.90713 0.0
C561 C 0.52673 0.16403 0.88901 0.0
C562 C 0.52096 0.17807 0.92841 0.0
C563 C 0.5053 0.09831 0.76712 0.0
C564 C 0.51166 0.08076 0.78553 0.0
C565 C 0.51145 0.11929 0.80474 0.0
C566 C 0.52435 0.12335 0.86135 0.0
C567 C 0.53294 0.10715 0.87676 0.0
C568 C 0.52654 0.08596 0.83936 0.0
H569 H 0.36238 0.52028 0.97725 0.0
H570 H 0.33143 0.44437 0.02865 0.0
H571 H 0.39529 0.51745 0.93021 0.0
H572 H 0.36419 0.44148 0.98045 0.0
H573 H 0.40187 0.43859 0.80461 0.0
H574 H 0.37358 0.44105 0.87225 0.0
H575 H 0.43196 0.51178 0.9504 0.0
H576 H 0.46053 0.50933 0.882 0.0
C577 C 0.36278 0.50311 0.97938 0.0
C578 C 0.34411 0.48247 0.00632 0.0
C579 C 0.3817 0.50153 0.95253 0.0
C580 C 0.3823 0.47925 0.95165 0.0
C581 C 0.36404 0.45882 0.97995 0.0
C582 C 0.3452 0.46043 0.00714 0.0
C583 C 0.4088 0.45452 0.83681 0.0
C584 C 0.43336 0.47388 0.83769 0.0
C585 C 0.39262 0.45583 0.87588 0.0
C586 C 0.40053 0.47666 0.91641 0.0
C587 C 0.42535 0.4956 0.9192 0.0
C588 C 0.44171 0.49412 0.88046 0.0
H589 H 0.82718 0.37058 0.94084 0.0
H590 H 0.8594 0.32455 0.9072 0.0
H591 H 0.8539 0.39989 0.86935 0.0
H592 H 0.88653 0.35409 0.8376 0.0
H593 H 0.92189 0.40042 0.68463 0.0
H594 H 0.88723 0.37074 0.73897 0.0
H595 H 0.8976 0.43004 0.86597 0.0
H596 H 0.93188 0.4598 0.8111 0.0
C597 C 0.83988 0.36667 0.91801 0.0
C598 C 0.84129 0.34532 0.93006 0.0
C599 C 0.85527 0.38352 0.87733 0.0
C600 C 0.87228 0.3793 0.8475 0.0
C601 C 0.87339 0.35775 0.85897 0.0
C602 C 0.8581 0.34099 0.89969 0.0
C603 C 0.91642 0.40727 0.72321 0.0
C604 C 0.93003 0.43244 0.74419 0.0
C605 C 0.89667 0.39019 0.7547 0.0
C606 C 0.89003 0.39792 0.80768 0.0
C607 C 0.90223 0.42343 0.82544 0.0
C608 C 0.922 0.44051 0.79401 0.0
H609 H 0.89432 0.55099 0.93977 0.0
H610 H 0.84087 0.50083 0.79937 0.0
H611 H 0.92702 0.55063 0.88539 0.0
H612 H 0.8737 0.49989 0.74621 0.0
H613 H 0.93867 0.48882 0.69876 0.0
H614 H 0.90637 0.48648 0.76097 0.0
H615 H 0.94464 0.56669 0.78359 0.0
H616 H 0.97687 0.5691 0.72164 0.0
C617 C 0.8895 0.53995 0.89723 0.0
C618 C 0.86493 0.52622 0.87355 0.0
C619 C 0.90826 0.53963 0.86638 0.0
C620 C 0.90288 0.5253 0.81159 0.0
C621 C 0.87831 0.51092 0.78873 0.0
C622 C 0.85952 0.51146 0.81924 0.0
C623 C 0.94034 0.50593 0.71768 0.0
C624 C 0.96029 0.52916 0.70523 0.0
C625 C 0.92176 0.50458 0.7528 0.0
C626 C 0.923 0.52641 0.77685 0.0
C627 C 0.94331 0.54957 0.76591 0.0
C628 C 0.96168 0.55094 0.73018 0.0
H629 H 0.29197 0.91904 0.94731 0.0
H630 H 0.31189 0.86713 0.87012 0.0
H631 H 0.32431 0.95234 0.89353 0.0
H632 H 0.34255 0.90001 0.8135 0.0
H633 H 0.41572 0.99296 0.86494 0.0
H634 H 0.37658 0.96567 0.90844 0.0
H635 H 0.34289 0.93573 0.72885 0.0
H636 H 0.38189 0.96373 0.68489 0.0
C637 C 0.3029 0.91453 0.91865 0.0
C638 C 0.2992 0.89018 0.91375 0.0
C639 C 0.32117 0.93359 0.88731 0.0
C640 C 0.33556 0.92852 0.84909 0.0
C641 C 0.33129 0.90417 0.84195 0.0
C642 C 0.31354 0.8853 0.87433 0.0
C643 C 0.39971 0.9812 0.83469 0.0
C644 C 0.40173 0.9804 0.77166 0.0
C645 C 0.37738 0.96569 0.85953 0.0
C646 C 0.3569 0.94873 0.82181 0.0
C647 C 0.35849 0.94886 0.75858 0.0
C648 C 0.3807 0.96489 0.73356 0.0
H649 H 0.49975 0.32817 0.93327 0.0
H650 H 0.42257 0.30409 0.93248 0.0
H651 H 0.50465 0.35609 0.85338 0.0
H652 H 0.4275 0.33302 0.85457 0.0
H653 H 0.43936 0.38002 0.6956 0.0
H654 H 0.43519 0.34536 0.75353 0.0
H655 H 0.50647 0.39393 0.84541 0.0
H656 H 0.51101 0.42773 0.7862 0.0
C657 C 0.48386 0.32906 0.91616 0.0
C658 C 0.46088 0.3143 0.93959 0.0
C659 C 0.48663 0.34509 0.8704 0.0
C660 C 0.46655 0.34718 0.84771 0.0
C661 C 0.44335 0.33177 0.87012 0.0
C662 C 0.44051 0.31536 0.91522 0.0
C663 C 0.45439 0.38301 0.72695 0.0
C664 C 0.47538 0.40675 0.73672 0.0
C665 C 0.45188 0.36323 0.76081 0.0
C666 C 0.4703 0.3668 0.80509 0.0
C667 C 0.49192 0.39018 0.81159 0.0
C668 C 0.49448 0.40976 0.77769 0.0
H669 H 0.15483 0.47279 0.88978 0.0
H670 H 0.11113 0.41881 0.01608 0.0
H671 H 0.11768 0.4619 0.82657 0.0
H672 H 0.07365 0.40818 0.95332 0.0
H673 H 0.04949 0.43028 0.70737 0.0
H674 H 0.08044 0.42453 0.76328 0.0
H675 H 0.05585 0.43792 0.93257 0.0
H676 H 0.02523 0.44406 0.87694 0.0
C677 C 0.13723 0.45835 0.90336 0.0
C678 C 0.13563 0.44669 0.9576 0.0
C679 C 0.11605 0.45194 0.86707 0.0
C680 C 0.09289 0.4341 0.88503 0.0
C681 C 0.09135 0.42189 0.93849 0.0
C682 C 0.11266 0.42796 0.97423 0.0
C683 C 0.05012 0.43111 0.75652 0.0
C684 C 0.03522 0.43793 0.78793 0.0
C685 C 0.06788 0.42793 0.78839 0.0
C686 C 0.07059 0.43102 0.85204 0.0
C687 C 0.05403 0.43532 0.8835 0.0
C688 C 0.03661 0.43896 0.85168 0.0
H689 H 0.68495 0.13632 0.89109 0.0
H690 H 0.63302 0.15349 0.96904 0.0
H691 H 0.65157 0.10103 0.83209 0.0
H692 H 0.59928 0.11763 0.91115 0.0
H693 H 0.55274 0.07229 0.7365 0.0
H694 H 0.58277 0.1047 0.80869 0.0
H695 H 0.61726 0.06053 0.83966 0.0
H696 H 0.58754 0.02844 0.76586 0.0
C697 C 0.6663 0.13229 0.89605 0.0
C698 C 0.6615 0.14757 0.93439 0.0
C699 C 0.64713 0.11198 0.86263 0.0
C700 C 0.6227 0.10636 0.86729 0.0
C701 C 0.61791 0.1216 0.90608 0.0
C702 C 0.63717 0.14211 0.93914 0.0
C703 C 0.56638 0.06927 0.7599 0.0
C704 C 0.56788 0.04793 0.74568 0.0
C705 C 0.58362 0.08786 0.80124 0.0
C706 C 0.6026 0.08534 0.82945 0.0
C707 C 0.60321 0.06329 0.81763 0.0
C708 C 0.58613 0.04485 0.77574 0.0
H709 H 0.58698 0.69652 0.86863 0.0
H710 H 0.50937 0.6628 0.81732 0.0
H711 H 0.58849 0.66412 0.80646 0.0
H712 H 0.51136 0.63149 0.75343 0.0
H713 H 0.52175 0.58129 0.62645 0.0
H714 H 0.53182 0.62342 0.66113 0.0
H715 H 0.56595 0.61703 0.82781 0.0
H716 H 0.55557 0.57503 0.79387 0.0
C717 C 0.57034 0.68248 0.84364 0.0
C718 C 0.54797 0.68213 0.8488 0.0
C719 C 0.57133 0.66418 0.8075 0.0
C720 C 0.55009 0.64549 0.77502 0.0
C721 C 0.52812 0.646 0.77713 0.0
C722 C 0.52701 0.66399 0.81394 0.0
C723 C 0.53204 0.58924 0.66965 0.0
C724 C 0.53752 0.5749 0.70812 0.0
C725 C 0.53774 0.61324 0.68944 0.0
C726 C 0.54949 0.62329 0.7472 0.0
C727 C 0.55704 0.60977 0.78293 0.0
C728 C 0.55092 0.58569 0.76376 0.0
H729 H 0.51062 0.17259 0.38516 0.0
H730 H 0.43504 0.11889 0.32969 0.0
H731 H 0.51301 0.14204 0.44746 0.0
H732 H 0.4376 0.08835 0.39137 0.0
H733 H 0.46955 0.03564 0.41485 0.0
H734 H 0.46134 0.06678 0.37477 0.0
H735 H 0.49647 0.11431 0.53742 0.0
H736 H 0.50465 0.08256 0.57828 0.0
C737 C 0.49438 0.15445 0.38712 0.0
C738 C 0.47275 0.14806 0.35161 0.0
C739 C 0.49574 0.13699 0.42302 0.0
C740 C 0.47555 0.11277 0.42396 0.0
C741 C 0.45357 0.10679 0.39089 0.0
C742 C 0.45217 0.12423 0.35522 0.0
C743 C 0.47527 0.05258 0.44255 0.0
C744 C 0.48798 0.05684 0.49938 0.0
C745 C 0.47038 0.07036 0.41975 0.0
C746 C 0.47829 0.09301 0.45287 0.0
C747 C 0.49028 0.09702 0.51084 0.0
C748 C 0.49484 0.07889 0.5343 0.0
H749 H 0.35176 0.47448 0.24226 0.0
H750 H 0.3569 0.52847 0.37929 0.0
H751 H 0.3848 0.47212 0.29732 0.0
H752 H 0.39069 0.52674 0.43284 0.0
H753 H 0.46263 0.52719 0.48731 0.0
H754 H 0.43579 0.53393 0.41689 0.0
H755 H 0.38321 0.45517 0.40644 0.0
H756 H 0.40975 0.44838 0.47726 0.0
C757 C 0.36004 0.48598 0.28387 0.0
C758 C 0.35132 0.50125 0.30717 0.0
C759 C 0.37905 0.48475 0.31495 0.0
C760 C 0.39006 0.49912 0.36927 0.0
C761 C 0.38253 0.5156 0.39069 0.0
C762 C 0.36322 0.51659 0.36002 0.0
C763 C 0.44551 0.51128 0.46922 0.0
C764 C 0.43814 0.48726 0.48799 0.0
C765 C 0.43017 0.51519 0.4293 0.0
C766 C 0.40752 0.49507 0.40665 0.0
C767 C 0.4007 0.47094 0.42315 0.0
C768 C 0.41579 0.46709 0.46385 0.0
H769 H 0.88643 0.32801 0.27982 0.0
H770 H 0.84003 0.35531 0.3452 0.0
H771 H 0.92107 0.36013 0.34417 0.0
H772 H 0.87475 0.38761 0.40905 0.0
H773 H 0.93899 0.4327 0.548 0.0
H774 H 0.90479 0.3943 0.49901 0.0
H775 H 0.94471 0.40671 0.33722 0.0
H776 H 0.97864 0.44485 0.38561 0.0
C777 C 0.88359 0.34068 0.30856 0.0
C778 C 0.86065 0.33934 0.30725 0.0
C779 C 0.90339 0.35908 0.34513 0.0
C780 C 0.90054 0.37631 0.38149 0.0
C781 C 0.87737 0.37439 0.38191 0.0
C782 C 0.85762 0.35614 0.34487 0.0
C783 C 0.94057 0.42694 0.50237 0.0
C784 C 0.96133 0.44186 0.47033 0.0
C785 C 0.921 0.4051 0.47432 0.0
C786 C 0.92211 0.39765 0.41431 0.0
C787 C 0.94343 0.4119 0.38366 0.0
C788 C 0.96278 0.43383 0.41125 0.0
H789 H 0.48585 0.81864 0.28112 0.0
H790 H 0.56335 0.87308 0.29265 0.0
H791 H 0.4798 0.84131 0.36482 0.0
H792 H 0.55735 0.89563 0.3759 0.0
H793 H 0.54615 0.92785 0.54158 0.0
H794 H 0.54666 0.89452 0.48144 0.0
H795 H 0.48119 0.881 0.37715 0.0
H796 H 0.48032 0.91376 0.43783 0.0
C797 C 0.50156 0.83548 0.3014 0.0
C798 C 0.52506 0.84418 0.28004 0.0
C799 C 0.49813 0.84833 0.34958 0.0
C800 C 0.51812 0.87014 0.37737 0.0
C801 C 0.54165 0.87856 0.35656 0.0
C802 C 0.54507 0.86574 0.30849 0.0
C803 C 0.53139 0.9172 0.50723 0.0
C804 C 0.51355 0.92387 0.49344 0.0
C805 C 0.53183 0.89826 0.47238 0.0
C806 C 0.51436 0.88561 0.42348 0.0
C807 C 0.49497 0.89042 0.41431 0.0
C808 C 0.49454 0.90933 0.44902 0.0
H809 H 0.67043 0.54034 0.16798 0.0
H810 H 0.71606 0.5562 0.33294 0.0
H811 H 0.63925 0.54249 0.22525 0.0
H812 H 0.68431 0.55738 0.39139 0.0
H813 H 0.62545 0.57135 0.47292 0.0
H814 H 0.66028 0.57727 0.41528 0.0
H815 H 0.61065 0.51519 0.29173 0.0
H816 H 0.57632 0.5098 0.34718 0.0
C817 C 0.67372 0.54433 0.21667 0.0
C818 C 0.69539 0.54775 0.24629 0.0
C819 C 0.65586 0.54546 0.2496 0.0
C820 C 0.65902 0.54958 0.31317 0.0
C821 C 0.68131 0.55425 0.34251 0.0
C822 C 0.69943 0.55347 0.30922 0.0
C823 C 0.62205 0.55913 0.43317 0.0
C824 C 0.59802 0.54021 0.4146 0.0
C825 C 0.642 0.56244 0.40033 0.0
C826 C 0.63826 0.5469 0.3484 0.0
C827 C 0.61424 0.52797 0.33042 0.0
C828 C 0.59446 0.52475 0.36275 0.0
H829 H 0.1872 0.68753 0.32014 0.0
H830 H 0.13096 0.7077 0.32857 0.0
H831 H 0.16764 0.65754 0.39722 0.0
H832 H 0.11129 0.67768 0.40472 0.0
H833 H 0.08366 0.63125 0.55967 0.0
H834 H 0.11353 0.66668 0.50697 0.0
H835 H 0.13137 0.61818 0.40408 0.0
H836 H 0.10226 0.58308 0.45789 0.0
C837 C 0.17061 0.68549 0.33828 0.0
C838 C 0.16057 0.69992 0.31796 0.0
C839 C 0.15945 0.66838 0.38267 0.0
C840 C 0.13792 0.66521 0.40761 0.0
C841 C 0.12815 0.67996 0.38778 0.0
C842 C 0.13934 0.6971 0.34369 0.0
C843 C 0.09457 0.62829 0.52739 0.0
C844 C 0.09011 0.60418 0.51211 0.0
C845 C 0.1115 0.64857 0.49652 0.0
C846 C 0.12434 0.64519 0.44986 0.0
C847 C 0.1218 0.62156 0.43946 0.0
C848 C 0.10498 0.60133 0.47038 0.0
loop_
_geom_bond_atom_site_label_1
_geom_bond_atom_site_label_2
_geom_bond_distance
_geom_bond_site_symmetry_2
_ccdc_geom_bond_type
C0 C1 1.384 . S
C0 C2 1.384 . S
C0 H28 0.931 . S
C1 C0 1.384 . S
C1 C4 1.382 . S
C2 C0 1.384 . S
C2 C3 1.381 . S
C2 H29 0.930 . S
C3 C2 1.381 . S
C3 C5 1.381 . S
C3 C6 1.487 . S
C4 C1 1.382 . S
C4 C5 1.387 . S
C4 H30 0.930 1_554 S
C5 C3 1.381 . S
C5 C4 1.387 . S
C5 H31 0.931 . S
C6 C3 1.487 . S
C6 C13 1.399 . S
C6 N44 1.343 . S
C7 C8 1.384 . S
C7 C9 1.384 . S
C7 H32 0.931 . S
C8 C7 1.384 . S
C8 C11 1.382 . S
C9 C7 1.384 . S
C9 C10 1.381 . S
C9 H33 0.930 . S
C10 C9 1.381 . S
C10 C12 1.381 . S
C10 C13 1.487 . S
C11 C8 1.382 . S
C11 C12 1.387 . S
C11 H34 0.930 . S
C12 C10 1.381 . S
C12 C11 1.387 . S
C12 H35 0.931 . S
C13 C6 1.399 . S
C13 C10 1.487 . S
C13 N45 1.343 . S
C14 C15 1.384 . S
C14 C16 1.384 . S
C14 H36 0.931 . S
C15 C14 1.384 . S
C15 C18 1.382 . S
C16 C14 1.384 . S
C16 C17 1.381 . S
C16 H37 0.930 . S
C17 C16 1.381 . S
C17 C19 1.381 . S
C17 C20 1.487 . S
C18 C15 1.382 . S
C18 C19 1.387 . S
C18 H38 0.930 . S
C19 C17 1.381 . S
C19 C18 1.387 . S
C19 H39 0.931 . S
C20 C17 1.487 . S
C20 C27 1.399 . S
C20 N45 1.343 . S
C21 C22 1.384 . S
C21 C23 1.384 . S
C21 H40 0.931 . S
C22 C21 1.384 . S
C22 C25 1.382 . S
C23 C21 1.384 . S
C23 C24 1.381 . S
C23 H41 0.930 . S
C24 C23 1.381 . S
C24 C26 1.381 . S
C24 C27 1.487 . S
C25 C22 1.382 . S
C25 C26 1.387 . S
C25 H42 0.930 1_554 S
C26 C24 1.381 . S
C26 C25 1.387 . S
C26 H43 0.931 . S
C27 C20 1.399 . S
C27 C24 1.487 . S
C27 N44 1.343 . S
H28 C0 0.931 . S
H29 C2 0.930 . S
H30 C4 0.930 1_556 S
H31 C5 0.931 . S
H32 C7 0.931 . S
H33 C9 0.930 . S
H34 C11 0.930 . S
H35 C12 0.931 . S
H36 C14 0.931 . S
H37 C16 0.930 . S
H38 C18 0.930 . S
H39 C19 0.931 . S
H40 C21 0.931 . S
H41 C23 0.930 . S
H42 C25 0.930 1_556 S
H43 C26 0.931 . S
N44 C6 1.343 . S
N44 C27 1.343 . S
N45 C13 1.343 . S
N45 C20 1.343 . S
C46 C47 1.384 . S
C46 C48 1.384 . S
C46 H74 0.931 . S
C47 C46 1.384 . S
C47 C50 1.382 . S
C48 C46 1.384 . S
C48 C49 1.381 . S
C48 H75 0.930 . S
C49 C48 1.381 . S
C49 C51 1.381 . S
C49 C52 1.487 . S
C50 C47 1.382 . S
C50 C51 1.387 . S
C50 H76 0.930 . S
C51 C49 1.381 . S
C51 C50 1.387 . S
C51 H77 0.931 . S
C52 C49 1.487 . S
C52 C59 1.399 . S
C52 N90 1.343 . S
C53 C54 1.384 . S
C53 C55 1.384 1_556 S
C53 H78 0.931 . S
C54 C53 1.384 . S
C54 C57 1.382 . S
C55 C53 1.384 1_554 S
C55 C56 1.381 . S
C55 H79 0.930 . S
C56 C55 1.381 . S
C56 C58 1.381 1_554 S
C56 C59 1.487 . S
C57 C54 1.382 . S
C57 C58 1.387 . S
C57 H80 0.930 . S
C58 C56 1.381 1_556 S
C58 C57 1.387 . S
C58 H81 0.931 . S
C59 C52 1.399 . S
C59 C56 1.487 . S
C59 N91 1.343 . S
C60 C61 1.384 1_554 S
C60 C62 1.384 . S
C60 H82 0.931 . S
C61 C60 1.384 1_556 S
C61 C64 1.382 . S
C62 C60 1.384 . S
C62 C63 1.381 . S
C62 H83 0.930 . S
C63 C62 1.381 . S
C63 C65 1.381 1_554 S
C63 C66 1.487 . S
C64 C61 1.382 . S
C64 C65 1.387 . S
C64 H84 0.930 . S
C65 C63 1.381 1_556 S
C65 C64 1.387 . S
C65 H85 0.931 . S
C66 C63 1.487 . S
C66 C73 1.399 . S
C66 N91 1.343 . S
C67 C68 1.384 . S
C67 C69 1.384 . S
C67 H86 0.931 . S
C68 C67 1.384 . S
C68 C71 1.382 . S
C69 C67 1.384 . S
C69 C70 1.381 . S
C69 H87 0.930 . S
C70 C69 1.381 . S
C70 C72 1.381 . S
C70 C73 1.487 . S
C71 C68 1.382 . S
C71 C72 1.387 . S
C71 H88 0.930 . S
C72 C70 1.381 . S
C72 C71 1.387 . S
C72 H89 0.931 . S
C73 C66 1.399 . S
C73 C70 1.487 . S
C73 N90 1.343 . S
H74 C46 0.931 . S
H75 C48 0.930 . S
H76 C50 0.930 . S
H77 C51 0.931 . S
H78 C53 0.931 . S
H79 C55 0.930 . S
H80 C57 0.930 . S
H81 C58 0.931 . S
H82 C60 0.931 . S
H83 C62 0.930 . S
H84 C64 0.930 . S
H85 C65 0.931 . S
H86 C67 0.931 . S
H87 C69 0.930 . S
H88 C71 0.930 . S
H89 C72 0.931 . S
N90 C52 1.343 . S
N90 C73 1.343 . S
N91 C59 1.343 . S
N91 C66 1.343 . S
C92 C93 1.384 . S
C92 C94 1.384 . S
C92 H120 0.931 . S
C93 C92 1.384 . S
C93 C96 1.382 . S
C94 C92 1.384 . S
C94 C95 1.381 . S
C94 H121 0.930 1_556 S
C95 C94 1.381 . S
C95 C97 1.381 . S
C95 C98 1.487 1_556 S
C96 C93 1.382 . S
C96 C97 1.387 . S
C96 H122 0.930 . S
C97 C95 1.381 . S
C97 C96 1.387 . S
C97 H123 0.931 . S
C98 C95 1.487 1_554 S
C98 C105 1.399 . S
C98 N136 1.343 1_554 S
C99 C100 1.384 . S
C99 C101 1.384 . S
C99 H124 0.931 . S
C100 C99 1.384 . S
C100 C103 1.382 . S
C101 C99 1.384 . S
C101 C102 1.381 . S
C101 H125 0.930 . S
C102 C101 1.381 . S
C102 C104 1.381 . S
C102 C105 1.487 . S
C103 C100 1.382 . S
C103 C104 1.387 . S
C103 H126 0.930 . S
C104 C102 1.381 . S
C104 C103 1.387 . S
C104 H127 0.931 . S
C105 C98 1.399 . S
C105 C102 1.487 . S
C105 N137 1.343 . S
C106 C107 1.384 . S
C106 C108 1.384 . S
C106 H128 0.931 . S
C107 C106 1.384 . S
C107 C110 1.382 . S
C108 C106 1.384 . S
C108 C109 1.381 . S
C108 H129 0.930 . S
C109 C108 1.381 . S
C109 C111 1.381 . S
C109 C112 1.487 . S
C110 C107 1.382 . S
C110 C111 1.387 . S
C110 H130 0.930 . S
C111 C109 1.381 . S
C111 C110 1.387 . S
C111 H131 0.931 . S
C112 C109 1.487 . S
C112 C119 1.399 . S
C112 N137 1.343 . S
C113 C114 1.384 . S
C113 C115 1.384 . S
C113 H132 0.931 . S
C114 C113 1.384 . S
C114 C117 1.382 . S
C115 C113 1.384 . S
C115 C116 1.381 . S
C115 H133 0.930 1_556 S
C116 C115 1.381 . S
C116 C118 1.381 . S
C116 C119 1.487 1_556 S
C117 C114 1.382 . S
C117 C118 1.387 . S
C117 H134 0.930 . S
C118 C116 1.381 . S
C118 C117 1.387 . S
C118 H135 0.931 . S
C119 C112 1.399 . S
C119 C116 1.487 1_554 S
C119 N136 1.343 1_554 S
H120 C92 0.931 . S
H121 C94 0.930 1_554 S
H122 C96 0.930 . S
H123 C97 0.931 . S
H124 C99 0.931 . S
H125 C101 0.930 . S
H126 C103 0.930 . S
H127 C104 0.931 . S
H128 C106 0.931 . S
H129 C108 0.930 . S
H130 C110 0.930 . S
H131 C111 0.931 . S
H132 C113 0.931 . S
H133 C115 0.930 1_554 S
H134 C117 0.930 . S
H135 C118 0.931 . S
N136 C98 1.343 1_556 S
N136 C119 1.343 1_556 S
N137 C105 1.343 . S
N137 C112 1.343 . S
C138 C139 1.384 . S
C138 C140 1.384 . S
C138 H166 0.931 . S
C139 C138 1.384 . S
C139 C142 1.382 . S
C140 C138 1.384 . S
C140 C141 1.381 . S
C140 H167 0.940 . S
C141 C140 1.381 . S
C141 C143 1.381 . S
C141 C144 1.487 . S
C142 C139 1.382 . S
C142 C143 1.387 . S
C142 H168 0.930 . S
C143 C141 1.381 . S
C143 C142 1.387 . S
C143 H169 0.931 . S
C144 C141 1.487 . S
C144 C151 1.399 1_556 S
C144 N182 1.343 . S
C145 C146 1.384 . S
C145 C147 1.384 . S
C145 H170 0.931 . S
C146 C145 1.384 . S
C146 C149 1.382 . S
C147 C145 1.384 . S
C147 C148 1.381 . S
C147 H171 0.930 . S
C148 C147 1.381 . S
C148 C150 1.381 . S
C148 C151 1.487 . S
C149 C146 1.382 . S
C149 C150 1.387 . S
C149 H172 0.930 . S
C150 C148 1.381 . S
C150 C149 1.387 . S
C150 H173 0.931 . S
C151 C144 1.399 1_554 S
C151 C148 1.487 . S
C151 N183 1.343 . S
C152 C153 1.384 . S
C152 C154 1.384 . S
C152 H174 0.931 . S
C153 C152 1.384 . S
C153 C156 1.382 . S
C154 C152 1.384 . S
C154 C155 1.381 . S
C154 H175 0.930 . S
C155 C154 1.381 . S
C155 C157 1.381 . S
C155 C158 1.487 . S
C156 C153 1.382 . S
C156 C157 1.387 . S
C156 H176 0.930 . S
C157 C155 1.381 . S
C157 C156 1.387 . S
C157 H177 0.931 . S
C158 C155 1.487 . S
C158 C165 1.399 1_554 S
C158 N183 1.343 . S
C159 C160 1.384 . S
C159 C161 1.384 . S
C159 H178 0.931 . S
C160 C159 1.384 . S
C160 C163 1.382 . S
C161 C159 1.384 . S
C161 C162 1.381 . S
C161 H179 0.930 . S
C162 C161 1.381 . S
C162 C164 1.381 . S
C162 C165 1.487 . S
C163 C160 1.382 . S
C163 C164 1.387 . S
C163 H180 0.930 . S
C164 C162 1.381 . S
C164 C163 1.387 . S
C164 H181 0.931 . S
C165 C158 1.399 1_556 S
C165 C162 1.487 . S
C165 N182 1.343 . S
H166 C138 0.931 . S
H167 C140 0.940 . S
H168 C142 0.930 . S
H169 C143 0.931 . S
H170 C145 0.931 . S
H171 C147 0.930 . S
H172 C149 0.930 . S
H173 C150 0.931 . S
H174 C152 0.931 . S
H175 C154 0.930 . S
H176 C156 0.930 . S
H177 C157 0.931 . S
H178 C159 0.931 . S
H179 C161 0.930 . S
H180 C163 0.930 . S
H181 C164 0.931 . S
N182 C144 1.343 . S
N182 C165 1.343 . S
N183 C151 1.343 . S
N183 C158 1.343 . S
C184 C185 1.384 1_554 S
C184 C186 1.384 . S
C184 H212 0.931 . S
C185 C184 1.384 1_556 S
C185 C188 1.382 . S
C186 C184 1.384 . S
C186 C187 1.381 . S
C186 H213 0.930 . S
C187 C186 1.381 . S
C187 C189 1.381 1_554 S
C187 C190 1.487 . S
C188 C185 1.382 . S
C188 C189 1.387 . S
C188 H214 0.930 . S
C189 C187 1.381 1_556 S
C189 C188 1.387 . S
C189 H215 0.931 . S
C190 C187 1.487 . S
C190 C197 1.399 . S
C190 N228 1.343 . S
C191 C192 1.384 . S
C191 C193 1.384 . S
C191 H216 0.931 . S
C192 C191 1.384 . S
C192 C195 1.382 . S
C193 C191 1.384 . S
C193 C194 1.381 . S
C193 H217 0.930 . S
C194 C193 1.381 . S
C194 C196 1.381 . S
C194 C197 1.487 . S
C195 C192 1.382 . S
C195 C196 1.387 . S
C195 H218 0.930 . S
C196 C194 1.381 . S
C196 C195 1.387 . S
C196 H219 0.931 . S
C197 C190 1.399 . S
C197 C194 1.487 . S
C197 N229 1.343 . S
C198 C199 1.384 . S
C198 C200 1.384 . S
C198 H220 0.931 . S
C199 C198 1.384 . S
C199 C202 1.382 . S
C200 C198 1.384 . S
C200 C201 1.381 . S
C200 H221 0.930 . S
C201 C200 1.381 . S
C201 C203 1.381 . S
C201 C204 1.487 . S
C202 C199 1.382 . S
C202 C203 1.387 . S
C202 H222 0.930 . S
C203 C201 1.381 . S
C203 C202 1.387 . S
C203 H223 0.931 . S
C204 C201 1.487 . S
C204 C211 1.399 . S
C204 N229 1.343 . S
C205 C206 1.384 1_554 S
C205 C207 1.384 . S
C205 H224 0.931 . S
C206 C205 1.384 1_556 S
C206 C209 1.382 . S
C207 C205 1.384 . S
C207 C208 1.381 . S
C207 H225 0.930 . S
C208 C207 1.381 . S
C208 C210 1.381 1_554 S
C208 C211 1.487 . S
C209 C206 1.382 . S
C209 C210 1.387 . S
C209 H226 0.930 . S
C210 C208 1.381 1_556 S
C210 C209 1.387 . S
C210 H227 0.931 . S
C211 C204 1.399 . S
C211 C208 1.487 . S
C211 N228 1.343 . S
H212 C184 0.931 . S
H213 C186 0.930 . S
H214 C188 0.930 . S
H215 C189 0.931 . S
H216 C191 0.931 . S
H217 C193 0.930 . S
H218 C195 0.930 . S
H219 C196 0.931 . S
H220 C198 0.931 . S
H221 C200 0.930 . S
H222 C202 0.930 . S
H223 C203 0.931 . S
H224 C205 0.931 . S
H225 C207 0.930 . S
H226 C209 0.930 . S
H227 C210 0.931 . S
N228 C190 1.343 . S
N228 C211 1.343 . S
N229 C197 1.343 . S
N229 C204 1.343 . S
C230 C231 1.384 . S
C230 C232 1.384 . S
C230 H258 0.931 . S
C231 C230 1.384 . S
C231 C234 1.382 . S
C232 C230 1.384 . S
C232 C233 1.381 . S
C232 H259 0.930 . S
C233 C232 1.381 . S
C233 C235 1.381 . S
C233 C236 1.487 . S
C234 C231 1.382 . S
C234 C235 1.387 . S
C234 H260 0.930 1_554 S
C235 C233 1.381 . S
C235 C234 1.387 . S
C235 H261 0.931 . S
C236 C233 1.487 . S
C236 C243 1.399 . S
C236 N274 1.343 . S
C237 C238 1.384 . S
C237 C239 1.384 . S
C237 H262 0.931 . S
C238 C237 1.384 . S
C238 C241 1.382 . S
C239 C237 1.384 . S
C239 C240 1.381 . S
C239 H263 0.930 . S
C240 C239 1.381 . S
C240 C242 1.381 . S
C240 C243 1.487 . S
C241 C238 1.382 . S
C241 C242 1.387 . S
C241 H264 0.930 . S
C242 C240 1.381 . S
C242 C241 1.387 . S
C242 H265 0.931 . S
C243 C236 1.399 . S
C243 C240 1.487 . S
C243 N275 1.343 . S
C244 C245 1.384 . S
C244 C246 1.384 . S
C244 H266 0.931 . S
C245 C244 1.384 . S
C245 C248 1.382 . S
C246 C244 1.384 . S
C246 C247 1.381 . S
C246 H267 0.930 . S
C247 C246 1.381 . S
C247 C249 1.381 . S
C247 C250 1.487 . S
C248 C245 1.382 . S
C248 C249 1.387 . S
C248 H268 0.930 . S
C249 C247 1.381 . S
C249 C248 1.387 . S
C249 H269 0.931 . S
C250 C247 1.487 . S
C250 C257 1.399 . S
C250 N275 1.343 . S
C251 C252 1.384 . S
C251 C253 1.384 . S
C251 H270 0.931 . S
C252 C251 1.384 . S
C252 C255 1.382 . S
C253 C251 1.384 . S
C253 C254 1.381 . S
C253 H271 0.930 . S
C254 C253 1.381 . S
C254 C256 1.381 . S
C254 C257 1.487 . S
C255 C252 1.382 . S
C255 C256 1.387 . S
C255 H272 0.930 1_554 S
C256 C254 1.381 . S
C256 C255 1.387 . S
C256 H273 0.931 . S
C257 C250 1.399 . S
C257 C254 1.487 . S
C257 N274 1.343 . S
H258 C230 0.931 . S
H259 C232 0.930 . S
H260 C234 0.930 1_556 S
H261 C235 0.931 . S
H262 C237 0.931 . S
H263 C239 0.930 . S
H264 C241 0.930 . S
H265 C242 0.931 . S
H266 C244 0.931 . S
H267 C246 0.930 . S
H268 C248 0.930 . S
H269 C249 0.931 . S
H270 C251 0.931 . S
H271 C253 0.930 . S
H272 C255 0.930 1_556 S
H273 C256 0.931 . S
N274 C236 1.343 . S
N274 C257 1.343 . S
N275 C243 1.343 . S
N275 C250 1.343 . S
C276 O303 1.312 . S
C276 O304 1.208 . S
C277 O298 1.331 . S
C277 O301 1.244 . S
C278 O300 1.264 . S
C278 O302 1.273 . S
Mg279 O281 1.936 1_455 S
Mg279 O288 2.081 1_455 S
Mg279 O290 2.023 . S
Mg279 O294 2.031 1_455 S
Mg279 O303 2.291 . S
Mg280 O281 1.963 . S
Mg280 O291 1.942 . S
Mg280 O292 1.955 1_655 S
Mg280 O299 1.986 . S
O281 Mg279 1.936 1_655 S
O281 Mg280 1.963 . S
O281 Mg282 1.915 1_655 S
Mg282 O281 1.915 1_455 S
Mg282 O283 1.915 . S
Mg282 O287 2.013 . S
Mg282 O293 2.114 1_455 S
Mg282 O297 2.013 1_455 S
Mg282 O303 2.114 . S
O283 Mg282 1.915 . S
O283 Mg284 1.936 . S
O283 Mg285 1.963 . S
Mg284 O283 1.936 . S
Mg284 O293 2.291 1_455 S
Mg284 O298 2.081 . S
Mg284 O300 2.023 1_455 S
Mg284 O304 2.031 . S
Mg285 O283 1.963 . S
Mg285 O289 1.986 . S
Mg285 O301 1.942 . S
Mg285 O302 1.955 1_455 S
C286 O297 1.191 . S
C286 O299 1.307 . S
O287 Mg282 2.013 . S
O287 C306 1.191 . S
O288 Mg279 2.081 1_655 S
O288 C296 1.331 . S
O289 Mg285 1.986 . S
O289 C306 1.307 . S
O290 Mg279 2.023 . S
O290 C305 1.264 . S
O291 Mg280 1.942 . S
O291 C296 1.244 . S
O292 Mg280 1.955 1_455 S
O292 C305 1.273 . S
O293 Mg282 2.114 1_655 S
O293 Mg284 2.291 1_655 S
O293 C295 1.312 . S
O294 Mg279 2.031 1_655 S
O294 C295 1.208 . S
C295 O293 1.312 . S
C295 O294 1.208 . S
C296 O288 1.331 . S
C296 O291 1.244 . S
O297 Mg282 2.013 1_655 S
O297 C286 1.191 . S
O298 C277 1.331 . S
O298 Mg284 2.081 . S
O299 Mg280 1.986 . S
O299 C286 1.307 . S
O300 C278 1.264 . S
O300 Mg284 2.023 1_655 S
O301 C277 1.244 . S
O301 Mg285 1.942 . S
O302 C278 1.273 . S
O302 Mg285 1.955 1_655 S
O303 C276 1.312 . S
O303 Mg279 2.291 . S
O303 Mg282 2.114 . S
O304 C276 1.208 . S
O304 Mg284 2.031 . S
C305 O290 1.264 . S
C305 O292 1.273 . S
C306 O287 1.191 . S
C306 O289 1.307 . S
C307 O334 1.312 . S
C307 O335 1.208 . S
C308 O329 1.331 . S
C308 O332 1.244 . S
C309 O331 1.264 . S
C309 O333 1.273 . S
Mg310 O312 1.936 1_545 S
Mg310 O319 2.081 1_545 S
Mg310 O321 2.023 . S
Mg310 O325 2.031 1_545 S
Mg310 O334 2.291 . S
Mg311 O312 1.964 . S
Mg311 O322 1.942 . S
Mg311 O323 1.956 1_565 S
Mg311 O330 1.984 . S
O312 Mg310 1.936 1_565 S
O312 Mg311 1.964 . S
O312 Mg313 1.915 1_565 S
Mg313 O312 1.915 1_545 S
Mg313 O314 1.915 . S
Mg313 O318 2.013 . S
Mg313 O324 2.114 1_545 S
Mg313 O328 2.013 1_545 S
Mg313 O334 2.114 . S
O314 Mg313 1.915 . S
O314 Mg315 1.936 . S
O314 Mg316 1.963 . S
Mg315 O314 1.936 . S
Mg315 O324 2.291 1_545 S
Mg315 O329 2.081 . S
Mg315 O331 2.023 1_545 S
Mg315 O335 2.031 . S
Mg316 O314 1.963 . S
Mg316 O320 1.986 . S
Mg316 O332 1.942 . S
Mg316 O333 1.955 1_545 S
C317 O328 1.191 . S
C317 O330 1.307 . S
O318 Mg313 2.013 . S
O318 C337 1.191 . S
O319 Mg310 2.081 1_565 S
O319 C327 1.331 . S
O320 Mg316 1.986 . S
O320 C337 1.307 . S
O321 Mg310 2.023 . S
O321 C336 1.264 . S
O322 Mg311 1.942 . S
O322 C327 1.244 . S
O323 Mg311 1.956 1_545 S
O323 C336 1.273 . S
O324 Mg313 2.114 1_565 S
O324 Mg315 2.291 1_565 S
O324 C326 1.312 . S
O325 Mg310 2.031 1_565 S
O325 C326 1.208 . S
C326 O324 1.312 . S
C326 O325 1.208 . S
C327 O319 1.331 . S
C327 O322 1.244 . S
O328 Mg313 2.013 1_565 S
O328 C317 1.191 . S
O329 C308 1.331 . S
O329 Mg315 2.081 . S
O330 Mg311 1.984 . S
O330 C317 1.307 . S
O331 C309 1.264 . S
O331 Mg315 2.023 1_565 S
O332 C308 1.244 . S
O332 Mg316 1.942 . S
O333 C309 1.273 . S
O333 Mg316 1.955 1_565 S
O334 C307 1.312 . S
O334 Mg310 2.291 . S
O334 Mg313 2.114 . S
O335 C307 1.208 . S
O335 Mg315 2.031 . S
C336 O321 1.264 . S
C336 O323 1.273 . S
C337 O318 1.191 . S
C337 O320 1.307 . S
C338 O365 1.312 . S
C338 O366 1.208 . S
C339 O360 1.331 . S
C339 O363 1.244 . S
C340 O362 1.264 . S
C340 O364 1.273 . S
Mg341 O343 1.936 . S
Mg341 O350 2.081 . S
Mg341 O352 2.023 . S
Mg341 O356 2.031 . S
Mg341 O365 2.291 . S
Mg342 O343 1.963 . S
Mg342 O353 1.942 . S
Mg342 O354 1.955 . S
Mg342 O361 1.986 . S
O343 Mg341 1.936 . S
O343 Mg342 1.963 . S
O343 Mg344 1.915 . S
Mg344 O343 1.915 . S
Mg344 O345 1.915 . S
Mg344 O349 2.013 . S
Mg344 O355 2.114 . S
Mg344 O359 2.013 . S
Mg344 O365 2.114 . S
O345 Mg344 1.915 . S
O345 Mg346 1.936 . S
O345 Mg347 1.963 . S
Mg346 O345 1.936 . S
Mg346 O355 2.291 . S
Mg346 O360 2.081 . S
Mg346 O362 2.023 . S
Mg346 O366 2.031 . S
Mg347 O345 1.963 . S
Mg347 O351 1.986 . S
Mg347 O363 1.942 . S
Mg347 O364 1.955 . S
C348 O359 1.191 . S
C348 O361 1.307 . S
O349 Mg344 2.013 . S
O349 C368 1.191 . S
O350 Mg341 2.081 . S
O350 C358 1.331 . S
O351 Mg347 1.986 . S
O351 C368 1.307 . S
O352 Mg341 2.023 . S
O352 C367 1.264 . S
O353 Mg342 1.942 . S
O353 C358 1.244 . S
O354 Mg342 1.955 . S
O354 C367 1.273 . S
O355 Mg344 2.114 . S
O355 Mg346 2.291 . S
O355 C357 1.312 . S
O356 Mg341 2.031 . S
O356 C357 1.208 . S
C357 O355 1.312 . S
C357 O356 1.208 . S
C358 O350 1.331 . S
C358 O353 1.244 . S
O359 Mg344 2.013 . S
O359 C348 1.191 . S
O360 C339 1.331 . S
O360 Mg346 2.081 . S
O361 Mg342 1.986 . S
O361 C348 1.307 . S
O362 C340 1.264 . S
O362 Mg346 2.023 . S
O363 C339 1.244 . S
O363 Mg347 1.942 . S
O364 C340 1.273 . S
O364 Mg347 1.955 . S
O365 C338 1.312 . S
O365 Mg341 2.291 . S
O365 Mg344 2.114 . S
O366 C338 1.208 . S
O366 Mg346 2.031 . S
C367 O352 1.264 . S
C367 O354 1.273 . S
C368 O349 1.191 . S
C368 O351 1.307 . S
H369 C377 0.950 . S
H370 C382 0.950 . S
H371 C379 0.950 . S
H372 C381 0.950 . S
H373 C383 0.950 . S
H374 C385 0.950 . S
H375 C387 0.950 . S
H376 C388 0.950 . S
C377 H369 0.950 . S
C377 C378 1.386 . S
C377 C379 1.391 . S
C378 C377 1.386 . S
C378 C382 1.393 . S
C379 H371 0.950 . S
C379 C377 1.391 . S
C379 C380 1.400 . S
C380 C379 1.400 . S
C380 C381 1.398 . S
C380 C386 1.491 . S
C381 H372 0.950 . S
C381 C380 1.398 . S
C381 C382 1.391 . S
C382 H370 0.950 . S
C382 C378 1.393 . S
C382 C381 1.391 . S
C383 H373 0.950 . S
C383 C384 1.386 . S
C383 C385 1.391 . S
C384 C383 1.386 . S
C384 C388 1.393 . S
C385 H374 0.950 . S
C385 C383 1.391 . S
C385 C386 1.400 . S
C386 C380 1.491 . S
C386 C385 1.400 . S
C386 C387 1.398 . S
C387 H375 0.950 . S
C387 C386 1.398 . S
C387 C388 1.391 . S
C388 H376 0.950 . S
C388 C384 1.393 . S
C388 C387 1.391 . S
H389 C397 0.950 . S
H390 C402 0.950 . S
H391 C399 0.950 . S
H392 C401 0.950 . S
H393 C403 0.950 . S
H394 C405 0.950 . S
H395 C407 0.950 . S
H396 C408 0.950 . S
C397 H389 0.950 . S
C397 C398 1.386 . S
C397 C399 1.391 . S
C398 C397 1.386 . S
C398 C402 1.393 . S
C399 H391 0.950 . S
C399 C397 1.391 . S
C399 C400 1.400 . S
C400 C399 1.400 . S
C400 C401 1.398 . S
C400 C406 1.491 . S
C401 H392 0.950 . S
C401 C400 1.398 . S
C401 C402 1.391 . S
C402 H390 0.950 . S
C402 C398 1.393 . S
C402 C401 1.391 . S
C403 H393 0.950 . S
C403 C404 1.386 . S
C403 C405 1.391 . S
C404 C403 1.386 . S
C404 C408 1.393 . S
C405 H394 0.950 . S
C405 C403 1.391 . S
C405 C406 1.400 . S
C406 C400 1.491 . S
C406 C405 1.400 . S
C406 C407 1.398 . S
C407 H395 0.950 . S
C407 C406 1.398 . S
C407 C408 1.391 . S
C408 H396 0.950 . S
C408 C404 1.393 . S
C408 C407 1.391 . S
H409 C417 0.950 . S
H410 C422 0.950 . S
H411 C419 0.950 . S
H412 C421 0.950 . S
H413 C423 0.950 . S
H414 C425 0.950 . S
H415 C427 0.950 . S
H416 C428 0.950 . S
C417 H409 0.950 . S
C417 C418 1.386 . S
C417 C419 1.391 . S
C418 C417 1.386 . S
C418 C422 1.393 . S
C419 H411 0.950 . S
C419 C417 1.391 . S
C419 C420 1.400 . S
C420 C419 1.400 . S
C420 C421 1.398 . S
C420 C426 1.491 . S
C421 H412 0.950 . S
C421 C420 1.398 . S
C421 C422 1.391 . S
C422 H410 0.950 . S
C422 C418 1.393 . S
C422 C421 1.391 . S
C423 H413 0.950 . S
C423 C424 1.386 . S
C423 C425 1.391 . S
C424 C423 1.386 . S
C424 C428 1.393 . S
C425 H414 0.950 . S
C425 C423 1.391 . S
C425 C426 1.400 . S
C426 C420 1.491 . S
C426 C425 1.400 . S
C426 C427 1.398 . S
C427 H415 0.950 . S
C427 C426 1.398 . S
C427 C428 1.391 . S
C428 H416 0.950 . S
C428 C424 1.393 . S
C428 C427 1.391 . S
H429 C437 0.950 . S
H430 C442 0.950 . S
H431 C439 0.950 . S
H432 C441 0.950 . S
H433 C443 0.950 . S
H434 C445 0.950 . S
H435 C447 0.950 . S
H436 C448 0.950 . S
C437 H429 0.950 . S
C437 C438 1.386 . S
C437 C439 1.391 . S
C438 C437 1.386 . S
C438 C442 1.393 . S
C439 H431 0.950 . S
C439 C437 1.391 . S
C439 C440 1.400 . S
C440 C439 1.400 . S
C440 C441 1.398 . S
C440 C446 1.491 . S
C441 H432 0.950 . S
C441 C440 1.398 . S
C441 C442 1.391 . S
C442 H430 0.950 . S
C442 C438 1.393 . S
C442 C441 1.391 . S
C443 H433 0.950 . S
C443 C444 1.386 . S
C443 C445 1.391 . S
C444 C443 1.386 . S
C444 C448 1.393 . S
C445 H434 0.950 . S
C445 C443 1.391 . S
C445 C446 1.400 . S
C446 C440 1.491 . S
C446 C445 1.400 . S
C446 C447 1.398 . S
C447 H435 0.950 . S
C447 C446 1.398 . S
C447 C448 1.391 . S
C448 H436 0.950 . S
C448 C444 1.393 . S
C448 C447 1.391 . S
H449 C457 0.950 . S
H450 C462 0.950 . S
H451 C459 0.950 . S
H452 C461 0.950 . S
H453 C463 0.950 . S
H454 C465 0.950 . S
H455 C467 0.950 . S
H456 C468 0.950 . S
C457 H449 0.950 . S
C457 C458 1.386 . S
C457 C459 1.391 . S
C458 C457 1.386 . S
C458 C462 1.393 . S
C459 H451 0.950 . S
C459 C457 1.391 . S
C459 C460 1.400 . S
C460 C459 1.400 . S
C460 C461 1.398 . S
C460 C466 1.491 . S
C461 H452 0.950 . S
C461 C460 1.398 . S
C461 C462 1.391 . S
C462 H450 0.950 . S
C462 C458 1.393 . S
C462 C461 1.391 . S
C463 H453 0.950 . S
C463 C464 1.386 . S
C463 C465 1.391 . S
C464 C463 1.386 . S
C464 C468 1.393 . S
C465 H454 0.950 . S
C465 C463 1.391 . S
C465 C466 1.400 . S
C466 C460 1.491 . S
C466 C465 1.400 . S
C466 C467 1.398 . S
C467 H455 0.950 . S
C467 C466 1.398 . S
C467 C468 1.391 . S
C468 H456 0.950 . S
C468 C464 1.393 . S
C468 C467 1.391 . S
H469 C477 0.950 . S
H470 C482 0.950 . S
H471 C479 0.950 . S
H472 C481 0.950 . S
H473 C483 0.950 . S
H474 C485 0.950 . S
H475 C487 0.950 . S
H476 C488 0.950 . S
C477 H469 0.950 . S
C477 C478 1.386 . S
C477 C479 1.391 . S
C478 C477 1.386 . S
C478 C482 1.393 . S
C479 H471 0.950 . S
C479 C477 1.391 . S
C479 C480 1.400 . S
C480 C479 1.400 . S
C480 C481 1.398 . S
C480 C486 1.491 . S
C481 H472 0.950 . S
C481 C480 1.398 . S
C481 C482 1.391 . S
C482 H470 0.950 . S
C482 C478 1.393 . S
C482 C481 1.391 . S
C483 H473 0.950 . S
C483 C484 1.386 . S
C483 C485 1.391 . S
C484 C483 1.386 . S
C484 C488 1.393 . S
C485 H474 0.950 . S
C485 C483 1.391 . S
C485 C486 1.400 . S
C486 C480 1.491 . S
C486 C485 1.400 . S
C486 C487 1.398 . S
C487 H475 0.950 . S
C487 C486 1.398 . S
C487 C488 1.391 . S
C488 H476 0.950 . S
C488 C484 1.393 . S
C488 C487 1.391 . S
H489 C497 0.950 . S
H490 C502 0.950 . S
H491 C499 0.950 . S
H492 C501 0.950 . S
H493 C503 0.950 . S
H494 C505 0.950 . S
H495 C507 0.950 . S
H496 C508 0.950 . S
C497 H489 0.950 . S
C497 C498 1.386 . S
C497 C499 1.391 . S
C498 C497 1.386 . S
C498 C502 1.393 . S
C499 H491 0.950 . S
C499 C497 1.391 . S
C499 C500 1.400 . S
C500 C499 1.400 . S
C500 C501 1.398 . S
C500 C506 1.491 . S
C501 H492 0.950 . S
C501 C500 1.398 . S
C501 C502 1.391 . S
C502 H490 0.950 . S
C502 C498 1.393 . S
C502 C501 1.391 . S
C503 H493 0.950 . S
C503 C504 1.386 . S
C503 C505 1.391 . S
C504 C503 1.386 . S
C504 C508 1.393 . S
C505 H494 0.950 . S
C505 C503 1.391 . S
C505 C506 1.400 . S
C506 C500 1.491 . S
C506 C505 1.400 . S
C506 C507 1.398 . S
C507 H495 0.950 . S
C507 C506 1.398 . S
C507 C508 1.391 . S
C508 H496 0.950 . S
C508 C504 1.393 . S
C508 C507 1.391 . S
H509 C517 0.950 . S
H510 C522 0.950 . S
H511 C519 0.950 . S
H512 C521 0.950 . S
H513 C523 0.950 . S
H514 C525 0.950 . S
H515 C527 0.950 . S
H516 C528 0.950 . S
C517 H509 0.950 . S
C517 C518 1.386 . S
C517 C519 1.391 . S
C518 C517 1.386 . S
C518 C522 1.393 . S
C519 H511 0.950 . S
C519 C517 1.391 . S
C519 C520 1.400 . S
C520 C519 1.400 . S
C520 C521 1.398 . S
C520 C526 1.491 . S
C521 H512 0.950 . S
C521 C520 1.398 . S
C521 C522 1.391 . S
C522 H510 0.950 . S
C522 C518 1.393 . S
C522 C521 1.391 . S
C523 H513 0.950 . S
C523 C524 1.386 . S
C523 C525 1.391 . S
C524 C523 1.386 . S
C524 C528 1.393 . S
C525 H514 0.950 . S
C525 C523 1.391 . S
C525 C526 1.400 . S
C526 C520 1.491 . S
C526 C525 1.400 . S
C526 C527 1.398 . S
C527 H515 0.950 . S
C527 C526 1.398 . S
C527 C528 1.391 . S
C528 H516 0.950 . S
C528 C524 1.393 . S
C528 C527 1.391 . S
H529 C537 0.950 . S
H530 C542 0.950 . S
H531 C539 0.950 . S
H532 C541 0.950 . S
H533 C543 0.950 . S
H534 C545 0.950 . S
H535 C547 0.950 . S
H536 C548 0.950 . S
C537 H529 0.950 . S
C537 C538 1.386 . S
C537 C539 1.391 . S
C538 C537 1.386 . S
C538 C542 1.393 . S
C539 H531 0.950 . S
C539 C537 1.391 . S
C539 C540 1.400 . S
C540 C539 1.400 . S
C540 C541 1.398 . S
C540 C546 1.491 . S
C541 H532 0.950 . S
C541 C540 1.398 . S
C541 C542 1.391 . S
C542 H530 0.950 . S
C542 C538 1.393 . S
C542 C541 1.391 . S
C543 H533 0.950 . S
C543 C544 1.386 . S
C543 C545 1.391 . S
C544 C543 1.386 . S
C544 C548 1.393 . S
C545 H534 0.950 . S
C545 C543 1.391 . S
C545 C546 1.400 . S
C546 C540 1.491 . S
C546 C545 1.400 . S
C546 C547 1.398 . S
C547 H535 0.950 . S
C547 C546 1.398 . S
C547 C548 1.391 . S
C548 H536 0.950 . S
C548 C544 1.393 . S
C548 C547 1.391 . S
H549 C557 0.950 1_554 S
H550 C562 0.950 . S
H551 C559 0.950 . S
H552 C561 0.950 . S
H553 C563 0.950 . S
H554 C565 0.950 . S
H555 C567 0.950 . S
H556 C568 0.950 . S
C557 H549 0.950 1_556 S
C557 C558 1.386 . S
C557 C559 1.391 . S
C558 C557 1.386 . S
C558 C562 1.393 . S
C559 H551 0.950 . S
C559 C557 1.391 . S
C559 C560 1.400 . S
C560 C559 1.400 . S
C560 C561 1.398 . S
C560 C566 1.491 . S
C561 H552 0.950 . S
C561 C560 1.398 . S
C561 C562 1.391 . S
C562 H550 0.950 . S
C562 C558 1.393 . S
C562 C561 1.391 . S
C563 H553 0.950 . S
C563 C564 1.386 . S
C563 C565 1.391 . S
C564 C563 1.386 . S
C564 C568 1.393 . S
C565 H554 0.950 . S
C565 C563 1.391 . S
C565 C566 1.400 . S
C566 C560 1.491 . S
C566 C565 1.400 . S
C566 C567 1.398 . S
C567 H555 0.950 . S
C567 C566 1.398 . S
C567 C568 1.391 . S
C568 H556 0.950 . S
C568 C564 1.393 . S
C568 C567 1.391 . S
H569 C577 0.950 . S
H570 C582 0.950 . S
H571 C579 0.950 . S
H572 C581 0.950 . S
H573 C583 0.950 . S
H574 C585 0.950 . S
H575 C587 0.950 . S
H576 C588 0.950 . S
C577 H569 0.950 . S
C577 C578 1.386 . S
C577 C579 1.391 . S
C578 C577 1.386 . S
C578 C582 1.393 . S
C579 H571 0.950 . S
C579 C577 1.391 . S
C579 C580 1.400 . S
C580 C579 1.400 . S
C580 C581 1.398 . S
C580 C586 1.491 . S
C581 H572 0.950 . S
C581 C580 1.398 . S
C581 C582 1.391 . S
C582 H570 0.950 . S
C582 C578 1.393 . S
C582 C581 1.391 . S
C583 H573 0.950 . S
C583 C584 1.386 . S
C583 C585 1.391 . S
C584 C583 1.386 . S
C584 C588 1.393 . S
C585 H574 0.950 . S
C585 C583 1.391 . S
C585 C586 1.400 . S
C586 C580 1.491 . S
C586 C585 1.400 . S
C586 C587 1.398 . S
C587 H575 0.950 . S
C587 C586 1.398 . S
C587 C588 1.391 . S
C588 H576 0.950 . S
C588 C584 1.393 . S
C588 C587 1.391 . S
H589 C597 0.950 . S
H590 C602 0.950 . S
H591 C599 0.950 . S
H592 C601 0.950 . S
H593 C603 0.950 . S
H594 C605 0.950 . S
H595 C607 0.950 . S
H596 C608 0.950 . S
C597 H589 0.950 . S
C597 C598 1.386 . S
C597 C599 1.391 . S
C598 C597 1.386 . S
C598 C602 1.393 . S
C599 H591 0.950 . S
C599 C597 1.391 . S
C599 C600 1.400 . S
C600 C599 1.400 . S
C600 C601 1.398 . S
C600 C606 1.491 . S
C601 H592 0.950 . S
C601 C600 1.398 . S
C601 C602 1.391 . S
C602 H590 0.950 . S
C602 C598 1.393 . S
C602 C601 1.391 . S
C603 H593 0.950 . S
C603 C604 1.386 . S
C603 C605 1.391 . S
C604 C603 1.386 . S
C604 C608 1.393 . S
C605 H594 0.950 . S
C605 C603 1.391 . S
C605 C606 1.400 . S
C606 C600 1.491 . S
C606 C605 1.400 . S
C606 C607 1.398 . S
C607 H595 0.950 . S
C607 C606 1.398 . S
C607 C608 1.391 . S
C608 H596 0.950 . S
C608 C604 1.393 . S
C608 C607 1.391 . S
H609 C617 0.950 . S
H610 C622 0.950 . S
H611 C619 0.950 . S
H612 C621 0.950 . S
H613 C623 0.950 . S
H614 C625 0.950 . S
H615 C627 0.950 . S
H616 C628 0.950 . S
C617 H609 0.950 . S
C617 C618 1.386 . S
C617 C619 1.391 . S
C618 C617 1.386 . S
C618 C622 1.393 . S
C619 H611 0.950 . S
C619 C617 1.391 . S
C619 C620 1.400 . S
C620 C619 1.400 . S
C620 C621 1.398 . S
C620 C626 1.491 . S
C621 H612 0.950 . S
C621 C620 1.398 . S
C621 C622 1.391 . S
C622 H610 0.950 . S
C622 C618 1.393 . S
C622 C621 1.391 . S
C623 H613 0.950 . S
C623 C624 1.386 . S
C623 C625 1.391 . S
C624 C623 1.386 . S
C624 C628 1.393 . S
C625 H614 0.950 . S
C625 C623 1.391 . S
C625 C626 1.400 . S
C626 C620 1.491 . S
C626 C625 1.400 . S
C626 C627 1.398 . S
C627 H615 0.950 . S
C627 C626 1.398 . S
C627 C628 1.391 . S
C628 H616 0.950 . S
C628 C624 1.393 . S
C628 C627 1.391 . S
H629 C637 0.950 . S
H630 C642 0.950 . S
H631 C639 0.950 . S
H632 C641 0.950 . S
H633 C643 0.950 . S
H634 C645 0.950 . S
H635 C647 0.950 . S
H636 C648 0.950 . S
C637 H629 0.950 . S
C637 C638 1.386 . S
C637 C639 1.391 . S
C638 C637 1.386 . S
C638 C642 1.393 . S
C639 H631 0.950 . S
C639 C637 1.391 . S
C639 C640 1.400 . S
C640 C639 1.400 . S
C640 C641 1.398 . S
C640 C646 1.491 . S
C641 H632 0.950 . S
C641 C640 1.398 . S
C641 C642 1.391 . S
C642 H630 0.950 . S
C642 C638 1.393 . S
C642 C641 1.391 . S
C643 H633 0.950 . S
C643 C644 1.386 . S
C643 C645 1.391 . S
C644 C643 1.386 . S
C644 C648 1.393 . S
C645 H634 0.950 . S
C645 C643 1.391 . S
C645 C646 1.400 . S
C646 C640 1.491 . S
C646 C645 1.400 . S
C646 C647 1.398 . S
C647 H635 0.950 . S
C647 C646 1.398 . S
C647 C648 1.391 . S
C648 H636 0.950 . S
C648 C644 1.393 . S
C648 C647 1.391 . S
H649 C657 0.950 . S
H650 C662 0.950 . S
H651 C659 0.950 . S
H652 C661 0.950 . S
H653 C663 0.950 . S
H654 C665 0.950 . S
H655 C667 0.950 . S
H656 C668 0.950 . S
C657 H649 0.950 . S
C657 C658 1.386 . S
C657 C659 1.391 . S
C658 C657 1.386 . S
C658 C662 1.393 . S
C659 H651 0.950 . S
C659 C657 1.391 . S
C659 C660 1.400 . S
C660 C659 1.400 . S
C660 C661 1.398 . S
C660 C666 1.491 . S
C661 H652 0.950 . S
C661 C660 1.398 . S
C661 C662 1.391 . S
C662 H650 0.950 . S
C662 C658 1.393 . S
C662 C661 1.391 . S
C663 H653 0.950 . S
C663 C664 1.386 . S
C663 C665 1.391 . S
C664 C663 1.386 . S
C664 C668 1.393 . S
C665 H654 0.950 . S
C665 C663 1.391 . S
C665 C666 1.400 . S
C666 C660 1.491 . S
C666 C665 1.400 . S
C666 C667 1.398 . S
C667 H655 0.950 . S
C667 C666 1.398 . S
C667 C668 1.391 . S
C668 H656 0.950 . S
C668 C664 1.393 . S
C668 C667 1.391 . S
H669 C677 0.950 . S
H670 C682 0.950 . S
H671 C679 0.950 . S
H672 C681 0.950 . S
H673 C683 0.950 . S
H674 C685 0.950 . S
H675 C687 0.950 . S
H676 C688 0.950 . S
C677 H669 0.950 . S
C677 C678 1.386 . S
C677 C679 1.391 . S
C678 C677 1.386 . S
C678 C682 1.393 . S
C679 H671 0.950 . S
C679 C677 1.391 . S
C679 C680 1.400 . S
C680 C679 1.400 . S
C680 C681 1.398 . S
C680 C686 1.491 . S
C681 H672 0.950 . S
C681 C680 1.398 . S
C681 C682 1.391 . S
C682 H670 0.950 . S
C682 C678 1.393 . S
C682 C681 1.391 . S
C683 H673 0.950 . S
C683 C684 1.386 . S
C683 C685 1.391 . S
C684 C683 1.386 . S
C684 C688 1.393 . S
C685 H674 0.950 . S
C685 C683 1.391 . S
C685 C686 1.400 . S
C686 C680 1.491 . S
C686 C685 1.400 . S
C686 C687 1.398 . S
C687 H675 0.950 . S
C687 C686 1.398 . S
C687 C688 1.391 . S
C688 H676 0.950 . S
C688 C684 1.393 . S
C688 C687 1.391 . S
H689 C697 0.950 . S
H690 C702 0.950 . S
H691 C699 0.950 . S
H692 C701 0.950 . S
H693 C703 0.950 . S
H694 C705 0.950 . S
H695 C707 0.950 . S
H696 C708 0.950 . S
C697 H689 0.950 . S
C697 C698 1.386 . S
C697 C699 1.391 . S
C698 C697 1.386 . S
C698 C702 1.393 . S
C699 H691 0.950 . S
C699 C697 1.391 . S
C699 C700 1.400 . S
C700 C699 1.400 . S
C700 C701 1.398 . S
C700 C706 1.491 . S
C701 H692 0.950 . S
C701 C700 1.398 . S
C701 C702 1.391 . S
C702 H690 0.950 . S
C702 C698 1.393 . S
C702 C701 1.391 . S
C703 H693 0.950 . S
C703 C704 1.386 . S
C703 C705 1.391 . S
C704 C703 1.386 . S
C704 C708 1.393 . S
C705 H694 0.950 . S
C705 C703 1.391 . S
C705 C706 1.400 . S
C706 C700 1.491 . S
C706 C705 1.400 . S
C706 C707 1.398 . S
C707 H695 0.950 . S
C707 C706 1.398 . S
C707 C708 1.391 . S
C708 H696 0.950 . S
C708 C704 1.393 . S
C708 C707 1.391 . S
H709 C717 0.950 . S
H710 C722 0.950 . S
H711 C719 0.950 . S
H712 C721 0.950 . S
H713 C723 0.950 . S
H714 C725 0.950 . S
H715 C727 0.950 . S
H716 C728 0.950 . S
C717 H709 0.950 . S
C717 C718 1.386 . S
C717 C719 1.391 . S
C718 C717 1.386 . S
C718 C722 1.393 . S
C719 H711 0.950 . S
C719 C717 1.391 . S
C719 C720 1.400 . S
C720 C719 1.400 . S
C720 C721 1.398 . S
C720 C726 1.491 . S
C721 H712 0.950 . S
C721 C720 1.398 . S
C721 C722 1.391 . S
C722 H710 0.950 . S
C722 C718 1.393 . S
C722 C721 1.391 . S
C723 H713 0.950 . S
C723 C724 1.386 . S
C723 C725 1.391 . S
C724 C723 1.386 . S
C724 C728 1.393 . S
C725 H714 0.950 . S
C725 C723 1.391 . S
C725 C726 1.400 . S
C726 C720 1.491 . S
C726 C725 1.400 . S
C726 C727 1.398 . S
C727 H715 0.950 . S
C727 C726 1.398 . S
C727 C728 1.391 . S
C728 H716 0.950 . S
C728 C724 1.393 . S
C728 C727 1.391 . S
H729 C737 0.950 . S
H730 C742 0.950 . S
H731 C739 0.950 . S
H732 C741 0.950 . S
H733 C743 0.950 . S
H734 C745 0.950 . S
H735 C747 0.950 . S
H736 C748 0.950 . S
C737 H729 0.950 . S
C737 C738 1.386 . S
C737 C739 1.391 . S
C738 C737 1.386 . S
C738 C742 1.393 . S
C739 H731 0.950 . S
C739 C737 1.391 . S
C739 C740 1.400 . S
C740 C739 1.400 . S
C740 C741 1.398 . S
C740 C746 1.491 . S
C741 H732 0.950 . S
C741 C740 1.398 . S
C741 C742 1.391 . S
C742 H730 0.950 . S
C742 C738 1.393 . S
C742 C741 1.391 . S
C743 H733 0.950 . S
C743 C744 1.386 . S
C743 C745 1.391 . S
C744 C743 1.386 . S
C744 C748 1.393 . S
C745 H734 0.950 . S
C745 C743 1.391 . S
C745 C746 1.400 . S
C746 C740 1.491 . S
C746 C745 1.400 . S
C746 C747 1.398 . S
C747 H735 0.950 . S
C747 C746 1.398 . S
C747 C748 1.391 . S
C748 H736 0.950 . S
C748 C744 1.393 . S
C748 C747 1.391 . S
H749 C757 0.950 . S
H750 C762 0.950 . S
H751 C759 0.950 . S
H752 C761 0.950 . S
H753 C763 0.950 . S
H754 C765 0.950 . S
H755 C767 0.950 . S
H756 C768 0.950 . S
C757 H749 0.950 . S
C757 C758 1.386 . S
C757 C759 1.391 . S
C758 C757 1.386 . S
C758 C762 1.393 . S
C759 H751 0.950 . S
C759 C757 1.391 . S
C759 C760 1.400 . S
C760 C759 1.400 . S
C760 C761 1.398 . S
C760 C766 1.491 . S
C761 H752 0.950 . S
C761 C760 1.398 . S
C761 C762 1.391 . S
C762 H750 0.950 . S
C762 C758 1.393 . S
C762 C761 1.391 . S
C763 H753 0.950 . S
C763 C764 1.386 . S
C763 C765 1.391 . S
C764 C763 1.386 . S
C764 C768 1.393 . S
C765 H754 0.950 . S
C765 C763 1.391 . S
C765 C766 1.400 . S
C766 C760 1.491 . S
C766 C765 1.400 . S
C766 C767 1.398 . S
C767 H755 0.950 . S
C767 C766 1.398 . S
C767 C768 1.391 . S
C768 H756 0.950 . S
C768 C764 1.393 . S
C768 C767 1.391 . S
H769 C777 0.950 . S
H770 C782 0.950 . S
H771 C779 0.950 . S
H772 C781 0.950 . S
H773 C783 0.950 . S
H774 C785 0.950 . S
H775 C787 0.950 . S
H776 C788 0.950 . S
C777 H769 0.950 . S
C777 C778 1.386 . S
C777 C779 1.391 . S
C778 C777 1.386 . S
C778 C782 1.393 . S
C779 H771 0.950 . S
C779 C777 1.391 . S
C779 C780 1.400 . S
C780 C779 1.400 . S
C780 C781 1.398 . S
C780 C786 1.491 . S
C781 H772 0.950 . S
C781 C780 1.398 . S
C781 C782 1.391 . S
C782 H770 0.950 . S
C782 C778 1.393 . S
C782 C781 1.391 . S
C783 H773 0.950 . S
C783 C784 1.386 . S
C783 C785 1.391 . S
C784 C783 1.386 . S
C784 C788 1.393 . S
C785 H774 0.950 . S
C785 C783 1.391 . S
C785 C786 1.400 . S
C786 C780 1.491 . S
C786 C785 1.400 . S
C786 C787 1.398 . S
C787 H775 0.950 . S
C787 C786 1.398 . S
C787 C788 1.391 . S
C788 H776 0.950 . S
C788 C784 1.393 . S
C788 C787 1.391 . S
H789 C797 0.950 . S
H790 C802 0.950 . S
H791 C799 0.950 . S
H792 C801 0.950 . S
H793 C803 0.950 . S
H794 C805 0.950 . S
H795 C807 0.950 . S
H796 C808 0.950 . S
C797 H789 0.950 . S
C797 C798 1.386 . S
C797 C799 1.391 . S
C798 C797 1.386 . S
C798 C802 1.393 . S
C799 H791 0.950 . S
C799 C797 1.391 . S
C799 C800 1.400 . S
C800 C799 1.400 . S
C800 C801 1.398 . S
C800 C806 1.491 . S
C801 H792 0.950 . S
C801 C800 1.398 . S
C801 C802 1.391 . S
C802 H790 0.950 . S
C802 C798 1.393 . S
C802 C801 1.391 . S
C803 H793 0.950 . S
C803 C804 1.386 . S
C803 C805 1.391 . S
C804 C803 1.386 . S
C804 C808 1.393 . S
C805 H794 0.950 . S
C805 C803 1.391 . S
C805 C806 1.400 . S
C806 C800 1.491 . S
C806 C805 1.400 . S
C806 C807 1.398 . S
C807 H795 0.950 . S
C807 C806 1.398 . S
C807 C808 1.391 . S
C808 H796 0.950 . S
C808 C804 1.393 . S
C808 C807 1.391 . S
H809 C817 0.950 . S
H810 C822 0.950 . S
H811 C819 0.950 . S
H812 C821 0.950 . S
H813 C823 0.950 . S
H814 C825 0.950 . S
H815 C827 0.950 . S
H816 C828 0.950 . S
C817 H809 0.950 . S
C817 C818 1.386 . S
C817 C819 1.391 . S
C818 C817 1.386 . S
C818 C822 1.393 . S
C819 H811 0.950 . S
C819 C817 1.391 . S
C819 C820 1.400 . S
C820 C819 1.400 . S
C820 C821 1.398 . S
C820 C826 1.491 . S
C821 H812 0.950 . S
C821 C820 1.398 . S
C821 C822 1.391 . S
C822 H810 0.950 . S
C822 C818 1.393 . S
C822 C821 1.391 . S
C823 H813 0.950 . S
C823 C824 1.386 . S
C823 C825 1.391 . S
C824 C823 1.386 . S
C824 C828 1.393 . S
C825 H814 0.950 . S
C825 C823 1.391 . S
C825 C826 1.400 . S
C826 C820 1.491 . S
C826 C825 1.400 . S
C826 C827 1.398 . S
C827 H815 0.950 . S
C827 C826 1.398 . S
C827 C828 1.391 . S
C828 H816 0.950 . S
C828 C824 1.393 . S
C828 C827 1.391 . S
H829 C837 0.950 . S
H830 C842 0.950 . S
H831 C839 0.950 . S
H832 C841 0.950 . S
H833 C843 0.950 . S
H834 C845 0.950 . S
H835 C847 0.950 . S
H836 C848 0.950 . S
C837 H829 0.950 . S
C837 C838 1.386 . S
C837 C839 1.391 . S
C838 C837 1.386 . S
C838 C842 1.393 . S
C839 H831 0.950 . S
C839 C837 1.391 . S
C839 C840 1.400 . S
C840 C839 1.400 . S
C840 C841 1.398 . S
C840 C846 1.491 . S
C841 H832 0.950 . S
C841 C840 1.398 . S
C841 C842 1.391 . S
C842 H830 0.950 . S
C842 C838 1.393 . S
C842 C841 1.391 . S
C843 H833 0.950 . S
C843 C844 1.386 . S
C843 C845 1.391 . S
C844 C843 1.386 . S
C844 C848 1.393 . S
C845 H834 0.950 . S
C845 C843 1.391 . S
C845 C846 1.400 . S
C846 C840 1.491 . S
C846 C845 1.400 . S
C846 C847 1.398 . S
C847 H835 0.950 . S
C847 C846 1.398 . S
C847 C848 1.391 . S
C848 H836 0.950 . S
C848 C844 1.393 . S
C848 C847 1.391 . S
C378 C15 1.754 . S
C384 C276 1.682 . S
C398 C47 1.580 . S
C404 C308 1.543 . S
C424 C367 1.898 . S
C418 C100 1.958 . S
C444 C296 1.453 . S
C438 C146 1.485 . S
C458 C192 1.686 . S
C464 C326 1.587 . S
C484 C348 1.241 . S
C478 C245 1.233 . S
C504 C317 1.668 . S
C498 C114 1.689 . S
C518 C160 1.292 . S
C524 C357 1.233 . S
C544 C306 1.594 . S
C538 C206 1.606 . S
C558 C231 1.552 1_556 S
C564 C336 1.516 . S
C578 C1 1.885 1_556 S
C584 C339 1.836 . S
C604 C278 1.627 . S
C598 C61 1.641 . S
C624 C286 1.613 . S
C618 C139 1.655 . S
C644 C327 1.547 . S
C638 C185 1.558 . S
C664 C340 1.914 . S
C658 C252 1.976 1_556 S
C684 C277 1.463 . S
C678 C22 1.508 1_556 S
C704 C337 1.533 . S
C698 C54 1.576 . S
C718 C93 1.239 . S
C724 C338 1.231 . S
C744 C307 1.617 . S
C738 C238 1.680 . S
C764 C368 1.212 . S
C758 C8 1.241 . S
C784 C295 1.533 . S
C778 C68 1.615 . S
C804 C309 1.547 . S
C798 C107 1.592 . S
C818 C153 1.886 . S
C824 C358 1.827 . S
C838 C199 1.667 . S
C844 C305 1.626 . S
