# Generated by pormake.
# Topology csq, (4,8)-cn, num edge types: 1
# Building blocks:
#     Node 0, Type 0, BuildingBlock: GIZVER_clean_linker_0, # of connection points: 4
#     Node 1, Type 0, BuildingBlock: GIZVER_clean_linker_0, # of connection points: 4
#     Node 2, Type 0, BuildingBlock: GIZVER_clean_linker_0, # of connection points: 4
#     Node 3, Type 0, BuildingBlock: GIZVER_clean_linker_0, # of connection points: 4
#     Node 4, Type 0, BuildingBlock: GIZVER_clean_linker_0, # of connection points: 4
#     Node 5, Type 0, BuildingBlock: GIZVER_clean_linker_0, # of connection points: 4
#     Node 6, Type 1, BuildingBlock: TAGTUT_clean_sbu_1, # of connection points: 8
#     Node 7, Type 1, BuildingBlock: TAGTUT_clean_sbu_1, # of connection points: 8
#     Node 8, Type 1, BuildingBlock: TAGTUT_clean_sbu_1, # of connection points: 8
#     Edge 9, Type (0, 1), BuildingBlock: EZIPEK_clean_linker_0, # of connection points: 2
#     Edge 10, Type (0, 1), BuildingBlock: EZIPEK_clean_linker_0, # of connection points: 2
#     Edge 11, Type (0, 1), BuildingBlock: EZIPEK_clean_linker_0, # of connection points: 2
#     Edge 12, Type (0, 1), BuildingBlock: EZIPEK_clean_linker_0, # of connection points: 2
#     Edge 13, Type (0, 1), BuildingBlock: EZIPEK_clean_linker_0, # of connection points: 2
#     Edge 14, Type (0, 1), BuildingBlock: EZIPEK_clean_linker_0, # of connection points: 2
#     Edge 15, Type (0, 1), BuildingBlock: EZIPEK_clean_linker_0, # of connection points: 2
#     Edge 16, Type (0, 1), BuildingBlock: EZIPEK_clean_linker_0, # of connection points: 2
#     Edge 17, Type (0, 1), BuildingBlock: EZIPEK_clean_linker_0, # of connection points: 2
#     Edge 18, Type (0, 1), BuildingBlock: EZIPEK_clean_linker_0, # of connection points: 2
#     Edge 19, Type (0, 1), BuildingBlock: EZIPEK_clean_linker_0, # of connection points: 2
#     Edge 20, Type (0, 1), BuildingBlock: EZIPEK_clean_linker_0, # of connection points: 2
#     Edge 21, Type (0, 1), BuildingBlock: EZIPEK_clean_linker_0, # of connection points: 2
#     Edge 22, Type (0, 1), BuildingBlock: EZIPEK_clean_linker_0, # of connection points: 2
#     Edge 23, Type (0, 1), BuildingBlock: EZIPEK_clean_linker_0, # of connection points: 2
#     Edge 24, Type (0, 1), BuildingBlock: EZIPEK_clean_linker_0, # of connection points: 2
#     Edge 25, Type (0, 1), BuildingBlock: EZIPEK_clean_linker_0, # of connection points: 2
#     Edge 26, Type (0, 1), BuildingBlock: EZIPEK_clean_linker_0, # of connection points: 2
#     Edge 27, Type (0, 1), BuildingBlock: EZIPEK_clean_linker_0, # of connection points: 2
#     Edge 28, Type (0, 1), BuildingBlock: EZIPEK_clean_linker_0, # of connection points: 2
#     Edge 29, Type (0, 1), BuildingBlock: EZIPEK_clean_linker_0, # of connection points: 2
#     Edge 30, Type (0, 1), BuildingBlock: EZIPEK_clean_linker_0, # of connection points: 2
#     Edge 31, Type (0, 1), BuildingBlock: EZIPEK_clean_linker_0, # of connection points: 2
#     Edge 32, Type (0, 1), BuildingBlock: EZIPEK_clean_linker_0, # of connection points: 2
# Relax obj value: 0.048
# Max RMSD: 0.131
# Mean RMSD: 0.096
data_MOF--net-csq--node1-TAGTUT_clean_sbu_1--node2-GIZVER_clean_linker_0--edge1-EZIPEK_clean_linker_0
_symmetry_space_group_name_H-M    P1
_symmetry_Int_Tables_number       1
_symmetry_cell_setting            triclinic
loop_
_symmetry_equiv_pos_as_xyz
'x, y, z'
_cell_length_a     41.189217
_cell_length_b     40.963217
_cell_length_c     13.993708
_cell_angle_alpha  94.251559
_cell_angle_beta   92.872295
_cell_angle_gamma 119.71755
loop_
_atom_site_label
_atom_site_type_symbol
_atom_site_fract_x
_atom_site_fract_y
_atom_site_fract_z
_atom_type_partial_charge
H0 H 0.2336 0.51657 0.01829 0.0
H1 H 0.23181 0.53471 0.3249 0.0
H2 H 0.12919 0.4853 0.13668 0.0
H3 H 0.2892 0.56671 0.12039 0.0
H4 H 0.28947 0.57194 0.24771 0.0
H5 H 0.30754 0.52386 0.04151 0.0
H6 H 0.36451 0.48536 0.22821 0.0
H7 H 0.29543 0.52647 0.34605 0.0
C8 C 0.21808 0.51324 0.08066 0.0
C9 C 0.17912 0.49819 0.06743 0.0
C10 C 0.23741 0.52678 0.17318 0.0
C11 C 0.217 0.52349 0.25349 0.0
C12 C 0.17784 0.50864 0.24095 0.0
C13 C 0.15914 0.49576 0.14752 0.0
C14 C 0.27976 0.55046 0.18349 0.0
C15 C 0.29879 0.52727 0.19255 0.0
C16 C 0.31326 0.51777 0.11244 0.0
C17 C 0.33704 0.50254 0.12485 0.0
C18 C 0.34545 0.49617 0.21765 0.0
C19 C 0.3304 0.50457 0.29737 0.0
C20 C 0.30627 0.51911 0.28409 0.0
H21 H 0.81842 0.23556 0.99044 0.0
H22 H 0.84198 0.29558 0.27452 0.0
H23 H 0.88459 0.35658 0.03206 0.0
H24 H 0.81446 0.20469 0.1396 0.0
H25 H 0.8177 0.22842 0.25452 0.0
H26 H 0.75696 0.19185 0.01357 0.0
H27 H 0.65604 0.13653 0.15395 0.0
H28 H 0.7612 0.2109 0.32257 0.0
C29 C 0.82906 0.2618 0.03704 0.0
C30 C 0.85109 0.2961 0.00025 0.0
C31 C 0.82436 0.26133 0.13593 0.0
C32 C 0.84261 0.29575 0.19722 0.0
C33 C 0.86458 0.33008 0.15927 0.0
C34 C 0.86644 0.33012 0.06037 0.0
C35 C 0.80648 0.22409 0.17778 0.0
C36 C 0.76408 0.20457 0.16893 0.0
C37 C 0.74303 0.18773 0.07879 0.0
C38 C 0.70398 0.16354 0.07303 0.0
C39 C 0.68601 0.15622 0.15787 0.0
C40 C 0.70649 0.17324 0.2479 0.0
C41 C 0.7453 0.19844 0.25271 0.0
H42 H 0.55971 0.80832 0.8858 0.0
H43 H 0.54527 0.83235 0.18027 0.0
H44 H 0.5068 0.87344 0.95444 0.0
H45 H 0.59893 0.80737 0.02399 0.0
H46 H 0.58819 0.811 0.14403 0.0
H47 H 0.57215 0.74633 0.92814 0.0
H48 H 0.52221 0.64974 0.08446 0.0
H49 H 0.53596 0.75548 0.20854 0.0
C50 C 0.54685 0.81819 0.93753 0.0
C51 C 0.53212 0.84082 0.90916 0.0
C52 C 0.5502 0.81339 0.0357 0.0
C53 C 0.53862 0.83168 0.10397 0.0
C54 C 0.52343 0.85371 0.07375 0.0
C55 C 0.51682 0.85477 0.97619 0.0
C56 C 0.57511 0.79824 0.06935 0.0
C57 C 0.5548 0.75566 0.06662 0.0
C58 C 0.55825 0.73348 0.99007 0.0
C59 C 0.54596 0.69514 -0.00312 0.0
C60 C 0.5301 0.67901 0.07846 0.0
C61 C 0.52694 0.7005 0.15532 0.0
C62 C 0.53768 0.73852 0.1479 0.0
H63 H 0.74431 0.54108 0.89034 0.0
H64 H 0.73609 0.55781 0.19399 0.0
H65 H 0.63703 0.50745 0.99332 0.0
H66 H 0.79588 0.59309 -0.00432 0.0
H67 H 0.79449 0.59718 0.12215 0.0
H68 H 0.81501 0.54971 0.91504 0.0
H69 H 0.88687 0.52933 0.10484 0.0
H70 H 0.81119 0.56152 0.22229 0.0
C71 C 0.72739 0.53626 0.95034 0.0
C72 C 0.6888 0.52195 0.93183 0.0
C73 C 0.7449 0.5498 0.04451 0.0
C74 C 0.72267 0.54579 0.1216 0.0
C75 C 0.68338 0.52952 0.10377 0.0
C76 C 0.66677 0.51745 0.00849 0.0
C77 C 0.7869 0.57617 0.05778 0.0
C78 C 0.80911 0.55609 0.06736 0.0
C79 C 0.82343 0.54655 0.9868 0.0
C80 C 0.8509 0.5358 -0.00034 0.0
C81 C 0.86403 0.5351 0.09376 0.0
C82 C 0.84974 0.54445 0.1738 0.0
C83 C 0.8211 0.55306 0.16003 0.0
H84 H 0.30087 0.76488 0.00519 0.0
H85 H 0.30664 0.7842 0.31441 0.0
H86 H 0.36842 0.87729 0.15178 0.0
H87 H 0.28588 0.71313 0.10608 0.0
H88 H 0.28852 0.72112 0.23418 0.0
H89 H 0.22444 0.67139 0.03695 0.0
H90 H 0.12899 0.66191 0.16842 0.0
H91 H 0.23995 0.74786 0.28644 0.0
C92 C 0.31073 0.78403 0.0713 0.0
C93 C 0.33517 0.82287 0.06824 0.0
C94 C 0.30053 0.76975 0.16023 0.0
C95 C 0.31394 0.79491 0.24547 0.0
C96 C 0.33853 0.83366 0.2429 0.0
C97 C 0.349 0.8474 0.15405 0.0
C98 C 0.27917 0.72761 0.16578 0.0
C99 C 0.2372 0.71163 0.16238 0.0
C100 C 0.21302 0.68139 0.09258 0.0
C101 C 0.17395 0.66489 0.09206 0.0
C102 C 0.15924 0.67619 0.16676 0.0
C103 C 0.18268 0.70489 0.23999 0.0
C104 C 0.22168 0.72402 0.23431 0.0
H105 H 0.53816 0.2907 0.1161 0.0
H106 H 0.49395 0.29408 0.38683 0.0
H107 H 0.45675 0.32639 0.13872 0.0
H108 H 0.56628 0.28314 0.26358 0.0
H109 H 0.55101 0.28954 0.37678 0.0
H110 H 0.53719 0.22019 0.17006 0.0
H111 H 0.47443 0.12406 0.32153 0.0
H112 H 0.50718 0.2351 0.45468 0.0
C113 C 0.51774 0.29343 0.15666 0.0
C114 C 0.49691 0.30858 0.11567 0.0
C115 C 0.51488 0.28562 0.25375 0.0
C116 C 0.49258 0.29514 0.30964 0.0
C117 C 0.47229 0.31055 0.26789 0.0
C118 C 0.47145 0.31307 0.16919 0.0
C119 C 0.54087 0.27436 0.30273 0.0
C120 C 0.52165 0.23223 0.30829 0.0
C121 C 0.52252 0.2083 0.23192 0.0
C122 C 0.50516 0.16915 0.23668 0.0
C123 C 0.48724 0.15429 0.31749 0.0
C124 C 0.49011 0.17776 0.39838 0.0
C125 C 0.50553 0.21675 0.39247 0.0
C126 C 0.95447 0.38702 0.78338 0.0
C127 C 0.07275 0.46252 0.75875 0.0
C128 C 0.05187 0.57486 0.80448 0.0
Mg129 Mg 1.00157 0.42832 0.62229 0.0
O130 O 0.98735 0.46262 0.67531 0.0
Mg131 Mg 0.00535 0.48233 0.81402 0.0
Mg132 Mg 0.00904 0.51118 0.61869 0.0
O133 O 0.03113 0.55987 0.56244 0.0
Mg134 Mg 0.02154 0.59732 0.61825 0.0
Mg135 Mg 0.01267 0.54011 0.42391 0.0
C136 C 0.97043 0.44782 0.43355 0.0
C137 C 0.0734 0.51482 0.48009 0.0
O138 O 0.96625 0.41888 0.83536 0.0
O139 O 0.96502 0.38395 0.70048 0.0
O140 O 0.05526 0.47387 0.81134 0.0
O141 O 0.05961 0.44644 0.67306 0.0
O142 O 0.97985 0.42651 0.47592 0.0
O143 O 0.97691 0.48 0.47382 0.0
C144 C 0.9451 0.50862 0.75887 0.0
O145 O 0.95906 0.51742 0.67793 0.0
O146 O 0.95717 0.49393 0.81817 0.0
O147 O 0.0525 0.60315 0.39878 0.0
O148 O 0.05853 0.6402 0.53419 0.0
O149 O 0.96387 0.55042 0.43115 0.0
C150 C 0.06675 0.63574 0.44891 0.0
O151 O 0.96403 0.58148 0.56928 0.0
O152 O 0.0448 0.59839 0.76479 0.0
C153 C 0.94866 0.56401 0.48575 0.0
O154 O 0.04142 0.54187 0.76237 0.0
O155 O 0.0594 0.50561 0.5607 0.0
O156 O 0.06066 0.52867 0.41999 0.0
C157 C 0.47898 0.04062 0.98543 0.0
C158 C 0.41607 0.92653 0.81757 0.0
C159 C 0.54701 0.95653 0.70294 0.0
Mg160 Mg 0.44383 0.00779 0.77849 0.0
O161 O 0.49406 0.01894 0.77956 0.0
Mg162 Mg 0.51025 0.99037 0.86012 0.0
Mg163 Mg 0.50953 0.00964 0.65582 0.0
O164 O 0.52417 0.99957 0.53164 0.0
Mg165 Mg 0.57159 0.0048 0.52803 0.0
Mg166 Mg 0.50986 0.02951 0.45157 0.0
C167 C 0.47035 0.06087 0.60875 0.0
C168 C 0.43415 0.95708 0.50921 0.0
O169 O 0.50028 0.02594 0.98005 0.0
O170 O 0.45169 0.03211 0.92218 0.0
O171 O 0.44997 0.93948 0.85317 0.0
O172 O 0.40683 0.94748 0.77416 0.0
O173 O 0.44682 0.04538 0.67098 0.0
O174 O 0.49655 0.05294 0.59423 0.0
C175 C 0.58568 0.06159 0.80216 0.0
O176 O 0.57006 0.05701 0.71681 0.0
O177 O 0.56878 0.03962 0.86482 0.0
O178 O 0.52065 0.9971 0.32292 0.0
O179 O 0.55995 0.97882 0.38562 0.0
O180 O 0.57227 0.08002 0.46354 0.0
C181 C 0.53834 0.97857 0.31659 0.0
O182 O 0.61086 0.06348 0.53365 0.0
O183 O 0.56959 0.96962 0.63799 0.0
C184 C 0.6053 0.08822 0.49787 0.0
O185 O 0.52191 0.96584 0.71763 0.0
O186 O 0.44992 0.96303 0.59488 0.0
O187 O 0.4507 0.97902 0.44556 0.0
C188 C 0.52074 0.59713 0.39044 0.0
C189 C 0.58308 0.53285 0.37885 0.0
C190 C 0.45038 0.41771 0.48617 0.0
Mg191 Mg 0.56393 0.57498 0.5345 0.0
O192 O 0.5136 0.53643 0.52918 0.0
Mg193 Mg 0.49013 0.50425 0.40579 0.0
Mg194 Mg 0.50105 0.49899 0.62001 0.0
O195 O 0.48975 0.46163 0.7132 0.0
Mg196 Mg 0.4408 0.42113 0.71584 0.0
Mg197 Mg 0.51458 0.49706 0.83317 0.0
C198 C 0.55244 0.58001 0.75453 0.0
C199 C 0.57958 0.5066 0.69935 0.0
O200 O 0.50041 0.56219 0.35384 0.0
O201 O 0.54833 0.60758 0.45423 0.0
O202 O 0.54762 0.51352 0.35439 0.0
O203 O 0.59671 0.55766 0.45213 0.0
O204 O 0.57438 0.59274 0.68794 0.0
O205 O 0.52317 0.54671 0.74483 0.0
C206 C 0.42307 0.4922 0.53598 0.0
O207 O 0.44164 0.49278 0.61304 0.0
O208 O 0.43608 0.4956 0.45435 0.0
O209 O 0.50686 0.44289 0.89556 0.0
O210 O 0.45636 0.39217 0.81678 0.0
O211 O 0.45797 0.48901 0.88188 0.0
C212 C 0.48513 0.40685 0.87951 0.0
O213 O 0.40899 0.4437 0.78507 0.0
O214 O 0.43359 0.4031 0.56028 0.0
C215 C 0.42261 0.4698 0.85596 0.0
O216 O 0.47842 0.45203 0.49367 0.0
O217 O 0.55996 0.50529 0.62393 0.0
O218 O 0.5682 0.50482 0.7828 0.0
C219 C 0.1623 0.54463 0.3685 0.0
C220 C 0.15629 0.50952 0.32342 0.0
C221 C 0.10014 0.47581 0.40961 0.0
C222 C 0.1059 0.511 0.45222 0.0
N223 N 0.14889 0.57683 0.49976 0.0
N224 N 0.12557 0.44176 0.32053 0.0
C225 C 0.13939 0.54465 0.44114 0.0
C226 C 0.12719 0.47506 0.35076 0.0
N227 N 0.18768 0.57792 0.33699 0.0
N228 N 0.06796 0.44336 0.42164 0.0
H229 H 0.14517 0.44053 0.27819 0.0
H230 H 0.10703 0.416 0.34413 0.0
H231 H 0.04906 0.4431 0.46877 0.0
H232 H 0.05942 0.41727 0.38277 0.0
H233 H 0.18992 0.6038 0.36001 0.0
H234 H 0.20417 0.57947 0.28153 0.0
H235 H 0.17486 0.60146 0.5019 0.0
H236 H 0.13235 0.57714 0.55364 0.0
C237 C 0.6958 0.14001 0.39781 0.0
C238 C 0.68728 0.1617 0.33705 0.0
C239 C 0.63419 0.15086 0.42908 0.0
C240 C 0.63884 0.12369 0.47489 0.0
N241 N 0.68648 0.11372 0.55012 0.0
N242 N 0.65223 0.19319 0.30424 0.0
C243 C 0.67387 0.12526 0.47501 0.0
C244 C 0.65807 0.16951 0.35708 0.0
N245 N 0.72246 0.1306 0.37769 0.0
N246 N 0.60851 0.16008 0.45926 0.0
H247 H 0.67057 0.20879 0.25515 0.0
H248 H 0.62895 0.19673 0.30716 0.0
H249 H 0.5925 0.14756 0.51539 0.0
H250 H 0.60613 0.18254 0.43704 0.0
H251 H 0.72646 0.11145 0.41443 0.0
H252 H 0.73827 0.139 0.31926 0.0
H253 H 0.71317 0.11672 0.55702 0.0
H254 H 0.67219 0.10627 0.61156 0.0
C255 C 0.48278 0.64818 0.24289 0.0
C256 C 0.51729 0.68261 0.24565 0.0
C257 C 0.54023 0.666 0.38652 0.0
C258 C 0.51331 0.62731 0.35837 0.0
N259 N 0.44964 0.58429 0.28854 0.0
N260 N 0.57944 0.72544 0.3271 0.0
C261 C 0.48126 0.61907 0.29582 0.0
C262 C 0.54593 0.69241 0.32092 0.0
N263 N 0.45215 0.64374 0.1885 0.0
N264 N 0.55852 0.67797 0.47717 0.0
H265 H 0.58524 0.74624 0.28166 0.0
H266 H 0.60229 0.73101 0.375 0.0
H267 H 0.55052 0.66048 0.53222 0.0
H268 H 0.57689 0.70646 0.50114 0.0
H269 H 0.42516 0.62101 0.18946 0.0
H270 H 0.45362 0.66514 0.14948 0.0
H271 H 0.42718 0.575 0.23598 0.0
H272 H 0.44529 0.56518 0.33842 0.0
C273 C 0.89755 0.5891 0.30768 0.0
C274 C 0.86921 0.55158 0.27174 0.0
C275 C 0.88282 0.52799 0.41534 0.0
C276 C 0.91542 0.56367 0.44047 0.0
N277 N 0.9528 0.62947 0.41991 0.0
N278 N 0.83235 0.48552 0.2927 0.0
C279 C 0.92173 0.59493 0.39118 0.0
C280 C 0.8606 0.52111 0.32698 0.0
N281 N 0.9019 0.61892 0.26063 0.0
N282 N 0.87401 0.5008 0.47601 0.0
H283 H 0.81492 0.47997 0.2297 0.0
H284 H 0.82702 0.46132 0.32412 0.0
H285 H 0.89043 0.50611 0.54089 0.0
H286 H 0.84938 0.47465 0.46667 0.0
H287 H 0.91918 0.64712 0.2883 0.0
H288 H 0.88655 0.61576 0.19571 0.0
H289 H 0.96251 0.65248 0.38025 0.0
H290 H 0.96976 0.63482 0.48362 0.0
C291 C 0.37902 0.85773 0.40244 0.0
C292 C 0.35441 0.86045 0.33278 0.0
C293 C 0.37168 0.92308 0.4113 0.0
C294 C 0.3984 0.92143 0.47557 0.0
N295 N 0.41282 0.88049 0.5613 0.0
N296 N 0.31773 0.88934 0.2914 0.0
C297 C 0.39699 0.88641 0.48139 0.0
C298 C 0.34742 0.89105 0.34443 0.0
N299 N 0.38781 0.82971 0.38984 0.0
N300 N 0.37068 0.95589 0.41245 0.0
H301 H 0.29922 0.86577 0.24322 0.0
H302 H 0.30943 0.90947 0.30141 0.0
H303 H 0.38646 0.97847 0.46567 0.0
H304 H 0.35533 0.961 0.36026 0.0
H305 H 0.40886 0.82927 0.43337 0.0
H306 H 0.37696 0.80901 0.33082 0.0
H307 H 0.4096 0.85416 0.57181 0.0
H308 H 0.42444 0.90013 0.62237 0.0
C309 C 0.48866 0.37577 0.32529 0.0
C310 C 0.46361 0.33648 0.32593 0.0
C311 C 0.41882 0.35104 0.3999 0.0
C312 C 0.44548 0.39028 0.40209 0.0
N313 N 0.49034 0.43445 0.30789 0.0
N314 N 0.40194 0.28585 0.34719 0.0
C315 C 0.47569 0.40105 0.34611 0.0
C316 C 0.42752 0.32368 0.35793 0.0
N317 N 0.52484 0.38905 0.30479 0.0
N318 N 0.38534 0.34047 0.43639 0.0
H319 H 0.40848 0.26565 0.31966 0.0
H320 H 0.3742 0.27445 0.36266 0.0
H321 H 0.37701 0.36018 0.4553 0.0
H322 H 0.36585 0.31279 0.44634 0.0
H323 H 0.54428 0.41789 0.30887 0.0
H324 H 0.53624 0.37148 0.29414 0.0
H325 H 0.51135 0.44267 0.26139 0.0
H326 H 0.47689 0.45028 0.31132 0.0
C327 C 0.57626 0.89689 0.83714 0.0
C328 C 0.5426 0.86141 0.82311 0.0
C329 C 0.51573 0.88667 0.71068 0.0
C330 C 0.54526 0.92386 0.7452 0.0
N331 N 0.60385 0.96482 0.8424 0.0
N332 N 0.48177 0.82052 0.73903 0.0
C333 C 0.57596 0.92911 0.80767 0.0
C334 C 0.51312 0.85553 0.75535 0.0
N335 N 0.60793 0.89977 0.88171 0.0
N336 N 0.49083 0.88112 0.63436 0.0
H337 H 0.48048 0.79736 0.76916 0.0
H338 H 0.45711 0.81488 0.6994 0.0
H339 H 0.49178 0.90326 0.59986 0.0
H340 H 0.47114 0.85444 0.60039 0.0
H341 H 0.63408 0.9244 0.88857 0.0
H342 H 0.60874 0.87626 0.90251 0.0
H343 H 0.62494 0.97037 0.8961 0.0
H344 H 0.604 0.98904 0.82347 0.0
C345 C 0.6478 0.48251 0.78322 0.0
C346 C 0.67209 0.51886 0.83311 0.0
C347 C 0.64719 0.54672 0.72362 0.0
C348 C 0.61669 0.51024 0.69505 0.0
N349 N 0.59162 0.44347 0.6714 0.0
N350 N 0.69909 0.5868 0.84414 0.0
C351 C 0.61909 0.4781 0.71383 0.0
C352 C 0.67406 0.55159 0.79893 0.0
N353 N 0.65139 0.45255 0.80608 0.0
N354 N 0.64827 0.5765 0.68336 0.0
H355 H 0.71947 0.59158 0.89912 0.0
H356 H 0.69895 0.61129 0.82979 0.0
H357 H 0.6274 0.57231 0.63036 0.0
H358 H 0.67071 0.60413 0.69611 0.0
H359 H 0.63516 0.42516 0.77169 0.0
H360 H 0.67257 0.45591 0.85694 0.0
H361 H 0.58921 0.41788 0.68612 0.0
H362 H 0.57096 0.44095 0.61999 0.0
C363 C 0.11728 0.60157 0.03524 0.0
C364 C 0.1473 0.63655 0.01276 0.0
C365 C 0.11951 0.62068 0.8466 0.0
C366 C 0.08543 0.59199 0.87528 0.0
N367 N 0.05161 0.55336 -0.00321 0.0
N368 N 0.17387 0.68155 0.89578 0.0
C369 C 0.08428 0.58139 0.96938 0.0
C370 C 0.14804 0.64653 0.91768 0.0
N371 N 0.12053 0.58794 0.11916 0.0
N372 N 0.1248 0.62294 0.75128 0.0
H373 H 0.19425 0.70284 0.94596 0.0
H374 H 0.17252 0.69075 0.82893 0.0
H375 H 0.10494 0.60309 0.69728 0.0
H376 H 0.15058 0.64146 0.72758 0.0
H377 H 0.10085 0.56131 0.1362 0.0
H378 H 0.1449 0.60188 0.16706 0.0
H379 H 0.04815 0.54693 0.06753 0.0
H380 H 0.02721 0.53821 0.94943 0.0
C381 C 0.49354 0.13689 0.0673 0.0
C382 C 0.50812 0.14254 0.16442 0.0
C383 C 0.50705 0.08208 0.14467 0.0
C384 C 0.4928 0.07672 0.0474 0.0
N385 N 0.49233 0.10899 0.90881 0.0
N386 N 0.54302 0.12826 0.28145 0.0
C387 C 0.49237 0.10732 0.00599 0.0
C388 C 0.51997 0.11776 0.19801 0.0
N389 N 0.47882 0.1578 0.03402 0.0
N390 N 0.50648 0.05302 0.18789 0.0
H391 H 0.5535 0.1548 0.32036 0.0
H392 H 0.55463 0.1124 0.30528 0.0
H393 H 0.49587 0.02595 0.15217 0.0
H394 H 0.51331 0.05508 0.26165 0.0
H395 H 0.46484 0.15165 0.96515 0.0
H396 H 0.47741 0.17881 0.07711 0.0
H397 H 0.49464 0.13227 0.87736 0.0
H398 H 0.49521 0.08981 0.86176 0.0
C399 C 0.34473 0.45587 0.01537 0.0
C400 C 0.35459 0.49396 0.04254 0.0
C401 C 0.40294 0.5147 0.92873 0.0
C402 C 0.39694 0.47734 0.91344 0.0
N403 N 0.36537 0.41309 0.9543 0.0
N404 N 0.39533 0.56044 0.03065 0.0
C405 C 0.36838 0.44796 0.95902 0.0
C406 C 0.38408 0.52362 -3e-05 0.0
N407 N 0.31248 0.42717 0.04307 0.0
N408 N 0.42612 0.5415 0.87368 0.0
H409 H 0.3818 0.5682 0.08073 0.0
H410 H 0.41963 0.5833 0.01155 0.0
H411 H 0.44005 0.53586 0.82036 0.0
H412 H 0.42882 0.56818 0.87441 0.0
H413 H 0.30176 0.39881 0.01768 0.0
H414 H 0.29443 0.43203 0.08379 0.0
H415 H 0.34798 0.39205 0.99518 0.0
H416 H 0.38273 0.40613 0.9168 0.0
C417 C 0.90108 0.29931 0.90773 0.0
C418 C 0.86624 0.29829 0.90629 0.0
C419 C 0.88599 0.34457 0.79074 0.0
C420 C 0.92346 0.35279 0.81388 0.0
N421 N 0.96712 0.33591 0.88284 0.0
N422 N 0.8214 0.31168 0.83204 0.0
C423 C 0.93109 0.32891 0.86711 0.0
C424 C 0.85705 0.31739 0.83989 0.0
N425 N 0.90554 0.27309 0.9524 0.0
N426 N 0.87857 0.36346 0.72425 0.0
H427 H 0.80031 0.29104 0.86751 0.0
H428 H 0.81282 0.32713 0.79273 0.0
H429 H 0.89948 0.38392 0.68821 0.0
H430 H 0.85168 0.35752 0.70035 0.0
H431 H 0.9296 0.27081 0.95232 0.0
H432 H 0.88343 0.25123 0.98196 0.0
H433 H 0.97525 0.32206 0.92957 0.0
H434 H 0.98945 0.35694 0.85163 0.0
C435 C 0.90453 0.56117 0.89506 0.0
C436 C 0.87017 0.53031 0.91685 0.0
C437 C 0.88019 0.4866 0.80845 0.0
C438 C 0.91568 0.51708 0.79146 0.0
N439 N 0.9579 0.58419 0.80016 0.0
N440 N 0.82111 0.4655 0.87963 0.0
C441 C 0.92638 0.5547 0.82812 0.0
C442 C 0.85657 0.49359 0.86813 0.0
N443 N 0.91714 0.5964 0.9424 0.0
N444 N 0.86992 0.45074 0.77007 0.0
H445 H 0.80359 0.46989 0.9236 0.0
H446 H 0.80795 0.43873 0.84104 0.0
H447 H 0.88554 0.44532 0.72139 0.0
H448 H 0.84679 0.42639 0.78775 0.0
H449 H 0.94392 0.61934 0.94003 0.0
H450 H 0.90118 0.6025 0.98833 0.0
H451 H 0.96577 0.61249 0.81632 0.0
H452 H 0.97485 0.58021 0.75364 0.0
C453 C 0.33189 0.85744 0.9305 0.0
C454 C 0.34837 0.83861 0.97631 0.0
C455 C 0.39924 0.86344 0.8713 0.0
C456 C 0.38705 0.88826 0.84129 0.0
N457 N 0.33221 0.89289 0.79857 0.0
N458 N 0.39523 0.81971 0.98447 0.0
C459 C 0.35023 0.88033 0.85694 0.0
C460 C 0.38081 0.8396 0.94303 0.0
N461 N 0.29971 0.8548 0.96063 0.0
N462 N 0.42802 0.86255 0.8292 0.0
H463 H 0.38184 0.80126 0.03533 0.0
H464 H 0.42105 0.82239 0.9716 0.0
H465 H 0.44012 0.87845 0.7728 0.0
H466 H 0.43734 0.84378 0.84277 0.0
H467 H 0.28884 0.87156 0.93918 0.0
H468 H 0.28473 0.83683 0.01099 0.0
H469 H 0.30447 0.88621 0.80283 0.0
H470 H 0.34313 0.90525 0.73673 0.0
C471 C 0.48386 0.31711 0.94585 0.0
C472 C 0.50799 0.33086 0.03209 0.0
C473 C 0.51977 0.39448 0.01698 0.0
C474 C 0.4953 0.38128 0.92948 0.0
N475 N 0.47087 0.33283 0.7913 0.0
N476 N 0.5623 0.38415 0.1194 0.0
C477 C 0.48236 0.34337 0.88731 0.0
C478 C 0.53124 0.37029 0.05517 0.0
N479 N 0.46179 0.27908 0.92125 0.0
N480 N 0.52947 0.4281 0.06921 0.0
H481 H 0.57049 0.36636 0.14882 0.0
H482 H 0.58151 0.41302 0.13463 0.0
H483 H 0.5164 0.44375 0.05665 0.0
H484 H 0.54654 0.43761 0.13424 0.0
H485 H 0.44066 0.26741 0.86403 0.0
H486 H 0.46395 0.25964 0.96154 0.0
H487 H 0.4632 0.30602 0.75817 0.0
H488 H 0.4745 0.35216 0.74264 0.0
C489 C 0.13782 0.45041 0.92852 0.0
C490 C 0.15947 0.48879 0.9688 0.0
C491 C 0.13662 0.50801 0.83112 0.0
C492 C 0.10929 0.4697 0.80313 0.0
N493 N 0.08448 0.40372 0.81854 0.0
N494 N 0.18 0.5548 0.95957 0.0
C495 C 0.11076 0.44057 0.84825 0.0
C496 C 0.15972 0.51796 0.91925 0.0
N497 N 0.14291 0.42356 0.96804 0.0
N498 N 0.13911 0.53476 0.77441 0.0
H499 H 0.19751 0.5633 0.02373 0.0
H500 H 0.17775 0.57672 0.93281 0.0
H501 H 0.122 0.52746 0.70974 0.0
H502 H 0.15996 0.56314 0.7864 0.0
H503 H 0.13026 0.39551 0.93775 0.0
H504 H 0.16234 0.43015 0.02742 0.0
H505 H 0.08069 0.38114 0.85552 0.0
H506 H 0.06546 0.39596 0.75757 0.0
C507 C 0.68181 0.11348 0.9295 0.0
C508 C 0.68096 0.14459 0.97915 0.0
C509 C 0.62219 0.1275 0.88399 0.0
C510 C 0.62216 0.09553 0.83744 0.0
N511 N 0.65646 0.06465 0.79249 0.0
N512 N 0.65767 0.18811 0.9822 0.0
C513 C 0.65387 0.09108 0.8518 0.0
C514 C 0.6537 0.15406 0.94824 0.0
N515 N 0.70737 0.10361 0.96084 0.0
N516 N 0.59085 0.1308 0.87288 0.0
H517 H 0.68065 0.20803 0.02945 0.0
H518 H 0.64034 0.19799 0.95651 0.0
H519 H 0.56734 0.1117 0.82637 0.0
H520 H 0.58725 0.15081 0.91403 0.0
H521 H 0.70655 0.07874 0.93445 0.0
H522 H 0.7281 0.11905 0.01777 0.0
H523 H 0.68014 0.06165 0.79398 0.0
H524 H 0.63603 0.04827 0.73532 0.0
C525 C 0.52471 0.6513 0.84476 0.0
C526 C 0.55198 0.67107 0.92436 0.0
C527 C 0.57771 0.62873 0.89833 0.0
C528 C 0.55114 0.60976 0.81699 0.0
N529 N 0.50582 0.60889 0.69784 0.0
N530 N 0.60863 0.68396 0.01772 0.0
C531 C 0.52649 0.62274 0.78576 0.0
C532 C 0.57996 0.66148 0.94794 0.0
N533 N 0.49609 0.65864 0.82792 0.0
N534 N 0.60003 0.61483 0.9291 0.0
H535 H 0.611 0.70829 0.05445 0.0
H536 H 0.63163 0.68051 0.03362 0.0
H537 H 0.59897 0.59097 0.89339 0.0
H538 H 0.61756 0.62508 0.99329 0.0
H539 H 0.47256 0.64157 0.77911 0.0
H540 H 0.49468 0.6805 0.86713 0.0
H541 H 0.49136 0.62091 0.66654 0.0
H542 H 0.50549 0.58747 0.65199 0.0
C543 C 0.51325 0.16187 0.54529 0.0
C544 C 0.48252 0.15983 0.48933 0.0
C545 C 0.44147 0.0952 0.52685 0.0
C546 C 0.47322 0.0956 0.57333 0.0
N547 N 0.53435 0.13404 0.66234 0.0
N548 N 0.41606 0.13167 0.45698 0.0
C549 C 0.50764 0.1305 0.59383 0.0
C550 C 0.44597 0.12893 0.49242 0.0
N551 N 0.54824 0.19281 0.54716 0.0
N552 N 0.40773 0.06233 0.51074 0.0
H553 H 0.41982 0.15637 0.43034 0.0
H554 H 0.38817 0.11144 0.46192 0.0
H555 H 0.40326 0.03726 0.53555 0.0
H556 H 0.38469 0.05929 0.46835 0.0
H557 H 0.57264 0.19406 0.57624 0.0
H558 H 0.55303 0.21719 0.51747 0.0
H559 H 0.55851 0.15961 0.68686 0.0
H560 H 0.53031 0.1122 0.70263 0.0
C561 C 0.33199 0.46314 0.41793 0.0
C562 C 0.34254 0.50007 0.39506 0.0
C563 C 0.38955 0.52667 0.53486 0.0
C564 C 0.3869 0.49116 0.53666 0.0
N565 N 0.35131 0.42408 0.49971 0.0
N566 N 0.38004 0.56794 0.43655 0.0
C567 C 0.35562 0.45866 0.48697 0.0
C568 C 0.37005 0.53225 0.45702 0.0
N569 N 0.30038 0.43278 0.37082 0.0
N570 N 0.41329 0.55542 0.60324 0.0
H571 H 0.36684 0.57336 0.37952 0.0
H572 H 0.40291 0.59225 0.47287 0.0
H573 H 0.42826 0.55091 0.65813 0.0
H574 H 0.41534 0.58188 0.61037 0.0
H575 H 0.28997 0.40514 0.38692 0.0
H576 H 0.28296 0.43595 0.32008 0.0
H577 H 0.33162 0.39893 0.45896 0.0
H578 H 0.36873 0.42131 0.55146 0.0
C579 C 0.93106 0.37811 0.22077 0.0
C580 C 0.89197 0.36498 0.22195 0.0
C581 C 0.90599 0.41699 0.34528 0.0
C582 C 0.94499 0.42967 0.34404 0.0
N583 N 0.99461 0.43076 0.25963 0.0
N584 N 0.84296 0.37751 0.26484 0.0
C585 C 0.95735 0.41322 0.27331 0.0
C586 C 0.87964 0.38633 0.27744 0.0
N587 N 0.94309 0.35598 0.17478 0.0
N588 N 0.8938 0.43227 0.41502 0.0
H589 H 0.82294 0.35485 0.21663 0.0
H590 H 0.83318 0.39447 0.29595 0.0
H591 H 0.91184 0.45589 0.46314 0.0
H592 H 0.86569 0.42047 0.42771 0.0
H593 H 0.97112 0.36281 0.17934 0.0
H594 H 0.92486 0.32895 0.13994 0.0
H595 H 0.00526 0.4218 0.20399 0.0
H596 H 0.01407 0.45666 0.2985 0.0
C597 C 0.55883 0.92172 0.13959 0.0
C598 C 0.52605 0.88549 0.13794 0.0
C599 C 0.49624 0.91376 0.23361 0.0
C600 C 0.52904 0.9498 0.2346 0.0
N601 N 0.58652 0.98994 0.16931 0.0
N602 N 0.46121 0.84766 0.16681 0.0
C603 C 0.55864 0.95427 0.18065 0.0
C604 C 0.4939 0.88173 0.17956 0.0
N605 N 0.59046 0.92484 0.10392 0.0
N606 N 0.46831 0.90984 0.28868 0.0
H607 H 0.45931 0.82327 0.13192 0.0
H608 H 0.43557 0.84397 0.1857 0.0
H609 H 0.46812 0.93275 0.32569 0.0
H610 H 0.44607 0.8838 0.30089 0.0
H611 H 0.61618 0.94992 0.11098 0.0
H612 H 0.59207 0.9017 0.07402 0.0
H613 H 0.60743 0.99565 0.12357 0.0
H614 H 0.58631 0.01401 0.19883 0.0
C615 C 0.64978 0.55994 0.18204 0.0
C616 C 0.66007 0.53153 0.18054 0.0
C617 C 0.62219 0.50546 0.31559 0.0
C618 C 0.60931 0.53172 0.31066 0.0
N619 N 0.60654 0.58059 0.23066 0.0
N620 N 0.65336 0.47481 0.23844 0.0
C621 C 0.62195 0.55803 0.24149 0.0
C622 C 0.64562 0.50366 0.24563 0.0
N623 N 0.6674 0.58939 0.12817 0.0
N624 N 0.61256 0.48281 0.38824 0.0
H625 H 0.67103 0.47322 0.18972 0.0
H626 H 0.64051 0.45129 0.27606 0.0
H627 H 0.59482 0.48293 0.4388 0.0
H628 H 0.62392 0.46572 0.4023 0.0
H629 H 0.6642 0.6131 0.13364 0.0
H630 H 0.68797 0.59191 0.08386 0.0
H631 H 0.61104 0.59696 0.17396 0.0
H632 H 0.58673 0.58079 0.27399 0.0
C633 C 0.13171 0.71281 0.30384 0.0
C634 C 0.16456 0.7106 0.3244 0.0
C635 C 0.13644 0.67211 0.45368 0.0
C636 C 0.10113 0.66717 0.41842 0.0
N637 N 0.06554 0.68824 0.32672 0.0
N638 N 0.20402 0.70571 0.44846 0.0
C639 C 0.09901 0.68998 0.34996 0.0
C640 C 0.16898 0.69641 0.41009 0.0
N641 N 0.13177 0.73464 0.23474 0.0
N642 N 0.13836 0.65173 0.52457 0.0
H643 H 0.2283 0.7249 0.42049 0.0
H644 H 0.20959 0.69836 0.51433 0.0
H645 H 0.11505 0.63328 0.55751 0.0
H646 H 0.1626 0.65164 0.54846 0.0
H647 H 0.10911 0.73787 0.21316 0.0
H648 H 0.15607 0.75094 0.20158 0.0
H649 H 0.06125 0.70299 0.27488 0.0
H650 H 0.04168 0.67191 0.36125 0.0
loop_
_geom_bond_atom_site_label_1
_geom_bond_atom_site_label_2
_geom_bond_distance
_geom_bond_site_symmetry_2
_ccdc_geom_bond_type
H0 C8 0.930 . S
H1 C11 0.930 . S
H2 C13 0.930 . S
H3 C14 0.970 . S
H4 C14 0.970 . S
H5 C16 0.930 . S
H6 C18 0.930 . S
H7 C20 0.930 . S
C8 H0 0.930 . S
C8 C9 1.382 . S
C8 C10 1.426 . S
C9 C8 1.382 . S
C9 C13 1.389 . S
C10 C8 1.426 . S
C10 C11 1.375 . S
C10 C14 1.532 . S
C11 H1 0.930 . S
C11 C10 1.375 . S
C11 C12 1.416 . S
C12 C11 1.416 . S
C12 C13 1.371 . S
C13 H2 0.930 . S
C13 C9 1.389 . S
C13 C12 1.371 . S
C14 H3 0.970 . S
C14 H4 0.970 . S
C14 C10 1.532 . S
C14 C15 1.499 . S
C15 C14 1.499 . S
C15 C16 1.370 . S
C15 C20 1.415 . S
C16 H5 0.930 . S
C16 C15 1.370 . S
C16 C17 1.407 . S
C17 C16 1.407 . S
C17 C18 1.365 . S
C18 H6 0.930 . S
C18 C17 1.365 . S
C18 C19 1.393 . S
C19 C18 1.393 . S
C19 C20 1.387 . S
C20 H7 0.930 . S
C20 C15 1.415 . S
C20 C19 1.387 . S
H21 C29 0.930 . S
H22 C32 0.930 . S
H23 C34 0.930 . S
H24 C35 0.970 . S
H25 C35 0.970 . S
H26 C37 0.930 . S
H27 C39 0.930 . S
H28 C41 0.930 . S
C29 H21 0.930 . S
C29 C30 1.382 . S
C29 C31 1.426 . S
C30 C29 1.382 . S
C30 C34 1.389 . S
C31 C29 1.426 . S
C31 C32 1.375 . S
C31 C35 1.532 . S
C32 H22 0.930 . S
C32 C31 1.375 . S
C32 C33 1.416 . S
C33 C32 1.416 . S
C33 C34 1.371 . S
C34 H23 0.930 . S
C34 C30 1.389 . S
C34 C33 1.371 . S
C35 H24 0.970 . S
C35 H25 0.970 . S
C35 C31 1.532 . S
C35 C36 1.499 . S
C36 C35 1.499 . S
C36 C37 1.370 . S
C36 C41 1.415 . S
C37 H26 0.930 . S
C37 C36 1.370 . S
C37 C38 1.407 . S
C38 C37 1.407 . S
C38 C39 1.365 . S
C39 H27 0.930 . S
C39 C38 1.365 . S
C39 C40 1.393 . S
C40 C39 1.393 . S
C40 C41 1.387 . S
C41 H28 0.930 . S
C41 C36 1.415 . S
C41 C40 1.387 . S
H42 C50 0.930 . S
H43 C53 0.930 . S
H44 C55 0.930 . S
H45 C56 0.970 1_556 S
H46 C56 0.970 . S
H47 C58 0.930 . S
H48 C60 0.930 . S
H49 C62 0.930 . S
C50 H42 0.930 . S
C50 C51 1.382 . S
C50 C52 1.426 1_556 S
C51 C50 1.382 . S
C51 C55 1.389 1_556 S
C52 C50 1.426 1_554 S
C52 C53 1.375 . S
C52 C56 1.532 . S
C53 H43 0.930 . S
C53 C52 1.375 . S
C53 C54 1.416 . S
C54 C53 1.416 . S
C54 C55 1.371 . S
C55 H44 0.930 . S
C55 C51 1.389 1_554 S
C55 C54 1.371 . S
C56 H45 0.970 1_554 S
C56 H46 0.970 . S
C56 C52 1.532 . S
C56 C57 1.499 . S
C57 C56 1.499 . S
C57 C58 1.370 1_554 S
C57 C62 1.415 . S
C58 H47 0.930 . S
C58 C57 1.370 1_556 S
C58 C59 1.407 . S
C59 C58 1.407 . S
C59 C60 1.365 1_556 S
C60 H48 0.930 . S
C60 C59 1.365 1_554 S
C60 C61 1.393 . S
C61 C60 1.393 . S
C61 C62 1.387 . S
C62 H49 0.930 . S
C62 C57 1.415 . S
C62 C61 1.387 . S
H63 C71 0.930 . S
H64 C74 0.930 . S
H65 C76 0.930 . S
H66 C77 0.970 . S
H67 C77 0.970 . S
H68 C79 0.933 . S
H69 C81 0.930 . S
H70 C83 0.930 . S
C71 H63 0.930 . S
C71 C72 1.382 . S
C71 C73 1.426 1_556 S
C72 C71 1.382 . S
C72 C76 1.389 1_556 S
C73 C71 1.426 1_554 S
C73 C74 1.375 . S
C73 C77 1.532 . S
C74 H64 0.930 . S
C74 C73 1.375 . S
C74 C75 1.416 . S
C75 C74 1.416 . S
C75 C76 1.371 . S
C76 H65 0.930 . S
C76 C72 1.389 1_554 S
C76 C75 1.371 . S
C77 H66 0.970 . S
C77 H67 0.970 . S
C77 C73 1.532 . S
C77 C78 1.499 . S
C78 C77 1.499 . S
C78 C79 1.368 1_554 S
C78 C83 1.415 . S
C79 H68 0.933 . S
C79 C78 1.368 1_556 S
C79 C80 1.407 . S
C80 C79 1.407 . S
C80 C81 1.365 1_556 S
C81 H69 0.930 . S
C81 C80 1.365 1_554 S
C81 C82 1.393 . S
C82 C81 1.393 . S
C82 C83 1.387 . S
C83 H70 0.930 . S
C83 C78 1.415 . S
C83 C82 1.387 . S
H84 C92 0.930 1_556 S
H85 C95 0.930 . S
H86 C97 0.930 . S
H87 C98 0.970 . S
H88 C98 0.970 . S
H89 C100 0.930 1_556 S
H90 C102 0.930 . S
H91 C104 0.930 . S
C92 H84 0.930 1_554 S
C92 C93 1.382 . S
C92 C94 1.426 . S
C93 C92 1.382 . S
C93 C97 1.389 . S
C94 C92 1.426 . S
C94 C95 1.375 . S
C94 C98 1.532 . S
C95 H85 0.930 . S
C95 C94 1.375 . S
C95 C96 1.416 . S
C96 C95 1.416 . S
C96 C97 1.371 . S
C97 H86 0.930 . S
C97 C93 1.389 . S
C97 C96 1.371 . S
C98 H87 0.970 . S
C98 H88 0.970 . S
C98 C94 1.532 . S
C98 C99 1.499 . S
C99 C98 1.499 . S
C99 C100 1.370 . S
C99 C104 1.415 . S
C100 H89 0.930 1_554 S
C100 C99 1.370 . S
C100 C101 1.407 . S
C101 C100 1.407 . S
C101 C102 1.365 . S
C102 H90 0.930 . S
C102 C101 1.365 . S
C102 C103 1.393 . S
C103 C102 1.393 . S
C103 C104 1.387 . S
C104 H91 0.930 . S
C104 C99 1.415 . S
C104 C103 1.387 . S
H105 C113 0.930 . S
H106 C116 0.930 . S
H107 C118 0.930 . S
H108 C119 0.970 . S
H109 C119 0.970 . S
H110 C121 0.930 . S
H111 C123 0.930 . S
H112 C125 0.930 . S
C113 H105 0.930 . S
C113 C114 1.382 . S
C113 C115 1.426 . S
C114 C113 1.382 . S
C114 C118 1.389 . S
C115 C113 1.426 . S
C115 C116 1.375 . S
C115 C119 1.532 . S
C116 H106 0.930 . S
C116 C115 1.375 . S
C116 C117 1.416 . S
C117 C116 1.416 . S
C117 C118 1.371 . S
C118 H107 0.930 . S
C118 C114 1.389 . S
C118 C117 1.371 . S
C119 H108 0.970 . S
C119 H109 0.970 . S
C119 C115 1.532 . S
C119 C120 1.499 . S
C120 C119 1.499 . S
C120 C121 1.370 . S
C120 C125 1.415 . S
C121 H110 0.930 . S
C121 C120 1.370 . S
C121 C122 1.407 . S
C122 C121 1.407 . S
C122 C123 1.365 . S
C123 H111 0.930 . S
C123 C122 1.365 . S
C123 C124 1.393 . S
C124 C123 1.393 . S
C124 C125 1.387 . S
C125 H112 0.930 . S
C125 C120 1.415 . S
C125 C124 1.387 . S
C126 O138 1.241 . S
C126 O139 1.280 . S
C127 O140 1.277 . S
C127 O141 1.245 . S
C128 O152 1.247 . S
C128 O154 1.289 . S
Mg129 O130 1.926 . S
Mg129 O139 1.984 . S
Mg129 O141 1.988 1_655 S
Mg129 O142 2.061 . S
O130 Mg129 1.926 . S
O130 Mg131 1.986 1_655 S
O130 Mg132 1.917 1_655 S
Mg131 O130 1.986 1_455 S
Mg131 O138 2.042 1_455 S
Mg131 O140 2.041 . S
Mg131 O146 2.038 1_455 S
Mg131 O154 2.238 . S
Mg132 O130 1.917 1_455 S
Mg132 O133 1.917 . S
Mg132 O143 2.106 1_455 S
Mg132 O145 2.079 1_455 S
Mg132 O154 2.106 . S
Mg132 O155 2.079 . S
O133 Mg132 1.917 . S
O133 Mg134 1.926 . S
O133 Mg135 1.986 . S
Mg134 O133 1.926 . S
Mg134 O148 1.984 . S
Mg134 O151 1.988 1_455 S
Mg134 O152 2.061 . S
Mg135 O133 1.986 . S
Mg135 O143 2.238 1_455 S
Mg135 O147 2.042 . S
Mg135 O149 2.041 1_455 S
Mg135 O156 2.038 . S
C136 O142 1.247 . S
C136 O143 1.289 . S
C137 O155 1.245 . S
C137 O156 1.274 . S
O138 C126 1.241 . S
O138 Mg131 2.042 1_655 S
O139 C126 1.280 . S
O139 Mg129 1.984 . S
O140 C127 1.277 . S
O140 Mg131 2.041 . S
O141 C127 1.245 . S
O141 Mg129 1.988 1_455 S
O142 Mg129 2.061 . S
O142 C136 1.247 . S
O143 Mg132 2.106 1_655 S
O143 Mg135 2.238 1_655 S
O143 C136 1.289 . S
C144 O145 1.245 . S
C144 O146 1.274 . S
O145 Mg132 2.079 1_655 S
O145 C144 1.245 . S
O146 Mg131 2.038 1_655 S
O146 C144 1.274 . S
O147 Mg135 2.042 . S
O147 C150 1.241 . S
O148 Mg134 1.984 . S
O148 C150 1.280 . S
O149 Mg135 2.041 1_655 S
O149 C153 1.277 . S
C150 O147 1.241 . S
C150 O148 1.280 . S
O151 Mg134 1.988 1_655 S
O151 C153 1.245 . S
O152 C128 1.247 . S
O152 Mg134 2.061 . S
C153 O149 1.277 . S
C153 O151 1.245 . S
O154 C128 1.289 . S
O154 Mg131 2.238 . S
O154 Mg132 2.106 . S
O155 Mg132 2.079 . S
O155 C137 1.245 . S
O156 Mg135 2.038 . S
O156 C137 1.274 . S
C157 O169 1.241 . S
C157 O170 1.280 . S
C158 O171 1.277 . S
C158 O172 1.245 . S
C159 O183 1.247 . S
C159 O185 1.289 . S
Mg160 O161 1.926 . S
Mg160 O170 1.984 . S
Mg160 O172 1.988 1_545 S
Mg160 O173 2.061 . S
O161 Mg160 1.926 . S
O161 Mg162 1.986 . S
O161 Mg163 1.917 . S
Mg162 O161 1.986 . S
Mg162 O169 2.042 . S
Mg162 O171 2.041 1_545 S
Mg162 O177 2.038 . S
Mg162 O185 2.238 1_545 S
Mg163 O161 1.917 . S
Mg163 O164 1.917 1_545 S
Mg163 O174 2.106 . S
Mg163 O176 2.079 . S
Mg163 O185 2.106 1_545 S
Mg163 O186 2.079 1_545 S
O164 Mg163 1.917 1_565 S
O164 Mg165 1.926 . S
O164 Mg166 1.986 1_565 S
Mg165 O164 1.926 . S
Mg165 O179 1.984 . S
Mg165 O182 1.988 1_565 S
Mg165 O183 2.061 . S
Mg166 O164 1.986 1_545 S
Mg166 O174 2.238 . S
Mg166 O178 2.042 1_545 S
Mg166 O180 2.041 . S
Mg166 O187 2.038 1_545 S
C167 O173 1.247 . S
C167 O174 1.289 . S
C168 O186 1.245 . S
C168 O187 1.274 . S
O169 C157 1.241 . S
O169 Mg162 2.042 . S
O170 C157 1.280 . S
O170 Mg160 1.984 . S
O171 C158 1.277 . S
O171 Mg162 2.041 1_565 S
O172 C158 1.245 . S
O172 Mg160 1.988 1_565 S
O173 Mg160 2.061 . S
O173 C167 1.247 . S
O174 Mg163 2.106 . S
O174 Mg166 2.238 . S
O174 C167 1.289 . S
C175 O176 1.245 . S
C175 O177 1.274 . S
O176 Mg163 2.079 . S
O176 C175 1.245 . S
O177 Mg162 2.038 . S
O177 C175 1.274 . S
O178 Mg166 2.042 1_565 S
O178 C181 1.241 . S
O179 Mg165 1.984 . S
O179 C181 1.280 . S
O180 Mg166 2.041 . S
O180 C184 1.277 . S
C181 O178 1.241 . S
C181 O179 1.280 . S
O182 Mg165 1.988 1_545 S
O182 C184 1.245 . S
O183 C159 1.247 . S
O183 Mg165 2.061 . S
C184 O180 1.277 . S
C184 O182 1.245 . S
O185 C159 1.289 . S
O185 Mg162 2.238 1_565 S
O185 Mg163 2.106 1_565 S
O186 Mg163 2.079 1_565 S
O186 C168 1.245 . S
O187 Mg166 2.038 1_565 S
O187 C168 1.274 . S
C188 O200 1.241 . S
C188 O201 1.280 . S
C189 O202 1.277 . S
C189 O203 1.245 . S
C190 O214 1.247 . S
C190 O216 1.289 . S
Mg191 O192 1.926 . S
Mg191 O201 1.984 . S
Mg191 O203 1.988 . S
Mg191 O204 2.061 . S
O192 Mg191 1.926 . S
O192 Mg193 1.986 . S
O192 Mg194 1.917 . S
Mg193 O192 1.986 . S
Mg193 O200 2.042 . S
Mg193 O202 2.041 . S
Mg193 O208 2.038 . S
Mg193 O216 2.238 . S
Mg194 O192 1.917 . S
Mg194 O195 1.917 . S
Mg194 O205 2.106 . S
Mg194 O207 2.079 . S
Mg194 O216 2.106 . S
Mg194 O217 2.079 . S
O195 Mg194 1.917 . S
O195 Mg196 1.926 . S
O195 Mg197 1.986 . S
Mg196 O195 1.926 . S
Mg196 O210 1.984 . S
Mg196 O213 1.988 . S
Mg196 O214 2.061 . S
Mg197 O195 1.986 . S
Mg197 O205 2.238 . S
Mg197 O209 2.042 . S
Mg197 O211 2.041 . S
Mg197 O218 2.038 . S
C198 O204 1.247 . S
C198 O205 1.289 . S
C199 O217 1.245 . S
C199 O218 1.274 . S
O200 C188 1.241 . S
O200 Mg193 2.042 . S
O201 C188 1.280 . S
O201 Mg191 1.984 . S
O202 C189 1.277 . S
O202 Mg193 2.041 . S
O203 C189 1.245 . S
O203 Mg191 1.988 . S
O204 Mg191 2.061 . S
O204 C198 1.247 . S
O205 Mg194 2.106 . S
O205 Mg197 2.238 . S
O205 C198 1.289 . S
C206 O207 1.245 . S
C206 O208 1.274 . S
O207 Mg194 2.079 . S
O207 C206 1.245 . S
O208 Mg193 2.038 . S
O208 C206 1.274 . S
O209 Mg197 2.042 . S
O209 C212 1.241 . S
O210 Mg196 1.984 . S
O210 C212 1.280 . S
O211 Mg197 2.041 . S
O211 C215 1.277 . S
C212 O209 1.241 . S
C212 O210 1.280 . S
O213 Mg196 1.988 . S
O213 C215 1.245 . S
O214 C190 1.247 . S
O214 Mg196 2.061 . S
C215 O211 1.277 . S
C215 O213 1.245 . S
O216 C190 1.289 . S
O216 Mg193 2.238 . S
O216 Mg194 2.106 . S
O217 Mg194 2.079 . S
O217 C199 1.245 . S
O218 Mg197 2.038 . S
O218 C199 1.274 . S
C219 C220 1.363 . S
C219 C225 1.379 . S
C219 N227 1.356 . S
C220 C219 1.363 . S
C220 C226 1.363 . S
C221 C222 1.363 . S
C221 C226 1.379 . S
C221 N228 1.356 . S
C222 C221 1.363 . S
C222 C225 1.363 . S
N223 C225 1.356 . S
N223 H235 0.984 . S
N223 H236 0.985 . S
N224 C226 1.356 . S
N224 H229 0.984 . S
N224 H230 0.985 . S
C225 C219 1.379 . S
C225 C222 1.363 . S
C225 N223 1.356 . S
C226 C220 1.363 . S
C226 C221 1.379 . S
C226 N224 1.356 . S
N227 C219 1.356 . S
N227 H233 0.984 . S
N227 H234 0.984 . S
N228 C221 1.356 . S
N228 H231 0.984 . S
N228 H232 0.985 . S
H229 N224 0.984 . S
H230 N224 0.985 . S
H231 N228 0.984 . S
H232 N228 0.985 . S
H233 N227 0.984 . S
H234 N227 0.984 . S
H235 N223 0.984 . S
H236 N223 0.985 . S
C237 C238 1.363 . S
C237 C243 1.379 . S
C237 N245 1.356 . S
C238 C237 1.363 . S
C238 C244 1.363 . S
C239 C240 1.363 . S
C239 C244 1.379 . S
C239 N246 1.356 . S
C240 C239 1.363 . S
C240 C243 1.363 . S
N241 C243 1.356 . S
N241 H253 0.984 . S
N241 H254 0.985 . S
N242 C244 1.356 . S
N242 H247 0.984 . S
N242 H248 0.985 . S
C243 C237 1.379 . S
C243 C240 1.363 . S
C243 N241 1.356 . S
C244 C238 1.363 . S
C244 C239 1.379 . S
C244 N242 1.356 . S
N245 C237 1.356 . S
N245 H251 0.984 . S
N245 H252 0.984 . S
N246 C239 1.356 . S
N246 H249 0.984 . S
N246 H250 0.985 . S
H247 N242 0.984 . S
H248 N242 0.985 . S
H249 N246 0.984 . S
H250 N246 0.985 . S
H251 N245 0.984 . S
H252 N245 0.984 . S
H253 N241 0.984 . S
H254 N241 0.985 . S
C255 C256 1.363 . S
C255 C261 1.379 . S
C255 N263 1.356 . S
C256 C255 1.363 . S
C256 C262 1.363 . S
C257 C258 1.363 . S
C257 C262 1.379 . S
C257 N264 1.356 . S
C258 C257 1.363 . S
C258 C261 1.363 . S
N259 C261 1.356 . S
N259 H271 0.984 . S
N259 H272 0.985 . S
N260 C262 1.356 . S
N260 H265 0.984 . S
N260 H266 0.985 . S
C261 C255 1.379 . S
C261 C258 1.363 . S
C261 N259 1.356 . S
C262 C256 1.363 . S
C262 C257 1.379 . S
C262 N260 1.356 . S
N263 C255 1.356 . S
N263 H269 0.984 . S
N263 H270 0.984 . S
N264 C257 1.356 . S
N264 H267 0.984 . S
N264 H268 0.985 . S
H265 N260 0.984 . S
H266 N260 0.985 . S
H267 N264 0.984 . S
H268 N264 0.985 . S
H269 N263 0.984 . S
H270 N263 0.984 . S
H271 N259 0.984 . S
H272 N259 0.985 . S
C273 C274 1.363 . S
C273 C279 1.379 . S
C273 N281 1.356 . S
C274 C273 1.363 . S
C274 C280 1.363 . S
C275 C276 1.363 . S
C275 C280 1.379 . S
C275 N282 1.356 . S
C276 C275 1.363 . S
C276 C279 1.363 . S
N277 C279 1.356 . S
N277 H289 0.984 . S
N277 H290 0.985 . S
N278 C280 1.356 . S
N278 H283 0.984 . S
N278 H284 0.985 . S
C279 C273 1.379 . S
C279 C276 1.363 . S
C279 N277 1.356 . S
C280 C274 1.363 . S
C280 C275 1.379 . S
C280 N278 1.356 . S
N281 C273 1.356 . S
N281 H287 0.984 . S
N281 H288 0.984 . S
N282 C275 1.356 . S
N282 H285 0.984 . S
N282 H286 0.985 . S
H283 N278 0.984 . S
H284 N278 0.985 . S
H285 N282 0.984 . S
H286 N282 0.985 . S
H287 N281 0.984 . S
H288 N281 0.984 . S
H289 N277 0.984 . S
H290 N277 0.985 . S
C291 C292 1.363 . S
C291 C297 1.379 . S
C291 N299 1.356 . S
C292 C291 1.363 . S
C292 C298 1.363 . S
C293 C294 1.363 . S
C293 C298 1.379 . S
C293 N300 1.356 . S
C294 C293 1.363 . S
C294 C297 1.363 . S
N295 C297 1.356 . S
N295 H307 0.984 . S
N295 H308 0.985 . S
N296 C298 1.356 . S
N296 H301 0.984 . S
N296 H302 0.985 . S
C297 C291 1.379 . S
C297 C294 1.363 . S
C297 N295 1.356 . S
C298 C292 1.363 . S
C298 C293 1.379 . S
C298 N296 1.356 . S
N299 C291 1.356 . S
N299 H305 0.984 . S
N299 H306 0.984 . S
N300 C293 1.356 . S
N300 H303 0.984 . S
N300 H304 0.985 . S
H301 N296 0.984 . S
H302 N296 0.985 . S
H303 N300 0.984 . S
H304 N300 0.985 . S
H305 N299 0.984 . S
H306 N299 0.984 . S
H307 N295 0.984 . S
H308 N295 0.985 . S
C309 C310 1.363 . S
C309 C315 1.379 . S
C309 N317 1.356 . S
C310 C309 1.363 . S
C310 C316 1.363 . S
C311 C312 1.363 . S
C311 C316 1.379 . S
C311 N318 1.356 . S
C312 C311 1.363 . S
C312 C315 1.363 . S
N313 C315 1.356 . S
N313 H325 0.984 . S
N313 H326 0.985 . S
N314 C316 1.356 . S
N314 H319 0.984 . S
N314 H320 0.985 . S
C315 C309 1.379 . S
C315 C312 1.363 . S
C315 N313 1.356 . S
C316 C310 1.363 . S
C316 C311 1.379 . S
C316 N314 1.356 . S
N317 C309 1.356 . S
N317 H323 0.984 . S
N317 H324 0.984 . S
N318 C311 1.356 . S
N318 H321 0.984 . S
N318 H322 0.985 . S
H319 N314 0.984 . S
H320 N314 0.985 . S
H321 N318 0.984 . S
H322 N318 0.985 . S
H323 N317 0.984 . S
H324 N317 0.984 . S
H325 N313 0.984 . S
H326 N313 0.985 . S
C327 C328 1.363 . S
C327 C333 1.379 . S
C327 N335 1.356 . S
C328 C327 1.363 . S
C328 C334 1.363 . S
C329 C330 1.363 . S
C329 C334 1.379 . S
C329 N336 1.356 . S
C330 C329 1.363 . S
C330 C333 1.363 . S
N331 C333 1.356 . S
N331 H343 0.984 . S
N331 H344 0.985 . S
N332 C334 1.356 . S
N332 H337 0.984 . S
N332 H338 0.985 . S
C333 C327 1.379 . S
C333 C330 1.363 . S
C333 N331 1.356 . S
C334 C328 1.363 . S
C334 C329 1.379 . S
C334 N332 1.356 . S
N335 C327 1.356 . S
N335 H341 0.984 1_556 S
N335 H342 0.984 1_556 S
N336 C329 1.356 . S
N336 H339 0.984 . S
N336 H340 0.985 . S
H337 N332 0.984 . S
H338 N332 0.985 . S
H339 N336 0.984 . S
H340 N336 0.985 . S
H341 N335 0.984 1_554 S
H342 N335 0.984 1_554 S
H343 N331 0.984 . S
H344 N331 0.985 . S
C345 C346 1.363 . S
C345 C351 1.379 . S
C345 N353 1.356 1_556 S
C346 C345 1.363 . S
C346 C352 1.363 . S
C347 C348 1.363 . S
C347 C352 1.379 . S
C347 N354 1.356 . S
C348 C347 1.363 . S
C348 C351 1.363 . S
N349 C351 1.356 . S
N349 H361 0.984 . S
N349 H362 0.985 . S
N350 C352 1.356 . S
N350 H355 0.984 . S
N350 H356 0.985 . S
C351 C345 1.379 . S
C351 C348 1.363 . S
C351 N349 1.356 . S
C352 C346 1.363 . S
C352 C347 1.379 . S
C352 N350 1.356 . S
N353 C345 1.356 1_554 S
N353 H359 0.984 . S
N353 H360 0.984 . S
N354 C347 1.356 . S
N354 H357 0.984 . S
N354 H358 0.985 . S
H355 N350 0.984 . S
H356 N350 0.985 . S
H357 N354 0.984 . S
H358 N354 0.985 . S
H359 N353 0.984 . S
H360 N353 0.984 . S
H361 N349 0.984 . S
H362 N349 0.985 . S
C363 C364 1.363 . S
C363 C369 1.379 . S
C363 N371 1.356 1_556 S
C364 C363 1.363 . S
C364 C370 1.363 . S
C365 C366 1.363 . S
C365 C370 1.379 . S
C365 N372 1.356 . S
C366 C365 1.363 . S
C366 C369 1.363 . S
N367 C369 1.356 . S
N367 H379 0.984 1_556 S
N367 H380 0.985 . S
N368 C370 1.356 . S
N368 H373 0.984 . S
N368 H374 0.985 . S
C369 C363 1.379 . S
C369 C366 1.363 . S
C369 N367 1.356 . S
C370 C364 1.363 . S
C370 C365 1.379 . S
C370 N368 1.356 . S
N371 C363 1.356 1_554 S
N371 H377 0.984 . S
N371 H378 0.984 . S
N372 C365 1.356 . S
N372 H375 0.984 . S
N372 H376 0.985 . S
H373 N368 0.984 . S
H374 N368 0.985 . S
H375 N372 0.984 . S
H376 N372 0.985 . S
H377 N371 0.984 . S
H378 N371 0.984 . S
H379 N367 0.984 1_554 S
H380 N367 0.985 . S
C381 C382 1.363 1_556 S
C381 C387 1.379 . S
C381 N389 1.356 . S
C382 C381 1.363 1_554 S
C382 C388 1.363 . S
C383 C384 1.363 1_554 S
C383 C388 1.379 . S
C383 N390 1.356 . S
C384 C383 1.363 1_556 S
C384 C387 1.363 . S
N385 C387 1.356 . S
N385 H397 0.984 . S
N385 H398 0.985 . S
N386 C388 1.356 . S
N386 H391 0.984 . S
N386 H392 0.985 . S
C387 C381 1.379 . S
C387 C384 1.363 . S
C387 N385 1.356 . S
C388 C382 1.363 . S
C388 C383 1.379 . S
C388 N386 1.356 . S
N389 C381 1.356 . S
N389 H395 0.984 . S
N389 H396 0.984 1_556 S
N390 C383 1.356 . S
N390 H393 0.984 . S
N390 H394 0.985 . S
H391 N386 0.984 . S
H392 N386 0.985 . S
H393 N390 0.984 . S
H394 N390 0.985 . S
H395 N389 0.984 . S
H396 N389 0.984 1_554 S
H397 N385 0.984 . S
H398 N385 0.985 . S
C399 C400 1.363 . S
C399 C405 1.379 1_554 S
C399 N407 1.356 . S
C400 C399 1.363 . S
C400 C406 1.363 1_554 S
C401 C402 1.363 . S
C401 C406 1.379 . S
C401 N408 1.356 . S
C402 C401 1.363 . S
C402 C405 1.363 . S
N403 C405 1.356 . S
N403 H415 0.984 . S
N403 H416 0.985 . S
N404 C406 1.356 . S
N404 H409 0.984 1_556 S
N404 H410 0.985 . S
C405 C399 1.379 1_556 S
C405 C402 1.363 . S
C405 N403 1.356 . S
C406 C400 1.363 1_556 S
C406 C401 1.379 . S
C406 N404 1.356 . S
N407 C399 1.356 . S
N407 H413 0.984 . S
N407 H414 0.984 . S
N408 C401 1.356 . S
N408 H411 0.984 . S
N408 H412 0.985 . S
H409 N404 0.984 1_554 S
H410 N404 0.985 . S
H411 N408 0.984 . S
H412 N408 0.985 . S
H413 N407 0.984 . S
H414 N407 0.984 . S
H415 N403 0.984 . S
H416 N403 0.985 . S
C417 C418 1.363 1_556 S
C417 C423 1.379 . S
C417 N425 1.356 . S
C418 C417 1.363 1_554 S
C418 C424 1.363 . S
C419 C420 1.360 1_554 S
C419 C424 1.381 . S
C419 N426 1.356 . S
C420 C419 1.360 1_556 S
C420 C423 1.363 . S
N421 C423 1.356 . S
N421 H433 0.984 . S
N421 H434 0.985 . S
N422 C424 1.356 . S
N422 H427 0.984 . S
N422 H428 0.985 . S
C423 C417 1.379 . S
C423 C420 1.363 . S
C423 N421 1.356 . S
C424 C418 1.363 . S
C424 C419 1.381 . S
C424 N422 1.356 . S
N425 C417 1.356 . S
N425 H431 0.984 . S
N425 H432 0.984 . S
N426 C419 1.356 . S
N426 H429 0.984 1_554 S
N426 H430 0.985 . S
H427 N422 0.984 . S
H428 N422 0.985 . S
H429 N426 0.984 1_556 S
H430 N426 0.985 . S
H431 N425 0.984 . S
H432 N425 0.984 . S
H433 N421 0.984 . S
H434 N421 0.985 . S
C435 C436 1.363 . S
C435 C441 1.379 . S
C435 N443 1.356 . S
C436 C435 1.363 . S
C436 C442 1.363 . S
C437 C438 1.363 . S
C437 C442 1.379 . S
C437 N444 1.356 . S
C438 C437 1.363 . S
C438 C441 1.363 . S
N439 C441 1.356 . S
N439 H451 0.984 . S
N439 H452 0.985 . S
N440 C442 1.356 1_554 S
N440 H445 0.984 . S
N440 H446 0.985 . S
C441 C435 1.379 . S
C441 C438 1.363 . S
C441 N439 1.356 . S
C442 C436 1.363 . S
C442 C437 1.379 . S
C442 N440 1.356 1_556 S
N443 C435 1.356 . S
N443 H449 0.984 . S
N443 H450 0.984 . S
N444 C437 1.356 . S
N444 H447 0.984 . S
N444 H448 0.985 . S
H445 N440 0.984 . S
H446 N440 0.985 . S
H447 N444 0.984 . S
H448 N444 0.985 . S
H449 N443 0.984 . S
H450 N443 0.984 . S
H451 N439 0.984 . S
H452 N439 0.985 . S
C453 C454 1.363 . S
C453 C459 1.379 . S
C453 N461 1.356 . S
C454 C453 1.363 . S
C454 C460 1.363 . S
C455 C456 1.363 . S
C455 C460 1.379 . S
C455 N462 1.356 . S
C456 C455 1.363 . S
C456 C459 1.363 . S
N457 C459 1.356 . S
N457 H469 0.984 . S
N457 H470 0.985 . S
N458 C460 1.356 . S
N458 H463 0.984 . S
N458 H464 0.985 . S
C459 C453 1.379 . S
C459 C456 1.363 . S
C459 N457 1.356 . S
C460 C454 1.363 . S
C460 C455 1.379 . S
C460 N458 1.356 . S
N461 C453 1.356 . S
N461 H467 0.984 . S
N461 H468 0.984 1_556 S
N462 C455 1.356 . S
N462 H465 0.984 . S
N462 H466 0.985 . S
H463 N458 0.984 . S
H464 N458 0.985 . S
H465 N462 0.984 . S
H466 N462 0.985 . S
H467 N461 0.984 . S
H468 N461 0.984 1_554 S
H469 N457 0.984 . S
H470 N457 0.985 . S
C471 C472 1.363 1_556 S
C471 C477 1.379 . S
C471 N479 1.356 . S
C472 C471 1.363 1_554 S
C472 C478 1.363 . S
C473 C474 1.363 1_554 S
C473 C478 1.379 . S
C473 N480 1.356 . S
C474 C473 1.363 1_556 S
C474 C477 1.363 . S
N475 C477 1.356 . S
N475 H487 0.984 . S
N475 H488 0.985 . S
N476 C478 1.356 . S
N476 H481 0.984 . S
N476 H482 0.985 . S
C477 C471 1.379 . S
C477 C474 1.363 . S
C477 N475 1.356 . S
C478 C472 1.363 . S
C478 C473 1.379 . S
C478 N476 1.356 . S
N479 C471 1.356 . S
N479 H485 0.984 . S
N479 H486 0.984 1_556 S
N480 C473 1.356 . S
N480 H483 0.984 . S
N480 H484 0.985 . S
H481 N476 0.984 . S
H482 N476 0.985 . S
H483 N480 0.984 . S
H484 N480 0.985 . S
H485 N479 0.984 . S
H486 N479 0.984 1_554 S
H487 N475 0.984 . S
H488 N475 0.985 . S
C489 C490 1.363 1_556 S
C489 C495 1.379 . S
C489 N497 1.356 . S
C490 C489 1.363 1_554 S
C490 C496 1.363 . S
C491 C492 1.363 . S
C491 C496 1.379 1_556 S
C491 N498 1.356 . S
C492 C491 1.363 . S
C492 C495 1.363 . S
N493 C495 1.356 . S
N493 H505 0.984 . S
N493 H506 0.985 . S
N494 C496 1.356 . S
N494 H499 0.984 . S
N494 H500 0.985 . S
C495 C489 1.379 . S
C495 C492 1.363 . S
C495 N493 1.356 . S
C496 C490 1.363 . S
C496 C491 1.379 1_554 S
C496 N494 1.356 . S
N497 C489 1.356 . S
N497 H503 0.984 . S
N497 H504 0.984 . S
N498 C491 1.356 . S
N498 H501 0.984 . S
N498 H502 0.985 1_556 S
H499 N494 0.984 . S
H500 N494 0.985 . S
H501 N498 0.984 . S
H502 N498 0.985 1_554 S
H503 N497 0.984 . S
H504 N497 0.984 . S
H505 N493 0.984 . S
H506 N493 0.985 . S
C507 C508 1.363 . S
C507 C513 1.379 . S
C507 N515 1.356 1_556 S
C508 C507 1.363 . S
C508 C514 1.363 . S
C509 C510 1.363 . S
C509 C514 1.379 . S
C509 N516 1.356 . S
C510 C509 1.363 . S
C510 C513 1.363 . S
N511 C513 1.356 . S
N511 H523 0.984 . S
N511 H524 0.985 . S
N512 C514 1.356 . S
N512 H517 0.984 . S
N512 H518 0.985 . S
C513 C507 1.379 . S
C513 C510 1.363 . S
C513 N511 1.356 . S
C514 C508 1.363 . S
C514 C509 1.379 . S
C514 N512 1.356 . S
N515 C507 1.356 1_554 S
N515 H521 0.984 . S
N515 H522 0.984 . S
N516 C509 1.356 . S
N516 H519 0.984 . S
N516 H520 0.985 . S
H517 N512 0.984 . S
H518 N512 0.985 . S
H519 N516 0.984 . S
H520 N516 0.985 . S
H521 N515 0.984 . S
H522 N515 0.984 . S
H523 N511 0.984 . S
H524 N511 0.985 . S
C525 C526 1.363 . S
C525 C531 1.379 . S
C525 N533 1.356 . S
C526 C525 1.363 . S
C526 C532 1.363 . S
C527 C528 1.363 . S
C527 C532 1.379 . S
C527 N534 1.356 . S
C528 C527 1.363 . S
C528 C531 1.363 . S
N529 C531 1.356 . S
N529 H541 0.984 . S
N529 H542 0.985 . S
N530 C532 1.356 . S
N530 H535 0.984 . S
N530 H536 0.985 1_556 S
C531 C525 1.379 . S
C531 C528 1.363 . S
C531 N529 1.356 . S
C532 C526 1.363 . S
C532 C527 1.379 . S
C532 N530 1.356 . S
N533 C525 1.356 . S
N533 H539 0.984 . S
N533 H540 0.984 . S
N534 C527 1.356 . S
N534 H537 0.984 . S
N534 H538 0.985 . S
H535 N530 0.984 . S
H536 N530 0.985 1_554 S
H537 N534 0.984 . S
H538 N534 0.985 . S
H539 N533 0.984 . S
H540 N533 0.984 . S
H541 N529 0.984 . S
H542 N529 0.985 . S
C543 C544 1.363 . S
C543 C549 1.379 . S
C543 N551 1.356 . S
C544 C543 1.363 . S
C544 C550 1.363 . S
C545 C546 1.363 . S
C545 C550 1.379 . S
C545 N552 1.356 . S
C546 C545 1.363 . S
C546 C549 1.363 . S
N547 C549 1.356 . S
N547 H559 0.984 . S
N547 H560 0.985 . S
N548 C550 1.356 . S
N548 H553 0.984 . S
N548 H554 0.985 . S
C549 C543 1.379 . S
C549 C546 1.363 . S
C549 N547 1.356 . S
C550 C544 1.363 . S
C550 C545 1.379 . S
C550 N548 1.356 . S
N551 C543 1.356 . S
N551 H557 0.984 . S
N551 H558 0.984 . S
N552 C545 1.356 . S
N552 H555 0.984 . S
N552 H556 0.985 . S
H553 N548 0.984 . S
H554 N548 0.985 . S
H555 N552 0.984 . S
H556 N552 0.985 . S
H557 N551 0.984 . S
H558 N551 0.984 . S
H559 N547 0.984 . S
H560 N547 0.985 . S
C561 C562 1.363 . S
C561 C567 1.379 . S
C561 N569 1.356 . S
C562 C561 1.363 . S
C562 C568 1.363 . S
C563 C564 1.363 . S
C563 C568 1.379 . S
C563 N570 1.356 . S
C564 C563 1.363 . S
C564 C567 1.363 . S
N565 C567 1.356 . S
N565 H577 0.984 . S
N565 H578 0.985 . S
N566 C568 1.356 . S
N566 H571 0.984 . S
N566 H572 0.985 . S
C567 C561 1.379 . S
C567 C564 1.363 . S
C567 N565 1.356 . S
C568 C562 1.363 . S
C568 C563 1.379 . S
C568 N566 1.356 . S
N569 C561 1.356 . S
N569 H575 0.984 . S
N569 H576 0.984 . S
N570 C563 1.356 . S
N570 H573 0.984 . S
N570 H574 0.985 . S
H571 N566 0.984 . S
H572 N566 0.985 . S
H573 N570 0.984 . S
H574 N570 0.985 . S
H575 N569 0.984 . S
H576 N569 0.984 . S
H577 N565 0.984 . S
H578 N565 0.985 . S
C579 C580 1.363 . S
C579 C585 1.379 . S
C579 N587 1.356 . S
C580 C579 1.363 . S
C580 C586 1.363 . S
C581 C582 1.363 . S
C581 C586 1.379 . S
C581 N588 1.356 . S
C582 C581 1.363 . S
C582 C585 1.363 . S
N583 C585 1.356 . S
N583 H595 0.984 . S
N583 H596 0.985 . S
N584 C586 1.356 . S
N584 H589 0.984 . S
N584 H590 0.985 . S
C585 C579 1.379 . S
C585 C582 1.363 . S
C585 N583 1.356 . S
C586 C580 1.363 . S
C586 C581 1.379 . S
C586 N584 1.356 . S
N587 C579 1.356 . S
N587 H593 0.984 . S
N587 H594 0.984 . S
N588 C581 1.356 . S
N588 H591 0.984 . S
N588 H592 0.985 . S
H589 N584 0.984 . S
H590 N584 0.985 . S
H591 N588 0.984 . S
H592 N588 0.985 . S
H593 N587 0.984 . S
H594 N587 0.984 . S
H595 N583 0.984 . S
H596 N583 0.985 . S
C597 C598 1.363 . S
C597 C603 1.379 . S
C597 N605 1.356 . S
C598 C597 1.363 . S
C598 C604 1.363 . S
C599 C600 1.363 . S
C599 C604 1.379 . S
C599 N606 1.356 . S
C600 C599 1.363 . S
C600 C603 1.363 . S
N601 C603 1.356 . S
N601 H613 0.984 . S
N601 H614 0.985 . S
N602 C604 1.356 . S
N602 H607 0.984 . S
N602 H608 0.985 . S
C603 C597 1.379 . S
C603 C600 1.363 . S
C603 N601 1.356 . S
C604 C598 1.363 . S
C604 C599 1.379 . S
C604 N602 1.356 . S
N605 C597 1.356 . S
N605 H611 0.984 . S
N605 H612 0.984 . S
N606 C599 1.356 . S
N606 H609 0.984 . S
N606 H610 0.985 . S
H607 N602 0.984 . S
H608 N602 0.985 . S
H609 N606 0.984 . S
H610 N606 0.985 . S
H611 N605 0.984 . S
H612 N605 0.984 . S
H613 N601 0.984 . S
H614 N601 0.985 . S
C615 C616 1.363 . S
C615 C621 1.379 . S
C615 N623 1.356 . S
C616 C615 1.363 . S
C616 C622 1.363 . S
C617 C618 1.363 . S
C617 C622 1.379 . S
C617 N624 1.356 . S
C618 C617 1.363 . S
C618 C621 1.363 . S
N619 C621 1.356 . S
N619 H631 0.984 . S
N619 H632 0.985 . S
N620 C622 1.356 . S
N620 H625 0.984 . S
N620 H626 0.985 . S
C621 C615 1.379 . S
C621 C618 1.363 . S
C621 N619 1.356 . S
C622 C616 1.363 . S
C622 C617 1.379 . S
C622 N620 1.356 . S
N623 C615 1.356 . S
N623 H629 0.984 . S
N623 H630 0.984 . S
N624 C617 1.356 . S
N624 H627 0.984 . S
N624 H628 0.985 . S
H625 N620 0.984 . S
H626 N620 0.985 . S
H627 N624 0.984 . S
H628 N624 0.985 . S
H629 N623 0.984 . S
H630 N623 0.984 . S
H631 N619 0.984 . S
H632 N619 0.985 . S
C633 C634 1.363 . S
C633 C639 1.379 . S
C633 N641 1.356 . S
C634 C633 1.363 . S
C634 C640 1.363 . S
C635 C636 1.363 . S
C635 C640 1.379 . S
C635 N642 1.356 . S
C636 C635 1.363 . S
C636 C639 1.363 . S
N637 C639 1.356 . S
N637 H649 0.984 . S
N637 H650 0.985 . S
N638 C640 1.356 . S
N638 H643 0.984 . S
N638 H644 0.985 . S
C639 C633 1.379 . S
C639 C636 1.363 . S
C639 N637 1.356 . S
C640 C634 1.363 . S
C640 C635 1.379 . S
C640 N638 1.356 . S
N641 C633 1.356 . S
N641 H647 0.984 . S
N641 H648 0.984 . S
N642 C635 1.356 . S
N642 H645 0.984 . S
N642 H646 0.985 . S
H643 N638 0.984 . S
H644 N638 0.985 . S
H645 N642 0.984 . S
H646 N642 0.985 . S
H647 N641 0.984 . S
H648 N641 0.984 . S
H649 N637 0.984 . S
H650 N637 0.985 . S
C220 C12 1.734 . S
C222 C137 1.853 . S
C238 C40 1.543 . S
C240 C184 1.559 . S
C258 C188 1.704 . S
C256 C61 1.753 . S
C276 C153 1.460 . S
C274 C82 1.490 . S
C292 C96 1.697 . S
C294 C168 1.764 . S
C312 C190 1.245 . S
C310 C117 1.140 . S
C330 C159 1.606 . S
C328 C51 1.606 . S
C346 C72 1.493 . S
C348 C199 1.488 . S
C366 C128 1.493 . S
C364 C101 1.435 1_556 S
C382 C122 1.363 . S
C384 C157 1.408 . S
C400 C17 1.775 . S
C402 C215 1.805 . S
C420 C126 1.492 . S
C418 C30 1.488 . S
C438 C144 1.831 . S
C436 C80 1.841 . S
C456 C158 1.558 . S
C454 C93 1.491 1_556 S
C474 C212 1.700 . S
C472 C114 1.675 . S
C492 C127 1.458 . S
C490 C9 1.441 . S
C510 C175 1.736 . S
C508 C38 1.807 1_556 S
C526 C59 1.205 . S
C528 C198 1.235 . S
C546 C167 1.577 . S
C544 C124 1.517 . S
C564 C206 1.445 . S
C562 C19 1.381 . S
C582 C136 1.463 . S
C580 C33 1.503 . S
C600 C181 1.391 . S
C598 C54 1.393 . S
C616 C75 1.800 . S
C618 C189 1.789 . S
C634 C103 1.406 . S
C636 C150 1.463 . S
