# Generated by pormake.
# Topology pyr, (3,6)-cn, num edge types: 1
# Building blocks:
#     Node 0, Type 0, BuildingBlock: KAKCAD_clean_linker_0, # of connection points: 3
#     Node 1, Type 0, BuildingBlock: KAKCAD_clean_linker_0, # of connection points: 3
#     Node 2, Type 0, BuildingBlock: KAKCAD_clean_linker_0, # of connection points: 3
#     Node 3, Type 0, BuildingBlock: KAKCAD_clean_linker_0, # of connection points: 3
#     Node 4, Type 0, BuildingBlock: KAKCAD_clean_linker_0, # of connection points: 3
#     Node 5, Type 0, BuildingBlock: KAKCAD_clean_linker_0, # of connection points: 3
#     Node 6, Type 0, BuildingBlock: KAKCAD_clean_linker_0, # of connection points: 3
#     Node 7, Type 0, BuildingBlock: KAKCAD_clean_linker_0, # of connection points: 3
#     Node 8, Type 1, BuildingBlock: FUNLAD_clean_sbu_0, # of connection points: 6
#     Node 9, Type 1, BuildingBlock: FUNLAD_clean_sbu_0, # of connection points: 6
#     Node 10, Type 1, BuildingBlock: FUNLAD_clean_sbu_0, # of connection points: 6
#     Node 11, Type 1, BuildingBlock: FUNLAD_clean_sbu_0, # of connection points: 6
#     Edge 12, Type (0, 1), BuildingBlock: OJICUG_clean_linker_0, # of connection points: 2
#     Edge 13, Type (0, 1), BuildingBlock: OJICUG_clean_linker_0, # of connection points: 2
#     Edge 14, Type (0, 1), BuildingBlock: OJICUG_clean_linker_0, # of connection points: 2
#     Edge 15, Type (0, 1), BuildingBlock: OJICUG_clean_linker_0, # of connection points: 2
#     Edge 16, Type (0, 1), BuildingBlock: OJICUG_clean_linker_0, # of connection points: 2
#     Edge 17, Type (0, 1), BuildingBlock: OJICUG_clean_linker_0, # of connection points: 2
#     Edge 18, Type (0, 1), BuildingBlock: OJICUG_clean_linker_0, # of connection points: 2
#     Edge 19, Type (0, 1), BuildingBlock: OJICUG_clean_linker_0, # of connection points: 2
#     Edge 20, Type (0, 1), BuildingBlock: OJICUG_clean_linker_0, # of connection points: 2
#     Edge 21, Type (0, 1), BuildingBlock: OJICUG_clean_linker_0, # of connection points: 2
#     Edge 22, Type (0, 1), BuildingBlock: OJICUG_clean_linker_0, # of connection points: 2
#     Edge 23, Type (0, 1), BuildingBlock: OJICUG_clean_linker_0, # of connection points: 2
#     Edge 24, Type (0, 1), BuildingBlock: OJICUG_clean_linker_0, # of connection points: 2
#     Edge 25, Type (0, 1), BuildingBlock: OJICUG_clean_linker_0, # of connection points: 2
#     Edge 26, Type (0, 1), BuildingBlock: OJICUG_clean_linker_0, # of connection points: 2
#     Edge 27, Type (0, 1), BuildingBlock: OJICUG_clean_linker_0, # of connection points: 2
#     Edge 28, Type (0, 1), BuildingBlock: OJICUG_clean_linker_0, # of connection points: 2
#     Edge 29, Type (0, 1), BuildingBlock: OJICUG_clean_linker_0, # of connection points: 2
#     Edge 30, Type (0, 1), BuildingBlock: OJICUG_clean_linker_0, # of connection points: 2
#     Edge 31, Type (0, 1), BuildingBlock: OJICUG_clean_linker_0, # of connection points: 2
#     Edge 32, Type (0, 1), BuildingBlock: OJICUG_clean_linker_0, # of connection points: 2
#     Edge 33, Type (0, 1), BuildingBlock: OJICUG_clean_linker_0, # of connection points: 2
#     Edge 34, Type (0, 1), BuildingBlock: OJICUG_clean_linker_0, # of connection points: 2
#     Edge 35, Type (0, 1), BuildingBlock: OJICUG_clean_linker_0, # of connection points: 2
# Relax obj value: 0.086
# Max RMSD: 0.071
# Mean RMSD: 0.036
data_MOF--net-pry--node1-FUNLAD_clean_sbu_0--node2-KAKCAD_clean_linker_0--edge1-OJICUG_clean_linker_0
_symmetry_space_group_name_H-M    P1
_symmetry_Int_Tables_number       1
_symmetry_cell_setting            triclinic
loop_
_symmetry_equiv_pos_as_xyz
'x, y, z'
_cell_length_a     34.320227
_cell_length_b     36.702346
_cell_length_c     36.845354
_cell_angle_alpha  90.538944
_cell_angle_beta   89.850809
_cell_angle_gamma 84.050594
loop_
_atom_site_label
_atom_site_type_symbol
_atom_site_fract_x
_atom_site_fract_y
_atom_site_fract_z
_atom_type_partial_charge
C0 C 0.08941 0.15155 0.31478 0.0
C1 C 0.09351 0.11304 0.31868 0.0
C2 C 0.10217 0.16824 0.28311 0.0
C3 C 0.11945 0.14709 0.254 0.0
C4 C 0.1227 0.10862 0.25764 0.0
C5 C 0.11029 0.092 0.28929 0.0
C6 C 0.13515 0.16455 0.22052 0.0
C7 C 0.11667 0.19759 0.20571 0.0
C8 C 0.13101 0.21248 0.17351 0.0
C9 C 0.16462 0.19443 0.15677 0.0
C10 C 0.18402 0.16201 0.17092 0.0
C11 C 0.16904 0.14753 0.2028 0.0
C12 C 0.21988 0.14343 0.15216 0.0
C13 C 0.22309 0.14331 0.11398 0.0
C14 C 0.25149 0.1261 0.17205 0.0
C15 C 0.28519 0.10952 0.15437 0.0
C16 C 0.28852 0.11005 0.11629 0.0
C17 C 0.11154 0.24665 0.15626 0.0
C18 C 0.10335 0.24704 0.11882 0.0
C19 C 0.10439 0.27978 0.17578 0.0
C20 C 0.09083 0.31258 0.15806 0.0
C21 C 0.0834 0.31324 0.12027 0.0
C22 C 0.08927 0.27957 0.10123 0.0
C23 C 0.25692 0.12711 0.09638 0.0
H24 H 0.0761 0.16907 0.33617 0.0
H25 H 0.09911 0.19785 0.28181 0.0
H26 H 0.13489 0.09095 0.23587 0.0
H27 H 0.11462 0.06244 0.29078 0.0
H28 H 0.09048 0.21107 0.21838 0.0
H29 H 0.18392 0.12266 0.21383 0.0
H30 H 0.17627 0.20642 0.13282 0.0
H31 H 0.19924 0.15551 0.09747 0.0
H32 H 0.25067 0.12598 0.20142 0.0
H33 H 0.30909 0.09701 0.17065 0.0
H34 H 0.10822 0.222 0.10291 0.0
H35 H 0.11083 0.28065 0.20452 0.0
H36 H 0.25812 0.12756 0.06701 0.0
H37 H 0.08305 0.2781 0.07252 0.0
H38 H 0.08739 0.33761 0.17401 0.0
C39 C 0.40516 0.94952 0.78648 0.0
C40 C 0.42024 0.92874 0.81622 0.0
C41 C 0.39271 0.93257 0.75479 0.0
C42 C 0.39426 0.89407 0.75157 0.0
C43 C 0.40993 0.87318 0.78101 0.0
C44 C 0.42276 0.89017 0.81267 0.0
C45 C 0.37825 0.87632 0.71823 0.0
C46 C 0.34504 0.89383 0.70045 0.0
C47 C 0.32954 0.87874 0.66901 0.0
C48 C 0.34752 0.84515 0.65547 0.0
C49 C 0.38004 0.82604 0.67272 0.0
C50 C 0.39537 0.84216 0.70409 0.0
C51 C 0.39734 0.78954 0.65714 0.0
C52 C 0.37308 0.76594 0.63971 0.0
C53 C 0.43797 0.77849 0.65773 0.0
C54 C 0.45369 0.74565 0.64057 0.0
C55 C 0.42935 0.7232 0.62183 0.0
C56 C 0.29425 0.89764 0.65028 0.0
C57 C 0.26268 0.91551 0.67027 0.0
C58 C 0.29134 0.89712 0.61211 0.0
C59 C 0.25768 0.91315 0.59459 0.0
C60 C 0.226 0.93059 0.6146 0.0
C61 C 0.22913 0.93186 0.65268 0.0
C62 C 0.38883 0.73371 0.62201 0.0
H63 H 0.40215 0.97914 0.78773 0.0
H64 H 0.38175 0.94995 0.73272 0.0
H65 H 0.41158 0.84357 0.78004 0.0
H66 H 0.4348 0.87283 0.83435 0.0
H67 H 0.33105 0.91951 0.7111 0.0
H68 H 0.42057 0.82814 0.71748 0.0
H69 H 0.33579 0.8337 0.63117 0.0
H70 H 0.34158 0.77229 0.63955 0.0
H71 H 0.45787 0.79567 0.67052 0.0
H72 H 0.48508 0.73834 0.64105 0.0
H73 H 0.26338 0.91613 0.69964 0.0
H74 H 0.31522 0.88444 0.59559 0.0
H75 H 0.36909 0.71673 0.60862 0.0
H76 H 0.20517 0.9447 0.66903 0.0
H77 H 0.25664 0.91216 0.56522 0.0
C78 C 0.74466 0.5002 0.98391 0.0
C79 C 0.7709 0.47395 1.00084 0.0
C80 C 0.70533 0.49442 0.98016 0.0
C81 C 0.69168 0.46181 0.99246 0.0
C82 C 0.71795 0.43612 1.01053 0.0
C83 C 0.75715 0.44233 1.01497 0.0
C84 C 0.65153 0.45304 0.98308 0.0
C85 C 0.63644 0.46189 0.94846 0.0
C86 C 0.60094 0.45006 0.93692 0.0
C87 C 0.57992 0.42982 0.96065 0.0
C88 C 0.59504 0.41932 0.99476 0.0
C89 C 0.63033 0.43198 1.00628 0.0
C90 C 0.5785 0.38877 1.01349 0.0
C91 C 0.53789 0.38609 1.01301 0.0
C92 C 0.6038 0.35808 0.0238 0.0
C93 C 0.58937 0.32437 0.0289 0.0
C94 C 0.54941 0.32071 0.02371 0.0
C95 C 0.58881 0.45422 0.89846 0.0
C96 C 0.59346 0.48663 0.87968 0.0
C97 C 0.57501 0.42462 0.87957 0.0
C98 C 0.56659 0.4272 0.84266 0.0
C99 C 0.57237 0.45916 0.82379 0.0
C100 C 0.58548 0.48901 0.84261 0.0
C101 C 0.52348 0.35222 0.01774 0.0
H102 H 0.75471 0.52504 0.9733 0.0
H103 H 0.68581 0.51514 0.96679 0.0
H104 H 0.70881 0.41042 0.01983 0.0
H105 H 0.77708 0.42176 0.02811 0.0
H106 H 0.65384 0.47559 0.92931 0.0
H107 H 0.64208 0.42392 0.0326 0.0
H108 H 0.55321 0.4196 0.95117 0.0
H109 H 0.5176 0.40949 1.00584 0.0
H110 H 0.63524 0.35901 0.0242 0.0
H111 H 0.61013 0.30056 0.03345 0.0
H112 H 0.60369 0.50997 0.89354 0.0
H113 H 0.57204 0.3989 0.89293 0.0
H114 H 0.49242 0.35026 1.01439 0.0
H115 H 0.58973 0.51411 0.82858 0.0
H116 H 0.55693 0.4037 0.82859 0.0
C117 C 0.90773 0.56436 0.33433 0.0
C118 C 0.94688 0.55661 0.32331 0.0
C119 C 0.89798 0.56526 0.37106 0.0
C120 C 0.92728 0.55876 0.39744 0.0
C121 C 0.96625 0.54938 0.38638 0.0
C122 C 0.97595 0.54802 0.34951 0.0
C123 C 0.91784 0.5683 0.4357 0.0
C124 C 0.884 0.55745 0.45194 0.0
C125 C 0.86887 0.57467 0.48389 0.0
C126 C 0.88868 0.60214 0.50021 0.0
C127 C 0.92265 0.61327 0.48414 0.0
C128 C 0.93767 0.59525 0.45257 0.0
C129 C 0.93694 0.64877 0.49416 0.0
C130 C 0.90972 0.67974 0.49916 0.0
C131 C 0.97699 0.65358 0.4913 0.0
C132 C 0.98904 0.68875 0.48966 0.0
C133 C 0.96121 0.71959 0.49105 0.0
C134 C 0.82877 0.56888 0.49562 0.0
C135 C 0.80032 0.59908 0.49948 0.0
C136 C 0.81747 0.53334 0.49854 0.0
C137 C 0.77817 0.52808 0.50413 0.0
C138 C 0.74951 0.55829 0.50632 0.0
C139 C 0.76101 0.59383 0.50459 0.0
C140 C 0.92177 0.71477 0.49772 0.0
H141 H 0.88477 0.57053 0.31452 0.0
H142 H 0.86781 0.5732 0.37886 0.0
H143 H 0.98934 0.54456 0.4063 0.0
H144 H 1.00635 0.54186 0.34155 0.0
H145 H 0.86757 0.53793 0.43792 0.0
H146 H 0.96204 0.60541 0.43845 0.0
H147 H 0.87616 0.61653 0.52401 0.0
H148 H 0.87863 0.67719 0.50116 0.0
H149 H 0.99867 0.63016 0.4878 0.0
H150 H 0.0197 0.6917 0.48486 0.0
H151 H 0.80815 0.62678 0.49676 0.0
H152 H 0.83888 0.50965 0.49547 0.0
H153 H 0.89984 0.73815 0.4999 0.0
H154 H 0.73946 0.61753 0.5065 0.0
H155 H 0.76997 0.50039 0.50521 0.0
C156 C 0.92727 0.88776 0.7192 0.0
C157 C 0.92203 0.9261 0.71413 0.0
C158 C 0.91384 0.87161 0.7509 0.0
C159 C 0.89469 0.89315 0.77883 0.0
C160 C 0.8903 0.9315 0.77407 0.0
C161 C 0.90345 0.94757 0.7424 0.0
C162 C 0.87785 0.87611 0.81199 0.0
C163 C 0.89645 0.84386 0.82829 0.0
C164 C 0.88022 0.82839 0.85941 0.0
C165 C 0.84447 0.8454 0.87335 0.0
C166 C 0.82561 0.87747 0.85817 0.0
C167 C 0.84246 0.89246 0.82758 0.0
C168 C 0.78852 0.89542 0.87499 0.0
C169 C 0.75884 0.87435 0.88645 0.0
C170 C 0.7832 0.9335 0.88127 0.0
C171 C 0.7496 0.94988 0.89928 0.0
C172 C 0.72013 0.92872 0.91132 0.0
C173 C 0.89976 0.79475 0.87817 0.0
C174 C 0.91997 0.76536 0.85873 0.0
C175 C 0.89645 0.79097 0.91612 0.0
C176 C 0.91085 0.75859 0.9337 0.0
C177 C 0.93016 0.72868 0.91432 0.0
C178 C 0.93503 0.733 0.87648 0.0
C179 C 0.72517 0.89072 0.90418 0.0
H180 H 0.94194 0.86997 0.6987 0.0
H181 H 0.91777 0.84206 0.75308 0.0
H182 H 0.87654 0.94944 0.79493 0.0
H183 H 0.89822 0.97703 0.73994 0.0
H184 H 0.92409 0.83148 0.81743 0.0
H185 H 0.82713 0.91651 0.81532 0.0
H186 H 0.83105 0.83375 0.89656 0.0
H187 H 0.76158 0.84504 0.88159 0.0
H188 H 0.8056 0.95055 0.87321 0.0
H189 H 0.74728 0.9791 0.90452 0.0
H190 H 0.92333 0.76686 0.82958 0.0
H191 H 0.88223 0.81305 0.93261 0.0
H192 H 0.70293 0.87344 0.91207 0.0
H193 H 0.95043 0.71135 0.86027 0.0
H194 H 0.90576 0.75697 0.96259 0.0
C195 C 0.61192 0.08598 0.24335 0.0
C196 C 0.59344 0.10755 0.21562 0.0
C197 C 0.62515 0.10202 0.27523 0.0
C198 C 0.62084 0.14036 0.28065 0.0
C199 C 0.60181 0.16196 0.25322 0.0
C200 C 0.58833 0.14587 0.22135 0.0
C201 C 0.6374 0.15745 0.31406 0.0
C202 C 0.6727 0.14129 0.32948 0.0
C203 C 0.68925 0.15665 0.36023 0.0
C204 C 0.67014 0.18876 0.37576 0.0
C205 C 0.63452 0.2055 0.3619 0.0
C206 C 0.61858 0.18974 0.33067 0.0
C207 C 0.61485 0.23931 0.38072 0.0
C208 C 0.61721 0.24331 0.41876 0.0
C209 C 0.5956 0.26868 0.36123 0.0
C210 C 0.58058 0.30133 0.37907 0.0
C211 C 0.58454 0.30587 0.41701 0.0
C212 C 0.72629 0.13916 0.37685 0.0
C213 C 0.73178 0.10121 0.38303 0.0
C214 C 0.75567 0.16066 0.3884 0.0
C215 C 0.78919 0.14484 0.40623 0.0
C216 C 0.79436 0.10699 0.41332 0.0
C217 C 0.76525 0.08537 0.40111 0.0
C218 C 0.60279 0.27597 0.43645 0.0
H219 H 0.61698 0.05652 0.2403 0.0
H220 H 0.63886 0.08408 0.29572 0.0
H221 H 0.598 0.19152 0.25592 0.0
H222 H 0.5737 0.16369 0.20125 0.0
H223 H 0.68818 0.11716 0.31696 0.0
H224 H 0.59099 0.20199 0.31995 0.0
H225 H 0.68324 0.20069 0.39915 0.0
H226 H 0.63076 0.22122 0.43517 0.0
H227 H 0.59305 0.26694 0.332 0.0
H228 H 0.566 0.32306 0.36287 0.0
H229 H 0.70959 0.08388 0.37487 0.0
H230 H 0.75276 0.18989 0.3836 0.0
H231 H 0.60707 0.27787 0.46546 0.0
H232 H 0.76775 0.05624 0.40632 0.0
H233 H 0.8112 0.16239 0.41426 0.0
C234 C 0.2594 0.56511 0.07408 0.0
C235 C 0.24376 0.56857 0.03899 0.0
C236 C 0.2992 0.56663 0.07986 0.0
C237 C 0.32469 0.57117 0.05069 0.0
C238 C 0.30917 0.57534 1.01557 0.0
C239 C 0.26902 0.57388 1.00974 0.0
C240 C 0.36696 0.57272 0.05798 0.0
C241 C 0.38538 0.54915 0.084 0.0
C242 C 0.42046 0.55693 0.10016 0.0
C243 C 0.44019 0.58523 0.08631 0.0
C244 C 0.42254 0.60896 0.06013 0.0
C245 C 0.38621 0.6022 0.04538 0.0
C246 C 0.43708 0.64518 0.05585 0.0
C247 C 0.4439 0.66575 0.08711 0.0
C248 C 0.44257 0.66014 0.02156 0.0
C249 C 0.45509 0.69513 0.01872 0.0
C250 C 0.46181 0.71572 0.05016 0.0
C251 C 0.42888 0.54536 0.13788 0.0
C252 C 0.39856 0.55123 0.16359 0.0
C253 C 0.46742 0.53616 0.14988 0.0
C254 C 0.47557 0.5344 0.18706 0.0
C255 C 0.44536 0.54237 0.21275 0.0
C256 C 0.4067 0.55007 0.20045 0.0
C257 C 0.45608 0.70052 0.08431 0.0
H258 H 0.24102 0.56049 0.09717 0.0
H259 H 0.30997 0.5644 0.10745 0.0
H260 H 0.32811 0.57927 0.99268 0.0
H261 H 0.25774 0.577 0.9824 0.0
H262 H 0.37002 0.52735 0.09507 0.0
H263 H 0.37109 0.62206 0.02733 0.0
H264 H 0.46672 0.59209 0.09954 0.0
H265 H 0.43879 0.65529 0.11392 0.0
H266 H 0.43724 0.64479 0.99713 0.0
H267 H 0.45938 0.70609 0.99199 0.0
H268 H 0.36871 0.55956 0.15534 0.0
H269 H 0.49133 0.53188 0.13055 0.0
H270 H 0.45976 0.71595 0.10905 0.0
H271 H 0.38272 0.55721 0.21919 0.0
H272 H 0.50559 0.5277 0.19562 0.0
C273 C 0.09595 0.32118 0.53446 0.0
C274 C 0.05655 0.31684 0.54186 0.0
C275 C 0.1085 0.35599 0.53296 0.0
C276 C 0.08183 0.38723 0.53868 0.0
C277 C 0.04172 0.38295 0.54226 0.0
C278 C 0.02916 0.34796 0.54391 0.0
C279 C 0.09693 0.42234 0.54878 0.0
C280 C 0.13077 0.43315 0.53216 0.0
C281 C 0.15141 0.46007 0.5484 0.0
C282 C 0.13732 0.47702 0.58079 0.0
C283 C 0.10394 0.46616 0.5978 0.0
C284 C 0.08308 0.43993 0.58099 0.0
C285 C 0.09663 0.47447 0.63664 0.0
C286 C 0.1273 0.46679 0.66142 0.0
C287 C 0.05853 0.4844 0.6497 0.0
C288 C 0.05113 0.48578 0.68703 0.0
C289 C 0.08163 0.47672 0.71185 0.0
C290 C 0.19165 0.46502 0.53659 0.0
C291 C 0.2198 0.43444 0.53415 0.0
C292 C 0.20353 0.50029 0.5332 0.0
C293 C 0.24312 0.50495 0.5287 0.0
C294 C 0.27146 0.47443 0.52815 0.0
C295 C 0.25942 0.43912 0.5302 0.0
C296 C 0.11987 0.46768 0.69857 0.0
H297 H 0.11751 0.29755 0.53179 0.0
H298 H 0.13962 0.35813 0.53041 0.0
H299 H 0.02046 0.40659 0.54635 0.0
H300 H 0.99853 0.34535 0.54927 0.0
H301 H 0.14265 0.41885 0.50807 0.0
H302 H 0.05899 0.42981 0.59559 0.0
H303 H 0.15452 0.496 0.5947 0.0
H304 H 0.15677 0.45803 0.65205 0.0
H305 H 0.03441 0.49015 0.63101 0.0
H306 H 0.02147 0.49353 0.69639 0.0
H307 H 0.21143 0.40698 0.53732 0.0
H308 H 0.18234 0.52424 0.53533 0.0
H309 H 0.14395 0.45988 0.71676 0.0
H310 H 0.28075 0.41519 0.52952 0.0
H311 H 0.25175 0.53247 0.52731 0.0
C312 C 0.04226 0.04333 0.45184 0.0
N313 N 0.01602 0.09494 0.55213 0.0
C314 C 0.05199 0.10701 0.54884 0.0
C315 C 0.05681 0.14366 0.55484 0.0
C316 C 0.02419 0.16837 0.56368 0.0
C317 C 0.98771 0.15506 0.56877 0.0
C318 C 0.98431 0.1178 0.56309 0.0
Zn319 Zn 0.01029 0.0446 0.53073 0.0
C320 C 0.9356 0.04481 0.48799 0.0
N321 N 1.00143 0.94177 0.48025 0.0
C322 C 0.0331 0.91882 0.46934 0.0
C323 C 0.96545 0.92975 0.48366 0.0
C324 C 0.96057 0.89307 0.47785 0.0
C325 C 0.99315 0.86829 0.46909 0.0
C326 C 0.02965 0.88154 0.46386 0.0
Zn327 Zn 0.00724 0.99217 0.50157 0.0
O328 O 0.03678 0.06239 0.48085 0.0
C329 C 0.08207 0.99195 0.54409 0.0
O330 O 0.03326 1.01046 0.45198 0.0
H331 H 0.94087 0.94802 0.49341 0.0
H332 H 0.0766 0.08878 0.53908 0.0
H333 H 0.06149 0.92892 0.46699 0.0
O334 O 0.06657 0.024 0.55206 0.0
O335 O 0.06397 0.97238 0.52253 0.0
H336 H 0.95593 0.10766 0.56534 0.0
O337 O 0.98096 0.97434 0.55168 0.0
O338 O 0.98396 0.02656 0.58014 0.0
O339 O 0.95094 1.01262 0.48043 0.0
O340 O 0.95372 0.06452 0.50939 0.0
C341 C 0.97517 0.99364 0.58051 0.0
H342 H 0.0853 0.15298 0.55003 0.0
H343 H 0.96195 0.17343 0.57568 0.0
H344 H 0.93208 0.8838 0.48275 0.0
H345 H 0.05538 0.86311 0.45701 0.0
C346 C 0.57849 0.99338 0.98608 0.0
N347 N 0.51453 0.09799 0.98466 0.0
C348 C 0.5504 0.10935 0.99105 0.0
C349 C 0.55474 0.14648 0.99397 0.0
C350 C 0.52184 0.17221 0.99062 0.0
C351 C 0.48598 0.16005 0.98028 0.0
C352 C 0.48294 0.12241 0.97743 0.0
Zn353 Zn 0.50769 0.0464 1.00176 0.0
C354 C 0.47163 0.9982 0.95012 0.0
N355 N 0.49631 0.94264 0.04709 0.0
C356 C 0.52773 0.91907 0.0567 0.0
C357 C 0.46034 0.93094 0.04233 0.0
C358 C 0.45534 0.89398 0.04508 0.0
C359 C 0.48781 0.86858 0.05208 0.0
C360 C 0.52414 0.88161 0.05926 0.0
Zn361 Zn 0.50314 0.99373 0.0292 0.0
O362 O 0.56399 0.02597 0.9796 0.0
C363 C 0.53929 0.04163 0.08096 0.0
O364 O 0.5596 0.97381 1.00671 0.0
H365 H 0.43585 0.94991 0.03408 0.0
H366 H 0.57502 0.08974 0.99748 0.0
H367 H 0.55611 0.92894 0.06017 0.0
O368 O 0.53395 0.06143 0.05285 0.0
O369 O 0.52971 1.00902 0.07955 0.0
H370 H 0.45462 0.11284 0.97263 0.0
O371 O 0.44707 1.01427 0.05171 0.0
O372 O 0.45092 0.06605 0.02379 0.0
O373 O 0.47647 0.97874 0.97851 0.0
O374 O 0.48161 0.03073 0.95114 0.0
C375 C 0.43226 0.04663 0.04474 0.0
H376 H 0.58312 0.15486 1.00108 0.0
H377 H 0.45998 0.17916 0.97723 0.0
H378 H 0.42657 0.88528 0.04035 0.0
H379 H 0.54997 0.86297 0.06476 0.0
C380 C 0.53513 0.44541 0.49152 0.0
N381 N 0.52896 0.48784 0.59786 0.0
C382 C 0.51779 0.45667 0.61254 0.0
C383 C 0.52619 0.44845 0.64885 0.0
C384 C 0.54615 0.47264 0.66994 0.0
C385 C 0.55756 0.50433 0.65378 0.0
C386 C 0.54879 0.51132 0.61761 0.0
Zn387 Zn 0.51563 0.50315 0.54637 0.0
C388 C 0.58646 0.53309 0.51249 0.0
N389 N 0.49248 0.54158 0.44027 0.0
C390 C 0.47394 0.51541 0.423 0.0
C391 C 0.50285 0.57132 0.42224 0.0
C392 C 0.49464 0.5752 0.3851 0.0
C393 C 0.47585 0.54807 0.36681 0.0
C394 C 0.46572 0.51792 0.38639 0.0
Zn395 Zn 0.50579 0.52843 0.49262 0.0
O396 O 0.53265 0.44829 0.52592 0.0
C397 C 0.43485 0.49863 0.52638 0.0
O398 O 0.52662 0.47398 0.47276 0.0
H399 H 0.51792 0.59161 0.43645 0.0
H400 H 0.50203 0.43845 0.59623 0.0
H401 H 0.46628 0.49164 0.43736 0.0
O402 O 0.45736 0.49013 0.55294 0.0
O403 O 0.44824 0.51395 0.49902 0.0
H404 H 0.55732 0.536 0.60548 0.0
O405 O 0.4857 0.5825 0.51294 0.0
O406 O 0.49804 0.55849 0.56645 0.0
O407 O 0.56305 0.54346 0.48707 0.0
O408 O 0.57403 0.51585 0.53916 0.0
C409 C 0.48651 0.58629 0.54737 0.0
H410 H 0.51715 0.42356 0.66025 0.0
H411 H 0.57226 0.52413 0.66913 0.0
H412 H 0.50288 0.59896 0.37092 0.0
H413 H 0.45235 0.49574 0.37342 0.0
C414 C 0.98132 0.59041 0.98847 0.0
N415 N 0.98629 0.54844 0.09577 0.0
C416 C 0.99785 0.5788 0.11239 0.0
C417 C 0.99224 0.58399 0.14982 0.0
C418 C 0.97527 0.55731 0.16982 0.0
C419 C 0.96224 0.52725 0.15171 0.0
C420 C 0.96788 0.52341 0.11455 0.0
Zn421 Zn 1.00075 0.53348 0.04383 0.0
C422 C 0.93294 0.50052 1.00854 0.0
N423 N 0.02924 0.49332 0.93817 0.0
C424 C 0.04807 0.51841 0.91995 0.0
C425 C 0.02024 0.46195 0.92169 0.0
C426 C 0.03004 0.4552 0.88513 0.0
C427 C 0.0492 0.48105 0.86578 0.0
C428 C 0.05816 0.5129 0.88376 0.0
Zn429 Zn 0.01393 0.50835 0.98985 0.0
O430 O 0.98112 0.58751 0.02294 0.0
C431 C 0.08178 0.54151 0.025 0.0
O432 O 0.99301 0.5622 0.96951 0.0
H433 H 1.00509 0.44248 0.93671 0.0
H434 H 0.01266 0.59817 0.09692 0.0
H435 H 0.05469 0.54336 0.93328 0.0
O436 O 0.0576 0.5496 0.05068 0.0
O437 O 0.07086 0.5244 0.99739 0.0
H438 H 0.95899 0.49939 0.10102 0.0
O439 O 0.03427 0.45442 1.01086 0.0
O440 O 0.02088 0.47941 0.06414 0.0
O441 O 0.95703 0.49242 0.98276 0.0
O442 O 0.94387 0.51738 0.03634 0.0
C443 C 0.03316 0.45131 0.04529 0.0
H444 H 1.00247 0.60761 0.16319 0.0
H445 H 0.94852 0.50646 0.16633 0.0
H446 H 0.02273 0.43019 0.87219 0.0
H447 H 0.07198 0.53402 0.86979 0.0
C448 C 0.06714 0.05977 0.35203 0.0
C449 C 0.08074 0.09485 0.35301 0.0
H450 H 0.04496 0.01607 0.3817 0.0
C451 C 0.08231 0.11212 0.3873 0.0
H452 H 0.0646 0.04547 0.32648 0.0
C453 C 0.07042 0.09526 0.41911 0.0
C454 C 0.05684 0.06029 0.41799 0.0
H455 H 0.09316 0.13867 0.38985 0.0
H456 H 0.07191 0.10977 0.44472 0.0
C457 C 0.05561 0.04277 0.38391 0.0
C458 C 0.4482 0.98143 0.84995 0.0
C459 C 0.43276 0.94717 0.85068 0.0
H460 H 0.47198 0.02445 0.8801 0.0
C461 C 0.42917 0.93086 0.88489 0.0
H462 H 0.45222 0.99494 0.82444 0.0
C463 C 0.4411 0.94772 0.91686 0.0
C464 C 0.45668 0.98176 0.916 0.0
H465 H 0.41677 0.90505 0.88723 0.0
H466 H 0.43811 0.93388 0.94241 0.0
C467 C 0.45976 0.99849 0.88204 0.0
C468 C 0.53155 0.45048 0.76889 0.0
C469 C 0.56617 0.46086 0.78426 0.0
H470 H 0.4978 0.44649 0.72054 0.0
C471 C 0.59514 0.47274 0.76166 0.0
H472 H 0.5088 0.44123 0.78589 0.0
C473 C 0.58925 0.4751 0.72435 0.0
C474 C 0.554 0.4661 0.70895 0.0
H475 H 0.62244 0.48013 0.77287 0.0
H476 H 0.6122 0.48432 0.70759 0.0
C477 C 0.52542 0.45323 0.73152 0.0
C478 C 0.94307 0.58888 0.26381 0.0
C479 C 0.95722 0.55837 0.28455 0.0
H480 H 0.93851 0.61275 0.21082 0.0
C481 C 0.98014 0.5291 0.26779 0.0
H482 H 0.9257 0.61198 0.27635 0.0
C483 C 0.98721 0.52952 0.23054 0.0
C484 C 0.97194 0.55944 0.20962 0.0
H485 H 0.99133 0.50532 0.28325 0.0
H486 H 1.00385 0.50607 0.21786 0.0
C487 C 0.95064 0.58953 0.22658 0.0
C488 C 0.34144 0.1115 0.06859 0.0
C489 C 0.32489 0.0933 0.09739 0.0
H490 H 0.38806 0.11136 0.02965 0.0
C491 C 0.34357 0.05912 0.10807 0.0
H492 H 0.32814 0.13799 0.05983 0.0
C493 C 0.37782 0.04366 0.09053 0.0
C494 C 0.39467 0.06213 0.06209 0.0
H495 H 0.3315 0.04414 0.12988 0.0
H496 H 0.39141 0.01739 0.09964 0.0
C497 C 0.37594 0.09625 0.05134 0.0
C498 C 0.17067 0.98104 0.60683 0.0
C499 C 0.18967 0.94687 0.59584 0.0
H500 H 0.12247 0.02225 0.59894 0.0
C501 C 0.17342 0.92816 0.56696 0.0
H502 H 0.18251 0.99642 0.62869 0.0
C503 C 0.13887 0.94291 0.54994 0.0
C504 C 0.11977 0.97699 0.56106 0.0
H505 H 0.18698 0.90164 0.55797 0.0
H506 H 0.12697 0.92742 0.52819 0.0
C507 C 0.13634 0.99598 0.58956 0.0
C508 C 0.83134 0.48092 0.03648 0.0
C509 C 0.81281 0.47918 1.00277 0.0
H510 H 0.88413 0.48949 0.06466 0.0
C511 C 0.83433 0.48292 0.97079 0.0
H512 H 0.81516 0.47807 0.06141 0.0
C513 C 0.87391 0.48863 0.97253 0.0
C514 C 0.89219 0.49154 1.00631 0.0
H515 H 0.82047 0.48142 0.94451 0.0
H516 H 0.88985 0.49181 0.94754 0.0
C517 C 0.87063 0.48749 0.03827 0.0
C518 C 0.6804 0.57117 0.4849 0.0
C519 C 0.70755 0.55269 0.50861 0.0
H520 H 0.62074 0.57919 0.46722 0.0
C521 C 0.69456 0.52814 0.53377 0.0
H522 H 0.68982 0.58998 0.46499 0.0
C523 C 0.6551 0.52217 0.53523 0.0
C524 C 0.62796 0.54024 0.5112 0.0
H525 H 0.71492 0.51372 0.55243 0.0
H526 H 0.64598 0.50302 0.55495 0.0
C527 C 0.64098 0.56483 0.48602 0.0
C528 C 0.04784 0.3779 0.11861 0.0
C529 C 0.07019 0.34862 0.10072 0.0
H530 H 0.01899 0.43252 0.1156 0.0
C531 C 0.0799 0.3537 0.06387 0.0
H532 H 0.03884 0.37541 0.14656 0.0
C533 C 0.0676 0.38653 0.04573 0.0
C534 C 0.04568 0.41573 0.06388 0.0
H535 H 0.09768 0.33255 0.04893 0.0
H536 H 0.07587 0.38923 0.01757 0.0
C537 C 0.03607 0.41085 0.10062 0.0
C538 C 0.55118 0.25496 0.04142 0.0
C539 C 0.53651 0.28371 0.01887 0.0
H540 H 0.55754 0.19723 0.0503 0.0
C541 C 0.51385 0.2759 0.98851 0.0
H542 H 0.56832 0.26023 0.06519 0.0
C543 C 0.50791 0.23974 0.97976 0.0
C544 C 0.52468 0.21086 1.00114 0.0
H545 H 0.5026 0.29748 0.97033 0.0
H546 H 0.49179 0.23428 0.95541 0.0
C547 C 0.54528 0.21893 0.03268 0.0
C548 C 0.94848 0.77938 0.45942 0.0
C549 C 0.97228 0.75648 0.48257 0.0
H550 H 0.93714 0.83259 0.43621 0.0
C551 C 1.00599 0.76927 0.49749 0.0
H552 H 0.92297 0.76986 0.44661 0.0
C553 C 0.01435 0.80515 0.49113 0.0
C554 C 0.98912 0.82864 0.46973 0.0
H555 H 0.02491 0.75211 0.51529 0.0
H556 H 0.03926 0.81511 0.50456 0.0
C557 C 0.95677 0.81511 0.45313 0.0
C558 C 0.47187 0.6625 0.61921 0.0
C559 C 0.4457 0.68894 0.6021 0.0
H560 H 0.50469 0.60945 0.61572 0.0
C561 C 0.43415 0.6818 0.56625 0.0
H562 H 0.48121 0.66693 0.64681 0.0
C563 C 0.44818 0.64912 0.5481 0.0
C564 C 0.47347 0.62221 0.56558 0.0
H565 H 0.4142 0.70163 0.55216 0.0
H566 H 0.43841 0.64454 0.52066 0.0
C567 C 0.48518 0.62944 0.60137 0.0
C568 C 0.93534 0.92536 0.6458 0.0
C569 C 0.93541 0.94363 0.67969 0.0
H570 H 0.9473 0.92645 0.58857 0.0
C571 C 0.94807 0.97909 0.68015 0.0
H572 H 0.92527 0.89845 0.64367 0.0
C573 C 0.96012 0.99552 0.64814 0.0
C574 C 0.96031 0.97705 0.61445 0.0
H575 H 0.94942 0.99416 0.70542 0.0
H576 H 0.96996 0.02258 0.64997 0.0
C577 C 0.94768 0.94169 0.61386 0.0
C578 C 0.56667 0.05504 0.18074 0.0
C579 C 0.58003 0.0902 0.18094 0.0
H580 H 0.54384 1.01215 0.14968 0.0
C581 C 0.58068 0.1085 0.14746 0.0
H582 H 0.56496 0.04001 0.20572 0.0
C583 C 0.56807 0.09254 0.11527 0.0
C584 C 0.5546 0.05753 0.11519 0.0
H585 H 0.59136 0.13517 0.14587 0.0
H586 H 0.56886 0.10782 0.09031 0.0
C587 C 0.55432 0.03895 0.14843 0.0
C588 C 0.48768 0.55842 0.26515 0.0
C589 C 0.45369 0.54425 0.25219 0.0
H590 H 0.52151 0.5708 0.31168 0.0
C591 C 0.42644 0.53342 0.27735 0.0
H592 H 0.50891 0.56775 0.24654 0.0
C593 C 0.43279 0.53676 0.31438 0.0
C594 C 0.46728 0.54972 0.32744 0.0
H595 H 0.40017 0.52196 0.26856 0.0
H596 H 0.41078 0.52851 0.33283 0.0
C597 C 0.49452 0.56095 0.30247 0.0
C598 C 0.10114 0.48782 0.77607 0.0
C599 C 0.0738 0.47607 0.75143 0.0
H600 H 0.11563 0.49696 0.83141 0.0
C601 C 0.03933 0.46336 0.76497 0.0
H602 H 0.12785 0.49805 0.7667 0.0
C603 C 0.03186 0.46356 0.80228 0.0
C604 C 0.05884 0.47626 0.82673 0.0
H605 H 0.01803 0.45337 0.74676 0.0
H606 H 1.00444 0.4549 0.81184 0.0
C607 C 0.09394 0.48756 0.81323 0.0
C608 C 0.66729 0.98139 0.9228 0.0
C609 C 0.68448 0.94596 0.93135 0.0
H610 H 0.62095 0.02411 0.93325 0.0
C611 C 0.66701 0.92698 0.95914 0.0
H612 H 0.67933 0.99685 0.90137 0.0
C613 C 0.63315 0.94254 0.97719 0.0
C614 C 0.61579 0.97772 0.96829 0.0
H615 H 0.6796 0.90002 0.96722 0.0
H616 H 0.62047 0.92682 0.99809 0.0
C617 C 0.63355 0.99705 0.94105 0.0
C618 C 0.84758 0.05508 0.42455 0.0
C619 C 0.8298 0.09038 0.43344 0.0
H620 H 0.89436 1.01304 0.4347 0.0
C621 C 0.84651 0.10986 0.46158 0.0
H622 H 0.83609 0.03928 0.40284 0.0
C623 C 0.8803 0.09488 0.47966 0.0
C624 C 0.8983 0.05985 0.47036 0.0
H625 H 0.8334 0.13676 0.46987 0.0
H626 H 0.89245 0.11095 0.50082 0.0
C627 C 0.88124 0.04002 0.44279 0.0
C628 C 0.17342 0.57975 0.05874 0.0
C629 C 0.20154 0.56494 0.0333 0.0
H630 H 0.11357 0.58385 0.07623 0.0
C631 C 0.18936 0.54427 1.00397 0.0
H632 H 0.18172 0.5964 0.0813 0.0
C633 C 0.15025 0.53741 1.00088 0.0
C634 C 0.12252 0.55091 0.02719 0.0
H635 H 0.21029 0.53216 0.98413 0.0
H636 H 0.14202 0.52065 0.97838 0.0
C637 C 0.13435 0.57266 0.05582 0.0
C638 C 0.33953 0.46206 0.55248 0.0
C639 C 0.31356 0.47959 0.52713 0.0
H640 H 0.39841 0.45469 0.57252 0.0
C641 C 0.32778 0.50297 0.50154 0.0
H642 H 0.32908 0.44415 0.57272 0.0
C643 C 0.36728 0.50876 0.50123 0.0
C644 C 0.39327 0.49169 0.52687 0.0
H645 H 0.30835 0.51666 0.48165 0.0
H646 H 0.37734 0.52701 0.4811 0.0
C647 C 0.37905 0.46827 0.55253 0.0
C648 C 0.9544 0.69271 0.97062 0.0
C649 C 0.94415 0.69321 0.93341 0.0
H650 H 0.97342 0.66057 0.01711 0.0
C651 C 0.94649 0.65917 0.91496 0.0
H652 H 0.95411 0.71793 0.98607 0.0
C653 C 0.95864 0.62623 0.93279 0.0
C654 C 0.96825 0.62586 0.96996 0.0
H655 H 0.93825 0.65762 0.88671 0.0
H656 H 0.95994 0.60083 0.91742 0.0
C657 C 0.96584 0.65961 0.98862 0.0
C658 C 0.4979 0.76723 0.07336 0.0
C659 C 0.47217 0.75386 0.04796 0.0
H660 H 0.52238 0.814 0.0952 0.0
C661 C 0.45382 0.77804 0.02248 0.0
H662 H 0.51306 0.74914 0.09297 0.0
C663 C 0.45976 0.81503 0.02335 0.0
C664 C 0.48385 0.82878 0.04995 0.0
H665 H 0.43366 0.76874 1.00271 0.0
H666 H 0.445 0.83295 1.00337 0.0
C667 C 0.50354 0.80434 0.07446 0.0
C668 C 0.01133 0.26752 0.53575 0.0
C669 C 0.0452 0.28012 0.55052 0.0
H670 H 0.97789 0.22179 0.52867 0.0
C671 C 0.06901 0.25714 0.57357 0.0
H672 H 0.99239 0.28479 0.51806 0.0
C673 C 0.06062 0.22144 0.57984 0.0
C674 C 0.02818 0.20802 0.56328 0.0
H675 H 0.09466 0.26654 0.58623 0.0
H676 H 0.08029 0.20387 0.59664 0.0
C677 C 1.00289 0.23165 0.54206 0.0
C678 C 0.55873 0.34266 0.47289 0.0
C679 C 0.57087 0.34165 0.43614 0.0
H680 H 0.53857 0.37559 0.51918 0.0
C681 C 0.57085 0.37543 0.41819 0.0
H682 H 0.55733 0.31759 0.48783 0.0
C683 C 0.55913 0.40872 0.43614 0.0
C684 C 0.54761 0.40961 0.47289 0.0
H685 H 0.58061 0.37645 0.39031 0.0
H686 H 0.55966 0.43395 0.42121 0.0
C687 C 0.54765 0.37608 0.49103 0.0
loop_
_geom_bond_atom_site_label_1
_geom_bond_atom_site_label_2
_geom_bond_distance
_geom_bond_site_symmetry_2
_ccdc_geom_bond_type
C0 C1 1.386 . S
C0 C2 1.397 . S
C0 H24 0.931 . S
C1 C0 1.386 . S
C1 C5 1.397 . S
C2 C0 1.397 . S
C2 C3 1.384 . S
C2 H25 0.930 . S
C3 C2 1.384 . S
C3 C4 1.377 . S
C3 C6 1.481 . S
C4 C3 1.377 . S
C4 C5 1.389 . S
C4 H26 0.929 . S
C5 C1 1.397 . S
C5 C4 1.389 . S
C5 H27 0.931 . S
C6 C3 1.481 . S
C6 C7 1.387 . S
C6 C11 1.390 . S
C7 C6 1.387 . S
C7 C8 1.401 . S
C7 H28 0.930 . S
C8 C7 1.401 . S
C8 C9 1.376 . S
C8 C17 1.511 . S
C9 C8 1.376 . S
C9 C10 1.392 . S
C9 H30 0.931 . S
C10 C9 1.392 . S
C10 C11 1.361 . S
C10 C12 1.500 . S
C11 C6 1.390 . S
C11 C10 1.361 . S
C11 H29 0.931 . S
C12 C10 1.500 . S
C12 C13 1.371 . S
C12 C14 1.365 . S
C13 C12 1.371 . S
C13 C23 1.386 . S
C13 H31 0.931 . S
C14 C12 1.365 . S
C14 C15 1.409 . S
C14 H32 0.929 . S
C15 C14 1.409 . S
C15 C16 1.380 . S
C15 H33 0.930 . S
C16 C15 1.380 . S
C16 C23 1.357 . S
C17 C8 1.511 . S
C17 C18 1.341 . S
C17 C19 1.371 . S
C18 C17 1.341 . S
C18 C22 1.394 . S
C18 H34 0.930 . S
C19 C17 1.371 . S
C19 C20 1.392 . S
C19 H35 0.931 . S
C20 C19 1.392 . S
C20 C21 1.331 . S
C20 H38 0.932 . S
C21 C20 1.331 . S
C21 C22 1.336 . S
C22 C18 1.394 . S
C22 C21 1.336 . S
C22 H37 0.929 . S
C23 C13 1.386 . S
C23 C16 1.357 . S
C23 H36 0.928 . S
H24 C0 0.931 . S
H25 C2 0.930 . S
H26 C4 0.929 . S
H27 C5 0.931 . S
H28 C7 0.930 . S
H29 C11 0.931 . S
H30 C9 0.931 . S
H31 C13 0.931 . S
H32 C14 0.929 . S
H33 C15 0.930 . S
H34 C18 0.930 . S
H35 C19 0.931 . S
H36 C23 0.928 . S
H37 C22 0.929 . S
H38 C20 0.932 . S
C39 C40 1.386 . S
C39 C41 1.397 . S
C39 H63 0.931 . S
C40 C39 1.386 . S
C40 C44 1.397 . S
C41 C39 1.397 . S
C41 C42 1.384 . S
C41 H64 0.930 . S
C42 C41 1.384 . S
C42 C43 1.377 . S
C42 C45 1.481 . S
C43 C42 1.377 . S
C43 C44 1.389 . S
C43 H65 0.929 . S
C44 C40 1.397 . S
C44 C43 1.389 . S
C44 H66 0.931 . S
C45 C42 1.481 . S
C45 C46 1.387 . S
C45 C50 1.390 . S
C46 C45 1.387 . S
C46 C47 1.401 . S
C46 H67 0.930 . S
C47 C46 1.401 . S
C47 C48 1.376 . S
C47 C56 1.511 . S
C48 C47 1.376 . S
C48 C49 1.392 . S
C48 H69 0.931 . S
C49 C48 1.392 . S
C49 C50 1.361 . S
C49 C51 1.500 . S
C50 C45 1.390 . S
C50 C49 1.361 . S
C50 H68 0.931 . S
C51 C49 1.500 . S
C51 C52 1.371 . S
C51 C53 1.365 . S
C52 C51 1.371 . S
C52 C62 1.386 . S
C52 H70 0.931 . S
C53 C51 1.365 . S
C53 C54 1.409 . S
C53 H71 0.929 . S
C54 C53 1.409 . S
C54 C55 1.380 . S
C54 H72 0.930 . S
C55 C54 1.380 . S
C55 C62 1.357 . S
C56 C47 1.511 . S
C56 C57 1.341 . S
C56 C58 1.371 . S
C57 C56 1.341 . S
C57 C61 1.394 . S
C57 H73 0.930 . S
C58 C56 1.371 . S
C58 C59 1.392 . S
C58 H74 0.931 . S
C59 C58 1.392 . S
C59 C60 1.331 . S
C59 H77 0.932 . S
C60 C59 1.331 . S
C60 C61 1.336 . S
C61 C57 1.394 . S
C61 C60 1.336 . S
C61 H76 0.929 . S
C62 C52 1.386 . S
C62 C55 1.357 . S
C62 H75 0.928 . S
H63 C39 0.931 . S
H64 C41 0.930 . S
H65 C43 0.929 . S
H66 C44 0.931 . S
H67 C46 0.930 . S
H68 C50 0.931 . S
H69 C48 0.931 . S
H70 C52 0.931 . S
H71 C53 0.929 . S
H72 C54 0.930 . S
H73 C57 0.930 . S
H74 C58 0.931 . S
H75 C62 0.928 . S
H76 C61 0.929 . S
H77 C59 0.932 . S
C78 C79 1.386 . S
C78 C80 1.397 . S
C78 H102 0.931 . S
C79 C78 1.386 . S
C79 C83 1.397 . S
C80 C78 1.397 . S
C80 C81 1.384 . S
C80 H103 0.930 . S
C81 C80 1.384 . S
C81 C82 1.377 . S
C81 C84 1.481 . S
C82 C81 1.377 . S
C82 C83 1.389 . S
C82 H104 0.929 . S
C83 C79 1.397 . S
C83 C82 1.389 . S
C83 H105 0.931 . S
C84 C81 1.481 . S
C84 C85 1.387 . S
C84 C89 1.390 . S
C85 C84 1.387 . S
C85 C86 1.401 . S
C85 H106 0.930 . S
C86 C85 1.401 . S
C86 C87 1.376 . S
C86 C95 1.511 . S
C87 C86 1.376 . S
C87 C88 1.392 . S
C87 H108 0.931 . S
C88 C87 1.392 . S
C88 C89 1.361 . S
C88 C90 1.500 . S
C89 C84 1.390 . S
C89 C88 1.361 . S
C89 H107 0.931 . S
C90 C88 1.500 . S
C90 C91 1.371 . S
C90 C92 1.365 . S
C91 C90 1.371 . S
C91 C101 1.386 . S
C91 H109 0.931 . S
C92 C90 1.365 . S
C92 C93 1.409 . S
C92 H110 0.929 . S
C93 C92 1.409 . S
C93 C94 1.380 . S
C93 H111 0.930 . S
C94 C93 1.380 . S
C94 C101 1.357 . S
C95 C86 1.511 . S
C95 C96 1.341 . S
C95 C97 1.371 . S
C96 C95 1.341 . S
C96 C100 1.394 . S
C96 H112 0.930 . S
C97 C95 1.371 . S
C97 C98 1.392 . S
C97 H113 0.931 . S
C98 C97 1.392 . S
C98 C99 1.331 . S
C98 H116 0.932 . S
C99 C98 1.331 . S
C99 C100 1.336 . S
C100 C96 1.394 . S
C100 C99 1.336 . S
C100 H115 0.929 . S
C101 C91 1.386 . S
C101 C94 1.357 . S
C101 H114 0.928 . S
H102 C78 0.931 . S
H103 C80 0.930 . S
H104 C82 0.929 . S
H105 C83 0.931 . S
H106 C85 0.930 . S
H107 C89 0.931 . S
H108 C87 0.931 . S
H109 C91 0.931 . S
H110 C92 0.929 . S
H111 C93 0.930 . S
H112 C96 0.930 . S
H113 C97 0.931 . S
H114 C101 0.928 . S
H115 C100 0.929 . S
H116 C98 0.932 . S
C117 C118 1.386 . S
C117 C119 1.397 . S
C117 H141 0.931 . S
C118 C117 1.386 . S
C118 C122 1.397 . S
C119 C117 1.397 . S
C119 C120 1.384 . S
C119 H142 0.930 . S
C120 C119 1.384 . S
C120 C121 1.377 . S
C120 C123 1.481 . S
C121 C120 1.377 . S
C121 C122 1.389 . S
C121 H143 0.929 . S
C122 C118 1.397 . S
C122 C121 1.389 . S
C122 H144 0.931 . S
C123 C120 1.481 . S
C123 C124 1.387 . S
C123 C128 1.390 . S
C124 C123 1.387 . S
C124 C125 1.401 . S
C124 H145 0.930 . S
C125 C124 1.401 . S
C125 C126 1.376 . S
C125 C134 1.511 . S
C126 C125 1.376 . S
C126 C127 1.392 . S
C126 H147 0.931 . S
C127 C126 1.392 . S
C127 C128 1.361 . S
C127 C129 1.500 . S
C128 C123 1.390 . S
C128 C127 1.361 . S
C128 H146 0.931 . S
C129 C127 1.500 . S
C129 C130 1.371 . S
C129 C131 1.365 . S
C130 C129 1.371 . S
C130 C140 1.386 . S
C130 H148 0.931 . S
C131 C129 1.365 . S
C131 C132 1.409 . S
C131 H149 0.929 . S
C132 C131 1.409 . S
C132 C133 1.380 . S
C132 H150 0.930 . S
C133 C132 1.380 . S
C133 C140 1.357 . S
C134 C125 1.511 . S
C134 C135 1.341 . S
C134 C136 1.371 . S
C135 C134 1.341 . S
C135 C139 1.394 . S
C135 H151 0.930 . S
C136 C134 1.371 . S
C136 C137 1.392 . S
C136 H152 0.931 . S
C137 C136 1.392 . S
C137 C138 1.331 . S
C137 H155 0.932 . S
C138 C137 1.331 . S
C138 C139 1.336 . S
C139 C135 1.394 . S
C139 C138 1.336 . S
C139 H154 0.929 . S
C140 C130 1.386 . S
C140 C133 1.357 . S
C140 H153 0.928 . S
H141 C117 0.931 . S
H142 C119 0.930 . S
H143 C121 0.929 . S
H144 C122 0.931 . S
H145 C124 0.930 . S
H146 C128 0.931 . S
H147 C126 0.931 . S
H148 C130 0.931 . S
H149 C131 0.929 . S
H150 C132 0.930 . S
H151 C135 0.930 . S
H152 C136 0.931 . S
H153 C140 0.928 . S
H154 C139 0.929 . S
H155 C137 0.932 . S
C156 C157 1.386 . S
C156 C158 1.397 . S
C156 H180 0.931 . S
C157 C156 1.386 . S
C157 C161 1.397 . S
C158 C156 1.397 . S
C158 C159 1.384 . S
C158 H181 0.930 . S
C159 C158 1.384 . S
C159 C160 1.377 . S
C159 C162 1.481 . S
C160 C159 1.377 . S
C160 C161 1.389 . S
C160 H182 0.929 . S
C161 C157 1.397 . S
C161 C160 1.389 . S
C161 H183 0.931 . S
C162 C159 1.481 . S
C162 C163 1.387 . S
C162 C167 1.390 . S
C163 C162 1.387 . S
C163 C164 1.401 . S
C163 H184 0.930 . S
C164 C163 1.401 . S
C164 C165 1.376 . S
C164 C173 1.511 . S
C165 C164 1.376 . S
C165 C166 1.392 . S
C165 H186 0.931 . S
C166 C165 1.392 . S
C166 C167 1.361 . S
C166 C168 1.500 . S
C167 C162 1.390 . S
C167 C166 1.361 . S
C167 H185 0.931 . S
C168 C166 1.500 . S
C168 C169 1.371 . S
C168 C170 1.365 . S
C169 C168 1.371 . S
C169 C179 1.386 . S
C169 H187 0.931 . S
C170 C168 1.365 . S
C170 C171 1.409 . S
C170 H188 0.929 . S
C171 C170 1.409 . S
C171 C172 1.380 . S
C171 H189 0.930 . S
C172 C171 1.380 . S
C172 C179 1.357 . S
C173 C164 1.511 . S
C173 C174 1.341 . S
C173 C175 1.371 . S
C174 C173 1.341 . S
C174 C178 1.394 . S
C174 H190 0.930 . S
C175 C173 1.371 . S
C175 C176 1.392 . S
C175 H191 0.931 . S
C176 C175 1.392 . S
C176 C177 1.331 . S
C176 H194 0.932 . S
C177 C176 1.331 . S
C177 C178 1.336 . S
C178 C174 1.394 . S
C178 C177 1.336 . S
C178 H193 0.929 . S
C179 C169 1.386 . S
C179 C172 1.357 . S
C179 H192 0.928 . S
H180 C156 0.931 . S
H181 C158 0.930 . S
H182 C160 0.929 . S
H183 C161 0.931 . S
H184 C163 0.930 . S
H185 C167 0.931 . S
H186 C165 0.931 . S
H187 C169 0.931 . S
H188 C170 0.929 . S
H189 C171 0.930 . S
H190 C174 0.930 . S
H191 C175 0.931 . S
H192 C179 0.928 . S
H193 C178 0.929 . S
H194 C176 0.932 . S
C195 C196 1.386 . S
C195 C197 1.397 . S
C195 H219 0.931 . S
C196 C195 1.386 . S
C196 C200 1.397 . S
C197 C195 1.397 . S
C197 C198 1.384 . S
C197 H220 0.930 . S
C198 C197 1.384 . S
C198 C199 1.377 . S
C198 C201 1.481 . S
C199 C198 1.377 . S
C199 C200 1.389 . S
C199 H221 0.929 . S
C200 C196 1.397 . S
C200 C199 1.389 . S
C200 H222 0.931 . S
C201 C198 1.481 . S
C201 C202 1.387 . S
C201 C206 1.390 . S
C202 C201 1.387 . S
C202 C203 1.401 . S
C202 H223 0.930 . S
C203 C202 1.401 . S
C203 C204 1.376 . S
C203 C212 1.511 . S
C204 C203 1.376 . S
C204 C205 1.392 . S
C204 H225 0.931 . S
C205 C204 1.392 . S
C205 C206 1.361 . S
C205 C207 1.500 . S
C206 C201 1.390 . S
C206 C205 1.361 . S
C206 H224 0.931 . S
C207 C205 1.500 . S
C207 C208 1.371 . S
C207 C209 1.365 . S
C208 C207 1.371 . S
C208 C218 1.386 . S
C208 H226 0.931 . S
C209 C207 1.365 . S
C209 C210 1.409 . S
C209 H227 0.929 . S
C210 C209 1.409 . S
C210 C211 1.380 . S
C210 H228 0.930 . S
C211 C210 1.380 . S
C211 C218 1.357 . S
C212 C203 1.511 . S
C212 C213 1.341 . S
C212 C214 1.371 . S
C213 C212 1.341 . S
C213 C217 1.394 . S
C213 H229 0.930 . S
C214 C212 1.371 . S
C214 C215 1.392 . S
C214 H230 0.931 . S
C215 C214 1.392 . S
C215 C216 1.331 . S
C215 H233 0.932 . S
C216 C215 1.331 . S
C216 C217 1.336 . S
C217 C213 1.394 . S
C217 C216 1.336 . S
C217 H232 0.929 . S
C218 C208 1.386 . S
C218 C211 1.357 . S
C218 H231 0.928 . S
H219 C195 0.931 . S
H220 C197 0.930 . S
H221 C199 0.929 . S
H222 C200 0.931 . S
H223 C202 0.930 . S
H224 C206 0.931 . S
H225 C204 0.931 . S
H226 C208 0.931 . S
H227 C209 0.929 . S
H228 C210 0.930 . S
H229 C213 0.930 . S
H230 C214 0.931 . S
H231 C218 0.928 . S
H232 C217 0.929 . S
H233 C215 0.932 . S
C234 C235 1.386 . S
C234 C236 1.397 . S
C234 H258 0.931 . S
C235 C234 1.386 . S
C235 C239 1.397 . S
C236 C234 1.397 . S
C236 C237 1.384 . S
C236 H259 0.930 . S
C237 C236 1.384 . S
C237 C238 1.377 . S
C237 C240 1.481 . S
C238 C237 1.377 . S
C238 C239 1.389 . S
C238 H260 0.929 . S
C239 C235 1.397 . S
C239 C238 1.389 . S
C239 H261 0.931 1_554 S
C240 C237 1.481 . S
C240 C241 1.387 . S
C240 C245 1.390 . S
C241 C240 1.387 . S
C241 C242 1.401 . S
C241 H262 0.930 . S
C242 C241 1.401 . S
C242 C243 1.376 . S
C242 C251 1.511 . S
C243 C242 1.376 . S
C243 C244 1.392 . S
C243 H264 0.931 . S
C244 C243 1.392 . S
C244 C245 1.361 . S
C244 C246 1.500 . S
C245 C240 1.390 . S
C245 C244 1.361 . S
C245 H263 0.931 . S
C246 C244 1.500 . S
C246 C247 1.371 . S
C246 C248 1.365 . S
C247 C246 1.371 . S
C247 C257 1.386 . S
C247 H265 0.931 . S
C248 C246 1.365 . S
C248 C249 1.409 . S
C248 H266 0.929 . S
C249 C248 1.409 . S
C249 C250 1.380 . S
C249 H267 0.930 1_554 S
C250 C249 1.380 . S
C250 C257 1.357 . S
C251 C242 1.511 . S
C251 C252 1.341 . S
C251 C253 1.371 . S
C252 C251 1.341 . S
C252 C256 1.394 . S
C252 H268 0.930 . S
C253 C251 1.371 . S
C253 C254 1.392 . S
C253 H269 0.931 . S
C254 C253 1.392 . S
C254 C255 1.331 . S
C254 H272 0.932 . S
C255 C254 1.331 . S
C255 C256 1.336 . S
C256 C252 1.394 . S
C256 C255 1.336 . S
C256 H271 0.929 . S
C257 C247 1.386 . S
C257 C250 1.357 . S
C257 H270 0.928 . S
H258 C234 0.931 . S
H259 C236 0.930 . S
H260 C238 0.929 . S
H261 C239 0.931 1_556 S
H262 C241 0.930 . S
H263 C245 0.931 . S
H264 C243 0.931 . S
H265 C247 0.931 . S
H266 C248 0.929 . S
H267 C249 0.930 1_556 S
H268 C252 0.930 . S
H269 C253 0.931 . S
H270 C257 0.928 . S
H271 C256 0.929 . S
H272 C254 0.932 . S
C273 C274 1.386 . S
C273 C275 1.397 . S
C273 H297 0.931 . S
C274 C273 1.386 . S
C274 C278 1.397 . S
C275 C273 1.397 . S
C275 C276 1.384 . S
C275 H298 0.930 . S
C276 C275 1.384 . S
C276 C277 1.377 . S
C276 C279 1.481 . S
C277 C276 1.377 . S
C277 C278 1.389 . S
C277 H299 0.929 . S
C278 C274 1.397 . S
C278 C277 1.389 . S
C278 H300 0.931 . S
C279 C276 1.481 . S
C279 C280 1.387 . S
C279 C284 1.390 . S
C280 C279 1.387 . S
C280 C281 1.401 . S
C280 H301 0.930 . S
C281 C280 1.401 . S
C281 C282 1.376 . S
C281 C290 1.511 . S
C282 C281 1.376 . S
C282 C283 1.392 . S
C282 H303 0.931 . S
C283 C282 1.392 . S
C283 C284 1.361 . S
C283 C285 1.500 . S
C284 C279 1.390 . S
C284 C283 1.361 . S
C284 H302 0.931 . S
C285 C283 1.500 . S
C285 C286 1.371 . S
C285 C287 1.365 . S
C286 C285 1.371 . S
C286 C296 1.386 . S
C286 H304 0.931 . S
C287 C285 1.365 . S
C287 C288 1.409 . S
C287 H305 0.929 . S
C288 C287 1.409 . S
C288 C289 1.380 . S
C288 H306 0.930 . S
C289 C288 1.380 . S
C289 C296 1.357 . S
C290 C281 1.511 . S
C290 C291 1.341 . S
C290 C292 1.371 . S
C291 C290 1.341 . S
C291 C295 1.394 . S
C291 H307 0.930 . S
C292 C290 1.371 . S
C292 C293 1.392 . S
C292 H308 0.931 . S
C293 C292 1.392 . S
C293 C294 1.331 . S
C293 H311 0.932 . S
C294 C293 1.331 . S
C294 C295 1.336 . S
C295 C291 1.394 . S
C295 C294 1.336 . S
C295 H310 0.929 . S
C296 C286 1.386 . S
C296 C289 1.357 . S
C296 H309 0.928 . S
H297 C273 0.931 . S
H298 C275 0.930 . S
H299 C277 0.929 . S
H300 C278 0.931 . S
H301 C280 0.930 . S
H302 C284 0.931 . S
H303 C282 0.931 . S
H304 C286 0.931 . S
H305 C287 0.929 . S
H306 C288 0.930 . S
H307 C291 0.930 . S
H308 C292 0.931 . S
H309 C296 0.928 . S
H310 C295 0.929 . S
H311 C293 0.932 . S
C312 O328 1.251 . S
C312 O330 1.254 1_545 S
N313 C314 1.333 . S
N313 C318 1.307 . S
N313 Zn319 2.020 . S
C314 N313 1.333 . S
C314 C315 1.379 . S
C314 H332 0.952 . S
C315 C314 1.379 . S
C315 C316 1.390 . S
C315 H342 0.949 . S
C316 C315 1.390 . S
C316 C317 1.357 . S
C317 C316 1.357 . S
C317 C318 1.370 . S
C317 H343 0.950 . S
C318 N313 1.307 . S
C318 C317 1.370 . S
C318 H336 0.948 1_455 S
Zn319 N313 2.020 . S
Zn319 O328 2.039 . S
Zn319 O334 2.034 . S
Zn319 O338 2.025 1_455 S
Zn319 O340 2.024 1_455 S
C320 O339 1.246 1_545 S
C320 O340 1.249 . S
N321 C322 1.307 . S
N321 C323 1.333 . S
N321 Zn327 2.020 . S
C322 N321 1.307 . S
C322 C326 1.370 . S
C322 H333 0.948 1_655 S
C323 N321 1.333 . S
C323 C324 1.379 . S
C323 H331 0.952 . S
C324 C323 1.379 . S
C324 C325 1.390 . S
C324 H344 0.949 . S
C325 C324 1.390 . S
C325 C326 1.357 . S
C326 C322 1.370 . S
C326 C325 1.357 . S
C326 H345 0.949 1_655 S
Zn327 N321 2.020 . S
Zn327 O330 2.025 1_655 S
Zn327 O335 2.024 1_655 S
Zn327 O337 2.039 . S
Zn327 O339 2.034 . S
O328 C312 1.251 . S
O328 Zn319 2.039 . S
C329 O334 1.246 1_565 S
C329 O335 1.249 . S
O330 C312 1.254 1_565 S
O330 Zn327 2.025 1_455 S
H331 C323 0.952 . S
H332 C314 0.952 . S
H333 C322 0.948 1_455 S
O334 Zn319 2.034 . S
O334 C329 1.246 1_545 S
O335 Zn327 2.024 1_455 S
O335 C329 1.249 . S
H336 C318 0.948 1_655 S
O337 Zn327 2.039 . S
O337 C341 1.251 . S
O338 Zn319 2.025 1_655 S
O338 C341 1.254 1_545 S
O339 C320 1.246 1_565 S
O339 Zn327 2.034 . S
O340 Zn319 2.024 1_655 S
O340 C320 1.249 . S
C341 O337 1.251 . S
C341 O338 1.254 1_565 S
H342 C315 0.949 . S
H343 C317 0.950 . S
H344 C324 0.949 . S
H345 C326 0.949 1_455 S
C346 O362 1.251 1_565 S
C346 O364 1.254 . S
N347 C348 1.333 . S
N347 C352 1.307 . S
N347 Zn353 2.020 . S
C348 N347 1.333 . S
C348 C349 1.379 . S
C348 H366 0.952 . S
C349 C348 1.379 . S
C349 C350 1.390 . S
C349 H376 0.949 . S
C350 C349 1.390 . S
C350 C351 1.357 . S
C351 C350 1.357 . S
C351 C352 1.370 . S
C351 H377 0.950 . S
C352 N347 1.307 . S
C352 C351 1.370 . S
C352 H370 0.948 . S
Zn353 N347 2.020 . S
Zn353 O362 2.039 . S
Zn353 O368 2.034 1_556 S
Zn353 O372 2.025 1_556 S
Zn353 O374 2.024 . S
C354 O373 1.246 . S
C354 O374 1.249 1_565 S
N355 C356 1.307 . S
N355 C357 1.333 . S
N355 Zn361 2.020 . S
C356 N355 1.307 . S
C356 C360 1.370 . S
C356 H367 0.948 . S
C357 N355 1.333 . S
C357 C358 1.379 . S
C357 H365 0.952 . S
C358 C357 1.379 . S
C358 C359 1.390 . S
C358 H378 0.949 . S
C359 C358 1.390 . S
C359 C360 1.357 . S
C360 C356 1.370 . S
C360 C359 1.357 . S
C360 H379 0.950 . S
Zn361 N355 2.020 . S
Zn361 O364 2.025 1_554 S
Zn361 O369 2.024 . S
Zn361 O371 2.039 . S
Zn361 O373 2.034 1_554 S
O362 C346 1.251 1_545 S
O362 Zn353 2.039 . S
C363 O368 1.246 . S
C363 O369 1.249 1_545 S
O364 C346 1.254 . S
O364 Zn361 2.025 1_556 S
H365 C357 0.952 . S
H366 C348 0.952 . S
H367 C356 0.948 . S
O368 Zn353 2.034 1_554 S
O368 C363 1.246 . S
O369 Zn361 2.024 . S
O369 C363 1.249 1_565 S
H370 C352 0.948 . S
O371 Zn361 2.039 . S
O371 C375 1.251 1_565 S
O372 Zn353 2.025 1_554 S
O372 C375 1.254 . S
O373 C354 1.246 . S
O373 Zn361 2.034 1_556 S
O374 Zn353 2.024 . S
O374 C354 1.249 1_545 S
C375 O371 1.251 1_545 S
C375 O372 1.254 . S
H376 C349 0.949 . S
H377 C351 0.950 . S
H378 C358 0.949 . S
H379 C360 0.950 . S
C380 O396 1.251 . S
C380 O398 1.254 . S
N381 C382 1.333 . S
N381 C386 1.307 . S
N381 Zn387 2.020 . S
C382 N381 1.333 . S
C382 C383 1.379 . S
C382 H400 0.952 . S
C383 C382 1.379 . S
C383 C384 1.390 . S
C383 H410 0.949 . S
C384 C383 1.390 . S
C384 C385 1.357 . S
C385 C384 1.357 . S
C385 C386 1.370 . S
C385 H411 0.950 . S
C386 N381 1.307 . S
C386 C385 1.370 . S
C386 H404 0.948 . S
Zn387 N381 2.020 . S
Zn387 O396 2.039 . S
Zn387 O402 2.034 . S
Zn387 O406 2.025 . S
Zn387 O408 2.024 . S
C388 O407 1.246 . S
C388 O408 1.249 . S
N389 C390 1.307 . S
N389 C391 1.333 . S
N389 Zn395 2.020 . S
C390 N389 1.307 . S
C390 C394 1.370 . S
C390 H401 0.948 . S
C391 N389 1.333 . S
C391 C392 1.379 . S
C391 H399 0.952 . S
C392 C391 1.379 . S
C392 C393 1.390 . S
C392 H412 0.949 . S
C393 C392 1.390 . S
C393 C394 1.357 . S
C394 C390 1.370 . S
C394 C393 1.357 . S
C394 H413 0.950 . S
Zn395 N389 2.020 . S
Zn395 O398 2.025 . S
Zn395 O403 2.024 . S
Zn395 O405 2.039 . S
Zn395 O407 2.034 . S
O396 C380 1.251 . S
O396 Zn387 2.039 . S
C397 O402 1.246 . S
C397 O403 1.249 . S
O398 C380 1.254 . S
O398 Zn395 2.025 . S
H399 C391 0.952 . S
H400 C382 0.952 . S
H401 C390 0.948 . S
O402 Zn387 2.034 . S
O402 C397 1.246 . S
O403 Zn395 2.024 . S
O403 C397 1.249 . S
H404 C386 0.948 . S
O405 Zn395 2.039 . S
O405 C409 1.251 . S
O406 Zn387 2.025 . S
O406 C409 1.254 . S
O407 C388 1.246 . S
O407 Zn395 2.034 . S
O408 Zn387 2.024 . S
O408 C388 1.249 . S
C409 O405 1.251 . S
C409 O406 1.254 . S
H410 C383 0.949 . S
H411 C385 0.950 . S
H412 C392 0.949 . S
H413 C394 0.950 . S
C414 O430 1.251 1_556 S
C414 O432 1.254 . S
N415 C416 1.333 . S
N415 C420 1.307 . S
N415 Zn421 2.020 . S
C416 N415 1.333 . S
C416 C417 1.379 . S
C416 H434 0.952 . S
C417 C416 1.379 . S
C417 C418 1.390 . S
C417 H444 0.949 . S
C418 C417 1.390 . S
C418 C419 1.357 . S
C419 C418 1.357 . S
C419 C420 1.370 . S
C419 H445 0.950 . S
C420 N415 1.307 . S
C420 C419 1.370 . S
C420 H438 0.948 . S
Zn421 N415 2.020 . S
Zn421 O430 2.039 . S
Zn421 O436 2.034 1_655 S
Zn421 O440 2.025 1_655 S
Zn421 O442 2.024 . S
C422 O441 1.246 . S
C422 O442 1.249 1_556 S
N423 C424 1.307 . S
N423 C425 1.333 . S
N423 Zn429 2.020 . S
C424 N423 1.307 . S
C424 C428 1.370 . S
C424 H435 0.948 . S
C425 N423 1.333 . S
C425 C426 1.379 . S
C425 H433 0.952 . S
C426 C425 1.379 . S
C426 C427 1.390 . S
C426 H446 0.949 . S
C427 C426 1.390 . S
C427 C428 1.357 . S
C428 C424 1.370 . S
C428 C427 1.357 . S
C428 H447 0.950 . S
Zn429 N423 2.020 . S
Zn429 O432 2.025 1_455 S
Zn429 O437 2.024 . S
Zn429 O439 2.039 . S
Zn429 O441 2.034 1_455 S
O430 C414 1.251 1_554 S
O430 Zn421 2.039 . S
C431 O436 1.246 . S
C431 O437 1.249 1_554 S
O432 C414 1.254 . S
O432 Zn429 2.025 1_655 S
H433 C425 0.952 . S
H434 C416 0.952 . S
H435 C424 0.948 . S
O436 Zn421 2.034 1_455 S
O436 C431 1.246 . S
O437 Zn429 2.024 . S
O437 C431 1.249 1_556 S
H438 C420 0.948 . S
O439 Zn429 2.039 . S
O439 C443 1.251 1_556 S
O440 Zn421 2.025 1_455 S
O440 C443 1.254 . S
O441 C422 1.246 . S
O441 Zn429 2.034 1_655 S
O442 Zn421 2.024 . S
O442 C422 1.249 1_554 S
C443 O439 1.251 1_554 S
C443 O440 1.254 . S
H444 C417 0.949 . S
H445 C419 0.950 . S
H446 C426 0.949 . S
H447 C428 0.950 . S
C448 C449 1.387 . S
C448 H452 0.950 . S
C448 C457 1.390 . S
C449 C448 1.387 . S
C449 C451 1.387 . S
H450 C457 0.950 1_565 S
C451 C449 1.387 . S
C451 C453 1.390 . S
C451 H455 0.950 . S
H452 C448 0.950 . S
C453 C451 1.390 . S
C453 C454 1.387 . S
C453 H456 0.950 1_455 S
C454 C453 1.387 . S
C454 C457 1.387 . S
H455 C451 0.950 . S
H456 C453 0.950 1_655 S
C457 C448 1.390 . S
C457 H450 0.950 1_545 S
C457 C454 1.387 . S
C458 C459 1.387 . S
C458 H462 0.950 . S
C458 C467 1.390 . S
C459 C458 1.387 . S
C459 C461 1.387 . S
H460 C467 0.950 1_545 S
C461 C459 1.387 . S
C461 C463 1.390 . S
C461 H465 0.950 . S
H462 C458 0.950 . S
C463 C461 1.390 . S
C463 C464 1.387 . S
C463 H466 0.950 . S
C464 C463 1.387 . S
C464 C467 1.387 . S
H465 C461 0.950 . S
H466 C463 0.950 . S
C467 C458 1.390 . S
C467 H460 0.950 1_565 S
C467 C464 1.387 . S
C468 C469 1.387 . S
C468 H472 0.950 . S
C468 C477 1.390 . S
C469 C468 1.387 . S
C469 C471 1.387 . S
H470 C477 0.950 . S
C471 C469 1.387 . S
C471 C473 1.390 . S
C471 H475 0.950 . S
H472 C468 0.950 . S
C473 C471 1.390 . S
C473 C474 1.387 . S
C473 H476 0.950 . S
C474 C473 1.387 . S
C474 C477 1.387 . S
H475 C471 0.950 . S
H476 C473 0.950 . S
C477 C468 1.390 . S
C477 H470 0.950 . S
C477 C474 1.387 . S
C478 C479 1.387 . S
C478 H482 0.950 . S
C478 C487 1.390 . S
C479 C478 1.387 . S
C479 C481 1.387 . S
H480 C487 0.950 . S
C481 C479 1.387 . S
C481 C483 1.390 . S
C481 H485 0.950 . S
H482 C478 0.950 . S
C483 C481 1.390 . S
C483 C484 1.387 . S
C483 H486 0.950 . S
C484 C483 1.387 . S
C484 C487 1.387 . S
H485 C481 0.950 . S
H486 C483 0.950 . S
C487 C478 1.390 . S
C487 H480 0.950 . S
C487 C484 1.387 . S
C488 C489 1.387 . S
C488 H492 0.950 . S
C488 C497 1.390 . S
C489 C488 1.387 . S
C489 C491 1.387 . S
H490 C497 0.950 . S
C491 C489 1.387 . S
C491 C493 1.390 . S
C491 H495 0.950 1_545 S
H492 C488 0.950 . S
C493 C491 1.390 . S
C493 C494 1.387 . S
C493 H496 0.950 1_545 S
C494 C493 1.387 . S
C494 C497 1.387 . S
H495 C491 0.950 1_565 S
H496 C493 0.950 1_565 S
C497 C488 1.390 . S
C497 H490 0.950 . S
C497 C494 1.387 . S
C498 C499 1.387 . S
C498 H502 0.950 . S
C498 C507 1.390 . S
C499 C498 1.387 . S
C499 C501 1.387 . S
H500 C507 0.950 1_545 S
C501 C499 1.387 . S
C501 C503 1.390 . S
C501 H505 0.950 . S
H502 C498 0.950 . S
C503 C501 1.390 . S
C503 C504 1.387 . S
C503 H506 0.950 . S
C504 C503 1.387 . S
C504 C507 1.387 . S
H505 C501 0.950 . S
H506 C503 0.950 . S
C507 C498 1.390 . S
C507 H500 0.950 1_565 S
C507 C504 1.387 . S
C508 C509 1.387 1_554 S
C508 H512 0.950 . S
C508 C517 1.390 . S
C509 C508 1.387 1_556 S
C509 C511 1.387 . S
H510 C517 0.950 . S
C511 C509 1.387 . S
C511 C513 1.390 . S
C511 H515 0.950 . S
H512 C508 0.950 . S
C513 C511 1.390 . S
C513 C514 1.387 . S
C513 H516 0.950 . S
C514 C513 1.387 . S
C514 C517 1.387 1_556 S
H515 C511 0.950 . S
H516 C513 0.950 . S
C517 C508 1.390 . S
C517 H510 0.950 . S
C517 C514 1.387 1_554 S
C518 C519 1.387 . S
C518 H522 0.950 . S
C518 C527 1.390 . S
C519 C518 1.387 . S
C519 C521 1.387 . S
H520 C527 0.950 . S
C521 C519 1.387 . S
C521 C523 1.390 . S
C521 H525 0.950 . S
H522 C518 0.950 . S
C523 C521 1.390 . S
C523 C524 1.387 . S
C523 H526 0.950 . S
C524 C523 1.387 . S
C524 C527 1.387 . S
H525 C521 0.950 . S
H526 C523 0.950 . S
C527 C518 1.390 . S
C527 H520 0.950 . S
C527 C524 1.387 . S
C528 C529 1.387 . S
C528 H532 0.950 . S
C528 C537 1.390 . S
C529 C528 1.387 . S
C529 C531 1.387 . S
H530 C537 0.950 . S
C531 C529 1.387 . S
C531 C533 1.390 . S
C531 H535 0.950 1_455 S
H532 C528 0.950 . S
C533 C531 1.390 . S
C533 C534 1.387 . S
C533 H536 0.950 1_455 S
C534 C533 1.387 . S
C534 C537 1.387 . S
H535 C531 0.950 1_655 S
H536 C533 0.950 1_655 S
C537 C528 1.390 . S
C537 H530 0.950 . S
C537 C534 1.387 . S
C538 C539 1.387 . S
C538 H542 0.950 1_556 S
C538 C547 1.390 . S
C539 C538 1.387 . S
C539 C541 1.387 . S
H540 C547 0.950 . S
C541 C539 1.387 . S
C541 C543 1.390 . S
C541 H545 0.950 . S
H542 C538 0.950 1_554 S
C543 C541 1.390 . S
C543 C544 1.387 . S
C543 H546 0.950 . S
C544 C543 1.387 . S
C544 C547 1.387 . S
H545 C541 0.950 . S
H546 C543 0.950 . S
C547 C538 1.390 . S
C547 H540 0.950 . S
C547 C544 1.387 . S
C548 C549 1.387 . S
C548 H552 0.950 . S
C548 C557 1.390 . S
C549 C548 1.387 . S
C549 C551 1.387 . S
H550 C557 0.950 . S
C551 C549 1.387 . S
C551 C553 1.390 . S
C551 H555 0.950 . S
H552 C548 0.950 . S
C553 C551 1.390 . S
C553 C554 1.387 . S
C553 H556 0.950 1_655 S
C554 C553 1.387 . S
C554 C557 1.387 . S
H555 C551 0.950 . S
H556 C553 0.950 1_455 S
C557 C548 1.390 . S
C557 H550 0.950 . S
C557 C554 1.387 . S
C558 C559 1.387 . S
C558 H562 0.950 . S
C558 C567 1.390 . S
C559 C558 1.387 . S
C559 C561 1.387 . S
H560 C567 0.950 . S
C561 C559 1.387 . S
C561 C563 1.390 . S
C561 H565 0.950 . S
H562 C558 0.950 . S
C563 C561 1.390 . S
C563 C564 1.387 . S
C563 H566 0.950 . S
C564 C563 1.387 . S
C564 C567 1.387 . S
H565 C561 0.950 . S
H566 C563 0.950 . S
C567 C558 1.390 . S
C567 H560 0.950 . S
C567 C564 1.387 . S
C568 C569 1.387 . S
C568 H572 0.950 . S
C568 C577 1.390 . S
C569 C568 1.387 . S
C569 C571 1.387 . S
H570 C577 0.950 . S
C571 C569 1.387 . S
C571 C573 1.390 . S
C571 H575 0.950 1_565 S
H572 C568 0.950 . S
C573 C571 1.390 . S
C573 C574 1.387 . S
C573 H576 0.950 1_565 S
C574 C573 1.387 . S
C574 C577 1.387 . S
H575 C571 0.950 1_545 S
H576 C573 0.950 1_545 S
C577 C568 1.390 . S
C577 H570 0.950 . S
C577 C574 1.387 . S
C578 C579 1.387 . S
C578 H582 0.951 . S
C578 C587 1.390 . S
C579 C578 1.387 . S
C579 C581 1.387 . S
H580 C587 0.950 1_565 S
C581 C579 1.387 . S
C581 C583 1.390 . S
C581 H585 0.950 . S
H582 C578 0.951 . S
C583 C581 1.390 . S
C583 C584 1.387 . S
C583 H586 0.950 . S
C584 C583 1.387 . S
C584 C587 1.387 . S
H585 C581 0.950 . S
H586 C583 0.950 . S
C587 C578 1.390 . S
C587 H580 0.950 1_545 S
C587 C584 1.387 . S
C588 C589 1.387 . S
C588 H592 0.950 . S
C588 C597 1.390 . S
C589 C588 1.387 . S
C589 C591 1.387 . S
H590 C597 0.950 . S
C591 C589 1.387 . S
C591 C593 1.390 . S
C591 H595 0.950 . S
H592 C588 0.950 . S
C593 C591 1.390 . S
C593 C594 1.387 . S
C593 H596 0.950 . S
C594 C593 1.387 . S
C594 C597 1.387 . S
H595 C591 0.950 . S
H596 C593 0.950 . S
C597 C588 1.390 . S
C597 H590 0.950 . S
C597 C594 1.387 . S
C598 C599 1.387 . S
C598 H602 0.950 . S
C598 C607 1.390 . S
C599 C598 1.387 . S
C599 C601 1.387 . S
H600 C607 0.950 . S
C601 C599 1.387 . S
C601 C603 1.390 . S
C601 H605 0.950 . S
H602 C598 0.950 . S
C603 C601 1.390 . S
C603 C604 1.387 . S
C603 H606 0.950 . S
C604 C603 1.387 . S
C604 C607 1.387 . S
H605 C601 0.950 . S
H606 C603 0.950 . S
C607 C598 1.390 . S
C607 H600 0.950 . S
C607 C604 1.387 . S
C608 C609 1.387 . S
C608 H612 0.950 1_565 S
C608 C617 1.390 . S
C609 C608 1.387 . S
C609 C611 1.387 . S
H610 C617 0.950 1_545 S
C611 C609 1.387 . S
C611 C613 1.390 . S
C611 H615 0.950 . S
H612 C608 0.950 1_545 S
C613 C611 1.390 . S
C613 C614 1.387 . S
C613 H616 0.950 . S
C614 C613 1.387 . S
C614 C617 1.387 . S
H615 C611 0.950 . S
H616 C613 0.950 . S
C617 C608 1.390 . S
C617 H610 0.950 1_565 S
C617 C614 1.387 . S
C618 C619 1.387 . S
C618 H622 0.950 1_545 S
C618 C627 1.390 . S
C619 C618 1.387 . S
C619 C621 1.387 . S
H620 C627 0.950 1_565 S
C621 C619 1.387 . S
C621 C623 1.390 . S
C621 H625 0.950 . S
H622 C618 0.950 1_565 S
C623 C621 1.390 . S
C623 C624 1.387 . S
C623 H626 0.950 . S
C624 C623 1.387 . S
C624 C627 1.387 . S
H625 C621 0.950 . S
H626 C623 0.950 . S
C627 C618 1.390 . S
C627 H620 0.950 1_545 S
C627 C624 1.387 . S
C628 C629 1.387 . S
C628 H632 0.950 . S
C628 C637 1.390 . S
C629 C628 1.387 . S
C629 C631 1.387 1_554 S
H630 C637 0.950 . S
C631 C629 1.387 1_556 S
C631 C633 1.390 . S
C631 H635 0.950 . S
H632 C628 0.950 . S
C633 C631 1.390 . S
C633 C634 1.387 1_556 S
C633 H636 0.950 . S
C634 C633 1.387 1_554 S
C634 C637 1.387 . S
H635 C631 0.950 . S
H636 C633 0.950 . S
C637 C628 1.390 . S
C637 H630 0.950 . S
C637 C634 1.387 . S
C638 C639 1.387 . S
C638 H642 0.950 . S
C638 C647 1.390 . S
C639 C638 1.387 . S
C639 C641 1.387 . S
H640 C647 0.950 . S
C641 C639 1.387 . S
C641 C643 1.390 . S
C641 H645 0.950 . S
H642 C638 0.950 . S
C643 C641 1.390 . S
C643 C644 1.387 . S
C643 H646 0.950 . S
C644 C643 1.387 . S
C644 C647 1.387 . S
H645 C641 0.950 . S
H646 C643 0.950 . S
C647 C638 1.390 . S
C647 H640 0.950 . S
C647 C644 1.387 . S
C648 C649 1.387 . S
C648 H652 0.950 . S
C648 C657 1.390 . S
C649 C648 1.387 . S
C649 C651 1.387 . S
H650 C657 0.950 1_554 S
C651 C649 1.387 . S
C651 C653 1.390 . S
C651 H655 0.950 . S
H652 C648 0.950 . S
C653 C651 1.390 . S
C653 C654 1.387 . S
C653 H656 0.950 . S
C654 C653 1.387 . S
C654 C657 1.387 . S
H655 C651 0.950 . S
H656 C653 0.950 . S
C657 C648 1.390 . S
C657 H650 0.950 1_556 S
C657 C654 1.387 . S
C658 C659 1.387 . S
C658 H662 0.950 . S
C658 C667 1.390 . S
C659 C658 1.387 . S
C659 C661 1.387 . S
H660 C667 0.950 . S
C661 C659 1.387 . S
C661 C663 1.390 . S
C661 H665 0.950 1_554 S
H662 C658 0.950 . S
C663 C661 1.390 . S
C663 C664 1.387 . S
C663 H666 0.964 . S
C664 C663 1.387 . S
C664 C667 1.387 . S
H665 C661 0.950 1_556 S
H666 C663 0.964 . S
C667 C658 1.390 . S
C667 H660 0.950 . S
C667 C664 1.387 . S
C668 C669 1.387 . S
C668 H672 0.950 . S
C668 C677 1.390 . S
C669 C668 1.387 . S
C669 C671 1.387 . S
H670 C677 0.950 . S
C671 C669 1.387 . S
C671 C673 1.390 . S
C671 H675 0.950 . S
H672 C668 0.950 . S
C673 C671 1.390 . S
C673 C674 1.387 . S
C673 H676 0.950 . S
C674 C673 1.387 . S
C674 C677 1.387 . S
H675 C671 0.950 . S
H676 C673 0.950 . S
C677 C668 1.390 . S
C677 H670 0.950 . S
C677 C674 1.387 . S
C678 C679 1.387 . S
C678 H682 0.950 . S
C678 C687 1.390 . S
C679 C678 1.387 . S
C679 C681 1.387 . S
H680 C687 0.950 . S
C681 C679 1.387 . S
C681 C683 1.390 . S
C681 H685 0.950 . S
H682 C678 0.950 . S
C683 C681 1.390 . S
C683 C684 1.387 . S
C683 H686 0.950 . S
C684 C683 1.387 . S
C684 C687 1.387 . S
H685 C681 0.950 . S
H686 C683 0.950 . S
C687 C678 1.390 . S
C687 H680 0.950 . S
C687 C684 1.387 . S
C449 C1 2.344 . S
C454 C312 2.363 . S
C459 C40 2.297 . S
C464 C354 2.327 . S
C474 C384 1.121 . S
C469 C99 1.114 . S
C479 C118 1.164 . S
C484 C418 1.179 . S
C494 C375 1.901 . S
C489 C16 1.874 . S
C504 C329 1.888 . S
C499 C60 1.859 . S
C514 C422 1.460 . S
C509 C79 1.422 . S
C524 C388 1.486 . S
C519 C138 1.428 . S
C529 C21 2.230 . S
C534 C443 2.245 . S
C544 C350 1.275 . S
C539 C94 1.251 . S
C549 C133 1.226 . S
C554 C325 1.268 . S
C559 C55 2.208 . S
C564 C409 2.227 . S
C574 C341 2.366 . S
C569 C157 2.341 . S
C579 C196 2.302 . S
C584 C363 2.326 . S
C589 C255 1.103 . S
C594 C393 1.123 . S
C599 C289 1.163 . S
C604 C427 1.173 . S
C609 C172 1.877 . S
C614 C346 1.900 . S
C624 C320 1.891 . S
C619 C216 1.877 . S
C634 C431 1.461 . S
C629 C235 1.415 . S
C644 C397 1.488 . S
C639 C294 1.429 . S
C649 C177 2.217 . S
C654 C414 2.246 . S
C664 C359 1.277 . S
C659 C250 1.258 . S
C674 C316 1.274 . S
C669 C274 1.228 . S
C679 C211 2.199 . S
C684 C380 2.223 . S
