# Generated by pormake.
# Topology zzz, (3,6)-cn, num edge types: 1
# Building blocks:
#     Node 0, Type 0, BuildingBlock: QEWDON_clean_linker_0, # of connection points: 3
#     Node 1, Type 0, BuildingBlock: QEWDON_clean_linker_0, # of connection points: 3
#     Node 2, Type 0, BuildingBlock: QEWDON_clean_linker_0, # of connection points: 3
#     Node 3, Type 0, BuildingBlock: QEWDON_clean_linker_0, # of connection points: 3
#     Node 4, Type 0, BuildingBlock: QEWDON_clean_linker_0, # of connection points: 3
#     Node 5, Type 0, BuildingBlock: QEWDON_clean_linker_0, # of connection points: 3
#     Node 6, Type 0, BuildingBlock: QEWDON_clean_linker_0, # of connection points: 3
#     Node 7, Type 0, BuildingBlock: QEWDON_clean_linker_0, # of connection points: 3
#     Node 8, Type 1, BuildingBlock: KUMJIN_clean_sbu_0, # of connection points: 6
#     Node 9, Type 1, BuildingBlock: KUMJIN_clean_sbu_0, # of connection points: 6
#     Node 10, Type 1, BuildingBlock: KUMJIN_clean_sbu_0, # of connection points: 6
#     Node 11, Type 1, BuildingBlock: KUMJIN_clean_sbu_0, # of connection points: 6
#     Edge 12, Type (0, 1), BuildingBlock: AJUNOK_clean_linker_0, # of connection points: 2
#     Edge 13, Type (0, 1), BuildingBlock: AJUNOK_clean_linker_0, # of connection points: 2
#     Edge 14, Type (0, 1), BuildingBlock: AJUNOK_clean_linker_0, # of connection points: 2
#     Edge 15, Type (0, 1), BuildingBlock: AJUNOK_clean_linker_0, # of connection points: 2
#     Edge 16, Type (0, 1), BuildingBlock: AJUNOK_clean_linker_0, # of connection points: 2
#     Edge 17, Type (0, 1), BuildingBlock: AJUNOK_clean_linker_0, # of connection points: 2
#     Edge 18, Type (0, 1), BuildingBlock: AJUNOK_clean_linker_0, # of connection points: 2
#     Edge 19, Type (0, 1), BuildingBlock: AJUNOK_clean_linker_0, # of connection points: 2
#     Edge 20, Type (0, 1), BuildingBlock: AJUNOK_clean_linker_0, # of connection points: 2
#     Edge 21, Type (0, 1), BuildingBlock: AJUNOK_clean_linker_0, # of connection points: 2
#     Edge 22, Type (0, 1), BuildingBlock: AJUNOK_clean_linker_0, # of connection points: 2
#     Edge 23, Type (0, 1), BuildingBlock: AJUNOK_clean_linker_0, # of connection points: 2
#     Edge 24, Type (0, 1), BuildingBlock: AJUNOK_clean_linker_0, # of connection points: 2
#     Edge 25, Type (0, 1), BuildingBlock: AJUNOK_clean_linker_0, # of connection points: 2
#     Edge 26, Type (0, 1), BuildingBlock: AJUNOK_clean_linker_0, # of connection points: 2
#     Edge 27, Type (0, 1), BuildingBlock: AJUNOK_clean_linker_0, # of connection points: 2
#     Edge 28, Type (0, 1), BuildingBlock: AJUNOK_clean_linker_0, # of connection points: 2
#     Edge 29, Type (0, 1), BuildingBlock: AJUNOK_clean_linker_0, # of connection points: 2
#     Edge 30, Type (0, 1), BuildingBlock: AJUNOK_clean_linker_0, # of connection points: 2
#     Edge 31, Type (0, 1), BuildingBlock: AJUNOK_clean_linker_0, # of connection points: 2
#     Edge 32, Type (0, 1), BuildingBlock: AJUNOK_clean_linker_0, # of connection points: 2
#     Edge 33, Type (0, 1), BuildingBlock: AJUNOK_clean_linker_0, # of connection points: 2
#     Edge 34, Type (0, 1), BuildingBlock: AJUNOK_clean_linker_0, # of connection points: 2
#     Edge 35, Type (0, 1), BuildingBlock: AJUNOK_clean_linker_0, # of connection points: 2
# Relax obj value: 0.154
# Max RMSD: 0.166
# Mean RMSD: 0.078
data_MOF--net-zzz--node1-KUMJIN_clean_sbu_0--node2-QEWDON_clean_linker_0--edge1-AJUNOK_clean_linker_0
_symmetry_space_group_name_H-M    P1
_symmetry_Int_Tables_number       1
_symmetry_cell_setting            triclinic
loop_
_symmetry_equiv_pos_as_xyz
'x, y, z'
_cell_length_a     40.354465
_cell_length_b     40.187551
_cell_length_c     10.987546
_cell_angle_alpha  91.537209
_cell_angle_beta   90.128221
_cell_angle_gamma 89.995298
loop_
_atom_site_label
_atom_site_type_symbol
_atom_site_fract_x
_atom_site_fract_y
_atom_site_fract_z
_atom_type_partial_charge
H0 H 0.77043 0.50951 0.19837 0.0
C1 C 0.78933 0.52025 0.2574 0.0
C2 C 0.81663 0.50053 0.28692 0.0
C3 C 0.78602 0.55295 0.30537 0.0
H4 H 0.86334 0.49851 0.38149 0.0
C5 C 0.84149 0.51341 0.364 0.0
C6 C 0.83972 0.54524 0.41691 0.0
C7 C 0.81191 0.56545 0.386 0.0
C8 C 0.75419 0.57207 0.27834 0.0
H9 H 0.81046 0.59037 0.42523 0.0
C10 C 0.73424 0.56652 0.17015 0.0
C11 C 0.70281 0.58264 0.15478 0.0
C12 C 0.7419 0.59438 0.36789 0.0
H13 H 0.75517 0.59898 0.45231 0.0
C14 C 0.71134 0.6099 0.354 0.0
H15 H 0.74303 0.54998 0.09795 0.0
C16 C 0.69184 0.60361 0.25121 0.0
H17 H 0.66751 0.6149 0.24929 0.0
H18 H 0.70224 0.62652 0.42543 0.0
H19 H 0.06769 0.78783 0.11222 0.0
C20 C 0.06308 0.80541 0.18675 0.0
C21 C 0.0777 0.83668 0.18236 0.0
C22 C 0.04068 0.79778 0.27917 0.0
H23 H 0.08043 0.88586 0.25395 0.0
C24 C 0.07065 0.86135 0.27045 0.0
C25 C 0.05067 0.8558 0.37277 0.0
C26 C 0.03483 0.82328 0.37438 0.0
C27 C 1.02045 0.76554 0.25969 0.0
H28 H 1.01812 0.81764 0.4476 0.0
C29 C 0.03264 0.73561 0.19657 0.0
C30 C 1.01064 0.70926 0.15513 0.0
C31 C 0.98646 0.76688 0.2855 0.0
H32 H 0.9758 0.78858 0.33094 0.0
C33 C 0.96507 0.74162 0.24513 0.0
H34 H 0.05878 0.7333 0.17624 0.0
C35 C 0.97673 0.71393 0.17871 0.0
H36 H 0.95887 0.69533 0.14857 0.0
H37 H 0.93881 0.74386 0.26351 0.0
H38 H 0.78472 0.02859 0.08564 0.0
C39 C 0.76796 0.03341 0.16018 0.0
C40 C 0.73488 0.03787 0.12991 0.0
C41 C 0.7792 0.03681 0.28094 0.0
H42 H 0.6854 0.04476 0.19573 0.0
C43 C 0.71103 0.04149 0.22182 0.0
C44 C 0.71927 0.04416 0.3454 0.0
C45 C 0.75402 0.04207 0.37509 0.0
C46 C 0.817 0.03544 0.3027 0.0
H47 H 0.761 0.04569 0.46942 0.0
C48 C 0.84171 0.03698 0.20654 0.0
C49 C 0.87657 0.0333 0.22917 0.0
C50 C 0.82903 0.03183 0.42141 0.0
H51 H 0.81249 0.03051 0.49824 0.0
C52 C 0.86286 0.02932 0.44462 0.0
H53 H 0.8345 0.04077 0.11357 0.0
C54 C 0.88614 0.02923 0.35071 0.0
H55 H 0.912 1.02672 0.37434 0.0
H56 H 0.87098 0.02755 0.53767 0.0
H57 H 0.49382 0.82655 0.1916 0.0
C58 C 0.50472 0.80655 0.24208 0.0
C59 C 0.48555 0.77805 0.26043 0.0
C60 C 0.53754 0.80886 0.2863 0.0
H61 H 0.48435 0.72916 0.3375 0.0
C62 C 0.49878 0.75164 0.32631 0.0
C63 C 0.5313 0.75199 0.36847 0.0
C64 C 0.55086 0.78066 0.34807 0.0
C65 C 0.55711 0.84082 0.27058 0.0
H66 H 0.57635 0.7805 0.37862 0.0
C67 C 0.5505 0.86419 0.17655 0.0
C68 C 0.56847 0.89472 0.1698 0.0
C69 C 0.58211 0.84903 0.35554 0.0
H70 H 0.5877 0.83313 0.43068 0.0
C71 C 0.59983 0.87857 0.34854 0.0
H72 H 0.53202 0.85868 0.10757 0.0
C73 C 0.59275 0.90131 0.25885 0.0
H74 H 0.60618 0.92451 0.26024 0.0
H75 H 0.61906 0.88398 0.41462 0.0
H76 H 0.28901 0.49689 0.40121 0.0
C77 C 0.27203 0.50302 0.32837 0.0
C78 C 0.23884 0.4956 0.34271 0.0
C79 C 0.28416 0.5132 0.21634 0.0
H80 H 0.18996 0.49671 0.26653 0.0
C81 C 0.21585 0.50194 0.25023 0.0
C82 C 0.22551 0.51369 0.13654 0.0
C83 C 0.2606 0.51851 0.11856 0.0
C84 C 0.32096 0.50711 0.20111 0.0
H85 H 0.26958 0.52477 0.02929 0.0
C86 C 0.34523 0.51893 0.28917 0.0
C87 C 0.37608 0.50184 0.30554 0.0
C88 C 0.32953 0.47991 0.12513 0.0
H89 H 0.3119 0.46988 0.05926 0.0
C90 C 0.35892 0.46253 0.14337 0.0
H91 H 0.33917 0.53973 0.34973 0.0
C92 C 0.38112 0.47251 0.23476 0.0
H93 H 0.40337 0.45782 0.24613 0.0
H94 H 0.36424 0.44053 0.08781 0.0
H95 H 0.98985 0.30008 0.26139 0.0
C96 C 0.99731 0.28283 0.18958 0.0
C97 C 0.9755 0.25677 0.16076 0.0
C98 C 0.02925 0.28443 0.13906 0.0
H99 H 0.96646 0.21323 0.0497 0.0
C100 C 0.98416 0.2327 0.07203 0.0
C101 C 1.01631 0.22986 0.0252 0.0
C102 C 0.03889 0.25675 0.05683 0.0
C103 C 0.05245 0.31275 0.18737 0.0
H104 H 0.06367 0.25531 0.02037 0.0
C105 C 0.04128 0.34225 0.25644 0.0
C106 C 0.06404 0.36588 0.3118 0.0
C107 C 0.08687 0.30943 0.17183 0.0
H108 H 0.09737 0.28825 0.12333 0.0
C109 C 0.10897 0.33298 0.2208 0.0
H110 H 1.01519 0.34706 0.2692 0.0
C111 C 0.09789 0.36052 0.2893 0.0
H112 H 0.11621 0.37814 0.3233 0.0
H113 H 0.1353 0.3297 0.20604 0.0
H114 H 0.28107 0.07314 0.21715 0.0
C115 C 0.29697 0.06654 0.14126 0.0
C116 C 0.33009 0.06124 0.16689 0.0
C117 C 0.28407 0.06081 0.0242 0.0
H118 H 0.37832 0.05113 0.09422 0.0
C119 C 0.35272 0.05594 0.07165 0.0
C120 C 0.34309 0.05382 0.9491 0.0
C121 C 0.30781 0.05543 0.92536 0.0
C122 C 0.24602 0.06056 0.01383 0.0
H123 H 0.29912 0.05133 0.833 0.0
C124 C 0.22443 0.05497 0.11702 0.0
C125 C 0.18932 0.05966 0.11118 0.0
C126 C 0.2307 0.06822 0.90337 0.0
H127 H 0.24532 0.07268 0.82305 0.0
C128 C 0.19623 0.07149 0.8955 0.0
H129 H 0.23457 0.04761 0.20323 0.0
C130 C 0.176 0.06789 0.99768 0.0
H131 H 0.14956 0.07131 0.98744 0.0
H132 H 0.18506 0.0776 0.8093 0.0
H133 H 0.53384 0.29109 0.22768 0.0
C134 C 0.52764 0.30797 0.15637 0.0
C135 C 0.53012 0.3417 0.18517 0.0
C136 C 0.51937 0.29649 0.0378 0.0
H137 H 0.52928 0.39141 0.11629 0.0
C138 C 0.52591 0.3652 0.09436 0.0
C139 C 0.52044 0.35603 0.97342 0.0
C140 C 0.51647 0.32128 0.94447 0.0
C141 C 0.51588 0.25883 0.01537 0.0
H142 H 0.51115 0.31414 0.85104 0.0
C143 C 0.51316 0.23565 0.11295 0.0
C144 C 0.5123 0.20056 0.09153 0.0
C145 C 0.51652 0.24523 0.89613 0.0
H146 H 0.51936 0.26076 0.81818 0.0
C147 C 0.51412 0.21092 0.87433 0.0
H148 H 0.51114 0.24425 0.20642 0.0
C149 C 0.51168 0.18894 0.97024 0.0
H150 H 0.51024 0.16258 0.94954 0.0
H151 H 0.51492 0.20126 0.78164 0.0
Eu152 Eu 0.06825 0.03763 0.79785 0.0
C153 C 0.96704 0.98066 0.50006 0.0
C154 C 0.99663 0.95177 0.33636 0.0
C155 C 0.94575 0.92831 0.41162 0.0
C156 C 0.99384 0.97904 0.4208 0.0
C157 C 0.94268 0.95515 0.49478 0.0
C158 C 0.97263 0.92663 0.33269 0.0
C159 C 0.91137 0.98551 0.64579 0.0
N160 N 0.9638 1.0075 0.57798 0.0
C161 C 0.93455 1.01117 0.64136 0.0
C162 C 0.91545 0.9573 0.57231 0.0
Eu163 Eu 1.00738 0.04907 0.57006 0.0
N164 N 1.01706 1.00373 0.42523 0.0
C165 C 0.04269 1.00242 0.34326 0.0
C166 C 1.02357 0.95025 0.25734 0.0
C167 C 0.04665 0.97571 0.26088 0.0
H168 H 0.92795 0.03406 0.68818 0.0
H169 H 0.06725 0.97527 0.19788 0.0
H170 H 0.97467 0.90566 0.26902 0.0
H171 H 0.88936 0.98839 0.70124 0.0
H172 H 0.05986 1.02219 0.33393 0.0
H173 H 1.0195 0.06031 0.25957 0.0
H174 H 0.02658 0.9297 0.19238 0.0
H175 H 0.12304 0.08632 0.64578 0.0
H176 H 0.03697 1.02556 0.0855 0.0
H177 H 0.14948 0.14035 0.66524 0.0
H178 H 0.92733 0.90869 0.4074 0.0
H179 H 0.03983 0.118 0.284 0.0
H180 H 0.0771 0.16261 0.21073 0.0
H181 H 0.89673 0.93797 0.57235 0.0
H182 H 0.11337 0.18385 0.05136 0.0
N183 N 0.05925 0.0657 0.99146 0.0
C184 C 0.04376 0.05155 0.08813 0.0
C185 C 0.04605 0.10335 0.20307 0.0
C186 C 0.0668 0.11598 0.1143 0.0
C187 C 0.03473 0.07083 0.19012 0.0
C188 C 0.07254 0.09661 0.00692 0.0
H189 H 0.14024 0.17588 0.84866 0.0
N190 N 0.09533 0.09082 0.81056 0.0
C191 C 0.13285 0.13222 0.73564 0.0
C192 C 0.09182 0.10912 0.91543 0.0
C193 C 0.11674 0.10155 0.72337 0.0
C194 C 0.12785 0.15202 0.8396 0.0
C195 C 0.10739 0.14052 0.93159 0.0
O196 O 0.12147 0.02943 0.78283 0.0
O197 O 0.04395 1.01125 0.63626 0.0
O198 O 0.97947 0.04725 0.75097 0.0
O199 O 1.01728 0.02766 0.88907 0.0
O200 O 0.04687 0.9846 0.79267 0.0
O201 O 0.09467 1.00698 0.92827 0.0
O202 O 0.96828 0.05393 0.43445 0.0
O203 O 0.04143 0.07825 0.70037 0.0
O204 O 0.09423 0.03442 0.61082 0.0
O205 O 0.0582 0.0628 0.48611 0.0
O206 O 0.99173 0.0918 0.6993 0.0
O207 O 1.00191 0.09448 0.46399 0.0
C208 C 0.03771 0.98263 0.67973 0.0
C209 C 0.1397 0.9766 0.83912 0.0
C210 C 0.14383 0.9164 0.85297 0.0
C211 C 0.12727 0.94635 0.87978 0.0
C212 C 0.1729 0.91654 0.78358 0.0
C213 C 0.16886 0.97651 0.76917 0.0
C214 C 0.18518 0.94658 0.7409 0.0
C215 C 0.98662 0.03657 0.8604 0.0
C216 C 0.12262 1.00822 0.86943 0.0
C217 C 0.10198 0.15959 0.03845 0.0
C218 C 0.08141 0.1475 0.12912 0.0
C219 C 1.0205 0.09956 0.7442 0.0
C220 C 0.94488 0.10763 0.44225 0.0
C221 C 0.94561 0.14034 0.40232 0.0
C222 C 0.91905 0.16213 0.42753 0.0
C223 C 0.89132 0.15104 0.49089 0.0
C224 C 0.91717 0.09703 0.50857 0.0
C225 C 0.8905 0.11846 0.53161 0.0
C226 C 0.08818 0.0503 0.50867 0.0
C227 C 0.97347 0.08528 0.41889 0.0
H228 H 0.10516 0.94602 0.93573 0.0
H229 H 0.18619 0.89361 0.764 0.0
H230 H 0.17906 0.99957 0.73666 0.0
H231 H 0.20764 0.94675 0.68727 0.0
H232 H 0.96695 0.14898 0.35219 0.0
H233 H 0.8707 0.16761 0.50994 0.0
H234 H 0.91604 0.07223 0.54295 0.0
H235 H 0.86928 0.10983 0.58197 0.0
Eu236 Eu 0.53565 0.0811 0.75338 0.0
C237 C 0.59812 0.98273 0.47076 0.0
C238 C 0.61798 1.00723 0.28546 0.0
C239 C 0.65101 0.96511 0.38258 0.0
C240 C 0.59404 1.0054 0.37918 0.0
C241 C 0.62675 0.9623 0.47281 0.0
C242 C 0.6463 0.98703 0.28786 0.0
C243 C 0.60273 0.93272 0.63766 0.0
N244 N 0.57361 0.97934 0.55413 0.0
C245 C 0.57437 0.95236 0.62821 0.0
C246 C 0.62958 0.93851 0.56237 0.0
Eu247 Eu 0.52716 1.01652 0.5395 0.0
N248 N 0.56643 1.0249 0.37914 0.0
C249 C 0.56035 0.0444 0.28099 0.0
C250 C 0.61262 0.02894 0.19058 0.0
C251 C 0.58363 0.04745 0.18829 0.0
H252 H 0.55297 0.94468 0.67855 0.0
H253 H 0.57881 0.06355 0.11342 0.0
H254 H 0.66455 0.98783 0.21597 0.0
H255 H 0.60339 0.91243 0.70046 0.0
H256 H 0.53712 0.05686 0.26864 0.0
H257 H 0.48437 1.02272 0.15983 0.0
H258 H 0.63022 0.03095 0.11697 0.0
H259 H 0.50548 0.15098 0.61188 0.0
H260 H 0.52673 0.0353 0.01335 0.0
H261 H 0.45688 0.18581 0.6145 0.0
H262 H 0.67291 0.94952 0.38271 0.0
H263 H 0.4335 0.0562 0.17078 0.0
H264 H 0.40193 0.10543 0.09954 0.0
H265 H 0.65132 0.92279 0.56798 0.0
H266 H 0.39413 0.14891 0.95111 0.0
N267 N 0.4972 0.06939 0.91298 0.0
C268 C 0.50329 0.04739 0.00356 0.0
C269 C 0.45103 0.06019 0.09829 0.0
C270 C 0.44637 0.08537 0.01506 0.0
C271 C 0.47973 0.04126 0.09271 0.0
C272 C 0.46993 0.08927 0.92107 0.0
H273 H 0.41349 0.17799 0.76834 0.0
N274 N 0.48835 0.11738 0.74688 0.0
C275 C 0.45851 0.16524 0.67585 0.0
C276 C 0.46556 0.11399 0.83684 0.0
C277 C 0.48585 0.144 0.67154 0.0
C278 C 0.43431 0.16098 0.76347 0.0
C279 C 0.43799 0.13577 0.84715 0.0
O280 O 0.55137 0.13163 0.80361 0.0
O281 O 0.56781 0.04382 0.64386 0.0
O282 O 0.52537 0.99295 0.72486 0.0
O283 O 0.55574 0.03213 0.8331 0.0
O284 O 0.58107 0.09362 0.6413 0.0
O285 O 0.56011 0.09175 0.92641 0.0
O286 O 0.5126 0.96574 0.48569 0.0
O287 O 0.49472 0.05423 0.64733 0.0
O288 O 0.5376 0.10593 0.5721 0.0
O289 O 0.51144 0.06639 0.45086 0.0
O290 O 0.482 1.00446 0.65378 0.0
O291 O 0.50058 1.00647 0.37056 0.0
C292 C 0.58978 0.06414 0.60471 0.0
C293 C 0.59993 0.13381 0.91874 0.0
C294 C 0.65853 0.11997 0.90419 0.0
C295 C 0.62545 0.11369 0.87253 0.0
C296 C 0.66571 0.14929 0.97338 0.0
C297 C 0.60735 0.16286 0.98596 0.0
C298 C 0.64033 0.1709 0.01099 0.0
C299 C 0.5431 1.00166 0.82086 0.0
C300 C 0.5657 0.12285 0.9035 0.0
C301 C 0.41512 0.13223 0.9416 0.0
C302 C 0.41937 0.10719 0.02545 0.0
C303 C 0.47272 0.03401 0.68758 0.0
C304 C 0.46189 0.96362 0.38379 0.0
C305 C 0.4371 0.98421 0.43221 0.0
C306 C 0.40376 0.97855 0.40459 0.0
C307 C 0.39538 0.94876 0.34028 0.0
C308 C 0.45342 0.93412 0.32114 0.0
C309 C 0.42006 0.92633 0.30218 0.0
C310 C 0.52327 0.09714 0.4688 0.0
C311 C 0.49619 0.975 0.39091 0.0
H312 H 0.61915 0.09152 0.81999 0.0
H313 H 0.69046 0.15475 0.00586 0.0
H314 H 0.58775 0.17876 0.02149 0.0
H315 H 0.64614 0.19301 0.06537 0.0
H316 H 0.44414 1.00667 0.48116 0.0
H317 H 0.37025 0.94352 0.31156 0.0
H318 H 0.47245 0.91772 0.2844 0.0
H319 H 0.41337 0.90385 0.25147 0.0
Eu320 Eu 0.57137 0.5405 0.55674 0.0
C321 C 0.45758 0.54205 0.92266 0.0
C322 C 0.41089 0.56221 0.80661 0.0
C323 C 0.40153 0.53029 0.98775 0.0
C324 C 0.44535 0.55897 0.82413 0.0
C325 C 0.43587 0.52791 0.00645 0.0
C326 C 0.38904 0.54718 0.88767 0.0
C327 C 0.48356 0.51278 0.12743 0.0
N328 N 0.49079 0.54091 0.9403 0.0
C329 C 0.50398 0.52764 0.04297 0.0
C330 C 0.44949 0.5127 0.10818 0.0
Eu331 Eu 0.52353 0.56967 0.8022 0.0
N332 N 0.46711 0.57421 0.75031 0.0
C333 C 0.45622 0.59509 0.6629 0.0
C334 C 0.39949 0.58184 0.71187 0.0
C335 C 0.42227 0.59882 0.64098 0.0
H336 H 0.53029 0.52831 0.05929 0.0
H337 H 0.41375 0.6148 0.5696 0.0
H338 H 0.36246 0.54942 0.8762 0.0
H339 H 0.49401 0.5017 0.20764 0.0
H340 H 0.47371 0.60854 0.60858 0.0
H341 H 0.62326 0.4132 0.54028 0.0
H342 H 0.3732 0.58495 0.69544 0.0
H343 H 0.61305 0.6145 0.60016 0.0
H344 H 0.57955 0.45491 0.52931 0.0
H345 H 0.66905 0.63368 0.64393 0.0
H346 H 0.38438 0.52017 0.05182 0.0
H347 H 0.68033 0.42992 0.5943 0.0
H348 H 0.72076 0.47497 0.64309 0.0
H349 H 0.43423 0.50119 0.17377 0.0
H350 H 0.73321 0.53441 0.66952 0.0
N351 N 0.61088 0.49629 0.57527 0.0
C352 C 0.60435 0.4633 0.5497 0.0
C353 C 0.66118 0.44872 0.58852 0.0
C354 C 0.66839 0.48239 0.60934 0.0
C355 C 0.62908 0.4392 0.55752 0.0
C356 C 0.64256 0.50608 0.60078 0.0
H357 H 0.71431 0.59326 0.66997 0.0
N358 N 0.62498 0.56266 0.60198 0.0
C359 C 0.66402 0.60726 0.63552 0.0
C360 C 0.64977 0.53993 0.61402 0.0
C361 C 0.63197 0.59602 0.60977 0.0
C362 C 0.68945 0.58439 0.65046 0.0
C363 C 0.68268 0.55037 0.63855 0.0
O364 O 0.55225 0.54394 0.37025 0.0
O365 O 0.51875 0.55532 0.60375 0.0
O366 O 0.51671 0.51278 0.80383 0.0
O367 O 0.56021 0.49512 0.68022 0.0
O368 O 0.52562 0.50853 0.52089 0.0
O369 O 0.60419 0.53844 0.39884 0.0
O370 O 0.5362 0.59268 0.97918 0.0
O371 O 0.57641 0.56757 0.73546 0.0
O372 O 0.5625 0.59571 0.51908 0.0
O373 O 0.53247 0.615 0.68547 0.0
O374 O 0.56751 0.54838 0.90297 0.0
O375 O 0.50645 0.6195 0.85118 0.0
C376 C 0.50349 0.52964 0.5593 0.0
C377 C 0.58134 0.50776 0.24063 0.0
C378 C 0.5797 0.44764 0.23581 0.0
C379 C 0.57119 0.47801 0.29004 0.0
C380 C 0.59425 0.44726 0.11957 0.0
C381 C 0.59678 0.50752 0.12733 0.0
C382 C 0.60208 0.4772 0.06455 0.0
C383 C 0.53633 0.48872 0.76048 0.0
C384 C 0.58051 0.53739 0.31947 0.0
C385 C 0.70794 0.52673 0.65035 0.0
C386 C 0.70083 0.49288 0.63561 0.0
C387 C 0.59059 0.55471 0.82705 0.0
C388 C 0.49444 0.62905 0.05935 0.0
C389 C 0.47117 0.6542 0.03661 0.0
C390 C 0.45441 0.6708 0.13278 0.0
C391 C 0.45865 0.65858 0.25139 0.0
C392 C 0.49802 0.61744 0.1779 0.0
C393 C 0.47971 0.63185 0.27275 0.0
C394 C 0.54756 0.6201 0.58104 0.0
C395 C 0.51762 0.61859 0.96197 0.0
H396 H 0.55819 0.47861 0.37489 0.0
H397 H 0.59913 0.424 0.07079 0.0
H398 H 0.60478 0.53066 0.08991 0.0
H399 H 0.61292 0.47653 0.9749 0.0
H400 H 0.46826 0.6626 0.94447 0.0
H401 H 0.44798 0.67096 0.33044 0.0
H402 H 0.51582 0.59819 0.19836 0.0
H403 H 0.48364 0.62393 0.36495 0.0
Eu404 Eu 0.04866 0.56249 0.64155 0.0
C405 C 0.03781 0.42758 0.86246 0.0
C406 C 1.00317 0.39875 0.71314 0.0
C407 C 0.04207 0.36733 0.83305 0.0
C408 C 1.0135 0.42857 0.77348 0.0
C409 C 0.05161 0.3967 0.89534 0.0
C410 C 1.018 0.36837 0.74183 0.0
C411 C 0.08045 0.42511 0.05946 0.0
N412 N 0.04644 0.45629 0.92259 0.0
C413 C 0.06598 0.455 0.02464 0.0
C414 C 0.0738 0.39597 0.99283 0.0
Eu415 Eu 1.01887 0.50602 0.86401 0.0
N416 N 0.9995 0.45836 0.74724 0.0
C417 C 0.97399 0.4593 0.66446 0.0
C418 C 0.97785 0.40009 0.6267 0.0
C419 C 0.96301 0.43045 0.60319 0.0
H420 H 0.07017 0.47728 0.07976 0.0
H421 H 0.94329 0.43179 0.53653 0.0
H422 H 1.01051 0.34541 0.69563 0.0
H423 H 0.09629 0.42436 0.13882 0.0
H424 H 0.9624 0.4821 0.63977 0.0
H425 H 0.10099 0.66864 0.90097 0.0
H426 H 0.96938 0.3778 0.5784 0.0
H427 H 1.00637 0.56438 0.37664 0.0
H428 H 0.09424 0.61007 0.83981 0.0
H429 H 0.97561 0.60459 0.25431 0.0
H430 H 0.05266 0.34356 0.85661 0.0
H431 H 0.06747 0.71184 0.80239 0.0
H432 H 0.02596 0.72656 0.64221 0.0
H433 H 0.08492 0.37281 0.02004 0.0
H434 H 0.99114 0.70894 0.46818 0.0
N435 N 0.05722 0.61895 0.70643 0.0
C436 C 0.0799 0.62827 0.79335 0.0
C437 C 0.06462 0.68597 0.77395 0.0
C438 C 0.04272 0.67663 0.68036 0.0
C439 C 0.08366 0.6617 0.82936 0.0
C440 C 0.03989 0.64255 0.64711 0.0
H441 H 0.97128 0.66309 0.32582 0.0
N442 N 1.02035 0.6002 0.51415 0.0
C443 C 0.98809 0.61284 0.33704 0.0
C444 C 1.02071 0.63282 0.54837 0.0
C445 C 1.00567 0.5902 0.4065 0.0
C446 C 0.98594 0.64596 0.37706 0.0
C447 C 1.00331 0.65663 0.48118 0.0
O448 O 0.0674 0.56118 0.45599 0.0
O449 O 0.04508 0.5073 0.68356 0.0
O450 O 0.07576 0.50716 0.8873 0.0
O451 O 0.09169 0.55361 0.78079 0.0
O452 O 0.03068 0.52063 0.51243 0.0
O453 O 0.10176 0.56669 0.60595 0.0
O454 O 1.00729 0.49288 0.05171 0.0
O455 O 1.02394 0.56066 0.82416 0.0
O456 O 0.99201 0.56802 0.62993 0.0
O457 O 0.97385 0.52749 0.76065 0.0
O458 O 0.03423 0.54803 0.99976 0.0
O459 O 0.96764 0.50178 0.92449 0.0
C460 C 0.03588 0.49549 0.5796 0.0
C461 C 0.11341 0.52676 0.44935 0.0
C462 C 0.1426 0.47507 0.49388 0.0
C463 C 0.12855 0.50561 0.53256 0.0
C464 C 0.13587 0.46388 0.37285 0.0
C465 C 0.10966 0.51614 0.32777 0.0
C466 C 0.12019 0.48457 0.29093 0.0
C467 C 0.0987 0.52913 0.85669 0.0
C468 C 0.09784 0.55798 0.49148 0.0
C469 C 1.00457 0.69033 0.51792 0.0
C470 C 1.02438 0.70035 0.61706 0.0
C471 C 0.03239 0.573 0.92813 0.0
C472 C 0.95958 0.45776 0.05797 0.0
C473 C 0.92505 0.45658 0.06572 0.0
C474 C 0.90845 0.42652 0.08831 0.0
C475 C 0.92683 0.39716 0.09964 0.0
C476 C 0.97761 0.42824 0.07262 0.0
C477 C 0.96134 0.39809 0.09135 0.0
C478 C 0.9678 0.55026 0.67748 0.0
C479 C 0.97572 0.48969 0.02919 0.0
H480 H 0.13108 0.51373 0.62663 0.0
H481 H 0.14494 0.44041 0.33645 0.0
H482 H 0.09776 0.53191 0.26212 0.0
H483 H 0.11767 0.47665 0.19698 0.0
H484 H 0.91111 0.47954 0.05849 0.0
H485 H 0.91461 0.37385 0.11822 0.0
H486 H 1.00422 0.42835 0.0714 0.0
H487 H 0.97561 0.37554 0.1021 0.0
C488 C 0.14142 0.08233 0.24201 0.0
C489 C 0.16588 0.05753 0.22082 0.0
C490 C 0.11739 0.0802 0.33585 0.0
C491 C 0.11574 0.05288 0.41355 0.0
H492 H 0.14085 0.10392 0.18517 0.0
H493 H 0.1001 0.10051 0.34881 0.0
S494 S 0.17409 0.98112 0.40193 0.0
N495 N 0.18701 1.00479 0.29084 0.0
N496 N 0.14213 1.00069 0.46458 0.0
C497 C 0.14058 0.02826 0.39607 0.0
C498 C 0.16532 0.03055 0.30081 0.0
C499 C 0.49394 0.14647 0.18984 0.0
C500 C 0.51381 0.17552 0.19307 0.0
C501 C 0.49699 0.12135 0.27765 0.0
C502 C 0.52022 0.12377 0.37339 0.0
H503 H 0.47564 0.14328 0.11868 0.0
H504 H 0.48071 0.10004 0.27166 0.0
S505 S 0.57912 0.19441 0.42311 0.0
N506 N 0.55819 0.20454 0.3004 0.0
N507 N 0.56372 0.15844 0.46475 0.0
C508 C 0.54014 0.15291 0.37804 0.0
C509 C 0.537 0.17837 0.28868 0.0
C510 C 0.42161 0.54289 0.37776 0.0
C511 C 0.40389 0.51286 0.39324 0.0
C512 C 0.45289 0.54907 0.4353 0.0
C513 C 0.46762 0.52634 0.51553 0.0
H514 H 0.41257 0.56065 0.31315 0.0
H515 H 0.46637 0.57121 0.41244 0.0
S516 S 0.43204 0.44405 0.58801 0.0
N517 N 0.40417 0.46029 0.49677 0.0
N518 N 0.46175 0.47209 0.60322 0.0
C519 C 0.44977 0.49672 0.53336 0.0
C520 C 0.4183 0.49018 0.47425 0.0
C521 C 0.02973 0.41938 0.35304 0.0
C522 C 0.0542 0.39676 0.39068 0.0
C523 C 1.02404 0.45049 0.41509 0.0
C524 C 0.04179 0.46073 0.52147 0.0
H525 H 1.01553 0.41344 0.27223 0.0
H526 H 1.00538 0.46687 0.37872 0.0
S527 S 0.10763 0.41044 0.665 0.0
N528 N 0.09539 0.38688 0.54792 0.0
N529 N 0.08525 0.44479 0.66073 0.0
C530 C 0.06597 0.43815 0.56166 0.0
C531 C 0.07183 0.40651 0.49825 0.0
C532 C 0.93178 1.01243 0.1361 0.0
C533 C 0.90367 0.03376 0.13045 0.0
C534 C 0.95838 1.01359 0.05122 0.0
C535 C 0.95857 0.036 0.95435 0.0
H536 H 0.93333 0.99431 0.20709 0.0
H537 H 0.97879 0.99636 0.06101 0.0
S538 S 0.89336 0.09987 0.90303 0.0
N539 N 0.87969 0.07977 0.02202 0.0
N540 N 0.92872 0.08189 0.86441 0.0
C541 C 0.93098 0.05785 0.94869 0.0
C542 C 0.90394 0.05671 0.03528 0.0
C543 C 0.52979 0.93038 0.04268 0.0
C544 C 0.56222 0.92072 0.0744 0.0
C545 C 0.52389 0.95681 0.96266 0.0
C546 C 0.54999 0.97548 0.91298 0.0
H547 H 0.50873 0.91781 0.08147 0.0
H548 H 0.49857 0.96292 0.94054 0.0
S549 S 0.63935 0.958 0.95185 0.0
N550 N 0.62089 0.9301 0.0359 0.0
N551 N 0.60944 0.98076 0.89406 0.0
C552 C 0.58241 0.96596 0.94235 0.0
C553 C 0.58856 0.93843 0.02041 0.0
C554 C 0.67401 0.54504 0.99294 0.0
C555 C 0.67966 0.57708 0.04513 0.0
C556 C 0.6473 0.53862 0.91085 0.0
C557 C 0.62444 0.56361 0.87856 0.0
H558 H 0.68901 0.52427 0.02112 0.0
H559 H 0.64351 0.51343 0.87712 0.0
S560 S 0.63215 0.65303 0.96439 0.0
N561 N 0.66359 0.63547 0.03462 0.0
N562 N 0.61243 0.62253 0.89136 0.0
C563 C 0.63153 0.5961 0.92097 0.0
C564 C 0.65922 0.60297 1.00108 0.0
C565 C 1.0028 0.66487 0.98294 0.0
C566 C 1.02075 0.67659 0.08734 0.0
C567 C 1.00714 0.63234 0.92973 0.0
C568 C 0.02967 0.60913 0.97764 0.0
H569 H 0.98444 0.68092 0.94286 0.0
H570 H 0.99204 0.62507 0.85189 0.0
S571 S 0.08276 0.62583 0.25021 0.0
N572 N 0.06219 0.66105 0.23531 0.0
N573 N 0.07016 0.60073 0.13784 0.0
C574 C 0.04795 0.62049 0.08127 0.0
C575 C 0.04377 0.65378 0.13456 0.0
C576 C 0.95982 0.24251 0.36924 0.0
C577 C 0.9494 0.24758 0.24863 0.0
C578 C 0.9462 0.21694 0.43656 0.0
C579 C 0.92138 0.19642 0.38608 0.0
H580 H 0.98196 0.25453 0.40497 0.0
H581 H 0.95791 0.21059 0.52175 0.0
S582 S 0.87764 0.20743 0.09392 0.0
N583 N 0.90659 0.23654 0.0968 0.0
N584 N 0.88127 0.18781 0.22354 0.0
C585 C 0.90655 0.20528 0.27628 0.0
C586 C 0.92031 0.23148 0.20783 0.0
C587 C 0.37179 0.0623 0.33117 0.0
C588 C 0.34016 0.05273 0.29163 0.0
C589 C 0.39188 0.03953 0.38981 0.0
C590 C 0.38013 1.0071 0.41371 0.0
H591 H 0.38311 0.08463 0.29698 0.0
H592 H 0.41774 0.04619 0.39751 0.0
S593 S 0.2923 0.98072 0.40187 0.0
N594 N 0.29324 1.01623 0.32969 0.0
N595 N 0.33056 0.97437 0.44969 0.0
C596 C 0.34576 1.00203 0.40836 0.0
C597 C 0.32555 1.02489 0.34522 0.0
C598 C 0.52663 0.38013 0.35698 0.0
C599 C 0.54411 0.35339 0.30264 0.0
C600 C 0.5397 0.41225 0.34802 0.0
C601 C 0.57155 0.41658 0.29778 0.0
H602 H 0.50029 0.37771 0.3734 0.0
H603 H 0.52311 0.43314 0.36283 0.0
S604 S 0.63417 0.3504 0.24902 0.0
N605 N 0.59914 0.33037 0.27357 0.0
N606 N 0.62521 0.39048 0.26146 0.0
C607 C 0.59248 0.38876 0.2891 0.0
C608 C 0.57862 0.35648 0.29784 0.0
C609 C 0.21775 0.49661 0.55399 0.0
C610 C 0.2278 0.47805 0.45044 0.0
C611 C 0.191 0.48503 0.62243 0.0
C612 C 0.17053 0.46037 0.5669 0.0
H613 H 0.2276 0.52128 0.57299 0.0
H614 H 0.18159 0.50119 0.69476 0.0
S615 S 0.20311 0.39115 0.37686 0.0
N616 N 0.22856 0.42267 0.35421 0.0
N617 N 0.1766 0.40411 0.48262 0.0
C618 C 0.18864 0.43515 0.50635 0.0
C619 C 0.2165 0.44509 0.43743 0.0
C620 C 0.08304 0.85485 0.96979 0.0
C621 C 0.09847 0.8459 0.07878 0.0
C622 C 0.09955 0.87493 0.8872 0.0
C623 C 0.13197 0.88618 0.91132 0.0
H624 H 0.0571 0.84914 0.95426 0.0
H625 H 0.08595 0.88417 0.8099 0.0
S626 S 0.18419 0.86577 0.17637 0.0
N627 N 0.14868 0.84661 0.20063 0.0
N628 N 0.17998 0.88407 0.04439 0.0
C629 C 0.14869 0.8745 0.01366 0.0
C630 C 0.1318 0.85438 0.09806 0.0
C631 C 0.69428 0.03654 0.96218 0.0
C632 C 0.72542 0.04691 0.00485 0.0
C633 C 0.67306 0.05937 0.90886 0.0
C634 C 0.6834 0.09256 0.89144 0.0
H635 H 0.68395 1.01341 0.99281 0.0
H636 H 0.64744 0.05187 0.90002 0.0
S637 S 0.77006 0.12259 0.91066 0.0
N638 N 0.77065 0.08598 0.97546 0.0
N639 N 0.7316 0.12796 0.86323 0.0
C640 C 0.71758 0.09904 0.89852 0.0
C641 C 0.73877 0.07614 0.95729 0.0
C642 C 0.46351 0.75953 0.06763 0.0
C643 C 0.45568 0.77085 0.18596 0.0
C644 C 0.4572 0.72627 0.03411 0.0
C645 C 0.44072 0.70514 0.1155 0.0
H646 H 0.48157 0.7729 0.01477 0.0
H647 H 0.47022 0.71658 0.95514 0.0
S648 S 0.3909 0.73482 0.3794 0.0
N649 N 0.41445 0.7669 0.34521 0.0
N650 N 0.39914 0.70523 0.27643 0.0
C651 C 0.42173 0.72113 0.20735 0.0
C652 C 0.42941 0.7546 0.24307 0.0
C653 C 0.8274 0.46747 0.09893 0.0
C654 C 0.82283 0.4679 0.22563 0.0
C655 C 0.852 0.44733 0.04583 0.0
C656 C 0.87286 0.42815 0.11895 0.0
H657 H 0.81603 0.48635 0.04398 0.0
H658 H 0.8583 0.4509 0.95157 0.0
S659 S 0.86019 0.41035 0.44436 0.0
N660 N 0.83195 0.43866 0.41337 0.0
N661 N 0.8799 0.40248 0.31517 0.0
C662 C 0.8631 0.42267 0.23923 0.0
C663 C 0.83733 0.4423 0.29236 0.0
C664 C 1.00956 0.16644 0.99989 0.0
C665 C 1.02402 0.1963 0.95699 0.0
C666 C 1.00923 0.13595 0.93184 0.0
C667 C 0.02556 0.13187 0.81936 0.0
H668 H 0.99719 0.16666 0.08729 0.0
H669 H 0.99617 0.11499 0.96908 0.0
S670 S 0.06745 0.20064 0.65964 0.0
N671 N 0.05468 0.21881 0.78801 0.0
N672 N 0.05597 0.16119 0.6648 0.0
C673 C 0.04094 0.16093 0.77508 0.0
C674 C 0.04023 0.19274 0.84306 0.0
C675 C 0.38348 0.06878 0.77207 0.0
C676 C 0.37151 0.04584 0.85809 0.0
C677 C 0.41547 0.06528 0.71484 0.0
C678 C 0.43797 0.03945 0.74436 0.0
H679 H 0.36875 0.09053 0.75286 0.0
H680 H 0.42295 0.08353 0.64965 0.0
S681 S 0.41784 0.97066 0.95216 0.0
N682 N 0.38439 0.99425 0.95723 0.0
N683 N 0.44333 0.98872 0.8571 0.0
C684 C 0.42525 1.01554 0.82421 0.0
C685 C 0.39278 1.01856 0.87929 0.0
C686 C 0.55075 0.3953 0.83327 0.0
C687 C 0.52067 0.38489 0.88621 0.0
C688 C 0.55531 0.42814 0.79029 0.0
C689 C 0.5303 0.45284 0.7996 0.0
H690 H 0.57179 0.37857 0.83241 0.0
H691 H 0.57943 0.43465 0.75594 0.0
S692 S 0.44669 0.43865 0.93184 0.0
N693 N 0.46541 0.40239 0.9441 0.0
N694 N 0.47369 0.46325 0.86623 0.0
C695 C 0.4999 0.44242 0.85054 0.0
C696 C 0.49519 0.40893 0.89251 0.0
C697 C 0.17503 0.49078 0.01974 0.0
C698 C 0.19758 0.51738 0.04156 0.0
C699 C 0.14443 0.49473 0.95721 0.0
C700 C 0.13373 0.52565 0.91241 0.0
H701 H 0.18053 0.46658 0.05596 0.0
H702 H 0.12873 0.47309 0.94569 0.0
S703 S 0.18397 0.60335 0.93578 0.0
N704 N 0.20712 0.57584 0.00593 0.0
N705 N 0.15051 0.58318 0.88794 0.0
C706 C 0.1568 0.55216 0.92762 0.0
C707 C 0.18817 0.5481 0.992 0.0
C708 C 0.07196 0.91144 0.47093 0.0
C709 C 0.04735 0.88573 0.46679 0.0
C710 C 0.06815 0.94215 0.53614 0.0
C711 C 0.04043 0.94916 0.60945 0.0
H712 H 0.09509 0.90835 0.4227 0.0
H713 H 0.0876 0.96058 0.5301 0.0
S714 S 0.9735 0.88813 0.67 0.0
N715 N 0.99632 0.86877 0.56532 0.0
N716 N 0.99138 0.92458 0.69748 0.0
C717 C 1.01763 0.92251 0.6207 0.0
C718 C 1.02057 0.89153 0.54844 0.0
C719 C 0.67975 0.03161 0.52741 0.0
C720 C 0.69008 0.05249 0.43223 0.0
C721 C 0.64776 0.03491 0.58412 0.0
C722 C 0.62392 0.05848 0.54575 0.0
H723 H 0.69582 1.01154 0.55459 0.0
H724 H 0.6414 1.01832 0.65652 0.0
S725 S 0.63949 0.12207 0.31304 0.0
N726 N 0.67431 0.10061 0.31598 0.0
N727 N 0.61512 0.1051 0.41449 0.0
C728 C 0.63489 0.08056 0.45657 0.0
C729 C 0.66735 0.07792 0.40198 0.0
C730 C 0.55165 0.69239 0.35659 0.0
C731 C 0.5433 0.72084 0.42839 0.0
C732 C 0.55424 0.66039 0.40696 0.0
C733 C 0.54763 0.65497 0.53121 0.0
H734 H 0.55468 0.69464 0.25922 0.0
H735 H 0.55999 0.63947 0.34645 0.0
S736 S 0.5259 0.72149 0.75962 0.0
N737 N 0.52948 0.74149 0.63094 0.0
N738 N 0.53402 0.68205 0.7257 0.0
C739 C 0.54018 0.68351 0.60446 0.0
C740 C 0.53799 0.71608 0.55318 0.0
C741 C 0.89356 0.57617 0.47278 0.0
C742 C 0.86779 0.55435 0.50482 0.0
C743 C 0.9247 0.57641 0.53436 0.0
C744 C 0.93234 0.55417 0.62866 0.0
H745 H 0.89039 0.59185 0.39498 0.0
H746 H 0.94334 0.59348 0.50441 0.0
S747 S 0.87184 0.49469 0.75655 0.0
N748 N 0.85108 0.51233 0.6461 0.0
N749 N 0.90881 0.51219 0.75845 0.0
C750 C 0.90581 0.53388 0.66645 0.0
C751 C 0.87406 0.53406 0.60537 0.0
loop_
_geom_bond_atom_site_label_1
_geom_bond_atom_site_label_2
_geom_bond_distance
_geom_bond_site_symmetry_2
_ccdc_geom_bond_type
H0 C1 0.949 . S
C1 H0 0.949 . S
C1 C2 1.395 . S
C1 C3 1.391 . S
C2 C1 1.395 . S
C2 C5 1.390 . S
C3 C1 1.391 . S
C3 C7 1.387 . S
C3 C8 1.491 . S
H4 C5 0.950 . S
C5 C2 1.390 . S
C5 H4 0.950 . S
C5 C6 1.378 . S
C6 C5 1.378 . S
C6 C7 1.409 . S
C7 C3 1.387 . S
C7 C6 1.409 . S
C7 H9 0.951 . S
C8 C3 1.491 . S
C8 C10 1.382 . S
C8 C12 1.404 . S
H9 C7 0.951 . S
C10 C8 1.382 . S
C10 C11 1.390 . S
C10 H15 0.949 . S
C11 C10 1.390 . S
C11 C16 1.399 . S
C12 C8 1.404 . S
C12 H13 0.950 . S
C12 C14 1.375 . S
H13 C12 0.950 . S
C14 C12 1.375 . S
C14 C16 1.382 . S
C14 H18 0.950 . S
H15 C10 0.949 . S
C16 C11 1.399 . S
C16 C14 1.382 . S
C16 H17 0.952 . S
H17 C16 0.952 . S
H18 C14 0.950 . S
H19 C20 0.949 . S
C20 H19 0.949 . S
C20 C21 1.395 . S
C20 C22 1.391 . S
C21 C20 1.395 . S
C21 C24 1.390 . S
C22 C20 1.391 . S
C22 C26 1.387 . S
C22 C27 1.491 . S
H23 C24 0.950 . S
C24 C21 1.390 . S
C24 H23 0.950 . S
C24 C25 1.378 . S
C25 C24 1.378 . S
C25 C26 1.409 . S
C26 C22 1.387 . S
C26 C25 1.409 . S
C26 H28 0.951 . S
C27 C22 1.491 . S
C27 C29 1.382 . S
C27 C31 1.404 . S
H28 C26 0.951 . S
C29 C27 1.382 . S
C29 C30 1.390 . S
C29 H34 0.949 . S
C30 C29 1.390 . S
C30 C35 1.399 . S
C31 C27 1.404 . S
C31 H32 0.950 . S
C31 C33 1.375 . S
H32 C31 0.950 . S
C33 C31 1.375 . S
C33 C35 1.382 . S
C33 H37 0.950 . S
H34 C29 0.949 . S
C35 C30 1.399 . S
C35 C33 1.382 . S
C35 H36 0.952 . S
H36 C35 0.952 . S
H37 C33 0.950 . S
H38 C39 0.949 . S
C39 H38 0.949 . S
C39 C40 1.395 . S
C39 C41 1.391 . S
C40 C39 1.395 . S
C40 C43 1.390 . S
C41 C39 1.391 . S
C41 C45 1.387 . S
C41 C46 1.491 . S
H42 C43 0.950 . S
C43 C40 1.390 . S
C43 H42 0.950 . S
C43 C44 1.378 . S
C44 C43 1.378 . S
C44 C45 1.409 . S
C45 C41 1.387 . S
C45 C44 1.409 . S
C45 H47 0.951 . S
C46 C41 1.491 . S
C46 C48 1.382 . S
C46 C50 1.404 . S
H47 C45 0.951 . S
C48 C46 1.382 . S
C48 C49 1.390 . S
C48 H53 0.949 . S
C49 C48 1.390 . S
C49 C54 1.399 . S
C50 C46 1.404 . S
C50 H51 0.950 . S
C50 C52 1.375 . S
H51 C50 0.950 . S
C52 C50 1.375 . S
C52 C54 1.382 . S
C52 H56 0.950 . S
H53 C48 0.949 . S
C54 C49 1.399 . S
C54 C52 1.382 . S
C54 H55 0.952 . S
H55 C54 0.952 . S
H56 C52 0.950 . S
H57 C58 0.949 . S
C58 H57 0.949 . S
C58 C59 1.395 . S
C58 C60 1.391 . S
C59 C58 1.395 . S
C59 C62 1.390 . S
C60 C58 1.391 . S
C60 C64 1.387 . S
C60 C65 1.491 . S
H61 C62 0.950 . S
C62 C59 1.390 . S
C62 H61 0.950 . S
C62 C63 1.378 . S
C63 C62 1.378 . S
C63 C64 1.409 . S
C64 C60 1.387 . S
C64 C63 1.409 . S
C64 H66 0.951 . S
C65 C60 1.491 . S
C65 C67 1.382 . S
C65 C69 1.404 . S
H66 C64 0.951 . S
C67 C65 1.382 . S
C67 C68 1.390 . S
C67 H72 0.949 . S
C68 C67 1.390 . S
C68 C73 1.399 . S
C69 C65 1.404 . S
C69 H70 0.950 . S
C69 C71 1.375 . S
H70 C69 0.950 . S
C71 C69 1.375 . S
C71 C73 1.382 . S
C71 H75 0.950 . S
H72 C67 0.949 . S
C73 C68 1.399 . S
C73 C71 1.382 . S
C73 H74 0.952 . S
H74 C73 0.952 . S
H75 C71 0.950 . S
H76 C77 0.949 . S
C77 H76 0.949 . S
C77 C78 1.395 . S
C77 C79 1.391 1_554 S
C78 C77 1.395 . S
C78 C81 1.390 1_554 S
C79 C77 1.391 1_556 S
C79 C83 1.387 . S
C79 C84 1.491 . S
H80 C81 0.950 . S
C81 C78 1.390 1_556 S
C81 H80 0.950 . S
C81 C82 1.378 . S
C82 C81 1.378 . S
C82 C83 1.409 . S
C83 C79 1.387 . S
C83 C82 1.409 . S
C83 H85 0.951 . S
C84 C79 1.491 . S
C84 C86 1.382 1_556 S
C84 C88 1.404 . S
H85 C83 0.951 . S
C86 C84 1.382 1_554 S
C86 C87 1.390 . S
C86 H91 0.949 . S
C87 C86 1.390 . S
C87 C92 1.399 1_554 S
C88 C84 1.404 . S
C88 H89 0.950 . S
C88 C90 1.375 . S
H89 C88 0.950 . S
C90 C88 1.375 . S
C90 C92 1.382 . S
C90 H94 0.950 . S
H91 C86 0.949 . S
C92 C87 1.399 1_556 S
C92 C90 1.382 . S
C92 H93 0.952 . S
H93 C92 0.952 . S
H94 C90 0.950 . S
H95 C96 0.949 . S
C96 H95 0.949 . S
C96 C97 1.395 . S
C96 C98 1.391 1_554 S
C97 C96 1.395 . S
C97 C100 1.390 1_554 S
C98 C96 1.391 1_556 S
C98 C102 1.387 . S
C98 C103 1.491 . S
H99 C100 0.950 . S
C100 C97 1.390 1_556 S
C100 H99 0.950 . S
C100 C101 1.378 . S
C101 C100 1.378 . S
C101 C102 1.409 . S
C102 C98 1.387 . S
C102 C101 1.409 . S
C102 H104 0.951 . S
C103 C98 1.491 . S
C103 C105 1.382 1_556 S
C103 C107 1.404 . S
H104 C102 0.951 . S
C105 C103 1.382 1_554 S
C105 C106 1.390 . S
C105 H110 0.949 . S
C106 C105 1.390 . S
C106 C111 1.399 1_554 S
C107 C103 1.404 . S
C107 H108 0.950 . S
C107 C109 1.375 . S
H108 C107 0.950 . S
C109 C107 1.375 . S
C109 C111 1.382 . S
C109 H113 0.950 1_455 S
H110 C105 0.949 . S
C111 C106 1.399 1_556 S
C111 C109 1.382 . S
C111 H112 0.952 . S
H112 C111 0.952 . S
H113 C109 0.950 1_655 S
H114 C115 0.949 . S
C115 H114 0.949 . S
C115 C116 1.395 . S
C115 C117 1.391 1_554 S
C116 C115 1.395 . S
C116 C119 1.390 1_554 S
C117 C115 1.391 1_556 S
C117 C121 1.387 . S
C117 C122 1.491 . S
H118 C119 0.950 . S
C119 C116 1.390 1_556 S
C119 H118 0.950 . S
C119 C120 1.378 . S
C120 C119 1.378 . S
C120 C121 1.409 . S
C121 C117 1.387 . S
C121 C120 1.409 . S
C121 H123 0.951 . S
C122 C117 1.491 . S
C122 C124 1.382 1_556 S
C122 C126 1.404 . S
H123 C121 0.951 . S
C124 C122 1.382 1_554 S
C124 C125 1.390 . S
C124 H129 0.949 . S
C125 C124 1.390 . S
C125 C130 1.399 1_554 S
C126 C122 1.404 . S
C126 H127 0.950 . S
C126 C128 1.375 . S
H127 C126 0.950 . S
C128 C126 1.375 . S
C128 C130 1.382 . S
C128 H132 0.950 1_545 S
H129 C124 0.949 . S
C130 C125 1.399 1_556 S
C130 C128 1.382 . S
C130 H131 0.952 . S
H131 C130 0.952 . S
H132 C128 0.950 1_565 S
H133 C134 0.949 . S
C134 H133 0.949 . S
C134 C135 1.395 . S
C134 C136 1.391 1_554 S
C135 C134 1.395 . S
C135 C138 1.390 1_554 S
C136 C134 1.391 1_556 S
C136 C140 1.387 . S
C136 C141 1.491 . S
H137 C138 0.950 . S
C138 C135 1.390 1_556 S
C138 H137 0.950 . S
C138 C139 1.378 . S
C139 C138 1.378 . S
C139 C140 1.409 . S
C140 C136 1.387 . S
C140 C139 1.409 . S
C140 H142 0.951 . S
C141 C136 1.491 . S
C141 C143 1.382 1_556 S
C141 C145 1.404 . S
H142 C140 0.951 . S
C143 C141 1.382 1_554 S
C143 C144 1.390 . S
C143 H148 0.949 . S
C144 C143 1.390 . S
C144 C149 1.399 1_554 S
C145 C141 1.404 . S
C145 H146 0.950 . S
C145 C147 1.375 . S
H146 C145 0.950 . S
C147 C145 1.375 . S
C147 C149 1.382 . S
C147 H151 0.950 . S
H148 C143 0.949 . S
C149 C144 1.399 1_556 S
C149 C147 1.382 . S
C149 H150 0.952 . S
H150 C149 0.952 . S
H151 C147 0.950 . S
Eu152 N183 2.657 1_566 S
Eu152 N190 2.609 1_565 S
Eu152 O196 2.558 . S
Eu152 O197 2.612 1_455 S
Eu152 O199 2.345 1_455 S
Eu152 O200 2.563 . S
Eu152 O201 2.419 . S
Eu152 O203 2.380 1_565 S
Eu152 O204 2.432 . S
Eu152 C216 2.848 . S
C153 C156 1.426 1_545 S
C153 C157 1.410 1_545 S
C153 N160 1.381 . S
C154 C156 1.420 . S
C154 C158 1.423 . S
C154 C166 1.392 . S
C155 C157 1.420 . S
C155 C158 1.351 . S
C155 H178 0.931 . S
C156 C153 1.426 1_565 S
C156 C154 1.420 . S
C156 N164 1.362 . S
C157 C153 1.410 1_565 S
C157 C155 1.420 . S
C157 C162 1.395 1_565 S
C158 C154 1.423 . S
C158 C155 1.351 . S
C158 H170 0.930 . S
C159 C161 1.400 . S
C159 C162 1.386 . S
C159 H171 0.930 . S
N160 C153 1.381 . S
N160 C161 1.321 . S
N160 Eu163 2.609 . S
C161 C159 1.400 . S
C161 N160 1.321 . S
C161 H168 0.930 . S
C162 C157 1.395 1_545 S
C162 C159 1.386 . S
C162 H181 0.930 . S
Eu163 N160 2.609 . S
Eu163 N164 2.657 1_545 S
Eu163 O197 2.380 1_545 S
Eu163 O198 2.432 . S
Eu163 O202 2.558 . S
Eu163 O203 2.612 1_655 S
Eu163 O205 2.339 1_655 S
Eu163 O206 2.563 1_655 S
Eu163 O207 2.419 . S
Eu163 C227 2.848 . S
N164 C156 1.362 . S
N164 Eu163 2.657 1_565 S
N164 C165 1.334 1_655 S
C165 N164 1.334 1_455 S
C165 C167 1.413 . S
C165 H172 0.929 . S
C166 C154 1.392 . S
C166 C167 1.367 1_655 S
C166 H174 0.930 . S
C167 C165 1.413 . S
C167 C166 1.367 1_455 S
C167 H169 0.930 . S
H168 C161 0.930 . S
H169 C167 0.930 . S
H170 C158 0.930 . S
H171 C159 0.930 . S
H172 C165 0.929 . S
H173 C187 0.930 1_655 S
H174 C166 0.930 . S
H175 C193 0.930 . S
H176 C184 0.929 1_655 S
H177 C191 0.930 . S
H178 C155 0.931 . S
H179 C185 0.930 . S
H180 C218 0.930 . S
H181 C162 0.930 . S
H182 C217 0.931 . S
N183 Eu152 2.657 1_544 S
N183 C184 1.334 . S
N183 C188 1.362 . S
C184 H176 0.929 1_455 S
C184 N183 1.334 . S
C184 C187 1.413 . S
C185 H179 0.930 . S
C185 C186 1.392 . S
C185 C187 1.367 . S
C186 C185 1.392 . S
C186 C188 1.420 . S
C186 C218 1.423 . S
C187 H173 0.930 1_455 S
C187 C184 1.413 . S
C187 C185 1.367 . S
C188 N183 1.362 . S
C188 C186 1.420 . S
C188 C192 1.429 . S
H189 C194 0.930 . S
N190 Eu152 2.609 1_545 S
N190 C192 1.377 1_556 S
N190 C193 1.321 1_545 S
C191 H177 0.930 . S
C191 C193 1.400 . S
C191 C194 1.386 1_566 S
C192 C188 1.429 . S
C192 N190 1.377 1_554 S
C192 C195 1.411 . S
C193 H175 0.930 . S
C193 N190 1.321 1_565 S
C193 C191 1.400 . S
C194 H189 0.930 . S
C194 C191 1.386 1_544 S
C194 C195 1.395 . S
C195 C192 1.411 . S
C195 C194 1.395 . S
C195 C217 1.420 . S
O196 Eu152 2.558 . S
O196 C216 1.257 . S
O197 Eu152 2.612 1_655 S
O197 Eu163 2.380 1_565 S
O197 C208 1.276 . S
O198 Eu163 2.432 . S
O198 C215 1.264 . S
O199 Eu152 2.345 1_655 S
O199 C215 1.245 1_565 S
O200 Eu152 2.563 . S
O200 C208 1.235 1_455 S
O201 Eu152 2.419 . S
O201 C216 1.249 . S
O202 Eu163 2.558 . S
O202 C227 1.257 . S
O203 Eu152 2.380 1_545 S
O203 Eu163 2.612 1_455 S
O203 C219 1.276 . S
O204 Eu152 2.432 . S
O204 C226 1.264 1_565 S
O205 Eu163 2.339 1_455 S
O205 C226 1.254 . S
O206 Eu163 2.563 1_455 S
O206 C219 1.235 . S
O207 Eu163 2.419 . S
O207 C227 1.249 . S
C208 O197 1.276 . S
C208 O200 1.235 1_655 S
C209 C211 1.393 . S
C209 C213 1.395 . S
C209 C216 1.492 1_554 S
C210 C211 1.392 . S
C210 C212 1.386 . S
C211 C209 1.393 . S
C211 C210 1.392 . S
C211 H228 0.930 . S
C212 C210 1.386 . S
C212 C214 1.395 . S
C212 H229 0.930 . S
C213 C209 1.395 . S
C213 C214 1.379 . S
C213 H230 0.930 . S
C214 C212 1.395 . S
C214 C213 1.379 . S
C214 H231 0.930 . S
C215 O198 1.264 . S
C215 O199 1.245 1_545 S
C216 Eu152 2.848 . S
C216 O196 1.257 . S
C216 O201 1.249 . S
C216 C209 1.492 1_556 S
C217 H182 0.931 . S
C217 C195 1.420 . S
C217 C218 1.351 . S
C218 H180 0.930 . S
C218 C186 1.423 . S
C218 C217 1.351 . S
C219 O203 1.276 . S
C219 O206 1.235 . S
C220 C221 1.393 . S
C220 C224 1.395 . S
C220 C227 1.492 . S
C221 C220 1.393 . S
C221 C222 1.392 . S
C221 H232 0.930 1_655 S
C222 C221 1.392 . S
C222 C223 1.386 . S
C223 C222 1.386 . S
C223 C225 1.395 . S
C223 H233 0.930 . S
C224 C220 1.395 . S
C224 C225 1.379 . S
C224 H234 0.930 . S
C225 C223 1.395 . S
C225 C224 1.379 . S
C225 H235 0.930 . S
C226 O204 1.264 1_545 S
C226 O205 1.254 . S
C227 Eu163 2.848 . S
C227 O202 1.257 . S
C227 O207 1.249 . S
C227 C220 1.492 . S
H228 C211 0.930 . S
H229 C212 0.930 . S
H230 C213 0.930 . S
H231 C214 0.930 . S
H232 C221 0.930 1_455 S
H233 C223 0.930 . S
H234 C224 0.930 . S
H235 C225 0.930 . S
Eu236 N267 2.657 1_556 S
Eu236 N274 2.609 . S
Eu236 O280 2.558 . S
Eu236 O281 2.612 1_545 S
Eu236 O283 2.339 1_545 S
Eu236 O284 2.563 . S
Eu236 O285 2.419 . S
Eu236 O287 2.380 . S
Eu236 O288 2.432 . S
Eu236 C300 2.848 . S
C237 C240 1.429 . S
C237 C241 1.411 . S
C237 N244 1.377 . S
C238 C240 1.420 . S
C238 C242 1.423 . S
C238 C250 1.392 . S
C239 C241 1.420 . S
C239 C242 1.351 . S
C239 H262 0.931 . S
C240 C237 1.429 . S
C240 C238 1.420 . S
C240 N248 1.362 . S
C241 C237 1.411 . S
C241 C239 1.420 . S
C241 C246 1.395 . S
C242 C238 1.423 . S
C242 C239 1.351 . S
C242 H254 0.930 . S
C243 C245 1.400 . S
C243 C246 1.386 . S
C243 H255 0.930 . S
N244 C237 1.377 . S
N244 C245 1.321 . S
N244 Eu247 2.609 . S
C245 C243 1.400 . S
C245 N244 1.321 . S
C245 H252 0.930 . S
C246 C241 1.395 . S
C246 C243 1.386 . S
C246 H265 0.930 . S
Eu247 N244 2.609 . S
Eu247 N248 2.657 . S
Eu247 O281 2.380 . S
Eu247 O282 2.432 . S
Eu247 O286 2.558 . S
Eu247 O287 2.612 1_565 S
Eu247 O289 2.339 1_565 S
Eu247 O290 2.563 1_565 S
Eu247 O291 2.419 . S
Eu247 C311 2.848 . S
N248 C240 1.362 . S
N248 Eu247 2.657 . S
N248 C249 1.334 1_565 S
C249 N248 1.334 1_545 S
C249 C251 1.413 . S
C249 H256 0.929 . S
C250 C238 1.392 . S
C250 C251 1.367 1_565 S
C250 H258 0.930 . S
C251 C249 1.413 . S
C251 C250 1.367 1_545 S
C251 H253 0.930 . S
H252 C245 0.930 . S
H253 C251 0.930 . S
H254 C242 0.930 . S
H255 C243 0.930 . S
H256 C249 0.929 . S
H257 C271 0.930 1_565 S
H258 C250 0.930 . S
H259 C277 0.930 . S
H260 C268 0.929 1_565 S
H261 C275 0.930 . S
H262 C239 0.931 . S
H263 C269 0.930 . S
H264 C302 0.930 . S
H265 C246 0.930 . S
H266 C301 0.931 . S
N267 Eu236 2.657 1_554 S
N267 C268 1.334 . S
N267 C272 1.362 . S
C268 H260 0.929 1_545 S
C268 N267 1.334 . S
C268 C271 1.413 . S
C269 H263 0.930 . S
C269 C270 1.392 . S
C269 C271 1.367 . S
C270 C269 1.392 . S
C270 C272 1.420 . S
C270 C302 1.423 . S
C271 H257 0.930 1_545 S
C271 C268 1.413 . S
C271 C269 1.367 . S
C272 N267 1.362 . S
C272 C270 1.420 . S
C272 C276 1.429 . S
H273 C278 0.930 . S
N274 Eu236 2.609 . S
N274 C276 1.377 1_556 S
N274 C277 1.321 . S
C275 H261 0.930 . S
C275 C277 1.400 . S
C275 C278 1.386 1_556 S
C276 C272 1.429 . S
C276 N274 1.377 1_554 S
C276 C279 1.411 . S
C277 H259 0.930 . S
C277 N274 1.321 . S
C277 C275 1.400 . S
C278 H273 0.930 . S
C278 C275 1.386 1_554 S
C278 C279 1.395 . S
C279 C276 1.411 . S
C279 C278 1.395 . S
C279 C301 1.420 . S
O280 Eu236 2.558 . S
O280 C300 1.257 . S
O281 Eu236 2.612 1_565 S
O281 Eu247 2.380 . S
O281 C292 1.276 . S
O282 Eu247 2.432 . S
O282 C299 1.264 . S
O283 Eu236 2.339 1_565 S
O283 C299 1.254 . S
O284 Eu236 2.563 . S
O284 C292 1.234 1_545 S
O285 Eu236 2.419 . S
O285 C300 1.249 . S
O286 Eu247 2.558 . S
O286 C311 1.257 . S
O287 Eu236 2.380 . S
O287 Eu247 2.612 1_545 S
O287 C303 1.276 . S
O288 Eu236 2.432 . S
O288 C310 1.264 . S
O289 Eu247 2.339 1_545 S
O289 C310 1.254 . S
O290 Eu247 2.563 1_545 S
O290 C303 1.235 . S
O291 Eu247 2.419 . S
O291 C311 1.249 . S
C292 O281 1.276 . S
C292 O284 1.234 1_565 S
C293 C295 1.393 . S
C293 C297 1.395 . S
C293 C300 1.492 1_554 S
C294 C295 1.392 . S
C294 C296 1.386 . S
C295 C293 1.393 . S
C295 C294 1.392 . S
C295 H312 0.930 . S
C296 C294 1.386 . S
C296 C298 1.395 . S
C296 H313 0.930 . S
C297 C293 1.395 . S
C297 C298 1.379 . S
C297 H314 0.930 . S
C298 C296 1.395 . S
C298 C297 1.379 . S
C298 H315 0.930 . S
C299 O282 1.264 . S
C299 O283 1.254 . S
C300 Eu236 2.848 . S
C300 O280 1.257 . S
C300 O285 1.249 . S
C300 C293 1.492 1_556 S
C301 H266 0.931 . S
C301 C279 1.420 . S
C301 C302 1.351 . S
C302 H264 0.930 . S
C302 C270 1.423 . S
C302 C301 1.351 . S
C303 O287 1.276 . S
C303 O290 1.235 . S
C304 C305 1.393 . S
C304 C308 1.395 . S
C304 C311 1.492 . S
C305 C304 1.393 . S
C305 C306 1.392 . S
C305 H316 0.930 1_565 S
C306 C305 1.392 . S
C306 C307 1.386 . S
C307 C306 1.386 . S
C307 C309 1.395 . S
C307 H317 0.930 . S
C308 C304 1.395 . S
C308 C309 1.379 . S
C308 H318 0.930 . S
C309 C307 1.395 . S
C309 C308 1.379 . S
C309 H319 0.930 . S
C310 O288 1.264 . S
C310 O289 1.254 . S
C311 Eu247 2.848 . S
C311 O286 1.257 . S
C311 O291 1.249 . S
C311 C304 1.492 . S
H312 C295 0.930 . S
H313 C296 0.930 . S
H314 C297 0.930 . S
H315 C298 0.930 . S
H316 C305 0.930 1_545 S
H317 C307 0.930 . S
H318 C308 0.930 . S
H319 C309 0.930 . S
Eu320 N351 2.657 . S
Eu320 N358 2.609 . S
Eu320 O364 2.558 . S
Eu320 O365 2.612 . S
Eu320 O367 2.339 . S
Eu320 O368 2.563 . S
Eu320 O369 2.419 . S
Eu320 O371 2.380 . S
Eu320 O372 2.432 . S
Eu320 C384 2.848 . S
C321 C324 1.429 . S
C321 C325 1.411 . S
C321 N328 1.377 . S
C322 C324 1.420 . S
C322 C326 1.423 . S
C322 C334 1.392 . S
C323 C325 1.420 . S
C323 C326 1.351 . S
C323 H346 0.931 . S
C324 C321 1.429 . S
C324 C322 1.420 . S
C324 N332 1.362 . S
C325 C321 1.411 . S
C325 C323 1.420 . S
C325 C330 1.395 1_556 S
C326 C322 1.423 . S
C326 C323 1.351 . S
C326 H338 0.930 . S
C327 C329 1.400 . S
C327 C330 1.386 . S
C327 H339 0.930 . S
N328 C321 1.377 . S
N328 C329 1.321 1_556 S
N328 Eu331 2.609 . S
C329 C327 1.400 . S
C329 N328 1.321 1_554 S
C329 H336 0.930 . S
C330 C325 1.395 1_554 S
C330 C327 1.386 . S
C330 H349 0.930 . S
Eu331 N328 2.609 . S
Eu331 N332 2.657 . S
Eu331 O365 2.380 . S
Eu331 O366 2.432 . S
Eu331 O370 2.558 1_556 S
Eu331 O371 2.612 . S
Eu331 O373 2.339 . S
Eu331 O374 2.563 . S
Eu331 O375 2.419 . S
Eu331 C395 2.848 1_556 S
N332 C324 1.362 . S
N332 Eu331 2.657 . S
N332 C333 1.334 . S
C333 N332 1.334 . S
C333 C335 1.413 . S
C333 H340 0.929 . S
C334 C322 1.392 . S
C334 C335 1.367 . S
C334 H342 0.930 . S
C335 C333 1.413 . S
C335 C334 1.367 . S
C335 H337 0.930 . S
H336 C329 0.930 . S
H337 C335 0.930 . S
H338 C326 0.930 . S
H339 C327 0.930 . S
H340 C333 0.929 . S
H341 C355 0.930 . S
H342 C334 0.930 . S
H343 C361 0.930 . S
H344 C352 0.929 . S
H345 C359 0.930 . S
H346 C323 0.931 . S
H347 C353 0.930 . S
H348 C386 0.930 . S
H349 C330 0.930 . S
H350 C385 0.931 . S
N351 Eu320 2.657 . S
N351 C352 1.334 . S
N351 C356 1.362 . S
C352 H344 0.929 . S
C352 N351 1.334 . S
C352 C355 1.413 . S
C353 H347 0.930 . S
C353 C354 1.392 . S
C353 C355 1.367 . S
C354 C353 1.392 . S
C354 C356 1.420 . S
C354 C386 1.423 . S
C355 H341 0.930 . S
C355 C352 1.413 . S
C355 C353 1.367 . S
C356 N351 1.362 . S
C356 C354 1.420 . S
C356 C360 1.429 . S
H357 C362 0.930 . S
N358 Eu320 2.609 . S
N358 C360 1.377 . S
N358 C361 1.321 . S
C359 H345 0.930 . S
C359 C361 1.400 . S
C359 C362 1.386 . S
C360 C356 1.429 . S
C360 N358 1.377 . S
C360 C363 1.411 . S
C361 H343 0.930 . S
C361 N358 1.321 . S
C361 C359 1.400 . S
C362 H357 0.930 . S
C362 C359 1.386 . S
C362 C363 1.395 . S
C363 C360 1.411 . S
C363 C362 1.395 . S
C363 C385 1.420 . S
O364 Eu320 2.558 . S
O364 C384 1.257 . S
O365 Eu320 2.612 . S
O365 Eu331 2.380 . S
O365 C376 1.276 . S
O366 Eu331 2.432 . S
O366 C383 1.264 . S
O367 Eu320 2.339 . S
O367 C383 1.254 . S
O368 Eu320 2.563 . S
O368 C376 1.235 . S
O369 Eu320 2.419 . S
O369 C384 1.249 . S
O370 Eu331 2.558 1_554 S
O370 C395 1.257 . S
O371 Eu320 2.380 . S
O371 Eu331 2.612 . S
O371 C387 1.276 . S
O372 Eu320 2.432 . S
O372 C394 1.264 . S
O373 Eu331 2.339 . S
O373 C394 1.254 . S
O374 Eu331 2.563 . S
O374 C387 1.235 . S
O375 Eu331 2.419 . S
O375 C395 1.249 1_556 S
C376 O365 1.276 . S
C376 O368 1.235 . S
C377 C379 1.393 . S
C377 C381 1.395 . S
C377 C384 1.492 . S
C378 C379 1.392 . S
C378 C380 1.386 . S
C379 C377 1.393 . S
C379 C378 1.392 . S
C379 H396 0.930 . S
C380 C378 1.386 . S
C380 C382 1.395 . S
C380 H397 0.930 . S
C381 C377 1.395 . S
C381 C382 1.379 . S
C381 H398 0.930 . S
C382 C380 1.395 . S
C382 C381 1.379 . S
C382 H399 0.930 1_554 S
C383 O366 1.264 . S
C383 O367 1.254 . S
C384 Eu320 2.848 . S
C384 O364 1.257 . S
C384 O369 1.249 . S
C384 C377 1.492 . S
C385 H350 0.931 . S
C385 C363 1.420 . S
C385 C386 1.351 . S
C386 H348 0.930 . S
C386 C354 1.423 . S
C386 C385 1.351 . S
C387 O371 1.276 . S
C387 O374 1.235 . S
C388 C389 1.393 . S
C388 C392 1.395 . S
C388 C395 1.492 . S
C389 C388 1.393 . S
C389 C390 1.392 . S
C389 H400 0.930 . S
C390 C389 1.392 . S
C390 C391 1.386 . S
C391 C390 1.386 . S
C391 C393 1.395 . S
C391 H401 0.930 . S
C392 C388 1.395 . S
C392 C393 1.379 . S
C392 H402 0.930 . S
C393 C391 1.395 . S
C393 C392 1.379 . S
C393 H403 0.930 . S
C394 O372 1.264 . S
C394 O373 1.254 . S
C395 Eu331 2.848 1_554 S
C395 O370 1.257 . S
C395 O375 1.249 1_554 S
C395 C388 1.492 . S
H396 C379 0.930 . S
H397 C380 0.930 . S
H398 C381 0.930 . S
H399 C382 0.930 1_556 S
H400 C389 0.930 . S
H401 C391 0.930 . S
H402 C392 0.930 . S
H403 C393 0.930 . S
Eu404 N435 2.657 . S
Eu404 N442 2.609 . S
Eu404 O448 2.558 . S
Eu404 O449 2.612 . S
Eu404 O451 2.339 . S
Eu404 O452 2.563 . S
Eu404 O453 2.419 . S
Eu404 O455 2.380 . S
Eu404 O456 2.432 1_455 S
Eu404 C468 2.848 . S
C405 C408 1.429 . S
C405 C409 1.411 . S
C405 N412 1.371 1_655 S
C406 C408 1.420 . S
C406 C410 1.423 . S
C406 C418 1.392 . S
C407 C409 1.420 . S
C407 C410 1.351 . S
C407 H430 0.931 . S
C408 C405 1.429 . S
C408 C406 1.420 . S
C408 N416 1.362 . S
C409 C405 1.411 . S
C409 C407 1.420 . S
C409 C414 1.395 1_656 S
C410 C406 1.423 . S
C410 C407 1.351 . S
C410 H422 0.930 . S
C411 C413 1.400 . S
C411 C414 1.386 . S
C411 H423 0.930 . S
N412 C405 1.371 1_455 S
N412 C413 1.329 1_556 S
N412 Eu415 2.606 1_455 S
C413 C411 1.400 . S
C413 N412 1.329 1_554 S
C413 H420 0.930 . S
C414 C409 1.395 1_454 S
C414 C411 1.386 . S
C414 H433 0.930 . S
Eu415 N412 2.606 1_655 S
Eu415 N416 2.657 . S
Eu415 O449 2.380 1_655 S
Eu415 O450 2.432 1_655 S
Eu415 O454 2.558 1_556 S
Eu415 O455 2.612 1_655 S
Eu415 O457 2.339 . S
Eu415 O458 2.563 . S
Eu415 O459 2.419 . S
Eu415 C479 2.848 1_556 S
N416 C408 1.362 . S
N416 Eu415 2.657 . S
N416 C417 1.334 . S
C417 N416 1.334 . S
C417 C419 1.413 . S
C417 H424 0.929 . S
C418 C406 1.392 . S
C418 C419 1.367 . S
C418 H426 0.930 . S
C419 C417 1.413 . S
C419 C418 1.367 . S
C419 H421 0.930 . S
H420 C413 0.930 . S
H421 C419 0.930 . S
H422 C410 0.930 . S
H423 C411 0.930 . S
H424 C417 0.929 . S
H425 C439 0.930 . S
H426 C418 0.930 . S
H427 C445 0.930 . S
H428 C436 0.929 . S
H429 C443 0.930 . S
H430 C407 0.931 . S
H431 C437 0.930 . S
H432 C470 0.930 . S
H433 C414 0.930 . S
H434 C469 0.931 . S
N435 Eu404 2.657 . S
N435 C436 1.334 . S
N435 C440 1.362 . S
C436 H428 0.929 . S
C436 N435 1.334 . S
C436 C439 1.413 . S
C437 H431 0.930 . S
C437 C438 1.392 . S
C437 C439 1.367 . S
C438 C437 1.392 . S
C438 C440 1.420 . S
C438 C470 1.423 . S
C439 H425 0.930 . S
C439 C436 1.413 . S
C439 C437 1.367 . S
C440 N435 1.362 . S
C440 C438 1.420 . S
C440 C444 1.429 . S
H441 C446 0.930 . S
N442 Eu404 2.609 . S
N442 C444 1.377 . S
N442 C445 1.321 1_455 S
C443 H429 0.930 . S
C443 C445 1.400 . S
C443 C446 1.386 1_655 S
C444 C440 1.429 . S
C444 N442 1.377 . S
C444 C447 1.411 . S
C445 H427 0.930 . S
C445 N442 1.321 1_655 S
C445 C443 1.400 . S
C446 H441 0.930 . S
C446 C443 1.386 1_455 S
C446 C447 1.395 . S
C447 C444 1.411 . S
C447 C446 1.395 . S
C447 C469 1.420 . S
O448 Eu404 2.558 . S
O448 C468 1.257 . S
O449 Eu404 2.612 . S
O449 Eu415 2.380 1_455 S
O449 C460 1.276 . S
O450 Eu415 2.432 1_455 S
O450 C467 1.264 . S
O451 Eu404 2.339 . S
O451 C467 1.254 . S
O452 Eu404 2.563 . S
O452 C460 1.235 . S
O453 Eu404 2.419 . S
O453 C468 1.249 . S
O454 Eu415 2.558 1_554 S
O454 C479 1.257 . S
O455 Eu404 2.380 . S
O455 Eu415 2.612 1_455 S
O455 C471 1.276 1_455 S
O456 Eu404 2.432 1_655 S
O456 C478 1.264 . S
O457 Eu415 2.339 . S
O457 C478 1.254 . S
O458 Eu415 2.563 . S
O458 C471 1.235 . S
O459 Eu415 2.419 . S
O459 C479 1.249 1_556 S
C460 O449 1.276 . S
C460 O452 1.235 . S
C461 C463 1.393 . S
C461 C465 1.395 . S
C461 C468 1.492 . S
C462 C463 1.392 . S
C462 C464 1.386 . S
C463 C461 1.393 . S
C463 C462 1.392 . S
C463 H480 0.930 . S
C464 C462 1.386 . S
C464 C466 1.395 . S
C464 H481 0.930 . S
C465 C461 1.395 . S
C465 C466 1.379 . S
C465 H482 0.930 . S
C466 C464 1.395 . S
C466 C465 1.379 . S
C466 H483 0.930 1_554 S
C467 O450 1.264 . S
C467 O451 1.254 . S
C468 Eu404 2.848 . S
C468 O448 1.257 . S
C468 O453 1.249 . S
C468 C461 1.492 . S
C469 H434 0.931 . S
C469 C447 1.420 . S
C469 C470 1.351 . S
C470 H432 0.930 . S
C470 C438 1.423 . S
C470 C469 1.351 . S
C471 O455 1.276 1_655 S
C471 O458 1.235 . S
C472 C473 1.393 . S
C472 C476 1.395 . S
C472 C479 1.492 . S
C473 C472 1.393 . S
C473 C474 1.392 . S
C473 H484 0.930 . S
C474 C473 1.392 . S
C474 C475 1.386 . S
C475 C474 1.386 . S
C475 C477 1.395 . S
C475 H485 0.930 . S
C476 C472 1.395 . S
C476 C477 1.379 . S
C476 H486 0.930 . S
C477 C475 1.395 . S
C477 C476 1.379 . S
C477 H487 0.930 . S
C478 O456 1.264 . S
C478 O457 1.254 . S
C479 Eu415 2.848 1_554 S
C479 O454 1.257 . S
C479 O459 1.249 1_554 S
C479 C472 1.492 . S
H480 C463 0.930 . S
H481 C464 0.930 . S
H482 C465 0.930 . S
H483 C466 0.930 1_556 S
H484 C473 0.930 . S
H485 C475 0.930 . S
H486 C476 0.930 . S
H487 C477 0.930 . S
C488 C489 1.369 . S
C488 C490 1.419 . S
C488 H492 0.930 . S
C489 C488 1.369 . S
C489 C498 1.429 . S
C490 C488 1.419 . S
C490 C491 1.363 . S
C490 H493 0.929 . S
C491 C490 1.363 . S
C491 C497 1.428 . S
H492 C488 0.930 . S
H493 C490 0.929 . S
S494 N495 1.613 . S
S494 N496 1.610 . S
N495 S494 1.613 . S
N495 C498 1.350 1_565 S
N496 S494 1.610 . S
N496 C497 1.351 1_565 S
C497 C491 1.428 . S
C497 N496 1.351 1_545 S
C497 C498 1.434 . S
C498 C489 1.429 . S
C498 N495 1.350 1_545 S
C498 C497 1.434 . S
C499 C500 1.369 . S
C499 C501 1.419 . S
C499 H503 0.930 . S
C500 C499 1.369 . S
C500 C509 1.429 . S
C501 C499 1.419 . S
C501 C502 1.363 . S
C501 H504 0.929 . S
C502 C501 1.363 . S
C502 C508 1.428 . S
H503 C499 0.930 . S
H504 C501 0.929 . S
S505 N506 1.613 . S
S505 N507 1.610 . S
N506 S505 1.613 . S
N506 C509 1.350 . S
N507 S505 1.610 . S
N507 C508 1.351 . S
C508 C502 1.428 . S
C508 N507 1.351 . S
C508 C509 1.434 . S
C509 C500 1.429 . S
C509 N506 1.350 . S
C509 C508 1.434 . S
C510 C511 1.369 . S
C510 C512 1.419 . S
C510 H514 0.930 . S
C511 C510 1.369 . S
C511 C520 1.429 . S
C512 C510 1.419 . S
C512 C513 1.363 . S
C512 H515 0.929 . S
C513 C512 1.363 . S
C513 C519 1.428 . S
H514 C510 0.930 . S
H515 C512 0.929 . S
S516 N517 1.613 . S
S516 N518 1.610 . S
N517 S516 1.613 . S
N517 C520 1.350 . S
N518 S516 1.610 . S
N518 C519 1.351 . S
C519 C513 1.428 . S
C519 N518 1.351 . S
C519 C520 1.434 . S
C520 C511 1.429 . S
C520 N517 1.350 . S
C520 C519 1.434 . S
C521 C522 1.369 . S
C521 C523 1.419 . S
C521 H525 0.930 . S
C522 C521 1.369 . S
C522 C531 1.429 . S
C523 C521 1.419 . S
C523 C524 1.363 . S
C523 H526 0.929 1_455 S
C524 C523 1.363 . S
C524 C530 1.428 . S
H525 C521 0.930 . S
H526 C523 0.929 1_655 S
S527 N528 1.613 . S
S527 N529 1.610 . S
N528 S527 1.613 . S
N528 C531 1.350 . S
N529 S527 1.610 . S
N529 C530 1.351 . S
C530 C524 1.428 . S
C530 N529 1.351 . S
C530 C531 1.434 . S
C531 C522 1.429 . S
C531 N528 1.350 . S
C531 C530 1.434 . S
C532 C533 1.369 . S
C532 C534 1.419 . S
C532 H536 0.930 . S
C533 C532 1.369 . S
C533 C542 1.429 . S
C534 C532 1.419 . S
C534 C535 1.363 1_554 S
C534 H537 0.929 . S
C535 C534 1.363 1_556 S
C535 C541 1.428 . S
H536 C532 0.930 . S
H537 C534 0.929 . S
S538 N539 1.613 1_556 S
S538 N540 1.610 . S
N539 S538 1.613 1_554 S
N539 C542 1.350 . S
N540 S538 1.610 . S
N540 C541 1.351 . S
C541 C535 1.428 . S
C541 N540 1.351 . S
C541 C542 1.434 1_556 S
C542 C533 1.429 . S
C542 N539 1.350 . S
C542 C541 1.434 1_554 S
C543 C544 1.369 . S
C543 C545 1.419 . S
C543 H547 0.930 . S
C544 C543 1.369 . S
C544 C553 1.429 . S
C545 C543 1.419 . S
C545 C546 1.363 1_554 S
C545 H548 0.929 1_554 S
C546 C545 1.363 1_556 S
C546 C552 1.428 1_556 S
H547 C543 0.930 . S
H548 C545 0.929 1_556 S
S549 N550 1.613 . S
S549 N551 1.610 . S
N550 S549 1.613 . S
N550 C553 1.350 . S
N551 S549 1.610 . S
N551 C552 1.351 . S
C552 C546 1.428 1_554 S
C552 N551 1.351 . S
C552 C553 1.434 . S
C553 C544 1.429 . S
C553 N550 1.350 . S
C553 C552 1.434 . S
C554 C555 1.369 . S
C554 C556 1.419 . S
C554 H558 0.930 . S
C555 C554 1.369 . S
C555 C564 1.429 . S
C556 C554 1.419 . S
C556 C557 1.363 1_554 S
C556 H559 0.929 . S
C557 C556 1.363 1_556 S
C557 C563 1.428 . S
H558 C554 0.930 . S
H559 C556 0.929 . S
S560 N561 1.613 1_556 S
S560 N562 1.610 . S
N561 S560 1.613 1_554 S
N561 C564 1.350 . S
N562 S560 1.610 . S
N562 C563 1.351 . S
C563 C557 1.428 . S
C563 N562 1.351 . S
C563 C564 1.434 1_556 S
C564 C555 1.429 . S
C564 N561 1.350 . S
C564 C563 1.434 1_554 S
C565 C566 1.369 . S
C565 C567 1.419 . S
C565 H569 0.930 . S
C566 C565 1.369 . S
C566 C575 1.429 . S
C567 C565 1.419 . S
C567 C568 1.363 1_554 S
C567 H570 0.929 . S
C568 C567 1.363 1_556 S
C568 C574 1.428 . S
H569 C565 0.930 . S
H570 C567 0.929 . S
S571 N572 1.613 1_456 S
S571 N573 1.610 . S
N572 S571 1.613 1_654 S
N572 C575 1.350 . S
N573 S571 1.610 . S
N573 C574 1.351 1_455 S
C574 C568 1.428 . S
C574 N573 1.351 1_655 S
C574 C575 1.434 1_556 S
C575 C566 1.429 . S
C575 N572 1.350 . S
C575 C574 1.434 1_554 S
C576 C577 1.369 . S
C576 C578 1.419 . S
C576 H580 0.930 . S
C577 C576 1.369 . S
C577 C586 1.429 . S
C578 C576 1.419 . S
C578 C579 1.363 . S
C578 H581 0.929 . S
C579 C578 1.363 . S
C579 C585 1.428 . S
H580 C576 0.930 . S
H581 C578 0.929 . S
S582 N583 1.613 . S
S582 N584 1.610 . S
N583 S582 1.613 . S
N583 C586 1.350 1_556 S
N584 S582 1.610 . S
N584 C585 1.351 1_556 S
C585 C579 1.428 . S
C585 N584 1.351 1_554 S
C585 C586 1.434 . S
C586 C577 1.429 . S
C586 N583 1.350 1_554 S
C586 C585 1.434 . S
C587 C588 1.369 . S
C587 C589 1.419 . S
C587 H591 0.930 . S
C588 C587 1.369 . S
C588 C597 1.429 . S
C589 C587 1.419 . S
C589 C590 1.363 . S
C589 H592 0.929 . S
C590 C589 1.363 . S
C590 C596 1.428 . S
H591 C587 0.930 . S
H592 C589 0.929 . S
S593 N594 1.613 1_565 S
S593 N595 1.610 . S
N594 S593 1.613 1_545 S
N594 C597 1.350 . S
N595 S593 1.610 . S
N595 C596 1.351 1_565 S
C596 C590 1.428 . S
C596 N595 1.351 1_545 S
C596 C597 1.434 . S
C597 C588 1.429 . S
C597 N594 1.350 . S
C597 C596 1.434 . S
C598 C599 1.369 . S
C598 C600 1.419 . S
C598 H602 0.930 . S
C599 C598 1.369 . S
C599 C608 1.429 . S
C600 C598 1.419 . S
C600 C601 1.363 . S
C600 H603 0.929 . S
C601 C600 1.363 . S
C601 C607 1.428 . S
H602 C598 0.930 . S
H603 C600 0.929 . S
S604 N605 1.613 . S
S604 N606 1.610 . S
N605 S604 1.613 . S
N605 C608 1.350 . S
N606 S604 1.610 . S
N606 C607 1.351 . S
C607 C601 1.428 . S
C607 N606 1.351 . S
C607 C608 1.434 . S
C608 C599 1.429 . S
C608 N605 1.350 . S
C608 C607 1.434 . S
C609 C610 1.369 . S
C609 C611 1.419 . S
C609 H613 0.930 . S
C610 C609 1.369 . S
C610 C619 1.429 . S
C611 C609 1.419 . S
C611 C612 1.363 . S
C611 H614 0.929 . S
C612 C611 1.363 . S
C612 C618 1.428 . S
H613 C609 0.930 . S
H614 C611 0.929 . S
S615 N616 1.613 . S
S615 N617 1.610 . S
N616 S615 1.613 . S
N616 C619 1.350 . S
N617 S615 1.610 . S
N617 C618 1.351 . S
C618 C612 1.428 . S
C618 N617 1.351 . S
C618 C619 1.434 . S
C619 C610 1.429 . S
C619 N616 1.350 . S
C619 C618 1.434 . S
C620 C621 1.369 . S
C620 C622 1.419 . S
C620 H624 0.930 . S
C621 C620 1.369 . S
C621 C630 1.429 . S
C622 C620 1.419 . S
C622 C623 1.363 1_655 S
C622 H625 0.929 . S
C623 C622 1.363 1_455 S
C623 C629 1.428 . S
H624 C620 0.930 . S
H625 C622 0.929 . S
S626 N627 1.613 . S
S626 N628 1.610 . S
N627 S626 1.613 . S
N627 C630 1.350 1_455 S
N628 S626 1.610 . S
N628 C629 1.351 . S
C629 C623 1.428 . S
C629 N628 1.351 . S
C629 C630 1.434 1_455 S
C630 C621 1.429 . S
C630 N627 1.350 1_655 S
C630 C629 1.434 1_655 S
C631 C632 1.369 . S
C631 C633 1.419 . S
C631 H635 0.930 . S
C632 C631 1.369 . S
C632 C641 1.429 1_565 S
C633 C631 1.419 . S
C633 C634 1.363 1_565 S
C633 H636 0.929 . S
C634 C633 1.363 1_545 S
C634 C640 1.428 . S
H635 C631 0.930 . S
H636 C633 0.929 . S
S637 N638 1.613 . S
S637 N639 1.610 . S
N638 S637 1.613 . S
N638 C641 1.350 . S
N639 S637 1.610 . S
N639 C640 1.351 . S
C640 C634 1.428 . S
C640 N639 1.351 . S
C640 C641 1.434 . S
C641 C632 1.429 1_545 S
C641 N638 1.350 . S
C641 C640 1.434 . S
C642 C643 1.369 . S
C642 C644 1.419 . S
C642 H646 0.930 . S
C643 C642 1.369 . S
C643 C652 1.429 . S
C644 C642 1.419 . S
C644 C645 1.363 . S
C644 H647 0.929 . S
C645 C644 1.363 . S
C645 C651 1.428 . S
H646 C642 0.930 . S
H647 C644 0.929 . S
S648 N649 1.613 . S
S648 N650 1.610 . S
N649 S648 1.613 . S
N649 C652 1.350 . S
N650 S648 1.610 . S
N650 C651 1.351 . S
C651 C645 1.428 . S
C651 N650 1.351 . S
C651 C652 1.434 . S
C652 C643 1.429 . S
C652 N649 1.350 . S
C652 C651 1.434 . S
C653 C654 1.369 . S
C653 C655 1.419 . S
C653 H657 0.930 . S
C654 C653 1.369 . S
C654 C663 1.429 . S
C655 C653 1.419 . S
C655 C656 1.363 . S
C655 H658 0.929 . S
C656 C655 1.363 . S
C656 C662 1.428 . S
H657 C653 0.930 . S
H658 C655 0.929 . S
S659 N660 1.613 . S
S659 N661 1.610 . S
N660 S659 1.613 . S
N660 C663 1.350 . S
N661 S659 1.610 . S
N661 C662 1.351 . S
C662 C656 1.428 . S
C662 N661 1.351 . S
C662 C663 1.434 . S
C663 C654 1.429 . S
C663 N660 1.350 . S
C663 C662 1.434 . S
C664 C665 1.369 . S
C664 C666 1.419 . S
C664 H668 0.930 . S
C665 C664 1.369 . S
C665 C674 1.429 . S
C666 C664 1.419 . S
C666 C667 1.363 . S
C666 H669 0.929 1_455 S
C667 C666 1.363 . S
C667 C673 1.428 . S
H668 C664 0.930 . S
H669 C666 0.929 1_655 S
S670 N671 1.613 . S
S670 N672 1.610 . S
N671 S670 1.613 . S
N671 C674 1.350 . S
N672 S670 1.610 . S
N672 C673 1.351 . S
C673 C667 1.428 . S
C673 N672 1.351 . S
C673 C674 1.434 . S
C674 C665 1.429 . S
C674 N671 1.350 . S
C674 C673 1.434 . S
C675 C676 1.369 . S
C675 C677 1.419 . S
C675 H679 0.930 . S
C676 C675 1.369 . S
C676 C685 1.429 . S
C677 C675 1.419 . S
C677 C678 1.363 . S
C677 H680 0.929 . S
C678 C677 1.363 . S
C678 C684 1.428 . S
H679 C675 0.930 . S
H680 C677 0.929 . S
S681 N682 1.603 1_565 S
S681 N683 1.610 . S
N682 S681 1.603 1_545 S
N682 C685 1.361 . S
N683 S681 1.610 . S
N683 C684 1.351 1_565 S
C684 C678 1.428 . S
C684 N683 1.351 1_545 S
C684 C685 1.434 . S
C685 C676 1.429 . S
C685 N682 1.361 . S
C685 C684 1.434 . S
C686 C687 1.369 . S
C686 C688 1.419 . S
C686 H690 0.930 . S
C687 C686 1.369 . S
C687 C696 1.429 . S
C688 C686 1.419 . S
C688 C689 1.363 . S
C688 H691 0.929 . S
C689 C688 1.363 . S
C689 C695 1.428 . S
H690 C686 0.930 . S
H691 C688 0.929 . S
S692 N693 1.613 . S
S692 N694 1.610 . S
N693 S692 1.613 . S
N693 C696 1.350 . S
N694 S692 1.610 . S
N694 C695 1.351 . S
C695 C689 1.428 . S
C695 N694 1.351 . S
C695 C696 1.434 . S
C696 C687 1.429 . S
C696 N693 1.350 . S
C696 C695 1.434 . S
C697 C698 1.369 . S
C697 C699 1.419 . S
C697 H701 0.930 . S
C698 C697 1.369 . S
C698 C707 1.429 . S
C699 C697 1.419 . S
C699 C700 1.363 . S
C699 H702 0.929 . S
C700 C699 1.363 . S
C700 C706 1.428 . S
H701 C697 0.930 . S
H702 C699 0.929 . S
S703 N704 1.613 . S
S703 N705 1.610 . S
N704 S703 1.613 . S
N704 C707 1.350 . S
N705 S703 1.610 . S
N705 C706 1.351 . S
C706 C700 1.428 . S
C706 N705 1.351 . S
C706 C707 1.434 . S
C707 C698 1.429 . S
C707 N704 1.350 . S
C707 C706 1.434 . S
C708 C709 1.369 . S
C708 C710 1.419 1_655 S
C708 H712 0.930 1_655 S
C709 C708 1.369 . S
C709 C718 1.429 . S
C710 C708 1.419 1_455 S
C710 C711 1.363 1_455 S
C710 H713 0.929 . S
C711 C710 1.363 1_655 S
C711 C717 1.428 . S
H712 C708 0.930 1_455 S
H713 C710 0.929 . S
S714 N715 1.613 . S
S714 N716 1.610 . S
N715 S714 1.613 . S
N715 C718 1.350 . S
N716 S714 1.610 . S
N716 C717 1.351 . S
C717 C711 1.428 . S
C717 N716 1.351 . S
C717 C718 1.434 . S
C718 C709 1.429 . S
C718 N715 1.350 . S
C718 C717 1.434 . S
C719 C720 1.369 . S
C719 C721 1.419 . S
C719 H723 0.930 . S
C720 C719 1.369 . S
C720 C729 1.429 . S
C721 C719 1.419 . S
C721 C722 1.363 . S
C721 H724 0.929 . S
C722 C721 1.363 . S
C722 C728 1.429 1_565 S
H723 C719 0.930 . S
H724 C721 0.929 . S
S725 N726 1.613 . S
S725 N727 1.610 . S
N726 S725 1.613 . S
N726 C729 1.350 1_545 S
N727 S725 1.610 . S
N727 C728 1.350 . S
C728 C722 1.429 1_545 S
C728 N727 1.350 . S
C728 C729 1.434 1_545 S
C729 C720 1.429 . S
C729 N726 1.350 1_565 S
C729 C728 1.434 1_565 S
C730 C731 1.369 . S
C730 C732 1.419 . S
C730 H734 0.930 . S
C731 C730 1.369 . S
C731 C740 1.429 . S
C732 C730 1.419 . S
C732 C733 1.363 . S
C732 H735 0.929 . S
C733 C732 1.363 . S
C733 C739 1.428 . S
H734 C730 0.930 . S
H735 C732 0.929 . S
S736 N737 1.613 . S
S736 N738 1.610 . S
N737 S736 1.613 . S
N737 C740 1.350 . S
N738 S736 1.610 . S
N738 C739 1.351 . S
C739 C733 1.428 . S
C739 N738 1.351 . S
C739 C740 1.434 . S
C740 C731 1.429 . S
C740 N737 1.350 . S
C740 C739 1.434 . S
C741 C742 1.369 . S
C741 C743 1.419 . S
C741 H745 0.930 . S
C742 C741 1.369 . S
C742 C751 1.429 . S
C743 C741 1.419 . S
C743 C744 1.363 . S
C743 H746 0.929 . S
C744 C743 1.363 . S
C744 C750 1.428 . S
H745 C741 0.930 . S
H746 C743 0.929 . S
S747 N748 1.613 . S
S747 N749 1.610 . S
N748 S747 1.613 . S
N748 C751 1.350 . S
N749 S747 1.610 . S
N749 C750 1.351 . S
C750 C744 1.428 . S
C750 N749 1.351 . S
C750 C751 1.434 . S
C751 C742 1.429 . S
C751 N748 1.350 . S
C751 C750 1.434 . S
C489 C125 2.069 . S
C491 C226 2.060 . S
C502 C310 2.074 . S
C500 C144 2.064 . S
C513 C376 1.987 . S
C511 C87 2.133 . S
C524 C460 1.980 . S
C522 C106 2.136 . S
C535 C215 2.066 1_565 S
C533 C49 2.159 . S
C544 C68 2.172 . S
C546 C299 2.075 . S
C555 C11 2.242 . S
C557 C387 1.990 . S
C566 C30 2.233 . S
C568 C471 1.986 . S
C579 C222 0.937 1_455 S
C577 C97 0.874 . S
C590 C306 0.899 1_545 S
C588 C116 0.866 . S
C601 C378 0.894 . S
C599 C135 0.844 . S
C610 C78 0.865 . S
C612 C462 0.926 . S
C621 C21 0.875 . S
C623 C210 0.936 . S
C634 C294 0.897 . S
C632 C40 0.853 . S
C645 C390 0.891 . S
C643 C59 0.834 . S
C654 C2 0.861 . S
C656 C474 0.925 . S
C665 C101 2.113 . S
C667 C219 2.196 . S
C676 C120 2.082 . S
C678 C303 2.170 . S
C689 C383 2.277 . S
C687 C139 2.020 . S
C700 C467 2.299 . S
C698 C82 2.035 . S
C709 C25 2.112 . S
C711 C208 2.198 . S
C722 C292 2.169 . S
C720 C44 2.088 . S
C733 C394 2.275 . S
C731 C63 2.021 . S
C742 C6 2.037 . S
C744 C478 2.300 . S
