# Generated by pormake.
# Topology ant, (3,6)-cn, num edge types: 1
# Building blocks:
#     Node 0, Type 0, BuildingBlock: QEWDON_clean_linker_0, # of connection points: 3
#     Node 1, Type 0, BuildingBlock: QEWDON_clean_linker_0, # of connection points: 3
#     Node 2, Type 0, BuildingBlock: QEWDON_clean_linker_0, # of connection points: 3
#     Node 3, Type 0, BuildingBlock: QEWDON_clean_linker_0, # of connection points: 3
#     Node 4, Type 0, BuildingBlock: QEWDON_clean_linker_0, # of connection points: 3
#     Node 5, Type 0, BuildingBlock: QEWDON_clean_linker_0, # of connection points: 3
#     Node 6, Type 0, BuildingBlock: QEWDON_clean_linker_0, # of connection points: 3
#     Node 7, Type 0, BuildingBlock: QEWDON_clean_linker_0, # of connection points: 3
#     Node 8, Type 1, BuildingBlock: MIDCAF_clean_sbu_0, # of connection points: 6
#     Node 9, Type 1, BuildingBlock: MIDCAF_clean_sbu_0, # of connection points: 6
#     Node 10, Type 1, BuildingBlock: MIDCAF_clean_sbu_0, # of connection points: 6
#     Node 11, Type 1, BuildingBlock: MIDCAF_clean_sbu_0, # of connection points: 6
#     Edge 12, Type (0, 1), BuildingBlock: XUDNAN_clean_linker_2, # of connection points: 2
#     Edge 13, Type (0, 1), BuildingBlock: XUDNAN_clean_linker_2, # of connection points: 2
#     Edge 14, Type (0, 1), BuildingBlock: XUDNAN_clean_linker_2, # of connection points: 2
#     Edge 15, Type (0, 1), BuildingBlock: XUDNAN_clean_linker_2, # of connection points: 2
#     Edge 16, Type (0, 1), BuildingBlock: XUDNAN_clean_linker_2, # of connection points: 2
#     Edge 17, Type (0, 1), BuildingBlock: XUDNAN_clean_linker_2, # of connection points: 2
#     Edge 18, Type (0, 1), BuildingBlock: XUDNAN_clean_linker_2, # of connection points: 2
#     Edge 19, Type (0, 1), BuildingBlock: XUDNAN_clean_linker_2, # of connection points: 2
#     Edge 20, Type (0, 1), BuildingBlock: XUDNAN_clean_linker_2, # of connection points: 2
#     Edge 21, Type (0, 1), BuildingBlock: XUDNAN_clean_linker_2, # of connection points: 2
#     Edge 22, Type (0, 1), BuildingBlock: XUDNAN_clean_linker_2, # of connection points: 2
#     Edge 23, Type (0, 1), BuildingBlock: XUDNAN_clean_linker_2, # of connection points: 2
#     Edge 24, Type (0, 1), BuildingBlock: XUDNAN_clean_linker_2, # of connection points: 2
#     Edge 25, Type (0, 1), BuildingBlock: XUDNAN_clean_linker_2, # of connection points: 2
#     Edge 26, Type (0, 1), BuildingBlock: XUDNAN_clean_linker_2, # of connection points: 2
#     Edge 27, Type (0, 1), BuildingBlock: XUDNAN_clean_linker_2, # of connection points: 2
#     Edge 28, Type (0, 1), BuildingBlock: XUDNAN_clean_linker_2, # of connection points: 2
#     Edge 29, Type (0, 1), BuildingBlock: XUDNAN_clean_linker_2, # of connection points: 2
#     Edge 30, Type (0, 1), BuildingBlock: XUDNAN_clean_linker_2, # of connection points: 2
#     Edge 31, Type (0, 1), BuildingBlock: XUDNAN_clean_linker_2, # of connection points: 2
#     Edge 32, Type (0, 1), BuildingBlock: XUDNAN_clean_linker_2, # of connection points: 2
#     Edge 33, Type (0, 1), BuildingBlock: XUDNAN_clean_linker_2, # of connection points: 2
#     Edge 34, Type (0, 1), BuildingBlock: XUDNAN_clean_linker_2, # of connection points: 2
#     Edge 35, Type (0, 1), BuildingBlock: XUDNAN_clean_linker_2, # of connection points: 2
# Relax obj value: 0.063
# Max RMSD: 0.161
# Mean RMSD: 0.129
data_MOF--net-ant--node1-MIDCAF_clean_sbu_0--node2-QEWDON_clean_linker_0--edge1-XUDNAN_clean_linker_2
_symmetry_space_group_name_H-M    P1
_symmetry_Int_Tables_number       1
_symmetry_cell_setting            triclinic
loop_
_symmetry_equiv_pos_as_xyz
'x, y, z'
_cell_length_a     30.429182
_cell_length_b     30.10928
_cell_length_c     69.600954
_cell_angle_alpha  96.624236
_cell_angle_beta   100.78374
_cell_angle_gamma 89.56945
loop_
_atom_site_label
_atom_site_type_symbol
_atom_site_fract_x
_atom_site_fract_y
_atom_site_fract_z
_atom_type_partial_charge
H0 H 0.18446 0.20713 0.06403 0.0
C1 C 0.18806 0.24318 0.06537 0.0
C2 C 0.17673 0.26496 0.04842 0.0
C3 C 0.2035 0.26768 0.08387 0.0
H4 H 0.16868 0.32826 0.03678 0.0
C5 C 0.17913 0.31186 0.04992 0.0
C6 C 0.19342 0.33742 0.06826 0.0
C7 C 0.20682 0.31472 0.08499 0.0
C8 C 0.21435 0.24461 0.10213 0.0
H9 H 0.22022 0.33389 0.09896 0.0
C10 C 0.23208 0.20097 0.10176 0.0
C11 C 0.23999 0.17873 0.11888 0.0
C12 C 0.20543 0.2658 0.12009 0.0
H13 H 0.19058 0.29857 0.12101 0.0
C14 C 0.21421 0.24451 0.13711 0.0
H15 H 0.23988 0.18426 0.0882 0.0
C16 C 0.2311 0.20136 0.13655 0.0
H17 H 0.23566 0.1852 0.14988 0.0
H18 H 0.20685 0.26118 0.15076 0.0
H19 H 0.03915 0.83289 0.29983 0.0
C20 C 0.07459 0.8297 0.30544 0.0
C21 C 0.10403 0.8233 0.29212 0.0
C22 C 0.09101 0.83343 0.32587 0.0
H23 H 0.17264 0.81513 0.28886 0.0
C24 C 0.15007 0.8201 0.29925 0.0
C25 C 0.16715 0.82238 0.31951 0.0
C26 C 0.13738 0.82927 0.33273 0.0
C27 C 0.06011 0.84231 0.3401 0.0
H28 H 0.1502 0.83019 0.34838 0.0
C29 C 0.01712 0.82219 0.33645 0.0
C30 C 0.98838 0.83066 0.35011 0.0
C31 C 0.07355 0.87147 0.35751 0.0
H32 H 0.10586 0.8883 0.36059 0.0
C33 C 0.04518 0.87993 0.37104 0.0
H34 H 0.00638 0.79915 0.32327 0.0
C35 C 1.00296 0.85969 0.36742 0.0
H36 H 0.98135 0.86736 0.37806 0.0
H37 H 0.05587 0.90256 0.38434 0.0
H38 H 0.6836 0.68618 0.56072 0.0
C39 C 0.68516 0.72239 0.56313 0.0
C40 C 0.67372 0.74658 0.5469 0.0
C41 C 0.69549 0.74445 0.58243 0.0
H42 H 0.6649 0.81231 0.53746 0.0
C43 C 0.67315 0.79351 0.55 0.0
C44 C 0.68345 0.81654 0.56904 0.0
C45 C 0.6952 0.79175 0.58519 0.0
C46 C 0.70147 0.71769 0.59955 0.0
H47 H 0.70277 0.80928 0.59993 0.0
C48 C 0.72298 0.67584 0.59891 0.0
C49 C 0.72191 0.64686 0.61353 0.0
C50 C 0.68154 0.73186 0.6158 0.0
H51 H 0.66413 0.7633 0.61671 0.0
C52 C 0.68158 0.70452 0.63062 0.0
H53 H 0.73996 0.66601 0.58681 0.0
C54 C 0.70061 0.66227 0.62936 0.0
H55 H 0.69694 0.64152 0.64064 0.0
H56 H 0.66518 0.71548 0.64284 0.0
H57 H 0.52579 0.30385 0.79644 0.0
C58 C 0.56054 0.30216 0.80354 0.0
C59 C 0.59133 0.28276 0.79265 0.0
C60 C 0.57466 0.31977 0.82335 0.0
H61 H 0.65909 0.26428 0.79265 0.0
C62 C 0.6365 0.281 0.80134 0.0
C63 C 0.65237 0.3004 0.82075 0.0
C64 C 0.6208 0.3193 0.83172 0.0
C65 C 0.54135 0.33885 0.83521 0.0
H66 H 0.63201 0.3337 0.84679 0.0
C67 C 0.49797 0.31978 0.83256 0.0
C68 C 0.46666 0.33736 0.84395 0.0
C69 C 0.55275 0.37625 0.84934 0.0
H70 H 0.58511 0.39264 0.85146 0.0
C71 C 0.52232 0.39339 0.86085 0.0
H72 H 0.4886 0.29122 0.82164 0.0
C73 C 0.47986 0.37404 0.85833 0.0
H74 H 0.45759 0.38774 0.86788 0.0
H75 H 0.53173 0.42187 0.87183 0.0
H76 H 0.02073 0.7296 0.94005 0.0
C77 C 0.01433 0.69865 0.9303 0.0
C78 C 0.0308 0.65813 0.93688 0.0
C79 C 0.98626 0.69891 0.91176 0.0
H80 H 0.0349 0.58733 0.92898 0.0
C81 C 0.02074 0.61836 0.92431 0.0
C82 C 0.99108 0.61738 0.90625 0.0
C83 C 0.97464 0.6579 0.89981 0.0
C84 C 0.96424 0.741 0.90608 0.0
H85 H 0.95157 0.6574 0.88588 0.0
C86 C 0.98876 0.78131 0.90714 0.0
C87 C 0.96663 0.82045 0.90139 0.0
C88 C 0.91756 0.74087 0.89987 0.0
H89 H 0.89785 0.71076 0.89928 0.0
C90 C 0.89558 0.77969 0.89472 0.0
H91 H 0.02482 0.78176 0.91173 0.0
C92 C 0.91979 0.81908 0.89542 0.0
H93 H 0.90176 0.8487 0.89123 0.0
H94 H 0.85957 0.77922 0.89009 0.0
H95 H 0.71947 0.8357 0.20098 0.0
C96 C 0.68498 0.8366 0.19345 0.0
C97 C 0.65138 0.81917 0.20183 0.0
C98 C 0.67388 0.85702 0.176 0.0
H99 H 0.58129 0.80604 0.19892 0.0
C100 C 0.60651 0.82123 0.19255 0.0
C101 C 0.59416 0.84179 0.17524 0.0
C102 C 0.62833 0.85931 0.16702 0.0
C103 C 0.70944 0.87745 0.16749 0.0
H104 H 0.61946 0.87513 0.15367 0.0
C105 C 0.75189 0.85764 0.16798 0.0
C106 C 0.78498 0.87685 0.15957 0.0
C107 C 0.70096 0.91731 0.15878 0.0
H108 H 0.66947 0.93435 0.15865 0.0
C109 C 0.73312 0.93609 0.15022 0.0
H110 H 0.75905 0.82726 0.17484 0.0
C111 C 0.77451 0.91596 0.15041 0.0
H112 H 0.79805 0.93098 0.14309 0.0
H113 H 0.72585 0.96643 0.14332 0.0
H114 H 0.53409 0.24081 0.44137 0.0
C115 C 0.52988 0.20954 0.43175 0.0
C116 C 0.54607 0.16983 0.43917 0.0
C117 C 0.50695 0.20875 0.41219 0.0
H118 H 0.55206 0.09882 0.43269 0.0
C119 C 0.53954 0.12931 0.42686 0.0
C120 C 0.51578 0.1275 0.40743 0.0
C121 C 0.50015 0.16748 0.40012 0.0
C122 C 0.48728 0.25031 0.40471 0.0
H123 H 0.48183 0.16637 0.38513 0.0
C124 C 0.512 0.29093 0.40796 0.0
C125 C 0.49275 0.32942 0.40031 0.0
C126 C 0.44303 0.2493 0.39414 0.0
H127 H 0.42295 0.2189 0.39171 0.0
C128 C 0.42394 0.28757 0.38676 0.0
H129 H 0.54626 0.29235 0.41592 0.0
C130 C 0.44867 0.32734 0.38972 0.0
H131 H 0.43343 0.35661 0.38369 0.0
H132 H 0.38987 0.28634 0.37865 0.0
H133 H 0.22874 0.31275 0.7086 0.0
C134 C 0.19427 0.31362 0.70104 0.0
C135 C 0.16106 0.29392 0.70884 0.0
C136 C 0.18295 0.33493 0.68385 0.0
H137 H 0.09131 0.27892 0.70569 0.0
C138 C 0.11614 0.29555 0.69963 0.0
C139 C 0.10334 0.31772 0.68277 0.0
C140 C 0.13728 0.33684 0.67489 0.0
C141 C 0.21847 0.35575 0.67537 0.0
H142 H 0.12812 0.35342 0.66177 0.0
C143 C 0.26146 0.33678 0.67624 0.0
C144 C 0.29443 0.35612 0.66777 0.0
C145 C 0.20939 0.39496 0.66621 0.0
H146 H 0.17761 0.41155 0.66581 0.0
C147 C 0.2413 0.41368 0.65749 0.0
H148 H 0.26917 0.30696 0.68345 0.0
C149 C 0.28313 0.39431 0.65803 0.0
H150 H 0.3064 0.4093 0.65058 0.0
H151 H 0.2335 0.44342 0.6502 0.0
Zn152 Zn 0.21869 0.71958 0.14747 0.0
Zn153 Zn 0.11958 0.81405 0.0972 0.0
Zn154 Zn 0.17227 0.76554 0.11972 0.0
C155 C 0.13679 0.7348 0.07438 0.0
C156 C 0.19846 0.86336 0.10917 0.0
O157 O 0.13867 0.765 0.14541 0.0
O158 O 0.18214 0.73067 0.16821 0.0
C159 C 0.19345 0.66011 0.11221 0.0
O160 O 0.15729 0.72383 0.09103 0.0
O161 O 0.11817 0.77224 0.07328 0.0
O162 O 0.15911 0.86582 0.09969 0.0
O163 O 0.21075 0.82802 0.11757 0.0
O164 O 0.21022 0.6614 0.13031 0.0
O165 O 0.17923 0.69627 0.10491 0.0
O166 O 0.23891 0.79832 0.1283 0.0
O167 O 0.27462 0.75578 0.15001 0.0
C168 C 0.27463 0.78845 0.14011 0.0
O169 O 0.10862 0.78225 0.13074 0.0
O170 O 0.06616 0.82139 0.10958 0.0
C171 C 0.14682 0.75148 0.16263 0.0
C172 C 0.07185 0.8028 0.12516 0.0
Zn173 Zn 0.54261 0.66333 0.33464 0.0
Zn174 Zn 0.62899 0.77628 0.3869 0.0
Zn175 Zn 0.58614 0.72133 0.36291 0.0
C176 C 0.56004 0.82366 0.36999 0.0
C177 C 0.68865 0.75057 0.36435 0.0
O178 O 0.58141 0.65725 0.376 0.0
O179 O 0.55534 0.61068 0.3494 0.0
C180 C 0.48187 0.73063 0.34396 0.0
O181 O 0.54573 0.78306 0.36481 0.0
O182 O 0.60006 0.83135 0.37842 0.0
O183 O 0.69036 0.76497 0.38222 0.0
O184 O 0.65082 0.73674 0.35364 0.0
O185 O 0.48313 0.693 0.33393 0.0
O186 O 0.51795 0.74798 0.35492 0.0
O187 O 0.62067 0.71627 0.33745 0.0
O188 O 0.57712 0.67242 0.31383 0.0
C189 C 0.61121 0.69744 0.31953 0.0
O190 O 0.59977 0.69133 0.39121 0.0
O191 O 0.61295 0.7553 0.41038 0.0
C192 C 0.57014 0.61732 0.36772 0.0
C193 C 0.60566 0.71374 0.40845 0.0
Zn194 Zn 0.62695 0.29635 0.60778 0.0
Zn195 Zn 0.7299 0.19235 0.64891 0.0
Zn196 Zn 0.67931 0.24199 0.62567 0.0
C197 C 0.78335 0.26485 0.64637 0.0
C198 C 0.7032 0.13907 0.61262 0.0
O199 O 0.61936 0.26014 0.64016 0.0
O200 O 0.58214 0.31216 0.62417 0.0
C201 C 0.70912 0.33812 0.61453 0.0
O202 O 0.74775 0.27358 0.63415 0.0
O203 O 0.7838 0.23167 0.65595 0.0
O204 O 0.72925 0.1397 0.62907 0.0
O205 O 0.68098 0.17444 0.60824 0.0
O206 O 0.6694 0.3434 0.60608 0.0
O207 O 0.71992 0.30274 0.62311 0.0
O208 O 0.65751 0.2058 0.59588 0.0
O209 O 0.60861 0.25469 0.58373 0.0
C210 C 0.62831 0.21792 0.58158 0.0
O211 O 0.64915 0.23413 0.65175 0.0
O212 O 0.69221 0.18717 0.66881 0.0
C213 C 0.58635 0.28758 0.63784 0.0
C214 C 0.65788 0.21109 0.66649 0.0
Zn215 Zn 0.02663 0.16484 0.83655 0.0
Zn216 Zn 0.11806 0.27899 0.89072 0.0
Zn217 Zn 0.07392 0.21604 0.86667 0.0
C218 C 0.11536 0.20268 0.91092 0.0
C219 C 0.03659 0.31516 0.88029 0.0
O220 O 0.10952 0.20698 0.84132 0.0
O221 O 0.0671 0.1631 0.81737 0.0
C222 C 0.0478 0.11561 0.87045 0.0
O223 O 0.09058 0.18547 0.89471 0.0
O224 O 0.13208 0.24139 0.91221 0.0
O225 O 0.07215 0.32496 0.89256 0.0
O226 O 0.0322 0.27691 0.86964 0.0
O227 O 0.02904 0.1144 0.85257 0.0
O228 O 0.06758 0.15196 0.87952 0.0
O229 O 0.00517 0.24234 0.85825 0.0
O230 O 0.96994 0.19922 0.8321 0.0
C231 C 0.96978 0.23218 0.84506 0.0
O232 O 0.1372 0.23383 0.8566 0.0
O233 O 0.16691 0.29197 0.87712 0.0
C234 C 0.10237 0.18609 0.82373 0.0
C235 C 0.16827 0.26415 0.86225 0.0
H236 H 0.17331 0.39532 0.09895 0.0
H237 H 0.2126 0.39398 0.04204 0.0
H238 H 0.2111 0.47662 0.04554 0.0
H239 H 0.10082 0.49032 0.09574 0.0
H240 H 0.11837 0.51125 0.12135 0.0
H241 H 0.11956 0.45213 0.11362 0.0
H242 H 0.20369 0.45055 0.12943 0.0
H243 H 0.20263 0.50952 0.13735 0.0
H244 H 0.24236 0.48806 0.1225 0.0
H245 H 0.20708 0.56165 0.05618 0.0
H246 H 0.20617 0.63819 0.07393 0.0
H247 H 0.17306 0.58152 0.12397 0.0
C248 C 0.18205 0.41211 0.08722 0.0
C249 C 0.19307 0.3876 0.0702 0.0
C250 C 0.20335 0.41157 0.05513 0.0
C251 C 0.20276 0.45868 0.05701 0.0
C252 C 0.19193 0.48162 0.07406 0.0
C253 C 0.18205 0.45891 0.08893 0.0
C254 C 0.17348 0.49088 0.10621 0.0
C255 C 0.12519 0.48583 0.10941 0.0
C256 C 0.20758 0.48437 0.12497 0.0
C257 C 0.18067 0.53523 0.09894 0.0
C258 C 0.19066 0.52956 0.08025 0.0
C259 C 0.19912 0.5663 0.07079 0.0
C260 C 0.19822 0.60967 0.08088 0.0
C261 C 0.18925 0.61575 0.10023 0.0
C262 C 0.17995 0.57792 0.10915 0.0
H263 H 0.94865 0.79125 0.37604 0.0
H264 H 0.92515 0.82483 0.31608 0.0
H265 H 0.84644 0.79873 0.3115 0.0
H266 H 0.87311 0.69154 0.36676 0.0
H267 H 0.85548 0.70437 0.39008 0.0
H268 H 0.91104 0.71981 0.38752 0.0
H269 H 0.89661 0.80219 0.39993 0.0
H270 H 0.84116 0.78706 0.4025 0.0
H271 H 0.84892 0.83033 0.38752 0.0
H272 H 0.76748 0.77941 0.31539 0.0
H273 H 0.69737 0.76705 0.32724 0.0
H274 H 0.77374 0.74308 0.38396 0.0
C275 C 0.92713 0.79242 0.36183 0.0
C276 C 0.94292 0.81005 0.34641 0.0
C277 C 0.91382 0.81096 0.32802 0.0
C278 C 0.86907 0.79631 0.32531 0.0
C279 C 0.85423 0.78021 0.34104 0.0
C280 C 0.88266 0.77773 0.35887 0.0
C281 C 0.85812 0.76222 0.37394 0.0
C282 C 0.87547 0.71678 0.37992 0.0
C283 C 0.86139 0.79756 0.39202 0.0
C284 C 0.81103 0.75798 0.36209 0.0
C285 C 0.80934 0.76796 0.34307 0.0
C286 C 0.76867 0.77009 0.33004 0.0
C287 C 0.72889 0.76233 0.33675 0.0
C288 C 0.73006 0.75233 0.35619 0.0
C289 C 0.77181 0.74966 0.36885 0.0
H290 H 0.7474 0.5904 0.64285 0.0
H291 H 0.73492 0.59345 0.57965 0.0
H292 H 0.75478 0.51476 0.57609 0.0
H293 H 0.8312 0.49854 0.64956 0.0
H294 H 0.80164 0.4742 0.66602 0.0
H295 H 0.80102 0.53387 0.66519 0.0
H296 H 0.71423 0.53224 0.6578 0.0
H297 H 0.71485 0.47306 0.65904 0.0
H298 H 0.6852 0.49497 0.63728 0.0
H299 H 0.76196 0.43344 0.57768 0.0
H300 H 0.74222 0.35737 0.58324 0.0
H301 H 0.74019 0.40337 0.64422 0.0
C302 C 0.74895 0.57523 0.62817 0.0
C303 C 0.73956 0.59979 0.61162 0.0
C304 C 0.74315 0.5772 0.59288 0.0
C305 C 0.75438 0.53183 0.59062 0.0
C306 C 0.76149 0.5086 0.6071 0.0
C307 C 0.7583 0.52947 0.6255 0.0
C308 C 0.75828 0.49553 0.64005 0.0
C309 C 0.80056 0.50087 0.65616 0.0
C310 C 0.71561 0.49915 0.64905 0.0
C311 C 0.75907 0.45213 0.62664 0.0
C312 C 0.76313 0.46058 0.60791 0.0
C313 C 0.75985 0.42636 0.59238 0.0
C314 C 0.74909 0.38306 0.5957 0.0
C315 C 0.74104 0.37439 0.61428 0.0
C316 C 0.74828 0.40883 0.63016 0.0
H317 H 0.72347 0.30036 0.80096 0.0
H318 H 0.6946 0.29973 0.85985 0.0
H319 H 0.77522 0.29572 0.87295 0.0
H320 H 0.79989 0.21381 0.80605 0.0
H321 H 0.8354 0.23466 0.79096 0.0
H322 H 0.77683 0.24748 0.78688 0.0
H323 H 0.79662 0.33212 0.7913 0.0
H324 H 0.85541 0.31948 0.79559 0.0
H325 H 0.83284 0.35635 0.81351 0.0
H326 H 0.85976 0.28675 0.87946 0.0
H327 H 0.93675 0.26117 0.87801 0.0
H328 H 0.90708 0.25502 0.8144 0.0
C329 C 0.73342 0.29912 0.81663 0.0
C330 C 0.70162 0.30051 0.82922 0.0
C331 C 0.71756 0.29993 0.84973 0.0
C332 C 0.76359 0.29743 0.85738 0.0
C333 C 0.79353 0.29485 0.84438 0.0
C334 C 0.77885 0.29492 0.82439 0.0
C335 C 0.81659 0.28535 0.81314 0.0
C336 C 0.80658 0.2428 0.7984 0.0
C337 C 0.8259 0.32574 0.80278 0.0
C338 C 0.85466 0.27851 0.82987 0.0
C339 C 0.84118 0.28582 0.84787 0.0
C340 C 0.87058 0.28096 0.86544 0.0
C341 C 0.91427 0.26663 0.86449 0.0
C342 C 0.92756 0.25604 0.84609 0.0
C343 C 0.89765 0.26299 0.82864 0.0
H344 H 0.96551 0.54525 0.92161 0.0
H345 H 0.98439 0.58908 0.86658 0.0
H346 H 0.97526 0.51069 0.85084 0.0
H347 H 0.03609 0.46227 0.92061 0.0
H348 H 0.00684 0.42401 0.93209 0.0
H349 H 0.99858 0.48291 0.93671 0.0
H350 H 0.91306 0.47074 0.92479 0.0
H351 H 0.92128 0.41139 0.92001 0.0
H352 H 0.89211 0.44167 0.90071 0.0
H353 H 0.98068 0.42704 0.84333 0.0
H354 H 0.00947 0.35046 0.84596 0.0
H355 H 0.99523 0.36239 0.90694 0.0
C356 C 0.96633 0.53851 0.90606 0.0
C357 C 0.97586 0.57311 0.89532 0.0
C358 C 0.97665 0.56312 0.87503 0.0
C359 C 0.97141 0.51864 0.866 0.0
C360 C 0.96504 0.48477 0.87744 0.0
C361 C 0.96236 0.49448 0.8971 0.0
C362 C 0.96483 0.4527 0.90741 0.0
C363 C 1.00391 0.45567 0.92522 0.0
C364 C 0.92015 0.4436 0.91359 0.0
C365 C 0.97295 0.41814 0.89095 0.0
C366 C 0.97064 0.43671 0.87347 0.0
C367 C 0.98152 0.41203 0.85679 0.0
C368 C 0.99759 0.36845 0.85835 0.0
C369 C 1.00388 0.35078 0.87661 0.0
C370 C 0.98951 0.37506 0.89275 0.0
H371 H 0.8659 0.91962 0.16196 0.0
H372 H 0.80656 0.78705 0.15704 0.0
H373 H 0.87954 0.75374 0.15394 0.0
H374 H 0.92251 0.89517 0.12407 0.0
H375 H 0.97065 0.93026 0.13478 0.0
H376 H 0.91734 0.94352 0.14134 0.0
H377 H 0.95239 0.94225 0.17826 0.0
H378 H 0.00594 0.92877 0.17173 0.0
H379 H 0.98152 0.89323 0.18616 0.0
H380 H 0.95746 0.73462 0.14755 0.0
H381 H 0.02841 0.73207 0.13475 0.0
H382 H 0.03243 0.87665 0.13997 0.0
C383 C 0.86799 0.88353 0.16039 0.0
C384 C 0.82998 0.85619 0.15978 0.0
C385 C 0.83502 0.80906 0.15797 0.0
C386 C 0.87649 0.78972 0.15615 0.0
C387 C 0.91274 0.8178 0.15611 0.0
C388 C 0.90868 0.86376 0.1581 0.0
C389 C 0.95039 0.88664 0.15485 0.0
C390 C 0.93956 0.91556 0.13774 0.0
C391 C 0.97394 0.91436 0.17389 0.0
C392 C 0.9777 0.84637 0.14969 0.0
C393 C 0.95631 0.80692 0.15126 0.0
C394 C 0.97458 0.76533 0.14646 0.0
C395 C 0.01485 0.76413 0.13926 0.0
C396 C 0.03553 0.80418 0.1365 0.0
C397 C 0.01723 0.84566 0.14216 0.0
H398 H 0.53213 0.3608 0.37272 0.0
H399 H 0.50637 0.39455 0.43164 0.0
H400 H 0.53445 0.47191 0.43191 0.0
H401 H 0.63427 0.43529 0.37827 0.0
H402 H 0.61799 0.44866 0.35337 0.0
H403 H 0.60395 0.39464 0.35952 0.0
H404 H 0.52038 0.40744 0.34539 0.0
H405 H 0.53403 0.46144 0.33936 0.0
H406 H 0.49331 0.45652 0.3548 0.0
H407 H 0.55319 0.54878 0.42311 0.0
H408 H 0.5619 0.61574 0.40648 0.0
H409 H 0.57808 0.53022 0.35389 0.0
C410 C 0.53426 0.3841 0.38594 0.0
C411 C 0.51823 0.37183 0.40233 0.0
C412 C 0.51965 0.40333 0.41916 0.0
C413 C 0.5354 0.44727 0.41938 0.0
C414 C 0.54991 0.45887 0.4027 0.0
C415 C 0.55005 0.42783 0.3864 0.0
C416 C 0.56291 0.44933 0.3696 0.0
C417 C 0.60743 0.43088 0.36492 0.0
C418 C 0.52542 0.44333 0.35122 0.0
C419 C 0.56804 0.49763 0.37861 0.0
C420 C 0.56109 0.50265 0.39779 0.0
C421 C 0.56002 0.545 0.40831 0.0
C422 C 0.56546 0.58298 0.39884 0.0
C423 C 0.57183 0.57833 0.37909 0.0
C424 C 0.574 0.53496 0.36912 0.0
H425 H 0.03003 0.32126 0.70114 0.0
H426 H 0.06514 0.31961 0.64333 0.0
H427 H 0.98511 0.32074 0.62848 0.0
H428 H 0.94484 0.24157 0.68565 0.0
H429 H 0.90987 0.2655 0.70229 0.0
H430 H 0.96948 0.27371 0.70857 0.0
H431 H 0.95849 0.35955 0.71284 0.0
H432 H 0.89868 0.35149 0.70627 0.0
H433 H 0.92698 0.38611 0.6928 0.0
H434 H 0.8998 0.31568 0.61946 0.0
H435 H 0.82038 0.29344 0.61691 0.0
H436 H 0.84305 0.28959 0.68 0.0
C437 C 0.02138 0.32111 0.68533 0.0
C438 C 0.05474 0.32061 0.67357 0.0
C439 C 0.0409 0.32116 0.65293 0.0
C440 C 0.99524 0.32165 0.64427 0.0
C441 C 0.96348 0.32123 0.65634 0.0
C442 C 0.97614 0.32041 0.67642 0.0
C443 C 0.93609 0.31407 0.68591 0.0
C444 C 0.94033 0.27117 0.69619 0.0
C445 C 0.9297 0.35527 0.70031 0.0
C446 C 0.89896 0.3099 0.66796 0.0
C447 C 0.91504 0.31564 0.65109 0.0
C448 C 0.88689 0.31146 0.63262 0.0
C449 C 0.84176 0.29917 0.6313 0.0
C450 C 0.82574 0.29005 0.64827 0.0
C451 C 0.85444 0.29687 0.66683 0.0
H452 H 0.37405 0.4009 0.66943 0.0
H453 H 0.31963 0.26718 0.6677 0.0
H454 H 0.39438 0.23603 0.66648 0.0
H455 H 0.43512 0.37095 0.63259 0.0
H456 H 0.48037 0.41001 0.64282 0.0
H457 H 0.42517 0.42154 0.64761 0.0
H458 H 0.45772 0.43051 0.68464 0.0
H459 H 0.51317 0.41581 0.68072 0.0
H460 H 0.48589 0.38474 0.69593 0.0
H461 H 0.47391 0.21865 0.6614 0.0
H462 H 0.54559 0.21675 0.64927 0.0
H463 H 0.54469 0.36105 0.65159 0.0
C464 C 0.37741 0.365 0.66885 0.0
C465 C 0.34029 0.33677 0.66869 0.0
C466 C 0.34727 0.28999 0.66827 0.0
C467 C 0.38978 0.27185 0.6675 0.0
C468 C 0.42516 0.30074 0.66708 0.0
C469 C 0.4191 0.34634 0.66756 0.0
C470 C 0.4603 0.36992 0.66423 0.0
C471 C 0.44959 0.39451 0.64571 0.0
C472 C 0.48051 0.40212 0.68246 0.0
C473 C 0.49024 0.33036 0.66124 0.0
C474 C 0.47 0.29076 0.66343 0.0
C475 C 0.49023 0.24954 0.65991 0.0
C476 C 0.53108 0.24873 0.65315 0.0
C477 C 0.55078 0.28879 0.64974 0.0
C478 C 0.53064 0.33002 0.6544 0.0
H479 H 0.52117 0.8495 0.19372 0.0
H480 H 0.55615 0.83989 0.13564 0.0
H481 H 0.47608 0.84003 0.12072 0.0
H482 H 0.43699 0.76906 0.18026 0.0
H483 H 0.40167 0.79493 0.19634 0.0
H484 H 0.46118 0.80398 0.20249 0.0
H485 H 0.44925 0.88966 0.20455 0.0
H486 H 0.38953 0.88073 0.19817 0.0
H487 H 0.41737 0.91331 0.18372 0.0
H488 H 0.39102 0.83426 0.11185 0.0
H489 H 0.31176 0.8121 0.10985 0.0
H490 H 0.33457 0.81582 0.17331 0.0
C491 C 0.51246 0.84744 0.17784 0.0
C492 C 0.54572 0.84484 0.16599 0.0
C493 C 0.5319 0.84301 0.14525 0.0
C494 C 0.48626 0.84293 0.13657 0.0
C495 C 0.45457 0.84435 0.14874 0.0
C496 C 0.46725 0.84605 0.16894 0.0
C497 C 0.42734 0.84097 0.17866 0.0
C498 C 0.43208 0.79979 0.1901 0.0
C499 C 0.42048 0.88372 0.19207 0.0
C500 C 0.39028 0.83446 0.16073 0.0
C501 C 0.40625 0.83812 0.14363 0.0
C502 C 0.37818 0.83166 0.12517 0.0
C503 C 0.33321 0.81934 0.12415 0.0
C504 C 0.31736 0.81243 0.14143 0.0
C505 C 0.34595 0.82131 0.15992 0.0
H506 H 0.38848 0.38116 0.84789 0.0
H507 H 0.43972 0.24861 0.83404 0.0
H508 H 0.36426 0.21649 0.83156 0.0
H509 H 0.3244 0.3482 0.88047 0.0
H510 H 0.28017 0.38715 0.87423 0.0
H511 H 0.33608 0.39973 0.87141 0.0
H512 H 0.30581 0.4105 0.83525 0.0
H513 H 0.24962 0.3952 0.83698 0.0
H514 H 0.27698 0.36528 0.81865 0.0
H515 H 0.28414 0.19784 0.83415 0.0
H516 H 0.21074 0.19441 0.84455 0.0
H517 H 0.21461 0.33845 0.85865 0.0
C518 C 0.38416 0.34534 0.84427 0.0
C519 C 0.42053 0.31766 0.84111 0.0
C520 C 0.41257 0.27096 0.83614 0.0
C521 C 0.36968 0.25228 0.83475 0.0
C522 C 0.33494 0.28058 0.83841 0.0
C523 C 0.34197 0.32613 0.84321 0.0
C524 C 0.30086 0.34891 0.8487 0.0
C525 C 0.31099 0.37234 0.86996 0.0
C526 C 0.28217 0.38191 0.83402 0.0
C527 C 0.26989 0.30893 0.84684 0.0
C528 C 0.28961 0.26985 0.84045 0.0
C529 C 0.26823 0.22833 0.83893 0.0
C530 C 0.22648 0.22665 0.84478 0.0
C531 C 0.20702 0.26617 0.85231 0.0
C532 C 0.22859 0.30775 0.85281 0.0
H533 H 0.22237 0.76194 0.30383 0.0
H534 H 0.2223 0.86879 0.35133 0.0
H535 H 0.30356 0.85875 0.36257 0.0
H536 H 0.30004 0.692 0.33047 0.0
H537 H 0.32639 0.67392 0.30982 0.0
H538 H 0.26862 0.69007 0.3057 0.0
H539 H 0.286 0.74821 0.28331 0.0
H540 H 0.34388 0.73229 0.2874 0.0
H541 H 0.32923 0.78989 0.29279 0.0
H542 H 0.3857 0.83578 0.36863 0.0
H543 H 0.45962 0.8006 0.36945 0.0
H544 H 0.4048 0.71129 0.3171 0.0
C545 C 0.23941 0.78366 0.31648 0.0
C546 C 0.2159 0.81634 0.32663 0.0
C547 C 0.23948 0.84328 0.3434 0.0
C548 C 0.28569 0.83802 0.3498 0.0
C549 C 0.30783 0.8057 0.33929 0.0
C550 C 0.28532 0.77897 0.323 0.0
C551 C 0.31635 0.74624 0.31435 0.0
C552 C 0.30199 0.6977 0.31515 0.0
C553 C 0.31902 0.75468 0.29321 0.0
C554 C 0.35993 0.75845 0.32836 0.0
C555 C 0.35456 0.7929 0.34263 0.0
C556 C 0.39026 0.80905 0.3574 0.0
C557 C 0.4323 0.78915 0.35765 0.0
C558 C 0.43836 0.75365 0.34318 0.0
C559 C 0.40151 0.73849 0.32835 0.0
H560 H 0.74256 0.87782 0.59281 0.0
H561 H 0.6161 0.86786 0.55162 0.0
H562 H 0.61001 0.95017 0.55573 0.0
H563 H 0.7125 0.96699 0.62588 0.0
H564 H 0.76694 0.99366 0.631 0.0
H565 H 0.7617 0.93423 0.62405 0.0
H566 H 0.80355 0.94189 0.59537 0.0
H567 H 0.80843 1.0015 0.60213 0.0
H568 H 0.78261 0.97937 0.57746 0.0
H569 H 0.61564 0.03447 0.56616 0.0
H570 H 0.6321 0.11156 0.58261 0.0
H571 H 0.75649 0.06607 0.61539 0.0
C572 C 0.71358 0.89296 0.58468 0.0
C573 C 0.67992 0.86629 0.57184 0.0
C574 C 0.64263 0.88755 0.56137 0.0
C575 C 0.63883 0.93434 0.56362 0.0
C576 C 0.67276 0.95969 0.57628 0.0
C577 C 0.70946 0.93968 0.5866 0.0
C578 C 0.74081 0.9743 0.59962 0.0
C579 C 0.74575 0.96685 0.62142 0.0
C580 C 0.78656 0.97425 0.59325 0.0
C581 C 0.71563 0.01677 0.59535 0.0
C582 C 0.67653 1.00788 0.58178 0.0
C583 C 0.64661 0.04187 0.57654 0.0
C584 C 0.65644 0.08577 0.58579 0.0
C585 C 0.69599 0.09535 0.6 0.0
C586 C 0.7262 0.06025 0.60439 0.0
H587 H 0.21285 0.11046 0.08945 0.0
H588 H 0.297 0.1381 0.14719 0.0
H589 H 0.30772 0.05714 0.14861 0.0
H590 H 0.15582 0.02354 0.09885 0.0
H591 H 0.15239 0.99066 0.07526 0.0
H592 H 0.1588 0.05026 0.07722 0.0
H593 H 0.23003 0.04113 0.06179 0.0
H594 H 0.22377 0.98116 0.05975 0.0
H595 H 0.27545 1.00783 0.07265 0.0
H596 H 0.2969 0.97282 0.14635 0.0
H597 H 0.26535 0.89566 0.14026 0.0
H598 H 0.19372 0.9237 0.08316 0.0
C599 C 0.23516 0.09976 0.10204 0.0
C600 C 0.25386 0.13091 0.11821 0.0
C601 C 0.2817 0.11502 0.13468 0.0
C602 C 0.2884 0.069 0.13555 0.0
C603 C 0.26792 0.03909 0.11967 0.0
C604 C 0.24249 0.05403 0.10306 0.0
C605 C 0.22006 0.01546 0.08886 0.0
C606 C 0.16877 0.02028 0.08484 0.0
C607 C 0.23844 0.01115 0.06963 0.0
C608 C 0.23458 0.97678 0.10056 0.0
C609 C 0.26286 0.99066 0.11815 0.0
C610 C 0.27585 0.96134 0.13235 0.0
C611 C 0.25808 0.9174 0.12875 0.0
C612 C 0.2275 0.90354 0.11116 0.0
C613 C 0.2175 0.93316 0.09665 0.0
H614 H 0.49153 0.0489 0.419 0.0
H615 H 0.52096 0.10622 0.36838 0.0
H616 H 0.51589 0.0309 0.34969 0.0
H617 H 0.5612 0.96235 0.41646 0.0
H618 H 0.52692 0.92213 0.42441 0.0
H619 H 0.52105 0.98064 0.43164 0.0
H620 H 0.43634 0.97421 0.41652 0.0
H621 H 0.44228 0.91544 0.40901 0.0
H622 H 0.41865 0.9519 0.39108 0.0
H623 H 0.52297 0.94931 0.33904 0.0
H624 H 0.54665 0.87044 0.33848 0.0
H625 H 0.51481 0.86608 0.39619 0.0
C626 C 0.49604 0.04576 0.40384 0.0
C627 C 0.50677 0.08348 0.39517 0.0
C628 C 0.51215 0.07794 0.37527 0.0
C629 C 0.50923 0.03523 0.36453 0.0
C630 C 0.50033 0.99847 0.37381 0.0
C631 C 0.49358 1.00346 0.39304 0.0
C632 C 0.49141 0.95868 0.40074 0.0
C633 C 0.52729 0.9558 0.41939 0.0
C634 C 0.44436 0.94953 0.40456 0.0
C635 C 0.50121 0.92775 0.38337 0.0
C636 C 0.50465 0.9511 0.36768 0.0
C637 C 0.51895 0.93048 0.35095 0.0
C638 C 0.53205 0.88563 0.35066 0.0
C639 C 0.53096 0.86222 0.36702 0.0
C640 C 0.5139 0.88298 0.3832 0.0
H641 H 0.95626 0.87036 0.8709 0.0
H642 H 0.03148 0.86636 0.92997 0.0
H643 H 0.06386 0.94169 0.92909 0.0
H644 H 0.04005 0.92921 0.85196 0.0
H645 H 0.99818 0.96001 0.83722 0.0
H646 H 0.98516 0.905 0.84252 0.0
H647 H 0.91734 0.93696 0.85704 0.0
H648 H 0.93041 0.99208 0.85198 0.0
H649 H 0.92609 0.98248 0.87665 0.0
H650 H 0.08383 0.02249 0.92142 0.0
H651 H 0.09058 0.09422 0.9075 0.0
H652 H 0.99902 0.04114 0.85443 0.0
C653 C 0.97989 0.88507 0.88362 0.0
C654 C 0.99119 0.86264 0.90053 0.0
C655 C 0.02258 0.88289 0.9168 0.0
C656 C 0.04089 0.92576 0.91644 0.0
C657 C 0.02773 0.94763 0.89964 0.0
C658 C 0.9982 0.92736 0.88349 0.0
C659 C 0.98767 0.95734 0.86737 0.0
C660 C 1.00374 0.93666 0.84867 0.0
C661 C 0.93741 0.96783 0.86302 0.0
C662 C 0.01519 0.99819 0.87694 0.0
C663 C 0.03847 0.9925 0.89549 0.0
C664 C 0.06566 0.02697 0.90686 0.0
C665 C 0.06909 0.06782 0.89894 0.0
C666 C 0.04517 0.07387 0.87991 0.0
C667 C 0.01802 0.03821 0.86901 0.0
H668 H 0.22489 0.25089 0.01932 0.0
H669 H 0.09683 0.22147 0.03377 0.0
H670 H 0.07127 0.18387 -0.00017 0.0
H671 H 0.18639 0.28017 0.97365 0.0
H672 H 0.23127 0.25589 0.96252 0.0
H673 H 0.2406 0.27275 0.98853 0.0
H674 H 0.26671 0.19255 0.9948 0.0
H675 H 0.2565 0.17531 0.96864 0.0
H676 H 0.23019 0.14543 0.98455 0.0
H677 H 0.05575 0.16277 0.96277 0.0
H678 H 0.05123 0.16434 0.92693 0.0
H679 H 0.19142 0.20146 0.93743 0.0
C680 C 0.19192 0.23541 0.01539 0.0
C681 C 0.16273 0.23872 0.02895 0.0
C682 C 0.1196 0.21882 0.02346 0.0
C683 C 0.10502 0.19724 0.0043 0.0
C684 C 0.13444 0.19502 0.99103 0.0
C685 C 0.17725 0.2132 0.99649 0.0
C686 C 0.20095 0.21069 0.97917 0.0
C687 C 0.2156 0.25764 0.97577 0.0
C688 C 0.24096 0.1791 0.98196 0.0
C689 C 0.16394 0.19097 0.9628 0.0
C690 C 0.12601 0.18119 0.96989 0.0
C691 C 0.08565 0.16891 0.9571 0.0
C692 C 0.0834 0.16932 0.93672 0.0
C693 C 0.12123 0.18214 0.92946 0.0
C694 C 0.16243 0.19022 0.94261 0.0
H695 H 0.13011 0.87057 0.26516 0.0
H696 H 0.04329 0.76167 0.2709 0.0
H697 H 0.03038 0.74061 0.23484 0.0
H698 H 0.06899 0.89363 0.21315 0.0
H699 H 0.1219 0.90587 0.20669 0.0
H700 H 0.11357 0.91986 0.23165 0.0
H701 H 0.18365 0.87422 0.24413 0.0
H702 H 0.19185 0.85979 0.21936 0.0
H703 H 0.18629 0.81622 0.23451 0.0
H704 H 0.04353 0.71974 0.20062 0.0
H705 H 0.07884 0.70358 0.17127 0.0
H706 H 0.15436 0.82762 0.18712 0.0
C707 C 0.1068 0.84358 0.25862 0.0
C708 C 0.08742 0.81784 0.27061 0.0
C709 C 0.05782 0.78213 0.26182 0.0
C710 C 0.05034 0.77002 0.24137 0.0
C711 C 0.07189 0.79465 0.22996 0.0
C712 C 0.09873 0.83145 0.23825 0.0
C713 C 0.1231 0.84855 0.22345 0.0
C714 C 0.10584 0.89472 0.21844 0.0
C715 C 0.1742 0.84969 0.2308 0.0
C716 C 0.10916 0.81327 0.20611 0.0
C717 C 0.0786 0.78311 0.20988 0.0
C718 C 0.06608 0.744 0.19719 0.0
C719 C 0.08626 0.73496 0.18061 0.0
C720 C 0.11822 0.76504 0.17694 0.0
C721 C 0.12871 0.80513 0.18943 0.0
H722 H 0.60259 0.76429 0.51885 0.0
H723 H 0.71613 0.67676 0.5292 0.0
H724 H 0.69889 0.64424 0.49424 0.0
H725 H 0.52903 0.68569 0.4799 0.0
H726 H 0.50832 0.7315 0.46638 0.0
H727 H 0.5236 0.74025 0.49287 0.0
H728 H 0.57808 0.80444 0.49048 0.0
H729 H 0.56248 0.79623 0.46417 0.0
H730 H 0.62053 0.79364 0.47568 0.0
H731 H 0.6778 0.6321 0.45705 0.0
H732 H 0.6581 0.64542 0.42198 0.0
H733 H 0.55824 0.74001 0.43633 0.0
C734 C 0.62327 0.7376 0.51384 0.0
C735 C 0.66073 0.72311 0.52666 0.0
C736 C 0.68699 0.68807 0.51962 0.0
C737 C 0.67733 0.66932 0.49981 0.0
C738 C 0.64082 0.68542 0.48735 0.0
C739 C 0.61401 0.7186 0.49422 0.0
C740 C 0.58048 0.73446 0.47762 0.0
C741 C 0.53251 0.72223 0.4793 0.0
C742 C 0.58577 0.78515 0.47695 0.0
C743 C 0.59447 0.70728 0.46017 0.0
C744 C 0.62844 0.67813 0.46599 0.0
C745 C 0.65037 0.6538 0.45232 0.0
C746 C 0.63884 0.66125 0.43241 0.0
C747 C 0.60612 0.69302 0.42658 0.0
C748 C 0.58242 0.71456 0.44046 0.0
H749 H 0.58813 0.32931 0.76154 0.0
H750 H 0.56976 0.19701 0.77744 0.0
H751 H 0.56831 0.16479 0.74298 0.0
H752 H 0.52364 0.30745 0.70737 0.0
H753 H 0.564 0.3416 0.69963 0.0
H754 H 0.54933 0.35509 0.72354 0.0
H755 H 0.63337 0.35304 0.73948 0.0
H756 H 0.64785 0.33864 0.71575 0.0
H757 H 0.66457 0.30302 0.73488 0.0
H758 H 0.5886 0.14582 0.7104 0.0
H759 H 0.62546 0.1417 0.68149 0.0
H760 H 0.6295 0.28621 0.6858 0.0
C761 C 0.5812 0.29392 0.75736 0.0
C762 C 0.57776 0.26553 0.77175 0.0
C763 C 0.57114 0.21911 0.76633 0.0
C764 C 0.5703 0.20067 0.74683 0.0
C765 C 0.5759 0.22927 0.73303 0.0
C766 C 0.58042 0.27511 0.73795 0.0
C767 C 0.59327 0.29764 0.72138 0.0
C768 C 0.55527 0.32718 0.71245 0.0
C769 C 0.63737 0.32462 0.7283 0.0
C770 C 0.59875 0.25716 0.70704 0.0
C771 C 0.5875 0.21811 0.71381 0.0
C772 C 0.59591 0.17616 0.70457 0.0
C773 C 0.61706 0.17409 0.68827 0.0
C774 C 0.62922 0.21367 0.68134 0.0
C775 C 0.61895 0.2556 0.69051 0.0
H776 H 0.09252 0.71763 0.96023 0.0
H777 H 0.01968 0.59445 0.96076 0.0
H778 H 0.0539 0.59218 0.99545 0.0
H779 H 0.19468 0.69347 0.997 0.0
H780 H 0.19907 0.75074 0.00813 0.0
H781 H 0.17667 0.73795 0.98221 0.0
H782 H 0.10438 0.781 0.98664 0.0
H783 H 0.12683 0.7943 0.0124 0.0
H784 H 0.07331 0.76611 0.00468 0.0
H785 H 0.08576 0.60897 0.03124 0.0
H786 H 0.10761 0.64768 0.06513 0.0
H787 H 0.15891 0.75952 0.04171 0.0
C788 C 0.08445 0.68975 0.96754 0.0
C789 C 0.05409 0.65584 0.95754 0.0
C790 C 0.04395 0.62021 0.9678 0.0
C791 C 0.06321 0.61854 0.98759 0.0
C792 C 0.09267 0.65269 0.99707 0.0
C793 C 0.1032 0.6877 0.98738 0.0
C794 C 0.13085 0.72325 0.00151 0.0
C795 C 0.17813 0.72652 0.99694 0.0
C796 C 0.10742 0.76881 0.0013 0.0
C797 C 0.13191 0.70401 0.02075 0.0
C798 C 0.11085 0.66265 0.01788 0.0
C799 C 0.10339 0.6408 0.03369 0.0
C800 C 0.11608 0.66273 0.05287 0.0
C801 C 0.13558 0.70593 0.05584 0.0
C802 C 0.14501 0.72591 0.03969 0.0
H803 H 0.62073 0.84693 0.23524 0.0
H804 H 0.70432 0.74742 0.21052 0.0
H805 H 0.71182 0.70893 0.24065 0.0
H806 H 0.67923 0.84852 0.28792 0.0
H807 H 0.62715 0.85616 0.29658 0.0
H808 H 0.63464 0.87892 0.27454 0.0
H809 H 0.56326 0.83622 0.25519 0.0
H810 H 0.55581 0.81319 0.27707 0.0
H811 H 0.55953 0.77646 0.25508 0.0
H812 H 0.69889 0.67499 0.27104 0.0
H813 H 0.6705 0.65163 0.29967 0.0
H814 H 0.59875 0.77573 0.30477 0.0
C815 C 0.64161 0.81771 0.23646 0.0
C816 C 0.66211 0.80001 0.22075 0.0
C817 C 0.68882 0.76155 0.2226 0.0
C818 C 0.69316 0.73957 0.23961 0.0
C819 C 0.67132 0.75717 0.25469 0.0
C820 C 0.64673 0.79591 0.25337 0.0
C821 C 0.62373 0.80639 0.27078 0.0
C822 C 0.64232 0.85009 0.28319 0.0
C823 C 0.57258 0.80813 0.26412 0.0
C824 C 0.63733 0.76643 0.28169 0.0
C825 C 0.66516 0.73849 0.27236 0.0
C826 C 0.67821 0.69723 0.27876 0.0
C827 C 0.66199 0.68416 0.29495 0.0
C828 C 0.63362 0.71258 0.30452 0.0
C829 C 0.62163 0.75424 0.29795 0.0
H830 H 0.51053 0.20371 0.4707 0.0
H831 H 0.62582 0.13355 0.45494 0.0
H832 H 0.65661 0.12924 0.4903 0.0
H833 H 0.56697 0.26966 0.51332 0.0
H834 H 0.52222 0.26588 0.52679 0.0
H835 H 0.51 0.26152 0.50035 0.0
H836 H 0.47016 0.18517 0.49942 0.0
H837 H 0.48319 0.18896 0.5259 0.0
H838 H 0.50026 0.14088 0.51127 0.0
H839 H 0.67674 0.13796 0.52803 0.0
H840 H 0.68532 0.16214 0.56387 0.0
H841 H 0.5537 0.22096 0.55386 0.0
C842 C 0.54241 0.18774 0.47473 0.0
C843 C 0.56616 0.16945 0.46023 0.0
C844 C 0.60734 0.14797 0.46595 0.0
C845 C 0.62488 0.14515 0.48594 0.0
C846 C 0.60033 0.16321 0.49993 0.0
C847 C 0.5599 0.18397 0.4945 0.0
C848 C 0.54032 0.20165 0.5122 0.0
C849 C 0.53458 0.25269 0.51322 0.0
C850 C 0.49585 0.17772 0.51219 0.0
C851 C 0.57664 0.18897 0.52854 0.0
C852 C 0.61093 0.16647 0.5213 0.0
C853 C 0.64971 0.15487 0.53385 0.0
C854 C 0.65419 0.16832 0.5542 0.0
C855 C 0.62 0.19298 0.56165 0.0
C856 C 0.58021 0.20167 0.54864 0.0
H857 H 0.16285 0.33069 0.74645 0.0
H858 H 0.18057 0.20642 0.71105 0.0
H859 H 0.18389 0.16558 0.74018 0.0
H860 H 0.23227 0.29894 0.79536 0.0
H861 H 0.19364 0.32787 0.80895 0.0
H862 H 0.2047 0.34827 0.78693 0.0
H863 H 0.11947 0.34486 0.77253 0.0
H864 H 0.10869 0.32414 0.79437 0.0
H865 H 0.08933 0.29271 0.77066 0.0
H866 H 0.16776 0.13709 0.77019 0.0
H867 H 0.13494 0.12337 0.79893 0.0
H868 H 0.13047 0.26597 0.81582 0.0
C869 C 0.16954 0.2952 0.74521 0.0
C870 C 0.17245 0.27152 0.72682 0.0
C871 C 0.17928 0.22493 0.72523 0.0
C872 C 0.18129 0.20162 0.74169 0.0
C873 C 0.17688 0.22562 0.75961 0.0
C874 C 0.17185 0.27157 0.76156 0.0
C875 C 0.1616 0.28856 0.78159 0.0
C876 C 0.20037 0.31763 0.79393 0.0
C877 C 0.11714 0.31402 0.77965 0.0
C878 C 0.15826 0.24481 0.79 0.0
C879 C 0.16827 0.20894 0.7773 0.0
C880 C 0.16144 0.16489 0.78058 0.0
C881 C 0.14277 0.15735 0.79689 0.0
C882 C 0.13154 0.19364 0.80977 0.0
C883 C 0.14065 0.23775 0.80661 0.0
loop_
_geom_bond_atom_site_label_1
_geom_bond_atom_site_label_2
_geom_bond_distance
_geom_bond_site_symmetry_2
_ccdc_geom_bond_type
H0 C1 0.949 . S
C1 H0 0.949 . S
C1 C2 1.395 . S
C1 C3 1.391 . S
C2 C1 1.395 . S
C2 C5 1.390 . S
C3 C1 1.391 . S
C3 C7 1.387 . S
C3 C8 1.491 . S
H4 C5 0.950 . S
C5 C2 1.390 . S
C5 H4 0.950 . S
C5 C6 1.378 . S
C6 C5 1.378 . S
C6 C7 1.409 . S
C7 C3 1.387 . S
C7 C6 1.409 . S
C7 H9 0.951 . S
C8 C3 1.491 . S
C8 C10 1.382 . S
C8 C12 1.404 . S
H9 C7 0.951 . S
C10 C8 1.382 . S
C10 C11 1.390 . S
C10 H15 0.949 . S
C11 C10 1.390 . S
C11 C16 1.399 . S
C12 C8 1.404 . S
C12 H13 0.950 . S
C12 C14 1.375 . S
H13 C12 0.950 . S
C14 C12 1.375 . S
C14 C16 1.382 . S
C14 H18 0.950 . S
H15 C10 0.949 . S
C16 C11 1.399 . S
C16 C14 1.382 . S
C16 H17 0.952 . S
H17 C16 0.952 . S
H18 C14 0.950 . S
H19 C20 0.949 . S
C20 H19 0.949 . S
C20 C21 1.395 . S
C20 C22 1.391 . S
C21 C20 1.395 . S
C21 C24 1.390 . S
C22 C20 1.391 . S
C22 C26 1.387 . S
C22 C27 1.491 . S
H23 C24 0.950 . S
C24 C21 1.390 . S
C24 H23 0.950 . S
C24 C25 1.378 . S
C25 C24 1.378 . S
C25 C26 1.409 . S
C26 C22 1.387 . S
C26 C25 1.409 . S
C26 H28 0.951 . S
C27 C22 1.491 . S
C27 C29 1.382 . S
C27 C31 1.404 . S
H28 C26 0.951 . S
C29 C27 1.382 . S
C29 C30 1.390 1_455 S
C29 H34 0.949 . S
C30 C29 1.390 1_655 S
C30 C35 1.399 . S
C31 C27 1.404 . S
C31 H32 0.950 . S
C31 C33 1.375 . S
H32 C31 0.950 . S
C33 C31 1.375 . S
C33 C35 1.382 1_455 S
C33 H37 0.950 . S
H34 C29 0.949 . S
C35 C30 1.399 . S
C35 C33 1.382 1_655 S
C35 H36 0.952 . S
H36 C35 0.952 . S
H37 C33 0.950 . S
H38 C39 0.949 . S
C39 H38 0.949 . S
C39 C40 1.395 . S
C39 C41 1.391 . S
C40 C39 1.395 . S
C40 C43 1.390 . S
C41 C39 1.391 . S
C41 C45 1.387 . S
C41 C46 1.491 . S
H42 C43 0.950 . S
C43 C40 1.390 . S
C43 H42 0.950 . S
C43 C44 1.378 . S
C44 C43 1.378 . S
C44 C45 1.409 . S
C45 C41 1.387 . S
C45 C44 1.409 . S
C45 H47 0.951 . S
C46 C41 1.491 . S
C46 C48 1.382 . S
C46 C50 1.404 . S
H47 C45 0.951 . S
C48 C46 1.382 . S
C48 C49 1.390 . S
C48 H53 0.949 . S
C49 C48 1.390 . S
C49 C54 1.399 . S
C50 C46 1.404 . S
C50 H51 0.950 . S
C50 C52 1.375 . S
H51 C50 0.950 . S
C52 C50 1.375 . S
C52 C54 1.382 . S
C52 H56 0.950 . S
H53 C48 0.949 . S
C54 C49 1.399 . S
C54 C52 1.382 . S
C54 H55 0.952 . S
H55 C54 0.952 . S
H56 C52 0.950 . S
H57 C58 0.949 . S
C58 H57 0.949 . S
C58 C59 1.395 . S
C58 C60 1.391 . S
C59 C58 1.395 . S
C59 C62 1.390 . S
C60 C58 1.391 . S
C60 C64 1.387 . S
C60 C65 1.491 . S
H61 C62 0.950 . S
C62 C59 1.390 . S
C62 H61 0.950 . S
C62 C63 1.378 . S
C63 C62 1.378 . S
C63 C64 1.409 . S
C64 C60 1.387 . S
C64 C63 1.409 . S
C64 H66 0.951 . S
C65 C60 1.491 . S
C65 C67 1.382 . S
C65 C69 1.404 . S
H66 C64 0.951 . S
C67 C65 1.382 . S
C67 C68 1.390 . S
C67 H72 0.949 . S
C68 C67 1.390 . S
C68 C73 1.399 . S
C69 C65 1.404 . S
C69 H70 0.950 . S
C69 C71 1.375 . S
H70 C69 0.950 . S
C71 C69 1.375 . S
C71 C73 1.382 . S
C71 H75 0.950 . S
H72 C67 0.949 . S
C73 C68 1.399 . S
C73 C71 1.382 . S
C73 H74 0.952 . S
H74 C73 0.952 . S
H75 C71 0.950 . S
H76 C77 0.949 . S
C77 H76 0.949 . S
C77 C78 1.395 . S
C77 C79 1.391 . S
C78 C77 1.395 . S
C78 C81 1.390 . S
C79 C77 1.391 . S
C79 C83 1.387 . S
C79 C84 1.491 1_455 S
H80 C81 0.950 . S
C81 C78 1.390 . S
C81 H80 0.950 . S
C81 C82 1.378 . S
C82 C81 1.378 . S
C82 C83 1.409 . S
C83 C79 1.387 . S
C83 C82 1.409 . S
C83 H85 0.951 . S
C84 C79 1.491 1_655 S
C84 C86 1.382 1_655 S
C84 C88 1.404 . S
H85 C83 0.951 . S
C86 C84 1.382 1_455 S
C86 C87 1.390 . S
C86 H91 0.949 . S
C87 C86 1.390 . S
C87 C92 1.399 1_455 S
C88 C84 1.404 . S
C88 H89 0.950 . S
C88 C90 1.375 . S
H89 C88 0.950 . S
C90 C88 1.375 . S
C90 C92 1.382 . S
C90 H94 0.950 . S
H91 C86 0.949 . S
C92 C87 1.399 1_655 S
C92 C90 1.382 . S
C92 H93 0.952 . S
H93 C92 0.952 . S
H94 C90 0.950 . S
H95 C96 0.949 . S
C96 H95 0.949 . S
C96 C97 1.395 . S
C96 C98 1.391 . S
C97 C96 1.395 . S
C97 C100 1.390 . S
C98 C96 1.391 . S
C98 C102 1.387 . S
C98 C103 1.491 . S
H99 C100 0.950 . S
C100 C97 1.390 . S
C100 H99 0.950 . S
C100 C101 1.378 . S
C101 C100 1.378 . S
C101 C102 1.409 . S
C102 C98 1.387 . S
C102 C101 1.409 . S
C102 H104 0.951 . S
C103 C98 1.491 . S
C103 C105 1.382 . S
C103 C107 1.404 . S
H104 C102 0.951 . S
C105 C103 1.382 . S
C105 C106 1.390 . S
C105 H110 0.949 . S
C106 C105 1.390 . S
C106 C111 1.399 . S
C107 C103 1.404 . S
C107 H108 0.950 . S
C107 C109 1.375 . S
H108 C107 0.950 . S
C109 C107 1.375 . S
C109 C111 1.382 . S
C109 H113 0.950 . S
H110 C105 0.949 . S
C111 C106 1.399 . S
C111 C109 1.382 . S
C111 H112 0.952 . S
H112 C111 0.952 . S
H113 C109 0.950 . S
H114 C115 0.949 . S
C115 H114 0.949 . S
C115 C116 1.395 . S
C115 C117 1.391 . S
C116 C115 1.395 . S
C116 C119 1.390 . S
C117 C115 1.391 . S
C117 C121 1.387 . S
C117 C122 1.491 . S
H118 C119 0.950 . S
C119 C116 1.390 . S
C119 H118 0.950 . S
C119 C120 1.378 . S
C120 C119 1.378 . S
C120 C121 1.409 . S
C121 C117 1.387 . S
C121 C120 1.409 . S
C121 H123 0.951 . S
C122 C117 1.491 . S
C122 C124 1.382 . S
C122 C126 1.404 . S
H123 C121 0.951 . S
C124 C122 1.382 . S
C124 C125 1.390 . S
C124 H129 0.949 . S
C125 C124 1.390 . S
C125 C130 1.399 . S
C126 C122 1.404 . S
C126 H127 0.950 . S
C126 C128 1.375 . S
H127 C126 0.950 . S
C128 C126 1.375 . S
C128 C130 1.382 . S
C128 H132 0.950 . S
H129 C124 0.949 . S
C130 C125 1.399 . S
C130 C128 1.382 . S
C130 H131 0.952 . S
H131 C130 0.952 . S
H132 C128 0.950 . S
H133 C134 0.949 . S
C134 H133 0.949 . S
C134 C135 1.395 . S
C134 C136 1.391 . S
C135 C134 1.395 . S
C135 C138 1.390 . S
C136 C134 1.391 . S
C136 C140 1.387 . S
C136 C141 1.491 . S
H137 C138 0.950 . S
C138 C135 1.390 . S
C138 H137 0.950 . S
C138 C139 1.378 . S
C139 C138 1.378 . S
C139 C140 1.409 . S
C140 C136 1.387 . S
C140 C139 1.409 . S
C140 H142 0.951 . S
C141 C136 1.491 . S
C141 C143 1.382 . S
C141 C145 1.404 . S
H142 C140 0.951 . S
C143 C141 1.382 . S
C143 C144 1.390 . S
C143 H148 0.949 . S
C144 C143 1.390 . S
C144 C149 1.399 . S
C145 C141 1.404 . S
C145 H146 0.950 . S
C145 C147 1.375 . S
H146 C145 0.950 . S
C147 C145 1.375 . S
C147 C149 1.382 . S
C147 H151 0.950 . S
H148 C143 0.949 . S
C149 C144 1.399 . S
C149 C147 1.382 . S
C149 H150 0.952 . S
H150 C149 0.952 . S
H151 C147 0.950 . S
Zn152 O158 1.920 . S
Zn152 O164 1.898 . S
Zn152 O167 1.905 . S
Zn153 O161 1.905 . S
Zn153 O162 1.898 . S
Zn153 O170 1.920 . S
Zn154 O157 2.080 . S
Zn154 O160 2.114 . S
Zn154 O163 2.120 . S
Zn154 O165 2.120 . S
Zn154 O166 2.114 . S
Zn154 O169 2.080 . S
C155 O160 1.166 . S
C155 O161 1.182 . S
C156 O162 1.167 . S
C156 O163 1.299 . S
O157 Zn154 2.080 . S
O157 C171 1.305 . S
O158 Zn152 1.920 . S
O158 C171 1.234 . S
C159 O164 1.167 . S
C159 O165 1.299 . S
O160 Zn154 2.114 . S
O160 C155 1.166 . S
O161 Zn153 1.905 . S
O161 C155 1.182 . S
O162 Zn153 1.898 . S
O162 C156 1.167 . S
O163 Zn154 2.120 . S
O163 C156 1.299 . S
O164 Zn152 1.898 . S
O164 C159 1.167 . S
O165 Zn154 2.120 . S
O165 C159 1.299 . S
O166 Zn154 2.114 . S
O166 C168 1.166 . S
O167 Zn152 1.905 . S
O167 C168 1.182 . S
C168 O166 1.166 . S
C168 O167 1.182 . S
O169 Zn154 2.080 . S
O169 C172 1.305 . S
O170 Zn153 1.920 . S
O170 C172 1.234 . S
C171 O157 1.305 . S
C171 O158 1.234 . S
C172 O169 1.305 . S
C172 O170 1.234 . S
Zn173 O179 1.920 . S
Zn173 O185 1.898 . S
Zn173 O188 1.905 . S
Zn174 O182 1.905 . S
Zn174 O183 1.898 . S
Zn174 O191 1.920 . S
Zn175 O178 2.080 . S
Zn175 O181 2.114 . S
Zn175 O184 2.120 . S
Zn175 O186 2.120 . S
Zn175 O187 2.114 . S
Zn175 O190 2.080 . S
C176 O181 1.166 . S
C176 O182 1.182 . S
C177 O183 1.167 . S
C177 O184 1.299 . S
O178 Zn175 2.080 . S
O178 C192 1.305 . S
O179 Zn173 1.920 . S
O179 C192 1.234 . S
C180 O185 1.167 . S
C180 O186 1.299 . S
O181 Zn175 2.114 . S
O181 C176 1.166 . S
O182 Zn174 1.905 . S
O182 C176 1.182 . S
O183 Zn174 1.898 . S
O183 C177 1.167 . S
O184 Zn175 2.120 . S
O184 C177 1.299 . S
O185 Zn173 1.898 . S
O185 C180 1.167 . S
O186 Zn175 2.120 . S
O186 C180 1.299 . S
O187 Zn175 2.114 . S
O187 C189 1.166 . S
O188 Zn173 1.905 . S
O188 C189 1.182 . S
C189 O187 1.166 . S
C189 O188 1.182 . S
O190 Zn175 2.080 . S
O190 C193 1.305 . S
O191 Zn174 1.920 . S
O191 C193 1.234 . S
C192 O178 1.305 . S
C192 O179 1.234 . S
C193 O190 1.305 . S
C193 O191 1.234 . S
Zn194 O200 1.920 . S
Zn194 O206 1.898 . S
Zn194 O209 1.905 . S
Zn195 O203 1.905 . S
Zn195 O204 1.898 . S
Zn195 O212 1.920 . S
Zn196 O199 2.080 . S
Zn196 O202 2.114 . S
Zn196 O205 2.120 . S
Zn196 O207 2.120 . S
Zn196 O208 2.114 . S
Zn196 O211 2.080 . S
C197 O202 1.166 . S
C197 O203 1.182 . S
C198 O204 1.167 . S
C198 O205 1.299 . S
O199 Zn196 2.080 . S
O199 C213 1.305 . S
O200 Zn194 1.920 . S
O200 C213 1.234 . S
C201 O206 1.167 . S
C201 O207 1.299 . S
O202 Zn196 2.114 . S
O202 C197 1.166 . S
O203 Zn195 1.905 . S
O203 C197 1.182 . S
O204 Zn195 1.898 . S
O204 C198 1.167 . S
O205 Zn196 2.120 . S
O205 C198 1.299 . S
O206 Zn194 1.898 . S
O206 C201 1.167 . S
O207 Zn196 2.120 . S
O207 C201 1.299 . S
O208 Zn196 2.114 . S
O208 C210 1.166 . S
O209 Zn194 1.905 . S
O209 C210 1.182 . S
C210 O208 1.166 . S
C210 O209 1.182 . S
O211 Zn196 2.080 . S
O211 C214 1.305 . S
O212 Zn195 1.920 . S
O212 C214 1.234 . S
C213 O199 1.305 . S
C213 O200 1.234 . S
C214 O211 1.305 . S
C214 O212 1.234 . S
Zn215 O221 1.920 . S
Zn215 O227 1.898 . S
Zn215 O230 1.905 1_455 S
Zn216 O224 1.905 . S
Zn216 O225 1.898 . S
Zn216 O233 1.920 . S
Zn217 O220 2.080 . S
Zn217 O223 2.114 . S
Zn217 O226 2.120 . S
Zn217 O228 2.120 . S
Zn217 O229 2.114 . S
Zn217 O232 2.080 . S
C218 O223 1.166 . S
C218 O224 1.182 . S
C219 O225 1.167 . S
C219 O226 1.299 . S
O220 Zn217 2.080 . S
O220 C234 1.305 . S
O221 Zn215 1.920 . S
O221 C234 1.234 . S
C222 O227 1.167 . S
C222 O228 1.299 . S
O223 Zn217 2.114 . S
O223 C218 1.166 . S
O224 Zn216 1.905 . S
O224 C218 1.182 . S
O225 Zn216 1.898 . S
O225 C219 1.167 . S
O226 Zn217 2.120 . S
O226 C219 1.299 . S
O227 Zn215 1.898 . S
O227 C222 1.167 . S
O228 Zn217 2.120 . S
O228 C222 1.299 . S
O229 Zn217 2.114 . S
O229 C231 1.166 1_455 S
O230 Zn215 1.905 1_655 S
O230 C231 1.182 . S
C231 O229 1.166 1_655 S
C231 O230 1.182 . S
O232 Zn217 2.080 . S
O232 C235 1.305 . S
O233 Zn216 1.920 . S
O233 C235 1.234 . S
C234 O220 1.305 . S
C234 O221 1.234 . S
C235 O232 1.305 . S
C235 O233 1.234 . S
H236 C248 0.930 . S
H237 C250 0.930 . S
H238 C251 0.930 . S
H239 C255 0.959 . S
H240 C255 0.959 . S
H241 C255 0.961 . S
H242 C256 0.960 . S
H243 C256 0.961 . S
H244 C256 0.959 . S
H245 C259 0.929 . S
H246 C260 0.931 . S
H247 C262 0.930 . S
C248 H236 0.930 . S
C248 C249 1.399 . S
C248 C253 1.399 . S
C249 C248 1.399 . S
C249 C250 1.376 . S
C250 H237 0.930 . S
C250 C249 1.376 . S
C250 C251 1.388 . S
C251 H238 0.930 . S
C251 C250 1.388 . S
C251 C252 1.390 . S
C252 C251 1.390 . S
C252 C253 1.394 . S
C252 C258 1.465 . S
C253 C248 1.399 . S
C253 C252 1.394 . S
C253 C254 1.516 . S
C254 C253 1.516 . S
C254 C255 1.502 . S
C254 C256 1.561 . S
C254 C257 1.526 . S
C255 H239 0.959 . S
C255 H240 0.959 . S
C255 H241 0.961 . S
C255 C254 1.502 . S
C256 H242 0.960 . S
C256 H243 0.961 . S
C256 H244 0.959 . S
C256 C254 1.561 . S
C257 C254 1.526 . S
C257 C258 1.396 . S
C257 C262 1.390 . S
C258 C252 1.465 . S
C258 C257 1.396 . S
C258 C259 1.399 . S
C259 H245 0.929 . S
C259 C258 1.399 . S
C259 C260 1.385 . S
C260 H246 0.931 . S
C260 C259 1.385 . S
C260 C261 1.389 . S
C261 C260 1.389 . S
C261 C262 1.387 . S
C262 H247 0.930 . S
C262 C257 1.390 . S
C262 C261 1.387 . S
H263 C275 0.930 . S
H264 C277 0.930 . S
H265 C278 0.930 . S
H266 C282 0.959 . S
H267 C282 0.959 . S
H268 C282 0.961 . S
H269 C283 0.960 . S
H270 C283 0.961 . S
H271 C283 0.959 . S
H272 C286 0.929 . S
H273 C287 0.931 . S
H274 C289 0.930 . S
C275 H263 0.930 . S
C275 C276 1.399 . S
C275 C280 1.399 . S
C276 C275 1.399 . S
C276 C277 1.376 . S
C277 H264 0.930 . S
C277 C276 1.376 . S
C277 C278 1.388 . S
C278 H265 0.930 . S
C278 C277 1.388 . S
C278 C279 1.390 . S
C279 C278 1.390 . S
C279 C280 1.394 . S
C279 C285 1.465 . S
C280 C275 1.399 . S
C280 C279 1.394 . S
C280 C281 1.516 . S
C281 C280 1.516 . S
C281 C282 1.502 . S
C281 C283 1.561 . S
C281 C284 1.526 . S
C282 H266 0.959 . S
C282 H267 0.959 . S
C282 H268 0.961 . S
C282 C281 1.502 . S
C283 H269 0.960 . S
C283 H270 0.961 . S
C283 H271 0.959 . S
C283 C281 1.561 . S
C284 C281 1.526 . S
C284 C285 1.396 . S
C284 C289 1.390 . S
C285 C279 1.465 . S
C285 C284 1.396 . S
C285 C286 1.399 . S
C286 H272 0.929 . S
C286 C285 1.399 . S
C286 C287 1.385 . S
C287 H273 0.931 . S
C287 C286 1.385 . S
C287 C288 1.389 . S
C288 C287 1.389 . S
C288 C289 1.387 . S
C289 H274 0.930 . S
C289 C284 1.390 . S
C289 C288 1.387 . S
H290 C302 0.930 . S
H291 C304 0.930 . S
H292 C305 0.930 . S
H293 C309 0.959 . S
H294 C309 0.959 . S
H295 C309 0.961 . S
H296 C310 0.960 . S
H297 C310 0.961 . S
H298 C310 0.959 . S
H299 C313 0.929 . S
H300 C314 0.931 . S
H301 C316 0.930 . S
C302 H290 0.930 . S
C302 C303 1.399 . S
C302 C307 1.399 . S
C303 C302 1.399 . S
C303 C304 1.376 . S
C304 H291 0.930 . S
C304 C303 1.376 . S
C304 C305 1.388 . S
C305 H292 0.930 . S
C305 C304 1.388 . S
C305 C306 1.390 . S
C306 C305 1.390 . S
C306 C307 1.394 . S
C306 C312 1.465 . S
C307 C302 1.399 . S
C307 C306 1.394 . S
C307 C308 1.516 . S
C308 C307 1.516 . S
C308 C309 1.502 . S
C308 C310 1.561 . S
C308 C311 1.526 . S
C309 H293 0.959 . S
C309 H294 0.959 . S
C309 H295 0.961 . S
C309 C308 1.502 . S
C310 H296 0.960 . S
C310 H297 0.961 . S
C310 H298 0.959 . S
C310 C308 1.561 . S
C311 C308 1.526 . S
C311 C312 1.396 . S
C311 C316 1.390 . S
C312 C306 1.465 . S
C312 C311 1.396 . S
C312 C313 1.399 . S
C313 H299 0.929 . S
C313 C312 1.399 . S
C313 C314 1.385 . S
C314 H300 0.931 . S
C314 C313 1.385 . S
C314 C315 1.389 . S
C315 C314 1.389 . S
C315 C316 1.387 . S
C316 H301 0.930 . S
C316 C311 1.390 . S
C316 C315 1.387 . S
H317 C329 0.930 . S
H318 C331 0.930 . S
H319 C332 0.930 . S
H320 C336 0.959 . S
H321 C336 0.959 . S
H322 C336 0.961 . S
H323 C337 0.960 . S
H324 C337 0.961 . S
H325 C337 0.959 . S
H326 C340 0.929 . S
H327 C341 0.931 . S
H328 C343 0.930 . S
C329 H317 0.930 . S
C329 C330 1.399 . S
C329 C334 1.399 . S
C330 C329 1.399 . S
C330 C331 1.376 . S
C331 H318 0.930 . S
C331 C330 1.376 . S
C331 C332 1.388 . S
C332 H319 0.930 . S
C332 C331 1.388 . S
C332 C333 1.390 . S
C333 C332 1.390 . S
C333 C334 1.394 . S
C333 C339 1.465 . S
C334 C329 1.399 . S
C334 C333 1.394 . S
C334 C335 1.516 . S
C335 C334 1.516 . S
C335 C336 1.502 . S
C335 C337 1.561 . S
C335 C338 1.526 . S
C336 H320 0.959 . S
C336 H321 0.959 . S
C336 H322 0.961 . S
C336 C335 1.502 . S
C337 H323 0.960 . S
C337 H324 0.961 . S
C337 H325 0.959 . S
C337 C335 1.561 . S
C338 C335 1.526 . S
C338 C339 1.396 . S
C338 C343 1.390 . S
C339 C333 1.465 . S
C339 C338 1.396 . S
C339 C340 1.399 . S
C340 H326 0.929 . S
C340 C339 1.399 . S
C340 C341 1.385 . S
C341 H327 0.931 . S
C341 C340 1.385 . S
C341 C342 1.389 . S
C342 C341 1.389 . S
C342 C343 1.387 . S
C343 H328 0.930 . S
C343 C338 1.390 . S
C343 C342 1.387 . S
H344 C356 0.930 . S
H345 C358 0.930 1_655 S
H346 C359 0.930 . S
H347 C363 0.959 . S
H348 C363 0.959 . S
H349 C363 0.961 . S
H350 C364 0.960 . S
H351 C364 0.961 . S
H352 C364 0.959 1_655 S
H353 C367 0.929 . S
H354 C368 0.931 . S
H355 C370 0.930 . S
C356 H344 0.930 . S
C356 C357 1.399 . S
C356 C361 1.399 . S
C357 C356 1.399 . S
C357 C358 1.376 . S
C358 H345 0.930 1_455 S
C358 C357 1.376 . S
C358 C359 1.388 . S
C359 H346 0.930 . S
C359 C358 1.388 . S
C359 C360 1.390 . S
C360 C359 1.390 . S
C360 C361 1.394 . S
C360 C366 1.465 . S
C361 C356 1.399 . S
C361 C360 1.394 . S
C361 C362 1.516 . S
C362 C361 1.516 . S
C362 C363 1.502 . S
C362 C364 1.561 . S
C362 C365 1.526 . S
C363 H347 0.959 . S
C363 H348 0.959 . S
C363 H349 0.961 . S
C363 C362 1.502 . S
C364 H350 0.960 . S
C364 H351 0.961 . S
C364 H352 0.959 1_455 S
C364 C362 1.561 . S
C365 C362 1.526 . S
C365 C366 1.396 . S
C365 C370 1.390 . S
C366 C360 1.465 . S
C366 C365 1.396 . S
C366 C367 1.399 . S
C367 H353 0.929 . S
C367 C366 1.399 . S
C367 C368 1.385 . S
C368 H354 0.931 . S
C368 C367 1.385 . S
C368 C369 1.389 . S
C369 C368 1.389 . S
C369 C370 1.387 . S
C370 H355 0.930 . S
C370 C365 1.390 . S
C370 C369 1.387 . S
H371 C383 0.930 . S
H372 C385 0.930 . S
H373 C386 0.930 . S
H374 C390 0.959 . S
H375 C390 0.959 . S
H376 C390 0.961 . S
H377 C391 0.960 . S
H378 C391 0.961 . S
H379 C391 0.959 . S
H380 C394 0.929 . S
H381 C395 0.931 . S
H382 C397 0.930 . S
C383 H371 0.930 . S
C383 C384 1.399 . S
C383 C388 1.399 . S
C384 C383 1.399 . S
C384 C385 1.376 . S
C385 H372 0.930 . S
C385 C384 1.376 . S
C385 C386 1.388 . S
C386 H373 0.930 . S
C386 C385 1.388 . S
C386 C387 1.390 . S
C387 C386 1.390 . S
C387 C388 1.394 . S
C387 C393 1.465 . S
C388 C383 1.399 . S
C388 C387 1.394 . S
C388 C389 1.516 . S
C389 C388 1.516 . S
C389 C390 1.502 . S
C389 C391 1.561 . S
C389 C392 1.526 . S
C390 H374 0.959 . S
C390 H375 0.959 . S
C390 H376 0.961 . S
C390 C389 1.502 . S
C391 H377 0.960 . S
C391 H378 0.961 . S
C391 H379 0.959 . S
C391 C389 1.561 . S
C392 C389 1.526 . S
C392 C393 1.396 . S
C392 C397 1.390 . S
C393 C387 1.465 . S
C393 C392 1.396 . S
C393 C394 1.399 . S
C394 H380 0.929 . S
C394 C393 1.399 . S
C394 C395 1.385 1_655 S
C395 H381 0.931 . S
C395 C394 1.385 1_455 S
C395 C396 1.389 . S
C396 C395 1.389 . S
C396 C397 1.387 1_455 S
C397 H382 0.930 . S
C397 C392 1.390 . S
C397 C396 1.387 1_655 S
H398 C410 0.930 . S
H399 C412 0.930 . S
H400 C413 0.930 . S
H401 C417 0.959 . S
H402 C417 0.959 . S
H403 C417 0.961 . S
H404 C418 0.960 . S
H405 C418 0.961 . S
H406 C418 0.959 . S
H407 C421 0.929 . S
H408 C422 0.931 . S
H409 C424 0.930 . S
C410 H398 0.930 . S
C410 C411 1.399 . S
C410 C415 1.399 . S
C411 C410 1.399 . S
C411 C412 1.376 . S
C412 H399 0.930 . S
C412 C411 1.376 . S
C412 C413 1.388 . S
C413 H400 0.930 . S
C413 C412 1.388 . S
C413 C414 1.390 . S
C414 C413 1.390 . S
C414 C415 1.394 . S
C414 C420 1.465 . S
C415 C410 1.399 . S
C415 C414 1.394 . S
C415 C416 1.516 . S
C416 C415 1.516 . S
C416 C417 1.502 . S
C416 C418 1.561 . S
C416 C419 1.526 . S
C417 H401 0.959 . S
C417 H402 0.959 . S
C417 H403 0.961 . S
C417 C416 1.502 . S
C418 H404 0.960 . S
C418 H405 0.961 . S
C418 H406 0.959 . S
C418 C416 1.561 . S
C419 C416 1.526 . S
C419 C420 1.396 . S
C419 C424 1.390 . S
C420 C414 1.465 . S
C420 C419 1.396 . S
C420 C421 1.399 . S
C421 H407 0.929 . S
C421 C420 1.399 . S
C421 C422 1.385 . S
C422 H408 0.931 . S
C422 C421 1.385 . S
C422 C423 1.389 . S
C423 C422 1.389 . S
C423 C424 1.387 . S
C424 H409 0.930 . S
C424 C419 1.390 . S
C424 C423 1.387 . S
H425 C437 0.930 . S
H426 C439 0.930 . S
H427 C440 0.930 . S
H428 C444 0.959 . S
H429 C444 0.959 . S
H430 C444 0.961 . S
H431 C445 0.960 . S
H432 C445 0.961 . S
H433 C445 0.959 . S
H434 C448 0.929 . S
H435 C449 0.931 . S
H436 C451 0.930 . S
C437 H425 0.930 . S
C437 C438 1.399 1_655 S
C437 C442 1.399 . S
C438 C437 1.399 1_455 S
C438 C439 1.376 . S
C439 H426 0.930 . S
C439 C438 1.376 . S
C439 C440 1.388 1_455 S
C440 H427 0.930 . S
C440 C439 1.388 1_655 S
C440 C441 1.390 . S
C441 C440 1.390 . S
C441 C442 1.394 . S
C441 C447 1.465 . S
C442 C437 1.399 . S
C442 C441 1.394 . S
C442 C443 1.516 . S
C443 C442 1.516 . S
C443 C444 1.502 . S
C443 C445 1.561 . S
C443 C446 1.526 . S
C444 H428 0.959 . S
C444 H429 0.959 . S
C444 H430 0.961 . S
C444 C443 1.502 . S
C445 H431 0.960 . S
C445 H432 0.961 . S
C445 H433 0.959 . S
C445 C443 1.561 . S
C446 C443 1.526 . S
C446 C447 1.396 . S
C446 C451 1.390 . S
C447 C441 1.465 . S
C447 C446 1.396 . S
C447 C448 1.399 . S
C448 H434 0.929 . S
C448 C447 1.399 . S
C448 C449 1.385 . S
C449 H435 0.931 . S
C449 C448 1.385 . S
C449 C450 1.389 . S
C450 C449 1.389 . S
C450 C451 1.387 . S
C451 H436 0.930 . S
C451 C446 1.390 . S
C451 C450 1.387 . S
H452 C464 0.930 . S
H453 C466 0.930 . S
H454 C467 0.930 . S
H455 C471 0.959 . S
H456 C471 0.959 . S
H457 C471 0.961 . S
H458 C472 0.960 . S
H459 C472 0.961 . S
H460 C472 0.959 . S
H461 C475 0.929 . S
H462 C476 0.931 . S
H463 C478 0.930 . S
C464 H452 0.930 . S
C464 C465 1.399 . S
C464 C469 1.399 . S
C465 C464 1.399 . S
C465 C466 1.376 . S
C466 H453 0.930 . S
C466 C465 1.376 . S
C466 C467 1.388 . S
C467 H454 0.930 . S
C467 C466 1.388 . S
C467 C468 1.390 . S
C468 C467 1.390 . S
C468 C469 1.394 . S
C468 C474 1.465 . S
C469 C464 1.399 . S
C469 C468 1.394 . S
C469 C470 1.516 . S
C470 C469 1.516 . S
C470 C471 1.502 . S
C470 C472 1.561 . S
C470 C473 1.526 . S
C471 H455 0.959 . S
C471 H456 0.959 . S
C471 H457 0.961 . S
C471 C470 1.502 . S
C472 H458 0.960 . S
C472 H459 0.961 . S
C472 H460 0.959 . S
C472 C470 1.561 . S
C473 C470 1.526 . S
C473 C474 1.396 . S
C473 C478 1.390 . S
C474 C468 1.465 . S
C474 C473 1.396 . S
C474 C475 1.399 . S
C475 H461 0.929 . S
C475 C474 1.399 . S
C475 C476 1.385 . S
C476 H462 0.931 . S
C476 C475 1.385 . S
C476 C477 1.389 . S
C477 C476 1.389 . S
C477 C478 1.387 . S
C478 H463 0.930 . S
C478 C473 1.390 . S
C478 C477 1.387 . S
H479 C491 0.930 . S
H480 C493 0.930 . S
H481 C494 0.930 . S
H482 C498 0.959 . S
H483 C498 0.959 . S
H484 C498 0.961 . S
H485 C499 0.960 . S
H486 C499 0.961 . S
H487 C499 0.959 . S
H488 C502 0.929 . S
H489 C503 0.931 . S
H490 C505 0.930 . S
C491 H479 0.930 . S
C491 C492 1.399 . S
C491 C496 1.399 . S
C492 C491 1.399 . S
C492 C493 1.376 . S
C493 H480 0.930 . S
C493 C492 1.376 . S
C493 C494 1.388 . S
C494 H481 0.930 . S
C494 C493 1.388 . S
C494 C495 1.390 . S
C495 C494 1.390 . S
C495 C496 1.394 . S
C495 C501 1.465 . S
C496 C491 1.399 . S
C496 C495 1.394 . S
C496 C497 1.516 . S
C497 C496 1.516 . S
C497 C498 1.502 . S
C497 C499 1.561 . S
C497 C500 1.526 . S
C498 H482 0.959 . S
C498 H483 0.959 . S
C498 H484 0.961 . S
C498 C497 1.502 . S
C499 H485 0.960 . S
C499 H486 0.961 . S
C499 H487 0.959 . S
C499 C497 1.561 . S
C500 C497 1.526 . S
C500 C501 1.396 . S
C500 C505 1.390 . S
C501 C495 1.465 . S
C501 C500 1.396 . S
C501 C502 1.399 . S
C502 H488 0.929 . S
C502 C501 1.399 . S
C502 C503 1.385 . S
C503 H489 0.931 . S
C503 C502 1.385 . S
C503 C504 1.389 . S
C504 C503 1.389 . S
C504 C505 1.387 . S
C505 H490 0.930 . S
C505 C500 1.390 . S
C505 C504 1.387 . S
H506 C518 0.930 . S
H507 C520 0.930 . S
H508 C521 0.930 . S
H509 C525 0.959 . S
H510 C525 0.959 . S
H511 C525 0.961 . S
H512 C526 0.960 . S
H513 C526 0.961 . S
H514 C526 0.959 . S
H515 C529 0.929 . S
H516 C530 0.931 . S
H517 C532 0.930 . S
C518 H506 0.930 . S
C518 C519 1.399 . S
C518 C523 1.399 . S
C519 C518 1.399 . S
C519 C520 1.376 . S
C520 H507 0.930 . S
C520 C519 1.376 . S
C520 C521 1.388 . S
C521 H508 0.930 . S
C521 C520 1.388 . S
C521 C522 1.390 . S
C522 C521 1.390 . S
C522 C523 1.394 . S
C522 C528 1.465 . S
C523 C518 1.399 . S
C523 C522 1.394 . S
C523 C524 1.516 . S
C524 C523 1.516 . S
C524 C525 1.502 . S
C524 C526 1.561 . S
C524 C527 1.526 . S
C525 H509 0.959 . S
C525 H510 0.959 . S
C525 H511 0.961 . S
C525 C524 1.502 . S
C526 H512 0.960 . S
C526 H513 0.961 . S
C526 H514 0.959 . S
C526 C524 1.561 . S
C527 C524 1.526 . S
C527 C528 1.396 . S
C527 C532 1.390 . S
C528 C522 1.465 . S
C528 C527 1.396 . S
C528 C529 1.399 . S
C529 H515 0.929 . S
C529 C528 1.399 . S
C529 C530 1.385 . S
C530 H516 0.931 . S
C530 C529 1.385 . S
C530 C531 1.389 . S
C531 C530 1.389 . S
C531 C532 1.387 . S
C532 H517 0.930 . S
C532 C527 1.390 . S
C532 C531 1.387 . S
H533 C545 0.930 . S
H534 C547 0.930 . S
H535 C548 0.930 . S
H536 C552 0.959 . S
H537 C552 0.959 . S
H538 C552 0.961 . S
H539 C553 0.960 . S
H540 C553 0.961 . S
H541 C553 0.959 . S
H542 C556 0.929 . S
H543 C557 0.931 . S
H544 C559 0.930 . S
C545 H533 0.930 . S
C545 C546 1.399 . S
C545 C550 1.399 . S
C546 C545 1.399 . S
C546 C547 1.376 . S
C547 H534 0.930 . S
C547 C546 1.376 . S
C547 C548 1.388 . S
C548 H535 0.930 . S
C548 C547 1.388 . S
C548 C549 1.390 . S
C549 C548 1.390 . S
C549 C550 1.394 . S
C549 C555 1.465 . S
C550 C545 1.399 . S
C550 C549 1.394 . S
C550 C551 1.516 . S
C551 C550 1.516 . S
C551 C552 1.502 . S
C551 C553 1.561 . S
C551 C554 1.526 . S
C552 H536 0.959 . S
C552 H537 0.959 . S
C552 H538 0.961 . S
C552 C551 1.502 . S
C553 H539 0.960 . S
C553 H540 0.961 . S
C553 H541 0.959 . S
C553 C551 1.561 . S
C554 C551 1.526 . S
C554 C555 1.396 . S
C554 C559 1.390 . S
C555 C549 1.465 . S
C555 C554 1.396 . S
C555 C556 1.399 . S
C556 H542 0.929 . S
C556 C555 1.399 . S
C556 C557 1.385 . S
C557 H543 0.931 . S
C557 C556 1.385 . S
C557 C558 1.389 . S
C558 C557 1.389 . S
C558 C559 1.387 . S
C559 H544 0.930 . S
C559 C554 1.390 . S
C559 C558 1.387 . S
H560 C572 0.930 . S
H561 C574 0.930 . S
H562 C575 0.930 . S
H563 C579 0.959 . S
H564 C579 0.959 . S
H565 C579 0.961 . S
H566 C580 0.960 . S
H567 C580 0.961 . S
H568 C580 0.959 . S
H569 C583 0.929 . S
H570 C584 0.931 . S
H571 C586 0.930 . S
C572 H560 0.930 . S
C572 C573 1.399 . S
C572 C577 1.399 . S
C573 C572 1.399 . S
C573 C574 1.376 . S
C574 H561 0.930 . S
C574 C573 1.376 . S
C574 C575 1.388 . S
C575 H562 0.930 . S
C575 C574 1.388 . S
C575 C576 1.390 . S
C576 C575 1.390 . S
C576 C577 1.394 . S
C576 C582 1.465 . S
C577 C572 1.399 . S
C577 C576 1.394 . S
C577 C578 1.516 . S
C578 C577 1.516 . S
C578 C579 1.502 . S
C578 C580 1.561 . S
C578 C581 1.526 . S
C579 H563 0.959 . S
C579 H564 0.959 . S
C579 H565 0.961 . S
C579 C578 1.502 . S
C580 H566 0.960 . S
C580 H567 0.961 . S
C580 H568 0.959 . S
C580 C578 1.561 . S
C581 C578 1.526 . S
C581 C582 1.396 . S
C581 C586 1.390 1_565 S
C582 C576 1.465 . S
C582 C581 1.396 . S
C582 C583 1.399 . S
C583 H569 0.929 . S
C583 C582 1.399 . S
C583 C584 1.385 1_565 S
C584 H570 0.931 . S
C584 C583 1.385 1_545 S
C584 C585 1.389 . S
C585 C584 1.389 . S
C585 C586 1.387 . S
C586 H571 0.930 . S
C586 C581 1.390 1_545 S
C586 C585 1.387 . S
H587 C599 0.930 . S
H588 C601 0.930 . S
H589 C602 0.930 . S
H590 C606 0.959 . S
H591 C606 0.959 . S
H592 C606 0.961 . S
H593 C607 0.960 . S
H594 C607 0.961 . S
H595 C607 0.959 . S
H596 C610 0.929 . S
H597 C611 0.931 . S
H598 C613 0.930 . S
C599 H587 0.930 . S
C599 C600 1.399 . S
C599 C604 1.399 1_545 S
C600 C599 1.399 . S
C600 C601 1.376 . S
C601 H588 0.930 . S
C601 C600 1.376 . S
C601 C602 1.388 . S
C602 H589 0.930 . S
C602 C601 1.388 . S
C602 C603 1.390 1_545 S
C603 C602 1.390 1_565 S
C603 C604 1.394 . S
C603 C609 1.465 . S
C604 C599 1.399 1_565 S
C604 C603 1.394 . S
C604 C605 1.516 . S
C605 C604 1.516 . S
C605 C606 1.502 . S
C605 C607 1.561 . S
C605 C608 1.526 . S
C606 H590 0.959 . S
C606 H591 0.959 . S
C606 H592 0.961 . S
C606 C605 1.502 . S
C607 H593 0.960 . S
C607 H594 0.961 . S
C607 H595 0.959 . S
C607 C605 1.561 . S
C608 C605 1.526 . S
C608 C609 1.396 . S
C608 C613 1.390 . S
C609 C603 1.465 . S
C609 C608 1.396 . S
C609 C610 1.399 . S
C610 H596 0.929 . S
C610 C609 1.399 . S
C610 C611 1.385 . S
C611 H597 0.931 . S
C611 C610 1.385 . S
C611 C612 1.389 . S
C612 C611 1.389 . S
C612 C613 1.387 . S
C613 H598 0.930 . S
C613 C608 1.390 . S
C613 C612 1.387 . S
H614 C626 0.930 . S
H615 C628 0.930 . S
H616 C629 0.930 . S
H617 C633 0.959 . S
H618 C633 0.959 1_565 S
H619 C633 0.961 . S
H620 C634 0.960 . S
H621 C634 0.961 1_565 S
H622 C634 0.959 . S
H623 C637 0.929 . S
H624 C638 0.931 . S
H625 C640 0.930 . S
C626 H614 0.930 . S
C626 C627 1.399 . S
C626 C631 1.399 . S
C627 C626 1.399 . S
C627 C628 1.376 . S
C628 H615 0.930 . S
C628 C627 1.376 . S
C628 C629 1.388 . S
C629 H616 0.930 . S
C629 C628 1.388 . S
C629 C630 1.390 . S
C630 C629 1.390 . S
C630 C631 1.394 . S
C630 C636 1.465 1_545 S
C631 C626 1.399 . S
C631 C630 1.394 . S
C631 C632 1.516 . S
C632 C631 1.516 . S
C632 C633 1.502 . S
C632 C634 1.561 . S
C632 C635 1.526 1_545 S
C633 H617 0.959 . S
C633 H618 0.959 1_545 S
C633 H619 0.961 . S
C633 C632 1.502 . S
C634 H620 0.960 . S
C634 H621 0.961 1_545 S
C634 H622 0.959 . S
C634 C632 1.561 . S
C635 C632 1.526 1_565 S
C635 C636 1.396 . S
C635 C640 1.390 . S
C636 C630 1.465 1_565 S
C636 C635 1.396 . S
C636 C637 1.399 . S
C637 H623 0.929 . S
C637 C636 1.399 . S
C637 C638 1.385 . S
C638 H624 0.931 . S
C638 C637 1.385 . S
C638 C639 1.389 . S
C639 C638 1.389 . S
C639 C640 1.387 . S
C640 H625 0.930 . S
C640 C635 1.390 . S
C640 C639 1.387 . S
H641 C653 0.930 . S
H642 C655 0.930 1_655 S
H643 C656 0.930 1_545 S
H644 C660 0.959 1_545 S
H645 C660 0.959 1_545 S
H646 C660 0.961 . S
H647 C661 0.960 1_565 S
H648 C661 0.961 . S
H649 C661 0.959 1_655 S
H650 C664 0.929 . S
H651 C665 0.931 . S
H652 C667 0.930 . S
C653 H641 0.930 . S
C653 C654 1.399 . S
C653 C658 1.399 . S
C654 C653 1.399 . S
C654 C655 1.376 . S
C655 H642 0.930 1_455 S
C655 C654 1.376 . S
C655 C656 1.388 . S
C656 H643 0.930 1_565 S
C656 C655 1.388 . S
C656 C657 1.390 1_565 S
C657 C656 1.390 1_545 S
C657 C658 1.394 1_545 S
C657 C663 1.465 . S
C658 C653 1.399 . S
C658 C657 1.394 1_565 S
C658 C659 1.516 1_565 S
C659 C658 1.516 1_545 S
C659 C660 1.502 1_545 S
C659 C661 1.561 . S
C659 C662 1.526 . S
C660 H644 0.959 1_565 S
C660 H645 0.959 1_565 S
C660 H646 0.961 . S
C660 C659 1.502 1_565 S
C661 H647 0.960 1_545 S
C661 H648 0.961 . S
C661 H649 0.959 1_455 S
C661 C659 1.561 . S
C662 C659 1.526 . S
C662 C663 1.396 . S
C662 C667 1.390 . S
C663 C657 1.465 . S
C663 C662 1.396 . S
C663 C664 1.399 . S
C664 H650 0.929 . S
C664 C663 1.399 . S
C664 C665 1.385 . S
C665 H651 0.931 . S
C665 C664 1.385 . S
C665 C666 1.389 . S
C666 C665 1.389 . S
C666 C667 1.387 . S
C667 H652 0.930 . S
C667 C662 1.390 . S
C667 C666 1.387 . S
H668 C680 0.930 . S
H669 C682 0.930 . S
H670 C683 0.930 . S
H671 C687 0.959 . S
H672 C687 0.959 . S
H673 C687 0.961 . S
H674 C688 0.960 . S
H675 C688 0.961 . S
H676 C688 0.959 . S
H677 C691 0.929 . S
H678 C692 0.931 . S
H679 C694 0.930 . S
C680 H668 0.930 . S
C680 C681 1.399 . S
C680 C685 1.402 1_554 S
C681 C680 1.399 . S
C681 C682 1.376 . S
C682 H669 0.930 . S
C682 C681 1.376 . S
C682 C683 1.388 . S
C683 H670 0.930 . S
C683 C682 1.388 . S
C683 C684 1.390 1_554 S
C684 C683 1.390 1_556 S
C684 C685 1.394 . S
C684 C690 1.465 . S
C685 C680 1.402 1_556 S
C685 C684 1.394 . S
C685 C686 1.513 . S
C686 C685 1.513 . S
C686 C687 1.502 . S
C686 C688 1.561 . S
C686 C689 1.526 . S
C687 H671 0.959 . S
C687 H672 0.959 . S
C687 H673 0.961 . S
C687 C686 1.502 . S
C688 H674 0.960 . S
C688 H675 0.961 . S
C688 H676 0.959 . S
C688 C686 1.561 . S
C689 C686 1.526 . S
C689 C690 1.396 . S
C689 C694 1.390 . S
C690 C684 1.465 . S
C690 C689 1.396 . S
C690 C691 1.399 . S
C691 H677 0.929 . S
C691 C690 1.399 . S
C691 C692 1.385 . S
C692 H678 0.931 . S
C692 C691 1.385 . S
C692 C693 1.389 . S
C693 C692 1.389 . S
C693 C694 1.387 . S
C694 H679 0.930 . S
C694 C689 1.390 . S
C694 C693 1.387 . S
H695 C707 0.930 . S
H696 C709 0.930 . S
H697 C710 0.930 . S
H698 C714 0.959 . S
H699 C714 0.959 . S
H700 C714 0.961 . S
H701 C715 0.960 . S
H702 C715 0.961 . S
H703 C715 0.959 . S
H704 C718 0.929 . S
H705 C719 0.931 . S
H706 C721 0.930 . S
C707 H695 0.930 . S
C707 C708 1.399 . S
C707 C712 1.399 . S
C708 C707 1.399 . S
C708 C709 1.376 . S
C709 H696 0.930 . S
C709 C708 1.376 . S
C709 C710 1.388 . S
C710 H697 0.930 . S
C710 C709 1.388 . S
C710 C711 1.390 . S
C711 C710 1.390 . S
C711 C712 1.394 . S
C711 C717 1.465 . S
C712 C707 1.399 . S
C712 C711 1.394 . S
C712 C713 1.516 . S
C713 C712 1.516 . S
C713 C714 1.502 . S
C713 C715 1.561 . S
C713 C716 1.526 . S
C714 H698 0.959 . S
C714 H699 0.959 . S
C714 H700 0.961 . S
C714 C713 1.502 . S
C715 H701 0.960 . S
C715 H702 0.961 . S
C715 H703 0.959 . S
C715 C713 1.561 . S
C716 C713 1.526 . S
C716 C717 1.396 . S
C716 C721 1.390 . S
C717 C711 1.465 . S
C717 C716 1.396 . S
C717 C718 1.399 . S
C718 H704 0.929 . S
C718 C717 1.399 . S
C718 C719 1.385 . S
C719 H705 0.931 . S
C719 C718 1.385 . S
C719 C720 1.389 . S
C720 C719 1.389 . S
C720 C721 1.387 . S
C721 H706 0.930 . S
C721 C716 1.390 . S
C721 C720 1.387 . S
H722 C734 0.930 . S
H723 C736 0.930 . S
H724 C737 0.930 . S
H725 C741 0.959 . S
H726 C741 0.959 . S
H727 C741 0.961 . S
H728 C742 0.960 . S
H729 C742 0.961 . S
H730 C742 0.959 . S
H731 C745 0.929 . S
H732 C746 0.931 . S
H733 C748 0.930 . S
C734 H722 0.930 . S
C734 C735 1.399 . S
C734 C739 1.399 . S
C735 C734 1.399 . S
C735 C736 1.376 . S
C736 H723 0.930 . S
C736 C735 1.376 . S
C736 C737 1.388 . S
C737 H724 0.930 . S
C737 C736 1.388 . S
C737 C738 1.390 . S
C738 C737 1.390 . S
C738 C739 1.394 . S
C738 C744 1.465 . S
C739 C734 1.399 . S
C739 C738 1.394 . S
C739 C740 1.516 . S
C740 C739 1.516 . S
C740 C741 1.502 . S
C740 C742 1.561 . S
C740 C743 1.526 . S
C741 H725 0.959 . S
C741 H726 0.959 . S
C741 H727 0.961 . S
C741 C740 1.502 . S
C742 H728 0.960 . S
C742 H729 0.961 . S
C742 H730 0.959 . S
C742 C740 1.561 . S
C743 C740 1.526 . S
C743 C744 1.396 . S
C743 C748 1.390 . S
C744 C738 1.465 . S
C744 C743 1.396 . S
C744 C745 1.399 . S
C745 H731 0.929 . S
C745 C744 1.399 . S
C745 C746 1.385 . S
C746 H732 0.931 . S
C746 C745 1.385 . S
C746 C747 1.389 . S
C747 C746 1.389 . S
C747 C748 1.387 . S
C748 H733 0.930 . S
C748 C743 1.390 . S
C748 C747 1.387 . S
H749 C761 0.930 . S
H750 C763 0.930 . S
H751 C764 0.930 . S
H752 C768 0.959 . S
H753 C768 0.959 . S
H754 C768 0.961 . S
H755 C769 0.960 . S
H756 C769 0.961 . S
H757 C769 0.959 . S
H758 C772 0.929 . S
H759 C773 0.931 . S
H760 C775 0.930 . S
C761 H749 0.930 . S
C761 C762 1.399 . S
C761 C766 1.399 . S
C762 C761 1.399 . S
C762 C763 1.376 . S
C763 H750 0.930 . S
C763 C762 1.376 . S
C763 C764 1.388 . S
C764 H751 0.930 . S
C764 C763 1.388 . S
C764 C765 1.390 . S
C765 C764 1.390 . S
C765 C766 1.394 . S
C765 C771 1.465 . S
C766 C761 1.399 . S
C766 C765 1.394 . S
C766 C767 1.516 . S
C767 C766 1.516 . S
C767 C768 1.502 . S
C767 C769 1.561 . S
C767 C770 1.526 . S
C768 H752 0.959 . S
C768 H753 0.959 . S
C768 H754 0.961 . S
C768 C767 1.502 . S
C769 H755 0.960 . S
C769 H756 0.961 . S
C769 H757 0.959 . S
C769 C767 1.561 . S
C770 C767 1.526 . S
C770 C771 1.396 . S
C770 C775 1.390 . S
C771 C765 1.465 . S
C771 C770 1.396 . S
C771 C772 1.399 . S
C772 H758 0.929 . S
C772 C771 1.399 . S
C772 C773 1.385 . S
C773 H759 0.931 . S
C773 C772 1.385 . S
C773 C774 1.389 . S
C774 C773 1.389 . S
C774 C775 1.387 . S
C775 H760 0.930 . S
C775 C770 1.390 . S
C775 C774 1.387 . S
H776 C788 0.930 . S
H777 C790 0.930 . S
H778 C791 0.930 . S
H779 C795 0.959 . S
H780 C795 0.959 . S
H781 C795 0.961 . S
H782 C796 0.960 . S
H783 C796 0.961 . S
H784 C796 0.959 . S
H785 C799 0.929 . S
H786 C800 0.931 . S
H787 C802 0.930 . S
C788 H776 0.930 . S
C788 C789 1.399 . S
C788 C793 1.399 . S
C789 C788 1.399 . S
C789 C790 1.376 . S
C790 H777 0.930 . S
C790 C789 1.376 . S
C790 C791 1.388 . S
C791 H778 0.930 . S
C791 C790 1.388 . S
C791 C792 1.419 . S
C792 C791 1.419 . S
C792 C793 1.403 . S
C792 C798 1.426 1_556 S
C793 C788 1.399 . S
C793 C792 1.403 . S
C793 C794 1.516 1_556 S
C794 C793 1.516 1_554 S
C794 C795 1.502 . S
C794 C796 1.561 . S
C794 C797 1.526 . S
C795 H779 0.959 . S
C795 H780 0.959 . S
C795 H781 0.961 . S
C795 C794 1.502 . S
C796 H782 0.960 . S
C796 H783 0.961 . S
C796 H784 0.959 . S
C796 C794 1.561 . S
C797 C794 1.526 . S
C797 C798 1.396 . S
C797 C802 1.390 . S
C798 C792 1.426 1_554 S
C798 C797 1.396 . S
C798 C799 1.399 . S
C799 H785 0.929 . S
C799 C798 1.399 . S
C799 C800 1.385 . S
C800 H786 0.931 . S
C800 C799 1.385 . S
C800 C801 1.389 . S
C801 C800 1.389 . S
C801 C802 1.387 . S
C802 H787 0.930 . S
C802 C797 1.390 . S
C802 C801 1.387 . S
H803 C815 0.930 . S
H804 C817 0.930 . S
H805 C818 0.930 . S
H806 C822 0.959 . S
H807 C822 0.959 . S
H808 C822 0.961 . S
H809 C823 0.960 . S
H810 C823 0.961 . S
H811 C823 0.959 . S
H812 C826 0.929 . S
H813 C827 0.931 . S
H814 C829 0.930 . S
C815 H803 0.930 . S
C815 C816 1.399 . S
C815 C820 1.399 . S
C816 C815 1.399 . S
C816 C817 1.376 . S
C817 H804 0.930 . S
C817 C816 1.376 . S
C817 C818 1.388 . S
C818 H805 0.930 . S
C818 C817 1.388 . S
C818 C819 1.390 . S
C819 C818 1.390 . S
C819 C820 1.394 . S
C819 C825 1.465 . S
C820 C815 1.399 . S
C820 C819 1.394 . S
C820 C821 1.516 . S
C821 C820 1.516 . S
C821 C822 1.502 . S
C821 C823 1.561 . S
C821 C824 1.526 . S
C822 H806 0.959 . S
C822 H807 0.959 . S
C822 H808 0.961 . S
C822 C821 1.502 . S
C823 H809 0.960 . S
C823 H810 0.961 . S
C823 H811 0.959 . S
C823 C821 1.561 . S
C824 C821 1.526 . S
C824 C825 1.396 . S
C824 C829 1.390 . S
C825 C819 1.465 . S
C825 C824 1.396 . S
C825 C826 1.399 . S
C826 H812 0.929 . S
C826 C825 1.399 . S
C826 C827 1.385 . S
C827 H813 0.931 . S
C827 C826 1.385 . S
C827 C828 1.389 . S
C828 C827 1.389 . S
C828 C829 1.387 . S
C829 H814 0.930 . S
C829 C824 1.390 . S
C829 C828 1.387 . S
H830 C842 0.930 . S
H831 C844 0.930 . S
H832 C845 0.930 . S
H833 C849 0.959 . S
H834 C849 0.959 . S
H835 C849 0.961 . S
H836 C850 0.960 . S
H837 C850 0.961 . S
H838 C850 0.959 . S
H839 C853 0.929 . S
H840 C854 0.931 . S
H841 C856 0.930 . S
C842 H830 0.930 . S
C842 C843 1.399 . S
C842 C847 1.399 . S
C843 C842 1.399 . S
C843 C844 1.376 . S
C844 H831 0.930 . S
C844 C843 1.376 . S
C844 C845 1.388 . S
C845 H832 0.930 . S
C845 C844 1.388 . S
C845 C846 1.390 . S
C846 C845 1.390 . S
C846 C847 1.394 . S
C846 C852 1.465 . S
C847 C842 1.399 . S
C847 C846 1.394 . S
C847 C848 1.516 . S
C848 C847 1.516 . S
C848 C849 1.502 . S
C848 C850 1.561 . S
C848 C851 1.526 . S
C849 H833 0.959 . S
C849 H834 0.959 . S
C849 H835 0.961 . S
C849 C848 1.502 . S
C850 H836 0.960 . S
C850 H837 0.961 . S
C850 H838 0.959 . S
C850 C848 1.561 . S
C851 C848 1.526 . S
C851 C852 1.396 . S
C851 C856 1.390 . S
C852 C846 1.465 . S
C852 C851 1.396 . S
C852 C853 1.399 . S
C853 H839 0.929 . S
C853 C852 1.399 . S
C853 C854 1.385 . S
C854 H840 0.931 . S
C854 C853 1.385 . S
C854 C855 1.389 . S
C855 C854 1.389 . S
C855 C856 1.387 . S
C856 H841 0.930 . S
C856 C851 1.390 . S
C856 C855 1.387 . S
H857 C869 0.930 . S
H858 C871 0.930 . S
H859 C872 0.930 . S
H860 C876 0.959 . S
H861 C876 0.959 . S
H862 C876 0.961 . S
H863 C877 0.960 . S
H864 C877 0.961 . S
H865 C877 0.959 . S
H866 C880 0.929 . S
H867 C881 0.931 . S
H868 C883 0.930 . S
C869 H857 0.930 . S
C869 C870 1.399 . S
C869 C874 1.399 . S
C870 C869 1.399 . S
C870 C871 1.376 . S
C871 H858 0.930 . S
C871 C870 1.376 . S
C871 C872 1.388 . S
C872 H859 0.930 . S
C872 C871 1.388 . S
C872 C873 1.390 . S
C873 C872 1.390 . S
C873 C874 1.394 . S
C873 C879 1.465 . S
C874 C869 1.399 . S
C874 C873 1.394 . S
C874 C875 1.516 . S
C875 C874 1.516 . S
C875 C876 1.502 . S
C875 C877 1.561 . S
C875 C878 1.526 . S
C876 H860 0.959 . S
C876 H861 0.959 . S
C876 H862 0.961 . S
C876 C875 1.502 . S
C877 H863 0.960 . S
C877 H864 0.961 . S
C877 H865 0.959 . S
C877 C875 1.561 . S
C878 C875 1.526 . S
C878 C879 1.396 . S
C878 C883 1.390 . S
C879 C873 1.465 . S
C879 C878 1.396 . S
C879 C880 1.399 . S
C880 H866 0.929 . S
C880 C879 1.399 . S
C880 C881 1.385 . S
C881 H867 0.931 . S
C881 C880 1.385 . S
C881 C882 1.389 . S
C882 C881 1.389 . S
C882 C883 1.387 . S
C883 H868 0.930 . S
C883 C878 1.390 . S
C883 C882 1.387 . S
C261 C159 1.433 . S
C249 C6 1.576 . S
C288 C177 1.361 . S
C276 C30 1.380 . S
C303 C49 1.348 . S
C315 C201 1.266 . S
C342 C231 1.276 . S
C330 C63 1.443 . S
C369 C219 1.302 . S
C357 C82 1.373 . S
C384 C106 1.475 . S
C396 C172 1.445 . S
C411 C125 1.611 . S
C423 C192 1.535 . S
C438 C139 1.439 . S
C450 C197 1.261 . S
C465 C144 1.460 . S
C477 C213 1.412 . S
C492 C101 1.426 . S
C504 C168 1.245 . S
C531 C235 1.346 . S
C519 C68 1.387 . S
C558 C180 1.347 . S
C546 C25 1.428 . S
C573 C44 1.567 . S
C585 C198 1.401 . S
C600 C11 1.359 . S
C612 C156 1.368 . S
C639 C176 1.294 . S
C627 C120 1.363 . S
C666 C222 1.532 . S
C654 C87 1.616 . S
C693 C218 1.457 . S
C681 C2 1.540 . S
C720 C171 1.501 . S
C708 C21 1.537 . S
C735 C40 1.557 . S
C747 C193 1.431 . S
C762 C59 1.561 . S
C774 C214 1.530 . S
C801 C155 1.439 . S
C789 C78 1.624 . S
C816 C97 1.507 . S
C828 C189 1.449 . S
C855 C210 1.346 . S
C843 C116 1.663 . S
C882 C234 1.427 . S
C870 C135 1.486 . S
