# Generated by pormake.
# Topology ptr, (4,4)-cn, num edge types: 1
# Building blocks:
#     Node 0, Type 0, BuildingBlock: QUQFOY_clean_sbu_3, # of connection points: 4
#     Node 1, Type 0, BuildingBlock: QUQFOY_clean_sbu_3, # of connection points: 4
#     Node 2, Type 0, BuildingBlock: QUQFOY_clean_sbu_3, # of connection points: 4
#     Node 3, Type 0, BuildingBlock: QUQFOY_clean_sbu_3, # of connection points: 4
#     Node 4, Type 0, BuildingBlock: QUQFOY_clean_sbu_3, # of connection points: 4
#     Node 5, Type 0, BuildingBlock: QUQFOY_clean_sbu_3, # of connection points: 4
#     Node 6, Type 0, BuildingBlock: QUQFOY_clean_sbu_3, # of connection points: 4
#     Node 7, Type 0, BuildingBlock: QUQFOY_clean_sbu_3, # of connection points: 4
#     Node 8, Type 0, BuildingBlock: QUQFOY_clean_sbu_3, # of connection points: 4
#     Node 9, Type 0, BuildingBlock: QUQFOY_clean_sbu_3, # of connection points: 4
#     Node 10, Type 0, BuildingBlock: QUQFOY_clean_sbu_3, # of connection points: 4
#     Node 11, Type 0, BuildingBlock: QUQFOY_clean_sbu_3, # of connection points: 4
#     Node 12, Type 0, BuildingBlock: QUQFOY_clean_sbu_3, # of connection points: 4
#     Node 13, Type 0, BuildingBlock: QUQFOY_clean_sbu_3, # of connection points: 4
#     Node 14, Type 0, BuildingBlock: QUQFOY_clean_sbu_3, # of connection points: 4
#     Node 15, Type 0, BuildingBlock: QUQFOY_clean_sbu_3, # of connection points: 4
#     Node 16, Type 0, BuildingBlock: QUQFOY_clean_sbu_3, # of connection points: 4
#     Node 17, Type 0, BuildingBlock: QUQFOY_clean_sbu_3, # of connection points: 4
#     Node 18, Type 1, BuildingBlock: NAHDIM_clean_linker_0, # of connection points: 4
#     Node 19, Type 1, BuildingBlock: NAHDIM_clean_linker_0, # of connection points: 4
#     Node 20, Type 1, BuildingBlock: NAHDIM_clean_linker_0, # of connection points: 4
#     Node 21, Type 1, BuildingBlock: NAHDIM_clean_linker_0, # of connection points: 4
#     Node 22, Type 1, BuildingBlock: NAHDIM_clean_linker_0, # of connection points: 4
#     Node 23, Type 1, BuildingBlock: NAHDIM_clean_linker_0, # of connection points: 4
#     Node 24, Type 1, BuildingBlock: NAHDIM_clean_linker_0, # of connection points: 4
#     Node 25, Type 1, BuildingBlock: NAHDIM_clean_linker_0, # of connection points: 4
#     Node 26, Type 1, BuildingBlock: NAHDIM_clean_linker_0, # of connection points: 4
#     Node 27, Type 1, BuildingBlock: NAHDIM_clean_linker_0, # of connection points: 4
#     Node 28, Type 1, BuildingBlock: NAHDIM_clean_linker_0, # of connection points: 4
#     Node 29, Type 1, BuildingBlock: NAHDIM_clean_linker_0, # of connection points: 4
#     Node 30, Type 1, BuildingBlock: NAHDIM_clean_linker_0, # of connection points: 4
#     Node 31, Type 1, BuildingBlock: NAHDIM_clean_linker_0, # of connection points: 4
#     Node 32, Type 1, BuildingBlock: NAHDIM_clean_linker_0, # of connection points: 4
#     Node 33, Type 1, BuildingBlock: NAHDIM_clean_linker_0, # of connection points: 4
#     Node 34, Type 1, BuildingBlock: NAHDIM_clean_linker_0, # of connection points: 4
#     Node 35, Type 1, BuildingBlock: NAHDIM_clean_linker_0, # of connection points: 4
#     Edge 36, Type (0, 1), BuildingBlock: XUDNAN_clean_linker_2, # of connection points: 2
#     Edge 37, Type (0, 1), BuildingBlock: XUDNAN_clean_linker_2, # of connection points: 2
#     Edge 38, Type (0, 1), BuildingBlock: XUDNAN_clean_linker_2, # of connection points: 2
#     Edge 39, Type (0, 1), BuildingBlock: XUDNAN_clean_linker_2, # of connection points: 2
#     Edge 40, Type (0, 1), BuildingBlock: XUDNAN_clean_linker_2, # of connection points: 2
#     Edge 41, Type (0, 1), BuildingBlock: XUDNAN_clean_linker_2, # of connection points: 2
#     Edge 42, Type (0, 1), BuildingBlock: XUDNAN_clean_linker_2, # of connection points: 2
#     Edge 43, Type (0, 1), BuildingBlock: XUDNAN_clean_linker_2, # of connection points: 2
#     Edge 44, Type (0, 1), BuildingBlock: XUDNAN_clean_linker_2, # of connection points: 2
#     Edge 45, Type (0, 1), BuildingBlock: XUDNAN_clean_linker_2, # of connection points: 2
#     Edge 46, Type (0, 1), BuildingBlock: XUDNAN_clean_linker_2, # of connection points: 2
#     Edge 47, Type (0, 1), BuildingBlock: XUDNAN_clean_linker_2, # of connection points: 2
#     Edge 48, Type (0, 1), BuildingBlock: XUDNAN_clean_linker_2, # of connection points: 2
#     Edge 49, Type (0, 1), BuildingBlock: XUDNAN_clean_linker_2, # of connection points: 2
#     Edge 50, Type (0, 1), BuildingBlock: XUDNAN_clean_linker_2, # of connection points: 2
#     Edge 51, Type (0, 1), BuildingBlock: XUDNAN_clean_linker_2, # of connection points: 2
#     Edge 52, Type (0, 1), BuildingBlock: XUDNAN_clean_linker_2, # of connection points: 2
#     Edge 53, Type (0, 1), BuildingBlock: XUDNAN_clean_linker_2, # of connection points: 2
#     Edge 54, Type (0, 1), BuildingBlock: XUDNAN_clean_linker_2, # of connection points: 2
#     Edge 55, Type (0, 1), BuildingBlock: XUDNAN_clean_linker_2, # of connection points: 2
#     Edge 56, Type (0, 1), BuildingBlock: XUDNAN_clean_linker_2, # of connection points: 2
#     Edge 57, Type (0, 1), BuildingBlock: XUDNAN_clean_linker_2, # of connection points: 2
#     Edge 58, Type (0, 1), BuildingBlock: XUDNAN_clean_linker_2, # of connection points: 2
#     Edge 59, Type (0, 1), BuildingBlock: XUDNAN_clean_linker_2, # of connection points: 2
#     Edge 60, Type (0, 1), BuildingBlock: XUDNAN_clean_linker_2, # of connection points: 2
#     Edge 61, Type (0, 1), BuildingBlock: XUDNAN_clean_linker_2, # of connection points: 2
#     Edge 62, Type (0, 1), BuildingBlock: XUDNAN_clean_linker_2, # of connection points: 2
#     Edge 63, Type (0, 1), BuildingBlock: XUDNAN_clean_linker_2, # of connection points: 2
#     Edge 64, Type (0, 1), BuildingBlock: XUDNAN_clean_linker_2, # of connection points: 2
#     Edge 65, Type (0, 1), BuildingBlock: XUDNAN_clean_linker_2, # of connection points: 2
#     Edge 66, Type (0, 1), BuildingBlock: XUDNAN_clean_linker_2, # of connection points: 2
#     Edge 67, Type (0, 1), BuildingBlock: XUDNAN_clean_linker_2, # of connection points: 2
#     Edge 68, Type (0, 1), BuildingBlock: XUDNAN_clean_linker_2, # of connection points: 2
#     Edge 69, Type (0, 1), BuildingBlock: XUDNAN_clean_linker_2, # of connection points: 2
#     Edge 70, Type (0, 1), BuildingBlock: XUDNAN_clean_linker_2, # of connection points: 2
#     Edge 71, Type (0, 1), BuildingBlock: XUDNAN_clean_linker_2, # of connection points: 2
#     Edge 72, Type (0, 1), BuildingBlock: XUDNAN_clean_linker_2, # of connection points: 2
#     Edge 73, Type (0, 1), BuildingBlock: XUDNAN_clean_linker_2, # of connection points: 2
#     Edge 74, Type (0, 1), BuildingBlock: XUDNAN_clean_linker_2, # of connection points: 2
#     Edge 75, Type (0, 1), BuildingBlock: XUDNAN_clean_linker_2, # of connection points: 2
#     Edge 76, Type (0, 1), BuildingBlock: XUDNAN_clean_linker_2, # of connection points: 2
#     Edge 77, Type (0, 1), BuildingBlock: XUDNAN_clean_linker_2, # of connection points: 2
#     Edge 78, Type (0, 1), BuildingBlock: XUDNAN_clean_linker_2, # of connection points: 2
#     Edge 79, Type (0, 1), BuildingBlock: XUDNAN_clean_linker_2, # of connection points: 2
#     Edge 80, Type (0, 1), BuildingBlock: XUDNAN_clean_linker_2, # of connection points: 2
#     Edge 81, Type (0, 1), BuildingBlock: XUDNAN_clean_linker_2, # of connection points: 2
#     Edge 82, Type (0, 1), BuildingBlock: XUDNAN_clean_linker_2, # of connection points: 2
#     Edge 83, Type (0, 1), BuildingBlock: XUDNAN_clean_linker_2, # of connection points: 2
#     Edge 84, Type (0, 1), BuildingBlock: XUDNAN_clean_linker_2, # of connection points: 2
#     Edge 85, Type (0, 1), BuildingBlock: XUDNAN_clean_linker_2, # of connection points: 2
#     Edge 86, Type (0, 1), BuildingBlock: XUDNAN_clean_linker_2, # of connection points: 2
#     Edge 87, Type (0, 1), BuildingBlock: XUDNAN_clean_linker_2, # of connection points: 2
#     Edge 88, Type (0, 1), BuildingBlock: XUDNAN_clean_linker_2, # of connection points: 2
#     Edge 89, Type (0, 1), BuildingBlock: XUDNAN_clean_linker_2, # of connection points: 2
#     Edge 90, Type (0, 1), BuildingBlock: XUDNAN_clean_linker_2, # of connection points: 2
#     Edge 91, Type (0, 1), BuildingBlock: XUDNAN_clean_linker_2, # of connection points: 2
#     Edge 92, Type (0, 1), BuildingBlock: XUDNAN_clean_linker_2, # of connection points: 2
#     Edge 93, Type (0, 1), BuildingBlock: XUDNAN_clean_linker_2, # of connection points: 2
#     Edge 94, Type (0, 1), BuildingBlock: XUDNAN_clean_linker_2, # of connection points: 2
#     Edge 95, Type (0, 1), BuildingBlock: XUDNAN_clean_linker_2, # of connection points: 2
#     Edge 96, Type (0, 1), BuildingBlock: XUDNAN_clean_linker_2, # of connection points: 2
#     Edge 97, Type (0, 1), BuildingBlock: XUDNAN_clean_linker_2, # of connection points: 2
#     Edge 98, Type (0, 1), BuildingBlock: XUDNAN_clean_linker_2, # of connection points: 2
#     Edge 99, Type (0, 1), BuildingBlock: XUDNAN_clean_linker_2, # of connection points: 2
#     Edge 100, Type (0, 1), BuildingBlock: XUDNAN_clean_linker_2, # of connection points: 2
#     Edge 101, Type (0, 1), BuildingBlock: XUDNAN_clean_linker_2, # of connection points: 2
#     Edge 102, Type (0, 1), BuildingBlock: XUDNAN_clean_linker_2, # of connection points: 2
#     Edge 103, Type (0, 1), BuildingBlock: XUDNAN_clean_linker_2, # of connection points: 2
#     Edge 104, Type (0, 1), BuildingBlock: XUDNAN_clean_linker_2, # of connection points: 2
#     Edge 105, Type (0, 1), BuildingBlock: XUDNAN_clean_linker_2, # of connection points: 2
#     Edge 106, Type (0, 1), BuildingBlock: XUDNAN_clean_linker_2, # of connection points: 2
#     Edge 107, Type (0, 1), BuildingBlock: XUDNAN_clean_linker_2, # of connection points: 2
# Relax obj value: 0.030
# Max RMSD: 0.171
# Mean RMSD: 0.059
data_MOF--net-ptr--node1-QUQFOY_clean_sbu_3--node2-NAHDIM_clean_linker_0--edge1-XUDNAN_clean_linker_2
_symmetry_space_group_name_H-M    P1
_symmetry_Int_Tables_number       1
_symmetry_cell_setting            triclinic
loop_
_symmetry_equiv_pos_as_xyz
'x, y, z'
_cell_length_a     95.077404
_cell_length_b     95.06515
_cell_length_c     81.105391
_cell_angle_alpha  91.138236
_cell_angle_beta   89.894003
_cell_angle_gamma 120.7051
loop_
_atom_site_label
_atom_site_type_symbol
_atom_site_fract_x
_atom_site_fract_y
_atom_site_fract_z
_atom_type_partial_charge
C0 C 0.975 0.31218 0.9948 0.0
O1 O 0.96541 0.31685 -1e-05 0.0
Cd2 Cd 0.97834 0.34488 0.01079 0.0
O3 O 0.99027 0.32113 0.99742 0.0
Cd4 Cd 0.01179 0.34579 0.01101 0.0
C5 C 0.0066 0.36468 0.97972 0.0
O6 O 0.99783 0.35227 0.03304 0.0
O7 O 0.02134 0.37159 0.02437 0.0
O8 O 0.01509 0.32561 0.0247 0.0
C9 C 0.00945 0.36713 0.03415 0.0
O10 O 0.99367 0.36143 0.98754 0.0
C11 C 0.03039 0.33231 0.02274 0.0
O12 O 0.01579 0.35942 0.98462 0.0
O13 O 0.03767 0.34593 0.01542 0.0
C14 C 0.64801 0.67617 0.03657 0.0
O15 O 0.63268 0.66676 0.03464 0.0
Cd16 Cd 0.62126 0.64195 0.01837 0.0
O17 O 0.65798 0.67286 0.02949 0.0
Cd18 Cd 0.65844 0.65237 0.01056 0.0
C19 C 0.63867 0.6229 0.03874 0.0
O20 O 0.63596 0.64862 0.99299 0.0
O21 O 0.64476 0.63199 0.98842 0.0
O22 O 0.68062 0.67661 -0.00144 0.0
C23 C 0.63532 0.63709 0.98426 0.0
O24 O 0.62618 0.62381 0.0349 0.0
C25 C 0.69057 0.6715 0.99743 0.0
O26 O 0.65255 0.63242 0.03235 0.0
O27 O 0.68571 0.65722 0.00267 0.0
C28 C 0.305 0.9752 0.01418 0.0
O29 O 0.30831 0.97714 -0.00097 0.0
Cd30 Cd 0.337 0.9974 0.00481 0.0
O31 O 0.31652 0.98417 0.02417 0.0
Cd32 Cd 0.34098 0.0063 0.00672 0.0
C33 C 0.35565 0.00271 0.03787 0.0
O34 O 0.3513 0.99385 0.98453 0.0
O35 O 0.36801 0.01846 0.99327 0.0
O36 O 0.32221 0.00823 0.98786 0.0
C37 C 0.36526 0.00667 0.98354 0.0
O38 O 0.34693 0.98986 0.02926 0.0
C39 C 0.32632 0.02288 0.99136 0.0
O40 O 0.35701 0.01589 0.0328 0.0
O41 O 0.3375 0.03031 0.00227 0.0
C42 C 0.97565 0.66373 -0.00077 0.0
O43 O 0.96498 0.65006 0.00495 0.0
Cd44 Cd 0.97493 0.63386 0.01751 0.0
O45 O 0.9907 0.66986 0.00279 0.0
Cd46 Cd 0.0091 0.6659 0.02095 0.0
C47 C 0.00597 0.63966 0.99094 0.0
O48 O 0.9908 0.64711 0.042 0.0
O49 O 0.01512 0.65052 0.03999 0.0
O50 O 0.01592 0.6916 0.03444 0.0
C51 C 0.0015 0.64404 0.04735 0.0
O52 O 0.99146 0.63064 0.99618 0.0
C53 C 0.03113 0.69886 0.03146 0.0
O54 O 0.01549 0.65368 0.99754 0.0
O55 O 0.03629 0.69069 0.0236 0.0
C56 C 0.32687 0.35519 0.02857 0.0
O57 O 0.3329 0.37054 0.02795 0.0
Cd58 Cd 0.35906 0.38664 0.01467 0.0
O59 O 0.33349 0.34835 0.0208 0.0
Cd60 Cd 0.35564 0.35433 0.00125 0.0
C61 C 0.38381 0.3741 0.03149 0.0
O62 O 0.35647 0.37701 0.98628 0.0
O63 O 0.37549 0.37147 0.98095 0.0
O64 O 0.33608 0.33149 0.98387 0.0
C65 C 0.36879 0.37973 0.97771 0.0
O66 O 0.37979 0.38499 0.03131 0.0
C67 C 0.34226 0.32259 0.98622 0.0
O68 O 0.3768 0.3616 0.02192 0.0
O69 O 0.35509 0.32868 0.99516 0.0
C70 C 0.69029 0.02949 0.99466 0.0
O71 O 0.6859 0.0395 -0.00076 0.0
Cd72 Cd 0.65836 0.02744 0.00977 0.0
O73 O 0.68174 0.01452 0.99841 0.0
Cd74 Cd 0.65833 0.99574 0.01517 0.0
C75 C 0.6364 0.99471 0.98267 0.0
O76 O 0.65403 0.01307 0.03516 0.0
O77 O 0.63424 0.988 0.03101 0.0
O78 O 0.67825 0.99502 0.03257 0.0
C79 C 0.63996 0.00137 0.03916 0.0
O80 O 0.64067 0.00912 0.98779 0.0
C81 C 0.67307 0.97985 0.03096 0.0
O82 O 0.6413 0.98626 0.99009 0.0
O83 O 0.66058 0.97151 0.02166 0.0
C84 C 0.63061 0.65293 0.31843 0.0
O85 O 0.62502 0.66248 0.3202 0.0
Cd86 Cd 0.63822 0.68784 0.33553 0.0
O87 O 0.64403 0.65631 0.32537 0.0
Cd88 Cd 0.66527 0.67846 0.34359 0.0
C89 C 0.67467 0.70754 0.31487 0.0
O90 O 0.64715 0.68326 0.36136 0.0
O91 O 0.67304 0.70064 0.36378 0.0
O92 O 0.66693 0.65862 0.36066 0.0
C93 C 0.65865 0.69564 0.36885 0.0
O94 O 0.66105 0.70632 0.31842 0.0
C95 C 0.68195 0.66374 0.35817 0.0
O96 O 0.67911 0.69841 0.32165 0.0
O97 O 0.68935 0.67562 0.34845 0.0
C98 C 0.32394 0.01587 0.3711 0.0
O99 O 0.30935 0.01283 0.36955 0.0
Cd100 Cd 0.28805 0.99005 0.35456 0.0
O101 O 0.32821 0.0063 0.3646 0.0
Cd102 Cd 0.31527 0.98051 0.34744 0.0
C103 C 0.286 0.95796 0.37532 0.0
O104 O 0.30075 0.98919 0.32949 0.0
O105 O 0.29532 0.96452 0.32519 0.0
O106 O 0.34201 0.99201 0.33469 0.0
C107 C 0.29325 0.9761 0.32095 0.0
O108 O 0.27917 0.96589 0.37107 0.0
C109 C 0.34266 0.97901 0.33501 0.0
O110 O 0.29986 0.9615 0.3695 0.0
O111 O 0.33061 0.96663 0.34141 0.0
C112 C 0.99264 0.30612 0.36425 0.0
O113 O 0.00079 0.29894 0.3652 0.0
Cd114 Cd 0.02475 0.30499 0.34986 0.0
O115 O 0.99737 0.31847 0.35505 0.0
Cd116 Cd 0.02177 0.33524 0.33755 0.0
C117 C 0.05132 0.34198 0.36649 0.0
O118 O 0.01964 0.31168 0.32288 0.0
O119 O 0.0395 0.33502 0.31528 0.0
O120 O 0.00908 0.34718 0.3204 0.0
C121 C 0.03154 0.31959 0.31329 0.0
O122 O 0.04768 0.32714 0.36521 0.0
C123 C 0.0186 0.36165 0.32596 0.0
O124 O 0.04338 0.34702 0.3584 0.0
O125 O 0.02915 0.36347 0.33665 0.0
C126 C 0.63745 0.97342 0.31841 0.0
O127 O 0.62964 0.95787 0.31834 0.0
Cd128 Cd 0.63773 0.94216 0.3346 0.0
O129 O 0.64997 0.98167 0.32767 0.0
Cd130 Cd 0.66644 0.97815 0.34898 0.0
C131 C 0.67745 0.95757 0.32188 0.0
O132 O 0.64291 0.95529 0.36099 0.0
O133 O 0.66582 0.96124 0.37236 0.0
O134 O 0.66629 0.00068 0.36341 0.0
C135 C 0.65035 0.95222 0.37195 0.0
O136 O 0.66292 0.94544 0.32288 0.0
C137 C 0.68169 0.00991 0.36461 0.0
O138 O 0.68178 0.97121 0.32916 0.0
O139 O 0.69033 0.00438 0.3586 0.0
C140 C 0.99293 0.69673 0.36394 0.0
O141 O 4e-05 0.71223 0.36371 0.0
Cd142 Cd 0.02633 0.72846 0.35127 0.0
O143 O -0.0006 0.68925 0.35711 0.0
Cd144 Cd 0.02406 0.69489 0.34132 0.0
C145 C 0.04787 0.7158 0.37452 0.0
O146 O 0.02551 0.71667 0.32448 0.0
O147 O 0.04551 0.71211 0.32211 0.0
O148 O 0.00442 0.67147 0.32489 0.0
C149 C 0.03857 0.71969 0.31722 0.0
O150 O 0.04432 0.72665 0.37118 0.0
C151 C 0.01176 0.66349 0.32555 0.0
O152 O 0.04208 0.70263 0.36588 0.0
O153 O 0.02511 0.67009 0.33374 0.0
C154 C 0.34911 0.36543 0.33133 0.0
O155 O 0.34181 0.37346 0.33252 0.0
Cd156 Cd 0.31511 0.36234 0.34421 0.0
O157 O 0.34275 0.35112 0.33719 0.0
Cd158 Cd 0.31829 0.33161 0.35312 0.0
C159 C 0.29276 0.32692 0.32133 0.0
O160 O 0.31723 0.35234 0.37057 0.0
O161 O 0.29767 0.32743 0.3737 0.0
O162 O 0.33685 0.3252 0.36764 0.0
C163 C 0.30448 0.34233 0.37826 0.0
O164 O 0.296 0.34146 0.32442 0.0
C165 C 0.328 0.30981 0.36548 0.0
O166 O 0.29948 0.32067 0.32961 0.0
O167 O 0.3146 0.30458 0.3577 0.0
C168 C 0.30823 0.98137 0.65222 0.0
O169 O 0.29937 0.98735 0.64874 0.0
Cd170 Cd 0.30695 0.01464 0.65807 0.0
O171 O 0.32149 0.98992 0.66034 0.0
Cd172 Cd 0.33699 0.01799 0.67226 0.0
C173 C 0.34157 0.03848 0.63727 0.0
O174 O 0.31457 0.01909 0.68716 0.0
O175 O 0.33809 0.04132 0.68577 0.0
O176 O 0.34694 0.00627 0.69268 0.0
C177 C 0.32406 0.03373 0.69218 0.0
O178 O 0.32685 0.0349 0.63937 0.0
C179 C 0.36176 0.01776 0.69202 0.0
O180 O 0.34788 0.03257 0.64665 0.0
O181 O 0.36505 0.02901 0.6819 0.0
C182 C 0.97896 0.33687 0.70091 0.0
O183 O 0.96361 0.32749 0.69925 0.0
Cd184 Cd 0.94976 0.30668 0.67879 0.0
O185 O 0.98896 0.33522 0.6917 0.0
Cd186 Cd 0.98558 0.31439 0.67001 0.0
C187 C 0.9614 0.28127 0.69391 0.0
O188 O 0.96604 0.31822 0.6548 0.0
O189 O 0.9695 0.29921 0.64466 0.0
O190 O 0.01271 0.33465 0.65936 0.0
C191 C 0.963 0.30791 0.64328 0.0
O192 O 0.94958 0.28348 0.69081 0.0
C193 C 0.01775 0.3246 0.65811 0.0
O194 O 0.97569 0.29112 0.68862 0.0
O195 O 0.00793 0.31007 0.66253 0.0
C196 C 0.65407 0.63038 0.69415 0.0
O197 O 0.66432 0.62558 0.69384 0.0
Cd198 Cd 0.69069 0.63975 0.68143 0.0
O199 O 0.65731 0.64363 0.68721 0.0
Cd200 Cd 0.68034 0.66544 0.67111 0.0
C201 C 0.70825 0.67676 0.70227 0.0
O202 O 0.68715 0.64785 0.65475 0.0
O203 O 0.70429 0.67379 0.65364 0.0
O204 O 0.66264 0.66752 0.65072 0.0
C205 C 0.69999 0.65945 0.64851 0.0
O206 O 0.70769 0.66326 0.6995 0.0
C207 C 0.66642 0.68199 0.65479 0.0
O208 O 0.69912 0.68044 0.69421 0.0
O209 O 0.6765 0.68876 0.66669 0.0
C210 C 0.31131 0.32478 0.65697 0.0
O211 O 0.30215 0.30997 0.65226 0.0
Cd212 Cd 0.30589 0.28856 0.66308 0.0
O213 O 0.32298 0.3287 0.66714 0.0
Cd214 Cd 0.33674 0.31758 0.68339 0.0
C215 C 0.34435 0.2997 0.65003 0.0
O216 O 0.31098 0.29469 0.6923 0.0
O217 O 0.33276 0.29644 0.70276 0.0
O218 O 0.3423 0.33949 0.70308 0.0
C219 C 0.31726 0.28884 0.70175 0.0
O220 O 0.32899 0.29005 0.64832 0.0
C221 C 0.35774 0.34704 0.70155 0.0
O222 O 0.35007 0.3107 0.66139 0.0
O223 O 0.36355 0.34033 0.6923 0.0
C224 C 0.66775 0.02731 0.67894 0.0
O225 O 0.67637 0.04282 0.67985 0.0
Cd226 Cd 0.70184 0.05737 0.66489 0.0
O227 O 0.67258 0.01917 0.67054 0.0
Cd228 Cd 0.69501 0.02211 0.65329 0.0
C229 C 0.72383 0.04264 0.68336 0.0
O230 O 0.69728 0.0449 0.63788 0.0
O231 O 0.71507 0.03777 0.63217 0.0
O232 O 0.67337 0.0001 0.63703 0.0
C233 C 0.70913 0.04674 0.62906 0.0
O234 O 0.72241 0.05493 0.68027 0.0
C235 C 0.67835 0.99008 0.63829 0.0
O236 O 0.71455 0.02874 0.67637 0.0
O237 O 0.69152 0.99497 0.64645 0.0
C238 C 0.0164 0.70093 0.6502 0.0
O239 O 0.01353 0.7126 0.65075 0.0
Cd240 Cd 0.98828 0.70868 0.66162 0.0
O241 O 0.00658 0.68729 0.65672 0.0
Cd242 Cd 0.98144 0.67371 0.67363 0.0
C243 C 0.95979 0.67343 0.64044 0.0
O244 O 0.98651 0.6983 0.68866 0.0
O245 O 0.9633 0.67646 0.69332 0.0
O246 O 0.99801 0.66658 0.68993 0.0
C247 C 0.97318 0.6915 0.69653 0.0
O248 O 0.96713 0.68889 0.64269 0.0
C249 C 0.98785 0.65133 0.69026 0.0
O250 O 0.96269 0.66457 0.64978 0.0
O251 O 0.97427 0.64619 0.68279 0.0
C252 C 0.20704 0.27205 0.04734 0.0
C253 C 0.21312 0.28524 0.06099 0.0
C254 C 0.19998 0.28198 0.08759 0.0
C255 C 0.20431 0.2983 0.09054 0.0
C256 C 0.19548 0.3022 0.10175 0.0
C257 C 0.18195 0.28948 0.11 0.0
C258 C 0.17796 0.27304 0.10746 0.0
C259 C 0.18729 0.26958 0.09651 0.0
C260 C 0.20032 0.31986 0.10442 0.0
C261 C 0.16345 0.25907 0.11575 0.0
C262 C 0.07955 0.29394 0.06006 0.0
C263 C 0.08849 0.2892 0.0715 0.0
C264 C 0.11383 0.3008 0.08748 0.0
C265 C 0.10955 0.28613 0.09543 0.0
C266 C 0.12055 0.28518 0.10618 0.0
C267 C 0.13602 0.29928 0.10939 0.0
C268 C 0.14016 0.3142 0.10187 0.0
C269 C 0.12902 0.31473 0.09094 0.0
C270 C 0.11578 0.26897 0.11378 0.0
C271 C 0.1565 0.32949 0.10512 0.0
C272 C 0.10479 0.29333 0.21548 0.0
C273 C 0.10212 0.27941 0.20637 0.0
C274 C 0.11498 0.27924 0.19803 0.0
C275 C 0.13078 0.29341 0.19844 0.0
C276 C 0.13353 0.30743 0.20758 0.0
C277 C 0.1205 0.30715 0.21607 0.0
C278 C 0.11164 0.26392 0.18869 0.0
C279 C 0.1502 0.32275 0.20824 0.0
C280 C 0.23382 0.27352 0.20824 0.0
C281 C 0.22782 0.28276 0.21906 0.0
C282 C 0.20022 0.27769 0.21399 0.0
C283 C 0.18509 0.26517 0.20806 0.0
C284 C 0.17399 0.2687 0.20057 0.0
C285 C 0.17813 0.28519 0.19917 0.0
C286 C 0.19299 0.29787 0.20609 0.0
C287 C 0.20385 0.29399 0.21355 0.0
C288 C 0.15806 0.25485 0.19367 0.0
C289 C 0.19754 0.31554 0.20519 0.0
C290 C 0.17101 0.29315 0.11993 0.0
C291 C 0.15982 0.2957 0.11133 0.0
C292 C 0.14826 0.29804 0.1196 0.0
C293 C 0.14776 0.29786 0.13702 0.0
C294 C 0.13626 0.30013 0.14575 0.0
C295 C 0.13528 0.29899 0.16285 0.0
C296 C 0.1458 0.2956 0.17186 0.0
C297 C 0.14432 0.29353 0.18913 0.0
C298 C 0.15517 0.29043 0.19773 0.0
C299 C 0.16744 0.2892 0.1895 0.0
C300 C 0.16897 0.29101 0.1722 0.0
C301 C 0.18107 0.28966 0.16352 0.0
C302 C 0.18199 0.29069 0.14642 0.0
C303 C 0.1708 0.29303 0.13735 0.0
C304 C 0.15895 0.29513 0.14591 0.0
C305 C 0.15799 0.29405 0.16335 0.0
C306 C 0.06783 0.28323 0.20809 0.0
C307 C 0.07616 0.28233 0.22387 0.0
O308 O 0.20758 0.27776 0.07603 0.0
O309 O 0.21091 0.27357 0.22006 0.0
O310 O 0.09269 0.29406 0.22379 0.0
O311 O 0.1038 0.30193 0.07632 0.0
H312 H 0.20781 0.29303 0.05822 0.0
H313 H 0.19345 0.2649 0.04718 0.0
H314 H 0.21157 0.26351 0.04941 0.0
H315 H 0.21127 0.27774 0.03511 0.0
H316 H 0.2145 0.30799 0.08401 0.0
H317 H 0.18421 0.25704 0.09425 0.0
H318 H 0.19127 0.32208 0.09818 0.0
H319 H 0.21262 0.32839 0.09938 0.0
H320 H 0.20029 0.32267 0.11777 0.0
H321 H 0.16097 0.24694 0.11105 0.0
H322 H 0.15233 0.25988 0.11383 0.0
H323 H 0.16578 0.25981 0.12923 0.0
H324 H 0.08836 0.27777 0.06782 0.0
H325 H 0.07811 0.28682 0.04828 0.0
H326 H 0.08893 0.30609 0.05485 0.0
H327 H 0.0591 0.29067 0.07411 0.0
H328 H 0.09775 0.27527 0.09313 0.0
H329 H 0.13219 0.32602 0.08487 0.0
H330 H 0.12526 0.26572 0.11124 0.0
H331 H 0.10381 0.25888 0.10904 0.0
H332 H 0.11496 0.26995 0.12736 0.0
H333 H 0.15709 0.34051 0.09995 0.0
H334 H 0.16631 0.32798 0.09948 0.0
H335 H 0.15899 0.33148 0.1186 0.0
H336 H 0.07454 0.26994 0.22468 0.0
H337 H 0.09009 0.26858 0.20562 0.0
H338 H 0.1225 0.31784 0.22311 0.0
H339 H 0.11244 0.26613 0.17524 0.0
H340 H 0.09932 0.25333 0.19131 0.0
H341 H 0.12097 0.26067 0.19189 0.0
H342 H 0.1501 0.33297 0.21502 0.0
H343 H 0.15465 0.32669 0.19553 0.0
H344 H 0.15901 0.32016 0.21442 0.0
H345 H 0.23194 0.29452 0.21278 0.0
H346 H 0.2474 0.28041 0.20778 0.0
H347 H 0.22901 0.27218 0.19548 0.0
H348 H 0.22952 0.26109 0.21295 0.0
H349 H 0.18224 0.25261 0.20881 0.0
H350 H 0.21515 0.30369 0.21897 0.0
H351 H 0.15793 0.25572 0.18004 0.0
H352 H 0.14766 0.25583 0.19853 0.0
H353 H 0.15616 0.24267 0.19675 0.0
H354 H 0.20927 0.32394 0.21168 0.0
H355 H 0.18772 0.31711 0.21072 0.0
H356 H 0.19864 0.31909 0.19208 0.0
H357 H 0.15981 0.29541 0.09794 0.0
H358 H 0.12775 0.30259 0.13943 0.0
H359 H 0.12605 0.30065 0.1689 0.0
H360 H 0.15384 0.28864 0.21093 0.0
H361 H 0.18988 0.28761 0.16981 0.0
H362 H 0.19145 0.28941 0.14036 0.0
H363 H 0.05456 0.27394 0.20821 0.0
H364 H 0.06938 0.29558 0.20696 0.0
H365 H 0.07325 0.28075 0.19709 0.0
C366 C 0.73797 0.92328 0.05076 0.0
C367 C 0.72707 0.92043 0.0657 0.0
C368 C 0.7328 0.91422 0.09314 0.0
C369 C 0.71664 0.90403 0.0983 0.0
C370 C 0.71313 0.89311 0.1112 0.0
C371 C 0.72604 0.8923 0.11894 0.0
C372 C 0.74241 0.90325 0.11434 0.0
C373 C 0.74557 0.91429 0.10166 0.0
C374 C 0.69556 0.88193 0.11605 0.0
C375 C 0.7565 0.90266 0.12214 0.0
C376 C 0.71837 0.79743 0.07113 0.0
C377 C 0.70766 0.78751 0.08563 0.0
C378 C 0.70267 0.80714 0.10115 0.0
C379 C 0.7187 0.81727 0.10721 0.0
C380 C 0.72269 0.83105 0.11722 0.0
C381 C 0.71036 0.8346 0.12144 0.0
C382 C 0.69414 0.82418 0.11572 0.0
C383 C 0.69055 0.81063 0.10556 0.0
C384 C 0.74015 0.84206 0.12297 0.0
C385 C 0.68067 0.82753 0.12007 0.0
C386 C 0.71906 0.81484 0.22647 0.0
C387 C 0.73357 0.82582 0.21836 0.0
C388 C 0.73498 0.83939 0.21026 0.0
C389 C 0.72157 0.84197 0.2101 0.0
C390 C 0.70712 0.8312 0.21859 0.0
C391 C 0.70611 0.81783 0.22676 0.0
C392 C 0.7507 0.85078 0.20154 0.0
C393 C 0.6926 0.83358 0.21865 0.0
C394 C 0.76325 0.97234 0.2348 0.0
C395 C 0.74846 0.9549 0.23497 0.0
C396 C 0.74785 0.92973 0.22604 0.0
C397 C 0.7583 0.92401 0.22177 0.0
C398 C 0.75255 0.90925 0.21288 0.0
C399 C 0.73576 0.89972 0.20857 0.0
C400 C 0.72498 0.90522 0.21329 0.0
C401 C 0.73117 0.92027 0.22186 0.0
C402 C 0.76446 0.90384 0.20814 0.0
C403 C 0.70693 0.89513 0.20937 0.0
C404 C 0.72226 0.87841 0.12977 0.0
C405 C 0.71778 0.86347 0.12192 0.0
C406 C 0.71462 0.84981 0.13088 0.0
C407 C 0.71592 0.85094 0.14826 0.0
C408 C 0.71279 0.83738 0.15763 0.0
C409 C 0.71471 0.83877 0.17468 0.0
C410 C 0.71976 0.85375 0.18302 0.0
C411 C 0.72244 0.85542 0.20027 0.0
C412 C 0.72709 0.87036 0.20824 0.0
C413 C 0.72957 0.88392 0.19939 0.0
C414 C 0.72731 0.88258 0.18204 0.0
C415 C 0.73009 0.89605 0.17263 0.0
C416 C 0.72819 0.89467 0.15553 0.0
C417 C 0.72366 0.87984 0.14717 0.0
C418 C 0.72058 0.86605 0.15643 0.0
C419 C 0.72242 0.86743 0.17386 0.0
C420 C 0.72486 0.78626 0.21585 0.0
C421 C 0.72675 0.79435 0.2329 0.0
O422 O 0.73651 0.92397 0.0799 0.0
O423 O 0.75431 0.94419 0.23455 0.0
O424 O 0.7169 0.8012 0.23398 0.0
O425 O 0.69834 0.79419 0.09071 0.0
H426 H 0.71725 0.90728 0.06519 0.0
H427 H 0.7434 0.91536 0.05141 0.0
H428 H 0.74805 0.93626 0.05047 0.0
H429 H 0.7307 0.92017 0.03914 0.0
H430 H 0.70676 0.90443 0.09214 0.0
H431 H 0.75802 0.92244 0.09774 0.0
H432 H 0.69124 0.86946 0.11089 0.0
H433 H 0.68743 0.88617 0.11132 0.0
H434 H 0.69449 0.88105 0.12968 0.0
H435 H 0.76848 0.91175 0.11687 0.0
H436 H 0.75477 0.89026 0.12037 0.0
H437 H 0.75687 0.90511 0.13561 0.0
H438 H 0.71558 0.78793 0.09593 0.0
H439 H 0.7108 0.7949 0.05981 0.0
H440 H 0.72811 0.79452 0.06869 0.0
H441 H 0.72458 0.81076 0.07398 0.0
H442 H 0.72824 0.81476 0.10389 0.0
H443 H 0.67823 0.80273 0.10085 0.0
H444 H 0.74071 0.8424 0.13665 0.0
H445 H 0.74472 0.85474 0.11888 0.0
H446 H 0.74843 0.83791 0.11818 0.0
H447 H 0.66842 0.81731 0.11617 0.0
H448 H 0.68293 0.83881 0.11392 0.0
H449 H 0.68063 0.82964 0.13358 0.0
H450 H 0.73975 0.80401 0.23504 0.0
H451 H 0.74381 0.82386 0.21814 0.0
H452 H 0.695 0.80938 0.23312 0.0
H453 H 0.7485 0.84944 0.18801 0.0
H454 H 0.76059 0.84822 0.20439 0.0
H455 H 0.75493 0.86369 0.20509 0.0
H456 H 0.68218 0.82403 0.22571 0.0
H457 H 0.68849 0.83331 0.20578 0.0
H458 H 0.69622 0.84577 0.22415 0.0
H459 H 0.74109 0.95322 0.22365 0.0
H460 H 0.75934 0.98148 0.23385 0.0
H461 H 0.77099 0.97373 0.22397 0.0
H462 H 0.77076 0.97498 0.24619 0.0
H463 H 0.77111 0.93132 0.22523 0.0
H464 H 0.72292 0.92443 0.22555 0.0
H465 H 0.76305 0.90026 0.19485 0.0
H466 H 0.7618 0.89294 0.21532 0.0
H467 H 0.77737 0.91356 0.21058 0.0
H468 H 0.69996 0.9004 0.2151 0.0
H469 H 0.70189 0.88246 0.21376 0.0
H470 H 0.70502 0.89435 0.19581 0.0
H471 H 0.71692 0.86251 0.10855 0.0
H472 H 0.70898 0.82559 0.15186 0.0
H473 H 0.71226 0.82794 0.18123 0.0
H474 H 0.72927 0.87158 0.22146 0.0
H475 H 0.73384 0.90783 0.17838 0.0
H476 H 0.73048 0.9054 0.14889 0.0
H477 H 0.73256 0.78057 0.21508 0.0
H478 H 0.72884 0.79547 0.20604 0.0
H479 H 0.71189 0.77669 0.21345 0.0
C480 C 0.19614 0.88797 0.06683 0.0
C481 C 0.20072 0.90568 0.07078 0.0
C482 C 0.19304 0.90279 0.09926 0.0
C483 C 0.18118 0.90727 0.10081 0.0
C484 C 0.16802 0.89901 0.11161 0.0
C485 C 0.16659 0.88577 0.1207 0.0
C486 C 0.179 0.88172 0.11961 0.0
C487 C 0.19228 0.89055 0.10909 0.0
C488 C 0.15529 0.90396 0.11275 0.0
C489 C 0.17777 0.86748 0.12879 0.0
C490 C 0.0727 0.82022 0.04916 0.0
C491 C 0.08115 0.81528 0.06188 0.0
C492 C 0.08635 0.82387 0.09062 0.0
C493 C 0.09856 0.82027 0.09424 0.0
C494 C 0.10994 0.82871 0.10699 0.0
C495 C 0.10931 0.84132 0.11598 0.0
C496 C 0.09661 0.84456 0.11267 0.0
C497 C 0.08503 0.83546 0.10025 0.0
C498 C 0.12297 0.82454 0.11043 0.0
C499 C 0.0957 0.85815 0.12163 0.0
C500 C 0.07381 0.81375 0.21874 0.0
C501 C 0.08649 0.8108 0.21481 0.0
C502 C 0.10123 0.82315 0.20827 0.0
C503 C 0.1033 0.83874 0.2055 0.0
C504 C 0.09087 0.84199 0.21018 0.0
C505 C 0.07632 0.82945 0.21691 0.0
C506 C 0.11447 0.81945 0.20395 0.0
C507 C 0.09278 0.85855 0.20761 0.0
C508 C 0.21595 0.94535 0.21812 0.0
C509 C 0.20782 0.93988 0.23498 0.0
C510 C 0.18636 0.9116 0.22788 0.0
C511 C 0.18328 0.89558 0.22685 0.0
C512 C 0.16988 0.88339 0.21778 0.0
C513 C 0.15909 0.88729 0.20988 0.0
C514 C 0.16165 0.90328 0.21157 0.0
C515 C 0.17536 0.91533 0.22039 0.0
C516 C 0.1675 0.86645 0.21628 0.0
C517 C 0.15008 0.90774 0.20376 0.0
C518 C 0.15122 0.8749 0.12956 0.0
C519 C 0.13774 0.86375 0.12003 0.0
C520 C 0.12302 0.85235 0.12727 0.0
C521 C 0.1217 0.85187 0.14464 0.0
C522 C 0.10736 0.84012 0.15241 0.0
C523 C 0.10612 0.83994 0.16952 0.0
C524 C 0.11922 0.85143 0.17952 0.0
C525 C 0.11809 0.85133 0.19692 0.0
C526 C 0.13122 0.86311 0.20647 0.0
C527 C 0.14568 0.87494 0.1991 0.0
C528 C 0.14719 0.87501 0.18173 0.0
C529 C 0.16171 0.88648 0.17394 0.0
C530 C 0.16304 0.88655 0.15686 0.0
C531 C 0.14994 0.87507 0.14691 0.0
C532 C 0.13515 0.86343 0.15448 0.0
C533 C 0.13384 0.8633 0.17192 0.0
C534 C 0.03371 0.77851 0.21565 0.0
C535 C 0.05171 0.78525 0.22009 0.0
O536 O 0.20454 0.90929 0.0874 0.0
O537 O 0.20011 0.92299 0.23606 0.0
O538 O 0.05902 0.80176 0.22413 0.0
O539 O 0.07609 0.81676 0.07753 0.0
H540 H 0.19007 0.90704 0.06768 0.0
H541 H 0.18504 0.87932 0.07373 0.0
H542 H 0.20632 0.88603 0.07031 0.0
H543 H 0.19338 0.88508 0.05347 0.0
H544 H 0.18203 0.91694 0.09324 0.0
H545 H 0.20159 0.88726 0.10772 0.0
H546 H 0.14414 0.89486 0.10583 0.0
H547 H 0.15967 0.9162 0.10747 0.0
H548 H 0.15179 0.90413 0.12579 0.0
H549 H 0.18786 0.86524 0.12568 0.0
H550 H 0.16592 0.85618 0.12587 0.0
H551 H 0.17816 0.86989 0.14227 0.0
H552 H 0.09456 0.82401 0.06065 0.0
H553 H 0.07661 0.81915 0.03651 0.0
H554 H 0.07609 0.83314 0.05148 0.0
H555 H 0.05918 0.81236 0.04993 0.0
H556 H 0.09931 0.81099 0.08698 0.0
H557 H 0.07543 0.83801 0.09738 0.0
H558 H 0.12493 0.82448 0.12392 0.0
H559 H 0.13469 0.83397 0.10501 0.0
H560 H 0.11977 0.81244 0.10499 0.0
H561 H 0.08623 0.86028 0.11626 0.0
H562 H 0.10771 0.86972 0.12123 0.0
H563 H 0.09273 0.855 0.13476 0.0
H564 H 0.05726 0.78344 0.20872 0.0
H565 H 0.08491 0.79886 0.21678 0.0
H566 H 0.06657 0.83169 0.22024 0.0
H567 H 0.11592 0.81962 0.19036 0.0
H568 H 0.11167 0.8073 0.20837 0.0
H569 H 0.12635 0.829 0.20939 0.0
H570 H 0.08193 0.85909 0.21181 0.0
H571 H 0.09473 0.86153 0.19432 0.0
H572 H 0.10374 0.86808 0.21445 0.0
H573 H 0.19875 0.94384 0.23672 0.0
H574 H 0.22232 0.95889 0.21731 0.0
H575 H 0.20663 0.94 0.20809 0.0
H576 H 0.22496 0.94134 0.21613 0.0
H577 H 0.19173 0.89278 0.2328 0.0
H578 H 0.17736 0.92757 0.22126 0.0
H579 H 0.167 0.86291 0.20307 0.0
H580 H 0.15566 0.85749 0.22186 0.0
H581 H 0.17745 0.86562 0.22249 0.0
H582 H 0.15232 0.91983 0.20826 0.0
H583 H 0.1372 0.8983 0.20636 0.0
H584 H 0.15164 0.90818 0.19018 0.0
H585 H 0.13875 0.86387 0.10668 0.0
H586 H 0.09693 0.83095 0.14534 0.0
H587 H 0.09472 0.83067 0.1748 0.0
H588 H 0.13021 0.86304 0.2198 0.0
H589 H 0.17225 0.89555 0.18095 0.0
H590 H 0.17446 0.89571 0.15152 0.0
H591 H 0.02747 0.76514 0.21297 0.0
H592 H 0.03285 0.78461 0.20447 0.0
H593 H 0.02723 0.78082 0.2258 0.0
C594 C 0.27852 0.09593 0.96388 0.0
C595 C 0.28035 0.08759 0.9483 0.0
C596 C 0.28782 0.10775 0.92638 0.0
C597 C 0.27206 0.10531 0.92396 0.0
C598 C 0.26923 0.11437 0.91236 0.0
C599 C 0.28247 0.12648 0.9033 0.0
C600 C 0.29836 0.12906 0.90573 0.0
C601 C 0.30077 0.11951 0.91712 0.0
C602 C 0.25207 0.11114 0.90998 0.0
C603 C 0.31281 0.14206 0.89649 0.0
C604 C 0.25218 0.21291 0.93445 0.0
C605 C 0.26853 0.21358 0.93684 0.0
C606 C 0.27492 0.20041 0.91423 0.0
C607 C 0.288 0.20326 0.90417 0.0
C608 C 0.28859 0.19026 0.89638 0.0
C609 C 0.27532 0.17406 0.89813 0.0
C610 C 0.26182 0.17115 0.90798 0.0
C611 C 0.26186 0.18434 0.91609 0.0
C612 C 0.30345 0.19389 0.8864 0.0
C613 C 0.24735 0.15411 0.91003 0.0
C614 C 0.25756 0.18159 0.79323 0.0
C615 C 0.27365 0.1854 0.79646 0.0
C616 C 0.27669 0.17444 0.80485 0.0
C617 C 0.26337 0.15934 0.80999 0.0
C618 C 0.2472 0.15507 0.80585 0.0
C619 C 0.24452 0.16624 0.79738 0.0
C620 C 0.29412 0.17917 0.80864 0.0
C621 C 0.23275 0.13895 0.8109 0.0
C622 C 0.27177 0.05416 0.79568 0.0
C623 C 0.27789 0.06775 0.78301 0.0
C624 C 0.28295 0.09282 0.79817 0.0
C625 C 0.29541 0.10836 0.80326 0.0
C626 C 0.29191 0.11946 0.81109 0.0
C627 C 0.27545 0.11475 0.81416 0.0
C628 C 0.2627 0.09903 0.80901 0.0
C629 C 0.26656 0.08819 0.80101 0.0
C630 C 0.30585 0.13621 0.81616 0.0
C631 C 0.24504 0.09367 0.81216 0.0
C632 C 0.27974 0.13705 0.8921 0.0
C633 C 0.2791 0.15023 0.89921 0.0
C634 C 0.2756 0.16019 0.88971 0.0
C635 C 0.27261 0.15696 0.87259 0.0
C636 C 0.26845 0.16635 0.86277 0.0
C637 C 0.26619 0.16353 0.84584 0.0
C638 C 0.26793 0.15115 0.83806 0.0
C639 C 0.26632 0.14863 0.82075 0.0
C640 C 0.26827 0.13633 0.81339 0.0
C641 C 0.27174 0.12633 0.8229 0.0
C642 C 0.27309 0.12846 0.84026 0.0
C643 C 0.27621 0.11839 0.85023 0.0
C644 C 0.27814 0.121 0.86725 0.0
C645 C 0.27727 0.13392 0.8749 0.0
C646 C 0.27377 0.14399 0.86512 0.0
C647 C 0.27149 0.14112 0.84781 0.0
C648 C 0.25119 0.21379 0.79797 0.0
C649 C 0.26255 0.20916 0.78916 0.0
O650 O 0.29116 0.09922 0.93749 0.0
O651 O 0.2875 0.0828 0.79088 0.0
O652 O 0.2542 0.19238 0.78616 0.0
O653 O 0.27524 0.21348 0.92171 0.0
H654 H 0.26803 0.08025 0.94251 0.0
H655 H 0.27241 0.10286 0.96073 0.0
H656 H 0.29062 0.10469 0.96947 0.0
H657 H 0.27088 0.08664 0.97309 0.0
H658 H 0.26182 0.09651 0.93107 0.0
H659 H 0.31289 0.12139 0.91904 0.0
H660 H 0.25133 0.12162 0.91518 0.0
H661 H 0.2428 0.09984 0.91616 0.0
H662 H 0.24896 0.11 0.89664 0.0
H663 H 0.3245 0.14304 0.90032 0.0
H664 H 0.3138 0.15411 0.89857 0.0
H665 H 0.31097 0.13921 0.88305 0.0
H666 H 0.26596 0.20264 0.94399 0.0
H667 H 0.2477 0.21483 0.94645 0.0
H668 H 0.24283 0.20075 0.92934 0.0
H669 H 0.25337 0.22228 0.92569 0.0
H670 H 0.29799 0.21572 0.90276 0.0
H671 H 0.25155 0.18204 0.92366 0.0
H672 H 0.30028 0.19241 0.87308 0.0
H673 H 0.30757 0.18519 0.88933 0.0
H674 H 0.31378 0.20657 0.88868 0.0
H675 H 0.23666 0.15425 0.91539 0.0
H676 H 0.25087 0.14732 0.91842 0.0
H677 H 0.24363 0.14735 0.89801 0.0
H678 H 0.27313 0.213 0.79767 0.0
H679 H 0.28384 0.19694 0.7925 0.0
H680 H 0.23216 0.16328 0.7945 0.0
H681 H 0.29622 0.18063 0.82218 0.0
H682 H 0.30314 0.19078 0.80276 0.0
H683 H 0.29632 0.1693 0.80432 0.0
H684 H 0.22097 0.13719 0.80621 0.0
H685 H 0.23227 0.13835 0.82456 0.0
H686 H 0.23421 0.12872 0.8062 0.0
H687 H 0.26729 0.06734 0.77674 0.0
H688 H 0.26371 0.04202 0.78965 0.0
H689 H 0.2646 0.05605 0.80536 0.0
H690 H 0.28226 0.05413 0.80168 0.0
H691 H 0.308 0.11178 0.80101 0.0
H692 H 0.25678 0.07613 0.79725 0.0
H693 H 0.30648 0.13745 0.82981 0.0
H694 H 0.30371 0.14582 0.81135 0.0
H695 H 0.31783 0.13844 0.81161 0.0
H696 H 0.23655 0.08085 0.80794 0.0
H697 H 0.24183 0.10184 0.80566 0.0
H698 H 0.24322 0.09478 0.82555 0.0
H699 H 0.28122 0.15269 0.91237 0.0
H700 H 0.26701 0.17608 0.86805 0.0
H701 H 0.2632 0.17128 0.83892 0.0
H702 H 0.26748 0.13478 0.80007 0.0
H703 H 0.27722 0.10838 0.84498 0.0
H704 H 0.28056 0.1129 0.8743 0.0
H705 H 0.25758 0.22724 0.80028 0.0
H706 H 0.24751 0.20764 0.81003 0.0
H707 H 0.23996 0.20994 0.79052 0.0
C708 C 0.81097 0.07649 0.96942 0.0
C709 C 0.80294 0.08015 0.95514 0.0
C710 C 0.81353 0.08601 0.92713 0.0
C711 C 0.808 0.09661 0.92283 0.0
C712 C 0.81526 0.10755 0.90988 0.0
C713 C 0.82841 0.10798 0.9012 0.0
C714 C 0.83341 0.09669 0.90499 0.0
C715 C 0.82564 0.08562 0.91773 0.0
C716 C 0.80932 0.1191 0.90591 0.0
C717 C 0.84752 0.09686 0.89623 0.0
C718 C 0.9089 0.19234 0.95412 0.0
C719 C 0.91739 0.20351 0.93952 0.0
C720 C 0.89596 0.19066 0.91811 0.0
C721 C 0.89829 0.17747 0.91439 0.0
C722 C 0.88737 0.1645 0.90399 0.0
C723 C 0.87365 0.16452 0.89733 0.0
C724 C 0.87144 0.17792 0.90067 0.0
C725 C 0.88275 0.19092 0.91089 0.0
C726 C 0.89023 0.15048 0.90055 0.0
C727 C 0.85687 0.17825 0.89385 0.0
C728 C 0.89925 0.17993 0.78953 0.0
C729 C 0.90277 0.16948 0.79834 0.0
C730 C 0.89066 0.1568 0.80771 0.0
C731 C 0.87481 0.15466 0.80846 0.0
C732 C 0.87119 0.16502 0.79944 0.0
C733 C 0.88345 0.17745 0.79 0.0
C734 C 0.89486 0.14577 0.81694 0.0
C735 C 0.85443 0.16309 0.79998 0.0
C736 C 0.77856 0.02686 0.78684 0.0
C737 C 0.78334 0.04458 0.78349 0.0
C738 C 0.8089 0.06827 0.79418 0.0
C739 C 0.82456 0.07258 0.79959 0.0
C740 C 0.83439 0.08717 0.80856 0.0
C741 C 0.82852 0.09793 0.81188 0.0
C742 C 0.81275 0.09379 0.80623 0.0
C743 C 0.80306 0.07895 0.79748 0.0
C744 C 0.85114 0.09117 0.81435 0.0
C745 C 0.8063 0.10519 0.80919 0.0
C746 C 0.83844 0.12168 0.89001 0.0
C747 C 0.84969 0.13667 0.89745 0.0
C748 C 0.86097 0.14981 0.88814 0.0
C749 C 0.86096 0.14812 0.8708 0.0
C750 C 0.87232 0.161 0.86107 0.0
C751 C 0.87255 0.15904 0.84405 0.0
C752 C 0.86152 0.14407 0.83612 0.0
C753 C 0.86211 0.14177 0.81891 0.0
C754 C 0.85094 0.12677 0.81141 0.0
C755 C 0.83921 0.1138 0.82066 0.0
C756 C 0.8385 0.11581 0.83792 0.0
C757 C 0.82703 0.10297 0.84767 0.0
C758 C 0.82677 0.10495 0.86471 0.0
C759 C 0.83806 0.11978 0.87266 0.0
C760 C 0.84947 0.13302 0.86303 0.0
C761 C 0.84974 0.13101 0.84566 0.0
C762 C 0.93533 0.20872 0.79612 0.0
C763 C 0.92736 0.19893 0.78015 0.0
O764 O 0.80773 0.07626 0.94041 0.0
O765 O 0.80022 0.0541 0.78524 0.0
O766 O 0.91059 0.19255 0.78049 0.0
O767 O 0.90588 0.20314 0.92874 0.0
H768 H 0.80739 0.0935 0.95597 0.0
H769 H 0.82449 0.0839 0.96834 0.0
H770 H 0.8072 0.06333 0.96929 0.0
H771 H 0.80749 0.07967 0.98141 0.0
H772 H 0.79817 0.09649 0.92973 0.0
H773 H 0.8296 0.07718 0.92102 0.0
H774 H 0.81829 0.13154 0.91075 0.0
H775 H 0.79724 0.11525 0.9115 0.0
H776 H 0.80837 0.11988 0.89235 0.0
H777 H 0.85076 0.08822 0.90164 0.0
H778 H 0.85849 0.10935 0.89677 0.0
H779 H 0.84429 0.09342 0.88304 0.0
H780 H 0.92486 0.19925 0.93297 0.0
H781 H 0.901 0.19606 0.9607 0.0
H782 H 0.90114 0.17944 0.94977 0.0
H783 H 0.91814 0.19292 0.96292 0.0
H784 H 0.90844 0.17695 0.91965 0.0
H785 H 0.88105 0.20114 0.91371 0.0
H786 H 0.88893 0.14742 0.88715 0.0
H787 H 0.88089 0.13948 0.90705 0.0
H788 H 0.90254 0.1533 0.90474 0.0
H789 H 0.85697 0.18964 0.89745 0.0
H790 H 0.84542 0.16758 0.89836 0.0
H791 H 0.85669 0.1772 0.88018 0.0
H792 H 0.92999 0.18884 0.77869 0.0
H793 H 0.91488 0.17112 0.79803 0.0
H794 H 0.88083 0.18551 0.78311 0.0
H795 H 0.89453 0.14787 0.83041 0.0
H796 H 0.90719 0.14797 0.81379 0.0
H797 H 0.88566 0.13274 0.81415 0.0
H798 H 0.85378 0.17261 0.79284 0.0
H799 H 0.85106 0.16379 0.81296 0.0
H800 H 0.84523 0.15086 0.79487 0.0
H801 H 0.77712 0.04807 0.79295 0.0
H802 H 0.76519 0.01901 0.78869 0.0
H803 H 0.78465 0.02645 0.79836 0.0
H804 H 0.78243 0.02175 0.77653 0.0
H805 H 0.82903 0.06436 0.79681 0.0
H806 H 0.79116 0.07599 0.79285 0.0
H807 H 0.85268 0.09434 0.82774 0.0
H808 H 0.86062 0.10201 0.80774 0.0
H809 H 0.85329 0.08086 0.81211 0.0
H810 H 0.79399 0.10043 0.8036 0.0
H811 H 0.81487 0.11733 0.80398 0.0
H812 H 0.80558 0.10703 0.82266 0.0
H813 H 0.85013 0.13793 0.91081 0.0
H814 H 0.88122 0.17272 0.86653 0.0
H815 H 0.88161 0.16938 0.8372 0.0
H816 H 0.85159 0.12506 0.79822 0.0
H817 H 0.8182 0.09122 0.84223 0.0
H818 H 0.81772 0.09466 0.87164 0.0
H819 H 0.93277 0.21884 0.79773 0.0
H820 H 0.94878 0.21396 0.79584 0.0
H821 H 0.9305 0.20071 0.80696 0.0
C822 C 0.81192 0.72602 0.9633 0.0
C823 C 0.80057 0.72332 0.94865 0.0
C824 C 0.81172 0.7137 0.92664 0.0
C825 C 0.82567 0.72903 0.92362 0.0
C826 C 0.83758 0.73049 0.91244 0.0
C827 C 0.83566 0.71635 0.90421 0.0
C828 C 0.82155 0.70095 0.90698 0.0
C829 C 0.80971 0.69986 0.9181 0.0
C830 C 0.85241 0.74714 0.90962 0.0
C831 C 0.81915 0.68566 0.89838 0.0
C832 C 0.95044 0.74332 0.933 0.0
C833 C 0.93695 0.7259 0.93743 0.0
C834 C 0.91469 0.71802 0.91715 0.0
C835 C 0.90494 0.70603 0.90539 0.0
C836 C 0.89169 0.70599 0.89776 0.0
C837 C 0.88874 0.71892 0.90127 0.0
C838 C 0.8985 0.73105 0.91331 0.0
C839 C 0.91104 0.73019 0.92146 0.0
C840 C 0.88103 0.69214 0.88588 0.0
C841 C 0.89585 0.74508 0.91753 0.0
C842 C 0.92183 0.73999 0.79883 0.0
C843 C 0.90789 0.72429 0.79969 0.0
C844 C 0.89363 0.72194 0.80737 0.0
C845 C 0.89324 0.73559 0.81407 0.0
C846 C 0.90689 0.75152 0.81225 0.0
C847 C 0.92101 0.75351 0.80454 0.0
C848 C 0.87911 0.70482 0.80871 0.0
C849 C 0.90675 0.76635 0.81898 0.0
C850 C 0.78524 0.73751 0.80398 0.0
C851 C 0.79284 0.73559 0.78804 0.0
C852 C 0.81121 0.72637 0.79839 0.0
C853 C 0.81275 0.71263 0.80006 0.0
C854 C 0.82597 0.71354 0.80867 0.0
C855 C 0.83804 0.72868 0.81573 0.0
C856 C 0.83673 0.74274 0.81393 0.0
C857 C 0.8233 0.74146 0.8053 0.0
C858 C 0.82699 0.6983 0.81032 0.0
C859 C 0.84949 0.75908 0.82123 0.0
C860 C 0.84896 0.71769 0.89352 0.0
C861 C 0.86168 0.71682 0.90108 0.0
C862 C 0.87559 0.71983 0.89231 0.0
C863 C 0.87681 0.72375 0.87541 0.0
C864 C 0.89093 0.72767 0.86636 0.0
C865 C 0.89173 0.73076 0.8496 0.0
C866 C 0.87856 0.73034 0.84127 0.0
C867 C 0.87911 0.73305 0.82414 0.0
C868 C 0.86588 0.73272 0.81626 0.0
C869 C 0.85197 0.7297 0.82506 0.0
C870 C 0.85119 0.72697 0.84222 0.0
C871 C 0.83744 0.72398 0.85148 0.0
C872 C 0.83673 0.7211 0.86832 0.0
C873 C 0.84963 0.72082 0.87648 0.0
C874 C 0.86362 0.72385 0.8674 0.0
C875 C 0.86448 0.72712 0.8503 0.0
C876 C 0.95705 0.74058 0.80652 0.0
C877 C 0.94265 0.7325 0.79432 0.0
O878 O 0.80006 0.71165 0.93774 0.0
O879 O 0.79786 0.72436 0.79011 0.0
O880 O 0.93617 0.74256 0.7925 0.0
O881 O 0.92757 0.71748 0.92368 0.0
H882 H 0.80515 0.73509 0.94225 0.0
H883 H 0.82463 0.73076 0.95904 0.0
H884 H 0.80782 0.71436 0.96975 0.0
H885 H 0.81204 0.73513 0.97219 0.0
H886 H 0.82755 0.73995 0.93 0.0
H887 H 0.79891 0.6881 0.92042 0.0
H888 H 0.86355 0.74733 0.91402 0.0
H889 H 0.85161 0.7571 0.91614 0.0
H890 H 0.85388 0.74969 0.89623 0.0
H891 H 0.80732 0.67465 0.90157 0.0
H892 H 0.82927 0.68363 0.90183 0.0
H893 H 0.81959 0.68717 0.88482 0.0
H894 H 0.92908 0.72682 0.94706 0.0
H895 H 0.95901 0.74927 0.9436 0.0
H896 H 0.94522 0.75105 0.93003 0.0
H897 H 0.95744 0.74316 0.9221 0.0
H898 H 0.90766 0.69653 0.90231 0.0
H899 H 0.91807 0.73927 0.93091 0.0
H900 H 0.88518 0.69596 0.87309 0.0
H901 H 0.86803 0.68879 0.88671 0.0
H902 H 0.88181 0.68108 0.88824 0.0
H903 H 0.90645 0.75515 0.92437 0.0
H904 H 0.8849 0.74058 0.92543 0.0
H905 H 0.89369 0.75011 0.90621 0.0
H906 H 0.93362 0.7206 0.79971 0.0
H907 H 0.90808 0.71384 0.79441 0.0
H908 H 0.93171 0.76561 0.80346 0.0
H909 H 0.87663 0.70159 0.8219 0.0
H910 H 0.88108 0.69557 0.80225 0.0
H911 H 0.86807 0.70425 0.8034 0.0
H912 H 0.91793 0.77797 0.81564 0.0
H913 H 0.90586 0.76577 0.83263 0.0
H914 H 0.89585 0.76643 0.81422 0.0
H915 H 0.80347 0.74762 0.78463 0.0
H916 H 0.78113 0.74644 0.80232 0.0
H917 H 0.79433 0.7421 0.81423 0.0
H918 H 0.77459 0.72556 0.80752 0.0
H919 H 0.8034 0.70106 0.79465 0.0
H920 H 0.82238 0.75226 0.80407 0.0
H921 H 0.82739 0.69577 0.82356 0.0
H922 H 0.83846 0.70023 0.80464 0.0
H923 H 0.81646 0.6874 0.80432 0.0
H924 H 0.84691 0.76895 0.81851 0.0
H925 H 0.86172 0.76252 0.81629 0.0
H926 H 0.85006 0.75815 0.83481 0.0
H927 H 0.86089 0.71409 0.91409 0.0
H928 H 0.90152 0.7283 0.87208 0.0
H929 H 0.90284 0.73347 0.84326 0.0
H930 H 0.86632 0.73459 0.80307 0.0
H931 H 0.82708 0.72387 0.84582 0.0
H932 H 0.82586 0.71888 0.87484 0.0
H933 H 0.96265 0.73287 0.80785 0.0
H934 H 0.95265 0.74196 0.81881 0.0
H935 H 0.96653 0.7529 0.80238 0.0
C936 C 0.87318 0.60645 0.38835 0.0
C937 C 0.88014 0.62146 0.4 0.0
C938 C 0.86438 0.61616 0.42506 0.0
C939 C 0.86389 0.63053 0.42745 0.0
C940 C 0.85178 0.63069 0.43719 0.0
C941 C 0.83937 0.61592 0.44403 0.0
C942 C 0.83959 0.60126 0.44125 0.0
C943 C 0.85245 0.60171 0.43225 0.0
C944 C 0.85226 0.64668 0.44002 0.0
C945 C 0.8262 0.58506 0.44755 0.0
C946 C 0.75872 0.61917 0.38293 0.0
C947 C 0.75065 0.621 0.39859 0.0
C948 C 0.77139 0.62786 0.42038 0.0
C949 C 0.76873 0.61197 0.42205 0.0
C950 C 0.77829 0.60893 0.43295 0.0
C951 C 0.79103 0.62206 0.44212 0.0
C952 C 0.79382 0.63808 0.44041 0.0
C953 C 0.7838 0.6407 0.42973 0.0
C954 C 0.77493 0.59168 0.43447 0.0
C955 C 0.80759 0.6525 0.4496 0.0
C956 C 0.76773 0.62968 0.54972 0.0
C957 C 0.76381 0.61331 0.5482 0.0
C958 C 0.77386 0.60917 0.53915 0.0
C959 C 0.78818 0.62166 0.5317 0.0
C960 C 0.79218 0.63816 0.53335 0.0
C961 C 0.78175 0.64189 0.54216 0.0
C962 C 0.76918 0.59145 0.53755 0.0
C963 C 0.80754 0.6519 0.52594 0.0
C964 C 0.88429 0.59084 0.55093 0.0
C965 C 0.88138 0.60523 0.55263 0.0
C966 C 0.85491 0.6032 0.55034 0.0
C967 C 0.8387 0.59077 0.54773 0.0
C968 C 0.8277 0.5937 0.53908 0.0
C969 C 0.83299 0.60962 0.53338 0.0
C970 C 0.84912 0.6225 0.53697 0.0
C971 C 0.85997 0.6191 0.54525 0.0
C972 C 0.81054 0.57972 0.53568 0.0
C973 C 0.85499 0.63978 0.53179 0.0
C974 C 0.8259 0.61587 0.45345 0.0
C975 C 0.81445 0.61785 0.44459 0.0
C976 C 0.80214 0.61919 0.45255 0.0
C977 C 0.80093 0.61823 0.46992 0.0
C978 C 0.78861 0.61939 0.47836 0.0
C979 C 0.78792 0.61906 0.4955 0.0
C980 C 0.79939 0.61737 0.50486 0.0
C981 C 0.79915 0.61762 0.52231 0.0
C982 C 0.81019 0.61504 0.53121 0.0
C983 C 0.82185 0.61263 0.52318 0.0
C984 C 0.82284 0.61323 0.50576 0.0
C985 C 0.83497 0.61177 0.49729 0.0
C986 C 0.8362 0.61295 0.48022 0.0
C987 C 0.8249 0.61489 0.47085 0.0
C988 C 0.81237 0.6161 0.47909 0.0
C989 C 0.81149 0.61549 0.49658 0.0
C990 C 0.74215 0.63463 0.58078 0.0
C991 C 0.74613 0.62477 0.56936 0.0
O992 O 0.87633 0.61599 0.41602 0.0
O993 O 0.86543 0.59949 0.55763 0.0
O994 O 0.75844 0.63426 0.55841 0.0
O995 O 0.76251 0.63146 0.40989 0.0
H996 H 0.87401 0.62833 0.39652 0.0
H997 H 0.85988 0.59839 0.39055 0.0
H998 H 0.87926 0.59929 0.39056 0.0
H999 H 0.87469 0.61019 0.37527 0.0
H1000 H 0.87304 0.64172 0.42185 0.0
H1001 H 0.85293 0.59066 0.43029 0.0
H1002 H 0.84275 0.64682 0.43222 0.0
H1003 H 0.86431 0.65737 0.43679 0.0
H1004 H 0.84963 0.64809 0.4531 0.0
H1005 H 0.82607 0.57457 0.44111 0.0
H1006 H 0.81402 0.58383 0.44598 0.0
H1007 H 0.82818 0.5843 0.4609 0.0
H1008 H 0.74313 0.60859 0.40377 0.0
H1009 H 0.76805 0.63131 0.37827 0.0
H1010 H 0.74937 0.61226 0.37316 0.0
H1011 H 0.76498 0.6123 0.38566 0.0
H1012 H 0.75935 0.6018 0.41489 0.0
H1013 H 0.78584 0.65292 0.42837 0.0
H1014 H 0.78505 0.59076 0.42873 0.0
H1015 H 0.76327 0.58253 0.42832 0.0
H1016 H 0.77441 0.58855 0.44766 0.0
H1017 H 0.80907 0.66433 0.44577 0.0
H1018 H 0.81929 0.65279 0.4475 0.0
H1019 H 0.80517 0.65122 0.46304 0.0
H1020 H 0.73545 0.61384 0.56348 0.0
H1021 H 0.75291 0.60373 0.55394 0.0
H1022 H 0.78467 0.65447 0.54343 0.0
H1023 H 0.76947 0.58811 0.52441 0.0
H1024 H 0.7568 0.58306 0.54251 0.0
H1025 H 0.77819 0.58962 0.5444 0.0
H1026 H 0.80993 0.66413 0.53013 0.0
H1027 H 0.80636 0.6511 0.5123 0.0
H1028 H 0.81827 0.65081 0.52924 0.0
H1029 H 0.88321 0.61036 0.54003 0.0
H1030 H 0.89722 0.59529 0.54762 0.0
H1031 H 0.87628 0.58229 0.541 0.0
H1032 H 0.8814 0.58394 0.56254 0.0
H1033 H 0.83486 0.57858 0.55193 0.0
H1034 H 0.87236 0.62887 0.54776 0.0
H1035 H 0.80792 0.57848 0.52222 0.0
H1036 H 0.80164 0.58232 0.54181 0.0
H1037 H 0.8086 0.5679 0.54018 0.0
H1038 H 0.86696 0.64873 0.53756 0.0
H1039 H 0.84587 0.64333 0.53516 0.0
H1040 H 0.85637 0.64053 0.5182 0.0
H1041 H 0.81536 0.6187 0.43126 0.0
H1042 H 0.77948 0.62074 0.47179 0.0
H1043 H 0.77827 0.62017 0.50135 0.0
H1044 H 0.80987 0.61513 0.54459 0.0
H1045 H 0.84386 0.60998 0.50378 0.0
H1046 H 0.8461 0.61223 0.47447 0.0
H1047 H 0.72905 0.63067 0.57775 0.0
H1048 H 0.74727 0.64706 0.57518 0.0
H1049 H 0.7497 0.63128 0.60445 0.0
C1050 C 0.40031 0.26147 0.38393 0.0
C1051 C 0.38688 0.25427 0.39693 0.0
C1052 C 0.39228 0.24897 0.42458 0.0
C1053 C 0.37694 0.23569 0.4286 0.0
C1054 C 0.37553 0.22431 0.44023 0.0
C1055 C 0.38983 0.22615 0.44775 0.0
C1056 C 0.4053 0.23987 0.44406 0.0
C1057 C 0.40626 0.25132 0.43274 0.0
C1058 C 0.35881 0.21007 0.4441 0.0
C1059 C 0.42086 0.2421 0.45151 0.0
C1060 C 0.39514 0.13868 0.39871 0.0
C1061 C 0.38974 0.12867 0.41448 0.0
C1062 C 0.38063 0.14435 0.43149 0.0
C1063 C 0.39625 0.15777 0.43526 0.0
C1064 C 0.39801 0.17139 0.4442 0.0
C1065 C 0.38391 0.17159 0.44946 0.0
C1066 C 0.3682 0.15808 0.44575 0.0
C1067 C 0.3668 0.1446 0.43687 0.0
C1068 C 0.41494 0.1856 0.44805 0.0
C1069 C 0.35293 0.1579 0.45118 0.0
C1070 C 0.38659 0.14935 0.55395 0.0
C1071 C 0.40159 0.1612 0.54726 0.0
C1072 C 0.40316 0.17509 0.53972 0.0
C1073 C 0.38939 0.17703 0.53857 0.0
C1074 C 0.37446 0.16544 0.54583 0.0
C1075 C 0.37333 0.15182 0.55357 0.0
C1076 C 0.41941 0.18746 0.53253 0.0
C1077 C 0.35956 0.16716 0.5449 0.0
C1078 C 0.41387 0.30377 0.54885 0.0
C1079 C 0.40276 0.28689 0.5561 0.0
C1080 C 0.40688 0.26371 0.55154 0.0
C1081 C 0.41911 0.26044 0.54699 0.0
C1082 C 0.4152 0.24537 0.53967 0.0
C1083 C 0.39859 0.23319 0.5371 0.0
C1084 C 0.38612 0.23607 0.54255 0.0
C1085 C 0.39038 0.25132 0.54976 0.0
C1086 C 0.42882 0.2426 0.53428 0.0
C1087 C 0.3683 0.22316 0.5404 0.0
C1088 C 0.38871 0.21294 0.45819 0.0
C1089 C 0.38678 0.19892 0.45011 0.0
C1090 C 0.38562 0.18591 0.45892 0.0
C1091 C 0.38636 0.18677 0.47633 0.0
C1092 C 0.38499 0.17378 0.48556 0.0
C1093 C 0.38596 0.17482 0.50268 0.0
C1094 C 0.38863 0.18901 0.51124 0.0
C1095 C 0.39025 0.1904 0.52863 0.0
C1096 C 0.39315 0.20477 0.53674 0.0
C1097 C 0.39438 0.21785 0.52792 0.0
C1098 C 0.39248 0.21656 0.51055 0.0
C1099 C 0.39331 0.22934 0.50131 0.0
C1100 C 0.39175 0.22807 0.48419 0.0
C1101 C 0.38968 0.21413 0.47562 0.0
C1102 C 0.38857 0.20101 0.4847 0.0
C1103 C 0.38982 0.20217 0.50218 0.0
C1104 C 0.39249 0.12167 0.54108 0.0
C1105 C 0.394 0.12841 0.55874 0.0
O1106 O 0.39394 0.25935 0.41248 0.0
O1107 O 0.41149 0.27893 0.55753 0.0
O1108 O 0.38427 0.13531 0.56066 0.0
O1109 O 0.37823 0.13096 0.42269 0.0
H1110 H 0.38089 0.24071 0.39546 0.0
H1111 H 0.40883 0.25687 0.38572 0.0
H1112 H 0.40745 0.27505 0.38493 0.0
H1113 H 0.39487 0.25773 0.37134 0.0
H1114 H 0.36609 0.23414 0.42249 0.0
H1115 H 0.41803 0.26172 0.42959 0.0
H1116 H 0.35738 0.19875 0.43827 0.0
H1117 H 0.34886 0.21186 0.43944 0.0
H1118 H 0.35742 0.20823 0.45762 0.0
H1119 H 0.43196 0.2526 0.44621 0.0
H1120 H 0.42147 0.23083 0.4495 0.0
H1121 H 0.42098 0.24424 0.46502 0.0
H1122 H 0.40052 0.13243 0.42267 0.0
H1123 H 0.40425 0.13675 0.39203 0.0
H1124 H 0.40092 0.15194 0.4017 0.0
H1125 H 0.38445 0.13504 0.39044 0.0
H1126 H 0.4071 0.15776 0.4313 0.0
H1127 H 0.35481 0.13418 0.43394 0.0
H1128 H 0.41645 0.19688 0.44253 0.0
H1129 H 0.4247 0.1835 0.4433 0.0
H1130 H 0.41655 0.18777 0.4616 0.0
H1131 H 0.3416 0.14659 0.44702 0.0
H1132 H 0.35285 0.16865 0.4462 0.0
H1133 H 0.35284 0.15887 0.46484 0.0
H1134 H 0.40698 0.13779 0.56145 0.0
H1135 H 0.4121 0.15969 0.54768 0.0
H1136 H 0.36186 0.14272 0.55891 0.0
H1137 H 0.41852 0.18658 0.51886 0.0
H1138 H 0.42944 0.18547 0.53644 0.0
H1139 H 0.42262 0.20006 0.53629 0.0
H1140 H 0.34883 0.15705 0.55111 0.0
H1141 H 0.35631 0.16733 0.53179 0.0
H1142 H 0.36233 0.17897 0.55076 0.0
H1143 H 0.39239 0.28028 0.54719 0.0
H1144 H 0.40719 0.31049 0.54779 0.0
H1145 H 0.41782 0.30236 0.53633 0.0
H1146 H 0.42497 0.31113 0.55666 0.0
H1147 H 0.4318 0.26998 0.54872 0.0
H1148 H 0.38083 0.2535 0.55396 0.0
H1149 H 0.42803 0.24032 0.52073 0.0
H1150 H 0.42746 0.23157 0.54025 0.0
H1151 H 0.44111 0.25321 0.5374 0.0
H1152 H 0.36007 0.22689 0.54621 0.0
H1153 H 0.36593 0.21154 0.54589 0.0
H1154 H 0.36526 0.22071 0.52705 0.0
H1155 H 0.38623 0.19814 0.43673 0.0
H1156 H 0.38315 0.16264 0.47966 0.0
H1157 H 0.38476 0.16438 0.50909 0.0
H1158 H 0.3947 0.20588 0.55004 0.0
H1159 H 0.39515 0.24048 0.50721 0.0
H1160 H 0.3924 0.23824 0.47774 0.0
H1161 H 0.40004 0.11587 0.53964 0.0
H1162 H 0.39687 0.13168 0.5321 0.0
H1163 H 0.37953 0.11244 0.53807 0.0
C1164 C 0.87183 0.2663 0.39226 0.0
C1165 C 0.88077 0.26289 0.40596 0.0
C1166 C 0.86082 0.23645 0.41796 0.0
C1167 C 0.85064 0.24147 0.4253 0.0
C1168 C 0.83739 0.23073 0.43508 0.0
C1169 C 0.83452 0.21483 0.4379 0.0
C1170 C 0.84496 0.20989 0.43079 0.0
C1171 C 0.85784 0.22072 0.42074 0.0
C1172 C 0.82628 0.23629 0.44215 0.0
C1173 C 0.8424 0.1931 0.43362 0.0
C1174 C 0.73951 0.13414 0.37517 0.0
C1175 C 0.74341 0.12769 0.39057 0.0
C1176 C 0.75318 0.1453 0.41529 0.0
C1177 C 0.76537 0.14218 0.42051 0.0
C1178 C 0.7779 0.15314 0.4313 0.0
C1179 C 0.77824 0.16751 0.43692 0.0
C1180 C 0.76561 0.17035 0.43213 0.0
C1181 C 0.75309 0.15905 0.42154 0.0
C1182 C 0.79091 0.14949 0.43653 0.0
C1183 C 0.76554 0.1855 0.43793 0.0
C1184 C 0.74584 0.14757 0.53964 0.0
C1185 C 0.75761 0.14339 0.53547 0.0
C1186 C 0.77272 0.15502 0.52895 0.0
C1187 C 0.776 0.17108 0.52628 0.0
C1188 C 0.76454 0.17557 0.53134 0.0
C1189 C 0.74965 0.16375 0.53817 0.0
C1190 C 0.78496 0.15 0.52437 0.0
C1191 C 0.76775 0.19265 0.52889 0.0
C1192 C 0.89044 0.2777 0.53718 0.0
C1193 C 0.88121 0.27088 0.5533 0.0
C1194 C 0.86041 0.24266 0.545 0.0
C1195 C 0.85695 0.2265 0.54444 0.0
C1196 C 0.84338 0.21424 0.53561 0.0
C1197 C 0.8328 0.21823 0.5274 0.0
C1198 C 0.83587 0.23444 0.52837 0.0
C1199 C 0.84976 0.24654 0.53694 0.0
C1200 C 0.84049 0.19709 0.53485 0.0
C1201 C 0.82457 0.23906 0.52022 0.0
C1202 C 0.82015 0.20308 0.4476 0.0
C1203 C 0.8063 0.19128 0.43891 0.0
C1204 C 0.79222 0.1799 0.44711 0.0
C1205 C 0.79174 0.18045 0.46452 0.0
C1206 C 0.77766 0.16944 0.47316 0.0
C1207 C 0.77724 0.17022 0.49028 0.0
C1208 C 0.79099 0.18186 0.49947 0.0
C1209 C 0.7907 0.18267 0.5169 0.0
C1210 C 0.8045 0.19453 0.52563 0.0
C1211 C 0.81876 0.20559 0.51742 0.0
C1212 C 0.81937 0.20478 0.5 0.0
C1213 C 0.83364 0.21546 0.49135 0.0
C1214 C 0.83396 0.21487 0.4742 0.0
C1215 C 0.82007 0.20355 0.46504 0.0
C1216 C 0.80573 0.19233 0.47351 0.0
C1217 C 0.80537 0.19298 0.49101 0.0
C1218 C 0.70409 0.11498 0.53636 0.0
C1219 C 0.72198 0.12005 0.53932 0.0
O1220 O 0.87331 0.24611 0.40778 0.0
O1221 O 0.87412 0.254 0.55333 0.0
O1222 O 0.73064 0.13625 0.54474 0.0
O1223 O 0.74128 0.13524 0.40439 0.0
H1224 H 0.88009 0.26886 0.41762 0.0
H1225 H 0.85852 0.26002 0.39474 0.0
H1226 H 0.8735 0.26174 0.38012 0.0
H1227 H 0.87639 0.27962 0.39171 0.0
H1228 H 0.85269 0.25356 0.42317 0.0
H1229 H 0.86574 0.21695 0.41501 0.0
H1230 H 0.81333 0.22723 0.43897 0.0
H1231 H 0.82926 0.24844 0.43757 0.0
H1232 H 0.82741 0.23711 0.4558 0.0
H1233 H 0.85294 0.19204 0.42934 0.0
H1234 H 0.83129 0.18384 0.42679 0.0
H1235 H 0.84044 0.19018 0.44692 0.0
H1236 H 0.75637 0.13083 0.38953 0.0
H1237 H 0.7413 0.12845 0.36387 0.0
H1238 H 0.74781 0.14761 0.37462 0.0
H1239 H 0.72667 0.13143 0.37541 0.0
H1240 H 0.76507 0.13116 0.41621 0.0
H1241 H 0.74345 0.16117 0.41764 0.0
H1242 H 0.79227 0.15044 0.45017 0.0
H1243 H 0.80283 0.15869 0.43128 0.0
H1244 H 0.78809 0.13711 0.43236 0.0
H1245 H 0.75505 0.1861 0.43278 0.0
H1246 H 0.77709 0.19659 0.43428 0.0
H1247 H 0.76494 0.18574 0.4516 0.0
H1248 H 0.72664 0.11873 0.5271 0.0
H1249 H 0.75497 0.13102 0.53714 0.0
H1250 H 0.74059 0.16691 0.5417 0.0
H1251 H 0.78551 0.14918 0.51074 0.0
H1252 H 0.78166 0.13794 0.52947 0.0
H1253 H 0.79736 0.15933 0.52892 0.0
H1254 H 0.75753 0.19416 0.53337 0.0
H1255 H 0.76962 0.19558 0.51559 0.0
H1256 H 0.77913 0.20163 0.53555 0.0
H1257 H 0.87159 0.27417 0.55458 0.0
H1258 H 0.89625 0.29123 0.53719 0.0
H1259 H 0.88188 0.27259 0.52649 0.0
H1260 H 0.90006 0.27445 0.53559 0.0
H1261 H 0.86516 0.22358 0.55073 0.0
H1262 H 0.85209 0.25891 0.53719 0.0
H1263 H 0.83933 0.19283 0.5218 0.0
H1264 H 0.82882 0.18866 0.54106 0.0
H1265 H 0.8505 0.19624 0.54089 0.0
H1266 H 0.82721 0.25143 0.5242 0.0
H1267 H 0.81162 0.23002 0.52307 0.0
H1268 H 0.82597 0.23896 0.50664 0.0
H1269 H 0.80649 0.19093 0.42553 0.0
H1270 H 0.76674 0.16017 0.46677 0.0
H1271 H 0.76596 0.16154 0.49621 0.0
H1272 H 0.80411 0.19517 0.53899 0.0
H1273 H 0.8447 0.22444 0.49774 0.0
H1274 H 0.84525 0.22344 0.46821 0.0
H1275 H 0.69686 0.10189 0.53238 0.0
H1276 H 0.70334 0.12248 0.52646 0.0
H1277 H 0.6986 0.11685 0.54767 0.0
C1278 C 0.03566 0.44973 0.24683 0.0
C1279 C 0.02538 0.45058 0.26099 0.0
C1280 C 0.00611 0.45706 0.24784 0.0
C1281 C 0.9897 0.45092 0.24368 0.0
C1282 C 0.98468 0.46069 0.23585 0.0
C1283 C 0.99643 0.47702 0.23206 0.0
C1284 C 0.01304 0.48339 0.23629 0.0
C1285 C 0.01773 0.47337 0.24412 0.0
C1286 C 0.96686 0.45351 0.23142 0.0
C1287 C 0.02589 0.50075 0.23233 0.0
C1288 C 0.96951 0.54173 0.29809 0.0
C1289 C 0.97931 0.55284 0.28395 0.0
C1290 C 0.97386 0.53753 0.25796 0.0
C1291 C 0.98979 0.54285 0.25255 0.0
C1292 C 0.99282 0.53336 0.24125 0.0
C1293 C 0.97963 0.51825 0.23529 0.0
C1294 C 0.96348 0.51317 0.24028 0.0
C1295 C 0.96079 0.52303 0.25141 0.0
C1296 C 0.01014 0.53935 0.23586 0.0
C1297 C 0.94915 0.49716 0.23412 0.0
C1298 C 0.96465 0.53789 0.13273 0.0
C1299 C 0.98109 0.54489 0.13759 0.0
C1300 C 0.98693 0.5352 0.14399 0.0
C1301 C 0.97603 0.5182 0.14574 0.0
C1302 C 0.9597 0.51099 0.13995 0.0
C1303 C 0.95428 0.52095 0.13331 0.0
C1304 C 0.00461 0.54319 0.14935 0.0
C1305 C 0.94785 0.49286 0.14131 0.0
C1306 C 0.02326 0.43438 0.13727 0.0
C1307 C 0.01154 0.43647 0.1261 0.0
C1308 C 0.01036 0.46167 0.13003 0.0
C1309 C 0.02067 0.4783 0.13373 0.0
C1310 C 0.0145 0.48775 0.14039 0.0
C1311 C 0.99752 0.48035 0.14325 0.0
C1312 C 0.98685 0.46383 0.13839 0.0
C1313 C 0.99338 0.45463 0.13173 0.0
C1314 C 0.0262 0.50543 0.14514 0.0
C1315 C 0.96864 0.45574 0.14089 0.0
C1316 C 0.99146 0.48728 0.22309 0.0
C1317 C 0.98735 0.49721 0.2323 0.0
C1318 C 0.9829 0.50741 0.22458 0.0
C1319 C 0.9822 0.50753 0.20717 0.0
C1320 C 0.97742 0.51734 0.19898 0.0
C1321 C 0.97685 0.51738 0.18183 0.0
C1322 C 0.98144 0.50792 0.17217 0.0
C1323 C 0.98134 0.5082 0.15471 0.0
C1324 C 0.98638 0.49895 0.14554 0.0
C1325 C 0.99136 0.48921 0.15337 0.0
C1326 C 0.99114 0.48847 0.17078 0.0
C1327 C 0.9958 0.47855 0.17899 0.0
C1328 C 0.99576 0.47802 0.19609 0.0
C1329 C 0.99124 0.48752 0.20568 0.0
C1330 C 0.98652 0.49762 0.19769 0.0
C1331 C 0.98632 0.49797 0.1802 0.0
C1332 C 0.94639 0.56113 0.14069 0.0
C1333 C 0.96215 0.56211 0.13471 0.0
O1334 O 0.0101 0.44681 0.25522 0.0
O1335 O 0.01739 0.45309 0.12471 0.0
O1336 O 0.95841 0.54716 0.12768 0.0
O1337 O 0.97071 0.54624 0.26928 0.0
H1338 H 0.03192 0.46319 0.26643 0.0
H1339 H 0.03797 0.45903 0.2375 0.0
H1340 H 0.02927 0.4375 0.24059 0.0
H1341 H 0.04768 0.4522 0.2516 0.0
H1342 H 0.98081 0.43836 0.24654 0.0
H1343 H 0.03052 0.47841 0.24709 0.0
H1344 H 0.96229 0.4612 0.23694 0.0
H1345 H 0.95914 0.44078 0.23573 0.0
H1346 H 0.96549 0.45352 0.21783 0.0
H1347 H 0.03833 0.50391 0.23642 0.0
H1348 H 0.02281 0.50938 0.23841 0.0
H1349 H 0.02606 0.50253 0.21883 0.0
H1350 H 0.99132 0.55346 0.28367 0.0
H1351 H 0.97621 0.54668 0.30998 0.0
H1352 H 0.96765 0.52932 0.29591 0.0
H1353 H 0.95733 0.54067 0.299 0.0
H1354 H -0.00016 0.55445 0.25709 0.0
H1355 H 0.94851 0.51921 0.25546 0.0
H1356 H 0.01423 0.53118 0.24073 0.0
H1357 H 0.01878 0.55205 0.24032 0.0
H1358 H 0.01069 0.5389 0.22219 0.0
H1359 H 0.93736 0.49487 0.23933 0.0
H1360 H 0.95098 0.48692 0.23743 0.0
H1361 H 0.94837 0.49717 0.22047 0.0
H1362 H 0.96985 0.56484 0.14602 0.0
H1363 H 0.98933 0.55794 0.1365 0.0
H1364 H 0.94169 0.51564 0.12922 0.0
H1365 H 0.00533 0.54331 0.16302 0.0
H1366 H 0.01198 0.55599 0.14512 0.0
H1367 H 0.01009 0.53608 0.14448 0.0
H1368 H 0.93551 0.48917 0.13637 0.0
H1369 H 0.94669 0.48933 0.15443 0.0
H1370 H 0.9526 0.48596 0.13444 0.0
H1371 H -0.00068 0.43002 0.13196 0.0
H1372 H 0.01878 0.4212 0.13908 0.0
H1373 H 0.02412 0.44017 0.14955 0.0
H1374 H 0.03569 0.44026 0.13184 0.0
H1375 H 0.03372 0.48371 0.13195 0.0
H1376 H 0.98516 0.44202 0.12798 0.0
H1377 H 0.02655 0.50693 0.15878 0.0
H1378 H 0.0219 0.51332 0.13995 0.0
H1379 H 0.03882 0.50975 0.14077 0.0
H1380 H 0.96183 0.44332 0.13506 0.0
H1381 H 0.96406 0.46338 0.13567 0.0
H1382 H 0.96603 0.45468 0.1543 0.0
H1383 H 0.98783 0.49715 0.24566 0.0
H1384 H 0.97397 0.52503 0.20576 0.0
H1385 H 0.97292 0.52507 0.17625 0.0
H1386 H 0.98656 0.49943 0.13218 0.0
H1387 H -0.00049 0.47102 0.17232 0.0
H1388 H -0.00055 0.47014 0.20168 0.0
H1389 H 0.94898 0.57327 0.14545 0.0
H1390 H 0.94112 0.55228 0.15086 0.0
H1391 H 0.93709 0.55686 0.13065 0.0
C1392 C 0.45168 0.37869 0.27003 0.0
C1393 C 0.45152 0.39459 0.27305 0.0
C1394 C 0.46382 0.414 0.25061 0.0
C1395 C 0.46043 0.4236 0.24045 0.0
C1396 C 0.47302 0.43722 0.23255 0.0
C1397 C 0.48937 0.44093 0.2344 0.0
C1398 C 0.49287 0.43106 0.24444 0.0
C1399 C 0.48007 0.41775 0.25254 0.0
C1400 C 0.46881 0.44764 0.22224 0.0
C1401 C 0.51014 0.43452 0.24649 0.0
C1402 C 0.57969 0.56655 0.27802 0.0
C1403 C 0.57365 0.54935 0.27273 0.0
C1404 C 0.5503 0.52759 0.25714 0.0
C1405 C 0.55707 0.5176 0.25456 0.0
C1406 C 0.54879 0.50318 0.24485 0.0
C1407 C 0.5336 0.49883 0.23742 0.0
C1408 C 0.52681 0.50891 0.23999 0.0
C1409 C 0.53522 0.5231 0.24992 0.0
C1410 C 0.55623 0.49256 0.24256 0.0
C1411 C 0.51065 0.50468 0.23225 0.0
C1412 C 0.57567 0.52201 0.13421 0.0
C1413 C 0.57919 0.51191 0.14363 0.0
C1414 C 0.56666 0.49829 0.15165 0.0
C1415 C 0.55035 0.49487 0.15045 0.0
C1416 C 0.54678 0.50499 0.14092 0.0
C1417 C 0.5595 0.51834 0.13283 0.0
C1418 C 0.57085 0.48757 0.16146 0.0
C1419 C 0.52956 0.50176 0.13939 0.0
C1420 C 0.44661 0.36832 0.1333 0.0
C1421 C 0.45337 0.38535 0.12616 0.0
C1422 C 0.48126 0.40797 0.1314 0.0
C1423 C 0.49649 0.41077 0.13662 0.0
C1424 C 0.50781 0.42554 0.14458 0.0
C1425 C 0.5038 0.43784 0.14713 0.0
C1426 C 0.48885 0.4355 0.14086 0.0
C1427 C 0.47774 0.42059 0.13299 0.0
C1428 C 0.52376 0.42777 0.15087 0.0
C1429 C 0.4844 0.44856 0.14296 0.0
C1430 C 0.50278 0.45504 0.22574 0.0
C1431 C 0.51218 0.46966 0.23471 0.0
C1432 C 0.52461 0.48361 0.2272 0.0
C1433 C 0.52785 0.48303 0.21024 0.0
C1434 C 0.54012 0.49688 0.20223 0.0
C1435 C 0.54318 0.49617 0.18553 0.0
C1436 C 0.53403 0.48161 0.17617 0.0
C1437 C 0.53703 0.48074 0.15918 0.0
C1438 C 0.52717 0.46629 0.15008 0.0
C1439 C 0.5145 0.45251 0.15756 0.0
C1440 C 0.51178 0.45293 0.17467 0.0
C1441 C 0.49955 0.43906 0.18269 0.0
C1442 C 0.49676 0.43965 0.19945 0.0
C1443 C 0.5059 0.45419 0.20881 0.0
C1444 C 0.51844 0.46826 0.20103 0.0
C1445 C 0.52146 0.46759 0.18396 0.0
C1446 C 0.61016 0.55232 0.14402 0.0
C1447 C 0.60421 0.5428 0.12757 0.0
O1448 O 0.45109 0.4011 0.25806 0.0
O1449 O 0.47025 0.39293 0.12509 0.0
O1450 O 0.58733 0.53537 0.12626 0.0
O1451 O 0.55782 0.5416 0.26644 0.0
H1452 H 0.46286 0.40316 0.28011 0.0
H1453 H 0.46302 0.38134 0.26351 0.0
H1454 H 0.44109 0.36994 0.26221 0.0
H1455 H 0.45142 0.37298 0.28194 0.0
H1456 H 0.44784 0.42055 0.23898 0.0
H1457 H 0.48278 0.41016 0.2601 0.0
H1458 H 0.47692 0.46079 0.2256 0.0
H1459 H 0.45588 0.44437 0.22376 0.0
H1460 H 0.47081 0.44602 0.20902 0.0
H1461 H 0.51068 0.42495 0.25364 0.0
H1462 H 0.51768 0.4465 0.25299 0.0
H1463 H 0.51567 0.43535 0.23421 0.0
H1464 H 0.57583 0.54184 0.28161 0.0
H1465 H 0.5818 0.56682 0.29173 0.0
H1466 H 0.56861 0.56789 0.27937 0.0
H1467 H 0.59895 0.5807 0.26122 0.0
H1468 H 0.5687 0.52091 0.26018 0.0
H1469 H 0.53011 0.53089 0.252 0.0
H1470 H 0.54735 0.47986 0.24626 0.0
H1471 H 0.56769 0.49716 0.24986 0.0
H1472 H 0.55899 0.49207 0.22933 0.0
H1473 H 0.5076 0.51438 0.2345 0.0
H1474 H 0.50075 0.49307 0.23738 0.0
H1475 H 0.51094 0.50272 0.21874 0.0
H1476 H 0.60783 0.53338 0.12675 0.0
H1477 H 0.59163 0.51449 0.14479 0.0
H1478 H 0.55689 0.52617 0.12549 0.0
H1479 H 0.56878 0.48876 0.17475 0.0
H1480 H 0.58378 0.49087 0.15985 0.0
H1481 H 0.56274 0.47453 0.1577 0.0
H1482 H 0.52905 0.5116 0.13273 0.0
H1483 H 0.5242 0.50064 0.15181 0.0
H1484 H 0.52185 0.48999 0.1326 0.0
H1485 H 0.44979 0.39207 0.13499 0.0
H1486 H 0.43305 0.3619 0.13399 0.0
H1487 H 0.45158 0.36948 0.14596 0.0
H1488 H 0.45016 0.36082 0.12565 0.0
H1489 H 0.49923 0.40107 0.13501 0.0
H1490 H 0.46629 0.4188 0.12825 0.0
H1491 H 0.52423 0.429 0.16453 0.0
H1492 H 0.53415 0.43921 0.146 0.0
H1493 H 0.52537 0.41734 0.14727 0.0
H1494 H 0.473 0.44545 0.13617 0.0
H1495 H 0.49451 0.46043 0.13855 0.0
H1496 H 0.48266 0.4502 0.15625 0.0
H1497 H 0.50964 0.47026 0.24767 0.0
H1498 H 0.5475 0.50843 0.20879 0.0
H1499 H 0.55277 0.50721 0.18003 0.0
H1500 H 0.5293 0.46579 0.13699 0.0
H1501 H 0.492 0.42756 0.17612 0.0
H1502 H 0.48723 0.42856 0.20495 0.0
H1503 H 0.60669 0.56184 0.14491 0.0
H1504 H 0.62367 0.55831 0.14517 0.0
H1505 H 0.60465 0.54396 0.15451 0.0
C1506 C 0.45609 0.99934 0.29457 0.0
C1507 C 0.44396 0.99858 0.28164 0.0
C1508 C 0.45492 0.99291 0.25658 0.0
C1509 C 0.46716 0.00916 0.25354 0.0
C1510 C 0.47957 0.01267 0.24214 0.0
C1511 C 0.47997 -0.00031 0.23379 0.0
C1512 C 0.46741 0.98334 0.23637 0.0
C1513 C 0.4549 0.9802 0.24759 0.0
C1514 C 0.49259 0.03028 0.23944 0.0
C1515 C 0.46754 0.96921 0.22773 0.0
C1516 C 0.57629 0.03362 0.2974 0.0
C1517 C 0.57398 0.02193 0.28303 0.0
C1518 C 0.56373 0.02489 0.25664 0.0
C1519 C 0.55323 0.00832 0.25239 0.0
C1520 C 0.54029 0.00357 0.24114 0.0
C1521 C 0.53783 0.01565 0.23407 0.0
C1522 C 0.54885 0.03241 0.23784 0.0
C1523 C 0.56185 0.03681 0.24889 0.0
C1524 C 0.52905 0.98564 0.23706 0.0
C1525 C 0.54659 0.04568 0.23068 0.0
C1526 C 0.57235 0.03292 0.13429 0.0
C1527 C 0.56044 0.01625 0.13515 0.0
C1528 C 0.54459 0.01128 0.14062 0.0
C1529 C 0.54066 0.02325 0.14539 0.0
C1530 C 0.55228 0.04003 0.14333 0.0
C1531 C 0.56797 0.04464 0.1376 0.0
C1532 C 0.53233 0.99327 0.14214 0.0
C1533 C 0.5484 0.05311 0.14804 0.0
C1534 C 0.43092 0.02045 0.14036 0.0
C1535 C 0.43656 0.01879 0.12307 0.0
C1536 C 0.45583 0.00953 0.12987 0.0
C1537 C 0.45756 0.9958 0.13044 0.0
C1538 C 0.47121 0.9966 0.13807 0.0
C1539 C 0.48346 0.01156 0.14527 0.0
C1540 C 0.48209 0.02566 0.14426 0.0
C1541 C 0.46833 0.02453 0.13653 0.0
C1542 C 0.47235 0.98137 0.13881 0.0
C1543 C 0.49503 0.04186 0.15167 0.0
C1544 C 0.49441 0.00324 0.2237 0.0
C1545 C 0.50845 0.00609 0.23215 0.0
C1546 C 0.52302 0.01078 0.22387 0.0
C1547 C 0.52354 0.0121 0.20654 0.0
C1548 C 0.53786 0.01627 0.19779 0.0
C1549 C 0.53847 0.0182 0.18081 0.0
C1550 C 0.52476 0.01603 0.17191 0.0
C1551 C 0.52542 0.01837 0.15469 0.0
C1552 C 0.51172 0.01653 0.14628 0.0
C1553 C 0.49725 0.01233 0.15465 0.0
C1554 C 0.49627 0.00962 0.17183 0.0
C1555 C 0.48187 0.00524 0.18063 0.0
C1556 C 0.48116 0.00297 0.19759 0.0
C1557 C 0.49483 0.00506 0.20642 0.0
C1558 C 0.50944 0.00943 0.1978 0.0
C1559 C 0.51012 0.01158 0.18048 0.0
C1560 C 0.61216 0.04337 0.14543 0.0
C1561 C 0.59672 0.03072 0.13603 0.0
O1562 O 0.44317 0.98895 0.26818 0.0
O1563 O 0.44187 0.00763 0.123 0.0
O1564 O 0.58821 0.03808 0.13072 0.0
O1565 O 0.57562 0.02976 0.2683 0.0
H1566 H 0.44804 0.01119 0.27764 0.0
H1567 H 0.46859 0.0052 0.28938 0.0
H1568 H 0.45256 0.98685 0.29853 0.0
H1569 H 0.45643 0.00673 0.30553 0.0
H1570 H 0.46731 0.01926 0.26003 0.0
H1571 H 0.44537 0.96771 0.24987 0.0
H1572 H 0.50421 0.0328 0.2453 0.0
H1573 H 0.4892 0.03898 0.24481 0.0
H1574 H 0.49485 0.03261 0.22606 0.0
H1575 H 0.45684 0.95721 0.23102 0.0
H1576 H 0.47891 0.96929 0.23104 0.0
H1577 H 0.46753 0.97058 0.21417 0.0
H1578 H 0.56139 0.01118 0.28425 0.0
H1579 H 0.57523 0.02765 0.30936 0.0
H1580 H 0.56667 0.03695 0.29683 0.0
H1581 H 0.58843 0.04504 0.29686 0.0
H1582 H 0.55509 0.99911 0.25793 0.0
H1583 H 0.57021 0.04957 0.2521 0.0
H1584 H 0.51691 0.98145 0.24265 0.0
H1585 H 0.53386 0.978 0.24178 0.0
H1586 H 0.52722 0.98367 0.22351 0.0
H1587 H 0.55537 0.05797 0.236 0.0
H1588 H 0.53396 0.04306 0.23291 0.0
H1589 H 0.54836 0.04598 0.21714 0.0
H1590 H 0.58944 0.02109 0.14517 0.0
H1591 H 0.56359 0.00711 0.13188 0.0
H1592 H 0.57717 0.05748 0.13655 0.0
H1593 H 0.53061 0.99008 0.15537 0.0
H1594 H 0.53638 0.98554 0.13569 0.0
H1595 H 0.52029 0.99034 0.13701 0.0
H1596 H 0.55857 0.06558 0.14517 0.0
H1597 H 0.54589 0.05262 0.16146 0.0
H1598 H 0.53721 0.05084 0.1414 0.0
H1599 H 0.44669 0.03091 0.11914 0.0
H1600 H 0.42628 0.02907 0.14025 0.0
H1601 H 0.44121 0.02531 0.14936 0.0
H1602 H 0.42104 0.00838 0.14466 0.0
H1603 H 0.44796 0.98431 0.12516 0.0
H1604 H 0.46739 0.03538 0.13597 0.0
H1605 H 0.47213 0.978 0.15188 0.0
H1606 H 0.48415 0.98378 0.13353 0.0
H1607 H 0.46217 0.97084 0.13201 0.0
H1608 H 0.49248 0.05183 0.14939 0.0
H1609 H 0.50716 0.04534 0.14644 0.0
H1610 H 0.4958 0.04071 0.16519 0.0
H1611 H 0.50819 0.00522 0.24549 0.0
H1612 H 0.54879 0.01817 0.204 0.0
H1613 H 0.54991 0.02159 0.17481 0.0
H1614 H 0.51241 0.01861 0.13312 0.0
H1615 H 0.47099 0.00355 0.17452 0.0
H1616 H 0.46979 -0.00033 0.20373 0.0
H1617 H 0.61965 0.03796 0.14893 0.0
H1618 H 0.60863 0.04735 0.1569 0.0
H1619 H 0.61967 0.05438 0.13796 0.0
C1620 C 0.57514 0.97641 0.76545 0.0
C1621 C 0.57092 0.98289 0.75023 0.0
C1622 C 0.5578 0.9973 0.76227 0.0
C1623 C 0.56044 0.01269 0.7669 0.0
C1624 C 0.54854 0.01436 0.77549 0.0
C1625 C 0.53352 0.00021 0.77931 0.0
C1626 C 0.53053 0.98459 0.77427 0.0
C1627 C 0.54275 0.98326 0.76593 0.0
C1628 C 0.55211 0.0312 0.78071 0.0
C1629 C 0.5145 0.96927 0.77794 0.0
C1630 C 0.42794 0.00991 0.73958 0.0
C1631 C 0.43642 0.00301 0.74877 0.0
C1632 C 0.46356 0.01153 0.75998 0.0
C1633 C 0.45905 0.99651 0.76723 0.0
C1634 C 0.47029 0.99468 0.77674 0.0
C1635 C 0.48621 0.00829 0.77954 0.0
C1636 C 0.49071 0.02349 0.77246 0.0
C1637 C 0.47935 0.02484 0.7626 0.0
C1638 C 0.46516 0.9781 0.78362 0.0
C1639 C 0.50751 0.0383 0.77523 0.0
C1640 C 0.45688 0.00318 0.88534 0.0
C1641 C 0.45256 0.98843 0.87689 0.0
C1642 C 0.46438 0.98648 0.86848 0.0
C1643 C 0.48078 -0.0004 0.8683 0.0
C1644 C 0.48521 0.01436 0.87696 0.0
C1645 C 0.47318 0.0159 0.88545 0.0
C1646 C 0.45932 0.97049 0.85954 0.0
C1647 C 0.50258 0.02861 0.87698 0.0
C1648 C 0.57208 0.9658 0.86797 0.0
C1649 C 0.56983 0.97493 0.88256 0.0
C1650 C 0.54387 0.97418 0.88017 0.0
C1651 C 0.52817 0.96311 0.87422 0.0
C1652 C 0.51831 0.96861 0.86744 0.0
C1653 C 0.52427 0.98561 0.8669 0.0
C1654 C 0.53975 0.99684 0.87387 0.0
C1655 C 0.5494 0.991 0.88051 0.0
C1656 C 0.50173 0.95629 0.86037 0.0
C1657 C 0.54624 0.01501 0.8739 0.0
C1658 C 0.52118 0.00173 0.78913 0.0
C1659 C 0.51021 0.00482 0.78083 0.0
C1660 C 0.49829 0.0064 0.78937 0.0
C1661 C 0.49744 0.00516 0.80674 0.0
C1662 C 0.48612 0.00743 0.81583 0.0
C1663 C 0.48489 0.00544 0.83283 0.0
C1664 C 0.49483 0.00094 0.84136 0.0
C1665 C 0.49317 0.99813 0.85851 0.0
C1666 C 0.50308 0.99344 0.86657 0.0
C1667 C 0.51481 0.99162 0.85795 0.0
C1668 C 0.51689 0.99471 0.84087 0.0
C1669 C 0.52883 0.99334 0.8319 0.0
C1670 C 0.5305 0.99599 0.81503 0.0
C1671 C 0.52006 -0.00026 0.8064 0.0
C1672 C 0.50812 0.00143 0.81522 0.0
C1673 C 0.50668 0.99912 0.83251 0.0
C1674 C 0.42145 0.99711 0.87757 0.0
C1675 C 0.429 0.99577 0.89371 0.0
O1676 O 0.57013 0.99666 0.75444 0.0
O1677 O 0.55328 0.96822 0.8856 0.0
O1678 O 0.44587 0.00581 0.89343 0.0
O1679 O 0.45316 0.01366 0.75031 0.0
H1680 H 0.55899 0.97322 0.74495 0.0
H1681 H 0.56552 0.97281 0.77493 0.0
H1682 H 0.58702 0.98596 0.77093 0.0
H1683 H 0.57593 0.96546 0.76206 0.0
H1684 H 0.57204 0.02345 0.76399 0.0
H1685 H 0.54041 0.97121 0.76246 0.0
H1686 H 0.54301 0.03366 0.77497 0.0
H1687 H 0.56457 0.04096 0.77714 0.0
H1688 H 0.55093 0.0318 0.79429 0.0
H1689 H 0.51346 0.95821 0.77182 0.0
H1690 H 0.50411 0.9706 0.77382 0.0
H1691 H 0.51338 0.9674 0.79145 0.0
H1692 H 0.43292 0.9903 0.74495 0.0
H1693 H 0.42267 0.00175 0.72827 0.0
H1694 H 0.43762 0.0206 0.73253 0.0
H1695 H 0.41301 0.01247 0.75772 0.0
H1696 H 0.44687 0.98608 0.76531 0.0
H1697 H 0.48272 0.03638 0.75697 0.0
H1698 H 0.46363 0.97842 0.79716 0.0
H1699 H 0.47471 0.97488 0.78131 0.0
H1700 H 0.45341 0.96829 0.77817 0.0
H1701 H 0.5083 0.04969 0.77088 0.0
H1702 H 0.51665 0.0365 0.76846 0.0
H1703 H 0.51084 0.03986 0.78854 0.0
H1704 H 0.42568 0.98286 0.89544 0.0
H1705 H 0.44002 0.97841 0.87668 0.0
H1706 H 0.47641 0.0272 0.89204 0.0
H1707 H 0.46052 0.97246 0.84604 0.0
H1708 H 0.44647 0.96095 0.86216 0.0
H1709 H 0.4675 0.96589 0.86312 0.0
H1710 H 0.50396 0.03939 0.88402 0.0
H1711 H 0.50659 0.03224 0.86411 0.0
H1712 H 0.51083 0.02489 0.8825 0.0
H1713 H 0.57556 0.98789 0.8788 0.0
H1714 H 0.58529 0.97047 0.86594 0.0
H1715 H 0.56689 0.96779 0.85661 0.0
H1716 H 0.5657 0.95243 0.87006 0.0
H1717 H 0.52389 0.95014 0.87436 0.0
H1718 H 0.5612 -0.00041 0.88595 0.0
H1719 H 0.5015 0.95814 0.84692 0.0
H1720 H 0.49217 0.95815 0.86612 0.0
H1721 H 0.49859 0.94348 0.86234 0.0
H1722 H 0.55805 0.02209 0.88072 0.0
H1723 H 0.53719 0.01766 0.87959 0.0
H1724 H 0.54807 0.01927 0.86101 0.0
H1725 H 0.51083 0.00578 0.76751 0.0
H1726 H 0.47804 0.01071 0.80988 0.0
H1727 H 0.47588 0.00725 0.83915 0.0
H1728 H 0.50151 0.99099 0.87966 0.0
H1729 H 0.53704 0.9902 0.83781 0.0
H1730 H 0.53993 0.99478 0.80881 0.0
H1731 H 0.426 0.99309 0.86693 0.0
H1732 H 0.42469 0.00997 0.87566 0.0
H1733 H 0.40792 0.98917 0.87783 0.0
C1734 C 0.00459 0.55557 0.7226 0.0
C1735 C 0.99817 0.5619 0.73646 0.0
C1736 C 0.00478 0.55253 0.76143 0.0
C1737 C 0.98916 0.54113 0.76713 0.0
C1738 C 0.98698 0.52874 0.77779 0.0
C1739 C 0.00071 0.52774 0.78274 0.0
C1740 C 0.01653 0.53956 0.77742 0.0
C1741 C 0.01837 0.552 0.76702 0.0
C1742 C 0.96999 0.51657 0.78357 0.0
C1743 C 0.03142 0.53879 0.78232 0.0
C1744 C 0.96006 0.42205 0.72183 0.0
C1745 C 0.97299 0.42784 0.73555 0.0
C1746 C 0.9727 0.44238 0.76078 0.0
C1747 C 0.98965 0.45309 0.76246 0.0
C1748 C 0.99589 0.46685 0.77309 0.0
C1749 C 0.98495 0.46982 0.78224 0.0
C1750 C 0.96792 0.45861 0.78113 0.0
C1751 C 0.96204 0.44493 0.77049 0.0
C1752 C 0.01414 0.47837 0.77437 0.0
C1753 C 0.95592 0.46133 0.79083 0.0
C1754 C 0.00058 0.44731 0.88294 0.0
C1755 C 0.01552 0.45945 0.87648 0.0
C1756 C 0.01699 0.47363 0.8698 0.0
C1757 C 0.00328 0.47571 0.86967 0.0
C1758 C 0.98848 0.4639 0.87695 0.0
C1759 C 0.98739 0.44989 0.88364 0.0
C1760 C 0.03308 0.48626 0.86255 0.0
C1761 C 0.97369 0.46585 0.87717 0.0
C1762 C 0.02687 0.59735 0.87712 0.0
C1763 C 0.01946 0.58617 0.8919 0.0
C1764 C 0.02271 0.56251 0.88725 0.0
C1765 C 0.03492 0.55963 0.88161 0.0
C1766 C 0.03093 0.54483 0.87354 0.0
C1767 C 0.0143 0.53258 0.87132 0.0
C1768 C 0.00191 0.53506 0.87785 0.0
C1769 C 0.00624 0.54998 0.88583 0.0
C1770 C 0.04445 0.54244 0.86699 0.0
C1771 C 0.98408 0.52202 0.87612 0.0
C1772 C 0.99837 0.51368 0.79248 0.0
C1773 C 0.99339 0.49895 0.78396 0.0
C1774 C 0.99117 0.48518 0.7921 0.0
C1775 C 0.99434 0.48612 0.80921 0.0
C1776 C 0.9927 0.47263 0.81768 0.0
C1777 C 0.99588 0.4737 0.83452 0.0
C1778 C 0.0007 0.48828 0.84357 0.0
C1779 C 0.00404 0.48951 0.86069 0.0
C1780 C 0.00846 0.50404 0.86941 0.0
C1781 C 0.00982 0.51757 0.8614 0.0
C1782 C 0.00687 0.5167 0.8442 0.0
C1783 C 0.0084 0.53017 0.8357 0.0
C1784 C 0.00558 0.52922 0.81877 0.0
C1785 C 0.0011 0.51476 0.8097 0.0
C1786 C -0.00076 0.50096 0.81806 0.0
C1787 C 0.00226 0.50198 0.83529 0.0
C1788 C 0.99221 0.41051 0.87128 0.0
C1789 C 0.00493 0.42398 0.88273 0.0
O1790 O 0.00718 0.56434 0.75076 0.0
O1791 O 0.02727 0.57738 0.89418 0.0
O1792 O -0.00145 0.43322 0.88905 0.0
O1793 O 0.9661 0.42944 0.75002 0.0
H1794 H 0.98505 0.55268 0.73836 0.0
H1795 H 0.00323 0.54369 0.72603 0.0
H1796 H 0.01774 0.56442 0.72035 0.0
H1797 H 0.99754 0.55363 0.71102 0.0
H1798 H 0.97868 0.54195 0.76341 0.0
H1799 H 0.0304 0.56105 0.76273 0.0
H1800 H 0.96595 0.50444 0.77769 0.0
H1801 H 0.96098 0.52026 0.78042 0.0
H1802 H 0.97003 0.51517 0.79713 0.0
H1803 H 0.04274 0.54839 0.77639 0.0
H1804 H 0.02963 0.52661 0.77888 0.0
H1805 H 0.03315 0.54034 0.79591 0.0
H1806 H 0.98344 0.43985 0.73177 0.0
H1807 H 0.96521 0.42117 0.70981 0.0
H1808 H 0.95584 0.43094 0.72062 0.0
H1809 H 0.94934 0.40989 0.72469 0.0
H1810 H 0.99803 0.45078 0.75552 0.0
H1811 H 0.949 0.43639 0.76931 0.0
H1812 H 0.01808 0.48036 0.78751 0.0
H1813 H 0.01731 0.49043 0.7694 0.0
H1814 H 0.02107 0.47369 0.76747 0.0
H1815 H 0.94305 0.45142 0.78861 0.0
H1816 H 0.95715 0.47317 0.78744 0.0
H1817 H 0.9587 0.46205 0.80421 0.0
H1818 H 0.0161 0.43155 0.87542 0.0
H1819 H 0.0261 0.45802 0.87676 0.0
H1820 H 0.97603 0.4406 0.88901 0.0
H1821 H 0.03157 0.48682 0.84905 0.0
H1822 H 0.04293 0.48346 0.86471 0.0
H1823 H 0.03695 0.49854 0.86796 0.0
H1824 H 0.96328 0.45587 0.88386 0.0
H1825 H 0.96973 0.46593 0.86432 0.0
H1826 H 0.97692 0.47776 0.88311 0.0
H1827 H 0.00627 0.57793 0.88897 0.0
H1828 H 0.02115 0.60493 0.87555 0.0
H1829 H 0.02458 0.5898 0.8657 0.0
H1830 H 0.0403 0.60553 0.8787 0.0
H1831 H 0.0476 0.56923 0.8831 0.0
H1832 H 0.99672 0.5517 0.89103 0.0
H1833 H 0.04329 0.54081 0.85337 0.0
H1834 H 0.0433 0.53116 0.8721 0.0
H1835 H 0.05679 0.55296 0.87013 0.0
H1836 H 0.97595 0.52548 0.88262 0.0
H1837 H 0.98204 0.51034 0.88113 0.0
H1838 H 0.98057 0.51981 0.86286 0.0
H1839 H 0.99109 0.49816 0.77076 0.0
H1840 H 0.98903 0.46111 0.81134 0.0
H1841 H 0.99445 0.46291 0.84036 0.0
H1842 H 0.0109 0.50484 0.88256 0.0
H1843 H 0.01186 0.54164 0.84202 0.0
H1844 H 0.00696 0.53996 0.81287 0.0
H1845 H 0.98079 0.40246 0.87809 0.0
H1846 H 0.99706 0.40297 0.866 0.0
H1847 H 0.98923 0.41607 0.86095 0.0
C1848 C 0.53218 0.56766 0.72788 0.0
C1849 C 0.54369 0.57715 0.74242 0.0
C1850 C 0.52627 0.56044 0.76526 0.0
C1851 C 0.5149 0.56573 0.76495 0.0
C1852 C 0.50061 0.55795 0.77444 0.0
C1853 C 0.49766 0.54465 0.78438 0.0
C1854 C 0.50924 0.53951 0.7849 0.0
C1855 C 0.52347 0.54762 0.77546 0.0
C1856 C 0.48857 0.5638 0.77372 0.0
C1857 C 0.50647 0.52526 0.79519 0.0
C1858 C 0.38177 0.46003 0.74118 0.0
C1859 C 0.39717 0.45876 0.7427 0.0
C1860 C 0.41422 0.4729 0.76685 0.0
C1861 C 0.4233 0.47021 0.77851 0.0
C1862 C 0.43657 0.48332 0.78683 0.0
C1863 C 0.4402 0.49952 0.78405 0.0
C1864 C 0.43088 0.5023 0.77239 0.0
C1865 C 0.41811 0.48895 0.76372 0.0
C1866 C 0.44665 0.47974 0.79853 0.0
C1867 C 0.43427 0.51934 0.76917 0.0
C1868 C 0.40824 0.48301 0.88722 0.0
C1869 C 0.42002 0.47947 0.88139 0.0
C1870 C 0.43435 0.49152 0.87391 0.0
C1871 C 0.4369 0.50745 0.87212 0.0
C1872 C 0.42542 0.51127 0.87871 0.0
C1873 C 0.41129 0.499 0.88636 0.0
C1874 C 0.44658 0.48711 0.86759 0.0
C1875 C 0.42786 0.52816 0.8772 0.0
C1876 C 0.55461 0.60837 0.88421 0.0
C1877 C 0.54824 0.59835 0.89991 0.0
C1878 C 0.52494 0.57241 0.88902 0.0
C1879 C 0.52016 0.5563 0.88466 0.0
C1880 C 0.50521 0.54602 0.87662 0.0
C1881 C 0.49474 0.55205 0.87291 0.0
C1882 C 0.49922 0.56819 0.87776 0.0
C1883 C 0.51431 0.57826 0.88581 0.0
C1884 C 0.50078 0.52882 0.87174 0.0
C1885 C 0.48823 0.57488 0.87407 0.0
C1886 C 0.48216 0.53562 0.7937 0.0
C1887 C 0.46842 0.52332 0.78525 0.0
C1888 C 0.45371 0.51345 0.79341 0.0
C1889 C 0.45254 0.51601 0.81048 0.0
C1890 C 0.43784 0.50659 0.81901 0.0
C1891 C 0.43722 0.50808 0.83605 0.0
C1892 C 0.45127 0.51916 0.84519 0.0
C1893 C 0.45115 0.51976 0.86264 0.0
C1894 C 0.46528 0.53108 0.87132 0.0
C1895 C 0.47966 0.54172 0.86302 0.0
C1896 C 0.48005 0.54117 0.84559 0.0
C1897 C 0.49439 0.55154 0.83688 0.0
C1898 C 0.49499 0.55008 0.81982 0.0
C1899 C 0.48133 0.53809 0.81084 0.0
C1900 C 0.46652 0.52806 0.81929 0.0
C1901 C 0.46588 0.52963 0.83668 0.0
C1902 C 0.36736 0.45027 0.88454 0.0
C1903 C 0.38507 0.45506 0.88824 0.0
O1904 O 0.53999 0.56713 0.75591 0.0
O1905 O 0.53996 0.58176 0.89607 0.0
O1906 O 0.39381 0.47129 0.89357 0.0
O1907 O 0.40162 0.45972 0.7591 0.0
H1908 H 0.54254 0.5879 0.74584 0.0
H1909 H 0.51931 0.56358 0.73102 0.0
H1910 H 0.53299 0.5567 0.72456 0.0
H1911 H 0.53545 0.57558 0.71695 0.0
H1912 H 0.51705 0.57583 0.75733 0.0
H1913 H 0.53237 0.54372 0.77569 0.0
H1914 H 0.47699 0.55412 0.7679 0.0
H1915 H 0.49327 0.57515 0.76655 0.0
H1916 H 0.48567 0.56612 0.7864 0.0
H1917 H 0.51601 0.52198 0.79318 0.0
H1918 H 0.49431 0.51438 0.79223 0.0
H1919 H 0.50653 0.52838 0.80845 0.0
H1920 H 0.40706 0.46909 0.73576 0.0
H1921 H 0.37726 0.45763 0.72821 0.0
H1922 H 0.38459 0.47252 0.74484 0.0
H1923 H 0.3719 0.45125 0.74931 0.0
H1924 H 0.42018 0.45775 0.7808 0.0
H1925 H 0.41099 0.49108 0.75481 0.0
H1926 H 0.4429 0.48022 0.81139 0.0
H1927 H 0.45987 0.48896 0.7975 0.0
H1928 H 0.44487 0.46738 0.79616 0.0
H1929 H 0.42458 0.51923 0.76145 0.0
H1930 H 0.44611 0.52633 0.7627 0.0
H1931 H 0.43531 0.5259 0.781 0.0
H1932 H 0.38989 0.45344 0.87626 0.0
H1933 H 0.41804 0.46728 0.88261 0.0
H1934 H 0.40225 0.50169 0.89115 0.0
H1935 H 0.44627 0.48668 0.8539 0.0
H1936 H 0.44396 0.47501 0.87197 0.0
H1937 H 0.45915 0.49654 0.87157 0.0
H1938 H 0.41766 0.5291 0.88271 0.0
H1939 H 0.42888 0.53138 0.86399 0.0
H1940 H 0.43947 0.53727 0.88342 0.0
H1941 H 0.53994 0.60156 0.90648 0.0
H1942 H 0.56158 0.62166 0.88739 0.0
H1943 H 0.5443 0.60602 0.87596 0.0
H1944 H 0.56272 0.60511 0.87736 0.0
H1945 H 0.52839 0.55189 0.88732 0.0
H1946 H 0.51773 0.59064 0.88933 0.0
H1947 H 0.49964 0.52726 0.85812 0.0
H1948 H 0.48874 0.51992 0.87702 0.0
H1949 H 0.51003 0.52583 0.87602 0.0
H1950 H 0.49311 0.58745 0.87925 0.0
H1951 H 0.47588 0.56674 0.87921 0.0
H1952 H 0.48678 0.5751 0.86051 0.0
H1953 H 0.46934 0.52105 0.77224 0.0
H1954 H 0.4267 0.49771 0.81264 0.0
H1955 H 0.42566 0.50024 0.842 0.0
H1956 H 0.46527 0.53118 0.8847 0.0
H1957 H 0.5054 0.56077 0.84317 0.0
H1958 H 0.50641 0.55824 0.81379 0.0
H1959 H 0.35995 0.43707 0.88101 0.0
H1960 H 0.36709 0.45751 0.87409 0.0
H1961 H 0.36171 0.45276 0.89534 0.0
C1962 C 0.66068 0.77707 0.60733 0.0
C1963 C 0.64315 0.76226 0.60706 0.0
C1964 C 0.63135 0.77028 0.58534 0.0
C1965 C 0.61498 0.76607 0.58616 0.0
C1966 C 0.60966 0.77574 0.57859 0.0
C1967 C 0.62108 0.78993 0.57014 0.0
C1968 C 0.63771 0.79427 0.56949 0.0
C1969 C 0.64255 0.78413 0.57678 0.0
C1970 C 0.59183 0.77064 0.57936 0.0
C1971 C 0.65035 0.80948 0.56094 0.0
C1972 C 0.60102 0.86817 0.63823 0.0
C1973 C 0.61147 0.87139 0.62286 0.0
C1974 C 0.60367 0.85385 0.59806 0.0
C1975 C 0.61938 0.85769 0.59314 0.0
C1976 C 0.62146 0.84769 0.58162 0.0
C1977 C 0.60755 0.8335 0.57503 0.0
C1978 C 0.59169 0.82986 0.57968 0.0
C1979 C 0.58999 0.84028 0.59094 0.0
C1980 C 0.63853 0.85218 0.57662 0.0
C1981 C 0.57657 0.81477 0.57307 0.0
C1982 C 0.59322 0.85603 0.47278 0.0
C1983 C 0.60944 0.85957 0.47422 0.0
C1984 C 0.61292 0.84813 0.48083 0.0
C1985 C 0.59991 0.83278 0.48584 0.0
C1986 C 0.58355 0.82885 0.48351 0.0
C1987 C 0.58043 0.84054 0.47695 0.0
C1988 C 0.6305 0.85253 0.48277 0.0
C1989 C 0.56939 0.81245 0.48837 0.0
C1990 C 0.61277 0.73197 0.46753 0.0
C1991 C 0.61644 0.74181 0.45171 0.0
C1992 C 0.62091 0.76807 0.46327 0.0
C1993 C 0.63313 0.78391 0.46787 0.0
C1994 C 0.62946 0.79434 0.47689 0.0
C1995 C 0.61309 0.78877 0.48136 0.0
C1996 C 0.60053 0.77295 0.47626 0.0
C1997 C 0.60455 0.76274 0.46721 0.0
C1998 C 0.64316 0.81119 0.48199 0.0
C1999 C 0.58294 0.76674 0.48072 0.0
C2000 C 0.61567 0.80011 0.56169 0.0
C2001 C 0.61353 0.81126 0.57123 0.0
C2002 C 0.6096 0.82205 0.56396 0.0
C2003 C 0.60788 0.82186 0.54662 0.0
C2004 C 0.60448 0.83288 0.53883 0.0
C2005 C 0.60289 0.83263 0.52175 0.0
C2006 C 0.60475 0.82141 0.51178 0.0
C2007 C 0.60342 0.82123 0.49438 0.0
C2008 C 0.60576 0.81019 0.48482 0.0
C2009 C 0.60935 0.79921 0.49219 0.0
C2010 C 0.61039 0.79897 0.50957 0.0
C2011 C 0.61371 0.78789 0.51737 0.0
C2012 C 0.61518 0.78805 0.53444 0.0
C2013 C 0.61354 0.79941 0.54438 0.0
C2014 C 0.6098 0.81044 0.53681 0.0
C2015 C 0.60822 0.81021 0.51938 0.0
C2016 C 0.5896 0.89156 0.47467 0.0
C2017 C 0.59934 0.88401 0.46785 0.0
O2018 O 0.63602 0.7602 0.59162 0.0
O2019 O 0.62562 0.75846 0.45528 0.0
O2020 O 0.58934 0.86711 0.46748 0.0
O2021 O 0.60123 0.86291 0.6096 0.0
H2022 H 0.63578 0.76436 0.61641 0.0
H2023 H 0.66049 0.78854 0.60574 0.0
H2024 H 0.66799 0.77583 0.59732 0.0
H2025 H 0.66682 0.77824 0.61935 0.0
H2026 H 0.60637 0.75509 0.59253 0.0
H2027 H 0.65509 0.78697 0.57573 0.0
H2028 H 0.59052 0.78001 0.58644 0.0
H2029 H 0.58431 0.75864 0.58531 0.0
H2030 H 0.58697 0.76988 0.56673 0.0
H2031 H 0.66302 0.81249 0.56384 0.0
H2032 H 0.64909 0.82011 0.56458 0.0
H2033 H 0.64845 0.80762 0.5474 0.0
H2034 H 0.61987 0.86672 0.62536 0.0
H2035 H 0.60888 0.87449 0.64921 0.0
H2036 H 0.59393 0.85483 0.64056 0.0
H2037 H 0.59229 0.87255 0.63657 0.0
H2038 H 0.63001 0.86851 0.59823 0.0
H2039 H 0.57792 0.83756 0.59469 0.0
H2040 H 0.63931 0.85167 0.56298 0.0
H2041 H 0.64143 0.84319 0.5817 0.0
H2042 H 0.64789 0.8646 0.58119 0.0
H2043 H 0.56522 0.81302 0.5789 0.0
H2044 H 0.57747 0.80375 0.5752 0.0
H2045 H 0.57558 0.81574 0.55956 0.0
H2046 H 0.60986 0.88796 0.47648 0.0
H2047 H 0.61943 0.87124 0.47027 0.0
H2048 H 0.56795 0.83781 0.47548 0.0
H2049 H 0.63324 0.85201 0.49597 0.0
H2050 H 0.63923 0.86495 0.47823 0.0
H2051 H 0.63246 0.84348 0.47587 0.0
H2052 H 0.5574 0.81086 0.48471 0.0
H2053 H 0.56957 0.81123 0.50195 0.0
H2054 H 0.57062 0.80246 0.48257 0.0
H2055 H 0.60477 0.73887 0.44555 0.0
H2056 H 0.60583 0.71863 0.46453 0.0
H2057 H 0.60524 0.73463 0.47604 0.0
H2058 H 0.62431 0.73505 0.47402 0.0
H2059 H 0.64568 0.78796 0.46463 0.0
H2060 H 0.5949 0.75062 0.46345 0.0
H2061 H 0.64415 0.81221 0.49565 0.0
H2062 H 0.64042 0.82057 0.47773 0.0
H2063 H 0.65514 0.81394 0.47692 0.0
H2064 H 0.57449 0.75437 0.47533 0.0
H2065 H 0.57918 0.77534 0.47634 0.0
H2066 H 0.58168 0.76621 0.49434 0.0
H2067 H 0.61515 0.81169 0.58451 0.0
H2068 H 0.60305 0.84187 0.54585 0.0
H2069 H 0.60029 0.84144 0.51646 0.0
H2070 H 0.60503 0.81035 0.47148 0.0
H2071 H 0.61526 0.77896 0.51037 0.0
H2072 H 0.61773 0.77922 0.53974 0.0
H2073 H 0.59735 0.90513 0.47515 0.0
H2074 H 0.58552 0.88726 0.48739 0.0
H2075 H 0.57862 0.88795 0.46688 0.0
C2076 C 0.13604 0.72985 0.63883 0.0
C2077 C 0.13047 0.73676 0.6251 0.0
C2078 C 0.14468 0.74634 0.59912 0.0
C2079 C 0.14086 0.75847 0.59591 0.0
C2080 C 0.15066 0.7714 0.58544 0.0
C2081 C 0.16464 0.77228 0.5782 0.0
C2082 C 0.16814 0.7597 0.58094 0.0
C2083 C 0.15788 0.7467 0.59115 0.0
C2084 C 0.14631 0.78435 0.58248 0.0
C2085 C 0.18303 0.76031 0.5736 0.0
C2086 C 0.26651 0.88899 0.62607 0.0
C2087 C 0.25723 0.87279 0.61753 0.0
C2088 C 0.23182 0.85595 0.60195 0.0
C2089 C 0.23607 0.84458 0.59612 0.0
C2090 C 0.22538 0.83135 0.58581 0.0
C2091 C 0.21017 0.82947 0.58117 0.0
C2092 C 0.20588 0.84091 0.58693 0.0
C2093 C 0.21678 0.85401 0.59727 0.0
C2094 C 0.2303 0.81932 0.5799 0.0
C2095 C 0.18976 0.83926 0.58218 0.0
C2096 C 0.22991 0.86273 0.47548 0.0
C2097 C 0.2346 0.85094 0.47646 0.0
C2098 C 0.22478 0.83623 0.4847 0.0
C2099 C 0.20995 0.83324 0.49191 0.0
C2100 C 0.20522 0.8451 0.49085 0.0
C2101 C 0.2154 0.85978 0.48282 0.0
C2102 C 0.23025 0.82392 0.48577 0.0
C2103 C 0.18939 0.84228 0.49818 0.0
C2104 C 0.11657 0.70373 0.46586 0.0
C2105 C 0.11935 0.72107 0.46548 0.0
C2106 C 0.14559 0.74621 0.4699 0.0
C2107 C 0.16205 0.75102 0.47186 0.0
C2108 C 0.17273 0.76505 0.48127 0.0
C2109 C 0.16685 0.77474 0.48847 0.0
C2110 C 0.15042 0.77044 0.48571 0.0
C2111 C 0.13992 0.75612 0.47659 0.0
C2112 C 0.19023 0.76937 0.48375 0.0
C2113 C 0.14389 0.78085 0.49256 0.0
C2114 C 0.1763 0.78701 0.56896 0.0
C2115 C 0.18732 0.80093 0.57817 0.0
C2116 C 0.19866 0.81534 0.5705 0.0
C2117 C 0.19906 0.81602 0.5531 0.0
C2118 C 0.21026 0.83036 0.54499 0.0
C2119 C 0.21049 0.83095 0.52786 0.0
C2120 C 0.19952 0.81722 0.51818 0.0
C2121 C 0.19943 0.81783 0.50078 0.0
C2122 C 0.18869 0.80384 0.49149 0.0
C2123 C 0.17781 0.78917 0.49912 0.0
C2124 C 0.1774 0.78846 0.51656 0.0
C2125 C 0.16634 0.77405 0.5247 0.0
C2126 C 0.1658 0.77359 0.54185 0.0
C2127 C 0.17659 0.78739 0.55153 0.0
C2128 C 0.188 0.80198 0.54358 0.0
C2129 C 0.18832 0.80254 0.52609 0.0
C2130 C 0.25325 0.89326 0.44439 0.0
C2131 C 0.25128 0.88068 0.45624 0.0
O2132 O 0.13609 0.7344 0.61011 0.0
O2133 O 0.13552 0.73196 0.46157 0.0
O2134 O 0.23887 0.87699 0.46743 0.0
O2135 O 0.24181 0.86887 0.61205 0.0
H2136 H 0.13613 0.75009 0.62804 0.0
H2137 H 0.14962 0.73647 0.63937 0.0
H2138 H 0.13148 0.71664 0.63657 0.0
H2139 H 0.13152 0.73147 0.65096 0.0
H2140 H 0.13031 0.7579 0.6017 0.0
H2141 H 0.16058 0.73715 0.59359 0.0
H2142 H 0.15529 0.79586 0.58902 0.0
H2143 H 0.13387 0.78068 0.58696 0.0
H2144 H 0.14696 0.78696 0.56912 0.0
H2145 H 0.18452 0.75006 0.5777 0.0
H2146 H 0.1942 0.77206 0.57713 0.0
H2147 H 0.18206 0.75974 0.55995 0.0
H2148 H 0.25736 0.86255 0.62386 0.0
H2149 H 0.2866 0.90302 0.61007 0.0
H2150 H 0.26826 0.8862 0.63909 0.0
H2151 H 0.25731 0.89265 0.62954 0.0
H2152 H 0.24768 0.84591 0.59958 0.0
H2153 H 0.21361 0.86283 0.60178 0.0
H2154 H 0.22118 0.80685 0.58401 0.0
H2155 H 0.24257 0.82249 0.58458 0.0
H2156 H 0.2304 0.81895 0.56621 0.0
H2157 H 0.18836 0.84934 0.58745 0.0
H2158 H 0.17955 0.82742 0.58653 0.0
H2159 H 0.18872 0.83919 0.56854 0.0
H2160 H 0.26274 0.88251 0.46201 0.0
H2161 H 0.24593 0.85322 0.47095 0.0
H2162 H 0.21192 0.86897 0.48197 0.0
H2163 H 0.23022 0.82056 0.49881 0.0
H2164 H 0.24268 0.8286 0.48067 0.0
H2165 H 0.22151 0.8126 0.4788 0.0
H2166 H 0.18664 0.85187 0.4947 0.0
H2167 H 0.19016 0.84224 0.51183 0.0
H2168 H 0.17907 0.83015 0.49407 0.0
H2169 H 0.11674 0.72365 0.47824 0.0
H2170 H 0.10349 0.69471 0.46822 0.0
H2171 H 0.12404 0.70298 0.47594 0.0
H2172 H 0.12023 0.70042 0.45408 0.0
H2173 H 0.16637 0.74341 0.46644 0.0
H2174 H 0.12734 0.75278 0.47462 0.0
H2175 H 0.19325 0.77076 0.49713 0.0
H2176 H 0.19856 0.78128 0.47799 0.0
H2177 H 0.1926 0.75998 0.47828 0.0
H2178 H 0.13153 0.777 0.48759 0.0
H2179 H 0.15233 0.7939 0.48964 0.0
H2180 H 0.14314 0.77993 0.50619 0.0
H2181 H 0.1871 0.80053 0.59154 0.0
H2182 H 0.21895 0.84132 0.55179 0.0
H2183 H 0.21938 0.84233 0.52231 0.0
H2184 H 0.18871 0.8044 0.47814 0.0
H2185 H 0.15785 0.76299 0.51792 0.0
H2186 H 0.15688 0.76224 0.54744 0.0
H2187 H 0.26592 0.90397 0.44696 0.0
H2188 H 0.24691 0.89955 0.44984 0.0
H2189 H 0.24623 0.88044 0.42111 0.0
C2190 C 0.14114 0.38074 0.62673 0.0
C2191 C 0.12901 0.37559 0.61223 0.0
C2192 C 0.14531 0.3724 0.59026 0.0
C2193 C 0.15704 0.38908 0.58862 0.0
C2194 C 0.17096 0.39401 0.57885 0.0
C2195 C 0.17306 0.38204 0.57042 0.0
C2196 C 0.1609 0.36531 0.57147 0.0
C2197 C 0.14719 0.36074 0.58138 0.0
C2198 C 0.18361 0.41196 0.57778 0.0
C2199 C 0.16261 0.35222 0.56248 0.0
C2200 C 0.29164 0.40585 0.58939 0.0
C2201 C 0.27901 0.39598 0.60257 0.0
C2202 C 0.25274 0.3863 0.588 0.0
C2203 C 0.2397 0.37264 0.58022 0.0
C2204 C 0.22737 0.37375 0.57201 0.0
C2205 C 0.22808 0.38897 0.57169 0.0
C2206 C 0.24104 0.40282 0.57983 0.0
C2207 C 0.2533 0.40137 0.5879 0.0
C2208 C 0.21373 0.35872 0.56345 0.0
C2209 C 0.24208 0.41919 0.5797 0.0
C2210 C 0.26483 0.40635 0.47042 0.0
C2211 C 0.25172 0.3907 0.47393 0.0
C2212 C 0.2372 0.38866 0.48064 0.0
C2213 C 0.23587 0.40259 0.4841 0.0
C2214 C 0.24872 0.41828 0.47972 0.0
C2215 C 0.263 0.41992 0.47273 0.0
C2216 C 0.22349 0.37165 0.48451 0.0
C2217 C 0.2476 0.43335 0.48301 0.0
C2218 C 0.1272 0.403 0.46754 0.0
C2219 C 0.13577 0.40127 0.45228 0.0
C2220 C 0.15415 0.39267 0.46386 0.0
C2221 C 0.15612 0.37923 0.46587 0.0
C2222 C 0.16926 0.38058 0.47503 0.0
C2223 C 0.18079 0.39587 0.48225 0.0
C2224 C 0.17908 0.40965 0.48004 0.0
C2225 C 0.16572 0.40791 0.47092 0.0
C2226 C 0.17071 0.36564 0.47716 0.0
C2227 C 0.19128 0.42614 0.4875 0.0
C2228 C 0.18839 0.38685 0.56133 0.0
C2229 C 0.20124 0.38717 0.57003 0.0
C2230 C 0.21564 0.39045 0.56213 0.0
C2231 C 0.21749 0.39378 0.54511 0.0
C2232 C 0.23188 0.3972 0.53683 0.0
C2233 C 0.23335 0.3998 0.51996 0.0
C2234 C 0.22046 0.39894 0.51066 0.0
C2235 C 0.22156 0.40078 0.49335 0.0
C2236 C 0.20859 0.40005 0.48451 0.0
C2237 C 0.19437 0.3973 0.49248 0.0
C2238 C 0.19293 0.39518 0.50975 0.0
C2239 C 0.17865 0.39204 0.5181 0.0
C2240 C 0.1772 0.3895 0.53502 0.0
C2241 C 0.18994 0.38998 0.54423 0.0
C2242 C 0.20454 0.39339 0.5361 0.0
C2243 C 0.20603 0.39597 0.51885 0.0
C2244 C 0.30442 0.4121 0.47546 0.0
C2245 C 0.28665 0.40007 0.47035 0.0
O2246 O 0.13216 0.36689 0.60034 0.0
O2247 O 0.14087 0.39022 0.45513 0.0
O2248 O 0.27944 0.40875 0.46511 0.0
O2249 O 0.26444 0.38425 0.5952 0.0
H2250 H 0.12996 0.38664 0.60665 0.0
H2251 H 0.15382 0.38929 0.62271 0.0
H2252 H 0.14076 0.36988 0.63209 0.0
H2253 H 0.1381 0.38711 0.63649 0.0
H2254 H 0.15554 0.39831 0.59505 0.0
H2255 H 0.13798 0.34792 0.58255 0.0
H2256 H 0.19538 0.41426 0.58308 0.0
H2257 H 0.17988 0.41983 0.58446 0.0
H2258 H 0.18578 0.41554 0.56466 0.0
H2259 H 0.15162 0.33985 0.5638 0.0
H2260 H 0.17339 0.35204 0.56741 0.0
H2261 H 0.16471 0.35499 0.54917 0.0
H2262 H 0.27687 0.40433 0.61057 0.0
H2263 H 0.30339 0.41514 0.59531 0.0
H2264 H 0.28726 0.41236 0.58165 0.0
H2265 H 0.29386 0.39765 0.58126 0.0
H2266 H 0.23937 0.36107 0.58041 0.0
H2267 H 0.26326 0.41208 0.59392 0.0
H2268 H 0.21372 0.36095 0.55006 0.0
H2269 H 0.20177 0.3561 0.56843 0.0
H2270 H 0.21487 0.34776 0.56501 0.0
H2271 H 0.25261 0.42868 0.58709 0.0
H2272 H 0.23062 0.41797 0.58468 0.0
H2273 H 0.24329 0.42336 0.56681 0.0
H2274 H 0.28059 0.39322 0.48171 0.0
H2275 H 0.25286 0.38008 0.47157 0.0
H2276 H 0.27309 0.43192 0.4697 0.0
H2277 H 0.22261 0.37012 0.49807 0.0
H2278 H 0.22544 0.36203 0.4789 0.0
H2279 H 0.21162 0.36979 0.47999 0.0
H2280 H 0.25872 0.4447 0.47902 0.0
H2281 H 0.24583 0.43452 0.4964 0.0
H2282 H 0.23681 0.43216 0.47642 0.0
H2283 H 0.14647 0.41339 0.44924 0.0
H2284 H 0.12299 0.41175 0.46522 0.0
H2285 H 0.13572 0.40771 0.47826 0.0
H2286 H 0.11647 0.39096 0.47073 0.0
H2287 H 0.14716 0.36755 0.46035 0.0
H2288 H 0.16443 0.41848 0.4695 0.0
H2289 H 0.17088 0.36327 0.49049 0.0
H2290 H 0.18244 0.36785 0.47188 0.0
H2291 H 0.1605 0.35455 0.47106 0.0
H2292 H 0.18874 0.43586 0.48394 0.0
H2293 H 0.20383 0.42968 0.48353 0.0
H2294 H 0.19099 0.4254 0.50115 0.0
H2295 H 0.19983 0.38437 0.58305 0.0
H2296 H 0.24214 0.39783 0.54328 0.0
H2297 H 0.2447 0.40234 0.51427 0.0
H2298 H 0.20945 0.40132 0.47123 0.0
H2299 H 0.16838 0.39138 0.51163 0.0
H2300 H 0.1659 0.38703 0.54078 0.0
H2301 H 0.3106 0.40537 0.47911 0.0
H2302 H 0.30469 0.41968 0.4862 0.0
H2303 H 0.31132 0.42045 0.46529 0.0
H2304 H 0.99367 0.36252 0.06395 0.0
H2305 H 0.02426 0.39958 0.02892 0.0
H2306 H 0.02564 0.42102 0.04746 0.0
H2307 H 0.97142 0.38285 0.07951 0.0
H2308 H 0.9716 0.37704 0.10049 0.0
H2309 H 0.97118 0.36416 0.08364 0.0
H2310 H 0.99721 0.3656 0.09538 0.0
H2311 H 0.99775 0.37849 0.11221 0.0
H2312 H 0.01532 0.3853 0.09915 0.0
H2313 H 0.02655 0.43861 0.07048 0.0
H2314 H 0.02657 0.45163 0.09691 0.0
H2315 H 0.99504 0.40376 0.11763 0.0
C2316 C 0.00033 0.37512 0.06009 0.0
C2317 C 0.00883 0.37942 0.04501 0.0
C2318 C 0.01772 0.39604 0.04047 0.0
C2319 C 0.0185 0.40831 0.05086 0.0
C2320 C 0.01035 0.40379 0.0658 0.0
C2321 C 0.00139 0.38763 0.07047 0.0
C2322 C 0.99497 0.3864 0.08784 0.0
C2323 C 0.97617 0.37706 0.08786 0.0
C2324 C 0.00172 0.37848 0.09932 0.0
C2325 C 0.00203 0.40438 0.09223 0.0
C2326 C 0.01075 0.41414 0.07925 0.0
C2327 C 0.01946 0.43114 0.08064 0.0
C2328 C 0.01936 0.43842 0.09576 0.0
C2329 C 0.01044 0.42871 0.10929 0.0
C2330 C 0.0016 0.41146 0.10737 0.0
H2331 H 0.61154 0.60347 0.05685 0.0
H2332 H 0.66158 0.61526 0.04909 0.0
H2333 H 0.65811 0.5955 0.07047 0.0
H2334 H 0.61165 0.60032 0.10028 0.0
H2335 H 0.59076 0.58365 0.10107 0.0
H2336 H 0.5971 0.59813 0.08472 0.0
H2337 H 0.58674 0.57442 0.06304 0.0
H2338 H 0.58037 0.55986 0.07934 0.0
H2339 H 0.5942 0.56041 0.06379 0.0
H2340 H 0.64888 0.57433 0.09309 0.0
H2341 H 0.63504 0.55441 0.11532 0.0
H2342 H 0.59174 0.55799 0.10842 0.0
C2343 C 0.6218 0.60188 0.05951 0.0
C2344 C 0.63683 0.61089 0.05122 0.0
C2345 C 0.64993 0.60847 0.05525 0.0
C2346 C 0.64807 0.59726 0.06735 0.0
C2347 C 0.63306 0.58864 0.07531 0.0
C2348 C 0.62019 0.5909 0.07155 0.0
C2349 C 0.60545 0.58055 0.08209 0.0
C2350 C 0.60099 0.59131 0.09267 0.0
C2351 C 0.59083 0.56807 0.07143 0.0
C2352 C 0.61203 0.5722 0.09256 0.0
C2353 C 0.62791 0.57684 0.08839 0.0
C2354 C 0.63643 0.57058 0.09639 0.0
C2355 C 0.62849 0.55928 0.10895 0.0
C2356 C 0.61223 0.5544 0.11343 0.0
C2357 C 0.60405 0.56117 0.10517 0.0
H2358 H 0.38227 0.02845 0.05355 0.0
H2359 H 0.34973 0.97581 0.05484 0.0
H2360 H 0.36632 0.97428 0.0773 0.0
H2361 H 0.41877 0.02805 0.05927 0.0
H2362 H 0.42876 0.04634 0.07208 0.0
H2363 H 0.41352 0.04367 0.05718 0.0
H2364 H 0.39693 0.04779 0.0802 0.0
H2365 H 0.41222 0.05065 0.09515 0.0
H2366 H 0.3911 0.03519 0.09815 0.0
H2367 H 0.38712 0.97818 0.09858 0.0
H2368 H 0.41069 0.9874 0.11754 0.0
H2369 H 0.43018 0.03737 0.10207 0.0
C2370 C 0.37845 0.01667 0.05881 0.0
C2371 C 0.36464 0.00226 0.05253 0.0
C2372 C 0.36023 0.98701 0.0595 0.0
C2373 C 0.36958 0.98601 0.07226 0.0
C2374 C 0.38333 0.00037 0.07791 0.0
C2375 C 0.38774 0.01543 0.07149 0.0
C2376 C 0.40357 0.02886 0.07923 0.0
C2377 C 0.41694 0.03722 0.06616 0.0
C2378 C 0.40078 0.04136 0.08875 0.0
C2379 C 0.40745 0.01896 0.09083 0.0
C2380 C 0.39556 0.00257 0.08994 0.0
C2381 C 0.39652 0.99099 0.09937 0.0
C2382 C 0.40999 0.9963 0.11002 0.0
C2383 C 0.42243 0.01303 0.111 0.0
C2384 C 0.42099 0.02448 0.10136 0.0
H2385 H 0.36424 0.98237 0.96386 0.0
H2386 H 0.39373 0.03434 0.97559 0.0
H2387 H 0.41348 0.03721 0.9542 0.0
H2388 H 0.39836 0.97607 0.95631 0.0
H2389 H 0.38802 0.96148 0.93967 0.0
H2390 H 0.37636 0.96347 0.95613 0.0
H2391 H 0.35948 0.96886 0.93478 0.0
H2392 H 0.37113 0.96695 0.91827 0.0
H2393 H 0.36995 0.98522 0.92044 0.0
H2394 H 0.42907 0.03476 0.93048 0.0
H2395 H 0.44056 0.02677 0.90728 0.0
H2396 H 0.40159 0.97623 0.91176 0.0
C2397 C 0.3749 0.99433 0.96199 0.0
C2398 C 0.37746 0.00814 0.97135 0.0
C2399 C 0.39156 0.02359 0.96858 0.0
C2400 C 0.40283 0.02535 0.95644 0.0
C2401 C 0.39988 0.01153 0.94732 0.0
C2402 C 0.38635 0.99629 0.95004 0.0
C2403 C 0.38606 0.98341 0.93852 0.0
C2404 C 0.38728 0.97034 0.94824 0.0
C2405 C 0.37075 0.97566 0.92734 0.0
C2406 C 0.40143 0.99383 0.92879 0.0
C2407 C 0.40919 0.01002 0.93401 0.0
C2408 C 0.42328 0.02207 0.92647 0.0
C2409 C 0.42974 0.01741 0.91335 0.0
C2410 C 0.42225 0.00078 0.90809 0.0
C2411 C 0.4078 0.98893 0.91582 0.0
H2412 H 0.99206 0.38127 0.96932 0.0
H2413 H 0.02988 0.37044 0.95619 0.0
H2414 H 0.03485 0.38589 0.93044 0.0
H2415 H 0.97508 0.37615 0.93004 0.0
H2416 H 0.97096 0.3926 0.93241 0.0
H2417 H 0.9715 0.38192 0.95023 0.0
H2418 H 0.99357 0.40938 0.96379 0.0
H2419 H 0.99306 0.42017 0.946 0.0
H2420 H 0.01215 0.42242 0.95283 0.0
H2421 H 0.03424 0.40123 0.90523 0.0
H2422 H 0.0283 0.41517 0.88313 0.0
H2423 H 0.99048 0.41491 0.91332 0.0
C2424 C 0.00149 0.38219 0.96113 0.0
C2425 C 0.01055 0.37458 0.96473 0.0
C2426 C 0.02282 0.3762 0.95368 0.0
C2427 C 0.02572 0.38495 0.93905 0.0
C2428 C 0.01634 0.39207 0.93581 0.0
C2429 C 0.00454 0.39084 0.94663 0.0
C2430 C 0.99565 0.39901 0.94018 0.0
C2431 C 0.97721 0.38668 0.93809 0.0
C2432 C -0.0012 0.41361 0.95137 0.0
C2433 C 0.00391 0.40465 0.92374 0.0
C2434 C 0.01597 0.40078 0.92148 0.0
C2435 C 0.02497 0.4045 0.90698 0.0
C2436 C 0.02154 0.41241 0.89453 0.0
C2437 C 0.00922 0.41646 0.89666 0.0
C2438 C 0.00025 0.41236 0.91145 0.0
H2439 H 0.61185 0.64382 0.97442 0.0
H2440 H 0.63246 0.61331 0.96265 0.0
H2441 H 0.61287 0.60055 0.93945 0.0
H2442 H 0.57023 0.61352 0.96607 0.0
H2443 H 0.56508 0.62758 0.95724 0.0
H2444 H 0.58111 0.63476 0.97255 0.0
H2445 H 0.60136 0.65664 0.95247 0.0
H2446 H 0.58538 0.64954 0.93709 0.0
H2447 H 0.6043 0.65036 0.93227 0.0
H2448 H 0.59128 0.59127 0.91753 0.0
H2449 H 0.56818 0.58511 0.89901 0.0
H2450 H 0.561 0.62102 0.92554 0.0
C2451 C 0.61229 0.63451 0.96692 0.0
C2452 C 0.6237 0.62957 0.9703 0.0
C2453 C 0.62383 0.61728 0.96027 0.0
C2454 C 0.61278 0.60999 0.94705 0.0
C2455 C 0.60169 0.61511 0.94408 0.0
C2456 C 0.60132 0.62706 0.95373 0.0
C2457 C 0.58793 0.63009 0.9481 0.0
C2458 C 0.57534 0.62625 0.96181 0.0
C2459 C 0.59518 0.6477 0.94213 0.0
C2460 C 0.58068 0.61781 0.9339 0.0
C2461 C 0.58891 0.60943 0.9317 0.0
C2462 C 0.58464 0.59764 0.91922 0.0
C2463 C 0.57146 0.59418 0.90883 0.0
C2464 C 0.56251 0.60226 0.91117 0.0
C2465 C 0.5674 0.61442 0.92372 0.0
H2466 H 0.98702 0.61535 0.9686 0.0
H2467 H 0.03757 0.65081 0.98122 0.0
H2468 H 0.04671 0.64068 0.9576 0.0
H2469 H 0.99298 0.5825 0.95552 0.0
H2470 H 0.97836 0.57594 0.9388 0.0
H2471 H 0.97591 0.58575 0.9569 0.0
H2472 H 0.97534 0.60755 0.93867 0.0
H2473 H 0.97775 0.59779 0.92052 0.0
H2474 H 0.992 0.61917 0.92481 0.0
H2475 H 0.0502 0.6261 0.93284 0.0
H2476 H 0.04772 0.6095 0.9079 0.0
H2477 H 0.99484 0.58469 0.91105 0.0
C2478 C 3e-05 0.62094 0.96648 0.0
C2479 C 0.0116 0.63379 0.97682 0.0
C2480 C 0.02849 0.64094 0.97345 0.0
C2481 C 0.03379 0.63524 0.96011 0.0
C2482 C 0.02204 0.62252 0.95018 0.0
C2483 C 0.0055 0.61556 0.95314 0.0
C2484 C 0.99531 0.60243 0.94036 0.0
C2485 C 0.98504 0.58566 0.94838 0.0
C2486 C 0.98446 0.60702 0.93051 0.0
C2487 C 0.00868 0.60299 0.92977 0.0
C2488 C 0.02402 0.61456 0.93568 0.0
C2489 C 0.03825 0.6171 0.92803 0.0
C2490 C 0.03673 0.60765 0.91389 0.0
C2491 C 0.02109 0.59599 0.90743 0.0
C2492 C 0.00694 0.59361 0.91561 0.0
H2493 H 0.36107 0.40324 0.97103 0.0
H2494 H 0.38904 0.38176 0.95279 0.0
H2495 H 0.39738 0.39965 0.9287 0.0
H2496 H 0.34628 0.40716 0.93247 0.0
H2497 H 0.34812 0.42661 0.93738 0.0
H2498 H 0.34487 0.41261 0.95357 0.0
H2499 H 0.37094 0.43504 0.96875 0.0
H2500 H 0.37426 0.44914 0.9526 0.0
H2501 H 0.39015 0.44498 0.95801 0.0
H2502 H 0.40082 0.41817 0.90554 0.0
H2503 H 0.40026 0.43712 0.88553 0.0
H2504 H 0.37191 0.44821 0.91974 0.0
C2505 C 0.36904 0.40239 0.96202 0.0
C2506 C 0.37437 0.39107 0.96375 0.0
C2507 C 0.38484 0.39037 0.95174 0.0
C2508 C 0.38964 0.40047 0.93801 0.0
C2509 C 0.38407 0.4114 0.93659 0.0
C2510 C 0.37416 0.41258 0.94835 0.0
C2511 C 0.36978 0.42526 0.94378 0.0
C2512 C 0.35116 0.41744 0.94167 0.0
C2513 C 0.3767 0.43944 0.95654 0.0
C2514 C 0.37845 0.43074 0.92742 0.0
C2515 C 0.38659 0.42256 0.92349 0.0
C2516 C 0.39467 0.42482 0.90857 0.0
C2517 C 0.39429 0.4356 0.89729 0.0
C2518 C 0.38598 0.44409 0.90101 0.0
C2519 C 0.37828 0.44185 0.91647 0.0
H2520 H 0.63117 0.01198 0.95954 0.0
H2521 H 0.61742 0.9625 0.97242 0.0
H2522 H 0.59859 0.95177 0.94827 0.0
H2523 H 0.59195 0.00343 0.94602 0.0
H2524 H 0.59983 0.01766 0.92937 0.0
H2525 H 0.61216 0.02128 0.94754 0.0
H2526 H 0.63541 0.02276 0.92951 0.0
H2527 H 0.62318 0.01923 0.91126 0.0
H2528 H 0.63105 0.00598 0.91556 0.0
H2529 H 0.58015 0.94662 0.92339 0.0
H2530 H 0.56553 0.94754 0.8986 0.0
H2531 H 0.59275 0.00058 0.90169 0.0
C2532 C 0.62422 0.99887 0.95732 0.0
C2533 C 0.62567 0.98804 0.96792 0.0
C2534 C 0.61649 0.971 0.96444 0.0
C2535 C 0.60575 0.96481 0.95081 0.0
C2536 C 0.6045 0.97586 0.94073 0.0
C2537 C 0.61364 0.99254 0.94374 0.0
C2538 C 0.61035 0.00191 0.93097 0.0
C2539 C 0.60314 0.01164 0.93896 0.0
C2540 C 0.62592 0.01313 0.92125 0.0
C2541 C 0.59782 0.9879 0.92029 0.0
C2542 C 0.59448 0.97295 0.92615 0.0
C2543 C 0.58288 0.95826 0.91855 0.0
C2544 C 0.57467 0.9589 0.90446 0.0
C2545 C 0.57834 0.97414 0.89796 0.0
C2546 C 0.58992 0.98877 0.90618 0.0
H2547 H 0.64462 0.02933 0.05494 0.0
H2548 H 0.61513 0.97631 0.05565 0.0
H2549 H 0.60055 0.97808 0.08004 0.0
H2550 H 0.64877 0.0364 0.09849 0.0
H2551 H 0.64698 0.05437 0.09811 0.0
H2552 H 0.65507 0.04903 0.08055 0.0
H2553 H 0.63309 0.04902 0.06169 0.0
H2554 H 0.62495 0.05441 0.07919 0.0
H2555 H 0.61177 0.03645 0.06679 0.0
H2556 H 0.59028 0.98545 0.10518 0.0
H2557 H 0.58385 0.9981 0.12864 0.0
H2558 H 0.61834 0.0463 0.11041 0.0
C2559 C 0.63507 0.01811 0.06023 0.0
C2560 C 0.63104 0.00268 0.05346 0.0
C2561 C 0.61839 0.98827 0.06062 0.0
C2562 C 0.61005 0.98913 0.07449 0.0
C2563 C 0.61435 0.00451 0.08091 0.0
C2564 C 0.62642 0.01875 0.07394 0.0
C2565 C 0.62849 0.03371 0.08319 0.0
C2566 C 0.64586 0.04398 0.09052 0.0
C2567 C 0.62432 0.044 0.07205 0.0
C2568 C 0.61588 0.02562 0.09658 0.0
C2569 C 0.60794 0.00877 0.09509 0.0
C2570 C 0.5963 0.99864 0.10641 0.0
C2571 C 0.59273 0.00592 0.11968 0.0
C2572 C 0.60069 0.02317 0.12147 0.0
C2573 C 0.61219 0.03309 0.10954 0.0
H2574 H 0.97255 0.61733 0.05662 0.0
H2575 H 0.02393 0.647 0.06995 0.0
H2576 H 0.0195 0.62924 0.0936 0.0
H2577 H 0.95618 0.6079 0.0976 0.0
H2578 H 0.9409 0.58703 0.09242 0.0
H2579 H 0.94796 0.60244 0.07692 0.0
H2580 H 0.95574 0.58511 0.05817 0.0
H2581 H 0.94874 0.56966 0.07364 0.0
H2582 H 0.96933 0.57876 0.06602 0.0
H2583 H 0.00937 0.60889 0.11618 0.0
H2584 H 0.99447 0.58636 0.13556 0.0
H2585 H 0.95026 0.56825 0.10605 0.0
C2586 C 0.98279 0.62013 0.06464 0.0
C2587 C 0.99854 0.6336 0.06165 0.0
C2588 C 0.01176 0.63674 0.07213 0.0
C2589 C 0.00937 0.62674 0.08557 0.0
C2590 C 0.99373 0.61348 0.08815 0.0
C2591 C 0.9807 0.61002 0.0779 0.0
C2592 C 0.96531 0.59458 0.08303 0.0
C2593 C 0.95179 0.59821 0.08778 0.0
C2594 C 0.95944 0.58124 0.0694 0.0
C2595 C 0.97168 0.59011 0.09795 0.0
C2596 C 0.98807 0.60124 0.10073 0.0
C2597 C 0.99655 0.60003 0.11409 0.0
C2598 C 0.98799 0.58719 0.12502 0.0
C2599 C 0.97116 0.57564 0.12247 0.0
C2600 C 0.96304 0.57699 0.10851 0.0
H2601 H 0.39212 0.38975 0.06172 0.0
H2602 H 0.40407 0.3619 0.02739 0.0
H2603 H 0.42484 0.36375 0.047 0.0
H2604 H 0.4333 0.41658 0.07878 0.0
H2605 H 0.42603 0.41583 0.09947 0.0
H2606 H 0.41328 0.41377 0.08209 0.0
H2607 H 0.39011 0.3862 0.09314 0.0
H2608 H 0.40276 0.38817 0.11054 0.0
H2609 H 0.3943 0.37014 0.09737 0.0
H2610 H 0.44365 0.36787 0.07058 0.0
H2611 H 0.45768 0.37209 0.09746 0.0
H2612 H 0.43231 0.39578 0.11706 0.0
C2613 C 0.39932 0.3843 0.05824 0.0
C2614 C 0.39664 0.37583 0.043 0.0
C2615 C 0.40598 0.36848 0.03901 0.0
C2616 C 0.41785 0.36953 0.05002 0.0
C2617 C 0.42009 0.37783 0.06503 0.0
C2618 C 0.411 0.38497 0.06922 0.0
C2619 C 0.41488 0.392 0.08666 0.0
C2620 C 0.42232 0.41066 0.08675 0.0
C2621 C 0.39961 0.38362 0.09757 0.0
C2622 C 0.42744 0.38755 0.09166 0.0
C2623 C 0.43046 0.37961 0.07891 0.0
C2624 C 0.44141 0.37409 0.08065 0.0
C2625 C 0.44929 0.37651 0.09593 0.0
C2626 C 0.446 0.38417 0.10931 0.0
C2627 C 0.43507 0.38991 0.10703 0.0
H2628 H 0.62898 0.69105 0.3788 0.0
H2629 H 0.68113 0.71996 0.38919 0.0
H2630 H 0.676 0.73478 0.4115 0.0
H2631 H 0.62079 0.72363 0.38538 0.0
H2632 H 0.6012 0.71084 0.39479 0.0
H2633 H 0.60887 0.70217 0.37988 0.0
H2634 H 0.60576 0.68069 0.40102 0.0
H2635 H 0.59805 0.68928 0.41598 0.0
H2636 H 0.61551 0.68746 0.42098 0.0
H2637 H 0.66529 0.7461 0.43291 0.0
H2638 H 0.64973 0.75402 0.45141 0.0
H2639 H 0.6046 0.7185 0.42659 0.0
C2640 C 0.63931 0.70045 0.38582 0.0
C2641 C 0.65546 0.70433 0.3823 0.0
C2642 C 0.66866 0.71679 0.39167 0.0
C2643 C 0.66588 0.72526 0.40438 0.0
C2644 C 0.64983 0.72117 0.4075 0.0
C2645 C 0.63677 0.70911 0.39848 0.0
C2646 C 0.62075 0.70734 0.40418 0.0
C2647 C 0.61242 0.71123 0.39022 0.0
C2648 C 0.60935 0.69017 0.41094 0.0
C2649 C 0.62688 0.72031 0.4178 0.0
C2650 C 0.64368 0.72807 0.41956 0.0
C2651 C 0.65215 0.74025 0.43153 0.0
C2652 C 0.64322 0.74472 0.44192 0.0
C2653 C 0.62601 0.73721 0.4401 0.0
C2654 C 0.61778 0.7247 0.42799 0.0
H2655 H 0.29723 0.93923 0.38895 0.0
H2656 H 0.25513 0.94547 0.38727 0.0
H2657 H 0.24001 0.92185 0.40514 0.0
H2658 H 0.27674 0.89639 0.38708 0.0
H2659 H 0.29104 0.89509 0.40062 0.0
H2660 H 0.29769 0.91294 0.38831 0.0
H2661 H 0.30798 0.93149 0.41441 0.0
H2662 H 0.30151 0.91383 0.42698 0.0
H2663 H 0.29418 0.92765 0.43126 0.0
H2664 H 0.22333 0.89328 0.4221 0.0
H2665 H 0.21603 0.86517 0.44167 0.0
H2666 H 0.27577 0.87955 0.43245 0.0
C2667 C 0.28486 0.93558 0.39248 0.0
C2668 C 0.27735 0.94414 0.38671 0.0
C2669 C 0.26117 0.93914 0.39153 0.0
C2670 C 0.25245 0.92571 0.40166 0.0
C2671 C 0.26001 0.9174 0.40705 0.0
C2672 C 0.27616 0.92213 0.40274 0.0
C2673 C 0.28285 0.91158 0.4096 0.0
C2674 C 0.28734 0.90353 0.39557 0.0
C2675 C 0.2975 0.92174 0.42125 0.0
C2676 C 0.26858 0.89887 0.41899 0.0
C2677 C 0.25295 0.9032 0.41711 0.0
C2678 C 0.2327 0.89034 0.42454 0.0
C2679 C 0.2278 0.8724 0.43588 0.0
C2680 C 0.24611 0.87105 0.44176 0.0
C2681 C 0.2657 0.88146 0.42999 0.0
H2682 H 0.06511 0.33486 0.3923 0.0
H2683 H 0.06784 0.37536 0.36572 0.0
H2684 H 0.08999 0.39491 0.38442 0.0
H2685 H 0.07124 0.3536 0.43249 0.0
H2686 H 0.08315 0.34521 0.44013 0.0
H2687 H 0.06795 0.33438 0.42425 0.0
H2688 H 0.08993 0.33413 0.40549 0.0
H2689 H 0.1052 0.34496 0.42132 0.0
H2690 H 0.10824 0.35317 0.40092 0.0
H2691 H 0.11177 0.41006 0.40606 0.0
H2692 H 0.13127 0.41968 0.42961 0.0
H2693 H 0.1134 0.3693 0.44264 0.0
C2694 C 0.07046 0.34783 0.39033 0.0
C2695 C 0.06483 0.35359 0.37751 0.0
C2696 C 0.07197 0.37068 0.37548 0.0
C2697 C 0.08457 0.38188 0.38601 0.0
C2698 C 0.08978 0.3758 0.39859 0.0
C2699 C 0.0829 0.35919 0.40086 0.0
C2700 C 0.09036 0.35587 0.41567 0.0
C2701 C 0.0774 0.34673 0.42892 0.0
C2702 C 0.09894 0.34648 0.41054 0.0
C2703 C 0.10257 0.37321 0.42128 0.0
C2704 C 0.10211 0.38453 0.41124 0.0
C2705 C 0.1123 0.40132 0.41398 0.0
C2706 C 0.12333 0.40666 0.42732 0.0
C2707 C 0.1241 0.39526 0.43769 0.0
C2708 C 0.11336 0.37832 0.43472 0.0
H2709 H 0.05497 0.33326 0.28928 0.0
H2710 H 0.01882 0.28667 0.30956 0.0
H2711 H 0.02669 0.27226 0.28934 0.0
H2712 H 0.04874 0.31939 0.24681 0.0
H2713 H 0.07004 0.33168 0.24157 0.0
H2714 H 0.06175 0.33841 0.25781 0.0
H2715 H 0.08379 0.34044 0.27807 0.0
H2716 H 0.09212 0.33366 0.26191 0.0
H2717 H 0.0858 0.32279 0.28098 0.0
H2718 H 0.03823 0.26284 0.26694 0.0
H2719 H 0.05254 0.25899 0.24338 0.0
H2720 H 0.08105 0.31157 0.23737 0.0
C2721 C 0.04874 0.32003 0.28948 0.0
C2722 C 0.0363 0.31109 0.30102 0.0
C2723 C 0.02837 0.29378 0.30083 0.0
C2724 C 0.03277 0.28547 0.28941 0.0
C2725 C 0.04508 0.29464 0.27822 0.0
C2726 C 0.05292 0.31152 0.2781 0.0
C2727 C 0.06557 0.31839 0.26457 0.0
C2728 C 0.06126 0.32751 0.25194 0.0
C2729 C 0.08284 0.32948 0.27182 0.0
C2730 C 0.06364 0.30273 0.25717 0.0
C2731 C 0.05177 0.28919 0.26526 0.0
C2732 C 0.04763 0.27335 0.26057 0.0
C2733 C 0.05584 0.27129 0.24723 0.0
C2734 C 0.06813 0.28498 0.2388 0.0
C2735 C 0.07195 0.3009 0.2438 0.0
H2736 H 0.666 0.7231 0.2927 0.0
H2737 H 0.70751 0.71993 0.30979 0.0
H2738 H 0.72542 0.74166 0.29054 0.0
H2739 H 0.678 0.7298 0.24971 0.0
H2740 H 0.67044 0.74354 0.24687 0.0
H2741 H 0.66101 0.72753 0.26171 0.0
H2742 H 0.66603 0.74909 0.28457 0.0
H2743 H 0.67558 0.76518 0.26984 0.0
H2744 H 0.68649 0.76599 0.28833 0.0
H2745 H 0.73893 0.76467 0.27013 0.0
H2746 H 0.74665 0.78614 0.24939 0.0
H2747 H 0.69596 0.77329 0.24533 0.0
C2748 C 0.67885 0.72692 0.29239 0.0
C2749 C 0.68538 0.71988 0.30281 0.0
C2750 C 0.70224 0.72513 0.30189 0.0
C2751 C 0.7125 0.73748 0.29103 0.0
C2752 C 0.70566 0.74429 0.28107 0.0
C2753 C 0.68918 0.73905 0.28154 0.0
C2754 C 0.68479 0.74824 0.26955 0.0
C2755 C 0.67286 0.73658 0.25617 0.0
C2756 C 0.67781 0.75768 0.27862 0.0
C2757 C 0.70144 0.75973 0.26248 0.0
C2758 C 0.71334 0.75729 0.26925 0.0
C2759 C 0.7297 0.76668 0.26476 0.0
C2760 C 0.73399 0.77887 0.25306 0.0
C2761 C 0.72198 0.78164 0.24605 0.0
C2762 C 0.70547 0.77172 0.25071 0.0
H2763 H 0.27602 0.94968 0.29993 0.0
H2764 H 0.28337 0.99752 0.31299 0.0
H2765 H 0.2625 0.99349 0.29239 0.0
H2766 H 0.27006 0.95173 0.25601 0.0
H2767 H 0.25469 0.93034 0.25401 0.0
H2768 H 0.27044 0.93714 0.26959 0.0
H2769 H 0.24828 0.92377 0.29205 0.0
H2770 H 0.23245 0.91702 0.27656 0.0
H2771 H 0.23283 0.92934 0.29393 0.0
H2772 H 0.24025 0.98394 0.27112 0.0
H2773 H 0.21867 0.96982 0.24976 0.0
H2774 H 0.22641 0.92861 0.24998 0.0
C2775 C 0.27329 0.95934 0.29839 0.0
C2776 C 0.28129 0.9739 0.30808 0.0
C2777 C 0.27741 0.98627 0.30569 0.0
C2778 C 0.26556 0.98409 0.29404 0.0
C2779 C 0.25779 0.96953 0.28481 0.0
C2780 C 0.26157 0.95742 0.28674 0.0
C2781 C 0.25139 0.94292 0.27526 0.0
C2782 C 0.2623 0.94039 0.26299 0.0
C2783 C 0.2406 0.92734 0.28504 0.0
C2784 C 0.24119 0.94873 0.26669 0.0
C2785 C 0.24505 0.96409 0.27241 0.0
C2786 C 0.2371 0.97191 0.26654 0.0
C2787 C 0.22485 0.96379 0.25449 0.0
C2788 C 0.22062 0.948 0.24849 0.0
C2789 C 0.22912 0.94053 0.25455 0.0
H2790 H 0.6924 0.97409 0.29413 0.0
H2791 H 0.68807 0.93627 0.32628 0.0
H2792 H 0.70642 0.93172 0.30805 0.0
H2793 H 0.69027 0.95257 0.2568 0.0
H2794 H 0.70432 0.97065 0.24577 0.0
H2795 H 0.69219 0.97199 0.26212 0.0
H2796 H 0.7185 0.99441 0.27698 0.0
H2797 H 0.73071 0.9932 0.26063 0.0
H2798 H 0.73463 0.99038 0.28168 0.0
H2799 H 0.72539 0.93156 0.28627 0.0
H2800 H 0.74205 0.93441 0.26187 0.0
H2801 H 0.73141 0.97025 0.24237 0.0
C2802 C 0.6956 0.96509 0.29742 0.0
C2803 C 0.68921 0.95573 0.31169 0.0
C2804 C 0.69312 0.94366 0.31545 0.0
C2805 C 0.70348 0.94101 0.30519 0.0
C2806 C 0.7095 0.95031 0.29105 0.0
C2807 C 0.70557 0.96199 0.28707 0.0
C2808 C 0.71267 0.96949 0.27059 0.0
C2809 C 0.69905 0.96596 0.25809 0.0
C2810 C 0.72485 0.98797 0.2726 0.0
C2811 C 0.7213 0.9603 0.26599 0.0
C2812 C 0.7195 0.94945 0.27803 0.0
C2813 C 0.72679 0.93995 0.2767 0.0
C2814 C 0.73622 0.94164 0.26272 0.0
C2815 C 0.73806 0.95257 0.25009 0.0
C2816 C 0.73029 0.96184 0.2518 0.0
H2817 H 0.03051 0.74221 0.30773 0.0
H2818 H 0.05983 0.72086 0.29382 0.0
H2819 H 0.06785 0.7367 0.26824 0.0
H2820 H 0.01524 0.74196 0.26851 0.0
H2821 H 0.01637 0.7614 0.27096 0.0
H2822 H 0.01388 0.74935 0.28875 0.0
H2823 H 0.03978 0.77373 0.30224 0.0
H2824 H 0.0423 0.78592 0.28451 0.0
H2825 H 0.0588 0.78315 0.29116 0.0
H2826 H 0.0701 0.75236 0.24288 0.0
H2827 H 0.0681 0.76838 0.22035 0.0
H2828 H 0.03918 0.78132 0.25165 0.0
C2829 C 0.03879 0.74104 0.2994 0.0
C2830 C 0.04452 0.73028 0.30271 0.0
C2831 C 0.05535 0.72909 0.29154 0.0
C2832 C 0.05996 0.73802 0.27698 0.0
C2833 C 0.05387 0.74831 0.27394 0.0
C2834 C 0.04374 0.75008 0.28495 0.0
C2835 C 0.03863 0.7617 0.27856 0.0
C2836 C 0.01992 0.75308 0.27658 0.0
C2837 C 0.04528 0.77704 0.28979 0.0
C2838 C 0.04702 0.76574 0.262 0.0
C2839 C 0.05575 0.75789 0.25957 0.0
C2840 C 0.06356 0.75881 0.24474 0.0
C2841 C 0.06234 0.76791 0.23202 0.0
C2842 C 0.05349 0.77609 0.23424 0.0
C2843 C 0.04601 0.7752 0.24958 0.0
H2844 H 0.28469 0.33834 0.29434 0.0
H2845 H 0.27501 0.2936 0.31768 0.0
H2846 H 0.25611 0.27735 0.29485 0.0
H2847 H 0.24389 0.32326 0.27747 0.0
H2848 H 0.25136 0.33419 0.25853 0.0
H2849 H 0.26321 0.34227 0.27728 0.0
H2850 H 0.28809 0.34325 0.26298 0.0
H2851 H 0.27634 0.3352 0.24421 0.0
H2852 H 0.28577 0.32489 0.2534 0.0
H2853 H 0.23834 0.26599 0.26943 0.0
H2854 H 0.22474 0.26043 0.24215 0.0
H2855 H 0.2474 0.31261 0.23465 0.0
C2856 C 0.27844 0.32512 0.29474 0.0
C2857 C 0.28119 0.31721 0.30784 0.0
C2858 C 0.27305 0.2999 0.30776 0.0
C2859 C 0.26225 0.29057 0.2949 0.0
C2860 C 0.25987 0.29875 0.28213 0.0
C2861 C 0.26783 0.31563 0.28187 0.0
C2862 C 0.26391 0.32143 0.26622 0.0
C2863 C 0.25506 0.33084 0.27012 0.0
C2864 C 0.27945 0.3318 0.25611 0.0
C2865 C 0.25258 0.30517 0.25767 0.0
C2866 C 0.25022 0.29223 0.26715 0.0
C2867 C 0.24018 0.27603 0.26185 0.0
C2868 C 0.23256 0.27299 0.24634 0.0
C2869 C 0.23527 0.28609 0.23618 0.0
C2870 C 0.24524 0.30236 0.24208 0.0
H2871 H 0.31233 0.3736 0.38653 0.0
H2872 H 0.28268 0.32319 0.40163 0.0
H2873 H 0.27351 0.3323 0.42597 0.0
H2874 H 0.32578 0.39146 0.42598 0.0
H2875 H 0.32467 0.40946 0.42202 0.0
H2876 H 0.32815 0.39891 0.40529 0.0
H2877 H 0.30291 0.39577 0.38967 0.0
H2878 H 0.29938 0.40638 0.40634 0.0
H2879 H 0.28333 0.3863 0.3997 0.0
H2880 H 0.26965 0.34712 0.4499 0.0
H2881 H 0.27024 0.36649 0.47104 0.0
H2882 H 0.30079 0.40706 0.4394 0.0
C2883 C 0.3038 0.36447 0.39489 0.0
C2884 C 0.29826 0.34769 0.39226 0.0
C2885 C 0.28705 0.3361 0.40341 0.0
C2886 C 0.28177 0.34116 0.41726 0.0
C2887 C 0.28762 0.35782 0.41961 0.0
C2888 C 0.29822 0.36928 0.40863 0.0
C2889 C 0.30289 0.38645 0.41416 0.0
C2890 C 0.32147 0.3972 0.41703 0.0
C2891 C 0.29676 0.39418 0.40173 0.0
C2892 C 0.29365 0.3829 0.43021 0.0
C2893 C 0.28491 0.3663 0.43312 0.0
C2894 C 0.27625 0.36012 0.44765 0.0
C2895 C 0.27667 0.37121 0.45958 0.0
C2896 C 0.2856 0.38827 0.45689 0.0
C2897 C 0.2939 0.3941 0.44183 0.0
H2898 H 0.66001 0.94858 0.40269 0.0
H2899 H 0.61993 0.9257 0.3673 0.0
H2900 H 0.60358 0.90402 0.38707 0.0
H2901 H 0.6536 0.91055 0.4215 0.0
H2902 H 0.6584 0.91957 0.44198 0.0
H2903 H 0.6678 0.93218 0.42435 0.0
H2904 H 0.65706 0.9512 0.43368 0.0
H2905 H 0.64764 0.93868 0.45131 0.0
H2906 H 0.63548 0.94257 0.43716 0.0
H2907 H 0.59074 0.88623 0.41121 0.0
H2908 H 0.5819 0.87399 0.43864 0.0
H2909 H 0.62989 0.90864 0.45879 0.0
C2910 C 0.64793 0.93879 0.39901 0.0
C2911 C 0.64126 0.93871 0.38345 0.0
C2912 C 0.62526 0.92595 0.37918 0.0
C2913 C 0.61592 0.91354 0.39028 0.0
C2914 C 0.62271 0.9141 0.40564 0.0
C2915 C 0.63833 0.9264 0.41006 0.0
C2916 C 0.64214 0.92493 0.42786 0.0
C2917 C 0.65633 0.92161 0.42898 0.0
C2918 C 0.64579 0.94025 0.4381 0.0
C2919 C 0.62611 0.91011 0.43283 0.0
C2920 C 0.61517 0.90392 0.41975 0.0
C2921 C 0.59928 0.89079 0.42149 0.0
C2922 C 0.59437 0.8839 0.43708 0.0
C2923 C 0.60532 0.89018 0.45072 0.0
C2924 C 0.62141 0.90339 0.44848 0.0
H2925 H 0.07118 0.70716 0.3795 0.0
H2926 H 0.04666 0.72995 0.4033 0.0
H2927 H 0.06241 0.73398 0.42885 0.0
H2928 H 0.07413 0.68643 0.41463 0.0
H2929 H 0.09441 0.6905 0.41003 0.0
H2930 H 0.081 0.68904 0.39358 0.0
H2931 H 0.1029 0.71785 0.38389 0.0
H2932 H 0.11639 0.7194 0.40031 0.0
H2933 H 0.11103 0.73494 0.39831 0.0
H2934 H 0.07937 0.7341 0.45217 0.0
H2935 H 0.09839 0.73235 0.47147 0.0
H2936 H 0.11442 0.71237 0.43204 0.0
C2937 C 0.06915 0.71295 0.39013 0.0
C2938 C 0.05767 0.71818 0.38951 0.0
C2939 C 0.05546 0.72592 0.40354 0.0
C2940 C 0.0643 0.72822 0.41811 0.0
C2941 C 0.07556 0.72301 0.41836 0.0
C2942 C 0.07823 0.71576 0.40471 0.0
C2943 C 0.09153 0.71185 0.40823 0.0
C2944 C 0.08486 0.69336 0.40652 0.0
C2945 C 0.10634 0.7216 0.39702 0.0
C2946 C 0.09562 0.71775 0.42605 0.0
C2947 C 0.08614 0.72399 0.43165 0.0
C2948 C 0.08704 0.72944 0.44789 0.0
C2949 C 0.0979 0.72842 0.45875 0.0
C2950 C 0.10791 0.72224 0.45331 0.0
C2951 C 0.10689 0.71708 0.43663 0.0
H2952 H 0.29355 0.02391 0.70507 0.0
H2953 H 0.34507 0.06077 0.71024 0.0
H2954 H 0.33882 0.07327 0.73381 0.0
H2955 H 0.27854 0.05146 0.71493 0.0
H2956 H 0.26103 0.03637 0.72604 0.0
H2957 H 0.26941 0.03005 0.7095 0.0
H2958 H 0.27274 0.01088 0.72931 0.0
H2959 H 0.26443 0.01718 0.74592 0.0
H2960 H 0.28424 0.01919 0.74823 0.0
H2961 H 0.32764 0.08082 0.7576 0.0
H2962 H 0.31175 0.08484 0.77902 0.0
H2963 H 0.26687 0.04459 0.7578 0.0
C2964 C 0.30347 0.03463 0.71116 0.0
C2965 C 0.3198 0.04134 0.70585 0.0
C2966 C 0.33246 0.05544 0.71405 0.0
C2967 C 0.32906 0.06261 0.72749 0.0
C2968 C 0.31291 0.05568 0.73249 0.0
C2969 C 0.30026 0.04215 0.72451 0.0
C2970 C 0.28395 0.03744 0.73233 0.0
C2971 C 0.27257 0.03893 0.71996 0.0
C2972 C 0.27587 0.02015 0.73936 0.0
C2973 C 0.28951 0.05038 0.74599 0.0
C2974 C 0.30628 0.06063 0.7459 0.0
C2975 C 0.31446 0.07307 0.75766 0.0
C2976 C 0.30524 0.07527 0.7698 0.0
C2977 C 0.28791 0.06527 0.76992 0.0
C2978 C 0.28003 0.05259 0.75786 0.0
H2979 H 0.93519 0.26355 0.71378 0.0
H2980 H 0.98158 0.2689 0.6991 0.0
H2981 H 0.97742 0.24749 0.7187 0.0
H2982 H 0.93967 0.25921 0.75625 0.0
H2983 H 0.9183 0.24465 0.75935 0.0
H2984 H 0.92438 0.25938 0.74328 0.0
H2985 H 0.90869 0.23593 0.72168 0.0
H2986 H 0.90252 0.22111 0.73771 0.0
H2987 H 0.9132 0.2197 0.71994 0.0
H2988 H 0.96836 0.22597 0.74069 0.0
H2989 H 0.95553 0.20671 0.76361 0.0
H2990 H 0.91597 0.21693 0.76441 0.0
C2991 C 0.94438 0.26007 0.71446 0.0
C2992 C 0.95864 0.26779 0.70478 0.0
C2993 C 0.97052 0.26309 0.70634 0.0
C2994 C 0.96825 0.25094 0.71741 0.0
C2995 C 0.95411 0.24372 0.7269 0.0
C2996 C 0.94242 0.24817 0.72555 0.0
C2997 C 0.92874 0.23926 0.73772 0.0
C2998 C 0.92773 0.25135 0.74987 0.0
C2999 C 0.91232 0.22835 0.72872 0.0
C3000 C 0.93456 0.22912 0.74621 0.0
C3001 C 0.94913 0.23171 0.73972 0.0
C3002 C 0.95689 0.22376 0.74576 0.0
C3003 C 0.94953 0.21284 0.75873 0.0
C3004 C 0.93459 0.21002 0.76554 0.0
C3005 C 0.92718 0.21848 0.75925 0.0
H3006 H 0.72209 0.66983 0.72795 0.0
H3007 H 0.72122 0.71 0.70446 0.0
H3008 H 0.74252 0.72955 0.72406 0.0
H3009 H 0.72769 0.68651 0.76989 0.0
H3010 H 0.74067 0.67873 0.77581 0.0
H3011 H 0.72509 0.66808 0.76021 0.0
H3012 H 0.74705 0.66995 0.73992 0.0
H3013 H 0.76272 0.68073 0.75539 0.0
H3014 H 0.76455 0.68969 0.73554 0.0
H3015 H 0.76524 0.74478 0.74534 0.0
H3016 H 0.78614 0.75419 0.76761 0.0
H3017 H 0.77075 0.7037 0.77769 0.0
C3018 C 0.72629 0.68274 0.72697 0.0
C3019 C 0.72006 0.68842 0.71465 0.0
C3020 C 0.72579 0.70538 0.71387 0.0
C3021 C 0.73791 0.71657 0.7249 0.0
C3022 C 0.74396 0.71055 0.73677 0.0
C3023 C 0.73816 0.69399 0.738 0.0
C3024 C 0.74657 0.69059 0.75186 0.0
C3025 C 0.73427 0.68038 0.76523 0.0
C3026 C 0.75577 0.68225 0.74527 0.0
C3027 C 0.75829 0.70785 0.75802 0.0
C3028 C 0.75666 0.71921 0.74917 0.0
C3029 C 0.76656 0.73597 0.75239 0.0
C3030 C 0.77842 0.7412 0.76498 0.0
C3031 C 0.78031 0.72973 0.77416 0.0
C3032 C 0.76986 0.71282 0.77073 0.0
H3033 H 0.69322 0.63018 0.63469 0.0
H3034 H 0.73036 0.68165 0.63732 0.0
H3035 H 0.74845 0.67631 0.61988 0.0
H3036 H 0.71835 0.61351 0.63748 0.0
H3037 H 0.70595 0.59649 0.62366 0.0
H3038 H 0.69672 0.6058 0.63556 0.0
H3039 H 0.68533 0.61101 0.60902 0.0
H3040 H 0.69433 0.6016 0.59684 0.0
H3041 H 0.69906 0.62209 0.59253 0.0
H3042 H 0.76875 0.66783 0.60351 0.0
H3043 H 0.78031 0.6494 0.58479 0.0
H3044 H 0.72324 0.598 0.59278 0.0
C3045 C 0.70515 0.64026 0.63145 0.0
C3046 C 0.71045 0.6563 0.63734 0.0
C3047 C 0.72606 0.66927 0.63292 0.0
C3048 C 0.73642 0.66635 0.62304 0.0
C3049 C 0.73103 0.65044 0.61752 0.0
C3050 C 0.71545 0.63726 0.62147 0.0
C3051 C 0.71116 0.62022 0.61464 0.0
C3052 C 0.70785 0.60831 0.62867 0.0
C3053 C 0.69661 0.61333 0.60254 0.0
C3054 C 0.72642 0.6239 0.60574 0.0
C3055 C 0.73997 0.6449 0.60776 0.0
C3056 C 0.7607 0.6549 0.60098 0.0
C3057 C 0.76827 0.64343 0.5902 0.0
C3058 C 0.75192 0.62211 0.58412 0.0
C3059 C 0.73205 0.61077 0.59529 0.0
H3060 H 0.33232 0.05388 0.61515 0.0
H3061 H 0.37409 0.05061 0.63124 0.0
H3062 H 0.39177 0.07254 0.61227 0.0
H3063 H 0.34454 0.06242 0.57176 0.0
H3064 H 0.33705 0.07634 0.57002 0.0
H3065 H 0.32747 0.05956 0.58402 0.0
H3066 H 0.33234 0.07997 0.60805 0.0
H3067 H 0.34208 0.09682 0.59418 0.0
H3068 H 0.3528 0.09663 0.61241 0.0
H3069 H 0.40528 0.09608 0.59302 0.0
H3070 H 0.41343 0.11889 0.5739 0.0
H3071 H 0.36285 0.1065 0.57001 0.0
C3072 C 0.34513 0.05759 0.61453 0.0
C3073 C 0.3518 0.05049 0.62471 0.0
C3074 C 0.36867 0.0558 0.62355 0.0
C3075 C 0.37883 0.06827 0.61282 0.0
C3076 C 0.37193 0.07524 0.60322 0.0
C3077 C 0.35545 0.06998 0.60384 0.0
C3078 C 0.3512 0.07983 0.59257 0.0
C3079 C 0.33937 0.06888 0.57877 0.0
C3080 C 0.34419 0.08885 0.6024 0.0
C3081 C 0.36794 0.09168 0.58583 0.0
C3082 C 0.37972 0.08879 0.59208 0.0
C3083 C 0.39616 0.09843 0.58799 0.0
C3084 C 0.40069 0.11139 0.57723 0.0
C3085 C 0.38885 0.11468 0.57078 0.0
C3086 C 0.37222 0.10448 0.57498 0.0
H3087 H 0.95037 0.28377 0.61893 0.0
H3088 H 0.94834 0.32566 0.63816 0.0
H3089 H 0.92746 0.32074 0.61729 0.0
H3090 H 0.94509 0.2897 0.57573 0.0
H3091 H 0.93249 0.26812 0.57104 0.0
H3092 H 0.94766 0.27513 0.58726 0.0
H3093 H 0.92529 0.25644 0.60784 0.0
H3094 H 0.91003 0.24944 0.59171 0.0
H3095 H 0.90749 0.25833 0.61049 0.0
H3096 H 0.90658 0.31122 0.59489 0.0
H3097 H 0.88697 0.29767 0.57183 0.0
H3098 H 0.9023 0.26194 0.56683 0.0
C3099 C 0.9456 0.29196 0.61866 0.0
C3100 C 0.95099 0.3051 0.63018 0.0
C3101 C 0.9444 0.3155 0.62948 0.0
C3102 C 0.93253 0.31282 0.61767 0.0
C3103 C 0.92735 0.29969 0.60661 0.0
C3104 C 0.93368 0.28944 0.60693 0.0
C3105 C 0.92577 0.27609 0.5937 0.0
C3106 C 0.93852 0.27735 0.58119 0.0
C3107 C 0.9166 0.25907 0.6014 0.0
C3108 C 0.914 0.28043 0.586 0.0
C3109 C 0.91514 0.29409 0.59366 0.0
C3110 C 0.90551 0.30047 0.58882 0.0
C3111 C 0.89438 0.29267 0.57578 0.0
C3112 C 0.89285 0.27857 0.56781 0.0
C3113 C 0.90297 0.27251 0.57291 0.0
H3114 H 0.33736 0.28566 0.61908 0.0
H3115 H 0.37688 0.3107 0.65486 0.0
H3116 H 0.3958 0.30859 0.63539 0.0
H3117 H 0.34944 0.25784 0.60196 0.0
H3118 H 0.34386 0.25949 0.58116 0.0
H3119 H 0.3332 0.26198 0.59832 0.0
H3120 H 0.34025 0.29038 0.58774 0.0
H3121 H 0.35087 0.28796 0.57053 0.0
H3122 H 0.36131 0.30565 0.5841 0.0
H3123 H 0.41048 0.30411 0.61179 0.0
H3124 H 0.42023 0.29933 0.58512 0.0
H3125 H 0.37136 0.27839 0.56448 0.0
C3126 C 0.34995 0.29053 0.6229 0.0
C3127 C 0.35564 0.29822 0.63853 0.0
C3128 C 0.37227 0.30473 0.64294 0.0
C3129 C 0.38308 0.30353 0.632 0.0
C3130 C 0.37709 0.29592 0.61666 0.0
C3131 C 0.36094 0.28964 0.61206 0.0
C3132 C 0.3578 0.28295 0.59451 0.0
C3133 C 0.34534 0.26447 0.59396 0.0
C3134 C 0.35223 0.2923 0.58358 0.0
C3135 C 0.37472 0.28649 0.58992 0.0
C3136 C 0.38563 0.2938 0.60292 0.0
C3137 C 0.40204 0.29838 0.60154 0.0
C3138 C 0.40746 0.29562 0.58638 0.0
C3139 C 0.39654 0.2885 0.57279 0.0
C3140 C 0.37995 0.28378 0.57469 0.0
H3141 H 0.70409 0.07215 0.62384 0.0
H3142 H 0.7267 0.04636 0.60251 0.0
H3143 H 0.73396 0.06347 0.57781 0.0
H3144 H 0.68648 0.07593 0.58769 0.0
H3145 H 0.69043 0.09626 0.59236 0.0
H3146 H 0.68807 0.08284 0.60884 0.0
H3147 H 0.7164 0.10457 0.62082 0.0
H3148 H 0.71881 0.11813 0.60442 0.0
H3149 H 0.73415 0.11268 0.60783 0.0
H3150 H 0.73592 0.08119 0.55432 0.0
H3151 H 0.73447 0.09983 0.53452 0.0
H3152 H 0.71244 0.11551 0.57196 0.0
C3153 C 0.71075 0.07025 0.61406 0.0
C3154 C 0.71479 0.05791 0.61502 0.0
C3155 C 0.72355 0.0558 0.60202 0.0
C3156 C 0.72769 0.06544 0.58795 0.0
C3157 C 0.72326 0.07731 0.58725 0.0
C3158 C 0.71522 0.07994 0.60007 0.0
C3159 C 0.71157 0.09326 0.59611 0.0
C3160 C 0.69304 0.08667 0.59626 0.0
C3161 C 0.72079 0.10804 0.608 0.0
C3162 C 0.71834 0.09734 0.57885 0.0
C3163 C 0.72502 0.088 0.57396 0.0
C3164 C 0.731 0.08879 0.55811 0.0
C3165 C 0.73009 0.09937 0.54695 0.0
C3166 C 0.7234 0.10914 0.55173 0.0
C3167 C 0.71767 0.10823 0.56799 0.0
H3168 H 0.93491 0.64135 0.63592 0.0
H3169 H 0.95904 0.68875 0.61276 0.0
H3170 H 0.94106 0.67664 0.5884 0.0
H3171 H 0.92909 0.61712 0.59973 0.0
H3172 H 0.90905 0.60071 0.60521 0.0
H3173 H 0.92358 0.61307 0.62113 0.0
H3174 H 0.90269 0.62006 0.63352 0.0
H3175 H 0.88808 0.60768 0.61765 0.0
H3176 H 0.89385 0.62882 0.62059 0.0
H3177 H 0.92214 0.65926 0.56581 0.0
H3178 H 0.9019 0.63784 0.54693 0.0
H3179 H 0.88809 0.60205 0.58533 0.0
C3180 C 0.93634 0.64917 0.62574 0.0
C3181 C 0.94841 0.66599 0.62622 0.0
C3182 C 0.94984 0.67585 0.61271 0.0
C3183 C 0.93971 0.66909 0.59879 0.0
C3184 C 0.92801 0.65248 0.59865 0.0
C3185 C 0.92609 0.64266 0.61182 0.0
C3186 C 0.91243 0.62518 0.60845 0.0
C3187 C 0.91893 0.61332 0.60864 0.0
C3188 C 0.89843 0.62015 0.62079 0.0
C3189 C 0.90725 0.6267 0.59122 0.0
C3190 C 0.91648 0.64255 0.5858 0.0
C3191 C 0.91466 0.64685 0.56998 0.0
C3192 C 0.90313 0.6346 0.55935 0.0
C3193 C 0.89342 0.61827 0.56461 0.0
C3194 C 0.89536 0.61439 0.5809 0.0
H3195 H 0.95148 0.67898 0.72199 0.0
H3196 H 0.98723 0.7246 0.69983 0.0
H3197 H 0.98216 0.74005 0.72154 0.0
H3198 H 0.92306 0.69172 0.73576 0.0
H3199 H 0.91869 0.68092 0.75484 0.0
H3200 H 0.92421 0.67341 0.73688 0.0
H3201 H 0.94789 0.67408 0.75335 0.0
H3202 H 0.94245 0.68159 0.77134 0.0
H3203 H 0.96296 0.69288 0.76346 0.0
H3204 H 0.97366 0.75053 0.74593 0.0
H3205 H 0.96342 0.75535 0.77224 0.0
H3206 H 0.93424 0.70296 0.77921 0.0
C3207 C 0.95807 0.69221 0.7216 0.0
C3208 C 0.96965 0.70062 0.70918 0.0
C3209 C 0.97828 0.71794 0.70923 0.0
C3210 C 0.97545 0.72681 0.72147 0.0
C3211 C 0.96405 0.71816 0.73363 0.0
C3212 C 0.95557 0.70126 0.73386 0.0
C3213 C 0.94473 0.69498 0.74886 0.0
C3214 C 0.9266 0.68465 0.74377 0.0
C3215 C 0.94982 0.68532 0.7599 0.0
C3216 C 0.94852 0.711 0.75706 0.0
C3217 C 0.95955 0.72422 0.74798 0.0
C3218 C 0.96501 0.74028 0.75314 0.0
C3219 C 0.95916 0.7429 0.76808 0.0
C3220 C 0.94811 0.72954 0.77775 0.0
C3221 C 0.94266 0.7134 0.77205 0.0
H3222 H 0.32562 0.28024 0.73055 0.0
H3223 H 0.28538 0.26539 0.69607 0.0
H3224 H 0.26752 0.24204 0.71365 0.0
H3225 H 0.31564 0.23931 0.74278 0.0
H3226 H 0.32121 0.24544 0.76407 0.0
H3227 H 0.33125 0.26005 0.74802 0.0
H3228 H 0.32304 0.2795 0.7621 0.0
H3229 H 0.313 0.26498 0.77818 0.0
H3230 H 0.3018 0.27205 0.76646 0.0
H3231 H 0.25378 0.22098 0.73546 0.0
H3232 H 0.24471 0.20468 0.76081 0.0
H3233 H 0.29354 0.23407 0.78162 0.0
C3234 C 0.31313 0.2719 0.72658 0.0
C3235 C 0.30689 0.27449 0.7119 0.0
C3236 C 0.29038 0.26357 0.70727 0.0
C3237 C 0.28018 0.25025 0.71713 0.0
C3238 C 0.28665 0.24813 0.73163 0.0
C3239 C 0.30271 0.2587 0.73641 0.0
C3240 C 0.30629 0.25441 0.75316 0.0
C3241 C 0.31937 0.24951 0.75193 0.0
C3242 C 0.31133 0.26858 0.76571 0.0
C3243 C 0.2897 0.23986 0.75712 0.0
C3244 C 0.27859 0.2363 0.74445 0.0
C3245 C 0.26238 0.2236 0.74543 0.0
C3246 C 0.25734 0.21443 0.75984 0.0
C3247 C 0.26844 0.21811 0.77311 0.0
C3248 C 0.28484 0.23091 0.77162 0.0
H3249 H 0.72009 0.02171 0.70792 0.0
H3250 H 0.75472 0.06856 0.68724 0.0
H3251 H 0.77451 0.0734 0.70955 0.0
H3252 H 0.72786 0.03602 0.7493 0.0
H3253 H 0.72533 0.01742 0.75758 0.0
H3254 H 0.71475 0.01666 0.73891 0.0
H3255 H 0.72767 0.00185 0.72364 0.0
H3256 H 0.73827 0.00253 0.74231 0.0
H3257 H 0.7496 0.01102 0.72368 0.0
H3258 H 0.78995 0.07367 0.73474 0.0
H3259 H 0.79962 0.07003 0.76147 0.0
H3260 H 0.75378 0.02404 0.76705 0.0
C3261 C 0.73201 0.03278 0.70791 0.0
C3262 C 0.73607 0.04465 0.69576 0.0
C3263 C 0.75151 0.05927 0.6964 0.0
C3264 C 0.76281 0.06211 0.70898 0.0
C3265 C 0.75835 0.0503 0.72097 0.0
C3266 C 0.74328 0.03599 0.72063 0.0
C3267 C 0.74096 0.02602 0.73581 0.0
C3268 C 0.72636 0.02391 0.746 0.0
C3269 C 0.73901 0.00937 0.73107 0.0
C3270 C 0.75704 0.03698 0.74474 0.0
C3271 C 0.76698 0.0508 0.73587 0.0
C3272 C 0.78233 0.0628 0.74173 0.0
C3273 C 0.78773 0.06057 0.75701 0.0
C3274 C 0.77779 0.04644 0.7664 0.0
C3275 C 0.76208 0.03471 0.76014 0.0
H3276 H 0.0567 0.34411 0.04363 0.0
H3277 H 0.02201 0.30138 0.01513 0.0
H3278 H 0.03282 0.28524 0.0274 0.0
H3279 H 0.09121 0.33647 0.04483 0.0
H3280 H 0.09661 0.3448 0.06555 0.0
H3281 H 0.08735 0.35235 0.05159 0.0
H3282 H 0.06473 0.34588 0.07283 0.0
H3283 H 0.07347 0.33784 0.08676 0.0
H3284 H 0.05245 0.32531 0.08013 0.0
H3285 H 0.04115 0.26734 0.0462 0.0
H3286 H 0.05585 0.25766 0.07154 0.0
H3287 H 0.08838 0.31832 0.09102 0.0
C3288 C 0.05189 0.33149 0.03976 0.0
C3289 C 0.03884 0.32392 0.02831 0.0
C3290 C 0.0322 0.30731 0.02374 0.0
C3291 C 0.03825 0.29809 0.03064 0.0
C3292 C 0.05078 0.30555 0.04229 0.0
C3293 C 0.05773 0.32215 0.04712 0.0
C3294 C 0.07037 0.32823 0.06143 0.0
C3295 C 0.08739 0.34123 0.0555 0.0
C3296 C 0.06492 0.33469 0.07614 0.0
C3297 C 0.07028 0.31299 0.06594 0.0
C3298 C 0.05698 0.29757 0.0522 0.0
C3299 C 0.05038 0.27642 0.05444 0.0
C3300 C 0.05856 0.27015 0.07079 0.0
C3301 C 0.07616 0.28751 0.0821 0.0
C3302 C 0.07946 0.30873 0.08293 0.0
H3303 H 0.67922 0.70259 0.03721 0.0
H3304 H 0.6312 0.68414 0.05864 0.0
H3305 H 0.64171 0.70993 0.07478 0.0
H3306 H 0.70334 0.72517 0.07359 0.0
H3307 H 0.71858 0.74184 0.06171 0.0
H3308 H 0.70758 0.72147 0.05279 0.0
H3309 H 0.69848 0.73218 0.0283 0.0
H3310 H 0.70938 0.75255 0.03717 0.0
H3311 H 0.68789 0.7431 0.03236 0.0
H3312 H 0.65717 0.73792 0.08789 0.0
H3313 H 0.67595 0.76662 0.09607 0.0
H3314 H 0.71389 0.76688 0.06576 0.0
C3315 C 0.67096 0.70387 0.04546 0.0
C3316 C 0.6544 0.69132 0.04673 0.0
C3317 C 0.64392 0.69359 0.05747 0.0
C3318 C 0.64979 0.70816 0.06673 0.0
C3319 C 0.66614 0.72034 0.06506 0.0
C3320 C 0.67657 0.71837 0.05468 0.0
C3321 C 0.69334 0.73369 0.05445 0.0
C3322 C 0.70648 0.73034 0.06104 0.0
C3323 C 0.69751 0.74079 0.03704 0.0
C3324 C 0.69065 0.74464 0.06621 0.0
C3325 C 0.67493 0.73667 0.07227 0.0
C3326 C 0.66948 0.74435 0.0831 0.0
C3327 C 0.68028 0.76076 0.08758 0.0
C3328 C 0.69631 0.76951 0.08096 0.0
C3329 C 0.70163 0.76099 0.07061 0.0
H3330 H 0.29486 0.9629 0.04518 0.0
H3331 H 0.27706 0.9627 0.99587 0.0
H3332 H 0.24864 0.94592 0.00536 0.0
H3333 H 0.26409 0.92079 0.05368 0.0
H3334 H 0.26246 0.92501 0.07514 0.0
H3335 H 0.28145 0.93722 0.0645 0.0
H3336 H 0.28103 0.96344 0.07291 0.0
H3337 H 0.26194 0.9513 0.0834 0.0
H3338 H 0.26351 0.96507 0.06758 0.0
H3339 H 0.22228 0.93018 0.02025 0.0
H3340 H 0.1994 0.91381 0.03906 0.0
H3341 H 0.23413 0.92268 0.07831 0.0
C3342 C 0.28497 0.95924 0.03639 0.0
C3343 C 0.28814 0.96411 0.0198 0.0
C3344 C 0.2749 0.95903 0.00862 0.0
C3345 C 0.25872 0.94958 0.0139 0.0
C3346 C 0.25598 0.94514 0.03036 0.0
C3347 C 0.2687 0.94956 0.0414 0.0
C3348 C 0.26232 0.94265 0.05827 0.0
C3349 C 0.26791 0.93071 0.06318 0.0
C3350 C 0.26751 0.95644 0.07131 0.0
C3351 C 0.24405 0.93379 0.055 0.0
C3352 C 0.24069 0.93556 0.03886 0.0
C3353 C 0.22474 0.92866 0.03291 0.0
C3354 C 0.21185 0.91948 0.04368 0.0
C3355 C 0.21496 0.91719 0.06018 0.0
C3356 C 0.23133 0.92444 0.06586 0.0
H3357 H 0.33321 0.05494 0.99385 0.0
H3358 H 0.3008 0.00794 0.96979 0.0
H3359 H 0.28662 0.01976 0.95555 0.0
H3360 H 0.30304 0.06635 0.00031 0.0
H3361 H 0.31654 0.08768 0.99603 0.0
H3362 H 0.32471 0.0758 0.00415 0.0
H3363 H 0.34447 0.08379 0.97943 0.0
H3364 H 0.33634 0.0957 0.97124 0.0
H3365 H 0.33632 0.07982 0.95871 0.0
H3366 H 0.27525 0.03592 0.94454 0.0
H3367 H 0.26706 0.05583 0.93751 0.0
H3368 H 0.30704 0.09293 0.96767 0.0
C3369 C 0.32317 0.04719 0.98555 0.0
C3370 C 0.31814 0.03051 0.98296 0.0
C3371 C 0.30493 0.02075 0.97199 0.0
C3372 C 0.29677 0.02735 0.96379 0.0
C3373 C 0.30198 0.04377 0.96659 0.0
C3374 C 0.31487 0.05362 0.97713 0.0
C3375 C 0.31772 0.07085 0.97801 0.0
C3376 C 0.31536 0.07543 0.99567 0.0
C3377 C 0.33472 0.08327 0.97145 0.0
C3378 C 0.30425 0.06898 0.96652 0.0
C3379 C 0.29539 0.05325 0.96006 0.0
C3380 C 0.28209 0.04831 0.9495 0.0
C3381 C 0.27751 0.0597 0.9456 0.0
C3382 C 0.28615 0.07585 0.95231 0.0
C3383 C 0.29997 0.08062 0.96259 0.0
H3384 H 0.94324 0.28956 0.98482 0.0
H3385 H 0.99307 0.29903 0.98426 0.0
H3386 H 0.98381 0.27321 0.969 0.0
H3387 H 0.92372 0.24632 0.99077 0.0
H3388 H 0.90648 0.2411 0.97747 0.0
H3389 H 0.91696 0.26073 0.98798 0.0
H3390 H 0.92179 0.27515 0.96001 0.0
H3391 H 0.91139 0.25555 0.9494 0.0
H3392 H 0.93192 0.27067 0.94371 0.0
H3393 H 0.96959 0.24633 0.95472 0.0
H3394 H 0.9507 0.21914 0.94239 0.0
H3395 H 0.90983 0.22641 0.95159 0.0
C3396 C 0.95218 0.28619 0.98146 0.0
C3397 C 0.96889 0.29639 0.98576 0.0
C3398 C 0.9802 0.29151 0.98112 0.0
C3399 C 0.97509 0.27685 0.9724 0.0
C3400 C 0.95861 0.26713 0.96831 0.0
C3401 C 0.94727 0.27151 0.97266 0.0
C3402 C 0.93023 0.2585 0.96694 0.0
C3403 C 0.91867 0.25123 0.98167 0.0
C3404 C 0.92344 0.26538 0.95426 0.0
C3405 C 0.93381 0.24609 0.95896 0.0
C3406 C 0.9503 0.25144 0.95983 0.0
C3407 C 0.95666 0.24204 0.95379 0.0
C3408 C 0.94585 0.22665 0.94677 0.0
C3409 C 0.92886 0.22081 0.94575 0.0
C3410 C 0.9228 0.23072 0.95192 0.0
H3411 H 0.71359 0.663 0.98971 0.0
H3412 H 0.70435 0.70325 0.98838 0.0
H3413 H 0.73108 0.7205 0.97539 0.0
H3414 H 0.75682 0.68752 -0.00107 0.0
H3415 H 0.76219 0.67535 0.98602 0.0
H3416 H 0.74231 0.66606 0.99535 0.0
H3417 H 0.72865 0.65605 0.96653 0.0
H3418 H 0.74851 0.66537 0.95711 0.0
H3419 H 0.73374 0.67066 0.95045 0.0
H3420 H 0.75868 0.73352 0.96283 0.0
H3421 H 0.78582 0.74162 0.95145 0.0
H3422 H 0.77731 0.69303 0.96034 0.0
C3423 C 0.71723 0.67546 0.98675 0.0
C3424 C 0.70688 0.68178 0.99008 0.0
C3425 C 0.71206 0.69813 0.98593 0.0
C3426 C 0.72722 0.70804 0.97854 0.0
C3427 C 0.73708 0.70143 0.97531 0.0
C3428 C 0.73235 0.68555 0.97927 0.0
C3429 C 0.74532 0.68151 0.97438 0.0
C3430 C 0.75206 0.67737 0.98958 0.0
C3431 C 0.73865 0.66757 0.96134 0.0
C3432 C 0.75806 0.69763 0.96713 0.0
C3433 C 0.75302 0.70893 0.9678 0.0
C3434 C 0.76274 0.72477 0.96213 0.0
C3435 C 0.77809 0.72924 0.95565 0.0
C3436 C 0.78353 0.71788 0.95477 0.0
C3437 C 0.77334 0.70187 0.96063 0.0
H3438 H 0.95163 0.67158 0.00236 0.0
H3439 H 0.98967 0.67547 0.96988 0.0
H3440 H 0.98306 0.69067 0.95002 0.0
H3441 H 0.92259 0.66795 0.97078 0.0
H3442 H 0.91679 0.68077 0.98194 0.0
H3443 H 0.92348 0.66894 0.99301 0.0
H3444 H 0.94582 0.69535 0.00789 0.0
H3445 H 0.93922 0.70725 0.99684 0.0
H3446 H 0.96025 0.71239 0.99584 0.0
H3447 H 0.97217 0.70489 0.93358 0.0
H3448 H 0.95955 0.71989 0.9226 0.0
H3449 H 0.93039 0.70947 0.96685 0.0
C3450 C 0.95835 0.67546 0.99094 0.0
C3451 C 0.97099 0.67223 0.98744 0.0
C3452 C 0.97989 0.67781 0.97265 0.0
C3453 C 0.9762 0.68639 0.96131 0.0
C3454 C 0.96377 0.68955 0.96512 0.0
C3455 C 0.95511 0.68446 0.97964 0.0
C3456 C 0.94321 0.69058 0.9812 0.0
C3457 C 0.92546 0.6762 0.98176 0.0
C3458 C 0.94738 0.70208 0.99634 0.0
C3459 C 0.94654 0.69982 0.96527 0.0
C3460 C 0.95828 0.69884 0.9561 0.0
C3461 C 0.96315 0.70599 0.94075 0.0
C3462 C 0.956 0.71458 0.93467 0.0
C3463 C 0.94441 0.71636 0.94412 0.0
C3464 C 0.93948 0.70864 0.95952 0.0
H3465 H 0.3202 0.30914 0.96078 0.0
H3466 H 0.34577 0.29761 0.99743 0.0
H3467 H 0.32994 0.26846 0.98863 0.0
H3468 H 0.28141 0.27406 0.96475 0.0
H3469 H 0.27642 0.27152 0.94305 0.0
H3470 H 0.29031 0.29157 0.95161 0.0
H3471 H 0.31246 0.29524 0.93059 0.0
H3472 H 0.29854 0.27528 0.92181 0.0
H3473 H 0.31843 0.28006 0.9291 0.0
H3474 H 0.30974 0.24029 0.97721 0.0
H3475 H 0.2884 0.21555 0.96238 0.0
H3476 H 0.27741 0.24599 0.93219 0.0
C3477 C 0.32261 0.30051 0.96681 0.0
C3478 C 0.33417 0.30558 0.9798 0.0
C3479 C 0.33703 0.29397 0.98738 0.0
C3480 C 0.32805 0.27739 0.98252 0.0
C3481 C 0.31649 0.27273 0.96989 0.0
C3482 C 0.31397 0.284 0.96194 0.0
C3483 C 0.30086 0.27586 0.94871 0.0
C3484 C 0.2864 0.27841 0.95225 0.0
C3485 C 0.308 0.28197 0.93154 0.0
C3486 C 0.29607 0.25819 0.95077 0.0
C3487 C 0.30518 0.25661 0.96306 0.0
C3488 C 0.30258 0.24139 0.9675 0.0
C3489 C 0.29038 0.22741 0.9591 0.0
C3490 C 0.28088 0.22875 0.94644 0.0
C3491 C 0.28406 0.24443 0.94209 0.0
H3492 H 0.71726 0.06057 0.99294 0.0
H3493 H 0.69773 0.0105 0.97539 0.0
H3494 H 0.72358 0.01863 0.96112 0.0
H3495 H 0.74199 0.08083 0.9562 0.0
H3496 H 0.7586 0.09668 0.96833 0.0
H3497 H 0.7379 0.08741 0.9757 0.0
H3498 H 0.74665 0.07991 0.00284 0.0
H3499 H 0.76732 0.08914 0.99556 0.0
H3500 H 0.75666 0.06813 0.00187 0.0
H3501 H 0.75205 0.03138 0.95083 0.0
H3502 H 0.78167 0.0481 0.94543 0.0
H3503 H 0.7831 0.0899 0.96966 0.0
C3504 C 0.71833 0.05141 0.98581 0.0
C3505 C 0.70547 0.03492 0.98521 0.0
C3506 C 0.70744 0.02321 0.97604 0.0
C3507 C 0.72205 0.02771 0.96782 0.0
C3508 C 0.7346 0.04398 0.96888 0.0
C3509 C 0.73294 0.05568 0.97763 0.0
C3510 C 0.7488 0.07204 0.97783 0.0
C3511 C 0.74669 0.085 0.96898 0.0
C3512 C 0.75523 0.07762 0.99558 0.0
C3513 C 0.75967 0.06759 0.96812 0.0
C3514 C 0.75117 0.05138 0.96292 0.0
C3515 C 0.75878 0.04417 0.95455 0.0
C3516 C 0.77558 0.05375 0.9515 0.0
C3517 C 0.78455 0.07039 0.95676 0.0
C3518 C 0.77642 0.07734 0.96513 0.0
H3519 H 0.66793 0.94855 0.02754 0.0
H3520 H 0.6978 0.99508 0.05344 0.0
H3521 H 0.71342 0.98424 0.06673 0.0
H3522 H 0.66709 0.92254 0.0611 0.0
H3523 H 0.66848 0.90827 0.0472 0.0
H3524 H 0.65867 0.91918 0.04052 0.0
H3525 H 0.67823 0.93014 0.0156 0.0
H3526 H 0.68807 0.91927 0.0222 0.0
H3527 H 0.70003 0.94103 0.01917 0.0
H3528 H 0.72738 0.96954 0.07541 0.0
H3529 H 0.73848 0.95139 0.07938 0.0
H3530 H 0.69943 0.91396 0.0487 0.0
C3531 C 0.6776 0.95635 0.03619 0.0
C3532 C 0.68161 0.97265 0.03946 0.0
C3533 C 0.69449 0.98255 0.05071 0.0
C3534 C 0.70343 0.9765 0.05838 0.0
C3535 C 0.69933 0.96049 0.05476 0.0
C3536 C 0.68671 0.95049 0.044 0.0
C3537 C 0.68542 0.934 0.04172 0.0
C3538 C 0.66893 0.92018 0.04801 0.0
C3539 C 0.6881 0.93094 0.0236 0.0
C3540 C 0.69946 0.93646 0.05264 0.0
C3541 C 0.70727 0.95181 0.0601 0.0
C3542 C 0.72119 0.95734 0.06993 0.0
C3543 C 0.72737 0.94692 0.07216 0.0
C3544 C 0.71951 0.93106 0.06475 0.0
C3545 C 0.70537 0.92583 0.05489 0.0
H3546 H 0.02284 0.71886 0.04808 0.0
H3547 H 0.0641 0.71807 0.02609 0.0
H3548 H 0.08194 0.74744 0.03333 0.0
H3549 H 0.03253 0.75742 0.03391 0.0
H3550 H 0.02593 0.76332 0.05227 0.0
H3551 H 0.01679 0.74202 0.04655 0.0
H3552 H 0.02456 0.73614 0.07515 0.0
H3553 H 0.03373 0.75745 0.08098 0.0
H3554 H 0.04557 0.74754 0.08209 0.0
H3555 H 0.09472 0.77729 0.04117 0.0
H3556 H 0.10152 0.80534 0.04911 0.0
H3557 H 0.05195 0.78641 0.06625 0.0
C3558 C 0.03568 0.72479 0.04496 0.0
C3559 C 0.04211 0.71617 0.03655 0.0
C3560 C 0.05893 0.72442 0.03258 0.0
C3561 C 0.06915 0.74108 0.03666 0.0
C3562 C 0.06236 0.74925 0.04479 0.0
C3563 C 0.04602 0.74136 0.04895 0.0
C3564 C 0.04155 0.75305 0.05699 0.0
C3565 C 0.02843 0.75401 0.04682 0.0
C3566 C 0.03603 0.74826 0.07486 0.0
C3567 C 0.05787 0.76885 0.0564 0.0
C3568 C 0.06974 0.76639 0.04942 0.0
C3569 C 0.08558 0.77932 0.04685 0.0
C3570 C 0.08933 0.79518 0.05139 0.0
C3571 C 0.07731 0.79797 0.05845 0.0
C3572 C 0.06143 0.78457 0.0611 0.0
H3573 H 0.29928 0.35739 0.0299 0.0
H3574 H 0.32031 0.32921 0.04723 0.0
H3575 H 0.29415 0.30992 0.06045 0.0
H3576 H 0.27146 0.35043 0.06502 0.0
H3577 H 0.25525 0.34821 0.05172 0.0
H3578 H 0.2763 0.36128 0.04592 0.0
H3579 H 0.27052 0.34517 0.01817 0.0
H3580 H 0.24951 0.33208 0.02389 0.0
H3581 H 0.26182 0.32331 0.01833 0.0
H3582 H 0.26526 0.29239 0.06953 0.0
H3583 H 0.23519 0.27708 0.07265 0.0
H3584 H 0.23248 0.31581 0.04825 0.0
C3585 C 0.29846 0.34743 0.03691 0.0
C3586 C 0.31181 0.34488 0.03785 0.0
C3587 C 0.3102 0.33139 0.04655 0.0
C3588 C 0.29544 0.32043 0.05413 0.0
C3589 C 0.28235 0.32304 0.05271 0.0
C3590 C 0.28367 0.33615 0.04425 0.0
C3591 C 0.26725 0.33507 0.04291 0.0
C3592 C 0.26759 0.34961 0.05194 0.0
C3593 C 0.26197 0.33383 0.02475 0.0
C3594 C 0.25649 0.31922 0.05173 0.0
C3595 C 0.26549 0.3126 0.0575 0.0
C3596 C 0.25811 0.29757 0.06528 0.0
C3597 C 0.24107 0.28897 0.06702 0.0
C3598 C 0.23159 0.29542 0.06095 0.0
C3599 C 0.23948 0.31078 0.05332 0.0
H3600 H 0.71196 0.66731 0.35108 0.0
H3601 H 0.67096 0.64367 0.38451 0.0
H3602 H 0.6848 0.63154 0.39913 0.0
H3603 H 0.71889 0.63361 0.34784 0.0
H3604 H 0.74084 0.6463 0.3469 0.0
H3605 H 0.72809 0.6538 0.33944 0.0
H3606 H 0.74308 0.67916 0.35903 0.0
H3607 H 0.75585 0.67171 0.36656 0.0
H3608 H 0.7441 0.67632 0.38081 0.0
H3609 H 0.70266 0.62166 0.40994 0.0
H3610 H 0.72287 0.6133 0.4153 0.0
H3611 H 0.75239 0.64324 0.37493 0.0
C3612 C 0.70595 0.65965 0.36153 0.0
C3613 C 0.69039 0.65646 0.36668 0.0
C3614 C 0.68285 0.64624 0.38031 0.0
C3615 C 0.69064 0.63935 0.38875 0.0
C3616 C 0.70593 0.6427 0.38336 0.0
C3617 C 0.7135 0.65252 0.37003 0.0
C3618 C 0.72965 0.65354 0.36639 0.0
C3619 C 0.72934 0.64639 0.34912 0.0
C3620 C 0.74402 0.67124 0.36832 0.0
C3621 C 0.72996 0.64279 0.37979 0.0
C3622 C 0.71617 0.63672 0.38945 0.0
C3623 C 0.71347 0.62626 0.4024 0.0
C3624 C 0.72499 0.62155 0.40532 0.0
C3625 C 0.73898 0.62713 0.39526 0.0
C3626 C 0.74169 0.63834 0.38264 0.0
H3627 H 0.3193 0.04006 0.38369 0.0
H3628 H 0.35646 0.02681 0.37726 0.0
H3629 H 0.37717 0.05362 0.38937 0.0
H3630 H 0.34344 0.08072 0.37197 0.0
H3631 H 0.33484 0.08868 0.38664 0.0
H3632 H 0.32278 0.0679 0.37906 0.0
H3633 H 0.3179 0.05752 0.40904 0.0
H3634 H 0.32993 0.07831 0.41673 0.0
H3635 H 0.3352 0.06334 0.42247 0.0
H3636 H 0.39411 0.08278 0.40068 0.0
H3637 H 0.40571 0.11164 0.40998 0.0
H3638 H 0.35729 0.10548 0.40778 0.0
C3639 C 0.33172 0.04262 0.38504 0.0
C3640 C 0.33622 0.03126 0.37958 0.0
C3641 C 0.35269 0.03527 0.38143 0.0
C3642 C 0.36454 0.05047 0.3883 0.0
C3643 C 0.35969 0.06148 0.39328 0.0
C3644 C 0.34365 0.05769 0.39176 0.0
C3645 C 0.34168 0.0719 0.39713 0.0
C3646 C 0.33532 0.07764 0.38285 0.0
C3647 C 0.33052 0.0675 0.41224 0.0
C3648 C 0.35918 0.08445 0.40161 0.0
C3649 C 0.36939 0.07819 0.39953 0.0
C3650 C 0.38618 0.08773 0.40254 0.0
C3651 C 0.39265 0.10406 0.40783 0.0
C3652 C 0.38238 0.1107 0.40999 0.0
C3653 C 0.36544 0.10071 0.40667 0.0
H3654 H 0.9668 0.31078 0.35865 0.0
H3655 H 0.98397 0.28693 0.3913 0.0
H3656 H 0.95806 0.27509 0.40657 0.0
H3657 H 0.94371 0.31947 0.38957 0.0
H3658 H 0.92739 0.31505 0.37528 0.0
H3659 H 0.94791 0.32297 0.36787 0.0
H3660 H 0.93748 0.29819 0.34754 0.0
H3661 H 0.91697 0.29019 0.35491 0.0
H3662 H 0.92625 0.27774 0.35537 0.0
H3663 H 0.93006 0.26501 0.41765 0.0
H3664 H 0.90113 0.25601 0.42281 0.0
H3665 H 0.9019 0.28568 0.38227 0.0
C3666 C 0.96521 0.30329 0.36918 0.0
C3667 C 0.97743 0.29984 0.37384 0.0
C3668 C 0.97477 0.28972 0.3875 0.0
C3669 C 0.96013 0.283 0.39631 0.0
C3670 C 0.94824 0.28645 0.39126 0.0
C3671 C 0.95057 0.29631 0.37801 0.0
C3672 C 0.93537 0.29715 0.37447 0.0
C3673 C 0.93881 0.3147 0.37695 0.0
C3674 C 0.92862 0.29041 0.35704 0.0
C3675 C 0.92407 0.28598 0.38763 0.0
C3676 C 0.93181 0.28014 0.39731 0.0
C3677 C 0.92383 0.26946 0.4101 0.0
C3678 C 0.90738 0.26436 0.41288 0.0
C3679 C 0.89888 0.26962 0.40272 0.0
C3680 C 0.90762 0.28098 0.39018 0.0
H3681 H 0.00503 0.36445 0.29713 0.0
H3682 H 0.03165 0.39141 0.34128 0.0
H3683 H 0.03378 0.41646 0.33052 0.0
H3684 H 0.02884 0.39517 0.26962 0.0
H3685 H 0.01235 0.39155 0.25594 0.0
H3686 H 0.01079 0.3751 0.26792 0.0
H3687 H 0.98359 0.37023 0.2804 0.0
H3688 H 0.98501 0.38663 0.26836 0.0
H3689 H 0.98297 0.38699 0.29044 0.0
H3690 H 0.03584 0.43906 0.31403 0.0
H3691 H 0.03732 0.45794 0.29275 0.0
H3692 H 0.0092 0.41673 0.25915 0.0
C3693 C 0.01092 0.37554 0.30468 0.0
C3694 C 0.0181 0.37599 0.32007 0.0
C3695 C 0.02606 0.3908 0.32946 0.0
C3696 C 0.02728 0.40508 0.32349 0.0
C3697 C 0.02047 0.40438 0.30811 0.0
C3698 C 0.01236 0.39 0.29883 0.0
C3699 C 0.00734 0.39297 0.28212 0.0
C3700 C 0.01531 0.38843 0.26808 0.0
C3701 C 0.98861 0.38365 0.28023 0.0
C3702 C 0.01429 0.41129 0.28333 0.0
C3703 C 0.02167 0.41757 0.29849 0.0
C3704 C 0.02988 0.43429 0.3022 0.0
C3705 C 0.03069 0.44491 0.29003 0.0
C3706 C 0.02334 0.4388 0.27433 0.0
C3707 C 0.01483 0.42172 0.27108 0.0
H3708 H 0.63502 0.62659 0.31611 0.0
H3709 H 0.60601 0.64591 0.29656 0.0
H3710 H 0.59146 0.62179 0.27808 0.0
H3711 H 0.64061 0.6096 0.27939 0.0
H3712 H 0.63954 0.59238 0.28954 0.0
H3713 H 0.64672 0.61144 0.30072 0.0
H3714 H 0.62481 0.59664 0.32288 0.0
H3715 H 0.61741 0.57742 0.31194 0.0
H3716 H 0.60357 0.58456 0.31688 0.0
H3717 H 0.57806 0.59547 0.25616 0.0
H3718 H 0.56818 0.56383 0.24092 0.0
H3719 H 0.60943 0.56056 0.27984 0.0
C3720 C 0.62557 0.62562 0.3079 0.0
C3721 C 0.62165 0.63809 0.30772 0.0
C3722 C 0.60919 0.63649 0.29696 0.0
C3723 C 0.60089 0.62286 0.28637 0.0
C3724 C 0.60498 0.61078 0.28671 0.0
C3725 C 0.61714 0.61181 0.29742 0.0
C3726 C 0.6202 0.59733 0.29654 0.0
C3727 C 0.63781 0.60303 0.29123 0.0
C3728 C 0.61627 0.58847 0.31304 0.0
C3729 C 0.6083 0.58644 0.28347 0.0
C3730 C 0.5979 0.596 0.27685 0.0
C3731 C 0.58345 0.58847 0.26018 0.0
C3732 C 0.5779 0.56933 0.25006 0.0
C3733 C 0.58569 0.55735 0.26084 0.0
C3734 C 0.60415 0.56725 0.27469 0.0
H3735 H 0.37127 0.00455 0.32385 0.0
H3736 H 0.3455 0.95194 0.32987 0.0
H3737 H 0.36847 0.95089 0.31669 0.0
H3738 H 0.38808 0.00532 0.2845 0.0
H3739 H 0.40729 0.02379 0.28889 0.0
H3740 H 0.389 0.02034 0.29908 0.0
H3741 H 0.40296 0.02404 0.32757 0.0
H3742 H 0.42134 0.02761 0.31746 0.0
H3743 H 0.41172 0.01166 0.33237 0.0
H3744 H 0.39431 0.95578 0.30217 0.0
H3745 H 0.42111 0.96636 0.28846 0.0
H3746 H 0.42953 0.01564 0.29251 0.0
C3747 C 0.37046 0.99279 0.32246 0.0
C3748 C 0.3566 0.97831 0.32785 0.0
C3749 C 0.35604 0.96319 0.32585 0.0
C3750 C 0.369 0.96248 0.31835 0.0
C3751 C 0.38243 0.977 0.31303 0.0
C3752 C 0.38327 0.99188 0.31512 0.0
C3753 C 0.39902 0.00574 0.30843 0.0
C3754 C 0.39563 0.0143 0.29439 0.0
C3755 C 0.40937 0.01798 0.32228 0.0
C3756 C 0.40687 0.99635 0.30206 0.0
C3757 C 0.39717 0.97979 0.3048 0.0
C3758 C 0.40199 0.96873 0.29993 0.0
C3759 C 0.41715 0.97481 0.29211 0.0
C3760 C 0.42722 0.99176 0.28918 0.0
C3761 C 0.42197 0.00259 0.29435 0.0
H3762 H 0.60567 0.96279 0.31031 0.0
H3763 H 0.65504 0.00409 0.30591 0.0
H3764 H 0.64419 0.02001 0.293 0.0
H3765 H 0.58803 0.96944 0.27235 0.0
H3766 H 0.56898 0.96377 0.2824 0.0
H3767 H 0.58076 0.95472 0.28857 0.0
H3768 H 0.58108 0.96437 0.31876 0.0
H3769 H 0.5694 0.9735 0.31269 0.0
H3770 H 0.58877 0.98576 0.32318 0.0
H3771 H 0.62787 0.03226 0.28311 0.0
H3772 H 0.60728 0.04034 0.27831 0.0
H3773 H 0.56861 0.99154 0.29066 0.0
C3774 C 0.61422 0.975 0.30613 0.0
C3775 C 0.6312 0.98215 0.30883 0.0
C3776 C 0.64199 0.99837 0.30379 0.0
C3777 C 0.63594 0.00747 0.2964 0.0
C3778 C 0.61908 0.0002 0.29428 0.0
C3779 C 0.60836 0.98434 0.29904 0.0
C3780 C 0.59075 0.98005 0.29723 0.0
C3781 C 0.58159 0.96617 0.28437 0.0
C3782 C 0.582 0.97567 0.31396 0.0
C3783 C 0.59324 0.99609 0.2911 0.0
C3784 C 0.60965 0.00746 0.28918 0.0
C3785 C 0.61498 0.0234 0.28439 0.0
C3786 C 0.60324 0.02789 0.28172 0.0
C3787 C 0.5864 0.01654 0.28406 0.0
C3788 C 0.58139 0.0004 0.28861 0.0
H3789 H 0.02405 0.64276 0.32525 0.0
H3790 H 0.98383 0.64756 0.30696 0.0
H3791 H 0.97182 0.62042 0.29329 0.0
H3792 H 0.02754 0.62165 0.28897 0.0
H3793 H 0.03195 0.60845 0.30074 0.0
H3794 H 0.03778 0.62856 0.3087 0.0
H3795 H 0.02156 0.61583 0.33541 0.0
H3796 H 0.01573 0.59572 0.32755 0.0
H3797 H 0.00024 0.6002 0.33391 0.0
H3798 H 0.9634 0.59228 0.28272 0.0
H3799 H 0.95937 0.56504 0.27572 0.0
H3800 H 0.00519 0.57856 0.3003 0.0
C3801 C 0.01277 0.63814 0.31829 0.0
C3802 C 0.00489 0.6473 0.31717 0.0
C3803 C 0.9901 0.64078 0.308 0.0
C3804 C 0.98318 0.62538 0.30015 0.0
C3805 C 0.9912 0.61663 0.30154 0.0
C3806 C 0.00568 0.62276 0.31035 0.0
C3807 C 0.01157 0.61065 0.31022 0.0
C3808 C 0.0282 0.61776 0.30164 0.0
C3809 C 0.01231 0.60528 0.32782 0.0
C3810 C 0.99808 0.59675 0.30009 0.0
C3811 C 0.98647 0.60047 0.29518 0.0
C3812 C 0.97253 0.5893 0.28627 0.0
C3813 C 0.97038 0.5739 0.28229 0.0
C3814 C 0.98221 0.56987 0.28706 0.0
C3815 C 0.99618 0.58148 0.29613 0.0
H3816 H 0.36361 0.34964 0.31714 0.0
H3817 H 0.37104 0.39797 0.32741 0.0
H3818 H 0.39826 0.41047 0.3145 0.0
H3819 H 0.40502 0.35941 0.324 0.0
H3820 H 0.40476 0.34663 0.30715 0.0
H3821 H 0.38607 0.34148 0.31765 0.0
H3822 H 0.37258 0.34135 0.28985 0.0
H3823 H 0.39121 0.34642 0.27927 0.0
H3824 H 0.38238 0.35916 0.27716 0.0
H3825 H 0.42477 0.41768 0.30086 0.0
H3826 H 0.448 0.41911 0.28567 0.0
H3827 H 0.42244 0.36595 0.28315 0.0
C3828 C 0.37101 0.36286 0.31674 0.0
C3829 C 0.36528 0.37286 0.32337 0.0
C3830 C 0.37519 0.39009 0.32239 0.0
C3831 C 0.39068 0.3973 0.31514 0.0
C3832 C 0.39598 0.38709 0.30875 0.0
C3833 C 0.38638 0.37025 0.30931 0.0
C3834 C 0.39467 0.36205 0.30092 0.0
C3835 C 0.39782 0.35179 0.31316 0.0
C3836 C 0.38461 0.35163 0.28591 0.0
C3837 C 0.4105 0.37693 0.2957 0.0
C3838 C 0.41106 0.39124 0.30045 0.0
C3839 C 0.42446 0.40654 0.29707 0.0
C3840 C 0.4376 0.40723 0.28849 0.0
C3841 C 0.43728 0.39275 0.28327 0.0
C3842 C 0.42341 0.37738 0.28696 0.0
H3843 H 0.35722 0.31777 0.38016 0.0
H3844 H 0.31074 0.27635 0.36375 0.0
H3845 H 0.31996 0.25752 0.37215 0.0
H3846 H 0.38175 0.3023 0.36581 0.0
H3847 H 0.396 0.31029 0.3829 0.0
H3848 H 0.38526 0.32045 0.37691 0.0
H3849 H 0.3742 0.31792 0.4066 0.0
H3850 H 0.38492 0.30774 0.41269 0.0
H3851 H 0.36318 0.29807 0.41581 0.0
H3852 H 0.3349 0.24334 0.3804 0.0
H3853 H 0.35464 0.23483 0.38773 0.0
H3854 H 0.39125 0.28534 0.39923 0.0
C3855 C 0.34889 0.30473 0.37855 0.0
C3856 C 0.33323 0.29852 0.37135 0.0
C3857 C 0.32277 0.28138 0.36927 0.0
C3858 C 0.32788 0.27058 0.37404 0.0
C3859 C 0.34345 0.27711 0.38094 0.0
C3860 C 0.3538 0.29377 0.38323 0.0
C3861 C 0.37023 0.29765 0.39012 0.0
C3862 C 0.38412 0.3083 0.37822 0.0
C3863 C 0.3733 0.30583 0.40733 0.0
C3864 C 0.36762 0.28059 0.39104 0.0
C3865 C 0.35205 0.2689 0.38579 0.0
C3866 C 0.34705 0.25235 0.38472 0.0
C3867 C 0.35834 0.24763 0.3889 0.0
C3868 C 0.37442 0.25942 0.39409 0.0
C3869 C 0.37898 0.27607 0.39542 0.0
H3870 H 0.71348 0.03546 0.36261 0.0
H3871 H 0.66624 0.02192 0.38345 0.0
H3872 H 0.67758 0.05003 0.39456 0.0
H3873 H 0.73891 0.06449 0.39578 0.0
H3874 H 0.75391 0.07853 0.38159 0.0
H3875 H 0.74259 0.05692 0.37668 0.0
H3876 H 0.73295 0.0627 0.3491 0.0
H3877 H 0.74422 0.08429 0.35393 0.0
H3878 H 0.72263 0.0742 0.34937 0.0
H3879 H 0.69321 0.08002 0.40132 0.0
H3880 H 0.71217 0.10992 0.40318 0.0
H3881 H 0.74929 0.10418 0.37805 0.0
C3882 C 0.70562 0.03834 0.36978 0.0
C3883 C 0.689 0.02648 0.37224 0.0
C3884 C 0.67902 0.0308 0.38143 0.0
C3885 C 0.68536 0.04673 0.38784 0.0
C3886 C 0.70171 0.05821 0.38497 0.0
C3887 C 0.71173 0.05424 0.37619 0.0
C3888 C 0.72854 0.06918 0.37389 0.0
C3889 C 0.74177 0.06715 0.38251 0.0
C3890 C 0.73229 0.0728 0.35548 0.0
C3891 C 0.7263 0.08218 0.38252 0.0
C3892 C 0.71077 0.07557 0.38895 0.0
C3893 C 0.70551 0.0853 0.39663 0.0
C3894 C 0.71637 0.10226 0.39768 0.0
C3895 C 0.73236 0.1093 0.39118 0.0
C3896 C 0.73731 0.09906 0.38354 0.0
H3897 H 0.96821 0.66558 0.35652 0.0
H3898 H 0.98196 0.70665 0.39026 0.0
H3899 H 0.95559 0.69074 0.40462 0.0
H3900 H 0.92669 0.65497 0.35219 0.0
H3901 H 0.91875 0.63325 0.35069 0.0
H3902 H 0.93925 0.64733 0.34407 0.0
H3903 H 0.95039 0.63411 0.36384 0.0
H3904 H 0.92991 0.62005 0.37061 0.0
H3905 H 0.94558 0.63284 0.38547 0.0
H3906 H 0.92776 0.67047 0.41511 0.0
H3907 H 0.89927 0.64869 0.41914 0.0
H3908 H 0.90304 0.62161 0.3772 0.0
C3909 C 0.96572 0.67113 0.36704 0.0
C3910 C 0.97713 0.68727 0.37241 0.0
C3911 C 0.97334 0.69429 0.38598 0.0
C3912 C 0.95847 0.68532 0.39427 0.0
C3913 C 0.94746 0.66944 0.38867 0.0
C3914 C 0.9508 0.66248 0.37524 0.0
C3915 C 0.93636 0.6457 0.37092 0.0
C3916 C 0.92988 0.6453 0.35344 0.0
C3917 C 0.94083 0.63239 0.37283 0.0
C3918 C 0.92433 0.64437 0.38396 0.0
C3919 C 0.93109 0.65806 0.39423 0.0
C3920 C 0.92231 0.65971 0.40709 0.0
C3921 C 0.90605 0.64724 0.40925 0.0
C3922 C 0.89852 0.63332 0.3985 0.0
C3923 C 0.90805 0.63188 0.3858 0.0
H3924 H 0.36145 0.99239 0.70752 0.0
H3925 H 0.3905 0.04481 0.70129 0.0
H3926 H 0.41116 0.0465 0.72087 0.0
H3927 H 0.36783 0.9905 0.74982 0.0
H3928 H 0.36818 0.97177 0.74777 0.0
H3929 H 0.35668 0.97614 0.73326 0.0
H3930 H 0.37245 0.97272 0.70911 0.0
H3931 H 0.38409 0.96826 0.72338 0.0
H3932 H 0.39448 0.98466 0.70906 0.0
H3933 H 0.43155 0.04678 0.74565 0.0
H3934 H 0.44766 0.03585 0.76809 0.0
H3935 H 0.40112 0.97656 0.75513 0.0
C3936 C 0.37224 0.00414 0.71035 0.0
C3937 C 0.37444 0.01847 0.70305 0.0
C3938 C 0.38866 0.03369 0.70675 0.0
C3939 C 0.4004 0.03478 0.71789 0.0
C3940 C 0.39795 0.02053 0.72504 0.0
C3941 C 0.38413 0.0051 0.72127 0.0
C3942 C 0.38322 0.99028 0.7298 0.0
C3943 C 0.36808 0.98167 0.74081 0.0
C3944 C 0.38358 0.97827 0.71708 0.0
C3945 C 0.39849 0.99814 0.74008 0.0
C3946 C 0.40848 0.0191 0.73671 0.0
C3947 C 0.42646 0.03388 0.74772 0.0
C3948 C 0.43603 0.0273 0.76232 0.0
C3949 C 0.42762 0.00464 0.76174 0.0
C3950 C 0.40648 0.98965 0.75414 0.0
H3951 H 0.99816 0.36912 0.69444 0.0
H3952 H 0.97072 0.33536 0.73299 0.0
H3953 H 0.97239 0.35799 0.7499 0.0
H3954 H 0.02302 0.40798 0.72296 0.0
H3955 H 0.02091 0.42035 0.70773 0.0
H3956 H 0.02284 0.40313 0.70133 0.0
H3957 H 0.99599 0.39151 0.68437 0.0
H3958 H 0.99379 0.40841 0.69089 0.0
H3959 H 0.97755 0.38777 0.69458 0.0
H3960 H 0.96962 0.38121 0.7585 0.0
H3961 H 0.96406 0.40376 0.75901 0.0
H3962 H 0.99345 0.42354 0.71526 0.0
C3963 C 0.99349 0.36681 0.70689 0.0
C3964 C 0.98469 0.35069 0.71267 0.0
C3965 C 0.97783 0.34775 0.72859 0.0
C3966 C 0.97873 0.36054 0.73826 0.0
C3967 C 0.98651 0.3762 0.7318 0.0
C3968 C 0.99407 0.37948 0.71657 0.0
C3969 C -0.00118 0.39651 0.71111 0.0
C3970 C 0.01751 0.40765 0.71077 0.0
C3971 C 0.99106 0.396 0.69426 0.0
C3972 C 0.99152 0.40167 0.7249 0.0
C3973 C 0.98489 0.38997 0.73693 0.0
C3974 C 0.97532 0.39078 0.74954 0.0
C3975 C 0.97218 0.40366 0.7497 0.0
C3976 C 0.97866 0.41566 0.73735 0.0
C3977 C 0.98881 0.41482 0.72512 0.0
H3978 H 0.62871 0.63644 0.69764 0.0
H3979 H 0.64368 0.6017 0.7101 0.0
H3980 H 0.61756 0.58485 0.72425 0.0
H3981 H 0.60783 0.6338 0.73576 0.0
H3982 H 0.59159 0.63518 0.72598 0.0
H3983 H 0.61157 0.64475 0.71683 0.0
H3984 H 0.59886 0.62859 0.6895 0.0
H3985 H 0.57884 0.619 0.69855 0.0
H3986 H 0.58639 0.60659 0.68975 0.0
H3987 H 0.58958 0.57112 0.73604 0.0
H3988 H 0.56161 0.56175 0.74558 0.0
H3989 H 0.56476 0.60561 0.72651 0.0
C3990 C 0.62652 0.62531 0.70337 0.0
C3991 C 0.6383 0.62042 0.70271 0.0
C3992 C 0.63489 0.60574 0.71038 0.0
C3993 C 0.62008 0.59606 0.71848 0.0
C3994 C 0.60875 0.6012 0.71887 0.0
C3995 C 0.61176 0.61547 0.71156 0.0
C3996 C 0.59738 0.61807 0.71369 0.0
C3997 C 0.6024 0.63389 0.72366 0.0
C3998 C 0.58993 0.61806 0.69687 0.0
C3999 C 0.58588 0.60303 0.72336 0.0
C4000 C 0.59268 0.59345 0.72612 0.0
C4001 C 0.5842 0.57863 0.73419 0.0
C4002 C 0.56834 0.57346 0.73964 0.0
C4003 C 0.56119 0.58322 0.73729 0.0
C4004 C 0.57009 0.59814 0.72889 0.0
H4005 H 0.66497 0.7089 0.66506 0.0
H4006 H 0.65357 0.67506 0.62364 0.0
H4007 H 0.64475 0.6909 0.60729 0.0
H4008 H 0.63019 0.71518 0.65825 0.0
H4009 H 0.6418 0.73645 0.66455 0.0
H4010 H 0.64647 0.72199 0.67327 0.0
H4011 H 0.67658 0.73976 0.664 0.0
H4012 H 0.672 0.75422 0.65522 0.0
H4013 H 0.68088 0.745 0.6426 0.0
H4014 H 0.64023 0.71209 0.59454 0.0
H4015 H 0.63796 0.73576 0.58691 0.0
H4016 H 0.64979 0.75458 0.63734 0.0
C4017 C 0.66045 0.70474 0.65261 0.0
C4018 C 0.65999 0.6908 0.64557 0.0
C4019 C 0.65395 0.68568 0.62928 0.0
C4020 C 0.64894 0.6946 0.61989 0.0
C4021 C 0.64973 0.70841 0.62711 0.0
C4022 C 0.65507 0.71331 0.64318 0.0
C4023 C 0.65486 0.7287 0.64792 0.0
C4024 C 0.6426 0.72537 0.66182 0.0
C4025 C 0.67211 0.74274 0.65271 0.0
C4026 C 0.64907 0.73196 0.63183 0.0
C4027 C 0.64623 0.72014 0.61998 0.0
C4028 C 0.64204 0.72122 0.60381 0.0
C4029 C 0.64076 0.73476 0.59961 0.0
C4030 C 0.6434 0.74696 0.61163 0.0
C4031 C 0.64743 0.74533 0.62797 0.0
H4032 H 0.28539 0.96224 0.62872 0.0
H4033 H 0.32011 0.96254 0.66349 0.0
H4034 H 0.31246 0.93466 0.6543 0.0
H4035 H 0.25361 0.92008 0.6315 0.0
H4036 H 0.24841 0.91854 0.60991 0.0
H4037 H 0.25676 0.9379 0.62084 0.0
H4038 H 0.27984 0.95133 0.59951 0.0
H4039 H 0.2718 0.9321 0.58845 0.0
H4040 H 0.29275 0.94287 0.5956 0.0
H4041 H 0.30506 0.90482 0.64061 0.0
H4042 H 0.28993 0.87486 0.62073 0.0
H4043 H 0.25662 0.89643 0.59135 0.0
C4044 C 0.29121 0.95627 0.63441 0.0
C4045 C 0.30327 0.96446 0.64683 0.0
C4046 C 0.31085 0.9565 0.65394 0.0
C4047 C 0.30655 0.94065 0.64884 0.0
C4048 C 0.29473 0.93285 0.63654 0.0
C4049 C 0.28701 0.94045 0.62909 0.0
C4050 C 0.2747 0.93063 0.61502 0.0
C4051 C 0.25735 0.92655 0.61959 0.0
C4052 C 0.2801 0.93978 0.59869 0.0
C4053 C 0.27554 0.91536 0.61395 0.0
C4054 C 0.28921 0.91698 0.6292 0.0
C4055 C 0.29581 0.90257 0.63151 0.0
C4056 C 0.28729 0.88448 0.61854 0.0
C4057 C 0.26937 0.88103 0.60581 0.0
C4058 C 0.266 0.89809 0.60002 0.0
H4059 H 0.04172 0.35494 0.64777 0.0
H4060 H 0.03077 0.30504 0.65363 0.0
H4061 H 0.05775 0.31257 0.64233 0.0
H4062 H 0.06317 0.36217 0.60948 0.0
H4063 H 0.07824 0.38313 0.61463 0.0
H4064 H 0.0581 0.37395 0.62336 0.0
H4065 H 0.07076 0.38126 0.65277 0.0
H4066 H 0.09095 0.39052 0.64413 0.0
H4067 H 0.08457 0.37457 0.65898 0.0
H4068 H 0.08583 0.32537 0.63059 0.0
H4069 H 0.1134 0.34277 0.61911 0.0
H4070 H 0.10627 0.38436 0.62054 0.0
C4071 C 0.04502 0.34561 0.6467 0.0
C4072 C 0.03412 0.32939 0.65159 0.0
C4073 C 0.0389 0.31754 0.64999 0.0
C4074 C 0.0542 0.32169 0.64357 0.0
C4075 C 0.06462 0.33775 0.63881 0.0
C4076 C 0.06028 0.34955 0.64031 0.0
C4077 C 0.07382 0.36592 0.63429 0.0
C4078 C 0.06798 0.37162 0.61956 0.0
C4079 C 0.08041 0.37883 0.64839 0.0
C4080 C 0.08638 0.36143 0.62908 0.0
C4081 C 0.08081 0.34512 0.63183 0.0
C4082 C 0.09028 0.33813 0.62825 0.0
C4083 C 0.10588 0.34808 0.62167 0.0
C4084 C 0.1118 0.36481 0.61856 0.0
C4085 C 0.10192 0.37155 0.62247 0.0
H4086 H 0.29417 0.32399 0.62935 0.0
H4087 H 0.32172 0.3547 0.67142 0.0
H4088 H 0.31652 0.3762 0.66215 0.0
H4089 H 0.3088 0.35705 0.60045 0.0
H4090 H 0.28955 0.34823 0.58951 0.0
H4091 H 0.29531 0.33515 0.59955 0.0
H4092 H 0.2683 0.32204 0.61605 0.0
H4093 H 0.26249 0.33511 0.60609 0.0
H4094 H 0.26338 0.33497 0.62828 0.0
H4095 H 0.30779 0.39413 0.6487 0.0
H4096 H 0.29687 0.40757 0.63131 0.0
H4097 H 0.27622 0.36574 0.59744 0.0
C4098 C 0.29907 0.33522 0.63662 0.0
C4099 C 0.30829 0.33765 0.65113 0.0
C4100 C 0.31466 0.35259 0.66022 0.0
C4101 C 0.31175 0.36487 0.65509 0.0
C4102 C 0.30261 0.3621 0.64074 0.0
C4103 C 0.29649 0.34772 0.63154 0.0
C4104 C 0.28735 0.34799 0.6164 0.0
C4105 C 0.29576 0.34705 0.60054 0.0
C4106 C 0.26931 0.33421 0.61674 0.0
C4107 C 0.28907 0.36464 0.61869 0.0
C4108 C 0.29788 0.37258 0.63281 0.0
C4109 C 0.30086 0.38804 0.63761 0.0
C4110 C 0.2946 0.39555 0.62772 0.0
C4111 C 0.28542 0.38757 0.61326 0.0
C4112 C 0.28291 0.37203 0.6086 0.0
H4113 H 0.68071 0.96317 0.64538 0.0
H4114 H 0.65356 0.97897 0.61571 0.0
H4115 H 0.63519 0.95052 0.60605 0.0
H4116 H 0.67628 0.93001 0.6168 0.0
H4117 H 0.67376 0.9167 0.6335 0.0
H4118 H 0.68613 0.93859 0.63643 0.0
H4119 H 0.66858 0.93707 0.66158 0.0
H4120 H 0.65616 0.91524 0.65871 0.0
H4121 H 0.64673 0.92755 0.65909 0.0
H4122 H 0.61786 0.92022 0.60219 0.0
H4123 H 0.60302 0.89012 0.60415 0.0
H4124 H 0.64139 0.89376 0.63598 0.0
C4125 C 0.67116 0.96069 0.63653 0.0
C4126 C 0.66863 0.97329 0.63122 0.0
C4127 C 0.65575 0.96951 0.61992 0.0
C4128 C 0.64528 0.95339 0.61431 0.0
C4129 C 0.64785 0.94117 0.62007 0.0
C4130 C 0.66051 0.94461 0.63086 0.0
C4131 C 0.65974 0.92905 0.63621 0.0
C4132 C 0.67488 0.92856 0.63038 0.0
C4133 C 0.65767 0.92712 0.65501 0.0
C4134 C 0.64446 0.91635 0.62706 0.0
C4135 C 0.63787 0.9236 0.6177 0.0
C4136 C 0.6231 0.91438 0.60915 0.0
C4137 C 0.61477 0.89729 0.6103 0.0
C4138 C 0.62132 0.88959 0.61982 0.0
C4139 C 0.63639 0.89931 0.62821 0.0
H4140 H 0.04535 0.72981 0.64712 0.0
H4141 H 0.02218 0.67757 0.63737 0.0
H4142 H 0.04839 0.68145 0.62705 0.0
H4143 H 0.07411 0.74365 0.61231 0.0
H4144 H 0.09035 0.75988 0.62447 0.0
H4145 H 0.06933 0.75328 0.629 0.0
H4146 H 0.07382 0.7479 0.6592 0.0
H4147 H 0.09481 0.75446 0.65478 0.0
H4148 H 0.08162 0.73451 0.66314 0.0
H4149 H 0.0775 0.69083 0.6194 0.0
H4150 H 0.10761 0.70472 0.61683 0.0
H4151 H 0.11189 0.75049 0.63307 0.0
C4152 C 0.04571 0.71925 0.64244 0.0
C4153 C 0.03171 0.70342 0.64283 0.0
C4154 C 0.03276 0.68982 0.63708 0.0
C4155 C 0.04757 0.69191 0.63114 0.0
C4156 C 0.06122 0.70767 0.63115 0.0
C4157 C 0.06044 0.72109 0.63674 0.0
C4158 C 0.07718 0.73645 0.63697 0.0
C4159 C 0.07777 0.74906 0.62497 0.0
C4160 C 0.08214 0.74375 0.65457 0.0
C4161 C 0.08754 0.72954 0.63094 0.0
C4162 C 0.07809 0.71297 0.62736 0.0
C4163 C 0.08502 0.70382 0.62207 0.0
C4164 C 0.10209 0.71178 0.62066 0.0
C4165 C 0.11203 0.72865 0.62477 0.0
C4166 C 0.10458 0.73762 0.62975 0.0
H4167 H 0.96908 0.6178 0.69275 0.0
H4168 H 0.01602 0.65989 0.70699 0.0
H4169 H 0.02354 0.64176 0.72074 0.0
H4170 H 0.96275 0.59523 0.7302 0.0
H4171 H 0.95362 0.57561 0.71967 0.0
H4172 H 0.95171 0.59189 0.71109 0.0
H4173 H 0.9643 0.5891 0.68373 0.0
H4174 H 0.96626 0.57282 0.69224 0.0
H4175 H 0.98396 0.59056 0.68415 0.0
H4176 H 0.02657 0.61919 0.73191 0.0
H4177 H 0.02438 0.59345 0.74078 0.0
H4178 H 0.9753 0.56597 0.72004 0.0
C4179 C 0.9809 0.6232 0.69883 0.0
C4180 C 0.99196 0.64027 0.69879 0.0
C4181 C 0.00734 0.64685 0.70684 0.0
C4182 C 0.01174 0.63666 0.71469 0.0
C4183 C 0.00063 0.61991 0.71443 0.0
C4184 C 0.9855 0.61319 0.70677 0.0
C4185 C 0.97593 0.59473 0.70818 0.0
C4186 C 0.96006 0.58904 0.71786 0.0
C4187 C 0.97241 0.58631 0.69105 0.0
C4188 C 0.98805 0.59218 0.71783 0.0
C4189 C 0.00223 0.60686 0.72125 0.0
C4190 C 0.01543 0.60762 0.72954 0.0
C4191 C 0.01405 0.59296 0.73458 0.0
C4192 C -0.00053 0.57777 0.73154 0.0
C4193 C 0.98641 0.57745 0.72289 0.0
H4194 H 0.34972 0.36207 0.72574 0.0
H4195 H 0.38877 0.36992 0.69251 0.0
H4196 H 0.40394 0.39927 0.70049 0.0
H4197 H 0.34946 0.39732 0.71777 0.0
H4198 H 0.34587 0.40152 0.73864 0.0
H4199 H 0.33896 0.38082 0.73197 0.0
H4200 H 0.35531 0.3777 0.75572 0.0
H4201 H 0.36203 0.39832 0.76268 0.0
H4202 H 0.37685 0.39236 0.75809 0.0
H4203 H 0.41301 0.42827 0.70936 0.0
H4204 H 0.41661 0.45431 0.72061 0.0
H4205 H 0.37233 0.42714 0.7491 0.0
C4206 C 0.36166 0.36989 0.72047 0.0
C4207 C 0.36809 0.36374 0.70853 0.0
C4208 C 0.38369 0.37435 0.7018 0.0
C4209 C 0.39236 0.39105 0.7062 0.0
C4210 C 0.38539 0.39684 0.71757 0.0
C4211 C 0.37056 0.3865 0.7249 0.0
C4212 C 0.36544 0.39587 0.73629 0.0
C4213 C 0.34896 0.39375 0.73083 0.0
C4214 C 0.36488 0.39076 0.75426 0.0
C4215 C 0.37937 0.41315 0.73373 0.0
C4216 C 0.39078 0.41347 0.72292 0.0
C4217 C 0.40425 0.42815 0.71799 0.0
C4218 C 0.40613 0.44286 0.72433 0.0
C4219 C 0.39456 0.4428 0.73542 0.0
C4220 C 0.3812 0.42767 0.74037 0.0
H4221 H 0.65672 0.03801 0.70498 0.0
H4222 H 0.64292 0.99631 0.67202 0.0
H4223 H 0.61654 0.98082 0.68618 0.0
H4224 H 0.63926 0.01445 0.74123 0.0
H4225 H 0.63251 0.02769 0.74962 0.0
H4226 H 0.6501 0.03589 0.73645 0.0
H4227 H 0.63659 0.04704 0.71703 0.0
H4228 H 0.61895 0.03887 0.73015 0.0
H4229 H 0.61652 0.03323 0.70854 0.0
H4230 H 0.5919 0.96964 0.70397 0.0
H4231 H 0.57061 0.96332 0.72484 0.0
H4232 H 0.60062 0.01178 0.74688 0.0
C4233 C 0.64808 0.02568 0.70067 0.0
C4234 C 0.65185 0.01839 0.68737 0.0
C4235 C 0.64032 0.00213 0.68223 0.0
C4236 C 0.62527 0.99324 0.69015 0.0
C4237 C 0.62197 0.00071 0.70328 0.0
C4238 C 0.63304 0.01652 0.70859 0.0
C4239 C 0.62664 0.02139 0.72342 0.0
C4240 C 0.63779 0.02507 0.73857 0.0
C4241 C 0.62455 0.036 0.71954 0.0
C4242 C 0.61025 0.00588 0.72553 0.0
C4243 C 0.60778 0.99414 0.71373 0.0
C4244 C 0.59362 0.97876 0.71322 0.0
C4245 C 0.58161 0.97529 0.72507 0.0
C4246 C 0.5838 0.98717 0.73721 0.0
C4247 C 0.59844 0.00259 0.73752 0.0
loop_
_geom_bond_atom_site_label_1
_geom_bond_atom_site_label_2
_geom_bond_distance
_geom_bond_site_symmetry_2
_ccdc_geom_bond_type
C0 O1 1.306 . S
C0 O3 1.160 . S
O1 C0 1.306 . S
O1 Cd2 2.228 1_556 S
Cd2 O1 2.228 1_554 S
Cd2 O6 2.273 . S
Cd2 O10 2.277 1_554 S
O3 C0 1.160 . S
O3 Cd4 2.203 1_656 S
Cd4 O3 2.203 1_454 S
Cd4 O6 2.411 1_455 S
Cd4 O7 2.333 . S
Cd4 O8 2.352 . S
Cd4 O12 2.277 1_554 S
Cd4 O13 2.356 . S
C5 O10 1.209 1_455 S
C5 O12 1.226 . S
O6 Cd2 2.273 . S
O6 Cd4 2.411 1_655 S
O6 C9 1.320 1_655 S
O7 Cd4 2.333 . S
O7 C9 1.214 . S
O8 Cd4 2.352 . S
O8 C11 1.258 . S
C9 O6 1.320 1_455 S
C9 O7 1.214 . S
O10 Cd2 2.277 1_556 S
O10 C5 1.209 1_655 S
C11 O8 1.258 . S
C11 O13 1.282 . S
O12 Cd4 2.277 1_556 S
O12 C5 1.226 . S
O13 Cd4 2.356 . S
O13 C11 1.282 . S
C14 O15 1.306 . S
C14 O17 1.160 . S
O15 C14 1.306 . S
O15 Cd16 2.228 . S
Cd16 O15 2.228 . S
Cd16 O20 2.273 . S
Cd16 O24 2.277 . S
O17 C14 1.160 . S
O17 Cd18 2.203 . S
Cd18 O17 2.203 . S
Cd18 O20 2.411 . S
Cd18 O21 2.333 1_554 S
Cd18 O22 2.352 1_554 S
Cd18 O26 2.277 . S
Cd18 O27 2.356 . S
C19 O24 1.209 . S
C19 O26 1.226 . S
O20 Cd16 2.273 . S
O20 Cd18 2.411 . S
O20 C23 1.320 1_554 S
O21 Cd18 2.333 1_556 S
O21 C23 1.214 . S
O22 Cd18 2.352 1_556 S
O22 C25 1.258 . S
C23 O20 1.320 1_556 S
C23 O21 1.214 . S
O24 Cd16 2.277 . S
O24 C19 1.209 . S
C25 O22 1.258 . S
C25 O27 1.282 1_556 S
O26 Cd18 2.277 . S
O26 C19 1.226 . S
O27 Cd18 2.356 . S
O27 C25 1.282 1_554 S
C28 O29 1.306 . S
C28 O31 1.160 . S
O29 C28 1.306 . S
O29 Cd30 2.228 . S
Cd30 O29 2.228 . S
Cd30 O34 2.273 1_554 S
Cd30 O38 2.277 . S
O31 C28 1.160 . S
O31 Cd32 2.203 1_565 S
Cd32 O31 2.203 1_545 S
Cd32 O34 2.411 1_544 S
Cd32 O35 2.333 1_554 S
Cd32 O36 2.352 1_554 S
Cd32 O40 2.277 . S
Cd32 O41 2.356 . S
C33 O38 1.209 1_545 S
C33 O40 1.226 . S
O34 Cd30 2.273 1_556 S
O34 Cd32 2.411 1_566 S
O34 C37 1.320 1_565 S
O35 Cd32 2.333 1_556 S
O35 C37 1.214 . S
O36 Cd32 2.352 1_556 S
O36 C39 1.258 . S
C37 O34 1.320 1_545 S
C37 O35 1.214 . S
O38 Cd30 2.277 . S
O38 C33 1.209 1_565 S
C39 O36 1.258 . S
C39 O41 1.282 1_556 S
O40 Cd32 2.277 . S
O40 C33 1.226 . S
O41 Cd32 2.356 . S
O41 C39 1.282 1_554 S
C42 O43 1.283 1_556 S
C42 O45 1.160 . S
O43 C42 1.283 1_554 S
O43 Cd44 2.245 . S
Cd44 O43 2.245 . S
Cd44 O48 2.273 . S
Cd44 O52 2.277 1_554 S
O45 C42 1.160 . S
O45 Cd46 2.203 1_656 S
Cd46 O45 2.203 1_454 S
Cd46 O48 2.411 1_455 S
Cd46 O49 2.333 . S
Cd46 O50 2.352 . S
Cd46 O54 2.277 1_554 S
Cd46 O55 2.356 . S
C47 O52 1.209 1_455 S
C47 O54 1.226 . S
O48 Cd44 2.273 . S
O48 Cd46 2.411 1_655 S
O48 C51 1.320 . S
O49 Cd46 2.333 . S
O49 C51 1.214 1_455 S
O50 Cd46 2.352 . S
O50 C53 1.258 . S
C51 O48 1.320 . S
C51 O49 1.214 1_655 S
O52 Cd44 2.277 1_556 S
O52 C47 1.209 1_655 S
C53 O50 1.258 . S
C53 O55 1.282 . S
O54 Cd46 2.277 1_556 S
O54 C47 1.226 . S
O55 Cd46 2.356 . S
O55 C53 1.282 . S
C56 O57 1.306 . S
C56 O59 1.160 . S
O57 C56 1.306 . S
O57 Cd58 2.228 . S
Cd58 O57 2.228 . S
Cd58 O62 2.273 1_554 S
Cd58 O66 2.277 . S
O59 C56 1.160 . S
O59 Cd60 2.203 . S
Cd60 O59 2.203 . S
Cd60 O62 2.411 1_554 S
Cd60 O63 2.333 1_554 S
Cd60 O64 2.352 1_554 S
Cd60 O68 2.277 . S
Cd60 O69 2.356 1_554 S
C61 O66 1.209 . S
C61 O68 1.226 . S
O62 Cd58 2.273 1_556 S
O62 Cd60 2.411 1_556 S
O62 C65 1.320 . S
O63 Cd60 2.333 1_556 S
O63 C65 1.214 . S
O64 Cd60 2.352 1_556 S
O64 C67 1.258 . S
C65 O62 1.320 . S
C65 O63 1.214 . S
O66 Cd58 2.277 . S
O66 C61 1.209 . S
C67 O64 1.258 . S
C67 O69 1.282 . S
O68 Cd60 2.277 . S
O68 C61 1.226 . S
O69 Cd60 2.356 1_556 S
O69 C67 1.282 . S
C70 O71 1.306 1_556 S
C70 O73 1.160 . S
O71 C70 1.306 1_554 S
O71 Cd72 2.228 . S
Cd72 O71 2.228 . S
Cd72 O76 2.273 . S
Cd72 O80 2.277 1_554 S
O73 C70 1.160 . S
O73 Cd74 2.203 1_546 S
Cd74 O73 2.203 1_564 S
Cd74 O76 2.411 1_565 S
Cd74 O77 2.333 . S
Cd74 O78 2.352 . S
Cd74 O82 2.277 1_554 S
Cd74 O83 2.356 . S
C75 O80 1.209 1_565 S
C75 O82 1.226 . S
O76 Cd72 2.273 . S
O76 Cd74 2.411 1_545 S
O76 C79 1.320 . S
O77 Cd74 2.333 . S
O77 C79 1.214 1_565 S
O78 Cd74 2.352 . S
O78 C81 1.258 . S
C79 O76 1.320 . S
C79 O77 1.214 1_545 S
O80 Cd72 2.277 1_556 S
O80 C75 1.209 1_545 S
C81 O78 1.258 . S
C81 O83 1.282 . S
O82 Cd74 2.277 1_556 S
O82 C75 1.226 . S
O83 Cd74 2.356 . S
O83 C81 1.282 . S
C84 O85 1.306 . S
C84 O87 1.160 . S
O85 C84 1.306 . S
O85 Cd86 2.228 . S
Cd86 O85 2.228 . S
Cd86 O90 2.273 . S
Cd86 O94 2.277 . S
O87 C84 1.160 . S
O87 Cd88 2.203 . S
Cd88 O87 2.203 . S
Cd88 O90 2.411 . S
Cd88 O91 2.333 . S
Cd88 O92 2.352 . S
Cd88 O96 2.277 . S
Cd88 O97 2.356 . S
C89 O94 1.209 . S
C89 O96 1.226 . S
O90 Cd86 2.273 . S
O90 Cd88 2.411 . S
O90 C93 1.320 . S
O91 Cd88 2.333 . S
O91 C93 1.214 . S
O92 Cd88 2.352 . S
O92 C95 1.258 . S
C93 O90 1.320 . S
C93 O91 1.214 . S
O94 Cd86 2.277 . S
O94 C89 1.209 . S
C95 O92 1.258 . S
C95 O97 1.282 . S
O96 Cd88 2.277 . S
O96 C89 1.226 . S
O97 Cd88 2.356 . S
O97 C95 1.282 . S
C98 O99 1.306 . S
C98 O101 1.160 . S
O99 C98 1.306 . S
O99 Cd100 2.228 1_545 S
Cd100 O99 2.228 1_565 S
Cd100 O104 2.273 . S
Cd100 O108 2.277 . S
O101 C98 1.160 . S
O101 Cd102 2.203 1_545 S
Cd102 O101 2.203 1_565 S
Cd102 O104 2.411 . S
Cd102 O105 2.333 . S
Cd102 O106 2.352 . S
Cd102 O110 2.277 . S
Cd102 O111 2.356 . S
C103 O108 1.209 . S
C103 O110 1.226 . S
O104 Cd100 2.273 . S
O104 Cd102 2.411 . S
O104 C107 1.320 . S
O105 Cd102 2.333 . S
O105 C107 1.214 . S
O106 Cd102 2.352 . S
O106 C109 1.258 . S
C107 O104 1.320 . S
C107 O105 1.214 . S
O108 Cd100 2.277 . S
O108 C103 1.209 . S
C109 O106 1.258 . S
C109 O111 1.282 . S
O110 Cd102 2.277 . S
O110 C103 1.226 . S
O111 Cd102 2.356 . S
O111 C109 1.282 . S
C112 O113 1.280 1_655 S
C112 O115 1.159 1_655 S
O113 C112 1.280 1_455 S
O113 Cd114 2.228 . S
Cd114 O113 2.228 . S
Cd114 O118 2.273 . S
Cd114 O122 2.277 . S
O115 C112 1.159 1_455 S
O115 Cd116 2.203 . S
Cd116 O115 2.203 . S
Cd116 O118 2.411 . S
Cd116 O119 2.333 . S
Cd116 O120 2.352 . S
Cd116 O124 2.277 . S
Cd116 O125 2.356 . S
C117 O122 1.209 . S
C117 O124 1.226 . S
O118 Cd114 2.273 . S
O118 Cd116 2.411 . S
O118 C121 1.320 . S
O119 Cd116 2.333 . S
O119 C121 1.214 . S
O120 Cd116 2.352 . S
O120 C123 1.258 . S
C121 O118 1.320 . S
C121 O119 1.214 . S
O122 Cd114 2.277 . S
O122 C117 1.209 . S
C123 O120 1.258 . S
C123 O125 1.282 . S
O124 Cd116 2.277 . S
O124 C117 1.226 . S
O125 Cd116 2.356 . S
O125 C123 1.282 . S
C126 O127 1.306 . S
C126 O129 1.160 . S
O127 C126 1.306 . S
O127 Cd128 2.228 . S
Cd128 O127 2.228 . S
Cd128 O132 2.273 . S
Cd128 O136 2.277 . S
O129 C126 1.160 . S
O129 Cd130 2.203 . S
Cd130 O129 2.203 . S
Cd130 O132 2.411 . S
Cd130 O133 2.333 . S
Cd130 O134 2.352 1_565 S
Cd130 O138 2.277 . S
Cd130 O139 2.356 1_565 S
C131 O136 1.209 . S
C131 O138 1.226 . S
O132 Cd128 2.273 . S
O132 Cd130 2.411 . S
O132 C135 1.320 . S
O133 Cd130 2.333 . S
O133 C135 1.214 . S
O134 Cd130 2.352 1_545 S
O134 C137 1.258 . S
C135 O132 1.320 . S
C135 O133 1.214 . S
O136 Cd128 2.277 . S
O136 C131 1.209 . S
C137 O134 1.258 . S
C137 O139 1.282 . S
O138 Cd130 2.277 . S
O138 C131 1.226 . S
O139 Cd130 2.356 1_545 S
O139 C137 1.282 . S
C140 O141 1.306 . S
C140 O143 1.160 1_655 S
O141 C140 1.306 . S
O141 Cd142 2.228 1_655 S
Cd142 O141 2.228 1_455 S
Cd142 O146 2.273 . S
Cd142 O150 2.277 . S
O143 C140 1.160 1_455 S
O143 Cd144 2.203 . S
Cd144 O143 2.203 . S
Cd144 O146 2.411 . S
Cd144 O147 2.333 . S
Cd144 O148 2.352 . S
Cd144 O152 2.277 . S
Cd144 O153 2.356 . S
C145 O150 1.209 . S
C145 O152 1.226 . S
O146 Cd142 2.273 . S
O146 Cd144 2.411 . S
O146 C149 1.320 . S
O147 Cd144 2.333 . S
O147 C149 1.214 . S
O148 Cd144 2.352 . S
O148 C151 1.258 . S
C149 O146 1.320 . S
C149 O147 1.214 . S
O150 Cd142 2.277 . S
O150 C145 1.209 . S
C151 O148 1.258 . S
C151 O153 1.282 . S
O152 Cd144 2.277 . S
O152 C145 1.226 . S
O153 Cd144 2.356 . S
O153 C151 1.282 . S
C154 O155 1.306 . S
C154 O157 1.160 . S
O155 C154 1.306 . S
O155 Cd156 2.228 . S
Cd156 O155 2.228 . S
Cd156 O160 2.273 . S
Cd156 O164 2.277 . S
O157 C154 1.160 . S
O157 Cd158 2.203 . S
Cd158 O157 2.203 . S
Cd158 O160 2.411 . S
Cd158 O161 2.333 . S
Cd158 O162 2.352 . S
Cd158 O166 2.277 . S
Cd158 O167 2.356 . S
C159 O164 1.209 . S
C159 O166 1.226 . S
O160 Cd156 2.273 . S
O160 Cd158 2.411 . S
O160 C163 1.320 . S
O161 Cd158 2.333 . S
O161 C163 1.214 . S
O162 Cd158 2.352 . S
O162 C165 1.258 . S
C163 O160 1.320 . S
C163 O161 1.214 . S
O164 Cd156 2.277 . S
O164 C159 1.209 . S
C165 O162 1.258 . S
C165 O167 1.282 . S
O166 Cd158 2.277 . S
O166 C159 1.226 . S
O167 Cd158 2.356 . S
O167 C165 1.282 . S
C168 O169 1.306 . S
C168 O171 1.159 . S
O169 C168 1.306 . S
O169 Cd170 2.228 1_565 S
Cd170 O169 2.228 1_545 S
Cd170 O174 2.273 . S
Cd170 O178 2.277 . S
O171 C168 1.159 . S
O171 Cd172 2.209 1_565 S
Cd172 O171 2.209 1_545 S
Cd172 O174 2.411 . S
Cd172 O175 2.333 . S
Cd172 O176 2.352 . S
Cd172 O180 2.277 . S
Cd172 O181 2.356 . S
C173 O178 1.209 . S
C173 O180 1.226 . S
O174 Cd170 2.273 . S
O174 Cd172 2.411 . S
O174 C177 1.320 . S
O175 Cd172 2.333 . S
O175 C177 1.214 . S
O176 Cd172 2.352 . S
O176 C179 1.258 . S
C177 O174 1.320 . S
C177 O175 1.214 . S
O178 Cd170 2.277 . S
O178 C173 1.209 . S
C179 O176 1.258 . S
C179 O181 1.282 . S
O180 Cd172 2.277 . S
O180 C173 1.226 . S
O181 Cd172 2.356 . S
O181 C179 1.282 . S
C182 O183 1.306 . S
C182 O185 1.231 . S
O183 C182 1.306 . S
O183 Cd184 2.228 . S
Cd184 O183 2.228 . S
Cd184 O188 2.273 . S
Cd184 O192 2.277 . S
O185 C182 1.231 . S
O185 Cd186 2.196 . S
Cd186 O185 2.196 . S
Cd186 O188 2.411 . S
Cd186 O189 2.333 . S
Cd186 O190 2.352 1_655 S
Cd186 O194 2.277 . S
Cd186 O195 2.356 1_655 S
C187 O192 1.209 . S
C187 O194 1.226 . S
O188 Cd184 2.273 . S
O188 Cd186 2.411 . S
O188 C191 1.320 . S
O189 Cd186 2.333 . S
O189 C191 1.214 . S
O190 Cd186 2.352 1_455 S
O190 C193 1.258 . S
C191 O188 1.320 . S
C191 O189 1.214 . S
O192 Cd184 2.277 . S
O192 C187 1.209 . S
C193 O190 1.258 . S
C193 O195 1.282 . S
O194 Cd186 2.277 . S
O194 C187 1.226 . S
O195 Cd186 2.356 1_455 S
O195 C193 1.282 . S
C196 O197 1.306 . S
C196 O199 1.160 . S
O197 C196 1.306 . S
O197 Cd198 2.228 . S
Cd198 O197 2.228 . S
Cd198 O202 2.273 . S
Cd198 O206 2.277 . S
O199 C196 1.160 . S
O199 Cd200 2.203 . S
Cd200 O199 2.203 . S
Cd200 O202 2.411 . S
Cd200 O203 2.333 . S
Cd200 O204 2.352 . S
Cd200 O208 2.277 . S
Cd200 O209 2.356 . S
C201 O206 1.209 . S
C201 O208 1.226 . S
O202 Cd198 2.273 . S
O202 Cd200 2.411 . S
O202 C205 1.320 . S
O203 Cd200 2.333 . S
O203 C205 1.214 . S
O204 Cd200 2.352 . S
O204 C207 1.258 . S
C205 O202 1.320 . S
C205 O203 1.214 . S
O206 Cd198 2.277 . S
O206 C201 1.209 . S
C207 O204 1.258 . S
C207 O209 1.282 . S
O208 Cd200 2.277 . S
O208 C201 1.226 . S
O209 Cd200 2.356 . S
O209 C207 1.282 . S
C210 O211 1.306 . S
C210 O213 1.160 . S
O211 C210 1.306 . S
O211 Cd212 2.228 . S
Cd212 O211 2.228 . S
Cd212 O216 2.273 . S
Cd212 O220 2.277 . S
O213 C210 1.160 . S
O213 Cd214 2.203 . S
Cd214 O213 2.203 . S
Cd214 O216 2.411 . S
Cd214 O217 2.333 . S
Cd214 O218 2.352 . S
Cd214 O222 2.277 . S
Cd214 O223 2.356 . S
C215 O220 1.209 . S
C215 O222 1.226 . S
O216 Cd212 2.273 . S
O216 Cd214 2.411 . S
O216 C219 1.320 . S
O217 Cd214 2.333 . S
O217 C219 1.214 . S
O218 Cd214 2.352 . S
O218 C221 1.258 . S
C219 O216 1.320 . S
C219 O217 1.214 . S
O220 Cd212 2.277 . S
O220 C215 1.209 . S
C221 O218 1.258 . S
C221 O223 1.282 . S
O222 Cd214 2.277 . S
O222 C215 1.226 . S
O223 Cd214 2.356 . S
O223 C221 1.282 . S
C224 O225 1.306 . S
C224 O227 1.160 . S
O225 C224 1.306 . S
O225 Cd226 2.228 . S
Cd226 O225 2.228 . S
Cd226 O230 2.273 . S
Cd226 O234 2.277 . S
O227 C224 1.160 . S
O227 Cd228 2.203 . S
Cd228 O227 2.203 . S
Cd228 O230 2.411 . S
Cd228 O231 2.333 . S
Cd228 O232 2.352 1_545 S
Cd228 O236 2.277 . S
Cd228 O237 2.356 1_545 S
C229 O234 1.209 . S
C229 O236 1.226 . S
O230 Cd226 2.273 . S
O230 Cd228 2.411 . S
O230 C233 1.320 . S
O231 Cd228 2.333 . S
O231 C233 1.214 . S
O232 Cd228 2.352 1_565 S
O232 C235 1.258 . S
C233 O230 1.320 . S
C233 O231 1.214 . S
O234 Cd226 2.277 . S
O234 C229 1.209 . S
C235 O232 1.258 . S
C235 O237 1.282 . S
O236 Cd228 2.277 . S
O236 C229 1.226 . S
O237 Cd228 2.356 1_565 S
O237 C235 1.282 . S
C238 O239 1.306 . S
C238 O241 1.160 . S
O239 C238 1.306 . S
O239 Cd240 2.228 1_455 S
Cd240 O239 2.228 1_655 S
Cd240 O244 2.273 . S
Cd240 O248 2.277 . S
O241 C238 1.160 . S
O241 Cd242 2.203 1_455 S
Cd242 O241 2.203 1_655 S
Cd242 O244 2.411 . S
Cd242 O245 2.333 . S
Cd242 O246 2.352 . S
Cd242 O250 2.277 . S
Cd242 O251 2.356 . S
C243 O248 1.209 . S
C243 O250 1.226 . S
O244 Cd240 2.273 . S
O244 Cd242 2.411 . S
O244 C247 1.320 . S
O245 Cd242 2.333 . S
O245 C247 1.214 . S
O246 Cd242 2.352 . S
O246 C249 1.258 . S
C247 O244 1.320 . S
C247 O245 1.214 . S
O248 Cd240 2.277 . S
O248 C243 1.209 . S
C249 O246 1.258 . S
C249 O251 1.282 . S
O250 Cd242 2.277 . S
O250 C243 1.226 . S
O251 Cd242 2.356 . S
O251 C249 1.282 . S
C252 C253 1.560 . S
C252 H313 0.959 . S
C252 H314 0.959 . S
C252 H315 0.960 . S
C253 C252 1.560 . S
C253 O308 1.426 . S
C253 H312 0.980 . S
C254 C255 1.407 . S
C254 C259 1.418 . S
C254 O308 1.334 . S
C255 C254 1.407 . S
C255 C256 1.360 . S
C255 H316 0.929 . S
C256 C255 1.360 . S
C256 C257 1.401 . S
C256 C260 1.527 . S
C257 C256 1.401 . S
C257 C258 1.405 . S
C257 C290 1.587 . S
C258 C257 1.405 . S
C258 C259 1.332 . S
C258 C261 1.496 . S
C259 C254 1.418 . S
C259 C258 1.332 . S
C259 H317 0.929 . S
C260 C256 1.527 . S
C260 H318 0.959 . S
C260 H319 0.961 . S
C260 H320 0.961 . S
C261 C258 1.496 . S
C261 H321 0.960 . S
C261 H322 0.960 . S
C261 H323 0.961 . S
C262 C263 1.517 . S
C262 H325 0.961 . S
C262 H326 0.960 . S
C262 H327 0.959 . S
C263 C262 1.517 . S
C263 O311 1.468 . S
C263 H324 0.980 . S
C264 C265 1.349 . S
C264 C269 1.367 . S
C264 O311 1.408 . S
C265 C264 1.349 . S
C265 C266 1.407 . S
C265 H328 0.930 . S
C266 C265 1.407 . S
C266 C267 1.449 . S
C266 C270 1.535 . S
C267 C266 1.449 . S
C267 C268 1.384 . S
C267 C292 1.553 . S
C268 C267 1.384 . S
C268 C269 1.364 . S
C268 C271 1.450 . S
C269 C264 1.367 . S
C269 C268 1.364 . S
C269 H329 0.931 . S
C270 C266 1.535 . S
C270 H330 0.959 . S
C270 H331 0.961 . S
C270 H332 0.959 . S
C271 C268 1.450 . S
C271 H333 0.960 . S
C271 H334 0.960 . S
C271 H335 0.960 . S
C272 C273 1.309 . S
C272 C277 1.304 . S
C272 O310 1.435 . S
C273 C272 1.309 . S
C273 C274 1.476 . S
C273 H337 0.930 . S
C274 C273 1.476 . S
C274 C275 1.400 . S
C274 C278 1.567 . S
C275 C274 1.400 . S
C275 C276 1.373 . S
C275 C297 1.432 . S
C276 C275 1.373 . S
C276 C277 1.339 . S
C276 C279 1.530 . S
C277 C272 1.304 . S
C277 C276 1.339 . S
C277 H338 0.930 . S
C278 C274 1.567 . S
C278 H339 0.961 . S
C278 H340 0.960 . S
C278 H341 0.958 . S
C279 C276 1.530 . S
C279 H342 0.961 . S
C279 H343 0.960 . S
C279 H344 0.960 . S
C280 C281 1.530 . S
C280 H346 0.961 . S
C280 H347 0.961 . S
C280 H348 0.959 . S
C281 C280 1.530 . S
C281 O309 1.412 . S
C281 H345 0.980 . S
C282 C283 1.288 . S
C282 C287 1.377 . S
C282 O309 1.393 . S
C283 C282 1.288 . S
C283 C284 1.369 . S
C283 H349 0.932 . S
C284 C283 1.369 . S
C284 C285 1.398 . S
C284 C288 1.527 . S
C285 C284 1.398 . S
C285 C286 1.380 . S
C285 C299 1.497 . S
C286 C285 1.380 . S
C286 C287 1.383 . S
C286 C289 1.603 . S
C287 C282 1.377 . S
C287 C286 1.383 . S
C287 H350 0.929 . S
C288 C284 1.527 . S
C288 H351 0.961 . S
C288 H352 0.959 . S
C288 H353 0.959 . S
C289 C286 1.603 . S
C289 H354 0.960 . S
C289 H355 0.962 . S
C289 H356 0.961 . S
C290 C257 1.587 . S
C290 C291 1.360 . S
C290 C303 1.412 . S
C291 C290 1.360 . S
C291 C292 1.365 . S
C291 H357 0.929 . S
C292 C267 1.553 . S
C292 C291 1.365 . S
C292 C293 1.404 . S
C293 C292 1.404 . S
C293 C294 1.395 . S
C293 C304 1.451 . S
C294 C293 1.395 . S
C294 C295 1.322 . S
C294 H358 0.930 . S
C295 C294 1.322 . S
C295 C296 1.459 . S
C295 H359 0.929 . S
C296 C295 1.459 . S
C296 C297 1.445 . S
C296 C305 1.395 . S
C297 C275 1.432 . S
C297 C296 1.445 . S
C297 C298 1.370 . S
C298 C297 1.370 . S
C298 C299 1.438 . S
C298 H360 0.930 . S
C299 C285 1.497 . S
C299 C298 1.438 . S
C299 C300 1.360 . S
C300 C299 1.360 . S
C300 C301 1.401 . S
C300 C305 1.446 . S
C301 C300 1.401 . S
C301 C302 1.347 . S
C301 H361 0.929 . S
C302 C301 1.347 . S
C302 C303 1.455 . S
C302 H362 0.930 . S
C303 C290 1.412 . S
C303 C302 1.455 . S
C303 C304 1.331 . S
C304 C293 1.451 . S
C304 C303 1.331 . S
C304 C305 1.497 . S
C305 C296 1.395 . S
C305 C300 1.446 . S
C305 C304 1.497 . S
C306 C307 1.582 . S
C306 H363 0.962 . S
C306 H364 0.959 . S
C306 H365 0.958 . S
C307 C306 1.582 . S
C307 O310 1.458 . S
C307 H336 0.980 . S
O308 C253 1.426 . S
O308 C254 1.334 . S
O309 C281 1.412 . S
O309 C282 1.393 . S
O310 C272 1.435 . S
O310 C307 1.458 . S
O311 C263 1.468 . S
O311 C264 1.408 . S
H312 C253 0.980 . S
H313 C252 0.959 . S
H314 C252 0.959 . S
H315 C252 0.960 . S
H316 C255 0.929 . S
H317 C259 0.929 . S
H318 C260 0.959 . S
H319 C260 0.961 . S
H320 C260 0.961 . S
H321 C261 0.960 . S
H322 C261 0.960 . S
H323 C261 0.961 . S
H324 C263 0.980 . S
H325 C262 0.961 . S
H326 C262 0.960 . S
H327 C262 0.959 . S
H328 C265 0.930 . S
H329 C269 0.931 . S
H330 C270 0.959 . S
H331 C270 0.961 . S
H332 C270 0.959 . S
H333 C271 0.960 . S
H334 C271 0.960 . S
H335 C271 0.960 . S
H336 C307 0.980 . S
H337 C273 0.930 . S
H338 C277 0.930 . S
H339 C278 0.961 . S
H340 C278 0.960 . S
H341 C278 0.958 . S
H342 C279 0.961 . S
H343 C279 0.960 . S
H344 C279 0.960 . S
H345 C281 0.980 . S
H346 C280 0.961 . S
H347 C280 0.961 . S
H348 C280 0.959 . S
H349 C283 0.932 . S
H350 C287 0.929 . S
H351 C288 0.961 . S
H352 C288 0.959 . S
H353 C288 0.959 . S
H354 C289 0.960 . S
H355 C289 0.962 . S
H356 C289 0.961 . S
H357 C291 0.929 . S
H358 C294 0.930 . S
H359 C295 0.929 . S
H360 C298 0.930 . S
H361 C301 0.929 . S
H362 C302 0.930 . S
H363 C306 0.962 . S
H364 C306 0.959 . S
H365 C306 0.958 . S
C366 C367 1.560 . S
C366 H427 0.959 . S
C366 H428 0.959 . S
C366 H429 0.960 . S
C367 C366 1.560 . S
C367 O422 1.426 . S
C367 H426 0.980 . S
C368 C369 1.407 . S
C368 C373 1.418 . S
C368 O422 1.334 . S
C369 C368 1.407 . S
C369 C370 1.360 . S
C369 H430 0.929 . S
C370 C369 1.360 . S
C370 C371 1.401 . S
C370 C374 1.527 . S
C371 C370 1.401 . S
C371 C372 1.405 . S
C371 C404 1.587 . S
C372 C371 1.405 . S
C372 C373 1.332 . S
C372 C375 1.496 . S
C373 C368 1.418 . S
C373 C372 1.332 . S
C373 H431 0.929 . S
C374 C370 1.527 . S
C374 H432 0.959 . S
C374 H433 0.961 . S
C374 H434 0.961 . S
C375 C372 1.496 . S
C375 H435 0.960 . S
C375 H436 0.960 . S
C375 H437 0.961 . S
C376 C377 1.517 . S
C376 H439 0.961 . S
C376 H440 0.960 . S
C376 H441 0.959 . S
C377 C376 1.517 . S
C377 O425 1.468 . S
C377 H438 0.980 . S
C378 C379 1.349 . S
C378 C383 1.367 . S
C378 O425 1.408 . S
C379 C378 1.349 . S
C379 C380 1.407 . S
C379 H442 0.930 . S
C380 C379 1.407 . S
C380 C381 1.449 . S
C380 C384 1.535 . S
C381 C380 1.449 . S
C381 C382 1.384 . S
C381 C406 1.553 . S
C382 C381 1.384 . S
C382 C383 1.364 . S
C382 C385 1.450 . S
C383 C378 1.367 . S
C383 C382 1.364 . S
C383 H443 0.931 . S
C384 C380 1.535 . S
C384 H444 0.959 . S
C384 H445 0.961 . S
C384 H446 0.959 . S
C385 C382 1.450 . S
C385 H447 0.960 . S
C385 H448 0.960 . S
C385 H449 0.960 . S
C386 C387 1.309 . S
C386 C391 1.304 . S
C386 O424 1.435 . S
C387 C386 1.309 . S
C387 C388 1.476 . S
C387 H451 0.930 . S
C388 C387 1.476 . S
C388 C389 1.400 . S
C388 C392 1.567 . S
C389 C388 1.400 . S
C389 C390 1.373 . S
C389 C411 1.432 . S
C390 C389 1.373 . S
C390 C391 1.339 . S
C390 C393 1.530 . S
C391 C386 1.304 . S
C391 C390 1.339 . S
C391 H452 0.930 . S
C392 C388 1.567 . S
C392 H453 0.961 . S
C392 H454 0.960 . S
C392 H455 0.958 . S
C393 C390 1.530 . S
C393 H456 0.961 . S
C393 H457 0.960 . S
C393 H458 0.960 . S
C394 C395 1.530 . S
C394 H460 0.961 . S
C394 H461 0.961 . S
C394 H462 0.959 . S
C395 C394 1.530 . S
C395 O423 1.412 . S
C395 H459 0.980 . S
C396 C397 1.288 . S
C396 C401 1.377 . S
C396 O423 1.393 . S
C397 C396 1.288 . S
C397 C398 1.369 . S
C397 H463 0.932 . S
C398 C397 1.369 . S
C398 C399 1.398 . S
C398 C402 1.527 . S
C399 C398 1.398 . S
C399 C400 1.380 . S
C399 C413 1.497 . S
C400 C399 1.380 . S
C400 C401 1.383 . S
C400 C403 1.603 . S
C401 C396 1.377 . S
C401 C400 1.383 . S
C401 H464 0.929 . S
C402 C398 1.527 . S
C402 H465 0.961 . S
C402 H466 0.959 . S
C402 H467 0.959 . S
C403 C400 1.603 . S
C403 H468 0.960 . S
C403 H469 0.962 . S
C403 H470 0.961 . S
C404 C371 1.587 . S
C404 C405 1.360 . S
C404 C417 1.412 . S
C405 C404 1.360 . S
C405 C406 1.365 . S
C405 H471 0.929 . S
C406 C381 1.553 . S
C406 C405 1.365 . S
C406 C407 1.404 . S
C407 C406 1.404 . S
C407 C408 1.395 . S
C407 C418 1.451 . S
C408 C407 1.395 . S
C408 C409 1.322 . S
C408 H472 0.930 . S
C409 C408 1.322 . S
C409 C410 1.459 . S
C409 H473 0.929 . S
C410 C409 1.459 . S
C410 C411 1.445 . S
C410 C419 1.395 . S
C411 C389 1.432 . S
C411 C410 1.445 . S
C411 C412 1.370 . S
C412 C411 1.370 . S
C412 C413 1.438 . S
C412 H474 0.930 . S
C413 C399 1.497 . S
C413 C412 1.438 . S
C413 C414 1.360 . S
C414 C413 1.360 . S
C414 C415 1.401 . S
C414 C419 1.446 . S
C415 C414 1.401 . S
C415 C416 1.347 . S
C415 H475 0.929 . S
C416 C415 1.347 . S
C416 C417 1.455 . S
C416 H476 0.930 . S
C417 C404 1.412 . S
C417 C416 1.455 . S
C417 C418 1.331 . S
C418 C407 1.451 . S
C418 C417 1.331 . S
C418 C419 1.497 . S
C419 C410 1.395 . S
C419 C414 1.446 . S
C419 C418 1.497 . S
C420 C421 1.582 . S
C420 H477 0.962 . S
C420 H478 0.959 . S
C420 H479 0.958 . S
C421 C420 1.582 . S
C421 O424 1.458 . S
C421 H450 0.980 . S
O422 C367 1.426 . S
O422 C368 1.334 . S
O423 C395 1.412 . S
O423 C396 1.393 . S
O424 C386 1.435 . S
O424 C421 1.458 . S
O425 C377 1.468 . S
O425 C378 1.408 . S
H426 C367 0.980 . S
H427 C366 0.959 . S
H428 C366 0.959 . S
H429 C366 0.960 . S
H430 C369 0.929 . S
H431 C373 0.929 . S
H432 C374 0.959 . S
H433 C374 0.961 . S
H434 C374 0.961 . S
H435 C375 0.960 . S
H436 C375 0.960 . S
H437 C375 0.961 . S
H438 C377 0.980 . S
H439 C376 0.961 . S
H440 C376 0.960 . S
H441 C376 0.959 . S
H442 C379 0.930 . S
H443 C383 0.931 . S
H444 C384 0.959 . S
H445 C384 0.961 . S
H446 C384 0.959 . S
H447 C385 0.960 . S
H448 C385 0.960 . S
H449 C385 0.960 . S
H450 C421 0.980 . S
H451 C387 0.930 . S
H452 C391 0.930 . S
H453 C392 0.961 . S
H454 C392 0.960 . S
H455 C392 0.958 . S
H456 C393 0.961 . S
H457 C393 0.960 . S
H458 C393 0.960 . S
H459 C395 0.980 . S
H460 C394 0.961 . S
H461 C394 0.961 . S
H462 C394 0.959 . S
H463 C397 0.932 . S
H464 C401 0.929 . S
H465 C402 0.961 . S
H466 C402 0.959 . S
H467 C402 0.959 . S
H468 C403 0.960 . S
H469 C403 0.962 . S
H470 C403 0.961 . S
H471 C405 0.929 . S
H472 C408 0.930 . S
H473 C409 0.929 . S
H474 C412 0.930 . S
H475 C415 0.929 . S
H476 C416 0.930 . S
H477 C420 0.962 . S
H478 C420 0.959 . S
H479 C420 0.958 . S
C480 C481 1.560 . S
C480 H541 0.959 . S
C480 H542 0.959 . S
C480 H543 0.960 . S
C481 C480 1.560 . S
C481 O536 1.426 . S
C481 H540 0.980 . S
C482 C483 1.407 . S
C482 C487 1.418 . S
C482 O536 1.334 . S
C483 C482 1.407 . S
C483 C484 1.360 . S
C483 H544 0.929 . S
C484 C483 1.360 . S
C484 C485 1.401 . S
C484 C488 1.527 . S
C485 C484 1.401 . S
C485 C486 1.405 . S
C485 C518 1.587 . S
C486 C485 1.405 . S
C486 C487 1.332 . S
C486 C489 1.496 . S
C487 C482 1.418 . S
C487 C486 1.332 . S
C487 H545 0.929 . S
C488 C484 1.527 . S
C488 H546 0.959 . S
C488 H547 0.961 . S
C488 H548 0.961 . S
C489 C486 1.496 . S
C489 H549 0.960 . S
C489 H550 0.960 . S
C489 H551 0.961 . S
C490 C491 1.517 . S
C490 H553 0.961 . S
C490 H554 0.960 . S
C490 H555 0.959 . S
C491 C490 1.517 . S
C491 O539 1.468 . S
C491 H552 0.980 . S
C492 C493 1.349 . S
C492 C497 1.367 . S
C492 O539 1.408 . S
C493 C492 1.349 . S
C493 C494 1.407 . S
C493 H556 0.930 . S
C494 C493 1.407 . S
C494 C495 1.449 . S
C494 C498 1.535 . S
C495 C494 1.449 . S
C495 C496 1.384 . S
C495 C520 1.553 . S
C496 C495 1.384 . S
C496 C497 1.364 . S
C496 C499 1.450 . S
C497 C492 1.367 . S
C497 C496 1.364 . S
C497 H557 0.931 . S
C498 C494 1.535 . S
C498 H558 0.959 . S
C498 H559 0.961 . S
C498 H560 0.959 . S
C499 C496 1.450 . S
C499 H561 0.960 . S
C499 H562 0.960 . S
C499 H563 0.960 . S
C500 C501 1.309 . S
C500 C505 1.304 . S
C500 O538 1.435 . S
C501 C500 1.309 . S
C501 C502 1.476 . S
C501 H565 0.930 . S
C502 C501 1.476 . S
C502 C503 1.400 . S
C502 C506 1.567 . S
C503 C502 1.400 . S
C503 C504 1.373 . S
C503 C525 1.432 . S
C504 C503 1.373 . S
C504 C505 1.339 . S
C504 C507 1.530 . S
C505 C500 1.304 . S
C505 C504 1.339 . S
C505 H566 0.930 . S
C506 C502 1.567 . S
C506 H567 0.961 . S
C506 H568 0.960 . S
C506 H569 0.958 . S
C507 C504 1.530 . S
C507 H570 0.961 . S
C507 H571 0.960 . S
C507 H572 0.960 . S
C508 C509 1.530 . S
C508 H574 0.961 . S
C508 H575 0.961 . S
C508 H576 0.959 . S
C509 C508 1.530 . S
C509 O537 1.412 . S
C509 H573 0.980 . S
C510 C511 1.288 . S
C510 C515 1.377 . S
C510 O537 1.393 . S
C511 C510 1.288 . S
C511 C512 1.369 . S
C511 H577 0.932 . S
C512 C511 1.369 . S
C512 C513 1.398 . S
C512 C516 1.527 . S
C513 C512 1.398 . S
C513 C514 1.380 . S
C513 C527 1.497 . S
C514 C513 1.380 . S
C514 C515 1.383 . S
C514 C517 1.603 . S
C515 C510 1.377 . S
C515 C514 1.383 . S
C515 H578 0.929 . S
C516 C512 1.527 . S
C516 H579 0.961 . S
C516 H580 0.959 . S
C516 H581 0.959 . S
C517 C514 1.603 . S
C517 H582 0.960 . S
C517 H583 0.962 . S
C517 H584 0.961 . S
C518 C485 1.587 . S
C518 C519 1.360 . S
C518 C531 1.412 . S
C519 C518 1.360 . S
C519 C520 1.365 . S
C519 H585 0.929 . S
C520 C495 1.553 . S
C520 C519 1.365 . S
C520 C521 1.404 . S
C521 C520 1.404 . S
C521 C522 1.395 . S
C521 C532 1.451 . S
C522 C521 1.395 . S
C522 C523 1.322 . S
C522 H586 0.930 . S
C523 C522 1.322 . S
C523 C524 1.459 . S
C523 H587 0.929 . S
C524 C523 1.459 . S
C524 C525 1.445 . S
C524 C533 1.395 . S
C525 C503 1.432 . S
C525 C524 1.445 . S
C525 C526 1.370 . S
C526 C525 1.370 . S
C526 C527 1.438 . S
C526 H588 0.930 . S
C527 C513 1.497 . S
C527 C526 1.438 . S
C527 C528 1.360 . S
C528 C527 1.360 . S
C528 C529 1.401 . S
C528 C533 1.446 . S
C529 C528 1.401 . S
C529 C530 1.347 . S
C529 H589 0.929 . S
C530 C529 1.347 . S
C530 C531 1.455 . S
C530 H590 0.930 . S
C531 C518 1.412 . S
C531 C530 1.455 . S
C531 C532 1.331 . S
C532 C521 1.451 . S
C532 C531 1.331 . S
C532 C533 1.497 . S
C533 C524 1.395 . S
C533 C528 1.446 . S
C533 C532 1.497 . S
C534 C535 1.582 . S
C534 H591 0.962 . S
C534 H592 0.959 . S
C534 H593 0.958 . S
C535 C534 1.582 . S
C535 O538 1.458 . S
C535 H564 0.980 . S
O536 C481 1.426 . S
O536 C482 1.334 . S
O537 C509 1.412 . S
O537 C510 1.393 . S
O538 C500 1.435 . S
O538 C535 1.458 . S
O539 C491 1.468 . S
O539 C492 1.408 . S
H540 C481 0.980 . S
H541 C480 0.959 . S
H542 C480 0.959 . S
H543 C480 0.960 . S
H544 C483 0.929 . S
H545 C487 0.929 . S
H546 C488 0.959 . S
H547 C488 0.961 . S
H548 C488 0.961 . S
H549 C489 0.960 . S
H550 C489 0.960 . S
H551 C489 0.961 . S
H552 C491 0.980 . S
H553 C490 0.961 . S
H554 C490 0.960 . S
H555 C490 0.959 . S
H556 C493 0.930 . S
H557 C497 0.931 . S
H558 C498 0.959 . S
H559 C498 0.961 . S
H560 C498 0.959 . S
H561 C499 0.960 . S
H562 C499 0.960 . S
H563 C499 0.960 . S
H564 C535 0.980 . S
H565 C501 0.930 . S
H566 C505 0.930 . S
H567 C506 0.961 . S
H568 C506 0.960 . S
H569 C506 0.958 . S
H570 C507 0.961 . S
H571 C507 0.960 . S
H572 C507 0.960 . S
H573 C509 0.980 . S
H574 C508 0.961 . S
H575 C508 0.961 . S
H576 C508 0.959 . S
H577 C511 0.932 . S
H578 C515 0.929 . S
H579 C516 0.961 . S
H580 C516 0.959 . S
H581 C516 0.959 . S
H582 C517 0.960 . S
H583 C517 0.962 . S
H584 C517 0.961 . S
H585 C519 0.929 . S
H586 C522 0.930 . S
H587 C523 0.929 . S
H588 C526 0.930 . S
H589 C529 0.929 . S
H590 C530 0.930 . S
H591 C534 0.962 . S
H592 C534 0.959 . S
H593 C534 0.958 . S
C594 C595 1.560 . S
C594 H655 0.959 . S
C594 H656 0.959 . S
C594 H657 0.960 . S
C595 C594 1.560 . S
C595 O650 1.426 . S
C595 H654 0.980 . S
C596 C597 1.407 . S
C596 C601 1.418 . S
C596 O650 1.334 . S
C597 C596 1.407 . S
C597 C598 1.360 . S
C597 H658 0.929 . S
C598 C597 1.360 . S
C598 C599 1.401 . S
C598 C602 1.527 . S
C599 C598 1.401 . S
C599 C600 1.405 . S
C599 C632 1.587 . S
C600 C599 1.405 . S
C600 C601 1.332 . S
C600 C603 1.496 . S
C601 C596 1.418 . S
C601 C600 1.332 . S
C601 H659 0.929 . S
C602 C598 1.527 . S
C602 H660 0.959 . S
C602 H661 0.961 . S
C602 H662 0.961 . S
C603 C600 1.496 . S
C603 H663 0.960 . S
C603 H664 0.960 . S
C603 H665 0.961 . S
C604 C605 1.517 . S
C604 H667 0.961 . S
C604 H668 0.960 . S
C604 H669 0.959 . S
C605 C604 1.517 . S
C605 O653 1.468 . S
C605 H666 0.980 . S
C606 C607 1.349 . S
C606 C611 1.367 . S
C606 O653 1.408 . S
C607 C606 1.349 . S
C607 C608 1.407 . S
C607 H670 0.930 . S
C608 C607 1.407 . S
C608 C609 1.449 . S
C608 C612 1.535 . S
C609 C608 1.449 . S
C609 C610 1.384 . S
C609 C634 1.553 . S
C610 C609 1.384 . S
C610 C611 1.364 . S
C610 C613 1.450 . S
C611 C606 1.367 . S
C611 C610 1.364 . S
C611 H671 0.931 . S
C612 C608 1.535 . S
C612 H672 0.959 . S
C612 H673 0.961 . S
C612 H674 0.959 . S
C613 C610 1.450 . S
C613 H675 0.960 . S
C613 H676 0.960 . S
C613 H677 0.960 . S
C614 C615 1.309 . S
C614 C619 1.304 . S
C614 O652 1.435 . S
C615 C614 1.309 . S
C615 C616 1.476 . S
C615 H679 0.930 . S
C616 C615 1.476 . S
C616 C617 1.400 . S
C616 C620 1.567 . S
C617 C616 1.400 . S
C617 C618 1.373 . S
C617 C639 1.432 . S
C618 C617 1.373 . S
C618 C619 1.339 . S
C618 C621 1.530 . S
C619 C614 1.304 . S
C619 C618 1.339 . S
C619 H680 0.930 . S
C620 C616 1.567 . S
C620 H681 0.961 . S
C620 H682 0.960 . S
C620 H683 0.958 . S
C621 C618 1.530 . S
C621 H684 0.961 . S
C621 H685 0.960 . S
C621 H686 0.960 . S
C622 C623 1.530 . S
C622 H688 0.961 . S
C622 H689 0.961 . S
C622 H690 0.959 . S
C623 C622 1.530 . S
C623 O651 1.412 . S
C623 H687 0.980 . S
C624 C625 1.288 . S
C624 C629 1.377 . S
C624 O651 1.393 . S
C625 C624 1.288 . S
C625 C626 1.369 . S
C625 H691 0.932 . S
C626 C625 1.369 . S
C626 C627 1.398 . S
C626 C630 1.527 . S
C627 C626 1.398 . S
C627 C628 1.380 . S
C627 C641 1.497 . S
C628 C627 1.380 . S
C628 C629 1.383 . S
C628 C631 1.603 . S
C629 C624 1.377 . S
C629 C628 1.383 . S
C629 H692 0.929 . S
C630 C626 1.527 . S
C630 H693 0.961 . S
C630 H694 0.959 . S
C630 H695 0.959 . S
C631 C628 1.603 . S
C631 H696 0.960 . S
C631 H697 0.962 . S
C631 H698 0.961 . S
C632 C599 1.587 . S
C632 C633 1.360 . S
C632 C645 1.412 . S
C633 C632 1.360 . S
C633 C634 1.365 . S
C633 H699 0.929 . S
C634 C609 1.553 . S
C634 C633 1.365 . S
C634 C635 1.404 . S
C635 C634 1.404 . S
C635 C636 1.395 . S
C635 C646 1.451 . S
C636 C635 1.395 . S
C636 C637 1.322 . S
C636 H700 0.930 . S
C637 C636 1.322 . S
C637 C638 1.459 . S
C637 H701 0.929 . S
C638 C637 1.459 . S
C638 C639 1.445 . S
C638 C647 1.395 . S
C639 C617 1.432 . S
C639 C638 1.445 . S
C639 C640 1.370 . S
C640 C639 1.370 . S
C640 C641 1.438 . S
C640 H702 0.930 . S
C641 C627 1.497 . S
C641 C640 1.438 . S
C641 C642 1.360 . S
C642 C641 1.360 . S
C642 C643 1.401 . S
C642 C647 1.446 . S
C643 C642 1.401 . S
C643 C644 1.347 . S
C643 H703 0.929 . S
C644 C643 1.347 . S
C644 C645 1.455 . S
C644 H704 0.930 . S
C645 C632 1.412 . S
C645 C644 1.455 . S
C645 C646 1.331 . S
C646 C635 1.451 . S
C646 C645 1.331 . S
C646 C647 1.497 . S
C647 C638 1.395 . S
C647 C642 1.446 . S
C647 C646 1.497 . S
C648 C649 1.582 . S
C648 H705 0.962 . S
C648 H706 0.959 . S
C648 H707 0.958 . S
C649 C648 1.582 . S
C649 O652 1.458 . S
C649 H678 0.980 . S
O650 C595 1.426 . S
O650 C596 1.334 . S
O651 C623 1.412 . S
O651 C624 1.393 . S
O652 C614 1.435 . S
O652 C649 1.458 . S
O653 C605 1.468 . S
O653 C606 1.408 . S
H654 C595 0.980 . S
H655 C594 0.959 . S
H656 C594 0.959 . S
H657 C594 0.960 . S
H658 C597 0.929 . S
H659 C601 0.929 . S
H660 C602 0.959 . S
H661 C602 0.961 . S
H662 C602 0.961 . S
H663 C603 0.960 . S
H664 C603 0.960 . S
H665 C603 0.961 . S
H666 C605 0.980 . S
H667 C604 0.961 . S
H668 C604 0.960 . S
H669 C604 0.959 . S
H670 C607 0.930 . S
H671 C611 0.931 . S
H672 C612 0.959 . S
H673 C612 0.961 . S
H674 C612 0.959 . S
H675 C613 0.960 . S
H676 C613 0.960 . S
H677 C613 0.960 . S
H678 C649 0.980 . S
H679 C615 0.930 . S
H680 C619 0.930 . S
H681 C620 0.961 . S
H682 C620 0.960 . S
H683 C620 0.958 . S
H684 C621 0.961 . S
H685 C621 0.960 . S
H686 C621 0.960 . S
H687 C623 0.980 . S
H688 C622 0.961 . S
H689 C622 0.961 . S
H690 C622 0.959 . S
H691 C625 0.932 . S
H692 C629 0.929 . S
H693 C630 0.961 . S
H694 C630 0.959 . S
H695 C630 0.959 . S
H696 C631 0.960 . S
H697 C631 0.962 . S
H698 C631 0.961 . S
H699 C633 0.929 . S
H700 C636 0.930 . S
H701 C637 0.929 . S
H702 C640 0.930 . S
H703 C643 0.929 . S
H704 C644 0.930 . S
H705 C648 0.962 . S
H706 C648 0.959 . S
H707 C648 0.958 . S
C708 C709 1.560 . S
C708 H769 0.959 . S
C708 H770 0.959 . S
C708 H771 0.960 . S
C709 C708 1.560 . S
C709 O764 1.426 . S
C709 H768 0.980 . S
C710 C711 1.407 . S
C710 C715 1.418 . S
C710 O764 1.334 . S
C711 C710 1.407 . S
C711 C712 1.360 . S
C711 H772 0.929 . S
C712 C711 1.360 . S
C712 C713 1.401 . S
C712 C716 1.527 . S
C713 C712 1.401 . S
C713 C714 1.405 . S
C713 C746 1.587 . S
C714 C713 1.405 . S
C714 C715 1.332 . S
C714 C717 1.496 . S
C715 C710 1.418 . S
C715 C714 1.332 . S
C715 H773 0.929 . S
C716 C712 1.527 . S
C716 H774 0.959 . S
C716 H775 0.961 . S
C716 H776 0.961 . S
C717 C714 1.496 . S
C717 H777 0.960 . S
C717 H778 0.960 . S
C717 H779 0.961 . S
C718 C719 1.517 . S
C718 H781 0.961 . S
C718 H782 0.960 . S
C718 H783 0.959 . S
C719 C718 1.517 . S
C719 O767 1.468 . S
C719 H780 0.980 . S
C720 C721 1.349 . S
C720 C725 1.367 . S
C720 O767 1.408 . S
C721 C720 1.349 . S
C721 C722 1.407 . S
C721 H784 0.930 . S
C722 C721 1.407 . S
C722 C723 1.449 . S
C722 C726 1.535 . S
C723 C722 1.449 . S
C723 C724 1.384 . S
C723 C748 1.553 . S
C724 C723 1.384 . S
C724 C725 1.364 . S
C724 C727 1.450 . S
C725 C720 1.367 . S
C725 C724 1.364 . S
C725 H785 0.931 . S
C726 C722 1.535 . S
C726 H786 0.959 . S
C726 H787 0.961 . S
C726 H788 0.959 . S
C727 C724 1.450 . S
C727 H789 0.960 . S
C727 H790 0.960 . S
C727 H791 0.960 . S
C728 C729 1.309 . S
C728 C733 1.304 . S
C728 O766 1.435 . S
C729 C728 1.309 . S
C729 C730 1.476 . S
C729 H793 0.930 . S
C730 C729 1.476 . S
C730 C731 1.400 . S
C730 C734 1.567 . S
C731 C730 1.400 . S
C731 C732 1.373 . S
C731 C753 1.432 . S
C732 C731 1.373 . S
C732 C733 1.339 . S
C732 C735 1.530 . S
C733 C728 1.304 . S
C733 C732 1.339 . S
C733 H794 0.930 . S
C734 C730 1.567 . S
C734 H795 0.961 . S
C734 H796 0.960 . S
C734 H797 0.958 . S
C735 C732 1.530 . S
C735 H798 0.961 . S
C735 H799 0.960 . S
C735 H800 0.960 . S
C736 C737 1.530 . S
C736 H802 0.961 . S
C736 H803 0.961 . S
C736 H804 0.959 . S
C737 C736 1.530 . S
C737 O765 1.412 . S
C737 H801 0.980 . S
C738 C739 1.288 . S
C738 C743 1.377 . S
C738 O765 1.393 . S
C739 C738 1.288 . S
C739 C740 1.369 . S
C739 H805 0.932 . S
C740 C739 1.369 . S
C740 C741 1.398 . S
C740 C744 1.527 . S
C741 C740 1.398 . S
C741 C742 1.380 . S
C741 C755 1.497 . S
C742 C741 1.380 . S
C742 C743 1.383 . S
C742 C745 1.603 . S
C743 C738 1.377 . S
C743 C742 1.383 . S
C743 H806 0.929 . S
C744 C740 1.527 . S
C744 H807 0.961 . S
C744 H808 0.959 . S
C744 H809 0.959 . S
C745 C742 1.603 . S
C745 H810 0.960 . S
C745 H811 0.962 . S
C745 H812 0.961 . S
C746 C713 1.587 . S
C746 C747 1.360 . S
C746 C759 1.412 . S
C747 C746 1.360 . S
C747 C748 1.365 . S
C747 H813 0.929 . S
C748 C723 1.553 . S
C748 C747 1.365 . S
C748 C749 1.404 . S
C749 C748 1.404 . S
C749 C750 1.395 . S
C749 C760 1.451 . S
C750 C749 1.395 . S
C750 C751 1.322 . S
C750 H814 0.930 . S
C751 C750 1.322 . S
C751 C752 1.459 . S
C751 H815 0.929 . S
C752 C751 1.459 . S
C752 C753 1.445 . S
C752 C761 1.395 . S
C753 C731 1.432 . S
C753 C752 1.445 . S
C753 C754 1.370 . S
C754 C753 1.370 . S
C754 C755 1.438 . S
C754 H816 0.930 . S
C755 C741 1.497 . S
C755 C754 1.438 . S
C755 C756 1.360 . S
C756 C755 1.360 . S
C756 C757 1.401 . S
C756 C761 1.446 . S
C757 C756 1.401 . S
C757 C758 1.347 . S
C757 H817 0.929 . S
C758 C757 1.347 . S
C758 C759 1.455 . S
C758 H818 0.930 . S
C759 C746 1.412 . S
C759 C758 1.455 . S
C759 C760 1.331 . S
C760 C749 1.451 . S
C760 C759 1.331 . S
C760 C761 1.497 . S
C761 C752 1.395 . S
C761 C756 1.446 . S
C761 C760 1.497 . S
C762 C763 1.582 . S
C762 H819 0.962 . S
C762 H820 0.959 . S
C762 H821 0.958 . S
C763 C762 1.582 . S
C763 O766 1.458 . S
C763 H792 0.980 . S
O764 C709 1.426 . S
O764 C710 1.334 . S
O765 C737 1.412 . S
O765 C738 1.393 . S
O766 C728 1.435 . S
O766 C763 1.458 . S
O767 C719 1.468 . S
O767 C720 1.408 . S
H768 C709 0.980 . S
H769 C708 0.959 . S
H770 C708 0.959 . S
H771 C708 0.960 . S
H772 C711 0.929 . S
H773 C715 0.929 . S
H774 C716 0.959 . S
H775 C716 0.961 . S
H776 C716 0.961 . S
H777 C717 0.960 . S
H778 C717 0.960 . S
H779 C717 0.961 . S
H780 C719 0.980 . S
H781 C718 0.961 . S
H782 C718 0.960 . S
H783 C718 0.959 . S
H784 C721 0.930 . S
H785 C725 0.931 . S
H786 C726 0.959 . S
H787 C726 0.961 . S
H788 C726 0.959 . S
H789 C727 0.960 . S
H790 C727 0.960 . S
H791 C727 0.960 . S
H792 C763 0.980 . S
H793 C729 0.930 . S
H794 C733 0.930 . S
H795 C734 0.961 . S
H796 C734 0.960 . S
H797 C734 0.958 . S
H798 C735 0.961 . S
H799 C735 0.960 . S
H800 C735 0.960 . S
H801 C737 0.980 . S
H802 C736 0.961 . S
H803 C736 0.961 . S
H804 C736 0.959 . S
H805 C739 0.932 . S
H806 C743 0.929 . S
H807 C744 0.961 . S
H808 C744 0.959 . S
H809 C744 0.959 . S
H810 C745 0.960 . S
H811 C745 0.962 . S
H812 C745 0.961 . S
H813 C747 0.929 . S
H814 C750 0.930 . S
H815 C751 0.929 . S
H816 C754 0.930 . S
H817 C757 0.929 . S
H818 C758 0.930 . S
H819 C762 0.962 . S
H820 C762 0.959 . S
H821 C762 0.958 . S
C822 C823 1.560 . S
C822 H883 0.959 . S
C822 H884 0.959 . S
C822 H885 0.960 . S
C823 C822 1.560 . S
C823 O878 1.426 . S
C823 H882 0.980 . S
C824 C825 1.407 . S
C824 C829 1.418 . S
C824 O878 1.334 . S
C825 C824 1.407 . S
C825 C826 1.360 . S
C825 H886 0.929 . S
C826 C825 1.360 . S
C826 C827 1.401 . S
C826 C830 1.527 . S
C827 C826 1.401 . S
C827 C828 1.405 . S
C827 C860 1.587 . S
C828 C827 1.405 . S
C828 C829 1.332 . S
C828 C831 1.496 . S
C829 C824 1.418 . S
C829 C828 1.332 . S
C829 H887 0.929 . S
C830 C826 1.527 . S
C830 H888 0.959 . S
C830 H889 0.961 . S
C830 H890 0.961 . S
C831 C828 1.496 . S
C831 H891 0.960 . S
C831 H892 0.960 . S
C831 H893 0.961 . S
C832 C833 1.517 . S
C832 H895 0.961 . S
C832 H896 0.960 . S
C832 H897 0.959 . S
C833 C832 1.517 . S
C833 O881 1.468 . S
C833 H894 0.980 . S
C834 C835 1.349 . S
C834 C839 1.367 . S
C834 O881 1.408 . S
C835 C834 1.349 . S
C835 C836 1.407 . S
C835 H898 0.930 . S
C836 C835 1.407 . S
C836 C837 1.449 . S
C836 C840 1.535 . S
C837 C836 1.449 . S
C837 C838 1.384 . S
C837 C862 1.553 . S
C838 C837 1.384 . S
C838 C839 1.364 . S
C838 C841 1.450 . S
C839 C834 1.367 . S
C839 C838 1.364 . S
C839 H899 0.931 . S
C840 C836 1.535 . S
C840 H900 0.959 . S
C840 H901 0.961 . S
C840 H902 0.959 . S
C841 C838 1.450 . S
C841 H903 0.960 . S
C841 H904 0.960 . S
C841 H905 0.960 . S
C842 C843 1.309 . S
C842 C847 1.304 . S
C842 O880 1.435 . S
C843 C842 1.309 . S
C843 C844 1.476 . S
C843 H907 0.930 . S
C844 C843 1.476 . S
C844 C845 1.400 . S
C844 C848 1.567 . S
C845 C844 1.400 . S
C845 C846 1.373 . S
C845 C867 1.432 . S
C846 C845 1.373 . S
C846 C847 1.339 . S
C846 C849 1.530 . S
C847 C842 1.304 . S
C847 C846 1.339 . S
C847 H908 0.930 . S
C848 C844 1.567 . S
C848 H909 0.961 . S
C848 H910 0.960 . S
C848 H911 0.958 . S
C849 C846 1.530 . S
C849 H912 0.961 . S
C849 H913 0.960 . S
C849 H914 0.960 . S
C850 C851 1.530 . S
C850 H916 0.961 . S
C850 H917 0.961 . S
C850 H918 0.959 . S
C851 C850 1.530 . S
C851 O879 1.412 . S
C851 H915 0.980 . S
C852 C853 1.288 . S
C852 C857 1.377 . S
C852 O879 1.393 . S
C853 C852 1.288 . S
C853 C854 1.369 . S
C853 H919 0.932 . S
C854 C853 1.369 . S
C854 C855 1.398 . S
C854 C858 1.527 . S
C855 C854 1.398 . S
C855 C856 1.380 . S
C855 C869 1.497 . S
C856 C855 1.380 . S
C856 C857 1.383 . S
C856 C859 1.603 . S
C857 C852 1.377 . S
C857 C856 1.383 . S
C857 H920 0.929 . S
C858 C854 1.527 . S
C858 H921 0.961 . S
C858 H922 0.959 . S
C858 H923 0.959 . S
C859 C856 1.603 . S
C859 H924 0.960 . S
C859 H925 0.962 . S
C859 H926 0.961 . S
C860 C827 1.587 . S
C860 C861 1.360 . S
C860 C873 1.412 . S
C861 C860 1.360 . S
C861 C862 1.365 . S
C861 H927 0.929 . S
C862 C837 1.553 . S
C862 C861 1.365 . S
C862 C863 1.404 . S
C863 C862 1.404 . S
C863 C864 1.395 . S
C863 C874 1.451 . S
C864 C863 1.395 . S
C864 C865 1.322 . S
C864 H928 0.930 . S
C865 C864 1.322 . S
C865 C866 1.459 . S
C865 H929 0.929 . S
C866 C865 1.459 . S
C866 C867 1.445 . S
C866 C875 1.395 . S
C867 C845 1.432 . S
C867 C866 1.445 . S
C867 C868 1.370 . S
C868 C867 1.370 . S
C868 C869 1.438 . S
C868 H930 0.930 . S
C869 C855 1.497 . S
C869 C868 1.438 . S
C869 C870 1.360 . S
C870 C869 1.360 . S
C870 C871 1.401 . S
C870 C875 1.446 . S
C871 C870 1.401 . S
C871 C872 1.347 . S
C871 H931 0.929 . S
C872 C871 1.347 . S
C872 C873 1.455 . S
C872 H932 0.930 . S
C873 C860 1.412 . S
C873 C872 1.455 . S
C873 C874 1.331 . S
C874 C863 1.451 . S
C874 C873 1.331 . S
C874 C875 1.497 . S
C875 C866 1.395 . S
C875 C870 1.446 . S
C875 C874 1.497 . S
C876 C877 1.582 . S
C876 H933 0.962 . S
C876 H934 0.959 . S
C876 H935 0.958 . S
C877 C876 1.582 . S
C877 O880 1.458 . S
C877 H906 0.980 . S
O878 C823 1.426 . S
O878 C824 1.334 . S
O879 C851 1.412 . S
O879 C852 1.393 . S
O880 C842 1.435 . S
O880 C877 1.458 . S
O881 C833 1.468 . S
O881 C834 1.408 . S
H882 C823 0.980 . S
H883 C822 0.959 . S
H884 C822 0.959 . S
H885 C822 0.960 . S
H886 C825 0.929 . S
H887 C829 0.929 . S
H888 C830 0.959 . S
H889 C830 0.961 . S
H890 C830 0.961 . S
H891 C831 0.960 . S
H892 C831 0.960 . S
H893 C831 0.961 . S
H894 C833 0.980 . S
H895 C832 0.961 . S
H896 C832 0.960 . S
H897 C832 0.959 . S
H898 C835 0.930 . S
H899 C839 0.931 . S
H900 C840 0.959 . S
H901 C840 0.961 . S
H902 C840 0.959 . S
H903 C841 0.960 . S
H904 C841 0.960 . S
H905 C841 0.960 . S
H906 C877 0.980 . S
H907 C843 0.930 . S
H908 C847 0.930 . S
H909 C848 0.961 . S
H910 C848 0.960 . S
H911 C848 0.958 . S
H912 C849 0.961 . S
H913 C849 0.960 . S
H914 C849 0.960 . S
H915 C851 0.980 . S
H916 C850 0.961 . S
H917 C850 0.961 . S
H918 C850 0.959 . S
H919 C853 0.932 . S
H920 C857 0.929 . S
H921 C858 0.961 . S
H922 C858 0.959 . S
H923 C858 0.959 . S
H924 C859 0.960 . S
H925 C859 0.962 . S
H926 C859 0.961 . S
H927 C861 0.929 . S
H928 C864 0.930 . S
H929 C865 0.929 . S
H930 C868 0.930 . S
H931 C871 0.929 . S
H932 C872 0.930 . S
H933 C876 0.962 . S
H934 C876 0.959 . S
H935 C876 0.958 . S
C936 C937 1.560 . S
C936 H997 0.959 . S
C936 H998 0.959 . S
C936 H999 0.960 . S
C937 C936 1.560 . S
C937 O992 1.426 . S
C937 H996 0.980 . S
C938 C939 1.407 . S
C938 C943 1.418 . S
C938 O992 1.334 . S
C939 C938 1.407 . S
C939 C940 1.360 . S
C939 H1000 0.929 . S
C940 C939 1.360 . S
C940 C941 1.401 . S
C940 C944 1.527 . S
C941 C940 1.401 . S
C941 C942 1.405 . S
C941 C974 1.587 . S
C942 C941 1.405 . S
C942 C943 1.332 . S
C942 C945 1.496 . S
C943 C938 1.418 . S
C943 C942 1.332 . S
C943 H1001 0.929 . S
C944 C940 1.527 . S
C944 H1002 0.959 . S
C944 H1003 0.961 . S
C944 H1004 0.961 . S
C945 C942 1.496 . S
C945 H1005 0.960 . S
C945 H1006 0.960 . S
C945 H1007 0.961 . S
C946 C947 1.517 . S
C946 H1009 0.961 . S
C946 H1010 0.960 . S
C946 H1011 0.959 . S
C947 C946 1.517 . S
C947 O995 1.468 . S
C947 H1008 0.980 . S
C948 C949 1.349 . S
C948 C953 1.367 . S
C948 O995 1.408 . S
C949 C948 1.349 . S
C949 C950 1.407 . S
C949 H1012 0.930 . S
C950 C949 1.407 . S
C950 C951 1.449 . S
C950 C954 1.535 . S
C951 C950 1.449 . S
C951 C952 1.384 . S
C951 C976 1.553 . S
C952 C951 1.384 . S
C952 C953 1.364 . S
C952 C955 1.450 . S
C953 C948 1.367 . S
C953 C952 1.364 . S
C953 H1013 0.931 . S
C954 C950 1.535 . S
C954 H1014 0.959 . S
C954 H1015 0.961 . S
C954 H1016 0.959 . S
C955 C952 1.450 . S
C955 H1017 0.960 . S
C955 H1018 0.960 . S
C955 H1019 0.960 . S
C956 C957 1.309 . S
C956 C961 1.304 . S
C956 O994 1.435 . S
C957 C956 1.309 . S
C957 C958 1.476 . S
C957 H1021 0.930 . S
C958 C957 1.476 . S
C958 C959 1.400 . S
C958 C962 1.567 . S
C959 C958 1.400 . S
C959 C960 1.373 . S
C959 C981 1.432 . S
C960 C959 1.373 . S
C960 C961 1.339 . S
C960 C963 1.530 . S
C961 C956 1.304 . S
C961 C960 1.339 . S
C961 H1022 0.930 . S
C962 C958 1.567 . S
C962 H1023 0.961 . S
C962 H1024 0.960 . S
C962 H1025 0.958 . S
C963 C960 1.530 . S
C963 H1026 0.961 . S
C963 H1027 0.960 . S
C963 H1028 0.960 . S
C964 C965 1.530 . S
C964 H1030 0.961 . S
C964 H1031 0.961 . S
C964 H1032 0.959 . S
C965 C964 1.530 . S
C965 O993 1.412 . S
C965 H1029 0.980 . S
C966 C967 1.288 . S
C966 C971 1.377 . S
C966 O993 1.393 . S
C967 C966 1.288 . S
C967 C968 1.369 . S
C967 H1033 0.932 . S
C968 C967 1.369 . S
C968 C969 1.398 . S
C968 C972 1.527 . S
C969 C968 1.398 . S
C969 C970 1.380 . S
C969 C983 1.497 . S
C970 C969 1.380 . S
C970 C971 1.383 . S
C970 C973 1.603 . S
C971 C966 1.377 . S
C971 C970 1.383 . S
C971 H1034 0.929 . S
C972 C968 1.527 . S
C972 H1035 0.961 . S
C972 H1036 0.959 . S
C972 H1037 0.959 . S
C973 C970 1.603 . S
C973 H1038 0.960 . S
C973 H1039 0.962 . S
C973 H1040 0.961 . S
C974 C941 1.587 . S
C974 C975 1.360 . S
C974 C987 1.412 . S
C975 C974 1.360 . S
C975 C976 1.365 . S
C975 H1041 0.929 . S
C976 C951 1.553 . S
C976 C975 1.365 . S
C976 C977 1.404 . S
C977 C976 1.404 . S
C977 C978 1.395 . S
C977 C988 1.451 . S
C978 C977 1.395 . S
C978 C979 1.322 . S
C978 H1042 0.930 . S
C979 C978 1.322 . S
C979 C980 1.459 . S
C979 H1043 0.929 . S
C980 C979 1.459 . S
C980 C981 1.445 . S
C980 C989 1.395 . S
C981 C959 1.432 . S
C981 C980 1.445 . S
C981 C982 1.370 . S
C982 C981 1.370 . S
C982 C983 1.438 . S
C982 H1044 0.930 . S
C983 C969 1.497 . S
C983 C982 1.438 . S
C983 C984 1.360 . S
C984 C983 1.360 . S
C984 C985 1.401 . S
C984 C989 1.446 . S
C985 C984 1.401 . S
C985 C986 1.347 . S
C985 H1045 0.929 . S
C986 C985 1.347 . S
C986 C987 1.455 . S
C986 H1046 0.930 . S
C987 C974 1.412 . S
C987 C986 1.455 . S
C987 C988 1.331 . S
C988 C977 1.451 . S
C988 C987 1.331 . S
C988 C989 1.497 . S
C989 C980 1.395 . S
C989 C984 1.446 . S
C989 C988 1.497 . S
C990 C991 1.582 . S
C990 H1047 0.962 . S
C990 H1048 0.959 . S
C990 H1049 0.958 . S
C991 C990 1.582 . S
C991 O994 1.458 . S
C991 H1020 0.980 . S
O992 C937 1.426 . S
O992 C938 1.334 . S
O993 C965 1.412 . S
O993 C966 1.393 . S
O994 C956 1.435 . S
O994 C991 1.458 . S
O995 C947 1.468 . S
O995 C948 1.408 . S
H996 C937 0.980 . S
H997 C936 0.959 . S
H998 C936 0.959 . S
H999 C936 0.960 . S
H1000 C939 0.929 . S
H1001 C943 0.929 . S
H1002 C944 0.959 . S
H1003 C944 0.961 . S
H1004 C944 0.961 . S
H1005 C945 0.960 . S
H1006 C945 0.960 . S
H1007 C945 0.961 . S
H1008 C947 0.980 . S
H1009 C946 0.961 . S
H1010 C946 0.960 . S
H1011 C946 0.959 . S
H1012 C949 0.930 . S
H1013 C953 0.931 . S
H1014 C954 0.959 . S
H1015 C954 0.961 . S
H1016 C954 0.959 . S
H1017 C955 0.960 . S
H1018 C955 0.960 . S
H1019 C955 0.960 . S
H1020 C991 0.980 . S
H1021 C957 0.930 . S
H1022 C961 0.930 . S
H1023 C962 0.961 . S
H1024 C962 0.960 . S
H1025 C962 0.958 . S
H1026 C963 0.961 . S
H1027 C963 0.960 . S
H1028 C963 0.960 . S
H1029 C965 0.980 . S
H1030 C964 0.961 . S
H1031 C964 0.961 . S
H1032 C964 0.959 . S
H1033 C967 0.932 . S
H1034 C971 0.929 . S
H1035 C972 0.961 . S
H1036 C972 0.959 . S
H1037 C972 0.959 . S
H1038 C973 0.960 . S
H1039 C973 0.962 . S
H1040 C973 0.961 . S
H1041 C975 0.929 . S
H1042 C978 0.930 . S
H1043 C979 0.929 . S
H1044 C982 0.930 . S
H1045 C985 0.929 . S
H1046 C986 0.930 . S
H1047 C990 0.962 . S
H1048 C990 0.959 . S
H1049 C990 0.958 . S
C1050 C1051 1.560 . S
C1050 H1111 0.959 . S
C1050 H1112 0.959 . S
C1050 H1113 0.960 . S
C1051 C1050 1.560 . S
C1051 O1106 1.426 . S
C1051 H1110 0.980 . S
C1052 C1053 1.407 . S
C1052 C1057 1.418 . S
C1052 O1106 1.334 . S
C1053 C1052 1.407 . S
C1053 C1054 1.360 . S
C1053 H1114 0.929 . S
C1054 C1053 1.360 . S
C1054 C1055 1.401 . S
C1054 C1058 1.527 . S
C1055 C1054 1.401 . S
C1055 C1056 1.405 . S
C1055 C1088 1.587 . S
C1056 C1055 1.405 . S
C1056 C1057 1.332 . S
C1056 C1059 1.496 . S
C1057 C1052 1.418 . S
C1057 C1056 1.332 . S
C1057 H1115 0.929 . S
C1058 C1054 1.527 . S
C1058 H1116 0.959 . S
C1058 H1117 0.961 . S
C1058 H1118 0.961 . S
C1059 C1056 1.496 . S
C1059 H1119 0.960 . S
C1059 H1120 0.960 . S
C1059 H1121 0.961 . S
C1060 C1061 1.517 . S
C1060 H1123 0.961 . S
C1060 H1124 0.960 . S
C1060 H1125 0.959 . S
C1061 C1060 1.517 . S
C1061 O1109 1.468 . S
C1061 H1122 0.980 . S
C1062 C1063 1.349 . S
C1062 C1067 1.367 . S
C1062 O1109 1.408 . S
C1063 C1062 1.349 . S
C1063 C1064 1.407 . S
C1063 H1126 0.930 . S
C1064 C1063 1.407 . S
C1064 C1065 1.449 . S
C1064 C1068 1.535 . S
C1065 C1064 1.449 . S
C1065 C1066 1.384 . S
C1065 C1090 1.553 . S
C1066 C1065 1.384 . S
C1066 C1067 1.364 . S
C1066 C1069 1.450 . S
C1067 C1062 1.367 . S
C1067 C1066 1.364 . S
C1067 H1127 0.931 . S
C1068 C1064 1.535 . S
C1068 H1128 0.959 . S
C1068 H1129 0.961 . S
C1068 H1130 0.959 . S
C1069 C1066 1.450 . S
C1069 H1131 0.960 . S
C1069 H1132 0.960 . S
C1069 H1133 0.960 . S
C1070 C1071 1.309 . S
C1070 C1075 1.304 . S
C1070 O1108 1.435 . S
C1071 C1070 1.309 . S
C1071 C1072 1.476 . S
C1071 H1135 0.930 . S
C1072 C1071 1.476 . S
C1072 C1073 1.400 . S
C1072 C1076 1.567 . S
C1073 C1072 1.400 . S
C1073 C1074 1.373 . S
C1073 C1095 1.432 . S
C1074 C1073 1.373 . S
C1074 C1075 1.339 . S
C1074 C1077 1.530 . S
C1075 C1070 1.304 . S
C1075 C1074 1.339 . S
C1075 H1136 0.930 . S
C1076 C1072 1.567 . S
C1076 H1137 0.961 . S
C1076 H1138 0.960 . S
C1076 H1139 0.958 . S
C1077 C1074 1.530 . S
C1077 H1140 0.961 . S
C1077 H1141 0.960 . S
C1077 H1142 0.960 . S
C1078 C1079 1.530 . S
C1078 H1144 0.961 . S
C1078 H1145 0.961 . S
C1078 H1146 0.959 . S
C1079 C1078 1.530 . S
C1079 O1107 1.412 . S
C1079 H1143 0.980 . S
C1080 C1081 1.288 . S
C1080 C1085 1.377 . S
C1080 O1107 1.393 . S
C1081 C1080 1.288 . S
C1081 C1082 1.369 . S
C1081 H1147 0.932 . S
C1082 C1081 1.369 . S
C1082 C1083 1.398 . S
C1082 C1086 1.527 . S
C1083 C1082 1.398 . S
C1083 C1084 1.380 . S
C1083 C1097 1.497 . S
C1084 C1083 1.380 . S
C1084 C1085 1.383 . S
C1084 C1087 1.603 . S
C1085 C1080 1.377 . S
C1085 C1084 1.383 . S
C1085 H1148 0.929 . S
C1086 C1082 1.527 . S
C1086 H1149 0.961 . S
C1086 H1150 0.959 . S
C1086 H1151 0.959 . S
C1087 C1084 1.603 . S
C1087 H1152 0.960 . S
C1087 H1153 0.962 . S
C1087 H1154 0.961 . S
C1088 C1055 1.587 . S
C1088 C1089 1.360 . S
C1088 C1101 1.412 . S
C1089 C1088 1.360 . S
C1089 C1090 1.365 . S
C1089 H1155 0.929 . S
C1090 C1065 1.553 . S
C1090 C1089 1.365 . S
C1090 C1091 1.404 . S
C1091 C1090 1.404 . S
C1091 C1092 1.395 . S
C1091 C1102 1.451 . S
C1092 C1091 1.395 . S
C1092 C1093 1.322 . S
C1092 H1156 0.930 . S
C1093 C1092 1.322 . S
C1093 C1094 1.459 . S
C1093 H1157 0.929 . S
C1094 C1093 1.459 . S
C1094 C1095 1.445 . S
C1094 C1103 1.395 . S
C1095 C1073 1.432 . S
C1095 C1094 1.445 . S
C1095 C1096 1.370 . S
C1096 C1095 1.370 . S
C1096 C1097 1.438 . S
C1096 H1158 0.930 . S
C1097 C1083 1.497 . S
C1097 C1096 1.438 . S
C1097 C1098 1.360 . S
C1098 C1097 1.360 . S
C1098 C1099 1.401 . S
C1098 C1103 1.446 . S
C1099 C1098 1.401 . S
C1099 C1100 1.347 . S
C1099 H1159 0.929 . S
C1100 C1099 1.347 . S
C1100 C1101 1.455 . S
C1100 H1160 0.930 . S
C1101 C1088 1.412 . S
C1101 C1100 1.455 . S
C1101 C1102 1.331 . S
C1102 C1091 1.451 . S
C1102 C1101 1.331 . S
C1102 C1103 1.497 . S
C1103 C1094 1.395 . S
C1103 C1098 1.446 . S
C1103 C1102 1.497 . S
C1104 C1105 1.582 . S
C1104 H1161 0.962 . S
C1104 H1162 0.959 . S
C1104 H1163 0.958 . S
C1105 C1104 1.582 . S
C1105 O1108 1.458 . S
C1105 H1134 0.980 . S
O1106 C1051 1.426 . S
O1106 C1052 1.334 . S
O1107 C1079 1.412 . S
O1107 C1080 1.393 . S
O1108 C1070 1.435 . S
O1108 C1105 1.458 . S
O1109 C1061 1.468 . S
O1109 C1062 1.408 . S
H1110 C1051 0.980 . S
H1111 C1050 0.959 . S
H1112 C1050 0.959 . S
H1113 C1050 0.960 . S
H1114 C1053 0.929 . S
H1115 C1057 0.929 . S
H1116 C1058 0.959 . S
H1117 C1058 0.961 . S
H1118 C1058 0.961 . S
H1119 C1059 0.960 . S
H1120 C1059 0.960 . S
H1121 C1059 0.961 . S
H1122 C1061 0.980 . S
H1123 C1060 0.961 . S
H1124 C1060 0.960 . S
H1125 C1060 0.959 . S
H1126 C1063 0.930 . S
H1127 C1067 0.931 . S
H1128 C1068 0.959 . S
H1129 C1068 0.961 . S
H1130 C1068 0.959 . S
H1131 C1069 0.960 . S
H1132 C1069 0.960 . S
H1133 C1069 0.960 . S
H1134 C1105 0.980 . S
H1135 C1071 0.930 . S
H1136 C1075 0.930 . S
H1137 C1076 0.961 . S
H1138 C1076 0.960 . S
H1139 C1076 0.958 . S
H1140 C1077 0.961 . S
H1141 C1077 0.960 . S
H1142 C1077 0.960 . S
H1143 C1079 0.980 . S
H1144 C1078 0.961 . S
H1145 C1078 0.961 . S
H1146 C1078 0.959 . S
H1147 C1081 0.932 . S
H1148 C1085 0.929 . S
H1149 C1086 0.961 . S
H1150 C1086 0.959 . S
H1151 C1086 0.959 . S
H1152 C1087 0.960 . S
H1153 C1087 0.962 . S
H1154 C1087 0.961 . S
H1155 C1089 0.929 . S
H1156 C1092 0.930 . S
H1157 C1093 0.929 . S
H1158 C1096 0.930 . S
H1159 C1099 0.929 . S
H1160 C1100 0.930 . S
H1161 C1104 0.962 . S
H1162 C1104 0.959 . S
H1163 C1104 0.958 . S
C1164 C1165 1.560 . S
C1164 H1225 0.959 . S
C1164 H1226 0.959 . S
C1164 H1227 0.960 . S
C1165 C1164 1.560 . S
C1165 O1220 1.426 . S
C1165 H1224 0.980 . S
C1166 C1167 1.407 . S
C1166 C1171 1.418 . S
C1166 O1220 1.334 . S
C1167 C1166 1.407 . S
C1167 C1168 1.360 . S
C1167 H1228 0.929 . S
C1168 C1167 1.360 . S
C1168 C1169 1.401 . S
C1168 C1172 1.527 . S
C1169 C1168 1.401 . S
C1169 C1170 1.405 . S
C1169 C1202 1.587 . S
C1170 C1169 1.405 . S
C1170 C1171 1.332 . S
C1170 C1173 1.496 . S
C1171 C1166 1.418 . S
C1171 C1170 1.332 . S
C1171 H1229 0.929 . S
C1172 C1168 1.527 . S
C1172 H1230 0.959 . S
C1172 H1231 0.961 . S
C1172 H1232 0.961 . S
C1173 C1170 1.496 . S
C1173 H1233 0.960 . S
C1173 H1234 0.960 . S
C1173 H1235 0.961 . S
C1174 C1175 1.517 . S
C1174 H1237 0.961 . S
C1174 H1238 0.960 . S
C1174 H1239 0.959 . S
C1175 C1174 1.517 . S
C1175 O1223 1.468 . S
C1175 H1236 0.980 . S
C1176 C1177 1.349 . S
C1176 C1181 1.367 . S
C1176 O1223 1.408 . S
C1177 C1176 1.349 . S
C1177 C1178 1.407 . S
C1177 H1240 0.930 . S
C1178 C1177 1.407 . S
C1178 C1179 1.449 . S
C1178 C1182 1.535 . S
C1179 C1178 1.449 . S
C1179 C1180 1.384 . S
C1179 C1204 1.553 . S
C1180 C1179 1.384 . S
C1180 C1181 1.364 . S
C1180 C1183 1.450 . S
C1181 C1176 1.367 . S
C1181 C1180 1.364 . S
C1181 H1241 0.931 . S
C1182 C1178 1.535 . S
C1182 H1242 0.959 . S
C1182 H1243 0.961 . S
C1182 H1244 0.959 . S
C1183 C1180 1.450 . S
C1183 H1245 0.960 . S
C1183 H1246 0.960 . S
C1183 H1247 0.960 . S
C1184 C1185 1.309 . S
C1184 C1189 1.304 . S
C1184 O1222 1.435 . S
C1185 C1184 1.309 . S
C1185 C1186 1.476 . S
C1185 H1249 0.930 . S
C1186 C1185 1.476 . S
C1186 C1187 1.400 . S
C1186 C1190 1.567 . S
C1187 C1186 1.400 . S
C1187 C1188 1.373 . S
C1187 C1209 1.432 . S
C1188 C1187 1.373 . S
C1188 C1189 1.339 . S
C1188 C1191 1.530 . S
C1189 C1184 1.304 . S
C1189 C1188 1.339 . S
C1189 H1250 0.930 . S
C1190 C1186 1.567 . S
C1190 H1251 0.961 . S
C1190 H1252 0.960 . S
C1190 H1253 0.958 . S
C1191 C1188 1.530 . S
C1191 H1254 0.961 . S
C1191 H1255 0.960 . S
C1191 H1256 0.960 . S
C1192 C1193 1.530 . S
C1192 H1258 0.961 . S
C1192 H1259 0.961 . S
C1192 H1260 0.959 . S
C1193 C1192 1.530 . S
C1193 O1221 1.412 . S
C1193 H1257 0.980 . S
C1194 C1195 1.288 . S
C1194 C1199 1.377 . S
C1194 O1221 1.393 . S
C1195 C1194 1.288 . S
C1195 C1196 1.369 . S
C1195 H1261 0.932 . S
C1196 C1195 1.369 . S
C1196 C1197 1.398 . S
C1196 C1200 1.527 . S
C1197 C1196 1.398 . S
C1197 C1198 1.380 . S
C1197 C1211 1.497 . S
C1198 C1197 1.380 . S
C1198 C1199 1.383 . S
C1198 C1201 1.603 . S
C1199 C1194 1.377 . S
C1199 C1198 1.383 . S
C1199 H1262 0.929 . S
C1200 C1196 1.527 . S
C1200 H1263 0.961 . S
C1200 H1264 0.959 . S
C1200 H1265 0.959 . S
C1201 C1198 1.603 . S
C1201 H1266 0.960 . S
C1201 H1267 0.962 . S
C1201 H1268 0.961 . S
C1202 C1169 1.587 . S
C1202 C1203 1.360 . S
C1202 C1215 1.412 . S
C1203 C1202 1.360 . S
C1203 C1204 1.365 . S
C1203 H1269 0.929 . S
C1204 C1179 1.553 . S
C1204 C1203 1.365 . S
C1204 C1205 1.404 . S
C1205 C1204 1.404 . S
C1205 C1206 1.395 . S
C1205 C1216 1.451 . S
C1206 C1205 1.395 . S
C1206 C1207 1.322 . S
C1206 H1270 0.930 . S
C1207 C1206 1.322 . S
C1207 C1208 1.459 . S
C1207 H1271 0.929 . S
C1208 C1207 1.459 . S
C1208 C1209 1.445 . S
C1208 C1217 1.395 . S
C1209 C1187 1.432 . S
C1209 C1208 1.445 . S
C1209 C1210 1.370 . S
C1210 C1209 1.370 . S
C1210 C1211 1.438 . S
C1210 H1272 0.930 . S
C1211 C1197 1.497 . S
C1211 C1210 1.438 . S
C1211 C1212 1.360 . S
C1212 C1211 1.360 . S
C1212 C1213 1.401 . S
C1212 C1217 1.446 . S
C1213 C1212 1.401 . S
C1213 C1214 1.347 . S
C1213 H1273 0.929 . S
C1214 C1213 1.347 . S
C1214 C1215 1.455 . S
C1214 H1274 0.930 . S
C1215 C1202 1.412 . S
C1215 C1214 1.455 . S
C1215 C1216 1.331 . S
C1216 C1205 1.451 . S
C1216 C1215 1.331 . S
C1216 C1217 1.497 . S
C1217 C1208 1.395 . S
C1217 C1212 1.446 . S
C1217 C1216 1.497 . S
C1218 C1219 1.582 . S
C1218 H1275 0.962 . S
C1218 H1276 0.959 . S
C1218 H1277 0.958 . S
C1219 C1218 1.582 . S
C1219 O1222 1.458 . S
C1219 H1248 0.980 . S
O1220 C1165 1.426 . S
O1220 C1166 1.334 . S
O1221 C1193 1.412 . S
O1221 C1194 1.393 . S
O1222 C1184 1.435 . S
O1222 C1219 1.458 . S
O1223 C1175 1.468 . S
O1223 C1176 1.408 . S
H1224 C1165 0.980 . S
H1225 C1164 0.959 . S
H1226 C1164 0.959 . S
H1227 C1164 0.960 . S
H1228 C1167 0.929 . S
H1229 C1171 0.929 . S
H1230 C1172 0.959 . S
H1231 C1172 0.961 . S
H1232 C1172 0.961 . S
H1233 C1173 0.960 . S
H1234 C1173 0.960 . S
H1235 C1173 0.961 . S
H1236 C1175 0.980 . S
H1237 C1174 0.961 . S
H1238 C1174 0.960 . S
H1239 C1174 0.959 . S
H1240 C1177 0.930 . S
H1241 C1181 0.931 . S
H1242 C1182 0.959 . S
H1243 C1182 0.961 . S
H1244 C1182 0.959 . S
H1245 C1183 0.960 . S
H1246 C1183 0.960 . S
H1247 C1183 0.960 . S
H1248 C1219 0.980 . S
H1249 C1185 0.930 . S
H1250 C1189 0.930 . S
H1251 C1190 0.961 . S
H1252 C1190 0.960 . S
H1253 C1190 0.958 . S
H1254 C1191 0.961 . S
H1255 C1191 0.960 . S
H1256 C1191 0.960 . S
H1257 C1193 0.980 . S
H1258 C1192 0.961 . S
H1259 C1192 0.961 . S
H1260 C1192 0.959 . S
H1261 C1195 0.932 . S
H1262 C1199 0.929 . S
H1263 C1200 0.961 . S
H1264 C1200 0.959 . S
H1265 C1200 0.959 . S
H1266 C1201 0.960 . S
H1267 C1201 0.962 . S
H1268 C1201 0.961 . S
H1269 C1203 0.929 . S
H1270 C1206 0.930 . S
H1271 C1207 0.929 . S
H1272 C1210 0.930 . S
H1273 C1213 0.929 . S
H1274 C1214 0.930 . S
H1275 C1218 0.962 . S
H1276 C1218 0.959 . S
H1277 C1218 0.958 . S
C1278 C1279 1.560 . S
C1278 H1339 0.959 . S
C1278 H1340 0.959 . S
C1278 H1341 0.960 . S
C1279 C1278 1.560 . S
C1279 O1334 1.426 . S
C1279 H1338 0.980 . S
C1280 C1281 1.407 1_455 S
C1280 C1285 1.418 . S
C1280 O1334 1.334 . S
C1281 C1280 1.407 1_655 S
C1281 C1282 1.360 . S
C1281 H1342 0.929 . S
C1282 C1281 1.360 . S
C1282 C1283 1.401 1_655 S
C1282 C1286 1.527 . S
C1283 C1282 1.401 1_455 S
C1283 C1284 1.405 . S
C1283 C1316 1.587 1_455 S
C1284 C1283 1.405 . S
C1284 C1285 1.332 . S
C1284 C1287 1.496 . S
C1285 C1280 1.418 . S
C1285 C1284 1.332 . S
C1285 H1343 0.929 . S
C1286 C1282 1.527 . S
C1286 H1344 0.959 . S
C1286 H1345 0.961 . S
C1286 H1346 0.961 . S
C1287 C1284 1.496 . S
C1287 H1347 0.960 . S
C1287 H1348 0.960 . S
C1287 H1349 0.961 . S
C1288 C1289 1.517 . S
C1288 H1351 0.980 . S
C1288 H1352 0.960 . S
C1288 H1353 0.959 . S
C1289 C1288 1.517 . S
C1289 O1337 1.468 . S
C1289 H1350 0.980 1_655 S
C1290 C1291 1.349 . S
C1290 C1295 1.367 . S
C1290 O1337 1.408 . S
C1291 C1290 1.349 . S
C1291 C1292 1.407 1_655 S
C1291 H1354 0.930 1_655 S
C1292 C1291 1.407 1_455 S
C1292 C1293 1.449 1_455 S
C1292 C1296 1.535 . S
C1293 C1292 1.449 1_655 S
C1293 C1294 1.384 . S
C1293 C1318 1.553 . S
C1294 C1293 1.384 . S
C1294 C1295 1.364 . S
C1294 C1297 1.450 . S
C1295 C1290 1.367 . S
C1295 C1294 1.364 . S
C1295 H1355 0.931 . S
C1296 C1292 1.535 . S
C1296 H1356 0.959 . S
C1296 H1357 0.961 . S
C1296 H1358 0.959 . S
C1297 C1294 1.450 . S
C1297 H1359 0.960 . S
C1297 H1360 0.960 . S
C1297 H1361 0.960 . S
C1298 C1299 1.309 . S
C1298 C1303 1.304 . S
C1298 O1336 1.435 . S
C1299 C1298 1.309 . S
C1299 C1300 1.476 . S
C1299 H1363 0.930 1_655 S
C1300 C1299 1.476 . S
C1300 C1301 1.400 . S
C1300 C1304 1.567 1_655 S
C1301 C1300 1.400 . S
C1301 C1302 1.373 . S
C1301 C1323 1.432 . S
C1302 C1301 1.373 . S
C1302 C1303 1.339 . S
C1302 C1305 1.530 . S
C1303 C1298 1.304 . S
C1303 C1302 1.339 . S
C1303 H1364 0.930 . S
C1304 C1300 1.567 1_455 S
C1304 H1365 0.961 . S
C1304 H1366 0.960 . S
C1304 H1367 0.958 . S
C1305 C1302 1.530 . S
C1305 H1368 0.961 . S
C1305 H1369 0.960 . S
C1305 H1370 0.960 . S
C1306 C1307 1.524 1_455 S
C1306 H1372 0.961 . S
C1306 H1373 0.961 . S
C1306 H1374 0.959 . S
C1307 C1306 1.524 1_655 S
C1307 O1335 1.410 1_655 S
C1307 H1371 0.982 . S
C1308 C1309 1.288 . S
C1308 C1313 1.377 1_455 S
C1308 O1335 1.393 . S
C1309 C1308 1.288 . S
C1309 C1310 1.369 . S
C1309 H1375 0.932 . S
C1310 C1309 1.369 . S
C1310 C1311 1.398 1_455 S
C1310 C1314 1.527 . S
C1311 C1310 1.398 1_655 S
C1311 C1312 1.380 . S
C1311 C1325 1.497 . S
C1312 C1311 1.380 . S
C1312 C1313 1.383 . S
C1312 C1315 1.603 . S
C1313 C1308 1.377 1_655 S
C1313 C1312 1.383 . S
C1313 H1376 0.929 . S
C1314 C1310 1.527 . S
C1314 H1377 0.961 . S
C1314 H1378 0.959 . S
C1314 H1379 0.959 . S
C1315 C1312 1.603 . S
C1315 H1380 0.960 . S
C1315 H1381 0.962 . S
C1315 H1382 0.961 . S
C1316 C1283 1.587 1_655 S
C1316 C1317 1.360 . S
C1316 C1329 1.412 . S
C1317 C1316 1.360 . S
C1317 C1318 1.365 . S
C1317 H1383 0.929 . S
C1318 C1293 1.553 . S
C1318 C1317 1.365 . S
C1318 C1319 1.404 . S
C1319 C1318 1.404 . S
C1319 C1320 1.395 . S
C1319 C1330 1.451 . S
C1320 C1319 1.395 . S
C1320 C1321 1.322 . S
C1320 H1384 0.930 . S
C1321 C1320 1.322 . S
C1321 C1322 1.459 . S
C1321 H1385 0.929 . S
C1322 C1321 1.459 . S
C1322 C1323 1.445 . S
C1322 C1331 1.395 . S
C1323 C1301 1.432 . S
C1323 C1322 1.445 . S
C1323 C1324 1.370 . S
C1324 C1323 1.370 . S
C1324 C1325 1.438 . S
C1324 H1386 0.930 . S
C1325 C1311 1.497 . S
C1325 C1324 1.438 . S
C1325 C1326 1.360 . S
C1326 C1325 1.360 . S
C1326 C1327 1.401 . S
C1326 C1331 1.446 . S
C1327 C1326 1.401 . S
C1327 C1328 1.347 . S
C1327 H1387 0.929 . S
C1328 C1327 1.347 . S
C1328 C1329 1.455 . S
C1328 H1388 0.930 . S
C1329 C1316 1.412 . S
C1329 C1328 1.455 . S
C1329 C1330 1.331 . S
C1330 C1319 1.451 . S
C1330 C1329 1.331 . S
C1330 C1331 1.497 . S
C1331 C1322 1.395 . S
C1331 C1326 1.446 . S
C1331 C1330 1.497 . S
C1332 C1333 1.582 . S
C1332 H1389 0.962 . S
C1332 H1390 0.959 . S
C1332 H1391 0.958 . S
C1333 C1332 1.582 . S
C1333 O1336 1.458 . S
C1333 H1362 0.980 . S
O1334 C1279 1.426 . S
O1334 C1280 1.334 . S
O1335 C1307 1.410 1_455 S
O1335 C1308 1.393 . S
O1336 C1298 1.435 . S
O1336 C1333 1.458 . S
O1337 C1289 1.468 . S
O1337 C1290 1.408 . S
H1338 C1279 0.980 . S
H1339 C1278 0.959 . S
H1340 C1278 0.959 . S
H1341 C1278 0.960 . S
H1342 C1281 0.929 . S
H1343 C1285 0.929 . S
H1344 C1286 0.959 . S
H1345 C1286 0.961 . S
H1346 C1286 0.961 . S
H1347 C1287 0.960 . S
H1348 C1287 0.960 . S
H1349 C1287 0.961 . S
H1350 C1289 0.980 1_455 S
H1351 C1288 0.980 . S
H1352 C1288 0.960 . S
H1353 C1288 0.959 . S
H1354 C1291 0.930 1_455 S
H1355 C1295 0.931 . S
H1356 C1296 0.959 . S
H1357 C1296 0.961 . S
H1358 C1296 0.959 . S
H1359 C1297 0.960 . S
H1360 C1297 0.960 . S
H1361 C1297 0.960 . S
H1362 C1333 0.980 . S
H1363 C1299 0.930 1_455 S
H1364 C1303 0.930 . S
H1365 C1304 0.961 . S
H1366 C1304 0.960 . S
H1367 C1304 0.958 . S
H1368 C1305 0.961 . S
H1369 C1305 0.960 . S
H1370 C1305 0.960 . S
H1371 C1307 0.982 . S
H1372 C1306 0.961 . S
H1373 C1306 0.961 . S
H1374 C1306 0.959 . S
H1375 C1309 0.932 . S
H1376 C1313 0.929 . S
H1377 C1314 0.961 . S
H1378 C1314 0.959 . S
H1379 C1314 0.959 . S
H1380 C1315 0.960 . S
H1381 C1315 0.962 . S
H1382 C1315 0.961 . S
H1383 C1317 0.929 . S
H1384 C1320 0.930 . S
H1385 C1321 0.929 . S
H1386 C1324 0.930 . S
H1387 C1327 0.929 . S
H1388 C1328 0.930 . S
H1389 C1332 0.962 . S
H1390 C1332 0.959 . S
H1391 C1332 0.958 . S
C1392 C1393 1.560 . S
C1392 H1453 0.959 . S
C1392 H1454 0.959 . S
C1392 H1455 0.960 . S
C1393 C1392 1.560 . S
C1393 O1448 1.426 . S
C1393 H1452 0.980 . S
C1394 C1395 1.407 . S
C1394 C1399 1.418 . S
C1394 O1448 1.334 . S
C1395 C1394 1.407 . S
C1395 C1396 1.360 . S
C1395 H1456 0.929 . S
C1396 C1395 1.360 . S
C1396 C1397 1.401 . S
C1396 C1400 1.527 . S
C1397 C1396 1.401 . S
C1397 C1398 1.405 . S
C1397 C1430 1.587 . S
C1398 C1397 1.405 . S
C1398 C1399 1.332 . S
C1398 C1401 1.496 . S
C1399 C1394 1.418 . S
C1399 C1398 1.332 . S
C1399 H1457 0.929 . S
C1400 C1396 1.527 . S
C1400 H1458 0.959 . S
C1400 H1459 0.961 . S
C1400 H1460 0.961 . S
C1401 C1398 1.496 . S
C1401 H1461 0.960 . S
C1401 H1462 0.960 . S
C1401 H1463 0.961 . S
C1402 C1403 1.517 . S
C1402 H1465 0.961 . S
C1402 H1466 0.960 . S
C1402 H1467 0.959 . S
C1403 C1402 1.517 . S
C1403 O1451 1.468 . S
C1403 H1464 0.980 . S
C1404 C1405 1.349 . S
C1404 C1409 1.367 . S
C1404 O1451 1.408 . S
C1405 C1404 1.349 . S
C1405 C1406 1.407 . S
C1405 H1468 0.930 . S
C1406 C1405 1.407 . S
C1406 C1407 1.449 . S
C1406 C1410 1.535 . S
C1407 C1406 1.449 . S
C1407 C1408 1.384 . S
C1407 C1432 1.553 . S
C1408 C1407 1.384 . S
C1408 C1409 1.364 . S
C1408 C1411 1.450 . S
C1409 C1404 1.367 . S
C1409 C1408 1.364 . S
C1409 H1469 0.931 . S
C1410 C1406 1.535 . S
C1410 H1470 0.959 . S
C1410 H1471 0.961 . S
C1410 H1472 0.959 . S
C1411 C1408 1.450 . S
C1411 H1473 0.960 . S
C1411 H1474 0.960 . S
C1411 H1475 0.960 . S
C1412 C1413 1.309 . S
C1412 C1417 1.304 . S
C1412 O1450 1.435 . S
C1413 C1412 1.309 . S
C1413 C1414 1.476 . S
C1413 H1477 0.930 . S
C1414 C1413 1.476 . S
C1414 C1415 1.400 . S
C1414 C1418 1.567 . S
C1415 C1414 1.400 . S
C1415 C1416 1.373 . S
C1415 C1437 1.432 . S
C1416 C1415 1.373 . S
C1416 C1417 1.339 . S
C1416 C1419 1.530 . S
C1417 C1412 1.304 . S
C1417 C1416 1.339 . S
C1417 H1478 0.930 . S
C1418 C1414 1.567 . S
C1418 H1479 0.961 . S
C1418 H1480 0.960 . S
C1418 H1481 0.958 . S
C1419 C1416 1.530 . S
C1419 H1482 0.961 . S
C1419 H1483 0.960 . S
C1419 H1484 0.960 . S
C1420 C1421 1.530 . S
C1420 H1486 0.961 . S
C1420 H1487 0.961 . S
C1420 H1488 0.959 . S
C1421 C1420 1.530 . S
C1421 O1449 1.412 . S
C1421 H1485 0.980 . S
C1422 C1423 1.288 . S
C1422 C1427 1.377 . S
C1422 O1449 1.393 . S
C1423 C1422 1.288 . S
C1423 C1424 1.369 . S
C1423 H1489 0.932 . S
C1424 C1423 1.369 . S
C1424 C1425 1.398 . S
C1424 C1428 1.527 . S
C1425 C1424 1.398 . S
C1425 C1426 1.380 . S
C1425 C1439 1.497 . S
C1426 C1425 1.380 . S
C1426 C1427 1.383 . S
C1426 C1429 1.603 . S
C1427 C1422 1.377 . S
C1427 C1426 1.383 . S
C1427 H1490 0.929 . S
C1428 C1424 1.527 . S
C1428 H1491 0.961 . S
C1428 H1492 0.959 . S
C1428 H1493 0.959 . S
C1429 C1426 1.603 . S
C1429 H1494 0.960 . S
C1429 H1495 0.962 . S
C1429 H1496 0.961 . S
C1430 C1397 1.587 . S
C1430 C1431 1.360 . S
C1430 C1443 1.412 . S
C1431 C1430 1.360 . S
C1431 C1432 1.365 . S
C1431 H1497 0.929 . S
C1432 C1407 1.553 . S
C1432 C1431 1.365 . S
C1432 C1433 1.404 . S
C1433 C1432 1.404 . S
C1433 C1434 1.395 . S
C1433 C1444 1.451 . S
C1434 C1433 1.395 . S
C1434 C1435 1.322 . S
C1434 H1498 0.930 . S
C1435 C1434 1.322 . S
C1435 C1436 1.459 . S
C1435 H1499 0.929 . S
C1436 C1435 1.459 . S
C1436 C1437 1.445 . S
C1436 C1445 1.395 . S
C1437 C1415 1.432 . S
C1437 C1436 1.445 . S
C1437 C1438 1.370 . S
C1438 C1437 1.370 . S
C1438 C1439 1.438 . S
C1438 H1500 0.930 . S
C1439 C1425 1.497 . S
C1439 C1438 1.438 . S
C1439 C1440 1.360 . S
C1440 C1439 1.360 . S
C1440 C1441 1.401 . S
C1440 C1445 1.446 . S
C1441 C1440 1.401 . S
C1441 C1442 1.347 . S
C1441 H1501 0.929 . S
C1442 C1441 1.347 . S
C1442 C1443 1.455 . S
C1442 H1502 0.930 . S
C1443 C1430 1.412 . S
C1443 C1442 1.455 . S
C1443 C1444 1.331 . S
C1444 C1433 1.451 . S
C1444 C1443 1.331 . S
C1444 C1445 1.497 . S
C1445 C1436 1.395 . S
C1445 C1440 1.446 . S
C1445 C1444 1.497 . S
C1446 C1447 1.582 . S
C1446 H1503 0.962 . S
C1446 H1504 0.959 . S
C1446 H1505 0.958 . S
C1447 C1446 1.582 . S
C1447 O1450 1.458 . S
C1447 H1476 0.980 . S
O1448 C1393 1.426 . S
O1448 C1394 1.334 . S
O1449 C1421 1.412 . S
O1449 C1422 1.393 . S
O1450 C1412 1.435 . S
O1450 C1447 1.458 . S
O1451 C1403 1.468 . S
O1451 C1404 1.408 . S
H1452 C1393 0.980 . S
H1453 C1392 0.959 . S
H1454 C1392 0.959 . S
H1455 C1392 0.960 . S
H1456 C1395 0.929 . S
H1457 C1399 0.929 . S
H1458 C1400 0.959 . S
H1459 C1400 0.961 . S
H1460 C1400 0.961 . S
H1461 C1401 0.960 . S
H1462 C1401 0.960 . S
H1463 C1401 0.961 . S
H1464 C1403 0.980 . S
H1465 C1402 0.961 . S
H1466 C1402 0.960 . S
H1467 C1402 0.959 . S
H1468 C1405 0.930 . S
H1469 C1409 0.931 . S
H1470 C1410 0.959 . S
H1471 C1410 0.961 . S
H1472 C1410 0.959 . S
H1473 C1411 0.960 . S
H1474 C1411 0.960 . S
H1475 C1411 0.960 . S
H1476 C1447 0.980 . S
H1477 C1413 0.930 . S
H1478 C1417 0.930 . S
H1479 C1418 0.961 . S
H1480 C1418 0.960 . S
H1481 C1418 0.958 . S
H1482 C1419 0.961 . S
H1483 C1419 0.960 . S
H1484 C1419 0.960 . S
H1485 C1421 0.980 . S
H1486 C1420 0.961 . S
H1487 C1420 0.961 . S
H1488 C1420 0.959 . S
H1489 C1423 0.932 . S
H1490 C1427 0.929 . S
H1491 C1428 0.961 . S
H1492 C1428 0.959 . S
H1493 C1428 0.959 . S
H1494 C1429 0.960 . S
H1495 C1429 0.962 . S
H1496 C1429 0.961 . S
H1497 C1431 0.929 . S
H1498 C1434 0.930 . S
H1499 C1435 0.929 . S
H1500 C1438 0.930 . S
H1501 C1441 0.929 . S
H1502 C1442 0.930 . S
H1503 C1446 0.962 . S
H1504 C1446 0.959 . S
H1505 C1446 0.958 . S
C1506 C1507 1.560 . S
C1506 H1567 0.959 . S
C1506 H1568 0.959 . S
C1506 H1569 0.960 . S
C1507 C1506 1.560 . S
C1507 O1562 1.426 . S
C1507 H1566 0.980 . S
C1508 C1509 1.407 1_565 S
C1508 C1513 1.418 . S
C1508 O1562 1.334 . S
C1509 C1508 1.407 1_545 S
C1509 C1510 1.360 . S
C1509 H1570 0.929 . S
C1510 C1509 1.360 . S
C1510 C1511 1.401 1_545 S
C1510 C1514 1.527 . S
C1511 C1510 1.401 1_565 S
C1511 C1512 1.405 . S
C1511 C1544 1.587 1_565 S
C1512 C1511 1.405 . S
C1512 C1513 1.332 . S
C1512 C1515 1.496 . S
C1513 C1508 1.418 . S
C1513 C1512 1.332 . S
C1513 H1571 0.929 . S
C1514 C1510 1.527 . S
C1514 H1572 0.959 . S
C1514 H1573 0.961 . S
C1514 H1574 0.961 . S
C1515 C1512 1.496 . S
C1515 H1575 0.960 . S
C1515 H1576 0.960 . S
C1515 H1577 0.961 . S
C1516 C1517 1.517 . S
C1516 H1579 0.961 1_545 S
C1516 H1580 0.960 . S
C1516 H1581 0.959 . S
C1517 C1516 1.517 . S
C1517 O1565 1.468 . S
C1517 H1578 0.980 1_545 S
C1518 C1519 1.377 . S
C1518 C1523 1.367 . S
C1518 O1565 1.408 . S
C1519 C1518 1.377 . S
C1519 C1520 1.425 1_545 S
C1519 H1582 0.885 1_545 S
C1520 C1519 1.425 1_565 S
C1520 C1521 1.449 1_565 S
C1520 C1524 1.535 . S
C1521 C1520 1.449 1_545 S
C1521 C1522 1.384 . S
C1521 C1546 1.553 . S
C1522 C1521 1.384 . S
C1522 C1523 1.364 . S
C1522 C1525 1.450 . S
C1523 C1518 1.367 . S
C1523 C1522 1.364 . S
C1523 H1583 0.931 . S
C1524 C1520 1.535 . S
C1524 H1584 0.959 . S
C1524 H1585 0.961 . S
C1524 H1586 0.959 . S
C1525 C1522 1.450 . S
C1525 H1587 0.960 . S
C1525 H1588 0.960 . S
C1525 H1589 0.960 . S
C1526 C1527 1.309 . S
C1526 C1531 1.304 . S
C1526 O1564 1.435 . S
C1527 C1526 1.309 . S
C1527 C1528 1.496 1_545 S
C1527 H1591 0.930 1_545 S
C1528 C1527 1.496 1_565 S
C1528 C1529 1.336 1_565 S
C1528 C1532 1.611 . S
C1529 C1528 1.336 1_545 S
C1529 C1530 1.373 . S
C1529 C1551 1.432 . S
C1530 C1529 1.373 . S
C1530 C1531 1.339 . S
C1530 C1533 1.530 . S
C1531 C1526 1.304 . S
C1531 C1530 1.339 . S
C1531 H1592 0.930 . S
C1532 C1528 1.611 . S
C1532 H1593 0.961 . S
C1532 H1594 0.960 . S
C1532 H1595 0.958 . S
C1533 C1530 1.530 . S
C1533 H1596 0.961 . S
C1533 H1597 0.960 . S
C1533 H1598 0.960 . S
C1534 C1535 1.530 1_565 S
C1534 H1600 0.961 . S
C1534 H1601 0.961 . S
C1534 H1602 0.959 . S
C1535 C1534 1.530 1_545 S
C1535 O1563 1.412 1_545 S
C1535 H1599 0.980 . S
C1536 C1537 1.288 . S
C1536 C1541 1.377 1_565 S
C1536 O1563 1.393 . S
C1537 C1536 1.288 . S
C1537 C1538 1.369 . S
C1537 H1603 0.932 . S
C1538 C1537 1.369 . S
C1538 C1539 1.398 1_565 S
C1538 C1542 1.527 . S
C1539 C1538 1.398 1_545 S
C1539 C1540 1.380 . S
C1539 C1553 1.497 . S
C1540 C1539 1.380 . S
C1540 C1541 1.383 . S
C1540 C1543 1.603 . S
C1541 C1536 1.377 1_545 S
C1541 C1540 1.383 . S
C1541 H1604 0.929 . S
C1542 C1538 1.527 . S
C1542 H1605 0.961 . S
C1542 H1606 0.959 . S
C1542 H1607 0.959 . S
C1543 C1540 1.603 . S
C1543 H1608 0.960 . S
C1543 H1609 0.962 . S
C1543 H1610 0.961 . S
C1544 C1511 1.587 1_545 S
C1544 C1545 1.360 . S
C1544 C1557 1.412 . S
C1545 C1544 1.360 . S
C1545 C1546 1.365 . S
C1545 H1611 0.929 . S
C1546 C1521 1.553 . S
C1546 C1545 1.365 . S
C1546 C1547 1.404 . S
C1547 C1546 1.404 . S
C1547 C1548 1.395 . S
C1547 C1558 1.451 . S
C1548 C1547 1.395 . S
C1548 C1549 1.322 . S
C1548 H1612 0.930 . S
C1549 C1548 1.322 . S
C1549 C1550 1.459 . S
C1549 H1613 0.929 . S
C1550 C1549 1.459 . S
C1550 C1551 1.445 . S
C1550 C1559 1.395 . S
C1551 C1529 1.432 . S
C1551 C1550 1.445 . S
C1551 C1552 1.370 . S
C1552 C1551 1.370 . S
C1552 C1553 1.438 . S
C1552 H1614 0.930 . S
C1553 C1539 1.497 . S
C1553 C1552 1.438 . S
C1553 C1554 1.360 . S
C1554 C1553 1.360 . S
C1554 C1555 1.401 . S
C1554 C1559 1.446 . S
C1555 C1554 1.401 . S
C1555 C1556 1.347 . S
C1555 H1615 0.929 . S
C1556 C1555 1.347 . S
C1556 C1557 1.455 . S
C1556 H1616 0.930 . S
C1557 C1544 1.412 . S
C1557 C1556 1.455 . S
C1557 C1558 1.331 . S
C1558 C1547 1.451 . S
C1558 C1557 1.331 . S
C1558 C1559 1.497 . S
C1559 C1550 1.395 . S
C1559 C1554 1.446 . S
C1559 C1558 1.497 . S
C1560 C1561 1.582 . S
C1560 H1617 0.962 . S
C1560 H1618 0.959 . S
C1560 H1619 0.958 . S
C1561 C1560 1.582 . S
C1561 O1564 1.458 . S
C1561 H1590 0.980 . S
O1562 C1507 1.426 . S
O1562 C1508 1.334 . S
O1563 C1535 1.412 1_565 S
O1563 C1536 1.393 . S
O1564 C1526 1.435 . S
O1564 C1561 1.458 . S
O1565 C1517 1.468 . S
O1565 C1518 1.408 . S
H1566 C1507 0.980 . S
H1567 C1506 0.959 . S
H1568 C1506 0.959 . S
H1569 C1506 0.960 . S
H1570 C1509 0.929 . S
H1571 C1513 0.929 . S
H1572 C1514 0.959 . S
H1573 C1514 0.961 . S
H1574 C1514 0.961 . S
H1575 C1515 0.960 . S
H1576 C1515 0.960 . S
H1577 C1515 0.961 . S
H1578 C1517 0.980 1_565 S
H1579 C1516 0.961 1_565 S
H1580 C1516 0.960 . S
H1581 C1516 0.959 . S
H1582 C1519 0.885 1_565 S
H1583 C1523 0.931 . S
H1584 C1524 0.959 . S
H1585 C1524 0.961 . S
H1586 C1524 0.959 . S
H1587 C1525 0.960 . S
H1588 C1525 0.960 . S
H1589 C1525 0.960 . S
H1590 C1561 0.980 . S
H1591 C1527 0.930 1_565 S
H1592 C1531 0.930 . S
H1593 C1532 0.961 . S
H1594 C1532 0.960 . S
H1595 C1532 0.958 . S
H1596 C1533 0.961 . S
H1597 C1533 0.960 . S
H1598 C1533 0.960 . S
H1599 C1535 0.980 . S
H1600 C1534 0.961 . S
H1601 C1534 0.961 . S
H1602 C1534 0.959 . S
H1603 C1537 0.932 . S
H1604 C1541 0.929 . S
H1605 C1542 0.961 . S
H1606 C1542 0.959 . S
H1607 C1542 0.959 . S
H1608 C1543 0.960 . S
H1609 C1543 0.962 . S
H1610 C1543 0.961 . S
H1611 C1545 0.929 . S
H1612 C1548 0.930 . S
H1613 C1549 0.929 . S
H1614 C1552 0.930 . S
H1615 C1555 0.929 . S
H1616 C1556 0.930 . S
H1617 C1560 0.962 . S
H1618 C1560 0.959 . S
H1619 C1560 0.958 . S
C1620 C1621 1.560 . S
C1620 H1681 0.959 . S
C1620 H1682 0.959 . S
C1620 H1683 0.960 . S
C1621 C1620 1.560 . S
C1621 O1676 1.426 . S
C1621 H1680 0.980 1_565 S
C1622 C1623 1.407 1_565 S
C1622 C1627 1.418 . S
C1622 O1676 1.334 . S
C1623 C1622 1.407 1_545 S
C1623 C1624 1.360 . S
C1623 H1684 0.929 . S
C1624 C1623 1.360 . S
C1624 C1625 1.401 . S
C1624 C1628 1.527 . S
C1625 C1624 1.401 . S
C1625 C1626 1.405 1_545 S
C1625 C1658 1.587 . S
C1626 C1625 1.405 1_565 S
C1626 C1627 1.332 . S
C1626 C1629 1.496 . S
C1627 C1622 1.418 . S
C1627 C1626 1.332 . S
C1627 H1685 0.929 . S
C1628 C1624 1.527 . S
C1628 H1686 0.959 . S
C1628 H1687 0.961 . S
C1628 H1688 0.961 . S
C1629 C1626 1.496 . S
C1629 H1689 0.960 . S
C1629 H1690 0.960 . S
C1629 H1691 0.961 . S
C1630 C1631 1.517 . S
C1630 H1693 0.961 . S
C1630 H1694 0.960 . S
C1630 H1695 0.959 . S
C1631 C1630 1.517 . S
C1631 O1679 1.468 . S
C1631 H1692 0.980 . S
C1632 C1633 1.349 . S
C1632 C1637 1.367 . S
C1632 O1679 1.408 . S
C1633 C1632 1.349 . S
C1633 C1634 1.407 . S
C1633 H1696 0.933 1_545 S
C1634 C1633 1.407 . S
C1634 C1635 1.449 . S
C1634 C1638 1.535 1_545 S
C1635 C1634 1.449 . S
C1635 C1636 1.384 . S
C1635 C1660 1.553 . S
C1636 C1635 1.384 . S
C1636 C1637 1.364 . S
C1636 C1639 1.450 . S
C1637 C1632 1.367 . S
C1637 C1636 1.364 . S
C1637 H1697 0.931 . S
C1638 C1634 1.535 1_565 S
C1638 H1698 0.959 . S
C1638 H1699 0.961 . S
C1638 H1700 0.959 . S
C1639 C1636 1.450 . S
C1639 H1701 0.960 . S
C1639 H1702 0.960 . S
C1639 H1703 0.960 . S
C1640 C1641 1.309 1_545 S
C1640 C1645 1.304 . S
C1640 O1678 1.435 . S
C1641 C1640 1.309 1_565 S
C1641 C1642 1.476 . S
C1641 H1705 0.930 . S
C1642 C1641 1.476 . S
C1642 C1643 1.400 1_565 S
C1642 C1646 1.567 . S
C1643 C1642 1.400 1_545 S
C1643 C1644 1.373 . S
C1643 C1665 1.432 . S
C1644 C1643 1.373 . S
C1644 C1645 1.339 . S
C1644 C1647 1.530 . S
C1645 C1640 1.304 . S
C1645 C1644 1.339 . S
C1645 H1706 0.930 . S
C1646 C1642 1.567 . S
C1646 H1707 0.961 . S
C1646 H1708 0.960 . S
C1646 H1709 0.958 . S
C1647 C1644 1.530 . S
C1647 H1710 0.961 . S
C1647 H1711 0.960 . S
C1647 H1712 0.960 . S
C1648 C1649 1.530 . S
C1648 H1714 0.961 . S
C1648 H1715 0.961 . S
C1648 H1716 0.959 . S
C1649 C1648 1.530 . S
C1649 O1677 1.412 . S
C1649 H1713 1.006 . S
C1650 C1651 1.288 . S
C1650 C1655 1.377 1_565 S
C1650 O1677 1.393 . S
C1651 C1650 1.288 . S
C1651 C1652 1.369 . S
C1651 H1717 0.932 . S
C1652 C1651 1.369 . S
C1652 C1653 1.398 . S
C1652 C1656 1.527 . S
C1653 C1652 1.398 . S
C1653 C1654 1.380 1_565 S
C1653 C1667 1.497 1_565 S
C1654 C1653 1.380 1_545 S
C1654 C1655 1.383 . S
C1654 C1657 1.603 . S
C1655 C1650 1.377 1_545 S
C1655 C1654 1.383 . S
C1655 H1718 0.929 . S
C1656 C1652 1.527 . S
C1656 H1719 0.961 . S
C1656 H1720 0.959 . S
C1656 H1721 0.959 . S
C1657 C1654 1.603 . S
C1657 H1722 0.960 . S
C1657 H1723 0.962 . S
C1657 H1724 0.961 . S
C1658 C1625 1.587 . S
C1658 C1659 1.360 . S
C1658 C1671 1.412 . S
C1659 C1658 1.360 . S
C1659 C1660 1.365 . S
C1659 H1725 0.929 . S
C1660 C1635 1.553 . S
C1660 C1659 1.365 . S
C1660 C1661 1.404 . S
C1661 C1660 1.404 . S
C1661 C1662 1.395 . S
C1661 C1672 1.451 . S
C1662 C1661 1.395 . S
C1662 C1663 1.322 . S
C1662 H1726 0.930 . S
C1663 C1662 1.322 . S
C1663 C1664 1.459 . S
C1663 H1727 0.929 . S
C1664 C1663 1.459 . S
C1664 C1665 1.445 . S
C1664 C1673 1.395 . S
C1665 C1643 1.432 . S
C1665 C1664 1.445 . S
C1665 C1666 1.370 . S
C1666 C1665 1.370 . S
C1666 C1667 1.438 . S
C1666 H1728 0.930 . S
C1667 C1653 1.497 1_545 S
C1667 C1666 1.438 . S
C1667 C1668 1.360 . S
C1668 C1667 1.360 . S
C1668 C1669 1.401 . S
C1668 C1673 1.446 . S
C1669 C1668 1.401 . S
C1669 C1670 1.347 . S
C1669 H1729 0.957 . S
C1670 C1669 1.347 . S
C1670 C1671 1.455 . S
C1670 H1730 0.930 . S
C1671 C1658 1.412 . S
C1671 C1670 1.455 . S
C1671 C1672 1.331 . S
C1672 C1661 1.451 . S
C1672 C1671 1.331 . S
C1672 C1673 1.497 . S
C1673 C1664 1.395 . S
C1673 C1668 1.446 . S
C1673 C1672 1.497 . S
C1674 C1675 1.582 . S
C1674 H1731 0.962 . S
C1674 H1732 0.959 . S
C1674 H1733 0.958 . S
C1675 C1674 1.582 . S
C1675 O1678 1.458 . S
C1675 H1704 0.980 1_545 S
O1676 C1621 1.426 . S
O1676 C1622 1.334 . S
O1677 C1649 1.412 . S
O1677 C1650 1.393 . S
O1678 C1640 1.435 . S
O1678 C1675 1.458 . S
O1679 C1631 1.468 . S
O1679 C1632 1.408 . S
H1680 C1621 0.980 1_545 S
H1681 C1620 0.959 . S
H1682 C1620 0.959 . S
H1683 C1620 0.960 . S
H1684 C1623 0.929 . S
H1685 C1627 0.929 . S
H1686 C1628 0.959 . S
H1687 C1628 0.961 . S
H1688 C1628 0.961 . S
H1689 C1629 0.960 . S
H1690 C1629 0.960 . S
H1691 C1629 0.961 . S
H1692 C1631 0.980 . S
H1693 C1630 0.961 . S
H1694 C1630 0.960 . S
H1695 C1630 0.959 . S
H1696 C1633 0.933 1_565 S
H1697 C1637 0.931 . S
H1698 C1638 0.959 . S
H1699 C1638 0.961 . S
H1700 C1638 0.959 . S
H1701 C1639 0.960 . S
H1702 C1639 0.960 . S
H1703 C1639 0.960 . S
H1704 C1675 0.980 1_565 S
H1705 C1641 0.930 . S
H1706 C1645 0.930 . S
H1707 C1646 0.961 . S
H1708 C1646 0.960 . S
H1709 C1646 0.958 . S
H1710 C1647 0.961 . S
H1711 C1647 0.960 . S
H1712 C1647 0.960 . S
H1713 C1649 1.006 . S
H1714 C1648 0.961 . S
H1715 C1648 0.961 . S
H1716 C1648 0.959 . S
H1717 C1651 0.932 . S
H1718 C1655 0.929 . S
H1719 C1656 0.961 . S
H1720 C1656 0.959 . S
H1721 C1656 0.959 . S
H1722 C1657 0.960 . S
H1723 C1657 0.962 . S
H1724 C1657 0.961 . S
H1725 C1659 0.929 . S
H1726 C1662 0.930 . S
H1727 C1663 0.929 . S
H1728 C1666 0.930 . S
H1729 C1669 0.957 . S
H1730 C1670 0.930 . S
H1731 C1674 0.962 . S
H1732 C1674 0.959 . S
H1733 C1674 0.958 . S
C1734 C1735 1.560 . S
C1734 H1795 0.959 . S
C1734 H1796 0.959 . S
C1734 H1797 0.960 . S
C1735 C1734 1.560 . S
C1735 O1790 1.426 . S
C1735 H1794 0.980 1_455 S
C1736 C1737 1.407 1_455 S
C1736 C1741 1.418 . S
C1736 O1790 1.334 . S
C1737 C1736 1.407 1_655 S
C1737 C1738 1.360 . S
C1737 H1798 0.929 . S
C1738 C1737 1.360 . S
C1738 C1739 1.401 . S
C1738 C1742 1.527 . S
C1739 C1738 1.401 . S
C1739 C1740 1.405 1_655 S
C1739 C1772 1.587 . S
C1740 C1739 1.405 1_455 S
C1740 C1741 1.332 . S
C1740 C1743 1.496 . S
C1741 C1736 1.418 . S
C1741 C1740 1.332 . S
C1741 H1799 0.929 . S
C1742 C1738 1.527 . S
C1742 H1800 0.959 . S
C1742 H1801 0.961 . S
C1742 H1802 0.961 . S
C1743 C1740 1.496 . S
C1743 H1803 0.960 . S
C1743 H1804 0.960 . S
C1743 H1805 0.961 . S
C1744 C1745 1.517 . S
C1744 H1807 0.961 . S
C1744 H1808 0.960 . S
C1744 H1809 0.959 . S
C1745 C1744 1.517 . S
C1745 O1793 1.468 . S
C1745 H1806 0.980 . S
C1746 C1747 1.349 . S
C1746 C1751 1.367 . S
C1746 O1793 1.408 . S
C1747 C1746 1.349 . S
C1747 C1748 1.407 . S
C1747 H1810 0.885 1_655 S
C1748 C1747 1.407 . S
C1748 C1749 1.449 . S
C1748 C1752 1.535 1_655 S
C1749 C1748 1.449 . S
C1749 C1750 1.384 . S
C1749 C1774 1.553 . S
C1750 C1749 1.384 . S
C1750 C1751 1.364 . S
C1750 C1753 1.450 . S
C1751 C1746 1.367 . S
C1751 C1750 1.364 . S
C1751 H1811 0.931 . S
C1752 C1748 1.535 1_455 S
C1752 H1812 0.959 . S
C1752 H1813 0.961 . S
C1752 H1814 0.959 . S
C1753 C1750 1.450 . S
C1753 H1815 0.960 . S
C1753 H1816 0.960 . S
C1753 H1817 0.960 . S
C1754 C1755 1.309 1_655 S
C1754 C1759 1.304 . S
C1754 O1792 1.435 . S
C1755 C1754 1.309 1_455 S
C1755 C1756 1.476 . S
C1755 H1819 0.930 . S
C1756 C1755 1.476 . S
C1756 C1757 1.400 1_455 S
C1756 C1760 1.567 . S
C1757 C1756 1.400 1_655 S
C1757 C1758 1.373 . S
C1757 C1779 1.432 . S
C1758 C1757 1.373 . S
C1758 C1759 1.339 . S
C1758 C1761 1.530 . S
C1759 C1754 1.304 . S
C1759 C1758 1.339 . S
C1759 H1820 0.930 . S
C1760 C1756 1.567 . S
C1760 H1821 0.961 . S
C1760 H1822 0.960 . S
C1760 H1823 0.958 . S
C1761 C1758 1.530 . S
C1761 H1824 0.961 . S
C1761 H1825 0.960 . S
C1761 H1826 0.960 . S
C1762 C1763 1.530 . S
C1762 H1828 0.961 . S
C1762 H1829 0.961 . S
C1762 H1830 0.959 . S
C1763 C1762 1.530 . S
C1763 O1791 1.412 . S
C1763 H1827 0.965 1_455 S
C1764 C1765 1.288 . S
C1764 C1769 1.377 1_455 S
C1764 O1791 1.393 . S
C1765 C1764 1.288 . S
C1765 C1766 1.369 . S
C1765 H1831 0.932 . S
C1766 C1765 1.369 . S
C1766 C1767 1.398 . S
C1766 C1770 1.527 . S
C1767 C1766 1.398 . S
C1767 C1768 1.380 1_455 S
C1767 C1781 1.497 1_455 S
C1768 C1767 1.380 1_655 S
C1768 C1769 1.383 . S
C1768 C1771 1.603 . S
C1769 C1764 1.377 1_655 S
C1769 C1768 1.383 . S
C1769 H1832 0.929 . S
C1770 C1766 1.527 . S
C1770 H1833 0.961 . S
C1770 H1834 0.959 . S
C1770 H1835 0.959 . S
C1771 C1768 1.603 . S
C1771 H1836 0.960 . S
C1771 H1837 0.962 . S
C1771 H1838 0.961 . S
C1772 C1739 1.587 . S
C1772 C1773 1.360 . S
C1772 C1785 1.412 . S
C1773 C1772 1.360 . S
C1773 C1774 1.365 . S
C1773 H1839 0.929 . S
C1774 C1749 1.553 . S
C1774 C1773 1.365 . S
C1774 C1775 1.404 . S
C1775 C1774 1.404 . S
C1775 C1776 1.395 . S
C1775 C1786 1.451 . S
C1776 C1775 1.395 . S
C1776 C1777 1.322 . S
C1776 H1840 0.930 . S
C1777 C1776 1.322 . S
C1777 C1778 1.459 . S
C1777 H1841 0.929 . S
C1778 C1777 1.459 . S
C1778 C1779 1.445 . S
C1778 C1787 1.395 . S
C1779 C1757 1.432 . S
C1779 C1778 1.445 . S
C1779 C1780 1.370 . S
C1780 C1779 1.370 . S
C1780 C1781 1.438 . S
C1780 H1842 0.930 . S
C1781 C1767 1.497 1_655 S
C1781 C1780 1.438 . S
C1781 C1782 1.360 . S
C1782 C1781 1.360 . S
C1782 C1783 1.401 . S
C1782 C1787 1.446 . S
C1783 C1782 1.401 . S
C1783 C1784 1.347 . S
C1783 H1843 0.929 . S
C1784 C1783 1.347 . S
C1784 C1785 1.455 . S
C1784 H1844 0.930 . S
C1785 C1772 1.412 . S
C1785 C1784 1.455 . S
C1785 C1786 1.331 . S
C1786 C1775 1.451 . S
C1786 C1785 1.331 . S
C1786 C1787 1.497 . S
C1787 C1778 1.395 . S
C1787 C1782 1.446 . S
C1787 C1786 1.497 . S
C1788 C1789 1.582 1_655 S
C1788 H1845 0.967 1_655 S
C1788 H1846 0.959 . S
C1788 H1847 0.958 . S
C1789 C1788 1.582 1_455 S
C1789 O1792 1.390 1_455 S
C1789 H1818 1.008 . S
O1790 C1735 1.426 . S
O1790 C1736 1.334 . S
O1791 C1763 1.412 . S
O1791 C1764 1.393 . S
O1792 C1754 1.435 . S
O1792 C1789 1.390 1_655 S
O1793 C1745 1.468 . S
O1793 C1746 1.408 . S
H1794 C1735 0.980 1_655 S
H1795 C1734 0.959 . S
H1796 C1734 0.959 . S
H1797 C1734 0.960 . S
H1798 C1737 0.929 . S
H1799 C1741 0.929 . S
H1800 C1742 0.959 . S
H1801 C1742 0.961 . S
H1802 C1742 0.961 . S
H1803 C1743 0.960 . S
H1804 C1743 0.960 . S
H1805 C1743 0.961 . S
H1806 C1745 0.980 . S
H1807 C1744 0.961 . S
H1808 C1744 0.960 . S
H1809 C1744 0.959 . S
H1810 C1747 0.885 1_455 S
H1811 C1751 0.931 . S
H1812 C1752 0.959 . S
H1813 C1752 0.961 . S
H1814 C1752 0.959 . S
H1815 C1753 0.960 . S
H1816 C1753 0.960 . S
H1817 C1753 0.960 . S
H1818 C1789 1.008 . S
H1819 C1755 0.930 . S
H1820 C1759 0.930 . S
H1821 C1760 0.961 . S
H1822 C1760 0.960 . S
H1823 C1760 0.958 . S
H1824 C1761 0.961 . S
H1825 C1761 0.960 . S
H1826 C1761 0.960 . S
H1827 C1763 0.965 1_655 S
H1828 C1762 0.961 . S
H1829 C1762 0.961 . S
H1830 C1762 0.959 . S
H1831 C1765 0.932 . S
H1832 C1769 0.929 . S
H1833 C1770 0.961 . S
H1834 C1770 0.959 . S
H1835 C1770 0.959 . S
H1836 C1771 0.960 . S
H1837 C1771 0.962 . S
H1838 C1771 0.961 . S
H1839 C1773 0.929 . S
H1840 C1776 0.930 . S
H1841 C1777 0.929 . S
H1842 C1780 0.930 . S
H1843 C1783 0.929 . S
H1844 C1784 0.930 . S
H1845 C1788 0.967 1_455 S
H1846 C1788 0.959 . S
H1847 C1788 0.958 . S
C1848 C1849 1.560 . S
C1848 H1909 0.959 . S
C1848 H1910 0.959 . S
C1848 H1911 0.960 . S
C1849 C1848 1.560 . S
C1849 O1904 1.426 . S
C1849 H1908 0.980 . S
C1850 C1851 1.407 . S
C1850 C1855 1.418 . S
C1850 O1904 1.334 . S
C1851 C1850 1.407 . S
C1851 C1852 1.360 . S
C1851 H1912 0.929 . S
C1852 C1851 1.360 . S
C1852 C1853 1.401 . S
C1852 C1856 1.527 . S
C1853 C1852 1.401 . S
C1853 C1854 1.405 . S
C1853 C1886 1.587 . S
C1854 C1853 1.405 . S
C1854 C1855 1.332 . S
C1854 C1857 1.496 . S
C1855 C1850 1.418 . S
C1855 C1854 1.332 . S
C1855 H1913 0.929 . S
C1856 C1852 1.527 . S
C1856 H1914 0.959 . S
C1856 H1915 0.961 . S
C1856 H1916 0.961 . S
C1857 C1854 1.496 . S
C1857 H1917 0.960 . S
C1857 H1918 0.960 . S
C1857 H1919 0.961 . S
C1858 C1859 1.517 . S
C1858 H1921 0.961 . S
C1858 H1922 0.960 . S
C1858 H1923 0.959 . S
C1859 C1858 1.517 . S
C1859 O1907 1.468 . S
C1859 H1920 0.980 . S
C1860 C1861 1.349 . S
C1860 C1865 1.367 . S
C1860 O1907 1.408 . S
C1861 C1860 1.349 . S
C1861 C1862 1.407 . S
C1861 H1924 0.930 . S
C1862 C1861 1.407 . S
C1862 C1863 1.449 . S
C1862 C1866 1.535 . S
C1863 C1862 1.449 . S
C1863 C1864 1.384 . S
C1863 C1888 1.553 . S
C1864 C1863 1.384 . S
C1864 C1865 1.364 . S
C1864 C1867 1.450 . S
C1865 C1860 1.367 . S
C1865 C1864 1.364 . S
C1865 H1925 0.931 . S
C1866 C1862 1.535 . S
C1866 H1926 0.959 . S
C1866 H1927 0.961 . S
C1866 H1928 0.959 . S
C1867 C1864 1.450 . S
C1867 H1929 0.960 . S
C1867 H1930 0.960 . S
C1867 H1931 0.960 . S
C1868 C1869 1.309 . S
C1868 C1873 1.304 . S
C1868 O1906 1.435 . S
C1869 C1868 1.309 . S
C1869 C1870 1.476 . S
C1869 H1933 0.930 . S
C1870 C1869 1.476 . S
C1870 C1871 1.400 . S
C1870 C1874 1.567 . S
C1871 C1870 1.400 . S
C1871 C1872 1.373 . S
C1871 C1893 1.432 . S
C1872 C1871 1.373 . S
C1872 C1873 1.339 . S
C1872 C1875 1.530 . S
C1873 C1868 1.304 . S
C1873 C1872 1.339 . S
C1873 H1934 0.930 . S
C1874 C1870 1.567 . S
C1874 H1935 0.961 . S
C1874 H1936 0.960 . S
C1874 H1937 0.958 . S
C1875 C1872 1.530 . S
C1875 H1938 0.961 . S
C1875 H1939 0.960 . S
C1875 H1940 0.960 . S
C1876 C1877 1.530 . S
C1876 H1942 0.961 . S
C1876 H1943 0.961 . S
C1876 H1944 0.959 . S
C1877 C1876 1.530 . S
C1877 O1905 1.412 . S
C1877 H1941 0.980 . S
C1878 C1879 1.288 . S
C1878 C1883 1.377 . S
C1878 O1905 1.393 . S
C1879 C1878 1.288 . S
C1879 C1880 1.369 . S
C1879 H1945 0.932 . S
C1880 C1879 1.369 . S
C1880 C1881 1.398 . S
C1880 C1884 1.527 . S
C1881 C1880 1.398 . S
C1881 C1882 1.380 . S
C1881 C1895 1.497 . S
C1882 C1881 1.380 . S
C1882 C1883 1.383 . S
C1882 C1885 1.603 . S
C1883 C1878 1.377 . S
C1883 C1882 1.383 . S
C1883 H1946 0.929 . S
C1884 C1880 1.527 . S
C1884 H1947 0.961 . S
C1884 H1948 0.959 . S
C1884 H1949 0.959 . S
C1885 C1882 1.603 . S
C1885 H1950 0.960 . S
C1885 H1951 0.962 . S
C1885 H1952 0.961 . S
C1886 C1853 1.587 . S
C1886 C1887 1.360 . S
C1886 C1899 1.412 . S
C1887 C1886 1.360 . S
C1887 C1888 1.365 . S
C1887 H1953 0.929 . S
C1888 C1863 1.553 . S
C1888 C1887 1.365 . S
C1888 C1889 1.404 . S
C1889 C1888 1.404 . S
C1889 C1890 1.395 . S
C1889 C1900 1.451 . S
C1890 C1889 1.395 . S
C1890 C1891 1.322 . S
C1890 H1954 0.930 . S
C1891 C1890 1.322 . S
C1891 C1892 1.459 . S
C1891 H1955 0.929 . S
C1892 C1891 1.459 . S
C1892 C1893 1.445 . S
C1892 C1901 1.395 . S
C1893 C1871 1.432 . S
C1893 C1892 1.445 . S
C1893 C1894 1.370 . S
C1894 C1893 1.370 . S
C1894 C1895 1.438 . S
C1894 H1956 0.930 . S
C1895 C1881 1.497 . S
C1895 C1894 1.438 . S
C1895 C1896 1.360 . S
C1896 C1895 1.360 . S
C1896 C1897 1.401 . S
C1896 C1901 1.446 . S
C1897 C1896 1.401 . S
C1897 C1898 1.347 . S
C1897 H1957 0.929 . S
C1898 C1897 1.347 . S
C1898 C1899 1.455 . S
C1898 H1958 0.930 . S
C1899 C1886 1.412 . S
C1899 C1898 1.455 . S
C1899 C1900 1.331 . S
C1900 C1889 1.451 . S
C1900 C1899 1.331 . S
C1900 C1901 1.497 . S
C1901 C1892 1.395 . S
C1901 C1896 1.446 . S
C1901 C1900 1.497 . S
C1902 C1903 1.582 . S
C1902 H1959 0.962 . S
C1902 H1960 0.959 . S
C1902 H1961 0.958 . S
C1903 C1902 1.582 . S
C1903 O1906 1.458 . S
C1903 H1932 0.980 . S
O1904 C1849 1.426 . S
O1904 C1850 1.334 . S
O1905 C1877 1.412 . S
O1905 C1878 1.393 . S
O1906 C1868 1.435 . S
O1906 C1903 1.458 . S
O1907 C1859 1.468 . S
O1907 C1860 1.408 . S
H1908 C1849 0.980 . S
H1909 C1848 0.959 . S
H1910 C1848 0.959 . S
H1911 C1848 0.960 . S
H1912 C1851 0.929 . S
H1913 C1855 0.929 . S
H1914 C1856 0.959 . S
H1915 C1856 0.961 . S
H1916 C1856 0.961 . S
H1917 C1857 0.960 . S
H1918 C1857 0.960 . S
H1919 C1857 0.961 . S
H1920 C1859 0.980 . S
H1921 C1858 0.961 . S
H1922 C1858 0.960 . S
H1923 C1858 0.959 . S
H1924 C1861 0.930 . S
H1925 C1865 0.931 . S
H1926 C1866 0.959 . S
H1927 C1866 0.961 . S
H1928 C1866 0.959 . S
H1929 C1867 0.960 . S
H1930 C1867 0.960 . S
H1931 C1867 0.960 . S
H1932 C1903 0.980 . S
H1933 C1869 0.930 . S
H1934 C1873 0.930 . S
H1935 C1874 0.961 . S
H1936 C1874 0.960 . S
H1937 C1874 0.958 . S
H1938 C1875 0.961 . S
H1939 C1875 0.960 . S
H1940 C1875 0.960 . S
H1941 C1877 0.980 . S
H1942 C1876 0.961 . S
H1943 C1876 0.961 . S
H1944 C1876 0.959 . S
H1945 C1879 0.932 . S
H1946 C1883 0.929 . S
H1947 C1884 0.961 . S
H1948 C1884 0.959 . S
H1949 C1884 0.959 . S
H1950 C1885 0.960 . S
H1951 C1885 0.962 . S
H1952 C1885 0.961 . S
H1953 C1887 0.929 . S
H1954 C1890 0.930 . S
H1955 C1891 0.929 . S
H1956 C1894 0.930 . S
H1957 C1897 0.929 . S
H1958 C1898 0.930 . S
H1959 C1902 0.962 . S
H1960 C1902 0.959 . S
H1961 C1902 0.958 . S
C1962 C1963 1.560 . S
C1962 H2023 0.959 . S
C1962 H2024 0.959 . S
C1962 H2025 0.960 . S
C1963 C1962 1.560 . S
C1963 O2018 1.426 . S
C1963 H2022 0.980 . S
C1964 C1965 1.407 . S
C1964 C1969 1.418 . S
C1964 O2018 1.334 . S
C1965 C1964 1.407 . S
C1965 C1966 1.360 . S
C1965 H2026 0.929 . S
C1966 C1965 1.360 . S
C1966 C1967 1.401 . S
C1966 C1970 1.527 . S
C1967 C1966 1.401 . S
C1967 C1968 1.405 . S
C1967 C2000 1.587 . S
C1968 C1967 1.405 . S
C1968 C1969 1.332 . S
C1968 C1971 1.496 . S
C1969 C1964 1.418 . S
C1969 C1968 1.332 . S
C1969 H2027 0.929 . S
C1970 C1966 1.527 . S
C1970 H2028 0.959 . S
C1970 H2029 0.961 . S
C1970 H2030 0.961 . S
C1971 C1968 1.496 . S
C1971 H2031 0.960 . S
C1971 H2032 0.960 . S
C1971 H2033 0.961 . S
C1972 C1973 1.517 . S
C1972 H2035 0.961 . S
C1972 H2036 0.960 . S
C1972 H2037 0.959 . S
C1973 C1972 1.517 . S
C1973 O2021 1.468 . S
C1973 H2034 0.980 . S
C1974 C1975 1.349 . S
C1974 C1979 1.367 . S
C1974 O2021 1.408 . S
C1975 C1974 1.349 . S
C1975 C1976 1.407 . S
C1975 H2038 0.930 . S
C1976 C1975 1.407 . S
C1976 C1977 1.449 . S
C1976 C1980 1.535 . S
C1977 C1976 1.449 . S
C1977 C1978 1.384 . S
C1977 C2002 1.553 . S
C1978 C1977 1.384 . S
C1978 C1979 1.364 . S
C1978 C1981 1.450 . S
C1979 C1974 1.367 . S
C1979 C1978 1.364 . S
C1979 H2039 0.931 . S
C1980 C1976 1.535 . S
C1980 H2040 0.959 . S
C1980 H2041 0.961 . S
C1980 H2042 0.959 . S
C1981 C1978 1.450 . S
C1981 H2043 0.960 . S
C1981 H2044 0.960 . S
C1981 H2045 0.960 . S
C1982 C1983 1.309 . S
C1982 C1987 1.304 . S
C1982 O2020 1.435 . S
C1983 C1982 1.309 . S
C1983 C1984 1.476 . S
C1983 H2047 0.930 . S
C1984 C1983 1.476 . S
C1984 C1985 1.400 . S
C1984 C1988 1.567 . S
C1985 C1984 1.400 . S
C1985 C1986 1.373 . S
C1985 C2007 1.432 . S
C1986 C1985 1.373 . S
C1986 C1987 1.339 . S
C1986 C1989 1.530 . S
C1987 C1982 1.304 . S
C1987 C1986 1.339 . S
C1987 H2048 0.930 . S
C1988 C1984 1.567 . S
C1988 H2049 0.961 . S
C1988 H2050 0.960 . S
C1988 H2051 0.958 . S
C1989 C1986 1.530 . S
C1989 H2052 0.961 . S
C1989 H2053 0.960 . S
C1989 H2054 0.960 . S
C1990 C1991 1.530 . S
C1990 H2056 0.961 . S
C1990 H2057 0.961 . S
C1990 H2058 0.959 . S
C1991 C1990 1.530 . S
C1991 O2019 1.412 . S
C1991 H2055 0.980 . S
C1992 C1993 1.288 . S
C1992 C1997 1.377 . S
C1992 O2019 1.393 . S
C1993 C1992 1.288 . S
C1993 C1994 1.369 . S
C1993 H2059 0.932 . S
C1994 C1993 1.369 . S
C1994 C1995 1.398 . S
C1994 C1998 1.527 . S
C1995 C1994 1.398 . S
C1995 C1996 1.380 . S
C1995 C2009 1.497 . S
C1996 C1995 1.380 . S
C1996 C1997 1.383 . S
C1996 C1999 1.603 . S
C1997 C1992 1.377 . S
C1997 C1996 1.383 . S
C1997 H2060 0.929 . S
C1998 C1994 1.527 . S
C1998 H2061 0.961 . S
C1998 H2062 0.959 . S
C1998 H2063 0.959 . S
C1999 C1996 1.603 . S
C1999 H2064 0.960 . S
C1999 H2065 0.962 . S
C1999 H2066 0.961 . S
C2000 C1967 1.587 . S
C2000 C2001 1.360 . S
C2000 C2013 1.412 . S
C2001 C2000 1.360 . S
C2001 C2002 1.365 . S
C2001 H2067 0.929 . S
C2002 C1977 1.553 . S
C2002 C2001 1.365 . S
C2002 C2003 1.404 . S
C2003 C2002 1.404 . S
C2003 C2004 1.395 . S
C2003 C2014 1.451 . S
C2004 C2003 1.395 . S
C2004 C2005 1.322 . S
C2004 H2068 0.930 . S
C2005 C2004 1.322 . S
C2005 C2006 1.459 . S
C2005 H2069 0.929 . S
C2006 C2005 1.459 . S
C2006 C2007 1.445 . S
C2006 C2015 1.395 . S
C2007 C1985 1.432 . S
C2007 C2006 1.445 . S
C2007 C2008 1.370 . S
C2008 C2007 1.370 . S
C2008 C2009 1.438 . S
C2008 H2070 0.930 . S
C2009 C1995 1.497 . S
C2009 C2008 1.438 . S
C2009 C2010 1.360 . S
C2010 C2009 1.360 . S
C2010 C2011 1.401 . S
C2010 C2015 1.446 . S
C2011 C2010 1.401 . S
C2011 C2012 1.347 . S
C2011 H2071 0.929 . S
C2012 C2011 1.347 . S
C2012 C2013 1.455 . S
C2012 H2072 0.930 . S
C2013 C2000 1.412 . S
C2013 C2012 1.455 . S
C2013 C2014 1.331 . S
C2014 C2003 1.451 . S
C2014 C2013 1.331 . S
C2014 C2015 1.497 . S
C2015 C2006 1.395 . S
C2015 C2010 1.446 . S
C2015 C2014 1.497 . S
C2016 C2017 1.582 . S
C2016 H2073 0.962 . S
C2016 H2074 0.959 . S
C2016 H2075 0.958 . S
C2017 C2016 1.582 . S
C2017 O2020 1.458 . S
C2017 H2046 0.980 . S
O2018 C1963 1.426 . S
O2018 C1964 1.334 . S
O2019 C1991 1.412 . S
O2019 C1992 1.393 . S
O2020 C1982 1.435 . S
O2020 C2017 1.458 . S
O2021 C1973 1.468 . S
O2021 C1974 1.408 . S
H2022 C1963 0.980 . S
H2023 C1962 0.959 . S
H2024 C1962 0.959 . S
H2025 C1962 0.960 . S
H2026 C1965 0.929 . S
H2027 C1969 0.929 . S
H2028 C1970 0.959 . S
H2029 C1970 0.961 . S
H2030 C1970 0.961 . S
H2031 C1971 0.960 . S
H2032 C1971 0.960 . S
H2033 C1971 0.961 . S
H2034 C1973 0.980 . S
H2035 C1972 0.961 . S
H2036 C1972 0.960 . S
H2037 C1972 0.959 . S
H2038 C1975 0.930 . S
H2039 C1979 0.931 . S
H2040 C1980 0.959 . S
H2041 C1980 0.961 . S
H2042 C1980 0.959 . S
H2043 C1981 0.960 . S
H2044 C1981 0.960 . S
H2045 C1981 0.960 . S
H2046 C2017 0.980 . S
H2047 C1983 0.930 . S
H2048 C1987 0.930 . S
H2049 C1988 0.961 . S
H2050 C1988 0.960 . S
H2051 C1988 0.958 . S
H2052 C1989 0.961 . S
H2053 C1989 0.960 . S
H2054 C1989 0.960 . S
H2055 C1991 0.980 . S
H2056 C1990 0.961 . S
H2057 C1990 0.961 . S
H2058 C1990 0.959 . S
H2059 C1993 0.932 . S
H2060 C1997 0.929 . S
H2061 C1998 0.961 . S
H2062 C1998 0.959 . S
H2063 C1998 0.959 . S
H2064 C1999 0.960 . S
H2065 C1999 0.962 . S
H2066 C1999 0.961 . S
H2067 C2001 0.929 . S
H2068 C2004 0.930 . S
H2069 C2005 0.929 . S
H2070 C2008 0.930 . S
H2071 C2011 0.929 . S
H2072 C2012 0.930 . S
H2073 C2016 0.962 . S
H2074 C2016 0.959 . S
H2075 C2016 0.958 . S
C2076 C2077 1.560 . S
C2076 H2137 0.959 . S
C2076 H2138 0.959 . S
C2076 H2139 0.960 . S
C2077 C2076 1.560 . S
C2077 O2132 1.426 . S
C2077 H2136 0.980 . S
C2078 C2079 1.407 . S
C2078 C2083 1.418 . S
C2078 O2132 1.334 . S
C2079 C2078 1.407 . S
C2079 C2080 1.360 . S
C2079 H2140 0.929 . S
C2080 C2079 1.360 . S
C2080 C2081 1.401 . S
C2080 C2084 1.527 . S
C2081 C2080 1.401 . S
C2081 C2082 1.405 . S
C2081 C2114 1.587 . S
C2082 C2081 1.405 . S
C2082 C2083 1.332 . S
C2082 C2085 1.496 . S
C2083 C2078 1.418 . S
C2083 C2082 1.332 . S
C2083 H2141 0.929 . S
C2084 C2080 1.527 . S
C2084 H2142 0.959 . S
C2084 H2143 0.961 . S
C2084 H2144 0.961 . S
C2085 C2082 1.496 . S
C2085 H2145 0.960 . S
C2085 H2146 0.960 . S
C2085 H2147 0.961 . S
C2086 C2087 1.517 . S
C2086 H2149 0.961 . S
C2086 H2150 0.960 . S
C2086 H2151 0.959 . S
C2087 C2086 1.517 . S
C2087 O2135 1.468 . S
C2087 H2148 0.980 . S
C2088 C2089 1.349 . S
C2088 C2093 1.367 . S
C2088 O2135 1.408 . S
C2089 C2088 1.349 . S
C2089 C2090 1.407 . S
C2089 H2152 0.930 . S
C2090 C2089 1.407 . S
C2090 C2091 1.449 . S
C2090 C2094 1.535 . S
C2091 C2090 1.449 . S
C2091 C2092 1.384 . S
C2091 C2116 1.553 . S
C2092 C2091 1.384 . S
C2092 C2093 1.364 . S
C2092 C2095 1.450 . S
C2093 C2088 1.367 . S
C2093 C2092 1.364 . S
C2093 H2153 0.931 . S
C2094 C2090 1.535 . S
C2094 H2154 0.959 . S
C2094 H2155 0.961 . S
C2094 H2156 0.959 . S
C2095 C2092 1.450 . S
C2095 H2157 0.960 . S
C2095 H2158 0.960 . S
C2095 H2159 0.960 . S
C2096 C2097 1.309 . S
C2096 C2101 1.304 . S
C2096 O2134 1.435 . S
C2097 C2096 1.309 . S
C2097 C2098 1.476 . S
C2097 H2161 0.930 . S
C2098 C2097 1.476 . S
C2098 C2099 1.400 . S
C2098 C2102 1.567 . S
C2099 C2098 1.400 . S
C2099 C2100 1.373 . S
C2099 C2121 1.432 . S
C2100 C2099 1.373 . S
C2100 C2101 1.339 . S
C2100 C2103 1.530 . S
C2101 C2096 1.304 . S
C2101 C2100 1.339 . S
C2101 H2162 0.930 . S
C2102 C2098 1.567 . S
C2102 H2163 0.961 . S
C2102 H2164 0.960 . S
C2102 H2165 0.958 . S
C2103 C2100 1.530 . S
C2103 H2166 0.961 . S
C2103 H2167 0.960 . S
C2103 H2168 0.960 . S
C2104 C2105 1.530 . S
C2104 H2170 0.961 . S
C2104 H2171 0.961 . S
C2104 H2172 0.959 . S
C2105 C2104 1.530 . S
C2105 O2133 1.412 . S
C2105 H2169 0.980 . S
C2106 C2107 1.288 . S
C2106 C2111 1.377 . S
C2106 O2133 1.393 . S
C2107 C2106 1.288 . S
C2107 C2108 1.369 . S
C2107 H2173 0.932 . S
C2108 C2107 1.369 . S
C2108 C2109 1.398 . S
C2108 C2112 1.527 . S
C2109 C2108 1.398 . S
C2109 C2110 1.380 . S
C2109 C2123 1.497 . S
C2110 C2109 1.380 . S
C2110 C2111 1.383 . S
C2110 C2113 1.603 . S
C2111 C2106 1.377 . S
C2111 C2110 1.383 . S
C2111 H2174 0.929 . S
C2112 C2108 1.527 . S
C2112 H2175 0.961 . S
C2112 H2176 0.959 . S
C2112 H2177 0.959 . S
C2113 C2110 1.603 . S
C2113 H2178 0.960 . S
C2113 H2179 0.962 . S
C2113 H2180 0.961 . S
C2114 C2081 1.587 . S
C2114 C2115 1.360 . S
C2114 C2127 1.412 . S
C2115 C2114 1.360 . S
C2115 C2116 1.365 . S
C2115 H2181 0.929 . S
C2116 C2091 1.553 . S
C2116 C2115 1.365 . S
C2116 C2117 1.404 . S
C2117 C2116 1.404 . S
C2117 C2118 1.395 . S
C2117 C2128 1.451 . S
C2118 C2117 1.395 . S
C2118 C2119 1.322 . S
C2118 H2182 0.930 . S
C2119 C2118 1.322 . S
C2119 C2120 1.459 . S
C2119 H2183 0.929 . S
C2120 C2119 1.459 . S
C2120 C2121 1.445 . S
C2120 C2129 1.395 . S
C2121 C2099 1.432 . S
C2121 C2120 1.445 . S
C2121 C2122 1.370 . S
C2122 C2121 1.370 . S
C2122 C2123 1.438 . S
C2122 H2184 0.930 . S
C2123 C2109 1.497 . S
C2123 C2122 1.438 . S
C2123 C2124 1.360 . S
C2124 C2123 1.360 . S
C2124 C2125 1.401 . S
C2124 C2129 1.446 . S
C2125 C2124 1.401 . S
C2125 C2126 1.347 . S
C2125 H2185 0.929 . S
C2126 C2125 1.347 . S
C2126 C2127 1.455 . S
C2126 H2186 0.930 . S
C2127 C2114 1.412 . S
C2127 C2126 1.455 . S
C2127 C2128 1.331 . S
C2128 C2117 1.451 . S
C2128 C2127 1.331 . S
C2128 C2129 1.497 . S
C2129 C2120 1.395 . S
C2129 C2124 1.446 . S
C2129 C2128 1.497 . S
C2130 C2131 1.582 . S
C2130 H2187 0.962 . S
C2130 H2188 0.959 . S
C2130 H2189 0.958 . S
C2131 C2130 1.582 . S
C2131 O2134 1.458 . S
C2131 H2160 0.980 . S
O2132 C2077 1.426 . S
O2132 C2078 1.334 . S
O2133 C2105 1.412 . S
O2133 C2106 1.393 . S
O2134 C2096 1.435 . S
O2134 C2131 1.458 . S
O2135 C2087 1.468 . S
O2135 C2088 1.408 . S
H2136 C2077 0.980 . S
H2137 C2076 0.959 . S
H2138 C2076 0.959 . S
H2139 C2076 0.960 . S
H2140 C2079 0.929 . S
H2141 C2083 0.929 . S
H2142 C2084 0.959 . S
H2143 C2084 0.961 . S
H2144 C2084 0.961 . S
H2145 C2085 0.960 . S
H2146 C2085 0.960 . S
H2147 C2085 0.961 . S
H2148 C2087 0.980 . S
H2149 C2086 0.961 . S
H2150 C2086 0.960 . S
H2151 C2086 0.959 . S
H2152 C2089 0.930 . S
H2153 C2093 0.931 . S
H2154 C2094 0.959 . S
H2155 C2094 0.961 . S
H2156 C2094 0.959 . S
H2157 C2095 0.960 . S
H2158 C2095 0.960 . S
H2159 C2095 0.960 . S
H2160 C2131 0.980 . S
H2161 C2097 0.930 . S
H2162 C2101 0.930 . S
H2163 C2102 0.961 . S
H2164 C2102 0.960 . S
H2165 C2102 0.958 . S
H2166 C2103 0.961 . S
H2167 C2103 0.960 . S
H2168 C2103 0.960 . S
H2169 C2105 0.980 . S
H2170 C2104 0.961 . S
H2171 C2104 0.961 . S
H2172 C2104 0.959 . S
H2173 C2107 0.932 . S
H2174 C2111 0.929 . S
H2175 C2112 0.961 . S
H2176 C2112 0.959 . S
H2177 C2112 0.959 . S
H2178 C2113 0.960 . S
H2179 C2113 0.962 . S
H2180 C2113 0.961 . S
H2181 C2115 0.929 . S
H2182 C2118 0.930 . S
H2183 C2119 0.929 . S
H2184 C2122 0.930 . S
H2185 C2125 0.929 . S
H2186 C2126 0.930 . S
H2187 C2130 0.962 . S
H2188 C2130 0.959 . S
H2189 C2130 0.958 . S
C2190 C2191 1.560 . S
C2190 H2251 0.959 . S
C2190 H2252 0.959 . S
C2190 H2253 0.960 . S
C2191 C2190 1.560 . S
C2191 O2246 1.426 . S
C2191 H2250 0.980 . S
C2192 C2193 1.407 . S
C2192 C2197 1.418 . S
C2192 O2246 1.334 . S
C2193 C2192 1.407 . S
C2193 C2194 1.360 . S
C2193 H2254 0.929 . S
C2194 C2193 1.360 . S
C2194 C2195 1.401 . S
C2194 C2198 1.527 . S
C2195 C2194 1.401 . S
C2195 C2196 1.405 . S
C2195 C2228 1.587 . S
C2196 C2195 1.405 . S
C2196 C2197 1.332 . S
C2196 C2199 1.496 . S
C2197 C2192 1.418 . S
C2197 C2196 1.332 . S
C2197 H2255 0.929 . S
C2198 C2194 1.527 . S
C2198 H2256 0.959 . S
C2198 H2257 0.961 . S
C2198 H2258 0.961 . S
C2199 C2196 1.496 . S
C2199 H2259 0.960 . S
C2199 H2260 0.960 . S
C2199 H2261 0.961 . S
C2200 C2201 1.517 . S
C2200 H2263 0.961 . S
C2200 H2264 0.960 . S
C2200 H2265 0.959 . S
C2201 C2200 1.517 . S
C2201 O2249 1.468 . S
C2201 H2262 0.980 . S
C2202 C2203 1.349 . S
C2202 C2207 1.367 . S
C2202 O2249 1.408 . S
C2203 C2202 1.349 . S
C2203 C2204 1.407 . S
C2203 H2266 0.930 . S
C2204 C2203 1.407 . S
C2204 C2205 1.449 . S
C2204 C2208 1.535 . S
C2205 C2204 1.449 . S
C2205 C2206 1.384 . S
C2205 C2230 1.553 . S
C2206 C2205 1.384 . S
C2206 C2207 1.364 . S
C2206 C2209 1.450 . S
C2207 C2202 1.367 . S
C2207 C2206 1.364 . S
C2207 H2267 0.931 . S
C2208 C2204 1.535 . S
C2208 H2268 0.959 . S
C2208 H2269 0.961 . S
C2208 H2270 0.959 . S
C2209 C2206 1.450 . S
C2209 H2271 0.960 . S
C2209 H2272 0.960 . S
C2209 H2273 0.960 . S
C2210 C2211 1.309 . S
C2210 C2215 1.304 . S
C2210 O2248 1.435 . S
C2211 C2210 1.309 . S
C2211 C2212 1.476 . S
C2211 H2275 0.930 . S
C2212 C2211 1.476 . S
C2212 C2213 1.400 . S
C2212 C2216 1.567 . S
C2213 C2212 1.400 . S
C2213 C2214 1.373 . S
C2213 C2235 1.432 . S
C2214 C2213 1.373 . S
C2214 C2215 1.339 . S
C2214 C2217 1.530 . S
C2215 C2210 1.304 . S
C2215 C2214 1.339 . S
C2215 H2276 0.930 . S
C2216 C2212 1.567 . S
C2216 H2277 0.961 . S
C2216 H2278 0.960 . S
C2216 H2279 0.958 . S
C2217 C2214 1.530 . S
C2217 H2280 0.961 . S
C2217 H2281 0.960 . S
C2217 H2282 0.960 . S
C2218 C2219 1.530 . S
C2218 H2284 0.961 . S
C2218 H2285 0.961 . S
C2218 H2286 0.959 . S
C2219 C2218 1.530 . S
C2219 O2247 1.412 . S
C2219 H2283 0.980 . S
C2220 C2221 1.288 . S
C2220 C2225 1.377 . S
C2220 O2247 1.393 . S
C2221 C2220 1.288 . S
C2221 C2222 1.369 . S
C2221 H2287 0.932 . S
C2222 C2221 1.369 . S
C2222 C2223 1.398 . S
C2222 C2226 1.527 . S
C2223 C2222 1.398 . S
C2223 C2224 1.380 . S
C2223 C2237 1.497 . S
C2224 C2223 1.380 . S
C2224 C2225 1.383 . S
C2224 C2227 1.603 . S
C2225 C2220 1.377 . S
C2225 C2224 1.383 . S
C2225 H2288 0.929 . S
C2226 C2222 1.527 . S
C2226 H2289 0.961 . S
C2226 H2290 0.959 . S
C2226 H2291 0.959 . S
C2227 C2224 1.603 . S
C2227 H2292 0.960 . S
C2227 H2293 0.962 . S
C2227 H2294 0.961 . S
C2228 C2195 1.587 . S
C2228 C2229 1.360 . S
C2228 C2241 1.412 . S
C2229 C2228 1.360 . S
C2229 C2230 1.365 . S
C2229 H2295 0.929 . S
C2230 C2205 1.553 . S
C2230 C2229 1.365 . S
C2230 C2231 1.404 . S
C2231 C2230 1.404 . S
C2231 C2232 1.395 . S
C2231 C2242 1.451 . S
C2232 C2231 1.395 . S
C2232 C2233 1.322 . S
C2232 H2296 0.930 . S
C2233 C2232 1.322 . S
C2233 C2234 1.459 . S
C2233 H2297 0.929 . S
C2234 C2233 1.459 . S
C2234 C2235 1.445 . S
C2234 C2243 1.395 . S
C2235 C2213 1.432 . S
C2235 C2234 1.445 . S
C2235 C2236 1.370 . S
C2236 C2235 1.370 . S
C2236 C2237 1.438 . S
C2236 H2298 0.930 . S
C2237 C2223 1.497 . S
C2237 C2236 1.438 . S
C2237 C2238 1.360 . S
C2238 C2237 1.360 . S
C2238 C2239 1.401 . S
C2238 C2243 1.446 . S
C2239 C2238 1.401 . S
C2239 C2240 1.347 . S
C2239 H2299 0.929 . S
C2240 C2239 1.347 . S
C2240 C2241 1.455 . S
C2240 H2300 0.930 . S
C2241 C2228 1.412 . S
C2241 C2240 1.455 . S
C2241 C2242 1.331 . S
C2242 C2231 1.451 . S
C2242 C2241 1.331 . S
C2242 C2243 1.497 . S
C2243 C2234 1.395 . S
C2243 C2238 1.446 . S
C2243 C2242 1.497 . S
C2244 C2245 1.582 . S
C2244 H2301 0.962 . S
C2244 H2302 0.959 . S
C2244 H2303 0.958 . S
C2245 C2244 1.582 . S
C2245 O2248 1.458 . S
C2245 H2274 0.980 . S
O2246 C2191 1.426 . S
O2246 C2192 1.334 . S
O2247 C2219 1.412 . S
O2247 C2220 1.393 . S
O2248 C2210 1.435 . S
O2248 C2245 1.458 . S
O2249 C2201 1.468 . S
O2249 C2202 1.408 . S
H2250 C2191 0.980 . S
H2251 C2190 0.959 . S
H2252 C2190 0.959 . S
H2253 C2190 0.960 . S
H2254 C2193 0.929 . S
H2255 C2197 0.929 . S
H2256 C2198 0.959 . S
H2257 C2198 0.961 . S
H2258 C2198 0.961 . S
H2259 C2199 0.960 . S
H2260 C2199 0.960 . S
H2261 C2199 0.961 . S
H2262 C2201 0.980 . S
H2263 C2200 0.961 . S
H2264 C2200 0.960 . S
H2265 C2200 0.959 . S
H2266 C2203 0.930 . S
H2267 C2207 0.931 . S
H2268 C2208 0.959 . S
H2269 C2208 0.961 . S
H2270 C2208 0.959 . S
H2271 C2209 0.960 . S
H2272 C2209 0.960 . S
H2273 C2209 0.960 . S
H2274 C2245 0.980 . S
H2275 C2211 0.930 . S
H2276 C2215 0.930 . S
H2277 C2216 0.961 . S
H2278 C2216 0.960 . S
H2279 C2216 0.958 . S
H2280 C2217 0.961 . S
H2281 C2217 0.960 . S
H2282 C2217 0.960 . S
H2283 C2219 0.980 . S
H2284 C2218 0.961 . S
H2285 C2218 0.961 . S
H2286 C2218 0.959 . S
H2287 C2221 0.932 . S
H2288 C2225 0.929 . S
H2289 C2226 0.961 . S
H2290 C2226 0.959 . S
H2291 C2226 0.959 . S
H2292 C2227 0.960 . S
H2293 C2227 0.962 . S
H2294 C2227 0.961 . S
H2295 C2229 0.929 . S
H2296 C2232 0.930 . S
H2297 C2233 0.929 . S
H2298 C2236 0.930 . S
H2299 C2239 0.929 . S
H2300 C2240 0.930 . S
H2301 C2244 0.962 . S
H2302 C2244 0.959 . S
H2303 C2244 0.958 . S
H2304 C2316 0.930 . S
H2305 C2318 0.930 . S
H2306 C2319 0.912 . S
H2307 C2323 0.959 . S
H2308 C2323 0.959 . S
H2309 C2323 0.961 . S
H2310 C2324 0.960 . S
H2311 C2324 0.961 . S
H2312 C2324 0.959 . S
H2313 C2327 0.926 . S
H2314 C2328 0.931 . S
H2315 C2330 0.930 . S
C2316 H2304 0.930 . S
C2316 C2317 1.403 . S
C2316 C2321 1.399 . S
C2317 C2316 1.403 . S
C2317 C2318 1.391 1_655 S
C2318 H2305 0.930 . S
C2318 C2317 1.391 1_455 S
C2318 C2319 1.413 . S
C2319 H2306 0.912 . S
C2319 C2318 1.413 . S
C2319 C2320 1.384 1_455 S
C2320 C2319 1.384 1_655 S
C2320 C2321 1.365 . S
C2320 C2326 1.505 . S
C2321 C2316 1.399 . S
C2321 C2320 1.365 . S
C2321 C2322 1.516 . S
C2322 C2321 1.516 . S
C2322 C2323 1.502 . S
C2322 C2324 1.561 1_655 S
C2322 C2325 1.526 . S
C2323 H2307 0.959 . S
C2323 H2308 0.959 . S
C2323 H2309 0.961 . S
C2323 C2322 1.502 . S
C2324 H2310 0.960 . S
C2324 H2311 0.961 . S
C2324 H2312 0.959 . S
C2324 C2322 1.561 1_455 S
C2325 C2322 1.526 . S
C2325 C2326 1.396 . S
C2325 C2330 1.390 . S
C2326 C2320 1.505 . S
C2326 C2325 1.396 . S
C2326 C2327 1.399 . S
C2327 H2313 0.926 . S
C2327 C2326 1.399 . S
C2327 C2328 1.385 . S
C2328 H2314 0.931 . S
C2328 C2327 1.385 . S
C2328 C2329 1.389 . S
C2329 C2328 1.389 . S
C2329 C2330 1.387 . S
C2330 H2315 0.930 . S
C2330 C2325 1.390 . S
C2330 C2329 1.387 . S
H2331 C2343 0.930 . S
H2332 C2345 0.930 . S
H2333 C2346 0.930 . S
H2334 C2350 0.959 . S
H2335 C2350 0.959 . S
H2336 C2350 0.961 . S
H2337 C2351 0.960 . S
H2338 C2351 0.961 . S
H2339 C2351 0.959 . S
H2340 C2354 0.929 . S
H2341 C2355 0.931 . S
H2342 C2357 0.930 . S
C2343 H2331 0.930 . S
C2343 C2344 1.399 . S
C2343 C2348 1.399 . S
C2344 C2343 1.399 . S
C2344 C2345 1.376 . S
C2345 H2332 0.930 . S
C2345 C2344 1.376 . S
C2345 C2346 1.388 . S
C2346 H2333 0.930 . S
C2346 C2345 1.388 . S
C2346 C2347 1.390 . S
C2347 C2346 1.390 . S
C2347 C2348 1.394 . S
C2347 C2353 1.465 . S
C2348 C2343 1.399 . S
C2348 C2347 1.394 . S
C2348 C2349 1.516 . S
C2349 C2348 1.516 . S
C2349 C2350 1.502 . S
C2349 C2351 1.561 . S
C2349 C2352 1.526 . S
C2350 H2334 0.959 . S
C2350 H2335 0.959 . S
C2350 H2336 0.961 . S
C2350 C2349 1.502 . S
C2351 H2337 0.960 . S
C2351 H2338 0.961 . S
C2351 H2339 0.959 . S
C2351 C2349 1.561 . S
C2352 C2349 1.526 . S
C2352 C2353 1.396 . S
C2352 C2357 1.390 . S
C2353 C2347 1.465 . S
C2353 C2352 1.396 . S
C2353 C2354 1.399 . S
C2354 H2340 0.929 . S
C2354 C2353 1.399 . S
C2354 C2355 1.385 . S
C2355 H2341 0.931 . S
C2355 C2354 1.385 . S
C2355 C2356 1.389 . S
C2356 C2355 1.389 . S
C2356 C2357 1.387 . S
C2357 H2342 0.930 . S
C2357 C2352 1.390 . S
C2357 C2356 1.387 . S
H2358 C2370 0.930 . S
H2359 C2372 0.930 . S
H2360 C2373 0.930 . S
H2361 C2377 0.959 . S
H2362 C2377 0.959 . S
H2363 C2377 0.961 . S
H2364 C2378 0.960 . S
H2365 C2378 0.961 . S
H2366 C2378 0.959 . S
H2367 C2381 0.929 . S
H2368 C2382 0.931 . S
H2369 C2384 0.930 . S
C2370 H2358 0.930 . S
C2370 C2371 1.399 . S
C2370 C2375 1.399 . S
C2371 C2370 1.399 . S
C2371 C2372 1.376 1_545 S
C2372 H2359 0.930 . S
C2372 C2371 1.376 1_565 S
C2372 C2373 1.388 . S
C2373 H2360 0.930 . S
C2373 C2372 1.388 . S
C2373 C2374 1.390 1_565 S
C2374 C2373 1.390 1_545 S
C2374 C2375 1.394 . S
C2374 C2380 1.465 . S
C2375 C2370 1.399 . S
C2375 C2374 1.394 . S
C2375 C2376 1.516 . S
C2376 C2375 1.516 . S
C2376 C2377 1.502 . S
C2376 C2378 1.561 . S
C2376 C2379 1.526 . S
C2377 H2361 0.959 . S
C2377 H2362 0.959 . S
C2377 H2363 0.961 . S
C2377 C2376 1.502 . S
C2378 H2364 0.960 . S
C2378 H2365 0.961 . S
C2378 H2366 0.959 . S
C2378 C2376 1.561 . S
C2379 C2376 1.526 . S
C2379 C2380 1.396 . S
C2379 C2384 1.390 . S
C2380 C2374 1.465 . S
C2380 C2379 1.396 . S
C2380 C2381 1.399 1_545 S
C2381 H2367 0.929 . S
C2381 C2380 1.399 1_565 S
C2381 C2382 1.385 . S
C2382 H2368 0.931 . S
C2382 C2381 1.385 . S
C2382 C2383 1.389 1_565 S
C2383 C2382 1.389 1_545 S
C2383 C2384 1.387 . S
C2384 H2369 0.930 . S
C2384 C2379 1.390 . S
C2384 C2383 1.387 . S
H2385 C2397 0.930 . S
H2386 C2399 0.930 . S
H2387 C2400 0.930 . S
H2388 C2404 0.959 . S
H2389 C2404 0.959 . S
H2390 C2404 0.961 . S
H2391 C2405 0.960 . S
H2392 C2405 0.961 . S
H2393 C2405 0.959 . S
H2394 C2408 0.929 . S
H2395 C2409 0.931 . S
H2396 C2411 0.930 . S
C2397 H2385 0.930 . S
C2397 C2398 1.399 . S
C2397 C2402 1.399 . S
C2398 C2397 1.399 . S
C2398 C2399 1.376 1_565 S
C2399 H2386 0.930 . S
C2399 C2398 1.376 1_545 S
C2399 C2400 1.388 . S
C2400 H2387 0.930 . S
C2400 C2399 1.388 . S
C2400 C2401 1.390 . S
C2401 C2400 1.390 . S
C2401 C2402 1.394 1_545 S
C2401 C2407 1.465 . S
C2402 C2397 1.399 . S
C2402 C2401 1.394 1_565 S
C2402 C2403 1.516 . S
C2403 C2402 1.516 . S
C2403 C2404 1.502 . S
C2403 C2405 1.561 . S
C2403 C2406 1.526 . S
C2404 H2388 0.959 . S
C2404 H2389 0.959 . S
C2404 H2390 0.961 . S
C2404 C2403 1.502 . S
C2405 H2391 0.960 . S
C2405 H2392 0.961 . S
C2405 H2393 0.959 . S
C2405 C2403 1.561 . S
C2406 C2403 1.526 . S
C2406 C2407 1.396 1_565 S
C2406 C2411 1.390 . S
C2407 C2401 1.465 . S
C2407 C2406 1.396 1_545 S
C2407 C2408 1.399 . S
C2408 H2394 0.929 . S
C2408 C2407 1.399 . S
C2408 C2409 1.385 . S
C2409 H2395 0.931 . S
C2409 C2408 1.385 . S
C2409 C2410 1.389 1_545 S
C2410 C2409 1.389 1_565 S
C2410 C2411 1.387 . S
C2411 H2396 0.930 . S
C2411 C2406 1.390 . S
C2411 C2410 1.387 . S
H2412 C2424 0.930 . S
H2413 C2426 0.930 . S
H2414 C2427 0.930 . S
H2415 C2431 0.959 . S
H2416 C2431 0.959 . S
H2417 C2431 0.961 . S
H2418 C2432 0.960 . S
H2419 C2432 0.961 . S
H2420 C2432 0.959 . S
H2421 C2435 0.929 . S
H2422 C2436 0.931 . S
H2423 C2438 0.930 . S
C2424 H2412 0.930 . S
C2424 C2425 1.399 . S
C2424 C2429 1.399 . S
C2425 C2424 1.399 . S
C2425 C2426 1.376 . S
C2426 H2413 0.930 . S
C2426 C2425 1.376 . S
C2426 C2427 1.388 . S
C2427 H2414 0.930 . S
C2427 C2426 1.388 . S
C2427 C2428 1.390 . S
C2428 C2427 1.390 . S
C2428 C2429 1.394 . S
C2428 C2434 1.465 . S
C2429 C2424 1.399 . S
C2429 C2428 1.394 . S
C2429 C2430 1.516 . S
C2430 C2429 1.516 . S
C2430 C2431 1.502 1_455 S
C2430 C2432 1.561 . S
C2430 C2433 1.526 . S
C2431 H2415 0.959 . S
C2431 H2416 0.959 . S
C2431 H2417 0.961 . S
C2431 C2430 1.502 1_655 S
C2432 H2418 0.960 . S
C2432 H2419 0.961 . S
C2432 H2420 0.959 . S
C2432 C2430 1.561 . S
C2433 C2430 1.526 . S
C2433 C2434 1.396 . S
C2433 C2438 1.390 . S
C2434 C2428 1.465 . S
C2434 C2433 1.396 . S
C2434 C2435 1.399 . S
C2435 H2421 0.929 . S
C2435 C2434 1.399 . S
C2435 C2436 1.385 . S
C2436 H2422 0.931 . S
C2436 C2435 1.385 . S
C2436 C2437 1.389 . S
C2437 C2436 1.389 . S
C2437 C2438 1.387 . S
C2438 H2423 0.930 . S
C2438 C2433 1.390 . S
C2438 C2437 1.387 . S
H2439 C2451 0.930 . S
H2440 C2453 0.930 . S
H2441 C2454 0.930 . S
H2442 C2458 0.959 . S
H2443 C2458 0.959 . S
H2444 C2458 0.961 . S
H2445 C2459 0.960 . S
H2446 C2459 0.961 . S
H2447 C2459 0.959 . S
H2448 C2462 0.929 . S
H2449 C2463 0.931 . S
H2450 C2465 0.930 . S
C2451 H2439 0.930 . S
C2451 C2452 1.399 . S
C2451 C2456 1.399 . S
C2452 C2451 1.399 . S
C2452 C2453 1.376 . S
C2453 H2440 0.930 . S
C2453 C2452 1.376 . S
C2453 C2454 1.388 . S
C2454 H2441 0.930 . S
C2454 C2453 1.388 . S
C2454 C2455 1.390 . S
C2455 C2454 1.390 . S
C2455 C2456 1.394 . S
C2455 C2461 1.465 . S
C2456 C2451 1.399 . S
C2456 C2455 1.394 . S
C2456 C2457 1.516 . S
C2457 C2456 1.516 . S
C2457 C2458 1.502 . S
C2457 C2459 1.561 . S
C2457 C2460 1.526 . S
C2458 H2442 0.959 . S
C2458 H2443 0.959 . S
C2458 H2444 0.961 . S
C2458 C2457 1.502 . S
C2459 H2445 0.960 . S
C2459 H2446 0.961 . S
C2459 H2447 0.959 . S
C2459 C2457 1.561 . S
C2460 C2457 1.526 . S
C2460 C2461 1.396 . S
C2460 C2465 1.390 . S
C2461 C2455 1.465 . S
C2461 C2460 1.396 . S
C2461 C2462 1.399 . S
C2462 H2448 0.929 . S
C2462 C2461 1.399 . S
C2462 C2463 1.385 . S
C2463 H2449 0.931 . S
C2463 C2462 1.385 . S
C2463 C2464 1.389 . S
C2464 C2463 1.389 . S
C2464 C2465 1.387 . S
C2465 H2450 0.930 . S
C2465 C2460 1.390 . S
C2465 C2464 1.387 . S
H2466 C2478 0.930 . S
H2467 C2480 0.930 . S
H2468 C2481 0.930 . S
H2469 C2485 0.959 . S
H2470 C2485 0.959 . S
H2471 C2485 0.961 . S
H2472 C2486 0.960 . S
H2473 C2486 0.961 . S
H2474 C2486 0.959 . S
H2475 C2489 0.929 . S
H2476 C2490 0.931 . S
H2477 C2492 0.930 . S
C2478 H2466 0.930 . S
C2478 C2479 1.399 1_655 S
C2478 C2483 1.399 . S
C2479 C2478 1.399 1_455 S
C2479 C2480 1.376 . S
C2480 H2467 0.930 . S
C2480 C2479 1.376 . S
C2480 C2481 1.388 . S
C2481 H2468 0.930 . S
C2481 C2480 1.388 . S
C2481 C2482 1.390 . S
C2482 C2481 1.390 . S
C2482 C2483 1.394 1_455 S
C2482 C2488 1.465 . S
C2483 C2478 1.399 . S
C2483 C2482 1.394 1_655 S
C2483 C2484 1.516 . S
C2484 C2483 1.516 . S
C2484 C2485 1.502 . S
C2484 C2486 1.561 . S
C2484 C2487 1.526 . S
C2485 H2469 0.959 . S
C2485 H2470 0.959 . S
C2485 H2471 0.961 . S
C2485 C2484 1.502 . S
C2486 H2472 0.960 . S
C2486 H2473 0.961 . S
C2486 H2474 0.959 . S
C2486 C2484 1.561 . S
C2487 C2484 1.526 . S
C2487 C2488 1.396 1_655 S
C2487 C2492 1.390 . S
C2488 C2482 1.465 . S
C2488 C2487 1.396 1_455 S
C2488 C2489 1.399 . S
C2489 H2475 0.929 . S
C2489 C2488 1.399 . S
C2489 C2490 1.385 . S
C2490 H2476 0.931 . S
C2490 C2489 1.385 . S
C2490 C2491 1.389 . S
C2491 C2490 1.389 . S
C2491 C2492 1.387 1_455 S
C2492 H2477 0.930 . S
C2492 C2487 1.390 . S
C2492 C2491 1.387 1_655 S
H2493 C2505 0.930 . S
H2494 C2507 0.930 . S
H2495 C2508 0.930 . S
H2496 C2512 0.959 . S
H2497 C2512 0.959 . S
H2498 C2512 0.961 . S
H2499 C2513 0.960 . S
H2500 C2513 0.961 . S
H2501 C2513 0.959 . S
H2502 C2516 0.929 . S
H2503 C2517 0.931 . S
H2504 C2519 0.930 . S
C2505 H2493 0.930 . S
C2505 C2506 1.399 . S
C2505 C2510 1.399 . S
C2506 C2505 1.399 . S
C2506 C2507 1.376 . S
C2507 H2494 0.930 . S
C2507 C2506 1.376 . S
C2507 C2508 1.388 . S
C2508 H2495 0.930 . S
C2508 C2507 1.388 . S
C2508 C2509 1.390 . S
C2509 C2508 1.390 . S
C2509 C2510 1.394 . S
C2509 C2515 1.465 . S
C2510 C2505 1.399 . S
C2510 C2509 1.394 . S
C2510 C2511 1.516 . S
C2511 C2510 1.516 . S
C2511 C2512 1.502 . S
C2511 C2513 1.561 . S
C2511 C2514 1.526 . S
C2512 H2496 0.959 . S
C2512 H2497 0.959 . S
C2512 H2498 0.961 . S
C2512 C2511 1.502 . S
C2513 H2499 0.960 . S
C2513 H2500 0.961 . S
C2513 H2501 0.959 . S
C2513 C2511 1.561 . S
C2514 C2511 1.526 . S
C2514 C2515 1.396 . S
C2514 C2519 1.390 . S
C2515 C2509 1.465 . S
C2515 C2514 1.396 . S
C2515 C2516 1.399 . S
C2516 H2502 0.929 . S
C2516 C2515 1.399 . S
C2516 C2517 1.385 . S
C2517 H2503 0.931 . S
C2517 C2516 1.385 . S
C2517 C2518 1.389 . S
C2518 C2517 1.389 . S
C2518 C2519 1.387 . S
C2519 H2504 0.930 . S
C2519 C2514 1.390 . S
C2519 C2518 1.387 . S
H2520 C2532 0.930 . S
H2521 C2534 0.930 . S
H2522 C2535 0.930 . S
H2523 C2539 0.959 . S
H2524 C2539 0.959 . S
H2525 C2539 0.961 . S
H2526 C2540 0.960 . S
H2527 C2540 0.961 . S
H2528 C2540 0.959 . S
H2529 C2543 0.929 . S
H2530 C2544 0.931 . S
H2531 C2546 0.930 . S
C2532 H2520 0.930 . S
C2532 C2533 1.399 1_545 S
C2532 C2537 1.399 . S
C2533 C2532 1.399 1_565 S
C2533 C2534 1.376 . S
C2534 H2521 0.930 . S
C2534 C2533 1.376 . S
C2534 C2535 1.388 . S
C2535 H2522 0.930 . S
C2535 C2534 1.388 . S
C2535 C2536 1.390 . S
C2536 C2535 1.390 . S
C2536 C2537 1.394 1_565 S
C2536 C2542 1.465 . S
C2537 C2532 1.399 . S
C2537 C2536 1.394 1_545 S
C2537 C2538 1.516 . S
C2538 C2537 1.516 . S
C2538 C2539 1.502 . S
C2538 C2540 1.561 . S
C2538 C2541 1.526 . S
C2539 H2523 0.959 . S
C2539 H2524 0.959 . S
C2539 H2525 0.961 . S
C2539 C2538 1.502 . S
C2540 H2526 0.960 . S
C2540 H2527 0.961 . S
C2540 H2528 0.959 . S
C2540 C2538 1.561 . S
C2541 C2538 1.526 . S
C2541 C2542 1.396 1_545 S
C2541 C2546 1.390 . S
C2542 C2536 1.465 . S
C2542 C2541 1.396 1_565 S
C2542 C2543 1.399 . S
C2543 H2529 0.929 . S
C2543 C2542 1.399 . S
C2543 C2544 1.385 . S
C2544 H2530 0.931 . S
C2544 C2543 1.385 . S
C2544 C2545 1.389 . S
C2545 C2544 1.389 . S
C2545 C2546 1.387 1_565 S
C2546 H2531 0.930 . S
C2546 C2541 1.390 . S
C2546 C2545 1.387 1_545 S
H2547 C2559 0.930 . S
H2548 C2561 0.930 . S
H2549 C2562 0.930 . S
H2550 C2566 0.959 . S
H2551 C2566 0.959 . S
H2552 C2566 0.961 . S
H2553 C2567 0.960 . S
H2554 C2567 0.961 . S
H2555 C2567 0.959 . S
H2556 C2570 0.929 . S
H2557 C2571 0.931 . S
H2558 C2573 0.930 . S
C2559 H2547 0.930 . S
C2559 C2560 1.399 . S
C2559 C2564 1.399 . S
C2560 C2559 1.399 . S
C2560 C2561 1.376 1_545 S
C2561 H2548 0.930 . S
C2561 C2560 1.376 1_565 S
C2561 C2562 1.388 . S
C2562 H2549 0.930 . S
C2562 C2561 1.388 . S
C2562 C2563 1.390 . S
C2563 C2562 1.390 . S
C2563 C2564 1.394 1_565 S
C2563 C2569 1.465 . S
C2564 C2559 1.399 . S
C2564 C2563 1.394 1_545 S
C2564 C2565 1.516 . S
C2565 C2564 1.516 . S
C2565 C2566 1.502 . S
C2565 C2567 1.561 . S
C2565 C2568 1.526 . S
C2566 H2550 0.959 . S
C2566 H2551 0.959 . S
C2566 H2552 0.961 . S
C2566 C2565 1.502 . S
C2567 H2553 0.960 . S
C2567 H2554 0.961 . S
C2567 H2555 0.959 . S
C2567 C2565 1.561 . S
C2568 C2565 1.526 . S
C2568 C2569 1.396 1_545 S
C2568 C2573 1.390 . S
C2569 C2563 1.465 . S
C2569 C2568 1.396 1_565 S
C2569 C2570 1.399 . S
C2570 H2556 0.929 . S
C2570 C2569 1.399 . S
C2570 C2571 1.385 . S
C2571 H2557 0.931 . S
C2571 C2570 1.385 . S
C2571 C2572 1.406 . S
C2572 C2571 1.406 . S
C2572 C2573 1.379 1_565 S
C2573 H2558 0.930 . S
C2573 C2568 1.390 . S
C2573 C2572 1.379 1_545 S
H2574 C2586 0.930 . S
H2575 C2588 0.930 . S
H2576 C2589 0.930 . S
H2577 C2593 0.959 . S
H2578 C2593 0.959 . S
H2579 C2593 0.961 . S
H2580 C2594 0.960 . S
H2581 C2594 0.961 . S
H2582 C2594 0.959 1_455 S
H2583 C2597 0.929 . S
H2584 C2598 0.931 . S
H2585 C2600 0.930 . S
C2586 H2574 0.930 . S
C2586 C2587 1.399 . S
C2586 C2591 1.399 . S
C2587 C2586 1.399 . S
C2587 C2588 1.376 1_655 S
C2588 H2575 0.930 . S
C2588 C2587 1.376 1_455 S
C2588 C2589 1.388 . S
C2589 H2576 0.930 . S
C2589 C2588 1.388 . S
C2589 C2590 1.390 . S
C2590 C2589 1.390 . S
C2590 C2591 1.394 1_455 S
C2590 C2596 1.465 . S
C2591 C2586 1.399 . S
C2591 C2590 1.394 1_655 S
C2591 C2592 1.516 . S
C2592 C2591 1.516 . S
C2592 C2593 1.502 . S
C2592 C2594 1.561 . S
C2592 C2595 1.526 . S
C2593 H2577 0.959 . S
C2593 H2578 0.959 . S
C2593 H2579 0.961 . S
C2593 C2592 1.502 . S
C2594 H2580 0.960 . S
C2594 H2581 0.961 . S
C2594 H2582 0.959 1_655 S
C2594 C2592 1.561 . S
C2595 C2592 1.526 . S
C2595 C2596 1.396 1_655 S
C2595 C2600 1.390 . S
C2596 C2590 1.465 . S
C2596 C2595 1.396 1_455 S
C2596 C2597 1.399 . S
C2597 H2583 0.929 . S
C2597 C2596 1.399 . S
C2597 C2598 1.385 . S
C2598 H2584 0.931 . S
C2598 C2597 1.385 . S
C2598 C2599 1.389 1_455 S
C2599 C2598 1.389 1_655 S
C2599 C2600 1.387 . S
C2600 H2585 0.930 . S
C2600 C2595 1.390 . S
C2600 C2599 1.387 . S
H2601 C2613 0.930 . S
H2602 C2615 0.930 . S
H2603 C2616 0.930 . S
H2604 C2620 0.959 . S
H2605 C2620 0.959 . S
H2606 C2620 0.961 . S
H2607 C2621 0.960 . S
H2608 C2621 0.961 . S
H2609 C2621 0.959 . S
H2610 C2624 0.929 . S
H2611 C2625 0.931 . S
H2612 C2627 0.930 . S
C2613 H2601 0.930 . S
C2613 C2614 1.399 . S
C2613 C2618 1.399 . S
C2614 C2613 1.399 . S
C2614 C2615 1.376 . S
C2615 H2602 0.930 . S
C2615 C2614 1.376 . S
C2615 C2616 1.388 . S
C2616 H2603 0.930 . S
C2616 C2615 1.388 . S
C2616 C2617 1.390 . S
C2617 C2616 1.390 . S
C2617 C2618 1.394 . S
C2617 C2623 1.465 . S
C2618 C2613 1.399 . S
C2618 C2617 1.394 . S
C2618 C2619 1.516 . S
C2619 C2618 1.516 . S
C2619 C2620 1.502 . S
C2619 C2621 1.561 . S
C2619 C2622 1.526 . S
C2620 H2604 0.959 . S
C2620 H2605 0.959 . S
C2620 H2606 0.961 . S
C2620 C2619 1.502 . S
C2621 H2607 0.960 . S
C2621 H2608 0.961 . S
C2621 H2609 0.959 . S
C2621 C2619 1.561 . S
C2622 C2619 1.526 . S
C2622 C2623 1.396 . S
C2622 C2627 1.390 . S
C2623 C2617 1.465 . S
C2623 C2622 1.396 . S
C2623 C2624 1.399 . S
C2624 H2610 0.929 . S
C2624 C2623 1.399 . S
C2624 C2625 1.385 . S
C2625 H2611 0.931 . S
C2625 C2624 1.385 . S
C2625 C2626 1.389 . S
C2626 C2625 1.389 . S
C2626 C2627 1.387 . S
C2627 H2612 0.930 . S
C2627 C2622 1.390 . S
C2627 C2626 1.387 . S
H2628 C2640 0.930 . S
H2629 C2642 0.930 . S
H2630 C2643 0.930 . S
H2631 C2647 0.959 . S
H2632 C2647 0.959 . S
H2633 C2647 0.961 . S
H2634 C2648 0.960 . S
H2635 C2648 0.961 . S
H2636 C2648 0.959 . S
H2637 C2651 0.929 . S
H2638 C2652 0.931 . S
H2639 C2654 0.930 . S
C2640 H2628 0.930 . S
C2640 C2641 1.399 . S
C2640 C2645 1.399 . S
C2641 C2640 1.399 . S
C2641 C2642 1.376 . S
C2642 H2629 0.930 . S
C2642 C2641 1.376 . S
C2642 C2643 1.388 . S
C2643 H2630 0.930 . S
C2643 C2642 1.388 . S
C2643 C2644 1.390 . S
C2644 C2643 1.390 . S
C2644 C2645 1.394 . S
C2644 C2650 1.465 . S
C2645 C2640 1.399 . S
C2645 C2644 1.394 . S
C2645 C2646 1.516 . S
C2646 C2645 1.516 . S
C2646 C2647 1.502 . S
C2646 C2648 1.561 . S
C2646 C2649 1.526 . S
C2647 H2631 0.959 . S
C2647 H2632 0.959 . S
C2647 H2633 0.961 . S
C2647 C2646 1.502 . S
C2648 H2634 0.960 . S
C2648 H2635 0.961 . S
C2648 H2636 0.959 . S
C2648 C2646 1.561 . S
C2649 C2646 1.526 . S
C2649 C2650 1.396 . S
C2649 C2654 1.390 . S
C2650 C2644 1.465 . S
C2650 C2649 1.396 . S
C2650 C2651 1.399 . S
C2651 H2637 0.929 . S
C2651 C2650 1.399 . S
C2651 C2652 1.385 . S
C2652 H2638 0.931 . S
C2652 C2651 1.385 . S
C2652 C2653 1.389 . S
C2653 C2652 1.389 . S
C2653 C2654 1.387 . S
C2654 H2639 0.930 . S
C2654 C2649 1.390 . S
C2654 C2653 1.387 . S
H2655 C2667 0.930 . S
H2656 C2669 0.930 . S
H2657 C2670 0.930 . S
H2658 C2674 0.959 . S
H2659 C2674 0.959 . S
H2660 C2674 0.961 . S
H2661 C2675 0.960 . S
H2662 C2675 0.961 . S
H2663 C2675 0.959 . S
H2664 C2678 0.929 . S
H2665 C2679 0.931 . S
H2666 C2681 0.930 . S
C2667 H2655 0.930 . S
C2667 C2668 1.399 . S
C2667 C2672 1.399 . S
C2668 C2667 1.399 . S
C2668 C2669 1.376 . S
C2669 H2656 0.930 . S
C2669 C2668 1.376 . S
C2669 C2670 1.388 . S
C2670 H2657 0.930 . S
C2670 C2669 1.388 . S
C2670 C2671 1.390 . S
C2671 C2670 1.390 . S
C2671 C2672 1.394 . S
C2671 C2677 1.465 . S
C2672 C2667 1.399 . S
C2672 C2671 1.394 . S
C2672 C2673 1.516 . S
C2673 C2672 1.516 . S
C2673 C2674 1.502 . S
C2673 C2675 1.561 . S
C2673 C2676 1.526 . S
C2674 H2658 0.959 . S
C2674 H2659 0.959 . S
C2674 H2660 0.961 . S
C2674 C2673 1.502 . S
C2675 H2661 0.960 . S
C2675 H2662 0.961 . S
C2675 H2663 0.959 . S
C2675 C2673 1.561 . S
C2676 C2673 1.526 . S
C2676 C2677 1.396 . S
C2676 C2681 1.390 . S
C2677 C2671 1.465 . S
C2677 C2676 1.396 . S
C2677 C2678 1.399 . S
C2678 H2664 0.929 . S
C2678 C2677 1.399 . S
C2678 C2679 1.385 . S
C2679 H2665 0.931 . S
C2679 C2678 1.385 . S
C2679 C2680 1.389 . S
C2680 C2679 1.389 . S
C2680 C2681 1.387 . S
C2681 H2666 0.930 . S
C2681 C2676 1.390 . S
C2681 C2680 1.387 . S
H2682 C2694 0.930 . S
H2683 C2696 0.930 . S
H2684 C2697 0.930 . S
H2685 C2701 0.959 . S
H2686 C2701 0.959 . S
H2687 C2701 0.961 . S
H2688 C2702 0.960 . S
H2689 C2702 0.961 . S
H2690 C2702 0.959 . S
H2691 C2705 0.929 . S
H2692 C2706 0.931 . S
H2693 C2708 0.930 . S
C2694 H2682 0.930 . S
C2694 C2695 1.399 . S
C2694 C2699 1.399 . S
C2695 C2694 1.399 . S
C2695 C2696 1.376 . S
C2696 H2683 0.930 . S
C2696 C2695 1.376 . S
C2696 C2697 1.388 . S
C2697 H2684 0.930 . S
C2697 C2696 1.388 . S
C2697 C2698 1.390 . S
C2698 C2697 1.390 . S
C2698 C2699 1.394 . S
C2698 C2704 1.465 . S
C2699 C2694 1.399 . S
C2699 C2698 1.394 . S
C2699 C2700 1.516 . S
C2700 C2699 1.516 . S
C2700 C2701 1.502 . S
C2700 C2702 1.561 . S
C2700 C2703 1.526 . S
C2701 H2685 0.959 . S
C2701 H2686 0.959 . S
C2701 H2687 0.961 . S
C2701 C2700 1.502 . S
C2702 H2688 0.960 . S
C2702 H2689 0.961 . S
C2702 H2690 0.959 . S
C2702 C2700 1.561 . S
C2703 C2700 1.526 . S
C2703 C2704 1.396 . S
C2703 C2708 1.390 . S
C2704 C2698 1.465 . S
C2704 C2703 1.396 . S
C2704 C2705 1.399 . S
C2705 H2691 0.929 . S
C2705 C2704 1.399 . S
C2705 C2706 1.385 . S
C2706 H2692 0.931 . S
C2706 C2705 1.385 . S
C2706 C2707 1.389 . S
C2707 C2706 1.389 . S
C2707 C2708 1.387 . S
C2708 H2693 0.930 . S
C2708 C2703 1.390 . S
C2708 C2707 1.387 . S
H2709 C2721 0.930 . S
H2710 C2723 0.930 . S
H2711 C2724 0.930 . S
H2712 C2728 0.959 . S
H2713 C2728 0.959 . S
H2714 C2728 0.961 . S
H2715 C2729 0.960 . S
H2716 C2729 0.961 . S
H2717 C2729 0.959 . S
H2718 C2732 0.929 . S
H2719 C2733 0.931 . S
H2720 C2735 0.930 . S
C2721 H2709 0.930 . S
C2721 C2722 1.399 . S
C2721 C2726 1.399 . S
C2722 C2721 1.399 . S
C2722 C2723 1.376 . S
C2723 H2710 0.930 . S
C2723 C2722 1.376 . S
C2723 C2724 1.388 . S
C2724 H2711 0.930 . S
C2724 C2723 1.388 . S
C2724 C2725 1.390 . S
C2725 C2724 1.390 . S
C2725 C2726 1.394 . S
C2725 C2731 1.465 . S
C2726 C2721 1.399 . S
C2726 C2725 1.394 . S
C2726 C2727 1.516 . S
C2727 C2726 1.516 . S
C2727 C2728 1.502 . S
C2727 C2729 1.561 . S
C2727 C2730 1.526 . S
C2728 H2712 0.959 . S
C2728 H2713 0.959 . S
C2728 H2714 0.961 . S
C2728 C2727 1.502 . S
C2729 H2715 0.960 . S
C2729 H2716 0.961 . S
C2729 H2717 0.959 . S
C2729 C2727 1.561 . S
C2730 C2727 1.526 . S
C2730 C2731 1.396 . S
C2730 C2735 1.390 . S
C2731 C2725 1.465 . S
C2731 C2730 1.396 . S
C2731 C2732 1.399 . S
C2732 H2718 0.929 . S
C2732 C2731 1.399 . S
C2732 C2733 1.385 . S
C2733 H2719 0.931 . S
C2733 C2732 1.385 . S
C2733 C2734 1.389 . S
C2734 C2733 1.389 . S
C2734 C2735 1.387 . S
C2735 H2720 0.930 . S
C2735 C2730 1.390 . S
C2735 C2734 1.387 . S
H2736 C2748 0.930 . S
H2737 C2750 0.930 . S
H2738 C2751 0.930 . S
H2739 C2755 0.959 . S
H2740 C2755 0.959 . S
H2741 C2755 0.961 . S
H2742 C2756 0.960 . S
H2743 C2756 0.961 . S
H2744 C2756 0.959 . S
H2745 C2759 0.929 . S
H2746 C2760 0.931 . S
H2747 C2762 0.930 . S
C2748 H2736 0.930 . S
C2748 C2749 1.399 . S
C2748 C2753 1.399 . S
C2749 C2748 1.399 . S
C2749 C2750 1.376 . S
C2750 H2737 0.930 . S
C2750 C2749 1.376 . S
C2750 C2751 1.388 . S
C2751 H2738 0.930 . S
C2751 C2750 1.388 . S
C2751 C2752 1.390 . S
C2752 C2751 1.390 . S
C2752 C2753 1.394 . S
C2752 C2758 1.465 . S
C2753 C2748 1.399 . S
C2753 C2752 1.394 . S
C2753 C2754 1.516 . S
C2754 C2753 1.516 . S
C2754 C2755 1.502 . S
C2754 C2756 1.561 . S
C2754 C2757 1.526 . S
C2755 H2739 0.959 . S
C2755 H2740 0.959 . S
C2755 H2741 0.961 . S
C2755 C2754 1.502 . S
C2756 H2742 0.960 . S
C2756 H2743 0.961 . S
C2756 H2744 0.959 . S
C2756 C2754 1.561 . S
C2757 C2754 1.526 . S
C2757 C2758 1.396 . S
C2757 C2762 1.390 . S
C2758 C2752 1.465 . S
C2758 C2757 1.396 . S
C2758 C2759 1.399 . S
C2759 H2745 0.929 . S
C2759 C2758 1.399 . S
C2759 C2760 1.385 . S
C2760 H2746 0.931 . S
C2760 C2759 1.385 . S
C2760 C2761 1.389 . S
C2761 C2760 1.389 . S
C2761 C2762 1.387 . S
C2762 H2747 0.930 . S
C2762 C2757 1.390 . S
C2762 C2761 1.387 . S
H2763 C2775 0.930 . S
H2764 C2777 0.930 . S
H2765 C2778 0.930 . S
H2766 C2782 0.959 . S
H2767 C2782 0.959 . S
H2768 C2782 0.961 . S
H2769 C2783 0.960 . S
H2770 C2783 0.961 . S
H2771 C2783 0.959 . S
H2772 C2786 0.929 . S
H2773 C2787 0.931 . S
H2774 C2789 0.930 . S
C2775 H2763 0.930 . S
C2775 C2776 1.399 . S
C2775 C2780 1.399 . S
C2776 C2775 1.399 . S
C2776 C2777 1.376 . S
C2777 H2764 0.930 . S
C2777 C2776 1.376 . S
C2777 C2778 1.388 . S
C2778 H2765 0.930 . S
C2778 C2777 1.388 . S
C2778 C2779 1.390 . S
C2779 C2778 1.390 . S
C2779 C2780 1.394 . S
C2779 C2785 1.465 . S
C2780 C2775 1.399 . S
C2780 C2779 1.394 . S
C2780 C2781 1.516 . S
C2781 C2780 1.516 . S
C2781 C2782 1.502 . S
C2781 C2783 1.561 . S
C2781 C2784 1.526 . S
C2782 H2766 0.959 . S
C2782 H2767 0.959 . S
C2782 H2768 0.961 . S
C2782 C2781 1.502 . S
C2783 H2769 0.960 . S
C2783 H2770 0.961 . S
C2783 H2771 0.959 . S
C2783 C2781 1.561 . S
C2784 C2781 1.526 . S
C2784 C2785 1.396 . S
C2784 C2789 1.390 . S
C2785 C2779 1.465 . S
C2785 C2784 1.396 . S
C2785 C2786 1.399 . S
C2786 H2772 0.929 . S
C2786 C2785 1.399 . S
C2786 C2787 1.385 . S
C2787 H2773 0.931 . S
C2787 C2786 1.385 . S
C2787 C2788 1.389 . S
C2788 C2787 1.389 . S
C2788 C2789 1.387 . S
C2789 H2774 0.930 . S
C2789 C2784 1.390 . S
C2789 C2788 1.387 . S
H2790 C2802 0.930 . S
H2791 C2804 0.930 . S
H2792 C2805 0.930 . S
H2793 C2809 0.959 . S
H2794 C2809 0.959 . S
H2795 C2809 0.961 . S
H2796 C2810 0.960 . S
H2797 C2810 0.961 . S
H2798 C2810 0.959 . S
H2799 C2813 0.929 . S
H2800 C2814 0.931 . S
H2801 C2816 0.930 . S
C2802 H2790 0.930 . S
C2802 C2803 1.399 . S
C2802 C2807 1.399 . S
C2803 C2802 1.399 . S
C2803 C2804 1.376 . S
C2804 H2791 0.930 . S
C2804 C2803 1.376 . S
C2804 C2805 1.388 . S
C2805 H2792 0.930 . S
C2805 C2804 1.388 . S
C2805 C2806 1.390 . S
C2806 C2805 1.390 . S
C2806 C2807 1.394 . S
C2806 C2812 1.465 . S
C2807 C2802 1.399 . S
C2807 C2806 1.394 . S
C2807 C2808 1.516 . S
C2808 C2807 1.516 . S
C2808 C2809 1.502 . S
C2808 C2810 1.561 . S
C2808 C2811 1.526 . S
C2809 H2793 0.959 . S
C2809 H2794 0.959 . S
C2809 H2795 0.961 . S
C2809 C2808 1.502 . S
C2810 H2796 0.960 . S
C2810 H2797 0.961 . S
C2810 H2798 0.959 . S
C2810 C2808 1.561 . S
C2811 C2808 1.526 . S
C2811 C2812 1.396 . S
C2811 C2816 1.390 . S
C2812 C2806 1.465 . S
C2812 C2811 1.396 . S
C2812 C2813 1.399 . S
C2813 H2799 0.929 . S
C2813 C2812 1.399 . S
C2813 C2814 1.385 . S
C2814 H2800 0.931 . S
C2814 C2813 1.385 . S
C2814 C2815 1.389 . S
C2815 C2814 1.389 . S
C2815 C2816 1.387 . S
C2816 H2801 0.930 . S
C2816 C2811 1.390 . S
C2816 C2815 1.387 . S
H2817 C2829 0.930 . S
H2818 C2831 0.930 . S
H2819 C2832 0.930 . S
H2820 C2836 0.959 . S
H2821 C2836 0.959 . S
H2822 C2836 0.961 . S
H2823 C2837 0.960 . S
H2824 C2837 0.961 . S
H2825 C2837 0.959 . S
H2826 C2840 0.929 . S
H2827 C2841 0.931 . S
H2828 C2843 0.930 . S
C2829 H2817 0.930 . S
C2829 C2830 1.399 . S
C2829 C2834 1.399 . S
C2830 C2829 1.399 . S
C2830 C2831 1.376 . S
C2831 H2818 0.930 . S
C2831 C2830 1.376 . S
C2831 C2832 1.388 . S
C2832 H2819 0.930 . S
C2832 C2831 1.388 . S
C2832 C2833 1.390 . S
C2833 C2832 1.390 . S
C2833 C2834 1.394 . S
C2833 C2839 1.465 . S
C2834 C2829 1.399 . S
C2834 C2833 1.394 . S
C2834 C2835 1.516 . S
C2835 C2834 1.516 . S
C2835 C2836 1.502 . S
C2835 C2837 1.561 . S
C2835 C2838 1.526 . S
C2836 H2820 0.959 . S
C2836 H2821 0.959 . S
C2836 H2822 0.961 . S
C2836 C2835 1.502 . S
C2837 H2823 0.960 . S
C2837 H2824 0.961 . S
C2837 H2825 0.959 . S
C2837 C2835 1.561 . S
C2838 C2835 1.526 . S
C2838 C2839 1.396 . S
C2838 C2843 1.390 . S
C2839 C2833 1.465 . S
C2839 C2838 1.396 . S
C2839 C2840 1.399 . S
C2840 H2826 0.929 . S
C2840 C2839 1.399 . S
C2840 C2841 1.385 . S
C2841 H2827 0.931 . S
C2841 C2840 1.385 . S
C2841 C2842 1.389 . S
C2842 C2841 1.389 . S
C2842 C2843 1.387 . S
C2843 H2828 0.930 . S
C2843 C2838 1.390 . S
C2843 C2842 1.387 . S
H2844 C2856 0.930 . S
H2845 C2858 0.930 . S
H2846 C2859 0.930 . S
H2847 C2863 0.959 . S
H2848 C2863 0.959 . S
H2849 C2863 0.961 . S
H2850 C2864 0.960 . S
H2851 C2864 0.961 . S
H2852 C2864 0.959 . S
H2853 C2867 0.929 . S
H2854 C2868 0.931 . S
H2855 C2870 0.930 . S
C2856 H2844 0.930 . S
C2856 C2857 1.399 . S
C2856 C2861 1.399 . S
C2857 C2856 1.399 . S
C2857 C2858 1.376 . S
C2858 H2845 0.930 . S
C2858 C2857 1.376 . S
C2858 C2859 1.388 . S
C2859 H2846 0.930 . S
C2859 C2858 1.388 . S
C2859 C2860 1.390 . S
C2860 C2859 1.390 . S
C2860 C2861 1.394 . S
C2860 C2866 1.465 . S
C2861 C2856 1.399 . S
C2861 C2860 1.394 . S
C2861 C2862 1.516 . S
C2862 C2861 1.516 . S
C2862 C2863 1.502 . S
C2862 C2864 1.561 . S
C2862 C2865 1.526 . S
C2863 H2847 0.959 . S
C2863 H2848 0.959 . S
C2863 H2849 0.961 . S
C2863 C2862 1.502 . S
C2864 H2850 0.960 . S
C2864 H2851 0.961 . S
C2864 H2852 0.959 . S
C2864 C2862 1.561 . S
C2865 C2862 1.526 . S
C2865 C2866 1.396 . S
C2865 C2870 1.390 . S
C2866 C2860 1.465 . S
C2866 C2865 1.396 . S
C2866 C2867 1.399 . S
C2867 H2853 0.929 . S
C2867 C2866 1.399 . S
C2867 C2868 1.385 . S
C2868 H2854 0.931 . S
C2868 C2867 1.385 . S
C2868 C2869 1.389 . S
C2869 C2868 1.389 . S
C2869 C2870 1.387 . S
C2870 H2855 0.930 . S
C2870 C2865 1.390 . S
C2870 C2869 1.387 . S
H2871 C2883 0.930 . S
H2872 C2885 0.930 . S
H2873 C2886 0.930 . S
H2874 C2890 0.959 . S
H2875 C2890 0.959 . S
H2876 C2890 0.961 . S
H2877 C2891 0.960 . S
H2878 C2891 0.961 . S
H2879 C2891 0.959 . S
H2880 C2894 0.929 . S
H2881 C2895 0.931 . S
H2882 C2897 0.930 . S
C2883 H2871 0.930 . S
C2883 C2884 1.399 . S
C2883 C2888 1.399 . S
C2884 C2883 1.399 . S
C2884 C2885 1.376 . S
C2885 H2872 0.930 . S
C2885 C2884 1.376 . S
C2885 C2886 1.388 . S
C2886 H2873 0.930 . S
C2886 C2885 1.388 . S
C2886 C2887 1.390 . S
C2887 C2886 1.390 . S
C2887 C2888 1.394 . S
C2887 C2893 1.465 . S
C2888 C2883 1.399 . S
C2888 C2887 1.394 . S
C2888 C2889 1.516 . S
C2889 C2888 1.516 . S
C2889 C2890 1.502 . S
C2889 C2891 1.561 . S
C2889 C2892 1.526 . S
C2890 H2874 0.959 . S
C2890 H2875 0.959 . S
C2890 H2876 0.961 . S
C2890 C2889 1.502 . S
C2891 H2877 0.960 . S
C2891 H2878 0.961 . S
C2891 H2879 0.959 . S
C2891 C2889 1.561 . S
C2892 C2889 1.526 . S
C2892 C2893 1.396 . S
C2892 C2897 1.390 . S
C2893 C2887 1.465 . S
C2893 C2892 1.396 . S
C2893 C2894 1.399 . S
C2894 H2880 0.929 . S
C2894 C2893 1.399 . S
C2894 C2895 1.385 . S
C2895 H2881 0.931 . S
C2895 C2894 1.385 . S
C2895 C2896 1.389 . S
C2896 C2895 1.389 . S
C2896 C2897 1.387 . S
C2897 H2882 0.930 . S
C2897 C2892 1.390 . S
C2897 C2896 1.387 . S
H2898 C2910 0.930 . S
H2899 C2912 0.930 . S
H2900 C2913 0.930 . S
H2901 C2917 0.959 . S
H2902 C2917 0.959 . S
H2903 C2917 0.961 . S
H2904 C2918 0.960 . S
H2905 C2918 0.961 . S
H2906 C2918 0.959 . S
H2907 C2921 0.929 . S
H2908 C2922 0.931 . S
H2909 C2924 0.930 . S
C2910 H2898 0.930 . S
C2910 C2911 1.399 . S
C2910 C2915 1.399 . S
C2911 C2910 1.399 . S
C2911 C2912 1.376 . S
C2912 H2899 0.930 . S
C2912 C2911 1.376 . S
C2912 C2913 1.388 . S
C2913 H2900 0.930 . S
C2913 C2912 1.388 . S
C2913 C2914 1.390 . S
C2914 C2913 1.390 . S
C2914 C2915 1.394 . S
C2914 C2920 1.465 . S
C2915 C2910 1.399 . S
C2915 C2914 1.394 . S
C2915 C2916 1.516 . S
C2916 C2915 1.516 . S
C2916 C2917 1.502 . S
C2916 C2918 1.561 . S
C2916 C2919 1.526 . S
C2917 H2901 0.959 . S
C2917 H2902 0.959 . S
C2917 H2903 0.961 . S
C2917 C2916 1.502 . S
C2918 H2904 0.960 . S
C2918 H2905 0.961 . S
C2918 H2906 0.959 . S
C2918 C2916 1.561 . S
C2919 C2916 1.526 . S
C2919 C2920 1.396 . S
C2919 C2924 1.390 . S
C2920 C2914 1.465 . S
C2920 C2919 1.396 . S
C2920 C2921 1.399 . S
C2921 H2907 0.929 . S
C2921 C2920 1.399 . S
C2921 C2922 1.385 . S
C2922 H2908 0.931 . S
C2922 C2921 1.385 . S
C2922 C2923 1.389 . S
C2923 C2922 1.389 . S
C2923 C2924 1.387 . S
C2924 H2909 0.930 . S
C2924 C2919 1.390 . S
C2924 C2923 1.387 . S
H2925 C2937 0.930 . S
H2926 C2939 0.930 . S
H2927 C2940 0.930 . S
H2928 C2944 0.959 . S
H2929 C2944 0.959 . S
H2930 C2944 0.961 . S
H2931 C2945 0.960 . S
H2932 C2945 0.961 . S
H2933 C2945 0.959 . S
H2934 C2948 0.929 . S
H2935 C2949 0.931 . S
H2936 C2951 0.930 . S
C2937 H2925 0.930 . S
C2937 C2938 1.399 . S
C2937 C2942 1.399 . S
C2938 C2937 1.399 . S
C2938 C2939 1.376 . S
C2939 H2926 0.930 . S
C2939 C2938 1.376 . S
C2939 C2940 1.388 . S
C2940 H2927 0.930 . S
C2940 C2939 1.388 . S
C2940 C2941 1.390 . S
C2941 C2940 1.390 . S
C2941 C2942 1.394 . S
C2941 C2947 1.465 . S
C2942 C2937 1.399 . S
C2942 C2941 1.394 . S
C2942 C2943 1.516 . S
C2943 C2942 1.516 . S
C2943 C2944 1.502 . S
C2943 C2945 1.561 . S
C2943 C2946 1.526 . S
C2944 H2928 0.959 . S
C2944 H2929 0.959 . S
C2944 H2930 0.961 . S
C2944 C2943 1.502 . S
C2945 H2931 0.960 . S
C2945 H2932 0.961 . S
C2945 H2933 0.959 . S
C2945 C2943 1.561 . S
C2946 C2943 1.526 . S
C2946 C2947 1.396 . S
C2946 C2951 1.390 . S
C2947 C2941 1.465 . S
C2947 C2946 1.396 . S
C2947 C2948 1.399 . S
C2948 H2934 0.929 . S
C2948 C2947 1.399 . S
C2948 C2949 1.385 . S
C2949 H2935 0.931 . S
C2949 C2948 1.385 . S
C2949 C2950 1.389 . S
C2950 C2949 1.389 . S
C2950 C2951 1.387 . S
C2951 H2936 0.930 . S
C2951 C2946 1.390 . S
C2951 C2950 1.387 . S
H2952 C2964 0.930 . S
H2953 C2966 0.930 . S
H2954 C2967 0.930 . S
H2955 C2971 0.959 . S
H2956 C2971 0.959 . S
H2957 C2971 0.961 . S
H2958 C2972 0.960 . S
H2959 C2972 0.961 . S
H2960 C2972 0.959 . S
H2961 C2975 0.929 . S
H2962 C2976 0.931 . S
H2963 C2978 0.930 . S
C2964 H2952 0.930 . S
C2964 C2965 1.399 . S
C2964 C2969 1.399 . S
C2965 C2964 1.399 . S
C2965 C2966 1.376 . S
C2966 H2953 0.930 . S
C2966 C2965 1.376 . S
C2966 C2967 1.388 . S
C2967 H2954 0.930 . S
C2967 C2966 1.388 . S
C2967 C2968 1.390 . S
C2968 C2967 1.390 . S
C2968 C2969 1.394 . S
C2968 C2974 1.465 . S
C2969 C2964 1.399 . S
C2969 C2968 1.394 . S
C2969 C2970 1.516 . S
C2970 C2969 1.516 . S
C2970 C2971 1.502 . S
C2970 C2972 1.561 . S
C2970 C2973 1.526 . S
C2971 H2955 0.959 . S
C2971 H2956 0.959 . S
C2971 H2957 0.961 . S
C2971 C2970 1.502 . S
C2972 H2958 0.960 . S
C2972 H2959 0.961 . S
C2972 H2960 0.959 . S
C2972 C2970 1.561 . S
C2973 C2970 1.526 . S
C2973 C2974 1.396 . S
C2973 C2978 1.390 . S
C2974 C2968 1.465 . S
C2974 C2973 1.396 . S
C2974 C2975 1.399 . S
C2975 H2961 0.929 . S
C2975 C2974 1.399 . S
C2975 C2976 1.385 . S
C2976 H2962 0.931 . S
C2976 C2975 1.385 . S
C2976 C2977 1.389 . S
C2977 C2976 1.389 . S
C2977 C2978 1.387 . S
C2978 H2963 0.930 . S
C2978 C2973 1.390 . S
C2978 C2977 1.387 . S
H2979 C2991 0.930 . S
H2980 C2993 0.930 . S
H2981 C2994 0.930 . S
H2982 C2998 0.959 . S
H2983 C2998 0.959 . S
H2984 C2998 0.961 . S
H2985 C2999 0.960 . S
H2986 C2999 0.961 . S
H2987 C2999 0.959 . S
H2988 C3002 0.929 . S
H2989 C3003 0.931 . S
H2990 C3005 0.930 . S
C2991 H2979 0.930 . S
C2991 C2992 1.399 . S
C2991 C2996 1.399 . S
C2992 C2991 1.399 . S
C2992 C2993 1.376 . S
C2993 H2980 0.930 . S
C2993 C2992 1.376 . S
C2993 C2994 1.388 . S
C2994 H2981 0.930 . S
C2994 C2993 1.388 . S
C2994 C2995 1.390 . S
C2995 C2994 1.390 . S
C2995 C2996 1.394 . S
C2995 C3001 1.465 . S
C2996 C2991 1.399 . S
C2996 C2995 1.394 . S
C2996 C2997 1.516 . S
C2997 C2996 1.516 . S
C2997 C2998 1.502 . S
C2997 C2999 1.561 . S
C2997 C3000 1.526 . S
C2998 H2982 0.959 . S
C2998 H2983 0.959 . S
C2998 H2984 0.961 . S
C2998 C2997 1.502 . S
C2999 H2985 0.960 . S
C2999 H2986 0.961 . S
C2999 H2987 0.959 . S
C2999 C2997 1.561 . S
C3000 C2997 1.526 . S
C3000 C3001 1.396 . S
C3000 C3005 1.390 . S
C3001 C2995 1.465 . S
C3001 C3000 1.396 . S
C3001 C3002 1.399 . S
C3002 H2988 0.929 . S
C3002 C3001 1.399 . S
C3002 C3003 1.385 . S
C3003 H2989 0.931 . S
C3003 C3002 1.385 . S
C3003 C3004 1.389 . S
C3004 C3003 1.389 . S
C3004 C3005 1.387 . S
C3005 H2990 0.930 . S
C3005 C3000 1.390 . S
C3005 C3004 1.387 . S
H3006 C3018 0.930 . S
H3007 C3020 0.930 . S
H3008 C3021 0.930 . S
H3009 C3025 0.959 . S
H3010 C3025 0.959 . S
H3011 C3025 0.961 . S
H3012 C3026 0.960 . S
H3013 C3026 0.961 . S
H3014 C3026 0.959 . S
H3015 C3029 0.929 . S
H3016 C3030 0.931 . S
H3017 C3032 0.930 . S
C3018 H3006 0.930 . S
C3018 C3019 1.399 . S
C3018 C3023 1.399 . S
C3019 C3018 1.399 . S
C3019 C3020 1.376 . S
C3020 H3007 0.930 . S
C3020 C3019 1.376 . S
C3020 C3021 1.388 . S
C3021 H3008 0.930 . S
C3021 C3020 1.388 . S
C3021 C3022 1.390 . S
C3022 C3021 1.390 . S
C3022 C3023 1.394 . S
C3022 C3028 1.465 . S
C3023 C3018 1.399 . S
C3023 C3022 1.394 . S
C3023 C3024 1.516 . S
C3024 C3023 1.516 . S
C3024 C3025 1.502 . S
C3024 C3026 1.561 . S
C3024 C3027 1.526 . S
C3025 H3009 0.959 . S
C3025 H3010 0.959 . S
C3025 H3011 0.961 . S
C3025 C3024 1.502 . S
C3026 H3012 0.960 . S
C3026 H3013 0.961 . S
C3026 H3014 0.959 . S
C3026 C3024 1.561 . S
C3027 C3024 1.526 . S
C3027 C3028 1.396 . S
C3027 C3032 1.390 . S
C3028 C3022 1.465 . S
C3028 C3027 1.396 . S
C3028 C3029 1.399 . S
C3029 H3015 0.929 . S
C3029 C3028 1.399 . S
C3029 C3030 1.385 . S
C3030 H3016 0.931 . S
C3030 C3029 1.385 . S
C3030 C3031 1.389 . S
C3031 C3030 1.389 . S
C3031 C3032 1.387 . S
C3032 H3017 0.930 . S
C3032 C3027 1.390 . S
C3032 C3031 1.387 . S
H3033 C3045 0.930 . S
H3034 C3047 0.930 . S
H3035 C3048 0.930 . S
H3036 C3052 0.959 . S
H3037 C3052 0.959 . S
H3038 C3052 0.961 . S
H3039 C3053 0.960 . S
H3040 C3053 0.961 . S
H3041 C3053 0.959 . S
H3042 C3056 0.929 . S
H3043 C3057 0.931 . S
H3044 C3059 0.930 . S
C3045 H3033 0.930 . S
C3045 C3046 1.399 . S
C3045 C3050 1.399 . S
C3046 C3045 1.399 . S
C3046 C3047 1.376 . S
C3047 H3034 0.930 . S
C3047 C3046 1.376 . S
C3047 C3048 1.388 . S
C3048 H3035 0.930 . S
C3048 C3047 1.388 . S
C3048 C3049 1.390 . S
C3049 C3048 1.390 . S
C3049 C3050 1.394 . S
C3049 C3055 1.465 . S
C3050 C3045 1.399 . S
C3050 C3049 1.394 . S
C3050 C3051 1.516 . S
C3051 C3050 1.516 . S
C3051 C3052 1.502 . S
C3051 C3053 1.561 . S
C3051 C3054 1.526 . S
C3052 H3036 0.959 . S
C3052 H3037 0.959 . S
C3052 H3038 0.961 . S
C3052 C3051 1.502 . S
C3053 H3039 0.960 . S
C3053 H3040 0.961 . S
C3053 H3041 0.959 . S
C3053 C3051 1.561 . S
C3054 C3051 1.526 . S
C3054 C3055 1.396 . S
C3054 C3059 1.390 . S
C3055 C3049 1.465 . S
C3055 C3054 1.396 . S
C3055 C3056 1.399 . S
C3056 H3042 0.929 . S
C3056 C3055 1.399 . S
C3056 C3057 1.385 . S
C3057 H3043 0.931 . S
C3057 C3056 1.385 . S
C3057 C3058 1.389 . S
C3058 C3057 1.389 . S
C3058 C3059 1.387 . S
C3059 H3044 0.930 . S
C3059 C3054 1.390 . S
C3059 C3058 1.387 . S
H3060 C3072 0.930 . S
H3061 C3074 0.930 . S
H3062 C3075 0.930 . S
H3063 C3079 0.959 . S
H3064 C3079 0.959 . S
H3065 C3079 0.961 . S
H3066 C3080 0.960 . S
H3067 C3080 0.961 . S
H3068 C3080 0.959 . S
H3069 C3083 0.929 . S
H3070 C3084 0.931 . S
H3071 C3086 0.930 . S
C3072 H3060 0.930 . S
C3072 C3073 1.399 . S
C3072 C3077 1.399 . S
C3073 C3072 1.399 . S
C3073 C3074 1.376 . S
C3074 H3061 0.930 . S
C3074 C3073 1.376 . S
C3074 C3075 1.388 . S
C3075 H3062 0.930 . S
C3075 C3074 1.388 . S
C3075 C3076 1.390 . S
C3076 C3075 1.390 . S
C3076 C3077 1.394 . S
C3076 C3082 1.465 . S
C3077 C3072 1.399 . S
C3077 C3076 1.394 . S
C3077 C3078 1.516 . S
C3078 C3077 1.516 . S
C3078 C3079 1.502 . S
C3078 C3080 1.561 . S
C3078 C3081 1.526 . S
C3079 H3063 0.959 . S
C3079 H3064 0.959 . S
C3079 H3065 0.961 . S
C3079 C3078 1.502 . S
C3080 H3066 0.960 . S
C3080 H3067 0.961 . S
C3080 H3068 0.959 . S
C3080 C3078 1.561 . S
C3081 C3078 1.526 . S
C3081 C3082 1.396 . S
C3081 C3086 1.390 . S
C3082 C3076 1.465 . S
C3082 C3081 1.396 . S
C3082 C3083 1.399 . S
C3083 H3069 0.929 . S
C3083 C3082 1.399 . S
C3083 C3084 1.385 . S
C3084 H3070 0.931 . S
C3084 C3083 1.385 . S
C3084 C3085 1.389 . S
C3085 C3084 1.389 . S
C3085 C3086 1.387 . S
C3086 H3071 0.930 . S
C3086 C3081 1.390 . S
C3086 C3085 1.387 . S
H3087 C3099 0.930 . S
H3088 C3101 0.930 . S
H3089 C3102 0.930 . S
H3090 C3106 0.959 . S
H3091 C3106 0.959 . S
H3092 C3106 0.961 . S
H3093 C3107 0.960 . S
H3094 C3107 0.961 . S
H3095 C3107 0.959 . S
H3096 C3110 0.929 . S
H3097 C3111 0.931 . S
H3098 C3113 0.930 . S
C3099 H3087 0.930 . S
C3099 C3100 1.399 . S
C3099 C3104 1.399 . S
C3100 C3099 1.399 . S
C3100 C3101 1.376 . S
C3101 H3088 0.930 . S
C3101 C3100 1.376 . S
C3101 C3102 1.388 . S
C3102 H3089 0.930 . S
C3102 C3101 1.388 . S
C3102 C3103 1.390 . S
C3103 C3102 1.390 . S
C3103 C3104 1.394 . S
C3103 C3109 1.465 . S
C3104 C3099 1.399 . S
C3104 C3103 1.394 . S
C3104 C3105 1.516 . S
C3105 C3104 1.516 . S
C3105 C3106 1.502 . S
C3105 C3107 1.561 . S
C3105 C3108 1.526 . S
C3106 H3090 0.959 . S
C3106 H3091 0.959 . S
C3106 H3092 0.961 . S
C3106 C3105 1.502 . S
C3107 H3093 0.960 . S
C3107 H3094 0.961 . S
C3107 H3095 0.959 . S
C3107 C3105 1.561 . S
C3108 C3105 1.526 . S
C3108 C3109 1.396 . S
C3108 C3113 1.390 . S
C3109 C3103 1.465 . S
C3109 C3108 1.396 . S
C3109 C3110 1.399 . S
C3110 H3096 0.929 . S
C3110 C3109 1.399 . S
C3110 C3111 1.385 . S
C3111 H3097 0.931 . S
C3111 C3110 1.385 . S
C3111 C3112 1.389 . S
C3112 C3111 1.389 . S
C3112 C3113 1.387 . S
C3113 H3098 0.930 . S
C3113 C3108 1.390 . S
C3113 C3112 1.387 . S
H3114 C3126 0.930 . S
H3115 C3128 0.930 . S
H3116 C3129 0.930 . S
H3117 C3133 0.959 . S
H3118 C3133 0.959 . S
H3119 C3133 0.961 . S
H3120 C3134 0.960 . S
H3121 C3134 0.961 . S
H3122 C3134 0.959 . S
H3123 C3137 0.929 . S
H3124 C3138 0.931 . S
H3125 C3140 0.930 . S
C3126 H3114 0.930 . S
C3126 C3127 1.399 . S
C3126 C3131 1.399 . S
C3127 C3126 1.399 . S
C3127 C3128 1.376 . S
C3128 H3115 0.930 . S
C3128 C3127 1.376 . S
C3128 C3129 1.388 . S
C3129 H3116 0.930 . S
C3129 C3128 1.388 . S
C3129 C3130 1.390 . S
C3130 C3129 1.390 . S
C3130 C3131 1.394 . S
C3130 C3136 1.465 . S
C3131 C3126 1.399 . S
C3131 C3130 1.394 . S
C3131 C3132 1.516 . S
C3132 C3131 1.516 . S
C3132 C3133 1.502 . S
C3132 C3134 1.561 . S
C3132 C3135 1.526 . S
C3133 H3117 0.959 . S
C3133 H3118 0.959 . S
C3133 H3119 0.961 . S
C3133 C3132 1.502 . S
C3134 H3120 0.960 . S
C3134 H3121 0.961 . S
C3134 H3122 0.959 . S
C3134 C3132 1.561 . S
C3135 C3132 1.526 . S
C3135 C3136 1.396 . S
C3135 C3140 1.390 . S
C3136 C3130 1.465 . S
C3136 C3135 1.396 . S
C3136 C3137 1.399 . S
C3137 H3123 0.929 . S
C3137 C3136 1.399 . S
C3137 C3138 1.385 . S
C3138 H3124 0.931 . S
C3138 C3137 1.385 . S
C3138 C3139 1.389 . S
C3139 C3138 1.389 . S
C3139 C3140 1.387 . S
C3140 H3125 0.930 . S
C3140 C3135 1.390 . S
C3140 C3139 1.387 . S
H3141 C3153 0.930 . S
H3142 C3155 0.930 . S
H3143 C3156 0.930 . S
H3144 C3160 0.959 . S
H3145 C3160 0.959 . S
H3146 C3160 0.961 . S
H3147 C3161 0.960 . S
H3148 C3161 0.961 . S
H3149 C3161 0.959 . S
H3150 C3164 0.929 . S
H3151 C3165 0.931 . S
H3152 C3167 0.930 . S
C3153 H3141 0.930 . S
C3153 C3154 1.399 . S
C3153 C3158 1.399 . S
C3154 C3153 1.399 . S
C3154 C3155 1.376 . S
C3155 H3142 0.930 . S
C3155 C3154 1.376 . S
C3155 C3156 1.388 . S
C3156 H3143 0.930 . S
C3156 C3155 1.388 . S
C3156 C3157 1.390 . S
C3157 C3156 1.390 . S
C3157 C3158 1.394 . S
C3157 C3163 1.465 . S
C3158 C3153 1.399 . S
C3158 C3157 1.394 . S
C3158 C3159 1.516 . S
C3159 C3158 1.516 . S
C3159 C3160 1.502 . S
C3159 C3161 1.561 . S
C3159 C3162 1.526 . S
C3160 H3144 0.959 . S
C3160 H3145 0.959 . S
C3160 H3146 0.961 . S
C3160 C3159 1.502 . S
C3161 H3147 0.960 . S
C3161 H3148 0.961 . S
C3161 H3149 0.959 . S
C3161 C3159 1.561 . S
C3162 C3159 1.526 . S
C3162 C3163 1.396 . S
C3162 C3167 1.390 . S
C3163 C3157 1.465 . S
C3163 C3162 1.396 . S
C3163 C3164 1.399 . S
C3164 H3150 0.929 . S
C3164 C3163 1.399 . S
C3164 C3165 1.385 . S
C3165 H3151 0.931 . S
C3165 C3164 1.385 . S
C3165 C3166 1.389 . S
C3166 C3165 1.389 . S
C3166 C3167 1.387 . S
C3167 H3152 0.930 . S
C3167 C3162 1.390 . S
C3167 C3166 1.387 . S
H3168 C3180 0.930 . S
H3169 C3182 0.930 . S
H3170 C3183 0.930 . S
H3171 C3187 0.959 . S
H3172 C3187 0.959 . S
H3173 C3187 0.961 . S
H3174 C3188 0.960 . S
H3175 C3188 0.961 . S
H3176 C3188 0.959 . S
H3177 C3191 0.929 . S
H3178 C3192 0.931 . S
H3179 C3194 0.930 . S
C3180 H3168 0.930 . S
C3180 C3181 1.399 . S
C3180 C3185 1.399 . S
C3181 C3180 1.399 . S
C3181 C3182 1.376 . S
C3182 H3169 0.930 . S
C3182 C3181 1.376 . S
C3182 C3183 1.388 . S
C3183 H3170 0.930 . S
C3183 C3182 1.388 . S
C3183 C3184 1.390 . S
C3184 C3183 1.390 . S
C3184 C3185 1.394 . S
C3184 C3190 1.465 . S
C3185 C3180 1.399 . S
C3185 C3184 1.394 . S
C3185 C3186 1.516 . S
C3186 C3185 1.516 . S
C3186 C3187 1.502 . S
C3186 C3188 1.561 . S
C3186 C3189 1.526 . S
C3187 H3171 0.959 . S
C3187 H3172 0.959 . S
C3187 H3173 0.961 . S
C3187 C3186 1.502 . S
C3188 H3174 0.960 . S
C3188 H3175 0.961 . S
C3188 H3176 0.959 . S
C3188 C3186 1.561 . S
C3189 C3186 1.526 . S
C3189 C3190 1.396 . S
C3189 C3194 1.390 . S
C3190 C3184 1.465 . S
C3190 C3189 1.396 . S
C3190 C3191 1.399 . S
C3191 H3177 0.929 . S
C3191 C3190 1.399 . S
C3191 C3192 1.385 . S
C3192 H3178 0.931 . S
C3192 C3191 1.385 . S
C3192 C3193 1.389 . S
C3193 C3192 1.389 . S
C3193 C3194 1.387 . S
C3194 H3179 0.930 . S
C3194 C3189 1.390 . S
C3194 C3193 1.387 . S
H3195 C3207 0.930 . S
H3196 C3209 0.930 . S
H3197 C3210 0.930 . S
H3198 C3214 0.959 . S
H3199 C3214 0.959 . S
H3200 C3214 0.961 . S
H3201 C3215 0.960 . S
H3202 C3215 0.961 . S
H3203 C3215 0.959 . S
H3204 C3218 0.929 . S
H3205 C3219 0.931 . S
H3206 C3221 0.930 . S
C3207 H3195 0.930 . S
C3207 C3208 1.399 . S
C3207 C3212 1.399 . S
C3208 C3207 1.399 . S
C3208 C3209 1.376 . S
C3209 H3196 0.930 . S
C3209 C3208 1.376 . S
C3209 C3210 1.388 . S
C3210 H3197 0.930 . S
C3210 C3209 1.388 . S
C3210 C3211 1.390 . S
C3211 C3210 1.390 . S
C3211 C3212 1.394 . S
C3211 C3217 1.465 . S
C3212 C3207 1.399 . S
C3212 C3211 1.394 . S
C3212 C3213 1.516 . S
C3213 C3212 1.516 . S
C3213 C3214 1.502 . S
C3213 C3215 1.561 . S
C3213 C3216 1.526 . S
C3214 H3198 0.959 . S
C3214 H3199 0.959 . S
C3214 H3200 0.961 . S
C3214 C3213 1.502 . S
C3215 H3201 0.960 . S
C3215 H3202 0.961 . S
C3215 H3203 0.959 . S
C3215 C3213 1.561 . S
C3216 C3213 1.526 . S
C3216 C3217 1.396 . S
C3216 C3221 1.390 . S
C3217 C3211 1.465 . S
C3217 C3216 1.396 . S
C3217 C3218 1.399 . S
C3218 H3204 0.929 . S
C3218 C3217 1.399 . S
C3218 C3219 1.385 . S
C3219 H3205 0.931 . S
C3219 C3218 1.385 . S
C3219 C3220 1.389 . S
C3220 C3219 1.389 . S
C3220 C3221 1.387 . S
C3221 H3206 0.930 . S
C3221 C3216 1.390 . S
C3221 C3220 1.387 . S
H3222 C3234 0.930 . S
H3223 C3236 0.930 . S
H3224 C3237 0.930 . S
H3225 C3241 0.959 . S
H3226 C3241 0.959 . S
H3227 C3241 0.961 . S
H3228 C3242 0.960 . S
H3229 C3242 0.961 . S
H3230 C3242 0.959 . S
H3231 C3245 0.929 . S
H3232 C3246 0.931 . S
H3233 C3248 0.930 . S
C3234 H3222 0.930 . S
C3234 C3235 1.399 . S
C3234 C3239 1.399 . S
C3235 C3234 1.399 . S
C3235 C3236 1.376 . S
C3236 H3223 0.930 . S
C3236 C3235 1.376 . S
C3236 C3237 1.388 . S
C3237 H3224 0.930 . S
C3237 C3236 1.388 . S
C3237 C3238 1.390 . S
C3238 C3237 1.390 . S
C3238 C3239 1.394 . S
C3238 C3244 1.465 . S
C3239 C3234 1.399 . S
C3239 C3238 1.394 . S
C3239 C3240 1.516 . S
C3240 C3239 1.516 . S
C3240 C3241 1.502 . S
C3240 C3242 1.561 . S
C3240 C3243 1.526 . S
C3241 H3225 0.959 . S
C3241 H3226 0.959 . S
C3241 H3227 0.961 . S
C3241 C3240 1.502 . S
C3242 H3228 0.960 . S
C3242 H3229 0.961 . S
C3242 H3230 0.959 . S
C3242 C3240 1.561 . S
C3243 C3240 1.526 . S
C3243 C3244 1.396 . S
C3243 C3248 1.390 . S
C3244 C3238 1.465 . S
C3244 C3243 1.396 . S
C3244 C3245 1.399 . S
C3245 H3231 0.929 . S
C3245 C3244 1.399 . S
C3245 C3246 1.385 . S
C3246 H3232 0.931 . S
C3246 C3245 1.385 . S
C3246 C3247 1.389 . S
C3247 C3246 1.389 . S
C3247 C3248 1.387 . S
C3248 H3233 0.930 . S
C3248 C3243 1.390 . S
C3248 C3247 1.387 . S
H3249 C3261 0.930 . S
H3250 C3263 0.930 . S
H3251 C3264 0.930 . S
H3252 C3268 0.959 . S
H3253 C3268 0.959 . S
H3254 C3268 0.961 . S
H3255 C3269 0.960 . S
H3256 C3269 0.961 . S
H3257 C3269 0.959 . S
H3258 C3272 0.929 . S
H3259 C3273 0.931 . S
H3260 C3275 0.930 . S
C3261 H3249 0.930 . S
C3261 C3262 1.399 . S
C3261 C3266 1.399 . S
C3262 C3261 1.399 . S
C3262 C3263 1.376 . S
C3263 H3250 0.930 . S
C3263 C3262 1.376 . S
C3263 C3264 1.388 . S
C3264 H3251 0.930 . S
C3264 C3263 1.388 . S
C3264 C3265 1.390 . S
C3265 C3264 1.390 . S
C3265 C3266 1.394 . S
C3265 C3271 1.465 . S
C3266 C3261 1.399 . S
C3266 C3265 1.394 . S
C3266 C3267 1.516 . S
C3267 C3266 1.516 . S
C3267 C3268 1.502 . S
C3267 C3269 1.561 . S
C3267 C3270 1.526 . S
C3268 H3252 0.959 . S
C3268 H3253 0.959 . S
C3268 H3254 0.961 . S
C3268 C3267 1.502 . S
C3269 H3255 0.960 . S
C3269 H3256 0.961 . S
C3269 H3257 0.959 . S
C3269 C3267 1.561 . S
C3270 C3267 1.526 . S
C3270 C3271 1.396 . S
C3270 C3275 1.390 . S
C3271 C3265 1.465 . S
C3271 C3270 1.396 . S
C3271 C3272 1.399 . S
C3272 H3258 0.929 . S
C3272 C3271 1.399 . S
C3272 C3273 1.385 . S
C3273 H3259 0.931 . S
C3273 C3272 1.385 . S
C3273 C3274 1.389 . S
C3274 C3273 1.389 . S
C3274 C3275 1.387 . S
C3275 H3260 0.930 . S
C3275 C3270 1.390 . S
C3275 C3274 1.387 . S
H3276 C3288 0.930 . S
H3277 C3290 0.930 . S
H3278 C3291 0.930 . S
H3279 C3295 0.959 . S
H3280 C3295 0.959 . S
H3281 C3295 0.961 . S
H3282 C3296 0.960 . S
H3283 C3296 0.961 . S
H3284 C3296 0.959 . S
H3285 C3299 0.929 . S
H3286 C3300 0.931 . S
H3287 C3302 0.930 . S
C3288 H3276 0.930 . S
C3288 C3289 1.399 . S
C3288 C3293 1.399 . S
C3289 C3288 1.399 . S
C3289 C3290 1.376 . S
C3290 H3277 0.930 . S
C3290 C3289 1.376 . S
C3290 C3291 1.388 . S
C3291 H3278 0.930 . S
C3291 C3290 1.388 . S
C3291 C3292 1.390 . S
C3292 C3291 1.390 . S
C3292 C3293 1.394 . S
C3292 C3298 1.465 . S
C3293 C3288 1.399 . S
C3293 C3292 1.394 . S
C3293 C3294 1.516 . S
C3294 C3293 1.516 . S
C3294 C3295 1.502 . S
C3294 C3296 1.561 . S
C3294 C3297 1.526 . S
C3295 H3279 0.959 . S
C3295 H3280 0.959 . S
C3295 H3281 0.961 . S
C3295 C3294 1.502 . S
C3296 H3282 0.960 . S
C3296 H3283 0.961 . S
C3296 H3284 0.959 . S
C3296 C3294 1.561 . S
C3297 C3294 1.526 . S
C3297 C3298 1.396 . S
C3297 C3302 1.390 . S
C3298 C3292 1.465 . S
C3298 C3297 1.396 . S
C3298 C3299 1.399 . S
C3299 H3285 0.929 . S
C3299 C3298 1.399 . S
C3299 C3300 1.385 . S
C3300 H3286 0.931 . S
C3300 C3299 1.385 . S
C3300 C3301 1.389 . S
C3301 C3300 1.389 . S
C3301 C3302 1.387 . S
C3302 H3287 0.930 . S
C3302 C3297 1.390 . S
C3302 C3301 1.387 . S
H3303 C3315 0.930 . S
H3304 C3317 0.930 . S
H3305 C3318 0.930 . S
H3306 C3322 0.959 . S
H3307 C3322 0.959 . S
H3308 C3322 0.961 . S
H3309 C3323 0.960 . S
H3310 C3323 0.961 . S
H3311 C3323 0.959 . S
H3312 C3326 0.929 . S
H3313 C3327 0.931 . S
H3314 C3329 0.930 . S
C3315 H3303 0.930 . S
C3315 C3316 1.399 . S
C3315 C3320 1.399 . S
C3316 C3315 1.399 . S
C3316 C3317 1.376 . S
C3317 H3304 0.930 . S
C3317 C3316 1.376 . S
C3317 C3318 1.388 . S
C3318 H3305 0.930 . S
C3318 C3317 1.388 . S
C3318 C3319 1.390 . S
C3319 C3318 1.390 . S
C3319 C3320 1.394 . S
C3319 C3325 1.465 . S
C3320 C3315 1.399 . S
C3320 C3319 1.394 . S
C3320 C3321 1.516 . S
C3321 C3320 1.516 . S
C3321 C3322 1.502 . S
C3321 C3323 1.561 . S
C3321 C3324 1.526 . S
C3322 H3306 0.959 . S
C3322 H3307 0.959 . S
C3322 H3308 0.961 . S
C3322 C3321 1.502 . S
C3323 H3309 0.960 . S
C3323 H3310 0.961 . S
C3323 H3311 0.959 . S
C3323 C3321 1.561 . S
C3324 C3321 1.526 . S
C3324 C3325 1.396 . S
C3324 C3329 1.390 . S
C3325 C3319 1.465 . S
C3325 C3324 1.396 . S
C3325 C3326 1.399 . S
C3326 H3312 0.929 . S
C3326 C3325 1.399 . S
C3326 C3327 1.385 . S
C3327 H3313 0.931 . S
C3327 C3326 1.385 . S
C3327 C3328 1.389 . S
C3328 C3327 1.389 . S
C3328 C3329 1.387 . S
C3329 H3314 0.930 . S
C3329 C3324 1.390 . S
C3329 C3328 1.387 . S
H3330 C3342 0.930 . S
H3331 C3344 0.930 . S
H3332 C3345 0.930 . S
H3333 C3349 0.959 . S
H3334 C3349 0.959 . S
H3335 C3349 0.961 . S
H3336 C3350 0.960 . S
H3337 C3350 0.961 . S
H3338 C3350 0.959 . S
H3339 C3353 0.929 . S
H3340 C3354 0.931 . S
H3341 C3356 0.930 . S
C3342 H3330 0.930 . S
C3342 C3343 1.399 . S
C3342 C3347 1.399 . S
C3343 C3342 1.399 . S
C3343 C3344 1.376 . S
C3344 H3331 0.930 . S
C3344 C3343 1.376 . S
C3344 C3345 1.388 . S
C3345 H3332 0.930 . S
C3345 C3344 1.388 . S
C3345 C3346 1.390 . S
C3346 C3345 1.390 . S
C3346 C3347 1.394 . S
C3346 C3352 1.465 . S
C3347 C3342 1.399 . S
C3347 C3346 1.394 . S
C3347 C3348 1.516 . S
C3348 C3347 1.516 . S
C3348 C3349 1.502 . S
C3348 C3350 1.561 . S
C3348 C3351 1.526 . S
C3349 H3333 0.959 . S
C3349 H3334 0.959 . S
C3349 H3335 0.961 . S
C3349 C3348 1.502 . S
C3350 H3336 0.960 . S
C3350 H3337 0.961 . S
C3350 H3338 0.959 . S
C3350 C3348 1.561 . S
C3351 C3348 1.526 . S
C3351 C3352 1.396 . S
C3351 C3356 1.390 . S
C3352 C3346 1.465 . S
C3352 C3351 1.396 . S
C3352 C3353 1.399 . S
C3353 H3339 0.929 . S
C3353 C3352 1.399 . S
C3353 C3354 1.385 . S
C3354 H3340 0.931 . S
C3354 C3353 1.385 . S
C3354 C3355 1.389 . S
C3355 C3354 1.389 . S
C3355 C3356 1.387 . S
C3356 H3341 0.930 . S
C3356 C3351 1.390 . S
C3356 C3355 1.387 . S
H3357 C3369 0.930 . S
H3358 C3371 0.930 . S
H3359 C3372 0.930 . S
H3360 C3376 0.959 . S
H3361 C3376 0.959 . S
H3362 C3376 0.961 . S
H3363 C3377 0.960 . S
H3364 C3377 0.961 . S
H3365 C3377 0.959 . S
H3366 C3380 0.929 . S
H3367 C3381 0.931 . S
H3368 C3383 0.930 . S
C3369 H3357 0.930 . S
C3369 C3370 1.399 . S
C3369 C3374 1.399 . S
C3370 C3369 1.399 . S
C3370 C3371 1.376 . S
C3371 H3358 0.930 . S
C3371 C3370 1.376 . S
C3371 C3372 1.388 . S
C3372 H3359 0.930 . S
C3372 C3371 1.388 . S
C3372 C3373 1.390 . S
C3373 C3372 1.390 . S
C3373 C3374 1.394 . S
C3373 C3379 1.465 . S
C3374 C3369 1.399 . S
C3374 C3373 1.394 . S
C3374 C3375 1.516 . S
C3375 C3374 1.516 . S
C3375 C3376 1.502 . S
C3375 C3377 1.561 . S
C3375 C3378 1.526 . S
C3376 H3360 0.959 . S
C3376 H3361 0.959 . S
C3376 H3362 0.961 . S
C3376 C3375 1.502 . S
C3377 H3363 0.960 . S
C3377 H3364 0.961 . S
C3377 H3365 0.959 . S
C3377 C3375 1.561 . S
C3378 C3375 1.526 . S
C3378 C3379 1.396 . S
C3378 C3383 1.390 . S
C3379 C3373 1.465 . S
C3379 C3378 1.396 . S
C3379 C3380 1.399 . S
C3380 H3366 0.929 . S
C3380 C3379 1.399 . S
C3380 C3381 1.385 . S
C3381 H3367 0.931 . S
C3381 C3380 1.385 . S
C3381 C3382 1.389 . S
C3382 C3381 1.389 . S
C3382 C3383 1.387 . S
C3383 H3368 0.930 . S
C3383 C3378 1.390 . S
C3383 C3382 1.387 . S
H3384 C3396 0.930 . S
H3385 C3398 0.930 1_554 S
H3386 C3399 0.930 . S
H3387 C3403 0.959 . S
H3388 C3403 0.959 . S
H3389 C3403 0.961 . S
H3390 C3404 0.960 . S
H3391 C3404 0.961 . S
H3392 C3404 0.959 . S
H3393 C3407 0.929 . S
H3394 C3408 0.931 . S
H3395 C3410 0.930 . S
C3396 H3384 0.930 . S
C3396 C3397 1.399 . S
C3396 C3401 1.399 . S
C3397 C3396 1.399 . S
C3397 C3398 1.376 . S
C3398 H3385 0.930 1_556 S
C3398 C3397 1.376 . S
C3398 C3399 1.388 . S
C3399 H3386 0.930 . S
C3399 C3398 1.388 . S
C3399 C3400 1.390 . S
C3400 C3399 1.390 . S
C3400 C3401 1.394 . S
C3400 C3406 1.465 . S
C3401 C3396 1.399 . S
C3401 C3400 1.394 . S
C3401 C3402 1.516 . S
C3402 C3401 1.516 . S
C3402 C3403 1.502 . S
C3402 C3404 1.561 . S
C3402 C3405 1.526 . S
C3403 H3387 0.959 . S
C3403 H3388 0.959 . S
C3403 H3389 0.961 . S
C3403 C3402 1.502 . S
C3404 H3390 0.960 . S
C3404 H3391 0.961 . S
C3404 H3392 0.959 . S
C3404 C3402 1.561 . S
C3405 C3402 1.526 . S
C3405 C3406 1.396 . S
C3405 C3410 1.390 . S
C3406 C3400 1.465 . S
C3406 C3405 1.396 . S
C3406 C3407 1.399 . S
C3407 H3393 0.929 . S
C3407 C3406 1.399 . S
C3407 C3408 1.385 . S
C3408 H3394 0.931 . S
C3408 C3407 1.385 . S
C3408 C3409 1.389 . S
C3409 C3408 1.389 . S
C3409 C3410 1.387 . S
C3410 H3395 0.930 . S
C3410 C3405 1.390 . S
C3410 C3409 1.387 . S
H3411 C3423 0.930 . S
H3412 C3425 0.930 . S
H3413 C3426 0.930 . S
H3414 C3430 0.959 . S
H3415 C3430 0.959 . S
H3416 C3430 0.961 . S
H3417 C3431 0.960 . S
H3418 C3431 0.961 . S
H3419 C3431 0.959 . S
H3420 C3434 0.929 . S
H3421 C3435 0.931 . S
H3422 C3437 0.930 . S
C3423 H3411 0.930 . S
C3423 C3424 1.399 . S
C3423 C3428 1.399 . S
C3424 C3423 1.399 . S
C3424 C3425 1.376 . S
C3425 H3412 0.930 . S
C3425 C3424 1.376 . S
C3425 C3426 1.388 . S
C3426 H3413 0.930 . S
C3426 C3425 1.388 . S
C3426 C3427 1.390 . S
C3427 C3426 1.390 . S
C3427 C3428 1.394 . S
C3427 C3433 1.465 . S
C3428 C3423 1.399 . S
C3428 C3427 1.394 . S
C3428 C3429 1.516 . S
C3429 C3428 1.516 . S
C3429 C3430 1.502 . S
C3429 C3431 1.561 . S
C3429 C3432 1.526 . S
C3430 H3414 0.959 . S
C3430 H3415 0.959 . S
C3430 H3416 0.961 . S
C3430 C3429 1.502 . S
C3431 H3417 0.960 . S
C3431 H3418 0.961 . S
C3431 H3419 0.959 . S
C3431 C3429 1.561 . S
C3432 C3429 1.526 . S
C3432 C3433 1.396 . S
C3432 C3437 1.390 . S
C3433 C3427 1.465 . S
C3433 C3432 1.396 . S
C3433 C3434 1.399 . S
C3434 H3420 0.929 . S
C3434 C3433 1.399 . S
C3434 C3435 1.385 . S
C3435 H3421 0.931 . S
C3435 C3434 1.385 . S
C3435 C3436 1.389 . S
C3436 C3435 1.389 . S
C3436 C3437 1.387 . S
C3437 H3422 0.930 . S
C3437 C3432 1.390 . S
C3437 C3436 1.387 . S
H3438 C3450 0.930 . S
H3439 C3452 0.930 . S
H3440 C3453 0.930 . S
H3441 C3457 0.959 . S
H3442 C3457 0.959 . S
H3443 C3457 0.961 . S
H3444 C3458 0.960 . S
H3445 C3458 0.961 . S
H3446 C3458 0.959 . S
H3447 C3461 0.929 . S
H3448 C3462 0.931 . S
H3449 C3464 0.930 . S
C3450 H3438 0.930 . S
C3450 C3451 1.399 . S
C3450 C3455 1.399 . S
C3451 C3450 1.399 . S
C3451 C3452 1.376 . S
C3452 H3439 0.930 . S
C3452 C3451 1.376 . S
C3452 C3453 1.388 . S
C3453 H3440 0.930 . S
C3453 C3452 1.388 . S
C3453 C3454 1.390 . S
C3454 C3453 1.390 . S
C3454 C3455 1.394 . S
C3454 C3460 1.465 . S
C3455 C3450 1.399 . S
C3455 C3454 1.394 . S
C3455 C3456 1.516 . S
C3456 C3455 1.516 . S
C3456 C3457 1.502 . S
C3456 C3458 1.561 . S
C3456 C3459 1.526 . S
C3457 H3441 0.959 . S
C3457 H3442 0.959 . S
C3457 H3443 0.961 . S
C3457 C3456 1.502 . S
C3458 H3444 0.960 . S
C3458 H3445 0.961 . S
C3458 H3446 0.959 . S
C3458 C3456 1.561 . S
C3459 C3456 1.526 . S
C3459 C3460 1.396 . S
C3459 C3464 1.390 . S
C3460 C3454 1.465 . S
C3460 C3459 1.396 . S
C3460 C3461 1.399 . S
C3461 H3447 0.929 . S
C3461 C3460 1.399 . S
C3461 C3462 1.385 . S
C3462 H3448 0.931 . S
C3462 C3461 1.385 . S
C3462 C3463 1.389 . S
C3463 C3462 1.389 . S
C3463 C3464 1.387 . S
C3464 H3449 0.930 . S
C3464 C3459 1.390 . S
C3464 C3463 1.387 . S
H3465 C3477 0.930 . S
H3466 C3479 0.930 . S
H3467 C3480 0.930 . S
H3468 C3484 0.959 . S
H3469 C3484 0.959 . S
H3470 C3484 0.961 . S
H3471 C3485 0.960 . S
H3472 C3485 0.961 . S
H3473 C3485 0.959 . S
H3474 C3488 0.929 . S
H3475 C3489 0.931 . S
H3476 C3491 0.930 . S
C3477 H3465 0.930 . S
C3477 C3478 1.399 . S
C3477 C3482 1.399 . S
C3478 C3477 1.399 . S
C3478 C3479 1.376 . S
C3479 H3466 0.930 . S
C3479 C3478 1.376 . S
C3479 C3480 1.388 . S
C3480 H3467 0.930 . S
C3480 C3479 1.388 . S
C3480 C3481 1.390 . S
C3481 C3480 1.390 . S
C3481 C3482 1.394 . S
C3481 C3487 1.465 . S
C3482 C3477 1.399 . S
C3482 C3481 1.394 . S
C3482 C3483 1.516 . S
C3483 C3482 1.516 . S
C3483 C3484 1.502 . S
C3483 C3485 1.561 . S
C3483 C3486 1.526 . S
C3484 H3468 0.959 . S
C3484 H3469 0.959 . S
C3484 H3470 0.961 . S
C3484 C3483 1.502 . S
C3485 H3471 0.960 . S
C3485 H3472 0.961 . S
C3485 H3473 0.959 . S
C3485 C3483 1.561 . S
C3486 C3483 1.526 . S
C3486 C3487 1.396 . S
C3486 C3491 1.390 . S
C3487 C3481 1.465 . S
C3487 C3486 1.396 . S
C3487 C3488 1.399 . S
C3488 H3474 0.929 . S
C3488 C3487 1.399 . S
C3488 C3489 1.385 . S
C3489 H3475 0.931 . S
C3489 C3488 1.385 . S
C3489 C3490 1.389 . S
C3490 C3489 1.389 . S
C3490 C3491 1.387 . S
C3491 H3476 0.930 . S
C3491 C3486 1.390 . S
C3491 C3490 1.387 . S
H3492 C3504 0.930 . S
H3493 C3506 0.930 . S
H3494 C3507 0.930 . S
H3495 C3511 0.959 . S
H3496 C3511 0.959 . S
H3497 C3511 0.961 . S
H3498 C3512 0.960 . S
H3499 C3512 0.961 . S
H3500 C3512 0.959 . S
H3501 C3515 0.929 . S
H3502 C3516 0.931 . S
H3503 C3518 0.930 . S
C3504 H3492 0.930 . S
C3504 C3505 1.399 . S
C3504 C3509 1.399 . S
C3505 C3504 1.399 . S
C3505 C3506 1.376 . S
C3506 H3493 0.930 . S
C3506 C3505 1.376 . S
C3506 C3507 1.388 . S
C3507 H3494 0.930 . S
C3507 C3506 1.388 . S
C3507 C3508 1.390 . S
C3508 C3507 1.390 . S
C3508 C3509 1.394 . S
C3508 C3514 1.465 . S
C3509 C3504 1.399 . S
C3509 C3508 1.394 . S
C3509 C3510 1.516 . S
C3510 C3509 1.516 . S
C3510 C3511 1.502 . S
C3510 C3512 1.561 . S
C3510 C3513 1.526 . S
C3511 H3495 0.959 . S
C3511 H3496 0.959 . S
C3511 H3497 0.961 . S
C3511 C3510 1.502 . S
C3512 H3498 0.960 . S
C3512 H3499 0.961 . S
C3512 H3500 0.959 . S
C3512 C3510 1.561 . S
C3513 C3510 1.526 . S
C3513 C3514 1.396 . S
C3513 C3518 1.390 . S
C3514 C3508 1.465 . S
C3514 C3513 1.396 . S
C3514 C3515 1.399 . S
C3515 H3501 0.929 . S
C3515 C3514 1.399 . S
C3515 C3516 1.385 . S
C3516 H3502 0.931 . S
C3516 C3515 1.385 . S
C3516 C3517 1.389 . S
C3517 C3516 1.389 . S
C3517 C3518 1.387 . S
C3518 H3503 0.930 . S
C3518 C3513 1.390 . S
C3518 C3517 1.387 . S
H3519 C3531 0.930 . S
H3520 C3533 0.930 . S
H3521 C3534 0.930 . S
H3522 C3538 0.959 . S
H3523 C3538 0.959 . S
H3524 C3538 0.961 . S
H3525 C3539 0.960 . S
H3526 C3539 0.961 . S
H3527 C3539 0.959 . S
H3528 C3542 0.929 . S
H3529 C3543 0.931 . S
H3530 C3545 0.930 . S
C3531 H3519 0.930 . S
C3531 C3532 1.399 . S
C3531 C3536 1.399 . S
C3532 C3531 1.399 . S
C3532 C3533 1.376 . S
C3533 H3520 0.930 . S
C3533 C3532 1.376 . S
C3533 C3534 1.388 . S
C3534 H3521 0.930 . S
C3534 C3533 1.388 . S
C3534 C3535 1.390 . S
C3535 C3534 1.390 . S
C3535 C3536 1.394 . S
C3535 C3541 1.465 . S
C3536 C3531 1.399 . S
C3536 C3535 1.394 . S
C3536 C3537 1.516 . S
C3537 C3536 1.516 . S
C3537 C3538 1.502 . S
C3537 C3539 1.561 . S
C3537 C3540 1.526 . S
C3538 H3522 0.959 . S
C3538 H3523 0.959 . S
C3538 H3524 0.961 . S
C3538 C3537 1.502 . S
C3539 H3525 0.960 . S
C3539 H3526 0.961 . S
C3539 H3527 0.959 . S
C3539 C3537 1.561 . S
C3540 C3537 1.526 . S
C3540 C3541 1.396 . S
C3540 C3545 1.390 . S
C3541 C3535 1.465 . S
C3541 C3540 1.396 . S
C3541 C3542 1.399 . S
C3542 H3528 0.929 . S
C3542 C3541 1.399 . S
C3542 C3543 1.385 . S
C3543 H3529 0.931 . S
C3543 C3542 1.385 . S
C3543 C3544 1.389 . S
C3544 C3543 1.389 . S
C3544 C3545 1.387 . S
C3545 H3530 0.930 . S
C3545 C3540 1.390 . S
C3545 C3544 1.387 . S
H3546 C3558 0.930 . S
H3547 C3560 0.930 . S
H3548 C3561 0.930 . S
H3549 C3565 0.959 . S
H3550 C3565 0.959 . S
H3551 C3565 0.961 . S
H3552 C3566 0.960 . S
H3553 C3566 0.961 . S
H3554 C3566 0.959 . S
H3555 C3569 0.929 . S
H3556 C3570 0.931 . S
H3557 C3572 0.930 . S
C3558 H3546 0.930 . S
C3558 C3559 1.399 . S
C3558 C3563 1.399 . S
C3559 C3558 1.399 . S
C3559 C3560 1.376 . S
C3560 H3547 0.930 . S
C3560 C3559 1.376 . S
C3560 C3561 1.388 . S
C3561 H3548 0.930 . S
C3561 C3560 1.388 . S
C3561 C3562 1.390 . S
C3562 C3561 1.390 . S
C3562 C3563 1.394 . S
C3562 C3568 1.465 . S
C3563 C3558 1.399 . S
C3563 C3562 1.394 . S
C3563 C3564 1.516 . S
C3564 C3563 1.516 . S
C3564 C3565 1.502 . S
C3564 C3566 1.561 . S
C3564 C3567 1.526 . S
C3565 H3549 0.959 . S
C3565 H3550 0.959 . S
C3565 H3551 0.961 . S
C3565 C3564 1.502 . S
C3566 H3552 0.960 . S
C3566 H3553 0.961 . S
C3566 H3554 0.959 . S
C3566 C3564 1.561 . S
C3567 C3564 1.526 . S
C3567 C3568 1.396 . S
C3567 C3572 1.390 . S
C3568 C3562 1.465 . S
C3568 C3567 1.396 . S
C3568 C3569 1.399 . S
C3569 H3555 0.929 . S
C3569 C3568 1.399 . S
C3569 C3570 1.385 . S
C3570 H3556 0.931 . S
C3570 C3569 1.385 . S
C3570 C3571 1.389 . S
C3571 C3570 1.389 . S
C3571 C3572 1.387 . S
C3572 H3557 0.930 . S
C3572 C3567 1.390 . S
C3572 C3571 1.387 . S
H3573 C3585 0.930 . S
H3574 C3587 0.930 . S
H3575 C3588 0.930 . S
H3576 C3592 0.959 . S
H3577 C3592 0.959 . S
H3578 C3592 0.961 . S
H3579 C3593 0.960 . S
H3580 C3593 0.961 . S
H3581 C3593 0.959 . S
H3582 C3596 0.929 . S
H3583 C3597 0.931 . S
H3584 C3599 0.930 . S
C3585 H3573 0.930 . S
C3585 C3586 1.399 . S
C3585 C3590 1.399 . S
C3586 C3585 1.399 . S
C3586 C3587 1.376 . S
C3587 H3574 0.930 . S
C3587 C3586 1.376 . S
C3587 C3588 1.388 . S
C3588 H3575 0.930 . S
C3588 C3587 1.388 . S
C3588 C3589 1.390 . S
C3589 C3588 1.390 . S
C3589 C3590 1.394 . S
C3589 C3595 1.465 . S
C3590 C3585 1.399 . S
C3590 C3589 1.394 . S
C3590 C3591 1.516 . S
C3591 C3590 1.516 . S
C3591 C3592 1.502 . S
C3591 C3593 1.561 . S
C3591 C3594 1.526 . S
C3592 H3576 0.959 . S
C3592 H3577 0.959 . S
C3592 H3578 0.961 . S
C3592 C3591 1.502 . S
C3593 H3579 0.960 . S
C3593 H3580 0.961 . S
C3593 H3581 0.959 . S
C3593 C3591 1.561 . S
C3594 C3591 1.526 . S
C3594 C3595 1.396 . S
C3594 C3599 1.390 . S
C3595 C3589 1.465 . S
C3595 C3594 1.396 . S
C3595 C3596 1.399 . S
C3596 H3582 0.929 . S
C3596 C3595 1.399 . S
C3596 C3597 1.385 . S
C3597 H3583 0.931 . S
C3597 C3596 1.385 . S
C3597 C3598 1.389 . S
C3598 C3597 1.389 . S
C3598 C3599 1.387 . S
C3599 H3584 0.930 . S
C3599 C3594 1.390 . S
C3599 C3598 1.387 . S
H3600 C3612 0.930 . S
H3601 C3614 0.930 . S
H3602 C3615 0.930 . S
H3603 C3619 0.959 . S
H3604 C3619 0.959 . S
H3605 C3619 0.961 . S
H3606 C3620 0.960 . S
H3607 C3620 0.961 . S
H3608 C3620 0.959 . S
H3609 C3623 0.929 . S
H3610 C3624 0.931 . S
H3611 C3626 0.930 . S
C3612 H3600 0.930 . S
C3612 C3613 1.399 . S
C3612 C3617 1.399 . S
C3613 C3612 1.399 . S
C3613 C3614 1.376 . S
C3614 H3601 0.930 . S
C3614 C3613 1.376 . S
C3614 C3615 1.388 . S
C3615 H3602 0.930 . S
C3615 C3614 1.388 . S
C3615 C3616 1.390 . S
C3616 C3615 1.390 . S
C3616 C3617 1.394 . S
C3616 C3622 1.465 . S
C3617 C3612 1.399 . S
C3617 C3616 1.394 . S
C3617 C3618 1.516 . S
C3618 C3617 1.516 . S
C3618 C3619 1.502 . S
C3618 C3620 1.561 . S
C3618 C3621 1.526 . S
C3619 H3603 0.959 . S
C3619 H3604 0.959 . S
C3619 H3605 0.961 . S
C3619 C3618 1.502 . S
C3620 H3606 0.960 . S
C3620 H3607 0.961 . S
C3620 H3608 0.959 . S
C3620 C3618 1.561 . S
C3621 C3618 1.526 . S
C3621 C3622 1.396 . S
C3621 C3626 1.390 . S
C3622 C3616 1.465 . S
C3622 C3621 1.396 . S
C3622 C3623 1.399 . S
C3623 H3609 0.929 . S
C3623 C3622 1.399 . S
C3623 C3624 1.385 . S
C3624 H3610 0.931 . S
C3624 C3623 1.385 . S
C3624 C3625 1.389 . S
C3625 C3624 1.389 . S
C3625 C3626 1.387 . S
C3626 H3611 0.930 . S
C3626 C3621 1.390 . S
C3626 C3625 1.387 . S
H3627 C3639 0.930 . S
H3628 C3641 0.930 . S
H3629 C3642 0.930 . S
H3630 C3646 0.959 . S
H3631 C3646 0.959 . S
H3632 C3646 0.961 . S
H3633 C3647 0.960 . S
H3634 C3647 0.961 . S
H3635 C3647 0.959 . S
H3636 C3650 0.929 . S
H3637 C3651 0.931 . S
H3638 C3653 0.930 . S
C3639 H3627 0.930 . S
C3639 C3640 1.399 . S
C3639 C3644 1.399 . S
C3640 C3639 1.399 . S
C3640 C3641 1.376 . S
C3641 H3628 0.930 . S
C3641 C3640 1.376 . S
C3641 C3642 1.388 . S
C3642 H3629 0.930 . S
C3642 C3641 1.388 . S
C3642 C3643 1.390 . S
C3643 C3642 1.390 . S
C3643 C3644 1.394 . S
C3643 C3649 1.465 . S
C3644 C3639 1.399 . S
C3644 C3643 1.394 . S
C3644 C3645 1.516 . S
C3645 C3644 1.516 . S
C3645 C3646 1.502 . S
C3645 C3647 1.561 . S
C3645 C3648 1.526 . S
C3646 H3630 0.959 . S
C3646 H3631 0.959 . S
C3646 H3632 0.961 . S
C3646 C3645 1.502 . S
C3647 H3633 0.960 . S
C3647 H3634 0.961 . S
C3647 H3635 0.959 . S
C3647 C3645 1.561 . S
C3648 C3645 1.526 . S
C3648 C3649 1.396 . S
C3648 C3653 1.390 . S
C3649 C3643 1.465 . S
C3649 C3648 1.396 . S
C3649 C3650 1.399 . S
C3650 H3636 0.929 . S
C3650 C3649 1.399 . S
C3650 C3651 1.385 . S
C3651 H3637 0.931 . S
C3651 C3650 1.385 . S
C3651 C3652 1.389 . S
C3652 C3651 1.389 . S
C3652 C3653 1.387 . S
C3653 H3638 0.930 . S
C3653 C3648 1.390 . S
C3653 C3652 1.387 . S
H3654 C3666 0.930 . S
H3655 C3668 0.930 . S
H3656 C3669 0.930 . S
H3657 C3673 0.959 . S
H3658 C3673 0.959 . S
H3659 C3673 0.961 . S
H3660 C3674 0.960 . S
H3661 C3674 0.961 . S
H3662 C3674 0.959 . S
H3663 C3677 0.929 . S
H3664 C3678 0.931 . S
H3665 C3680 0.930 . S
C3666 H3654 0.930 . S
C3666 C3667 1.399 . S
C3666 C3671 1.399 . S
C3667 C3666 1.399 . S
C3667 C3668 1.376 . S
C3668 H3655 0.930 . S
C3668 C3667 1.376 . S
C3668 C3669 1.388 . S
C3669 H3656 0.930 . S
C3669 C3668 1.388 . S
C3669 C3670 1.390 . S
C3670 C3669 1.390 . S
C3670 C3671 1.394 . S
C3670 C3676 1.465 . S
C3671 C3666 1.399 . S
C3671 C3670 1.394 . S
C3671 C3672 1.516 . S
C3672 C3671 1.516 . S
C3672 C3673 1.502 . S
C3672 C3674 1.561 . S
C3672 C3675 1.526 . S
C3673 H3657 0.959 . S
C3673 H3658 0.959 . S
C3673 H3659 0.961 . S
C3673 C3672 1.502 . S
C3674 H3660 0.960 . S
C3674 H3661 0.961 . S
C3674 H3662 0.959 . S
C3674 C3672 1.561 . S
C3675 C3672 1.526 . S
C3675 C3676 1.396 . S
C3675 C3680 1.390 . S
C3676 C3670 1.465 . S
C3676 C3675 1.396 . S
C3676 C3677 1.399 . S
C3677 H3663 0.929 . S
C3677 C3676 1.399 . S
C3677 C3678 1.385 . S
C3678 H3664 0.931 . S
C3678 C3677 1.385 . S
C3678 C3679 1.389 . S
C3679 C3678 1.389 . S
C3679 C3680 1.387 . S
C3680 H3665 0.930 . S
C3680 C3675 1.390 . S
C3680 C3679 1.387 . S
H3681 C3693 0.930 . S
H3682 C3695 0.930 . S
H3683 C3696 0.930 . S
H3684 C3700 0.959 . S
H3685 C3700 0.959 . S
H3686 C3700 0.961 . S
H3687 C3701 0.960 . S
H3688 C3701 0.961 . S
H3689 C3701 0.959 . S
H3690 C3704 0.929 . S
H3691 C3705 0.931 . S
H3692 C3707 0.930 . S
C3693 H3681 0.930 . S
C3693 C3694 1.399 . S
C3693 C3698 1.399 . S
C3694 C3693 1.399 . S
C3694 C3695 1.376 . S
C3695 H3682 0.930 . S
C3695 C3694 1.376 . S
C3695 C3696 1.388 . S
C3696 H3683 0.930 . S
C3696 C3695 1.388 . S
C3696 C3697 1.390 . S
C3697 C3696 1.390 . S
C3697 C3698 1.394 . S
C3697 C3703 1.465 . S
C3698 C3693 1.399 . S
C3698 C3697 1.394 . S
C3698 C3699 1.516 . S
C3699 C3698 1.516 . S
C3699 C3700 1.502 . S
C3699 C3701 1.561 1_455 S
C3699 C3702 1.526 . S
C3700 H3684 0.959 . S
C3700 H3685 0.959 . S
C3700 H3686 0.961 . S
C3700 C3699 1.502 . S
C3701 H3687 0.960 . S
C3701 H3688 0.961 . S
C3701 H3689 0.959 . S
C3701 C3699 1.561 1_655 S
C3702 C3699 1.526 . S
C3702 C3703 1.396 . S
C3702 C3707 1.390 . S
C3703 C3697 1.465 . S
C3703 C3702 1.396 . S
C3703 C3704 1.399 . S
C3704 H3690 0.929 . S
C3704 C3703 1.399 . S
C3704 C3705 1.385 . S
C3705 H3691 0.931 . S
C3705 C3704 1.385 . S
C3705 C3706 1.389 . S
C3706 C3705 1.389 . S
C3706 C3707 1.387 . S
C3707 H3692 0.930 . S
C3707 C3702 1.390 . S
C3707 C3706 1.387 . S
H3708 C3720 0.930 . S
H3709 C3722 0.930 . S
H3710 C3723 0.930 . S
H3711 C3727 0.959 . S
H3712 C3727 0.959 . S
H3713 C3727 0.961 . S
H3714 C3728 0.960 . S
H3715 C3728 0.961 . S
H3716 C3728 0.959 . S
H3717 C3731 0.929 . S
H3718 C3732 0.931 . S
H3719 C3734 0.930 . S
C3720 H3708 0.930 . S
C3720 C3721 1.399 . S
C3720 C3725 1.399 . S
C3721 C3720 1.399 . S
C3721 C3722 1.376 . S
C3722 H3709 0.930 . S
C3722 C3721 1.376 . S
C3722 C3723 1.388 . S
C3723 H3710 0.930 . S
C3723 C3722 1.388 . S
C3723 C3724 1.390 . S
C3724 C3723 1.390 . S
C3724 C3725 1.394 . S
C3724 C3730 1.465 . S
C3725 C3720 1.399 . S
C3725 C3724 1.394 . S
C3725 C3726 1.516 . S
C3726 C3725 1.516 . S
C3726 C3727 1.502 . S
C3726 C3728 1.561 . S
C3726 C3729 1.526 . S
C3727 H3711 0.959 . S
C3727 H3712 0.959 . S
C3727 H3713 0.961 . S
C3727 C3726 1.502 . S
C3728 H3714 0.960 . S
C3728 H3715 0.961 . S
C3728 H3716 0.959 . S
C3728 C3726 1.561 . S
C3729 C3726 1.526 . S
C3729 C3730 1.396 . S
C3729 C3734 1.390 . S
C3730 C3724 1.465 . S
C3730 C3729 1.396 . S
C3730 C3731 1.399 . S
C3731 H3717 0.929 . S
C3731 C3730 1.399 . S
C3731 C3732 1.385 . S
C3732 H3718 0.931 . S
C3732 C3731 1.385 . S
C3732 C3733 1.389 . S
C3733 C3732 1.389 . S
C3733 C3734 1.387 . S
C3734 H3719 0.930 . S
C3734 C3729 1.390 . S
C3734 C3733 1.387 . S
H3735 C3747 0.930 . S
H3736 C3749 0.930 . S
H3737 C3750 0.930 . S
H3738 C3754 0.959 . S
H3739 C3754 0.959 . S
H3740 C3754 0.961 . S
H3741 C3755 0.960 . S
H3742 C3755 0.961 . S
H3743 C3755 0.959 . S
H3744 C3758 0.929 . S
H3745 C3759 0.931 . S
H3746 C3761 0.930 . S
C3747 H3735 0.930 . S
C3747 C3748 1.399 1_545 S
C3747 C3752 1.354 1_545 S
C3748 C3747 1.399 1_565 S
C3748 C3749 1.376 . S
C3749 H3736 0.930 . S
C3749 C3748 1.376 . S
C3749 C3750 1.388 . S
C3750 H3737 0.930 . S
C3750 C3749 1.388 . S
C3750 C3751 1.390 . S
C3751 C3750 1.390 . S
C3751 C3752 1.464 . S
C3751 C3757 1.465 . S
C3752 C3747 1.354 1_565 S
C3752 C3751 1.464 . S
C3752 C3753 1.507 1_565 S
C3753 C3752 1.507 1_545 S
C3753 C3754 1.502 . S
C3753 C3755 1.561 . S
C3753 C3756 1.486 1_545 S
C3754 H3738 0.959 . S
C3754 H3739 0.959 . S
C3754 H3740 0.961 . S
C3754 C3753 1.502 . S
C3755 H3741 0.960 . S
C3755 H3742 0.961 . S
C3755 H3743 0.959 . S
C3755 C3753 1.561 . S
C3756 C3753 1.486 1_565 S
C3756 C3757 1.428 . S
C3756 C3761 1.402 1_565 S
C3757 C3751 1.465 . S
C3757 C3756 1.428 . S
C3757 C3758 1.399 . S
C3758 H3744 0.929 . S
C3758 C3757 1.399 . S
C3758 C3759 1.385 . S
C3759 H3745 0.931 . S
C3759 C3758 1.385 . S
C3759 C3760 1.389 . S
C3760 C3759 1.389 . S
C3760 C3761 1.387 1_565 S
C3761 H3746 0.930 . S
C3761 C3756 1.402 1_545 S
C3761 C3760 1.387 1_545 S
H3762 C3774 0.930 . S
H3763 C3776 0.950 1_545 S
H3764 C3777 0.930 . S
H3765 C3781 0.959 . S
H3766 C3781 0.959 . S
H3767 C3781 0.961 . S
H3768 C3782 0.919 1_565 S
H3769 C3782 1.020 1_565 S
H3770 C3782 1.012 . S
H3771 C3785 0.929 . S
H3772 C3786 0.931 . S
H3773 C3788 0.930 . S
C3774 H3762 0.930 . S
C3774 C3775 1.399 . S
C3774 C3779 1.399 . S
C3775 C3774 1.399 . S
C3775 C3776 1.394 . S
C3776 H3763 0.950 1_565 S
C3776 C3775 1.394 . S
C3776 C3777 1.356 1_565 S
C3777 H3764 0.930 . S
C3777 C3776 1.356 1_545 S
C3777 C3778 1.390 1_545 S
C3778 C3777 1.390 1_565 S
C3778 C3779 1.394 . S
C3778 C3784 1.491 . S
C3779 C3774 1.399 . S
C3779 C3778 1.394 . S
C3779 C3780 1.516 . S
C3780 C3779 1.516 . S
C3780 C3781 1.502 . S
C3780 C3782 1.506 1_565 S
C3780 C3783 1.526 . S
C3781 H3765 0.959 . S
C3781 H3766 0.959 . S
C3781 H3767 0.961 . S
C3781 C3780 1.502 . S
C3782 H3768 0.919 1_545 S
C3782 H3769 1.020 1_545 S
C3782 H3770 1.012 . S
C3782 C3780 1.506 1_545 S
C3783 C3780 1.526 . S
C3783 C3784 1.391 . S
C3783 C3788 1.390 . S
C3784 C3778 1.491 . S
C3784 C3783 1.391 . S
C3784 C3785 1.381 1_565 S
C3785 H3771 0.929 . S
C3785 C3784 1.381 1_545 S
C3785 C3786 1.385 . S
C3786 H3772 0.931 . S
C3786 C3785 1.385 . S
C3786 C3787 1.389 1_545 S
C3787 C3786 1.389 1_565 S
C3787 C3788 1.387 . S
C3788 H3773 0.930 . S
C3788 C3783 1.390 . S
C3788 C3787 1.387 . S
H3789 C3801 0.930 . S
H3790 C3803 0.930 . S
H3791 C3804 0.930 . S
H3792 C3808 0.959 . S
H3793 C3808 0.959 . S
H3794 C3808 0.961 . S
H3795 C3809 0.960 . S
H3796 C3809 0.961 . S
H3797 C3809 0.959 . S
H3798 C3812 0.929 . S
H3799 C3813 0.931 . S
H3800 C3815 0.930 . S
C3801 H3789 0.930 . S
C3801 C3802 1.399 . S
C3801 C3806 1.399 . S
C3802 C3801 1.399 . S
C3802 C3803 1.376 . S
C3803 H3790 0.930 . S
C3803 C3802 1.376 . S
C3803 C3804 1.388 1_455 S
C3804 H3791 0.930 . S
C3804 C3803 1.388 1_655 S
C3804 C3805 1.389 1_655 S
C3805 C3804 1.389 1_455 S
C3805 C3806 1.394 . S
C3805 C3811 1.444 . S
C3806 C3801 1.399 . S
C3806 C3805 1.394 . S
C3806 C3807 1.516 . S
C3807 C3806 1.516 . S
C3807 C3808 1.502 . S
C3807 C3809 1.561 1_455 S
C3807 C3810 1.526 . S
C3808 H3792 0.959 . S
C3808 H3793 0.959 . S
C3808 H3794 0.961 . S
C3808 C3807 1.502 . S
C3809 H3795 0.960 . S
C3809 H3796 0.961 . S
C3809 H3797 0.959 . S
C3809 C3807 1.561 1_655 S
C3810 C3807 1.526 . S
C3810 C3811 1.443 . S
C3810 C3815 1.390 . S
C3811 C3805 1.444 . S
C3811 C3810 1.443 . S
C3811 C3812 1.384 1_455 S
C3812 H3798 0.929 . S
C3812 C3811 1.384 1_655 S
C3812 C3813 1.385 . S
C3813 H3799 0.931 . S
C3813 C3812 1.385 . S
C3813 C3814 1.382 1_655 S
C3814 C3813 1.382 1_455 S
C3814 C3815 1.389 . S
C3815 H3800 0.930 . S
C3815 C3810 1.390 . S
C3815 C3814 1.389 . S
H3816 C3828 0.930 . S
H3817 C3830 0.930 . S
H3818 C3831 0.930 . S
H3819 C3835 0.959 . S
H3820 C3835 0.959 . S
H3821 C3835 0.961 . S
H3822 C3836 0.960 . S
H3823 C3836 0.961 . S
H3824 C3836 0.959 . S
H3825 C3839 0.929 . S
H3826 C3840 0.931 . S
H3827 C3842 0.930 . S
C3828 H3816 0.930 . S
C3828 C3829 1.399 . S
C3828 C3833 1.399 . S
C3829 C3828 1.399 . S
C3829 C3830 1.376 . S
C3830 H3817 0.930 . S
C3830 C3829 1.376 . S
C3830 C3831 1.388 . S
C3831 H3818 0.930 . S
C3831 C3830 1.388 . S
C3831 C3832 1.390 . S
C3832 C3831 1.390 . S
C3832 C3833 1.394 . S
C3832 C3838 1.465 . S
C3833 C3828 1.399 . S
C3833 C3832 1.394 . S
C3833 C3834 1.516 . S
C3834 C3833 1.516 . S
C3834 C3835 1.502 . S
C3834 C3836 1.561 . S
C3834 C3837 1.526 . S
C3835 H3819 0.959 . S
C3835 H3820 0.959 . S
C3835 H3821 0.961 . S
C3835 C3834 1.502 . S
C3836 H3822 0.960 . S
C3836 H3823 0.961 . S
C3836 H3824 0.959 . S
C3836 C3834 1.561 . S
C3837 C3834 1.526 . S
C3837 C3838 1.396 . S
C3837 C3842 1.390 . S
C3838 C3832 1.465 . S
C3838 C3837 1.396 . S
C3838 C3839 1.399 . S
C3839 H3825 0.929 . S
C3839 C3838 1.399 . S
C3839 C3840 1.385 . S
C3840 H3826 0.931 . S
C3840 C3839 1.385 . S
C3840 C3841 1.389 . S
C3841 C3840 1.389 . S
C3841 C3842 1.387 . S
C3842 H3827 0.930 . S
C3842 C3837 1.390 . S
C3842 C3841 1.387 . S
H3843 C3855 0.930 . S
H3844 C3857 0.930 . S
H3845 C3858 0.930 . S
H3846 C3862 0.959 . S
H3847 C3862 0.959 . S
H3848 C3862 0.961 . S
H3849 C3863 0.960 . S
H3850 C3863 0.961 . S
H3851 C3863 0.959 . S
H3852 C3866 0.929 . S
H3853 C3867 0.931 . S
H3854 C3869 0.930 . S
C3855 H3843 0.930 . S
C3855 C3856 1.399 . S
C3855 C3860 1.399 . S
C3856 C3855 1.399 . S
C3856 C3857 1.376 . S
C3857 H3844 0.930 . S
C3857 C3856 1.376 . S
C3857 C3858 1.388 . S
C3858 H3845 0.930 . S
C3858 C3857 1.388 . S
C3858 C3859 1.390 . S
C3859 C3858 1.390 . S
C3859 C3860 1.394 . S
C3859 C3865 1.465 . S
C3860 C3855 1.399 . S
C3860 C3859 1.394 . S
C3860 C3861 1.516 . S
C3861 C3860 1.516 . S
C3861 C3862 1.502 . S
C3861 C3863 1.561 . S
C3861 C3864 1.526 . S
C3862 H3846 0.959 . S
C3862 H3847 0.959 . S
C3862 H3848 0.961 . S
C3862 C3861 1.502 . S
C3863 H3849 0.960 . S
C3863 H3850 0.961 . S
C3863 H3851 0.959 . S
C3863 C3861 1.561 . S
C3864 C3861 1.526 . S
C3864 C3865 1.396 . S
C3864 C3869 1.390 . S
C3865 C3859 1.465 . S
C3865 C3864 1.396 . S
C3865 C3866 1.399 . S
C3866 H3852 0.929 . S
C3866 C3865 1.399 . S
C3866 C3867 1.385 . S
C3867 H3853 0.931 . S
C3867 C3866 1.385 . S
C3867 C3868 1.389 . S
C3868 C3867 1.389 . S
C3868 C3869 1.387 . S
C3869 H3854 0.930 . S
C3869 C3864 1.390 . S
C3869 C3868 1.387 . S
H3870 C3882 0.930 . S
H3871 C3884 0.930 . S
H3872 C3885 0.930 . S
H3873 C3889 0.959 . S
H3874 C3889 0.959 . S
H3875 C3889 0.961 . S
H3876 C3890 0.960 . S
H3877 C3890 0.961 . S
H3878 C3890 0.959 . S
H3879 C3893 0.929 . S
H3880 C3894 0.931 . S
H3881 C3896 0.930 . S
C3882 H3870 0.930 . S
C3882 C3883 1.399 . S
C3882 C3887 1.399 . S
C3883 C3882 1.399 . S
C3883 C3884 1.376 . S
C3884 H3871 0.930 . S
C3884 C3883 1.376 . S
C3884 C3885 1.388 . S
C3885 H3872 0.930 . S
C3885 C3884 1.388 . S
C3885 C3886 1.390 . S
C3886 C3885 1.390 . S
C3886 C3887 1.394 . S
C3886 C3892 1.465 . S
C3887 C3882 1.399 . S
C3887 C3886 1.394 . S
C3887 C3888 1.516 . S
C3888 C3887 1.516 . S
C3888 C3889 1.502 . S
C3888 C3890 1.561 . S
C3888 C3891 1.526 . S
C3889 H3873 0.959 . S
C3889 H3874 0.959 . S
C3889 H3875 0.961 . S
C3889 C3888 1.502 . S
C3890 H3876 0.960 . S
C3890 H3877 0.961 . S
C3890 H3878 0.959 . S
C3890 C3888 1.561 . S
C3891 C3888 1.526 . S
C3891 C3892 1.396 . S
C3891 C3896 1.390 . S
C3892 C3886 1.465 . S
C3892 C3891 1.396 . S
C3892 C3893 1.399 . S
C3893 H3879 0.929 . S
C3893 C3892 1.399 . S
C3893 C3894 1.385 . S
C3894 H3880 0.931 . S
C3894 C3893 1.385 . S
C3894 C3895 1.389 . S
C3895 C3894 1.389 . S
C3895 C3896 1.387 . S
C3896 H3881 0.930 . S
C3896 C3891 1.390 . S
C3896 C3895 1.387 . S
H3897 C3909 0.930 . S
H3898 C3911 0.930 . S
H3899 C3912 0.930 . S
H3900 C3916 0.959 . S
H3901 C3916 0.959 . S
H3902 C3916 0.961 . S
H3903 C3917 0.960 . S
H3904 C3917 0.961 . S
H3905 C3917 0.959 . S
H3906 C3920 0.929 . S
H3907 C3921 0.931 . S
H3908 C3923 0.930 . S
C3909 H3897 0.930 . S
C3909 C3910 1.399 . S
C3909 C3914 1.399 . S
C3910 C3909 1.399 . S
C3910 C3911 1.376 . S
C3911 H3898 0.930 . S
C3911 C3910 1.376 . S
C3911 C3912 1.388 . S
C3912 H3899 0.930 . S
C3912 C3911 1.388 . S
C3912 C3913 1.390 . S
C3913 C3912 1.390 . S
C3913 C3914 1.394 . S
C3913 C3919 1.465 . S
C3914 C3909 1.399 . S
C3914 C3913 1.394 . S
C3914 C3915 1.516 . S
C3915 C3914 1.516 . S
C3915 C3916 1.502 . S
C3915 C3917 1.561 . S
C3915 C3918 1.526 . S
C3916 H3900 0.959 . S
C3916 H3901 0.959 . S
C3916 H3902 0.961 . S
C3916 C3915 1.502 . S
C3917 H3903 0.960 . S
C3917 H3904 0.961 . S
C3917 H3905 0.959 . S
C3917 C3915 1.561 . S
C3918 C3915 1.526 . S
C3918 C3919 1.396 . S
C3918 C3923 1.390 . S
C3919 C3913 1.465 . S
C3919 C3918 1.396 . S
C3919 C3920 1.399 . S
C3920 H3906 0.929 . S
C3920 C3919 1.399 . S
C3920 C3921 1.385 . S
C3921 H3907 0.931 . S
C3921 C3920 1.385 . S
C3921 C3922 1.389 . S
C3922 C3921 1.389 . S
C3922 C3923 1.387 . S
C3923 H3908 0.930 . S
C3923 C3918 1.390 . S
C3923 C3922 1.387 . S
H3924 C3936 0.952 . S
H3925 C3938 0.930 . S
H3926 C3939 0.930 . S
H3927 C3943 0.959 . S
H3928 C3943 0.959 . S
H3929 C3943 0.961 . S
H3930 C3944 0.960 . S
H3931 C3944 0.961 . S
H3932 C3944 0.959 . S
H3933 C3947 0.929 . S
H3934 C3948 0.931 . S
H3935 C3950 0.930 . S
C3936 H3924 0.952 . S
C3936 C3937 1.364 1_565 S
C3936 C3941 1.413 1_565 S
C3937 C3936 1.364 1_545 S
C3937 C3938 1.376 . S
C3938 H3925 0.930 . S
C3938 C3937 1.376 . S
C3938 C3939 1.388 . S
C3939 H3926 0.930 . S
C3939 C3938 1.388 . S
C3939 C3940 1.390 . S
C3940 C3939 1.390 . S
C3940 C3941 1.394 . S
C3940 C3946 1.465 . S
C3941 C3936 1.413 1_545 S
C3941 C3940 1.394 . S
C3941 C3942 1.516 1_545 S
C3942 C3941 1.516 1_565 S
C3942 C3943 1.502 . S
C3942 C3944 1.561 . S
C3942 C3945 1.517 1_565 S
C3943 H3927 0.959 . S
C3943 H3928 0.959 . S
C3943 H3929 0.961 . S
C3943 C3942 1.502 . S
C3944 H3930 0.960 . S
C3944 H3931 0.961 . S
C3944 H3932 0.959 . S
C3944 C3942 1.561 . S
C3945 C3942 1.517 1_545 S
C3945 C3946 1.461 . S
C3945 C3950 1.347 1_545 S
C3946 C3940 1.465 . S
C3946 C3945 1.461 . S
C3946 C3947 1.399 . S
C3947 H3933 0.929 . S
C3947 C3946 1.399 . S
C3947 C3948 1.385 . S
C3948 H3934 0.931 . S
C3948 C3947 1.385 . S
C3948 C3949 1.389 . S
C3949 C3948 1.389 . S
C3949 C3950 1.387 1_545 S
C3950 H3935 0.930 . S
C3950 C3945 1.347 1_565 S
C3950 C3949 1.387 1_565 S
H3951 C3963 0.930 1_455 S
H3952 C3965 0.930 . S
H3953 C3966 0.930 . S
H3954 C3970 0.959 . S
H3955 C3970 0.959 . S
H3956 C3970 0.961 . S
H3957 C3971 0.960 . S
H3958 C3971 0.961 . S
H3959 C3971 0.959 . S
H3960 C3974 0.929 . S
H3961 C3975 0.931 . S
H3962 C3977 0.930 1_455 S
C3963 H3951 0.930 1_655 S
C3963 C3964 1.399 . S
C3963 C3968 1.399 . S
C3964 C3963 1.399 . S
C3964 C3965 1.376 . S
C3965 H3952 0.930 . S
C3965 C3964 1.376 . S
C3965 C3966 1.388 . S
C3966 H3953 0.930 . S
C3966 C3965 1.388 . S
C3966 C3967 1.390 . S
C3967 C3966 1.390 . S
C3967 C3968 1.394 . S
C3967 C3973 1.465 . S
C3968 C3963 1.399 . S
C3968 C3967 1.394 . S
C3968 C3969 1.516 . S
C3969 C3968 1.516 . S
C3969 C3970 1.502 1_655 S
C3969 C3971 1.561 . S
C3969 C3972 1.526 . S
C3970 H3954 0.959 . S
C3970 H3955 0.959 . S
C3970 H3956 0.961 . S
C3970 C3969 1.502 1_455 S
C3971 H3957 0.960 . S
C3971 H3958 0.961 . S
C3971 H3959 0.959 . S
C3971 C3969 1.561 . S
C3972 C3969 1.526 . S
C3972 C3973 1.396 . S
C3972 C3977 1.390 . S
C3973 C3967 1.465 . S
C3973 C3972 1.396 . S
C3973 C3974 1.399 . S
C3974 H3960 0.929 . S
C3974 C3973 1.399 . S
C3974 C3975 1.385 . S
C3975 H3961 0.931 . S
C3975 C3974 1.385 . S
C3975 C3976 1.389 . S
C3976 C3975 1.389 . S
C3976 C3977 1.387 . S
C3977 H3962 0.930 1_655 S
C3977 C3972 1.390 . S
C3977 C3976 1.387 . S
H3978 C3990 0.930 . S
H3979 C3992 0.930 . S
H3980 C3993 0.930 . S
H3981 C3997 0.959 . S
H3982 C3997 0.959 . S
H3983 C3997 0.961 . S
H3984 C3998 0.960 . S
H3985 C3998 0.961 . S
H3986 C3998 0.959 . S
H3987 C4001 0.929 . S
H3988 C4002 0.931 . S
H3989 C4004 0.930 . S
C3990 H3978 0.930 . S
C3990 C3991 1.399 . S
C3990 C3995 1.399 . S
C3991 C3990 1.399 . S
C3991 C3992 1.376 . S
C3992 H3979 0.930 . S
C3992 C3991 1.376 . S
C3992 C3993 1.388 . S
C3993 H3980 0.930 . S
C3993 C3992 1.388 . S
C3993 C3994 1.390 . S
C3994 C3993 1.390 . S
C3994 C3995 1.394 . S
C3994 C4000 1.465 . S
C3995 C3990 1.399 . S
C3995 C3994 1.394 . S
C3995 C3996 1.516 . S
C3996 C3995 1.516 . S
C3996 C3997 1.502 . S
C3996 C3998 1.561 . S
C3996 C3999 1.526 . S
C3997 H3981 0.959 . S
C3997 H3982 0.959 . S
C3997 H3983 0.961 . S
C3997 C3996 1.502 . S
C3998 H3984 0.960 . S
C3998 H3985 0.961 . S
C3998 H3986 0.959 . S
C3998 C3996 1.561 . S
C3999 C3996 1.526 . S
C3999 C4000 1.396 . S
C3999 C4004 1.390 . S
C4000 C3994 1.465 . S
C4000 C3999 1.396 . S
C4000 C4001 1.399 . S
C4001 H3987 0.929 . S
C4001 C4000 1.399 . S
C4001 C4002 1.385 . S
C4002 H3988 0.931 . S
C4002 C4001 1.385 . S
C4002 C4003 1.389 . S
C4003 C4002 1.389 . S
C4003 C4004 1.387 . S
C4004 H3989 0.930 . S
C4004 C3999 1.390 . S
C4004 C4003 1.387 . S
H4005 C4017 0.930 . S
H4006 C4019 0.930 . S
H4007 C4020 0.930 . S
H4008 C4024 0.959 . S
H4009 C4024 0.959 . S
H4010 C4024 0.961 . S
H4011 C4025 0.960 . S
H4012 C4025 0.961 . S
H4013 C4025 0.959 . S
H4014 C4028 0.929 . S
H4015 C4029 0.931 . S
H4016 C4031 0.930 . S
C4017 H4005 0.930 . S
C4017 C4018 1.399 . S
C4017 C4022 1.399 . S
C4018 C4017 1.399 . S
C4018 C4019 1.376 . S
C4019 H4006 0.930 . S
C4019 C4018 1.376 . S
C4019 C4020 1.388 . S
C4020 H4007 0.930 . S
C4020 C4019 1.388 . S
C4020 C4021 1.390 . S
C4021 C4020 1.390 . S
C4021 C4022 1.394 . S
C4021 C4027 1.465 . S
C4022 C4017 1.399 . S
C4022 C4021 1.394 . S
C4022 C4023 1.516 . S
C4023 C4022 1.516 . S
C4023 C4024 1.502 . S
C4023 C4025 1.561 . S
C4023 C4026 1.526 . S
C4024 H4008 0.959 . S
C4024 H4009 0.959 . S
C4024 H4010 0.961 . S
C4024 C4023 1.502 . S
C4025 H4011 0.960 . S
C4025 H4012 0.961 . S
C4025 H4013 0.959 . S
C4025 C4023 1.561 . S
C4026 C4023 1.526 . S
C4026 C4027 1.396 . S
C4026 C4031 1.390 . S
C4027 C4021 1.465 . S
C4027 C4026 1.396 . S
C4027 C4028 1.399 . S
C4028 H4014 0.929 . S
C4028 C4027 1.399 . S
C4028 C4029 1.385 . S
C4029 H4015 0.931 . S
C4029 C4028 1.385 . S
C4029 C4030 1.389 . S
C4030 C4029 1.389 . S
C4030 C4031 1.387 . S
C4031 H4016 0.930 . S
C4031 C4026 1.390 . S
C4031 C4030 1.387 . S
H4032 C4044 0.930 . S
H4033 C4046 0.930 . S
H4034 C4047 0.930 . S
H4035 C4051 0.959 . S
H4036 C4051 0.959 . S
H4037 C4051 0.961 . S
H4038 C4052 0.960 . S
H4039 C4052 0.961 . S
H4040 C4052 0.959 . S
H4041 C4055 0.929 . S
H4042 C4056 0.931 . S
H4043 C4058 0.930 . S
C4044 H4032 0.930 . S
C4044 C4045 1.399 . S
C4044 C4049 1.399 . S
C4045 C4044 1.399 . S
C4045 C4046 1.376 . S
C4046 H4033 0.930 . S
C4046 C4045 1.376 . S
C4046 C4047 1.388 . S
C4047 H4034 0.930 . S
C4047 C4046 1.388 . S
C4047 C4048 1.390 . S
C4048 C4047 1.390 . S
C4048 C4049 1.394 . S
C4048 C4054 1.465 . S
C4049 C4044 1.399 . S
C4049 C4048 1.394 . S
C4049 C4050 1.516 . S
C4050 C4049 1.516 . S
C4050 C4051 1.502 . S
C4050 C4052 1.561 . S
C4050 C4053 1.526 . S
C4051 H4035 0.959 . S
C4051 H4036 0.959 . S
C4051 H4037 0.961 . S
C4051 C4050 1.502 . S
C4052 H4038 0.960 . S
C4052 H4039 0.961 . S
C4052 H4040 0.959 . S
C4052 C4050 1.561 . S
C4053 C4050 1.526 . S
C4053 C4054 1.396 . S
C4053 C4058 1.390 . S
C4054 C4048 1.465 . S
C4054 C4053 1.396 . S
C4054 C4055 1.399 . S
C4055 H4041 0.929 . S
C4055 C4054 1.399 . S
C4055 C4056 1.385 . S
C4056 H4042 0.931 . S
C4056 C4055 1.385 . S
C4056 C4057 1.389 . S
C4057 C4056 1.389 . S
C4057 C4058 1.387 . S
C4058 H4043 0.930 . S
C4058 C4053 1.390 . S
C4058 C4057 1.387 . S
H4059 C4071 0.930 . S
H4060 C4073 0.930 . S
H4061 C4074 0.930 . S
H4062 C4078 0.959 . S
H4063 C4078 0.959 . S
H4064 C4078 0.961 . S
H4065 C4079 0.960 . S
H4066 C4079 0.961 . S
H4067 C4079 0.959 . S
H4068 C4082 0.929 . S
H4069 C4083 0.931 . S
H4070 C4085 0.930 . S
C4071 H4059 0.930 . S
C4071 C4072 1.399 . S
C4071 C4076 1.399 . S
C4072 C4071 1.399 . S
C4072 C4073 1.376 . S
C4073 H4060 0.930 . S
C4073 C4072 1.376 . S
C4073 C4074 1.388 . S
C4074 H4061 0.930 . S
C4074 C4073 1.388 . S
C4074 C4075 1.390 . S
C4075 C4074 1.390 . S
C4075 C4076 1.394 . S
C4075 C4081 1.465 . S
C4076 C4071 1.399 . S
C4076 C4075 1.394 . S
C4076 C4077 1.516 . S
C4077 C4076 1.516 . S
C4077 C4078 1.502 . S
C4077 C4079 1.561 . S
C4077 C4080 1.526 . S
C4078 H4062 0.959 . S
C4078 H4063 0.959 . S
C4078 H4064 0.961 . S
C4078 C4077 1.502 . S
C4079 H4065 0.960 . S
C4079 H4066 0.961 . S
C4079 H4067 0.959 . S
C4079 C4077 1.561 . S
C4080 C4077 1.526 . S
C4080 C4081 1.396 . S
C4080 C4085 1.390 . S
C4081 C4075 1.465 . S
C4081 C4080 1.396 . S
C4081 C4082 1.399 . S
C4082 H4068 0.929 . S
C4082 C4081 1.399 . S
C4082 C4083 1.385 . S
C4083 H4069 0.931 . S
C4083 C4082 1.385 . S
C4083 C4084 1.389 . S
C4084 C4083 1.389 . S
C4084 C4085 1.387 . S
C4085 H4070 0.930 . S
C4085 C4080 1.390 . S
C4085 C4084 1.387 . S
H4086 C4098 0.930 . S
H4087 C4100 0.930 . S
H4088 C4101 0.930 . S
H4089 C4105 0.959 . S
H4090 C4105 0.959 . S
H4091 C4105 0.961 . S
H4092 C4106 0.960 . S
H4093 C4106 0.961 . S
H4094 C4106 0.959 . S
H4095 C4109 0.929 . S
H4096 C4110 0.931 . S
H4097 C4112 0.930 . S
C4098 H4086 0.930 . S
C4098 C4099 1.399 . S
C4098 C4103 1.399 . S
C4099 C4098 1.399 . S
C4099 C4100 1.376 . S
C4100 H4087 0.930 . S
C4100 C4099 1.376 . S
C4100 C4101 1.388 . S
C4101 H4088 0.930 . S
C4101 C4100 1.388 . S
C4101 C4102 1.390 . S
C4102 C4101 1.390 . S
C4102 C4103 1.394 . S
C4102 C4108 1.465 . S
C4103 C4098 1.399 . S
C4103 C4102 1.394 . S
C4103 C4104 1.516 . S
C4104 C4103 1.516 . S
C4104 C4105 1.502 . S
C4104 C4106 1.561 . S
C4104 C4107 1.526 . S
C4105 H4089 0.959 . S
C4105 H4090 0.959 . S
C4105 H4091 0.961 . S
C4105 C4104 1.502 . S
C4106 H4092 0.960 . S
C4106 H4093 0.961 . S
C4106 H4094 0.959 . S
C4106 C4104 1.561 . S
C4107 C4104 1.526 . S
C4107 C4108 1.396 . S
C4107 C4112 1.390 . S
C4108 C4102 1.465 . S
C4108 C4107 1.396 . S
C4108 C4109 1.399 . S
C4109 H4095 0.929 . S
C4109 C4108 1.399 . S
C4109 C4110 1.385 . S
C4110 H4096 0.931 . S
C4110 C4109 1.385 . S
C4110 C4111 1.389 . S
C4111 C4110 1.389 . S
C4111 C4112 1.387 . S
C4112 H4097 0.930 . S
C4112 C4107 1.390 . S
C4112 C4111 1.387 . S
H4113 C4125 0.930 . S
H4114 C4127 0.930 . S
H4115 C4128 0.930 . S
H4116 C4132 0.959 . S
H4117 C4132 0.959 . S
H4118 C4132 0.961 . S
H4119 C4133 0.960 . S
H4120 C4133 0.961 . S
H4121 C4133 0.959 . S
H4122 C4136 0.929 . S
H4123 C4137 0.931 . S
H4124 C4139 0.930 . S
C4125 H4113 0.930 . S
C4125 C4126 1.399 . S
C4125 C4130 1.399 . S
C4126 C4125 1.399 . S
C4126 C4127 1.376 . S
C4127 H4114 0.930 . S
C4127 C4126 1.376 . S
C4127 C4128 1.388 . S
C4128 H4115 0.930 . S
C4128 C4127 1.388 . S
C4128 C4129 1.390 . S
C4129 C4128 1.390 . S
C4129 C4130 1.394 . S
C4129 C4135 1.465 . S
C4130 C4125 1.399 . S
C4130 C4129 1.394 . S
C4130 C4131 1.516 . S
C4131 C4130 1.516 . S
C4131 C4132 1.502 . S
C4131 C4133 1.561 . S
C4131 C4134 1.526 . S
C4132 H4116 0.959 . S
C4132 H4117 0.959 . S
C4132 H4118 0.961 . S
C4132 C4131 1.502 . S
C4133 H4119 0.960 . S
C4133 H4120 0.961 . S
C4133 H4121 0.959 . S
C4133 C4131 1.561 . S
C4134 C4131 1.526 . S
C4134 C4135 1.396 . S
C4134 C4139 1.390 . S
C4135 C4129 1.465 . S
C4135 C4134 1.396 . S
C4135 C4136 1.399 . S
C4136 H4122 0.929 . S
C4136 C4135 1.399 . S
C4136 C4137 1.385 . S
C4137 H4123 0.931 . S
C4137 C4136 1.385 . S
C4137 C4138 1.389 . S
C4138 C4137 1.389 . S
C4138 C4139 1.387 . S
C4139 H4124 0.930 . S
C4139 C4134 1.390 . S
C4139 C4138 1.387 . S
H4140 C4152 0.930 . S
H4141 C4154 0.930 . S
H4142 C4155 0.930 . S
H4143 C4159 0.959 . S
H4144 C4159 0.959 . S
H4145 C4159 0.961 . S
H4146 C4160 0.960 . S
H4147 C4160 0.961 . S
H4148 C4160 0.959 . S
H4149 C4163 0.929 . S
H4150 C4164 0.931 . S
H4151 C4166 0.930 . S
C4152 H4140 0.930 . S
C4152 C4153 1.399 . S
C4152 C4157 1.399 . S
C4153 C4152 1.399 . S
C4153 C4154 1.376 . S
C4154 H4141 0.930 . S
C4154 C4153 1.376 . S
C4154 C4155 1.388 . S
C4155 H4142 0.930 . S
C4155 C4154 1.388 . S
C4155 C4156 1.390 . S
C4156 C4155 1.390 . S
C4156 C4157 1.394 . S
C4156 C4162 1.465 . S
C4157 C4152 1.399 . S
C4157 C4156 1.394 . S
C4157 C4158 1.516 . S
C4158 C4157 1.516 . S
C4158 C4159 1.502 . S
C4158 C4160 1.561 . S
C4158 C4161 1.526 . S
C4159 H4143 0.959 . S
C4159 H4144 0.959 . S
C4159 H4145 0.961 . S
C4159 C4158 1.502 . S
C4160 H4146 0.960 . S
C4160 H4147 0.961 . S
C4160 H4148 0.959 . S
C4160 C4158 1.561 . S
C4161 C4158 1.526 . S
C4161 C4162 1.396 . S
C4161 C4166 1.390 . S
C4162 C4156 1.465 . S
C4162 C4161 1.396 . S
C4162 C4163 1.399 . S
C4163 H4149 0.929 . S
C4163 C4162 1.399 . S
C4163 C4164 1.385 . S
C4164 H4150 0.931 . S
C4164 C4163 1.385 . S
C4164 C4165 1.389 . S
C4165 C4164 1.389 . S
C4165 C4166 1.387 . S
C4166 H4151 0.930 . S
C4166 C4161 1.390 . S
C4166 C4165 1.387 . S
H4167 C4179 0.930 . S
H4168 C4181 0.930 . S
H4169 C4182 0.930 . S
H4170 C4186 0.959 . S
H4171 C4186 0.959 . S
H4172 C4186 0.961 . S
H4173 C4187 0.960 . S
H4174 C4187 0.961 . S
H4175 C4187 0.959 1_455 S
H4176 C4190 0.929 . S
H4177 C4191 0.931 . S
H4178 C4193 0.930 . S
C4179 H4167 0.930 . S
C4179 C4180 1.399 . S
C4179 C4184 1.399 . S
C4180 C4179 1.399 . S
C4180 C4181 1.376 1_655 S
C4181 H4168 0.930 . S
C4181 C4180 1.376 1_455 S
C4181 C4182 1.388 . S
C4182 H4169 0.930 . S
C4182 C4181 1.388 . S
C4182 C4183 1.401 1_455 S
C4183 C4182 1.401 1_655 S
C4183 C4184 1.421 . S
C4183 C4189 1.427 1_655 S
C4184 C4179 1.399 . S
C4184 C4183 1.421 . S
C4184 C4185 1.516 . S
C4185 C4184 1.516 . S
C4185 C4186 1.502 . S
C4185 C4187 1.561 . S
C4185 C4188 1.526 . S
C4186 H4170 0.959 . S
C4186 H4171 0.959 . S
C4186 H4172 0.961 . S
C4186 C4185 1.502 . S
C4187 H4173 0.960 . S
C4187 H4174 0.961 . S
C4187 H4175 0.959 1_655 S
C4187 C4185 1.561 . S
C4188 C4185 1.526 . S
C4188 C4189 1.395 1_655 S
C4188 C4193 1.390 . S
C4189 C4183 1.427 1_455 S
C4189 C4188 1.395 1_455 S
C4189 C4190 1.407 . S
C4190 H4176 0.929 . S
C4190 C4189 1.407 . S
C4190 C4191 1.385 . S
C4191 H4177 0.931 . S
C4191 C4190 1.385 . S
C4191 C4192 1.389 1_455 S
C4192 C4191 1.389 1_655 S
C4192 C4193 1.387 . S
C4193 H4178 0.930 . S
C4193 C4188 1.390 . S
C4193 C4192 1.387 . S
H4194 C4206 0.930 . S
H4195 C4208 0.930 . S
H4196 C4209 0.930 . S
H4197 C4213 0.959 . S
H4198 C4213 0.959 . S
H4199 C4213 0.961 . S
H4200 C4214 0.960 . S
H4201 C4214 0.961 . S
H4202 C4214 0.959 . S
H4203 C4217 0.929 . S
H4204 C4218 0.931 . S
H4205 C4220 0.930 . S
C4206 H4194 0.930 . S
C4206 C4207 1.399 . S
C4206 C4211 1.399 . S
C4207 C4206 1.399 . S
C4207 C4208 1.376 . S
C4208 H4195 0.930 . S
C4208 C4207 1.376 . S
C4208 C4209 1.388 . S
C4209 H4196 0.930 . S
C4209 C4208 1.388 . S
C4209 C4210 1.390 . S
C4210 C4209 1.390 . S
C4210 C4211 1.394 . S
C4210 C4216 1.465 . S
C4211 C4206 1.399 . S
C4211 C4210 1.394 . S
C4211 C4212 1.516 . S
C4212 C4211 1.516 . S
C4212 C4213 1.502 . S
C4212 C4214 1.561 . S
C4212 C4215 1.526 . S
C4213 H4197 0.959 . S
C4213 H4198 0.959 . S
C4213 H4199 0.961 . S
C4213 C4212 1.502 . S
C4214 H4200 0.960 . S
C4214 H4201 0.961 . S
C4214 H4202 0.959 . S
C4214 C4212 1.561 . S
C4215 C4212 1.526 . S
C4215 C4216 1.396 . S
C4215 C4220 1.390 . S
C4216 C4210 1.465 . S
C4216 C4215 1.396 . S
C4216 C4217 1.399 . S
C4217 H4203 0.929 . S
C4217 C4216 1.399 . S
C4217 C4218 1.385 . S
C4218 H4204 0.931 . S
C4218 C4217 1.385 . S
C4218 C4219 1.389 . S
C4219 C4218 1.389 . S
C4219 C4220 1.387 . S
C4220 H4205 0.930 . S
C4220 C4215 1.390 . S
C4220 C4219 1.387 . S
H4221 C4233 0.930 . S
H4222 C4235 0.931 . S
H4223 C4236 0.934 . S
H4224 C4240 0.959 . S
H4225 C4240 0.959 . S
H4226 C4240 0.961 . S
H4227 C4241 0.960 . S
H4228 C4241 0.961 . S
H4229 C4241 0.959 . S
H4230 C4244 0.929 . S
H4231 C4245 0.931 . S
H4232 C4247 0.930 . S
C4233 H4221 0.930 . S
C4233 C4234 1.399 . S
C4233 C4238 1.399 . S
C4234 C4233 1.399 . S
C4234 C4235 1.376 . S
C4235 H4222 0.931 . S
C4235 C4234 1.376 . S
C4235 C4236 1.395 1_545 S
C4236 H4223 0.934 . S
C4236 C4235 1.395 1_565 S
C4236 C4237 1.380 1_565 S
C4237 C4236 1.380 1_545 S
C4237 C4238 1.394 . S
C4237 C4243 1.465 . S
C4238 C4233 1.399 . S
C4238 C4237 1.394 . S
C4238 C4239 1.516 . S
C4239 C4238 1.516 . S
C4239 C4240 1.502 . S
C4239 C4241 1.561 . S
C4239 C4242 1.526 . S
C4240 H4224 0.959 . S
C4240 H4225 0.959 . S
C4240 H4226 0.961 . S
C4240 C4239 1.502 . S
C4241 H4227 0.960 . S
C4241 H4228 0.961 . S
C4241 H4229 0.959 . S
C4241 C4239 1.561 . S
C4242 C4239 1.526 . S
C4242 C4243 1.396 . S
C4242 C4247 1.390 . S
C4243 C4237 1.465 . S
C4243 C4242 1.396 . S
C4243 C4244 1.399 1_545 S
C4244 H4230 0.929 . S
C4244 C4243 1.399 1_565 S
C4244 C4245 1.385 . S
C4245 H4231 0.931 . S
C4245 C4244 1.385 . S
C4245 C4246 1.372 1_565 S
C4246 C4245 1.372 1_545 S
C4246 C4247 1.390 . S
C4247 H4232 0.930 . S
C4247 C4242 1.390 . S
C4247 C4246 1.390 . S
C2317 C9 1.284 1_655 S
C2329 C1307 1.119 . S
C2344 C19 1.718 . S
C2356 C1447 1.043 . S
C2383 C1535 1.076 . S
C2371 C33 1.402 . S
C2398 C37 1.423 1_565 S
C2410 C1675 0.966 1_565 S
C2425 C5 1.387 . S
C2437 C1789 1.055 . S
C2452 C23 1.788 . S
C2464 C1877 1.319 . S
C2479 C47 1.351 . S
C2491 C1763 1.023 . S
C2518 C1903 1.441 . S
C2506 C65 1.679 . S
C2545 C1649 1.047 . S
C2533 C75 1.384 . S
C2560 C79 1.328 . S
C2572 C1561 1.107 1_565 S
C2599 C1333 1.075 . S
C2587 C51 1.374 . S
C2614 C61 1.642 . S
C2626 C1421 1.500 . S
C2641 C93 1.888 . S
C2653 C1991 1.305 . S
C2668 C103 1.814 . S
C2680 C2131 1.089 . S
C2707 C2219 1.389 . S
C2695 C117 1.783 . S
C2722 C121 1.847 . S
C2734 C307 1.267 . S
C2749 C89 1.836 . S
C2761 C421 1.273 . S
C2776 C107 1.858 . S
C2788 C509 1.399 . S
C2803 C131 1.576 . S
C2815 C395 1.477 . S
C2830 C149 1.746 . S
C2842 C535 1.527 . S
C2869 C281 1.464 . S
C2857 C159 1.672 . S
C2896 C2245 1.654 . S
C2884 C163 1.853 . S
C2923 C2017 1.519 . S
C2911 C135 1.769 . S
C2950 C2105 1.578 . S
C2938 C145 1.741 . S
C2965 C177 1.737 . S
C2977 C623 1.152 . S
C2992 C187 1.780 . S
C3004 C763 1.157 . S
C3019 C201 1.825 . S
C3031 C851 1.407 . S
C3046 C205 1.987 . S
C3058 C991 1.233 . S
C3085 C1105 1.246 . S
C3073 C173 1.807 . S
C3112 C1193 1.430 . S
C3100 C191 1.880 . S
C3139 C1079 1.613 . S
C3127 C215 1.740 . S
C3166 C1219 1.568 . S
C3154 C233 1.777 . S
C3181 C243 1.639 . S
C3193 C965 1.518 . S
C3220 C877 1.405 . S
C3208 C247 1.682 . S
C3235 C219 1.807 . S
C3247 C649 1.564 . S
C3274 C737 1.624 . S
C3262 C229 1.721 . S
C3301 C263 1.005 . S
C3289 C11 1.799 . S
C3316 C14 1.629 . S
C3328 C377 0.950 . S
C3355 C481 1.303 . S
C3343 C28 1.826 . S
C3382 C595 1.331 . S
C3370 C39 1.728 . S
C3409 C719 0.962 . S
C3397 C0 1.789 . S
C3436 C823 1.213 . S
C3424 C25 1.600 . S
C3451 C42 1.989 . S
C3463 C833 1.578 . S
C3478 C67 1.760 . S
C3490 C605 1.276 . S
C3505 C70 1.795 . S
C3517 C709 1.585 . S
C3532 C81 1.741 . S
C3544 C367 1.556 . S
C3571 C491 1.536 . S
C3559 C53 1.949 . S
C3586 C56 1.806 . S
C3598 C253 1.640 . S
C3625 C947 1.002 . S
C3613 C95 1.716 . S
C3640 C98 1.804 . S
C3652 C1061 1.031 . S
C3667 C112 1.885 . S
C3679 C1165 1.349 . S
C3706 C1279 0.955 . S
C3694 C123 1.264 . S
C3721 C84 1.696 . S
C3733 C1403 0.895 . S
C3748 C109 1.269 . S
C3760 C1507 1.021 . S
C3775 C126 1.500 . S
C3787 C1517 1.008 1_565 S
C3802 C151 1.354 . S
C3814 C1289 0.964 1_455 S
C3841 C1393 1.467 . S
C3829 C154 1.738 . S
C3856 C165 1.682 . S
C3868 C1051 1.527 . S
C3883 C137 1.928 . S
C3895 C1175 1.543 . S
C3922 C937 1.775 . S
C3910 C140 1.964 . S
C3949 C1631 0.812 . S
C3937 C179 1.406 . S
C3964 C182 1.291 . S
C3976 C1745 0.934 . S
C3991 C196 1.739 . S
C4003 C1849 1.331 . S
C4030 C1963 1.271 . S
C4018 C207 1.662 . S
C4057 C2087 1.025 . S
C4045 C168 1.803 . S
C4072 C193 1.773 . S
C4084 C2191 1.292 . S
C4099 C210 1.924 . S
C4111 C2201 1.394 . S
C4126 C235 1.927 . S
C4138 C1973 1.524 . S
C4165 C2077 1.647 . S
C4153 C238 1.831 . S
C4192 C1735 1.040 1_655 S
C4180 C249 1.212 . S
C4219 C1859 1.329 . S
C4207 C221 1.829 . S
C4234 C224 1.394 . S
C4246 C1621 1.061 1_545 S
