# Generated by pormake.
# Topology csq, (4,8)-cn, num edge types: 1
# Building blocks:
#     Node 0, Type 0, BuildingBlock: NAHDIM_clean_linker_0, # of connection points: 4
#     Node 1, Type 0, BuildingBlock: NAHDIM_clean_linker_0, # of connection points: 4
#     Node 2, Type 0, BuildingBlock: NAHDIM_clean_linker_0, # of connection points: 4
#     Node 3, Type 0, BuildingBlock: NAHDIM_clean_linker_0, # of connection points: 4
#     Node 4, Type 0, BuildingBlock: NAHDIM_clean_linker_0, # of connection points: 4
#     Node 5, Type 0, BuildingBlock: NAHDIM_clean_linker_0, # of connection points: 4
#     Node 6, Type 1, BuildingBlock: TAGTUT_clean_sbu_3, # of connection points: 8
#     Node 7, Type 1, BuildingBlock: TAGTUT_clean_sbu_3, # of connection points: 8
#     Node 8, Type 1, BuildingBlock: TAGTUT_clean_sbu_3, # of connection points: 8
#     Edge 9, Type (0, 1), BuildingBlock: XIVTED_clean_linker_0, # of connection points: 2
#     Edge 10, Type (0, 1), BuildingBlock: XIVTED_clean_linker_0, # of connection points: 2
#     Edge 11, Type (0, 1), BuildingBlock: XIVTED_clean_linker_0, # of connection points: 2
#     Edge 12, Type (0, 1), BuildingBlock: XIVTED_clean_linker_0, # of connection points: 2
#     Edge 13, Type (0, 1), BuildingBlock: XIVTED_clean_linker_0, # of connection points: 2
#     Edge 14, Type (0, 1), BuildingBlock: XIVTED_clean_linker_0, # of connection points: 2
#     Edge 15, Type (0, 1), BuildingBlock: XIVTED_clean_linker_0, # of connection points: 2
#     Edge 16, Type (0, 1), BuildingBlock: XIVTED_clean_linker_0, # of connection points: 2
#     Edge 17, Type (0, 1), BuildingBlock: XIVTED_clean_linker_0, # of connection points: 2
#     Edge 18, Type (0, 1), BuildingBlock: XIVTED_clean_linker_0, # of connection points: 2
#     Edge 19, Type (0, 1), BuildingBlock: XIVTED_clean_linker_0, # of connection points: 2
#     Edge 20, Type (0, 1), BuildingBlock: XIVTED_clean_linker_0, # of connection points: 2
#     Edge 21, Type (0, 1), BuildingBlock: XIVTED_clean_linker_0, # of connection points: 2
#     Edge 22, Type (0, 1), BuildingBlock: XIVTED_clean_linker_0, # of connection points: 2
#     Edge 23, Type (0, 1), BuildingBlock: XIVTED_clean_linker_0, # of connection points: 2
#     Edge 24, Type (0, 1), BuildingBlock: XIVTED_clean_linker_0, # of connection points: 2
#     Edge 25, Type (0, 1), BuildingBlock: XIVTED_clean_linker_0, # of connection points: 2
#     Edge 26, Type (0, 1), BuildingBlock: XIVTED_clean_linker_0, # of connection points: 2
#     Edge 27, Type (0, 1), BuildingBlock: XIVTED_clean_linker_0, # of connection points: 2
#     Edge 28, Type (0, 1), BuildingBlock: XIVTED_clean_linker_0, # of connection points: 2
#     Edge 29, Type (0, 1), BuildingBlock: XIVTED_clean_linker_0, # of connection points: 2
#     Edge 30, Type (0, 1), BuildingBlock: XIVTED_clean_linker_0, # of connection points: 2
#     Edge 31, Type (0, 1), BuildingBlock: XIVTED_clean_linker_0, # of connection points: 2
#     Edge 32, Type (0, 1), BuildingBlock: XIVTED_clean_linker_0, # of connection points: 2
# Relax obj value: 0.052
# Max RMSD: 0.123
# Mean RMSD: 0.093
data_MOF--net-csq--node1-TAGTUT_clean_sbu_3--node2-NAHDIM_clean_linker_0--edge1-XIVTED_clean_linker_0
_symmetry_space_group_name_H-M    P1
_symmetry_Int_Tables_number       1
_symmetry_cell_setting            triclinic
loop_
_symmetry_equiv_pos_as_xyz
'x, y, z'
_cell_length_a     68.292844
_cell_length_b     67.568321
_cell_length_c     26.409044
_cell_angle_alpha  92.342054
_cell_angle_beta   92.256415
_cell_angle_gamma 119.934
loop_
_atom_site_label
_atom_site_type_symbol
_atom_site_fract_x
_atom_site_fract_y
_atom_site_fract_z
_atom_type_partial_charge
C0 C 0.33575 0.53262 0.47246 0.0
C1 C 0.32905 0.51226 0.43425 0.0
C2 C 0.3048 0.5039 0.35704 0.0
C3 C 0.29404 0.4799 0.35472 0.0
C4 C 0.27364 0.46641 0.32517 0.0
C5 C 0.2638 0.47717 0.29761 0.0
C6 C 0.27487 0.50137 0.29913 0.0
C7 C 0.29546 0.51441 0.32827 0.0
C8 C 0.26253 0.44067 0.32349 0.0
C9 C 0.26479 0.51343 0.27057 0.0
C10 C 0.12728 0.41693 0.48961 0.0
C11 C 0.13507 0.4325 0.44549 0.0
C12 C 0.14638 0.4246 0.365 0.0
C13 C 0.1582 0.4468 0.34862 0.0
C14 C 0.1751 0.45261 0.31437 0.0
C15 C 0.18063 0.43597 0.29726 0.0
C16 C 0.16822 0.41334 0.31271 0.0
C17 C 0.15083 0.40783 0.34559 0.0
C18 C 0.18752 0.47675 0.2978 0.0
C19 C 0.17392 0.39525 0.29627 0.0
C20 C 0.12969 0.388 0.96961 0.0
C21 C 0.13851 0.411 0.98663 0.0
C22 C 0.16 0.42347 0.01246 0.0
C23 C 0.17256 0.41243 0.02304 0.0
C24 C 0.16389 0.38936 0.0048 0.0
C25 C 0.1427 0.37758 0.97743 0.0
C26 C 0.16915 0.44839 0.02874 0.0
C27 C 0.17677 0.377 0.01502 0.0
C28 C 0.35346 0.51099 0.03388 0.0
C29 C 0.34046 0.48791 0.00308 0.0
C30 C 0.30014 0.47509 0.99118 0.0
C31 C 0.2872 0.48579 0.98833 0.0
C32 C 0.26545 0.47554 0.00622 0.0
C33 C 0.25637 0.45379 0.0262 0.0
C34 C 0.26865 0.44202 0.02504 0.0
C35 C 0.29053 0.45287 0.00767 0.0
C36 C 0.25269 0.48843 0.00631 0.0
C37 C 0.25909 0.41848 0.04442 0.0
C38 C 0.2418 0.46316 0.26768 0.0
C39 C 0.22201 0.45525 0.29319 0.0
C40 C 0.20066 0.44287 0.26716 0.0
C41 C 0.19888 0.43801 0.21402 0.0
C42 C 0.17772 0.42579 0.18645 0.0
C43 C 0.17623 0.42105 0.13416 0.0
C44 C 0.19585 0.42891 0.10717 0.0
C45 C 0.19458 0.42486 0.05372 0.0
C46 C 0.2145 0.43293 0.02833 0.0
C47 C 0.23573 0.44499 0.05487 0.0
C48 C 0.23734 0.44929 0.10813 0.0
C49 C 0.25851 0.46161 0.13577 0.0
C50 C 0.26 0.46592 0.18803 0.0
C51 C 0.24039 0.45834 0.2147 0.0
C52 C 0.21886 0.44578 0.18775 0.0
C53 C 0.21734 0.44126 0.13432 0.0
C54 C 0.06939 0.35179 0.95635 0.0
C55 C 0.08973 0.37612 0.9602 0.0
O56 O 0.32406 0.51735 0.38688 0.0
O57 O 0.32172 0.48659 0.97722 0.0
O58 O 0.10869 0.37544 0.94583 0.0
O59 O 0.13119 0.41918 0.40085 0.0
H60 H 0.31367 0.4977 0.44852 0.0
H61 H 0.32123 0.53558 0.47583 0.0
H62 H 0.35029 0.54849 0.4601 0.0
H63 H 0.34034 0.52909 0.51052 0.0
H64 H 0.30162 0.47169 0.37575 0.0
H65 H 0.30403 0.53295 0.33001 0.0
H66 H 0.24597 0.4335 0.34074 0.0
H67 H 0.2731 0.43495 0.34418 0.0
H68 H 0.25916 0.43352 0.28342 0.0
H69 H 0.27467 0.53231 0.27863 0.0
H70 H 0.24711 0.50712 0.28082 0.0
H71 H 0.2642 0.50954 0.22912 0.0
H72 H 0.1536 0.44456 0.4534 0.0
H73 H 0.13049 0.42721 0.52608 0.0
H74 H 0.13683 0.40762 0.49218 0.0
H75 H 0.10891 0.40415 0.48391 0.0
H76 H 0.15433 0.45962 0.36299 0.0
H77 H 0.14142 0.39069 0.35839 0.0
H78 H 0.18969 0.47666 0.25635 0.0
H79 H 0.20464 0.48612 0.31783 0.0
H80 H 0.17852 0.48623 0.30665 0.0
H81 H 0.16419 0.37922 0.31578 0.0
H82 H 0.19229 0.40173 0.30423 0.0
H83 H 0.17007 0.39111 0.25472 0.0
H84 H 0.09222 0.38237 0.001 0.0
H85 H 0.12871 0.41929 0.97937 0.0
H86 H 0.13581 0.35989 0.96357 0.0
H87 H 0.16803 0.45024 0.0703 0.0
H88 H 0.15947 0.45545 0.00934 0.0
H89 H 0.18725 0.45876 0.02062 0.0
H90 H 0.16666 0.35847 0.0029 0.0
H91 H 0.18191 0.37892 0.05617 0.0
H92 H 0.19244 0.38472 0.99421 0.0
H93 H 0.33533 0.47424 0.03017 0.0
H94 H 0.36833 0.51238 0.05597 0.0
H95 H 0.34225 0.51262 0.06106 0.0
H96 H 0.35936 0.52529 0.00839 0.0
H97 H 0.29465 0.50273 0.97425 0.0
H98 H 0.30014 0.44407 0.00736 0.0
H99 H 0.25019 0.49224 0.04606 0.0
H100 H 0.23568 0.47769 0.98641 0.0
H101 H 0.26175 0.50479 0.98763 0.0
H102 H 0.26907 0.41024 0.03383 0.0
H103 H 0.24124 0.40732 0.02925 0.0
H104 H 0.25917 0.41982 0.08648 0.0
H105 H 0.22324 0.45908 0.33391 0.0
H106 H 0.16206 0.41966 0.20504 0.0
H107 H 0.15947 0.41131 0.11512 0.0
H108 H 0.21347 0.42994 0.98738 0.0
H109 H 0.27426 0.46814 0.11742 0.0
H110 H 0.27675 0.4754 0.2072 0.0
H111 H 0.06626 0.34383 0.91704 0.0
H112 H 0.05396 0.35195 0.96759 0.0
H113 H 0.07267 0.34108 0.98232 0.0
C114 C 0.85981 0.29766 0.44006 0.0
C115 C 0.87549 0.31512 0.40415 0.0
C116 C 0.85102 0.30053 0.32495 0.0
C117 C 0.85715 0.28456 0.30768 0.0
C118 C 0.84391 0.26768 0.26893 0.0
C119 C 0.82389 0.26642 0.24792 0.0
C120 C 0.81798 0.28282 0.2645 0.0
C121 C 0.83197 0.29999 0.30205 0.0
C122 C 0.85099 0.25075 0.25157 0.0
C123 C 0.79644 0.2817 0.2442 0.0
C124 C 0.7238 0.12016 0.40766 0.0
C125 C 0.71715 0.1295 0.36236 0.0
C126 C 0.74026 0.14746 0.29178 0.0
C127 C 0.73237 0.16267 0.28242 0.0
C128 C 0.74458 0.18161 0.25384 0.0
C129 C 0.76499 0.18526 0.23404 0.0
C130 C 0.77247 0.16943 0.24161 0.0
C131 C 0.75983 0.15056 0.27009 0.0
C132 C 0.73588 0.19791 0.24538 0.0
C133 C 0.79403 0.17274 0.22049 0.0
C134 C 0.71702 0.14379 0.92719 0.0
C135 C 0.71102 0.16035 0.94001 0.0
C136 C 0.72762 0.18257 0.95824 0.0
C137 C 0.7506 0.18832 0.96303 0.0
C138 C 0.75683 0.17231 0.94547 0.0
C139 C 0.73989 0.15021 0.9276 0.0
C140 C 0.7205 0.1995 0.97526 0.0
C141 C 0.78122 0.17803 0.94899 0.0
C142 C 0.82962 0.36197 0.94099 0.0
C143 C 0.84751 0.35497 0.93291 0.0
C144 C 0.82771 0.31359 0.9298 0.0
C145 C 0.80547 0.30445 0.94387 0.0
C146 C 0.79477 0.28372 0.96739 0.0
C147 C 0.80641 0.27156 0.97552 0.0
C148 C 0.82862 0.28035 0.95939 0.0
C149 C 0.83906 0.30139 0.93681 0.0
C150 C 0.77098 0.27477 0.98333 0.0
C151 C 0.84128 0.26754 0.96609 0.0
C152 C 0.80785 0.24637 0.21355 0.0
C153 C 0.7946 0.22584 0.23599 0.0
C154 C 0.77887 0.2061 0.20699 0.0
C155 C 0.77617 0.20664 0.15393 0.0
C156 C 0.76052 0.18699 0.1238 0.0
C157 C 0.75773 0.18771 0.07172 0.0
C158 C 0.77038 0.20817 0.04768 0.0
C159 C 0.76728 0.20908 0.99477 0.0
C160 C 0.77966 0.22976 0.97212 0.0
C161 C 0.79527 0.24976 0.00114 0.0
C162 C 0.79898 0.24905 0.05405 0.0
C163 C 0.81481 0.26867 0.08438 0.0
C164 C 0.81814 0.26776 0.13646 0.0
C165 C 0.8053 0.24738 0.16044 0.0
C166 C 0.78933 0.22739 0.13057 0.0
C167 C 0.78633 0.22819 0.07734 0.0
C168 C 0.67601 0.0882 0.95472 0.0
C169 C 0.67938 0.10953 0.92941 0.0
O170 O 0.86281 0.3166 0.36365 0.0
O171 O 0.8379 0.33359 0.90696 0.0
O172 O 0.70143 0.12148 0.91482 0.0
O173 O 0.72963 0.12983 0.32197 0.0
H174 H 0.88744 0.30985 0.39008 0.0
H175 H 0.8501 0.28042 0.41981 0.0
H176 H 0.84766 0.30261 0.45439 0.0
H177 H 0.86984 0.29656 0.47287 0.0
H178 H 0.87216 0.28509 0.3241 0.0
H179 H 0.82753 0.31253 0.31539 0.0
H180 H 0.84001 0.23409 0.26767 0.0
H181 H 0.86887 0.25658 0.26412 0.0
H182 H 0.84886 0.24787 0.20952 0.0
H183 H 0.79325 0.2944 0.26465 0.0
H184 H 0.78173 0.26432 0.24745 0.0
H185 H 0.79752 0.28507 0.20336 0.0
H186 H 0.72149 0.14723 0.37518 0.0
H187 H 0.7139 0.11962 0.44052 0.0
H188 H 0.74208 0.1315 0.41918 0.0
H189 H 0.72077 0.10267 0.3978 0.0
H190 H 0.71673 0.15986 0.29751 0.0
H191 H 0.76558 0.13851 0.27695 0.0
H192 H 0.73409 0.19961 0.20406 0.0
H193 H 0.74829 0.21514 0.26313 0.0
H194 H 0.71927 0.19217 0.26161 0.0
H195 H 0.79735 0.15867 0.22905 0.0
H196 H 0.80857 0.18921 0.23671 0.0
H197 H 0.79305 0.17368 0.17867 0.0
H198 H 0.6761 0.11982 0.95822 0.0
H199 H 0.69343 0.15594 0.93686 0.0
H200 H 0.74438 0.13747 0.91625 0.0
H201 H 0.72363 0.20297 0.01713 0.0
H202 H 0.7023 0.19313 0.96508 0.0
H203 H 0.73082 0.21596 0.95779 0.0
H204 H 0.78363 0.16502 0.92742 0.0
H205 H 0.78688 0.17892 0.98944 0.0
H206 H 0.79219 0.19506 0.93435 0.0
H207 H 0.85496 0.35442 0.97081 0.0
H208 H 0.83776 0.38006 0.95654 0.0
H209 H 0.81778 0.35127 0.96897 0.0
H210 H 0.8199 0.36001 0.90458 0.0
H211 H 0.79641 0.31345 0.93612 0.0
H212 H 0.8561 0.30843 0.92462 0.0
H213 H 0.76997 0.27043 0.02361 0.0
H214 H 0.75924 0.25886 0.9598 0.0
H215 H 0.76514 0.28732 0.97888 0.0
H216 H 0.85757 0.27564 0.94756 0.0
H217 H 0.83068 0.24959 0.94997 0.0
H218 H 0.84487 0.26697 0.0072 0.0
H219 H 0.79643 0.22526 0.27684 0.0
H220 H 0.75021 0.1708 0.14016 0.0
H221 H 0.74536 0.17197 0.0507 0.0
H222 H 0.77684 0.23038 0.93164 0.0
H223 H 0.82489 0.28493 0.06818 0.0
H224 H 0.83069 0.28331 0.15786 0.0
H225 H 0.65852 0.07834 0.96725 0.0
H226 H 0.68809 0.09332 0.98864 0.0
H227 H 0.67904 0.07701 0.92804 0.0
C228 C 0.50806 0.80013 0.33533 0.0
C229 C 0.52545 0.82315 0.31653 0.0
C230 C 0.52984 0.81476 0.22867 0.0
C231 C 0.55289 0.82155 0.22959 0.0
C232 C 0.56091 0.81179 0.19395 0.0
C233 C 0.54549 0.79483 0.15682 0.0
C234 C 0.5224 0.78876 0.15444 0.0
C235 C 0.51493 0.7991 0.19006 0.0
C236 C 0.58573 0.81907 0.1969 0.0
C237 C 0.50546 0.77067 0.11561 0.0
C238 C 0.58201 0.69253 0.31406 0.0
C239 C 0.55847 0.68341 0.28729 0.0
C240 C 0.5606 0.69763 0.2044 0.0
C241 C 0.54139 0.69322 0.17437 0.0
C242 C 0.54162 0.7101 0.14475 0.0
C243 C 0.5616 0.73172 0.14533 0.0
C244 C 0.58135 0.73585 0.17412 0.0
C245 C 0.58065 0.71861 0.20311 0.0
C246 C 0.52036 0.70509 0.11402 0.0
C247 C 0.60297 0.75865 0.17526 0.0
C248 C 0.61421 0.73776 0.82463 0.0
C249 C 0.59095 0.72704 0.83061 0.0
C250 C 0.58204 0.73756 0.86174 0.0
C251 C 0.59692 0.75898 0.88817 0.0
C252 C 0.62052 0.76963 0.88251 0.0
C253 C 0.62884 0.75896 0.85018 0.0
C254 C 0.55676 0.72602 0.86555 0.0
C255 C 0.63694 0.79242 0.91 0.0
C256 C 0.5818 0.90158 0.88509 0.0
C257 C 0.5861 0.89464 0.83236 0.0
C258 C 0.57541 0.85482 0.84645 0.0
C259 C 0.55731 0.83236 0.84055 0.0
C260 C 0.55798 0.8148 0.86563 0.0
C261 C 0.57743 0.81989 0.8969 0.0
C262 C 0.59607 0.84248 0.90217 0.0
C263 C 0.59489 0.85975 0.87688 0.0
C264 C 0.53788 0.79083 0.859 0.0
C265 C 0.6172 0.84834 0.9346 0.0
C266 C 0.55306 0.7817 0.12461 0.0
C267 C 0.55395 0.76361 0.1461 0.0
C268 C 0.56128 0.75057 0.11926 0.0
C269 C 0.56808 0.75563 0.06936 0.0
C270 C 0.576 0.74312 0.04168 0.0
C271 C 0.58274 0.74832 0.99259 0.0
C272 C 0.58137 0.76591 0.96898 0.0
C273 C 0.5878 0.77111 0.91879 0.0
C274 C 0.58611 0.78864 0.89657 0.0
C275 C 0.57847 0.80146 0.92319 0.0
C276 C 0.57215 0.79673 0.97352 0.0
C277 C 0.56462 0.80951 0.00159 0.0
C278 C 0.55853 0.80477 0.05124 0.0
C279 C 0.55943 0.78686 0.0744 0.0
C280 C 0.56698 0.77374 0.04672 0.0
C281 C 0.57347 0.77877 0.99635 0.0
C282 C 0.64748 0.7126 0.79098 0.0
C283 C 0.62487 0.70939 0.80725 0.0
O284 O 0.52155 0.82304 0.2645 0.0
O285 O 0.57322 0.87111 0.82251 0.0
O286 O 0.62273 0.72783 0.79391 0.0
O287 O 0.5595 0.68162 0.23509 0.0
H288 H 0.54259 0.82558 0.32565 0.0
H289 H 0.50978 0.78613 0.31643 0.0
H290 H 0.49056 0.79672 0.32655 0.0
H291 H 0.51091 0.80002 0.37702 0.0
H292 H 0.56463 0.83442 0.25821 0.0
H293 H 0.49721 0.79428 0.18927 0.0
H294 H 0.58791 0.8049 0.21044 0.0
H295 H 0.59596 0.8345 0.22325 0.0
H296 H 0.59239 0.82271 0.15863 0.0
H297 H 0.48813 0.76799 0.11856 0.0
H298 H 0.50495 0.75419 0.12071 0.0
H299 H 0.51077 0.77565 0.07678 0.0
H300 H 0.55239 0.69553 0.2975 0.0
H301 H 0.58091 0.69203 0.35592 0.0
H302 H 0.59338 0.71061 0.30605 0.0
H303 H 0.58959 0.68214 0.30119 0.0
H304 H 0.52607 0.67677 0.17533 0.0
H305 H 0.59569 0.72159 0.22508 0.0
H306 H 0.5242 0.70934 0.07411 0.0
H307 H 0.51387 0.71604 0.12976 0.0
H308 H 0.50684 0.68688 0.11427 0.0
H309 H 0.61697 0.75899 0.1989 0.0
H310 H 0.59997 0.77238 0.19064 0.0
H311 H 0.60834 0.7626 0.13606 0.0
H312 H 0.62558 0.70891 0.84947 0.0
H313 H 0.57977 0.71068 0.81015 0.0
H314 H 0.64682 0.76702 0.84502 0.0
H315 H 0.55263 0.72111 0.90496 0.0
H316 H 0.54742 0.7104 0.83932 0.0
H317 H 0.55067 0.73807 0.85679 0.0
H318 H 0.65482 0.79666 0.90773 0.0
H319 H 0.63328 0.79244 0.95061 0.0
H320 H 0.63494 0.80608 0.89281 0.0
H321 H 0.60437 0.90027 0.83051 0.0
H322 H 0.59187 0.92046 0.89292 0.0
H323 H 0.58686 0.89377 0.91532 0.0
H324 H 0.56355 0.8959 0.88739 0.0
H325 H 0.54244 0.82871 0.81674 0.0
H326 H 0.60922 0.87697 0.88118 0.0
H327 H 0.5317 0.78467 0.89668 0.0
H328 H 0.54309 0.7791 0.8415 0.0
H329 H 0.52372 0.78984 0.83471 0.0
H330 H 0.63044 0.86665 0.93398 0.0
H331 H 0.62428 0.83758 0.92109 0.0
H332 H 0.61292 0.84452 0.97448 0.0
H333 H 0.54892 0.75966 0.18456 0.0
H334 H 0.57718 0.72925 0.0578 0.0
H335 H 0.58887 0.73826 0.97321 0.0
H336 H 0.59101 0.79251 0.85801 0.0
H337 H 0.56343 0.82339 0.98551 0.0
H338 H 0.55297 0.81521 0.07119 0.0
H339 H 0.64921 0.69764 0.80033 0.0
H340 H 0.66164 0.72816 0.8116 0.0
H341 H 0.64894 0.71474 0.74958 0.0
C342 C 0.89657 0.61563 0.41008 0.0
C343 C 0.88819 0.5963 0.36818 0.0
C344 C 0.86852 0.59619 0.28887 0.0
C345 C 0.85207 0.57281 0.28421 0.0
C346 C 0.83225 0.56483 0.25257 0.0
C347 C 0.82902 0.58051 0.22466 0.0
C348 C 0.84613 0.60384 0.22716 0.0
C349 C 0.86578 0.61134 0.25907 0.0
C350 C 0.81456 0.53974 0.24954 0.0
C351 C 0.84338 0.62093 0.19713 0.0
C352 C 0.67908 0.58384 0.3449 0.0
C353 C 0.699 0.59006 0.31517 0.0
C354 C 0.71695 0.57122 0.27155 0.0
C355 C 0.73588 0.59139 0.25795 0.0
C356 C 0.75321 0.59052 0.23286 0.0
C357 C 0.75181 0.56912 0.2222 0.0
C358 C 0.73313 0.54889 0.23746 0.0
C359 C 0.71578 0.55021 0.26124 0.0
C360 C 0.77288 0.61243 0.21711 0.0
C361 C 0.73135 0.52584 0.22814 0.0
C362 C 0.69557 0.5341 0.91132 0.0
C363 C 0.71536 0.55576 0.91675 0.0
C364 C 0.73585 0.55833 0.9368 0.0
C365 C 0.73658 0.53892 0.95236 0.0
C366 C 0.71708 0.51695 0.94446 0.0
C367 C 0.6968 0.51482 0.92371 0.0
C368 C 0.75649 0.58197 0.94359 0.0
C369 C 0.71743 0.49593 0.96021 0.0
C370 C 0.87241 0.5662 0.80281 0.0
C371 C 0.8813 0.56247 0.85371 0.0
C372 C 0.84735 0.54583 0.90257 0.0
C373 C 0.84643 0.56609 0.91039 0.0
C374 C 0.82901 0.56622 0.9365 0.0
C375 C 0.81221 0.54576 0.95554 0.0
C376 C 0.81301 0.52536 0.94774 0.0
C377 C 0.8306 0.52569 0.92134 0.0
C378 C 0.82859 0.58828 0.94401 0.0
C379 C 0.79535 0.50328 0.96765 0.0
C380 C 0.80731 0.57282 0.19485 0.0
C381 C 0.78998 0.57357 0.21971 0.0
C382 C 0.76945 0.56779 0.19358 0.0
C383 C 0.76605 0.56113 0.14107 0.0
C384 C 0.74588 0.55589 0.11327 0.0
C385 C 0.7427 0.5494 0.06168 0.0
C386 C 0.75965 0.54807 0.03568 0.0
C387 C 0.75679 0.54217 0.98285 0.0
C388 C 0.77392 0.54101 0.95803 0.0
C389 C 0.79415 0.54593 0.98464 0.0
C390 C 0.79741 0.5521 0.03744 0.0
C391 C 0.81768 0.55752 0.06521 0.0
C392 C 0.82097 0.56425 0.11681 0.0
C393 C 0.80404 0.56564 0.14268 0.0
C394 C 0.78335 0.55987 0.11566 0.0
C395 C 0.78008 0.55319 0.06296 0.0
C396 C 0.64803 0.5422 0.86654 0.0
C397 C 0.67065 0.54905 0.89055 0.0
O398 O 0.88707 0.60476 0.32192 0.0
O399 O 0.86385 0.54486 0.87714 0.0
O400 O 0.67509 0.5313 0.89543 0.0
O401 O 0.69939 0.57116 0.29404 0.0
H402 H 0.87107 0.58302 0.37829 0.0
H403 H 0.88431 0.62184 0.41226 0.0
H404 H 0.9133 0.63028 0.40227 0.0
H405 H 0.89805 0.60934 0.44747 0.0
H406 H 0.85461 0.56078 0.30535 0.0
H407 H 0.8788 0.62926 0.26225 0.0
H408 H 0.79864 0.53762 0.2641 0.0
H409 H 0.82006 0.52956 0.27182 0.0
H410 H 0.81072 0.53278 0.20931 0.0
H411 H 0.85853 0.63834 0.20222 0.0
H412 H 0.82845 0.62186 0.20917 0.0
H413 H 0.84022 0.61524 0.15611 0.0
H414 H 0.70305 0.60394 0.28901 0.0
H415 H 0.69387 0.59492 0.42511 0.0
H416 H 0.66603 0.56546 0.33291 0.0
H417 H 0.66949 0.59116 0.3247 0.0
H418 H 0.73706 0.60779 0.26597 0.0
H419 H 0.70119 0.53477 0.27219 0.0
H420 H 0.77525 0.61069 0.17613 0.0
H421 H 0.78864 0.61586 0.23879 0.0
H422 H 0.77046 0.62738 0.22404 0.0
H423 H 0.71763 0.51239 0.24886 0.0
H424 H 0.74763 0.52685 0.24 0.0
H425 H 0.72777 0.5206 0.18692 0.0
H426 H 0.67616 0.56122 0.92492 0.0
H427 H 0.71488 0.57085 0.90641 0.0
H428 H 0.68158 0.49816 0.91881 0.0
H429 H 0.76051 0.58744 0.98469 0.0
H430 H 0.75392 0.59484 0.9241 0.0
H431 H 0.77135 0.58175 0.92861 0.0
H432 H 0.70132 0.47992 0.94849 0.0
H433 H 0.72038 0.49707 0.00215 0.0
H434 H 0.73162 0.49504 0.94327 0.0
H435 H 0.88883 0.57852 0.87879 0.0
H436 H 0.88645 0.5802 0.78388 0.0
H437 H 0.85934 0.57109 0.80861 0.0
H438 H 0.86472 0.5503 0.77725 0.0
H439 H 0.85916 0.58192 0.89631 0.0
H440 H 0.83138 0.51014 0.91518 0.0
H441 H 0.83028 0.59325 0.98523 0.0
H442 H 0.8121 0.58578 0.92851 0.0
H443 H 0.84241 0.60257 0.92527 0.0
H444 H 0.79838 0.48887 0.9586 0.0
H445 H 0.77831 0.49872 0.95101 0.0
H446 H 0.79526 0.50556 0.0095 0.0
H447 H 0.79259 0.57897 0.25987 0.0
H448 H 0.73231 0.55682 0.131 0.0
H449 H 0.72677 0.54554 0.04247 0.0
H450 H 0.77174 0.53682 0.91735 0.0
H451 H 0.83131 0.55678 0.04729 0.0
H452 H 0.83695 0.56837 0.13618 0.0
H453 H 0.65588 0.55877 0.79251 0.0
H454 H 0.63919 0.54642 0.89677 0.0
H455 H 0.63718 0.52304 0.8684 0.0
C456 C 0.27516 0.88646 0.76767 0.0
C457 C 0.29142 0.89282 0.81499 0.0
C458 C 0.27273 0.85824 0.86318 0.0
C459 C 0.25609 0.86231 0.8827 0.0
C460 C 0.23975 0.84657 0.91299 0.0
C461 C 0.23979 0.82619 0.92318 0.0
C462 C 0.25618 0.82181 0.90261 0.0
C463 C 0.2726 0.83806 0.87342 0.0
C464 C 0.22251 0.85176 0.9344 0.0
C465 C 0.25639 0.79999 0.91158 0.0
C466 C 0.08399 0.72374 0.75732 0.0
C467 C 0.10247 0.72163 0.78691 0.0
C468 C 0.12209 0.73869 0.8699 0.0
C469 C 0.13959 0.73361 0.86649 0.0
C470 C 0.15935 0.74529 0.89887 0.0
C471 C 0.16193 0.76286 0.93435 0.0
C472 C 0.14403 0.76757 0.93874 0.0
C473 C 0.12408 0.75496 0.90719 0.0
C474 C 0.1778 0.73935 0.89388 0.0
C475 C 0.14631 0.78658 0.97499 0.0
C476 C 0.15579 0.72919 0.27012 0.0
C477 C 0.1689 0.72254 0.2423 0.0
C478 C 0.18452 0.73738 0.20948 0.0
C479 C 0.1871 0.75932 0.20456 0.0
C480 C 0.1742 0.76621 0.23334 0.0
C481 C 0.15885 0.7511 0.2662 0.0
C482 C 0.19847 0.72975 0.18045 0.0
C483 C 0.17668 0.78956 0.22938 0.0
C484 C 0.35078 0.90171 0.18675 0.0
C485 C 0.34323 0.8943 0.24002 0.0
C486 C 0.30983 0.85561 0.22538 0.0
C487 C 0.30344 0.83258 0.21635 0.0
C488 C 0.28129 0.81622 0.19824 0.0
C489 C 0.265 0.82306 0.19015 0.0
C490 C 0.27092 0.84604 0.20226 0.0
C491 C 0.29333 0.86217 0.21893 0.0
C492 C 0.27551 0.7918 0.18617 0.0
C493 C 0.25372 0.85376 0.19601 0.0
C494 C 0.2228 0.80955 0.95568 0.0
C495 C 0.20119 0.79438 0.93352 0.0
C496 C 0.18434 0.77814 0.96167 0.0
C497 C 0.18909 0.77698 0.0138 0.0
C498 C 0.1727 0.76077 0.04338 0.0
C499 C 0.17748 0.76025 0.09499 0.0
C500 C 0.19896 0.77568 0.11874 0.0
C501 C 0.20404 0.77546 0.17118 0.0
C502 C 0.22564 0.79098 0.19334 0.0
C503 C 0.24247 0.80679 0.16454 0.0
C504 C 0.23774 0.8073 0.11217 0.0
C505 C 0.25436 0.82301 0.08218 0.0
C506 C 0.24944 0.8239 0.03112 0.0
C507 C 0.22786 0.80878 0.00767 0.0
C508 C 0.21093 0.79249 0.03688 0.0
C509 C 0.21588 0.7918 0.08929 0.0
C510 C 0.10166 0.68898 0.27748 0.0
C511 C 0.12509 0.69204 0.29045 0.0
O512 O 0.28918 0.87309 0.83444 0.0
O513 O 0.33195 0.87064 0.24004 0.0
O514 O 0.14046 0.71508 0.30182 0.0
O515 O 0.10324 0.72845 0.83753 0.0
H516 H 0.28763 0.9026 0.84401 0.0
H517 H 0.2574 0.87535 0.7774 0.0
H518 H 0.2791 0.87709 0.73795 0.0
H519 H 0.27648 0.90207 0.75206 0.0
H520 H 0.25571 0.87769 0.87485 0.0
H521 H 0.28541 0.835 0.85802 0.0
H522 H 0.20533 0.83894 0.91786 0.0
H523 H 0.22577 0.86911 0.92621 0.0
H524 H 0.22257 0.85046 0.97619 0.0
H525 H 0.26865 0.79806 0.88844 0.0
H526 H 0.23924 0.78494 0.90242 0.0
H527 H 0.26104 0.79994 0.95229 0.0
H528 H 0.11885 0.73344 0.77076 0.0
H529 H 0.08338 0.71894 0.71629 0.0
H530 H 0.08764 0.74172 0.76133 0.0
H531 H 0.06717 0.71247 0.77199 0.0
H532 H 0.13795 0.72064 0.83849 0.0
H533 H 0.11035 0.75856 0.90975 0.0
H534 H 0.18505 0.73892 0.93194 0.0
H535 H 0.19164 0.75268 0.87328 0.0
H536 H 0.17149 0.72254 0.87251 0.0
H537 H 0.13171 0.78946 0.9702 0.0
H538 H 0.16209 0.8028 0.96917 0.0
H539 H 0.14748 0.78231 0.01469 0.0
H540 H 0.12958 0.68538 0.25624 0.0
H541 H 0.16727 0.70594 0.24691 0.0
H542 H 0.14887 0.75617 0.28842 0.0
H543 H 0.19521 0.73 0.13903 0.0
H544 H 0.19463 0.71224 0.18883 0.0
H545 H 0.21677 0.74186 0.19009 0.0
H546 H 0.16453 0.79186 0.25214 0.0
H547 H 0.17398 0.79223 0.18906 0.0
H548 H 0.19416 0.80296 0.24286 0.0
H549 H 0.33207 0.90119 0.25008 0.0
H550 H 0.36175 0.92061 0.18749 0.0
H551 H 0.33567 0.89657 0.16045 0.0
H552 H 0.36001 0.89335 0.17159 0.0
H553 H 0.31613 0.82758 0.22202 0.0
H554 H 0.29752 0.8797 0.22647 0.0
H555 H 0.26918 0.78659 0.14571 0.0
H556 H 0.26174 0.78026 0.20971 0.0
H557 H 0.29028 0.78937 0.19333 0.0
H558 H 0.25967 0.8708 0.21595 0.0
H559 H 0.23739 0.84117 0.21075 0.0
H560 H 0.2505 0.85495 0.15504 0.0
H561 H 0.19744 0.79521 0.89359 0.0
H562 H 0.15593 0.74843 0.02697 0.0
H563 H 0.16414 0.74759 0.11605 0.0
H564 H 0.22939 0.79081 0.23358 0.0
H565 H 0.27137 0.83495 0.09782 0.0
H566 H 0.26284 0.8366 0.01025 0.0
H567 H 0.089 0.67058 0.26867 0.0
H568 H 0.10221 0.69842 0.2436 0.0
H569 H 0.09614 0.69575 0.30958 0.0
C570 C 0.3932 0.27796 0.50648 0.0
C571 C 0.41222 0.28976 0.47064 0.0
C572 C 0.41248 0.27711 0.38318 0.0
C573 C 0.436 0.28713 0.38072 0.0
C574 C 0.4451 0.27853 0.34521 0.0
C575 C 0.43035 0.25938 0.31187 0.0
C576 C 0.40665 0.25031 0.31186 0.0
C577 C 0.39803 0.25958 0.34717 0.0
C578 C 0.47047 0.28911 0.3452 0.0
C579 C 0.39039 0.22987 0.27691 0.0
C580 C 0.46598 0.1327 0.46268 0.0
C581 C 0.45749 0.14843 0.45054 0.0
C582 C 0.46596 0.17771 0.38933 0.0
C583 C 0.44344 0.17201 0.37725 0.0
C584 C 0.43842 0.1845 0.34309 0.0
C585 C 0.45632 0.20373 0.32239 0.0
C586 C 0.47906 0.20999 0.33602 0.0
C587 C 0.48349 0.19651 0.36828 0.0
C588 C 0.41394 0.17713 0.32944 0.0
C589 C 0.49876 0.23107 0.31727 0.0
C590 C 0.48332 0.17782 0.99827 0.0
C591 C 0.46043 0.17141 0.0026 0.0
C592 C 0.45449 0.1859 0.02879 0.0
C593 C 0.47169 0.20725 0.05126 0.0
C594 C 0.4947 0.21384 0.047 0.0
C595 C 0.5002 0.199 0.02057 0.0
C596 C 0.42976 0.17838 0.03263 0.0
C597 C 0.51343 0.23653 0.07055 0.0
C598 C 0.43727 0.34056 0.98475 0.0
C599 C 0.45498 0.3368 0.9591 0.0
C600 C 0.44916 0.29942 0.97985 0.0
C601 C 0.43085 0.27741 0.98353 0.0
C602 C 0.43258 0.2621 0.01522 0.0
C603 C 0.4533 0.26895 0.04325 0.0
C604 C 0.47207 0.29103 0.03883 0.0
C605 C 0.46986 0.306 0.00691 0.0
C606 C 0.41233 0.23855 0.01856 0.0
C607 C 0.49457 0.29865 0.06731 0.0
C608 C 0.43939 0.24648 0.28408 0.0
C609 C 0.44377 0.23184 0.312 0.0
C610 C 0.4513 0.21811 0.28917 0.0
C611 C 0.45437 0.21872 0.2365 0.0
C612 C 0.4608 0.20428 0.21161 0.0
C613 C 0.46442 0.20549 0.16009 0.0
C614 C 0.46164 0.22112 0.13144 0.0
C615 C 0.46547 0.2226 0.07917 0.0
C616 C 0.46261 0.23833 0.0518 0.0
C617 C 0.45576 0.25261 0.07506 0.0
C618 C 0.45158 0.25125 0.12722 0.0
C619 C 0.44438 0.26515 0.15177 0.0
C620 C 0.44029 0.2636 0.20316 0.0
C621 C 0.4434 0.24821 0.23191 0.0
C622 C 0.45082 0.23416 0.20801 0.0
C623 C 0.4547 0.23552 0.15553 0.0
C624 C 0.46646 0.12423 0.98608 0.0
C625 C 0.47583 0.14298 0.94816 0.0
O626 O 0.40325 0.28341 0.42075 0.0
O627 O 0.44646 0.31355 0.94877 0.0
O628 O 0.48987 0.16422 0.97339 0.0
O629 O 0.47161 0.1655 0.42032 0.0
H630 H 0.42417 0.28339 0.479 0.0
H631 H 0.38578 0.25911 0.50117 0.0
H632 H 0.37947 0.28192 0.49866 0.0
H633 H 0.39995 0.28346 0.54667 0.0
H634 H 0.4473 0.30131 0.4072 0.0
H635 H 0.37989 0.25224 0.34882 0.0
H636 H 0.47564 0.27778 0.36354 0.0
H637 H 0.47955 0.30622 0.36624 0.0
H638 H 0.47579 0.29084 0.30566 0.0
H639 H 0.37249 0.22529 0.28055 0.0
H640 H 0.39218 0.21489 0.28564 0.0
H641 H 0.39452 0.23346 0.23688 0.0
H642 H 0.45143 0.15465 0.4827 0.0
H643 H 0.44004 0.09917 0.42293 0.0
H644 H 0.46971 0.13527 0.50523 0.0
H645 H 0.48442 0.14134 0.45406 0.0
H646 H 0.42965 0.15774 0.39382 0.0
H647 H 0.50081 0.20087 0.37808 0.0
H648 H 0.41109 0.17789 0.28804 0.0
H649 H 0.40956 0.18895 0.34982 0.0
H650 H 0.40225 0.15948 0.34014 0.0
H651 H 0.51488 0.23612 0.33965 0.0
H652 H 0.49568 0.24573 0.31918 0.0
H653 H 0.50088 0.22759 0.27705 0.0
H654 H 0.46121 0.14292 0.9279 0.0
H655 H 0.44699 0.15514 0.986 0.0
H656 H 0.51778 0.20387 0.01719 0.0
H657 H 0.42591 0.17773 0.07319 0.0
H658 H 0.41836 0.16129 0.01287 0.0
H659 H 0.42603 0.19105 0.01588 0.0
H660 H 0.5305 0.23914 0.06399 0.0
H661 H 0.51178 0.23755 0.1121 0.0
H662 H 0.5119 0.25067 0.05448 0.0
H663 H 0.47022 0.34436 0.98607 0.0
H664 H 0.44366 0.35916 0.99234 0.0
H665 H 0.43369 0.33246 0.02158 0.0
H666 H 0.42117 0.33284 0.96054 0.0
H667 H 0.41506 0.27236 0.96187 0.0
H668 H 0.48451 0.32255 0.00234 0.0
H669 H 0.4082 0.23561 0.05879 0.0
H670 H 0.41645 0.22541 0.00465 0.0
H671 H 0.39716 0.23615 0.99587 0.0
H672 H 0.5074 0.31658 0.06081 0.0
H673 H 0.50112 0.28724 0.05521 0.0
H674 H 0.49231 0.29724 0.10867 0.0
H675 H 0.44123 0.23112 0.35237 0.0
H676 H 0.46314 0.19189 0.23174 0.0
H677 H 0.46953 0.19407 0.14305 0.0
H678 H 0.4656 0.23936 0.01168 0.0
H679 H 0.44178 0.27734 0.13145 0.0
H680 H 0.43477 0.27468 0.22022 0.0
H681 H 0.45641 0.10708 0.96549 0.0
H682 H 0.45517 0.12666 0.01152 0.0
H683 H 0.48036 0.12466 0.01022 0.0
C684 C 0.04292 0.49211 0.5627 0.0
C685 C 0.03972 0.46617 0.75176 0.0
C686 C 0.97796 0.46856 0.74797 0.0
Mg687 Mg 0.02259 0.52229 0.51383 0.0
Mg688 Mg 0.01883 0.56043 0.58725 0.0
O689 O 0.01014 0.52955 0.57499 0.0
Mg690 Mg 0.01961 0.51532 0.62818 0.0
O691 O 0.02883 0.49939 0.678 0.0
Mg692 Mg 0.00804 0.46673 0.65057 0.0
Mg693 Mg 0.02792 0.50511 0.74786 0.0
C694 C 0.9965 0.54061 0.69023 0.0
O695 O 0.04823 0.5497 0.66577 0.0
O696 O 0.00233 0.53575 0.4669 0.0
O697 O 0.04626 0.54245 0.74885 0.0
O698 O 0.05414 0.55857 0.51509 0.0
O699 O 0.00092 0.56192 0.52043 0.0
O700 O 0.05392 0.58231 0.57558 0.0
O701 O 0.9911 0.48047 0.59651 0.0
O702 O 0.99148 0.48648 0.51393 0.0
C703 C 0.9833 0.47342 0.55044 0.0
C704 C 0.99641 0.55075 0.47711 0.0
O705 O 0.99752 0.52222 0.6824 0.0
O706 O 0.02802 0.45711 0.7092 0.0
O707 O 0.00541 0.55749 0.66164 0.0
O708 O 0.98138 0.45941 0.70859 0.0
O709 O 0.04241 0.48492 0.77275 0.0
O710 O 0.99329 0.48787 0.76847 0.0
O711 O 0.04097 0.50994 0.57002 0.0
O712 O 0.0335 0.47502 0.59033 0.0
C713 C 0.06351 0.57821 0.53948 0.0
C714 C 0.05344 0.55637 0.71325 0.0
C715 C 0.50375 0.04102 0.50353 0.0
C716 C 0.56437 0.02363 0.41837 0.0
C717 C 0.52672 0.95943 0.48503 0.0
Mg718 Mg 0.47709 0.02035 0.60514 0.0
Mg719 Mg 0.49962 0.0058 0.69855 0.0
O720 O 0.49136 0.00227 0.62891 0.0
Mg721 Mg 0.51399 0.00934 0.57669 0.0
O722 O 0.53492 0.01648 0.52067 0.0
Mg723 Mg 0.51234 -0.00012 0.46104 0.0
Mg724 Mg 0.55686 0.00781 0.52869 0.0
C725 C 0.52512 0.98021 0.65698 0.0
O726 O 0.54537 0.03464 0.63028 0.0
O727 O 0.45008 0.00161 0.66337 0.0
O728 O 0.57163 0.02681 0.60097 0.0
O729 O 0.49739 0.05031 0.66521 0.0
O730 O 0.46537 0.98896 0.72186 0.0
O731 O 0.5154 0.04145 0.72408 0.0
O732 O 0.48503 0.98427 0.51969 0.0
O733 O 0.45788 0.99077 0.54564 0.0
C734 C 0.46454 0.98016 0.51608 0.0
C735 C 0.44861 0.99043 0.70269 0.0
O736 O 0.52155 0.9826 0.60999 0.0
O737 O 0.54338 0.01783 0.41071 0.0
O738 O 0.51985 0.98914 0.69416 0.0
O739 O 0.51639 0.96773 0.46002 0.0
O740 O 0.57263 0.02091 0.46014 0.0
O741 O 0.54183 0.97139 0.52044 0.0
O742 O 0.50547 0.03585 0.54904 0.0
O743 O 0.50723 0.03104 0.46541 0.0
C744 C 0.51055 0.0557 0.70539 0.0
C745 C 0.56532 0.03696 0.63312 0.0
C746 C 0.51203 0.55052 0.67816 0.0
C747 C 0.4439 0.47947 0.75405 0.0
C748 C 0.47653 0.44318 0.69863 0.0
Mg749 Mg 0.54012 0.55119 0.58136 0.0
Mg750 Mg 0.52047 0.5097 0.48869 0.0
O751 O 0.52497 0.51778 0.55868 0.0
Mg752 Mg 0.50009 0.50546 0.60604 0.0
O753 O 0.47706 0.49456 0.65749 0.0
Mg754 Mg 0.49734 0.50037 0.71998 0.0
Mg755 Mg 0.45196 0.46485 0.64714 0.0
C756 C 0.49103 0.46057 0.53116 0.0
O757 O 0.47154 0.50122 0.54826 0.0
O758 O 0.56911 0.55656 0.52975 0.0
O759 O 0.44146 0.46873 0.57116 0.0
O760 O 0.52219 0.55824 0.51475 0.0
O761 O 0.55571 0.52602 0.47332 0.0
O762 O 0.50643 0.52898 0.45562 0.0
O763 O 0.52649 0.50868 0.66729 0.0
O764 O 0.5557 0.54211 0.64749 0.0
C765 C 0.54695 0.52521 0.67574 0.0
C766 C 0.5719 0.54513 0.49343 0.0
O767 O 0.49044 0.46925 0.5749 0.0
O768 O 0.46544 0.49123 0.76481 0.0
O769 O 0.50041 0.47266 0.49362 0.0
O770 O 0.48911 0.463 0.72111 0.0
O771 O 0.43518 0.46838 0.71094 0.0
O772 O 0.46148 0.43968 0.66376 0.0
O773 O 0.51064 0.54221 0.63269 0.0
O774 O 0.5063 0.53767 0.7156 0.0
C775 C 0.51057 0.54875 0.47271 0.0
C776 C 0.45075 0.485 0.54112 0.0
H777 H 0.09201 0.41827 0.40372 0.0
H778 H 0.08745 0.52142 0.54797 0.0
H779 H 0.14975 0.47647 0.48288 0.0
H780 H 0.02909 0.45805 0.4894 0.0
H781 H 0.11173 0.51086 0.50135 0.0
H782 H 0.0703 0.43793 0.41274 0.0
C783 C 0.10024 0.43541 0.42199 0.0
C784 C 0.12266 0.44578 0.44268 0.0
C785 C 0.09354 0.49959 0.49747 0.0
C786 C 0.09786 0.46819 0.45412 0.0
C787 C 0.07972 0.50575 0.52357 0.0
C788 C 0.05639 0.49044 0.52258 0.0
C789 C 0.08379 0.47803 0.47053 0.0
C790 C 0.0471 0.47019 0.49119 0.0
C791 C 0.08786 0.44662 0.42726 0.0
C792 C 0.13248 0.46791 0.46644 0.0
N793 N 0.06085 0.46439 0.46701 0.0
N794 N 0.11994 0.47828 0.47211 0.0
H795 H 0.6837 0.1401 0.37618 0.0
H796 H 0.57088 0.06158 0.37159 0.0
H797 H 0.69375 0.0857 0.31683 0.0
H798 H 0.5959 0.01457 0.38316 0.0
H799 H 0.60635 0.089 0.33596 0.0
H800 H 0.64285 0.1142 0.36673 0.0
C801 C 0.67722 0.12282 0.35985 0.0
C802 C 0.69207 0.11493 0.34774 0.0
C803 C 0.60393 0.07254 0.34548 0.0
C804 C 0.64526 0.08508 0.33638 0.0
C805 C 0.58352 0.05674 0.36482 0.0
C806 C 0.58075 0.03603 0.38082 0.0
C807 C 0.62149 0.06742 0.34259 0.0
C808 C 0.59761 0.03054 0.37171 0.0
C809 C 0.65384 0.10804 0.35393 0.0
C810 C 0.68283 0.09237 0.32693 0.0
N811 N 0.61742 0.04629 0.3539 0.0
N812 N 0.66003 0.0781 0.32295 0.0
H813 H 0.53093 0.67389 0.36618 0.0
H814 H 0.50498 0.54512 0.36891 0.0
H815 H 0.55033 0.64064 0.25216 0.0
H816 H 0.50592 0.58545 0.50096 0.0
H817 H 0.50879 0.57548 0.31566 0.0
H818 H 0.50987 0.6374 0.40528 0.0
C819 C 0.53025 0.65876 0.34867 0.0
C820 C 0.54227 0.66025 0.30574 0.0
C821 C 0.50759 0.5774 0.35615 0.0
C822 C 0.5185 0.61861 0.35051 0.0
C823 C 0.50521 0.56 0.38654 0.0
C824 C 0.50564 0.56302 0.43955 0.0
C825 C 0.51022 0.5978 0.37902 0.0
C826 C 0.50598 0.58265 0.46031 0.0
C827 C 0.51831 0.638 0.37103 0.0
C828 C 0.54114 0.64021 0.28496 0.0
N829 N 0.50863 0.59948 0.43008 0.0
N830 N 0.52963 0.62026 0.3078 0.0
H831 H 0.87933 0.55329 0.39031 0.0
H832 H 0.00674 0.59134 0.4406 0.0
H833 H 0.93247 0.61716 0.34219 0.0
H834 H 0.95504 0.52015 0.4312 0.0
H835 H 0.9803 0.60039 0.39676 0.0
H836 H 0.90634 0.53961 0.39869 0.0
C837 C 0.89663 0.5643 0.38087 0.0
C838 C 0.90383 0.58653 0.36652 0.0
C839 C 0.97484 0.58269 0.40296 0.0
C840 C 0.93482 0.57114 0.37639 0.0
C841 C 0.98995 0.57755 0.4278 0.0
C842 C 0.98294 0.55502 0.4392 0.0
C843 C 0.95234 0.56525 0.39111 0.0
C844 C 0.96102 0.53771 0.42257 0.0
C845 C 0.91201 0.55646 0.3854 0.0
C846 C 0.92637 0.60004 0.3542 0.0
N847 N 0.94624 0.54325 0.40033 0.0
N848 N 0.94117 0.5923 0.36034 0.0
H849 H 0.38886 0.9056 0.23489 0.0
H850 H 0.41957 0.95466 0.52478 0.0
H851 H 0.34111 0.90398 0.33943 0.0
H852 H 0.47095 0.96672 0.4207 0.0
H853 H 0.39054 0.93034 0.45922 0.0
H854 H 0.4188 0.92293 0.30357 0.0
C855 C 0.38462 0.90901 0.27202 0.0
C856 C 0.36252 0.90426 0.28086 0.0
C857 C 0.40812 0.93815 0.45048 0.0
C858 C 0.39662 0.92326 0.35986 0.0
C859 C 0.42474 0.95206 0.48799 0.0
C860 C 0.44766 0.96303 0.4778 0.0
C861 C 0.41433 0.93531 0.4019 0.0
C862 C 0.45341 0.95866 0.42986 0.0
C863 C 0.40175 0.91877 0.3113 0.0
C864 C 0.35801 0.90809 0.33049 0.0
N865 N 0.43677 0.94534 0.39322 0.0
N866 N 0.37489 0.91752 0.36786 0.0
H867 H 0.45747 0.31936 0.49594 0.0
H868 H 0.44971 0.42964 0.56096 0.0
H869 H 0.39456 0.31869 0.46579 0.0
H870 H 0.50617 0.43486 0.4827 0.0
H871 H 0.43031 0.3878 0.54599 0.0
H872 H 0.47704 0.3612 0.50995 0.0
C873 C 0.44778 0.328 0.49247 0.0
C874 C 0.42433 0.31553 0.48002 0.0
C875 C 0.44696 0.39817 0.53226 0.0
C876 C 0.44647 0.36306 0.49712 0.0
C877 C 0.45807 0.42191 0.5411 0.0
C878 C 0.47953 0.43552 0.52317 0.0
C879 C 0.4577 0.38809 0.50649 0.0
C880 C 0.48957 0.42483 0.49693 0.0
C881 C 0.45894 0.35178 0.50037 0.0
C882 C 0.41258 0.3276 0.47597 0.0
N883 N 0.47865 0.40162 0.4898 0.0
N884 N 0.42375 0.35072 0.48512 0.0
H885 H 0.61153 0.93863 0.80608 0.0
H886 H 0.51692 0.93832 0.61774 0.0
H887 H 0.5463 0.87806 0.77051 0.0
H888 H 0.56063 0.99463 0.7255 0.0
H889 H 0.53459 0.91668 0.64993 0.0
H890 H 0.59968 0.95994 0.75194 0.0
C891 C 0.59496 0.92971 0.78592 0.0
C892 C 0.57997 0.90655 0.79267 0.0
C893 C 0.54045 0.93391 0.6658 0.0
C894 C 0.56641 0.9307 0.73081 0.0
C895 C 0.53047 0.9462 0.64749 0.0
C896 C 0.53715 0.96799 0.66988 0.0
C897 C 0.55752 0.9439 0.7055 0.0
C898 C 0.55481 0.97765 0.70806 0.0
C899 C 0.58822 0.94185 0.75525 0.0
C900 C 0.55851 0.89583 0.76617 0.0
N901 N 0.56438 0.96552 0.72478 0.0
N902 N 0.55234 0.90804 0.73646 0.0
H903 H 0.67626 0.59564 0.87711 0.0
H904 H 0.55887 0.49299 0.69365 0.0
H905 H 0.66783 0.52188 0.7893 0.0
H906 H 0.5696 0.55865 0.75001 0.0
H907 H 0.59276 0.50011 0.74579 0.0
H908 H 0.63 0.57856 0.83929 0.0
C909 C 0.66722 0.5803 0.85192 0.0
C910 C 0.67637 0.55876 0.84418 0.0
C911 C 0.58726 0.51262 0.74779 0.0
C912 C 0.62313 0.54116 0.79801 0.0
C913 C 0.56785 0.50845 0.71863 0.0
C914 C 0.56166 0.52533 0.71779 0.0
C915 C 0.60021 0.53371 0.77602 0.0
C916 C 0.57397 0.54528 0.74982 0.0
C917 C 0.63826 0.56875 0.83173 0.0
C918 C 0.66181 0.53373 0.79673 0.0
N919 N 0.59286 0.54906 0.77726 0.0
N920 N 0.63559 0.52663 0.78238 0.0
H921 H 0.0764 0.68499 0.84373 0.0
H922 H 0.08137 0.59197 0.65712 0.0
H923 H 0.11713 0.70287 0.71441 0.0
H924 H 0.05218 0.57733 0.80242 0.0
H925 H 0.09544 0.63276 0.67749 0.0
H926 H 0.06772 0.64538 0.8293 0.0
C927 C 0.08375 0.6806 0.81269 0.0
C928 C 0.09783 0.69726 0.7807 0.0
C929 C 0.08617 0.62062 0.70512 0.0
C930 C 0.08759 0.6519 0.76321 0.0
C931 C 0.07806 0.59735 0.69338 0.0
C932 C 0.06533 0.5812 0.72778 0.0
C933 C 0.08135 0.62773 0.75145 0.0
C934 C 0.06195 0.58915 0.77474 0.0
C935 C 0.07878 0.65799 0.80439 0.0
C936 C 0.10645 0.69054 0.74028 0.0
N937 N 0.06968 0.6118 0.78492 0.0
N938 N 0.10114 0.66836 0.73253 0.0
H939 H 0.46891 0.13952 0.84431 0.0
H940 H 0.53159 0.07033 0.80153 0.0
H941 H 0.51242 0.13593 0.96204 0.0
H942 H 0.50215 0.08969 0.6792 0.0
H943 H 0.53026 0.09896 0.85861 0.0
H944 H 0.48559 0.12608 0.78153 0.0
C945 C 0.48212 0.13606 0.85692 0.0
C946 C 0.48866 0.13802 0.90874 0.0
C947 C 0.52459 0.09731 0.81899 0.0
C948 C 0.50782 0.12242 0.83694 0.0
C949 C 0.52541 0.08099 0.78626 0.0
C950 C 0.51634 0.07709 0.73577 0.0
C951 C 0.51445 0.10962 0.80115 0.0
C952 C 0.50883 0.09166 0.7181 0.0
C953 C 0.49173 0.12845 0.82099 0.0
C954 C 0.50631 0.13388 0.92267 0.0
N955 N 0.50757 0.10689 0.75099 0.0
N956 N 0.51491 0.12575 0.88712 0.0
H957 H 0.37359 0.47716 0.02302 0.0
H958 H 0.40064 0.47041 0.73539 0.0
H959 H 0.34247 0.49408 0.89953 0.0
H960 H 0.45185 0.48865 0.85761 0.0
H961 H 0.37537 0.47168 0.79646 0.0
H962 H 0.3992 0.47453 0.96372 0.0
C963 C 0.37203 0.4801 0.98343 0.0
C964 C 0.35561 0.48543 0.96611 0.0
C965 C 0.39213 0.47537 0.80988 0.0
C966 C 0.38461 0.4824 0.89853 0.0
C967 C 0.40653 0.47453 0.77516 0.0
C968 C 0.42842 0.4795 0.79147 0.0
C969 C 0.39947 0.48084 0.86146 0.0
C970 C 0.43515 0.48486 0.84346 0.0
C971 C 0.38665 0.47871 0.94985 0.0
C972 C 0.35451 0.48948 0.91458 0.0
N973 N 0.42065 0.48528 0.87681 0.0
N974 N 0.36868 0.48767 0.88258 0.0
H975 H 0.84942 0.35789 0.8288 0.0
H976 H 0.96849 0.47508 0.84531 0.0
H977 H 0.88711 0.39301 0.97004 0.0
H978 H 0.93902 0.43076 0.70827 0.0
H979 H 0.93558 0.44859 0.88975 0.0
H980 H 0.8794 0.38747 0.78254 0.0
C981 C 0.86414 0.37171 0.85003 0.0
C982 C 0.86615 0.37263 0.90331 0.0
C983 C 0.93626 0.44481 0.84983 0.0
C984 C 0.90015 0.40692 0.85071 0.0
C985 C 0.95494 0.46001 0.82432 0.0
C986 C 0.95664 0.45502 0.7731 0.0
C987 C 0.91908 0.42459 0.82382 0.0
C988 C 0.93856 0.43519 0.7479 0.0
C989 C 0.88116 0.38866 0.82365 0.0
C990 C 0.8852 0.39138 0.92894 0.0
N991 N 0.92062 0.42065 0.77357 0.0
N992 N 0.90151 0.40774 0.90243 0.0
H993 H 0.87712 0.52091 0.82176 0.0
H994 H 0.00388 0.5789 0.74496 0.0
H995 H 0.92721 0.5915 0.862 0.0
H996 H 0.95821 0.50593 0.72676 0.0
H997 H 0.97738 0.58271 0.79796 0.0
H998 H 0.90725 0.51383 0.79569 0.0
C999 C 0.89453 0.53477 0.82617 0.0
C1000 C 0.89973 0.55679 0.84451 0.0
C1001 C 0.97322 0.56579 0.78313 0.0
C1002 C 0.93418 0.54896 0.81377 0.0
C1003 C 0.98837 0.56362 0.75288 0.0
C1004 C 0.983 0.54213 0.73082 0.0
C1005 C 0.9523 0.54638 0.79059 0.0
C1006 C 0.96288 0.52284 0.74284 0.0
C1007 C 0.91171 0.53075 0.81122 0.0
C1008 C 0.9225 0.57425 0.84847 0.0
N1009 N 0.94799 0.52547 0.77112 0.0
N1010 N 0.93883 0.57001 0.83281 0.0
H1011 H 0.31204 0.93829 0.79765 0.0
H1012 H 0.43434 0.95428 0.76257 0.0
H1013 H 0.32563 0.88239 0.80026 0.0
H1014 H 0.41216 0.99696 0.69212 0.0
H1015 H 0.39652 0.9312 0.79271 0.0
H1016 H 0.35079 0.96333 0.77348 0.0
C1017 C 0.32322 0.93136 0.79352 0.0
C1018 C 0.31561 0.90829 0.8016 0.0
C1019 C 0.40001 0.94569 0.77084 0.0
C1020 C 0.35985 0.93679 0.77447 0.0
C1021 C 0.4216 0.95897 0.75389 0.0
C1022 C 0.42638 0.97753 0.72456 0.0
C1023 C 0.38318 0.95122 0.75911 0.0
C1024 C 0.40916 0.98271 0.71431 0.0
C1025 C 0.34524 0.9456 0.77966 0.0
C1026 C 0.33073 0.90009 0.79521 0.0
N1027 N 0.3883 0.96963 0.73167 0.0
N1028 N 0.35217 0.91438 0.78239 0.0
H1029 H 0.49512 0.37455 0.93924 0.0
H1030 H 0.44393 0.39758 0.68779 0.0
H1031 H 0.42889 0.3269 0.86887 0.0
H1032 H 0.51014 0.44422 0.76013 0.0
H1033 H 0.44104 0.36804 0.7427 0.0
H1034 H 0.50352 0.39684 0.86462 0.0
C1035 C 0.48244 0.36864 0.90771 0.0
C1036 C 0.4612 0.34899 0.91044 0.0
C1037 C 0.45638 0.3846 0.74584 0.0
C1038 C 0.47054 0.37462 0.82494 0.0
C1039 C 0.45812 0.40144 0.71421 0.0
C1040 C 0.47709 0.42358 0.72022 0.0
C1041 C 0.47373 0.39001 0.7836 0.0
C1042 C 0.49498 0.42753 0.75492 0.0
C1043 C 0.48723 0.38136 0.86505 0.0
C1044 C 0.44541 0.34207 0.86838 0.0
N1045 N 0.4927 0.41106 0.78584 0.0
N1046 N 0.45028 0.35503 0.82763 0.0
H1047 H 0.08416 0.41213 0.99101 0.0
H1048 H 0.0419 0.42817 0.71835 0.0
H1049 H 0.08451 0.37459 0.85536 0.0
H1050 H 0.06016 0.47667 0.84786 0.0
H1051 H 0.05636 0.40751 0.76715 0.0
H1052 H 0.07428 0.43526 0.93872 0.0
C1053 C 0.08228 0.40887 0.9501 0.0
C1054 C 0.08511 0.39142 0.92745 0.0
C1055 C 0.05733 0.42278 0.78462 0.0
C1056 C 0.07348 0.41761 0.86724 0.0
C1057 C 0.04904 0.43456 0.75685 0.0
C1058 C 0.04967 0.45415 0.77905 0.0
C1059 C 0.06607 0.43049 0.83508 0.0
C1060 C 0.05922 0.46165 0.82906 0.0
C1061 C 0.07666 0.42208 0.92024 0.0
C1062 C 0.08242 0.38787 0.87424 0.0
N1063 N 0.06685 0.44972 0.85542 0.0
N1064 N 0.07655 0.40073 0.8459 0.0
H1065 H 0.63653 0.10383 0.92475 0.0
H1066 H 0.61097 0.05712 0.63281 0.0
H1067 H 0.68406 0.09818 0.83099 0.0
H1068 H 0.55822 0.05018 0.7279 0.0
H1069 H 0.63888 0.07781 0.703 0.0
H1070 H 0.6085 0.08919 0.85149 0.0
C1071 C 0.64115 0.09988 0.88852 0.0
C1072 C 0.66277 0.10264 0.88362 0.0
C1073 C 0.62124 0.07189 0.7087 0.0
C1074 C 0.63089 0.08573 0.80028 0.0
C1075 C 0.60523 0.06004 0.66854 0.0
C1076 C 0.58215 0.05164 0.67468 0.0
C1077 C 0.61424 0.07535 0.75581 0.0
C1078 C 0.57583 0.05634 0.72161 0.0
C1079 C 0.62517 0.09146 0.84693 0.0
C1080 C 0.66778 0.09678 0.83628 0.0
N1081 N 0.59181 0.06772 0.76073 0.0
N1082 N 0.652 0.08864 0.79657 0.0
H1083 H 0.61185 0.6954 0.70527 0.0
H1084 H 0.51083 0.57247 0.76541 0.0
H1085 H 0.59256 0.6735 0.85545 0.0
H1086 H 0.53994 0.58576 0.61985 0.0
H1087 H 0.53531 0.61256 0.79336 0.0
H1088 H 0.58102 0.65816 0.66897 0.0
C1089 C 0.60112 0.68275 0.73054 0.0
C1090 C 0.60511 0.68727 0.7835 0.0
C1091 C 0.53628 0.6068 0.75515 0.0
C1092 C 0.56961 0.64508 0.74234 0.0
C1093 C 0.52223 0.58387 0.73902 0.0
C1094 C 0.52371 0.57555 0.69057 0.0
C1095 C 0.55206 0.62167 0.72277 0.0
C1096 C 0.53848 0.59131 0.65778 0.0
C1097 C 0.58352 0.6616 0.70982 0.0
C1098 C 0.59036 0.67057 0.81449 0.0
N1099 N 0.55238 0.61362 0.67476 0.0
N1100 N 0.57336 0.65021 0.79348 0.0
H1101 H 0.41798 0.11211 0.5035 0.0
H1102 H 0.50808 0.06343 0.41781 0.0
H1103 H 0.46402 0.13194 0.34435 0.0
H1104 H 0.4809 0.05537 0.56528 0.0
H1105 H 0.49157 0.08697 0.39677 0.0
H1106 H 0.44038 0.08678 0.52977 0.0
C1107 C 0.42872 0.10977 0.47777 0.0
C1108 C 0.44127 0.12814 0.42403 0.0
C1109 C 0.48932 0.08019 0.43386 0.0
C1110 C 0.46476 0.09644 0.45534 0.0
C1111 C 0.49871 0.0667 0.44592 0.0
C1112 C 0.49566 0.05718 0.49322 0.0
C1113 C 0.47652 0.08397 0.46903 0.0
C1114 C 0.48357 0.06224 0.52832 0.0
C1115 C 0.44383 0.09567 0.49522 0.0
C1116 C 0.45793 0.12243 0.37773 0.0
N1117 N 0.47415 0.0751 0.51524 0.0
N1118 N 0.46955 0.1086 0.40135 0.0
H1119 H 0.37292 0.539 0.40599 0.0
H1120 H 0.40966 0.45086 0.50065 0.0
H1121 H 0.32756 0.47223 0.45651 0.0
H1122 H 0.45671 0.52311 0.49433 0.0
H1123 H 0.38032 0.45584 0.45769 0.0
H1124 H 0.40408 0.53078 0.41414 0.0
C1125 C 0.36949 0.52253 0.41826 0.0
C1126 C 0.34777 0.50648 0.43188 0.0
C1127 C 0.39717 0.47054 0.46485 0.0
C1128 C 0.38308 0.49683 0.44014 0.0
C1129 C 0.41398 0.46771 0.48918 0.0
C1130 C 0.43552 0.48671 0.50232 0.0
C1131 C 0.40185 0.49255 0.45375 0.0
C1132 C 0.44025 0.50803 0.48557 0.0
C1133 C 0.38723 0.51785 0.42273 0.0
C1134 C 0.34411 0.48523 0.44646 0.0
N1135 N 0.42337 0.51049 0.46306 0.0
N1136 N 0.36161 0.48111 0.45063 0.0
H1137 H 0.86765 0.35174 0.40954 0.0
H1138 H 0.97563 0.43445 0.59559 0.0
H1139 H 0.91431 0.33085 0.46573 0.0
H1140 H 0.94979 0.45854 0.47584 0.0
H1141 H 0.94728 0.39483 0.56622 0.0
H1142 H 0.89194 0.38966 0.45227 0.0
C1143 C 0.88303 0.35512 0.43073 0.0
C1144 C 0.88945 0.33836 0.43255 0.0
C1145 C 0.94777 0.40888 0.54689 0.0
C1146 C 0.91676 0.38144 0.48299 0.0
C1147 C 0.96378 0.43141 0.56374 0.0
C1148 C 0.96508 0.44968 0.53776 0.0
C1149 C 0.93274 0.40483 0.50474 0.0
C1150 C 0.94945 0.44487 0.49652 0.0
C1151 C 0.89679 0.37672 0.45528 0.0
C1152 C 0.90912 0.34351 0.46235 0.0
N1153 N 0.93389 0.4229 0.4813 0.0
N1154 N 0.9222 0.36468 0.48627 0.0
H1155 H 0.49505 0.83809 0.29711 0.0
H1156 H 0.54826 0.93735 0.52216 0.0
H1157 H 0.5514 0.85088 0.39988 0.0
H1158 H 0.49702 0.92941 0.40886 0.0
H1159 H 0.54619 0.90264 0.48464 0.0
H1160 H 0.49263 0.86891 0.34328 0.0
C1161 C 0.50703 0.84754 0.32916 0.0
C1162 C 0.52387 0.84239 0.34386 0.0
C1163 C 0.53527 0.9084 0.46826 0.0
C1164 C 0.52089 0.87728 0.39761 0.0
C1165 C 0.53636 0.92818 0.48983 0.0
C1166 C 0.52302 0.93654 0.46825 0.0
C1167 C 0.52072 0.89685 0.42483 0.0
C1168 C 0.5078 0.92378 0.42653 0.0
C1169 C 0.50557 0.86502 0.35569 0.0
C1170 C 0.53851 0.85467 0.38663 0.0
N1171 N 0.50722 0.90472 0.40594 0.0
N1172 N 0.53677 0.87162 0.41182 0.0
H1173 H 0.71108 0.63644 0.36508 0.0
H1174 H 0.5894 0.52045 0.45049 0.0
H1175 H 0.70055 0.55635 0.38941 0.0
H1176 H 0.60633 0.58969 0.49464 0.0
H1177 H 0.62747 0.53512 0.42111 0.0
H1178 H 0.66844 0.61985 0.41139 0.0
C1179 C 0.70277 0.61996 0.38123 0.0
C1180 C 0.70907 0.59679 0.36446 0.0
C1181 C 0.62282 0.54705 0.4374 0.0
C1182 C 0.66082 0.57987 0.42294 0.0
C1183 C 0.6011 0.53874 0.45382 0.0
C1184 C 0.59474 0.5539 0.47507 0.0
C1185 C 0.63807 0.57066 0.44127 0.0
C1186 C 0.61063 0.57744 0.47874 0.0
C1187 C 0.67585 0.60904 0.4068 0.0
C1188 C 0.69593 0.56935 0.39604 0.0
N1189 N 0.63157 0.58516 0.46147 0.0
N1190 N 0.67173 0.56316 0.41805 0.0
H1191 H 0.12691 0.65235 0.28969 0.0
H1192 H 0.08233 0.62426 0.56541 0.0
H1193 H 0.12092 0.70019 0.39181 0.0
H1194 H 0.08814 0.57674 0.46142 0.0
H1195 H 0.10459 0.65506 0.51102 0.0
H1196 H 0.12027 0.62739 0.35908 0.0
C1197 C 0.12457 0.65776 0.32703 0.0
C1198 C 0.12434 0.6783 0.33497 0.0
C1199 C 0.1014 0.63798 0.50065 0.0
C1200 C 0.11634 0.64962 0.41461 0.0
C1201 C 0.0888 0.62036 0.53195 0.0
C1202 C 0.08277 0.59769 0.51728 0.0
C1203 C 0.10797 0.63288 0.45441 0.0
C1204 C 0.09192 0.59383 0.47376 0.0
C1205 C 0.12076 0.64351 0.36669 0.0
C1206 C 0.12116 0.68446 0.38411 0.0
N1207 N 0.10364 0.61113 0.44336 0.0
N1208 N 0.11698 0.67004 0.42191 0.0
loop_
_geom_bond_atom_site_label_1
_geom_bond_atom_site_label_2
_geom_bond_distance
_geom_bond_site_symmetry_2
_ccdc_geom_bond_type
C0 C1 1.560 . S
C0 H61 0.959 . S
C0 H62 0.959 . S
C0 H63 0.960 . S
C1 C0 1.560 . S
C1 O56 1.426 . S
C1 H60 0.980 . S
C2 C3 1.407 . S
C2 C7 1.418 . S
C2 O56 1.334 . S
C3 C2 1.407 . S
C3 C4 1.360 . S
C3 H64 0.929 . S
C4 C3 1.360 . S
C4 C5 1.401 . S
C4 C8 1.527 . S
C5 C4 1.401 . S
C5 C6 1.405 . S
C5 C38 1.587 . S
C6 C5 1.405 . S
C6 C7 1.332 . S
C6 C9 1.496 . S
C7 C2 1.418 . S
C7 C6 1.332 . S
C7 H65 0.929 . S
C8 C4 1.527 . S
C8 H66 0.959 . S
C8 H67 0.961 . S
C8 H68 0.961 . S
C9 C6 1.496 . S
C9 H69 0.960 . S
C9 H70 0.960 . S
C9 H71 0.961 . S
C10 C11 1.517 . S
C10 H73 0.961 . S
C10 H74 0.960 . S
C10 H75 0.959 . S
C11 C10 1.517 . S
C11 O59 1.468 . S
C11 H72 0.980 . S
C12 C13 1.349 . S
C12 C17 1.367 . S
C12 O59 1.408 . S
C13 C12 1.349 . S
C13 C14 1.407 . S
C13 H76 0.930 . S
C14 C13 1.407 . S
C14 C15 1.449 . S
C14 C18 1.535 . S
C15 C14 1.449 . S
C15 C16 1.384 . S
C15 C40 1.553 . S
C16 C15 1.384 . S
C16 C17 1.364 . S
C16 C19 1.450 . S
C17 C12 1.367 . S
C17 C16 1.364 . S
C17 H77 0.931 . S
C18 C14 1.535 . S
C18 H78 0.959 . S
C18 H79 0.961 . S
C18 H80 0.959 . S
C19 C16 1.450 . S
C19 H81 0.960 . S
C19 H82 0.960 . S
C19 H83 0.960 . S
C20 C21 1.309 . S
C20 C25 1.304 . S
C20 O58 1.435 1_554 S
C21 C20 1.309 . S
C21 C22 1.476 . S
C21 H85 0.930 . S
C22 C21 1.476 . S
C22 C23 1.400 . S
C22 C26 1.567 . S
C23 C22 1.400 . S
C23 C24 1.373 . S
C23 C45 1.432 . S
C24 C23 1.373 . S
C24 C25 1.339 . S
C24 C27 1.530 . S
C25 C20 1.304 . S
C25 C24 1.339 . S
C25 H86 0.930 1_554 S
C26 C22 1.567 . S
C26 H87 0.961 . S
C26 H88 0.960 . S
C26 H89 0.958 . S
C27 C24 1.530 . S
C27 H90 0.961 . S
C27 H91 0.960 . S
C27 H92 0.960 . S
C28 C29 1.530 . S
C28 H94 0.961 . S
C28 H95 0.961 . S
C28 H96 0.959 . S
C29 C28 1.530 . S
C29 O57 1.412 . S
C29 H93 0.980 . S
C30 C31 1.288 . S
C30 C35 1.377 . S
C30 O57 1.393 1_554 S
C31 C30 1.288 . S
C31 C32 1.369 . S
C31 H97 0.932 . S
C32 C31 1.369 . S
C32 C33 1.398 . S
C32 C36 1.527 . S
C33 C32 1.398 . S
C33 C34 1.380 . S
C33 C47 1.497 . S
C34 C33 1.380 . S
C34 C35 1.383 . S
C34 C37 1.603 . S
C35 C30 1.377 . S
C35 C34 1.383 . S
C35 H98 0.929 . S
C36 C32 1.527 . S
C36 H99 0.961 . S
C36 H100 0.959 . S
C36 H101 0.959 . S
C37 C34 1.603 . S
C37 H102 0.960 . S
C37 H103 0.962 . S
C37 H104 0.961 . S
C38 C5 1.587 . S
C38 C39 1.360 . S
C38 C51 1.412 . S
C39 C38 1.360 . S
C39 C40 1.365 . S
C39 H105 0.929 . S
C40 C15 1.553 . S
C40 C39 1.365 . S
C40 C41 1.404 . S
C41 C40 1.404 . S
C41 C42 1.395 . S
C41 C52 1.451 . S
C42 C41 1.395 . S
C42 C43 1.322 . S
C42 H106 0.930 . S
C43 C42 1.322 . S
C43 C44 1.459 . S
C43 H107 0.929 . S
C44 C43 1.459 . S
C44 C45 1.445 . S
C44 C53 1.395 . S
C45 C23 1.432 . S
C45 C44 1.445 . S
C45 C46 1.370 . S
C46 C45 1.370 . S
C46 C47 1.438 . S
C46 H108 0.930 . S
C47 C33 1.497 . S
C47 C46 1.438 . S
C47 C48 1.360 . S
C48 C47 1.360 . S
C48 C49 1.401 . S
C48 C53 1.446 . S
C49 C48 1.401 . S
C49 C50 1.347 . S
C49 H109 0.929 . S
C50 C49 1.347 . S
C50 C51 1.455 . S
C50 H110 0.930 . S
C51 C38 1.412 . S
C51 C50 1.455 . S
C51 C52 1.331 . S
C52 C41 1.451 . S
C52 C51 1.331 . S
C52 C53 1.497 . S
C53 C44 1.395 . S
C53 C48 1.446 . S
C53 C52 1.497 . S
C54 C55 1.582 . S
C54 H111 0.962 . S
C54 H112 0.959 . S
C54 H113 0.958 . S
C55 C54 1.582 . S
C55 O58 1.458 . S
C55 H84 0.980 1_556 S
O56 C1 1.426 . S
O56 C2 1.334 . S
O57 C29 1.412 . S
O57 C30 1.393 1_556 S
O58 C20 1.435 1_556 S
O58 C55 1.458 . S
O59 C11 1.468 . S
O59 C12 1.408 . S
H60 C1 0.980 . S
H61 C0 0.959 . S
H62 C0 0.959 . S
H63 C0 0.960 . S
H64 C3 0.929 . S
H65 C7 0.929 . S
H66 C8 0.959 . S
H67 C8 0.961 . S
H68 C8 0.961 . S
H69 C9 0.960 . S
H70 C9 0.960 . S
H71 C9 0.961 . S
H72 C11 0.980 . S
H73 C10 0.961 . S
H74 C10 0.960 . S
H75 C10 0.959 . S
H76 C13 0.930 . S
H77 C17 0.931 . S
H78 C18 0.959 . S
H79 C18 0.961 . S
H80 C18 0.959 . S
H81 C19 0.960 . S
H82 C19 0.960 . S
H83 C19 0.960 . S
H84 C55 0.980 1_554 S
H85 C21 0.930 . S
H86 C25 0.930 1_556 S
H87 C26 0.961 . S
H88 C26 0.960 . S
H89 C26 0.958 . S
H90 C27 0.961 . S
H91 C27 0.960 . S
H92 C27 0.960 . S
H93 C29 0.980 . S
H94 C28 0.961 . S
H95 C28 0.961 . S
H96 C28 0.959 . S
H97 C31 0.932 . S
H98 C35 0.929 . S
H99 C36 0.961 . S
H100 C36 0.959 . S
H101 C36 0.959 . S
H102 C37 0.960 . S
H103 C37 0.962 . S
H104 C37 0.961 . S
H105 C39 0.929 . S
H106 C42 0.930 . S
H107 C43 0.929 . S
H108 C46 0.930 . S
H109 C49 0.929 . S
H110 C50 0.930 . S
H111 C54 0.962 . S
H112 C54 0.959 . S
H113 C54 0.958 . S
C114 C115 1.560 . S
C114 H175 0.959 . S
C114 H176 0.959 . S
C114 H177 0.960 . S
C115 C114 1.560 . S
C115 O170 1.426 . S
C115 H174 0.980 . S
C116 C117 1.407 . S
C116 C121 1.418 . S
C116 O170 1.334 . S
C117 C116 1.407 . S
C117 C118 1.360 . S
C117 H178 0.929 . S
C118 C117 1.360 . S
C118 C119 1.401 . S
C118 C122 1.527 . S
C119 C118 1.401 . S
C119 C120 1.405 . S
C119 C152 1.587 . S
C120 C119 1.405 . S
C120 C121 1.332 . S
C120 C123 1.496 . S
C121 C116 1.418 . S
C121 C120 1.332 . S
C121 H179 0.929 . S
C122 C118 1.527 . S
C122 H180 0.959 . S
C122 H181 0.961 . S
C122 H182 0.961 . S
C123 C120 1.496 . S
C123 H183 0.960 . S
C123 H184 0.960 . S
C123 H185 0.961 . S
C124 C125 1.517 . S
C124 H187 0.961 . S
C124 H188 0.960 . S
C124 H189 0.959 . S
C125 C124 1.517 . S
C125 O173 1.468 . S
C125 H186 0.980 . S
C126 C127 1.349 . S
C126 C131 1.367 . S
C126 O173 1.408 . S
C127 C126 1.349 . S
C127 C128 1.407 . S
C127 H190 0.930 . S
C128 C127 1.407 . S
C128 C129 1.449 . S
C128 C132 1.535 . S
C129 C128 1.449 . S
C129 C130 1.384 . S
C129 C154 1.553 . S
C130 C129 1.384 . S
C130 C131 1.364 . S
C130 C133 1.450 . S
C131 C126 1.367 . S
C131 C130 1.364 . S
C131 H191 0.931 . S
C132 C128 1.535 . S
C132 H192 0.959 . S
C132 H193 0.961 . S
C132 H194 0.959 . S
C133 C130 1.450 . S
C133 H195 0.960 . S
C133 H196 0.960 . S
C133 H197 0.960 . S
C134 C135 1.309 . S
C134 C139 1.304 . S
C134 O172 1.435 . S
C135 C134 1.309 . S
C135 C136 1.476 . S
C135 H199 0.930 . S
C136 C135 1.476 . S
C136 C137 1.400 . S
C136 C140 1.567 . S
C137 C136 1.400 . S
C137 C138 1.373 . S
C137 C159 1.432 1_556 S
C138 C137 1.373 . S
C138 C139 1.339 . S
C138 C141 1.530 . S
C139 C134 1.304 . S
C139 C138 1.339 . S
C139 H200 0.930 . S
C140 C136 1.567 . S
C140 H201 0.961 1_556 S
C140 H202 0.960 . S
C140 H203 0.958 . S
C141 C138 1.530 . S
C141 H204 0.961 . S
C141 H205 0.960 1_556 S
C141 H206 0.960 . S
C142 C143 1.530 . S
C142 H208 0.961 . S
C142 H209 0.961 . S
C142 H210 0.959 . S
C143 C142 1.530 . S
C143 O171 1.412 . S
C143 H207 0.980 . S
C144 C145 1.288 . S
C144 C149 1.377 . S
C144 O171 1.393 . S
C145 C144 1.288 . S
C145 C146 1.369 . S
C145 H211 0.932 . S
C146 C145 1.369 . S
C146 C147 1.398 . S
C146 C150 1.527 . S
C147 C146 1.398 . S
C147 C148 1.380 . S
C147 C161 1.497 1_556 S
C148 C147 1.380 . S
C148 C149 1.383 . S
C148 C151 1.603 . S
C149 C144 1.377 . S
C149 C148 1.383 . S
C149 H212 0.929 . S
C150 C146 1.527 . S
C150 H213 0.961 1_556 S
C150 H214 0.959 . S
C150 H215 0.959 . S
C151 C148 1.603 . S
C151 H216 0.960 . S
C151 H217 0.962 . S
C151 H218 0.961 1_556 S
C152 C119 1.587 . S
C152 C153 1.360 . S
C152 C165 1.412 . S
C153 C152 1.360 . S
C153 C154 1.365 . S
C153 H219 0.929 . S
C154 C129 1.553 . S
C154 C153 1.365 . S
C154 C155 1.404 . S
C155 C154 1.404 . S
C155 C156 1.395 . S
C155 C166 1.451 . S
C156 C155 1.395 . S
C156 C157 1.322 . S
C156 H220 0.930 . S
C157 C156 1.322 . S
C157 C158 1.459 . S
C157 H221 0.929 . S
C158 C157 1.459 . S
C158 C159 1.445 . S
C158 C167 1.395 . S
C159 C137 1.432 1_554 S
C159 C158 1.445 . S
C159 C160 1.370 1_554 S
C160 C159 1.370 1_556 S
C160 C161 1.438 1_556 S
C160 H222 0.930 . S
C161 C147 1.497 1_554 S
C161 C160 1.438 1_554 S
C161 C162 1.360 . S
C162 C161 1.360 . S
C162 C163 1.401 . S
C162 C167 1.446 . S
C163 C162 1.401 . S
C163 C164 1.347 . S
C163 H223 0.929 . S
C164 C163 1.347 . S
C164 C165 1.455 . S
C164 H224 0.930 . S
C165 C152 1.412 . S
C165 C164 1.455 . S
C165 C166 1.331 . S
C166 C155 1.451 . S
C166 C165 1.331 . S
C166 C167 1.497 . S
C167 C158 1.395 . S
C167 C162 1.446 . S
C167 C166 1.497 . S
C168 C169 1.582 . S
C168 H225 0.962 . S
C168 H226 0.959 . S
C168 H227 0.958 . S
C169 C168 1.582 . S
C169 O172 1.458 . S
C169 H198 0.980 . S
O170 C115 1.426 . S
O170 C116 1.334 . S
O171 C143 1.412 . S
O171 C144 1.393 . S
O172 C134 1.435 . S
O172 C169 1.458 . S
O173 C125 1.468 . S
O173 C126 1.408 . S
H174 C115 0.980 . S
H175 C114 0.959 . S
H176 C114 0.959 . S
H177 C114 0.960 . S
H178 C117 0.929 . S
H179 C121 0.929 . S
H180 C122 0.959 . S
H181 C122 0.961 . S
H182 C122 0.961 . S
H183 C123 0.960 . S
H184 C123 0.960 . S
H185 C123 0.961 . S
H186 C125 0.980 . S
H187 C124 0.961 . S
H188 C124 0.960 . S
H189 C124 0.959 . S
H190 C127 0.930 . S
H191 C131 0.931 . S
H192 C132 0.959 . S
H193 C132 0.961 . S
H194 C132 0.959 . S
H195 C133 0.960 . S
H196 C133 0.960 . S
H197 C133 0.960 . S
H198 C169 0.980 . S
H199 C135 0.930 . S
H200 C139 0.930 . S
H201 C140 0.961 1_554 S
H202 C140 0.960 . S
H203 C140 0.958 . S
H204 C141 0.961 . S
H205 C141 0.960 1_554 S
H206 C141 0.960 . S
H207 C143 0.980 . S
H208 C142 0.961 . S
H209 C142 0.961 . S
H210 C142 0.959 . S
H211 C145 0.932 . S
H212 C149 0.929 . S
H213 C150 0.961 1_554 S
H214 C150 0.959 . S
H215 C150 0.959 . S
H216 C151 0.960 . S
H217 C151 0.962 . S
H218 C151 0.961 1_554 S
H219 C153 0.929 . S
H220 C156 0.930 . S
H221 C157 0.929 . S
H222 C160 0.930 . S
H223 C163 0.929 . S
H224 C164 0.930 . S
H225 C168 0.962 . S
H226 C168 0.959 . S
H227 C168 0.958 . S
C228 C229 1.560 . S
C228 H289 0.959 . S
C228 H290 0.959 . S
C228 H291 0.960 . S
C229 C228 1.560 . S
C229 O284 1.426 . S
C229 H288 0.980 . S
C230 C231 1.407 . S
C230 C235 1.418 . S
C230 O284 1.334 . S
C231 C230 1.407 . S
C231 C232 1.360 . S
C231 H292 0.929 . S
C232 C231 1.360 . S
C232 C233 1.401 . S
C232 C236 1.527 . S
C233 C232 1.401 . S
C233 C234 1.405 . S
C233 C266 1.587 . S
C234 C233 1.405 . S
C234 C235 1.332 . S
C234 C237 1.496 . S
C235 C230 1.418 . S
C235 C234 1.332 . S
C235 H293 0.929 . S
C236 C232 1.527 . S
C236 H294 0.959 . S
C236 H295 0.961 . S
C236 H296 0.961 . S
C237 C234 1.496 . S
C237 H297 0.960 . S
C237 H298 0.960 . S
C237 H299 0.961 . S
C238 C239 1.517 . S
C238 H301 0.961 . S
C238 H302 0.960 . S
C238 H303 0.959 . S
C239 C238 1.517 . S
C239 O287 1.468 . S
C239 H300 0.980 . S
C240 C241 1.349 . S
C240 C245 1.367 . S
C240 O287 1.408 . S
C241 C240 1.349 . S
C241 C242 1.407 . S
C241 H304 0.930 . S
C242 C241 1.407 . S
C242 C243 1.449 . S
C242 C246 1.535 . S
C243 C242 1.449 . S
C243 C244 1.384 . S
C243 C268 1.553 . S
C244 C243 1.384 . S
C244 C245 1.364 . S
C244 C247 1.450 . S
C245 C240 1.367 . S
C245 C244 1.364 . S
C245 H305 0.931 . S
C246 C242 1.535 . S
C246 H306 0.959 . S
C246 H307 0.961 . S
C246 H308 0.959 . S
C247 C244 1.450 . S
C247 H309 0.960 . S
C247 H310 0.960 . S
C247 H311 0.960 . S
C248 C249 1.309 . S
C248 C253 1.304 . S
C248 O286 1.435 . S
C249 C248 1.309 . S
C249 C250 1.476 . S
C249 H313 0.930 . S
C250 C249 1.476 . S
C250 C251 1.400 . S
C250 C254 1.567 . S
C251 C250 1.400 . S
C251 C252 1.373 . S
C251 C273 1.432 . S
C252 C251 1.373 . S
C252 C253 1.339 . S
C252 C255 1.530 . S
C253 C248 1.304 . S
C253 C252 1.339 . S
C253 H314 0.930 . S
C254 C250 1.567 . S
C254 H315 0.961 . S
C254 H316 0.960 . S
C254 H317 0.958 . S
C255 C252 1.530 . S
C255 H318 0.961 . S
C255 H319 0.960 . S
C255 H320 0.960 . S
C256 C257 1.530 . S
C256 H322 0.961 . S
C256 H323 0.961 . S
C256 H324 0.959 . S
C257 C256 1.530 . S
C257 O285 1.412 . S
C257 H321 0.980 . S
C258 C259 1.288 . S
C258 C263 1.377 . S
C258 O285 1.393 . S
C259 C258 1.288 . S
C259 C260 1.369 . S
C259 H325 0.932 . S
C260 C259 1.369 . S
C260 C261 1.398 . S
C260 C264 1.527 . S
C261 C260 1.398 . S
C261 C262 1.380 . S
C261 C275 1.497 . S
C262 C261 1.380 . S
C262 C263 1.383 . S
C262 C265 1.603 . S
C263 C258 1.377 . S
C263 C262 1.383 . S
C263 H326 0.929 . S
C264 C260 1.527 . S
C264 H327 0.961 . S
C264 H328 0.959 . S
C264 H329 0.959 . S
C265 C262 1.603 . S
C265 H330 0.960 . S
C265 H331 0.962 . S
C265 H332 0.961 . S
C266 C233 1.587 . S
C266 C267 1.360 . S
C266 C279 1.412 . S
C267 C266 1.360 . S
C267 C268 1.365 . S
C267 H333 0.929 . S
C268 C243 1.553 . S
C268 C267 1.365 . S
C268 C269 1.404 . S
C269 C268 1.404 . S
C269 C270 1.395 . S
C269 C280 1.451 . S
C270 C269 1.395 . S
C270 C271 1.322 . S
C270 H334 0.930 . S
C271 C270 1.322 . S
C271 C272 1.459 . S
C271 H335 0.929 . S
C272 C271 1.459 . S
C272 C273 1.445 1_554 S
C272 C281 1.395 . S
C273 C251 1.432 . S
C273 C272 1.445 1_556 S
C273 C274 1.370 . S
C274 C273 1.370 . S
C274 C275 1.438 . S
C274 H336 0.930 . S
C275 C261 1.497 . S
C275 C274 1.438 . S
C275 C276 1.363 . S
C276 C275 1.363 . S
C276 C277 1.399 1_556 S
C276 C281 1.444 1_556 S
C277 C276 1.399 1_554 S
C277 C278 1.347 . S
C277 H337 0.929 . S
C278 C277 1.347 . S
C278 C279 1.455 . S
C278 H338 0.930 . S
C279 C266 1.412 . S
C279 C278 1.455 . S
C279 C280 1.331 . S
C280 C269 1.451 . S
C280 C279 1.331 . S
C280 C281 1.497 . S
C281 C272 1.395 . S
C281 C276 1.444 1_554 S
C281 C280 1.497 . S
C282 C283 1.582 . S
C282 H339 0.962 . S
C282 H340 0.959 . S
C282 H341 0.958 . S
C283 C282 1.582 . S
C283 O286 1.458 . S
C283 H312 0.980 . S
O284 C229 1.426 . S
O284 C230 1.334 . S
O285 C257 1.412 . S
O285 C258 1.393 . S
O286 C248 1.435 . S
O286 C283 1.458 . S
O287 C239 1.468 . S
O287 C240 1.408 . S
H288 C229 0.980 . S
H289 C228 0.959 . S
H290 C228 0.959 . S
H291 C228 0.960 . S
H292 C231 0.929 . S
H293 C235 0.929 . S
H294 C236 0.959 . S
H295 C236 0.961 . S
H296 C236 0.961 . S
H297 C237 0.960 . S
H298 C237 0.960 . S
H299 C237 0.961 . S
H300 C239 0.980 . S
H301 C238 0.961 . S
H302 C238 0.960 . S
H303 C238 0.959 . S
H304 C241 0.930 . S
H305 C245 0.931 . S
H306 C246 0.959 . S
H307 C246 0.961 . S
H308 C246 0.959 . S
H309 C247 0.960 . S
H310 C247 0.960 . S
H311 C247 0.960 . S
H312 C283 0.980 . S
H313 C249 0.930 . S
H314 C253 0.930 . S
H315 C254 0.961 . S
H316 C254 0.960 . S
H317 C254 0.958 . S
H318 C255 0.961 . S
H319 C255 0.960 . S
H320 C255 0.960 . S
H321 C257 0.980 . S
H322 C256 0.961 . S
H323 C256 0.961 . S
H324 C256 0.959 . S
H325 C259 0.932 . S
H326 C263 0.929 . S
H327 C264 0.961 . S
H328 C264 0.959 . S
H329 C264 0.959 . S
H330 C265 0.960 . S
H331 C265 0.962 . S
H332 C265 0.961 . S
H333 C267 0.929 . S
H334 C270 0.930 . S
H335 C271 0.929 . S
H336 C274 0.930 . S
H337 C277 0.929 . S
H338 C278 0.930 . S
H339 C282 0.962 . S
H340 C282 0.959 . S
H341 C282 0.958 . S
C342 C343 1.560 . S
C342 H403 0.959 . S
C342 H404 0.959 . S
C342 H405 0.960 . S
C343 C342 1.560 . S
C343 O398 1.426 . S
C343 H402 0.980 . S
C344 C345 1.407 . S
C344 C349 1.418 . S
C344 O398 1.334 . S
C345 C344 1.407 . S
C345 C346 1.360 . S
C345 H406 0.929 . S
C346 C345 1.360 . S
C346 C347 1.401 . S
C346 C350 1.527 . S
C347 C346 1.401 . S
C347 C348 1.405 . S
C347 C380 1.587 . S
C348 C347 1.405 . S
C348 C349 1.332 . S
C348 C351 1.496 . S
C349 C344 1.418 . S
C349 C348 1.332 . S
C349 H407 0.929 . S
C350 C346 1.527 . S
C350 H408 0.959 . S
C350 H409 0.961 . S
C350 H410 0.961 . S
C351 C348 1.496 . S
C351 H411 0.960 . S
C351 H412 0.960 . S
C351 H413 0.961 . S
C352 C353 1.517 . S
C352 H415 0.961 . S
C352 H416 0.960 . S
C352 H417 0.959 . S
C353 C352 1.517 . S
C353 O401 1.468 . S
C353 H414 0.980 . S
C354 C355 1.349 . S
C354 C359 1.367 . S
C354 O401 1.408 . S
C355 C354 1.349 . S
C355 C356 1.407 . S
C355 H418 0.930 . S
C356 C355 1.407 . S
C356 C357 1.449 . S
C356 C360 1.535 . S
C357 C356 1.449 . S
C357 C358 1.384 . S
C357 C382 1.553 . S
C358 C357 1.384 . S
C358 C359 1.364 . S
C358 C361 1.450 . S
C359 C354 1.367 . S
C359 C358 1.364 . S
C359 H419 0.931 . S
C360 C356 1.535 . S
C360 H420 0.959 . S
C360 H421 0.961 . S
C360 H422 0.959 . S
C361 C358 1.450 . S
C361 H423 0.960 . S
C361 H424 0.960 . S
C361 H425 0.960 . S
C362 C363 1.309 . S
C362 C367 1.304 . S
C362 O400 1.435 . S
C363 C362 1.309 . S
C363 C364 1.476 . S
C363 H427 0.930 . S
C364 C363 1.476 . S
C364 C365 1.400 . S
C364 C368 1.567 . S
C365 C364 1.400 . S
C365 C366 1.373 . S
C365 C387 1.432 . S
C366 C365 1.373 . S
C366 C367 1.339 . S
C366 C369 1.530 . S
C367 C362 1.304 . S
C367 C366 1.339 . S
C367 H428 0.930 . S
C368 C364 1.567 . S
C368 H429 0.961 . S
C368 H430 0.960 . S
C368 H431 0.958 . S
C369 C366 1.530 . S
C369 H432 0.961 . S
C369 H433 0.960 . S
C369 H434 0.960 . S
C370 C371 1.530 . S
C370 H436 0.961 . S
C370 H437 0.961 . S
C370 H438 0.959 . S
C371 C370 1.530 . S
C371 O399 1.412 . S
C371 H435 0.980 . S
C372 C373 1.288 . S
C372 C377 1.377 . S
C372 O399 1.393 . S
C373 C372 1.288 . S
C373 C374 1.369 . S
C373 H439 0.932 . S
C374 C373 1.369 . S
C374 C375 1.398 . S
C374 C378 1.527 . S
C375 C374 1.398 . S
C375 C376 1.380 . S
C375 C389 1.497 . S
C376 C375 1.380 . S
C376 C377 1.383 . S
C376 C379 1.603 . S
C377 C372 1.377 . S
C377 C376 1.383 . S
C377 H440 0.929 . S
C378 C374 1.527 . S
C378 H441 0.961 . S
C378 H442 0.959 . S
C378 H443 0.959 . S
C379 C376 1.603 . S
C379 H444 0.960 . S
C379 H445 0.962 . S
C379 H446 0.961 . S
C380 C347 1.587 . S
C380 C381 1.360 . S
C380 C393 1.412 . S
C381 C380 1.360 . S
C381 C382 1.365 . S
C381 H447 0.929 . S
C382 C357 1.553 . S
C382 C381 1.365 . S
C382 C383 1.404 . S
C383 C382 1.404 . S
C383 C384 1.395 . S
C383 C394 1.451 . S
C384 C383 1.395 . S
C384 C385 1.322 . S
C384 H448 0.930 . S
C385 C384 1.322 . S
C385 C386 1.459 1_554 S
C385 H449 0.931 . S
C386 C385 1.459 1_556 S
C386 C387 1.445 . S
C386 C395 1.395 1_556 S
C387 C365 1.432 . S
C387 C386 1.445 . S
C387 C388 1.370 . S
C388 C387 1.370 . S
C388 C389 1.438 . S
C388 H450 0.930 . S
C389 C375 1.497 . S
C389 C388 1.438 . S
C389 C390 1.360 . S
C390 C389 1.360 . S
C390 C391 1.401 1_556 S
C390 C395 1.446 1_556 S
C391 C390 1.401 1_554 S
C391 C392 1.347 . S
C391 H451 0.929 . S
C392 C391 1.347 . S
C392 C393 1.455 . S
C392 H452 0.930 . S
C393 C380 1.412 . S
C393 C392 1.455 . S
C393 C394 1.331 . S
C394 C383 1.451 . S
C394 C393 1.331 . S
C394 C395 1.497 . S
C395 C386 1.395 1_554 S
C395 C390 1.446 1_554 S
C395 C394 1.497 . S
C396 C397 1.582 . S
C396 H453 0.962 . S
C396 H454 0.959 . S
C396 H455 0.958 . S
C397 C396 1.582 . S
C397 O400 1.458 . S
C397 H426 0.980 . S
O398 C343 1.426 . S
O398 C344 1.334 . S
O399 C371 1.412 . S
O399 C372 1.393 . S
O400 C362 1.435 . S
O400 C397 1.458 . S
O401 C353 1.468 . S
O401 C354 1.408 . S
H402 C343 0.980 . S
H403 C342 0.959 . S
H404 C342 0.959 . S
H405 C342 0.960 . S
H406 C345 0.929 . S
H407 C349 0.929 . S
H408 C350 0.959 . S
H409 C350 0.961 . S
H410 C350 0.961 . S
H411 C351 0.960 . S
H412 C351 0.960 . S
H413 C351 0.961 . S
H414 C353 0.980 . S
H415 C352 0.961 . S
H416 C352 0.960 . S
H417 C352 0.959 . S
H418 C355 0.930 . S
H419 C359 0.931 . S
H420 C360 0.959 . S
H421 C360 0.961 . S
H422 C360 0.959 . S
H423 C361 0.960 . S
H424 C361 0.960 . S
H425 C361 0.960 . S
H426 C397 0.980 . S
H427 C363 0.930 . S
H428 C367 0.930 . S
H429 C368 0.961 . S
H430 C368 0.960 . S
H431 C368 0.958 . S
H432 C369 0.961 . S
H433 C369 0.960 . S
H434 C369 0.960 . S
H435 C371 0.980 . S
H436 C370 0.961 . S
H437 C370 0.961 . S
H438 C370 0.959 . S
H439 C373 0.932 . S
H440 C377 0.929 . S
H441 C378 0.961 . S
H442 C378 0.959 . S
H443 C378 0.959 . S
H444 C379 0.960 . S
H445 C379 0.962 . S
H446 C379 0.961 . S
H447 C381 0.929 . S
H448 C384 0.930 . S
H449 C385 0.931 . S
H450 C388 0.930 . S
H451 C391 0.929 . S
H452 C392 0.930 . S
H453 C396 0.962 . S
H454 C396 0.959 . S
H455 C396 0.958 . S
C456 C457 1.560 . S
C456 H517 0.959 . S
C456 H518 0.959 . S
C456 H519 0.960 . S
C457 C456 1.560 . S
C457 O512 1.426 . S
C457 H516 0.980 . S
C458 C459 1.407 . S
C458 C463 1.418 . S
C458 O512 1.334 . S
C459 C458 1.407 . S
C459 C460 1.360 . S
C459 H520 0.929 . S
C460 C459 1.360 . S
C460 C461 1.401 . S
C460 C464 1.527 . S
C461 C460 1.401 . S
C461 C462 1.405 . S
C461 C494 1.594 . S
C462 C461 1.405 . S
C462 C463 1.332 . S
C462 C465 1.496 . S
C463 C458 1.418 . S
C463 C462 1.332 . S
C463 H521 0.929 . S
C464 C460 1.527 . S
C464 H522 0.959 . S
C464 H523 0.961 . S
C464 H524 0.961 . S
C465 C462 1.496 . S
C465 H525 0.960 . S
C465 H526 0.960 . S
C465 H527 0.961 1_556 S
C466 C467 1.517 . S
C466 H529 0.961 . S
C466 H530 0.960 . S
C466 H531 0.959 . S
C467 C466 1.517 . S
C467 O515 1.468 . S
C467 H528 0.980 . S
C468 C469 1.349 . S
C468 C473 1.367 . S
C468 O515 1.408 . S
C469 C468 1.349 . S
C469 C470 1.407 . S
C469 H532 0.930 . S
C470 C469 1.407 . S
C470 C471 1.449 . S
C470 C474 1.535 . S
C471 C470 1.449 . S
C471 C472 1.384 . S
C471 C496 1.553 . S
C472 C471 1.384 . S
C472 C473 1.364 . S
C472 C475 1.450 . S
C473 C468 1.367 . S
C473 C472 1.364 . S
C473 H533 0.931 . S
C474 C470 1.535 . S
C474 H534 0.959 . S
C474 H535 0.961 . S
C474 H536 0.959 . S
C475 C472 1.450 . S
C475 H537 0.960 . S
C475 H538 0.960 . S
C475 H539 0.960 1_556 S
C476 C477 1.309 . S
C476 C481 1.304 . S
C476 O514 1.435 . S
C477 C476 1.309 . S
C477 C478 1.476 . S
C477 H541 0.930 . S
C478 C477 1.476 . S
C478 C479 1.400 . S
C478 C482 1.567 . S
C479 C478 1.400 . S
C479 C480 1.373 . S
C479 C501 1.432 . S
C480 C479 1.373 . S
C480 C481 1.339 . S
C480 C483 1.530 . S
C481 C476 1.304 . S
C481 C480 1.339 . S
C481 H542 0.930 . S
C482 C478 1.567 . S
C482 H543 0.961 . S
C482 H544 0.960 . S
C482 H545 0.958 . S
C483 C480 1.530 . S
C483 H546 0.961 . S
C483 H547 0.960 . S
C483 H548 0.960 . S
C484 C485 1.530 . S
C484 H550 0.961 . S
C484 H551 0.961 . S
C484 H552 0.959 . S
C485 C484 1.530 . S
C485 O513 1.412 . S
C485 H549 0.980 . S
C486 C487 1.288 . S
C486 C491 1.377 . S
C486 O513 1.393 . S
C487 C486 1.288 . S
C487 C488 1.369 . S
C487 H553 0.932 . S
C488 C487 1.369 . S
C488 C489 1.398 . S
C488 C492 1.527 . S
C489 C488 1.398 . S
C489 C490 1.380 . S
C489 C503 1.497 . S
C490 C489 1.380 . S
C490 C491 1.383 . S
C490 C493 1.603 . S
C491 C486 1.377 . S
C491 C490 1.383 . S
C491 H554 0.929 . S
C492 C488 1.527 . S
C492 H555 0.961 . S
C492 H556 0.959 . S
C492 H557 0.959 . S
C493 C490 1.603 . S
C493 H558 0.960 . S
C493 H559 0.962 . S
C493 H560 0.961 . S
C494 C461 1.594 . S
C494 C495 1.366 . S
C494 C507 1.398 1_556 S
C495 C494 1.366 . S
C495 C496 1.365 . S
C495 H561 0.929 . S
C496 C471 1.553 . S
C496 C495 1.365 . S
C496 C497 1.404 1_556 S
C497 C496 1.404 1_554 S
C497 C498 1.395 . S
C497 C508 1.451 . S
C498 C497 1.395 . S
C498 C499 1.322 . S
C498 H562 0.930 . S
C499 C498 1.322 . S
C499 C500 1.459 . S
C499 H563 0.929 . S
C500 C499 1.459 . S
C500 C501 1.445 . S
C500 C509 1.395 . S
C501 C479 1.432 . S
C501 C500 1.445 . S
C501 C502 1.370 . S
C502 C501 1.370 . S
C502 C503 1.438 . S
C502 H564 0.930 . S
C503 C489 1.497 . S
C503 C502 1.438 . S
C503 C504 1.360 . S
C504 C503 1.360 . S
C504 C505 1.401 . S
C504 C509 1.446 . S
C505 C504 1.401 . S
C505 C506 1.347 . S
C505 H565 0.929 . S
C506 C505 1.347 . S
C506 C507 1.455 . S
C506 H566 0.930 . S
C507 C494 1.398 1_554 S
C507 C506 1.455 . S
C507 C508 1.331 . S
C508 C497 1.451 . S
C508 C507 1.331 . S
C508 C509 1.497 . S
C509 C500 1.395 . S
C509 C504 1.446 . S
C509 C508 1.497 . S
C510 C511 1.582 . S
C510 H567 0.962 . S
C510 H568 0.959 . S
C510 H569 0.958 . S
C511 C510 1.582 . S
C511 O514 1.458 . S
C511 H540 0.980 . S
O512 C457 1.426 . S
O512 C458 1.334 . S
O513 C485 1.412 . S
O513 C486 1.393 . S
O514 C476 1.435 . S
O514 C511 1.458 . S
O515 C467 1.468 . S
O515 C468 1.408 . S
H516 C457 0.980 . S
H517 C456 0.959 . S
H518 C456 0.959 . S
H519 C456 0.960 . S
H520 C459 0.929 . S
H521 C463 0.929 . S
H522 C464 0.959 . S
H523 C464 0.961 . S
H524 C464 0.961 . S
H525 C465 0.960 . S
H526 C465 0.960 . S
H527 C465 0.961 1_554 S
H528 C467 0.980 . S
H529 C466 0.961 . S
H530 C466 0.960 . S
H531 C466 0.959 . S
H532 C469 0.930 . S
H533 C473 0.931 . S
H534 C474 0.959 . S
H535 C474 0.961 . S
H536 C474 0.959 . S
H537 C475 0.960 . S
H538 C475 0.960 . S
H539 C475 0.960 1_554 S
H540 C511 0.980 . S
H541 C477 0.930 . S
H542 C481 0.930 . S
H543 C482 0.961 . S
H544 C482 0.960 . S
H545 C482 0.958 . S
H546 C483 0.961 . S
H547 C483 0.960 . S
H548 C483 0.960 . S
H549 C485 0.980 . S
H550 C484 0.961 . S
H551 C484 0.961 . S
H552 C484 0.959 . S
H553 C487 0.932 . S
H554 C491 0.929 . S
H555 C492 0.961 . S
H556 C492 0.959 . S
H557 C492 0.959 . S
H558 C493 0.960 . S
H559 C493 0.962 . S
H560 C493 0.961 . S
H561 C495 0.929 . S
H562 C498 0.930 . S
H563 C499 0.929 . S
H564 C502 0.930 . S
H565 C505 0.929 . S
H566 C506 0.930 . S
H567 C510 0.962 . S
H568 C510 0.959 . S
H569 C510 0.958 . S
C570 C571 1.560 . S
C570 H631 0.959 . S
C570 H632 0.959 . S
C570 H633 0.960 . S
C571 C570 1.560 . S
C571 O626 1.426 . S
C571 H630 0.980 . S
C572 C573 1.407 . S
C572 C577 1.418 . S
C572 O626 1.334 . S
C573 C572 1.407 . S
C573 C574 1.360 . S
C573 H634 0.929 . S
C574 C573 1.360 . S
C574 C575 1.401 . S
C574 C578 1.527 . S
C575 C574 1.401 . S
C575 C576 1.405 . S
C575 C608 1.587 . S
C576 C575 1.405 . S
C576 C577 1.332 . S
C576 C579 1.496 . S
C577 C572 1.418 . S
C577 C576 1.332 . S
C577 H635 0.929 . S
C578 C574 1.527 . S
C578 H636 0.959 . S
C578 H637 0.961 . S
C578 H638 0.961 . S
C579 C576 1.496 . S
C579 H639 0.960 . S
C579 H640 0.960 . S
C579 H641 0.961 . S
C580 C581 1.517 . S
C580 H643 0.961 . S
C580 H644 0.960 . S
C580 H645 0.959 . S
C581 C580 1.517 . S
C581 O629 1.468 . S
C581 H642 0.980 . S
C582 C583 1.349 . S
C582 C587 1.367 . S
C582 O629 1.408 . S
C583 C582 1.349 . S
C583 C584 1.407 . S
C583 H646 0.930 . S
C584 C583 1.407 . S
C584 C585 1.449 . S
C584 C588 1.535 . S
C585 C584 1.449 . S
C585 C586 1.384 . S
C585 C610 1.553 . S
C586 C585 1.384 . S
C586 C587 1.364 . S
C586 C589 1.450 . S
C587 C582 1.367 . S
C587 C586 1.364 . S
C587 H647 0.931 . S
C588 C584 1.535 . S
C588 H648 0.959 . S
C588 H649 0.961 . S
C588 H650 0.959 . S
C589 C586 1.450 . S
C589 H651 0.960 . S
C589 H652 0.960 . S
C589 H653 0.960 . S
C590 C591 1.309 1_556 S
C590 C595 1.304 1_556 S
C590 O628 1.435 . S
C591 C590 1.309 1_554 S
C591 C592 1.476 . S
C591 H655 0.930 1_554 S
C592 C591 1.476 . S
C592 C593 1.400 . S
C592 C596 1.567 . S
C593 C592 1.400 . S
C593 C594 1.373 . S
C593 C615 1.432 . S
C594 C593 1.373 . S
C594 C595 1.339 . S
C594 C597 1.530 . S
C595 C590 1.304 1_554 S
C595 C594 1.339 . S
C595 H656 0.930 1_554 S
C596 C592 1.567 . S
C596 H657 0.961 . S
C596 H658 0.960 . S
C596 H659 0.958 . S
C597 C594 1.530 . S
C597 H660 0.961 . S
C597 H661 0.960 . S
C597 H662 0.960 . S
C598 C599 1.530 . S
C598 H664 0.961 . S
C598 H665 0.961 . S
C598 H666 0.959 . S
C599 C598 1.530 . S
C599 O627 1.412 . S
C599 H663 0.980 . S
C600 C601 1.288 . S
C600 C605 1.374 1_556 S
C600 O627 1.393 . S
C601 C600 1.288 . S
C601 C602 1.369 1_556 S
C601 H667 0.932 . S
C602 C601 1.369 1_554 S
C602 C603 1.398 . S
C602 C606 1.527 . S
C603 C602 1.398 . S
C603 C604 1.380 . S
C603 C617 1.497 . S
C604 C603 1.380 . S
C604 C605 1.391 . S
C604 C607 1.603 . S
C605 C600 1.374 1_554 S
C605 C604 1.391 . S
C605 H668 0.925 1_554 S
C606 C602 1.527 . S
C606 H669 0.961 . S
C606 H670 0.959 . S
C606 H671 0.959 . S
C607 C604 1.603 . S
C607 H672 0.960 . S
C607 H673 0.962 . S
C607 H674 0.961 . S
C608 C575 1.587 . S
C608 C609 1.360 . S
C608 C621 1.412 . S
C609 C608 1.360 . S
C609 C610 1.365 . S
C609 H675 0.929 . S
C610 C585 1.553 . S
C610 C609 1.365 . S
C610 C611 1.404 . S
C611 C610 1.404 . S
C611 C612 1.395 . S
C611 C622 1.451 . S
C612 C611 1.395 . S
C612 C613 1.322 . S
C612 H676 0.930 . S
C613 C612 1.322 . S
C613 C614 1.459 . S
C613 H677 0.929 . S
C614 C613 1.459 . S
C614 C615 1.445 . S
C614 C623 1.395 . S
C615 C593 1.432 . S
C615 C614 1.445 . S
C615 C616 1.370 . S
C616 C615 1.370 . S
C616 C617 1.438 . S
C616 H678 0.930 . S
C617 C603 1.497 . S
C617 C616 1.438 . S
C617 C618 1.360 . S
C618 C617 1.360 . S
C618 C619 1.401 . S
C618 C623 1.446 . S
C619 C618 1.401 . S
C619 C620 1.347 . S
C619 H679 0.929 . S
C620 C619 1.347 . S
C620 C621 1.455 . S
C620 H680 0.930 . S
C621 C608 1.412 . S
C621 C620 1.455 . S
C621 C622 1.331 . S
C622 C611 1.451 . S
C622 C621 1.331 . S
C622 C623 1.497 . S
C623 C614 1.395 . S
C623 C618 1.446 . S
C623 C622 1.497 . S
C624 C625 1.582 . S
C624 H681 0.962 . S
C624 H682 0.959 . S
C624 H683 0.958 . S
C625 C624 1.582 . S
C625 O628 1.458 . S
C625 H654 0.980 . S
O626 C571 1.426 . S
O626 C572 1.334 . S
O627 C599 1.412 . S
O627 C600 1.393 . S
O628 C590 1.435 . S
O628 C625 1.458 . S
O629 C581 1.468 . S
O629 C582 1.408 . S
H630 C571 0.980 . S
H631 C570 0.959 . S
H632 C570 0.959 . S
H633 C570 0.960 . S
H634 C573 0.929 . S
H635 C577 0.929 . S
H636 C578 0.959 . S
H637 C578 0.961 . S
H638 C578 0.961 . S
H639 C579 0.960 . S
H640 C579 0.960 . S
H641 C579 0.961 . S
H642 C581 0.980 . S
H643 C580 0.961 . S
H644 C580 0.960 . S
H645 C580 0.959 . S
H646 C583 0.930 . S
H647 C587 0.931 . S
H648 C588 0.959 . S
H649 C588 0.961 . S
H650 C588 0.959 . S
H651 C589 0.960 . S
H652 C589 0.960 . S
H653 C589 0.960 . S
H654 C625 0.980 . S
H655 C591 0.930 1_556 S
H656 C595 0.930 1_556 S
H657 C596 0.961 . S
H658 C596 0.960 . S
H659 C596 0.958 . S
H660 C597 0.961 . S
H661 C597 0.960 . S
H662 C597 0.960 . S
H663 C599 0.980 . S
H664 C598 0.961 . S
H665 C598 0.961 . S
H666 C598 0.959 . S
H667 C601 0.932 . S
H668 C605 0.925 1_556 S
H669 C606 0.961 . S
H670 C606 0.959 . S
H671 C606 0.959 . S
H672 C607 0.960 . S
H673 C607 0.962 . S
H674 C607 0.961 . S
H675 C609 0.929 . S
H676 C612 0.930 . S
H677 C613 0.929 . S
H678 C616 0.930 . S
H679 C619 0.929 . S
H680 C620 0.930 . S
H681 C624 0.962 . S
H682 C624 0.959 . S
H683 C624 0.958 . S
C684 O711 1.312 . S
C684 O712 1.208 . S
C685 O706 1.331 . S
C685 O709 1.244 . S
C686 O708 1.264 . S
C686 O710 1.273 . S
Mg687 O689 1.936 1_455 S
Mg687 O696 2.081 1_455 S
Mg687 O698 2.023 . S
Mg687 O702 2.031 1_455 S
Mg687 O711 2.291 . S
Mg688 O689 1.963 . S
Mg688 O699 1.942 . S
Mg688 O700 1.955 1_655 S
Mg688 O707 1.986 . S
O689 Mg687 1.936 1_655 S
O689 Mg688 1.963 . S
O689 Mg690 1.915 1_655 S
Mg690 O689 1.915 1_455 S
Mg690 O691 1.915 . S
Mg690 O695 2.013 . S
Mg690 O701 2.114 1_455 S
Mg690 O705 2.013 1_455 S
Mg690 O711 2.114 . S
O691 Mg690 1.915 . S
O691 Mg692 1.936 . S
O691 Mg693 1.963 . S
Mg692 O691 1.936 . S
Mg692 O701 2.291 1_455 S
Mg692 O706 2.081 . S
Mg692 O708 2.023 1_455 S
Mg692 O712 2.031 . S
Mg693 O691 1.963 . S
Mg693 O697 1.986 . S
Mg693 O709 1.942 . S
Mg693 O710 1.955 1_455 S
C694 O705 1.191 . S
C694 O707 1.307 . S
O695 Mg690 2.013 . S
O695 C714 1.191 . S
O696 Mg687 2.081 1_655 S
O696 C704 1.331 . S
O697 Mg693 1.986 . S
O697 C714 1.307 . S
O698 Mg687 2.023 . S
O698 C713 1.264 . S
O699 Mg688 1.942 . S
O699 C704 1.244 . S
O700 Mg688 1.955 1_455 S
O700 C713 1.273 . S
O701 Mg690 2.114 1_655 S
O701 Mg692 2.291 1_655 S
O701 C703 1.312 . S
O702 Mg687 2.031 1_655 S
O702 C703 1.208 . S
C703 O701 1.312 . S
C703 O702 1.208 . S
C704 O696 1.331 . S
C704 O699 1.244 . S
O705 Mg690 2.013 1_655 S
O705 C694 1.191 . S
O706 C685 1.331 . S
O706 Mg692 2.081 . S
O707 Mg688 1.986 . S
O707 C694 1.307 . S
O708 C686 1.264 . S
O708 Mg692 2.023 1_655 S
O709 C685 1.244 . S
O709 Mg693 1.942 . S
O710 C686 1.273 . S
O710 Mg693 1.955 1_655 S
O711 C684 1.312 . S
O711 Mg687 2.291 . S
O711 Mg690 2.114 . S
O712 C684 1.208 . S
O712 Mg692 2.031 . S
C713 O698 1.264 . S
C713 O700 1.273 . S
C714 O695 1.191 . S
C714 O697 1.307 . S
C715 O742 1.312 . S
C715 O743 1.208 . S
C716 O737 1.331 . S
C716 O740 1.244 . S
C717 O739 1.264 . S
C717 O741 1.273 . S
Mg718 O720 1.965 . S
Mg718 O727 2.081 1_545 S
Mg718 O729 2.023 . S
Mg718 O733 2.031 1_545 S
Mg718 O742 2.291 . S
Mg719 O720 1.957 . S
Mg719 O730 1.942 1_545 S
Mg719 O731 1.955 . S
Mg719 O738 1.986 1_545 S
O720 Mg718 1.965 . S
O720 Mg719 1.957 . S
O720 Mg721 1.912 . S
Mg721 O720 1.912 . S
Mg721 O722 1.915 . S
Mg721 O726 2.013 . S
Mg721 O732 2.114 1_545 S
Mg721 O736 2.013 1_545 S
Mg721 O742 2.114 . S
O722 Mg721 1.915 . S
O722 Mg723 1.936 . S
O722 Mg724 1.963 . S
Mg723 O722 1.936 . S
Mg723 O732 2.291 1_545 S
Mg723 O737 2.081 . S
Mg723 O739 2.023 1_545 S
Mg723 O743 2.031 . S
Mg724 O722 1.963 . S
Mg724 O728 1.986 . S
Mg724 O740 1.942 . S
Mg724 O741 1.955 1_545 S
C725 O736 1.191 . S
C725 O738 1.307 . S
O726 Mg721 2.013 . S
O726 C745 1.191 . S
O727 Mg718 2.081 1_565 S
O727 C735 1.331 . S
O728 Mg724 1.986 . S
O728 C745 1.307 . S
O729 Mg718 2.023 . S
O729 C744 1.264 . S
O730 Mg719 1.942 1_565 S
O730 C735 1.244 . S
O731 Mg719 1.955 . S
O731 C744 1.273 . S
O732 Mg721 2.114 1_565 S
O732 Mg723 2.291 1_565 S
O732 C734 1.312 . S
O733 Mg718 2.031 1_565 S
O733 C734 1.208 . S
C734 O732 1.312 . S
C734 O733 1.208 . S
C735 O727 1.331 . S
C735 O730 1.244 . S
O736 Mg721 2.013 1_565 S
O736 C725 1.191 . S
O737 C716 1.331 . S
O737 Mg723 2.081 . S
O738 Mg719 1.986 1_565 S
O738 C725 1.307 . S
O739 C717 1.264 . S
O739 Mg723 2.023 1_565 S
O740 C716 1.244 . S
O740 Mg724 1.942 . S
O741 C717 1.273 . S
O741 Mg724 1.955 1_565 S
O742 C715 1.312 . S
O742 Mg718 2.291 . S
O742 Mg721 2.114 . S
O743 C715 1.208 . S
O743 Mg723 2.031 . S
C744 O729 1.264 . S
C744 O731 1.273 . S
C745 O726 1.191 . S
C745 O728 1.307 . S
C746 O773 1.312 . S
C746 O774 1.208 . S
C747 O768 1.331 . S
C747 O771 1.244 . S
C748 O770 1.264 . S
C748 O772 1.273 . S
Mg749 O751 1.936 . S
Mg749 O758 2.081 . S
Mg749 O760 2.023 . S
Mg749 O764 2.031 . S
Mg749 O773 2.291 . S
Mg750 O751 1.963 . S
Mg750 O761 1.942 . S
Mg750 O762 1.955 . S
Mg750 O769 1.986 . S
O751 Mg749 1.936 . S
O751 Mg750 1.963 . S
O751 Mg752 1.915 . S
Mg752 O751 1.915 . S
Mg752 O753 1.915 . S
Mg752 O757 2.013 . S
Mg752 O763 2.114 . S
Mg752 O767 2.013 . S
Mg752 O773 2.114 . S
O753 Mg752 1.915 . S
O753 Mg754 1.936 . S
O753 Mg755 1.963 . S
Mg754 O753 1.936 . S
Mg754 O763 2.291 . S
Mg754 O768 2.081 . S
Mg754 O770 2.023 . S
Mg754 O774 2.031 . S
Mg755 O753 1.963 . S
Mg755 O759 1.986 . S
Mg755 O771 1.942 . S
Mg755 O772 1.955 . S
C756 O767 1.191 . S
C756 O769 1.307 . S
O757 Mg752 2.013 . S
O757 C776 1.191 . S
O758 Mg749 2.081 . S
O758 C766 1.331 . S
O759 Mg755 1.986 . S
O759 C776 1.307 . S
O760 Mg749 2.023 . S
O760 C775 1.264 . S
O761 Mg750 1.942 . S
O761 C766 1.244 . S
O762 Mg750 1.955 . S
O762 C775 1.273 . S
O763 Mg752 2.114 . S
O763 Mg754 2.291 . S
O763 C765 1.312 . S
O764 Mg749 2.031 . S
O764 C765 1.208 . S
C765 O763 1.312 . S
C765 O764 1.208 . S
C766 O758 1.331 . S
C766 O761 1.244 . S
O767 Mg752 2.013 . S
O767 C756 1.191 . S
O768 C747 1.331 . S
O768 Mg754 2.081 . S
O769 Mg750 1.986 . S
O769 C756 1.307 . S
O770 C748 1.264 . S
O770 Mg754 2.023 . S
O771 C747 1.244 . S
O771 Mg755 1.942 . S
O772 C748 1.273 . S
O772 Mg755 1.955 . S
O773 C746 1.312 . S
O773 Mg749 2.291 . S
O773 Mg752 2.114 . S
O774 C746 1.208 . S
O774 Mg754 2.031 . S
C775 O760 1.264 . S
C775 O762 1.273 . S
C776 O757 1.191 . S
C776 O759 1.307 . S
H777 C783 0.930 . S
H778 C787 0.930 . S
H779 C792 0.929 . S
H780 C790 0.929 . S
H781 C785 0.929 . S
H782 C791 0.929 . S
C783 H777 0.930 . S
C783 C784 1.367 . S
C783 C791 1.378 . S
C784 C783 1.367 . S
C784 C792 1.433 . S
C785 H781 0.929 . S
C785 C787 1.378 . S
C785 C789 1.350 . S
C786 C789 1.463 . S
C786 C791 1.350 . S
C786 N794 1.427 . S
C787 H778 0.930 . S
C787 C785 1.378 . S
C787 C788 1.367 . S
C788 C787 1.367 . S
C788 C790 1.433 . S
C789 C785 1.350 . S
C789 C786 1.463 . S
C789 N793 1.427 . S
C790 H780 0.929 . S
C790 C788 1.433 . S
C790 N793 1.384 . S
C791 H782 0.929 . S
C791 C783 1.378 . S
C791 C786 1.350 . S
C792 H779 0.929 . S
C792 C784 1.433 . S
C792 N794 1.384 . S
N793 C789 1.427 . S
N793 C790 1.384 . S
N794 C786 1.427 . S
N794 C792 1.384 . S
H795 C801 0.930 . S
H796 C805 0.930 . S
H797 C810 0.929 . S
H798 C808 0.929 . S
H799 C803 0.929 . S
H800 C809 0.929 . S
C801 H795 0.930 . S
C801 C802 1.367 . S
C801 C809 1.378 . S
C802 C801 1.367 . S
C802 C810 1.433 . S
C803 H799 0.929 . S
C803 C805 1.378 . S
C803 C807 1.350 . S
C804 C807 1.463 . S
C804 C809 1.350 . S
C804 N812 1.427 . S
C805 H796 0.930 . S
C805 C803 1.378 . S
C805 C806 1.367 . S
C806 C805 1.367 . S
C806 C808 1.433 . S
C807 C803 1.350 . S
C807 C804 1.463 . S
C807 N811 1.427 . S
C808 H798 0.929 . S
C808 C806 1.433 . S
C808 N811 1.384 . S
C809 H800 0.929 . S
C809 C801 1.378 . S
C809 C804 1.350 . S
C810 H797 0.929 . S
C810 C802 1.433 . S
C810 N812 1.384 . S
N811 C807 1.427 . S
N811 C808 1.384 . S
N812 C804 1.427 . S
N812 C810 1.384 . S
H813 C819 0.930 . S
H814 C823 0.930 . S
H815 C828 0.929 . S
H816 C826 0.929 . S
H817 C821 0.929 . S
H818 C827 0.929 . S
C819 H813 0.930 . S
C819 C820 1.367 . S
C819 C827 1.378 . S
C820 C819 1.367 . S
C820 C828 1.433 . S
C821 H817 0.929 . S
C821 C823 1.378 . S
C821 C825 1.350 . S
C822 C825 1.463 . S
C822 C827 1.350 . S
C822 N830 1.427 . S
C823 H814 0.930 . S
C823 C821 1.378 . S
C823 C824 1.367 . S
C824 C823 1.367 . S
C824 C826 1.433 . S
C825 C821 1.350 . S
C825 C822 1.463 . S
C825 N829 1.427 . S
C826 H816 0.929 . S
C826 C824 1.433 . S
C826 N829 1.384 . S
C827 H818 0.929 . S
C827 C819 1.378 . S
C827 C822 1.350 . S
C828 H815 0.929 . S
C828 C820 1.433 . S
C828 N830 1.384 . S
N829 C825 1.427 . S
N829 C826 1.384 . S
N830 C822 1.427 . S
N830 C828 1.384 . S
H831 C837 0.930 . S
H832 C841 0.930 . S
H833 C846 0.929 . S
H834 C844 0.929 . S
H835 C839 0.929 . S
H836 C845 0.929 . S
C837 H831 0.930 . S
C837 C838 1.367 . S
C837 C845 1.378 . S
C838 C837 1.367 . S
C838 C846 1.433 . S
C839 H835 0.929 . S
C839 C841 1.378 . S
C839 C843 1.350 . S
C840 C843 1.463 . S
C840 C845 1.350 . S
C840 N848 1.427 . S
C841 H832 0.930 . S
C841 C839 1.378 . S
C841 C842 1.367 . S
C842 C841 1.367 . S
C842 C844 1.433 . S
C843 C839 1.350 . S
C843 C840 1.463 . S
C843 N847 1.427 . S
C844 H834 0.929 . S
C844 C842 1.433 . S
C844 N847 1.384 . S
C845 H836 0.929 . S
C845 C837 1.378 . S
C845 C840 1.350 . S
C846 H833 0.929 . S
C846 C838 1.433 . S
C846 N848 1.384 . S
N847 C843 1.427 . S
N847 C844 1.384 . S
N848 C840 1.427 . S
N848 C846 1.384 . S
H849 C855 0.930 . S
H850 C859 0.930 . S
H851 C864 0.929 . S
H852 C862 0.929 . S
H853 C857 0.929 . S
H854 C863 0.929 . S
C855 H849 0.930 . S
C855 C856 1.367 . S
C855 C863 1.378 . S
C856 C855 1.367 . S
C856 C864 1.433 . S
C857 H853 0.929 . S
C857 C859 1.378 . S
C857 C861 1.350 . S
C858 C861 1.463 . S
C858 C863 1.350 . S
C858 N866 1.427 . S
C859 H850 0.930 . S
C859 C857 1.378 . S
C859 C860 1.367 . S
C860 C859 1.367 . S
C860 C862 1.433 . S
C861 C857 1.350 . S
C861 C858 1.463 . S
C861 N865 1.427 . S
C862 H852 0.929 . S
C862 C860 1.433 . S
C862 N865 1.384 . S
C863 H854 0.929 . S
C863 C855 1.378 . S
C863 C858 1.350 . S
C864 H851 0.929 . S
C864 C856 1.433 . S
C864 N866 1.384 . S
N865 C861 1.427 . S
N865 C862 1.384 . S
N866 C858 1.427 . S
N866 C864 1.384 . S
H867 C873 0.930 . S
H868 C877 0.930 . S
H869 C882 0.929 . S
H870 C880 0.929 . S
H871 C875 0.929 . S
H872 C881 0.929 . S
C873 H867 0.930 . S
C873 C874 1.367 . S
C873 C881 1.378 . S
C874 C873 1.367 . S
C874 C882 1.433 . S
C875 H871 0.929 . S
C875 C877 1.378 . S
C875 C879 1.350 . S
C876 C879 1.463 . S
C876 C881 1.350 . S
C876 N884 1.427 . S
C877 H868 0.930 . S
C877 C875 1.378 . S
C877 C878 1.367 . S
C878 C877 1.367 . S
C878 C880 1.433 . S
C879 C875 1.350 . S
C879 C876 1.463 . S
C879 N883 1.427 . S
C880 H870 0.929 . S
C880 C878 1.433 . S
C880 N883 1.384 . S
C881 H872 0.929 . S
C881 C873 1.378 . S
C881 C876 1.350 . S
C882 H869 0.929 . S
C882 C874 1.433 . S
C882 N884 1.384 . S
N883 C879 1.427 . S
N883 C880 1.384 . S
N884 C876 1.427 . S
N884 C882 1.384 . S
H885 C891 0.930 . S
H886 C895 0.930 . S
H887 C900 0.929 . S
H888 C898 0.929 . S
H889 C893 0.929 . S
H890 C899 0.929 . S
C891 H885 0.930 . S
C891 C892 1.367 . S
C891 C899 1.378 . S
C892 C891 1.367 . S
C892 C900 1.433 . S
C893 H889 0.929 . S
C893 C895 1.378 . S
C893 C897 1.350 . S
C894 C897 1.463 . S
C894 C899 1.350 . S
C894 N902 1.427 . S
C895 H886 0.930 . S
C895 C893 1.378 . S
C895 C896 1.367 . S
C896 C895 1.367 . S
C896 C898 1.433 . S
C897 C893 1.350 . S
C897 C894 1.463 . S
C897 N901 1.427 . S
C898 H888 0.929 . S
C898 C896 1.433 . S
C898 N901 1.384 . S
C899 H890 0.929 . S
C899 C891 1.378 . S
C899 C894 1.350 . S
C900 H887 0.929 . S
C900 C892 1.433 . S
C900 N902 1.384 . S
N901 C897 1.427 . S
N901 C898 1.384 . S
N902 C894 1.427 . S
N902 C900 1.384 . S
H903 C909 0.930 . S
H904 C913 0.930 . S
H905 C918 0.929 . S
H906 C916 0.929 . S
H907 C911 0.929 . S
H908 C917 0.929 . S
C909 H903 0.930 . S
C909 C910 1.367 . S
C909 C917 1.378 . S
C910 C909 1.367 . S
C910 C918 1.433 . S
C911 H907 0.929 . S
C911 C913 1.378 . S
C911 C915 1.350 . S
C912 C915 1.463 . S
C912 C917 1.350 . S
C912 N920 1.427 . S
C913 H904 0.930 . S
C913 C911 1.378 . S
C913 C914 1.367 . S
C914 C913 1.367 . S
C914 C916 1.433 . S
C915 C911 1.350 . S
C915 C912 1.463 . S
C915 N919 1.427 . S
C916 H906 0.929 . S
C916 C914 1.433 . S
C916 N919 1.384 . S
C917 H908 0.929 . S
C917 C909 1.378 . S
C917 C912 1.350 . S
C918 H905 0.929 . S
C918 C910 1.433 . S
C918 N920 1.384 . S
N919 C915 1.427 . S
N919 C916 1.384 . S
N920 C912 1.427 . S
N920 C918 1.384 . S
H921 C927 0.930 . S
H922 C931 0.930 . S
H923 C936 0.929 . S
H924 C934 0.929 . S
H925 C929 0.929 . S
H926 C935 0.929 . S
C927 H921 0.930 . S
C927 C928 1.367 . S
C927 C935 1.378 . S
C928 C927 1.367 . S
C928 C936 1.433 . S
C929 H925 0.929 . S
C929 C931 1.378 . S
C929 C933 1.350 . S
C930 C933 1.463 . S
C930 C935 1.350 . S
C930 N938 1.427 . S
C931 H922 0.930 . S
C931 C929 1.378 . S
C931 C932 1.367 . S
C932 C931 1.367 . S
C932 C934 1.433 . S
C933 C929 1.350 . S
C933 C930 1.463 . S
C933 N937 1.427 . S
C934 H924 0.929 . S
C934 C932 1.433 . S
C934 N937 1.384 . S
C935 H926 0.929 . S
C935 C927 1.378 . S
C935 C930 1.350 . S
C936 H923 0.929 . S
C936 C928 1.433 . S
C936 N938 1.384 . S
N937 C933 1.427 . S
N937 C934 1.384 . S
N938 C930 1.427 . S
N938 C936 1.384 . S
H939 C945 0.930 . S
H940 C949 0.930 . S
H941 C954 0.929 . S
H942 C952 0.929 . S
H943 C947 0.929 . S
H944 C953 0.929 . S
C945 H939 0.930 . S
C945 C946 1.367 . S
C945 C953 1.378 . S
C946 C945 1.367 . S
C946 C954 1.433 . S
C947 H943 0.929 . S
C947 C949 1.378 . S
C947 C951 1.350 . S
C948 C951 1.463 . S
C948 C953 1.350 . S
C948 N956 1.427 . S
C949 H940 0.930 . S
C949 C947 1.378 . S
C949 C950 1.367 . S
C950 C949 1.367 . S
C950 C952 1.433 . S
C951 C947 1.350 . S
C951 C948 1.463 . S
C951 N955 1.427 . S
C952 H942 0.929 . S
C952 C950 1.433 . S
C952 N955 1.384 . S
C953 H944 0.929 . S
C953 C945 1.378 . S
C953 C948 1.350 . S
C954 H941 0.929 . S
C954 C946 1.433 . S
C954 N956 1.384 . S
N955 C951 1.427 . S
N955 C952 1.384 . S
N956 C948 1.427 . S
N956 C954 1.384 . S
H957 C963 0.930 . S
H958 C967 0.930 . S
H959 C972 0.929 . S
H960 C970 0.929 . S
H961 C965 0.929 . S
H962 C971 0.929 . S
C963 H957 0.930 . S
C963 C964 1.367 . S
C963 C971 1.378 . S
C964 C963 1.367 . S
C964 C972 1.433 . S
C965 H961 0.929 . S
C965 C967 1.378 . S
C965 C969 1.350 . S
C966 C969 1.463 . S
C966 C971 1.350 . S
C966 N974 1.427 . S
C967 H958 0.930 . S
C967 C965 1.378 . S
C967 C968 1.367 . S
C968 C967 1.367 . S
C968 C970 1.433 . S
C969 C965 1.350 . S
C969 C966 1.463 . S
C969 N973 1.427 . S
C970 H960 0.929 . S
C970 C968 1.433 . S
C970 N973 1.384 . S
C971 H962 0.929 . S
C971 C963 1.378 . S
C971 C966 1.350 . S
C972 H959 0.929 . S
C972 C964 1.433 . S
C972 N974 1.384 . S
N973 C969 1.427 . S
N973 C970 1.384 . S
N974 C966 1.427 . S
N974 C972 1.384 . S
H975 C981 0.930 . S
H976 C985 0.930 . S
H977 C990 0.929 . S
H978 C988 0.929 . S
H979 C983 0.929 . S
H980 C989 0.929 . S
C981 H975 0.930 . S
C981 C982 1.367 . S
C981 C989 1.378 . S
C982 C981 1.367 . S
C982 C990 1.433 . S
C983 H979 0.929 . S
C983 C985 1.378 . S
C983 C987 1.350 . S
C984 C987 1.463 . S
C984 C989 1.350 . S
C984 N992 1.427 . S
C985 H976 0.930 . S
C985 C983 1.378 . S
C985 C986 1.367 . S
C986 C985 1.367 . S
C986 C988 1.433 . S
C987 C983 1.350 . S
C987 C984 1.463 . S
C987 N991 1.427 . S
C988 H978 0.929 . S
C988 C986 1.433 . S
C988 N991 1.384 . S
C989 H980 0.929 . S
C989 C981 1.378 . S
C989 C984 1.350 . S
C990 H977 0.929 . S
C990 C982 1.433 . S
C990 N992 1.384 . S
N991 C987 1.427 . S
N991 C988 1.384 . S
N992 C984 1.427 . S
N992 C990 1.384 . S
H993 C999 0.930 . S
H994 C1003 0.930 . S
H995 C1008 0.929 . S
H996 C1006 0.929 . S
H997 C1001 0.929 . S
H998 C1007 0.929 . S
C999 H993 0.930 . S
C999 C1000 1.367 . S
C999 C1007 1.378 . S
C1000 C999 1.367 . S
C1000 C1008 1.433 . S
C1001 H997 0.929 . S
C1001 C1003 1.378 . S
C1001 C1005 1.350 . S
C1002 C1005 1.463 . S
C1002 C1007 1.350 . S
C1002 N1010 1.427 . S
C1003 H994 0.930 . S
C1003 C1001 1.378 . S
C1003 C1004 1.367 . S
C1004 C1003 1.367 . S
C1004 C1006 1.433 . S
C1005 C1001 1.350 . S
C1005 C1002 1.463 . S
C1005 N1009 1.427 . S
C1006 H996 0.929 . S
C1006 C1004 1.433 . S
C1006 N1009 1.384 . S
C1007 H998 0.929 . S
C1007 C999 1.378 . S
C1007 C1002 1.350 . S
C1008 H995 0.929 . S
C1008 C1000 1.433 . S
C1008 N1010 1.384 . S
N1009 C1005 1.427 . S
N1009 C1006 1.384 . S
N1010 C1002 1.427 . S
N1010 C1008 1.384 . S
H1011 C1017 0.930 . S
H1012 C1021 0.930 . S
H1013 C1026 0.929 . S
H1014 C1024 0.929 . S
H1015 C1019 0.929 . S
H1016 C1025 0.929 . S
C1017 H1011 0.930 . S
C1017 C1018 1.367 . S
C1017 C1025 1.378 . S
C1018 C1017 1.367 . S
C1018 C1026 1.433 . S
C1019 H1015 0.929 . S
C1019 C1021 1.378 . S
C1019 C1023 1.350 . S
C1020 C1023 1.463 . S
C1020 C1025 1.350 . S
C1020 N1028 1.427 . S
C1021 H1012 0.930 . S
C1021 C1019 1.378 . S
C1021 C1022 1.367 . S
C1022 C1021 1.367 . S
C1022 C1024 1.433 . S
C1023 C1019 1.350 . S
C1023 C1020 1.463 . S
C1023 N1027 1.427 . S
C1024 H1014 0.929 . S
C1024 C1022 1.433 . S
C1024 N1027 1.384 . S
C1025 H1016 0.929 . S
C1025 C1017 1.378 . S
C1025 C1020 1.350 . S
C1026 H1013 0.929 . S
C1026 C1018 1.433 . S
C1026 N1028 1.384 . S
N1027 C1023 1.427 . S
N1027 C1024 1.384 . S
N1028 C1020 1.427 . S
N1028 C1026 1.384 . S
H1029 C1035 0.930 . S
H1030 C1039 0.930 . S
H1031 C1044 0.929 . S
H1032 C1042 0.929 . S
H1033 C1037 0.929 . S
H1034 C1043 0.929 . S
C1035 H1029 0.930 . S
C1035 C1036 1.367 . S
C1035 C1043 1.378 . S
C1036 C1035 1.367 . S
C1036 C1044 1.433 . S
C1037 H1033 0.929 . S
C1037 C1039 1.378 . S
C1037 C1041 1.350 . S
C1038 C1041 1.463 . S
C1038 C1043 1.350 . S
C1038 N1046 1.427 . S
C1039 H1030 0.930 . S
C1039 C1037 1.378 . S
C1039 C1040 1.367 . S
C1040 C1039 1.367 . S
C1040 C1042 1.433 . S
C1041 C1037 1.350 . S
C1041 C1038 1.463 . S
C1041 N1045 1.427 . S
C1042 H1032 0.929 . S
C1042 C1040 1.433 . S
C1042 N1045 1.384 . S
C1043 H1034 0.929 . S
C1043 C1035 1.378 . S
C1043 C1038 1.350 . S
C1044 H1031 0.929 . S
C1044 C1036 1.433 . S
C1044 N1046 1.384 . S
N1045 C1041 1.427 . S
N1045 C1042 1.384 . S
N1046 C1038 1.427 . S
N1046 C1044 1.384 . S
H1047 C1053 0.930 . S
H1048 C1057 0.930 . S
H1049 C1062 0.929 . S
H1050 C1060 0.929 . S
H1051 C1055 0.929 . S
H1052 C1061 0.929 . S
C1053 H1047 0.930 . S
C1053 C1054 1.367 . S
C1053 C1061 1.378 . S
C1054 C1053 1.367 . S
C1054 C1062 1.433 . S
C1055 H1051 0.929 . S
C1055 C1057 1.378 . S
C1055 C1059 1.350 . S
C1056 C1059 1.463 . S
C1056 C1061 1.350 . S
C1056 N1064 1.427 . S
C1057 H1048 0.930 . S
C1057 C1055 1.378 . S
C1057 C1058 1.367 . S
C1058 C1057 1.367 . S
C1058 C1060 1.433 . S
C1059 C1055 1.350 . S
C1059 C1056 1.463 . S
C1059 N1063 1.427 . S
C1060 H1050 0.929 . S
C1060 C1058 1.433 . S
C1060 N1063 1.384 . S
C1061 H1052 0.929 . S
C1061 C1053 1.378 . S
C1061 C1056 1.350 . S
C1062 H1049 0.929 . S
C1062 C1054 1.433 . S
C1062 N1064 1.384 . S
N1063 C1059 1.427 . S
N1063 C1060 1.384 . S
N1064 C1056 1.427 . S
N1064 C1062 1.384 . S
H1065 C1071 0.930 . S
H1066 C1075 0.930 . S
H1067 C1080 0.929 . S
H1068 C1078 0.929 . S
H1069 C1073 0.929 . S
H1070 C1079 0.929 . S
C1071 H1065 0.930 . S
C1071 C1072 1.367 . S
C1071 C1079 1.378 . S
C1072 C1071 1.367 . S
C1072 C1080 1.433 . S
C1073 H1069 0.929 . S
C1073 C1075 1.378 . S
C1073 C1077 1.350 . S
C1074 C1077 1.463 . S
C1074 C1079 1.350 . S
C1074 N1082 1.427 . S
C1075 H1066 0.930 . S
C1075 C1073 1.378 . S
C1075 C1076 1.367 . S
C1076 C1075 1.367 . S
C1076 C1078 1.433 . S
C1077 C1073 1.350 . S
C1077 C1074 1.463 . S
C1077 N1081 1.427 . S
C1078 H1068 0.929 . S
C1078 C1076 1.433 . S
C1078 N1081 1.384 . S
C1079 H1070 0.929 . S
C1079 C1071 1.378 . S
C1079 C1074 1.350 . S
C1080 H1067 0.929 . S
C1080 C1072 1.433 . S
C1080 N1082 1.384 . S
N1081 C1077 1.427 . S
N1081 C1078 1.384 . S
N1082 C1074 1.427 . S
N1082 C1080 1.384 . S
H1083 C1089 0.930 . S
H1084 C1093 0.930 . S
H1085 C1098 0.929 . S
H1086 C1096 0.929 . S
H1087 C1091 0.929 . S
H1088 C1097 0.929 . S
C1089 H1083 0.930 . S
C1089 C1090 1.367 . S
C1089 C1097 1.378 . S
C1090 C1089 1.367 . S
C1090 C1098 1.433 . S
C1091 H1087 0.929 . S
C1091 C1093 1.378 . S
C1091 C1095 1.350 . S
C1092 C1095 1.463 . S
C1092 C1097 1.350 . S
C1092 N1100 1.427 . S
C1093 H1084 0.930 . S
C1093 C1091 1.378 . S
C1093 C1094 1.367 . S
C1094 C1093 1.367 . S
C1094 C1096 1.433 . S
C1095 C1091 1.350 . S
C1095 C1092 1.463 . S
C1095 N1099 1.427 . S
C1096 H1086 0.929 . S
C1096 C1094 1.433 . S
C1096 N1099 1.384 . S
C1097 H1088 0.929 . S
C1097 C1089 1.378 . S
C1097 C1092 1.350 . S
C1098 H1085 0.929 . S
C1098 C1090 1.433 . S
C1098 N1100 1.384 . S
N1099 C1095 1.427 . S
N1099 C1096 1.384 . S
N1100 C1092 1.427 . S
N1100 C1098 1.384 . S
H1101 C1107 0.930 . S
H1102 C1111 0.930 . S
H1103 C1116 0.929 . S
H1104 C1114 0.929 . S
H1105 C1109 0.929 . S
H1106 C1115 0.929 . S
C1107 H1101 0.930 . S
C1107 C1108 1.367 . S
C1107 C1115 1.378 . S
C1108 C1107 1.367 . S
C1108 C1116 1.433 . S
C1109 H1105 0.929 . S
C1109 C1111 1.378 . S
C1109 C1113 1.350 . S
C1110 C1113 1.463 . S
C1110 C1115 1.350 . S
C1110 N1118 1.427 . S
C1111 H1102 0.930 . S
C1111 C1109 1.378 . S
C1111 C1112 1.367 . S
C1112 C1111 1.367 . S
C1112 C1114 1.433 . S
C1113 C1109 1.350 . S
C1113 C1110 1.463 . S
C1113 N1117 1.427 . S
C1114 H1104 0.929 . S
C1114 C1112 1.433 . S
C1114 N1117 1.384 . S
C1115 H1106 0.929 . S
C1115 C1107 1.378 . S
C1115 C1110 1.350 . S
C1116 H1103 0.929 . S
C1116 C1108 1.433 . S
C1116 N1118 1.384 . S
N1117 C1113 1.427 . S
N1117 C1114 1.384 . S
N1118 C1110 1.427 . S
N1118 C1116 1.384 . S
H1119 C1125 0.930 . S
H1120 C1129 0.930 . S
H1121 C1134 0.929 . S
H1122 C1132 0.929 . S
H1123 C1127 0.929 . S
H1124 C1133 0.929 . S
C1125 H1119 0.930 . S
C1125 C1126 1.367 . S
C1125 C1133 1.378 . S
C1126 C1125 1.367 . S
C1126 C1134 1.433 . S
C1127 H1123 0.929 . S
C1127 C1129 1.378 . S
C1127 C1131 1.350 . S
C1128 C1131 1.463 . S
C1128 C1133 1.350 . S
C1128 N1136 1.427 . S
C1129 H1120 0.930 . S
C1129 C1127 1.378 . S
C1129 C1130 1.367 . S
C1130 C1129 1.367 . S
C1130 C1132 1.433 . S
C1131 C1127 1.350 . S
C1131 C1128 1.463 . S
C1131 N1135 1.427 . S
C1132 H1122 0.929 . S
C1132 C1130 1.433 . S
C1132 N1135 1.384 . S
C1133 H1124 0.929 . S
C1133 C1125 1.378 . S
C1133 C1128 1.350 . S
C1134 H1121 0.929 . S
C1134 C1126 1.433 . S
C1134 N1136 1.384 . S
N1135 C1131 1.427 . S
N1135 C1132 1.384 . S
N1136 C1128 1.427 . S
N1136 C1134 1.384 . S
H1137 C1143 0.930 . S
H1138 C1147 0.930 . S
H1139 C1152 0.929 . S
H1140 C1150 0.929 . S
H1141 C1145 0.929 . S
H1142 C1151 0.929 . S
C1143 H1137 0.930 . S
C1143 C1144 1.367 . S
C1143 C1151 1.378 . S
C1144 C1143 1.367 . S
C1144 C1152 1.433 . S
C1145 H1141 0.929 . S
C1145 C1147 1.378 . S
C1145 C1149 1.350 . S
C1146 C1149 1.463 . S
C1146 C1151 1.350 . S
C1146 N1154 1.427 . S
C1147 H1138 0.930 . S
C1147 C1145 1.378 . S
C1147 C1148 1.367 . S
C1148 C1147 1.367 . S
C1148 C1150 1.433 . S
C1149 C1145 1.350 . S
C1149 C1146 1.463 . S
C1149 N1153 1.427 . S
C1150 H1140 0.929 . S
C1150 C1148 1.433 . S
C1150 N1153 1.384 . S
C1151 H1142 0.929 . S
C1151 C1143 1.378 . S
C1151 C1146 1.350 . S
C1152 H1139 0.929 . S
C1152 C1144 1.433 . S
C1152 N1154 1.384 . S
N1153 C1149 1.427 . S
N1153 C1150 1.384 . S
N1154 C1146 1.427 . S
N1154 C1152 1.384 . S
H1155 C1161 0.930 . S
H1156 C1165 0.930 . S
H1157 C1170 0.929 . S
H1158 C1168 0.929 . S
H1159 C1163 0.929 . S
H1160 C1169 0.929 . S
C1161 H1155 0.930 . S
C1161 C1162 1.367 . S
C1161 C1169 1.378 . S
C1162 C1161 1.367 . S
C1162 C1170 1.433 . S
C1163 H1159 0.929 . S
C1163 C1165 1.378 . S
C1163 C1167 1.350 . S
C1164 C1167 1.463 . S
C1164 C1169 1.350 . S
C1164 N1172 1.427 . S
C1165 H1156 0.930 . S
C1165 C1163 1.378 . S
C1165 C1166 1.367 . S
C1166 C1165 1.367 . S
C1166 C1168 1.433 . S
C1167 C1163 1.350 . S
C1167 C1164 1.463 . S
C1167 N1171 1.427 . S
C1168 H1158 0.929 . S
C1168 C1166 1.433 . S
C1168 N1171 1.384 . S
C1169 H1160 0.929 . S
C1169 C1161 1.378 . S
C1169 C1164 1.350 . S
C1170 H1157 0.929 . S
C1170 C1162 1.433 . S
C1170 N1172 1.384 . S
N1171 C1167 1.427 . S
N1171 C1168 1.384 . S
N1172 C1164 1.427 . S
N1172 C1170 1.384 . S
H1173 C1179 0.930 . S
H1174 C1183 0.930 . S
H1175 C1188 0.929 . S
H1176 C1186 0.929 . S
H1177 C1181 0.929 . S
H1178 C1187 0.929 . S
C1179 H1173 0.930 . S
C1179 C1180 1.367 . S
C1179 C1187 1.378 . S
C1180 C1179 1.367 . S
C1180 C1188 1.433 . S
C1181 H1177 0.929 . S
C1181 C1183 1.378 . S
C1181 C1185 1.350 . S
C1182 C1185 1.463 . S
C1182 C1187 1.350 . S
C1182 N1190 1.427 . S
C1183 H1174 0.930 . S
C1183 C1181 1.378 . S
C1183 C1184 1.367 . S
C1184 C1183 1.367 . S
C1184 C1186 1.433 . S
C1185 C1181 1.350 . S
C1185 C1182 1.463 . S
C1185 N1189 1.427 . S
C1186 H1176 0.929 . S
C1186 C1184 1.433 . S
C1186 N1189 1.384 . S
C1187 H1178 0.929 . S
C1187 C1179 1.378 . S
C1187 C1182 1.350 . S
C1188 H1175 0.929 . S
C1188 C1180 1.433 . S
C1188 N1190 1.384 . S
N1189 C1185 1.427 . S
N1189 C1186 1.384 . S
N1190 C1182 1.427 . S
N1190 C1188 1.384 . S
H1191 C1197 0.930 . S
H1192 C1201 0.930 . S
H1193 C1206 0.929 . S
H1194 C1204 0.929 . S
H1195 C1199 0.929 . S
H1196 C1205 0.929 . S
C1197 H1191 0.930 . S
C1197 C1198 1.367 . S
C1197 C1205 1.378 . S
C1198 C1197 1.367 . S
C1198 C1206 1.433 . S
C1199 H1195 0.929 . S
C1199 C1201 1.378 . S
C1199 C1203 1.350 . S
C1200 C1203 1.463 . S
C1200 C1205 1.350 . S
C1200 N1208 1.427 . S
C1201 H1192 0.930 . S
C1201 C1199 1.378 . S
C1201 C1202 1.367 . S
C1202 C1201 1.367 . S
C1202 C1204 1.433 . S
C1203 C1199 1.350 . S
C1203 C1200 1.463 . S
C1203 N1207 1.427 . S
C1204 H1194 0.929 . S
C1204 C1202 1.433 . S
C1204 N1207 1.384 . S
C1205 H1196 0.929 . S
C1205 C1197 1.378 . S
C1205 C1200 1.350 . S
C1206 H1193 0.929 . S
C1206 C1198 1.433 . S
C1206 N1208 1.384 . S
N1207 C1203 1.427 . S
N1207 C1204 1.384 . S
N1208 C1200 1.427 . S
N1208 C1206 1.384 . S
C784 C11 1.514 . S
C788 C684 1.779 . S
C802 C125 1.230 . S
C806 C716 1.634 . S
C824 C775 2.054 . S
C820 C239 1.529 . S
C842 C704 1.360 . S
C838 C343 1.214 . S
C856 C485 1.243 . S
C860 C734 1.687 . S
C878 C756 1.170 . S
C874 C571 1.106 . S
C896 C725 1.824 . S
C892 C257 1.253 . S
C910 C397 0.796 . S
C914 C765 1.353 . S
C932 C714 1.773 . S
C928 C467 1.386 . S
C946 C625 1.099 . S
C950 C744 1.619 . S
C964 C29 1.514 . S
C968 C747 1.955 . S
C986 C686 1.695 . S
C982 C143 1.219 . S
C1004 C694 1.629 . S
C1000 C371 1.427 . S
C1022 C735 1.392 . S
C1018 C457 1.090 . S
C1040 C748 1.946 . S
C1036 C599 1.715 . S
C1058 C685 1.526 . S
C1054 C55 1.257 . S
C1076 C745 1.597 . S
C1072 C169 1.387 . S
C1090 C283 1.002 . S
C1094 C746 1.206 . S
C1112 C715 1.605 . S
C1108 C581 1.000 . S
C1130 C776 1.035 . S
C1126 C1 0.872 . S
C1148 C703 1.427 . S
C1144 C115 1.098 . S
C1166 C717 1.376 . S
C1162 C229 1.054 . S
C1180 C353 1.156 . S
C1184 C766 1.931 . S
C1198 C511 1.366 . S
C1202 C713 1.652 . S
