# Generated by pormake.
# Topology wbl, (4,4)-cn, num edge types: 1
# Building blocks:
#     Node 0, Type 0, BuildingBlock: MIFKUJ_clean_linker_1, # of connection points: 4
#     Node 1, Type 0, BuildingBlock: MIFKUJ_clean_linker_1, # of connection points: 4
#     Node 2, Type 0, BuildingBlock: MIFKUJ_clean_linker_1, # of connection points: 4
#     Node 3, Type 0, BuildingBlock: MIFKUJ_clean_linker_1, # of connection points: 4
#     Node 4, Type 0, BuildingBlock: MIFKUJ_clean_linker_1, # of connection points: 4
#     Node 5, Type 0, BuildingBlock: MIFKUJ_clean_linker_1, # of connection points: 4
#     Node 6, Type 0, BuildingBlock: MIFKUJ_clean_linker_1, # of connection points: 4
#     Node 7, Type 0, BuildingBlock: MIFKUJ_clean_linker_1, # of connection points: 4
#     Node 8, Type 1, BuildingBlock: QUQFOY_clean_sbu_1, # of connection points: 4
#     Node 9, Type 1, BuildingBlock: QUQFOY_clean_sbu_1, # of connection points: 4
#     Node 10, Type 1, BuildingBlock: QUQFOY_clean_sbu_1, # of connection points: 4
#     Node 11, Type 1, BuildingBlock: QUQFOY_clean_sbu_1, # of connection points: 4
#     Node 12, Type 1, BuildingBlock: QUQFOY_clean_sbu_1, # of connection points: 4
#     Node 13, Type 1, BuildingBlock: QUQFOY_clean_sbu_1, # of connection points: 4
#     Node 14, Type 1, BuildingBlock: QUQFOY_clean_sbu_1, # of connection points: 4
#     Node 15, Type 1, BuildingBlock: QUQFOY_clean_sbu_1, # of connection points: 4
#     Edge 16, Type (0, 1), BuildingBlock: EZIPEK_clean_linker_0, # of connection points: 2
#     Edge 17, Type (0, 1), BuildingBlock: EZIPEK_clean_linker_0, # of connection points: 2
#     Edge 18, Type (0, 1), BuildingBlock: EZIPEK_clean_linker_0, # of connection points: 2
#     Edge 19, Type (0, 1), BuildingBlock: EZIPEK_clean_linker_0, # of connection points: 2
#     Edge 20, Type (0, 1), BuildingBlock: EZIPEK_clean_linker_0, # of connection points: 2
#     Edge 21, Type (0, 1), BuildingBlock: EZIPEK_clean_linker_0, # of connection points: 2
#     Edge 22, Type (0, 1), BuildingBlock: EZIPEK_clean_linker_0, # of connection points: 2
#     Edge 23, Type (0, 1), BuildingBlock: EZIPEK_clean_linker_0, # of connection points: 2
#     Edge 24, Type (0, 1), BuildingBlock: EZIPEK_clean_linker_0, # of connection points: 2
#     Edge 25, Type (0, 1), BuildingBlock: EZIPEK_clean_linker_0, # of connection points: 2
#     Edge 26, Type (0, 1), BuildingBlock: EZIPEK_clean_linker_0, # of connection points: 2
#     Edge 27, Type (0, 1), BuildingBlock: EZIPEK_clean_linker_0, # of connection points: 2
#     Edge 28, Type (0, 1), BuildingBlock: EZIPEK_clean_linker_0, # of connection points: 2
#     Edge 29, Type (0, 1), BuildingBlock: EZIPEK_clean_linker_0, # of connection points: 2
#     Edge 30, Type (0, 1), BuildingBlock: EZIPEK_clean_linker_0, # of connection points: 2
#     Edge 31, Type (0, 1), BuildingBlock: EZIPEK_clean_linker_0, # of connection points: 2
#     Edge 32, Type (0, 1), BuildingBlock: EZIPEK_clean_linker_0, # of connection points: 2
#     Edge 33, Type (0, 1), BuildingBlock: EZIPEK_clean_linker_0, # of connection points: 2
#     Edge 34, Type (0, 1), BuildingBlock: EZIPEK_clean_linker_0, # of connection points: 2
#     Edge 35, Type (0, 1), BuildingBlock: EZIPEK_clean_linker_0, # of connection points: 2
#     Edge 36, Type (0, 1), BuildingBlock: EZIPEK_clean_linker_0, # of connection points: 2
#     Edge 37, Type (0, 1), BuildingBlock: EZIPEK_clean_linker_0, # of connection points: 2
#     Edge 38, Type (0, 1), BuildingBlock: EZIPEK_clean_linker_0, # of connection points: 2
#     Edge 39, Type (0, 1), BuildingBlock: EZIPEK_clean_linker_0, # of connection points: 2
#     Edge 40, Type (0, 1), BuildingBlock: EZIPEK_clean_linker_0, # of connection points: 2
#     Edge 41, Type (0, 1), BuildingBlock: EZIPEK_clean_linker_0, # of connection points: 2
#     Edge 42, Type (0, 1), BuildingBlock: EZIPEK_clean_linker_0, # of connection points: 2
#     Edge 43, Type (0, 1), BuildingBlock: EZIPEK_clean_linker_0, # of connection points: 2
#     Edge 44, Type (0, 1), BuildingBlock: EZIPEK_clean_linker_0, # of connection points: 2
#     Edge 45, Type (0, 1), BuildingBlock: EZIPEK_clean_linker_0, # of connection points: 2
#     Edge 46, Type (0, 1), BuildingBlock: EZIPEK_clean_linker_0, # of connection points: 2
#     Edge 47, Type (0, 1), BuildingBlock: EZIPEK_clean_linker_0, # of connection points: 2
# Relax obj value: 0.175
# Max RMSD: 0.208
# Mean RMSD: 0.159
data_MOF--net-wbl--node1-QUQFOY_clean_sbu_1--node2-MIFKUJ_clean_linker_1--edge1-EZIPEK_clean_linker_0
_symmetry_space_group_name_H-M    P1
_symmetry_Int_Tables_number       1
_symmetry_cell_setting            triclinic
loop_
_symmetry_equiv_pos_as_xyz
'x, y, z'
_cell_length_a     35.799485
_cell_length_b     35.802613
_cell_length_c     59.867951
_cell_angle_alpha  93.63673
_cell_angle_beta   93.535973
_cell_angle_gamma 90.230138
loop_
_atom_site_label
_atom_site_type_symbol
_atom_site_fract_x
_atom_site_fract_y
_atom_site_fract_z
_atom_type_partial_charge
H0 H 0.12695 0.16861 0.4074 0.0
H1 H 0.08531 0.19859 0.4339 0.0
H2 H 0.98955 0.16167 0.3908 0.0
H3 H 0.03075 0.12806 0.3656 0.0
H4 H 0.13432 0.10016 0.39913 0.0
H5 H 0.0984 0.19829 0.34982 0.0
H6 H 0.04586 0.23518 0.3348 0.0
H7 H 0.99818 0.13551 0.29987 0.0
H8 H 0.05026 0.09854 0.31496 0.0
H9 H 0.12793 0.01308 0.31773 0.0
H10 H 0.16651 0.96287 0.30139 0.0
H11 H 0.26642 0.02238 0.32749 0.0
H12 H 0.22796 0.07199 0.34425 0.0
H13 H 0.12499 0.09493 0.31599 0.0
H14 H 0.15146 0.99822 0.36672 0.0
H15 H 0.18174 0.95639 0.39317 0.0
H16 H 0.23902 0.05088 0.42833 0.0
H17 H 0.20953 0.09267 0.40163 0.0
C18 C 0.08225 0.14634 0.38419 0.0
C19 C 0.097 0.16695 0.40355 0.0
C20 C 0.07326 0.18432 0.41863 0.0
C21 C 0.03428 0.18248 0.41431 0.0
C22 C 0.01955 0.16359 0.39441 0.0
C23 C 0.04319 0.14479 0.37984 0.0
C24 C 0.10754 0.12343 0.37002 0.0
C25 C 0.13307 0.10009 0.38097 0.0
C26 C 0.1049 0.12195 0.34622 0.0
C27 C 0.07794 0.14557 0.33375 0.0
C28 C 0.07705 0.18453 0.33855 0.0
C29 C 0.04721 0.20555 0.33001 0.0
C30 C 0.01813 0.18785 0.31647 0.0
C31 C 0.02041 0.14951 0.31035 0.0
C32 C 0.05019 0.12851 0.31887 0.0
C33 C 0.17517 0.04606 0.33226 0.0
C34 C 0.15815 0.0157 0.31945 0.0
C35 C 0.18007 0.98712 0.31017 0.0
C36 C 0.21925 0.989 0.31326 0.0
C37 C 0.23623 0.02055 0.32488 0.0
C38 C 0.21435 0.04876 0.33443 0.0
C39 C 0.15224 0.07274 0.34535 0.0
C40 C 0.12714 0.09637 0.33418 0.0
C41 C 0.15517 0.07467 0.36903 0.0
C42 C 0.17844 0.04857 0.38212 0.0
C43 C 0.17156 0.00981 0.3796 0.0
C44 C 0.18856 0.98598 0.39475 0.0
C45 C 0.21227 0.00073 0.41272 0.0
C46 C 0.22075 0.0391 0.41454 0.0
C47 C 0.20395 0.06286 0.39935 0.0
H48 H 0.05766 0.54635 0.55995 0.0
H49 H 0.02814 0.48892 0.54249 0.0
H50 H 0.9201 0.52922 0.56069 0.0
H51 H 0.94923 0.58742 0.57727 0.0
H52 H 0.05823 0.61887 0.55869 0.0
H53 H 0.02487 0.53323 0.61278 0.0
H54 H 0.9901 0.49413 0.63675 0.0
H55 H 0.91789 0.58696 0.65255 0.0
H56 H 0.95286 0.62624 0.62871 0.0
H57 H 0.04075 0.71278 0.64164 0.0
H58 H 0.07747 0.74263 0.67397 0.0
H59 H 0.17583 0.68421 0.65321 0.0
H60 H 0.13914 0.65357 0.62128 0.0
H61 H 0.02986 0.63969 0.63855 0.0
H62 H 0.07896 0.72708 0.59019 0.0
H63 H 0.13003 0.76325 0.57627 0.0
H64 H 0.18306 0.66089 0.55383 0.0
H65 H 0.13198 0.62447 0.56783 0.0
C66 C 0.00575 0.5708 0.57039 0.0
C67 C 0.02748 0.54349 0.55951 0.0
C68 C 0.01072 0.51074 0.54958 0.0
C69 C 0.97211 0.5048 0.55063 0.0
C70 C 0.94996 0.53333 0.55984 0.0
C71 C 0.96664 0.56633 0.56944 0.0
C72 C 0.02428 0.60154 0.5848 0.0
C73 C 0.05197 0.62352 0.57614 0.0
C74 C 0.01606 0.60781 0.60756 0.0
C75 C 0.99137 0.58261 0.61894 0.0
C76 C 0.00098 0.54491 0.62094 0.0
C77 C 0.98123 0.52265 0.63461 0.0
C78 C 0.9516 0.53777 0.64646 0.0
C79 C 0.94065 0.57484 0.6435 0.0
C80 C 0.96061 0.5972 0.62998 0.0
C81 C 0.08721 0.68111 0.62896 0.0
C82 C 0.07041 0.70709 0.64373 0.0
C83 C 0.09127 0.72411 0.66211 0.0
C84 C 0.12919 0.71542 0.66588 0.0
C85 C 0.1466 0.69129 0.65042 0.0
C86 C 0.1257 0.67406 0.63213 0.0
C87 C 0.06367 0.65715 0.61253 0.0
C88 C 0.03519 0.63608 0.62089 0.0
C89 C 0.072 0.65114 0.58978 0.0
C90 C 0.1017 0.67306 0.58013 0.0
C91 C 0.10148 0.71236 0.58224 0.0
C92 C 0.13052 0.73297 0.5743 0.0
C93 C 0.16018 0.71466 0.56406 0.0
C94 C 0.16029 0.67542 0.56164 0.0
C95 C 0.13112 0.65475 0.56952 0.0
H96 H 0.50772 0.63134 0.86415 0.0
H97 H 0.47584 0.67236 0.89109 0.0
H98 H 0.4175 0.57702 0.91303 0.0
H99 H 0.44848 0.53591 0.8855 0.0
H100 H 0.5227 0.52461 0.88579 0.0
H101 H 0.52543 0.6243 0.81681 0.0
H102 H 0.4842 0.67556 0.80538 0.0
H103 H 0.38757 0.609 0.8172 0.0
H104 H 0.42862 0.55828 0.8291 0.0
H105 H 0.54403 0.47455 0.79151 0.0
H106 H 0.59301 0.44532 0.76932 0.0
H107 H 0.67603 0.47821 0.82223 0.0
H108 H 0.62794 0.50917 0.84372 0.0
H109 H 0.53158 0.54323 0.80485 0.0
H110 H 0.55512 0.43059 0.84776 0.0
H111 H 0.5893 0.38665 0.87164 0.0
H112 H 0.63052 0.47951 0.91582 0.0
H113 H 0.59676 0.52312 0.89221 0.0
C114 C 0.4801 0.58058 0.87259 0.0
C115 C 0.48718 0.61933 0.8742 0.0
C116 C 0.46924 0.64271 0.88965 0.0
C117 C 0.44444 0.6276 0.90398 0.0
C118 C 0.43647 0.58909 0.902 0.0
C119 C 0.45421 0.56572 0.8864 0.0
C120 C 0.50233 0.5554 0.85798 0.0
C121 C 0.52438 0.52822 0.86801 0.0
C122 C 0.50424 0.5601 0.83485 0.0
C123 C 0.47996 0.58759 0.82373 0.0
C124 C 0.49536 0.62043 0.81636 0.0
C125 C 0.47197 0.64966 0.81002 0.0
C126 C 0.43299 0.64588 0.81052 0.0
C127 C 0.4176 0.61224 0.81667 0.0
C128 C 0.44094 0.58334 0.82334 0.0
C129 C 0.58205 0.49331 0.8196 0.0
C130 C 0.57278 0.47547 0.79834 0.0
C131 C 0.60059 0.45867 0.78572 0.0
C132 C 0.63798 0.45908 0.79433 0.0
C133 C 0.64724 0.4771 0.81545 0.0
C134 C 0.61968 0.49443 0.82782 0.0
C135 C 0.55291 0.51232 0.83277 0.0
C136 C 0.52949 0.53864 0.82246 0.0
C137 C 0.54978 0.50676 0.85583 0.0
C138 C 0.57333 0.48008 0.86829 0.0
C139 C 0.57201 0.44143 0.86239 0.0
C140 C 0.59132 0.41645 0.87598 0.0
C141 C 0.61213 0.43002 0.89549 0.0
C142 C 0.61449 0.46863 0.90086 0.0
C143 C 0.59521 0.49343 0.88742 0.0
H144 H 0.56171 0.94565 0.09749 0.0
H145 H 0.51682 0.89942 0.07964 0.0
H146 H 0.4486 0.98834 0.05437 0.0
H147 H 0.49383 0.0349 0.07221 0.0
H148 H 0.57134 0.04607 0.0683 0.0
H149 H 0.58832 0.9715 0.15181 0.0
H150 H 0.5516 0.93698 0.17714 0.0
H151 H 0.45013 0.98473 0.14921 0.0
H152 H 0.4868 0.01968 0.12395 0.0
H153 H 0.6034 0.11683 0.15688 0.0
H154 H 0.65253 0.15106 0.18007 0.0
H155 H 0.73544 0.10757 0.13624 0.0
H156 H 0.68619 0.07245 0.11309 0.0
H157 H 0.59594 0.04453 0.15071 0.0
H158 H 0.61162 0.14584 0.10622 0.0
H159 H 0.64621 0.19032 0.08593 0.0
H160 H 0.6711 0.1024 0.03658 0.0
H161 H 0.63847 0.05696 0.05779 0.0
C162 C 0.53088 0.99359 0.08621 0.0
C163 C 0.53724 0.95521 0.08798 0.0
C164 C 0.51176 0.92893 0.07784 0.0
C165 C 0.47959 0.94066 0.06578 0.0
C166 C 0.47343 0.97898 0.06361 0.0
C167 C 0.49916 0.00537 0.07366 0.0
C168 C 0.55673 0.02109 0.09842 0.0
C169 C 0.57688 0.04588 0.08631 0.0
C170 C 0.56294 0.02132 0.12195 0.0
C171 C 0.54034 0.9981 0.13592 0.0
C172 C 0.55817 0.97438 0.15099 0.0
C173 C 0.53729 0.95463 0.16537 0.0
C174 C 0.49829 0.95844 0.16499 0.0
C175 C 0.48022 0.98145 0.14965 0.0
C176 C 0.50113 0.0012 0.13521 0.0
C177 C 0.64116 0.09205 0.13331 0.0
C178 C 0.63209 0.1147 0.15217 0.0
C179 C 0.66 0.13427 0.16533 0.0
C180 C 0.69742 0.13149 0.15987 0.0
C181 C 0.7066 0.10983 0.14065 0.0
C182 C 0.67858 0.09001 0.12748 0.0
C183 C 0.61155 0.06903 0.12065 0.0
C184 C 0.59064 0.04489 0.13268 0.0
C185 C 0.60406 0.07033 0.09718 0.0
C186 C 0.62323 0.09771 0.08395 0.0
C187 C 0.62511 0.13577 0.09132 0.0
C188 C 0.6446 0.16126 0.07964 0.0
C189 C 0.66169 0.14955 0.05994 0.0
C190 C 0.65854 0.11186 0.05193 0.0
C191 C 0.63972 0.08607 0.06395 0.0
H192 H 0.02119 0.67286 0.906 0.0
H193 H 0.0633 0.7047 0.88269 0.0
H194 H 0.15848 0.65957 0.91937 0.0
H195 H 0.11628 0.62363 0.94063 0.0
H196 H 0.01165 0.60372 0.90479 0.0
H197 H 0.05716 0.69161 0.96545 0.0
H198 H 0.11472 0.72054 0.98313 0.0
H199 H 0.14793 0.61449 0.00807 0.0
H200 H 0.0916 0.58498 0.98936 0.0
H201 H 0.0146 0.50985 0.97851 0.0
H202 H 0.97508 0.46057 0.9919 0.0
H203 H 0.87655 0.51503 0.965 0.0
H204 H 0.91587 0.5642 0.95157 0.0
H205 H 0.01998 0.58567 0.98633 0.0
H206 H 0.99015 0.49803 0.92478 0.0
H207 H 0.96013 0.46001 0.89311 0.0
H208 H 0.90901 0.55894 0.86772 0.0
H209 H 0.938 0.59692 0.89975 0.0
C210 C 0.06536 0.646 0.92538 0.0
C211 C 0.05111 0.66975 0.90912 0.0
C212 C 0.07516 0.6882 0.8959 0.0
C213 C 0.1141 0.68445 0.89917 0.0
C214 C 0.12853 0.66281 0.91647 0.0
C215 C 0.1044 0.64273 0.92888 0.0
C216 C 0.03924 0.62167 0.93662 0.0
C217 C 0.0127 0.60087 0.92276 0.0
C218 C 0.04186 0.61627 0.95998 0.0
C219 C 0.07068 0.63586 0.97542 0.0
C220 C 0.07648 0.67468 0.97503 0.0
C221 C 0.10913 0.69125 0.98523 0.0
C222 C 0.13574 0.66941 0.99652 0.0
C223 C 0.12775 0.63164 0.99927 0.0
C224 C 0.09556 0.61489 0.98863 0.0
C225 C 0.96816 0.54062 0.96399 0.0
C226 C 0.98447 0.51142 0.97573 0.0
C227 C 0.96205 0.48327 0.98325 0.0
C228 C 0.92302 0.48426 0.97937 0.0
C229 C 0.90665 0.51385 0.96809 0.0
C230 C 0.92904 0.54182 0.96047 0.0
C231 C 0.99207 0.56869 0.95438 0.0
C232 C 0.01809 0.58989 0.96852 0.0
C233 C 0.98954 0.57424 0.93119 0.0
C234 C 0.96613 0.55031 0.9147 0.0
C235 C 0.97139 0.51139 0.9129 0.0
C236 C 0.95455 0.48974 0.89478 0.0
C237 C 0.93273 0.50687 0.8781 0.0
C238 C 0.92583 0.54537 0.88048 0.0
C239 C 0.94235 0.56695 0.89869 0.0
H240 H 0.54405 0.59257 0.23508 0.0
H241 H 0.50409 0.64199 0.25047 0.0
H242 H 0.40785 0.59098 0.21355 0.0
H243 H 0.4479 0.54126 0.19805 0.0
H244 H 0.54945 0.51626 0.23275 0.0
H245 H 0.51418 0.61472 0.18448 0.0
H246 H 0.47899 0.65421 0.15889 0.0
H247 H 0.45147 0.55727 0.11436 0.0
H248 H 0.48338 0.5172 0.14094 0.0
H249 H 0.56561 0.42445 0.1605 0.0
H250 H 0.60158 0.3943 0.13074 0.0
H251 H 0.68206 0.48487 0.13909 0.0
H252 H 0.64513 0.5158 0.16798 0.0
H253 H 0.55295 0.51658 0.15008 0.0
H254 H 0.55935 0.43857 0.23048 0.0
H255 H 0.60304 0.39629 0.24951 0.0
H256 H 0.6962 0.45467 0.22493 0.0
H257 H 0.65281 0.49804 0.20701 0.0
C258 C 0.49903 0.56353 0.21521 0.0
C259 C 0.51422 0.59135 0.23076 0.0
C260 C 0.4915 0.6196 0.23945 0.0
C261 C 0.45324 0.62027 0.23287 0.0
C262 C 0.43739 0.59092 0.21868 0.0
C263 C 0.4602 0.56267 0.20988 0.0
C264 C 0.52454 0.53864 0.20268 0.0
C265 C 0.54995 0.51614 0.21465 0.0
C266 C 0.52542 0.53866 0.17902 0.0
C267 C 0.50106 0.56271 0.16493 0.0
C268 C 0.49926 0.60159 0.16975 0.0
C269 C 0.47951 0.62426 0.15501 0.0
C270 C 0.46286 0.60875 0.13463 0.0
C271 C 0.46405 0.56988 0.12998 0.0
C272 C 0.48248 0.54706 0.14511 0.0
C273 C 0.60326 0.47185 0.16674 0.0
C274 C 0.59162 0.43715 0.15639 0.0
C275 C 0.61198 0.4201 0.1394 0.0
C276 C 0.64438 0.43746 0.13275 0.0
C277 C 0.65722 0.47103 0.14408 0.0
C278 C 0.6364 0.48846 0.16067 0.0
C279 C 0.57702 0.49427 0.18002 0.0
C280 C 0.55163 0.51629 0.16814 0.0
C281 C 0.5764 0.49402 0.20357 0.0
C282 C 0.60277 0.47072 0.2167 0.0
C283 C 0.58919 0.44263 0.22949 0.0
C284 C 0.61404 0.41856 0.24032 0.0
C285 C 0.65278 0.42207 0.23832 0.0
C286 C 0.6664 0.45127 0.22646 0.0
C287 C 0.64161 0.47566 0.21597 0.0
H288 H 0.60071 0.95293 0.40902 0.0
H289 H 0.56192 0.91078 0.38333 0.0
H290 H 0.46245 0.96416 0.40655 0.0
H291 H 0.50123 0.00737 0.43172 0.0
H292 H 0.60098 0.02538 0.4022 0.0
H293 H 0.57083 0.95175 0.46513 0.0
H294 H 0.52796 0.92294 0.48856 0.0
H295 H 0.4789 0.0316 0.50317 0.0
H296 H 0.52174 0.05918 0.48 0.0
H297 H 0.6042 0.14052 0.47461 0.0
H298 H 0.64803 0.18996 0.49052 0.0
H299 H 0.7409 0.12403 0.46831 0.0
H300 H 0.69744 0.07494 0.45241 0.0
H301 H 0.59768 0.06487 0.48296 0.0
H302 H 0.61609 0.13841 0.42143 0.0
H303 H 0.64859 0.17355 0.39437 0.0
H304 H 0.70774 0.0738 0.37378 0.0
H305 H 0.67524 0.0385 0.40079 0.0
C306 C 0.5539 0.98337 0.42225 0.0
C307 C 0.57053 0.95501 0.40901 0.0
C308 C 0.54847 0.9309 0.39443 0.0
C309 C 0.50947 0.93465 0.39301 0.0
C310 C 0.49257 0.96091 0.40754 0.0
C311 C 0.51469 0.9854 0.42194 0.0
C312 C 0.57759 0.01392 0.43345 0.0
C313 C 0.60083 0.03337 0.41999 0.0
C314 C 0.57565 0.0259 0.45635 0.0
C315 C 0.55036 0.00789 0.47133 0.0
C316 C 0.55146 0.96937 0.4741 0.0
C317 C 0.52727 0.95305 0.48829 0.0
C318 C 0.50207 0.97488 0.50095 0.0
C319 C 0.49992 0.01333 0.49664 0.0
C320 C 0.52418 0.02957 0.48259 0.0
C321 C 0.64767 0.10426 0.46229 0.0
C322 C 0.63401 0.1367 0.47332 0.0
C323 C 0.65884 0.16483 0.48227 0.0
C324 C 0.69751 0.16041 0.48052 0.0
C325 C 0.71111 0.12779 0.46976 0.0
C326 C 0.68638 0.09991 0.46072 0.0
C327 C 0.6218 0.07504 0.45181 0.0
C328 C 0.59808 0.05627 0.46527 0.0
C329 C 0.62235 0.06419 0.42876 0.0
C330 C 0.64341 0.08585 0.41322 0.0
C331 C 0.6364 0.12418 0.41131 0.0
C332 C 0.65479 0.1442 0.39588 0.0
C333 C 0.68056 0.12621 0.38222 0.0
C334 C 0.68803 0.0881 0.3843 0.0
C335 C 0.66943 0.068 0.39961 0.0
H336 H 0.0794 0.20899 0.71316 0.0
H337 H 0.02862 0.25051 0.72443 0.0
H338 H 0.96102 0.15459 0.73616 0.0
H339 H 0.01232 0.11284 0.72527 0.0
H340 H 0.09476 0.10675 0.73734 0.0
H341 H 0.09928 0.19007 0.65719 0.0
H342 H 0.05707 0.22198 0.6307 0.0
H343 H 0.96326 0.16049 0.6521 0.0
H344 H 0.00537 0.12785 0.67803 0.0
H345 H 0.11368 0.0424 0.64887 0.0
H346 H 0.1572 0.00912 0.62494 0.0
H347 H 0.24991 0.04699 0.6702 0.0
H348 H 0.20614 0.08115 0.69426 0.0
H349 H 0.11129 0.11467 0.65608 0.0
H350 H 0.12905 0.01002 0.69863 0.0
H351 H 0.16135 0.96281 0.72013 0.0
H352 H 0.19443 0.04724 0.77224 0.0
H353 H 0.1638 0.09532 0.75004 0.0
C354 C 0.04961 0.15794 0.71854 0.0
C355 C 0.05411 0.19692 0.71881 0.0
C356 C 0.02515 0.22053 0.72508 0.0
C357 C 0.9912 0.20549 0.73101 0.0
C358 C 0.98715 0.16656 0.73168 0.0
C359 C 0.01643 0.14288 0.72569 0.0
C360 C 0.07692 0.13343 0.70734 0.0
C361 C 0.09887 0.10855 0.71965 0.0
C362 C 0.08104 0.135 0.68413 0.0
C363 C 0.05539 0.15693 0.66975 0.0
C364 C 0.06958 0.18379 0.65635 0.0
C365 C 0.04559 0.20205 0.64137 0.0
C366 C 0.00718 0.19358 0.63961 0.0
C367 C 0.99282 0.1675 0.65341 0.0
C368 C 0.0168 0.1491 0.66825 0.0
C369 C 0.15665 0.06444 0.6733 0.0
C370 C 0.14332 0.04343 0.65381 0.0
C371 C 0.16806 0.02442 0.64017 0.0
C372 C 0.20662 0.02593 0.64577 0.0
C373 C 0.22016 0.04567 0.66567 0.0
C374 C 0.19525 0.06495 0.67937 0.0
C375 C 0.13006 0.08794 0.68598 0.0
C376 C 0.10812 0.11306 0.67391 0.0
C377 C 0.12512 0.08517 0.70917 0.0
C378 C 0.14482 0.05653 0.72236 0.0
C379 C 0.14406 0.01877 0.71436 0.0
C380 C 0.16218 0.99172 0.72673 0.0
C381 C 0.18067 0.00164 0.74762 0.0
C382 C 0.18072 0.03916 0.75601 0.0
C383 C 0.16312 0.06646 0.74339 0.0
O384 O 0.36533 0.74068 0.97829 0.0
Cd385 Cd 0.33924 0.7626 0.00584 0.0
Cd386 Cd 0.39343 0.72878 0.02948 0.0
O387 O 0.39768 0.7011 0.99839 0.0
O388 O 0.28487 0.76437 0.99788 0.0
O389 O 0.31083 0.72649 0.02248 0.0
C390 C 0.28148 0.7377 0.01118 0.0
C391 C 0.40712 0.69452 0.06097 0.0
C392 C 0.38663 0.71253 0.97945 0.0
C393 C 0.39188 0.81354 0.03122 0.0
O394 O 0.41049 0.78404 0.0345 0.0
O395 O 0.35951 0.81187 0.02131 0.0
O396 O 0.3733 0.70506 0.05616 0.0
O397 O 0.43233 0.70264 0.04762 0.0
O398 O 0.40383 0.83707 0.31682 0.0
Cd399 Cd 0.36711 0.82538 0.28959 0.0
Cd400 Cd 0.4252 0.84418 0.26543 0.0
O401 O 0.44308 0.86668 0.29693 0.0
O402 O 0.31681 0.83589 0.30051 0.0
O403 O 0.34464 0.87131 0.27713 0.0
C404 C 0.3175 0.86625 0.28996 0.0
C405 C 0.43742 0.879 0.23504 0.0
C406 C 0.43213 0.85815 0.31576 0.0
C407 C 0.39829 0.76339 0.26244 0.0
O408 O 0.42373 0.78686 0.25908 0.0
O409 O 0.36965 0.77346 0.27275 0.0
O410 O 0.46355 0.86109 0.24542 0.0
O411 O 0.40395 0.87743 0.24184 0.0
O412 O 0.28488 0.88986 0.48669 0.0
Cd413 Cd 0.31449 0.8682 0.51329 0.0
Cd414 Cd 0.26625 0.90854 0.53794 0.0
O415 O 0.2573 0.9331 0.50771 0.0
O416 O 0.36786 0.86703 0.50561 0.0
O417 O 0.34604 0.90474 0.53259 0.0
C418 C 0.3733 0.89478 0.52038 0.0
C419 C 0.26376 0.94636 0.57099 0.0
C420 C 0.26527 0.91921 0.48853 0.0
C421 C 0.26249 0.82327 0.53635 0.0
O422 O 0.24727 0.85463 0.5408 0.0
O423 O 0.29308 0.82133 0.5266 0.0
O424 O 0.23408 0.93787 0.55847 0.0
O425 O 0.29556 0.93442 0.56456 0.0
O426 O 0.24225 0.77961 0.74822 0.0
Cd427 Cd 0.26842 0.80766 0.77568 0.0
Cd428 Cd 0.23128 0.75638 0.79786 0.0
O429 O 0.19926 0.75514 0.76779 0.0
O430 O 0.27498 0.85876 0.76565 0.0
O431 O 0.23786 0.84526 0.79248 0.0
C432 C 0.24929 0.86903 0.77893 0.0
C433 C 0.1997 0.74186 0.82953 0.0
C434 C 0.21129 0.7627 0.74906 0.0
C435 C 0.31621 0.75186 0.79531 0.0
O436 O 0.28535 0.73575 0.79829 0.0
O437 O 0.31701 0.78459 0.7883 0.0
O438 O 0.20449 0.71753 0.81324 0.0
O439 O 0.21236 0.77529 0.82778 0.0
O440 O 0.89225 0.27685 0.56786 0.0
Cd441 Cd 0.87218 0.30421 0.54042 0.0
Cd442 Cd 0.90652 0.25111 0.51653 0.0
O443 O 0.93324 0.24646 0.54778 0.0
O444 O 0.87185 0.35854 0.5487 0.0
O445 O 0.9101 0.33166 0.52456 0.0
C446 C 0.89928 0.36124 0.53583 0.0
C447 C 0.94252 0.23708 0.48575 0.0
C448 C 0.92085 0.25619 0.56669 0.0
C449 C 0.82175 0.2526 0.514 0.0
O450 O 0.85134 0.23399 0.51092 0.0
O451 O 0.82323 0.28489 0.52406 0.0
O452 O 0.9336 0.21206 0.49901 0.0
O453 O 0.93148 0.27086 0.49015 0.0
O454 O 0.86159 0.39928 0.79436 0.0
Cd455 Cd 0.8339 0.37453 0.76635 0.0
Cd456 Cd 0.88806 0.4105 0.74482 0.0
O457 O 0.8948 0.43814 0.77624 0.0
O458 O 0.78271 0.36761 0.7763 0.0
O459 O 0.79614 0.40548 0.7499 0.0
C460 C 0.77231 0.39348 0.76324 0.0
C461 C 0.89916 0.44719 0.71486 0.0
C462 C 0.88349 0.42716 0.79444 0.0
C463 C 0.88773 0.32491 0.74509 0.0
O464 O 0.90444 0.35507 0.74131 0.0
O465 O 0.85612 0.32544 0.75366 0.0
O466 O 0.92598 0.43639 0.72816 0.0
O467 O 0.86546 0.43707 0.71833 0.0
O468 O 0.74875 0.36638 0.05559 0.0
Cd469 Cd 0.76849 0.33264 0.03002 0.0
Cd470 Cd 0.72698 0.37587 0.00449 0.0
O471 O 0.70054 0.38389 0.03424 0.0
O472 O 0.77201 0.28219 0.04188 0.0
O473 O 0.73107 0.29693 0.01446 0.0
C474 C 0.7427 0.27343 0.02886 0.0
C475 C 0.69046 0.37545 0.97091 0.0
C476 C 0.71681 0.38141 0.05356 0.0
C477 C 0.81182 0.38263 0.0057 0.0
O478 O 0.78014 0.39773 0.00209 0.0
O479 O 0.81445 0.35167 0.01494 0.0
O480 O 0.69666 0.40578 0.98329 0.0
O481 O 0.70406 0.34455 0.97776 0.0
O482 O 0.80352 0.23586 0.23339 0.0
Cd483 Cd 0.81095 0.27068 0.26187 0.0
Cd484 Cd 0.79242 0.21011 0.28316 0.0
O485 O 0.77123 0.19538 0.25084 0.0
O486 O 0.79561 0.32129 0.25328 0.0
O487 O 0.76378 0.28727 0.27561 0.0
C488 C 0.76611 0.31661 0.26421 0.0
C489 C 0.75752 0.19236 0.31246 0.0
C490 C 0.78169 0.20781 0.23278 0.0
C491 C 0.87268 0.23931 0.28826 0.0
O492 O 0.84977 0.21258 0.29004 0.0
O493 O 0.86215 0.26906 0.27931 0.0
O494 O 0.77594 0.1682 0.30079 0.0
O495 O 0.75842 0.2269 0.3075 0.0
C496 C 0.26098 0.93632 0.32384 0.0
C497 C 0.24255 0.95626 0.30672 0.0
C498 C 0.26944 0.91385 0.27819 0.0
C499 C 0.29121 0.89697 0.29537 0.0
N500 N 0.31468 0.89936 0.33425 0.0
N501 N 0.23286 0.96758 0.26752 0.0
C502 C 0.28886 0.91009 0.31814 0.0
C503 C 0.24767 0.94598 0.28381 0.0
N504 N 0.25135 0.94182 0.34556 0.0
N505 N 0.26867 0.89856 0.25667 0.0
H506 H 0.2168 0.99122 0.27104 0.0
H507 H 0.23893 0.96383 0.25074 0.0
H508 H 0.28397 0.87487 0.25206 0.0
H509 H 0.25047 0.90732 0.24382 0.0
H510 H 0.26137 0.92527 0.35829 0.0
H511 H 0.23046 0.96029 0.35044 0.0
H512 H 0.31636 0.91122 0.35064 0.0
H513 H 0.33712 0.8819 0.3308 0.0
C514 C 0.21769 0.75443 0.57245 0.0
C515 C 0.19139 0.73706 0.55632 0.0
C516 C 0.22114 0.76753 0.52632 0.0
C517 C 0.24337 0.78921 0.5428 0.0
N518 N 0.26342 0.8042 0.58148 0.0
N519 N 0.16637 0.72771 0.51803 0.0
C520 C 0.2421 0.78261 0.56586 0.0
C521 C 0.19302 0.74327 0.53321 0.0
N522 N 0.2195 0.74357 0.59398 0.0
N523 N 0.2266 0.7706 0.50411 0.0
H524 H 0.14557 0.70954 0.52239 0.0
H525 H 0.16322 0.73458 0.50139 0.0
H526 H 0.24632 0.78881 0.49853 0.0
H527 H 0.21395 0.75303 0.49129 0.0
H528 H 0.24023 0.75254 0.6061 0.0
H529 H 0.20198 0.72296 0.59928 0.0
H530 H 0.26039 0.80432 0.59867 0.0
H531 H 0.28326 0.82347 0.57714 0.0
C532 C 0.39582 0.685 0.78396 0.0
C533 C 0.40792 0.6779 0.80628 0.0
C534 C 0.36663 0.72709 0.8208 0.0
C535 C 0.35113 0.7306 0.79871 0.0
N536 N 0.34939 0.71323 0.75911 0.0
N537 N 0.40589 0.69155 0.84617 0.0
C538 C 0.3657 0.71008 0.78017 0.0
C539 C 0.39389 0.69909 0.82479 0.0
N540 N 0.41308 0.66758 0.76644 0.0
N541 N 0.35543 0.75089 0.83784 0.0
H542 H 0.42734 0.67279 0.84969 0.0
H543 H 0.39371 0.70251 0.86048 0.0
H544 H 0.33547 0.77161 0.83529 0.0
H545 H 0.36775 0.75227 0.85407 0.0
H546 H 0.40837 0.67424 0.74985 0.0
H547 H 0.43432 0.64805 0.76863 0.0
H548 H 0.3554 0.69586 0.74522 0.0
H549 H 0.32815 0.73226 0.75562 0.0
C550 C 0.4297 0.89358 0.07078 0.0
C551 C 0.45201 0.91226 0.05613 0.0
C552 C 0.42645 0.87187 0.02422 0.0
C553 C 0.40853 0.84995 0.03937 0.0
N554 N 0.39325 0.83834 0.07698 0.0
N555 N 0.47403 0.91852 0.01926 0.0
C556 C 0.40994 0.86052 0.06264 0.0
C557 C 0.45065 0.90162 0.03285 0.0
N558 N 0.42715 0.90784 0.09238 0.0
N559 N 0.42055 0.86398 0.00163 0.0
H560 H 0.4919 0.94066 0.02492 0.0
H561 H 0.47767 0.90912 0.00274 0.0
H562 H 0.40383 0.84168 0.99478 0.0
H563 H 0.42969 0.88115 0.98964 0.0
H564 H 0.40879 0.89759 0.10339 0.0
H565 H 0.44122 0.93215 0.09881 0.0
H566 H 0.39712 0.84182 0.09437 0.0
H567 H 0.37684 0.81501 0.07146 0.0
C568 C 0.17993 0.71356 0.01964 0.0
C569 C 0.17395 0.68465 0.00243 0.0
C570 C 0.24079 0.68478 0.99591 0.0
C571 C 0.24571 0.71706 0.01073 0.0
N572 N 0.22048 0.76398 0.03604 0.0
N573 N 0.19755 0.64733 0.97129 0.0
C574 C 0.21542 0.73194 0.02251 0.0
C575 C 0.20413 0.67121 0.98989 0.0
N576 N 0.15193 0.72285 0.03344 0.0
N577 N 0.27117 0.66715 0.98746 0.0
H578 H 0.17103 0.63733 0.96573 0.0
H579 H 0.21787 0.64027 0.96006 0.0
H580 H 0.29858 0.67646 0.9913 0.0
H581 H 0.26948 0.64132 0.97839 0.0
H582 H 0.15553 0.74126 0.04759 0.0
H583 H 0.12575 0.7097 0.03177 0.0
H584 H 0.19864 0.77867 0.04313 0.0
H585 H 0.24658 0.77698 0.03924 0.0
C586 C 0.42111 0.65961 0.26191 0.0
C587 C 0.43104 0.65372 0.23942 0.0
C588 C 0.40694 0.71566 0.23117 0.0
C589 C 0.40328 0.7239 0.25437 0.0
N590 N 0.40853 0.70471 0.29239 0.0
N591 N 0.43548 0.67659 0.20257 0.0
C592 C 0.41011 0.69594 0.26991 0.0
C593 C 0.42398 0.68165 0.2239 0.0
N594 N 0.42227 0.63039 0.27555 0.0
N595 N 0.39388 0.74041 0.21611 0.0
H596 H 0.44763 0.65193 0.19647 0.0
H597 H 0.43535 0.69768 0.19137 0.0
H598 H 0.38097 0.76544 0.22102 0.0
H599 H 0.39249 0.7346 0.19881 0.0
H600 H 0.41205 0.63184 0.29149 0.0
H601 H 0.43035 0.60354 0.27006 0.0
H602 H 0.41764 0.6869 0.30466 0.0
H603 H 0.40039 0.73086 0.29897 0.0
C604 C 0.47764 0.9184 0.52052 0.0
C605 C 0.47504 0.95666 0.51582 0.0
C606 C 0.40878 0.95618 0.52243 0.0
C607 C 0.4091 0.91636 0.52199 0.0
N608 N 0.44526 0.85978 0.52487 0.0
N609 N 0.44675 0.01018 0.53413 0.0
C610 C 0.4441 0.89746 0.52257 0.0
C611 C 0.44318 0.97569 0.52323 0.0
N612 N 0.51197 0.90388 0.52585 0.0
N613 N 0.37621 0.9758 0.52066 0.0
H614 H 0.4731 0.02208 0.53851 0.0
H615 H 0.42438 0.02381 0.54142 0.0
H616 H 0.34982 0.96341 0.5181 0.0
H617 H 0.37609 0.00474 0.51938 0.0
H618 H 0.51614 0.87709 0.53129 0.0
H619 H 0.53602 0.92071 0.52723 0.0
H620 H 0.46906 0.84374 0.52253 0.0
H621 H 0.42198 0.84437 0.52871 0.0
C622 C 0.2379 0.96921 0.76376 0.0
C623 C 0.19839 0.97182 0.76078 0.0
C624 C 0.19141 0.9084 0.773 0.0
C625 C 0.23103 0.90592 0.77655 0.0
N626 N 0.29047 0.93807 0.78187 0.0
N627 N 0.13794 0.94934 0.76965 0.0
C628 C 0.25377 0.9378 0.77413 0.0
C629 C 0.17534 0.94326 0.76794 0.0
N630 N 0.26034 0.99542 0.75559 0.0
N631 N 0.1691 0.87721 0.7724 0.0
H632 H 0.12542 0.97479 0.76618 0.0
H633 H 0.12038 0.93072 0.77677 0.0
H634 H 0.17899 0.85041 0.77478 0.0
H635 H 0.14076 0.87734 0.76724 0.0
H636 H 0.28922 0.99253 0.75507 0.0
H637 H 0.2499 0.0187 0.74773 0.0
H638 H 0.30763 0.96171 0.7823 0.0
H639 H 0.30251 0.91581 0.79009 0.0
C640 C 0.67159 0.40283 0.77781 0.0
C641 C 0.66834 0.44223 0.7812 0.0
C642 C 0.73195 0.45061 0.7695 0.0
C643 C 0.73508 0.41111 0.76555 0.0
N644 N 0.70389 0.35125 0.75939 0.0
N645 N 0.69015 0.50336 0.77319 0.0
C646 C 0.70347 0.38776 0.76751 0.0
C647 C 0.69674 0.46598 0.77451 0.0
N648 N 0.64552 0.3797 0.78554 0.0
N649 N 0.76283 0.4734 0.77049 0.0
H650 H 0.66444 0.51537 0.77664 0.0
H651 H 0.70867 0.52145 0.76642 0.0
H652 H 0.78981 0.46398 0.76811 0.0
H653 H 0.76222 0.50161 0.77594 0.0
H654 H 0.64884 0.35083 0.78576 0.0
H655 H 0.62191 0.38953 0.79333 0.0
H656 H 0.68049 0.33371 0.75861 0.0
H657 H 0.72652 0.33981 0.75121 0.0
C658 C 0.66177 0.2084 0.03956 0.0
C659 C 0.68189 0.1776 0.04771 0.0
C660 C 0.73988 0.20517 0.03612 0.0
C661 C 0.72079 0.23911 0.0324 0.0
N662 N 0.66336 0.27471 0.03511 0.0
N663 N 0.74146 0.14841 0.05605 0.0
C664 C 0.68154 0.24117 0.03499 0.0
C665 C 0.72134 0.17615 0.0464 0.0
N666 N 0.62368 0.20646 0.03636 0.0
N667 N 0.77553 0.20049 0.02958 0.0
H668 H 0.72919 0.127 0.06415 0.0
H669 H 0.77061 0.14846 0.05768 0.0
H670 H 0.78938 0.22077 0.02134 0.0
H671 H 0.78961 0.17511 0.03011 0.0
H672 H 0.60794 0.2269 0.02854 0.0
H673 H 0.60839 0.18257 0.03931 0.0
H674 H 0.63566 0.27768 0.03931 0.0
H675 H 0.67653 0.3003 0.03361 0.0
C676 C 0.97701 0.21951 0.28813 0.0
C677 C 0.98339 0.20826 0.31029 0.0
C678 C 0.92051 0.22892 0.31918 0.0
C679 C 0.91218 0.23438 0.29619 0.0
N680 N 0.93136 0.23296 0.25817 0.0
N681 N 0.96109 0.20017 0.34693 0.0
C682 C 0.94029 0.22981 0.28051 0.0
C683 C 0.95527 0.21287 0.32595 0.0
N684 N 0.00615 0.22033 0.27445 0.0
N685 N 0.89517 0.23947 0.33452 0.0
H686 H 0.98639 0.18887 0.35265 0.0
H687 H 0.94018 0.19851 0.35817 0.0
H688 H 0.86955 0.25157 0.32999 0.0
H689 H 0.90084 0.23956 0.35179 0.0
H690 H 0.00428 0.23169 0.25884 0.0
H691 H 0.03327 0.21264 0.2796 0.0
H692 H 0.94938 0.2255 0.24566 0.0
H693 H 0.90492 0.24071 0.25188 0.0
C694 C 0.96496 0.43787 0.55939 0.0
C695 C 0.95569 0.46703 0.54508 0.0
C696 C 0.91021 0.42577 0.52323 0.0
C697 C 0.9212 0.39628 0.53685 0.0
N698 N 0.96541 0.37124 0.56389 0.0
N699 N 0.92469 0.48741 0.51114 0.0
C700 C 0.95076 0.40137 0.55359 0.0
C701 C 0.92985 0.46057 0.52625 0.0
N702 N 0.9855 0.4454 0.57922 0.0
N703 N 0.88057 0.42068 0.50782 0.0
H704 H 0.93878 0.5131 0.51293 0.0
H705 H 0.90889 0.48317 0.49599 0.0
H706 H 0.86674 0.39499 0.50465 0.0
H707 H 0.86846 0.44225 0.49908 0.0
H708 H 0.98938 0.42602 0.5914 0.0
H709 H 0.99564 0.472 0.5846 0.0
H710 H 0.98937 0.37284 0.57472 0.0
H711 H 0.95594 0.34392 0.55984 0.0
C712 C 0.74296 0.21144 0.47469 0.0
C713 C 0.72444 0.18977 0.48974 0.0
C714 C 0.76335 0.21847 0.52139 0.0
C715 C 0.78542 0.23558 0.50597 0.0
N716 N 0.79747 0.24872 0.46808 0.0
N717 N 0.71766 0.17042 0.52716 0.0
C718 C 0.77536 0.23245 0.48264 0.0
C719 C 0.73436 0.19312 0.5131 0.0
N720 N 0.7292 0.21206 0.45289 0.0
N721 N 0.77047 0.22612 0.54392 0.0
H722 H 0.69606 0.15172 0.52179 0.0
H723 H 0.72675 0.16818 0.54387 0.0
H724 H 0.79228 0.24361 0.55059 0.0
H725 H 0.75304 0.21764 0.55597 0.0
H726 H 0.73932 0.22972 0.44146 0.0
H727 H 0.70536 0.19701 0.44665 0.0
H728 H 0.79447 0.24374 0.45074 0.0
H729 H 0.82022 0.26603 0.47345 0.0
C730 C 0.93824 0.24456 0.71634 0.0
C731 C 0.95932 0.23093 0.73498 0.0
C732 C 0.92839 0.27503 0.76066 0.0
C733 C 0.90805 0.28931 0.74198 0.0
N734 N 0.88737 0.28386 0.70295 0.0
N735 N 0.96949 0.227 0.7749 0.0
C736 C 0.91097 0.27273 0.72006 0.0
C737 C 0.95258 0.24407 0.75719 0.0
N738 N 0.9452 0.23124 0.69509 0.0
N739 N 0.92614 0.29246 0.78155 0.0
H740 H 0.9883 0.20505 0.77292 0.0
H741 H 0.96289 0.23251 0.79147 0.0
H742 H 0.90796 0.31453 0.7849 0.0
H743 H 0.94364 0.28661 0.79539 0.0
H744 H 0.93407 0.24263 0.6806 0.0
H745 H 0.96355 0.20928 0.69187 0.0
H746 H 0.88562 0.27104 0.68684 0.0
H747 H 0.86719 0.30446 0.70536 0.0
C748 C 0.88173 0.42791 0.97036 0.0
C749 C 0.8989 0.45403 0.9867 0.0
C750 C 0.8666 0.42494 0.01623 0.0
C751 C 0.84551 0.40264 0.9995 0.0
N752 N 0.83144 0.38301 0.96066 0.0
N753 N 0.90619 0.47973 0.02496 0.0
C754 C 0.85285 0.40395 0.97655 0.0
C755 C 0.89137 0.45285 0.00966 0.0
N756 N 0.89357 0.42568 0.94903 0.0
N757 N 0.86261 0.41967 0.03838 0.0
H758 H 0.92451 0.50057 0.02084 0.0
H759 H 0.89837 0.48314 0.04142 0.0
H760 H 0.84397 0.40017 0.04376 0.0
H761 H 0.87984 0.43228 0.05137 0.0
H762 H 0.88476 0.40495 0.93685 0.0
H763 H 0.91477 0.44277 0.94399 0.0
H764 H 0.83198 0.38616 0.94351 0.0
H765 H 0.81159 0.36353 0.96471 0.0
C766 C 0.70621 0.40439 0.26492 0.0
C767 C 0.67915 0.39378 0.24727 0.0
C768 C 0.70345 0.32982 0.24594 0.0
C769 C 0.73384 0.3419 0.26105 0.0
N770 N 0.76573 0.39082 0.28434 0.0
N771 N 0.65587 0.34788 0.21836 0.0
C772 C 0.73563 0.37926 0.27044 0.0
C773 C 0.67851 0.35677 0.23721 0.0
N774 N 0.70324 0.43813 0.27667 0.0
N775 N 0.69852 0.29264 0.23971 0.0
H776 H 0.63785 0.36692 0.2109 0.0
H777 H 0.65752 0.32266 0.2088 0.0
H778 H 0.71652 0.27193 0.24529 0.0
H779 H 0.67469 0.28193 0.23061 0.0
H780 H 0.71996 0.44612 0.29103 0.0
H781 H 0.68175 0.4569 0.27319 0.0
H782 H 0.77099 0.4187 0.28966 0.0
H783 H 0.78662 0.37255 0.28965 0.0
C784 C 0.20003 0.96635 0.4468 0.0
C785 C 0.22542 0.97693 0.43098 0.0
C786 C 0.27743 0.95062 0.45324 0.0
C787 C 0.2516 0.93762 0.46816 0.0
N788 N 0.18762 0.9255 0.47624 0.0
N789 N 0.28668 0.97285 0.41652 0.0
C790 C 0.21265 0.94324 0.46408 0.0
C791 C 0.26367 0.96703 0.43338 0.0
N792 N 0.16423 0.97963 0.44592 0.0
N793 N 0.31507 0.94918 0.45861 0.0
H794 H 0.27739 0.98483 0.40175 0.0
H795 H 0.31391 0.96275 0.41628 0.0
H796 H 0.3264 0.93829 0.47327 0.0
H797 H 0.33499 0.96188 0.44956 0.0
H798 H 0.14592 0.97632 0.45853 0.0
H799 H 0.15372 0.99675 0.43359 0.0
H800 H 0.15884 0.92548 0.47242 0.0
H801 H 0.19576 0.90766 0.48874 0.0
C802 C 0.16169 0.7658 0.69116 0.0
C803 C 0.14957 0.72809 0.68732 0.0
C804 C 0.18025 0.71261 0.72319 0.0
C805 C 0.18952 0.75096 0.72798 0.0
N806 N 0.183 0.8153 0.71852 0.0
N807 N 0.1402 0.66733 0.70155 0.0
C808 C 0.1786 0.77798 0.7125 0.0
C809 C 0.15672 0.70198 0.70391 0.0
N810 N 0.15791 0.78969 0.67425 0.0
N811 N 0.19538 0.68605 0.73642 0.0
H812 H 0.12253 0.65843 0.68772 0.0
H813 H 0.14118 0.64873 0.71427 0.0
H814 H 0.21367 0.69241 0.75039 0.0
H815 H 0.19276 0.65741 0.73228 0.0
H816 H 0.16986 0.81636 0.67527 0.0
H817 H 0.14539 0.78173 0.65846 0.0
H818 H 0.17204 0.83631 0.70884 0.0
H819 H 0.19459 0.82539 0.73416 0.0
C820 C 0.39106 0.66108 0.92174 0.0
C821 C 0.42949 0.65152 0.92245 0.0
C822 C 0.44018 0.68907 0.95786 0.0
C823 C 0.401 0.69399 0.95888 0.0
N824 N 0.33829 0.68089 0.94287 0.0
N825 N 0.48975 0.65126 0.94299 0.0
C826 C 0.37611 0.67925 0.94102 0.0
C827 C 0.45387 0.66416 0.94099 0.0
N828 N 0.36906 0.65343 0.9025 0.0
N829 N 0.46446 0.7093 0.97252 0.0
H830 H 0.50094 0.63255 0.93116 0.0
H831 H 0.5073 0.65639 0.9574 0.0
H832 H 0.45559 0.72912 0.98456 0.0
H833 H 0.49332 0.7095 0.97111 0.0
H834 H 0.34182 0.6632 0.90016 0.0
H835 H 0.37918 0.64012 0.8881 0.0
H836 H 0.31903 0.66687 0.93153 0.0
H837 H 0.32609 0.69376 0.95668 0.0
C838 C 0.47012 0.95892 0.2024 0.0
C839 C 0.47689 0.93958 0.1816 0.0
C840 C 0.45275 0.88131 0.19488 0.0
C841 C 0.44628 0.90059 0.21573 0.0
N842 N 0.44127 0.95849 0.23807 0.0
N843 N 0.46781 0.8852 0.15604 0.0
C844 C 0.45237 0.93975 0.21901 0.0
C845 C 0.46594 0.90159 0.1772 0.0
N846 N 0.48223 0.99511 0.2066 0.0
N847 N 0.44719 0.84343 0.19226 0.0
H848 H 0.47762 0.89934 0.14283 0.0
H849 H 0.457 0.85875 0.15105 0.0
H850 H 0.4356 0.82808 0.20441 0.0
H851 H 0.45552 0.82686 0.17857 0.0
H852 H 0.48235 0.00945 0.22228 0.0
H853 H 0.49436 0.01041 0.19463 0.0
H854 H 0.4414 0.98752 0.24057 0.0
H855 H 0.42907 0.9451 0.25081 0.0
C856 C 0.16397 0.67763 0.87112 0.0
C857 C 0.13929 0.70091 0.88331 0.0
C858 C 0.15425 0.75287 0.86043 0.0
C859 C 0.18144 0.73033 0.84977 0.0
N860 N 0.22106 0.67593 0.85176 0.0
N861 N 0.11967 0.76372 0.89375 0.0
C862 C 0.18918 0.69421 0.8573 0.0
C863 C 0.13727 0.73958 0.87934 0.0
N864 N 0.16204 0.63955 0.87146 0.0
N865 N 0.14272 0.7857 0.85193 0.0
H866 H 0.10807 0.75513 0.90816 0.0
H867 H 0.12027 0.79266 0.89265 0.0
H868 H 0.15267 0.79581 0.83748 0.0
H869 H 0.12033 0.80097 0.85796 0.0
H870 H 0.17749 0.62174 0.86116 0.0
H871 H 0.14206 0.62565 0.87986 0.0
H872 H 0.22907 0.65071 0.85838 0.0
H873 H 0.24166 0.68819 0.84296 0.0
C874 C 0.40908 0.62749 0.10847 0.0
C875 C 0.44654 0.63321 0.11734 0.0
C876 C 0.4522 0.68588 0.09373 0.0
C877 C 0.41801 0.67531 0.08168 0.0
N878 N 0.36628 0.63121 0.07586 0.0
N879 N 0.50662 0.66323 0.11416 0.0
C880 C 0.39677 0.64497 0.08865 0.0
C881 C 0.46894 0.66124 0.10888 0.0
N882 N 0.38509 0.60593 0.11913 0.0
N883 N 0.46831 0.7199 0.09121 0.0
H884 H 0.52087 0.64418 0.12395 0.0
H885 H 0.52428 0.68125 0.10664 0.0
H886 H 0.45562 0.73995 0.08142 0.0
H887 H 0.49174 0.72983 0.10106 0.0
H888 H 0.35661 0.60362 0.11444 0.0
H889 H 0.39286 0.59368 0.13406 0.0
H890 H 0.35233 0.60679 0.07924 0.0
H891 H 0.35714 0.64174 0.06068 0.0
C892 C 0.4824 0.87534 0.37358 0.0
C893 C 0.48713 0.91477 0.37419 0.0
C894 C 0.44973 0.9167 0.33872 0.0
C895 C 0.44955 0.87705 0.3365 0.0
N896 N 0.46892 0.81804 0.35059 0.0
N897 N 0.48144 0.97232 0.35517 0.0
C898 C 0.46652 0.85609 0.35368 0.0
C899 C 0.47239 0.93534 0.3562 0.0
N900 N 0.49249 0.8565 0.39214 0.0
N901 N 0.42722 0.93663 0.32459 0.0
H902 H 0.49876 0.98715 0.3673 0.0
H903 H 0.47473 0.98735 0.34115 0.0
H904 H 0.40911 0.92402 0.31197 0.0
H905 H 0.4235 0.96543 0.32695 0.0
H906 H 0.4864 0.8283 0.39351 0.0
H907 H 0.50412 0.86989 0.40695 0.0
H908 H 0.48446 0.80165 0.36147 0.0
H909 H 0.45781 0.80305 0.33618 0.0
C910 C 0.24322 0.02784 0.61166 0.0
C911 C 0.23213 0.00772 0.62983 0.0
C912 C 0.25565 0.94957 0.61214 0.0
C913 C 0.26044 0.96855 0.59243 0.0
N914 N 0.26144 0.0254 0.57313 0.0
N915 N 0.22918 0.95044 0.64862 0.0
C916 C 0.25565 0.00779 0.59225 0.0
C917 C 0.23947 0.96892 0.63064 0.0
N918 N 0.24139 0.06605 0.61299 0.0
N919 N 0.26615 0.91297 0.61291 0.0
H920 H 0.21881 0.96428 0.66278 0.0
H921 H 0.2296 0.92149 0.64932 0.0
H922 H 0.27771 0.89819 0.59946 0.0
H923 H 0.26619 0.89804 0.62726 0.0
H924 H 0.25173 0.08287 0.60121 0.0
H925 H 0.23203 0.08131 0.62696 0.0
H926 H 0.25438 0.05308 0.57076 0.0
H927 H 0.27237 0.01164 0.55911 0.0
C928 C 0.6693 0.39817 0.91066 0.0
C929 C 0.63036 0.40453 0.91136 0.0
C930 C 0.63027 0.37693 0.94781 0.0
C931 C 0.66984 0.3773 0.94888 0.0
N932 N 0.72787 0.38555 0.93146 0.0
N933 N 0.57264 0.39863 0.92956 0.0
C934 C 0.68962 0.38639 0.93012 0.0
C935 C 0.61033 0.39272 0.92945 0.0
N936 N 0.68663 0.40391 0.89144 0.0
N937 N 0.61205 0.36179 0.96453 0.0
H938 H 0.55707 0.40885 0.91599 0.0
H939 H 0.55693 0.39488 0.94331 0.0
H940 H 0.62635 0.35017 0.97812 0.0
H941 H 0.5832 0.35781 0.96409 0.0
H942 H 0.71441 0.39722 0.88904 0.0
H943 H 0.67211 0.41265 0.87706 0.0
H944 H 0.74443 0.39592 0.91954 0.0
H945 H 0.74331 0.37545 0.94513 0.0
C946 C 0.72943 0.19012 0.17566 0.0
C947 C 0.72659 0.15064 0.17509 0.0
C948 C 0.77081 0.14988 0.20786 0.0
C949 C 0.76756 0.18928 0.21106 0.0
N950 N 0.74228 0.24751 0.19835 0.0
N951 N 0.74321 0.09221 0.19098 0.0
C952 C 0.7471 0.20978 0.19483 0.0
C953 C 0.74737 0.13019 0.19107 0.0
N954 N 0.715 0.20869 0.15787 0.0
N955 N 0.79672 0.13145 0.2207 0.0
H956 H 0.72677 0.07661 0.17874 0.0
H957 H 0.75407 0.07644 0.20386 0.0
H958 H 0.81496 0.14535 0.23277 0.0
H959 H 0.80279 0.10319 0.21781 0.0
H960 H 0.71925 0.23716 0.15626 0.0
H961 H 0.70183 0.1948 0.14364 0.0
H962 H 0.72364 0.26282 0.18856 0.0
H963 H 0.75477 0.26343 0.21194 0.0
C964 C 0.01228 0.23615 0.43962 0.0
C965 C 0.00894 0.19811 0.43137 0.0
C966 C 0.95543 0.19088 0.45414 0.0
C967 C 0.96359 0.22608 0.46571 0.0
N968 N 0.00542 0.27973 0.47155 0.0
N969 N 0.98236 0.13678 0.43559 0.0
C970 C 0.99341 0.24833 0.45898 0.0
C971 C 0.98186 0.1747 0.43992 0.0
N972 N 0.03274 0.26083 0.42878 0.0
N973 N 0.92197 0.17327 0.4561 0.0
H974 H 0.00293 0.12311 0.42666 0.0
H975 H 0.96487 0.11868 0.44318 0.0
H976 H 0.90049 0.18551 0.46497 0.0
H977 H 0.91395 0.14885 0.44655 0.0
H978 H 0.03326 0.28952 0.43304 0.0
H979 H 0.04577 0.25323 0.41407 0.0
H980 H 0.02937 0.29459 0.46828 0.0
H981 H 0.99416 0.28875 0.48656 0.0
C982 C 0.9116 0.48449 0.65732 0.0
C983 C 0.93481 0.51607 0.66377 0.0
C984 C 0.92615 0.50673 0.70332 0.0
C985 C 0.90746 0.47235 0.69701 0.0
N986 N 0.88525 0.42618 0.66808 0.0
N987 N 0.96923 0.55392 0.69304 0.0
C988 C 0.90057 0.4607 0.674 0.0
C989 C 0.9433 0.52645 0.68682 0.0
N990 N 0.89972 0.4776 0.6353 0.0
N991 N 0.92675 0.521 0.72508 0.0
H992 H 0.98314 0.56875 0.68157 0.0
H993 H 0.97956 0.55966 0.70955 0.0
H994 H 0.91376 0.50768 0.73756 0.0
H995 H 0.93665 0.54777 0.73023 0.0
H996 H 0.87981 0.45725 0.62978 0.0
H997 H 0.90745 0.4944 0.6227 0.0
H998 H 0.88351 0.41434 0.65171 0.0
H999 H 0.87669 0.40809 0.67978 0.0
C1000 C 0.73192 0.1675 0.37054 0.0
C1001 C 0.69847 0.14671 0.36483 0.0
C1002 C 0.70019 0.16302 0.32568 0.0
C1003 C 0.73569 0.18012 0.33091 0.0
N1004 N 0.7869 0.1975 0.35758 0.0
N1005 N 0.65101 0.12288 0.33718 0.0
C1006 C 0.75185 0.1824 0.3532 0.0
C1007 C 0.68253 0.14417 0.34246 0.0
N1008 N 0.74442 0.17311 0.39256 0.0
N1009 N 0.68314 0.1655 0.30475 0.0
H1010 H 0.63628 0.11011 0.34916 0.0
H1011 H 0.64047 0.11605 0.32084 0.0
H1012 H 0.69549 0.17899 0.29209 0.0
H1013 H 0.6557 0.15699 0.30035 0.0
H1014 H 0.7663 0.19121 0.39819 0.0
H1015 H 0.73117 0.16158 0.40559 0.0
H1016 H 0.80225 0.19618 0.37284 0.0
H1017 H 0.80174 0.20971 0.34542 0.0
C1018 C 0.9723 0.2479 0.62402 0.0
C1019 C 0.98247 0.20965 0.62196 0.0
C1020 C 0.94401 0.20123 0.58681 0.0
C1021 C 0.93865 0.24048 0.58701 0.0
N1022 N 0.95012 0.30213 0.60508 0.0
N1023 N 0.9827 0.15089 0.59976 0.0
C1024 C 0.95309 0.26415 0.60554 0.0
C1025 C 0.9695 0.1865 0.60294 0.0
N1026 N 0.98041 0.26845 0.64376 0.0
N1027 N 0.92375 0.17787 0.57162 0.0
H1028 H 0.00186 0.13899 0.61102 0.0
H1029 H 0.97731 0.13436 0.58495 0.0
H1030 H 0.90358 0.18754 0.56008 0.0
H1031 H 0.9239 0.14884 0.57211 0.0
H1032 H 0.97022 0.29529 0.64715 0.0
H1033 H 0.99467 0.25743 0.65755 0.0
H1034 H 0.96407 0.32084 0.6168 0.0
H1035 H 0.93576 0.31522 0.59213 0.0
C1036 C 0.88146 0.47736 0.8523 0.0
C1037 C 0.92004 0.48531 0.85704 0.0
C1038 C 0.93482 0.45124 0.82197 0.0
C1039 C 0.896 0.447 0.81604 0.0
N1040 N 0.83208 0.46202 0.8237 0.0
N1041 N 0.98291 0.48636 0.8445 0.0
C1042 C 0.86915 0.46158 0.83072 0.0
C1043 C 0.94663 0.47409 0.84135 0.0
N1044 N 0.85674 0.48416 0.86856 0.0
N1045 N 0.96042 0.43224 0.80967 0.0
H1046 H 0.99277 0.50354 0.85834 0.0
H1047 H 0.00238 0.48238 0.83235 0.0
H1048 H 0.95293 0.4143 0.79569 0.0
H1049 H 0.98879 0.43129 0.81464 0.0
H1050 H 0.82889 0.47532 0.86683 0.0
H1051 H 0.86486 0.49569 0.88457 0.0
H1052 H 0.81184 0.47581 0.83282 0.0
H1053 H 0.82192 0.45173 0.80779 0.0
C1054 C 0.66207 0.444 0.09325 0.0
C1055 C 0.66273 0.42262 0.11246 0.0
C1056 C 0.69438 0.37202 0.09184 0.0
C1057 C 0.69821 0.39554 0.07384 0.0
N1058 N 0.69254 0.45715 0.05969 0.0
N1059 N 0.68524 0.36884 0.13143 0.0
C1060 C 0.68394 0.43246 0.07515 0.0
C1061 C 0.68057 0.38732 0.11218 0.0
N1062 N 0.6395 0.47459 0.0919 0.0
N1063 N 0.70216 0.3347 0.0892 0.0
H1064 H 0.67585 0.37938 0.14671 0.0
H1065 H 0.70142 0.34484 0.13265 0.0
H1066 H 0.71078 0.32191 0.07427 0.0
H1067 H 0.69627 0.31571 0.10102 0.0
H1068 H 0.63523 0.48884 0.07732 0.0
H1069 H 0.62199 0.48338 0.10447 0.0
H1070 H 0.68587 0.48546 0.06125 0.0
H1071 H 0.70975 0.45041 0.04662 0.0
loop_
_geom_bond_atom_site_label_1
_geom_bond_atom_site_label_2
_geom_bond_distance
_geom_bond_site_symmetry_2
_ccdc_geom_bond_type
H0 C19 0.949 . S
H1 C20 0.950 . S
H2 C22 0.950 . S
H3 C23 0.950 1_655 S
H4 C25 0.950 . S
H5 C28 0.950 . S
H6 C29 0.950 . S
H7 C31 0.951 . S
H8 C32 0.949 . S
H9 C34 0.949 . S
H10 C35 0.950 . S
H11 C37 0.950 . S
H12 C38 0.950 1_545 S
H13 C40 0.950 . S
H14 C43 0.950 . S
H15 C44 0.950 . S
H16 C46 0.951 . S
H17 C47 0.949 . S
C18 C19 1.376 . S
C18 C23 1.386 . S
C18 C24 1.483 . S
C19 H0 0.949 . S
C19 C18 1.376 . S
C19 C20 1.397 . S
C20 H1 0.950 . S
C20 C19 1.397 . S
C20 C21 1.391 1_455 S
C21 C20 1.391 1_655 S
C21 C22 1.405 . S
C22 H2 0.950 . S
C22 C21 1.405 . S
C22 C23 1.367 1_655 S
C23 H3 0.950 1_455 S
C23 C18 1.386 . S
C23 C22 1.367 1_455 S
C24 C18 1.483 . S
C24 C25 1.382 . S
C24 C26 1.403 . S
C25 H4 0.950 . S
C25 C24 1.382 . S
C25 C41 1.411 . S
C26 C24 1.403 . S
C26 C27 1.489 . S
C26 C40 1.411 . S
C27 C26 1.489 . S
C27 C28 1.383 . S
C27 C32 1.382 . S
C28 H5 0.950 . S
C28 C27 1.383 . S
C28 C29 1.395 . S
C29 H6 0.950 . S
C29 C28 1.395 . S
C29 C30 1.288 1_455 S
C30 C29 1.288 1_655 S
C30 C31 1.392 . S
C31 H7 0.951 . S
C31 C30 1.392 . S
C31 C32 1.392 1_655 S
C32 H8 0.949 . S
C32 C27 1.382 . S
C32 C31 1.392 1_455 S
C33 C34 1.376 . S
C33 C38 1.386 . S
C33 C39 1.483 1_565 S
C34 H9 0.949 . S
C34 C33 1.376 . S
C34 C35 1.397 . S
C35 H10 0.950 . S
C35 C34 1.397 . S
C35 C36 1.391 . S
C36 C35 1.391 . S
C36 C37 1.405 . S
C37 H11 0.950 . S
C37 C36 1.405 . S
C37 C38 1.367 . S
C38 H12 0.950 1_565 S
C38 C33 1.386 . S
C38 C37 1.367 . S
C39 C33 1.483 1_545 S
C39 C40 1.382 . S
C39 C41 1.403 . S
C40 H13 0.950 . S
C40 C26 1.411 . S
C40 C39 1.382 . S
C41 C25 1.411 . S
C41 C39 1.403 . S
C41 C42 1.489 1_545 S
C42 C41 1.489 1_565 S
C42 C43 1.383 . S
C42 C47 1.382 1_565 S
C43 H14 0.950 . S
C43 C42 1.383 . S
C43 C44 1.395 . S
C44 H15 0.950 . S
C44 C43 1.395 . S
C44 C45 1.288 . S
C45 C44 1.288 . S
C45 C46 1.392 1_565 S
C46 H16 0.951 . S
C46 C45 1.392 1_545 S
C46 C47 1.392 . S
C47 H17 0.949 . S
C47 C42 1.382 1_545 S
C47 C46 1.392 . S
H48 C67 0.949 . S
H49 C68 0.950 . S
H50 C70 0.950 . S
H51 C71 0.950 . S
H52 C73 0.950 . S
H53 C76 0.950 1_455 S
H54 C77 0.950 . S
H55 C79 0.951 . S
H56 C80 0.949 . S
H57 C82 0.949 . S
H58 C83 0.950 . S
H59 C85 0.950 . S
H60 C86 0.950 . S
H61 C88 0.950 . S
H62 C91 0.950 . S
H63 C92 0.950 . S
H64 C94 0.951 . S
H65 C95 0.949 . S
C66 C67 1.376 . S
C66 C71 1.386 1_455 S
C66 C72 1.483 . S
C67 H48 0.949 . S
C67 C66 1.376 . S
C67 C68 1.397 . S
C68 H49 0.950 . S
C68 C67 1.397 . S
C68 C69 1.391 1_455 S
C69 C68 1.391 1_655 S
C69 C70 1.405 . S
C70 H50 0.950 . S
C70 C69 1.405 . S
C70 C71 1.367 . S
C71 H51 0.950 . S
C71 C66 1.386 1_655 S
C71 C70 1.367 . S
C72 C66 1.483 . S
C72 C73 1.382 . S
C72 C74 1.403 . S
C73 H52 0.950 . S
C73 C72 1.382 . S
C73 C89 1.411 . S
C74 C72 1.403 . S
C74 C75 1.489 1_455 S
C74 C88 1.411 . S
C75 C74 1.489 1_655 S
C75 C76 1.383 . S
C75 C80 1.382 . S
C76 H53 0.950 1_655 S
C76 C75 1.383 . S
C76 C77 1.395 . S
C77 H54 0.950 . S
C77 C76 1.395 . S
C77 C78 1.288 . S
C78 C77 1.288 . S
C78 C79 1.392 . S
C79 H55 0.951 . S
C79 C78 1.392 . S
C79 C80 1.392 . S
C80 H56 0.949 . S
C80 C75 1.382 . S
C80 C79 1.392 . S
C81 C82 1.376 . S
C81 C86 1.386 . S
C81 C87 1.483 . S
C82 H57 0.949 . S
C82 C81 1.376 . S
C82 C83 1.397 . S
C83 H58 0.950 . S
C83 C82 1.397 . S
C83 C84 1.391 . S
C84 C83 1.391 . S
C84 C85 1.405 . S
C85 H59 0.950 . S
C85 C84 1.405 . S
C85 C86 1.367 . S
C86 H60 0.950 . S
C86 C81 1.386 . S
C86 C85 1.367 . S
C87 C81 1.483 . S
C87 C88 1.382 . S
C87 C89 1.403 . S
C88 H61 0.950 . S
C88 C74 1.411 . S
C88 C87 1.382 . S
C89 C73 1.411 . S
C89 C87 1.403 . S
C89 C90 1.489 . S
C90 C89 1.489 . S
C90 C91 1.383 . S
C90 C95 1.382 . S
C91 H62 0.950 . S
C91 C90 1.383 . S
C91 C92 1.395 . S
C92 H63 0.950 . S
C92 C91 1.395 . S
C92 C93 1.288 . S
C93 C92 1.288 . S
C93 C94 1.392 . S
C94 H64 0.951 . S
C94 C93 1.392 . S
C94 C95 1.392 . S
C95 H65 0.949 . S
C95 C90 1.382 . S
C95 C94 1.392 . S
H96 C115 0.949 . S
H97 C116 0.950 . S
H98 C118 0.950 . S
H99 C119 0.950 . S
H100 C121 0.950 . S
H101 C124 0.950 . S
H102 C125 0.950 . S
H103 C127 0.951 . S
H104 C128 0.949 . S
H105 C130 0.949 . S
H106 C131 0.950 . S
H107 C133 0.950 . S
H108 C134 0.950 . S
H109 C136 0.950 . S
H110 C139 0.950 . S
H111 C140 0.950 . S
H112 C142 0.951 . S
H113 C143 0.949 . S
C114 C115 1.376 . S
C114 C119 1.386 . S
C114 C120 1.483 . S
C115 H96 0.949 . S
C115 C114 1.376 . S
C115 C116 1.397 . S
C116 H97 0.950 . S
C116 C115 1.397 . S
C116 C117 1.391 . S
C117 C116 1.391 . S
C117 C118 1.405 . S
C118 H98 0.950 . S
C118 C117 1.405 . S
C118 C119 1.367 . S
C119 H99 0.950 . S
C119 C114 1.386 . S
C119 C118 1.367 . S
C120 C114 1.483 . S
C120 C121 1.382 . S
C120 C122 1.403 . S
C121 H100 0.950 . S
C121 C120 1.382 . S
C121 C137 1.411 . S
C122 C120 1.403 . S
C122 C123 1.489 . S
C122 C136 1.411 . S
C123 C122 1.489 . S
C123 C124 1.383 . S
C123 C128 1.382 . S
C124 H101 0.950 . S
C124 C123 1.383 . S
C124 C125 1.395 . S
C125 H102 0.950 . S
C125 C124 1.395 . S
C125 C126 1.288 . S
C126 C125 1.288 . S
C126 C127 1.392 . S
C127 H103 0.951 . S
C127 C126 1.392 . S
C127 C128 1.392 . S
C128 H104 0.949 . S
C128 C123 1.382 . S
C128 C127 1.392 . S
C129 C130 1.376 . S
C129 C134 1.386 . S
C129 C135 1.483 . S
C130 H105 0.949 . S
C130 C129 1.376 . S
C130 C131 1.397 . S
C131 H106 0.950 . S
C131 C130 1.397 . S
C131 C132 1.391 . S
C132 C131 1.391 . S
C132 C133 1.405 . S
C133 H107 0.950 . S
C133 C132 1.405 . S
C133 C134 1.367 . S
C134 H108 0.950 . S
C134 C129 1.386 . S
C134 C133 1.367 . S
C135 C129 1.483 . S
C135 C136 1.382 . S
C135 C137 1.403 . S
C136 H109 0.950 . S
C136 C122 1.411 . S
C136 C135 1.382 . S
C137 C121 1.411 . S
C137 C135 1.403 . S
C137 C138 1.489 . S
C138 C137 1.489 . S
C138 C139 1.383 . S
C138 C143 1.382 . S
C139 H110 0.950 . S
C139 C138 1.383 . S
C139 C140 1.395 . S
C140 H111 0.950 . S
C140 C139 1.395 . S
C140 C141 1.288 . S
C141 C140 1.288 . S
C141 C142 1.392 . S
C142 H112 0.951 . S
C142 C141 1.392 . S
C142 C143 1.392 . S
C143 H113 0.949 . S
C143 C138 1.382 . S
C143 C142 1.392 . S
H144 C163 0.949 . S
H145 C164 0.950 . S
H146 C166 0.950 . S
H147 C167 0.950 . S
H148 C169 0.950 . S
H149 C172 0.950 . S
H150 C173 0.950 . S
H151 C175 0.951 . S
H152 C176 0.949 . S
H153 C178 0.949 . S
H154 C179 0.950 . S
H155 C181 0.950 . S
H156 C182 0.950 . S
H157 C184 0.950 . S
H158 C187 0.950 . S
H159 C188 0.950 . S
H160 C190 0.951 . S
H161 C191 0.949 . S
C162 C163 1.376 . S
C162 C167 1.386 . S
C162 C168 1.483 . S
C163 H144 0.949 . S
C163 C162 1.376 . S
C163 C164 1.397 . S
C164 H145 0.950 . S
C164 C163 1.397 . S
C164 C165 1.391 . S
C165 C164 1.391 . S
C165 C166 1.405 . S
C166 H146 0.950 . S
C166 C165 1.405 . S
C166 C167 1.367 . S
C167 H147 0.950 . S
C167 C162 1.386 . S
C167 C166 1.367 . S
C168 C162 1.483 . S
C168 C169 1.382 . S
C168 C170 1.403 . S
C169 H148 0.950 . S
C169 C168 1.382 . S
C169 C185 1.411 1_565 S
C170 C168 1.403 . S
C170 C171 1.489 . S
C170 C184 1.411 1_565 S
C171 C170 1.489 . S
C171 C172 1.383 . S
C171 C176 1.382 . S
C172 H149 0.950 . S
C172 C171 1.383 . S
C172 C173 1.395 . S
C173 H150 0.950 . S
C173 C172 1.395 . S
C173 C174 1.288 . S
C174 C173 1.288 . S
C174 C175 1.392 . S
C175 H151 0.951 . S
C175 C174 1.392 . S
C175 C176 1.392 . S
C176 H152 0.949 . S
C176 C171 1.382 . S
C176 C175 1.392 . S
C177 C178 1.376 . S
C177 C182 1.386 . S
C177 C183 1.483 . S
C178 H153 0.949 . S
C178 C177 1.376 . S
C178 C179 1.397 . S
C179 H154 0.950 . S
C179 C178 1.397 . S
C179 C180 1.391 . S
C180 C179 1.391 . S
C180 C181 1.405 . S
C181 H155 0.950 . S
C181 C180 1.405 . S
C181 C182 1.367 . S
C182 H156 0.950 . S
C182 C177 1.386 . S
C182 C181 1.367 . S
C183 C177 1.483 . S
C183 C184 1.382 . S
C183 C185 1.403 . S
C184 H157 0.950 . S
C184 C170 1.411 1_545 S
C184 C183 1.382 . S
C185 C169 1.411 1_545 S
C185 C183 1.403 . S
C185 C186 1.489 . S
C186 C185 1.489 . S
C186 C187 1.383 . S
C186 C191 1.382 . S
C187 H158 0.950 . S
C187 C186 1.383 . S
C187 C188 1.395 . S
C188 H159 0.950 . S
C188 C187 1.395 . S
C188 C189 1.288 . S
C189 C188 1.288 . S
C189 C190 1.392 . S
C190 H160 0.951 . S
C190 C189 1.392 . S
C190 C191 1.392 . S
C191 H161 0.949 . S
C191 C186 1.382 . S
C191 C190 1.392 . S
H192 C211 0.949 . S
H193 C212 0.950 . S
H194 C214 0.950 . S
H195 C215 0.950 . S
H196 C217 0.950 . S
H197 C220 0.950 . S
H198 C221 0.952 1_554 S
H199 C223 0.951 . S
H200 C224 0.949 . S
H201 C226 0.949 . S
H202 C227 0.950 . S
H203 C229 0.950 . S
H204 C230 0.950 . S
H205 C232 0.950 . S
H206 C235 0.950 . S
H207 C236 0.950 . S
H208 C238 0.951 . S
H209 C239 0.949 . S
C210 C211 1.376 . S
C210 C215 1.386 . S
C210 C216 1.483 . S
C211 H192 0.949 . S
C211 C210 1.376 . S
C211 C212 1.397 . S
C212 H193 0.950 . S
C212 C211 1.397 . S
C212 C213 1.391 . S
C213 C212 1.391 . S
C213 C214 1.405 . S
C214 H194 0.950 . S
C214 C213 1.405 . S
C214 C215 1.367 . S
C215 H195 0.950 . S
C215 C210 1.386 . S
C215 C214 1.367 . S
C216 C210 1.483 . S
C216 C217 1.382 1_455 S
C216 C218 1.403 . S
C217 H196 0.950 . S
C217 C216 1.382 1_655 S
C217 C233 1.411 . S
C218 C216 1.403 . S
C218 C219 1.489 . S
C218 C232 1.411 . S
C219 C218 1.489 . S
C219 C220 1.383 . S
C219 C224 1.382 . S
C220 H197 0.950 . S
C220 C219 1.383 . S
C220 C221 1.426 . S
C221 H198 0.952 1_556 S
C221 C220 1.426 . S
C221 C222 1.260 1_556 S
C222 C221 1.260 1_554 S
C222 C223 1.392 . S
C223 H199 0.951 . S
C223 C222 1.392 . S
C223 C224 1.392 1_554 S
C224 H200 0.949 . S
C224 C219 1.382 . S
C224 C223 1.392 1_556 S
C225 C226 1.376 . S
C225 C230 1.386 . S
C225 C231 1.483 . S
C226 H201 0.949 . S
C226 C225 1.376 . S
C226 C227 1.397 . S
C227 H202 0.950 . S
C227 C226 1.397 . S
C227 C228 1.391 . S
C228 C227 1.391 . S
C228 C229 1.405 . S
C229 H203 0.950 . S
C229 C228 1.405 . S
C229 C230 1.367 . S
C230 H204 0.950 . S
C230 C225 1.386 . S
C230 C229 1.367 . S
C231 C225 1.483 . S
C231 C232 1.382 1_655 S
C231 C233 1.403 . S
C232 H205 0.950 . S
C232 C218 1.411 . S
C232 C231 1.382 1_455 S
C233 C217 1.411 . S
C233 C231 1.403 . S
C233 C234 1.489 . S
C234 C233 1.489 . S
C234 C235 1.383 . S
C234 C239 1.382 . S
C235 H206 0.950 . S
C235 C234 1.383 . S
C235 C236 1.395 . S
C236 H207 0.950 . S
C236 C235 1.395 . S
C236 C237 1.288 . S
C237 C236 1.288 . S
C237 C238 1.392 . S
C238 H208 0.951 . S
C238 C237 1.392 . S
C238 C239 1.392 . S
C239 H209 0.949 . S
C239 C234 1.382 . S
C239 C238 1.392 . S
H240 C259 0.949 . S
H241 C260 0.950 . S
H242 C262 0.950 . S
H243 C263 0.950 . S
H244 C265 0.950 . S
H245 C268 0.950 . S
H246 C269 0.950 . S
H247 C271 0.951 . S
H248 C272 0.949 . S
H249 C274 0.949 . S
H250 C275 0.950 . S
H251 C277 0.950 . S
H252 C278 0.950 . S
H253 C280 0.950 . S
H254 C283 0.950 . S
H255 C284 0.950 . S
H256 C286 0.951 . S
H257 C287 0.949 . S
C258 C259 1.376 . S
C258 C263 1.386 . S
C258 C264 1.483 . S
C259 H240 0.949 . S
C259 C258 1.376 . S
C259 C260 1.397 . S
C260 H241 0.950 . S
C260 C259 1.397 . S
C260 C261 1.391 . S
C261 C260 1.391 . S
C261 C262 1.405 . S
C262 H242 0.950 . S
C262 C261 1.405 . S
C262 C263 1.367 . S
C263 H243 0.950 . S
C263 C258 1.386 . S
C263 C262 1.367 . S
C264 C258 1.483 . S
C264 C265 1.382 . S
C264 C266 1.403 . S
C265 H244 0.950 . S
C265 C264 1.382 . S
C265 C281 1.411 . S
C266 C264 1.403 . S
C266 C267 1.489 . S
C266 C280 1.411 . S
C267 C266 1.489 . S
C267 C268 1.383 . S
C267 C272 1.382 . S
C268 H245 0.950 . S
C268 C267 1.383 . S
C268 C269 1.395 . S
C269 H246 0.950 . S
C269 C268 1.395 . S
C269 C270 1.288 . S
C270 C269 1.288 . S
C270 C271 1.392 . S
C271 H247 0.951 . S
C271 C270 1.392 . S
C271 C272 1.392 . S
C272 H248 0.949 . S
C272 C267 1.382 . S
C272 C271 1.392 . S
C273 C274 1.376 . S
C273 C278 1.386 . S
C273 C279 1.483 . S
C274 H249 0.949 . S
C274 C273 1.376 . S
C274 C275 1.397 . S
C275 H250 0.950 . S
C275 C274 1.397 . S
C275 C276 1.391 . S
C276 C275 1.391 . S
C276 C277 1.405 . S
C277 H251 0.950 . S
C277 C276 1.405 . S
C277 C278 1.367 . S
C278 H252 0.950 . S
C278 C273 1.386 . S
C278 C277 1.367 . S
C279 C273 1.483 . S
C279 C280 1.382 . S
C279 C281 1.403 . S
C280 H253 0.950 . S
C280 C266 1.411 . S
C280 C279 1.382 . S
C281 C265 1.411 . S
C281 C279 1.403 . S
C281 C282 1.489 . S
C282 C281 1.489 . S
C282 C283 1.383 . S
C282 C287 1.382 . S
C283 H254 0.950 . S
C283 C282 1.383 . S
C283 C284 1.395 . S
C284 H255 0.950 . S
C284 C283 1.395 . S
C284 C285 1.288 . S
C285 C284 1.288 . S
C285 C286 1.392 . S
C286 H256 0.951 . S
C286 C285 1.392 . S
C286 C287 1.392 . S
C287 H257 0.949 . S
C287 C282 1.382 . S
C287 C286 1.392 . S
H288 C307 0.949 . S
H289 C308 0.950 . S
H290 C310 0.950 . S
H291 C311 0.973 . S
H292 C313 0.950 . S
H293 C316 0.950 . S
H294 C317 0.950 . S
H295 C319 0.953 . S
H296 C320 0.949 . S
H297 C322 0.949 . S
H298 C323 0.950 . S
H299 C325 0.950 . S
H300 C326 0.950 . S
H301 C328 0.950 . S
H302 C331 0.950 . S
H303 C332 0.950 . S
H304 C334 0.951 . S
H305 C335 0.949 . S
C306 C307 1.376 . S
C306 C311 1.386 . S
C306 C312 1.483 . S
C307 H288 0.949 . S
C307 C306 1.376 . S
C307 C308 1.397 . S
C308 H289 0.950 . S
C308 C307 1.397 . S
C308 C309 1.391 . S
C309 C308 1.391 . S
C309 C310 1.405 . S
C310 H290 0.950 . S
C310 C309 1.405 . S
C310 C311 1.367 . S
C311 H291 0.973 . S
C311 C306 1.386 . S
C311 C310 1.367 . S
C312 C306 1.483 . S
C312 C313 1.382 1_565 S
C312 C314 1.403 1_565 S
C313 H292 0.950 . S
C313 C312 1.382 1_545 S
C313 C329 1.411 . S
C314 C312 1.403 1_545 S
C314 C315 1.489 1_545 S
C314 C328 1.411 . S
C315 C314 1.489 1_565 S
C315 C316 1.383 . S
C315 C320 1.382 1_565 S
C316 H293 0.950 . S
C316 C315 1.383 . S
C316 C317 1.395 . S
C317 H294 0.950 . S
C317 C316 1.395 . S
C317 C318 1.288 . S
C318 C317 1.288 . S
C318 C319 1.388 1_565 S
C319 H295 0.953 . S
C319 C318 1.388 1_545 S
C319 C320 1.394 . S
C320 H296 0.949 . S
C320 C315 1.382 1_545 S
C320 C319 1.394 . S
C321 C322 1.376 . S
C321 C326 1.386 . S
C321 C327 1.483 . S
C322 H297 0.949 . S
C322 C321 1.376 . S
C322 C323 1.397 . S
C323 H298 0.950 . S
C323 C322 1.397 . S
C323 C324 1.391 . S
C324 C323 1.391 . S
C324 C325 1.405 . S
C325 H299 0.950 . S
C325 C324 1.405 . S
C325 C326 1.367 . S
C326 H300 0.950 . S
C326 C321 1.386 . S
C326 C325 1.367 . S
C327 C321 1.483 . S
C327 C328 1.382 . S
C327 C329 1.403 . S
C328 H301 0.950 . S
C328 C314 1.411 . S
C328 C327 1.382 . S
C329 C313 1.411 . S
C329 C327 1.403 . S
C329 C330 1.489 . S
C330 C329 1.489 . S
C330 C331 1.383 . S
C330 C335 1.382 . S
C331 H302 0.950 . S
C331 C330 1.383 . S
C331 C332 1.395 . S
C332 H303 0.950 . S
C332 C331 1.395 . S
C332 C333 1.288 . S
C333 C332 1.288 . S
C333 C334 1.392 . S
C334 H304 0.951 . S
C334 C333 1.392 . S
C334 C335 1.392 . S
C335 H305 0.949 . S
C335 C330 1.382 . S
C335 C334 1.392 . S
H336 C355 0.949 . S
H337 C356 0.950 . S
H338 C358 0.950 . S
H339 C359 0.950 . S
H340 C361 0.950 . S
H341 C364 0.950 . S
H342 C365 0.950 . S
H343 C367 0.951 1_655 S
H344 C368 0.949 . S
H345 C370 0.949 . S
H346 C371 0.950 . S
H347 C373 0.950 . S
H348 C374 0.950 . S
H349 C376 0.950 . S
H350 C379 0.950 . S
H351 C380 0.950 . S
H352 C382 0.951 . S
H353 C383 0.949 . S
C354 C355 1.376 . S
C354 C359 1.386 1_455 S
C354 C360 1.483 . S
C355 H336 0.949 . S
C355 C354 1.376 . S
C355 C356 1.397 . S
C356 H337 0.950 . S
C356 C355 1.397 . S
C356 C357 1.391 1_455 S
C357 C356 1.391 1_655 S
C357 C358 1.405 . S
C358 H338 0.950 . S
C358 C357 1.405 . S
C358 C359 1.367 . S
C359 H339 0.950 . S
C359 C354 1.386 1_655 S
C359 C358 1.367 . S
C360 C354 1.483 . S
C360 C361 1.382 . S
C360 C362 1.403 . S
C361 H340 0.950 . S
C361 C360 1.382 . S
C361 C377 1.411 . S
C362 C360 1.403 . S
C362 C363 1.489 . S
C362 C376 1.411 . S
C363 C362 1.489 . S
C363 C364 1.383 . S
C363 C368 1.382 . S
C364 H341 0.950 . S
C364 C363 1.383 . S
C364 C365 1.395 . S
C365 H342 0.950 . S
C365 C364 1.395 . S
C365 C366 1.288 . S
C366 C365 1.288 . S
C366 C367 1.392 . S
C367 H343 0.951 1_455 S
C367 C366 1.392 . S
C367 C368 1.392 . S
C368 H344 0.949 . S
C368 C363 1.382 . S
C368 C367 1.392 . S
C369 C370 1.376 . S
C369 C374 1.386 . S
C369 C375 1.483 . S
C370 H345 0.949 . S
C370 C369 1.376 . S
C370 C371 1.397 . S
C371 H346 0.950 . S
C371 C370 1.397 . S
C371 C372 1.391 . S
C372 C371 1.391 . S
C372 C373 1.405 . S
C373 H347 0.950 . S
C373 C372 1.405 . S
C373 C374 1.367 . S
C374 H348 0.950 . S
C374 C369 1.386 . S
C374 C373 1.367 . S
C375 C369 1.483 . S
C375 C376 1.382 . S
C375 C377 1.403 . S
C376 H349 0.950 . S
C376 C362 1.411 . S
C376 C375 1.382 . S
C377 C361 1.411 . S
C377 C375 1.403 . S
C377 C378 1.489 . S
C378 C377 1.489 . S
C378 C379 1.383 . S
C378 C383 1.382 . S
C379 H350 0.950 . S
C379 C378 1.383 . S
C379 C380 1.395 . S
C380 H351 0.950 . S
C380 C379 1.395 . S
C380 C381 1.288 . S
C381 C380 1.288 . S
C381 C382 1.392 . S
C382 H352 0.951 . S
C382 C381 1.392 . S
C382 C383 1.392 . S
C383 H353 0.949 . S
C383 C378 1.382 . S
C383 C382 1.392 . S
O384 Cd385 2.223 1_556 S
O384 C392 1.315 . S
Cd385 O384 2.223 1_554 S
Cd385 O388 2.297 . S
Cd385 O389 2.439 . S
Cd385 O395 2.240 . S
Cd386 O387 2.240 . S
Cd386 O394 2.223 . S
Cd386 O396 2.297 . S
Cd386 O397 2.439 . S
O387 Cd386 2.240 . S
O387 C392 1.279 1_554 S
O388 Cd385 2.297 . S
O388 C390 1.247 . S
O389 Cd385 2.439 . S
O389 C390 1.208 . S
C390 O388 1.247 . S
C390 O389 1.208 . S
C391 O396 1.247 . S
C391 O397 1.208 . S
C392 O384 1.315 . S
C392 O387 1.279 1_556 S
C393 O394 1.315 . S
C393 O395 1.279 . S
O394 Cd386 2.223 . S
O394 C393 1.315 . S
O395 Cd385 2.240 . S
O395 C393 1.279 . S
O396 Cd386 2.297 . S
O396 C391 1.247 . S
O397 Cd386 2.439 . S
O397 C391 1.208 . S
O398 Cd399 2.223 . S
O398 C406 1.315 . S
Cd399 O398 2.223 . S
Cd399 O402 2.297 . S
Cd399 O403 2.439 . S
Cd399 O409 2.240 . S
Cd400 O401 2.240 . S
Cd400 O408 2.223 . S
Cd400 O410 2.297 . S
Cd400 O411 2.439 . S
O401 Cd400 2.240 . S
O401 C406 1.279 . S
O402 Cd399 2.297 . S
O402 C404 1.247 . S
O403 Cd399 2.439 . S
O403 C404 1.208 . S
C404 O402 1.247 . S
C404 O403 1.208 . S
C405 O410 1.247 . S
C405 O411 1.208 . S
C406 O398 1.315 . S
C406 O401 1.279 . S
C407 O408 1.315 . S
C407 O409 1.279 . S
O408 Cd400 2.223 . S
O408 C407 1.315 . S
O409 Cd399 2.240 . S
O409 C407 1.279 . S
O410 Cd400 2.297 . S
O410 C405 1.247 . S
O411 Cd400 2.439 . S
O411 C405 1.208 . S
O412 Cd413 2.223 . S
O412 C420 1.315 . S
Cd413 O412 2.223 . S
Cd413 O416 2.297 . S
Cd413 O417 2.439 . S
Cd413 O423 2.240 . S
Cd414 O415 2.240 . S
Cd414 O422 2.223 . S
Cd414 O424 2.297 . S
Cd414 O425 2.439 . S
O415 Cd414 2.240 . S
O415 C420 1.279 . S
O416 Cd413 2.297 . S
O416 C418 1.247 . S
O417 Cd413 2.439 . S
O417 C418 1.208 . S
C418 O416 1.247 . S
C418 O417 1.208 . S
C419 O424 1.247 . S
C419 O425 1.208 . S
C420 O412 1.315 . S
C420 O415 1.279 . S
C421 O422 1.315 . S
C421 O423 1.279 . S
O422 Cd414 2.223 . S
O422 C421 1.315 . S
O423 Cd413 2.240 . S
O423 C421 1.279 . S
O424 Cd414 2.297 . S
O424 C419 1.247 . S
O425 Cd414 2.439 . S
O425 C419 1.208 . S
O426 Cd427 2.223 . S
O426 C434 1.315 . S
Cd427 O426 2.223 . S
Cd427 O430 2.297 . S
Cd427 O431 2.439 . S
Cd427 O437 2.240 . S
Cd428 O429 2.240 . S
Cd428 O436 2.223 . S
Cd428 O438 2.297 . S
Cd428 O439 2.439 . S
O429 Cd428 2.240 . S
O429 C434 1.279 . S
O430 Cd427 2.297 . S
O430 C432 1.247 . S
O431 Cd427 2.439 . S
O431 C432 1.208 . S
C432 O430 1.247 . S
C432 O431 1.208 . S
C433 O438 1.247 . S
C433 O439 1.208 . S
C434 O426 1.315 . S
C434 O429 1.279 . S
C435 O436 1.315 . S
C435 O437 1.279 . S
O436 Cd428 2.223 . S
O436 C435 1.315 . S
O437 Cd427 2.240 . S
O437 C435 1.279 . S
O438 Cd428 2.297 . S
O438 C433 1.247 . S
O439 Cd428 2.439 . S
O439 C433 1.208 . S
O440 Cd441 2.223 . S
O440 C448 1.315 . S
Cd441 O440 2.223 . S
Cd441 O444 2.297 . S
Cd441 O445 2.439 . S
Cd441 O451 2.240 . S
Cd442 O443 2.240 . S
Cd442 O450 2.223 . S
Cd442 O452 2.297 . S
Cd442 O453 2.439 . S
O443 Cd442 2.240 . S
O443 C448 1.279 . S
O444 Cd441 2.297 . S
O444 C446 1.247 . S
O445 Cd441 2.439 . S
O445 C446 1.208 . S
C446 O444 1.247 . S
C446 O445 1.208 . S
C447 O452 1.247 . S
C447 O453 1.208 . S
C448 O440 1.315 . S
C448 O443 1.279 . S
C449 O450 1.315 . S
C449 O451 1.279 . S
O450 Cd442 2.223 . S
O450 C449 1.315 . S
O451 Cd441 2.240 . S
O451 C449 1.279 . S
O452 Cd442 2.297 . S
O452 C447 1.247 . S
O453 Cd442 2.439 . S
O453 C447 1.208 . S
O454 Cd455 2.223 . S
O454 C462 1.315 . S
Cd455 O454 2.223 . S
Cd455 O458 2.297 . S
Cd455 O459 2.439 . S
Cd455 O465 2.240 . S
Cd456 O457 2.240 . S
Cd456 O464 2.223 . S
Cd456 O466 2.297 . S
Cd456 O467 2.439 . S
O457 Cd456 2.240 . S
O457 C462 1.279 . S
O458 Cd455 2.297 . S
O458 C460 1.247 . S
O459 Cd455 2.439 . S
O459 C460 1.208 . S
C460 O458 1.247 . S
C460 O459 1.208 . S
C461 O466 1.247 . S
C461 O467 1.208 . S
C462 O454 1.315 . S
C462 O457 1.279 . S
C463 O464 1.315 . S
C463 O465 1.279 . S
O464 Cd456 2.223 . S
O464 C463 1.315 . S
O465 Cd455 2.240 . S
O465 C463 1.279 . S
O466 Cd456 2.297 . S
O466 C461 1.247 . S
O467 Cd456 2.439 . S
O467 C461 1.208 . S
O468 Cd469 2.223 . S
O468 C476 1.315 . S
Cd469 O468 2.223 . S
Cd469 O472 2.297 . S
Cd469 O473 2.439 . S
Cd469 O479 2.240 1_554 S
Cd470 O471 2.240 1_556 S
Cd470 O478 2.223 . S
Cd470 O480 2.297 . S
Cd470 O481 2.439 . S
O471 Cd470 2.240 1_554 S
O471 C476 1.279 . S
O472 Cd469 2.297 . S
O472 C474 1.247 . S
O473 Cd469 2.439 . S
O473 C474 1.208 . S
C474 O472 1.247 . S
C474 O473 1.208 . S
C475 O480 1.247 . S
C475 O481 1.208 . S
C476 O468 1.315 . S
C476 O471 1.279 . S
C477 O478 1.315 . S
C477 O479 1.279 . S
O478 Cd470 2.223 . S
O478 C477 1.315 . S
O479 Cd469 2.240 1_556 S
O479 C477 1.279 . S
O480 Cd470 2.297 . S
O480 C475 1.247 . S
O481 Cd470 2.439 . S
O481 C475 1.208 . S
O482 Cd483 2.223 . S
O482 C490 1.315 . S
Cd483 O482 2.223 . S
Cd483 O486 2.297 . S
Cd483 O487 2.439 . S
Cd483 O493 2.240 . S
Cd484 O485 2.240 . S
Cd484 O492 2.223 . S
Cd484 O494 2.297 . S
Cd484 O495 2.439 . S
O485 Cd484 2.240 . S
O485 C490 1.279 . S
O486 Cd483 2.297 . S
O486 C488 1.247 . S
O487 Cd483 2.439 . S
O487 C488 1.208 . S
C488 O486 1.247 . S
C488 O487 1.208 . S
C489 O494 1.247 . S
C489 O495 1.208 . S
C490 O482 1.315 . S
C490 O485 1.279 . S
C491 O492 1.315 . S
C491 O493 1.279 . S
O492 Cd484 2.223 . S
O492 C491 1.315 . S
O493 Cd483 2.240 . S
O493 C491 1.279 . S
O494 Cd484 2.297 . S
O494 C489 1.247 . S
O495 Cd484 2.439 . S
O495 C489 1.208 . S
C496 C497 1.363 . S
C496 C502 1.379 . S
C496 N504 1.356 . S
C497 C496 1.363 . S
C497 C503 1.363 . S
C498 C499 1.363 . S
C498 C503 1.379 . S
C498 N505 1.356 . S
C499 C498 1.363 . S
C499 C502 1.363 . S
N500 C502 1.356 . S
N500 H512 0.984 . S
N500 H513 0.985 . S
N501 C503 1.356 . S
N501 H506 0.984 . S
N501 H507 0.985 . S
C502 C496 1.379 . S
C502 C499 1.363 . S
C502 N500 1.356 . S
C503 C497 1.363 . S
C503 C498 1.379 . S
C503 N501 1.356 . S
N504 C496 1.356 . S
N504 H510 0.984 . S
N504 H511 0.984 . S
N505 C498 1.356 . S
N505 H508 0.984 . S
N505 H509 0.985 . S
H506 N501 0.984 . S
H507 N501 0.985 . S
H508 N505 0.984 . S
H509 N505 0.985 . S
H510 N504 0.984 . S
H511 N504 0.984 . S
H512 N500 0.984 . S
H513 N500 0.985 . S
C514 C515 1.363 . S
C514 C520 1.379 . S
C514 N522 1.356 . S
C515 C514 1.363 . S
C515 C521 1.363 . S
C516 C517 1.363 . S
C516 C521 1.379 . S
C516 N523 1.356 . S
C517 C516 1.363 . S
C517 C520 1.363 . S
N518 C520 1.356 . S
N518 H530 0.984 . S
N518 H531 0.985 . S
N519 C521 1.356 . S
N519 H524 0.984 . S
N519 H525 0.985 . S
C520 C514 1.379 . S
C520 C517 1.363 . S
C520 N518 1.356 . S
C521 C515 1.363 . S
C521 C516 1.379 . S
C521 N519 1.356 . S
N522 C514 1.356 . S
N522 H528 0.984 . S
N522 H529 0.984 . S
N523 C516 1.356 . S
N523 H526 0.984 . S
N523 H527 0.985 . S
H524 N519 0.984 . S
H525 N519 0.985 . S
H526 N523 0.984 . S
H527 N523 0.985 . S
H528 N522 0.984 . S
H529 N522 0.984 . S
H530 N518 0.984 . S
H531 N518 0.985 . S
C532 C533 1.363 . S
C532 C538 1.379 . S
C532 N540 1.356 . S
C533 C532 1.363 . S
C533 C539 1.363 . S
C534 C535 1.363 . S
C534 C539 1.379 . S
C534 N541 1.356 . S
C535 C534 1.363 . S
C535 C538 1.363 . S
N536 C538 1.356 . S
N536 H548 0.984 . S
N536 H549 0.985 . S
N537 C539 1.356 . S
N537 H542 0.984 . S
N537 H543 0.985 . S
C538 C532 1.379 . S
C538 C535 1.363 . S
C538 N536 1.356 . S
C539 C533 1.363 . S
C539 C534 1.379 . S
C539 N537 1.356 . S
N540 C532 1.356 . S
N540 H546 0.984 . S
N540 H547 0.984 . S
N541 C534 1.356 . S
N541 H544 0.984 . S
N541 H545 0.985 . S
H542 N537 0.984 . S
H543 N537 0.985 . S
H544 N541 0.984 . S
H545 N541 0.985 . S
H546 N540 0.984 . S
H547 N540 0.984 . S
H548 N536 0.984 . S
H549 N536 0.985 . S
C550 C551 1.363 . S
C550 C556 1.379 . S
C550 N558 1.356 . S
C551 C550 1.363 . S
C551 C557 1.363 . S
C552 C553 1.363 . S
C552 C557 1.379 . S
C552 N559 1.356 . S
C553 C552 1.363 . S
C553 C556 1.363 . S
N554 C556 1.356 . S
N554 H566 0.984 . S
N554 H567 0.985 . S
N555 C557 1.356 . S
N555 H560 0.984 . S
N555 H561 0.980 1_554 S
C556 C550 1.379 . S
C556 C553 1.363 . S
C556 N554 1.356 . S
C557 C551 1.363 . S
C557 C552 1.379 . S
C557 N555 1.356 . S
N558 C550 1.356 . S
N558 H564 0.984 . S
N558 H565 0.984 . S
N559 C552 1.356 . S
N559 H562 0.984 . S
N559 H563 0.985 . S
H560 N555 0.984 . S
H561 N555 0.980 1_556 S
H562 N559 0.984 . S
H563 N559 0.985 . S
H564 N558 0.984 . S
H565 N558 0.984 . S
H566 N554 0.984 . S
H567 N554 0.985 . S
C568 C569 1.363 . S
C568 C574 1.379 . S
C568 N576 1.356 . S
C569 C568 1.363 . S
C569 C575 1.363 . S
C570 C571 1.363 . S
C570 C575 1.379 . S
C570 N577 1.356 1_554 S
C571 C570 1.363 . S
C571 C574 1.363 . S
N572 C574 1.356 . S
N572 H584 0.984 . S
N572 H585 0.985 . S
N573 C575 1.356 1_556 S
N573 H578 0.984 . S
N573 H579 0.985 . S
C574 C568 1.379 . S
C574 C571 1.363 . S
C574 N572 1.356 . S
C575 C569 1.363 . S
C575 C570 1.379 . S
C575 N573 1.356 1_554 S
N576 C568 1.356 . S
N576 H582 0.984 . S
N576 H583 0.984 . S
N577 C570 1.356 1_556 S
N577 H580 0.986 1_556 S
N577 H581 0.985 . S
H578 N573 0.984 . S
H579 N573 0.985 . S
H580 N577 0.986 1_554 S
H581 N577 0.985 . S
H582 N576 0.984 . S
H583 N576 0.984 . S
H584 N572 0.984 . S
H585 N572 0.985 . S
C586 C587 1.363 . S
C586 C592 1.379 . S
C586 N594 1.356 . S
C587 C586 1.363 . S
C587 C593 1.363 . S
C588 C589 1.363 . S
C588 C593 1.379 . S
C588 N595 1.356 . S
C589 C588 1.363 . S
C589 C592 1.363 . S
N590 C592 1.356 . S
N590 H602 0.984 . S
N590 H603 0.985 . S
N591 C593 1.356 . S
N591 H596 0.984 . S
N591 H597 0.985 . S
C592 C586 1.379 . S
C592 C589 1.363 . S
C592 N590 1.356 . S
C593 C587 1.363 . S
C593 C588 1.379 . S
C593 N591 1.356 . S
N594 C586 1.356 . S
N594 H600 0.984 . S
N594 H601 0.984 . S
N595 C588 1.356 . S
N595 H598 0.984 . S
N595 H599 0.985 . S
H596 N591 0.984 . S
H597 N591 0.985 . S
H598 N595 0.984 . S
H599 N595 0.985 . S
H600 N594 0.984 . S
H601 N594 0.984 . S
H602 N590 0.984 . S
H603 N590 0.985 . S
C604 C605 1.363 . S
C604 C610 1.379 . S
C604 N612 1.356 . S
C605 C604 1.363 . S
C605 C611 1.363 . S
C606 C607 1.363 . S
C606 C611 1.379 . S
C606 N613 1.356 . S
C607 C606 1.363 . S
C607 C610 1.363 . S
N608 C610 1.356 . S
N608 H620 0.984 . S
N608 H621 0.985 . S
N609 C611 1.356 1_545 S
N609 H614 0.984 . S
N609 H615 0.985 . S
C610 C604 1.379 . S
C610 C607 1.363 . S
C610 N608 1.356 . S
C611 C605 1.363 . S
C611 C606 1.379 . S
C611 N609 1.356 1_565 S
N612 C604 1.356 . S
N612 H618 0.984 . S
N612 H619 0.984 . S
N613 C606 1.356 . S
N613 H616 0.984 . S
N613 H617 0.985 1_565 S
H614 N609 0.984 . S
H615 N609 0.985 . S
H616 N613 0.984 . S
H617 N613 0.985 1_545 S
H618 N612 0.984 . S
H619 N612 0.984 . S
H620 N608 0.984 . S
H621 N608 0.985 . S
C622 C623 1.363 . S
C622 C628 1.379 1_545 S
C622 N630 1.356 . S
C623 C622 1.363 . S
C623 C629 1.363 1_545 S
C624 C625 1.363 . S
C624 C629 1.379 . S
C624 N631 1.356 . S
C625 C624 1.363 . S
C625 C628 1.363 . S
N626 C628 1.356 . S
N626 H638 0.984 . S
N626 H639 0.985 . S
N627 C629 1.356 1_545 S
N627 H632 0.984 . S
N627 H633 0.985 1_545 S
C628 C622 1.379 1_565 S
C628 C625 1.363 . S
C628 N626 1.356 . S
C629 C623 1.363 1_565 S
C629 C624 1.379 . S
C629 N627 1.356 1_565 S
N630 C622 1.356 . S
N630 H636 0.984 . S
N630 H637 0.984 . S
N631 C624 1.356 . S
N631 H634 0.984 . S
N631 H635 0.985 . S
H632 N627 0.984 . S
H633 N627 0.985 1_565 S
H634 N631 0.984 . S
H635 N631 0.985 . S
H636 N630 0.984 . S
H637 N630 0.984 . S
H638 N626 0.984 . S
H639 N626 0.985 . S
C640 C641 1.363 . S
C640 C646 1.379 . S
C640 N648 1.356 . S
C641 C640 1.363 . S
C641 C647 1.363 . S
C642 C643 1.363 . S
C642 C647 1.379 . S
C642 N649 1.356 . S
C643 C642 1.363 . S
C643 C646 1.363 . S
N644 C646 1.356 . S
N644 H656 0.984 . S
N644 H657 0.985 . S
N645 C647 1.356 . S
N645 H650 0.984 . S
N645 H651 0.985 . S
C646 C640 1.379 . S
C646 C643 1.363 . S
C646 N644 1.356 . S
C647 C641 1.363 . S
C647 C642 1.379 . S
C647 N645 1.356 . S
N648 C640 1.356 . S
N648 H654 0.984 . S
N648 H655 0.984 . S
N649 C642 1.356 . S
N649 H652 0.984 . S
N649 H653 0.985 . S
H650 N645 0.984 . S
H651 N645 0.985 . S
H652 N649 0.984 . S
H653 N649 0.985 . S
H654 N648 0.984 . S
H655 N648 0.984 . S
H656 N644 0.984 . S
H657 N644 0.985 . S
C658 C659 1.363 . S
C658 C664 1.379 . S
C658 N666 1.356 . S
C659 C658 1.363 . S
C659 C665 1.363 . S
C660 C661 1.363 . S
C660 C665 1.379 . S
C660 N667 1.356 1_554 S
C661 C660 1.363 . S
C661 C664 1.363 . S
N662 C664 1.356 . S
N662 H674 0.984 . S
N662 H675 0.985 . S
N663 C665 1.356 . S
N663 H668 0.984 . S
N663 H669 0.985 1_554 S
C664 C658 1.379 . S
C664 C661 1.363 . S
C664 N662 1.356 . S
C665 C659 1.363 . S
C665 C660 1.379 . S
C665 N663 1.356 . S
N666 C658 1.356 . S
N666 H672 0.984 . S
N666 H673 0.984 . S
N667 C660 1.356 1_556 S
N667 H670 0.984 . S
N667 H671 0.985 . S
H668 N663 0.984 . S
H669 N663 0.985 1_556 S
H670 N667 0.984 . S
H671 N667 0.985 . S
H672 N666 0.984 . S
H673 N666 0.984 . S
H674 N662 0.984 . S
H675 N662 0.985 . S
C676 C677 1.363 . S
C676 C682 1.379 . S
C676 N684 1.356 . S
C677 C676 1.363 . S
C677 C683 1.363 . S
C678 C679 1.363 . S
C678 C683 1.379 . S
C678 N685 1.356 . S
C679 C678 1.363 . S
C679 C682 1.363 . S
N680 C682 1.356 . S
N680 H692 0.984 . S
N680 H693 0.985 . S
N681 C683 1.356 . S
N681 H686 0.984 . S
N681 H687 0.985 . S
C682 C676 1.379 . S
C682 C679 1.363 . S
C682 N680 1.356 . S
C683 C677 1.363 . S
C683 C678 1.379 . S
C683 N681 1.356 . S
N684 C676 1.356 . S
N684 H690 0.984 . S
N684 H691 0.984 . S
N685 C678 1.356 . S
N685 H688 0.984 . S
N685 H689 0.985 . S
H686 N681 0.984 . S
H687 N681 0.985 . S
H688 N685 0.984 . S
H689 N685 0.985 . S
H690 N684 0.984 . S
H691 N684 0.984 . S
H692 N680 0.984 . S
H693 N680 0.985 . S
C694 C695 1.363 . S
C694 C700 1.379 . S
C694 N702 1.356 . S
C695 C694 1.363 . S
C695 C701 1.363 . S
C696 C697 1.363 . S
C696 C701 1.379 . S
C696 N703 1.356 . S
C697 C696 1.363 . S
C697 C700 1.363 . S
N698 C700 1.356 . S
N698 H710 0.984 . S
N698 H711 0.985 . S
N699 C701 1.356 . S
N699 H704 0.984 . S
N699 H705 0.985 . S
C700 C694 1.379 . S
C700 C697 1.363 . S
C700 N698 1.356 . S
C701 C695 1.363 . S
C701 C696 1.379 . S
C701 N699 1.356 . S
N702 C694 1.356 . S
N702 H708 0.984 1_655 S
N702 H709 0.984 . S
N703 C696 1.356 . S
N703 H706 0.984 . S
N703 H707 0.985 . S
H704 N699 0.984 . S
H705 N699 0.985 . S
H706 N703 0.984 . S
H707 N703 0.985 . S
H708 N702 0.984 1_455 S
H709 N702 0.984 . S
H710 N698 0.984 . S
H711 N698 0.985 . S
C712 C713 1.363 . S
C712 C718 1.379 . S
C712 N720 1.356 . S
C713 C712 1.363 . S
C713 C719 1.363 . S
C714 C715 1.363 . S
C714 C719 1.379 . S
C714 N721 1.356 . S
C715 C714 1.363 . S
C715 C718 1.363 . S
N716 C718 1.356 . S
N716 H728 0.984 . S
N716 H729 0.985 . S
N717 C719 1.356 . S
N717 H722 0.984 . S
N717 H723 0.985 . S
C718 C712 1.379 . S
C718 C715 1.363 . S
C718 N716 1.356 . S
C719 C713 1.363 . S
C719 C714 1.379 . S
C719 N717 1.356 . S
N720 C712 1.356 . S
N720 H726 0.984 . S
N720 H727 0.984 . S
N721 C714 1.356 . S
N721 H724 0.984 . S
N721 H725 0.985 . S
H722 N717 0.984 . S
H723 N717 0.985 . S
H724 N721 0.984 . S
H725 N721 0.985 . S
H726 N720 0.984 . S
H727 N720 0.984 . S
H728 N716 0.984 . S
H729 N716 0.985 . S
C730 C731 1.363 . S
C730 C736 1.379 . S
C730 N738 1.356 . S
C731 C730 1.363 . S
C731 C737 1.363 . S
C732 C733 1.363 . S
C732 C737 1.379 . S
C732 N739 1.356 . S
C733 C732 1.363 . S
C733 C736 1.363 . S
N734 C736 1.356 . S
N734 H746 0.984 . S
N734 H747 0.985 . S
N735 C737 1.356 . S
N735 H740 0.984 . S
N735 H741 0.985 . S
C736 C730 1.379 . S
C736 C733 1.363 . S
C736 N734 1.356 . S
C737 C731 1.363 . S
C737 C732 1.379 . S
C737 N735 1.356 . S
N738 C730 1.356 . S
N738 H744 0.984 . S
N738 H745 0.984 1_655 S
N739 C732 1.356 . S
N739 H742 0.984 . S
N739 H743 0.985 . S
H740 N735 0.984 . S
H741 N735 0.985 . S
H742 N739 0.984 . S
H743 N739 0.985 . S
H744 N738 0.984 . S
H745 N738 0.984 1_455 S
H746 N734 0.984 . S
H747 N734 0.985 . S
C748 C749 1.363 . S
C748 C754 1.379 . S
C748 N756 1.356 . S
C749 C748 1.363 . S
C749 C755 1.363 1_556 S
C750 C751 1.363 1_554 S
C750 C755 1.379 . S
C750 N757 1.356 . S
C751 C750 1.363 1_556 S
C751 C754 1.363 . S
N752 C754 1.356 . S
N752 H764 0.984 . S
N752 H765 0.985 . S
N753 C755 1.356 . S
N753 H758 0.984 . S
N753 H759 0.985 . S
C754 C748 1.379 . S
C754 C751 1.363 . S
C754 N752 1.356 . S
C755 C749 1.363 1_554 S
C755 C750 1.379 . S
C755 N753 1.356 . S
N756 C748 1.356 . S
N756 H762 0.984 . S
N756 H763 0.984 . S
N757 C750 1.356 . S
N757 H760 0.984 . S
N757 H761 0.985 . S
H758 N753 0.984 . S
H759 N753 0.985 . S
H760 N757 0.984 . S
H761 N757 0.985 . S
H762 N756 0.984 . S
H763 N756 0.984 . S
H764 N752 0.984 . S
H765 N752 0.985 . S
C766 C767 1.363 . S
C766 C772 1.379 . S
C766 N774 1.356 . S
C767 C766 1.363 . S
C767 C773 1.363 . S
C768 C769 1.363 . S
C768 C773 1.379 . S
C768 N775 1.356 . S
C769 C768 1.363 . S
C769 C772 1.363 . S
N770 C772 1.356 . S
N770 H782 0.984 . S
N770 H783 0.985 . S
N771 C773 1.356 . S
N771 H776 0.984 . S
N771 H777 0.985 . S
C772 C766 1.379 . S
C772 C769 1.363 . S
C772 N770 1.356 . S
C773 C767 1.363 . S
C773 C768 1.379 . S
C773 N771 1.356 . S
N774 C766 1.356 . S
N774 H780 0.984 . S
N774 H781 0.984 . S
N775 C768 1.356 . S
N775 H778 0.984 . S
N775 H779 0.985 . S
H776 N771 0.984 . S
H777 N771 0.985 . S
H778 N775 0.984 . S
H779 N775 0.985 . S
H780 N774 0.984 . S
H781 N774 0.984 . S
H782 N770 0.984 . S
H783 N770 0.985 . S
C784 C785 1.363 . S
C784 C790 1.379 . S
C784 N792 1.356 . S
C785 C784 1.363 . S
C785 C791 1.363 . S
C786 C787 1.363 . S
C786 C791 1.379 . S
C786 N793 1.356 . S
C787 C786 1.363 . S
C787 C790 1.363 . S
N788 C790 1.356 . S
N788 H800 0.984 . S
N788 H801 0.985 . S
N789 C791 1.356 . S
N789 H794 0.984 . S
N789 H795 0.985 . S
C790 C784 1.379 . S
C790 C787 1.363 . S
C790 N788 1.356 . S
C791 C785 1.363 . S
C791 C786 1.379 . S
C791 N789 1.356 . S
N792 C784 1.356 . S
N792 H798 0.984 . S
N792 H799 0.984 . S
N793 C786 1.356 . S
N793 H796 0.984 . S
N793 H797 0.985 . S
H794 N789 0.984 . S
H795 N789 0.985 . S
H796 N793 0.984 . S
H797 N793 0.985 . S
H798 N792 0.984 . S
H799 N792 0.984 . S
H800 N788 0.984 . S
H801 N788 0.985 . S
C802 C803 1.363 . S
C802 C808 1.379 . S
C802 N810 1.356 . S
C803 C802 1.363 . S
C803 C809 1.363 . S
C804 C805 1.363 . S
C804 C809 1.379 . S
C804 N811 1.356 . S
C805 C804 1.363 . S
C805 C808 1.363 . S
N806 C808 1.356 . S
N806 H818 0.984 . S
N806 H819 0.985 . S
N807 C809 1.356 . S
N807 H812 0.984 . S
N807 H813 0.985 . S
C808 C802 1.379 . S
C808 C805 1.363 . S
C808 N806 1.356 . S
C809 C803 1.363 . S
C809 C804 1.379 . S
C809 N807 1.356 . S
N810 C802 1.356 . S
N810 H816 0.984 . S
N810 H817 0.984 . S
N811 C804 1.356 . S
N811 H814 0.984 . S
N811 H815 0.985 . S
H812 N807 0.984 . S
H813 N807 0.985 . S
H814 N811 0.984 . S
H815 N811 0.985 . S
H816 N810 0.984 . S
H817 N810 0.984 . S
H818 N806 0.984 . S
H819 N806 0.985 . S
C820 C821 1.363 . S
C820 C826 1.379 . S
C820 N828 1.356 . S
C821 C820 1.363 . S
C821 C827 1.363 . S
C822 C823 1.363 . S
C822 C827 1.379 . S
C822 N829 1.356 . S
C823 C822 1.363 . S
C823 C826 1.363 . S
N824 C826 1.356 . S
N824 H836 0.984 . S
N824 H837 0.985 . S
N825 C827 1.356 . S
N825 H830 0.984 . S
N825 H831 0.985 . S
C826 C820 1.379 . S
C826 C823 1.363 . S
C826 N824 1.356 . S
C827 C821 1.363 . S
C827 C822 1.379 . S
C827 N825 1.356 . S
N828 C820 1.356 . S
N828 H834 0.984 . S
N828 H835 0.984 . S
N829 C822 1.356 . S
N829 H832 0.984 . S
N829 H833 0.985 . S
H830 N825 0.984 . S
H831 N825 0.985 . S
H832 N829 0.984 . S
H833 N829 0.985 . S
H834 N828 0.984 . S
H835 N828 0.984 . S
H836 N824 0.984 . S
H837 N824 0.985 . S
C838 C839 1.363 . S
C838 C844 1.379 . S
C838 N846 1.356 . S
C839 C838 1.363 . S
C839 C845 1.363 . S
C840 C841 1.363 . S
C840 C845 1.379 . S
C840 N847 1.356 . S
C841 C840 1.363 . S
C841 C844 1.363 . S
N842 C844 1.356 . S
N842 H854 0.984 . S
N842 H855 0.985 . S
N843 C845 1.356 . S
N843 H848 0.984 . S
N843 H849 0.985 . S
C844 C838 1.379 . S
C844 C841 1.363 . S
C844 N842 1.356 . S
C845 C839 1.363 . S
C845 C840 1.379 . S
C845 N843 1.356 . S
N846 C838 1.356 . S
N846 H852 0.984 . S
N846 H853 0.984 . S
N847 C840 1.356 . S
N847 H850 0.984 . S
N847 H851 0.985 . S
H848 N843 0.984 . S
H849 N843 0.985 . S
H850 N847 0.984 . S
H851 N847 0.985 . S
H852 N846 0.984 . S
H853 N846 0.984 . S
H854 N842 0.984 . S
H855 N842 0.985 . S
C856 C857 1.363 . S
C856 C862 1.379 . S
C856 N864 1.356 . S
C857 C856 1.363 . S
C857 C863 1.363 . S
C858 C859 1.363 . S
C858 C863 1.379 . S
C858 N865 1.356 . S
C859 C858 1.363 . S
C859 C862 1.363 . S
N860 C862 1.356 . S
N860 H872 0.984 . S
N860 H873 0.985 . S
N861 C863 1.356 . S
N861 H866 0.984 . S
N861 H867 0.985 . S
C862 C856 1.379 . S
C862 C859 1.363 . S
C862 N860 1.356 . S
C863 C857 1.363 . S
C863 C858 1.379 . S
C863 N861 1.356 . S
N864 C856 1.356 . S
N864 H870 0.984 . S
N864 H871 0.984 . S
N865 C858 1.356 . S
N865 H868 0.984 . S
N865 H869 0.985 . S
H866 N861 0.984 . S
H867 N861 0.985 . S
H868 N865 0.984 . S
H869 N865 0.985 . S
H870 N864 0.984 . S
H871 N864 0.984 . S
H872 N860 0.984 . S
H873 N860 0.985 . S
C874 C875 1.363 . S
C874 C880 1.379 . S
C874 N882 1.356 . S
C875 C874 1.363 . S
C875 C881 1.363 . S
C876 C877 1.363 . S
C876 C881 1.379 . S
C876 N883 1.356 . S
C877 C876 1.363 . S
C877 C880 1.363 . S
N878 C880 1.356 . S
N878 H890 0.984 . S
N878 H891 0.985 . S
N879 C881 1.356 . S
N879 H884 0.984 . S
N879 H885 0.985 . S
C880 C874 1.379 . S
C880 C877 1.363 . S
C880 N878 1.356 . S
C881 C875 1.363 . S
C881 C876 1.379 . S
C881 N879 1.356 . S
N882 C874 1.356 . S
N882 H888 0.984 . S
N882 H889 0.984 . S
N883 C876 1.356 . S
N883 H886 0.984 . S
N883 H887 0.985 . S
H884 N879 0.984 . S
H885 N879 0.985 . S
H886 N883 0.984 . S
H887 N883 0.985 . S
H888 N882 0.984 . S
H889 N882 0.984 . S
H890 N878 0.984 . S
H891 N878 0.985 . S
C892 C893 1.363 . S
C892 C898 1.379 . S
C892 N900 1.356 . S
C893 C892 1.363 . S
C893 C899 1.363 . S
C894 C895 1.363 . S
C894 C899 1.379 . S
C894 N901 1.356 . S
C895 C894 1.363 . S
C895 C898 1.363 . S
N896 C898 1.356 . S
N896 H908 0.984 . S
N896 H909 0.985 . S
N897 C899 1.356 . S
N897 H902 0.984 . S
N897 H903 0.985 . S
C898 C892 1.379 . S
C898 C895 1.363 . S
C898 N896 1.356 . S
C899 C893 1.363 . S
C899 C894 1.379 . S
C899 N897 1.356 . S
N900 C892 1.356 . S
N900 H906 0.984 . S
N900 H907 0.984 . S
N901 C894 1.356 . S
N901 H904 0.984 . S
N901 H905 0.985 . S
H902 N897 0.984 . S
H903 N897 0.985 . S
H904 N901 0.984 . S
H905 N901 0.985 . S
H906 N900 0.984 . S
H907 N900 0.984 . S
H908 N896 0.984 . S
H909 N896 0.985 . S
C910 C911 1.363 . S
C910 C916 1.379 1_545 S
C910 N918 1.356 . S
C911 C910 1.363 . S
C911 C917 1.363 . S
C912 C913 1.363 . S
C912 C917 1.379 1_565 S
C912 N919 1.356 . S
C913 C912 1.363 . S
C913 C916 1.363 . S
N914 C916 1.356 . S
N914 H926 0.984 . S
N914 H927 0.985 . S
N915 C917 1.356 . S
N915 H920 0.984 . S
N915 H921 0.985 . S
C916 C910 1.379 1_565 S
C916 C913 1.363 . S
C916 N914 1.356 . S
C917 C911 1.363 . S
C917 C912 1.379 1_545 S
C917 N915 1.356 . S
N918 C910 1.356 . S
N918 H924 0.984 . S
N918 H925 0.984 . S
N919 C912 1.356 . S
N919 H922 0.984 . S
N919 H923 0.985 . S
H920 N915 0.984 . S
H921 N915 0.985 . S
H922 N919 0.984 . S
H923 N919 0.985 . S
H924 N918 0.984 . S
H925 N918 0.984 . S
H926 N914 0.984 . S
H927 N914 0.985 . S
C928 C929 1.363 . S
C928 C934 1.379 . S
C928 N936 1.356 . S
C929 C928 1.363 . S
C929 C935 1.363 . S
C930 C931 1.363 . S
C930 C935 1.379 . S
C930 N937 1.356 . S
C931 C930 1.363 . S
C931 C934 1.363 . S
N932 C934 1.356 . S
N932 H944 0.984 . S
N932 H945 0.985 . S
N933 C935 1.356 . S
N933 H938 0.984 . S
N933 H939 0.985 . S
C934 C928 1.379 . S
C934 C931 1.363 . S
C934 N932 1.356 . S
C935 C929 1.363 . S
C935 C930 1.379 . S
C935 N933 1.356 . S
N936 C928 1.356 . S
N936 H942 0.984 . S
N936 H943 0.984 . S
N937 C930 1.356 . S
N937 H940 0.984 . S
N937 H941 0.985 . S
H938 N933 0.984 . S
H939 N933 0.985 . S
H940 N937 0.984 . S
H941 N937 0.985 . S
H942 N936 0.984 . S
H943 N936 0.984 . S
H944 N932 0.984 . S
H945 N932 0.985 . S
C946 C947 1.363 . S
C946 C952 1.379 . S
C946 N954 1.356 . S
C947 C946 1.363 . S
C947 C953 1.363 . S
C948 C949 1.363 . S
C948 C953 1.379 . S
C948 N955 1.356 . S
C949 C948 1.363 . S
C949 C952 1.363 . S
N950 C952 1.356 . S
N950 H962 0.984 . S
N950 H963 0.985 . S
N951 C953 1.356 . S
N951 H956 0.984 . S
N951 H957 0.985 . S
C952 C946 1.379 . S
C952 C949 1.363 . S
C952 N950 1.356 . S
C953 C947 1.363 . S
C953 C948 1.379 . S
C953 N951 1.356 . S
N954 C946 1.356 . S
N954 H960 0.984 . S
N954 H961 0.984 . S
N955 C948 1.356 . S
N955 H958 0.984 . S
N955 H959 0.985 . S
H956 N951 0.984 . S
H957 N951 0.985 . S
H958 N955 0.984 . S
H959 N955 0.985 . S
H960 N954 0.984 . S
H961 N954 0.984 . S
H962 N950 0.984 . S
H963 N950 0.985 . S
C964 C965 1.363 . S
C964 C970 1.379 . S
C964 N972 1.356 1_655 S
C965 C964 1.363 . S
C965 C971 1.363 . S
C966 C967 1.363 . S
C966 C971 1.379 . S
C966 N973 1.356 . S
C967 C966 1.363 . S
C967 C970 1.363 . S
N968 C970 1.356 . S
N968 H980 0.984 . S
N968 H981 0.985 . S
N969 C971 1.356 . S
N969 H974 0.984 . S
N969 H975 0.985 . S
C970 C964 1.379 . S
C970 C967 1.363 . S
C970 N968 1.356 . S
C971 C965 1.363 . S
C971 C966 1.379 . S
C971 N969 1.356 . S
N972 C964 1.356 1_455 S
N972 H978 0.984 . S
N972 H979 0.984 . S
N973 C966 1.356 . S
N973 H976 0.984 . S
N973 H977 0.985 . S
H974 N969 0.984 . S
H975 N969 0.985 . S
H976 N973 0.984 . S
H977 N973 0.985 . S
H978 N972 0.984 . S
H979 N972 0.984 . S
H980 N968 0.984 . S
H981 N968 0.985 . S
C982 C983 1.363 . S
C982 C988 1.379 . S
C982 N990 1.356 . S
C983 C982 1.363 . S
C983 C989 1.363 . S
C984 C985 1.363 . S
C984 C989 1.379 . S
C984 N991 1.356 . S
C985 C984 1.363 . S
C985 C988 1.363 . S
N986 C988 1.356 . S
N986 H998 0.984 . S
N986 H999 0.985 . S
N987 C989 1.356 . S
N987 H992 0.984 . S
N987 H993 0.985 . S
C988 C982 1.379 . S
C988 C985 1.363 . S
C988 N986 1.356 . S
C989 C983 1.363 . S
C989 C984 1.379 . S
C989 N987 1.356 . S
N990 C982 1.356 . S
N990 H996 0.984 . S
N990 H997 0.984 . S
N991 C984 1.356 . S
N991 H994 0.984 . S
N991 H995 0.985 . S
H992 N987 0.984 . S
H993 N987 0.985 . S
H994 N991 0.984 . S
H995 N991 0.985 . S
H996 N990 0.984 . S
H997 N990 0.984 . S
H998 N986 0.984 . S
H999 N986 0.985 . S
C1000 C1001 1.363 . S
C1000 C1006 1.379 . S
C1000 N1008 1.356 . S
C1001 C1000 1.363 . S
C1001 C1007 1.363 . S
C1002 C1003 1.363 . S
C1002 C1007 1.379 . S
C1002 N1009 1.356 . S
C1003 C1002 1.363 . S
C1003 C1006 1.363 . S
N1004 C1006 1.356 . S
N1004 H1016 0.984 . S
N1004 H1017 0.985 . S
N1005 C1007 1.356 . S
N1005 H1010 0.984 . S
N1005 H1011 0.985 . S
C1006 C1000 1.379 . S
C1006 C1003 1.363 . S
C1006 N1004 1.356 . S
C1007 C1001 1.363 . S
C1007 C1002 1.379 . S
C1007 N1005 1.356 . S
N1008 C1000 1.356 . S
N1008 H1014 0.984 . S
N1008 H1015 0.984 . S
N1009 C1002 1.356 . S
N1009 H1012 0.984 . S
N1009 H1013 0.985 . S
H1010 N1005 0.984 . S
H1011 N1005 0.985 . S
H1012 N1009 0.984 . S
H1013 N1009 0.985 . S
H1014 N1008 0.984 . S
H1015 N1008 0.984 . S
H1016 N1004 0.984 . S
H1017 N1004 0.985 . S
C1018 C1019 1.363 . S
C1018 C1024 1.379 . S
C1018 N1026 1.356 . S
C1019 C1018 1.363 . S
C1019 C1025 1.363 . S
C1020 C1021 1.363 . S
C1020 C1025 1.379 . S
C1020 N1027 1.356 . S
C1021 C1020 1.363 . S
C1021 C1024 1.363 . S
N1022 C1024 1.356 . S
N1022 H1034 0.984 . S
N1022 H1035 0.985 . S
N1023 C1025 1.356 1_455 S
N1023 H1028 0.984 . S
N1023 H1029 0.985 . S
C1024 C1018 1.379 . S
C1024 C1021 1.363 . S
C1024 N1022 1.356 . S
C1025 C1019 1.363 . S
C1025 C1020 1.379 . S
C1025 N1023 1.356 1_655 S
N1026 C1018 1.356 . S
N1026 H1032 0.984 . S
N1026 H1033 0.984 . S
N1027 C1020 1.356 . S
N1027 H1030 0.984 . S
N1027 H1031 0.985 . S
H1028 N1023 0.984 . S
H1029 N1023 0.985 . S
H1030 N1027 0.984 . S
H1031 N1027 0.985 . S
H1032 N1026 0.984 . S
H1033 N1026 0.984 . S
H1034 N1022 0.984 . S
H1035 N1022 0.985 . S
C1036 C1037 1.363 . S
C1036 C1042 1.379 . S
C1036 N1044 1.356 . S
C1037 C1036 1.363 . S
C1037 C1043 1.363 . S
C1038 C1039 1.363 . S
C1038 C1043 1.379 . S
C1038 N1045 1.356 . S
C1039 C1038 1.363 . S
C1039 C1042 1.363 . S
N1040 C1042 1.356 . S
N1040 H1052 0.984 . S
N1040 H1053 0.985 . S
N1041 C1043 1.356 . S
N1041 H1046 0.984 . S
N1041 H1047 0.985 . S
C1042 C1036 1.379 . S
C1042 C1039 1.363 . S
C1042 N1040 1.356 . S
C1043 C1037 1.363 . S
C1043 C1038 1.379 . S
C1043 N1041 1.356 . S
N1044 C1036 1.356 . S
N1044 H1050 0.984 . S
N1044 H1051 0.984 . S
N1045 C1038 1.356 . S
N1045 H1048 0.984 . S
N1045 H1049 0.985 . S
H1046 N1041 0.984 . S
H1047 N1041 0.985 . S
H1048 N1045 0.984 . S
H1049 N1045 0.985 . S
H1050 N1044 0.984 . S
H1051 N1044 0.984 . S
H1052 N1040 0.984 . S
H1053 N1040 0.985 . S
C1054 C1055 1.363 . S
C1054 C1060 1.379 . S
C1054 N1062 1.356 . S
C1055 C1054 1.363 . S
C1055 C1061 1.363 . S
C1056 C1057 1.363 . S
C1056 C1061 1.379 . S
C1056 N1063 1.356 . S
C1057 C1056 1.363 . S
C1057 C1060 1.363 . S
N1058 C1060 1.356 . S
N1058 H1070 0.984 . S
N1058 H1071 0.985 . S
N1059 C1061 1.356 . S
N1059 H1064 0.984 . S
N1059 H1065 0.985 . S
C1060 C1054 1.379 . S
C1060 C1057 1.363 . S
C1060 N1058 1.356 . S
C1061 C1055 1.363 . S
C1061 C1056 1.379 . S
C1061 N1059 1.356 . S
N1062 C1054 1.356 . S
N1062 H1068 0.984 . S
N1062 H1069 0.984 . S
N1063 C1056 1.356 . S
N1063 H1066 0.984 . S
N1063 H1067 0.985 . S
H1064 N1059 0.984 . S
H1065 N1059 0.985 . S
H1066 N1063 0.984 . S
H1067 N1063 0.985 . S
H1068 N1062 0.984 . S
H1069 N1062 0.984 . S
H1070 N1058 0.984 . S
H1071 N1058 0.985 . S
C499 C404 1.489 . S
C497 C36 1.437 . S
C517 C421 1.451 . S
C515 C93 1.463 . S
C535 C435 1.566 . S
C533 C126 1.594 . S
C551 C165 1.431 . S
C553 C393 1.446 . S
C569 C222 1.405 . S
C571 C390 1.500 . S
C587 C261 1.296 . S
C589 C407 1.321 . S
C607 C418 1.620 . S
C605 C318 1.551 . S
C625 C432 1.530 . S
C623 C381 1.500 . S
C641 C132 1.468 . S
C643 C460 1.529 . S
C661 C474 1.621 . S
C659 C189 1.611 . S
C677 C30 1.314 . S
C679 C491 1.321 . S
C697 C446 1.498 . S
C695 C69 1.401 . S
C713 C324 1.419 . S
C715 C449 1.446 . S
C731 C357 1.567 . S
C733 C463 1.565 . S
C751 C477 1.450 . S
C749 C228 1.455 . S
C767 C285 1.460 . S
C769 C488 1.489 . S
C787 C420 1.947 . S
C785 C45 1.943 . S
C805 C434 2.078 . S
C803 C84 2.083 . S
C821 C117 2.008 . S
C823 C392 2.029 . S
C839 C174 1.819 . S
C841 C405 1.765 . S
C857 C213 1.706 . S
C859 C433 1.558 . S
C877 C391 1.579 . S
C875 C270 1.695 . S
C895 C406 1.887 . S
C893 C309 1.897 . S
C913 C419 1.648 . S
C911 C372 1.775 . S
C931 C475 1.648 . S
C929 C141 1.759 . S
C949 C490 1.887 . S
C947 C180 1.896 . S
C965 C21 1.725 . S
C967 C447 1.580 . S
C985 C461 1.557 . S
C983 C78 1.691 . S
C1003 C489 1.764 . S
C1001 C333 1.901 . S
C1019 C366 1.958 1_655 S
C1021 C448 2.029 . S
C1039 C462 2.078 . S
C1037 C237 2.089 . S
C1057 C476 1.948 . S
C1055 C276 1.958 . S
