# Generated by pormake.
# Topology pyr, (3,6)-cn, num edge types: 1
# Building blocks:
#     Node 0, Type 0, BuildingBlock: CUQRIR_clean_linker_1, # of connection points: 3
#     Node 1, Type 0, BuildingBlock: CUQRIR_clean_linker_1, # of connection points: 3
#     Node 2, Type 0, BuildingBlock: CUQRIR_clean_linker_1, # of connection points: 3
#     Node 3, Type 0, BuildingBlock: CUQRIR_clean_linker_1, # of connection points: 3
#     Node 4, Type 0, BuildingBlock: CUQRIR_clean_linker_1, # of connection points: 3
#     Node 5, Type 0, BuildingBlock: CUQRIR_clean_linker_1, # of connection points: 3
#     Node 6, Type 0, BuildingBlock: CUQRIR_clean_linker_1, # of connection points: 3
#     Node 7, Type 0, BuildingBlock: CUQRIR_clean_linker_1, # of connection points: 3
#     Node 8, Type 1, BuildingBlock: MIDCAF_clean_sbu_0, # of connection points: 6
#     Node 9, Type 1, BuildingBlock: MIDCAF_clean_sbu_0, # of connection points: 6
#     Node 10, Type 1, BuildingBlock: MIDCAF_clean_sbu_0, # of connection points: 6
#     Node 11, Type 1, BuildingBlock: MIDCAF_clean_sbu_0, # of connection points: 6
#     Edge 12, Type (0, 1), BuildingBlock: XIVTED_clean_linker_0, # of connection points: 2
#     Edge 13, Type (0, 1), BuildingBlock: XIVTED_clean_linker_0, # of connection points: 2
#     Edge 14, Type (0, 1), BuildingBlock: XIVTED_clean_linker_0, # of connection points: 2
#     Edge 15, Type (0, 1), BuildingBlock: XIVTED_clean_linker_0, # of connection points: 2
#     Edge 16, Type (0, 1), BuildingBlock: XIVTED_clean_linker_0, # of connection points: 2
#     Edge 17, Type (0, 1), BuildingBlock: XIVTED_clean_linker_0, # of connection points: 2
#     Edge 18, Type (0, 1), BuildingBlock: XIVTED_clean_linker_0, # of connection points: 2
#     Edge 19, Type (0, 1), BuildingBlock: XIVTED_clean_linker_0, # of connection points: 2
#     Edge 20, Type (0, 1), BuildingBlock: XIVTED_clean_linker_0, # of connection points: 2
#     Edge 21, Type (0, 1), BuildingBlock: XIVTED_clean_linker_0, # of connection points: 2
#     Edge 22, Type (0, 1), BuildingBlock: XIVTED_clean_linker_0, # of connection points: 2
#     Edge 23, Type (0, 1), BuildingBlock: XIVTED_clean_linker_0, # of connection points: 2
#     Edge 24, Type (0, 1), BuildingBlock: XIVTED_clean_linker_0, # of connection points: 2
#     Edge 25, Type (0, 1), BuildingBlock: XIVTED_clean_linker_0, # of connection points: 2
#     Edge 26, Type (0, 1), BuildingBlock: XIVTED_clean_linker_0, # of connection points: 2
#     Edge 27, Type (0, 1), BuildingBlock: XIVTED_clean_linker_0, # of connection points: 2
#     Edge 28, Type (0, 1), BuildingBlock: XIVTED_clean_linker_0, # of connection points: 2
#     Edge 29, Type (0, 1), BuildingBlock: XIVTED_clean_linker_0, # of connection points: 2
#     Edge 30, Type (0, 1), BuildingBlock: XIVTED_clean_linker_0, # of connection points: 2
#     Edge 31, Type (0, 1), BuildingBlock: XIVTED_clean_linker_0, # of connection points: 2
#     Edge 32, Type (0, 1), BuildingBlock: XIVTED_clean_linker_0, # of connection points: 2
#     Edge 33, Type (0, 1), BuildingBlock: XIVTED_clean_linker_0, # of connection points: 2
#     Edge 34, Type (0, 1), BuildingBlock: XIVTED_clean_linker_0, # of connection points: 2
#     Edge 35, Type (0, 1), BuildingBlock: XIVTED_clean_linker_0, # of connection points: 2
# Relax obj value: 0.103
# Max RMSD: 0.208
# Mean RMSD: 0.152
data_MOF--net-pry--node1-MIDCAF_clean_sbu_0--node2-CUQRIR_clean_linker_1--edge1-XIVTED_clean_linker_0
_symmetry_space_group_name_H-M    P1
_symmetry_Int_Tables_number       1
_symmetry_cell_setting            triclinic
loop_
_symmetry_equiv_pos_as_xyz
'x, y, z'
_cell_length_a     33.154657
_cell_length_b     33.022897
_cell_length_c     32.395756
_cell_angle_alpha  88.171499
_cell_angle_beta   91.602163
_cell_angle_gamma 93.187582
loop_
_atom_site_label
_atom_site_type_symbol
_atom_site_fract_x
_atom_site_fract_y
_atom_site_fract_z
_atom_type_partial_charge
C0 C 0.21509 0.27872 0.26309 0.0
N1 N 0.23648 0.24544 0.27106 0.0
N2 N 0.22927 0.29994 0.22949 0.0
C3 C 0.17744 0.288 0.28524 0.0
C4 C 0.25998 0.27805 0.21718 0.0
N5 N 0.26439 0.24492 0.24238 0.0
C6 C 0.28487 0.2882 0.17981 0.0
H7 H 0.16254 0.26019 0.29929 0.0
H8 H 0.15542 0.30248 0.26387 0.0
H9 H 0.18583 0.30929 0.31025 0.0
H10 H 0.28421 0.32091 0.17101 0.0
H11 H 0.27248 0.27007 0.15365 0.0
H12 H 0.31662 0.28022 0.18572 0.0
C13 C 0.3012 0.78382 0.72108 0.0
N14 N 0.29942 0.81526 0.74685 0.0
N15 N 0.33313 0.76128 0.73128 0.0
C16 C 0.27423 0.77762 0.68334 0.0
C17 C 0.35084 0.78036 0.76409 0.0
N18 N 0.33095 0.8137 0.77315 0.0
C19 C 0.38567 0.76434 0.78931 0.0
H20 H 0.24842 0.75635 0.6916 0.0
H21 H 0.29077 0.76437 0.65819 0.0
H22 H 0.26205 0.80653 0.67163 0.0
H23 H 0.41451 0.77792 0.77729 0.0
H24 H 0.38604 0.73088 0.78729 0.0
H25 H 0.38368 0.77228 0.8222 0.0
C26 C 0.66487 0.32528 0.7954 0.0
N27 N 0.68612 0.32019 0.83141 0.0
N28 N 0.6797 0.35841 0.77381 0.0
C29 C 0.62693 0.30069 0.78353 0.0
C30 C 0.71064 0.37318 0.79801 0.0
N31 N 0.71409 0.35053 0.83336 0.0
C32 C 0.73882 0.40874 0.78613 0.0
H33 H 0.63488 0.27649 0.7627 0.0
H34 H 0.60504 0.31993 0.76685 0.0
H35 H 0.61221 0.28619 0.81099 0.0
H36 H 0.7278 0.43685 0.79865 0.0
H37 H 0.74021 0.41257 0.75203 0.0
H38 H 0.76967 0.40451 0.79918 0.0
C39 C 0.76502 0.72092 0.30517 0.0
N40 N 0.8005 0.74263 0.29948 0.0
N41 N 0.74612 0.7337 0.33859 0.0
C42 C 0.75091 0.68449 0.28079 0.0
C43 C 0.77134 0.76406 0.35287 0.0
N44 N 0.8044 0.76944 0.32933 0.0
C45 C 0.76461 0.7875 0.39095 0.0
H46 H 0.77666 0.67001 0.26722 0.0
H47 H 0.7304 0.69442 0.25524 0.0
H48 H 0.73401 0.66167 0.30045 0.0
H49 H 0.78238 0.77454 0.41722 0.0
H50 H 0.7322 0.78605 0.39883 0.0
H51 H 0.77522 0.81973 0.38636 0.0
C52 C 0.85742 0.92088 0.93566 0.0
N53 N 0.88951 0.90458 0.9187 0.0
N54 N 0.85072 0.95756 0.91784 0.0
C55 C 0.83284 0.90134 0.97002 0.0
C56 C 0.87987 0.96329 0.88962 0.0
N57 N 0.90393 0.93138 0.89051 0.0
C58 C 0.88418 0.99948 0.86039 0.0
H59 H 0.85226 0.88408 0.99189 0.0
H60 H 0.80947 0.8799 0.95659 0.0
H61 H 0.81732 0.92419 0.98719 0.0
H62 H 0.85683 0.01739 0.8595 0.0
H63 H 0.8901 0.98953 0.82882 0.0
H64 H 0.91045 0.01927 0.87064 0.0
C65 C 0.68459 0.16297 0.45768 0.0
N66 N 0.68854 0.13168 0.43214 0.0
N67 N 0.64633 0.1755 0.45559 0.0
C68 C 0.71771 0.18064 0.48533 0.0
C69 C 0.62727 0.15096 0.42772 0.0
N70 N 0.65264 0.124 0.41386 0.0
C71 C 0.58476 0.15613 0.41115 0.0
H72 H 0.70519 0.19769 0.51055 0.0
H73 H 0.73773 0.20167 0.46672 0.0
H74 H 0.73624 0.15628 0.49878 0.0
H75 H 0.57897 0.18881 0.40705 0.0
H76 H 0.56311 0.1425 0.43385 0.0
H77 H 0.57862 0.14124 0.3813 0.0
C78 C 0.39869 0.58677 0.1084 0.0
N79 N 0.42255 0.62097 0.11372 0.0
N80 N 0.37049 0.5924 0.07813 0.0
C81 C 0.3995 0.54948 0.13643 0.0
C82 C 0.378 0.63135 0.06508 0.0
N83 N 0.40914 0.64892 0.08714 0.0
C84 C 0.35278 0.65295 0.03287 0.0
H85 H 0.37863 0.52462 0.12505 0.0
H86 H 0.39094 0.55728 0.16797 0.0
H87 H 0.4305 0.53848 0.13852 0.0
H88 H 0.32685 0.66565 0.04797 0.0
H89 H 0.34066 0.63171 0.0092 0.0
H90 H 0.37071 0.67807 0.01732 0.0
C91 C 0.06447 0.37726 0.67215 0.0
N92 N 0.09495 0.37743 0.6452 0.0
N93 N 0.06898 0.40972 0.69658 0.0
C94 C 0.03028 0.34545 0.67432 0.0
C95 C 0.10348 0.42957 0.6837 0.0
N96 N 0.1196 0.40965 0.65266 0.0
C97 C 0.12103 0.46863 0.70105 0.0
H98 H 0.01324 0.34698 0.70314 0.0
H99 H 0.04207 0.3148 0.67216 0.0
H100 H 0.00923 0.35008 0.64757 0.0
H101 H 0.14486 0.46161 0.72449 0.0
H102 H 0.09781 0.48541 0.71625 0.0
H103 H 0.13501 0.48827 0.67632 0.0
Zn104 Zn 0.9931 0.06029 0.57987 0.0
Zn105 Zn 0.08251 0.97295 0.50397 0.0
Zn106 Zn 0.0394 0.01778 0.53784 0.0
C107 C 0.10129 0.04783 0.46854 0.0
C108 C 0.00688 0.94446 0.482 0.0
O109 O 0.04033 0.99583 0.60468 0.0
O110 O 0.99951 0.03546 0.6356 0.0
C111 C 0.05169 0.11437 0.54449 0.0
O112 O 0.0833 0.0578 0.50127 0.0
O113 O 0.1008 0.01098 0.45932 0.0
O114 O 0.04109 0.93017 0.48858 0.0
O115 O 0.00042 0.98009 0.49479 0.0
O116 O 0.02177 0.11313 0.56781 0.0
O117 O 0.06344 0.08165 0.52905 0.0
O118 O 0.97641 0.01115 0.50936 0.0
O119 O 0.94164 0.04887 0.5493 0.0
C120 C 0.94293 0.02665 0.51848 0.0
O121 O 0.07369 0.9815 0.58621 0.0
O122 O 0.123 0.96223 0.5484 0.0
C123 C 0.02237 0.00618 0.63736 0.0
C124 C 0.10849 0.96614 0.58348 0.0
Zn125 Zn 0.45927 0.07721 0.01978 0.0
Zn126 Zn 0.56494 0.98838 0.08707 0.0
Zn127 Zn 0.51293 0.03213 0.0545 0.0
C128 C 0.60913 0.03808 0.03547 0.0
C129 C 0.51276 0.93407 0.04907 0.0
O130 O 0.48243 0.06264 0.10549 0.0
O131 O 0.43075 0.08771 0.0705 0.0
C132 C 0.53448 0.11137 0.99682 0.0
O133 O 0.57291 0.04838 0.02614 0.0
O134 O 0.6152 0.01327 0.065 0.0
O135 O 0.54743 0.93538 0.06606 0.0
O136 O 0.4942 0.96713 0.04248 0.0
O137 O 0.49811 0.12071 0.99789 0.0
O138 O 0.54521 0.07742 0.01327 0.0
O139 O 0.46956 0.99227 0.01744 0.0
O140 O 0.43267 0.03632 0.9827 0.0
C141 C 0.44185 0.00012 0.98994 0.0
O142 O 0.51667 0.04324 0.12274 0.0
O143 O 0.55663 0.9956 0.14567 0.0
C144 C 0.44875 0.08056 0.10454 0.0
C145 C 0.53531 0.02484 0.15283 0.0
Zn146 Zn 0.54332 0.58657 0.57011 0.0
Zn147 Zn 0.42045 0.45602 0.43355 0.0
Zn148 Zn 0.46053 0.50392 0.48287 0.0
C149 C 0.48106 0.4107 0.47247 0.0
C150 C 0.4551 0.52232 0.38591 0.0
O151 O 0.42681 0.53351 0.52958 0.0
O152 O 0.4869 0.55844 0.54754 0.0
C153 C 0.52803 0.49278 0.54317 0.0
O154 O 0.48884 0.44509 0.4894 0.0
O155 O 0.45153 0.40626 0.44715 0.0
O156 O 0.43417 0.48939 0.382 0.0
O157 O 0.46802 0.53348 0.42178 0.0
O158 O 0.52344 0.53103 0.54247 0.0
O159 O 0.50581 0.47185 0.5179 0.0
O160 O 0.49352 0.55349 0.45066 0.0
O161 O 0.51709 0.56855 0.51205 0.0
C162 C 0.51794 0.57548 0.47294 0.0
O163 O 0.40015 0.50413 0.50807 0.0
O164 O 0.36877 0.46327 0.4633 0.0
C165 C 0.44865 0.55717 0.55283 0.0
C166 C 0.36789 0.48462 0.49504 0.0
Zn167 Zn 0.02864 0.58323 0.97626 0.0
Zn168 Zn 0.9558 0.50328 0.09755 0.0
Zn169 Zn 0.9919 0.54597 0.03426 0.0
C170 C 0.03722 0.48866 0.10486 0.0
C171 C 0.92085 0.47565 0.02234 0.0
O172 O 0.97889 0.61221 0.03475 0.0
O173 O 0.02308 0.63971 0.9908 0.0
C174 C 0.08733 0.54321 0.01772 0.0
O175 O 0.03766 0.51328 0.07305 0.0
O176 O 0.00447 0.47875 0.12239 0.0
O177 O 0.91829 0.46967 0.06095 0.0
O178 O 0.94673 0.50244 0.00756 0.0
O179 O 0.08259 0.56161 0.98341 0.0
O180 O 0.0572 0.53637 0.04174 0.0
O181 O 0.97082 0.51907 0.97453 0.0
O182 O 0.99622 0.56333 0.92848 0.0
C183 C 0.97534 0.53114 0.9366 0.0
O184 O 0.96245 0.59168 0.07057 0.0
O185 O 0.93841 0.55359 0.12288 0.0
C186 C 0.99548 0.64378 0.01605 0.0
C187 C 0.94431 0.58806 0.10531 0.0
H188 H 0.241 0.25143 0.35382 0.0
H189 H 0.11809 0.03801 0.38835 0.0
H190 H 0.20461 0.17019 0.25693 0.0
H191 H 0.13374 0.12538 0.48447 0.0
H192 H 0.15611 0.08389 0.34216 0.0
H193 H 0.2094 0.20325 0.40457 0.0
C194 C 0.22755 0.22272 0.34358 0.0
C195 C 0.2265 0.21397 0.30144 0.0
C196 C 0.15124 0.09331 0.37326 0.0
C197 C 0.18936 0.15953 0.35861 0.0
C198 C 0.12943 0.06705 0.39981 0.0
C199 C 0.12243 0.0779 0.44048 0.0
C200 C 0.16662 0.131 0.38716 0.0
C201 C 0.13787 0.11605 0.45328 0.0
C202 C 0.20911 0.19557 0.37232 0.0
C203 C 0.2076 0.17722 0.28922 0.0
N204 N 0.1594 0.14127 0.42671 0.0
N205 N 0.1897 0.15145 0.3176 0.0
H206 H 0.40547 0.84994 0.78168 0.0
H207 H 0.36319 0.99342 0.96315 0.0
H208 H 0.28679 0.84556 0.83283 0.0
H209 H 0.47601 0.93548 0.95615 0.0
H210 H 0.33344 0.94756 0.91088 0.0
H211 H 0.43118 0.89145 0.83892 0.0
C212 C 0.38482 0.85786 0.80504 0.0
C213 C 0.34416 0.84357 0.80308 0.0
C214 C 0.3645 0.94453 0.92127 0.0
C215 C 0.37317 0.89196 0.86817 0.0
C216 C 0.38148 0.97055 0.95108 0.0
C217 C 0.42208 0.96805 0.96415 0.0
C218 C 0.38866 0.91668 0.90339 0.0
C219 C 0.44452 0.93812 0.94733 0.0
C220 C 0.39952 0.88143 0.83768 0.0
C221 C 0.31833 0.85591 0.83332 0.0
N222 N 0.42772 0.91408 0.91727 0.0
N223 N 0.33326 0.87952 0.86472 0.0
H224 H 0.65972 0.43644 0.76758 0.0
H225 H 0.53388 0.41168 0.55902 0.0
H226 H 0.65728 0.32589 0.70032 0.0
H227 H 0.5819 0.52855 0.59871 0.0
H228 H 0.57539 0.37891 0.61204 0.0
H229 H 0.62754 0.47034 0.70817 0.0
C230 C 0.65293 0.41954 0.73994 0.0
C231 C 0.66153 0.37852 0.73847 0.0
C232 C 0.57731 0.4117 0.60875 0.0
C233 C 0.6236 0.41662 0.67098 0.0
C234 C 0.55387 0.43048 0.57819 0.0
C235 C 0.55498 0.47295 0.57378 0.0
C236 C 0.60128 0.43558 0.63592 0.0
C237 C 0.5802 0.49575 0.60086 0.0
C238 C 0.63442 0.4388 0.70617 0.0
C239 C 0.65094 0.35752 0.70252 0.0
N240 N 0.60211 0.47677 0.63107 0.0
N241 N 0.63218 0.37674 0.67019 0.0
H242 H 0.79183 0.75302 0.21703 0.0
H243 H 0.97235 0.60943 0.1806 0.0
H244 H 0.87351 0.71114 0.31242 0.0
H245 H 0.8895 0.64533 0.08327 0.0
H246 H 0.94443 0.65783 0.22588 0.0
H247 H 0.83408 0.72503 0.16481 0.0
C248 C 0.81951 0.73913 0.22673 0.0
C249 C 0.82976 0.73507 0.26891 0.0
C250 C 0.9327 0.65587 0.19444 0.0
C251 C 0.87764 0.70204 0.20982 0.0
C252 C 0.94883 0.62838 0.16851 0.0
C253 C 0.93333 0.62365 0.12816 0.0
C254 C 0.90006 0.67836 0.18031 0.0
C255 C 0.9026 0.64854 0.11403 0.0
C256 C 0.84341 0.7229 0.19706 0.0
C257 C 0.86523 0.71597 0.28024 0.0
N258 N 0.88649 0.67446 0.14032 0.0
N259 N 0.88764 0.69984 0.25095 0.0
H260 H 0.24687 0.17716 0.20035 0.0
H261 H 0.47482 0.13712 0.16143 0.0
H262 H 0.34321 0.24243 0.26556 0.0
H263 H 0.37516 0.0538 0.12953 0.0
H264 H 0.42998 0.17223 0.20624 0.0
H265 H 0.2945 0.12827 0.17947 0.0
C266 C 0.27793 0.18017 0.21149 0.0
C267 C 0.291 0.2128 0.23582 0.0
C268 C 0.41827 0.14549 0.19043 0.0
C269 C 0.34662 0.15851 0.21006 0.0
C270 C 0.44401 0.12519 0.1653 0.0
C271 C 0.42861 0.09245 0.14202 0.0
C272 C 0.37693 0.1331 0.19162 0.0
C273 C 0.38819 0.07884 0.14717 0.0
C274 C 0.30534 0.15261 0.19922 0.0
C275 C 0.33206 0.21694 0.24753 0.0
N276 N 0.36368 0.09953 0.17079 0.0
N277 N 0.35862 0.19041 0.2341 0.0
H278 H 0.21958 0.80831 0.75972 0.0
H279 H 0.18716 0.98752 0.59729 0.0
H280 H 0.31506 0.89233 0.7193 0.0
H281 H 0.08742 0.91806 0.65187 0.0
H282 H 0.23283 0.95964 0.64975 0.0
H283 H 0.16954 0.8539 0.73016 0.0
C284 C 0.2298 0.83728 0.74601 0.0
C285 C 0.27129 0.84692 0.7421 0.0
C286 C 0.20092 0.95089 0.65095 0.0
C287 C 0.21459 0.8985 0.70677 0.0
C288 C 0.17479 0.96685 0.62095 0.0
C289 C 0.13352 0.95492 0.6202 0.0
C290 C 0.18599 0.9218 0.68004 0.0
C291 C 0.11903 0.92815 0.65154 0.0
C292 C 0.20135 0.8631 0.72876 0.0
C293 C 0.28331 0.8842 0.72329 0.0
N294 N 0.14539 0.91182 0.67978 0.0
N295 N 0.25513 0.9083 0.70565 0.0
H296 H 0.77135 0.30657 0.87261 0.0
H297 H 0.88646 0.50346 0.95043 0.0
H298 H 0.71423 0.42043 0.87302 0.0
H299 H 0.88943 0.39754 0.03171 0.0
H300 H 0.83383 0.46845 0.90817 0.0
H301 H 0.82371 0.334 0.92187 0.0
C302 C 0.76944 0.33691 0.88387 0.0
C303 C 0.73909 0.36167 0.86863 0.0
C304 C 0.84632 0.45285 0.93512 0.0
C305 C 0.7987 0.39328 0.92273 0.0
C306 C 0.87655 0.47259 0.95894 0.0
C307 C 0.89221 0.4533 0.99451 0.0
C308 C 0.83227 0.4133 0.9465 0.0
C309 C 0.87784 0.41343 0.00454 0.0
C310 C 0.79926 0.35257 0.91149 0.0
C311 C 0.73773 0.40085 0.88369 0.0
N312 N 0.84868 0.39451 0.98046 0.0
N313 N 0.76763 0.41582 0.90918 0.0
H314 H 0.7435 0.70514 0.41752 0.0
H315 H 0.52224 0.6009 0.39202 0.0
H316 H 0.67128 0.71709 0.30575 0.0
H317 H 0.58329 0.61544 0.51025 0.0
H318 H 0.57611 0.64277 0.35952 0.0
H319 H 0.68545 0.67124 0.45181 0.0
C320 C 0.71513 0.70099 0.40044 0.0
C321 C 0.71182 0.71425 0.359 0.0
C322 C 0.57755 0.63721 0.39264 0.0
C323 C 0.64554 0.67471 0.39756 0.0
C324 C 0.54668 0.61331 0.41124 0.0
C325 C 0.5481 0.60461 0.45392 0.0
C326 C 0.61053 0.65214 0.41682 0.0
C327 C 0.58079 0.62143 0.47728 0.0
C328 C 0.68207 0.68155 0.4199 0.0
C329 C 0.67483 0.70724 0.33776 0.0
N330 N 0.6109 0.64405 0.45837 0.0
N331 N 0.6431 0.68777 0.35722 0.0
H332 H 0.21212 0.37071 0.26268 0.0
H333 H 0.09196 0.45034 0.06038 0.0
H334 H 0.2041 0.30598 0.14924 0.0
H335 H 0.06484 0.4816 0.1843 0.0
H336 H 0.14688 0.40947 0.08839 0.0
H337 H 0.17176 0.42368 0.23001 0.0
C338 C 0.20235 0.36812 0.23066 0.0
C339 C 0.21119 0.334 0.20863 0.0
C340 C 0.12928 0.42582 0.10933 0.0
C341 C 0.16535 0.39428 0.17096 0.0
C342 C 0.09826 0.44934 0.09337 0.0
C343 C 0.07418 0.46949 0.12015 0.0
C344 C 0.13626 0.4227 0.1523 0.0
C345 C 0.08289 0.46658 0.1627 0.0
C346 C 0.17935 0.39819 0.21206 0.0
C347 C 0.19818 0.33202 0.1671 0.0
N348 N 0.11316 0.44359 0.17747 0.0
N349 N 0.17565 0.36162 0.14964 0.0
H350 H 0.65662 0.33317 0.90631 0.0
H351 H 0.59578 0.09671 0.94531 0.0
H352 H 0.69144 0.23956 0.82746 0.0
H353 H 0.53978 0.19314 0.00455 0.0
H354 H 0.64242 0.14711 0.91173 0.0
H355 H 0.62575 0.28084 0.95312 0.0
C356 C 0.65876 0.30143 0.89972 0.0
C357 C 0.67657 0.29031 0.86342 0.0
C358 C 0.6203 0.15721 0.93254 0.0
C359 C 0.64081 0.23052 0.91574 0.0
C360 C 0.5941 0.12838 0.95203 0.0
C361 C 0.56441 0.14076 0.97805 0.0
C362 C 0.61669 0.19873 0.93925 0.0
C363 C 0.56224 0.18238 0.98453 0.0
C364 C 0.64083 0.27163 0.92601 0.0
C365 C 0.67806 0.24897 0.85545 0.0
N366 N 0.58795 0.20986 0.96524 0.0
N367 N 0.66008 0.22051 0.88118 0.0
H368 H 0.8669 0.74455 0.37546 0.0
H369 H 0.94157 0.96998 0.43504 0.0
H370 H 0.81917 0.84963 0.31442 0.0
H371 H 0.003 0.86286 0.47373 0.0
H372 H 0.89502 0.92758 0.39191 0.0
H373 H 0.91791 0.78814 0.41075 0.0
C374 C 0.86853 0.7768 0.36815 0.0
C375 C 0.8401 0.79352 0.34088 0.0
C376 C 0.91872 0.91347 0.40992 0.0
C377 C 0.89638 0.84422 0.38325 0.0
C378 C 0.94488 0.93758 0.43496 0.0
C379 C 0.97597 0.91992 0.45834 0.0
C380 C 0.92366 0.87148 0.40852 0.0
C381 C 0.97952 0.87786 0.45626 0.0
C382 C 0.89703 0.80186 0.38889 0.0
C383 C 0.84158 0.83576 0.33436 0.0
N384 N 0.95374 0.8552 0.43196 0.0
N385 N 0.869 0.85983 0.35575 0.0
H386 H 0.29228 0.69307 0.70427 0.0
H387 H 0.48862 0.60712 0.60787 0.0
H388 H 0.40932 0.75652 0.70514 0.0
H389 H 0.36828 0.5685 0.56618 0.0
H390 H 0.45998 0.65459 0.65334 0.0
H391 H 0.31936 0.6403 0.66237 0.0
C392 C 0.32368 0.69571 0.69577 0.0
C393 C 0.34872 0.729 0.70834 0.0
C394 C 0.43977 0.6356 0.63442 0.0
C395 C 0.37996 0.66882 0.66124 0.0
C396 C 0.45613 0.60833 0.60839 0.0
C397 C 0.4309 0.58366 0.58296 0.0
C398 C 0.39772 0.63822 0.63548 0.0
C399 C 0.3889 0.58662 0.58544 0.0
C400 C 0.33909 0.6657 0.67198 0.0
C401 C 0.38925 0.73097 0.69682 0.0
N402 N 0.37358 0.61345 0.61121 0.0
N403 N 0.4036 0.70132 0.67408 0.0
H404 H 0.90423 0.87867 0.8286 0.0
H405 H 0.05124 0.03403 0.71074 0.0
H406 H 0.97471 0.97487 0.88716 0.0
H407 H 0.9967 0.92763 0.65393 0.0
H408 H 0.03545 0.0041 0.77868 0.0
H409 H 0.9481 0.88628 0.76852 0.0
C410 C 0.93005 0.90024 0.82934 0.0
C411 C 0.93606 0.92629 0.86249 0.0
C412 C 0.02782 0.98661 0.75158 0.0
C413 C 0.98546 0.93624 0.79385 0.0
C414 C 0.03719 0.00364 0.7128 0.0
C415 C 0.02542 0.98312 0.6769 0.0
C416 C 0.0052 0.94935 0.75443 0.0
C417 C 0.0066 0.94417 0.68105 0.0
C418 C 0.95485 0.90492 0.79499 0.0
C419 C 0.96931 0.95433 0.86197 0.0
N420 N 0.99618 0.92889 0.71911 0.0
N421 N 0.99229 0.95911 0.8279 0.0
H422 H 0.61247 0.05131 0.40826 0.0
H423 H 0.55075 0.10359 0.1736 0.0
H424 H 0.66986 0.14888 0.33675 0.0
H425 H 0.53405 0.9824 0.22594 0.0
H426 H 0.58335 0.12529 0.23884 0.0
H427 H 0.57694 0.02703 0.34526 0.0
C428 C 0.61885 0.06642 0.37882 0.0
C429 C 0.64469 0.10141 0.37716 0.0
C430 C 0.57183 0.09411 0.23624 0.0
C431 C 0.60243 0.07594 0.30596 0.0
C432 C 0.55241 0.08199 0.1994 0.0
C433 C 0.5396 0.04123 0.19457 0.0
C434 C 0.57793 0.06531 0.26844 0.0
C435 C 0.5434 0.01418 0.22863 0.0
C436 C 0.59803 0.05322 0.34315 0.0
C437 C 0.6509 0.12116 0.33877 0.0
N438 N 0.5625 0.02659 0.26405 0.0
N439 N 0.62936 0.10863 0.30475 0.0
H440 H 0.40228 0.66588 0.17679 0.0
H441 H 0.49231 0.49918 0.31795 0.0
H442 H 0.49356 0.58999 0.1361 0.0
H443 H 0.43883 0.60151 0.36953 0.0
H444 H 0.50046 0.53759 0.25269 0.0
H445 H 0.42376 0.65215 0.24862 0.0
C446 C 0.42834 0.64806 0.18307 0.0
C447 C 0.44598 0.62855 0.15091 0.0
C448 C 0.48769 0.55213 0.27842 0.0
C449 C 0.4695 0.61112 0.2325 0.0
C450 C 0.48284 0.53007 0.31552 0.0
C451 C 0.46475 0.5473 0.34875 0.0
C452 C 0.4731 0.59125 0.27411 0.0
C453 C 0.45288 0.58733 0.34434 0.0
C454 C 0.44025 0.63969 0.22404 0.0
C455 C 0.47918 0.60525 0.16035 0.0
N456 N 0.45654 0.60777 0.30734 0.0
N457 N 0.48911 0.59607 0.2004 0.0
H458 H 0.01777 0.47016 0.69332 0.0
H459 H 0.9793 0.44874 0.93511 0.0
H460 H 0.06136 0.37399 0.77213 0.0
H461 H 0.9515 0.55312 0.8585 0.0
H462 H 0.99117 0.41144 0.87274 0.0
H463 H 0.97766 0.49227 0.75028 0.0
C464 C 0.01841 0.45361 0.72271 0.0
C465 C 0.04301 0.42077 0.72866 0.0
C466 C 0.98132 0.44212 0.86953 0.0
C467 C 0.99756 0.44542 0.79378 0.0
C468 C 0.97392 0.46321 0.90513 0.0
C469 C 0.96511 0.50427 0.90186 0.0
C470 C 0.97966 0.46234 0.83067 0.0
C471 C 0.95879 0.52163 0.86229 0.0
C472 C 0.99555 0.466 0.75512 0.0
C473 C 0.04286 0.39974 0.76688 0.0
N474 N 0.96699 0.50089 0.82827 0.0
N475 N 0.02083 0.41269 0.79825 0.0
H476 H 0.78102 0.9629 0.87418 0.0
H477 H 0.68237 0.07242 0.05775 0.0
H478 H 0.84733 0.00901 0.9801 0.0
H479 H 0.61437 0.02306 0.95409 0.0
H480 H 0.74486 0.06565 0.02082 0.0
H481 H 0.72196 0.99892 0.89423 0.0
C482 C 0.7831 0.9814 0.90124 0.0
C483 C 0.81844 0.98312 0.92584 0.0
C484 C 0.71626 0.05742 0.0055 0.0
C485 C 0.75163 0.02381 0.94935 0.0
C486 C 0.68061 0.06176 0.02642 0.0
C487 C 0.64334 0.0487 0.00864 0.0
C488 C 0.71459 0.03885 0.96701 0.0
C489 C 0.64256 0.03412 0.96847 0.0
C490 C 0.74961 0.00187 0.91274 0.0
C491 C 0.82025 0.00713 0.96067 0.0
N492 N 0.67775 0.02885 0.94926 0.0
N493 N 0.78709 0.02619 0.97174 0.0
H494 H 0.76201 0.15673 0.40402 0.0
H495 H 0.86961 0.98969 0.53525 0.0
H496 H 0.69491 0.05354 0.45671 0.0
H497 H 0.93266 0.06294 0.44282 0.0
H498 H 0.8051 0.00781 0.50288 0.0
H499 H 0.82451 0.12039 0.41356 0.0
C500 C 0.76051 0.12594 0.41665 0.0
C501 C 0.72353 0.10789 0.4295 0.0
C502 C 0.83297 0.01893 0.48877 0.0
C503 C 0.79473 0.06649 0.44174 0.0
C504 C 0.8698 0.00818 0.50702 0.0
C505 C 0.90646 0.02424 0.49122 0.0
C506 C 0.83279 0.04717 0.45536 0.0
C507 C 0.90504 0.04926 0.45543 0.0
C508 C 0.79606 0.1052 0.42219 0.0
C509 C 0.72294 0.06818 0.44618 0.0
N510 N 0.86885 0.06072 0.43926 0.0
N511 N 0.75809 0.04907 0.45259 0.0
H512 H 0.31482 0.58082 0.13634 0.0
H513 H 0.1462 0.51843 0.96941 0.0
H514 H 0.33969 0.55458 0.01064 0.0
H515 H 0.12164 0.54588 0.09518 0.0
H516 H 0.21783 0.51542 0.98818 0.0
H517 H 0.24565 0.55237 0.12641 0.0
C518 C 0.30565 0.56817 0.10688 0.0
C519 C 0.33231 0.57016 0.07404 0.0
C520 C 0.19674 0.52126 0.01193 0.0
C521 C 0.25347 0.53863 0.06197 0.0
C522 C 0.15592 0.52297 1.00122 0.0
C523 C 0.12829 0.53278 0.03078 0.0
C524 C 0.21002 0.53025 0.0523 0.0
C525 C 0.14211 0.53816 0.07156 0.0
C526 C 0.26629 0.55209 0.10112 0.0
C527 C 0.3195 0.55379 0.03636 0.0
N528 N 0.18222 0.5375 0.08101 0.0
N529 N 0.28064 0.53921 0.03107 0.0
H530 H 0.12413 0.4207 0.57005 0.0
H531 H 0.35947 0.49278 0.57847 0.0
H532 H 0.19512 0.42782 0.68312 0.0
H533 H 0.29096 0.46975 0.46569 0.0
H534 H 0.29795 0.47735 0.61768 0.0
H535 H 0.18382 0.44455 0.53136 0.0
C536 C 0.1525 0.42705 0.58658 0.0
C537 C 0.15494 0.42228 0.62964 0.0
C538 C 0.29631 0.47616 0.58431 0.0
C539 C 0.22316 0.45028 0.58601 0.0
C540 C 0.33131 0.48549 0.5619 0.0
C541 C 0.33028 0.48272 0.51875 0.0
C542 C 0.26012 0.464 0.56336 0.0
C543 C 0.29314 0.47217 0.49894 0.0
C544 C 0.18645 0.44097 0.56465 0.0
C545 C 0.1921 0.43155 0.6499 0.0
N546 N 0.25968 0.46302 0.52137 0.0
N547 N 0.2248 0.44513 0.62793 0.0
H548 H 0.85031 0.83089 0.91985 0.0
H549 H 0.03746 0.71661 0.01796 0.0
H550 H 0.96539 0.89218 0.9471 0.0
H551 H 0.9163 0.66247 0.01174 0.0
H552 H 0.0117 0.78183 0.99531 0.0
H553 H 0.8745 0.76853 0.95261 0.0
C554 C 0.88092 0.83087 0.93241 0.0
C555 C 0.90598 0.86646 0.93096 0.0
C556 C 0.99054 0.75599 0.99977 0.0
C557 C 0.93387 0.7956 0.96885 0.0
C558 C 0.00517 0.71888 0.01323 0.0
C559 C 0.97888 0.68424 0.01708 0.0
C560 C 0.94936 0.75833 0.98927 0.0
C561 C 0.93745 0.6886 0.00988 0.0
C562 C 0.89461 0.7955 0.95141 0.0
C563 C 0.94543 0.86512 0.94734 0.0
N564 N 0.92402 0.72483 0.9956 0.0
N565 N 0.95819 0.83026 0.96575 0.0
H566 H 0.48515 0.67534 0.07061 0.0
H567 H 0.4323 0.90971 0.05407 0.0
H568 H 0.36725 0.71632 0.09391 0.0
H569 H 0.54943 0.86593 0.03078 0.0
H570 H 0.40551 0.83908 0.0624 0.0
H571 H 0.50859 0.74556 0.05376 0.0
C572 C 0.4645 0.69943 0.07265 0.0
C573 C 0.42438 0.69044 0.08326 0.0
C574 C 0.43694 0.845 0.05485 0.0
C575 C 0.45021 0.77045 0.06341 0.0
C576 C 0.45203 0.88526 0.04952 0.0
C577 C 0.49318 0.89355 0.04218 0.0
C578 C 0.46329 0.81316 0.05274 0.0
C579 C 0.51758 0.8608 0.03691 0.0
C580 C 0.47756 0.73935 0.0626 0.0
C581 C 0.39836 0.72235 0.08533 0.0
N582 N 0.50242 0.82215 0.04279 0.0
N583 N 0.41165 0.76101 0.0753 0.0
H584 H 0.04951 0.36148 0.57716 0.0
H585 H 0.12654 0.1392 0.5736 0.0
H586 H 0.15264 0.32286 0.64816 0.0
H587 H 0.02296 0.18013 0.50451 0.0
H588 H 0.14825 0.21011 0.58633 0.0
H589 H 0.05047 0.30041 0.53627 0.0
C590 C 0.07291 0.34032 0.58332 0.0
C591 C 0.10081 0.3466 0.61594 0.0
C592 C 0.1215 0.20371 0.56718 0.0
C593 C 0.10175 0.27625 0.57045 0.0
C594 C 0.10946 0.16327 0.55949 0.0
C595 C 0.07308 0.15409 0.53786 0.0
C596 C 0.09658 0.23485 0.55353 0.0
C597 C 0.05135 0.18615 0.52112 0.0
C598 C 0.07351 0.30547 0.56019 0.0
C599 C 0.13067 0.31868 0.62311 0.0
N600 N 0.06305 0.22506 0.52988 0.0
N601 N 0.12993 0.2842 0.60106 0.0
H602 H 0.67479 0.25356 0.44713 0.0
H603 H 0.4588 0.33053 0.48257 0.0
H604 H 0.57981 0.17707 0.50118 0.0
H605 H 0.56351 0.41389 0.47961 0.0
H606 H 0.50332 0.2739 0.48992 0.0
H607 H 0.63688 0.3134 0.46096 0.0
C608 C 0.64653 0.24961 0.46311 0.0
C609 C 0.63008 0.21058 0.47285 0.0
C610 C 0.51663 0.30459 0.48829 0.0
C611 C 0.58606 0.27819 0.48741 0.0
C612 C 0.49123 0.33683 0.4839 0.0
C613 C 0.5076 0.37677 0.48065 0.0
C614 C 0.55876 0.31227 0.4883 0.0
C615 C 0.5498 0.38342 0.48232 0.0
C616 C 0.62475 0.2836 0.47069 0.0
C617 C 0.59311 0.20678 0.49291 0.0
N618 N 0.57402 0.35143 0.48548 0.0
N619 N 0.57193 0.24006 0.4988 0.0
loop_
_geom_bond_atom_site_label_1
_geom_bond_atom_site_label_2
_geom_bond_distance
_geom_bond_site_symmetry_2
_ccdc_geom_bond_type
C0 N1 1.317 . S
C0 N2 1.348 . S
C0 C3 1.485 . S
N1 C0 1.317 . S
N1 N5 1.370 . S
N2 C0 1.348 . S
N2 C4 1.346 . S
C3 C0 1.485 . S
C3 H7 0.960 . S
C3 H8 0.961 . S
C3 H9 0.960 . S
C4 N2 1.346 . S
C4 N5 1.307 . S
C4 C6 1.486 . S
N5 N1 1.370 . S
N5 C4 1.307 . S
C6 C4 1.486 . S
C6 H10 0.960 . S
C6 H11 0.960 . S
C6 H12 0.959 . S
H7 C3 0.960 . S
H8 C3 0.961 . S
H9 C3 0.960 . S
H10 C6 0.960 . S
H11 C6 0.960 . S
H12 C6 0.959 . S
C13 N14 1.317 . S
C13 N15 1.348 . S
C13 C16 1.485 . S
N14 C13 1.317 . S
N14 N18 1.370 . S
N15 C13 1.348 . S
N15 C17 1.346 . S
C16 C13 1.485 . S
C16 H20 0.960 . S
C16 H21 0.961 . S
C16 H22 0.960 . S
C17 N15 1.346 . S
C17 N18 1.307 . S
C17 C19 1.486 . S
N18 N14 1.370 . S
N18 C17 1.307 . S
C19 C17 1.486 . S
C19 H23 0.960 . S
C19 H24 0.960 . S
C19 H25 0.959 . S
H20 C16 0.960 . S
H21 C16 0.961 . S
H22 C16 0.960 . S
H23 C19 0.960 . S
H24 C19 0.960 . S
H25 C19 0.959 . S
C26 N27 1.317 . S
C26 N28 1.348 . S
C26 C29 1.485 . S
N27 C26 1.317 . S
N27 N31 1.370 . S
N28 C26 1.348 . S
N28 C30 1.346 . S
C29 C26 1.485 . S
C29 H33 0.960 . S
C29 H34 0.961 . S
C29 H35 0.960 . S
C30 N28 1.346 . S
C30 N31 1.307 . S
C30 C32 1.486 . S
N31 N27 1.370 . S
N31 C30 1.307 . S
C32 C30 1.486 . S
C32 H36 0.960 . S
C32 H37 0.960 . S
C32 H38 0.959 . S
H33 C29 0.960 . S
H34 C29 0.961 . S
H35 C29 0.960 . S
H36 C32 0.960 . S
H37 C32 0.960 . S
H38 C32 0.959 . S
C39 N40 1.317 . S
C39 N41 1.348 . S
C39 C42 1.485 . S
N40 C39 1.317 . S
N40 N44 1.370 . S
N41 C39 1.348 . S
N41 C43 1.346 . S
C42 C39 1.485 . S
C42 H46 0.960 . S
C42 H47 0.961 . S
C42 H48 0.960 . S
C43 N41 1.346 . S
C43 N44 1.307 . S
C43 C45 1.486 . S
N44 N40 1.370 . S
N44 C43 1.307 . S
C45 C43 1.486 . S
C45 H49 0.960 . S
C45 H50 0.960 . S
C45 H51 0.959 . S
H46 C42 0.960 . S
H47 C42 0.961 . S
H48 C42 0.960 . S
H49 C45 0.960 . S
H50 C45 0.960 . S
H51 C45 0.959 . S
C52 N53 1.317 . S
C52 N54 1.348 . S
C52 C55 1.485 1_556 S
N53 C52 1.317 . S
N53 N57 1.370 . S
N54 C52 1.348 . S
N54 C56 1.346 . S
C55 C52 1.485 1_554 S
C55 H59 0.960 . S
C55 H60 0.961 . S
C55 H61 0.960 . S
C56 N54 1.346 . S
C56 N57 1.307 . S
C56 C58 1.486 1_565 S
N57 N53 1.370 . S
N57 C56 1.307 . S
C58 C56 1.486 1_545 S
C58 H62 0.960 . S
C58 H63 0.960 . S
C58 H64 0.959 . S
H59 C55 0.960 . S
H60 C55 0.961 . S
H61 C55 0.960 . S
H62 C58 0.960 . S
H63 C58 0.960 . S
H64 C58 0.959 . S
C65 N66 1.317 . S
C65 N67 1.348 . S
C65 C68 1.485 . S
N66 C65 1.317 . S
N66 N70 1.370 . S
N67 C65 1.348 . S
N67 C69 1.346 . S
C68 C65 1.485 . S
C68 H72 0.960 . S
C68 H73 0.961 . S
C68 H74 0.960 . S
C69 N67 1.346 . S
C69 N70 1.307 . S
C69 C71 1.486 . S
N70 N66 1.370 . S
N70 C69 1.307 . S
C71 C69 1.486 . S
C71 H75 0.960 . S
C71 H76 0.960 . S
C71 H77 0.959 . S
H72 C68 0.960 . S
H73 C68 0.961 . S
H74 C68 0.960 . S
H75 C71 0.960 . S
H76 C71 0.960 . S
H77 C71 0.959 . S
C78 N79 1.317 . S
C78 N80 1.348 . S
C78 C81 1.485 . S
N79 C78 1.317 . S
N79 N83 1.370 . S
N80 C78 1.348 . S
N80 C82 1.346 . S
C81 C78 1.485 . S
C81 H85 0.960 . S
C81 H86 0.961 . S
C81 H87 0.960 . S
C82 N80 1.346 . S
C82 N83 1.307 . S
C82 C84 1.486 . S
N83 N79 1.370 . S
N83 C82 1.307 . S
C84 C82 1.486 . S
C84 H88 0.960 . S
C84 H89 0.960 . S
C84 H90 0.959 . S
H85 C81 0.960 . S
H86 C81 0.961 . S
H87 C81 0.960 . S
H88 C84 0.960 . S
H89 C84 0.960 . S
H90 C84 0.959 . S
C91 N92 1.317 . S
C91 N93 1.348 . S
C91 C94 1.485 . S
N92 C91 1.317 . S
N92 N96 1.370 . S
N93 C91 1.348 . S
N93 C95 1.346 . S
C94 C91 1.485 . S
C94 H98 0.960 1_455 S
C94 H99 0.961 . S
C94 H100 0.960 . S
C95 N93 1.346 . S
C95 N96 1.307 . S
C95 C97 1.486 . S
N96 N92 1.370 . S
N96 C95 1.307 . S
C97 C95 1.486 . S
C97 H101 0.960 . S
C97 H102 0.960 . S
C97 H103 0.959 . S
H98 C94 0.960 1_655 S
H99 C94 0.961 . S
H100 C94 0.960 . S
H101 C97 0.960 . S
H102 C97 0.960 . S
H103 C97 0.959 . S
Zn104 O110 1.920 . S
Zn104 O116 1.898 1_655 S
Zn104 O119 1.905 . S
Zn105 O113 1.905 1_565 S
Zn105 O114 1.898 . S
Zn105 O122 1.920 . S
Zn106 O109 2.080 . S
Zn106 O112 2.114 . S
Zn106 O115 2.120 1_545 S
Zn106 O117 2.120 . S
Zn106 O118 2.114 1_455 S
Zn106 O121 2.080 . S
C107 O112 1.166 . S
C107 O113 1.182 . S
C108 O114 1.167 . S
C108 O115 1.299 . S
O109 Zn106 2.080 . S
O109 C123 1.305 . S
O110 Zn104 1.920 . S
O110 C123 1.234 1_655 S
C111 O116 1.167 . S
C111 O117 1.299 . S
O112 Zn106 2.114 . S
O112 C107 1.166 . S
O113 Zn105 1.905 1_545 S
O113 C107 1.182 . S
O114 Zn105 1.898 . S
O114 C108 1.167 . S
O115 Zn106 2.120 1_565 S
O115 C108 1.299 . S
O116 Zn104 1.898 1_455 S
O116 C111 1.167 . S
O117 Zn106 2.120 . S
O117 C111 1.299 . S
O118 Zn106 2.114 1_655 S
O118 C120 1.166 . S
O119 Zn104 1.905 . S
O119 C120 1.182 . S
C120 O118 1.166 . S
C120 O119 1.182 . S
O121 Zn106 2.080 . S
O121 C124 1.305 1_545 S
O122 Zn105 1.920 . S
O122 C124 1.234 . S
C123 O109 1.305 . S
C123 O110 1.234 1_455 S
C124 O121 1.305 1_565 S
C124 O122 1.234 . S
Zn125 O131 1.920 . S
Zn125 O137 1.898 1_554 S
Zn125 O140 1.905 1_554 S
Zn126 O134 1.905 . S
Zn126 O135 1.898 . S
Zn126 O143 1.920 . S
Zn127 O130 2.080 . S
Zn127 O133 2.114 1_545 S
Zn127 O136 2.120 1_545 S
Zn127 O138 2.120 . S
Zn127 O139 2.114 . S
Zn127 O142 2.080 . S
C128 O133 1.166 . S
C128 O134 1.182 . S
C129 O135 1.167 . S
C129 O136 1.299 . S
O130 Zn127 2.080 . S
O130 C144 1.305 . S
O131 Zn125 1.920 . S
O131 C144 1.234 . S
C132 O137 1.167 1_554 S
C132 O138 1.299 . S
O133 Zn127 2.114 1_565 S
O133 C128 1.166 . S
O134 Zn126 1.905 . S
O134 C128 1.182 . S
O135 Zn126 1.898 . S
O135 C129 1.167 . S
O136 Zn127 2.120 1_565 S
O136 C129 1.299 . S
O137 Zn125 1.898 1_556 S
O137 C132 1.167 1_556 S
O138 Zn127 2.120 . S
O138 C132 1.299 . S
O139 Zn127 2.114 . S
O139 C141 1.166 1_554 S
O140 Zn125 1.905 1_556 S
O140 C141 1.201 . S
C141 O139 1.166 1_556 S
C141 O140 1.201 . S
O142 Zn127 2.080 . S
O142 C145 1.305 . S
O143 Zn126 1.920 . S
O143 C145 1.234 1_565 S
C144 O130 1.305 . S
C144 O131 1.234 . S
C145 O142 1.305 . S
C145 O143 1.234 1_545 S
Zn146 O152 1.920 . S
Zn146 O158 1.898 . S
Zn146 O161 1.905 . S
Zn147 O155 1.905 . S
Zn147 O156 1.898 . S
Zn147 O164 1.920 . S
Zn148 O151 2.080 . S
Zn148 O154 2.114 . S
Zn148 O157 2.120 . S
Zn148 O159 2.120 . S
Zn148 O160 2.114 . S
Zn148 O163 2.080 . S
C149 O154 1.166 . S
C149 O155 1.182 . S
C150 O156 1.167 . S
C150 O157 1.299 . S
O151 Zn148 2.080 . S
O151 C165 1.305 . S
O152 Zn146 1.920 . S
O152 C165 1.234 . S
C153 O158 1.167 . S
C153 O159 1.299 . S
O154 Zn148 2.114 . S
O154 C149 1.166 . S
O155 Zn147 1.905 . S
O155 C149 1.182 . S
O156 Zn147 1.898 . S
O156 C150 1.167 . S
O157 Zn148 2.120 . S
O157 C150 1.299 . S
O158 Zn146 1.898 . S
O158 C153 1.167 . S
O159 Zn148 2.120 . S
O159 C153 1.299 . S
O160 Zn148 2.114 . S
O160 C162 1.166 . S
O161 Zn146 1.905 . S
O161 C162 1.182 . S
C162 O160 1.166 . S
C162 O161 1.182 . S
O163 Zn148 2.080 . S
O163 C166 1.305 . S
O164 Zn147 1.920 . S
O164 C166 1.234 . S
C165 O151 1.305 . S
C165 O152 1.234 . S
C166 O163 1.305 . S
C166 O164 1.234 . S
Zn167 O173 1.920 . S
Zn167 O179 1.898 . S
Zn167 O182 1.905 . S
Zn168 O176 1.905 . S
Zn168 O177 1.898 . S
Zn168 O185 1.920 . S
Zn169 O172 2.080 1_454 S
Zn169 O175 2.114 . S
Zn169 O178 2.120 1_454 S
Zn169 O180 2.120 . S
Zn169 O181 2.114 1_554 S
Zn169 O184 2.080 1_455 S
C170 O175 1.166 . S
C170 O176 1.182 1_455 S
C171 O177 1.167 1_556 S
C171 O178 1.299 . S
O172 Zn169 2.080 1_656 S
O172 C186 1.305 1_655 S
O173 Zn167 1.920 . S
O173 C186 1.234 . S
C174 O179 1.167 1_554 S
C174 O180 1.299 . S
O175 Zn169 2.114 . S
O175 C170 1.166 . S
O176 Zn168 1.905 . S
O176 C170 1.182 1_655 S
O177 Zn168 1.898 . S
O177 C171 1.167 1_554 S
O178 Zn169 2.120 1_656 S
O178 C171 1.299 . S
O179 Zn167 1.898 . S
O179 C174 1.167 1_556 S
O180 Zn169 2.120 . S
O180 C174 1.299 . S
O181 Zn169 2.114 1_556 S
O181 C183 1.166 . S
O182 Zn167 1.905 . S
O182 C183 1.182 . S
C183 O181 1.166 . S
C183 O182 1.182 . S
O184 Zn169 2.080 1_655 S
O184 C187 1.305 . S
O185 Zn168 1.920 . S
O185 C187 1.234 . S
C186 O172 1.305 1_455 S
C186 O173 1.234 . S
C187 O184 1.305 . S
C187 O185 1.234 . S
H188 C194 0.930 . S
H189 C198 0.930 . S
H190 C203 0.929 . S
H191 C201 0.929 . S
H192 C196 0.929 . S
H193 C202 0.929 . S
C194 H188 0.930 . S
C194 C195 1.367 . S
C194 C202 1.378 . S
C195 C194 1.367 . S
C195 C203 1.433 . S
C196 H192 0.929 . S
C196 C198 1.378 . S
C196 C200 1.350 . S
C197 C200 1.463 . S
C197 C202 1.350 . S
C197 N205 1.427 . S
C198 H189 0.930 . S
C198 C196 1.378 . S
C198 C199 1.367 . S
C199 C198 1.367 . S
C199 C201 1.433 . S
C200 C196 1.350 . S
C200 C197 1.463 . S
C200 N204 1.427 . S
C201 H191 0.929 . S
C201 C199 1.433 . S
C201 N204 1.384 . S
C202 H193 0.929 . S
C202 C194 1.378 . S
C202 C197 1.350 . S
C203 H190 0.929 . S
C203 C195 1.433 . S
C203 N205 1.384 . S
N204 C200 1.427 . S
N204 C201 1.384 . S
N205 C197 1.427 . S
N205 C203 1.384 . S
H206 C212 0.930 . S
H207 C216 0.930 1_545 S
H208 C221 0.929 . S
H209 C219 0.929 . S
H210 C214 0.929 . S
H211 C220 0.929 . S
C212 H206 0.930 . S
C212 C213 1.367 . S
C212 C220 1.378 . S
C213 C212 1.367 . S
C213 C221 1.433 . S
C214 H210 0.929 . S
C214 C216 1.378 . S
C214 C218 1.350 . S
C215 C218 1.463 . S
C215 C220 1.350 . S
C215 N223 1.427 . S
C216 H207 0.930 1_565 S
C216 C214 1.378 . S
C216 C217 1.367 . S
C217 C216 1.367 . S
C217 C219 1.433 . S
C218 C214 1.350 . S
C218 C215 1.463 . S
C218 N222 1.427 . S
C219 H209 0.929 . S
C219 C217 1.433 . S
C219 N222 1.384 . S
C220 H211 0.929 . S
C220 C212 1.378 . S
C220 C215 1.350 . S
C221 H208 0.929 . S
C221 C213 1.433 . S
C221 N223 1.384 . S
N222 C218 1.427 . S
N222 C219 1.384 . S
N223 C215 1.427 . S
N223 C221 1.384 . S
H224 C230 0.930 . S
H225 C234 0.930 . S
H226 C239 0.929 . S
H227 C237 0.929 . S
H228 C232 0.929 . S
H229 C238 0.929 . S
C230 H224 0.930 . S
C230 C231 1.367 . S
C230 C238 1.378 . S
C231 C230 1.367 . S
C231 C239 1.433 . S
C232 H228 0.929 . S
C232 C234 1.378 . S
C232 C236 1.350 . S
C233 C236 1.463 . S
C233 C238 1.350 . S
C233 N241 1.427 . S
C234 H225 0.930 . S
C234 C232 1.378 . S
C234 C235 1.367 . S
C235 C234 1.367 . S
C235 C237 1.433 . S
C236 C232 1.350 . S
C236 C233 1.463 . S
C236 N240 1.427 . S
C237 H227 0.929 . S
C237 C235 1.433 . S
C237 N240 1.384 . S
C238 H229 0.929 . S
C238 C230 1.378 . S
C238 C233 1.350 . S
C239 H226 0.929 . S
C239 C231 1.433 . S
C239 N241 1.384 . S
N240 C236 1.427 . S
N240 C237 1.384 . S
N241 C233 1.427 . S
N241 C239 1.384 . S
H242 C248 0.930 . S
H243 C252 0.930 . S
H244 C257 0.929 . S
H245 C255 0.929 . S
H246 C250 0.929 . S
H247 C256 0.929 . S
C248 H242 0.930 . S
C248 C249 1.367 . S
C248 C256 1.378 . S
C249 C248 1.367 . S
C249 C257 1.433 . S
C250 H246 0.929 . S
C250 C252 1.378 . S
C250 C254 1.350 . S
C251 C254 1.463 . S
C251 C256 1.350 . S
C251 N259 1.427 . S
C252 H243 0.930 . S
C252 C250 1.378 . S
C252 C253 1.367 . S
C253 C252 1.367 . S
C253 C255 1.433 . S
C254 C250 1.350 . S
C254 C251 1.463 . S
C254 N258 1.427 . S
C255 H245 0.929 . S
C255 C253 1.433 . S
C255 N258 1.384 . S
C256 H247 0.929 . S
C256 C248 1.378 . S
C256 C251 1.350 . S
C257 H244 0.929 . S
C257 C249 1.433 . S
C257 N259 1.384 . S
N258 C254 1.427 . S
N258 C255 1.384 . S
N259 C251 1.427 . S
N259 C257 1.384 . S
H260 C266 0.930 . S
H261 C270 0.930 . S
H262 C275 0.929 . S
H263 C273 0.929 . S
H264 C268 0.929 . S
H265 C274 0.929 . S
C266 H260 0.930 . S
C266 C267 1.367 . S
C266 C274 1.378 . S
C267 C266 1.367 . S
C267 C275 1.433 . S
C268 H264 0.929 . S
C268 C270 1.378 . S
C268 C272 1.350 . S
C269 C272 1.463 . S
C269 C274 1.350 . S
C269 N277 1.427 . S
C270 H261 0.930 . S
C270 C268 1.378 . S
C270 C271 1.367 . S
C271 C270 1.367 . S
C271 C273 1.433 . S
C272 C268 1.350 . S
C272 C269 1.463 . S
C272 N276 1.427 . S
C273 H263 0.929 . S
C273 C271 1.433 . S
C273 N276 1.384 . S
C274 H265 0.929 . S
C274 C266 1.378 . S
C274 C269 1.350 . S
C275 H262 0.929 . S
C275 C267 1.433 . S
C275 N277 1.384 . S
N276 C272 1.427 . S
N276 C273 1.384 . S
N277 C269 1.427 . S
N277 C275 1.384 . S
H278 C284 0.930 . S
H279 C288 0.930 . S
H280 C293 0.929 . S
H281 C291 0.929 . S
H282 C286 0.929 . S
H283 C292 0.929 . S
C284 H278 0.930 . S
C284 C285 1.367 . S
C284 C292 1.378 . S
C285 C284 1.367 . S
C285 C293 1.433 . S
C286 H282 0.929 . S
C286 C288 1.378 . S
C286 C290 1.350 . S
C287 C290 1.463 . S
C287 C292 1.350 . S
C287 N295 1.427 . S
C288 H279 0.930 . S
C288 C286 1.378 . S
C288 C289 1.367 . S
C289 C288 1.367 . S
C289 C291 1.433 . S
C290 C286 1.350 . S
C290 C287 1.463 . S
C290 N294 1.427 . S
C291 H281 0.929 . S
C291 C289 1.433 . S
C291 N294 1.384 . S
C292 H283 0.929 . S
C292 C284 1.378 . S
C292 C287 1.350 . S
C293 H280 0.929 . S
C293 C285 1.433 . S
C293 N295 1.384 . S
N294 C290 1.427 . S
N294 C291 1.384 . S
N295 C287 1.427 . S
N295 C293 1.384 . S
H296 C302 0.930 . S
H297 C306 0.930 . S
H298 C311 0.929 . S
H299 C309 0.929 . S
H300 C304 0.929 . S
H301 C310 0.929 . S
C302 H296 0.930 . S
C302 C303 1.367 . S
C302 C310 1.378 . S
C303 C302 1.367 . S
C303 C311 1.433 . S
C304 H300 0.929 . S
C304 C306 1.378 . S
C304 C308 1.350 . S
C305 C308 1.463 . S
C305 C310 1.350 . S
C305 N313 1.427 . S
C306 H297 0.930 . S
C306 C304 1.378 . S
C306 C307 1.367 . S
C307 C306 1.367 . S
C307 C309 1.433 . S
C308 C304 1.350 . S
C308 C305 1.463 . S
C308 N312 1.427 . S
C309 H299 0.929 . S
C309 C307 1.433 . S
C309 N312 1.384 . S
C310 H301 0.929 . S
C310 C302 1.378 . S
C310 C305 1.350 . S
C311 H298 0.929 . S
C311 C303 1.433 . S
C311 N313 1.384 . S
N312 C308 1.427 . S
N312 C309 1.384 . S
N313 C305 1.427 . S
N313 C311 1.384 . S
H314 C320 0.930 . S
H315 C324 0.930 . S
H316 C329 0.929 . S
H317 C327 0.929 . S
H318 C322 0.929 . S
H319 C328 0.929 . S
C320 H314 0.930 . S
C320 C321 1.367 . S
C320 C328 1.378 . S
C321 C320 1.367 . S
C321 C329 1.433 . S
C322 H318 0.929 . S
C322 C324 1.378 . S
C322 C326 1.350 . S
C323 C326 1.463 . S
C323 C328 1.350 . S
C323 N331 1.427 . S
C324 H315 0.930 . S
C324 C322 1.378 . S
C324 C325 1.367 . S
C325 C324 1.367 . S
C325 C327 1.433 . S
C326 C322 1.350 . S
C326 C323 1.463 . S
C326 N330 1.427 . S
C327 H317 0.929 . S
C327 C325 1.433 . S
C327 N330 1.384 . S
C328 H319 0.929 . S
C328 C320 1.378 . S
C328 C323 1.350 . S
C329 H316 0.929 . S
C329 C321 1.433 . S
C329 N331 1.384 . S
N330 C326 1.427 . S
N330 C327 1.384 . S
N331 C323 1.427 . S
N331 C329 1.384 . S
H332 C338 0.930 . S
H333 C342 0.930 . S
H334 C347 0.929 . S
H335 C345 0.929 . S
H336 C340 0.929 . S
H337 C346 0.929 . S
C338 H332 0.930 . S
C338 C339 1.367 . S
C338 C346 1.378 . S
C339 C338 1.367 . S
C339 C347 1.433 . S
C340 H336 0.929 . S
C340 C342 1.378 . S
C340 C344 1.350 . S
C341 C344 1.463 . S
C341 C346 1.350 . S
C341 N349 1.427 . S
C342 H333 0.930 . S
C342 C340 1.378 . S
C342 C343 1.367 . S
C343 C342 1.367 . S
C343 C345 1.433 . S
C344 C340 1.350 . S
C344 C341 1.463 . S
C344 N348 1.427 . S
C345 H335 0.929 . S
C345 C343 1.433 . S
C345 N348 1.384 . S
C346 H337 0.929 . S
C346 C338 1.378 . S
C346 C341 1.350 . S
C347 H334 0.929 . S
C347 C339 1.433 . S
C347 N349 1.384 . S
N348 C344 1.427 . S
N348 C345 1.384 . S
N349 C341 1.427 . S
N349 C347 1.384 . S
H350 C356 0.930 . S
H351 C360 0.930 . S
H352 C365 0.929 . S
H353 C363 0.929 . S
H354 C358 0.929 . S
H355 C364 0.929 . S
C356 H350 0.930 . S
C356 C357 1.367 . S
C356 C364 1.378 . S
C357 C356 1.367 . S
C357 C365 1.433 . S
C358 H354 0.929 . S
C358 C360 1.378 . S
C358 C362 1.350 . S
C359 C362 1.463 . S
C359 C364 1.350 . S
C359 N367 1.427 . S
C360 H351 0.930 . S
C360 C358 1.378 . S
C360 C361 1.367 . S
C361 C360 1.367 . S
C361 C363 1.433 1_556 S
C362 C358 1.350 . S
C362 C359 1.463 . S
C362 N366 1.427 . S
C363 H353 0.929 . S
C363 C361 1.433 1_554 S
C363 N366 1.384 1_554 S
C364 H355 0.929 . S
C364 C356 1.378 . S
C364 C359 1.350 . S
C365 H352 0.929 . S
C365 C357 1.433 . S
C365 N367 1.384 . S
N366 C362 1.427 . S
N366 C363 1.384 1_556 S
N367 C359 1.427 . S
N367 C365 1.384 . S
H368 C374 0.930 . S
H369 C378 0.930 . S
H370 C383 0.929 . S
H371 C381 0.929 . S
H372 C376 0.929 . S
H373 C382 0.929 . S
C374 H368 0.930 . S
C374 C375 1.367 . S
C374 C382 1.378 . S
C375 C374 1.367 . S
C375 C383 1.433 . S
C376 H372 0.929 . S
C376 C378 1.378 . S
C376 C380 1.350 . S
C377 C380 1.463 . S
C377 C382 1.350 . S
C377 N385 1.427 . S
C378 H369 0.930 . S
C378 C376 1.378 . S
C378 C379 1.367 . S
C379 C378 1.367 . S
C379 C381 1.433 . S
C380 C376 1.350 . S
C380 C377 1.463 . S
C380 N384 1.427 . S
C381 H371 0.929 . S
C381 C379 1.433 . S
C381 N384 1.384 . S
C382 H373 0.929 . S
C382 C374 1.378 . S
C382 C377 1.350 . S
C383 H370 0.929 . S
C383 C375 1.433 . S
C383 N385 1.384 . S
N384 C380 1.427 . S
N384 C381 1.384 . S
N385 C377 1.427 . S
N385 C383 1.384 . S
H386 C392 0.930 . S
H387 C396 0.930 . S
H388 C401 0.929 . S
H389 C399 0.929 . S
H390 C394 0.929 . S
H391 C400 0.929 . S
C392 H386 0.930 . S
C392 C393 1.367 . S
C392 C400 1.378 . S
C393 C392 1.367 . S
C393 C401 1.433 . S
C394 H390 0.929 . S
C394 C396 1.378 . S
C394 C398 1.350 . S
C395 C398 1.463 . S
C395 C400 1.350 . S
C395 N403 1.427 . S
C396 H387 0.930 . S
C396 C394 1.378 . S
C396 C397 1.367 . S
C397 C396 1.367 . S
C397 C399 1.433 . S
C398 C394 1.350 . S
C398 C395 1.463 . S
C398 N402 1.427 . S
C399 H389 0.929 . S
C399 C397 1.433 . S
C399 N402 1.384 . S
C400 H391 0.929 . S
C400 C392 1.378 . S
C400 C395 1.350 . S
C401 H388 0.929 . S
C401 C393 1.433 . S
C401 N403 1.384 . S
N402 C398 1.427 . S
N402 C399 1.384 . S
N403 C395 1.427 . S
N403 C401 1.384 . S
H404 C410 0.930 . S
H405 C414 0.930 . S
H406 C419 0.929 . S
H407 C417 0.929 . S
H408 C412 0.929 . S
H409 C418 0.929 . S
C410 H404 0.930 . S
C410 C411 1.367 . S
C410 C418 1.378 . S
C411 C410 1.367 . S
C411 C419 1.433 1_565 S
C412 H408 0.929 . S
C412 C414 1.378 . S
C412 C416 1.350 1_445 S
C413 C416 1.463 . S
C413 C418 1.350 . S
C413 N421 1.427 1_565 S
C414 H405 0.930 . S
C414 C412 1.378 . S
C414 C415 1.373 . S
C415 C414 1.373 . S
C415 C417 1.426 1_445 S
C416 C412 1.350 1_665 S
C416 C413 1.463 . S
C416 N420 1.427 . S
C417 H407 0.929 . S
C417 C415 1.426 1_665 S
C417 N420 1.384 . S
C418 H409 0.929 . S
C418 C410 1.378 . S
C418 C413 1.350 . S
C419 H406 0.929 . S
C419 C411 1.433 1_545 S
C419 N421 1.384 . S
N420 C416 1.427 . S
N420 C417 1.384 . S
N421 C413 1.427 1_545 S
N421 C419 1.384 . S
H422 C428 0.930 . S
H423 C432 0.930 . S
H424 C437 0.929 . S
H425 C435 0.929 1_565 S
H426 C430 0.929 . S
H427 C436 0.929 . S
C428 H422 0.930 . S
C428 C429 1.367 . S
C428 C436 1.378 . S
C429 C428 1.367 . S
C429 C437 1.433 . S
C430 H426 0.929 . S
C430 C432 1.378 . S
C430 C434 1.350 . S
C431 C434 1.463 . S
C431 C436 1.350 . S
C431 N439 1.427 . S
C432 H423 0.930 . S
C432 C430 1.378 . S
C432 C433 1.367 . S
C433 C432 1.367 . S
C433 C435 1.433 . S
C434 C430 1.350 . S
C434 C431 1.463 . S
C434 N438 1.427 . S
C435 H425 0.929 1_545 S
C435 C433 1.433 . S
C435 N438 1.384 . S
C436 H427 0.929 . S
C436 C428 1.378 . S
C436 C431 1.350 . S
C437 H424 0.929 . S
C437 C429 1.433 . S
C437 N439 1.384 . S
N438 C434 1.427 . S
N438 C435 1.384 . S
N439 C431 1.427 . S
N439 C437 1.384 . S
H440 C446 0.930 . S
H441 C450 0.930 . S
H442 C455 0.929 . S
H443 C453 0.929 . S
H444 C448 0.929 . S
H445 C454 0.929 . S
C446 H440 0.930 . S
C446 C447 1.367 . S
C446 C454 1.378 . S
C447 C446 1.367 . S
C447 C455 1.433 . S
C448 H444 0.929 . S
C448 C450 1.378 . S
C448 C452 1.350 . S
C449 C452 1.463 . S
C449 C454 1.350 . S
C449 N457 1.427 . S
C450 H441 0.930 . S
C450 C448 1.378 . S
C450 C451 1.367 . S
C451 C450 1.367 . S
C451 C453 1.433 . S
C452 C448 1.350 . S
C452 C449 1.463 . S
C452 N456 1.427 . S
C453 H443 0.929 . S
C453 C451 1.433 . S
C453 N456 1.384 . S
C454 H445 0.929 . S
C454 C446 1.378 . S
C454 C449 1.350 . S
C455 H442 0.929 . S
C455 C447 1.433 . S
C455 N457 1.384 . S
N456 C452 1.427 . S
N456 C453 1.384 . S
N457 C449 1.427 . S
N457 C455 1.384 . S
H458 C464 0.930 . S
H459 C468 0.930 . S
H460 C473 0.929 . S
H461 C471 0.929 . S
H462 C466 0.929 . S
H463 C472 0.929 1_655 S
C464 H458 0.930 . S
C464 C465 1.367 . S
C464 C472 1.378 . S
C465 C464 1.367 . S
C465 C473 1.433 . S
C466 H462 0.929 . S
C466 C468 1.378 . S
C466 C470 1.350 . S
C467 C470 1.463 . S
C467 C472 1.350 . S
C467 N475 1.427 . S
C468 H459 0.930 . S
C468 C466 1.378 . S
C468 C469 1.367 . S
C469 C468 1.367 . S
C469 C471 1.433 1_455 S
C470 C466 1.350 . S
C470 C467 1.463 . S
C470 N474 1.427 . S
C471 H461 0.929 . S
C471 C469 1.433 1_655 S
C471 N474 1.384 1_655 S
C472 H463 0.929 1_455 S
C472 C464 1.378 . S
C472 C467 1.350 . S
C473 H460 0.929 . S
C473 C465 1.433 . S
C473 N475 1.384 . S
N474 C470 1.427 . S
N474 C471 1.384 1_455 S
N475 C467 1.427 . S
N475 C473 1.384 . S
H476 C482 0.930 . S
H477 C486 0.930 . S
H478 C491 0.923 1_545 S
H479 C489 0.929 1_556 S
H480 C484 0.929 . S
H481 C490 0.929 . S
C482 H476 0.930 . S
C482 C483 1.367 . S
C482 C490 1.378 . S
C483 C482 1.367 . S
C483 C491 1.445 1_556 S
C484 H480 0.929 . S
C484 C486 1.378 . S
C484 C488 1.350 1_545 S
C485 C488 1.463 . S
C485 C490 1.350 1_554 S
C485 N493 1.427 1_565 S
C486 H477 0.930 . S
C486 C484 1.378 . S
C486 C487 1.373 . S
C487 C486 1.373 . S
C487 C489 1.423 1_545 S
C488 C484 1.350 1_565 S
C488 C485 1.463 . S
C488 N492 1.427 1_554 S
C489 H479 0.929 1_554 S
C489 C487 1.423 1_565 S
C489 N492 1.384 1_554 S
C490 H481 0.929 . S
C490 C482 1.378 . S
C490 C485 1.350 1_556 S
C491 H478 0.923 1_565 S
C491 C483 1.445 1_554 S
C491 N493 1.380 1_565 S
N492 C488 1.427 1_556 S
N492 C489 1.384 1_556 S
N493 C485 1.427 1_545 S
N493 C491 1.380 1_545 S
H494 C500 0.930 . S
H495 C504 0.930 1_565 S
H496 C509 0.929 . S
H497 C507 0.929 . S
H498 C502 0.929 . S
H499 C508 0.929 . S
C500 H494 0.930 . S
C500 C501 1.367 . S
C500 C508 1.378 . S
C501 C500 1.367 . S
C501 C509 1.433 . S
C502 H498 0.929 . S
C502 C504 1.378 . S
C502 C506 1.350 . S
C503 C506 1.463 . S
C503 C508 1.350 . S
C503 N511 1.427 . S
C504 H495 0.930 1_545 S
C504 C502 1.378 . S
C504 C505 1.367 . S
C505 C504 1.367 . S
C505 C507 1.433 . S
C506 C502 1.350 . S
C506 C503 1.463 . S
C506 N510 1.427 . S
C507 H497 0.929 . S
C507 C505 1.433 . S
C507 N510 1.384 . S
C508 H499 0.929 . S
C508 C500 1.378 . S
C508 C503 1.350 . S
C509 H496 0.929 . S
C509 C501 1.433 . S
C509 N511 1.384 . S
N510 C506 1.427 . S
N510 C507 1.384 . S
N511 C503 1.427 . S
N511 C509 1.384 . S
H512 C518 0.930 . S
H513 C522 0.930 1_556 S
H514 C527 0.929 . S
H515 C525 0.929 . S
H516 C520 0.933 . S
H517 C526 0.929 . S
C518 H512 0.930 . S
C518 C519 1.367 . S
C518 C526 1.378 . S
C519 C518 1.367 . S
C519 C527 1.433 . S
C520 H516 0.933 . S
C520 C522 1.378 . S
C520 C524 1.350 . S
C521 C524 1.463 . S
C521 C526 1.350 . S
C521 N529 1.427 . S
C522 H513 0.930 1_554 S
C522 C520 1.378 . S
C522 C523 1.367 . S
C523 C522 1.367 . S
C523 C525 1.433 . S
C524 C520 1.350 . S
C524 C521 1.463 . S
C524 N528 1.427 . S
C525 H515 0.929 . S
C525 C523 1.433 . S
C525 N528 1.384 . S
C526 H517 0.929 . S
C526 C518 1.378 . S
C526 C521 1.350 . S
C527 H514 0.929 . S
C527 C519 1.433 . S
C527 N529 1.384 . S
N528 C524 1.427 . S
N528 C525 1.384 . S
N529 C521 1.427 . S
N529 C527 1.384 . S
H530 C536 0.930 . S
H531 C540 0.930 . S
H532 C545 0.929 . S
H533 C543 0.929 . S
H534 C538 0.929 . S
H535 C544 0.929 . S
C536 H530 0.930 . S
C536 C537 1.367 . S
C536 C544 1.378 . S
C537 C536 1.367 . S
C537 C545 1.433 . S
C538 H534 0.929 . S
C538 C540 1.378 . S
C538 C542 1.350 . S
C539 C542 1.463 . S
C539 C544 1.350 . S
C539 N547 1.427 . S
C540 H531 0.930 . S
C540 C538 1.378 . S
C540 C541 1.367 . S
C541 C540 1.367 . S
C541 C543 1.433 . S
C542 C538 1.350 . S
C542 C539 1.463 . S
C542 N546 1.427 . S
C543 H533 0.929 . S
C543 C541 1.433 . S
C543 N546 1.384 . S
C544 H535 0.929 . S
C544 C536 1.378 . S
C544 C539 1.350 . S
C545 H532 0.929 . S
C545 C537 1.433 . S
C545 N547 1.384 . S
N546 C542 1.427 . S
N546 C543 1.384 . S
N547 C539 1.427 . S
N547 C545 1.384 . S
H548 C554 0.930 . S
H549 C558 0.930 . S
H550 C563 0.953 . S
H551 C561 0.929 . S
H552 C556 0.929 . S
H553 C562 0.929 . S
C554 H548 0.930 . S
C554 C555 1.367 . S
C554 C562 1.378 . S
C555 C554 1.367 . S
C555 C563 1.407 1_556 S
C556 H552 0.929 . S
C556 C558 1.378 . S
C556 C560 1.350 1_554 S
C557 C560 1.463 . S
C557 C562 1.350 . S
C557 N565 1.427 1_556 S
C558 H549 0.930 . S
C558 C556 1.378 . S
C558 C559 1.367 1_554 S
C559 C558 1.367 1_556 S
C559 C561 1.433 . S
C560 C556 1.350 1_556 S
C560 C557 1.463 . S
C560 N564 1.427 . S
C561 H551 0.929 . S
C561 C559 1.433 . S
C561 N564 1.384 . S
C562 H553 0.929 . S
C562 C554 1.378 . S
C562 C557 1.350 . S
C563 H550 0.953 . S
C563 C555 1.407 1_554 S
C563 N565 1.386 . S
N564 C560 1.427 . S
N564 C561 1.384 . S
N565 C557 1.427 1_554 S
N565 C563 1.386 . S
H566 C572 0.930 . S
H567 C576 0.930 . S
H568 C581 0.929 . S
H569 C579 0.929 . S
H570 C574 0.929 . S
H571 C580 0.929 . S
C572 H566 0.930 . S
C572 C573 1.367 . S
C572 C580 1.378 . S
C573 C572 1.367 . S
C573 C581 1.433 . S
C574 H570 0.929 . S
C574 C576 1.378 . S
C574 C578 1.350 . S
C575 C578 1.463 . S
C575 C580 1.350 . S
C575 N583 1.427 . S
C576 H567 0.930 . S
C576 C574 1.378 . S
C576 C577 1.367 . S
C577 C576 1.367 . S
C577 C579 1.433 . S
C578 C574 1.350 . S
C578 C575 1.463 . S
C578 N582 1.427 . S
C579 H569 0.929 . S
C579 C577 1.433 . S
C579 N582 1.384 . S
C580 H571 0.929 . S
C580 C572 1.378 . S
C580 C575 1.350 . S
C581 H568 0.929 . S
C581 C573 1.433 . S
C581 N583 1.384 . S
N582 C578 1.427 . S
N582 C579 1.384 . S
N583 C575 1.427 . S
N583 C581 1.384 . S
H584 C590 0.930 . S
H585 C594 0.930 . S
H586 C599 0.929 . S
H587 C597 0.929 . S
H588 C592 0.929 . S
H589 C598 0.929 . S
C590 H584 0.930 . S
C590 C591 1.367 . S
C590 C598 1.378 . S
C591 C590 1.367 . S
C591 C599 1.433 . S
C592 H588 0.929 . S
C592 C594 1.378 . S
C592 C596 1.350 . S
C593 C596 1.463 . S
C593 C598 1.350 . S
C593 N601 1.427 . S
C594 H585 0.930 . S
C594 C592 1.378 . S
C594 C595 1.367 . S
C595 C594 1.367 . S
C595 C597 1.433 . S
C596 C592 1.350 . S
C596 C593 1.463 . S
C596 N600 1.427 . S
C597 H587 0.929 . S
C597 C595 1.433 . S
C597 N600 1.384 . S
C598 H589 0.929 . S
C598 C590 1.378 . S
C598 C593 1.350 . S
C599 H586 0.929 . S
C599 C591 1.433 . S
C599 N601 1.384 . S
N600 C596 1.427 . S
N600 C597 1.384 . S
N601 C593 1.427 . S
N601 C599 1.384 . S
H602 C608 0.930 . S
H603 C612 0.930 . S
H604 C617 0.929 . S
H605 C615 0.929 . S
H606 C610 0.929 . S
H607 C616 0.929 . S
C608 H602 0.930 . S
C608 C609 1.367 . S
C608 C616 1.378 . S
C609 C608 1.367 . S
C609 C617 1.433 . S
C610 H606 0.929 . S
C610 C612 1.378 . S
C610 C614 1.350 . S
C611 C614 1.463 . S
C611 C616 1.350 . S
C611 N619 1.427 . S
C612 H603 0.930 . S
C612 C610 1.378 . S
C612 C613 1.367 . S
C613 C612 1.367 . S
C613 C615 1.433 . S
C614 C610 1.350 . S
C614 C611 1.463 . S
C614 N618 1.427 . S
C615 H605 0.929 . S
C615 C613 1.433 . S
C615 N618 1.384 . S
C616 H607 0.929 . S
C616 C608 1.378 . S
C616 C611 1.350 . S
C617 H604 0.929 . S
C617 C609 1.433 . S
C617 N619 1.384 . S
N618 C614 1.427 . S
N618 C615 1.384 . S
N619 C611 1.427 . S
N619 C617 1.384 . S
C195 N1 1.492 . S
C199 C107 1.424 . S
C213 N18 1.823 . S
C217 C141 1.703 1_565 S
C235 C153 1.043 . S
C231 N28 1.099 . S
C249 N40 1.632 . S
C253 C187 1.545 . S
C271 C144 1.719 . S
C267 N5 1.842 . S
C289 C124 1.487 . S
C285 N14 1.546 . S
C307 C171 1.380 . S
C303 N31 1.478 . S
C325 C162 1.125 . S
C321 N41 1.193 . S
C339 N2 1.449 . S
C343 C170 1.381 . S
C361 C132 1.467 1_556 S
C357 N27 1.582 . S
C375 N44 1.624 . S
C379 C108 1.547 1_655 S
C393 N15 1.384 . S
C397 C165 1.266 . S
C415 C123 1.668 . S
C411 N57 1.814 . S
C429 N70 1.359 . S
C433 C145 1.291 . S
C447 N79 1.433 . S
C451 C150 1.414 . S
C465 N93 1.420 . S
C469 C183 1.346 . S
C483 N54 1.522 . S
C487 C128 1.448 1_545 S
C505 C120 1.874 . S
C501 N66 1.972 . S
C523 C174 1.067 . S
C519 N80 1.128 . S
C541 C166 1.453 . S
C537 N96 1.513 . S
C555 N53 1.552 . S
C559 C186 1.470 1_655 S
C577 C129 1.474 . S
C573 N83 1.523 . S
C595 C111 1.556 . S
C591 N92 1.689 . S
C609 N67 1.492 . S
C613 C149 1.466 . S
