# Generated by pormake.
# Topology anh, (6,3)-cn, num edge types: 1
# Building blocks:
#     Node 0, Type 0, BuildingBlock: NUHQIS_clean_sbu_0, # of connection points: 6
#     Node 1, Type 0, BuildingBlock: NUHQIS_clean_sbu_0, # of connection points: 6
#     Node 2, Type 0, BuildingBlock: NUHQIS_clean_sbu_0, # of connection points: 6
#     Node 3, Type 1, BuildingBlock: BETDAH_clean_linker_0, # of connection points: 3
#     Node 4, Type 1, BuildingBlock: BETDAH_clean_linker_0, # of connection points: 3
#     Node 5, Type 1, BuildingBlock: BETDAH_clean_linker_0, # of connection points: 3
#     Node 6, Type 1, BuildingBlock: BETDAH_clean_linker_0, # of connection points: 3
#     Node 7, Type 1, BuildingBlock: BETDAH_clean_linker_0, # of connection points: 3
#     Node 8, Type 1, BuildingBlock: BETDAH_clean_linker_0, # of connection points: 3
#     Edge 9, Type (0, 1), BuildingBlock: EZIPEK_clean_linker_0, # of connection points: 2
#     Edge 10, Type (0, 1), BuildingBlock: EZIPEK_clean_linker_0, # of connection points: 2
#     Edge 11, Type (0, 1), BuildingBlock: EZIPEK_clean_linker_0, # of connection points: 2
#     Edge 12, Type (0, 1), BuildingBlock: EZIPEK_clean_linker_0, # of connection points: 2
#     Edge 13, Type (0, 1), BuildingBlock: EZIPEK_clean_linker_0, # of connection points: 2
#     Edge 14, Type (0, 1), BuildingBlock: EZIPEK_clean_linker_0, # of connection points: 2
#     Edge 15, Type (0, 1), BuildingBlock: EZIPEK_clean_linker_0, # of connection points: 2
#     Edge 16, Type (0, 1), BuildingBlock: EZIPEK_clean_linker_0, # of connection points: 2
#     Edge 17, Type (0, 1), BuildingBlock: EZIPEK_clean_linker_0, # of connection points: 2
#     Edge 18, Type (0, 1), BuildingBlock: EZIPEK_clean_linker_0, # of connection points: 2
#     Edge 19, Type (0, 1), BuildingBlock: EZIPEK_clean_linker_0, # of connection points: 2
#     Edge 20, Type (0, 1), BuildingBlock: EZIPEK_clean_linker_0, # of connection points: 2
#     Edge 21, Type (0, 1), BuildingBlock: EZIPEK_clean_linker_0, # of connection points: 2
#     Edge 22, Type (0, 1), BuildingBlock: EZIPEK_clean_linker_0, # of connection points: 2
#     Edge 23, Type (0, 1), BuildingBlock: EZIPEK_clean_linker_0, # of connection points: 2
#     Edge 24, Type (0, 1), BuildingBlock: EZIPEK_clean_linker_0, # of connection points: 2
#     Edge 25, Type (0, 1), BuildingBlock: EZIPEK_clean_linker_0, # of connection points: 2
#     Edge 26, Type (0, 1), BuildingBlock: EZIPEK_clean_linker_0, # of connection points: 2
# Relax obj value: 0.366
# Max RMSD: 0.160
# Mean RMSD: 0.115
data_MOF--net-anh--node1-NUHQIS_clean_sbu_0--node2-BETDAH_clean_linker_0--edge1-EZIPEK_clean_linker_0
_symmetry_space_group_name_H-M    P1
_symmetry_Int_Tables_number       1
_symmetry_cell_setting            triclinic
loop_
_symmetry_equiv_pos_as_xyz
'x, y, z'
_cell_length_a     23.296101
_cell_length_b     23.428163
_cell_length_c     36.507157
_cell_angle_alpha  90.594051
_cell_angle_beta   95.578677
_cell_angle_gamma 119.83735
loop_
_atom_site_label
_atom_site_type_symbol
_atom_site_fract_x
_atom_site_fract_y
_atom_site_fract_z
_atom_type_partial_charge
Tb0 Tb 0.22432 0.65616 0.16001 0.0
Eu1 Eu 0.14598 0.7336 0.163 0.0
C2 C 0.21961 0.71297 0.23585 0.0
C3 C 1.06307 0.56683 0.16625 0.0
C4 C 0.29185 0.54531 0.13984 0.0
C5 C 0.34476 0.48106 0.13005 0.0
C6 C 0.34629 0.53551 0.14672 0.0
C7 C 0.23544 0.50011 0.11608 0.0
C8 C 0.23384 0.44521 0.09935 0.0
C9 C 0.28873 0.43575 0.1063 0.0
C10 C 0.29525 0.60282 0.15806 0.0
O11 O 0.18459 0.64441 0.10187 0.0
O12 O 1.13826 0.71091 0.10118 0.0
O13 O 0.25222 0.82202 0.15925 0.0
O14 O 0.30728 0.7649 0.17002 0.0
C15 C 0.15499 0.67273 0.08386 0.0
O16 O 1.09792 0.78763 0.14044 0.0
O17 O 1.09263 0.76311 0.1974 0.0
O18 O 0.20606 0.75466 0.21907 0.0
O19 O 0.21415 0.66202 0.21777 0.0
O20 O 1.1195 0.56852 0.15986 0.0
O21 O 1.06404 0.62395 0.16958 0.0
C22 C 0.3098 0.82311 0.16641 0.0
O23 O 0.29967 0.64889 0.13691 0.0
O24 O 0.25321 0.59067 0.18188 0.0
C25 C 0.99412 0.74574 0.16431 0.0
C26 C 0.85776 0.6531 0.16163 0.0
C27 C 0.89195 0.65752 0.1313 0.0
C28 C 0.95957 0.70326 0.13261 0.0
C29 C 0.95889 0.7437 0.19392 0.0
C30 C 0.89099 0.69733 0.19268 0.0
C31 C 1.06751 0.78138 0.16966 0.0
H32 H 0.38742 0.47421 0.13562 0.0
H33 H 0.39 0.57001 0.16504 0.0
H34 H 0.19301 0.50732 0.11062 0.0
H35 H 0.19031 0.41044 0.08105 0.0
H36 H 0.86681 0.62348 0.10718 0.0
H37 H 0.98538 0.70264 0.10961 0.0
H38 H 0.98478 0.77525 0.21885 0.0
H39 H 0.86509 0.69422 0.21633 0.0
Tb40 Tb 0.74414 0.23846 0.49677 0.0
Eu41 Eu 0.58572 0.16319 0.49231 0.0
C42 C 0.67829 0.19944 0.56962 0.0
C43 C 0.66361 1.07391 0.49913 0.0
C44 C 0.94075 0.33221 0.50419 0.0
C45 C 1.04538 0.43523 0.50755 0.0
C46 C 0.97722 0.40097 0.51065 0.0
C47 C 0.97338 0.29742 0.49702 0.0
C48 C 1.04118 0.33171 0.49311 0.0
C49 C 1.07677 0.4008 0.497 0.0
C50 C 0.8682 0.29753 0.50144 0.0
O51 O 0.71441 0.2078 0.43791 0.0
O52 O 0.60546 0.18228 0.43258 0.0
O53 O 0.61268 0.27295 0.49981 0.0
O54 O 0.72593 0.3255 0.50189 0.0
C55 C 0.65862 0.19299 0.41751 0.0
O56 O 0.4867 0.09639 0.46433 0.0
O57 O 0.49735 0.1499 0.51561 0.0
O58 O 0.62108 0.15716 0.55107 0.0
O59 O 0.72682 0.24423 0.55322 0.0
O60 O 0.72035 0.1318 0.49995 0.0
O61 O 0.60631 1.07456 0.49545 0.0
C62 C 0.67054 0.32909 0.50337 0.0
O63 O 0.83449 0.24728 0.5206 0.0
O64 O 0.83239 0.31405 0.4792 0.0
C65 C 0.40599 1.04079 0.50434 0.0
C66 C 0.33718 0.91134 0.52611 0.0
C67 C 0.32877 0.92491 0.48911 0.0
C68 C 0.36247 0.98914 0.47841 0.0
C69 C 0.40694 1.02879 0.54204 0.0
C70 C 0.37162 0.96429 0.5529 0.0
C71 C 0.45629 0.10301 0.49089 0.0
H72 H 1.07238 0.48864 0.51045 0.0
H73 H 0.95244 0.42824 0.51646 0.0
H74 H 0.94567 0.24423 0.49207 0.0
H75 H 1.06494 0.30473 0.48482 0.0
H76 H 0.30205 0.88537 0.46767 0.0
H77 H 0.35965 0.99747 0.4493 0.0
H78 H 0.43853 1.06822 0.56286 0.0
H79 H 0.37573 0.9557 0.58183 0.0
Tb80 Tb 0.67021 0.66839 0.83719 0.0
Eu81 Eu 0.58606 0.52234 0.80502 0.0
C82 C 0.62062 0.55316 0.88896 0.0
C83 C 0.75244 0.58933 0.82767 0.0
C84 C 0.75843 0.8404 0.88789 0.0
C85 C 0.83397 0.95556 0.90558 0.0
C86 C 0.82278 0.89479 0.89218 0.0
C87 C 0.70682 0.84449 0.90204 0.0
C88 C 0.71836 0.90544 0.91641 0.0
C89 C 0.78065 0.96306 0.91502 0.0
C90 C 0.74676 0.78429 0.86426 0.0
O91 O 0.68643 0.67175 0.778 0.0
O92 O 0.59173 0.57851 0.75507 0.0
O93 O 0.50579 0.54777 0.82176 0.0
O94 O 0.56826 0.65952 0.83282 0.0
C95 C 0.64405 0.63409 0.74962 0.0
O96 O 0.55976 0.44029 0.76546 0.0
O97 O 0.49674 0.42754 0.80813 0.0
O98 O 0.62839 0.52132 0.86236 0.0
O99 O 0.61859 0.60679 0.88145 0.0
O100 O 0.74978 0.64016 0.84201 0.0
O101 O 0.69618 0.53983 0.80964 0.0
C102 C 0.5084 0.60486 0.82934 0.0
O103 O 0.74112 0.73242 0.87999 0.0
O104 O 0.70657 0.76961 0.83372 0.0
C105 C 0.50605 0.33563 0.79027 0.0
C106 C 0.52597 0.23291 0.81399 0.0
C107 C 0.54585 0.25993 0.78017 0.0
C108 C 0.5359 0.31083 0.76837 0.0
C109 C 0.47847 0.30284 0.82168 0.0
C110 C 0.48891 0.25193 0.83368 0.0
C111 C 0.50922 0.39846 0.78196 0.0
H112 H 0.88306 0.99763 0.90427 0.0
H113 H 0.86345 0.8918 0.88197 0.0
H114 H 0.65706 0.80195 0.89983 0.0
H115 H 0.677 0.90766 0.92577 0.0
H116 H 0.57433 0.24559 0.76442 0.0
H117 H 0.5557 0.33368 0.74343 0.0
H118 H 0.45248 0.31908 0.83822 0.0
H119 H 0.47221 0.23077 0.85948 0.0
H120 H 0.55251 1.07092 0.25634 0.0
H121 H 0.73659 0.25146 0.2478 0.0
H122 H 0.61999 0.12628 0.14941 0.0
C123 C 0.58834 0.10431 0.23894 0.0
C124 C 0.57595 1.08831 0.2005 0.0
C125 C 0.64503 0.16221 0.25591 0.0
C126 C 0.69354 0.20761 0.23428 0.0
C127 C 0.687 0.19665 0.19558 0.0
C128 C 0.62704 0.13596 0.17902 0.0
N129 N 0.73788 0.24397 0.1729 0.0
C130 C 0.80069 0.30688 0.17997 0.0
H131 H 0.67203 0.56423 0.59325 0.0
H132 H 0.66852 0.74548 0.58154 0.0
H133 H 0.66936 0.63649 0.485 0.0
C134 C 0.67156 0.6005 0.5752 0.0
C135 C 0.67105 0.59031 0.53686 0.0
C136 C 0.66987 0.65502 0.59124 0.0
C137 C 0.66956 0.70409 0.56879 0.0
C138 C 0.66967 0.69981 0.53024 0.0
C139 C 0.67027 0.64179 0.51457 0.0
N140 N 0.6686 0.7511 0.50693 0.0
C141 C 0.66684 0.81195 0.51373 0.0
H142 H 1.00753 0.6179 0.92126 0.0
H143 H 0.19494 0.62484 0.91419 0.0
H144 H 1.06077 0.59129 0.81495 0.0
C145 C 1.04163 0.61471 0.90427 0.0
C146 C 1.02369 0.6034 0.86568 0.0
C147 C 1.10265 0.62277 0.92176 0.0
C148 C 0.14872 0.61876 0.90041 0.0
C149 C 1.13559 0.60708 0.86162 0.0
C150 C 1.07226 0.59988 0.84462 0.0
N151 N 0.18332 0.60275 0.83909 0.0
C152 C 0.24771 0.60585 0.84645 0.0
H153 H 0.30053 0.77271 0.41446 0.0
H154 H 0.34622 0.63691 0.36228 0.0
H155 H 0.37291 0.66562 0.48042 0.0
C156 C 0.31956 0.73884 0.41646 0.0
C157 C 0.339 0.72472 0.45121 0.0
C158 C 0.32194 0.70717 0.38434 0.0
C159 C 0.34645 0.66324 0.38693 0.0
C160 C 0.36556 0.64875 0.42156 0.0
C161 C 0.36091 0.67898 0.45359 0.0
N162 N 0.3756 0.59422 0.42449 0.0
C163 C 0.32796 0.54096 0.44086 0.0
H164 H 0.66188 0.20326 0.73764 0.0
H165 H 0.84319 0.2038 0.7229 0.0
H166 H 0.78048 0.19246 0.83133 0.0
C167 C 0.70662 0.20339 0.7493 0.0
C168 C 0.71704 0.19831 0.7872 0.0
C169 C 0.75185 0.20558 0.72607 0.0
C170 C 0.8091 0.20416 0.74096 0.0
C171 C 0.81987 0.19902 0.779 0.0
C172 C 0.77369 0.19692 0.80194 0.0
N173 N 0.87275 0.18888 0.79348 0.0
C174 C 0.86629 0.155 0.82525 0.0
H175 H 0.67617 0.51855 0.05896 0.0
H176 H 0.49001 0.35219 0.01308 0.0
H177 H 0.55538 0.3683 0.12882 0.0
C178 C 0.63192 0.47192 0.0623 0.0
C179 C 0.62135 0.4477 0.09745 0.0
C180 C 0.584 0.43908 0.03193 0.0
C181 C 0.52713 0.37853 0.03645 0.0
C182 C 0.5183 0.35148 0.07096 0.0
C183 C 0.56454 0.38698 0.1017 0.0
N184 N 0.4603 0.29104 0.07534 0.0
C185 C 0.39942 0.28865 0.07158 0.0
C186 C 0.28062 0.3265 0.11148 0.0
C187 C 0.28979 0.3789 0.08924 0.0
C188 C 0.33929 0.34231 0.04527 0.0
C189 C 0.34531 0.30202 0.07202 0.0
N190 N 0.31441 0.24617 0.12767 0.0
N191 N 0.32148 0.43429 0.03323 0.0
C192 C 0.31209 0.2898 0.10387 0.0
C193 C 0.31557 0.38499 0.05499 0.0
N194 N 0.24366 0.31385 0.1403 0.0
N195 N 0.35755 0.34023 0.01108 0.0
H196 H 0.30253 0.46491 0.03925 0.0
H197 H 0.34708 0.44642 0.01011 0.0
H198 H 0.37295 0.30722 0.0037 0.0
H199 H 0.35116 0.36569 0.98934 0.0
H200 H 0.23154 0.27405 0.15653 0.0
H201 H 0.22048 0.34075 0.14601 0.0
H202 H 0.29753 0.23973 0.15349 0.0
H203 H 0.33502 0.21704 0.1215 0.0
C204 C 0.20105 0.44947 0.50626 0.0
C205 C 0.14255 0.43668 0.48335 0.0
C206 C 0.20644 0.48125 0.43119 0.0
C207 C 0.26544 0.49821 0.45466 0.0
N208 N 0.32219 0.50607 0.51482 0.0
N209 N 1.08971 0.44866 0.42588 0.0
C210 C 0.26377 0.48422 0.49232 0.0
C211 C 0.1453 0.45503 0.44634 0.0
N212 N 0.19631 0.42809 0.54113 0.0
N213 N 0.20879 0.48923 0.39416 0.0
H214 H 1.04265 0.42606 0.43487 0.0
H215 H 1.09084 0.46996 0.40088 0.0
H216 H 0.25282 0.50791 0.38195 0.0
H217 H 0.16672 0.47206 0.37493 0.0
H218 H 0.23586 0.42983 0.55803 0.0
H219 H 0.15142 0.40519 0.55261 0.0
H220 H 0.32518 0.50411 0.54337 0.0
H221 H 0.36859 0.52944 0.50494 0.0
C222 C 0.85069 1.08558 0.91938 0.0
C223 C 0.7864 1.02933 0.91157 0.0
C224 C 0.77163 1.06495 0.8515 0.0
C225 C 0.83964 0.11519 0.856 0.0
N226 N 0.93866 0.18625 0.89738 0.0
N227 N 0.67702 1.00296 0.8848 0.0
C228 C 0.87754 0.13055 0.89129 0.0
C229 C 0.74355 1.03161 0.88252 0.0
N230 N 0.88716 1.09096 0.95209 0.0
N231 N 0.73425 1.04721 0.81782 0.0
H232 H 0.65737 0.98485 0.90935 0.0
H233 H 0.6443 1.00633 0.86448 0.0
H234 H 0.75377 1.06757 0.79362 0.0
H235 H 0.68557 1.0075 0.81371 0.0
H236 H 0.93678 0.12704 0.95911 0.0
H237 H 0.86618 1.05697 0.97196 0.0
H238 H 0.96735 0.20195 0.92298 0.0
H239 H 0.95929 0.21865 0.87682 0.0
C240 C 0.73504 0.60882 0.14838 0.0
C241 C 0.78831 0.59837 0.16078 0.0
C242 C 0.71732 0.47934 0.14684 0.0
C243 C 0.66789 0.49149 0.12927 0.0
N244 N 0.61725 0.55921 0.1264 0.0
N245 N 0.82568 0.52519 0.18369 0.0
C246 C 0.67251 0.55357 0.13501 0.0
C247 C 0.77732 0.5336 0.16453 0.0
N248 N 0.74574 0.67157 0.14693 0.0
N249 N 0.70822 0.41709 0.14479 0.0
H250 H 0.8699 0.56494 0.1965 0.0
H251 H 0.82054 0.47961 0.18938 0.0
H252 H 0.66493 0.37684 0.13174 0.0
H253 H 0.74284 0.40466 0.1561 0.0
H254 H 0.7112 0.68302 0.13408 0.0
H255 H 0.79074 0.71279 0.15758 0.0
H256 H 0.61562 0.602 0.13198 0.0
H257 H 0.57107 0.51847 0.11667 0.0
C258 C 0.26602 0.79067 0.516 0.0
C259 C 0.32594 0.84438 0.5332 0.0
C260 C 0.39109 0.80211 0.50825 0.0
C261 C 0.33315 0.75591 0.48507 0.0
N262 N 0.21328 0.68892 0.47668 0.0
N263 N 0.43315 0.87282 0.56462 0.0
C264 C 0.26942 0.74375 0.4926 0.0
C265 C 0.38408 0.83948 0.53624 0.0
N266 N 0.20784 0.79001 0.51893 0.0
N267 N 0.45286 0.81413 0.50202 0.0
H268 H 0.42683 0.89793 0.58615 0.0
H269 H 0.47552 0.86825 0.56906 0.0
H270 H 0.46073 0.78918 0.48111 0.0
H271 H 0.49662 0.85244 0.51604 0.0
H272 H 0.16234 0.75656 0.50412 0.0
H273 H 0.20682 0.82535 0.53616 0.0
H274 H 0.16546 0.67559 0.48242 0.0
H275 H 0.21543 0.65389 0.45984 0.0
C276 C 0.62061 0.23751 0.85054 0.0
C277 C 0.55736 0.19668 0.83082 0.0
C278 C 0.60008 0.13377 0.80202 0.0
C279 C 0.66503 0.18918 0.81054 0.0
N280 N 0.73901 0.29193 0.84672 0.0
N281 N 0.48107 0.09478 0.79689 0.0
C282 C 0.67649 0.23956 0.83707 0.0
C283 C 0.54496 0.13925 0.81078 0.0
N284 N 0.62696 0.2781 0.87955 0.0
N285 N 0.59182 1.07807 0.7844 0.0
H286 H 0.44132 0.10008 0.80368 0.0
H287 H 0.468 1.05477 0.77855 0.0
H288 H 0.63232 1.07389 0.77793 0.0
H289 H 0.54601 1.03484 0.77895 0.0
H290 H 0.67158 0.30717 0.8964 0.0
H291 H 0.58534 0.27681 0.88876 0.0
H292 H 0.74838 0.33268 0.86333 0.0
H293 H 0.7813 0.29674 0.83653 0.0
C294 C 0.62065 0.94719 0.47921 0.0
C295 C 0.66461 1.00587 0.50289 0.0
C296 C 0.70908 0.9361 0.53437 0.0
C297 C 0.66444 0.87765 0.5112 0.0
N298 N 0.58329 0.83264 0.45778 0.0
N299 N 0.74509 1.04913 0.55717 0.0
C300 C 0.62152 0.885 0.48289 0.0
C301 C 0.70758 0.99804 0.53127 0.0
N302 N 0.57699 0.95044 0.45268 0.0
N303 N 0.75562 0.93336 0.55894 0.0
H304 H 0.74653 0.09419 0.55643 0.0
H305 H 0.77062 1.04561 0.58124 0.0
H306 H 0.75661 0.8898 0.56294 0.0
H307 H 0.79588 0.97442 0.57349 0.0
H308 H 0.53657 0.9095 0.43817 0.0
H309 H 0.57979 0.99466 0.44571 0.0
H310 H 0.55657 0.83438 0.43372 0.0
H311 H 0.58065 0.78706 0.46007 0.0
C312 C 0.82759 0.53572 0.84816 0.0
C313 C 0.82149 0.58937 0.83326 0.0
C314 C 0.94825 0.65105 0.83691 0.0
C315 C 0.9539 0.59623 0.84984 0.0
N316 N 0.894 0.48194 0.86208 0.0
N317 N 0.88051 0.69481 0.80746 0.0
C318 C 0.89183 0.53749 0.85361 0.0
C319 C 0.88338 0.64592 0.82612 0.0
N320 N 0.77236 0.48388 0.85956 0.0
N321 N 1.0056 0.70993 0.83612 0.0
H322 H 0.83583 0.69344 0.79892 0.0
H323 H 0.92146 0.73351 0.79733 0.0
H324 H 1.05272 0.7151 0.84219 0.0
H325 H 1.00661 0.75431 0.83199 0.0
H326 H 0.77373 0.44738 0.87497 0.0
H327 H 0.72578 0.48041 0.85658 0.0
H328 H 0.85183 0.43548 0.8614 0.0
H329 H 0.93867 0.48141 0.86647 0.0
C330 C 0.44006 0.90271 0.16029 0.0
C331 C 0.37878 0.89224 0.1728 0.0
C332 C 0.44481 1.01426 0.19385 0.0
C333 C 0.50761 1.02252 0.18587 0.0
N334 N 0.56235 0.96639 0.16517 0.0
N335 N 0.33279 0.94215 0.20991 0.0
C336 C 0.50402 0.96425 0.17 0.0
C337 C 0.3842 0.94952 0.19159 0.0
N338 N 0.43738 0.85485 0.13739 0.0
N339 N 0.44217 1.06946 0.20307 0.0
H340 H 0.28989 0.89697 0.21147 0.0
H341 H 0.33609 0.9793 0.22744 0.0
H342 H 0.48371 0.11674 0.20434 0.0
H343 H 0.3977 1.06901 0.20529 0.0
H344 H 0.47751 0.86109 0.12411 0.0
H345 H 0.39307 0.81156 0.12851 0.0
H346 H 0.56521 0.92474 0.15816 0.0
H347 H 0.60852 1.0093 0.17097 0.0
C348 C 0.62622 0.40233 0.53251 0.0
C349 C 0.6718 0.39761 0.51038 0.0
C350 C 0.71879 0.5212 0.50432 0.0
C351 C 0.66841 0.52356 0.52313 0.0
N352 N 0.56299 0.45595 0.54594 0.0
N353 N 0.75423 0.45661 0.46922 0.0
C354 C 0.61909 0.46084 0.53428 0.0
C355 C 0.71606 0.45846 0.49476 0.0
N356 N 0.59178 0.3523 0.55439 0.0
N357 N 0.77149 0.57941 0.49652 0.0
H358 H 0.75251 0.41324 0.46053 0.0
H359 H 0.7822 0.49647 0.45392 0.0
H360 H 0.77509 0.62477 0.50253 0.0
H361 H 0.81378 0.58296 0.48698 0.0
H362 H 0.56339 0.35538 0.57387 0.0
H363 H 0.59832 0.31159 0.55674 0.0
H364 H 0.52208 0.41109 0.5509 0.0
H365 H 0.55423 0.4955 0.54637 0.0
C366 C 0.38217 0.57061 0.80841 0.0
C367 C 0.4416 0.6066 0.83403 0.0
C368 C 0.3747 0.64597 0.86709 0.0
C369 C 0.31402 0.60529 0.84333 0.0
N370 N 0.26116 0.52039 0.79399 0.0
N371 N 0.4869 0.67074 0.8922 0.0
C372 C 0.31858 0.56528 0.81493 0.0
C373 C 0.43552 0.64243 0.86439 0.0
N374 N 0.38689 0.54416 0.77609 0.0
N375 N 0.37495 0.68948 0.89232 0.0
H376 H 0.53027 0.66817 0.8921 0.0
H377 H 0.48418 0.69129 0.91693 0.0
H378 H 0.3322 0.6918 0.89584 0.0
H379 H 0.41805 0.72626 0.90765 0.0
H380 H 0.34874 0.52391 0.75428 0.0
H381 H 0.43145 0.54893 0.76932 0.0
H382 H 0.25826 0.48399 0.77603 0.0
H383 H 0.21499 0.51581 0.79699 0.0
C384 C 0.9364 0.47709 0.1443 0.0
C385 C 0.99568 0.49888 0.16977 0.0
C386 C 0.92506 0.39706 0.20415 0.0
C387 C 0.86745 0.37319 0.17719 0.0
N388 N 0.82658 0.38852 0.11723 0.0
N389 N 1.04453 0.47277 0.2233 0.0
C390 C 0.87592 0.41308 0.14622 0.0
C391 C 0.98902 0.45642 0.19935 0.0
N392 N 0.93707 0.51815 0.11787 0.0
N393 N 0.91839 0.3634 0.23522 0.0
H394 H 1.08981 0.51596 0.22201 0.0
H395 H 1.04724 0.44223 0.24303 0.0
H396 H 0.87433 0.32043 0.23906 0.0
H397 H 0.9542 0.37986 0.25813 0.0
H398 H 0.8943 0.51101 0.10176 0.0
H399 H 0.9798 0.56217 0.1138 0.0
H400 H 0.83137 0.40976 0.09199 0.0
H401 H 0.78239 0.3437 0.11744 0.0
C402 C 0.16971 0.71361 0.01889 0.0
C403 C 1.14032 0.66052 0.04225 0.0
C404 C 1.09276 0.58244 0.98673 0.0
C405 C 1.11778 0.63583 0.96338 0.0
N406 N 0.17233 0.75298 0.95728 0.0
N407 N 1.06468 0.54501 0.0478 0.0
C408 C 0.154 0.70162 0.97955 0.0
C409 C 1.09953 0.59504 0.02593 0.0
N410 N 0.21533 0.77528 0.0342 0.0
N411 N 1.06343 0.51933 0.97142 0.0
H412 H 1.06734 0.55226 0.07629 0.0
H413 H 1.02857 0.49756 0.03754 0.0
H414 H 1.05638 0.50821 0.94302 0.0
H415 H 1.05087 0.47844 0.98682 0.0
H416 H 0.24425 0.81455 0.01881 0.0
H417 H 0.22861 0.78608 0.06257 0.0
H418 H 0.19165 0.80167 0.9672 0.0
H419 H 0.16372 0.74637 0.92855 0.0
C420 C 0.66848 0.13888 0.35949 0.0
C421 C 0.6555 0.18601 0.37601 0.0
C422 C 0.63425 0.21711 0.31362 0.0
C423 C 0.65267 0.17392 0.29744 0.0
N424 N 0.69764 0.10143 0.30564 0.0
N425 N 0.63636 0.27755 0.36882 0.0
C426 C 0.67288 0.13718 0.32066 0.0
C427 C 0.64104 0.22711 0.35302 0.0
N428 N 0.67331 0.09326 0.38062 0.0
N429 N 0.6082 0.24715 0.29132 0.0
H430 H 0.64143 0.28674 0.39731 0.0
H431 H 0.63316 0.31369 0.35389 0.0
H432 H 0.60379 0.24221 0.26259 0.0
H433 H 0.58646 0.27292 0.30113 0.0
H434 H 0.6752 1.05307 0.36971 0.0
H435 H 0.66903 1.09179 0.40882 0.0
H436 H 0.72 1.07932 0.32134 0.0
H437 H 0.70125 0.0987 0.27748 0.0
C438 C 0.71399 0.65752 0.69595 0.0
C439 C 0.65619 0.65066 0.71015 0.0
C440 C 0.60746 0.64805 0.64638 0.0
C441 C 0.66684 0.6589 0.63245 0.0
N442 N 0.7821 0.68881 0.64533 0.0
N443 N 0.5546 0.65452 0.69926 0.0
C444 C 0.72184 0.66846 0.65775 0.0
C445 C 0.60508 0.65068 0.68539 0.0
N446 N 0.7595 0.64918 0.71824 0.0
N447 N 0.5519 0.63176 0.62241 0.0
H448 H 0.55191 0.65767 0.72752 0.0
H449 H 0.51941 0.66131 0.68306 0.0
H450 H 0.55106 0.62862 0.59384 0.0
H451 H 0.50512 0.61583 0.63085 0.0
H452 H 0.79861 0.64623 0.70855 0.0
H453 H 0.75479 0.63898 0.74582 0.0
H454 H 0.82576 0.70309 0.66283 0.0
H455 H 0.78969 0.69753 0.61776 0.0
C456 C 0.67952 0.13941 0.62671 0.0
C457 C 0.69018 0.19828 0.61029 0.0
C458 C 0.74871 0.26241 0.66894 0.0
C459 C 0.73465 0.20338 0.68574 0.0
N460 N 0.67618 1.08449 0.68306 0.0
N461 N 0.71947 0.31241 0.61823 0.0
C462 C 0.69683 0.14148 0.66534 0.0
C463 C 0.72047 0.2589 0.63215 0.0
N464 N 0.65607 1.08215 0.60542 0.0
N465 N 0.78976 0.32192 0.68806 0.0
H466 H 0.69622 0.31079 0.59204 0.0
H467 H 0.73511 0.35609 0.63392 0.0
H468 H 0.81061 0.32618 0.71528 0.0
H469 H 0.80769 0.36688 0.67602 0.0
H470 H 0.65548 1.04033 0.61527 0.0
H471 H 0.642 1.07728 0.57716 0.0
H472 H 0.64139 1.03806 0.67072 0.0
H473 H 0.69 1.08377 0.71103 0.0
C474 C 0.58345 0.45584 0.92877 0.0
C475 C 0.60919 0.52488 0.92598 0.0
C476 C 0.6059 0.5347 -0.00748 0.0
C477 C 0.59303 0.46901 -0.00442 0.0
N478 N 0.58967 0.37441 0.96599 0.0
N479 N 0.66242 0.63244 0.95945 0.0
C480 C 0.58837 0.43188 0.96356 0.0
C481 C 0.62545 0.56534 0.95903 0.0
N482 N 0.54972 0.41193 0.89906 0.0
N483 N 0.59764 0.56739 0.02088 0.0
H484 H 0.68428 0.65745 0.9368 0.0
H485 H 0.67887 0.66262 0.98379 0.0
H486 H 0.57927 0.54536 0.04498 0.0
H487 H 0.6016 0.6135 0.01846 0.0
H488 H 0.52742 0.36107 0.90103 0.0
H489 H 0.53462 0.42526 0.87451 0.0
H490 H 0.59141 0.34887 0.94294 0.0
H491 H 0.59682 0.3567 -0.00889 0.0
C492 C 0.19905 0.67283 0.299 0.0
C493 C 0.24086 0.72135 0.27611 0.0
C494 C 0.33425 0.76504 0.32566 0.0
C495 C 0.293 0.71531 0.34808 0.0
N496 N 0.18407 0.62941 0.35969 0.0
N497 N 0.34326 0.82128 0.26922 0.0
C498 C 0.22454 0.67165 0.33586 0.0
C499 C 0.30682 0.77025 0.2901 0.0
N500 N 1.13543 0.62685 0.28492 0.0
N501 N 0.40032 0.80548 0.33791 0.0
H502 H 0.32514 0.82552 0.24285 0.0
H503 H 0.38918 0.86205 0.27876 0.0
H504 H 0.42141 0.80439 0.36426 0.0
H505 H 0.4353 0.83779 0.32159 0.0
H506 H 1.10463 0.58501 0.29805 0.0
H507 H 1.11373 0.62947 0.25907 0.0
H508 H 1.13255 0.60066 0.354 0.0
H509 H 0.20147 0.62577 0.38649 0.0
loop_
_geom_bond_atom_site_label_1
_geom_bond_atom_site_label_2
_geom_bond_distance
_geom_bond_site_symmetry_2
_ccdc_geom_bond_type
Tb0 C10 2.825 . S
Tb0 O11 2.347 . S
Tb0 O14 2.366 . S
Tb0 O19 2.418 . S
Tb0 O20 2.384 1_455 S
Tb0 O23 2.479 . S
Tb0 O24 2.471 . S
Eu1 O12 2.418 . S
Eu1 O13 2.384 1_655 S
Eu1 O16 2.479 . S
Eu1 O17 2.471 . S
Eu1 O18 2.347 1_655 S
Eu1 O21 2.366 . S
Eu1 C31 2.825 . S
C2 O18 1.259 . S
C2 O19 1.265 . S
C3 O20 1.255 . S
C3 O21 1.265 . S
C4 C6 1.380 . S
C4 C7 1.374 . S
C4 C10 1.507 . S
C5 C6 1.384 . S
C5 C9 1.387 . S
C5 H32 0.930 . S
C6 C4 1.380 . S
C6 C5 1.384 . S
C6 H33 0.931 . S
C7 C4 1.374 . S
C7 C8 1.390 . S
C7 H34 0.930 . S
C8 C7 1.390 . S
C8 C9 1.391 . S
C8 H35 0.930 . S
C9 C5 1.387 . S
C9 C8 1.391 . S
C10 Tb0 2.825 . S
C10 C4 1.507 . S
C10 O23 1.238 . S
C10 O24 1.247 . S
O11 Tb0 2.347 . S
O11 C15 1.259 . S
O12 Eu1 2.418 . S
O12 C15 1.265 1_655 S
O13 Eu1 2.384 1_455 S
O13 C22 1.255 . S
O14 Tb0 2.366 . S
O14 C22 1.265 . S
C15 O11 1.259 . S
C15 O12 1.265 1_455 S
O16 Eu1 2.479 . S
O16 C31 1.238 . S
O17 Eu1 2.471 . S
O17 C31 1.247 . S
O18 Eu1 2.347 1_455 S
O18 C2 1.259 . S
O19 Tb0 2.418 . S
O19 C2 1.265 . S
O20 Tb0 2.384 1_655 S
O20 C3 1.255 . S
O21 Eu1 2.366 . S
O21 C3 1.265 . S
C22 O13 1.255 . S
C22 O14 1.265 . S
O23 Tb0 2.479 . S
O23 C10 1.238 . S
O24 Tb0 2.471 . S
O24 C10 1.247 . S
C25 C28 1.380 . S
C25 C29 1.374 . S
C25 C31 1.507 . S
C26 C27 1.387 . S
C26 C30 1.391 . S
C27 C26 1.387 . S
C27 C28 1.384 . S
C27 H36 0.930 . S
C28 C25 1.380 . S
C28 C27 1.384 . S
C28 H37 0.931 . S
C29 C25 1.374 . S
C29 C30 1.390 . S
C29 H38 0.930 . S
C30 C26 1.391 . S
C30 C29 1.390 . S
C30 H39 0.930 . S
C31 Eu1 2.825 . S
C31 O16 1.238 . S
C31 O17 1.247 . S
C31 C25 1.507 . S
H32 C5 0.930 . S
H33 C6 0.931 . S
H34 C7 0.930 . S
H35 C8 0.930 . S
H36 C27 0.930 . S
H37 C28 0.931 . S
H38 C29 0.930 . S
H39 C30 0.930 . S
Tb40 C50 2.825 . S
Tb40 O51 2.347 . S
Tb40 O54 2.366 . S
Tb40 O59 2.418 . S
Tb40 O60 2.385 1_545 S
Tb40 O63 2.479 . S
Tb40 O64 2.471 . S
Eu41 O52 2.418 . S
Eu41 O53 2.384 . S
Eu41 O56 2.479 1_545 S
Eu41 O57 2.471 1_545 S
Eu41 O58 2.347 . S
Eu41 O61 2.366 1_545 S
Eu41 C71 2.825 1_545 S
C42 O58 1.259 . S
C42 O59 1.265 . S
C43 O60 1.255 . S
C43 O61 1.265 . S
C44 C46 1.380 . S
C44 C47 1.374 . S
C44 C50 1.507 . S
C45 C46 1.384 . S
C45 C49 1.387 . S
C45 H72 0.930 . S
C46 C44 1.380 . S
C46 C45 1.384 . S
C46 H73 0.931 . S
C47 C44 1.374 . S
C47 C48 1.390 . S
C47 H74 0.930 . S
C48 C47 1.390 . S
C48 C49 1.391 . S
C48 H75 0.930 . S
C49 C45 1.387 . S
C49 C48 1.391 . S
C50 Tb40 2.825 . S
C50 C44 1.507 . S
C50 O63 1.238 . S
C50 O64 1.247 . S
O51 Tb40 2.347 . S
O51 C55 1.259 . S
O52 Eu41 2.418 . S
O52 C55 1.265 . S
O53 Eu41 2.384 . S
O53 C62 1.255 . S
O54 Tb40 2.366 . S
O54 C62 1.265 . S
C55 O51 1.259 . S
C55 O52 1.265 . S
O56 Eu41 2.479 1_565 S
O56 C71 1.238 . S
O57 Eu41 2.471 1_565 S
O57 C71 1.247 . S
O58 Eu41 2.347 . S
O58 C42 1.259 . S
O59 Tb40 2.418 . S
O59 C42 1.265 . S
O60 Tb40 2.385 1_565 S
O60 C43 1.255 . S
O61 Eu41 2.366 1_565 S
O61 C43 1.265 . S
C62 O53 1.255 . S
C62 O54 1.265 . S
O63 Tb40 2.479 . S
O63 C50 1.238 . S
O64 Tb40 2.471 . S
O64 C50 1.247 . S
C65 C68 1.380 . S
C65 C69 1.374 . S
C65 C71 1.507 . S
C66 C67 1.387 . S
C66 C70 1.391 . S
C67 C66 1.387 . S
C67 C68 1.384 . S
C67 H76 0.930 . S
C68 C65 1.380 . S
C68 C67 1.384 . S
C68 H77 0.931 . S
C69 C65 1.374 . S
C69 C70 1.390 . S
C69 H78 0.930 . S
C70 C66 1.391 . S
C70 C69 1.390 . S
C70 H79 0.930 . S
C71 Eu41 2.825 1_565 S
C71 O56 1.238 . S
C71 O57 1.247 . S
C71 C65 1.507 . S
H72 C45 0.930 . S
H73 C46 0.931 . S
H74 C47 0.930 . S
H75 C48 0.930 . S
H76 C67 0.930 . S
H77 C68 0.931 . S
H78 C69 0.930 . S
H79 C70 0.930 . S
Tb80 C90 2.825 . S
Tb80 O91 2.347 . S
Tb80 O94 2.366 . S
Tb80 O99 2.418 . S
Tb80 O100 2.384 . S
Tb80 O103 2.479 . S
Tb80 O104 2.471 . S
Eu81 O92 2.418 . S
Eu81 O93 2.384 . S
Eu81 O96 2.479 . S
Eu81 O97 2.471 . S
Eu81 O98 2.347 . S
Eu81 O101 2.366 . S
Eu81 C111 2.825 . S
C82 O98 1.259 . S
C82 O99 1.265 . S
C83 O100 1.255 . S
C83 O101 1.265 . S
C84 C86 1.380 . S
C84 C87 1.374 . S
C84 C90 1.507 . S
C85 C86 1.384 . S
C85 C89 1.387 . S
C85 H112 0.930 . S
C86 C84 1.380 . S
C86 C85 1.384 . S
C86 H113 0.931 . S
C87 C84 1.374 . S
C87 C88 1.390 . S
C87 H114 0.930 . S
C88 C87 1.390 . S
C88 C89 1.391 . S
C88 H115 0.930 . S
C89 C85 1.387 . S
C89 C88 1.391 . S
C90 Tb80 2.825 . S
C90 C84 1.507 . S
C90 O103 1.238 . S
C90 O104 1.247 . S
O91 Tb80 2.347 . S
O91 C95 1.259 . S
O92 Eu81 2.418 . S
O92 C95 1.265 . S
O93 Eu81 2.384 . S
O93 C102 1.255 . S
O94 Tb80 2.366 . S
O94 C102 1.265 . S
C95 O91 1.259 . S
C95 O92 1.265 . S
O96 Eu81 2.479 . S
O96 C111 1.238 . S
O97 Eu81 2.471 . S
O97 C111 1.247 . S
O98 Eu81 2.347 . S
O98 C82 1.259 . S
O99 Tb80 2.418 . S
O99 C82 1.265 . S
O100 Tb80 2.384 . S
O100 C83 1.255 . S
O101 Eu81 2.366 . S
O101 C83 1.265 . S
C102 O93 1.255 . S
C102 O94 1.265 . S
O103 Tb80 2.479 . S
O103 C90 1.238 . S
O104 Tb80 2.471 . S
O104 C90 1.247 . S
C105 C108 1.380 . S
C105 C109 1.374 . S
C105 C111 1.507 . S
C106 C107 1.387 . S
C106 C110 1.391 . S
C107 C106 1.387 . S
C107 C108 1.384 . S
C107 H116 0.930 . S
C108 C105 1.380 . S
C108 C107 1.384 . S
C108 H117 0.931 . S
C109 C105 1.374 . S
C109 C110 1.390 . S
C109 H118 0.930 . S
C110 C106 1.391 . S
C110 C109 1.390 . S
C110 H119 0.930 . S
C111 Eu81 2.825 . S
C111 O96 1.238 . S
C111 O97 1.247 . S
C111 C105 1.507 . S
H112 C85 0.930 . S
H113 C86 0.931 . S
H114 C87 0.930 . S
H115 C88 0.930 . S
H116 C107 0.930 . S
H117 C108 0.931 . S
H118 C109 0.930 . S
H119 C110 0.930 . S
H120 C123 0.929 . S
H121 C126 0.929 . S
H122 C128 0.930 . S
C123 H120 0.929 . S
C123 C124 1.398 . S
C123 C125 1.396 1_565 S
C124 C123 1.398 . S
C124 C128 1.407 1_565 S
C125 C123 1.396 1_545 S
C125 C126 1.394 . S
C126 H121 0.929 . S
C126 C125 1.394 . S
C126 C127 1.382 . S
C127 C126 1.382 . S
C127 C128 1.392 . S
C127 N129 1.420 . S
C128 H122 0.930 . S
C128 C124 1.407 1_545 S
C128 C127 1.392 . S
N129 C127 1.420 . S
N129 C130 1.244 . S
C130 N129 1.244 . S
H131 C134 0.929 . S
H132 C137 0.929 . S
H133 C139 0.930 . S
C134 H131 0.929 . S
C134 C135 1.398 . S
C134 C136 1.396 . S
C135 C134 1.398 . S
C135 C139 1.407 . S
C136 C134 1.396 . S
C136 C137 1.394 . S
C137 H132 0.929 . S
C137 C136 1.394 . S
C137 C138 1.382 . S
C138 C137 1.382 . S
C138 C139 1.392 . S
C138 N140 1.420 . S
C139 H133 0.930 . S
C139 C135 1.407 . S
C139 C138 1.392 . S
N140 C138 1.420 . S
N140 C141 1.244 . S
C141 N140 1.244 . S
H142 C145 0.929 . S
H143 C148 0.929 . S
H144 C150 0.930 . S
C145 H142 0.929 . S
C145 C146 1.398 . S
C145 C147 1.396 1_655 S
C146 C145 1.398 . S
C146 C150 1.407 . S
C147 C145 1.396 1_455 S
C147 C148 1.394 . S
C148 H143 0.929 . S
C148 C147 1.394 . S
C148 C149 1.382 . S
C149 C148 1.382 . S
C149 C150 1.392 1_455 S
C149 N151 1.420 . S
C150 H144 0.930 . S
C150 C146 1.407 . S
C150 C149 1.392 1_655 S
N151 C149 1.420 . S
N151 C152 1.244 . S
C152 N151 1.244 . S
H153 C156 0.929 . S
H154 C159 0.929 . S
H155 C161 0.930 . S
C156 H153 0.929 . S
C156 C157 1.398 . S
C156 C158 1.396 . S
C157 C156 1.398 . S
C157 C161 1.407 . S
C158 C156 1.396 . S
C158 C159 1.394 1_455 S
C159 H154 0.929 . S
C159 C158 1.394 1_655 S
C159 C160 1.382 1_655 S
C160 C159 1.382 1_455 S
C160 C161 1.392 . S
C160 N162 1.420 1_455 S
C161 H155 0.930 . S
C161 C157 1.407 . S
C161 C160 1.392 . S
N162 C160 1.420 1_655 S
N162 C163 1.244 . S
C163 N162 1.244 . S
H164 C167 0.929 . S
H165 C170 0.929 . S
H166 C172 0.930 . S
C167 H164 0.929 . S
C167 C168 1.398 . S
C167 C169 1.396 . S
C168 C167 1.398 . S
C168 C172 1.407 . S
C169 C167 1.396 . S
C169 C170 1.394 1_545 S
C170 H165 0.929 . S
C170 C169 1.394 1_565 S
C170 C171 1.382 1_565 S
C171 C170 1.382 1_545 S
C171 C172 1.392 . S
C171 N173 1.420 1_545 S
C172 H166 0.930 . S
C172 C168 1.407 . S
C172 C171 1.392 . S
N173 C171 1.420 1_565 S
N173 C174 1.244 . S
C174 N173 1.244 . S
H175 C178 0.929 . S
H176 C181 0.929 . S
H177 C183 0.930 . S
C178 H175 0.929 . S
C178 C179 1.398 . S
C178 C180 1.396 . S
C179 C178 1.398 . S
C179 C183 1.407 . S
C180 C178 1.396 . S
C180 C181 1.394 . S
C181 H176 0.929 . S
C181 C180 1.394 . S
C181 C182 1.382 . S
C182 C181 1.382 . S
C182 C183 1.392 . S
C182 N184 1.420 . S
C183 H177 0.930 . S
C183 C179 1.407 . S
C183 C182 1.392 . S
N184 C182 1.420 . S
N184 C185 1.244 . S
C185 N184 1.244 . S
C186 C187 1.363 . S
C186 C192 1.379 . S
C186 N194 1.356 . S
C187 C186 1.363 . S
C187 C193 1.363 . S
C188 C189 1.363 . S
C188 C193 1.379 . S
C188 N195 1.356 . S
C189 C188 1.363 . S
C189 C192 1.363 . S
N190 C192 1.356 . S
N190 H202 0.984 . S
N190 H203 0.985 . S
N191 C193 1.356 . S
N191 H196 0.984 . S
N191 H197 0.985 . S
C192 C186 1.379 . S
C192 C189 1.363 . S
C192 N190 1.356 . S
C193 C187 1.363 . S
C193 C188 1.379 . S
C193 N191 1.356 . S
N194 C186 1.356 . S
N194 H200 0.984 . S
N194 H201 0.984 . S
N195 C188 1.356 . S
N195 H198 0.984 . S
N195 H199 0.985 . S
H196 N191 0.984 . S
H197 N191 0.985 . S
H198 N195 0.984 . S
H199 N195 0.985 . S
H200 N194 0.984 . S
H201 N194 0.984 . S
H202 N190 0.984 . S
H203 N190 0.985 . S
C204 C205 1.363 . S
C204 C210 1.379 . S
C204 N212 1.356 . S
C205 C204 1.363 . S
C205 C211 1.363 . S
C206 C207 1.363 . S
C206 C211 1.379 . S
C206 N213 1.356 . S
C207 C206 1.363 . S
C207 C210 1.363 . S
N208 C210 1.356 . S
N208 H220 0.984 . S
N208 H221 0.985 . S
N209 C211 1.356 . S
N209 H214 0.984 . S
N209 H215 0.985 . S
C210 C204 1.379 . S
C210 C207 1.363 . S
C210 N208 1.356 . S
C211 C205 1.363 . S
C211 C206 1.379 . S
C211 N209 1.356 . S
N212 C204 1.356 . S
N212 H218 0.984 . S
N212 H219 0.984 . S
N213 C206 1.356 . S
N213 H216 0.984 . S
N213 H217 0.985 . S
H214 N209 0.984 . S
H215 N209 0.985 . S
H216 N213 0.984 . S
H217 N213 0.985 . S
H218 N212 0.984 . S
H219 N212 0.984 . S
H220 N208 0.984 . S
H221 N208 0.985 . S
C222 C223 1.363 . S
C222 C228 1.379 . S
C222 N230 1.356 . S
C223 C222 1.363 . S
C223 C229 1.363 . S
C224 C225 1.363 . S
C224 C229 1.379 . S
C224 N231 1.356 . S
C225 C224 1.363 . S
C225 C228 1.363 . S
N226 C228 1.356 . S
N226 H238 0.984 . S
N226 H239 0.985 . S
N227 C229 1.356 . S
N227 H232 0.984 . S
N227 H233 0.985 . S
C228 C222 1.379 . S
C228 C225 1.363 . S
C228 N226 1.356 . S
C229 C223 1.363 . S
C229 C224 1.379 . S
C229 N227 1.356 . S
N230 C222 1.356 . S
N230 H236 0.984 . S
N230 H237 0.984 . S
N231 C224 1.356 . S
N231 H234 0.984 . S
N231 H235 0.985 . S
H232 N227 0.984 . S
H233 N227 0.985 . S
H234 N231 0.984 . S
H235 N231 0.985 . S
H236 N230 0.984 . S
H237 N230 0.984 . S
H238 N226 0.984 . S
H239 N226 0.985 . S
C240 C241 1.363 . S
C240 C246 1.379 . S
C240 N248 1.356 . S
C241 C240 1.363 . S
C241 C247 1.363 . S
C242 C243 1.363 . S
C242 C247 1.379 . S
C242 N249 1.356 . S
C243 C242 1.363 . S
C243 C246 1.363 . S
N244 C246 1.356 . S
N244 H256 0.984 . S
N244 H257 0.985 . S
N245 C247 1.356 . S
N245 H250 0.984 . S
N245 H251 0.985 . S
C246 C240 1.379 . S
C246 C243 1.363 . S
C246 N244 1.356 . S
C247 C241 1.363 . S
C247 C242 1.379 . S
C247 N245 1.356 . S
N248 C240 1.356 . S
N248 H254 0.984 . S
N248 H255 0.984 . S
N249 C242 1.356 . S
N249 H252 0.984 . S
N249 H253 0.985 . S
H250 N245 0.984 . S
H251 N245 0.985 . S
H252 N249 0.984 . S
H253 N249 0.985 . S
H254 N248 0.984 . S
H255 N248 0.984 . S
H256 N244 0.984 . S
H257 N244 0.985 . S
C258 C259 1.363 . S
C258 C264 1.379 . S
C258 N266 1.356 . S
C259 C258 1.363 . S
C259 C265 1.363 . S
C260 C261 1.363 . S
C260 C265 1.379 . S
C260 N267 1.356 . S
C261 C260 1.363 . S
C261 C264 1.363 . S
N262 C264 1.356 . S
N262 H274 0.984 . S
N262 H275 0.985 . S
N263 C265 1.356 . S
N263 H268 0.984 . S
N263 H269 0.985 . S
C264 C258 1.379 . S
C264 C261 1.363 . S
C264 N262 1.356 . S
C265 C259 1.363 . S
C265 C260 1.379 . S
C265 N263 1.356 . S
N266 C258 1.356 . S
N266 H272 0.984 . S
N266 H273 0.984 . S
N267 C260 1.356 . S
N267 H270 0.984 . S
N267 H271 0.985 . S
H268 N263 0.984 . S
H269 N263 0.985 . S
H270 N267 0.984 . S
H271 N267 0.985 . S
H272 N266 0.984 . S
H273 N266 0.984 . S
H274 N262 0.984 . S
H275 N262 0.985 . S
C276 C277 1.363 . S
C276 C282 1.379 . S
C276 N284 1.356 . S
C277 C276 1.363 . S
C277 C283 1.363 . S
C278 C279 1.363 . S
C278 C283 1.379 . S
C278 N285 1.356 . S
C279 C278 1.363 . S
C279 C282 1.363 . S
N280 C282 1.356 . S
N280 H292 0.984 . S
N280 H293 0.985 . S
N281 C283 1.356 . S
N281 H286 0.984 . S
N281 H287 0.985 . S
C282 C276 1.379 . S
C282 C279 1.363 . S
C282 N280 1.356 . S
C283 C277 1.363 . S
C283 C278 1.379 . S
C283 N281 1.356 . S
N284 C276 1.356 . S
N284 H290 0.984 . S
N284 H291 0.984 . S
N285 C278 1.356 . S
N285 H288 0.984 . S
N285 H289 0.985 . S
H286 N281 0.984 . S
H287 N281 0.985 . S
H288 N285 0.984 . S
H289 N285 0.985 . S
H290 N284 0.984 . S
H291 N284 0.984 . S
H292 N280 0.984 . S
H293 N280 0.985 . S
C294 C295 1.363 . S
C294 C300 1.379 . S
C294 N302 1.356 . S
C295 C294 1.363 . S
C295 C301 1.363 . S
C296 C297 1.363 . S
C296 C301 1.379 . S
C296 N303 1.356 . S
C297 C296 1.363 . S
C297 C300 1.363 . S
N298 C300 1.356 . S
N298 H310 0.984 . S
N298 H311 0.985 . S
N299 C301 1.356 . S
N299 H304 0.984 . S
N299 H305 0.985 . S
C300 C294 1.379 . S
C300 C297 1.363 . S
C300 N298 1.356 . S
C301 C295 1.363 . S
C301 C296 1.379 . S
C301 N299 1.356 . S
N302 C294 1.356 . S
N302 H308 0.984 . S
N302 H309 0.984 . S
N303 C296 1.356 . S
N303 H306 0.984 . S
N303 H307 0.985 . S
H304 N299 0.984 . S
H305 N299 0.985 . S
H306 N303 0.984 . S
H307 N303 0.985 . S
H308 N302 0.984 . S
H309 N302 0.984 . S
H310 N298 0.984 . S
H311 N298 0.985 . S
C312 C313 1.363 . S
C312 C318 1.379 . S
C312 N320 1.356 . S
C313 C312 1.363 . S
C313 C319 1.363 . S
C314 C315 1.363 . S
C314 C319 1.379 . S
C314 N321 1.356 . S
C315 C314 1.363 . S
C315 C318 1.363 . S
N316 C318 1.356 . S
N316 H328 0.984 . S
N316 H329 0.985 . S
N317 C319 1.356 . S
N317 H322 0.984 . S
N317 H323 0.985 . S
C318 C312 1.379 . S
C318 C315 1.363 . S
C318 N316 1.356 . S
C319 C313 1.363 . S
C319 C314 1.379 . S
C319 N317 1.356 . S
N320 C312 1.356 . S
N320 H326 0.984 . S
N320 H327 0.984 . S
N321 C314 1.356 . S
N321 H324 0.984 . S
N321 H325 0.985 . S
H322 N317 0.984 . S
H323 N317 0.985 . S
H324 N321 0.984 . S
H325 N321 0.985 . S
H326 N320 0.984 . S
H327 N320 0.984 . S
H328 N316 0.984 . S
H329 N316 0.985 . S
C330 C331 1.363 . S
C330 C336 1.379 . S
C330 N338 1.356 . S
C331 C330 1.363 . S
C331 C337 1.363 . S
C332 C333 1.363 . S
C332 C337 1.379 . S
C332 N339 1.356 . S
C333 C332 1.363 . S
C333 C336 1.363 . S
N334 C336 1.356 . S
N334 H346 0.984 . S
N334 H347 0.985 . S
N335 C337 1.356 . S
N335 H340 0.984 . S
N335 H341 0.985 . S
C336 C330 1.379 . S
C336 C333 1.363 . S
C336 N334 1.356 . S
C337 C331 1.363 . S
C337 C332 1.379 . S
C337 N335 1.356 . S
N338 C330 1.356 . S
N338 H344 0.984 . S
N338 H345 0.984 . S
N339 C332 1.356 . S
N339 H342 0.984 . S
N339 H343 0.985 . S
H340 N335 0.984 . S
H341 N335 0.985 . S
H342 N339 0.984 . S
H343 N339 0.985 . S
H344 N338 0.984 . S
H345 N338 0.984 . S
H346 N334 0.984 . S
H347 N334 0.985 . S
C348 C349 1.363 . S
C348 C354 1.379 . S
C348 N356 1.356 . S
C349 C348 1.363 . S
C349 C355 1.363 . S
C350 C351 1.363 . S
C350 C355 1.379 . S
C350 N357 1.356 . S
C351 C350 1.363 . S
C351 C354 1.363 . S
N352 C354 1.356 . S
N352 H364 0.984 . S
N352 H365 0.985 . S
N353 C355 1.356 . S
N353 H358 0.984 . S
N353 H359 0.985 . S
C354 C348 1.379 . S
C354 C351 1.363 . S
C354 N352 1.356 . S
C355 C349 1.363 . S
C355 C350 1.379 . S
C355 N353 1.356 . S
N356 C348 1.356 . S
N356 H362 0.984 . S
N356 H363 0.984 . S
N357 C350 1.356 . S
N357 H360 0.984 . S
N357 H361 0.985 . S
H358 N353 0.984 . S
H359 N353 0.985 . S
H360 N357 0.984 . S
H361 N357 0.985 . S
H362 N356 0.984 . S
H363 N356 0.984 . S
H364 N352 0.984 . S
H365 N352 0.985 . S
C366 C367 1.363 . S
C366 C372 1.379 . S
C366 N374 1.356 . S
C367 C366 1.363 . S
C367 C373 1.363 . S
C368 C369 1.363 . S
C368 C373 1.379 . S
C368 N375 1.356 . S
C369 C368 1.363 . S
C369 C372 1.363 . S
N370 C372 1.356 . S
N370 H382 0.984 . S
N370 H383 0.985 . S
N371 C373 1.356 . S
N371 H376 0.984 . S
N371 H377 0.985 . S
C372 C366 1.379 . S
C372 C369 1.363 . S
C372 N370 1.356 . S
C373 C367 1.363 . S
C373 C368 1.379 . S
C373 N371 1.356 . S
N374 C366 1.356 . S
N374 H380 0.984 . S
N374 H381 0.984 . S
N375 C368 1.356 . S
N375 H378 0.984 . S
N375 H379 0.985 . S
H376 N371 0.984 . S
H377 N371 0.985 . S
H378 N375 0.984 . S
H379 N375 0.985 . S
H380 N374 0.984 . S
H381 N374 0.984 . S
H382 N370 0.984 . S
H383 N370 0.985 . S
C384 C385 1.363 . S
C384 C390 1.379 . S
C384 N392 1.356 . S
C385 C384 1.363 . S
C385 C391 1.363 . S
C386 C387 1.363 . S
C386 C391 1.379 . S
C386 N393 1.356 . S
C387 C386 1.363 . S
C387 C390 1.363 . S
N388 C390 1.356 . S
N388 H400 0.984 . S
N388 H401 0.985 . S
N389 C391 1.356 . S
N389 H394 0.984 . S
N389 H395 0.985 . S
C390 C384 1.379 . S
C390 C387 1.363 . S
C390 N388 1.356 . S
C391 C385 1.363 . S
C391 C386 1.379 . S
C391 N389 1.356 . S
N392 C384 1.356 . S
N392 H398 0.984 . S
N392 H399 0.984 . S
N393 C386 1.356 . S
N393 H396 0.984 . S
N393 H397 0.985 . S
H394 N389 0.984 . S
H395 N389 0.985 . S
H396 N393 0.984 . S
H397 N393 0.985 . S
H398 N392 0.984 . S
H399 N392 0.984 . S
H400 N388 0.984 . S
H401 N388 0.985 . S
C402 C403 1.363 . S
C402 C408 1.379 1_554 S
C402 N410 1.356 . S
C403 C402 1.363 . S
C403 C409 1.363 . S
C404 C405 1.363 1_554 S
C404 C409 1.379 . S
C404 N411 1.356 1_554 S
C405 C404 1.363 1_556 S
C405 C408 1.363 . S
N406 C408 1.356 . S
N406 H418 0.975 1_455 S
N406 H419 0.985 . S
N407 C409 1.356 . S
N407 H412 0.984 . S
N407 H413 0.985 . S
C408 C402 1.379 1_556 S
C408 C405 1.363 . S
C408 N406 1.356 . S
C409 C403 1.363 . S
C409 C404 1.379 . S
C409 N407 1.356 . S
N410 C402 1.356 . S
N410 H416 0.984 . S
N410 H417 0.984 . S
N411 C404 1.356 1_556 S
N411 H414 0.984 . S
N411 H415 0.985 . S
H412 N407 0.984 . S
H413 N407 0.985 . S
H414 N411 0.984 . S
H415 N411 0.985 . S
H416 N410 0.984 . S
H417 N410 0.984 . S
H418 N406 0.975 1_655 S
H419 N406 0.985 . S
C420 C421 1.363 . S
C420 C426 1.379 . S
C420 N428 1.356 1_545 S
C421 C420 1.363 . S
C421 C427 1.363 . S
C422 C423 1.363 . S
C422 C427 1.379 . S
C422 N429 1.356 . S
C423 C422 1.363 . S
C423 C426 1.363 . S
N424 C426 1.356 1_565 S
N424 H436 0.984 . S
N424 H437 0.985 . S
N425 C427 1.356 . S
N425 H430 0.984 . S
N425 H431 0.985 . S
C426 C420 1.379 . S
C426 C423 1.363 . S
C426 N424 1.356 1_545 S
C427 C421 1.363 . S
C427 C422 1.379 . S
C427 N425 1.356 . S
N428 C420 1.356 1_565 S
N428 H434 0.984 . S
N428 H435 0.984 . S
N429 C422 1.356 . S
N429 H432 0.984 . S
N429 H433 0.985 . S
H430 N425 0.984 . S
H431 N425 0.985 . S
H432 N429 0.984 . S
H433 N429 0.985 . S
H434 N428 0.984 . S
H435 N428 0.984 . S
H436 N424 0.984 . S
H437 N424 0.985 . S
C438 C439 1.363 . S
C438 C444 1.379 . S
C438 N446 1.356 . S
C439 C438 1.363 . S
C439 C445 1.363 . S
C440 C441 1.363 . S
C440 C445 1.379 . S
C440 N447 1.356 . S
C441 C440 1.363 . S
C441 C444 1.363 . S
N442 C444 1.356 . S
N442 H454 0.984 . S
N442 H455 0.985 . S
N443 C445 1.356 . S
N443 H448 0.984 . S
N443 H449 0.985 . S
C444 C438 1.379 . S
C444 C441 1.363 . S
C444 N442 1.356 . S
C445 C439 1.363 . S
C445 C440 1.379 . S
C445 N443 1.356 . S
N446 C438 1.356 . S
N446 H452 0.984 . S
N446 H453 0.984 . S
N447 C440 1.356 . S
N447 H450 0.984 . S
N447 H451 0.985 . S
H448 N443 0.984 . S
H449 N443 0.985 . S
H450 N447 0.984 . S
H451 N447 0.985 . S
H452 N446 0.984 . S
H453 N446 0.984 . S
H454 N442 0.984 . S
H455 N442 0.985 . S
C456 C457 1.363 . S
C456 C462 1.379 1_545 S
C456 N464 1.356 1_545 S
C457 C456 1.363 . S
C457 C463 1.363 . S
C458 C459 1.363 . S
C458 C463 1.379 . S
C458 N465 1.356 . S
C459 C458 1.363 . S
C459 C462 1.363 1_545 S
N460 C462 1.356 . S
N460 H472 0.984 . S
N460 H473 0.985 . S
N461 C463 1.356 . S
N461 H466 0.984 . S
N461 H467 0.985 . S
C462 C456 1.379 1_565 S
C462 C459 1.363 1_565 S
C462 N460 1.356 . S
C463 C457 1.363 . S
C463 C458 1.379 . S
C463 N461 1.356 . S
N464 C456 1.356 1_565 S
N464 H470 0.984 . S
N464 H471 0.984 . S
N465 C458 1.356 . S
N465 H468 0.984 . S
N465 H469 0.985 . S
H466 N461 0.984 . S
H467 N461 0.985 . S
H468 N465 0.984 . S
H469 N465 0.985 . S
H470 N464 0.984 . S
H471 N464 0.984 . S
H472 N460 0.984 . S
H473 N460 0.985 . S
C474 C475 1.363 . S
C474 C480 1.379 . S
C474 N482 1.356 . S
C475 C474 1.363 . S
C475 C481 1.363 . S
C476 C477 1.363 . S
C476 C481 1.379 1_554 S
C476 N483 1.356 . S
C477 C476 1.363 . S
C477 C480 1.363 1_554 S
N478 C480 1.356 1_554 S
N478 H490 0.984 1_554 S
N478 H491 0.985 . S
N479 C481 1.356 . S
N479 H484 0.984 . S
N479 H485 0.985 . S
C480 C474 1.379 . S
C480 C477 1.363 1_556 S
C480 N478 1.356 1_556 S
C481 C475 1.363 . S
C481 C476 1.379 1_556 S
C481 N479 1.356 . S
N482 C474 1.356 . S
N482 H488 0.984 . S
N482 H489 0.984 . S
N483 C476 1.356 . S
N483 H486 0.984 . S
N483 H487 0.985 . S
H484 N479 0.984 . S
H485 N479 0.985 . S
H486 N483 0.984 . S
H487 N483 0.985 . S
H488 N482 0.984 . S
H489 N482 0.984 . S
H490 N478 0.984 1_556 S
H491 N478 0.985 . S
C492 C493 1.363 1_655 S
C492 C498 1.379 . S
C492 N500 1.356 . S
C493 C492 1.363 1_455 S
C493 C499 1.363 . S
C494 C495 1.363 . S
C494 C499 1.379 . S
C494 N501 1.356 . S
C495 C494 1.363 . S
C495 C498 1.363 1_455 S
N496 C498 1.356 . S
N496 H508 0.984 . S
N496 H509 0.985 . S
N497 C499 1.356 . S
N497 H502 0.984 . S
N497 H503 0.985 . S
C498 C492 1.379 . S
C498 C495 1.363 1_655 S
C498 N496 1.356 . S
C499 C493 1.363 . S
C499 C494 1.379 . S
C499 N497 1.356 . S
N500 C492 1.356 . S
N500 H506 0.984 . S
N500 H507 0.984 . S
N501 C494 1.356 . S
N501 H504 0.984 . S
N501 H505 0.985 . S
H502 N497 0.984 . S
H503 N497 0.985 . S
H504 N501 0.984 . S
H505 N501 0.985 . S
H506 N500 0.984 . S
H507 N500 0.984 . S
H508 N496 0.984 . S
H509 N496 0.985 . S
C187 C9 0.869 . S
C189 C185 0.920 . S
C205 C49 0.675 . S
C207 C163 0.631 . S
C223 C89 0.611 . S
C225 C174 0.549 . S
C241 C26 0.719 . S
C243 C179 0.698 . S
C261 C157 0.545 . S
C259 C66 0.655 . S
C279 C168 0.676 . S
C277 C106 0.717 . S
C295 C43 3.081 . S
C297 C141 3.013 . S
C313 C83 3.056 . S
C315 C146 3.002 . S
C331 C22 3.086 . S
C333 C124 3.024 . S
C351 C135 3.028 . S
C349 C62 3.085 . S
C369 C152 3.024 . S
C367 C102 3.099 . S
C385 C3 3.085 . S
C387 C130 3.023 . S
C405 C147 1.763 . S
C403 C15 1.734 . S
C421 C55 1.768 . S
C423 C125 1.788 . S
C439 C95 1.754 . S
C441 C136 1.787 . S
C459 C169 1.105 . S
C457 C42 1.088 . S
C477 C180 1.143 . S
C475 C82 1.146 . S
C493 C2 1.077 . S
C495 C158 1.097 . S
