# Generated by pormake.
# Topology sqc, (4,8)-cn, num edge types: 1
# Building blocks:
#     Node 0, Type 0, BuildingBlock: MIFKUJ_clean_linker_1, # of connection points: 4
#     Node 1, Type 0, BuildingBlock: MIFKUJ_clean_linker_1, # of connection points: 4
#     Node 2, Type 0, BuildingBlock: MIFKUJ_clean_linker_1, # of connection points: 4
#     Node 3, Type 0, BuildingBlock: MIFKUJ_clean_linker_1, # of connection points: 4
#     Node 4, Type 0, BuildingBlock: MIFKUJ_clean_linker_1, # of connection points: 4
#     Node 5, Type 0, BuildingBlock: MIFKUJ_clean_linker_1, # of connection points: 4
#     Node 6, Type 0, BuildingBlock: MIFKUJ_clean_linker_1, # of connection points: 4
#     Node 7, Type 0, BuildingBlock: MIFKUJ_clean_linker_1, # of connection points: 4
#     Node 8, Type 1, BuildingBlock: TAGTUT_clean_sbu_3, # of connection points: 8
#     Node 9, Type 1, BuildingBlock: TAGTUT_clean_sbu_3, # of connection points: 8
#     Node 10, Type 1, BuildingBlock: TAGTUT_clean_sbu_3, # of connection points: 8
#     Node 11, Type 1, BuildingBlock: TAGTUT_clean_sbu_3, # of connection points: 8
#     Edge 12, Type (0, 1), BuildingBlock: KIFKEQ_clean_linker_1, # of connection points: 2
#     Edge 13, Type (0, 1), BuildingBlock: KIFKEQ_clean_linker_1, # of connection points: 2
#     Edge 14, Type (0, 1), BuildingBlock: KIFKEQ_clean_linker_1, # of connection points: 2
#     Edge 15, Type (0, 1), BuildingBlock: KIFKEQ_clean_linker_1, # of connection points: 2
#     Edge 16, Type (0, 1), BuildingBlock: KIFKEQ_clean_linker_1, # of connection points: 2
#     Edge 17, Type (0, 1), BuildingBlock: KIFKEQ_clean_linker_1, # of connection points: 2
#     Edge 18, Type (0, 1), BuildingBlock: KIFKEQ_clean_linker_1, # of connection points: 2
#     Edge 19, Type (0, 1), BuildingBlock: KIFKEQ_clean_linker_1, # of connection points: 2
#     Edge 20, Type (0, 1), BuildingBlock: KIFKEQ_clean_linker_1, # of connection points: 2
#     Edge 21, Type (0, 1), BuildingBlock: KIFKEQ_clean_linker_1, # of connection points: 2
#     Edge 22, Type (0, 1), BuildingBlock: KIFKEQ_clean_linker_1, # of connection points: 2
#     Edge 23, Type (0, 1), BuildingBlock: KIFKEQ_clean_linker_1, # of connection points: 2
#     Edge 24, Type (0, 1), BuildingBlock: KIFKEQ_clean_linker_1, # of connection points: 2
#     Edge 25, Type (0, 1), BuildingBlock: KIFKEQ_clean_linker_1, # of connection points: 2
#     Edge 26, Type (0, 1), BuildingBlock: KIFKEQ_clean_linker_1, # of connection points: 2
#     Edge 27, Type (0, 1), BuildingBlock: KIFKEQ_clean_linker_1, # of connection points: 2
#     Edge 28, Type (0, 1), BuildingBlock: KIFKEQ_clean_linker_1, # of connection points: 2
#     Edge 29, Type (0, 1), BuildingBlock: KIFKEQ_clean_linker_1, # of connection points: 2
#     Edge 30, Type (0, 1), BuildingBlock: KIFKEQ_clean_linker_1, # of connection points: 2
#     Edge 31, Type (0, 1), BuildingBlock: KIFKEQ_clean_linker_1, # of connection points: 2
#     Edge 32, Type (0, 1), BuildingBlock: KIFKEQ_clean_linker_1, # of connection points: 2
#     Edge 33, Type (0, 1), BuildingBlock: KIFKEQ_clean_linker_1, # of connection points: 2
#     Edge 34, Type (0, 1), BuildingBlock: KIFKEQ_clean_linker_1, # of connection points: 2
#     Edge 35, Type (0, 1), BuildingBlock: KIFKEQ_clean_linker_1, # of connection points: 2
#     Edge 36, Type (0, 1), BuildingBlock: KIFKEQ_clean_linker_1, # of connection points: 2
#     Edge 37, Type (0, 1), BuildingBlock: KIFKEQ_clean_linker_1, # of connection points: 2
#     Edge 38, Type (0, 1), BuildingBlock: KIFKEQ_clean_linker_1, # of connection points: 2
#     Edge 39, Type (0, 1), BuildingBlock: KIFKEQ_clean_linker_1, # of connection points: 2
#     Edge 40, Type (0, 1), BuildingBlock: KIFKEQ_clean_linker_1, # of connection points: 2
#     Edge 41, Type (0, 1), BuildingBlock: KIFKEQ_clean_linker_1, # of connection points: 2
#     Edge 42, Type (0, 1), BuildingBlock: KIFKEQ_clean_linker_1, # of connection points: 2
#     Edge 43, Type (0, 1), BuildingBlock: KIFKEQ_clean_linker_1, # of connection points: 2
# Relax obj value: 0.149
# Max RMSD: 0.261
# Mean RMSD: 0.181
data_MOF--net-sqc--node1-TAGTUT_clean_sbu_3--node2-MIFKUJ_clean_linker_1--edge1-KIFKEQ_clean_linker_1
_symmetry_space_group_name_H-M    P1
_symmetry_Int_Tables_number       1
_symmetry_cell_setting            triclinic
loop_
_symmetry_equiv_pos_as_xyz
'x, y, z'
_cell_length_a     28.816036
_cell_length_b     28.789485
_cell_length_c     85.872257
_cell_angle_alpha  90.91161
_cell_angle_beta   90.163499
_cell_angle_gamma 90.06945
loop_
_atom_site_label
_atom_site_type_symbol
_atom_site_fract_x
_atom_site_fract_y
_atom_site_fract_z
_atom_type_partial_charge
H0 H 0.97675 0.91682 0.48225 0.0
H1 H 0.90264 0.89245 0.47087 0.0
H2 H 0.86533 0.03609 0.46424 0.0
H3 H 0.93999 0.06035 0.47555 0.0
H4 H 0.04867 0.96527 0.47043 0.0
H5 H 0.94235 0.97775 0.51162 0.0
H6 H 0.87313 8e-05 0.52629 0.0
H7 H 0.91313 0.14429 0.52347 0.0
H8 H 0.98196 0.12191 0.50845 0.0
H9 H 0.12424 0.1208 0.50582 0.0
H10 H 0.19686 0.14613 0.51786 0.0
H11 H 0.23969 0.00269 0.5215 0.0
H12 H 0.16541 0.97775 0.51068 0.0
H13 H 0.05439 0.07117 0.51653 0.0
H14 H 0.16976 0.04703 0.4756 0.0
H15 H 0.24084 0.01238 0.46495 0.0
H16 H 0.18264 0.87552 0.47077 0.0
H17 H 0.11235 0.91003 0.48182 0.0
C18 C 0.96382 0.99035 0.47977 0.0
C19 C 0.95269 0.94306 0.4783 0.0
C20 C 0.91011 0.92924 0.47197 0.0
C21 C 0.87797 0.96243 0.46682 0.0
C22 C 0.8894 0.0098 0.46812 0.0
C23 C 0.93193 0.02365 0.47459 0.0
C24 C 0.00844 0.00474 0.48703 0.0
C25 C 0.05002 0.98826 0.48056 0.0
C26 C 0.00999 0.03441 0.50029 0.0
C27 C 0.96716 0.04822 0.50877 0.0
C28 C 0.93575 0.01428 0.51384 0.0
C29 C 0.89615 0.02703 0.52221 0.0
C30 C 0.88768 0.0739 0.52595 0.0
C31 C 0.91894 0.10787 0.52078 0.0
C32 C 0.95828 0.09515 0.51225 0.0
C33 C 0.13949 0.04738 0.50712 0.0
C34 C 0.14916 0.09482 0.50934 0.0
C35 C 0.19114 0.10927 0.51604 0.0
C36 C 0.22471 0.07659 0.52056 0.0
C37 C 0.21472 0.02901 0.51837 0.0
C38 C 0.17235 0.0146 0.51196 0.0
C39 C 0.09499 0.03246 0.49976 0.0
C40 C 0.05322 0.04873 0.50626 0.0
C41 C 0.09331 0.00133 0.4868 0.0
C42 C 0.13584 0.98113 0.47967 0.0
C43 C 0.17247 0.00956 0.47472 0.0
C44 C 0.21306 0.98978 0.46868 0.0
C45 C 0.21724 0.9413 0.46713 0.0
C46 C 0.18023 0.91299 0.47179 0.0
C47 C 0.14002 0.9327 0.47804 0.0
H48 H 0.32388 0.79247 0.78137 0.0
H49 H 0.29475 0.86573 0.79227 0.0
H50 H 0.21229 0.88567 0.75078 0.0
H51 H 0.24003 0.81145 0.74028 0.0
H52 H 0.28111 0.71165 0.7725 0.0
H53 H 0.37365 0.83089 0.74567 0.0
H54 H 0.39243 0.89456 0.72811 0.0
H55 H 0.31078 0.82804 0.69178 0.0
H56 H 0.29134 0.76556 0.70943 0.0
H57 H 0.3099 0.63374 0.71214 0.0
H58 H 0.33955 0.56499 0.69855 0.0
H59 H 0.43085 0.53774 0.73734 0.0
H60 H 0.40101 0.60727 0.75095 0.0
H61 H 0.35867 0.70945 0.72102 0.0
H62 H 0.2699 0.592 0.74275 0.0
H63 H 0.25382 0.51905 0.75531 0.0
H64 H 0.31019 0.57481 0.79848 0.0
H65 H 0.33076 0.64638 0.78524 0.0
C66 C 0.28461 0.79671 0.75994 0.0
C67 C 0.29928 0.81249 0.77469 0.0
C68 C 0.28298 0.85468 0.78081 0.0
C69 C 0.25156 0.88194 0.77232 0.0
C70 C 0.23628 0.86555 0.75766 0.0
C71 C 0.25246 0.82328 0.75158 0.0
C72 C 0.30358 0.75296 0.75317 0.0
C73 C 0.29876 0.71121 0.76137 0.0
C74 C 0.32491 0.75192 0.73838 0.0
C75 C 0.33113 0.79367 0.72881 0.0
C76 C 0.35899 0.83074 0.73404 0.0
C77 C 0.37003 0.86676 0.72396 0.0
C78 C 0.35335 0.86609 0.70853 0.0
C79 C 0.32379 0.82987 0.70362 0.0
C80 C 0.31286 0.794 0.71366 0.0
C81 C 0.35323 0.62542 0.73254 0.0
C82 C 0.33619 0.61289 0.71774 0.0
C83 C 0.35289 0.57346 0.71005 0.0
C84 C 0.38729 0.54601 0.71694 0.0
C85 C 0.40441 0.55849 0.73178 0.0
C86 C 0.3873 0.5979 0.73957 0.0
C87 C 0.33604 0.66834 0.74021 0.0
C88 C 0.34138 0.70987 0.73224 0.0
C89 C 0.31375 0.66855 0.75487 0.0
C90 C 0.30263 0.62452 0.76291 0.0
C91 C 0.28016 0.58816 0.7548 0.0
C92 C 0.27015 0.5465 0.76213 0.0
C93 C 0.28044 0.54068 0.778 0.0
C94 C 0.30254 0.5774 0.78618 0.0
C95 C 0.3137 0.61877 0.77869 0.0
H96 H 0.55909 0.03912 0.03284 0.0
H97 H 0.49672 0.02198 0.05107 0.0
H98 H 0.44464 0.91587 0.01946 0.0
H99 H 0.50768 0.93273 0.00126 0.0
H100 H 0.6238 0.97586 0.02595 0.0
H101 H 0.50857 0.06285 0.99566 0.0
H102 H 0.44469 0.08077 0.9778 0.0
H103 H 0.49228 0.97323 0.94607 0.0
H104 H 0.55551 0.95512 0.96395 0.0
H105 H 0.69757 0.96597 0.96303 0.0
H106 H 0.76269 0.99386 0.9476 0.0
H107 H 0.79056 0.09987 0.98268 0.0
H108 H 0.72655 0.07047 -0.00173 0.0
H109 H 0.62184 0.01799 0.97026 0.0
H110 H 0.72905 0.92669 0.99632 0.0
H111 H 0.79612 0.89861 0.01089 0.0
H112 H 0.76439 0.99513 0.04841 0.0
H113 H 0.69792 0.02377 0.03364 0.0
C114 C 0.53801 0.98719 0.01571 0.0
C115 C 0.53382 0.01264 0.02971 0.0
C116 C 0.4984 0.00269 0.04015 0.0
C117 C 0.46634 0.96724 0.03673 0.0
C118 C 0.46889 0.9435 0.02232 0.0
C119 C 0.5047 0.95324 0.0119 0.0
C120 C 0.58053 0.9924 0.00631 0.0
C121 C 0.62329 0.98595 0.01383 0.0
C122 C 0.57994 0.00196 0.99022 0.0
C123 C 0.53674 0.00766 0.98112 0.0
C124 C 0.50441 0.04227 0.98508 0.0
C125 C 0.46811 0.0526 0.97485 0.0
C126 C 0.4641 0.02878 0.96048 0.0
C127 C 0.4951 0.9926 0.95695 0.0
C128 C 0.53101 0.9821 0.96719 0.0
C129 C 0.70743 0.01613 0.98176 0.0
C130 C 0.71829 0.99471 0.96747 0.0
C131 C 0.75522 0.01101 0.95862 0.0
C132 C 0.78145 0.04959 0.96379 0.0
C133 C 0.77144 0.06985 0.97841 0.0
C134 C 0.73482 0.05313 0.98734 0.0
C135 C 0.66468 0.00331 0.9901 0.0
C136 C 0.62214 0.00799 0.98239 0.0
C137 C 0.6653 0.99042 0.00584 0.0
C138 C 0.70874 0.97754 0.01387 0.0
C139 C 0.73716 0.94252 0.00753 0.0
C140 C 0.77509 0.92611 0.01593 0.0
C141 C 0.78523 0.94449 0.03081 0.0
C142 C 0.75759 0.98058 0.03691 0.0
C143 C 0.71955 0.99684 0.02853 0.0
H144 H 0.2672 0.21228 0.28559 0.0
H145 H 0.29593 0.15176 0.30269 0.0
H146 H 0.4184 0.13763 0.27389 0.0
H147 H 0.38736 0.19572 0.25632 0.0
H148 H 0.34276 0.29328 0.2786 0.0
H149 H 0.23381 0.18083 0.2587 0.0
H150 H 0.2072 0.1083 0.24641 0.0
H151 H 0.28211 0.14242 0.20465 0.0
H152 H 0.31008 0.21414 0.21716 0.0
H153 H 0.32038 0.35192 0.21483 0.0
H154 H 0.30599 0.42348 0.20072 0.0
H155 H 0.23765 0.48195 0.24127 0.0
H156 H 0.24996 0.40942 0.25499 0.0
H157 H 0.26522 0.28797 0.22697 0.0
H158 H 0.38329 0.3918 0.24746 0.0
H159 H 0.41657 0.46146 0.25996 0.0
H160 H 0.32861 0.44077 0.29994 0.0
H161 H 0.29516 0.37177 0.28732 0.0
C162 C 0.32486 0.20766 0.26962 0.0
C163 C 0.29951 0.19493 0.28276 0.0
C164 C 0.31648 0.1609 0.29265 0.0
C165 C 0.35999 0.14015 0.28987 0.0
C166 C 0.38454 0.15217 0.27635 0.0
C167 C 0.36694 0.18546 0.26627 0.0
C168 C 0.31167 0.24939 0.26098 0.0
C169 C 0.32509 0.29224 0.26742 0.0
C170 C 0.29002 0.24739 0.24621 0.0
C171 C 0.2747 0.2027 0.23898 0.0
C172 C 0.24563 0.17218 0.24707 0.0
C173 C 0.23017 0.13085 0.24001 0.0
C174 C 0.24265 0.11978 0.2246 0.0
C175 C 0.27173 0.15027 0.21652 0.0
C176 C 0.28769 0.19124 0.22365 0.0
C177 C 0.2866 0.37538 0.23601 0.0
C178 C 0.302 0.38005 0.22063 0.0
C179 C 0.29433 0.4213 0.21266 0.0
C180 C 0.27108 0.45878 0.21991 0.0
C181 C 0.25543 0.4538 0.23529 0.0
C182 C 0.2628 0.41243 0.2432 0.0
C183 C 0.29623 0.33217 0.24465 0.0
C184 C 0.28256 0.28904 0.23819 0.0
C185 C 0.31819 0.33351 0.25938 0.0
C186 C 0.33657 0.37695 0.26645 0.0
C187 C 0.37084 0.40271 0.25883 0.0
C188 C 0.39003 0.44219 0.26601 0.0
C189 C 0.37509 0.4565 0.2809 0.0
C190 C 0.34035 0.4309 0.28838 0.0
C191 C 0.32143 0.39136 0.28125 0.0
H192 H 0.78947 0.26279 0.20982 0.0
H193 H 0.81123 0.32501 0.19232 0.0
H194 H 0.89714 0.38627 0.22855 0.0
H195 H 0.87618 0.32292 0.2459 0.0
H196 H 0.85075 0.20179 0.22112 0.0
H197 H 0.74609 0.31541 0.24144 0.0
H198 H 0.72134 0.38928 0.25322 0.0
H199 H 0.79965 0.35845 0.29469 0.0
H200 H 0.82606 0.28553 0.28269 0.0
H201 H 0.83868 0.14722 0.28606 0.0
H202 H 0.8243 0.07692 0.30088 0.0
H203 H 0.75199 0.01657 0.26124 0.0
H204 H 0.76356 0.088 0.247 0.0
H205 H 0.78331 0.21084 0.27414 0.0
H206 H 0.90259 0.10961 0.25075 0.0
H207 H 0.9343 0.04058 0.23732 0.0
H208 H 0.82737 0.05096 0.2022 0.0
H209 H 0.79642 0.12003 0.21546 0.0
C210 C 0.83114 0.28834 0.22915 0.0
C211 C 0.81257 0.28995 0.21405 0.0
C212 C 0.82482 0.32568 0.20409 0.0
C213 C 0.85605 0.36045 0.20903 0.0
C214 C 0.87344 0.35962 0.22436 0.0
C215 C 0.86113 0.32378 0.23433 0.0
C216 C 0.82247 0.24717 0.23883 0.0
C217 C 0.83541 0.20387 0.23264 0.0
C218 C 0.80384 0.25009 0.25404 0.0
C219 C 0.78852 0.29502 0.26108 0.0
C220 C 0.75883 0.32491 0.25293 0.0
C221 C 0.74458 0.36706 0.25966 0.0
C222 C 0.75878 0.37948 0.2748 0.0
C223 C 0.78817 0.34953 0.28299 0.0
C224 C 0.80308 0.30782 0.27617 0.0
C225 C 0.80278 0.12278 0.26533 0.0
C226 C 0.81949 0.11891 0.28062 0.0
C227 C 0.81178 0.07835 0.289 0.0
C228 C 0.78729 0.0407 0.28224 0.0
C229 C 0.77062 0.04483 0.26691 0.0
C230 C 0.77778 0.08556 0.25864 0.0
C231 C 0.81139 0.16556 0.25631 0.0
C232 C 0.79867 0.20907 0.26263 0.0
C233 C 0.8305 0.16334 0.2412 0.0
C234 C 0.84719 0.11956 0.23406 0.0
C235 C 0.8858 0.09655 0.24025 0.0
C236 C 0.90391 0.05744 0.23258 0.0
C237 C 0.88309 0.04061 0.2188 0.0
C238 C 0.84368 0.06304 0.21291 0.0
C239 C 0.82614 0.10248 0.2204 0.0
H240 H 0.76677 0.90252 0.75178 0.0
H241 H 0.75114 0.97448 0.73814 0.0
H242 H 0.81512 0.91658 0.69669 0.0
H243 H 0.83312 0.8457 0.71076 0.0
H244 H 0.7769 0.78154 0.72456 0.0
H245 H 0.80779 0.87055 0.78085 0.0
H246 H 0.83826 0.94101 0.79349 0.0
H247 H 0.94129 0.95282 0.75734 0.0
H248 H 0.9097 0.88245 0.74445 0.0
H249 H 0.9163 0.71434 0.76701 0.0
H250 H 0.93296 0.6542 0.78597 0.0
H251 H 0.78708 0.62086 0.78834 0.0
H252 H 0.77017 0.6822 0.76963 0.0
H253 H 0.86789 0.78886 0.77364 0.0
H254 H 0.8531 0.66183 0.73614 0.0
H255 H 0.8212 0.58881 0.72574 0.0
H256 H 0.68387 0.64897 0.72614 0.0
H257 H 0.71597 0.72179 0.73645 0.0
C258 C 0.80185 0.869 0.73237 0.0
C259 C 0.77816 0.90563 0.73983 0.0
C260 C 0.76876 0.94663 0.73195 0.0
C261 C 0.7821 0.95158 0.71632 0.0
C262 C 0.80523 0.91446 0.70881 0.0
C263 C 0.81502 0.87362 0.71677 0.0
C264 C 0.81326 0.82611 0.74091 0.0
C265 C 0.79702 0.78296 0.73525 0.0
C266 C 0.83923 0.8278 0.75485 0.0
C267 C 0.85645 0.87174 0.76174 0.0
C268 C 0.83657 0.88866 0.77556 0.0
C269 C 0.85383 0.92885 0.7827 0.0
C270 C 0.8919 0.95219 0.7763 0.0
C271 C 0.91186 0.93528 0.76243 0.0
C272 C 0.89388 0.89541 0.75509 0.0
C273 C 0.84202 0.70271 0.76688 0.0
C274 C 0.88789 0.69381 0.77148 0.0
C275 C 0.89737 0.65965 0.78233 0.0
C276 C 0.8612 0.63343 0.78868 0.0
C277 C 0.81549 0.64066 0.78354 0.0
C278 C 0.80589 0.67543 0.77281 0.0
C279 C 0.8321 0.74386 0.75729 0.0
C280 C 0.8484 0.78692 0.76281 0.0
C281 C 0.80584 0.74171 0.74335 0.0
C282 C 0.7869 0.69726 0.73709 0.0
C283 C 0.81608 0.65912 0.7341 0.0
C284 C 0.79777 0.61735 0.72823 0.0
C285 C 0.74999 0.61309 0.72512 0.0
C286 C 0.72089 0.65129 0.72823 0.0
C287 C 0.73918 0.69295 0.73411 0.0
H288 H 0.48099 0.38775 0.98635 0.0
H289 H 0.41119 0.36328 0.97213 0.0
H290 H 0.36983 0.50667 0.96795 0.0
H291 H 0.44002 0.5311 0.98194 0.0
H292 H 0.55194 0.43682 0.97703 0.0
H293 H 0.43976 0.45298 0.0174 0.0
H294 H 0.37045 0.47848 0.03156 0.0
H295 H 0.41293 0.62137 0.02655 0.0
H296 H 0.48183 0.59584 0.01226 0.0
H297 H 0.61945 0.59872 0.00928 0.0
H298 H 0.69173 0.63034 0.02002 0.0
H299 H 0.7401 0.49116 0.02875 0.0
H300 H 0.66741 0.45966 0.01811 0.0
H301 H 0.55218 0.54696 0.02202 0.0
H302 H 0.66658 0.52753 0.9818 0.0
H303 H 0.7402 0.4995 0.97159 0.0
H304 H 0.69246 0.35783 0.97628 0.0
H305 H 0.62051 0.38634 0.98781 0.0
C306 C 0.46575 0.46123 0.98527 0.0
C307 C 0.45683 0.41392 0.98243 0.0
C308 C 0.4169 0.39999 0.97436 0.0
C309 C 0.38507 0.4331 0.96898 0.0
C310 C 0.39339 0.48038 0.97217 0.0
C311 C 0.43355 0.49434 0.98013 0.0
C312 C 0.50946 0.47606 0.99312 0.0
C313 C 0.55197 0.46033 0.98703 0.0
C314 C 0.50956 0.50724 0.00601 0.0
C315 C 0.46604 0.52252 0.01376 0.0
C316 C 0.43371 0.48984 0.01909 0.0
C317 C 0.39405 0.50441 0.02714 0.0
C318 C 0.38641 0.55187 0.03018 0.0
C319 C 0.4182 0.58453 0.02449 0.0
C320 C 0.45761 0.57 0.01637 0.0
C321 C 0.6381 0.52683 0.0128 0.0
C322 C 0.64548 0.57501 0.0136 0.0
C323 C 0.68683 0.59302 0.0197 0.0
C324 C 0.72168 0.56321 0.02515 0.0
C325 C 0.71419 0.51495 0.02441 0.0
C326 C 0.67261 0.49693 0.0184 0.0
C327 C 0.59453 0.50822 0.00582 0.0
C328 C 0.55207 0.52326 0.01207 0.0
C329 C 0.59454 0.47604 0.99317 0.0
C330 C 0.63828 0.45909 0.9859 0.0
C331 C 0.67227 0.49041 0.98088 0.0
C332 C 0.71427 0.47421 0.97482 0.0
C333 C 0.72273 0.42622 0.97311 0.0
C334 C 0.68793 0.39496 0.97774 0.0
C335 C 0.64633 0.41123 0.98412 0.0
H336 H 0.05062 0.44047 0.46458 0.0
H337 H 0.98205 0.45804 0.44905 0.0
H338 H 0.94255 0.56369 0.48279 0.0
H339 H 0.01222 0.54684 0.49805 0.0
H340 H 0.11871 0.50485 0.46943 0.0
H341 H 0.01427 0.4149 0.50247 0.0
H342 H 0.95167 0.39975 0.52093 0.0
H343 H 0.00697 0.5059 0.55199 0.0
H344 H 0.06818 0.52194 0.53329 0.0
H345 H 0.20948 0.51885 0.52949 0.0
H346 H 0.27956 0.49401 0.54325 0.0
H347 H 0.30222 0.38737 0.50817 0.0
H348 H 0.23237 0.41277 0.49431 0.0
H349 H 0.13399 0.46121 0.52481 0.0
H350 H 0.22595 0.56058 0.49613 0.0
H351 H 0.28591 0.59489 0.47996 0.0
H352 H 0.2566 0.49303 0.44367 0.0
H353 H 0.19556 0.45982 0.4598 0.0
C354 C 0.03646 0.49233 0.48245 0.0
C355 C 0.02675 0.46688 0.46876 0.0
C356 C 0.98736 0.47676 0.45995 0.0
C357 C 0.95701 0.51245 0.46465 0.0
C358 C 0.96562 0.53637 0.47878 0.0
C359 C 0.00512 0.52646 0.4876 0.0
C360 C 0.08185 0.48654 0.49025 0.0
C361 C 0.12201 0.49429 0.48146 0.0
C362 C 0.08617 0.47628 0.50623 0.0
C363 C 0.04569 0.46967 0.5165 0.0
C364 C 0.01224 0.43553 0.5131 0.0
C365 C 0.97685 0.42657 0.52374 0.0
C366 C 0.97456 0.45146 0.53796 0.0
C367 C 0.00742 0.48649 0.54108 0.0
C368 C 0.04262 0.49547 0.53045 0.0
C369 C 0.21598 0.46767 0.51091 0.0
C370 C 0.2301 0.49076 0.52462 0.0
C371 C 0.27009 0.47665 0.53242 0.0
C372 C 0.296 0.43872 0.52676 0.0
C373 C 0.28261 0.41658 0.51276 0.0
C374 C 0.24303 0.43122 0.50483 0.0
C375 C 0.17051 0.4781 0.50384 0.0
C376 C 0.13053 0.47137 0.51274 0.0
C377 C 0.16622 0.49137 0.48819 0.0
C378 C 0.20657 0.5075 0.47918 0.0
C379 C 0.23309 0.5451 0.4848 0.0
C380 C 0.26736 0.56471 0.47553 0.0
C381 C 0.27586 0.54696 0.46046 0.0
C382 C 0.25029 0.50817 0.45509 0.0
C383 C 0.21572 0.48883 0.46433 0.0
C384 C 0.14129 0.67253 0.14469 0.0
C385 C 0.97655 0.60153 0.13566 0.0
C386 C 0.98214 0.67259 0.09172 0.0
Mg387 Mg 0.18552 0.7684 0.13281 0.0
Mg388 Mg 0.12231 0.85557 0.1208 0.0
O389 O 0.13436 0.79218 0.11921 0.0
Mg390 Mg 0.08526 0.7458 0.12381 0.0
O391 O 0.04044 0.69553 0.1285 0.0
Mg392 Mg 0.06958 0.64288 0.11642 0.0
Mg393 Mg 0.97696 0.7048 0.12563 0.0
C394 C 0.03515 0.82376 0.10105 0.0
O395 O 0.04608 0.79207 0.14146 0.0
O396 O 0.23327 0.82167 0.12021 0.0
O397 O 0.97127 0.76997 0.13852 0.0
O398 O 0.17193 0.82357 0.15277 0.0
O399 O 0.18692 0.8787 0.11166 0.0
O400 O 0.11844 0.87388 0.14478 0.0
O401 O 0.12112 0.6965 0.10626 0.0
O402 O 0.19426 0.71424 0.11335 0.0
C403 C 0.16519 0.69033 0.10517 0.0
C404 C 0.2269 0.85973 0.11283 0.0
O405 O 0.03908 0.78108 0.10514 0.0
O406 O 0.01623 0.5957 0.12906 0.0
O407 O 0.06129 0.85641 0.10639 0.0
O408 O 0.01774 0.64859 0.0955 0.0
O409 O 0.95545 0.64071 0.13581 0.0
O410 O 0.96326 0.70111 0.10125 0.0
O411 O 0.1327 0.71572 0.14258 0.0
O412 O 0.1206 0.6404 0.1368 0.0
C413 C 0.14524 0.8585 0.15532 0.0
C414 C 0.00261 0.79679 0.14441 0.0
C415 C 0.66414 0.79683 0.3968 0.0
C416 C 0.71946 0.62888 0.38849 0.0
C417 C 0.65514 0.63915 0.34278 0.0
Mg418 Mg 0.57688 0.85356 0.3826 0.0
Mg419 Mg 0.48408 0.79962 0.36911 0.0
O420 O 0.54849 0.80529 0.36827 0.0
Mg421 Mg 0.58825 0.75107 0.3735 0.0
O422 O 0.63262 0.70084 0.37887 0.0
Mg423 Mg 0.68968 0.72423 0.3682 0.0
Mg424 Mg 0.61889 0.638 0.37632 0.0
C425 C 0.50829 0.70994 0.34896 0.0
O426 O 0.53499 0.71613 0.38974 0.0
O427 O 0.53086 0.90689 0.36946 0.0
O428 O 0.55071 0.6395 0.38677 0.0
O429 O 0.51839 0.84679 0.40133 0.0
O430 O 0.46792 0.86751 0.36083 0.0
O431 O 0.46438 0.7967 0.39292 0.0
O432 O 0.64349 0.78143 0.35728 0.0
O433 O 0.63384 0.85633 0.36422 0.0
C434 C 0.65491 0.82447 0.35639 0.0
C435 C 0.49171 0.90495 0.36223 0.0
O436 O 0.55063 0.7095 0.35382 0.0
O437 O 0.7295 0.66657 0.38139 0.0
O438 O 0.47802 0.73918 0.35398 0.0
O439 O 0.68095 0.67384 0.34662 0.0
O440 O 0.67837 0.61179 0.38847 0.0
O441 O 0.62606 0.62206 0.35226 0.0
O442 O 0.62094 0.79484 0.39317 0.0
O443 O 0.69465 0.7726 0.38949 0.0
C444 C 0.48115 0.82336 0.4035 0.0
C445 C 0.52546 0.67303 0.39194 0.0
C446 C 0.63967 0.16748 0.64336 0.0
C447 C 0.47363 0.10111 0.6333 0.0
C448 C 0.48026 0.17873 0.59058 0.0
Mg449 Mg 0.68636 0.26318 0.63284 0.0
Mg450 Mg 0.62512 0.35416 0.62227 0.0
O451 O 0.63581 0.29061 0.61969 0.0
Mg452 Mg 0.58565 0.24475 0.62347 0.0
O453 O 0.53959 0.19496 0.62744 0.0
Mg454 Mg 0.56746 0.14319 0.6147 0.0
Mg455 Mg 0.47618 0.20544 0.62486 0.0
C456 C 0.53665 0.32593 0.60222 0.0
O457 O 0.54627 0.29073 0.64145 0.0
O458 O 0.73496 0.31661 0.62104 0.0
O459 O 0.47155 0.2673 0.6393 0.0
O460 O 0.6756 0.31563 0.65357 0.0
O461 O 0.69055 0.37588 0.61297 0.0
O462 O 0.62445 0.36962 0.64662 0.0
O463 O 0.62042 0.19668 0.60527 0.0
O464 O 0.69378 0.21169 0.61264 0.0
C465 C 0.66431 0.18965 0.60408 0.0
C466 C 0.72992 0.35545 0.61403 0.0
O467 O 0.54175 0.28251 0.60508 0.0
O468 O 0.51331 0.09532 0.62671 0.0
O469 O 0.56197 0.35786 0.60852 0.0
O470 O 0.51541 0.15355 0.59403 0.0
O471 O 0.45322 0.14058 0.63388 0.0
O472 O 0.46206 0.20653 0.6005 0.0
O473 O 0.63196 0.21111 0.64191 0.0
O474 O 0.61849 0.13683 0.63497 0.0
C475 C 0.6508 0.3514 0.65677 0.0
C476 C 0.50304 0.29417 0.64503 0.0
C477 C 0.16174 0.3055 0.89248 0.0
C478 C 0.22474 0.13826 0.88408 0.0
C479 C 0.14776 0.14136 0.8405 0.0
Mg480 Mg 0.06475 0.35071 0.88167 0.0
Mg481 Mg 0.97367 0.28766 0.87133 0.0
O482 O 0.03702 0.29929 0.86868 0.0
Mg483 Mg 0.08334 0.25001 0.8729 0.0
O484 O 0.13274 0.20423 0.87718 0.0
Mg485 Mg 0.18408 0.23054 0.8643 0.0
Mg486 Mg 0.12084 0.14083 0.87469 0.0
C487 C 0.00214 0.19874 0.8514 0.0
O488 O 0.03779 0.21294 0.89102 0.0
O489 O 0.00995 0.39776 0.86983 0.0
O490 O 0.05672 0.13741 0.88757 0.0
O491 O 0.01358 0.34008 0.90235 0.0
O492 O 0.94992 0.35262 0.86221 0.0
O493 O 0.95987 0.2874 0.89572 0.0
O494 O 0.13037 0.28293 0.85442 0.0
O495 O 0.11359 0.35677 0.86103 0.0
C496 C 0.13544 0.32689 0.85259 0.0
C497 C 0.97034 0.39217 0.86311 0.0
O498 O 0.04536 0.20439 0.85466 0.0
O499 O 0.23134 0.17677 0.87696 0.0
O500 O 0.96994 0.22401 0.85745 0.0
O501 O 0.17302 0.17695 0.84373 0.0
O502 O 0.1849 0.11854 0.88466 0.0
O503 O 0.12056 0.1241 0.85053 0.0
O504 O 0.11796 0.29797 0.89112 0.0
O505 O 0.19152 0.28315 0.88422 0.0
C506 C 0.97829 0.31503 0.90571 0.0
C507 C 0.03143 0.16954 0.89363 0.0
H508 H 0.30799 0.9592 0.4746 0.0
H509 H 0.22139 0.87599 0.44402 0.0
H510 H 0.37728 0.9248 0.46277 0.0
H511 H 0.28987 0.84311 0.43174 0.0
H512 H 0.41225 0.76958 0.41541 0.0
H513 H 0.35289 0.79339 0.43386 0.0
H514 H 0.42102 0.92647 0.4398 0.0
H515 H 0.48222 0.90107 0.42221 0.0
C516 C 0.3039 0.93365 0.46529 0.0
C517 C 0.25943 0.92017 0.46021 0.0
C518 C 0.34352 0.91396 0.45849 0.0
C519 C 0.33946 0.88085 0.44631 0.0
C520 C 0.2947 0.86742 0.44135 0.0
C521 C 0.25526 0.88656 0.44829 0.0
C522 C 0.41554 0.80321 0.42112 0.0
C523 C 0.45194 0.83341 0.4173 0.0
C524 C 0.38098 0.81728 0.43152 0.0
C525 C 0.38117 0.86248 0.438 0.0
C526 C 0.41956 0.89138 0.43511 0.0
C527 C 0.45479 0.87681 0.42497 0.0
H528 H 0.30164 0.90997 0.68642 0.0
H529 H 0.44097 0.90015 0.7048 0.0
H530 H 0.32911 0.96247 0.66642 0.0
H531 H 0.46805 0.95412 0.68523 0.0
H532 H 0.51169 0.01619 0.63968 0.0
H533 H 0.48092 0.95766 0.65713 0.0
H534 H 0.35816 0.04111 0.66446 0.0
H535 H 0.3881 0.09886 0.64682 0.0
C536 C 0.33808 0.91921 0.68623 0.0
C537 C 0.36913 0.90099 0.6972 0.0
C538 C 0.35375 0.94947 0.67484 0.0
C539 C 0.4008 0.96218 0.67418 0.0
C540 C 0.43173 0.94437 0.68527 0.0
C541 C 0.41607 0.91409 0.69665 0.0
C542 C 0.47777 0.02164 0.64479 0.0
C543 C 0.45257 0.06241 0.64195 0.0
C544 C 0.46037 0.98834 0.6549 0.0
C545 C 0.4174 0.9951 0.66233 0.0
C546 C 0.39124 0.03473 0.65887 0.0
C547 C 0.40859 0.06797 0.64879 0.0
H548 H 0.47937 0.04483 0.92979 0.0
H549 H 0.3718 0.04628 0.96471 0.0
H550 H 0.42313 0.06917 0.9102 0.0
H551 H 0.31552 0.07093 0.94511 0.0
H552 H 0.22078 0.06235 0.90266 0.0
H553 H 0.2796 0.0351 0.92064 0.0
H554 H 0.37387 0.14107 0.90496 0.0
H555 H 0.31483 0.16889 0.88686 0.0
C556 C 0.4436 0.05011 0.93323 0.0
C557 C 0.42974 0.04339 0.94872 0.0
C558 C 0.41161 0.06439 0.92206 0.0
C559 C 0.36507 0.07173 0.92615 0.0
C560 C 0.35118 0.06502 0.94164 0.0
C561 C 0.38331 0.05126 0.95286 0.0
C562 C 0.25415 0.07969 0.90286 0.0
C563 C 0.26291 0.11813 0.89336 0.0
C564 C 0.28769 0.06419 0.91326 0.0
C565 C 0.33093 0.08638 0.91432 0.0
C566 C 0.34071 0.12336 0.90435 0.0
C567 C 0.30691 0.13925 0.894 0.0
H568 H 0.20176 0.11451 0.19612 0.0
H569 H 0.24062 0.03043 0.23523 0.0
H570 H 0.17192 0.0458 0.18253 0.0
H571 H 0.21051 0.96104 0.22153 0.0
H572 H 0.21452 0.85467 0.17734 0.0
H573 H 0.23339 0.91508 0.19669 0.0
H574 H 0.1072 0.98761 0.18514 0.0
H575 H 0.08856 0.92805 0.16576 0.0
C576 C 0.20386 0.08124 0.2018 0.0
C577 C 0.22372 0.07772 0.21667 0.0
C578 C 0.18631 0.04197 0.19411 0.0
C579 C 0.18853 -0.0019 0.20103 0.0
C580 C 0.20831 0.99444 0.21594 0.0
C581 C 0.22534 0.03405 0.22377 0.0
C582 C 0.1901 0.88273 0.17926 0.0
C583 C 0.15047 0.88692 0.16978 0.0
C584 C 0.20094 0.91734 0.19035 0.0
C585 C 0.17228 0.95654 0.19214 0.0
C586 C 0.13044 0.95828 0.18376 0.0
C587 C 0.11967 0.92391 0.1727 0.0
H588 H 0.27395 0.03372 0.54368 0.0
H589 H 0.27662 0.15479 0.51448 0.0
H590 H 0.34423 0.06046 0.55667 0.0
H591 H 0.34598 0.18252 0.52818 0.0
H592 H 0.41415 0.23307 0.57705 0.0
H593 H 0.35873 0.20917 0.55698 0.0
H594 H 0.43066 0.07864 0.55129 0.0
H595 H 0.48684 0.10276 0.57118 0.0
C596 C 0.28979 0.0656 0.5398 0.0
C597 C 0.26919 0.09201 0.52798 0.0
C598 C 0.33015 0.08096 0.5473 0.0
C599 C 0.35065 0.12345 0.54338 0.0
C600 C 0.33076 0.14967 0.53145 0.0
C601 C 0.29075 0.13391 0.52372 0.0
C602 C 0.41919 0.19995 0.57115 0.0
C603 C 0.45473 0.16968 0.57583 0.0
C604 C 0.38738 0.18627 0.55964 0.0
C605 C 0.39004 0.14177 0.55278 0.0
C606 C 0.4276 0.11294 0.55655 0.0
C607 C 0.45993 0.12694 0.56787 0.0
H608 H 0.30094 0.94818 0.78851 0.0
H609 H 0.16345 0.91782 0.77089 0.0
H610 H 0.27172 0.01805 0.80133 0.0
H611 H 0.13459 0.98913 0.78308 0.0
H612 H 0.09586 0.06927 0.82894 0.0
H613 H 0.11894 0.01271 0.80929 0.0
H614 H 0.24029 0.095 0.79905 0.0
H615 H 0.2176 0.15149 0.81911 0.0
C616 C 0.26453 0.95664 0.78724 0.0
C617 C 0.23445 0.92694 0.77886 0.0
C618 C 0.24788 0.99723 0.79438 0.0
C619 C 0.20071 0.00932 0.79327 0.0
C620 C 0.17101 0.98066 0.78431 0.0
C621 C 0.18766 0.93993 0.77721 0.0
C622 C 0.1269 0.07605 0.82226 0.0
C623 C 0.15534 0.11454 0.82584 0.0
C624 C 0.14008 0.04355 0.81089 0.0
C625 C 0.18205 0.04872 0.80279 0.0
C626 C 0.20831 0.08942 0.80535 0.0
C627 C 0.19505 0.12207 0.81674 0.0
H628 H 0.37347 0.95215 0.03283 0.0
H629 H 0.48274 0.95047 0.06734 0.0
H630 H 0.31755 0.9285 0.05258 0.0
H631 H 0.42681 0.9271 0.0871 0.0
H632 H 0.31656 0.82812 0.11013 0.0
H633 H 0.37598 0.85601 0.09226 0.0
H634 H 0.28368 0.96455 0.07725 0.0
H635 H 0.22449 0.93725 0.09499 0.0
C636 C 0.38542 0.94671 0.04463 0.0
C637 C 0.43223 0.95336 0.04861 0.0
C638 C 0.3535 0.93353 0.05594 0.0
C639 C 0.36796 0.92623 0.07136 0.0
C640 C 0.41486 0.9324 0.07529 0.0
C641 C 0.44667 0.9461 0.06403 0.0
C642 C 0.3092 0.85837 0.10321 0.0
C643 C 0.26556 0.8801 0.1039 0.0
C644 C 0.34321 0.8743 0.09299 0.0
C645 C 0.33401 0.91195 0.08324 0.0
C646 C 0.29128 0.93492 0.08444 0.0
C647 C 0.25753 0.91935 0.0947 0.0
H648 H 0.35196 0.1438 0.32175 0.0
H649 H 0.41578 0.06411 0.28438 0.0
H650 H 0.38523 0.09094 0.34065 0.0
H651 H 0.45132 0.01343 0.30354 0.0
H652 H 0.54221 0.96907 0.34656 0.0
H653 H 0.51178 0.02965 0.3295 0.0
H654 H 0.37206 0.99369 0.34267 0.0
H655 H 0.40216 0.9323 0.35929 0.0
C656 C 0.37279 0.11505 0.3175 0.0
C657 C 0.3807 0.10813 0.30143 0.0
C658 C 0.39228 0.08526 0.32838 0.0
C659 C 0.421 0.04871 0.32347 0.0
C660 C 0.42974 0.04199 0.30754 0.0
C661 C 0.40943 0.07112 0.29661 0.0
C662 C 0.50509 0.97482 0.34603 0.0
C663 C 0.47442 0.94618 0.35418 0.0
C664 C 0.48779 0.00909 0.33623 0.0
C665 C 0.43974 0.01587 0.33483 0.0
C666 C 0.40925 0.989 0.34365 0.0
C667 C 0.42643 0.95401 0.35311 0.0
H668 H 0.79667 0.04549 0.52412 0.0
H669 H 0.89088 0.13095 0.55135 0.0
H670 H 0.73384 0.06405 0.54256 0.0
H671 H 0.82873 0.14914 0.56958 0.0
H672 H 0.73367 0.12905 0.60861 0.0
H673 H 0.78284 0.09452 0.58854 0.0
H674 H 0.68985 0.14408 0.55302 0.0
H675 H 0.64002 0.17886 0.57332 0.0
C676 C 0.80383 0.0683 0.53399 0.0
C677 C 0.84859 0.08688 0.53631 0.0
C678 C 0.76796 0.07895 0.54445 0.0
C679 C 0.77674 0.1075 0.55753 0.0
C680 C 0.82126 0.12654 0.55967 0.0
C681 C 0.8567 0.11651 0.54916 0.0
C682 C 0.72283 0.13117 0.59654 0.0
C683 C 0.68348 0.15698 0.59244 0.0
C684 C 0.75106 0.11165 0.58508 0.0
C685 C 0.74057 0.11763 0.56928 0.0
C686 C 0.6986 0.13916 0.56516 0.0
C687 C 0.67005 0.1588 0.57673 0.0
H688 H 0.84352 0.99732 0.30349 0.0
H689 H 0.70814 0.98775 0.2818 0.0
H690 H 0.82322 0.93297 0.32041 0.0
H691 H 0.68884 0.92284 0.29829 0.0
H692 H 0.66583 0.79688 0.32606 0.0
H693 H 0.70805 0.84015 0.30616 0.0
H694 H 0.76388 0.93145 0.34197 0.0
H695 H 0.72152 0.88875 0.36164 0.0
C696 C 0.80967 0.98133 0.3022 0.0
C697 C 0.77732 -0.00177 0.29136 0.0
C698 C 0.79829 0.94418 0.31179 0.0
C699 C 0.75456 0.92276 0.31062 0.0
C700 C 0.72317 0.93802 0.29926 0.0
C701 C 0.73429 0.97542 0.28981 0.0
C702 C 0.68863 0.82504 0.32966 0.0
C703 C 0.69035 0.83983 0.3453 0.0
C704 C 0.71241 0.85002 0.3183 0.0
C705 C 0.7388 0.88948 0.32251 0.0
C706 C 0.74409 0.9011 0.33836 0.0
C707 C 0.71977 0.87674 0.34963 0.0
H708 H 0.8058 0.85298 0.03507 0.0
H709 H 0.85018 0.99183 0.04789 0.0
H710 H 0.86745 0.8207 0.05124 0.0
H711 H 0.91087 0.95966 0.06433 0.0
H712 H 0.04321 0.88926 0.07904 0.0
H713 H 0.9837 0.91631 0.06118 0.0
H714 H 0.88728 0.81618 0.07956 0.0
H715 H 0.9473 0.7891 0.09752 0.0
C716 C 0.82895 0.87655 0.04126 0.0
C717 C 0.82337 0.92492 0.0402 0.0
C718 C 0.86384 0.85808 0.05062 0.0
C719 C 0.89393 0.88767 0.05901 0.0
C720 C 0.8885 0.93601 0.05785 0.0
C721 C 0.85355 0.95444 0.04856 0.0
C722 C 0.00937 0.87282 0.07919 0.0
C723 C -0.00019 0.83681 0.08954 0.0
C724 C 0.97531 0.8884 0.06901 0.0
C725 C 0.93082 0.86853 0.06905 0.0
C726 C 0.92149 0.83174 0.07916 0.0
C727 C 0.95578 0.81605 0.08937 0.0
H728 H 0.98122 0.96513 0.78587 0.0
H729 H 0.84624 0.02978 0.78582 0.0
H730 H 0.01029 0.02611 0.80351 0.0
H731 H 0.87533 0.09171 0.80291 0.0
H732 H 0.91947 0.15373 0.8492 0.0
H733 H 0.89548 0.09656 0.82968 0.0
H734 H 0.02969 0.1066 0.80757 0.0
H735 H 0.05411 0.16303 0.82751 0.0
C736 C 0.95821 0.99315 0.78934 0.0
C737 C 0.9115 0.99279 0.78468 0.0
C738 C 0.97477 0.02805 0.79942 0.0
C739 C 0.94487 0.06332 0.80485 0.0
C740 C 0.8989 0.06432 0.79932 0.0
C741 C 0.88229 0.02919 0.78944 0.0
C742 C 0.94386 0.14365 0.84019 0.0
C743 C 0.98867 0.16268 0.83988 0.0
C744 C 0.93003 0.11116 0.82891 0.0
C745 C 0.96045 0.09743 0.81691 0.0
C746 C 0.00554 0.11613 0.81671 0.0
C747 C 0.01957 0.14836 0.82814 0.0
H748 H 0.81806 0.89641 0.47721 0.0
H749 H 0.83804 0.99346 0.43999 0.0
H750 H 0.75292 0.86153 0.46304 0.0
H751 H 0.77308 0.95832 0.42574 0.0
H752 H 0.64718 0.88871 0.40379 0.0
H753 H 0.68825 0.93618 0.42362 0.0
H754 H 0.75949 0.81336 0.4393 0.0
H755 H 0.71918 0.76696 0.41969 0.0
C756 C 0.80807 0.91069 0.4661 0.0
C757 C 0.83368 0.94701 0.45955 0.0
C758 C 0.77069 0.89088 0.45802 0.0
C759 C 0.75828 0.90678 0.44319 0.0
C760 C 0.78153 0.94553 0.4372 0.0
C761 C 0.8189 0.96552 0.44533 0.0
C762 C 0.67068 0.87204 0.41183 0.0
C763 C 0.6803 0.82443 0.41029 0.0
C764 C 0.69435 0.89908 0.42306 0.0
C765 C 0.72709 0.87849 0.43302 0.0
C766 C 0.73408 0.83027 0.432 0.0
C767 C 0.71122 0.80368 0.4207 0.0
H768 H 0.83889 0.96316 0.20802 0.0
H769 H 0.97282 0.03034 0.20953 0.0
H770 H 0.87 0.90278 0.1908 0.0
H771 H 0.0039 0.97087 0.19183 0.0
H772 H 0.05195 0.8343 0.16871 0.0
H773 H 0.02484 0.89078 0.18815 0.0
H774 H 0.89279 0.8982 0.16427 0.0
H775 H 0.91943 0.84087 0.14524 0.0
C776 C 0.87509 0.96475 0.20468 0.0
C777 C 0.90347 0.00132 0.20998 0.0
C778 C 0.89286 0.93047 0.19474 0.0
C779 C 0.93922 0.93247 0.18971 0.0
C780 C 0.96813 0.96812 0.19555 0.0
C781 C 0.95041 0.00216 0.20567 0.0
C782 C 0.01733 0.84846 0.16757 0.0
C783 C 0.98777 0.83333 0.15549 0.0
C784 C 0.00176 0.88071 0.17871 0.0
C785 C 0.95647 0.89866 0.17787 0.0
C786 C 0.92745 0.88422 0.16551 0.0
C787 C 0.94281 0.85166 0.15453 0.0
H788 H 0.77801 0.05972 0.93223 0.0
H789 H 0.86596 0.08653 0.97229 0.0
H790 H 0.83734 0.09164 0.91534 0.0
H791 H 0.92466 0.12001 0.95529 0.0
H792 H 0.99567 0.2164 0.91883 0.0
H793 H 0.93384 0.18983 0.9362 0.0
H794 H 0.91976 0.06406 0.90851 0.0
H795 H 0.98138 0.09016 0.89135 0.0
C796 C 0.81007 0.07211 0.93745 0.0
C797 C 0.81746 0.06994 0.95362 0.0
C798 C 0.84381 0.09074 0.92777 0.0
C799 C 0.88542 0.10815 0.93405 0.0
C800 C 0.89256 0.10718 0.95022 0.0
C801 C 0.85898 0.088 0.95991 0.0
C802 C 0.979 0.1833 0.91644 0.0
C803 C 0.99314 0.15529 0.90379 0.0
C804 C 0.94402 0.16801 0.9264 0.0
C805 C 0.92214 0.12503 0.92362 0.0
C806 C 0.93585 0.09751 0.91082 0.0
C807 C 0.97124 0.11233 0.90107 0.0
H808 H 0.70235 0.00309 0.71829 0.0
H809 H 0.83449 0.99693 0.69463 0.0
H810 H 0.67908 0.06761 0.70211 0.0
H811 H 0.8104 0.06093 0.67813 0.0
H812 H 0.70437 0.10181 0.63804 0.0
H813 H 0.7483 0.05954 0.65746 0.0
H814 H 0.69475 0.15069 0.69358 0.0
H815 H 0.6509 0.19364 0.67388 0.0
C816 C 0.72694 0.01614 0.70991 0.0
C817 C 0.77011 0.99431 0.70765 0.0
C818 C 0.71358 0.05329 0.70065 0.0
C819 C 0.7429 0.06923 0.68884 0.0
C820 C 0.78699 0.04908 0.68708 0.0
C821 C 0.80055 0.01216 0.69644 0.0
C822 C 0.70319 0.11369 0.65008 0.0
C823 C 0.67419 0.15063 0.65455 0.0
C824 C 0.72849 0.08966 0.66119 0.0
C825 C 0.72465 0.1016 0.67705 0.0
C826 C 0.69808 0.14066 0.68143 0.0
C827 C 0.67332 0.16538 0.67019 0.0
H828 H 0.77162 0.3469 0.9802 0.0
H829 H 0.77456 0.46592 0.95005 0.0
H830 H 0.84096 0.31636 0.96732 0.0
H831 H 0.84489 0.43647 0.93797 0.0
H832 H 0.98741 0.38984 0.92553 0.0
H833 H 0.93101 0.41579 0.94495 0.0
H834 H 0.85379 0.28853 0.93822 0.0
H835 H 0.9093 0.26287 0.91856 0.0
C836 C 0.78696 0.36675 0.97093 0.0
C837 C 0.76701 0.40892 0.96616 0.0
C838 C 0.82697 0.34939 0.9637 0.0
C839 C 0.84846 0.37432 0.9518 0.0
C840 C 0.82953 0.41702 0.94735 0.0
C841 C 0.78915 0.43392 0.95434 0.0
C842 C 0.95928 0.36667 0.92852 0.0
C843 C 0.95265 0.32444 0.92035 0.0
C844 C 0.92688 0.38172 0.93958 0.0
C845 C 0.88783 0.3544 0.9429 0.0
C846 C 0.88366 0.31021 0.9359 0.0
C847 C 0.91556 0.29552 0.92464 0.0
H848 H 0.94443 0.39236 0.20507 0.0
H849 H 0.80452 0.40778 0.18768 0.0
H850 H 0.97177 0.44851 0.18625 0.0
H851 H 0.8322 0.46259 0.16842 0.0
H852 H 0.89273 0.6002 0.15044 0.0
H853 H 0.86293 0.54109 0.16763 0.0
H854 H 0.98336 0.45605 0.15822 0.0
H855 H 0.01394 0.51577 0.14121 0.0
C856 C 0.91947 0.40793 0.19728 0.0
C857 C 0.87227 0.39582 0.19792 0.0
C858 C 0.93526 0.43953 0.18633 0.0
C859 C 0.9042 0.45972 0.17577 0.0
C860 C 0.85694 0.44782 0.17646 0.0
C861 C 0.84115 0.41619 0.18741 0.0
C862 C 0.91277 0.56875 0.15189 0.0
C863 C 0.95598 0.56296 0.14453 0.0
C864 C 0.89549 0.53473 0.1617 0.0
C865 C 0.92097 0.49408 0.16439 0.0
C866 C 0.96332 0.48741 0.15658 0.0
C867 C 0.98064 0.52147 0.14674 0.0
H868 H 0.89773 0.45771 0.44729 0.0
H869 H 0.93173 0.60105 0.45784 0.0
H870 H 0.84141 0.48296 0.42787 0.0
H871 H 0.87439 0.62618 0.43894 0.0
H872 H 0.80998 0.65566 0.39231 0.0
H873 H 0.86638 0.62526 0.41063 0.0
H874 H 0.76672 0.5231 0.42555 0.0
H875 H 0.71041 0.5528 0.40701 0.0
C876 C 0.89289 0.49457 0.44556 0.0
C877 C 0.91922 0.52737 0.45409 0.0
C878 C 0.86046 0.50902 0.43452 0.0
C879 C 0.85385 0.55654 0.43176 0.0
C880 C 0.8793 0.58929 0.44059 0.0
C881 C 0.91163 0.57489 0.45161 0.0
C882 C 0.80017 0.62636 0.39934 0.0
C883 C 0.75549 0.60693 0.39825 0.0
C884 C 0.83241 0.60919 0.40995 0.0
C885 C 0.82074 0.57224 0.4197 0.0
C886 C 0.77679 0.55151 0.41816 0.0
C887 C 0.7445 0.56866 0.40754 0.0
H888 H 0.77032 0.52257 0.73223 0.0
H889 H 0.68679 0.60592 0.70159 0.0
H890 H 0.74095 0.45197 0.71933 0.0
H891 H 0.65798 0.53614 0.6887 0.0
H892 H 0.59131 0.41111 0.67128 0.0
H893 H 0.61048 0.46905 0.69114 0.0
H894 H 0.74878 0.41207 0.69452 0.0
H895 H 0.72849 0.35258 0.67515 0.0
C896 C 0.74565 0.52579 0.72277 0.0
C897 C 0.7308 0.56984 0.71795 0.0
C898 C 0.72877 0.48538 0.71541 0.0
C899 C 0.69678 0.48824 0.70305 0.0
C900 C 0.68159 0.53238 0.69843 0.0
C901 C 0.69828 0.57256 0.70579 0.0
C902 C 0.62519 0.40993 0.67666 0.0
C903 C 0.65842 0.37759 0.67152 0.0
C904 C 0.63646 0.44352 0.68792 0.0
C905 C 0.68165 0.44616 0.69409 0.0
C906 C 0.71365 0.41114 0.69002 0.0
C907 C 0.70202 0.37695 0.6789 0.0
H908 H 0.72968 0.63534 0.04586 0.0
H909 H 0.81129 0.53457 0.02022 0.0
H910 H 0.79943 0.66507 0.05838 0.0
H911 H 0.8819 0.56508 0.03254 0.0
H912 H 0.97818 0.58937 0.07612 0.0
H913 H 0.91913 0.5654 0.05731 0.0
H914 H 0.86922 0.7068 0.05553 0.0
H915 H 0.92683 0.72995 0.0749 0.0
C916 C 0.76276 0.62014 0.04267 0.0
C917 C 0.76497 0.58257 0.03208 0.0
C918 C 0.80295 0.63737 0.04978 0.0
C919 C 0.84659 0.61777 0.04641 0.0
C920 C 0.84891 0.58073 0.03554 0.0
C921 C 0.8085 0.56322 0.0285 0.0
C922 C 0.9555 0.61557 0.07135 0.0
C923 C 0.95667 0.66145 0.07716 0.0
C924 C 0.92151 0.60182 0.06054 0.0
C925 C 0.88848 0.6339 0.05518 0.0
C926 C 0.89303 0.68081 0.05979 0.0
C927 C 0.92643 0.69429 0.07077 0.0
H928 H 0.71666 0.38648 0.30287 0.0
H929 H 0.76064 0.4685 0.26393 0.0
H930 H 0.68714 0.45626 0.31588 0.0
H931 H 0.73138 0.5391 0.27716 0.0
H932 H 0.59904 0.57413 0.32915 0.0
H933 H 0.62131 0.51568 0.30992 0.0
H934 H 0.75355 0.58358 0.30418 0.0
H935 H 0.73123 0.64286 0.32354 0.0
C936 C 0.72006 0.41956 0.29713 0.0
C937 C 0.74096 0.42225 0.28245 0.0
C938 C 0.70285 0.45939 0.30449 0.0
C939 C 0.70667 0.50291 0.29743 0.0
C940 C 0.72794 0.50587 0.28279 0.0
C941 C 0.74448 0.46565 0.27524 0.0
C942 C 0.6323 0.57768 0.32348 0.0
C943 C 0.66365 0.6128 0.3281 0.0
C944 C 0.64509 0.54398 0.3125 0.0
C945 C 0.68946 0.54467 0.30586 0.0
C946 C 0.71913 0.58232 0.3092 0.0
C947 C 0.7063 0.61625 0.32026 0.0
H948 H 0.94615 0.36503 0.54648 0.0
H949 H 0.92442 0.51095 0.55653 0.0
H950 H 0.88982 0.34518 0.56636 0.0
H951 H 0.8696 0.491 0.57695 0.0
H952 H 0.73158 0.43395 0.59655 0.0
H953 H 0.79244 0.45881 0.57905 0.0
H954 H 0.87955 0.34631 0.59442 0.0
H955 H 0.81811 0.3205 0.6117 0.0
C956 C 0.92923 0.39288 0.5529 0.0
C957 C 0.93953 0.43957 0.54986 0.0
C958 C 0.89754 0.38148 0.56448 0.0
C959 C 0.87553 0.41652 0.57332 0.0
C960 C 0.88581 0.46323 0.57029 0.0
C961 C 0.91744 0.47463 0.55867 0.0
C962 C 0.76391 0.41479 0.59639 0.0
C963 C 0.76969 0.37484 0.60541 0.0
C964 C 0.79892 0.42923 0.58638 0.0
C965 C 0.84058 0.40418 0.5852 0.0
C966 C 0.84741 0.36575 0.59484 0.0
C967 C 0.81233 0.35121 0.60484 0.0
H968 H 0.90937 0.65037 0.81533 0.0
H969 H 0.83573 0.54227 0.79013 0.0
H970 H 0.93048 0.59532 0.83541 0.0
H971 H 0.85831 0.48634 0.80987 0.0
H972 H 0.88132 0.40037 0.85234 0.0
H973 H 0.85003 0.4613 0.83598 0.0
H974 H 0.98215 0.53256 0.838 0.0
H975 H 0.01267 0.47281 0.85478 0.0
C976 C 0.89788 0.61464 0.81411 0.0
C977 C 0.87138 0.60027 0.80117 0.0
C978 C 0.91006 0.58307 0.82556 0.0
C979 C 0.89655 0.53624 0.8242 0.0
C980 C 0.86883 0.52224 0.81142 0.0
C981 C 0.85609 0.55409 0.80006 0.0
C982 C 0.90342 0.42945 0.84946 0.0
C983 C 0.94954 0.43166 0.85481 0.0
C984 C 0.88559 0.4642 0.83999 0.0
C985 C 0.91364 0.50167 0.83553 0.0
C986 C 0.95925 0.50463 0.84136 0.0
C987 C 0.97689 0.4702 0.85096 0.0
H988 H 0.29467 0.52505 0.02923 0.0
H989 H 0.39164 0.61274 0.05448 0.0
H990 H 0.23263 0.54909 0.04731 0.0
H991 H 0.33035 0.63652 0.07227 0.0
H992 H 0.23506 0.63179 0.11148 0.0
H993 H 0.28344 0.59076 0.0926 0.0
H994 H 0.19034 0.63022 0.05565 0.0
H995 H 0.1411 0.67128 0.07478 0.0
C996 C 0.30263 0.54943 0.0386 0.0
C997 C 0.3479 0.56717 0.04045 0.0
C998 C 0.26722 0.56323 0.04885 0.0
C999 C 0.27695 0.59415 0.06124 0.0
C1000 C 0.32206 0.6121 0.06293 0.0
C1001 C 0.35705 0.59888 0.05265 0.0
C1002 C 0.22408 0.63044 0.09939 0.0
C1003 C 0.18483 0.6551 0.0945 0.0
C1004 C 0.25184 0.60715 0.0886 0.0
C1005 C 0.24111 0.60832 0.07267 0.0
C1006 C 0.1993 0.62896 0.06789 0.0
C1007 C 0.17114 0.65227 0.0788 0.0
H1008 H 0.32317 0.49546 0.80231 0.0
H1009 H 0.20216 0.4887 0.7724 0.0
H1010 H 0.29098 0.43322 0.81798 0.0
H1011 H 0.17238 0.42466 0.78722 0.0
H1012 H 0.09957 0.38777 0.83283 0.0
H1013 H 0.13888 0.42995 0.81265 0.0
H1014 H 0.26387 0.35095 0.82087 0.0
H1015 H 0.22355 0.30835 0.84159 0.0
C1016 C 0.29019 0.48037 0.79889 0.0
C1017 C 0.26501 0.49803 0.7862 0.0
C1018 C 0.27219 0.44404 0.80772 0.0
C1019 C 0.22883 0.4244 0.80396 0.0
C1020 C 0.20554 0.43957 0.79058 0.0
C1021 C 0.22304 0.47616 0.78194 0.0
C1022 C 0.1352 0.37871 0.83013 0.0
C1023 C 0.15868 0.34503 0.83874 0.0
C1024 C 0.15772 0.40266 0.81847 0.0
C1025 C 0.20454 0.39376 0.81507 0.0
C1026 C 0.22779 0.35862 0.82327 0.0
C1027 C 0.20479 0.33404 0.83499 0.0
H1028 H 0.30925 0.34951 0.53567 0.0
H1029 H 0.36911 0.48675 0.53909 0.0
H1030 H 0.36784 0.32057 0.55361 0.0
H1031 H 0.42903 0.45777 0.55652 0.0
H1032 H 0.49103 0.40825 0.60156 0.0
H1033 H 0.43451 0.43385 0.58251 0.0
H1034 H 0.44703 0.30232 0.55782 0.0
H1035 H 0.50235 0.27607 0.57739 0.0
C1036 C 0.33568 0.37319 0.54002 0.0
C1037 C 0.33471 0.42034 0.53611 0.0
C1038 C 0.3693 0.35666 0.55028 0.0
C1039 C 0.40291 0.38693 0.55667 0.0
C1040 C 0.40297 0.43373 0.55215 0.0
C1041 C 0.36896 0.45034 0.54209 0.0
C1042 C 0.48157 0.38477 0.59208 0.0
C1043 C 0.50098 0.34019 0.59095 0.0
C1044 C 0.44946 0.39957 0.58107 0.0
C1045 C 0.43658 0.37041 0.56849 0.0
C1046 C 0.45577 0.32554 0.56744 0.0
C1047 C 0.48745 0.31046 0.57863 0.0
H1048 H 0.33112 0.5262 0.29677 0.0
H1049 H 0.46728 0.47799 0.28326 0.0
H1050 H 0.36628 0.58926 0.31194 0.0
H1051 H 0.50262 0.54201 0.29815 0.0
H1052 H 0.54052 0.62173 0.34441 0.0
H1053 H 0.51081 0.56278 0.32616 0.0
H1054 H 0.41046 0.66118 0.30909 0.0
H1055 H 0.44017 0.7198 0.32734 0.0
C1056 C 0.36858 0.52937 0.29695 0.0
C1057 C 0.39648 0.4971 0.28891 0.0
C1058 C 0.38872 0.56573 0.30551 0.0
C1059 C 0.43722 0.57055 0.30623 0.0
C1060 C 0.46516 0.5389 0.2979 0.0
C1061 C 0.44494 0.50259 0.28926 0.0
C1062 C 0.51302 0.63098 0.33647 0.0
C1063 C 0.49297 0.6753 0.3372 0.0
C1064 C 0.49588 0.59728 0.32606 0.0
C1065 C 0.45828 0.60739 0.31621 0.0
C1066 C 0.43907 0.65219 0.31668 0.0
C1067 C 0.45613 0.68574 0.3271 0.0
H1068 H 0.38787 0.37341 0.94429 0.0
H1069 H 0.29376 0.4607 0.97064 0.0
H1070 H 0.32526 0.35228 0.92647 0.0
H1071 H 0.23042 0.43914 0.95258 0.0
H1072 H 0.2293 0.36762 0.88731 0.0
H1073 H 0.27802 0.40532 0.90699 0.0
H1074 H 0.18745 0.356 0.94311 0.0
H1075 H 0.13803 0.31805 0.92319 0.0
C1076 C 0.35361 0.38763 0.94638 0.0
C1077 C 0.34568 0.41862 0.95887 0.0
C1078 C 0.3179 0.37589 0.9361 0.0
C1079 C 0.27327 0.39455 0.9381 0.0
C1080 C 0.26465 0.4245 0.95082 0.0
C1081 C 0.3008 0.43687 0.96106 0.0
C1082 C 0.21884 0.36622 0.89941 0.0
C1083 C 0.18034 0.33962 0.9038 0.0
C1084 C 0.24679 0.38759 0.91065 0.0
C1085 C 0.2369 0.38264 0.92652 0.0
C1086 C 0.19569 0.36018 0.93091 0.0
C1087 C 0.16739 0.33872 0.91955 0.0
H1088 H 0.4781 0.52209 0.71257 0.0
H1089 H 0.33805 0.47875 0.70165 0.0
H1090 H 0.50829 0.4589 0.6961 0.0
H1091 H 0.36798 0.41649 0.68499 0.0
H1092 H 0.437 0.28495 0.66712 0.0
H1093 H 0.41105 0.34323 0.6861 0.0
H1094 H 0.50891 0.44158 0.66752 0.0
H1095 H 0.53524 0.38275 0.64864 0.0
C1096 C 0.45387 0.49867 0.70681 0.0
C1097 C 0.40579 0.5053 0.70831 0.0
C1098 C 0.47108 0.4629 0.69728 0.0
C1099 C 0.44046 0.43299 0.68921 0.0
C1100 C 0.39242 0.43877 0.69115 0.0
C1101 C 0.37528 0.47458 0.70059 0.0
C1102 C 0.45307 0.31899 0.66717 0.0
C1103 C 0.48851 0.32938 0.65659 0.0
C1104 C 0.43822 0.3523 0.678 0.0
C1105 C 0.45819 0.39682 0.67834 0.0
C1106 C 0.49366 0.40719 0.66774 0.0
C1107 C 0.50879 0.37365 0.65697 0.0
H1108 H 0.26847 0.562 0.42918 0.0
H1109 H 0.36037 0.58435 0.4685 0.0
H1110 H 0.32537 0.5977 0.41215 0.0
H1111 H 0.41656 0.62129 0.45145 0.0
H1112 H 0.48937 0.71885 0.41723 0.0
H1113 H 0.42555 0.69259 0.43382 0.0
H1114 H 0.4061 0.57258 0.40367 0.0
H1115 H 0.46961 0.59856 0.38725 0.0
C1116 C 0.30082 0.57433 0.4342 0.0
C1117 C 0.31006 0.5698 0.45019 0.0
C1118 C 0.33316 0.59512 0.42445 0.0
C1119 C 0.3752 0.61226 0.43052 0.0
C1120 C 0.38407 0.6089 0.44654 0.0
C1121 C 0.35192 0.58768 0.45628 0.0
C1122 C 0.47083 0.68731 0.41407 0.0
C1123 C 0.48423 0.66064 0.40103 0.0
C1124 C 0.43472 0.67214 0.42359 0.0
C1125 C 0.41107 0.63058 0.42 0.0
C1126 C 0.42349 0.60495 0.40662 0.0
C1127 C 0.45994 0.61966 0.39729 0.0
H1128 H 0.1922 0.51176 0.22057 0.0
H1129 H 0.32795 0.50366 0.19941 0.0
H1130 H 0.17272 0.57673 0.20405 0.0
H1131 H 0.30782 0.56828 0.1826 0.0
H1132 H 0.14839 0.70073 0.17511 0.0
H1133 H 0.18976 0.659 0.19567 0.0
H1134 H 0.25013 0.56785 0.1608 0.0
H1135 H 0.20867 0.60898 0.14053 0.0
C1136 C 0.21837 0.52453 0.21269 0.0
C1137 C 0.26144 0.50197 0.21118 0.0
C1138 C 0.2072 0.56196 0.20324 0.0
C1139 C 0.23871 0.57752 0.192 0.0
C1140 C 0.28273 0.55674 0.19108 0.0
C1141 C 0.29405 0.51949 0.20061 0.0
C1142 C 0.17193 0.6729 0.1719 0.0
C1143 C 0.17535 0.65772 0.15634 0.0
C1144 C 0.19524 0.64882 0.18362 0.0
C1145 C 0.22282 0.60991 0.17984 0.0
C1146 C 0.22949 0.59784 0.16409 0.0
C1147 C 0.20566 0.62127 0.15248 0.0
loop_
_geom_bond_atom_site_label_1
_geom_bond_atom_site_label_2
_geom_bond_distance
_geom_bond_site_symmetry_2
_ccdc_geom_bond_type
H0 C19 0.949 . S
H1 C20 0.950 . S
H2 C22 0.950 1_545 S
H3 C23 0.972 . S
H4 C25 0.950 . S
H5 C28 0.950 1_565 S
H6 C29 0.950 . S
H7 C31 0.951 . S
H8 C32 0.949 . S
H9 C34 0.949 . S
H10 C35 0.950 . S
H11 C37 0.950 1_565 S
H12 C38 0.949 . S
H13 C40 0.950 . S
H14 C43 0.950 1_545 S
H15 C44 0.958 . S
H16 C46 0.951 . S
H17 C47 0.949 . S
C18 C19 1.376 . S
C18 C23 1.371 1_565 S
C18 C24 1.483 . S
C19 H0 0.949 . S
C19 C18 1.376 . S
C19 C20 1.397 . S
C20 H1 0.950 . S
C20 C19 1.397 . S
C20 C21 1.391 . S
C21 C20 1.391 . S
C21 C22 1.405 . S
C22 H2 0.950 1_565 S
C22 C21 1.405 . S
C22 C23 1.361 1_565 S
C23 H3 0.972 . S
C23 C18 1.371 1_545 S
C23 C22 1.361 1_545 S
C24 C18 1.483 . S
C24 C25 1.382 1_655 S
C24 C26 1.403 1_565 S
C25 H4 0.950 . S
C25 C24 1.382 1_455 S
C25 C41 1.411 . S
C26 C24 1.403 1_545 S
C26 C27 1.489 . S
C26 C40 1.411 1_655 S
C27 C26 1.489 . S
C27 C28 1.383 . S
C27 C32 1.382 . S
C28 H5 0.950 1_545 S
C28 C27 1.383 . S
C28 C29 1.395 . S
C29 H6 0.950 . S
C29 C28 1.395 . S
C29 C30 1.288 . S
C30 C29 1.288 . S
C30 C31 1.392 . S
C31 H7 0.951 . S
C31 C30 1.392 . S
C31 C32 1.392 . S
C32 H8 0.949 . S
C32 C27 1.382 . S
C32 C31 1.392 . S
C33 C34 1.376 . S
C33 C38 1.387 1_545 S
C33 C39 1.483 . S
C34 H9 0.949 . S
C34 C33 1.376 . S
C34 C35 1.397 . S
C35 H10 0.950 . S
C35 C34 1.397 . S
C35 C36 1.391 . S
C36 C35 1.391 . S
C36 C37 1.405 . S
C37 H11 0.950 1_545 S
C37 C36 1.405 . S
C37 C38 1.368 1_545 S
C38 H12 0.949 . S
C38 C33 1.387 1_565 S
C38 C37 1.368 1_565 S
C39 C33 1.483 . S
C39 C40 1.382 . S
C39 C41 1.403 1_545 S
C40 H13 0.950 . S
C40 C26 1.411 1_455 S
C40 C39 1.382 . S
C41 C25 1.411 . S
C41 C39 1.403 1_565 S
C41 C42 1.489 . S
C42 C41 1.489 . S
C42 C43 1.383 . S
C42 C47 1.382 . S
C43 H14 0.950 1_565 S
C43 C42 1.383 . S
C43 C44 1.395 . S
C44 H15 0.958 . S
C44 C43 1.395 . S
C44 C45 1.288 . S
C45 C44 1.288 . S
C45 C46 1.392 . S
C46 H16 0.951 . S
C46 C45 1.392 . S
C46 C47 1.392 . S
C47 H17 0.949 . S
C47 C42 1.382 . S
C47 C46 1.392 . S
H48 C67 0.949 . S
H49 C68 0.950 . S
H50 C70 0.950 . S
H51 C71 0.950 . S
H52 C73 0.950 . S
H53 C76 0.950 . S
H54 C77 0.950 . S
H55 C79 0.951 . S
H56 C80 0.949 . S
H57 C82 0.949 . S
H58 C83 0.950 . S
H59 C85 0.950 . S
H60 C86 0.950 . S
H61 C88 0.950 . S
H62 C91 0.950 . S
H63 C92 0.950 . S
H64 C94 0.951 . S
H65 C95 0.949 . S
C66 C67 1.376 . S
C66 C71 1.386 . S
C66 C72 1.483 . S
C67 H48 0.949 . S
C67 C66 1.376 . S
C67 C68 1.397 . S
C68 H49 0.950 . S
C68 C67 1.397 . S
C68 C69 1.391 . S
C69 C68 1.391 . S
C69 C70 1.405 . S
C70 H50 0.950 . S
C70 C69 1.405 . S
C70 C71 1.367 . S
C71 H51 0.950 . S
C71 C66 1.386 . S
C71 C70 1.367 . S
C72 C66 1.483 . S
C72 C73 1.382 . S
C72 C74 1.403 . S
C73 H52 0.950 . S
C73 C72 1.382 . S
C73 C89 1.411 . S
C74 C72 1.403 . S
C74 C75 1.489 . S
C74 C88 1.411 . S
C75 C74 1.489 . S
C75 C76 1.383 . S
C75 C80 1.382 . S
C76 H53 0.950 . S
C76 C75 1.383 . S
C76 C77 1.395 . S
C77 H54 0.950 . S
C77 C76 1.395 . S
C77 C78 1.288 . S
C78 C77 1.288 . S
C78 C79 1.392 . S
C79 H55 0.951 . S
C79 C78 1.392 . S
C79 C80 1.392 . S
C80 H56 0.949 . S
C80 C75 1.382 . S
C80 C79 1.392 . S
C81 C82 1.376 . S
C81 C86 1.386 . S
C81 C87 1.483 . S
C82 H57 0.949 . S
C82 C81 1.376 . S
C82 C83 1.397 . S
C83 H58 0.950 . S
C83 C82 1.397 . S
C83 C84 1.391 . S
C84 C83 1.391 . S
C84 C85 1.405 . S
C85 H59 0.950 . S
C85 C84 1.405 . S
C85 C86 1.367 . S
C86 H60 0.950 . S
C86 C81 1.386 . S
C86 C85 1.367 . S
C87 C81 1.483 . S
C87 C88 1.382 . S
C87 C89 1.403 . S
C88 H61 0.950 . S
C88 C74 1.411 . S
C88 C87 1.382 . S
C89 C73 1.411 . S
C89 C87 1.403 . S
C89 C90 1.489 . S
C90 C89 1.489 . S
C90 C91 1.383 . S
C90 C95 1.382 . S
C91 H62 0.950 . S
C91 C90 1.383 . S
C91 C92 1.395 . S
C92 H63 0.950 . S
C92 C91 1.395 . S
C92 C93 1.288 . S
C93 C92 1.288 . S
C93 C94 1.392 . S
C94 H64 0.951 . S
C94 C93 1.392 . S
C94 C95 1.392 . S
C95 H65 0.949 . S
C95 C90 1.382 . S
C95 C94 1.392 . S
H96 C115 0.949 1_545 S
H97 C116 0.950 . S
H98 C118 0.950 . S
H99 C119 0.950 1_556 S
H100 C121 0.950 . S
H101 C124 0.950 1_554 S
H102 C125 0.950 . S
H103 C127 0.951 . S
H104 C128 0.949 1_565 S
H105 C130 0.949 1_565 S
H106 C131 0.950 . S
H107 C133 0.950 . S
H108 C134 0.950 1_554 S
H109 C136 0.950 . S
H110 C139 0.901 1_556 S
H111 C140 0.950 . S
H112 C142 0.951 . S
H113 C143 0.949 1_545 S
C114 C115 1.376 . S
C114 C119 1.386 . S
C114 C120 1.483 . S
C115 H96 0.949 1_565 S
C115 C114 1.376 . S
C115 C116 1.397 . S
C116 H97 0.950 . S
C116 C115 1.397 . S
C116 C117 1.391 . S
C117 C116 1.391 . S
C117 C118 1.405 . S
C118 H98 0.950 . S
C118 C117 1.405 . S
C118 C119 1.367 . S
C119 H99 0.950 1_554 S
C119 C114 1.386 . S
C119 C118 1.367 . S
C120 C114 1.483 . S
C120 C121 1.382 . S
C120 C122 1.403 1_564 S
C121 H100 0.950 . S
C121 C120 1.382 . S
C121 C137 1.411 . S
C122 C120 1.403 1_546 S
C122 C123 1.489 . S
C122 C136 1.411 . S
C123 C122 1.489 . S
C123 C124 1.383 . S
C123 C128 1.382 . S
C124 H101 0.950 1_556 S
C124 C123 1.383 . S
C124 C125 1.395 . S
C125 H102 0.950 . S
C125 C124 1.395 . S
C125 C126 1.288 . S
C126 C125 1.288 . S
C126 C127 1.392 . S
C127 H103 0.951 . S
C127 C126 1.392 . S
C127 C128 1.392 . S
C128 H104 0.949 1_545 S
C128 C123 1.382 . S
C128 C127 1.392 . S
C129 C130 1.376 . S
C129 C134 1.386 . S
C129 C135 1.483 . S
C130 H105 0.949 1_545 S
C130 C129 1.376 . S
C130 C131 1.397 . S
C131 H106 0.950 . S
C131 C130 1.397 . S
C131 C132 1.391 . S
C132 C131 1.391 . S
C132 C133 1.405 . S
C133 H107 0.950 . S
C133 C132 1.405 . S
C133 C134 1.367 . S
C134 H108 0.950 1_556 S
C134 C129 1.386 . S
C134 C133 1.367 . S
C135 C129 1.483 . S
C135 C136 1.382 . S
C135 C137 1.403 1_546 S
C136 H109 0.950 . S
C136 C122 1.411 . S
C136 C135 1.382 . S
C137 C121 1.411 . S
C137 C135 1.403 1_564 S
C137 C138 1.489 . S
C138 C137 1.489 . S
C138 C139 1.383 . S
C138 C143 1.382 . S
C139 H110 0.901 1_554 S
C139 C138 1.383 . S
C139 C140 1.395 . S
C140 H111 0.950 . S
C140 C139 1.395 . S
C140 C141 1.288 . S
C141 C140 1.288 . S
C141 C142 1.392 . S
C142 H112 0.951 . S
C142 C141 1.392 . S
C142 C143 1.392 . S
C143 H113 0.949 1_565 S
C143 C138 1.382 . S
C143 C142 1.392 . S
H144 C163 0.949 . S
H145 C164 0.950 . S
H146 C166 0.950 . S
H147 C167 0.950 . S
H148 C169 0.950 . S
H149 C172 0.950 . S
H150 C173 0.950 . S
H151 C175 0.951 . S
H152 C176 0.949 . S
H153 C178 0.949 . S
H154 C179 0.950 . S
H155 C181 0.950 . S
H156 C182 0.950 . S
H157 C184 0.950 . S
H158 C187 0.950 . S
H159 C188 0.950 . S
H160 C190 0.951 . S
H161 C191 0.949 . S
C162 C163 1.376 . S
C162 C167 1.386 . S
C162 C168 1.483 . S
C163 H144 0.949 . S
C163 C162 1.376 . S
C163 C164 1.397 . S
C164 H145 0.950 . S
C164 C163 1.397 . S
C164 C165 1.391 . S
C165 C164 1.391 . S
C165 C166 1.405 . S
C166 H146 0.950 . S
C166 C165 1.405 . S
C166 C167 1.367 . S
C167 H147 0.950 . S
C167 C162 1.386 . S
C167 C166 1.367 . S
C168 C162 1.483 . S
C168 C169 1.382 . S
C168 C170 1.403 . S
C169 H148 0.950 . S
C169 C168 1.382 . S
C169 C185 1.411 . S
C170 C168 1.403 . S
C170 C171 1.489 . S
C170 C184 1.411 . S
C171 C170 1.489 . S
C171 C172 1.383 . S
C171 C176 1.382 . S
C172 H149 0.950 . S
C172 C171 1.383 . S
C172 C173 1.395 . S
C173 H150 0.950 . S
C173 C172 1.395 . S
C173 C174 1.288 . S
C174 C173 1.288 . S
C174 C175 1.392 . S
C175 H151 0.951 . S
C175 C174 1.392 . S
C175 C176 1.392 . S
C176 H152 0.949 . S
C176 C171 1.382 . S
C176 C175 1.392 . S
C177 C178 1.376 . S
C177 C182 1.386 . S
C177 C183 1.483 . S
C178 H153 0.949 . S
C178 C177 1.376 . S
C178 C179 1.397 . S
C179 H154 0.950 . S
C179 C178 1.397 . S
C179 C180 1.391 . S
C180 C179 1.391 . S
C180 C181 1.405 . S
C181 H155 0.950 . S
C181 C180 1.405 . S
C181 C182 1.367 . S
C182 H156 0.950 . S
C182 C177 1.386 . S
C182 C181 1.367 . S
C183 C177 1.483 . S
C183 C184 1.382 . S
C183 C185 1.403 . S
C184 H157 0.950 . S
C184 C170 1.411 . S
C184 C183 1.382 . S
C185 C169 1.411 . S
C185 C183 1.403 . S
C185 C186 1.489 . S
C186 C185 1.489 . S
C186 C187 1.383 . S
C186 C191 1.382 . S
C187 H158 0.950 . S
C187 C186 1.383 . S
C187 C188 1.395 . S
C188 H159 0.950 . S
C188 C187 1.395 . S
C188 C189 1.288 . S
C189 C188 1.288 . S
C189 C190 1.392 . S
C190 H160 0.951 . S
C190 C189 1.392 . S
C190 C191 1.392 . S
C191 H161 0.949 . S
C191 C186 1.382 . S
C191 C190 1.392 . S
H192 C211 0.949 . S
H193 C212 0.950 . S
H194 C214 0.950 . S
H195 C215 0.950 . S
H196 C217 0.950 . S
H197 C220 0.950 . S
H198 C221 0.950 . S
H199 C223 0.951 . S
H200 C224 0.949 . S
H201 C226 0.949 . S
H202 C227 0.950 . S
H203 C229 0.950 . S
H204 C230 0.950 . S
H205 C232 0.950 . S
H206 C235 0.950 . S
H207 C236 0.950 . S
H208 C238 0.951 . S
H209 C239 0.949 . S
C210 C211 1.376 . S
C210 C215 1.386 . S
C210 C216 1.483 . S
C211 H192 0.949 . S
C211 C210 1.376 . S
C211 C212 1.397 . S
C212 H193 0.950 . S
C212 C211 1.397 . S
C212 C213 1.391 . S
C213 C212 1.391 . S
C213 C214 1.405 . S
C214 H194 0.950 . S
C214 C213 1.405 . S
C214 C215 1.367 . S
C215 H195 0.950 . S
C215 C210 1.386 . S
C215 C214 1.367 . S
C216 C210 1.483 . S
C216 C217 1.382 . S
C216 C218 1.403 . S
C217 H196 0.950 . S
C217 C216 1.382 . S
C217 C233 1.411 . S
C218 C216 1.403 . S
C218 C219 1.489 . S
C218 C232 1.411 . S
C219 C218 1.489 . S
C219 C220 1.383 . S
C219 C224 1.382 . S
C220 H197 0.950 . S
C220 C219 1.383 . S
C220 C221 1.395 . S
C221 H198 0.950 . S
C221 C220 1.395 . S
C221 C222 1.288 . S
C222 C221 1.288 . S
C222 C223 1.392 . S
C223 H199 0.951 . S
C223 C222 1.392 . S
C223 C224 1.392 . S
C224 H200 0.949 . S
C224 C219 1.382 . S
C224 C223 1.392 . S
C225 C226 1.376 . S
C225 C230 1.386 . S
C225 C231 1.483 . S
C226 H201 0.949 . S
C226 C225 1.376 . S
C226 C227 1.397 . S
C227 H202 0.950 . S
C227 C226 1.397 . S
C227 C228 1.391 . S
C228 C227 1.391 . S
C228 C229 1.405 . S
C229 H203 0.950 . S
C229 C228 1.405 . S
C229 C230 1.367 . S
C230 H204 0.950 . S
C230 C225 1.386 . S
C230 C229 1.367 . S
C231 C225 1.483 . S
C231 C232 1.382 . S
C231 C233 1.403 . S
C232 H205 0.950 . S
C232 C218 1.411 . S
C232 C231 1.382 . S
C233 C217 1.411 . S
C233 C231 1.403 . S
C233 C234 1.489 . S
C234 C233 1.489 . S
C234 C235 1.383 . S
C234 C239 1.382 . S
C235 H206 0.950 . S
C235 C234 1.383 . S
C235 C236 1.395 . S
C236 H207 0.950 . S
C236 C235 1.395 . S
C236 C237 1.288 . S
C237 C236 1.288 . S
C237 C238 1.392 . S
C238 H208 0.951 . S
C238 C237 1.392 . S
C238 C239 1.392 . S
C239 H209 0.949 . S
C239 C234 1.382 . S
C239 C238 1.392 . S
H240 C259 0.949 . S
H241 C260 0.950 . S
H242 C262 0.950 . S
H243 C263 0.950 . S
H244 C265 0.950 . S
H245 C268 0.950 . S
H246 C269 0.950 . S
H247 C271 0.951 . S
H248 C272 0.949 . S
H249 C274 0.949 . S
H250 C275 0.950 . S
H251 C277 0.950 . S
H252 C278 0.950 . S
H253 C280 0.950 . S
H254 C283 0.950 . S
H255 C284 0.950 . S
H256 C286 0.951 . S
H257 C287 0.949 . S
C258 C259 1.376 . S
C258 C263 1.386 . S
C258 C264 1.483 . S
C259 H240 0.949 . S
C259 C258 1.376 . S
C259 C260 1.397 . S
C260 H241 0.950 . S
C260 C259 1.397 . S
C260 C261 1.391 . S
C261 C260 1.391 . S
C261 C262 1.405 . S
C262 H242 0.950 . S
C262 C261 1.405 . S
C262 C263 1.367 . S
C263 H243 0.950 . S
C263 C258 1.386 . S
C263 C262 1.367 . S
C264 C258 1.483 . S
C264 C265 1.382 . S
C264 C266 1.403 . S
C265 H244 0.950 . S
C265 C264 1.382 . S
C265 C281 1.411 . S
C266 C264 1.403 . S
C266 C267 1.489 . S
C266 C280 1.411 . S
C267 C266 1.489 . S
C267 C268 1.383 . S
C267 C272 1.382 . S
C268 H245 0.950 . S
C268 C267 1.383 . S
C268 C269 1.395 . S
C269 H246 0.950 . S
C269 C268 1.395 . S
C269 C270 1.288 . S
C270 C269 1.288 . S
C270 C271 1.392 . S
C271 H247 0.951 . S
C271 C270 1.392 . S
C271 C272 1.392 . S
C272 H248 0.949 . S
C272 C267 1.382 . S
C272 C271 1.392 . S
C273 C274 1.376 . S
C273 C278 1.386 . S
C273 C279 1.483 . S
C274 H249 0.949 . S
C274 C273 1.376 . S
C274 C275 1.397 . S
C275 H250 0.950 . S
C275 C274 1.397 . S
C275 C276 1.391 . S
C276 C275 1.391 . S
C276 C277 1.405 . S
C277 H251 0.950 . S
C277 C276 1.405 . S
C277 C278 1.367 . S
C278 H252 0.950 . S
C278 C273 1.386 . S
C278 C277 1.367 . S
C279 C273 1.483 . S
C279 C280 1.382 . S
C279 C281 1.403 . S
C280 H253 0.950 . S
C280 C266 1.411 . S
C280 C279 1.382 . S
C281 C265 1.411 . S
C281 C279 1.403 . S
C281 C282 1.489 . S
C282 C281 1.489 . S
C282 C283 1.383 . S
C282 C287 1.382 . S
C283 H254 0.950 . S
C283 C282 1.383 . S
C283 C284 1.395 . S
C284 H255 0.950 . S
C284 C283 1.395 . S
C284 C285 1.288 . S
C285 C284 1.288 . S
C285 C286 1.392 . S
C286 H256 0.951 . S
C286 C285 1.392 . S
C286 C287 1.392 . S
C287 H257 0.949 . S
C287 C282 1.382 . S
C287 C286 1.392 . S
H288 C307 0.949 . S
H289 C308 0.950 . S
H290 C310 0.950 . S
H291 C311 0.950 . S
H292 C313 0.950 . S
H293 C316 0.950 . S
H294 C317 0.950 . S
H295 C319 0.951 . S
H296 C320 0.949 . S
H297 C322 0.949 . S
H298 C323 0.950 . S
H299 C325 0.950 . S
H300 C326 0.950 . S
H301 C328 0.950 . S
H302 C331 0.950 . S
H303 C332 0.950 . S
H304 C334 0.951 . S
H305 C335 0.949 . S
C306 C307 1.376 . S
C306 C311 1.386 . S
C306 C312 1.483 . S
C307 H288 0.949 . S
C307 C306 1.376 . S
C307 C308 1.397 . S
C308 H289 0.950 . S
C308 C307 1.397 . S
C308 C309 1.391 . S
C309 C308 1.391 . S
C309 C310 1.405 . S
C310 H290 0.950 . S
C310 C309 1.405 . S
C310 C311 1.367 . S
C311 H291 0.950 . S
C311 C306 1.386 . S
C311 C310 1.367 . S
C312 C306 1.483 . S
C312 C313 1.382 . S
C312 C314 1.403 1_556 S
C313 H292 0.950 . S
C313 C312 1.382 . S
C313 C329 1.411 . S
C314 C312 1.403 1_554 S
C314 C315 1.489 . S
C314 C328 1.411 . S
C315 C314 1.489 . S
C315 C316 1.383 . S
C315 C320 1.382 . S
C316 H293 0.950 . S
C316 C315 1.383 . S
C316 C317 1.395 . S
C317 H294 0.950 . S
C317 C316 1.395 . S
C317 C318 1.288 . S
C318 C317 1.288 . S
C318 C319 1.392 . S
C319 H295 0.951 . S
C319 C318 1.392 . S
C319 C320 1.392 . S
C320 H296 0.949 . S
C320 C315 1.382 . S
C320 C319 1.392 . S
C321 C322 1.376 . S
C321 C326 1.386 . S
C321 C327 1.483 . S
C322 H297 0.949 . S
C322 C321 1.376 . S
C322 C323 1.397 . S
C323 H298 0.950 . S
C323 C322 1.397 . S
C323 C324 1.391 . S
C324 C323 1.391 . S
C324 C325 1.405 . S
C325 H299 0.950 . S
C325 C324 1.405 . S
C325 C326 1.367 . S
C326 H300 0.950 . S
C326 C321 1.386 . S
C326 C325 1.367 . S
C327 C321 1.483 . S
C327 C328 1.382 . S
C327 C329 1.403 1_554 S
C328 H301 0.950 . S
C328 C314 1.411 . S
C328 C327 1.382 . S
C329 C313 1.411 . S
C329 C327 1.403 1_556 S
C329 C330 1.489 . S
C330 C329 1.489 . S
C330 C331 1.383 . S
C330 C335 1.382 . S
C331 H302 0.950 . S
C331 C330 1.383 . S
C331 C332 1.395 . S
C332 H303 0.950 . S
C332 C331 1.395 . S
C332 C333 1.288 . S
C333 C332 1.288 . S
C333 C334 1.392 . S
C334 H304 0.951 . S
C334 C333 1.392 . S
C334 C335 1.392 . S
C335 H305 0.949 . S
C335 C330 1.382 . S
C335 C334 1.392 . S
H336 C355 0.949 . S
H337 C356 0.950 . S
H338 C358 0.950 . S
H339 C359 0.950 . S
H340 C361 0.950 . S
H341 C364 0.950 . S
H342 C365 0.950 . S
H343 C367 0.951 . S
H344 C368 0.949 . S
H345 C370 0.949 . S
H346 C371 0.950 . S
H347 C373 0.950 . S
H348 C374 0.950 . S
H349 C376 0.950 . S
H350 C379 0.950 . S
H351 C380 0.950 . S
H352 C382 0.951 . S
H353 C383 0.949 . S
C354 C355 1.376 . S
C354 C359 1.386 . S
C354 C360 1.483 . S
C355 H336 0.949 . S
C355 C354 1.376 . S
C355 C356 1.397 . S
C356 H337 0.950 . S
C356 C355 1.397 . S
C356 C357 1.391 1_455 S
C357 C356 1.391 1_655 S
C357 C358 1.405 . S
C358 H338 0.950 . S
C358 C357 1.405 . S
C358 C359 1.367 1_655 S
C359 H339 0.950 . S
C359 C354 1.386 . S
C359 C358 1.367 1_455 S
C360 C354 1.483 . S
C360 C361 1.382 . S
C360 C362 1.403 . S
C361 H340 0.950 . S
C361 C360 1.382 . S
C361 C377 1.411 . S
C362 C360 1.403 . S
C362 C363 1.489 . S
C362 C376 1.411 . S
C363 C362 1.489 . S
C363 C364 1.383 . S
C363 C368 1.382 . S
C364 H341 0.950 . S
C364 C363 1.383 . S
C364 C365 1.395 1_455 S
C365 H342 0.950 . S
C365 C364 1.395 1_655 S
C365 C366 1.288 . S
C366 C365 1.288 . S
C366 C367 1.392 1_655 S
C367 H343 0.951 . S
C367 C366 1.392 1_455 S
C367 C368 1.392 . S
C368 H344 0.949 . S
C368 C363 1.382 . S
C368 C367 1.392 . S
C369 C370 1.376 . S
C369 C374 1.386 . S
C369 C375 1.483 . S
C370 H345 0.949 . S
C370 C369 1.376 . S
C370 C371 1.397 . S
C371 H346 0.950 . S
C371 C370 1.397 . S
C371 C372 1.391 . S
C372 C371 1.391 . S
C372 C373 1.405 . S
C373 H347 0.950 . S
C373 C372 1.405 . S
C373 C374 1.367 . S
C374 H348 0.950 . S
C374 C369 1.386 . S
C374 C373 1.367 . S
C375 C369 1.483 . S
C375 C376 1.382 . S
C375 C377 1.403 . S
C376 H349 0.950 . S
C376 C362 1.411 . S
C376 C375 1.382 . S
C377 C361 1.411 . S
C377 C375 1.403 . S
C377 C378 1.489 . S
C378 C377 1.489 . S
C378 C379 1.383 . S
C378 C383 1.382 . S
C379 H350 0.950 . S
C379 C378 1.383 . S
C379 C380 1.395 . S
C380 H351 0.950 . S
C380 C379 1.395 . S
C380 C381 1.288 . S
C381 C380 1.288 . S
C381 C382 1.392 . S
C382 H352 0.951 . S
C382 C381 1.392 . S
C382 C383 1.392 . S
C383 H353 0.949 . S
C383 C378 1.382 . S
C383 C382 1.392 . S
C384 O411 1.312 . S
C384 O412 1.208 . S
C385 O406 1.331 1_655 S
C385 O409 1.244 . S
C386 O408 1.264 1_655 S
C386 O410 1.273 . S
Mg387 O389 1.936 . S
Mg387 O396 2.081 . S
Mg387 O398 2.023 . S
Mg387 O402 2.031 . S
Mg387 O411 2.291 . S
Mg388 O389 1.963 . S
Mg388 O399 1.942 . S
Mg388 O400 1.955 . S
Mg388 O407 1.986 . S
O389 Mg387 1.936 . S
O389 Mg388 1.963 . S
O389 Mg390 1.915 . S
Mg390 O389 1.915 . S
Mg390 O391 1.915 . S
Mg390 O395 2.013 . S
Mg390 O401 2.114 . S
Mg390 O405 2.013 . S
Mg390 O411 2.114 . S
O391 Mg390 1.915 . S
O391 Mg392 1.936 . S
O391 Mg393 1.963 1_455 S
Mg392 O391 1.936 . S
Mg392 O401 2.291 . S
Mg392 O406 2.081 . S
Mg392 O408 2.023 . S
Mg392 O412 2.031 . S
Mg393 O391 1.963 1_655 S
Mg393 O397 1.986 . S
Mg393 O409 1.942 . S
Mg393 O410 1.955 . S
C394 O405 1.191 . S
C394 O407 1.307 . S
O395 Mg390 2.013 . S
O395 C414 1.191 . S
O396 Mg387 2.081 . S
O396 C404 1.331 . S
O397 Mg393 1.986 . S
O397 C414 1.307 1_655 S
O398 Mg387 2.023 . S
O398 C413 1.264 . S
O399 Mg388 1.942 . S
O399 C404 1.244 . S
O400 Mg388 1.955 . S
O400 C413 1.273 . S
O401 Mg390 2.114 . S
O401 Mg392 2.291 . S
O401 C403 1.312 . S
O402 Mg387 2.031 . S
O402 C403 1.208 . S
C403 O401 1.312 . S
C403 O402 1.208 . S
C404 O396 1.331 . S
C404 O399 1.244 . S
O405 Mg390 2.013 . S
O405 C394 1.191 . S
O406 C385 1.331 1_455 S
O406 Mg392 2.081 . S
O407 Mg388 1.986 . S
O407 C394 1.307 . S
O408 C386 1.264 1_455 S
O408 Mg392 2.023 . S
O409 C385 1.244 . S
O409 Mg393 1.942 . S
O410 C386 1.273 . S
O410 Mg393 1.955 . S
O411 C384 1.312 . S
O411 Mg387 2.291 . S
O411 Mg390 2.114 . S
O412 C384 1.208 . S
O412 Mg392 2.031 . S
C413 O398 1.264 . S
C413 O400 1.273 . S
C414 O395 1.191 . S
C414 O397 1.307 1_455 S
C415 O442 1.312 . S
C415 O443 1.208 . S
C416 O437 1.331 . S
C416 O440 1.244 . S
C417 O439 1.264 . S
C417 O441 1.273 . S
Mg418 O420 1.936 . S
Mg418 O427 2.081 . S
Mg418 O429 2.023 . S
Mg418 O433 2.031 . S
Mg418 O442 2.291 . S
Mg419 O420 1.963 . S
Mg419 O430 1.942 . S
Mg419 O431 1.955 . S
Mg419 O438 1.986 . S
O420 Mg418 1.936 . S
O420 Mg419 1.963 . S
O420 Mg421 1.915 . S
Mg421 O420 1.915 . S
Mg421 O422 1.915 . S
Mg421 O426 2.013 . S
Mg421 O432 2.114 . S
Mg421 O436 2.013 . S
Mg421 O442 2.114 . S
O422 Mg421 1.915 . S
O422 Mg423 1.936 . S
O422 Mg424 1.963 . S
Mg423 O422 1.936 . S
Mg423 O432 2.291 . S
Mg423 O437 2.081 . S
Mg423 O439 2.023 . S
Mg423 O443 2.031 . S
Mg424 O422 1.963 . S
Mg424 O428 1.986 . S
Mg424 O440 1.942 . S
Mg424 O441 1.955 . S
C425 O436 1.191 . S
C425 O438 1.307 . S
O426 Mg421 2.013 . S
O426 C445 1.191 . S
O427 Mg418 2.081 . S
O427 C435 1.331 . S
O428 Mg424 1.986 . S
O428 C445 1.307 . S
O429 Mg418 2.023 . S
O429 C444 1.264 . S
O430 Mg419 1.942 . S
O430 C435 1.244 . S
O431 Mg419 1.955 . S
O431 C444 1.273 . S
O432 Mg421 2.114 . S
O432 Mg423 2.291 . S
O432 C434 1.312 . S
O433 Mg418 2.031 . S
O433 C434 1.208 . S
C434 O432 1.312 . S
C434 O433 1.208 . S
C435 O427 1.331 . S
C435 O430 1.244 . S
O436 Mg421 2.013 . S
O436 C425 1.191 . S
O437 C416 1.331 . S
O437 Mg423 2.081 . S
O438 Mg419 1.986 . S
O438 C425 1.307 . S
O439 C417 1.264 . S
O439 Mg423 2.023 . S
O440 C416 1.244 . S
O440 Mg424 1.942 . S
O441 C417 1.273 . S
O441 Mg424 1.955 . S
O442 C415 1.312 . S
O442 Mg418 2.291 . S
O442 Mg421 2.114 . S
O443 C415 1.208 . S
O443 Mg423 2.031 . S
C444 O429 1.264 . S
C444 O431 1.273 . S
C445 O426 1.191 . S
C445 O428 1.307 . S
C446 O473 1.312 . S
C446 O474 1.208 . S
C447 O468 1.331 . S
C447 O471 1.244 . S
C448 O470 1.264 . S
C448 O472 1.273 . S
Mg449 O451 1.936 . S
Mg449 O458 2.081 . S
Mg449 O460 2.023 . S
Mg449 O464 2.031 . S
Mg449 O473 2.291 . S
Mg450 O451 1.963 . S
Mg450 O461 1.942 . S
Mg450 O462 1.955 . S
Mg450 O469 1.986 . S
O451 Mg449 1.936 . S
O451 Mg450 1.963 . S
O451 Mg452 1.915 . S
Mg452 O451 1.915 . S
Mg452 O453 1.915 . S
Mg452 O457 2.013 . S
Mg452 O463 2.114 . S
Mg452 O467 2.013 . S
Mg452 O473 2.114 . S
O453 Mg452 1.915 . S
O453 Mg454 1.936 . S
O453 Mg455 1.963 . S
Mg454 O453 1.936 . S
Mg454 O463 2.291 . S
Mg454 O468 2.081 . S
Mg454 O470 2.023 . S
Mg454 O474 2.031 . S
Mg455 O453 1.963 . S
Mg455 O459 1.986 . S
Mg455 O471 1.942 . S
Mg455 O472 1.955 . S
C456 O467 1.191 . S
C456 O469 1.307 . S
O457 Mg452 2.013 . S
O457 C476 1.191 . S
O458 Mg449 2.081 . S
O458 C466 1.331 . S
O459 Mg455 1.986 . S
O459 C476 1.307 . S
O460 Mg449 2.023 . S
O460 C475 1.264 . S
O461 Mg450 1.942 . S
O461 C466 1.244 . S
O462 Mg450 1.955 . S
O462 C475 1.273 . S
O463 Mg452 2.114 . S
O463 Mg454 2.291 . S
O463 C465 1.312 . S
O464 Mg449 2.031 . S
O464 C465 1.208 . S
C465 O463 1.312 . S
C465 O464 1.208 . S
C466 O458 1.331 . S
C466 O461 1.244 . S
O467 Mg452 2.013 . S
O467 C456 1.191 . S
O468 C447 1.331 . S
O468 Mg454 2.081 . S
O469 Mg450 1.986 . S
O469 C456 1.307 . S
O470 C448 1.264 . S
O470 Mg454 2.023 . S
O471 C447 1.244 . S
O471 Mg455 1.942 . S
O472 C448 1.273 . S
O472 Mg455 1.955 . S
O473 C446 1.312 . S
O473 Mg449 2.291 . S
O473 Mg452 2.114 . S
O474 C446 1.208 . S
O474 Mg454 2.031 . S
C475 O460 1.264 . S
C475 O462 1.273 . S
C476 O457 1.191 . S
C476 O459 1.307 . S
C477 O504 1.312 . S
C477 O505 1.208 . S
C478 O499 1.331 . S
C478 O502 1.244 . S
C479 O501 1.264 . S
C479 O503 1.273 . S
Mg480 O482 1.936 . S
Mg480 O489 2.081 . S
Mg480 O491 2.023 . S
Mg480 O495 2.031 . S
Mg480 O504 2.291 . S
Mg481 O482 1.963 1_655 S
Mg481 O492 1.942 . S
Mg481 O493 1.955 . S
Mg481 O500 1.986 . S
O482 Mg480 1.936 . S
O482 Mg481 1.963 1_455 S
O482 Mg483 1.915 . S
Mg483 O482 1.915 . S
Mg483 O484 1.915 . S
Mg483 O488 2.013 . S
Mg483 O494 2.114 . S
Mg483 O498 2.013 . S
Mg483 O504 2.114 . S
O484 Mg483 1.915 . S
O484 Mg485 1.936 . S
O484 Mg486 1.963 . S
Mg485 O484 1.936 . S
Mg485 O494 2.291 . S
Mg485 O499 2.081 . S
Mg485 O501 2.023 . S
Mg485 O505 2.031 . S
Mg486 O484 1.963 . S
Mg486 O490 1.986 . S
Mg486 O502 1.942 . S
Mg486 O503 1.955 . S
C487 O498 1.191 . S
C487 O500 1.307 1_455 S
O488 Mg483 2.013 . S
O488 C507 1.191 . S
O489 Mg480 2.081 . S
O489 C497 1.331 1_455 S
O490 Mg486 1.986 . S
O490 C507 1.307 . S
O491 Mg480 2.023 . S
O491 C506 1.264 1_455 S
O492 Mg481 1.942 . S
O492 C497 1.244 . S
O493 Mg481 1.955 . S
O493 C506 1.273 . S
O494 Mg483 2.114 . S
O494 Mg485 2.291 . S
O494 C496 1.312 . S
O495 Mg480 2.031 . S
O495 C496 1.208 . S
C496 O494 1.312 . S
C496 O495 1.208 . S
C497 O489 1.331 1_655 S
C497 O492 1.244 . S
O498 Mg483 2.013 . S
O498 C487 1.191 . S
O499 C478 1.331 . S
O499 Mg485 2.081 . S
O500 Mg481 1.986 . S
O500 C487 1.307 1_655 S
O501 C479 1.264 . S
O501 Mg485 2.023 . S
O502 C478 1.244 . S
O502 Mg486 1.942 . S
O503 C479 1.273 . S
O503 Mg486 1.955 . S
O504 C477 1.312 . S
O504 Mg480 2.291 . S
O504 Mg483 2.114 . S
O505 C477 1.208 . S
O505 Mg485 2.031 . S
C506 O491 1.264 1_655 S
C506 O493 1.273 . S
C507 O488 1.191 . S
C507 O490 1.307 . S
H508 C516 0.950 . S
H509 C521 0.950 . S
H510 C518 0.950 . S
H511 C520 0.950 . S
H512 C522 0.950 . S
H513 C524 0.950 . S
H514 C526 0.950 . S
H515 C527 0.950 . S
C516 H508 0.950 . S
C516 C517 1.386 . S
C516 C518 1.391 . S
C517 C516 1.386 . S
C517 C521 1.393 . S
C518 H510 0.950 . S
C518 C516 1.391 . S
C518 C519 1.400 . S
C519 C518 1.400 . S
C519 C520 1.398 . S
C519 C525 1.491 . S
C520 H511 0.950 . S
C520 C519 1.398 . S
C520 C521 1.391 . S
C521 H509 0.950 . S
C521 C517 1.393 . S
C521 C520 1.391 . S
C522 H512 0.950 . S
C522 C523 1.386 . S
C522 C524 1.391 . S
C523 C522 1.386 . S
C523 C527 1.393 . S
C524 H513 0.950 . S
C524 C522 1.391 . S
C524 C525 1.400 . S
C525 C519 1.491 . S
C525 C524 1.400 . S
C525 C526 1.398 . S
C526 H514 0.950 . S
C526 C525 1.398 . S
C526 C527 1.391 . S
C527 H515 0.950 . S
C527 C523 1.393 . S
C527 C526 1.391 . S
H528 C536 0.950 . S
H529 C541 0.950 . S
H530 C538 0.950 . S
H531 C540 0.950 . S
H532 C542 0.950 . S
H533 C544 0.950 . S
H534 C546 0.950 . S
H535 C547 0.950 . S
C536 H528 0.950 . S
C536 C537 1.386 . S
C536 C538 1.391 . S
C537 C536 1.386 . S
C537 C541 1.393 . S
C538 H530 0.950 . S
C538 C536 1.391 . S
C538 C539 1.400 . S
C539 C538 1.400 . S
C539 C540 1.398 . S
C539 C545 1.491 1_565 S
C540 H531 0.950 . S
C540 C539 1.398 . S
C540 C541 1.391 . S
C541 H529 0.950 . S
C541 C537 1.393 . S
C541 C540 1.391 . S
C542 H532 0.950 . S
C542 C543 1.386 . S
C542 C544 1.391 . S
C543 C542 1.386 . S
C543 C547 1.393 . S
C544 H533 0.950 . S
C544 C542 1.391 . S
C544 C545 1.400 . S
C545 C539 1.491 1_545 S
C545 C544 1.400 . S
C545 C546 1.398 . S
C546 H534 0.950 . S
C546 C545 1.398 . S
C546 C547 1.391 . S
C547 H535 0.950 . S
C547 C543 1.393 . S
C547 C546 1.391 . S
H548 C556 0.950 . S
H549 C561 0.950 . S
H550 C558 0.950 . S
H551 C560 0.950 . S
H552 C562 0.950 . S
H553 C564 0.950 . S
H554 C566 0.950 . S
H555 C567 0.950 . S
C556 H548 0.950 . S
C556 C557 1.386 . S
C556 C558 1.391 . S
C557 C556 1.386 . S
C557 C561 1.393 . S
C558 H550 0.950 . S
C558 C556 1.391 . S
C558 C559 1.400 . S
C559 C558 1.400 . S
C559 C560 1.398 . S
C559 C565 1.491 . S
C560 H551 0.950 . S
C560 C559 1.398 . S
C560 C561 1.391 . S
C561 H549 0.950 . S
C561 C557 1.393 . S
C561 C560 1.391 . S
C562 H552 0.950 . S
C562 C563 1.386 . S
C562 C564 1.391 . S
C563 C562 1.386 . S
C563 C567 1.393 . S
C564 H553 0.950 . S
C564 C562 1.391 . S
C564 C565 1.400 . S
C565 C559 1.491 . S
C565 C564 1.400 . S
C565 C566 1.398 . S
C566 H554 0.950 . S
C566 C565 1.398 . S
C566 C567 1.391 . S
C567 H555 0.950 . S
C567 C563 1.393 . S
C567 C566 1.391 . S
H568 C576 0.950 . S
H569 C581 0.950 . S
H570 C578 0.950 . S
H571 C580 0.950 1_565 S
H572 C582 0.950 . S
H573 C584 0.950 . S
H574 C586 0.950 1_545 S
H575 C587 0.950 . S
C576 H568 0.950 . S
C576 C577 1.386 . S
C576 C578 1.391 . S
C577 C576 1.386 . S
C577 C581 1.393 . S
C578 H570 0.950 . S
C578 C576 1.391 . S
C578 C579 1.400 . S
C579 C578 1.400 . S
C579 C580 1.398 . S
C579 C585 1.491 1_545 S
C580 H571 0.950 1_545 S
C580 C579 1.398 . S
C580 C581 1.391 . S
C581 H569 0.950 . S
C581 C577 1.393 . S
C581 C580 1.391 . S
C582 H572 0.950 . S
C582 C583 1.386 . S
C582 C584 1.391 . S
C583 C582 1.386 . S
C583 C587 1.393 . S
C584 H573 0.950 . S
C584 C582 1.391 . S
C584 C585 1.400 . S
C585 C579 1.491 1_565 S
C585 C584 1.400 . S
C585 C586 1.398 . S
C586 H574 0.950 1_565 S
C586 C585 1.398 . S
C586 C587 1.391 . S
C587 H575 0.950 . S
C587 C583 1.393 . S
C587 C586 1.391 . S
H588 C596 0.950 . S
H589 C601 0.950 . S
H590 C598 0.950 . S
H591 C600 0.950 . S
H592 C602 0.950 . S
H593 C604 0.950 . S
H594 C606 0.950 . S
H595 C607 0.950 . S
C596 H588 0.950 . S
C596 C597 1.386 . S
C596 C598 1.391 . S
C597 C596 1.386 . S
C597 C601 1.393 . S
C598 H590 0.950 . S
C598 C596 1.391 . S
C598 C599 1.400 . S
C599 C598 1.400 . S
C599 C600 1.398 . S
C599 C605 1.491 . S
C600 H591 0.950 . S
C600 C599 1.398 . S
C600 C601 1.391 . S
C601 H589 0.950 . S
C601 C597 1.393 . S
C601 C600 1.391 . S
C602 H592 0.950 . S
C602 C603 1.386 . S
C602 C604 1.391 . S
C603 C602 1.386 . S
C603 C607 1.393 . S
C604 H593 0.950 . S
C604 C602 1.391 . S
C604 C605 1.400 . S
C605 C599 1.491 . S
C605 C604 1.400 . S
C605 C606 1.398 . S
C606 H594 0.950 . S
C606 C605 1.398 . S
C606 C607 1.391 . S
C607 H595 0.950 . S
C607 C603 1.393 . S
C607 C606 1.391 . S
H608 C616 0.950 . S
H609 C621 0.950 . S
H610 C618 0.950 1_545 S
H611 C620 0.950 . S
H612 C622 0.950 . S
H613 C624 0.950 . S
H614 C626 0.950 . S
H615 C627 0.950 . S
C616 H608 0.950 . S
C616 C617 1.386 . S
C616 C618 1.391 . S
C617 C616 1.386 . S
C617 C621 1.393 . S
C618 H610 0.950 1_565 S
C618 C616 1.391 . S
C618 C619 1.400 . S
C619 C618 1.400 . S
C619 C620 1.398 . S
C619 C625 1.491 1_565 S
C620 H611 0.950 . S
C620 C619 1.398 . S
C620 C621 1.391 . S
C621 H609 0.950 . S
C621 C617 1.393 . S
C621 C620 1.391 . S
C622 H612 0.950 . S
C622 C623 1.386 . S
C622 C624 1.391 . S
C623 C622 1.386 . S
C623 C627 1.393 . S
C624 H613 0.950 . S
C624 C622 1.391 . S
C624 C625 1.400 . S
C625 C619 1.491 1_545 S
C625 C624 1.400 . S
C625 C626 1.398 . S
C626 H614 0.950 . S
C626 C625 1.398 . S
C626 C627 1.391 . S
C627 H615 0.950 . S
C627 C623 1.393 . S
C627 C626 1.391 . S
H628 C636 0.950 . S
H629 C641 0.950 . S
H630 C638 0.950 . S
H631 C640 0.950 . S
H632 C642 0.950 . S
H633 C644 0.950 . S
H634 C646 0.950 . S
H635 C647 0.950 . S
C636 H628 0.950 . S
C636 C637 1.386 . S
C636 C638 1.391 . S
C637 C636 1.386 . S
C637 C641 1.393 . S
C638 H630 0.950 . S
C638 C636 1.391 . S
C638 C639 1.400 . S
C639 C638 1.400 . S
C639 C640 1.398 . S
C639 C645 1.491 . S
C640 H631 0.950 . S
C640 C639 1.398 . S
C640 C641 1.391 . S
C641 H629 0.950 . S
C641 C637 1.393 . S
C641 C640 1.391 . S
C642 H632 0.950 . S
C642 C643 1.386 . S
C642 C644 1.391 . S
C643 C642 1.386 . S
C643 C647 1.393 . S
C644 H633 0.950 . S
C644 C642 1.391 . S
C644 C645 1.400 . S
C645 C639 1.491 . S
C645 C644 1.400 . S
C645 C646 1.398 . S
C646 H634 0.950 . S
C646 C645 1.398 . S
C646 C647 1.391 . S
C647 H635 0.950 . S
C647 C643 1.393 . S
C647 C646 1.391 . S
H648 C656 0.950 . S
H649 C661 0.950 . S
H650 C658 0.950 . S
H651 C660 0.950 1_565 S
H652 C662 0.950 . S
H653 C664 0.950 . S
H654 C666 0.950 1_545 S
H655 C667 0.950 . S
C656 H648 0.950 . S
C656 C657 1.386 . S
C656 C658 1.391 . S
C657 C656 1.386 . S
C657 C661 1.393 . S
C658 H650 0.950 . S
C658 C656 1.391 . S
C658 C659 1.400 . S
C659 C658 1.400 . S
C659 C660 1.398 . S
C659 C665 1.491 1_545 S
C660 H651 0.950 1_545 S
C660 C659 1.398 . S
C660 C661 1.391 . S
C661 H649 0.950 . S
C661 C657 1.393 . S
C661 C660 1.391 . S
C662 H652 0.950 . S
C662 C663 1.386 . S
C662 C664 1.391 . S
C663 C662 1.386 . S
C663 C667 1.393 . S
C664 H653 0.950 . S
C664 C662 1.391 . S
C664 C665 1.400 . S
C665 C659 1.491 1_565 S
C665 C664 1.400 . S
C665 C666 1.398 . S
C666 H654 0.950 1_565 S
C666 C665 1.398 . S
C666 C667 1.391 . S
C667 H655 0.950 . S
C667 C663 1.393 . S
C667 C666 1.391 . S
H668 C676 0.950 . S
H669 C681 0.950 . S
H670 C678 0.950 . S
H671 C680 0.950 . S
H672 C682 0.950 . S
H673 C684 0.950 . S
H674 C686 0.950 . S
H675 C687 0.950 . S
C676 H668 0.950 . S
C676 C677 1.386 . S
C676 C678 1.391 . S
C677 C676 1.386 . S
C677 C681 1.393 . S
C678 H670 0.950 . S
C678 C676 1.391 . S
C678 C679 1.400 . S
C679 C678 1.400 . S
C679 C680 1.398 . S
C679 C685 1.491 . S
C680 H671 0.950 . S
C680 C679 1.398 . S
C680 C681 1.391 . S
C681 H669 0.950 . S
C681 C677 1.393 . S
C681 C680 1.391 . S
C682 H672 0.950 . S
C682 C683 1.386 . S
C682 C684 1.391 . S
C683 C682 1.386 . S
C683 C687 1.393 . S
C684 H673 0.950 . S
C684 C682 1.391 . S
C684 C685 1.400 . S
C685 C679 1.491 . S
C685 C684 1.400 . S
C685 C686 1.398 . S
C686 H674 0.950 . S
C686 C685 1.398 . S
C686 C687 1.391 . S
C687 H675 0.950 . S
C687 C683 1.393 . S
C687 C686 1.391 . S
H688 C696 0.950 . S
H689 C701 0.950 . S
H690 C698 0.950 . S
H691 C700 0.950 . S
H692 C702 0.950 . S
H693 C704 0.950 . S
H694 C706 0.950 . S
H695 C707 0.950 . S
C696 H688 0.950 . S
C696 C697 1.386 . S
C696 C698 1.391 . S
C697 C696 1.386 . S
C697 C701 1.393 . S
C698 H690 0.950 . S
C698 C696 1.391 . S
C698 C699 1.400 . S
C699 C698 1.400 . S
C699 C700 1.398 . S
C699 C705 1.491 . S
C700 H691 0.950 . S
C700 C699 1.398 . S
C700 C701 1.391 . S
C701 H689 0.950 . S
C701 C697 1.393 . S
C701 C700 1.391 . S
C702 H692 0.950 . S
C702 C703 1.386 . S
C702 C704 1.391 . S
C703 C702 1.386 . S
C703 C707 1.393 . S
C704 H693 0.950 . S
C704 C702 1.391 . S
C704 C705 1.400 . S
C705 C699 1.491 . S
C705 C704 1.400 . S
C705 C706 1.398 . S
C706 H694 0.950 . S
C706 C705 1.398 . S
C706 C707 1.391 . S
C707 H695 0.950 . S
C707 C703 1.393 . S
C707 C706 1.391 . S
H708 C716 0.950 . S
H709 C721 0.950 . S
H710 C718 0.950 . S
H711 C720 0.950 . S
H712 C722 0.950 . S
H713 C724 0.950 . S
H714 C726 0.950 . S
H715 C727 0.950 . S
C716 H708 0.950 . S
C716 C717 1.386 . S
C716 C718 1.391 . S
C717 C716 1.386 . S
C717 C721 1.393 . S
C718 H710 0.950 . S
C718 C716 1.391 . S
C718 C719 1.400 . S
C719 C718 1.400 . S
C719 C720 1.398 . S
C719 C725 1.491 . S
C720 H711 0.950 . S
C720 C719 1.398 . S
C720 C721 1.391 . S
C721 H709 0.950 . S
C721 C717 1.393 . S
C721 C720 1.391 . S
C722 H712 0.950 . S
C722 C723 1.386 . S
C722 C724 1.391 1_455 S
C723 C722 1.386 . S
C723 C727 1.393 1_455 S
C724 H713 0.950 . S
C724 C722 1.391 1_655 S
C724 C725 1.400 . S
C725 C719 1.491 . S
C725 C724 1.400 . S
C725 C726 1.398 . S
C726 H714 0.950 . S
C726 C725 1.398 . S
C726 C727 1.391 . S
C727 H715 0.950 . S
C727 C723 1.393 1_655 S
C727 C726 1.391 . S
H728 C736 0.950 1_565 S
H729 C741 0.950 . S
H730 C738 0.950 1_455 S
H731 C740 0.950 . S
H732 C742 0.950 . S
H733 C744 0.950 . S
H734 C746 0.950 . S
H735 C747 0.950 . S
C736 H728 0.950 1_545 S
C736 C737 1.386 . S
C736 C738 1.391 . S
C737 C736 1.386 . S
C737 C741 1.393 . S
C738 H730 0.950 1_655 S
C738 C736 1.391 . S
C738 C739 1.400 . S
C739 C738 1.400 . S
C739 C740 1.398 . S
C739 C745 1.491 . S
C740 H731 0.950 . S
C740 C739 1.398 . S
C740 C741 1.391 . S
C741 H729 0.950 . S
C741 C737 1.393 . S
C741 C740 1.391 . S
C742 H732 0.950 . S
C742 C743 1.386 1_655 S
C742 C744 1.391 . S
C743 C742 1.386 1_455 S
C743 C747 1.393 . S
C744 H733 0.950 . S
C744 C742 1.391 . S
C744 C745 1.400 . S
C745 C739 1.491 . S
C745 C744 1.400 . S
C745 C746 1.398 1_655 S
C746 H734 0.950 . S
C746 C745 1.398 1_455 S
C746 C747 1.391 . S
C747 H735 0.950 . S
C747 C743 1.393 . S
C747 C746 1.391 . S
H748 C756 0.950 . S
H749 C761 0.950 . S
H750 C758 0.950 . S
H751 C760 0.950 . S
H752 C762 0.950 . S
H753 C764 0.950 . S
H754 C766 0.950 . S
H755 C767 0.950 . S
C756 H748 0.950 . S
C756 C757 1.386 . S
C756 C758 1.391 . S
C757 C756 1.386 . S
C757 C761 1.393 . S
C758 H750 0.950 . S
C758 C756 1.391 . S
C758 C759 1.400 . S
C759 C758 1.400 . S
C759 C760 1.398 . S
C759 C765 1.491 . S
C760 H751 0.950 . S
C760 C759 1.398 . S
C760 C761 1.391 . S
C761 H749 0.950 . S
C761 C757 1.393 . S
C761 C760 1.391 . S
C762 H752 0.950 . S
C762 C763 1.386 . S
C762 C764 1.391 . S
C763 C762 1.386 . S
C763 C767 1.393 . S
C764 H753 0.950 . S
C764 C762 1.391 . S
C764 C765 1.400 . S
C765 C759 1.491 . S
C765 C764 1.400 . S
C765 C766 1.398 . S
C766 H754 0.950 . S
C766 C765 1.398 . S
C766 C767 1.391 . S
C767 H755 0.950 . S
C767 C763 1.393 . S
C767 C766 1.391 . S
H768 C776 0.950 . S
H769 C781 0.950 . S
H770 C778 0.950 . S
H771 C780 0.950 1_455 S
H772 C782 0.950 . S
H773 C784 0.950 . S
H774 C786 0.950 . S
H775 C787 0.950 . S
C776 H768 0.950 . S
C776 C777 1.386 . S
C776 C778 1.391 . S
C777 C776 1.386 . S
C777 C781 1.393 . S
C778 H770 0.950 . S
C778 C776 1.391 . S
C778 C779 1.400 . S
C779 C778 1.400 . S
C779 C780 1.398 . S
C779 C785 1.491 . S
C780 H771 0.950 1_655 S
C780 C779 1.398 . S
C780 C781 1.391 . S
C781 H769 0.950 . S
C781 C777 1.393 . S
C781 C780 1.391 . S
C782 H772 0.950 . S
C782 C783 1.386 . S
C782 C784 1.391 . S
C783 C782 1.386 . S
C783 C787 1.393 1_455 S
C784 H773 0.950 . S
C784 C782 1.391 . S
C784 C785 1.400 1_455 S
C785 C779 1.491 . S
C785 C784 1.400 1_655 S
C785 C786 1.398 . S
C786 H774 0.950 . S
C786 C785 1.398 . S
C786 C787 1.391 . S
C787 H775 0.950 . S
C787 C783 1.393 1_655 S
C787 C786 1.391 . S
H788 C796 0.950 . S
H789 C801 0.950 . S
H790 C798 0.950 . S
H791 C800 0.950 . S
H792 C802 0.950 . S
H793 C804 0.950 . S
H794 C806 0.950 . S
H795 C807 0.950 . S
C796 H788 0.950 . S
C796 C797 1.386 . S
C796 C798 1.391 . S
C797 C796 1.386 . S
C797 C801 1.393 . S
C798 H790 0.950 . S
C798 C796 1.391 . S
C798 C799 1.400 . S
C799 C798 1.400 . S
C799 C800 1.398 . S
C799 C805 1.491 . S
C800 H791 0.950 . S
C800 C799 1.398 . S
C800 C801 1.391 . S
C801 H789 0.950 . S
C801 C797 1.393 . S
C801 C800 1.391 . S
C802 H792 0.950 . S
C802 C803 1.386 . S
C802 C804 1.391 1_455 S
C803 C802 1.386 . S
C803 C807 1.393 1_455 S
C804 H793 0.950 . S
C804 C802 1.391 1_655 S
C804 C805 1.400 . S
C805 C799 1.491 . S
C805 C804 1.400 . S
C805 C806 1.398 . S
C806 H794 0.950 . S
C806 C805 1.398 . S
C806 C807 1.391 . S
C807 H795 0.950 . S
C807 C803 1.393 1_655 S
C807 C806 1.391 . S
H808 C816 0.950 1_565 S
H809 C821 0.950 . S
H810 C818 0.950 . S
H811 C820 0.950 . S
H812 C822 0.950 . S
H813 C824 0.950 . S
H814 C826 0.950 . S
H815 C827 0.950 . S
C816 H808 0.950 1_545 S
C816 C817 1.386 . S
C816 C818 1.391 . S
C817 C816 1.386 . S
C817 C821 1.393 . S
C818 H810 0.950 . S
C818 C816 1.391 . S
C818 C819 1.400 . S
C819 C818 1.400 . S
C819 C820 1.398 . S
C819 C825 1.491 . S
C820 H811 0.950 . S
C820 C819 1.398 . S
C820 C821 1.391 . S
C821 H809 0.950 . S
C821 C817 1.393 . S
C821 C820 1.391 . S
C822 H812 0.950 . S
C822 C823 1.386 . S
C822 C824 1.391 . S
C823 C822 1.386 . S
C823 C827 1.393 . S
C824 H813 0.950 . S
C824 C822 1.391 . S
C824 C825 1.400 . S
C825 C819 1.491 . S
C825 C824 1.400 . S
C825 C826 1.398 . S
C826 H814 0.950 . S
C826 C825 1.398 . S
C826 C827 1.391 . S
C827 H815 0.950 . S
C827 C823 1.393 . S
C827 C826 1.391 . S
H828 C836 0.950 . S
H829 C841 0.950 . S
H830 C838 0.950 . S
H831 C840 0.950 . S
H832 C842 0.950 . S
H833 C844 0.950 . S
H834 C846 0.950 . S
H835 C847 0.950 . S
C836 H828 0.950 . S
C836 C837 1.386 . S
C836 C838 1.391 . S
C837 C836 1.386 . S
C837 C841 1.393 . S
C838 H830 0.950 . S
C838 C836 1.391 . S
C838 C839 1.400 . S
C839 C838 1.400 . S
C839 C840 1.398 . S
C839 C845 1.491 . S
C840 H831 0.950 . S
C840 C839 1.398 . S
C840 C841 1.391 . S
C841 H829 0.950 . S
C841 C837 1.393 . S
C841 C840 1.391 . S
C842 H832 0.950 . S
C842 C843 1.386 . S
C842 C844 1.391 . S
C843 C842 1.386 . S
C843 C847 1.393 . S
C844 H833 0.950 . S
C844 C842 1.391 . S
C844 C845 1.400 . S
C845 C839 1.491 . S
C845 C844 1.400 . S
C845 C846 1.398 . S
C846 H834 0.950 . S
C846 C845 1.398 . S
C846 C847 1.391 . S
C847 H835 0.950 . S
C847 C843 1.393 . S
C847 C846 1.391 . S
H848 C856 0.950 . S
H849 C861 0.950 . S
H850 C858 0.950 . S
H851 C860 0.950 . S
H852 C862 0.950 . S
H853 C864 0.950 . S
H854 C866 0.944 1_455 S
H855 C867 0.950 1_455 S
C856 H848 0.950 . S
C856 C857 1.386 . S
C856 C858 1.391 . S
C857 C856 1.386 . S
C857 C861 1.393 . S
C858 H850 0.950 . S
C858 C856 1.391 . S
C858 C859 1.400 . S
C859 C858 1.400 . S
C859 C860 1.398 . S
C859 C865 1.491 . S
C860 H851 0.950 . S
C860 C859 1.398 . S
C860 C861 1.391 . S
C861 H849 0.950 . S
C861 C857 1.393 . S
C861 C860 1.391 . S
C862 H852 0.950 . S
C862 C863 1.386 . S
C862 C864 1.391 . S
C863 C862 1.386 . S
C863 C867 1.393 . S
C864 H853 0.950 . S
C864 C862 1.391 . S
C864 C865 1.400 . S
C865 C859 1.491 . S
C865 C864 1.400 . S
C865 C866 1.398 . S
C866 H854 0.944 1_655 S
C866 C865 1.398 . S
C866 C867 1.391 . S
C867 H855 0.950 1_655 S
C867 C863 1.393 . S
C867 C866 1.391 . S
H868 C876 0.950 . S
H869 C881 0.950 . S
H870 C878 0.950 . S
H871 C880 0.950 . S
H872 C882 0.950 . S
H873 C884 0.950 . S
H874 C886 0.950 . S
H875 C887 0.950 . S
C876 H868 0.950 . S
C876 C877 1.386 . S
C876 C878 1.391 . S
C877 C876 1.386 . S
C877 C881 1.393 . S
C878 H870 0.950 . S
C878 C876 1.391 . S
C878 C879 1.400 . S
C879 C878 1.400 . S
C879 C880 1.398 . S
C879 C885 1.491 . S
C880 H871 0.950 . S
C880 C879 1.398 . S
C880 C881 1.391 . S
C881 H869 0.950 . S
C881 C877 1.393 . S
C881 C880 1.391 . S
C882 H872 0.950 . S
C882 C883 1.386 . S
C882 C884 1.391 . S
C883 C882 1.386 . S
C883 C887 1.393 . S
C884 H873 0.950 . S
C884 C882 1.391 . S
C884 C885 1.400 . S
C885 C879 1.491 . S
C885 C884 1.400 . S
C885 C886 1.398 . S
C886 H874 0.950 . S
C886 C885 1.398 . S
C886 C887 1.391 . S
C887 H875 0.950 . S
C887 C883 1.393 . S
C887 C886 1.391 . S
H888 C896 0.950 . S
H889 C901 0.950 . S
H890 C898 0.950 . S
H891 C900 0.950 . S
H892 C902 0.950 . S
H893 C904 0.950 . S
H894 C906 0.950 . S
H895 C907 0.950 . S
C896 H888 0.950 . S
C896 C897 1.386 . S
C896 C898 1.391 . S
C897 C896 1.386 . S
C897 C901 1.393 . S
C898 H890 0.950 . S
C898 C896 1.391 . S
C898 C899 1.400 . S
C899 C898 1.400 . S
C899 C900 1.398 . S
C899 C905 1.491 . S
C900 H891 0.950 . S
C900 C899 1.398 . S
C900 C901 1.391 . S
C901 H889 0.950 . S
C901 C897 1.393 . S
C901 C900 1.391 . S
C902 H892 0.950 . S
C902 C903 1.386 . S
C902 C904 1.391 . S
C903 C902 1.386 . S
C903 C907 1.393 . S
C904 H893 0.950 . S
C904 C902 1.391 . S
C904 C905 1.400 . S
C905 C899 1.491 . S
C905 C904 1.400 . S
C905 C906 1.398 . S
C906 H894 0.950 . S
C906 C905 1.398 . S
C906 C907 1.391 . S
C907 H895 0.950 . S
C907 C903 1.393 . S
C907 C906 1.391 . S
H908 C916 0.950 . S
H909 C921 0.950 . S
H910 C918 0.950 . S
H911 C920 0.950 . S
H912 C922 0.950 . S
H913 C924 0.950 . S
H914 C926 0.950 . S
H915 C927 0.950 . S
C916 H908 0.950 . S
C916 C917 1.386 . S
C916 C918 1.391 . S
C917 C916 1.386 . S
C917 C921 1.393 . S
C918 H910 0.950 . S
C918 C916 1.391 . S
C918 C919 1.400 . S
C919 C918 1.400 . S
C919 C920 1.398 . S
C919 C925 1.491 . S
C920 H911 0.950 . S
C920 C919 1.398 . S
C920 C921 1.391 . S
C921 H909 0.950 . S
C921 C917 1.393 . S
C921 C920 1.391 . S
C922 H912 0.950 . S
C922 C923 1.386 . S
C922 C924 1.391 . S
C923 C922 1.386 . S
C923 C927 1.393 . S
C924 H913 0.950 . S
C924 C922 1.391 . S
C924 C925 1.400 . S
C925 C919 1.491 . S
C925 C924 1.400 . S
C925 C926 1.398 . S
C926 H914 0.950 . S
C926 C925 1.398 . S
C926 C927 1.391 . S
C927 H915 0.950 . S
C927 C923 1.393 . S
C927 C926 1.391 . S
H928 C936 0.950 . S
H929 C941 0.950 . S
H930 C938 0.950 . S
H931 C940 0.950 . S
H932 C942 0.950 . S
H933 C944 0.950 . S
H934 C946 0.950 . S
H935 C947 0.950 . S
C936 H928 0.950 . S
C936 C937 1.386 . S
C936 C938 1.391 . S
C937 C936 1.386 . S
C937 C941 1.393 . S
C938 H930 0.950 . S
C938 C936 1.391 . S
C938 C939 1.400 . S
C939 C938 1.400 . S
C939 C940 1.398 . S
C939 C945 1.491 . S
C940 H931 0.950 . S
C940 C939 1.398 . S
C940 C941 1.391 . S
C941 H929 0.950 . S
C941 C937 1.393 . S
C941 C940 1.391 . S
C942 H932 0.950 . S
C942 C943 1.386 . S
C942 C944 1.391 . S
C943 C942 1.386 . S
C943 C947 1.393 . S
C944 H933 0.950 . S
C944 C942 1.391 . S
C944 C945 1.400 . S
C945 C939 1.491 . S
C945 C944 1.400 . S
C945 C946 1.398 . S
C946 H934 0.950 . S
C946 C945 1.398 . S
C946 C947 1.391 . S
C947 H935 0.950 . S
C947 C943 1.393 . S
C947 C946 1.391 . S
H948 C956 0.950 . S
H949 C961 0.950 . S
H950 C958 0.950 . S
H951 C960 0.950 . S
H952 C962 0.950 . S
H953 C964 0.950 . S
H954 C966 0.950 . S
H955 C967 0.950 . S
C956 H948 0.950 . S
C956 C957 1.386 . S
C956 C958 1.391 . S
C957 C956 1.386 . S
C957 C961 1.393 . S
C958 H950 0.950 . S
C958 C956 1.391 . S
C958 C959 1.400 . S
C959 C958 1.400 . S
C959 C960 1.398 . S
C959 C965 1.491 . S
C960 H951 0.950 . S
C960 C959 1.398 . S
C960 C961 1.391 . S
C961 H949 0.950 . S
C961 C957 1.393 . S
C961 C960 1.391 . S
C962 H952 0.950 . S
C962 C963 1.386 . S
C962 C964 1.391 . S
C963 C962 1.386 . S
C963 C967 1.393 . S
C964 H953 0.950 . S
C964 C962 1.391 . S
C964 C965 1.400 . S
C965 C959 1.491 . S
C965 C964 1.400 . S
C965 C966 1.398 . S
C966 H954 0.950 . S
C966 C965 1.398 . S
C966 C967 1.391 . S
C967 H955 0.950 . S
C967 C963 1.393 . S
C967 C966 1.391 . S
H968 C976 0.950 . S
H969 C981 0.950 . S
H970 C978 0.950 . S
H971 C980 0.950 . S
H972 C982 0.950 . S
H973 C984 0.950 . S
H974 C986 0.950 . S
H975 C987 0.950 . S
C976 H968 0.950 . S
C976 C977 1.386 . S
C976 C978 1.391 . S
C977 C976 1.386 . S
C977 C981 1.393 . S
C978 H970 0.950 . S
C978 C976 1.391 . S
C978 C979 1.400 . S
C979 C978 1.400 . S
C979 C980 1.398 . S
C979 C985 1.491 . S
C980 H971 0.950 . S
C980 C979 1.398 . S
C980 C981 1.391 . S
C981 H969 0.950 . S
C981 C977 1.393 . S
C981 C980 1.391 . S
C982 H972 0.950 . S
C982 C983 1.386 . S
C982 C984 1.391 . S
C983 C982 1.386 . S
C983 C987 1.393 . S
C984 H973 0.950 . S
C984 C982 1.391 . S
C984 C985 1.400 . S
C985 C979 1.491 . S
C985 C984 1.400 . S
C985 C986 1.398 . S
C986 H974 0.950 . S
C986 C985 1.398 . S
C986 C987 1.391 . S
C987 H975 0.950 . S
C987 C983 1.393 . S
C987 C986 1.391 . S
H988 C996 0.950 . S
H989 C1001 0.950 . S
H990 C998 0.950 . S
H991 C1000 0.950 . S
H992 C1002 0.950 . S
H993 C1004 0.950 . S
H994 C1006 0.950 . S
H995 C1007 0.950 . S
C996 H988 0.950 . S
C996 C997 1.386 . S
C996 C998 1.391 . S
C997 C996 1.386 . S
C997 C1001 1.393 . S
C998 H990 0.950 . S
C998 C996 1.391 . S
C998 C999 1.400 . S
C999 C998 1.400 . S
C999 C1000 1.398 . S
C999 C1005 1.491 . S
C1000 H991 0.950 . S
C1000 C999 1.398 . S
C1000 C1001 1.391 . S
C1001 H989 0.950 . S
C1001 C997 1.393 . S
C1001 C1000 1.391 . S
C1002 H992 0.950 . S
C1002 C1003 1.386 . S
C1002 C1004 1.391 . S
C1003 C1002 1.386 . S
C1003 C1007 1.393 . S
C1004 H993 0.950 . S
C1004 C1002 1.391 . S
C1004 C1005 1.400 . S
C1005 C999 1.491 . S
C1005 C1004 1.400 . S
C1005 C1006 1.398 . S
C1006 H994 0.950 . S
C1006 C1005 1.398 . S
C1006 C1007 1.391 . S
C1007 H995 0.950 . S
C1007 C1003 1.393 . S
C1007 C1006 1.391 . S
H1008 C1016 0.950 . S
H1009 C1021 0.950 . S
H1010 C1018 0.950 . S
H1011 C1020 0.950 . S
H1012 C1022 0.950 . S
H1013 C1024 0.950 . S
H1014 C1026 0.950 . S
H1015 C1027 0.950 . S
C1016 H1008 0.950 . S
C1016 C1017 1.386 . S
C1016 C1018 1.391 . S
C1017 C1016 1.386 . S
C1017 C1021 1.393 . S
C1018 H1010 0.950 . S
C1018 C1016 1.391 . S
C1018 C1019 1.400 . S
C1019 C1018 1.400 . S
C1019 C1020 1.398 . S
C1019 C1025 1.491 . S
C1020 H1011 0.950 . S
C1020 C1019 1.398 . S
C1020 C1021 1.391 . S
C1021 H1009 0.950 . S
C1021 C1017 1.393 . S
C1021 C1020 1.391 . S
C1022 H1012 0.950 . S
C1022 C1023 1.386 . S
C1022 C1024 1.391 . S
C1023 C1022 1.386 . S
C1023 C1027 1.393 . S
C1024 H1013 0.950 . S
C1024 C1022 1.391 . S
C1024 C1025 1.400 . S
C1025 C1019 1.491 . S
C1025 C1024 1.400 . S
C1025 C1026 1.398 . S
C1026 H1014 0.950 . S
C1026 C1025 1.398 . S
C1026 C1027 1.391 . S
C1027 H1015 0.950 . S
C1027 C1023 1.393 . S
C1027 C1026 1.391 . S
H1028 C1036 0.950 . S
H1029 C1041 0.950 . S
H1030 C1038 0.950 . S
H1031 C1040 0.950 . S
H1032 C1042 0.950 . S
H1033 C1044 0.950 . S
H1034 C1046 0.950 . S
H1035 C1047 0.950 . S
C1036 H1028 0.950 . S
C1036 C1037 1.386 . S
C1036 C1038 1.391 . S
C1037 C1036 1.386 . S
C1037 C1041 1.393 . S
C1038 H1030 0.950 . S
C1038 C1036 1.391 . S
C1038 C1039 1.400 . S
C1039 C1038 1.400 . S
C1039 C1040 1.398 . S
C1039 C1045 1.491 . S
C1040 H1031 0.950 . S
C1040 C1039 1.398 . S
C1040 C1041 1.391 . S
C1041 H1029 0.950 . S
C1041 C1037 1.393 . S
C1041 C1040 1.391 . S
C1042 H1032 0.950 . S
C1042 C1043 1.386 . S
C1042 C1044 1.391 . S
C1043 C1042 1.386 . S
C1043 C1047 1.393 . S
C1044 H1033 0.950 . S
C1044 C1042 1.391 . S
C1044 C1045 1.400 . S
C1045 C1039 1.491 . S
C1045 C1044 1.400 . S
C1045 C1046 1.398 . S
C1046 H1034 0.950 . S
C1046 C1045 1.398 . S
C1046 C1047 1.391 . S
C1047 H1035 0.950 . S
C1047 C1043 1.393 . S
C1047 C1046 1.391 . S
H1048 C1056 0.950 . S
H1049 C1061 0.950 . S
H1050 C1058 0.950 . S
H1051 C1060 0.950 . S
H1052 C1062 0.950 . S
H1053 C1064 0.950 . S
H1054 C1066 0.950 . S
H1055 C1067 0.950 . S
C1056 H1048 0.950 . S
C1056 C1057 1.386 . S
C1056 C1058 1.391 . S
C1057 C1056 1.386 . S
C1057 C1061 1.393 . S
C1058 H1050 0.950 . S
C1058 C1056 1.391 . S
C1058 C1059 1.400 . S
C1059 C1058 1.400 . S
C1059 C1060 1.398 . S
C1059 C1065 1.491 . S
C1060 H1051 0.950 . S
C1060 C1059 1.398 . S
C1060 C1061 1.391 . S
C1061 H1049 0.950 . S
C1061 C1057 1.393 . S
C1061 C1060 1.391 . S
C1062 H1052 0.950 . S
C1062 C1063 1.386 . S
C1062 C1064 1.391 . S
C1063 C1062 1.386 . S
C1063 C1067 1.393 . S
C1064 H1053 0.950 . S
C1064 C1062 1.391 . S
C1064 C1065 1.400 . S
C1065 C1059 1.491 . S
C1065 C1064 1.400 . S
C1065 C1066 1.398 . S
C1066 H1054 0.950 . S
C1066 C1065 1.398 . S
C1066 C1067 1.391 . S
C1067 H1055 0.950 . S
C1067 C1063 1.393 . S
C1067 C1066 1.391 . S
H1068 C1076 0.950 . S
H1069 C1081 0.950 . S
H1070 C1078 0.950 . S
H1071 C1080 0.950 . S
H1072 C1082 0.950 . S
H1073 C1084 0.950 . S
H1074 C1086 0.950 . S
H1075 C1087 0.950 . S
C1076 H1068 0.950 . S
C1076 C1077 1.386 . S
C1076 C1078 1.391 . S
C1077 C1076 1.386 . S
C1077 C1081 1.393 . S
C1078 H1070 0.950 . S
C1078 C1076 1.391 . S
C1078 C1079 1.400 . S
C1079 C1078 1.400 . S
C1079 C1080 1.398 . S
C1079 C1085 1.491 . S
C1080 H1071 0.950 . S
C1080 C1079 1.398 . S
C1080 C1081 1.391 . S
C1081 H1069 0.950 . S
C1081 C1077 1.393 . S
C1081 C1080 1.391 . S
C1082 H1072 0.950 . S
C1082 C1083 1.386 . S
C1082 C1084 1.391 . S
C1083 C1082 1.386 . S
C1083 C1087 1.393 . S
C1084 H1073 0.950 . S
C1084 C1082 1.391 . S
C1084 C1085 1.400 . S
C1085 C1079 1.491 . S
C1085 C1084 1.400 . S
C1085 C1086 1.398 . S
C1086 H1074 0.950 . S
C1086 C1085 1.398 . S
C1086 C1087 1.391 . S
C1087 H1075 0.950 . S
C1087 C1083 1.393 . S
C1087 C1086 1.391 . S
H1088 C1096 0.950 . S
H1089 C1101 0.950 . S
H1090 C1098 0.950 . S
H1091 C1100 0.950 . S
H1092 C1102 0.950 . S
H1093 C1104 0.950 . S
H1094 C1106 0.950 . S
H1095 C1107 0.950 . S
C1096 H1088 0.950 . S
C1096 C1097 1.386 . S
C1096 C1098 1.391 . S
C1097 C1096 1.386 . S
C1097 C1101 1.393 . S
C1098 H1090 0.950 . S
C1098 C1096 1.391 . S
C1098 C1099 1.400 . S
C1099 C1098 1.400 . S
C1099 C1100 1.398 . S
C1099 C1105 1.491 . S
C1100 H1091 0.950 . S
C1100 C1099 1.398 . S
C1100 C1101 1.391 . S
C1101 H1089 0.950 . S
C1101 C1097 1.393 . S
C1101 C1100 1.391 . S
C1102 H1092 0.950 . S
C1102 C1103 1.386 . S
C1102 C1104 1.391 . S
C1103 C1102 1.386 . S
C1103 C1107 1.393 . S
C1104 H1093 0.950 . S
C1104 C1102 1.391 . S
C1104 C1105 1.400 . S
C1105 C1099 1.491 . S
C1105 C1104 1.400 . S
C1105 C1106 1.398 . S
C1106 H1094 0.950 . S
C1106 C1105 1.398 . S
C1106 C1107 1.391 . S
C1107 H1095 0.950 . S
C1107 C1103 1.393 . S
C1107 C1106 1.391 . S
H1108 C1116 0.950 . S
H1109 C1121 0.950 . S
H1110 C1118 0.950 . S
H1111 C1120 0.950 . S
H1112 C1122 0.950 . S
H1113 C1124 0.950 . S
H1114 C1126 0.950 . S
H1115 C1127 0.950 . S
C1116 H1108 0.950 . S
C1116 C1117 1.386 . S
C1116 C1118 1.391 . S
C1117 C1116 1.386 . S
C1117 C1121 1.393 . S
C1118 H1110 0.950 . S
C1118 C1116 1.391 . S
C1118 C1119 1.400 . S
C1119 C1118 1.400 . S
C1119 C1120 1.398 . S
C1119 C1125 1.491 . S
C1120 H1111 0.950 . S
C1120 C1119 1.398 . S
C1120 C1121 1.391 . S
C1121 H1109 0.950 . S
C1121 C1117 1.393 . S
C1121 C1120 1.391 . S
C1122 H1112 0.950 . S
C1122 C1123 1.386 . S
C1122 C1124 1.391 . S
C1123 C1122 1.386 . S
C1123 C1127 1.393 . S
C1124 H1113 0.950 . S
C1124 C1122 1.391 . S
C1124 C1125 1.400 . S
C1125 C1119 1.491 . S
C1125 C1124 1.400 . S
C1125 C1126 1.398 . S
C1126 H1114 0.950 . S
C1126 C1125 1.398 . S
C1126 C1127 1.391 . S
C1127 H1115 0.950 . S
C1127 C1123 1.393 . S
C1127 C1126 1.391 . S
H1128 C1136 0.950 . S
H1129 C1141 0.950 . S
H1130 C1138 0.950 . S
H1131 C1140 0.950 . S
H1132 C1142 0.950 . S
H1133 C1144 0.950 . S
H1134 C1146 0.950 . S
H1135 C1147 0.950 . S
C1136 H1128 0.950 . S
C1136 C1137 1.386 . S
C1136 C1138 1.391 . S
C1137 C1136 1.386 . S
C1137 C1141 1.393 . S
C1138 H1130 0.950 . S
C1138 C1136 1.391 . S
C1138 C1139 1.400 . S
C1139 C1138 1.400 . S
C1139 C1140 1.398 . S
C1139 C1145 1.491 . S
C1140 H1131 0.950 . S
C1140 C1139 1.398 . S
C1140 C1141 1.391 . S
C1141 H1129 0.950 . S
C1141 C1137 1.393 . S
C1141 C1140 1.391 . S
C1142 H1132 0.950 . S
C1142 C1143 1.386 . S
C1142 C1144 1.391 . S
C1143 C1142 1.386 . S
C1143 C1147 1.393 . S
C1144 H1133 0.950 . S
C1144 C1142 1.391 . S
C1144 C1145 1.400 . S
C1145 C1139 1.491 . S
C1145 C1144 1.400 . S
C1145 C1146 1.398 . S
C1146 H1134 0.950 . S
C1146 C1145 1.398 . S
C1146 C1147 1.391 . S
C1147 H1135 0.950 . S
C1147 C1143 1.393 . S
C1147 C1146 1.391 . S
C523 C444 1.785 . S
C517 C45 1.844 . S
C537 C78 1.750 . S
C543 C447 1.717 . S
C557 C126 1.719 . S
C563 C478 1.703 . S
C583 C413 1.766 . S
C577 C174 1.801 . S
C603 C448 1.781 . S
C597 C36 1.846 . S
C623 C479 1.758 . S
C617 C69 1.823 . S
C643 C404 1.702 . S
C637 C117 1.746 . S
C663 C435 1.722 . S
C657 C165 1.760 . S
C677 C30 1.320 . S
C683 C465 1.236 . S
C697 C228 1.302 1_565 S
C703 C434 1.252 . S
C717 C141 1.230 . S
C723 C394 1.212 . S
C743 C487 1.228 . S
C737 C270 1.241 1_545 S
C763 C415 1.226 . S
C757 C21 1.327 . S
C777 C237 1.232 1_565 S
C783 C414 1.238 . S
C797 C132 1.232 . S
C803 C507 1.220 . S
C823 C446 1.215 . S
C817 C261 1.314 1_545 S
C837 C333 1.841 . S
C843 C506 1.792 . S
C857 C213 1.762 . S
C863 C385 1.737 . S
C877 C357 1.743 . S
C883 C416 1.704 . S
C897 C285 1.820 . S
C903 C475 1.751 . S
C923 C386 1.793 . S
C917 C324 1.848 . S
C937 C222 1.803 . S
C943 C417 1.758 . S
C957 C366 1.726 . S
C963 C466 1.697 . S
C983 C497 1.730 . S
C977 C276 1.769 . S
C997 C318 1.314 . S
C1003 C403 1.244 . S
C1017 C93 1.290 . S
C1023 C496 1.244 . S
C1037 C372 1.237 . S
C1043 C456 1.226 . S
C1063 C425 1.244 . S
C1057 C189 1.229 . S
C1083 C477 1.239 . S
C1077 C309 1.327 . S
C1103 C476 1.235 . S
C1097 C84 1.259 . S
C1123 C445 1.215 . S
C1117 C381 1.222 . S
C1143 C384 1.226 . S
C1137 C180 1.309 . S
