# Generated by pormake.
# Topology nom, (4,4)-cn, num edge types: 1
# Building blocks:
#     Node 0, Type 0, BuildingBlock: NAWXER_clean_linker_0, # of connection points: 4
#     Node 1, Type 0, BuildingBlock: NAWXER_clean_linker_0, # of connection points: 4
#     Node 2, Type 0, BuildingBlock: NAWXER_clean_linker_0, # of connection points: 4
#     Node 3, Type 0, BuildingBlock: NAWXER_clean_linker_0, # of connection points: 4
#     Node 4, Type 0, BuildingBlock: NAWXER_clean_linker_0, # of connection points: 4
#     Node 5, Type 0, BuildingBlock: NAWXER_clean_linker_0, # of connection points: 4
#     Node 6, Type 1, BuildingBlock: KUFVIS_clean_sbu_0, # of connection points: 4
#     Node 7, Type 1, BuildingBlock: KUFVIS_clean_sbu_0, # of connection points: 4
#     Node 8, Type 1, BuildingBlock: KUFVIS_clean_sbu_0, # of connection points: 4
#     Node 9, Type 1, BuildingBlock: KUFVIS_clean_sbu_0, # of connection points: 4
#     Node 10, Type 1, BuildingBlock: KUFVIS_clean_sbu_0, # of connection points: 4
#     Node 11, Type 1, BuildingBlock: KUFVIS_clean_sbu_0, # of connection points: 4
#     Edge 12, Type (0, 1), BuildingBlock: XUDNAN_clean_linker_2, # of connection points: 2
#     Edge 13, Type (0, 1), BuildingBlock: XUDNAN_clean_linker_2, # of connection points: 2
#     Edge 14, Type (0, 1), BuildingBlock: XUDNAN_clean_linker_2, # of connection points: 2
#     Edge 15, Type (0, 1), BuildingBlock: XUDNAN_clean_linker_2, # of connection points: 2
#     Edge 16, Type (0, 1), BuildingBlock: XUDNAN_clean_linker_2, # of connection points: 2
#     Edge 17, Type (0, 1), BuildingBlock: XUDNAN_clean_linker_2, # of connection points: 2
#     Edge 18, Type (0, 1), BuildingBlock: XUDNAN_clean_linker_2, # of connection points: 2
#     Edge 19, Type (0, 1), BuildingBlock: XUDNAN_clean_linker_2, # of connection points: 2
#     Edge 20, Type (0, 1), BuildingBlock: XUDNAN_clean_linker_2, # of connection points: 2
#     Edge 21, Type (0, 1), BuildingBlock: XUDNAN_clean_linker_2, # of connection points: 2
#     Edge 22, Type (0, 1), BuildingBlock: XUDNAN_clean_linker_2, # of connection points: 2
#     Edge 23, Type (0, 1), BuildingBlock: XUDNAN_clean_linker_2, # of connection points: 2
#     Edge 24, Type (0, 1), BuildingBlock: XUDNAN_clean_linker_2, # of connection points: 2
#     Edge 25, Type (0, 1), BuildingBlock: XUDNAN_clean_linker_2, # of connection points: 2
#     Edge 26, Type (0, 1), BuildingBlock: XUDNAN_clean_linker_2, # of connection points: 2
#     Edge 27, Type (0, 1), BuildingBlock: XUDNAN_clean_linker_2, # of connection points: 2
#     Edge 28, Type (0, 1), BuildingBlock: XUDNAN_clean_linker_2, # of connection points: 2
#     Edge 29, Type (0, 1), BuildingBlock: XUDNAN_clean_linker_2, # of connection points: 2
#     Edge 30, Type (0, 1), BuildingBlock: XUDNAN_clean_linker_2, # of connection points: 2
#     Edge 31, Type (0, 1), BuildingBlock: XUDNAN_clean_linker_2, # of connection points: 2
#     Edge 32, Type (0, 1), BuildingBlock: XUDNAN_clean_linker_2, # of connection points: 2
#     Edge 33, Type (0, 1), BuildingBlock: XUDNAN_clean_linker_2, # of connection points: 2
#     Edge 34, Type (0, 1), BuildingBlock: XUDNAN_clean_linker_2, # of connection points: 2
#     Edge 35, Type (0, 1), BuildingBlock: XUDNAN_clean_linker_2, # of connection points: 2
# Relax obj value: 0.005
# Max RMSD: 0.110
# Mean RMSD: 0.070
data_MOF--net-nom--node1-KUFVIS_clean_sbu_0--node2-NAWXER_clean_linker_0--edge1-XUDNAN_clean_linker_2
_symmetry_space_group_name_H-M    P1
_symmetry_Int_Tables_number       1
_symmetry_cell_setting            triclinic
loop_
_symmetry_equiv_pos_as_xyz
'x, y, z'
_cell_length_a     51.746209
_cell_length_b     52.350725
_cell_length_c     57.583293
_cell_angle_alpha  90.646216
_cell_angle_beta   90.723615
_cell_angle_gamma 119.97586
loop_
_atom_site_label
_atom_site_type_symbol
_atom_site_fract_x
_atom_site_fract_y
_atom_site_fract_z
_atom_type_partial_charge
C0 C 0.9053 0.51832 0.33633 0.0
C1 C 0.89347 0.4958 0.35275 0.0
C2 C 0.93546 0.53185 0.33062 0.0
C3 C 0.95434 0.52315 0.34128 0.0
C4 C 0.91267 0.48787 0.36396 0.0
C5 C 0.94289 0.50165 0.35845 0.0
C6 C 0.98568 0.53553 0.33405 0.0
C7 C 0.92582 0.47787 0.27609 0.0
C8 C 0.93158 0.48933 0.25348 0.0
C9 C 0.94623 0.49207 0.29437 0.0
C10 C 0.97209 0.51945 0.29125 0.0
C11 C 0.95847 0.516 0.25014 0.0
C12 C 0.97817 0.53097 0.26879 0.0
C13 C 0.99389 0.53522 0.31072 0.0
C14 C 0.12727 0.584 0.31589 0.0
C15 C 0.13497 0.60227 0.29649 0.0
C16 C 0.09826 0.57085 0.32458 0.0
C17 C 0.0768 0.57657 0.31445 0.0
C18 C 0.1134 0.60769 0.28632 0.0
C19 C 0.08471 0.595 0.29518 0.0
C20 C 0.0455 0.56227 0.32244 0.0
C21 C 0.10525 0.61124 0.38402 0.0
C22 C 0.09965 0.59381 0.40371 0.0
C23 C 0.0846 0.60143 0.36544 0.0
C24 C 0.05872 0.57345 0.36587 0.0
C25 C 0.07303 0.56676 0.40479 0.0
C26 C 0.05279 0.55663 0.38602 0.0
C27 C 0.03719 0.56133 0.34593 0.0
H28 H 0.89104 0.52488 0.32741 0.0
H29 H 0.94393 0.54868 0.31753 0.0
H30 H 0.90427 0.4709 0.37693 0.0
H31 H 0.95712 0.49478 0.36701 0.0
H32 H 0.90548 0.45788 0.28007 0.0
H33 H 0.94159 0.48124 0.31091 0.0
H34 H 0.96477 0.52545 0.23314 0.0
H35 H 0.99835 0.55161 0.26557 0.0
H36 H 0.14339 0.5792 0.32388 0.0
H37 H 0.09254 0.55596 0.33897 0.0
H38 H 0.11876 0.62182 0.27143 0.0
H39 H 0.06858 0.59959 0.2869 0.0
H40 H 0.12565 0.6323 0.38299 0.0
H41 H 0.08914 0.61551 0.35063 0.0
H42 H 0.0684 0.55299 0.41983 0.0
H43 H 0.03281 0.53522 0.38701 0.0
N44 N 0.00759 0.54803 0.35068 0.0
N45 N 0.02346 0.54909 0.30593 0.0
C46 C 0.40639 0.90983 0.50733 0.0
C47 C 0.41911 0.90249 0.526 0.0
C48 C 0.42165 0.93799 0.49771 0.0
C49 C 0.4501 0.95904 0.50636 0.0
C50 C 0.44762 0.92358 0.53444 0.0
C51 C 0.46284 0.9515 0.52481 0.0
C52 C 0.46651 0.98949 0.49743 0.0
C53 C 0.45824 0.92869 0.43914 0.0
C54 C 0.44953 0.93331 0.41698 0.0
C55 C 0.46605 0.94944 0.45713 0.0
C56 C 0.46304 0.97445 0.45439 0.0
C57 C 0.44782 0.95915 0.41394 0.0
C58 C 0.45417 0.97922 0.43245 0.0
C59 C 0.47131 0.99676 0.47359 0.0
C60 C 0.562 0.12607 0.4783 0.0
C61 C 0.54812 0.13971 0.46668 0.0
C62 C 0.546 0.09605 0.48331 0.0
C63 C 0.51581 0.07893 0.4767 0.0
C64 C 0.51818 0.12206 0.45912 0.0
C65 C 0.50227 0.0919 0.46393 0.0
C66 C 0.49794 0.0481 0.48439 0.0
C67 C 0.51892 0.10913 0.54662 0.0
C68 C 0.53217 0.10281 0.56542 0.0
C69 C 0.50588 0.08889 0.52808 0.0
C70 C 0.50695 0.06254 0.52768 0.0
C71 C 0.5322 0.07608 0.56555 0.0
C72 C 0.51982 0.05619 0.54681 0.0
C73 C 0.49397 0.04069 0.50812 0.0
H74 H 0.38431 0.89414 0.50063 0.0
H75 H 0.41108 0.94345 0.48379 0.0
H76 H 0.4582 0.91851 0.5486 0.0
H77 H 0.48473 0.96731 0.53181 0.0
H78 H 0.45928 0.90907 0.44296 0.0
H79 H 0.47476 0.94578 0.47313 0.0
H80 H 0.44209 0.9644 0.39724 0.0
H81 H 0.45242 0.99871 0.4295 0.0
H82 H 0.58519 0.13866 0.48387 0.0
H83 H 0.55699 0.08633 0.49289 0.0
H84 H 0.50661 0.1317 0.4503 0.0
H85 H 0.47899 0.07902 0.45864 0.0
H86 H 0.51846 0.12959 0.5464 0.0
H87 H 0.49488 0.09385 0.51421 0.0
H88 H 0.54234 0.07088 0.57994 0.0
H89 H 0.52066 0.03593 0.54716 0.0
N90 N 0.47836 0.01176 0.51354 0.0
N91 N 0.48647 0.0259 0.46808 0.0
C92 C 0.55939 0.48543 0.60457 0.0
C93 C 0.54557 0.47794 0.58234 0.0
C94 C 0.54643 0.49191 0.6231 0.0
C95 C 0.51793 0.48881 0.62081 0.0
C96 C 0.51747 0.47602 0.57978 0.0
C97 C 0.50375 0.48105 0.59879 0.0
C98 C 0.50412 0.49605 0.64063 0.0
C99 C 0.52319 0.42796 0.67063 0.0
C100 C 0.5485 0.44038 0.68541 0.0
C101 C 0.51031 0.44472 0.66372 0.0
C102 C 0.52233 0.47399 0.67177 0.0
C103 C 0.56025 0.4695 0.6937 0.0
C104 C 0.54695 0.48602 0.68723 0.0
C105 C 0.50913 0.49202 0.66427 0.0
C106 C 0.43939 0.53408 0.71937 0.0
C107 C 0.46214 0.5563 0.73342 0.0
C108 C 0.44648 0.52151 0.70069 0.0
C109 C 0.47642 0.53093 0.69583 0.0
C110 C 0.49203 0.56538 0.7286 0.0
C111 C 0.49908 0.55264 0.7101 0.0
C112 C 0.48458 0.51805 0.67624 0.0
C113 C 0.44311 0.56913 0.64882 0.0
C114 C 0.41477 0.54937 0.63929 0.0
C115 C 0.4641 0.56003 0.65245 0.0
C116 C 0.45707 0.53114 0.64636 0.0
C117 C 0.40841 0.52099 0.63222 0.0
C118 C 0.42947 0.51206 0.63554 0.0
C119 C 0.477 0.5196 0.65289 0.0
H120 H 0.58049 0.48654 0.60806 0.0
H121 H 0.55935 0.49991 0.63909 0.0
H122 H 0.50603 0.47111 0.56309 0.0
H123 H 0.48212 0.47922 0.59615 0.0
H124 H 0.51384 0.40556 0.66401 0.0
H125 H 0.49105 0.4349 0.65204 0.0
H126 H 0.57971 0.47943 0.70518 0.0
H127 H 0.5564 0.50848 0.69376 0.0
H128 H 0.41616 0.52669 0.72268 0.0
H129 H 0.42864 0.50444 0.69008 0.0
H130 H 0.51 0.58212 0.73933 0.0
H131 H 0.52229 0.55998 0.70675 0.0
H132 H 0.4485 0.5911 0.65443 0.0
H133 H 0.48541 0.57517 0.66066 0.0
H134 H 0.3868 0.50545 0.62463 0.0
H135 H 0.42365 0.48973 0.63067 0.0
N136 N 0.48735 0.5089 0.63593 0.0
N137 N 0.50001 0.504 0.68107 0.0
C138 C 0.89346 0.41728 0.82368 0.0
C139 C 0.87943 0.42819 0.80903 0.0
C140 C 0.9241 0.43386 0.82839 0.0
C141 C 0.94134 0.46172 0.81857 0.0
C142 C 0.89673 0.45602 0.79913 0.0
C143 C 0.92747 0.47251 0.80369 0.0
C144 C 0.97393 0.47911 0.82323 0.0
C145 C 0.93176 0.48225 0.88951 0.0
C146 C 0.93775 0.46996 0.90902 0.0
C147 C 0.94735 0.48631 0.86902 0.0
C148 C 0.96889 0.47756 0.86724 0.0
C149 C 0.95937 0.46124 0.90728 0.0
C150 C 0.97489 0.46516 0.88663 0.0
C151 C 0.98666 0.48354 0.84584 0.0
C152 C 0.11604 0.56555 0.83788 0.0
C153 C 0.12933 0.5489 0.84473 0.0
C154 C 0.08552 0.55173 0.83245 0.0
C155 C 0.06761 0.52108 0.8341 0.0
C156 C 0.11114 0.51801 0.84589 0.0
C157 C 0.08054 0.50434 0.84095 0.0
C158 C 0.03519 0.5065 0.82965 0.0
C159 C 0.07999 0.5228 0.76021 0.0
C160 C 0.0752 0.54227 0.7466 0.0
C161 C 0.06296 0.51022 0.77995 0.0
C162 C 0.04082 0.51685 0.78639 0.0
C163 C 0.0526 0.54833 0.75286 0.0
C164 C 0.03548 0.53559 0.77244 0.0
C165 C 0.02261 0.50411 0.80728 0.0
H166 H 0.88069 0.39595 0.8316 0.0
H167 H 0.93439 0.42479 0.83956 0.0
H168 H 0.88657 0.4648 0.78752 0.0
H169 H 0.94039 0.49382 0.79576 0.0
H170 H 0.91506 0.48893 0.89006 0.0
H171 H 0.94293 0.49693 0.85472 0.0
H172 H 0.96484 0.45206 0.92204 0.0
H173 H 0.99172 0.45865 0.88585 0.0
H174 H 0.129 0.58936 0.83717 0.0
H175 H 0.07575 0.565 0.8274 0.0
H176 H 0.12046 0.50425 0.85051 0.0
H177 H 0.06698 0.4806 0.84226 0.0
H178 H 0.09725 0.51773 0.75584 0.0
H179 H 0.06701 0.49522 0.79008 0.0
H180 H 0.04806 0.56287 0.74255 0.0
H181 H 0.01831 0.54078 0.77691 0.0
N182 N 0.99238 0.49019 0.80489 0.0
N183 N 0.01684 0.49652 0.84812 0.0
C184 C 0.4891 0.90861 0.99481 0.0
C185 C 0.46646 0.89503 0.97776 0.0
C186 C 0.50349 0.93905 0.9986 0.0
C187 C 0.49481 0.95651 0.98602 0.0
C188 C 0.45863 0.91247 0.96434 0.0
C189 C 0.47263 0.94298 0.96851 0.0
C190 C 0.50986 0.98891 0.99038 0.0
C191 C 0.4623 0.94917 0.05555 0.0
C192 C 0.48081 0.94712 0.07271 0.0
C193 C 0.47449 0.96721 0.03643 0.0
C194 C 0.5055 0.98413 0.03411 0.0
C195 C 0.51199 0.96494 0.07069 0.0
C196 C 0.5242 0.98354 0.0517 0.0
C197 C 0.51796 1.00173 0.01297 0.0
C198 C 0.5698 0.13108 1.00083 0.0
C199 C 0.59961 0.1429 0.00867 0.0
C200 C 0.55159 0.10072 0.99677 0.0
C201 C 0.56269 0.08157 1.00077 0.0
C202 C 0.61054 0.12341 0.01242 0.0
C203 C 0.59215 0.09306 0.0088 0.0
C204 C 0.5438 0.04952 0.99662 0.0
C205 C 0.57236 0.09372 0.92742 0.0
C206 C 0.54793 0.0897 0.9136 0.0
C207 C 0.56794 0.07646 0.94699 0.0
C208 C 0.539 0.05491 0.95316 0.0
C209 C 0.51909 0.06761 0.91953 0.0
C210 C 0.51472 0.0503 0.93901 0.0
C211 C 0.53354 0.03694 0.9742 0.0
H212 H 0.49597 0.89566 0.005 0.0
H213 H 0.52165 0.94889 0.01127 0.0
H214 H 0.44133 0.90241 0.95097 0.0
H215 H 0.4659 0.95596 0.95823 0.0
H216 H 0.43825 0.93672 0.05675 0.0
H217 H 0.45964 0.96781 0.02329 0.0
H218 H 0.52706 0.96393 0.08336 0.0
H219 H 0.54822 0.99655 0.05027 0.0
H220 H 0.5603 0.14516 0.99813 0.0
H221 H 0.52876 0.09213 0.99073 0.0
H222 H 0.63347 0.13153 0.01791 0.0
H223 H 0.6011 0.07856 0.01184 0.0
H224 H 0.59485 0.11057 0.92334 0.0
H225 H 0.58713 0.07998 0.9573 0.0
H226 H 0.49985 0.0636 0.90905 0.0
H227 H 0.49223 0.03361 0.94327 0.0
N228 N 0.51726 0.00705 0.97189 0.0
N229 N 0.53527 0.03152 0.01525 0.0
C230 C 0.50751 0.61948 0.15941 0.0
C231 C 0.48787 0.61623 0.17725 0.0
C232 C 0.51417 0.59736 0.15439 0.0
C233 C 0.5004 0.57062 0.16632 0.0
C234 C 0.47385 0.58945 0.1892 0.0
C235 C 0.48016 0.56689 0.18383 0.0
C236 C 0.50951 0.54818 0.16185 0.0
C237 C 0.46935 0.55165 0.09235 0.0
C238 C 0.49044 0.56517 0.07478 0.0
C239 C 0.47763 0.54482 0.11362 0.0
C240 C 0.50706 0.55112 0.11768 0.0
C241 C 0.52008 0.57211 0.07928 0.0
C242 C 0.52816 0.5648 0.10033 0.0
C243 C 0.51576 0.54202 0.13931 0.0
C244 C 0.56538 0.46059 0.14997 0.0
C245 C 0.58871 0.47514 0.13429 0.0
C246 C 0.54945 0.47412 0.15789 0.0
C247 C 0.55712 0.50255 0.15052 0.0
C248 C 0.59693 0.50389 0.12771 0.0
C249 C 0.58134 0.5174 0.13572 0.0
C250 C 0.53868 0.51627 0.15554 0.0
C251 C 0.57108 0.50287 0.22487 0.0
C252 C 0.54738 0.48314 0.23867 0.0
C253 C 0.56563 0.51514 0.20523 0.0
C254 C 0.53637 0.50792 0.19903 0.0
C255 C 0.5182 0.47646 0.23265 0.0
C256 C 0.5128 0.48893 0.21314 0.0
C257 C 0.53002 0.51995 0.17795 0.0
H258 H 0.51845 0.63954 0.14955 0.0
H259 H 0.53097 0.60178 0.14161 0.0
H260 H 0.45885 0.58631 0.20323 0.0
H261 H 0.46962 0.54674 0.19361 0.0
H262 H 0.44624 0.54555 0.08948 0.0
H263 H 0.46085 0.53384 0.12664 0.0
H264 H 0.53718 0.58318 0.06653 0.0
H265 H 0.55104 0.56999 0.10313 0.0
H266 H 0.55858 0.43832 0.15517 0.0
H267 H 0.53047 0.46192 0.1689 0.0
H268 H 0.61503 0.51568 0.11583 0.0
H269 H 0.58773 0.53931 0.12979 0.0
H270 H 0.59379 0.5084 0.22901 0.0
H271 H 0.58424 0.53016 0.19482 0.0
H272 H 0.49953 0.46169 0.24312 0.0
H273 H 0.4901 0.48328 0.2088 0.0
N274 N 0.51611 0.53614 0.1803 0.0
N275 N 0.53068 0.52701 0.13717 0.0
Mn276 Mn 0.62567 0.39202 0.41629 0.0
Mn277 Mn 0.66088 0.46649 0.41904 0.0
C278 C 0.61159 0.41557 0.44345 0.0
C279 C 0.62142 0.34721 0.42744 0.0
C280 C 0.61617 0.42981 0.3808 0.0
O281 O 0.66447 0.40441 0.39924 0.0
O282 O 0.6875 0.45383 0.40455 0.0
C283 C 0.71039 0.47943 0.45212 0.0
N284 N 0.68603 0.48163 0.44616 0.0
C285 C 0.69228 0.5113 0.48029 0.0
C286 C 0.71751 0.50944 0.48675 0.0
C287 C 0.72657 0.49341 0.47261 0.0
C288 C 0.67724 0.49718 0.45954 0.0
H289 H 0.71742 0.46711 0.44131 0.0
C290 C 0.68704 0.43032 0.39734 0.0
O291 O 0.60961 0.34944 0.40809 0.0
O292 O 0.63637 0.37117 0.43992 0.0
N293 N 0.63749 0.48123 0.43314 0.0
C294 C 0.61109 0.4784 0.42563 0.0
C295 C 0.59799 0.49172 0.43855 0.0
C296 C 0.61223 0.50792 0.45894 0.0
C297 C 0.63938 0.51052 0.46633 0.0
C298 C 0.65144 0.49687 0.4527 0.0
H299 H 0.6 0.46588 0.41001 0.0
O300 O 0.59307 0.3886 0.43678 0.0
O301 O 0.6375 0.42801 0.43371 0.0
O302 O 0.60917 0.40459 0.38881 0.0
O303 O 0.6356 0.45399 0.39056 0.0
C304 C 0.65452 0.52542 0.48701 0.0
C305 C 0.68098 0.52586 0.49396 0.0
H306 H 0.72988 0.51995 0.50265 0.0
H307 H 0.74594 0.49177 0.47753 0.0
H308 H 0.57691 0.48942 0.43284 0.0
H309 H 0.60195 0.51799 0.46895 0.0
H310 H 0.64569 0.53612 0.49793 0.0
H311 H 0.69212 0.53693 0.51011 0.0
Mn312 Mn 0.25143 0.65082 0.57871 0.0
Mn313 Mn 0.21148 0.57789 0.56594 0.0
C314 C 0.21674 0.63344 0.54833 0.0
C315 C 0.29231 0.69815 0.57525 0.0
C316 C 0.19778 0.60572 0.60656 0.0
O317 O 0.27617 0.6352 0.59469 0.0
O318 O 0.24667 0.58676 0.58589 0.0
C319 C 0.25637 0.57448 0.53669 0.0
N320 N 0.22836 0.57022 0.53926 0.0
C321 C 0.21443 0.55129 0.50006 0.0
C322 C 0.24307 0.55532 0.49704 0.0
C323 C 0.26414 0.56702 0.51543 0.0
C324 C 0.20796 0.55908 0.52166 0.0
H325 H 0.27268 0.58356 0.55074 0.0
C326 C 0.26973 0.60829 0.59575 0.0
O327 O 0.27597 0.69034 0.59356 0.0
O328 O 0.28568 0.67808 0.55918 0.0
N329 N 0.17693 0.56621 0.54655 0.0
C330 C 0.15066 0.56466 0.55204 0.0
C331 C 0.12719 0.55345 0.53551 0.0
C332 C 0.13096 0.5439 0.51356 0.0
C333 C 0.15821 0.54577 0.50831 0.0
C334 C 0.18063 0.55671 0.52559 0.0
H335 H 0.14765 0.57189 0.56891 0.0
O336 O 0.22429 0.65849 0.55855 0.0
O337 O 0.22931 0.61914 0.55647 0.0
O338 O 0.21921 0.63171 0.60313 0.0
O339 O 0.19215 0.58363 0.59344 0.0
C340 C 0.16407 0.53742 0.48653 0.0
C341 C 0.1922 0.54028 0.48238 0.0
H342 H 0.24919 0.5497 0.48064 0.0
H343 H 0.28634 0.57032 0.5132 0.0
H344 H 0.10624 0.55215 0.53966 0.0
H345 H 0.11282 0.53522 0.50085 0.0
H346 H 0.1472 0.52905 0.47278 0.0
H347 H 0.19657 0.5341 0.46549 0.0
Mn348 Mn 0.61406 0.25636 0.73848 0.0
Mn349 Mn 0.65252 0.22025 0.73474 0.0
C350 C 0.60138 0.2202 0.71003 0.0
C351 C 0.60923 0.29692 0.72882 0.0
C352 C 0.60756 0.20919 0.77238 0.0
O353 O 0.65211 0.28249 0.75737 0.0
O354 O 0.67811 0.25927 0.75033 0.0
C355 C 0.69947 0.25889 0.70234 0.0
N356 N 0.67635 0.23183 0.7076 0.0
C357 C 0.68121 0.21078 0.6717 0.0
C358 C 0.70517 0.23839 0.66594 0.0
C359 C 0.7143 0.26255 0.68132 0.0
C360 C 0.66739 0.20843 0.69294 0.0
H361 H 0.7065 0.27755 0.71407 0.0
C362 C 0.67589 0.28083 0.75884 0.0
O363 O 0.5966 0.28158 0.74706 0.0
O364 O 0.62463 0.28879 0.71634 0.0
N365 N 0.63015 0.18246 0.71957 0.0
C366 C 0.6057 0.15774 0.72715 0.0
C367 C 0.59353 0.13166 0.71363 0.0
C368 C 0.60662 0.13126 0.69252 0.0
C369 C 0.63158 0.15704 0.68496 0.0
C370 C 0.643 0.18226 0.69932 0.0
H371 H 0.59561 0.15789 0.7434 0.0
O372 O 0.58216 0.22783 0.71636 0.0
O373 O 0.62722 0.23399 0.72061 0.0
O374 O 0.59852 0.22611 0.76444 0.0
O375 O 0.62824 0.20628 0.76302 0.0
C376 C 0.64539 0.15877 0.66365 0.0
C377 C 0.67015 0.18564 0.657 0.0
H378 H 0.71655 0.24135 0.64968 0.0
H379 H 0.73269 0.28395 0.67696 0.0
H380 H 0.57413 0.11188 0.71949 0.0
H381 H 0.59728 0.11106 0.68221 0.0
H382 H 0.63694 0.13965 0.65213 0.0
H383 H 0.68034 0.18679 0.64044 0.0
Mn384 Mn 0.39615 0.64627 0.9176 0.0
Mn385 Mn 0.35972 0.57188 0.91784 0.0
C386 C 0.41511 0.62246 0.93953 0.0
C387 C 0.40159 0.69045 0.93227 0.0
C388 C 0.39837 0.60798 0.8781 0.0
O389 O 0.35559 0.63469 0.90327 0.0
O390 O 0.33169 0.58551 0.90784 0.0
C391 C 0.3186 0.56265 0.95621 0.0
N392 N 0.34049 0.55876 0.94691 0.0
C393 C 0.33986 0.52986 0.97929 0.0
C394 C 0.3172 0.53342 0.98918 0.0
C395 C 0.30666 0.55004 0.97765 0.0
C396 C 0.35125 0.54337 0.9581 0.0
H397 H 0.31031 0.57525 0.94732 0.0
C398 C 0.33228 0.60927 0.90179 0.0
O399 O 0.41062 0.68876 0.91165 0.0
O400 O 0.38916 0.66644 0.94412 0.0
N401 N 0.38366 0.55521 0.92723 0.0
C402 C 0.40485 0.55299 0.91498 0.0
C403 C 0.41793 0.53732 0.92424 0.0
C404 C 0.40863 0.52353 0.94574 0.0
C405 C 0.38606 0.52525 0.95764 0.0
C406 C 0.37397 0.54132 0.94762 0.0
H407 H 0.41184 0.56322 0.89831 0.0
O408 O 0.43198 0.64986 0.93414 0.0
O409 O 0.38735 0.61009 0.93258 0.0
O410 O 0.40753 0.63332 0.8876 0.0
O411 O 0.37974 0.58378 0.88755 0.0
C412 C 0.37471 0.5112 0.97885 0.0
C413 C 0.3515 0.51336 0.98959 0.0
H414 H 0.30778 0.52353 0.00563 0.0
H415 H 0.28923 0.55296 0.9852 0.0
H416 H 0.43508 0.53579 0.91481 0.0
H417 H 0.41873 0.51141 0.95281 0.0
H418 H 0.3836 0.49859 0.98702 0.0
H419 H 0.34297 0.50247 0.0059 0.0
Mn420 Mn 0.76909 0.40503 0.08177 0.0
Mn421 Mn 0.80628 0.36807 0.09016 0.0
C422 C 0.80291 0.41852 0.11247 0.0
C423 C 0.72732 0.41035 0.08632 0.0
C424 C 0.82018 0.41197 0.05166 0.0
O425 O 0.74496 0.36703 0.06263 0.0
O426 O 0.76814 0.34195 0.07306 0.0
C427 C 0.76546 0.32156 0.12179 0.0
N428 N 0.79309 0.34447 0.11723 0.0
C429 C 0.81298 0.33852 0.15347 0.0
C430 C 0.7848 0.31467 0.15845 0.0
C431 C 0.76093 0.30622 0.14257 0.0
C432 C 0.81622 0.35279 0.13238 0.0
H433 H 0.74702 0.31512 0.10969 0.0
C434 C 0.74706 0.34373 0.06261 0.0
O435 O 0.7449 0.42146 0.06889 0.0
O436 O 0.73378 0.3958 0.10121 0.0
N437 N 0.8433 0.39084 0.10688 0.0
C438 C 0.86813 0.41609 0.10056 0.0
C439 C 0.89357 0.42855 0.11521 0.0
C440 C 0.89328 0.41485 0.13612 0.0
C441 C 0.86746 0.3889 0.14227 0.0
C442 C 0.84283 0.37741 0.12692 0.0
H443 H 0.86848 0.42672 0.08452 0.0
O444 O 0.79546 0.4371 0.10446 0.0
O445 O 0.79029 0.39266 0.10228 0.0
O446 O 0.80218 0.42047 0.05802 0.0
O447 O 0.82252 0.39166 0.06183 0.0
C448 C 0.86494 0.37443 0.16332 0.0
C449 C 0.83773 0.34924 0.1689 0.0
H450 H 0.78114 0.30295 0.17455 0.0
H451 H 0.73906 0.28798 0.14637 0.0
H452 H 0.91335 0.44871 0.11044 0.0
H453 H 0.91287 0.42464 0.14745 0.0
H454 H 0.8836 0.38286 0.17555 0.0
H455 H 0.83588 0.33867 0.18535 0.0
Mn456 Mn 0.38536 0.77475 0.24486 0.0
Mn457 Mn 0.45847 0.82316 0.25571 0.0
C458 C 0.39996 0.81034 0.27433 0.0
C459 C 0.34048 0.73073 0.2498 0.0
C460 C 0.42484 0.82762 0.21422 0.0
O461 O 0.40571 0.75378 0.22994 0.0
O462 O 0.45361 0.78816 0.23814 0.0
C463 C 0.47185 0.78701 0.28752 0.0
N464 N 0.47145 0.81233 0.2832 0.0
C465 C 0.49419 0.83313 0.32053 0.0
C466 C 0.49495 0.80731 0.32534 0.0
C467 C 0.48366 0.78413 0.30878 0.0
C468 C 0.48225 0.83477 0.29901 0.0
H469 H 0.46324 0.76915 0.27483 0.0
C470 C 0.43379 0.76333 0.2292 0.0
O471 O 0.34607 0.74571 0.23094 0.0
O472 O 0.36144 0.74072 0.26574 0.0
N473 N 0.46613 0.85778 0.27294 0.0
C474 C 0.46166 0.8802 0.2663 0.0
C475 C 0.47083 0.90475 0.28123 0.0
C476 C 0.48462 0.90605 0.30274 0.0
C477 C 0.48886 0.88266 0.30922 0.0
C478 C 0.47948 0.85888 0.29355 0.0
H479 H 0.45117 0.87932 0.24975 0.0
O480 O 0.37377 0.79946 0.26443 0.0
O481 O 0.41701 0.80094 0.26609 0.0
O482 O 0.40012 0.80482 0.21883 0.0
O483 O 0.44811 0.83706 0.22717 0.0
C484 C 0.50154 0.88178 0.33078 0.0
C485 C 0.50417 0.85701 0.33645 0.0
H486 H 0.50389 0.80493 0.34177 0.0
H487 H 0.48406 0.76409 0.31241 0.0
H488 H 0.46731 0.92265 0.27619 0.0
H489 H 0.49164 0.925 0.31423 0.0
H490 H 0.50887 0.8998 0.3433 0.0
H491 H 0.51347 0.85636 0.35324 0.0
H492 H 0.19005 0.63419 0.31838 0.0
H493 H 0.14733 0.5998 0.25105 0.0
H494 H 0.19649 0.6245 0.23258 0.0
H495 H 0.24255 0.70417 0.2994 0.0
H496 H 0.27278 0.70872 0.31815 0.0
H497 H 0.23478 0.68532 0.32664 0.0
H498 H 0.24461 0.64172 0.33122 0.0
H499 H 0.28273 0.66505 0.32273 0.0
H500 H 0.25921 0.63082 0.30719 0.0
H501 H 0.24874 0.65671 0.22079 0.0
H502 H 0.30129 0.6952 0.21622 0.0
H503 H 0.31158 0.70907 0.29095 0.0
C504 C 0.19124 0.63132 0.29984 0.0
C505 C 0.16494 0.61501 0.28611 0.0
C506 C 0.16721 0.61228 0.26184 0.0
C507 C 0.19504 0.62607 0.25122 0.0
C508 C 0.22049 0.6425 0.2651 0.0
C509 C 0.21896 0.64518 0.28889 0.0
C510 C 0.2496 0.66618 0.29942 0.0
C511 C 0.24993 0.69267 0.31161 0.0
C512 C 0.25962 0.64997 0.31613 0.0
C513 C 0.26836 0.67546 0.27776 0.0
C514 C 0.25107 0.66122 0.25822 0.0
C515 C 0.26264 0.66763 0.23598 0.0
C516 C 0.2925 0.68956 0.23355 0.0
C517 C 0.31058 0.70483 0.25323 0.0
C518 C 0.29848 0.69722 0.27566 0.0
H519 H 0.54461 0.17134 0.42965 0.0
H520 H 0.58776 0.18244 0.49719 0.0
H521 H 0.61366 0.2363 0.49305 0.0
H522 H 0.60632 0.23358 0.40179 0.0
H523 H 0.58248 0.24368 0.38613 0.0
H524 H 0.56884 0.20575 0.39348 0.0
H525 H 0.52411 0.20437 0.41436 0.0
H526 H 0.53756 0.24224 0.40702 0.0
H527 H 0.53102 0.23133 0.43692 0.0
H528 H 0.63331 0.28902 0.48263 0.0
H529 H 0.64416 0.33701 0.46705 0.0
H530 H 0.58719 0.29226 0.40685 0.0
C531 C 0.5595 0.18502 0.4436 0.0
C532 C 0.56433 0.17237 0.46364 0.0
C533 C 0.58416 0.19133 0.48138 0.0
C534 C 0.59888 0.22206 0.47928 0.0
C535 C 0.59354 0.23371 0.45938 0.0
C536 C 0.57428 0.21583 0.44186 0.0
C537 C 0.57148 0.2341 0.42276 0.0
C538 C 0.58297 0.22897 0.39968 0.0
C539 C 0.53912 0.22762 0.42012 0.0
C540 C 0.59191 0.26501 0.43243 0.0
C541 C 0.60458 0.26424 0.45349 0.0
C542 C 0.62365 0.28991 0.46609 0.0
C543 C 0.62969 0.31709 0.45708 0.0
C544 C 0.61662 0.31846 0.4357 0.0
C545 C 0.59772 0.29199 0.42315 0.0
H546 H 0.41621 0.59753 0.61895 0.0
H547 H 0.35951 0.51842 0.65708 0.0
H548 H 0.31816 0.52896 0.65406 0.0
H549 H 0.38539 0.6432 0.64226 0.0
H550 H 0.3875 0.66011 0.61472 0.0
H551 H 0.41398 0.6485 0.62212 0.0
H552 H 0.39946 0.61654 0.58436 0.0
H553 H 0.37308 0.62813 0.57683 0.0
H554 H 0.36088 0.58939 0.57867 0.0
H555 H 0.28193 0.54467 0.64392 0.0
H556 H 0.25181 0.56402 0.62603 0.0
H557 H 0.33093 0.63365 0.59437 0.0
C558 C 0.39522 0.58284 0.62702 0.0
C559 C 0.39094 0.55718 0.63829 0.0
C560 C 0.36309 0.53808 0.64828 0.0
C561 C 0.33959 0.54401 0.6468 0.0
C562 C 0.34427 0.56917 0.63528 0.0
C563 C 0.37131 0.58832 0.62551 0.0
C564 C 0.3694 0.61239 0.61241 0.0
C565 C 0.39031 0.64286 0.62355 0.0
C566 C 0.3761 0.61154 0.58654 0.0
C567 C 0.33689 0.60327 0.61588 0.0
C568 C 0.32302 0.57846 0.6294 0.0
C569 C 0.2926 0.56438 0.63366 0.0
C570 C 0.27569 0.57549 0.62343 0.0
C571 C 0.28918 0.60051 0.60918 0.0
C572 C 0.3203 0.61499 0.60575 0.0
H573 H 0.84764 0.36956 0.79706 0.0
H574 H 0.83812 0.44643 0.80864 0.0
H575 H 0.78411 0.41645 0.79918 0.0
H576 H 0.79786 0.34072 0.74847 0.0
H577 H 0.78317 0.3027 0.75611 0.0
H578 H 0.82057 0.32993 0.76497 0.0
H579 H 0.8079 0.31492 0.80789 0.0
H580 H 0.77041 0.28766 0.79914 0.0
H581 H 0.77658 0.31548 0.82071 0.0
H582 H 0.73118 0.37795 0.78762 0.0
H583 H 0.68438 0.33497 0.77294 0.0
H584 H 0.72932 0.28378 0.76872 0.0
C585 C 0.83411 0.37998 0.79792 0.0
C586 C 0.84698 0.41026 0.80371 0.0
C587 C 0.82868 0.42328 0.80414 0.0
C588 C 0.798 0.4064 0.79894 0.0
C589 C 0.78602 0.37658 0.79328 0.0
C590 C 0.80357 0.36354 0.79264 0.0
C591 C 0.78561 0.33147 0.78503 0.0
C592 C 0.79751 0.32589 0.7623 0.0
C593 C 0.7851 0.31119 0.80435 0.0
C594 C 0.75524 0.32851 0.78131 0.0
C595 C 0.75581 0.35465 0.78634 0.0
C596 C 0.73045 0.35732 0.78372 0.0
C597 C 0.70393 0.33274 0.77542 0.0
C598 C 0.70305 0.30589 0.76967 0.0
C599 C 0.72909 0.30386 0.77297 0.0
H600 H 0.46175 0.86407 0.93769 0.0
H601 H 0.43794 0.85345 0.01026 0.0
H602 H 0.41559 0.79941 0.00566 0.0
H603 H 0.39637 0.79581 0.91524 0.0
H604 H 0.41792 0.78841 0.89469 0.0
H605 H 0.42929 0.82591 0.90305 0.0
H606 H 0.48142 0.83456 0.91544 0.0
H607 H 0.4702 0.79711 0.90721 0.0
H608 H 0.48415 0.81051 0.93626 0.0
H609 H 0.39825 0.74727 0.99385 0.0
H610 H 0.38849 0.70015 0.97606 0.0
H611 H 0.42517 0.74437 0.91129 0.0
C612 C 0.45125 0.8502 0.95242 0.0
C613 C 0.45119 0.86268 0.97427 0.0
C614 C 0.43801 0.84412 0.99339 0.0
C615 C 0.42523 0.81348 0.99091 0.0
C616 C 0.42601 0.80182 0.96923 0.0
C617 C 0.43874 0.81955 0.95031 0.0
C618 C 0.43852 0.80153 0.92942 0.0
C619 C 0.41938 0.803 0.90942 0.0
C620 C 0.47047 0.81153 0.92164 0.0
C621 C 0.42405 0.771 0.93966 0.0
C622 C 0.41671 0.77167 0.96256 0.0
C623 C 0.40373 0.74641 0.97589 0.0
C624 C 0.3983 0.71975 0.96562 0.0
C625 C 0.40605 0.71856 0.94228 0.0
C626 C 0.41891 0.74455 0.92913 0.0
H627 H 0.61761 0.44888 0.15516 0.0
H628 H 0.59334 0.46861 0.08814 0.0
H629 H 0.62225 0.44919 0.06857 0.0
H630 H 0.69145 0.4714 0.14204 0.0
H631 H 0.69384 0.44303 0.15773 0.0
H632 H 0.66803 0.45464 0.16662 0.0
H633 H 0.6244 0.40077 0.16289 0.0
H634 H 0.65015 0.38894 0.15409 0.0
H635 H 0.61817 0.38056 0.13589 0.0
H636 H 0.65802 0.4338 0.05644 0.0
H637 H 0.69803 0.42168 0.05221 0.0
H638 H 0.69939 0.41052 0.12669 0.0
C639 C 0.61782 0.4483 0.13637 0.0
C640 C 0.60324 0.46011 0.12309 0.0
C641 C 0.60445 0.45969 0.09855 0.0
C642 C 0.62069 0.44861 0.0873 0.0
C643 C 0.63552 0.43787 0.10081 0.0
C644 C 0.63414 0.43737 0.12478 0.0
C645 C 0.65413 0.42667 0.1351 0.0
C646 C 0.67829 0.45035 0.15132 0.0
C647 C 0.6356 0.39749 0.14774 0.0
C648 C 0.66754 0.42213 0.11322 0.0
C649 C 0.65624 0.42853 0.09366 0.0
C650 C 0.66667 0.4282 0.07156 0.0
C651 C 0.68949 0.42142 0.06934 0.0
C652 C 0.70156 0.4149 0.08908 0.0
C653 C 0.6901 0.41482 0.11126 0.0
H654 H 0.38663 0.84708 0.50549 0.0
H655 H 0.4138 0.89246 0.57253 0.0
H656 H 0.38718 0.84478 0.59217 0.0
H657 H 0.31311 0.79207 0.5218 0.0
H658 H 0.3129 0.76285 0.50479 0.0
H659 H 0.33494 0.80053 0.49592 0.0
H660 H 0.38206 0.79513 0.49591 0.0
H661 H 0.36018 0.75748 0.50497 0.0
H662 H 0.39262 0.78328 0.52183 0.0
H663 H 0.35591 0.79293 0.60469 0.0
H664 H 0.32124 0.73969 0.60933 0.0
H665 H 0.31497 0.72699 0.53444 0.0
C666 C 0.3869 0.84693 0.52429 0.0
C667 C 0.40249 0.87351 0.53748 0.0
C668 C 0.40242 0.87238 0.56207 0.0
C669 C 0.3873 0.84541 0.57339 0.0
C670 C 0.3724 0.81965 0.55992 0.0
C671 C 0.37204 0.82009 0.53593 0.0
C672 C 0.35376 0.78911 0.52568 0.0
C673 C 0.3271 0.78596 0.5112 0.0
C674 C 0.37333 0.78077 0.51125 0.0
C675 C 0.3436 0.77132 0.54768 0.0
C676 C 0.3547 0.78944 0.56721 0.0
C677 C 0.34731 0.77845 0.58955 0.0
C678 C 0.32762 0.7482 0.59201 0.0
C679 C 0.31571 0.72922 0.57228 0.0
C680 C 0.32423 0.74091 0.54985 0.0
H681 H 0.52465 0.38755 0.70758 0.0
H682 H 0.60571 0.45513 0.67666 0.0
H683 H 0.63058 0.42626 0.68527 0.0
H684 H 0.56202 0.37173 0.75477 0.0
H685 H 0.53529 0.3328 0.75431 0.0
H686 H 0.52391 0.35875 0.74569 0.0
H687 H 0.5045 0.33104 0.70613 0.0
H688 H 0.51581 0.30502 0.71462 0.0
H689 H 0.52937 0.3251 0.68814 0.0
H690 H 0.64521 0.38846 0.69463 0.0
H691 H 0.65028 0.34612 0.70713 0.0
H692 H 0.56122 0.30485 0.73506 0.0
C693 C 0.54766 0.39619 0.70273 0.0
C694 C 0.56338 0.42342 0.69141 0.0
C695 C 0.59347 0.43432 0.68542 0.0
C696 C 0.60769 0.41807 0.69019 0.0
C697 C 0.59161 0.39123 0.70133 0.0
C698 C 0.56239 0.38053 0.70782 0.0
C699 C 0.55036 0.35129 0.71992 0.0
C700 C 0.54243 0.35381 0.74517 0.0
C701 C 0.52342 0.32666 0.70639 0.0
C702 C 0.57719 0.34699 0.71887 0.0
C703 C 0.60065 0.37018 0.70788 0.0
C704 C 0.62719 0.3704 0.70357 0.0
C705 C 0.62983 0.34626 0.71066 0.0
C706 C 0.6063 0.32252 0.72228 0.0
C707 C 0.57976 0.32304 0.72661 0.0
H708 H 0.15711 0.53215 0.87752 0.0
H709 H 0.17568 0.59893 0.82598 0.0
H710 H 0.2291 0.62332 0.83674 0.0
H711 H 0.21226 0.57823 0.92033 0.0
H712 H 0.222 0.55071 0.92782 0.0
H713 H 0.18486 0.5396 0.9173 0.0
H714 H 0.19002 0.50824 0.88447 0.0
H715 H 0.22708 0.5191 0.89499 0.0
H716 H 0.22111 0.5254 0.86519 0.0
H717 H 0.28087 0.64054 0.85321 0.0
H718 H 0.32711 0.64662 0.87162 0.0
H719 H 0.27478 0.56611 0.90963 0.0
C720 C 0.17226 0.55171 0.86822 0.0
C721 C 0.16181 0.5636 0.85096 0.0
C722 C 0.18275 0.58961 0.83965 0.0
C723 C 0.21327 0.60359 0.84553 0.0
C724 C 0.22266 0.59116 0.86257 0.0
C725 C 0.2028 0.56562 0.87355 0.0
C726 C 0.21873 0.55587 0.8904 0.0
C727 C 0.20887 0.55613 0.91544 0.0
C728 C 0.21395 0.52535 0.88333 0.0
C729 C 0.25071 0.57985 0.88708 0.0
C730 C 0.2525 0.60026 0.87123 0.0
C731 C 0.27974 0.62462 0.86558 0.0
C732 C 0.30585 0.62795 0.87619 0.0
C733 C 0.30454 0.60677 0.89196 0.0
C734 C 0.27653 0.58255 0.89752 0.0
H735 H 0.64384 0.17068 0.0423 0.0
H736 H 0.60013 0.18891 0.98516 0.0
H737 H 0.63229 0.24226 0.99302 0.0
H738 H 0.6552 0.22969 0.08023 0.0
H739 H 0.69157 0.23732 0.09022 0.0
H740 H 0.66418 0.20056 0.08072 0.0
H741 H 0.70127 0.20044 0.05093 0.0
H742 H 0.72881 0.23716 0.06039 0.0
H743 H 0.71775 0.22957 0.03016 0.0
H744 H 0.66907 0.29418 0.00793 0.0
H745 H 0.70906 0.33973 0.02711 0.0
H746 H 0.73097 0.28663 0.07169 0.0
C747 C 0.64113 0.18571 0.03114 0.0
C748 C 0.61916 0.17527 0.01313 0.0
C749 C 0.61626 0.19609 0.99939 0.0
C750 C 0.63462 0.22653 1.00359 0.0
C751 C 0.65607 0.23591 0.02141 0.0
C752 C 0.65955 0.21607 0.0348 0.0
C753 C 0.68478 0.23168 0.05247 0.0
C754 C 0.67323 0.22438 0.07738 0.0
C755 C 0.70962 0.22427 0.04822 0.0
C756 C 0.69494 0.26346 0.04698 0.0
C757 C 0.67796 0.26554 0.0292 0.0
C758 C 0.68267 0.29279 0.02174 0.0
C759 C 0.70537 0.31851 0.03275 0.0
C760 C 0.72331 0.31677 0.05075 0.0
C761 C 0.71795 0.2888 0.05779 0.0
H762 H 0.43644 0.61618 0.19113 0.0
H763 H 0.53105 0.67423 0.17967 0.0
H764 H 0.52573 0.71716 0.18886 0.0
H765 H 0.41077 0.66417 0.16845 0.0
H766 H 0.38321 0.65559 0.19039 0.0
H767 H 0.39347 0.62865 0.18195 0.0
H768 H 0.40695 0.62483 0.22475 0.0
H769 H 0.39646 0.65155 0.23333 0.0
H770 H 0.43319 0.65781 0.24062 0.0
H771 H 0.51144 0.75375 0.19903 0.0
H772 H 0.48956 0.78287 0.2133 0.0
H773 H 0.40402 0.70268 0.22045 0.0
C774 C 0.45602 0.63791 0.19064 0.0
C775 C 0.48405 0.64171 0.18407 0.0
C776 C 0.50913 0.67061 0.18382 0.0
C777 C 0.50642 0.69524 0.18917 0.0
C778 C 0.47854 0.6908 0.19506 0.0
C779 C 0.45379 0.66298 0.19615 0.0
C780 C 0.42677 0.6648 0.20401 0.0
C781 C 0.4021 0.65258 0.18506 0.0
C782 C 0.41517 0.6488 0.22705 0.0
C783 C 0.44042 0.69799 0.20722 0.0
C784 C 0.47027 0.71235 0.2017 0.0
C785 C 0.48811 0.74282 0.20348 0.0
C786 C 0.47539 0.75916 0.21165 0.0
C787 C 0.44505 0.74514 0.21812 0.0
C788 C 0.42718 0.71408 0.21547 0.0
H789 H 0.8581 0.51998 0.36169 0.0
H790 H 0.85584 0.43625 0.35536 0.0
H791 H 0.80199 0.40998 0.36395 0.0
H792 H 0.80909 0.50021 0.40955 0.0
H793 H 0.79136 0.52043 0.39979 0.0
H794 H 0.82926 0.53238 0.39204 0.0
H795 H 0.81475 0.52984 0.34846 0.0
H796 H 0.77675 0.51778 0.35611 0.0
H797 H 0.78475 0.49594 0.33619 0.0
H798 H 0.7483 0.3929 0.37383 0.0
H799 H 0.70002 0.38661 0.38644 0.0
H800 H 0.73796 0.48172 0.38683 0.0
C801 C 0.84618 0.49611 0.36188 0.0
C802 C 0.8611 0.48013 0.35781 0.0
C803 C 0.84486 0.44892 0.3586 0.0
C804 C 0.81425 0.43381 0.36331 0.0
C805 C 0.80021 0.45022 0.36729 0.0
C806 C 0.8157 0.4807 0.36676 0.0
C807 C 0.79571 0.49319 0.37267 0.0
C808 C 0.80703 0.5127 0.39483 0.0
C809 C 0.79283 0.51019 0.35213 0.0
C810 C 0.76661 0.46502 0.3767 0.0
C811 C 0.76955 0.44045 0.37333 0.0
C812 C 0.74573 0.41201 0.37645 0.0
C813 C 0.71833 0.40865 0.38356 0.0
C814 C 0.71502 0.43362 0.38765 0.0
C815 C 0.73955 0.4621 0.38385 0.0
H816 H 0.09734 0.61064 0.44853 0.0
H817 H 0.15251 0.59535 0.40082 0.0
H818 H 0.18873 0.60441 0.43279 0.0
H819 H 0.16185 0.67072 0.48228 0.0
H820 H 0.14211 0.66 0.50921 0.0
H821 H 0.12182 0.65419 0.48216 0.0
H822 H 0.08933 0.60015 0.49241 0.0
H823 H 0.11038 0.60346 0.51853 0.0
H824 H 0.10562 0.57714 0.49599 0.0
H825 H 0.21745 0.61279 0.46979 0.0
H826 H 0.2385 0.62202 0.50974 0.0
H827 H 0.1655 0.63282 0.53395 0.0
C828 C 0.11735 0.60973 0.44488 0.0
C829 C 0.12245 0.60246 0.42236 0.0
C830 C 0.14859 0.60119 0.418 0.0
C831 C 0.16914 0.6062 0.43602 0.0
C832 C 0.16338 0.61297 0.45814 0.0
C833 C 0.13846 0.61533 0.4626 0.0
C834 C 0.13774 0.62302 0.48798 0.0
C835 C 0.14109 0.65381 0.49055 0.0
C836 C 0.10911 0.59955 0.49944 0.0
C837 C 0.16531 0.62304 0.49732 0.0
C838 C 0.17994 0.61762 0.47968 0.0
C839 C 0.20618 0.61699 0.48376 0.0
C840 C 0.21781 0.62199 0.50648 0.0
C841 C 0.203 0.62708 0.52488 0.0
C842 C 0.17678 0.62826 0.52018 0.0
H843 H 0.51299 0.099 0.6099 0.0
H844 H 0.58436 0.15461 0.56403 0.0
H845 H 0.61103 0.18961 0.59678 0.0
H846 H 0.51409 0.15972 0.64264 0.0
H847 H 0.50537 0.14035 0.66967 0.0
H848 H 0.49238 0.12002 0.64255 0.0
H849 H 0.51701 0.0901 0.6544 0.0
H850 H 0.53301 0.11131 0.68085 0.0
H851 H 0.55665 0.10827 0.65953 0.0
H852 H 0.62964 0.21823 0.63418 0.0
H853 H 0.63794 0.24059 0.67352 0.0
H854 H 0.55415 0.16705 0.69535 0.0
C855 C 0.53417 0.11868 0.60686 0.0
C856 C 0.54685 0.12436 0.58465 0.0
C857 C 0.57445 0.15018 0.58103 0.0
C858 C 0.58971 0.17001 0.59949 0.0
C859 C 0.57678 0.16374 0.62131 0.0
C860 C 0.54942 0.13897 0.62502 0.0
C861 C 0.54007 0.13795 0.64999 0.0
C862 C 0.51128 0.13962 0.65128 0.0
C863 C 0.53649 0.11029 0.66194 0.0
C864 C 0.56664 0.16582 0.65984 0.0
C865 C 0.58756 0.18029 0.64296 0.0
C866 C 0.61356 0.20699 0.64757 0.0
C867 C 0.6182 0.21939 0.66997 0.0
C868 C 0.59716 0.20496 0.68751 0.0
C869 C 0.5709 0.17802 0.68232 0.0
H870 H 0.42046 0.5284 0.76697 0.0
H871 H 0.48789 0.61497 0.74459 0.0
H872 H 0.47773 0.63781 0.77844 0.0
H873 H 0.36839 0.55014 0.78917 0.0
H874 H 0.35802 0.52573 0.81344 0.0
H875 H 0.36957 0.51637 0.78682 0.0
H876 H 0.41042 0.51159 0.80959 0.0
H877 H 0.39908 0.52103 0.83625 0.0
H878 H 0.4373 0.54219 0.82739 0.0
H879 H 0.46125 0.65108 0.81526 0.0
H880 H 0.44024 0.65388 0.85278 0.0
H881 H 0.38389 0.55846 0.85142 0.0
C882 C 0.43275 0.55219 0.76903 0.0
C883 C 0.45492 0.56996 0.75315 0.0
C884 C 0.47095 0.60097 0.75665 0.0
C885 C 0.46524 0.61413 0.77575 0.0
C886 C 0.44348 0.59598 0.79122 0.0
C887 C 0.42748 0.56568 0.7881 0.0
C888 C 0.40613 0.55112 0.80778 0.0
C889 C 0.3736 0.53489 0.79876 0.0
C890 C 0.4137 0.53026 0.82103 0.0
C891 C 0.41276 0.57795 0.82251 0.0
C892 C 0.43423 0.60361 0.81259 0.0
C893 C 0.44432 0.63113 0.82317 0.0
C894 C 0.43223 0.63248 0.84451 0.0
C895 C 0.41033 0.60642 0.85515 0.0
C896 C 0.4005 0.57885 0.84382 0.0
H897 H 0.91645 0.42437 0.94018 0.0
H898 H 0.92352 0.50939 0.92819 0.0
H899 H 0.89534 0.50413 0.96365 0.0
H900 H 0.84288 0.38845 0.96178 0.0
H901 H 0.84991 0.36813 0.9836 0.0
H902 H 0.87138 0.37872 0.95752 0.0
H903 H 0.92031 0.40524 0.98222 0.0
H904 H 0.89898 0.39464 0.0084 0.0
H905 H 0.9252 0.43296 1.00346 0.0
H906 H 0.86439 0.48886 0.99917 0.0
H907 H 0.83415 0.46527 0.03347 0.0
H908 H 0.84884 0.39112 0.02383 0.0
C909 C 0.91246 0.44208 0.94517 0.0
C910 C 0.922 0.46717 0.93116 0.0
C911 C 0.91595 0.48966 0.93827 0.0
C912 C 0.90014 0.48701 0.95852 0.0
C913 C 0.89073 0.46187 0.9717 0.0
C914 C 0.89683 0.43989 0.96547 0.0
C915 C 0.88377 0.41497 0.98265 0.0
C916 C 0.86061 0.38585 0.97067 0.0
C917 C 0.90855 0.41178 0.99491 0.0
C918 C 0.86912 0.42628 0.99933 0.0
C919 C 0.87341 0.45336 0.99264 0.0
C920 C 0.86109 0.46777 0.00471 0.0
C921 C 0.84384 0.45412 0.02414 0.0
C922 C 0.83918 0.42638 0.03144 0.0
C923 C 0.85225 0.41247 0.01888 0.0
H924 H 0.50141 0.95247 0.11838 0.0
H925 H 0.43011 0.89254 0.07092 0.0
H926 H 0.40693 0.85767 0.1025 0.0
H927 H 0.50787 0.89526 0.14753 0.0
H928 H 0.51604 0.91345 0.17563 0.0
H929 H 0.52627 0.93493 0.14966 0.0
H930 H 0.49644 0.9599 0.16308 0.0
H931 H 0.48594 0.93833 0.18902 0.0
H932 H 0.45758 0.93732 0.16991 0.0
H933 H 0.39103 0.82904 0.13893 0.0
H934 H 0.38585 0.80642 0.17709 0.0
H935 H 0.4691 0.88265 0.20069 0.0
C936 C 0.48103 0.93199 0.1145 0.0
C937 C 0.46741 0.92579 0.09205 0.0
C938 C 0.44063 0.89855 0.088 0.0
C939 C 0.42732 0.87835 0.10584 0.0
C940 C 0.44115 0.88532 0.12769 0.0
C941 C 0.46759 0.91127 0.13207 0.0
C942 C 0.47848 0.91257 0.1569 0.0
C943 C 0.50897 0.91414 0.15745 0.0
C944 C 0.47967 0.93858 0.17053 0.0
C945 C 0.45406 0.88325 0.16569 0.0
C946 C 0.43258 0.86811 0.14859 0.0
C947 C 0.40773 0.84064 0.15247 0.0
C948 C 0.40495 0.82802 0.17428 0.0
C949 C 0.42706 0.84266 0.19198 0.0
C950 C 0.45183 0.87081 0.18756 0.0
H951 H 0.59134 0.50984 0.27242 0.0
H952 H 0.51602 0.42521 0.25116 0.0
H953 H 0.5252 0.40211 0.28511 0.0
H954 H 0.63882 0.48252 0.29298 0.0
H955 H 0.6539 0.50835 0.31714 0.0
H956 H 0.64138 0.51806 0.29112 0.0
H957 H 0.60598 0.5289 0.31541 0.0
H958 H 0.61837 0.51919 0.34149 0.0
H959 H 0.57919 0.50074 0.33384 0.0
H960 H 0.54332 0.38811 0.32127 0.0
H961 H 0.56791 0.38475 0.35728 0.0
H962 H 0.63074 0.47883 0.35499 0.0
C963 C 0.5769 0.48641 0.27483 0.0
C964 C 0.55296 0.46932 0.25912 0.0
C965 C 0.53432 0.43879 0.26308 0.0
C966 C 0.53944 0.42545 0.28225 0.0
C967 C 0.56322 0.44294 0.2974 0.0
C968 C 0.58156 0.47279 0.29395 0.0
C969 C 0.6053 0.48676 0.31297 0.0
C970 C 0.63671 0.49968 0.30295 0.0
C971 C 0.60199 0.51028 0.32674 0.0
C972 C 0.59755 0.4601 0.32761 0.0
C973 C 0.57329 0.435 0.31832 0.0
C974 C 0.5623 0.40766 0.32873 0.0
C975 C 0.57645 0.40596 0.34918 0.0
C976 C 0.60125 0.43149 0.3591 0.0
C977 C 0.61177 0.45885 0.34803 0.0
H978 H 0.41536 0.92351 0.37604 0.0
H979 H 0.47062 0.89425 0.41161 0.0
H980 H 0.45789 0.85673 0.38146 0.0
H981 H 0.35952 0.85288 0.35058 0.0
H982 H 0.35808 0.86826 0.32307 0.0
H983 H 0.3672 0.89042 0.34933 0.0
H984 H 0.41515 0.92974 0.33081 0.0
H985 H 0.40803 0.90787 0.30462 0.0
H986 H 0.44238 0.9206 0.32095 0.0
H987 H 0.4364 0.81963 0.3496 0.0
H988 H 0.42088 0.79489 0.31125 0.0
H989 H 0.38919 0.85417 0.29101 0.0
C990 C 0.42504 0.90949 0.37771 0.0
C991 C 0.44305 0.91157 0.39734 0.0
C992 C 0.45525 0.8925 0.39799 0.0
C993 C 0.4484 0.87103 0.38067 0.0
C994 C 0.43014 0.86927 0.36214 0.0
C995 C 0.41945 0.88856 0.36 0.0
C996 C 0.40331 0.88393 0.33671 0.0
C997 C 0.37005 0.87323 0.34014 0.0
C998 C 0.4181 0.91218 0.3224 0.0
C999 C 0.40753 0.85962 0.32597 0.0
C1000 C 0.42179 0.85069 0.34159 0.0
C1001 C 0.42621 0.82709 0.33686 0.0
C1002 C 0.41754 0.81335 0.31499 0.0
C1003 C 0.40578 0.82398 0.29777 0.0
C1004 C 0.39939 0.84654 0.30361 0.0
H1005 H 0.52053 0.44612 0.54064 0.0
H1006 H 0.60615 0.49898 0.57683 0.0
H1007 H 0.63041 0.48619 0.54659 0.0
H1008 H 0.53156 0.39019 0.51656 0.0
H1009 H 0.51533 0.38921 0.48845 0.0
H1010 H 0.50325 0.40052 0.51379 0.0
H1011 H 0.51592 0.44944 0.4942 0.0
H1012 H 0.5284 0.43872 0.46873 0.0
H1013 H 0.55301 0.47301 0.48378 0.0
H1014 H 0.6445 0.46222 0.51558 0.0
H1015 H 0.65077 0.44056 0.47932 0.0
H1016 H 0.55981 0.41304 0.45815 0.0
C1017 C 0.54441 0.45552 0.54234 0.0
C1018 C 0.56075 0.47256 0.56225 0.0
C1019 C 0.59221 0.48432 0.56296 0.0
C1020 C 0.60656 0.47754 0.54555 0.0
C1021 C 0.58959 0.46 0.52682 0.0
C1022 C 0.55948 0.45011 0.52454 0.0
C1023 C 0.54716 0.43367 0.5015 0.0
C1024 C 0.52289 0.40149 0.50532 0.0
C1025 C 0.53543 0.44966 0.48614 0.0
C1026 C 0.57504 0.43545 0.49156 0.0
C1027 C 0.599 0.45009 0.50685 0.0
C1028 C 0.62635 0.45196 0.50292 0.0
C1029 C 0.62981 0.43988 0.48222 0.0
C1030 C 0.60658 0.4273 0.46527 0.0
C1031 C 0.57843 0.42403 0.47035 0.0
H1032 H 0.09227 0.51725 0.71196 0.0
H1033 H 0.10082 0.60029 0.73533 0.0
H1034 H 0.13172 0.62496 0.70152 0.0
H1035 H 0.16702 0.54741 0.69091 0.0
H1036 H 0.15609 0.52252 0.66617 0.0
H1037 H 0.13441 0.51124 0.69214 0.0
H1038 H 0.08703 0.49977 0.6681 0.0
H1039 H 0.1086 0.51114 0.64206 0.0
H1040 H 0.08717 0.52813 0.65054 0.0
H1041 H 0.16269 0.641 0.66602 0.0
H1042 H 0.19145 0.64744 0.63064 0.0
H1043 H 0.16222 0.55389 0.62933 0.0
C1044 C 0.10078 0.54065 0.70999 0.0
C1045 C 0.09405 0.55685 0.72626 0.0
C1046 C 0.10537 0.58738 0.72296 0.0
C1047 C 0.12304 0.60161 0.70385 0.0
C1048 C 0.1291 0.58501 0.68809 0.0
C1049 C 0.1183 0.5552 0.69087 0.0
C1050 C 0.12816 0.54258 0.67129 0.0
C1051 C 0.14758 0.53022 0.6807 0.0
C1052 C 0.10113 0.51901 0.65716 0.0
C1053 C 0.14635 0.57 0.65719 0.0
C1054 C 0.14661 0.59421 0.66726 0.0
C1055 C 0.16254 0.62219 0.6579 0.0
C1056 C 0.17886 0.62561 0.63779 0.0
C1057 C 0.17904 0.60117 0.62711 0.0
C1058 C 0.16227 0.57295 0.6369 0.0
H1059 H 0.59082 0.10708 0.88016 0.0
H1060 H 0.51495 0.11526 0.90105 0.0
H1061 H 0.52156 0.14625 0.86713 0.0
H1062 H 0.63551 0.18138 0.85987 0.0
H1063 H 0.65026 0.17071 0.83582 0.0
H1064 H 0.63953 0.14918 0.86176 0.0
H1065 H 0.60425 0.10239 0.83723 0.0
H1066 H 0.6148 0.1238 0.81122 0.0
H1067 H 0.57602 0.10256 0.81866 0.0
H1068 H 0.53677 0.17686 0.83109 0.0
H1069 H 0.55909 0.20432 0.79539 0.0
H1070 H 0.62482 0.17581 0.79782 0.0
C1071 C 0.57573 0.11557 0.87769 0.0
C1072 C 0.5523 0.10866 0.89326 0.0
C1073 C 0.53282 0.11993 0.88922 0.0
C1074 C 0.53648 0.13768 0.87006 0.0
C1075 C 0.5597 0.14394 0.85501 0.0
C1076 C 0.57897 0.1332 0.85858 0.0
C1077 C 0.60196 0.14302 0.83968 0.0
C1078 C 0.63369 0.16222 0.8499 0.0
C1079 C 0.59907 0.11635 0.82588 0.0
C1080 C 0.59264 0.16101 0.82498 0.0
C1081 C 0.56826 0.16132 0.83414 0.0
C1082 C 0.55584 0.17673 0.82372 0.0
C1083 C 0.56872 0.19229 0.80343 0.0
C1084 C 0.59373 0.19228 0.79366 0.0
C1085 C 0.60566 0.17626 0.80468 0.0
H1086 H 0.44858 0.58194 0.06472 0.0
H1087 H 0.51169 0.5617 0.03202 0.0
H1088 H 0.49823 0.57283 0.99388 0.0
H1089 H 0.39295 0.54765 0.02245 0.0
H1090 H 0.37997 0.57388 0.02078 0.0
H1091 H 0.39548 0.56935 0.04759 0.0
H1092 H 0.43674 0.62275 0.05142 0.0
H1093 H 0.4206 0.63059 0.02655 0.0
H1094 H 0.45949 0.641 0.02686 0.0
H1095 H 0.48196 0.59131 0.95995 0.0
H1096 H 0.45863 0.6093 0.93157 0.0
H1097 H 0.40014 0.60919 0.98469 0.0
C1098 C 0.45942 0.57952 0.04958 0.0
C1099 C 0.48159 0.57129 0.05163 0.0
C1100 C 0.49528 0.56874 0.0312 0.0
C1101 C 0.48761 0.57478 0.00934 0.0
C1102 C 0.46585 0.58293 0.00803 0.0
C1103 C 0.45174 0.58507 0.02754 0.0
C1104 C 0.4286 0.59364 0.0212 0.0
C1105 C 0.39735 0.56972 0.02838 0.0
C1106 C 0.43686 0.62378 0.03216 0.0
C1107 C 0.43161 0.59552 0.99501 0.0
C1108 C 0.4539 0.59013 0.9879 0.0
C1109 C 0.46376 0.59457 0.9651 0.0
C1110 C 0.45042 0.6047 0.94912 0.0
C1111 C 0.42661 0.6089 0.95576 0.0
C1112 C 0.41718 0.60441 0.97899 0.0
H1113 H 0.92466 0.51177 0.21138 0.0
H1114 H 0.88894 0.42975 0.24935 0.0
H1115 H 0.85085 0.40483 0.21892 0.0
H1116 H 0.85755 0.5021 0.18581 0.0
H1117 H 0.87339 0.51585 0.15786 0.0
H1118 H 0.89669 0.52878 0.18372 0.0
H1119 H 0.93221 0.51324 0.16575 0.0
H1120 H 0.90905 0.49945 0.13985 0.0
H1121 H 0.91799 0.47563 0.1562 0.0
H1122 H 0.81298 0.38994 0.18657 0.0
H1123 H 0.78621 0.38205 0.149 0.0
H1124 H 0.85246 0.46957 0.12793 0.0
C1125 C 0.90933 0.48852 0.21348 0.0
C1126 C 0.90975 0.47346 0.23375 0.0
C1127 C 0.88869 0.44279 0.23504 0.0
C1128 C 0.86692 0.42808 0.21758 0.0
C1129 C 0.86692 0.44385 0.19835 0.0
C1130 C 0.88817 0.47307 0.19575 0.0
C1131 C 0.88471 0.48407 0.17227 0.0
C1132 C 0.87766 0.50919 0.1751 0.0
C1133 C 0.91264 0.49365 0.15764 0.0
C1134 C 0.85807 0.4564 0.16223 0.0
C1135 C 0.84764 0.43379 0.17794 0.0
C1136 C 0.82165 0.40699 0.1737 0.0
C1137 C 0.80678 0.4026 0.15229 0.0
C1138 C 0.8186 0.42435 0.13509 0.0
C1139 C 0.8439 0.45205 0.14044 0.0
loop_
_geom_bond_atom_site_label_1
_geom_bond_atom_site_label_2
_geom_bond_distance
_geom_bond_site_symmetry_2
_ccdc_geom_bond_type
C0 C1 1.384 . S
C0 C2 1.384 . S
C0 H28 0.931 . S
C1 C0 1.384 . S
C1 C4 1.382 . S
C2 C0 1.384 . S
C2 C3 1.381 . S
C2 H29 0.930 . S
C3 C2 1.381 . S
C3 C5 1.381 . S
C3 C6 1.487 . S
C4 C1 1.382 . S
C4 C5 1.387 . S
C4 H30 0.930 . S
C5 C3 1.381 . S
C5 C4 1.387 . S
C5 H31 0.931 . S
C6 C3 1.487 . S
C6 C13 1.399 . S
C6 N44 1.343 . S
C7 C8 1.384 . S
C7 C9 1.384 . S
C7 H32 0.931 . S
C8 C7 1.384 . S
C8 C11 1.382 . S
C9 C7 1.384 . S
C9 C10 1.381 . S
C9 H33 0.930 . S
C10 C9 1.381 . S
C10 C12 1.381 . S
C10 C13 1.487 . S
C11 C8 1.382 . S
C11 C12 1.387 . S
C11 H34 0.930 . S
C12 C10 1.381 . S
C12 C11 1.387 . S
C12 H35 0.931 . S
C13 C6 1.399 . S
C13 C10 1.487 . S
C13 N45 1.343 1_655 S
C14 C15 1.384 . S
C14 C16 1.384 . S
C14 H36 0.931 . S
C15 C14 1.384 . S
C15 C18 1.382 . S
C16 C14 1.384 . S
C16 C17 1.381 . S
C16 H37 0.930 . S
C17 C16 1.381 . S
C17 C19 1.381 . S
C17 C20 1.487 . S
C18 C15 1.382 . S
C18 C19 1.387 . S
C18 H38 0.930 . S
C19 C17 1.381 . S
C19 C18 1.387 . S
C19 H39 0.931 . S
C20 C17 1.487 . S
C20 C27 1.399 . S
C20 N45 1.343 . S
C21 C22 1.384 . S
C21 C23 1.384 . S
C21 H40 0.931 . S
C22 C21 1.384 . S
C22 C25 1.382 . S
C23 C21 1.384 . S
C23 C24 1.381 . S
C23 H41 0.930 . S
C24 C23 1.381 . S
C24 C26 1.381 . S
C24 C27 1.487 . S
C25 C22 1.382 . S
C25 C26 1.387 . S
C25 H42 0.930 . S
C26 C24 1.381 . S
C26 C25 1.387 . S
C26 H43 0.931 . S
C27 C20 1.399 . S
C27 C24 1.487 . S
C27 N44 1.343 1_455 S
H28 C0 0.931 . S
H29 C2 0.930 . S
H30 C4 0.930 . S
H31 C5 0.931 . S
H32 C7 0.931 . S
H33 C9 0.930 . S
H34 C11 0.930 . S
H35 C12 0.931 . S
H36 C14 0.931 . S
H37 C16 0.930 . S
H38 C18 0.930 . S
H39 C19 0.931 . S
H40 C21 0.931 . S
H41 C23 0.930 . S
H42 C25 0.930 . S
H43 C26 0.931 . S
N44 C6 1.343 . S
N44 C27 1.343 1_655 S
N45 C13 1.343 1_455 S
N45 C20 1.343 . S
C46 C47 1.384 . S
C46 C48 1.384 . S
C46 H74 0.931 . S
C47 C46 1.384 . S
C47 C50 1.382 . S
C48 C46 1.384 . S
C48 C49 1.381 . S
C48 H75 0.930 . S
C49 C48 1.381 . S
C49 C51 1.381 . S
C49 C52 1.487 . S
C50 C47 1.382 . S
C50 C51 1.387 . S
C50 H76 0.930 . S
C51 C49 1.381 . S
C51 C50 1.387 . S
C51 H77 0.931 . S
C52 C49 1.487 . S
C52 C59 1.399 . S
C52 N90 1.343 1_565 S
C53 C54 1.384 . S
C53 C55 1.384 . S
C53 H78 0.931 . S
C54 C53 1.384 . S
C54 C57 1.382 . S
C55 C53 1.384 . S
C55 C56 1.381 . S
C55 H79 0.930 . S
C56 C55 1.381 . S
C56 C58 1.381 . S
C56 C59 1.487 . S
C57 C54 1.382 . S
C57 C58 1.387 . S
C57 H80 0.930 . S
C58 C56 1.381 . S
C58 C57 1.387 . S
C58 H81 0.931 . S
C59 C52 1.399 . S
C59 C56 1.487 . S
C59 N91 1.343 1_565 S
C60 C61 1.384 . S
C60 C62 1.384 . S
C60 H82 0.931 . S
C61 C60 1.384 . S
C61 C64 1.382 . S
C62 C60 1.384 . S
C62 C63 1.381 . S
C62 H83 0.930 . S
C63 C62 1.381 . S
C63 C65 1.381 . S
C63 C66 1.487 . S
C64 C61 1.382 . S
C64 C65 1.387 . S
C64 H84 0.930 . S
C65 C63 1.381 . S
C65 C64 1.387 . S
C65 H85 0.931 . S
C66 C63 1.487 . S
C66 C73 1.399 . S
C66 N91 1.343 . S
C67 C68 1.384 . S
C67 C69 1.384 . S
C67 H86 0.931 . S
C68 C67 1.384 . S
C68 C71 1.382 . S
C69 C67 1.384 . S
C69 C70 1.381 . S
C69 H87 0.930 . S
C70 C69 1.381 . S
C70 C72 1.381 . S
C70 C73 1.487 . S
C71 C68 1.382 . S
C71 C72 1.387 . S
C71 H88 0.930 . S
C72 C70 1.381 . S
C72 C71 1.387 . S
C72 H89 0.931 . S
C73 C66 1.399 . S
C73 C70 1.487 . S
C73 N90 1.343 . S
H74 C46 0.931 . S
H75 C48 0.930 . S
H76 C50 0.930 . S
H77 C51 0.931 . S
H78 C53 0.931 . S
H79 C55 0.930 . S
H80 C57 0.930 . S
H81 C58 0.931 . S
H82 C60 0.931 . S
H83 C62 0.930 . S
H84 C64 0.930 . S
H85 C65 0.931 . S
H86 C67 0.931 . S
H87 C69 0.930 . S
H88 C71 0.930 . S
H89 C72 0.931 . S
N90 C52 1.343 1_545 S
N90 C73 1.343 . S
N91 C59 1.343 1_545 S
N91 C66 1.343 . S
C92 C93 1.384 . S
C92 C94 1.384 . S
C92 H120 0.931 . S
C93 C92 1.384 . S
C93 C96 1.382 . S
C94 C92 1.384 . S
C94 C95 1.381 . S
C94 H121 0.930 . S
C95 C94 1.381 . S
C95 C97 1.381 . S
C95 C98 1.487 . S
C96 C93 1.382 . S
C96 C97 1.387 . S
C96 H122 0.930 . S
C97 C95 1.381 . S
C97 C96 1.387 . S
C97 H123 0.931 . S
C98 C95 1.487 . S
C98 C105 1.399 . S
C98 N136 1.343 . S
C99 C100 1.384 . S
C99 C101 1.384 . S
C99 H124 0.931 . S
C100 C99 1.384 . S
C100 C103 1.382 . S
C101 C99 1.384 . S
C101 C102 1.381 . S
C101 H125 0.930 . S
C102 C101 1.381 . S
C102 C104 1.381 . S
C102 C105 1.487 . S
C103 C100 1.382 . S
C103 C104 1.387 . S
C103 H126 0.930 . S
C104 C102 1.381 . S
C104 C103 1.387 . S
C104 H127 0.931 . S
C105 C98 1.399 . S
C105 C102 1.487 . S
C105 N137 1.343 . S
C106 C107 1.384 . S
C106 C108 1.384 . S
C106 H128 0.931 . S
C107 C106 1.384 . S
C107 C110 1.382 . S
C108 C106 1.384 . S
C108 C109 1.381 . S
C108 H129 0.930 . S
C109 C108 1.381 . S
C109 C111 1.381 . S
C109 C112 1.487 . S
C110 C107 1.382 . S
C110 C111 1.387 . S
C110 H130 0.930 . S
C111 C109 1.381 . S
C111 C110 1.387 . S
C111 H131 0.931 . S
C112 C109 1.487 . S
C112 C119 1.399 . S
C112 N137 1.343 . S
C113 C114 1.384 . S
C113 C115 1.384 . S
C113 H132 0.931 . S
C114 C113 1.384 . S
C114 C117 1.382 . S
C115 C113 1.384 . S
C115 C116 1.381 . S
C115 H133 0.930 . S
C116 C115 1.381 . S
C116 C118 1.381 . S
C116 C119 1.487 . S
C117 C114 1.382 . S
C117 C118 1.387 . S
C117 H134 0.930 . S
C118 C116 1.381 . S
C118 C117 1.387 . S
C118 H135 0.931 . S
C119 C112 1.399 . S
C119 C116 1.487 . S
C119 N136 1.343 . S
H120 C92 0.931 . S
H121 C94 0.930 . S
H122 C96 0.930 . S
H123 C97 0.931 . S
H124 C99 0.931 . S
H125 C101 0.930 . S
H126 C103 0.930 . S
H127 C104 0.931 . S
H128 C106 0.931 . S
H129 C108 0.930 . S
H130 C110 0.930 . S
H131 C111 0.931 . S
H132 C113 0.931 . S
H133 C115 0.930 . S
H134 C117 0.930 . S
H135 C118 0.931 . S
N136 C98 1.343 . S
N136 C119 1.343 . S
N137 C105 1.343 . S
N137 C112 1.343 . S
C138 C139 1.384 . S
C138 C140 1.384 . S
C138 H166 0.931 . S
C139 C138 1.384 . S
C139 C142 1.382 . S
C140 C138 1.384 . S
C140 C141 1.381 . S
C140 H167 0.930 . S
C141 C140 1.381 . S
C141 C143 1.381 . S
C141 C144 1.487 . S
C142 C139 1.382 . S
C142 C143 1.387 . S
C142 H168 0.930 . S
C143 C141 1.381 . S
C143 C142 1.387 . S
C143 H169 0.931 . S
C144 C141 1.487 . S
C144 C151 1.399 . S
C144 N182 1.343 . S
C145 C146 1.384 . S
C145 C147 1.384 . S
C145 H170 0.931 . S
C146 C145 1.384 . S
C146 C149 1.382 . S
C147 C145 1.384 . S
C147 C148 1.381 . S
C147 H171 0.930 . S
C148 C147 1.381 . S
C148 C150 1.381 . S
C148 C151 1.487 . S
C149 C146 1.382 . S
C149 C150 1.387 . S
C149 H172 0.930 . S
C150 C148 1.381 . S
C150 C149 1.387 . S
C150 H173 0.931 . S
C151 C144 1.399 . S
C151 C148 1.487 . S
C151 N183 1.343 1_655 S
C152 C153 1.384 . S
C152 C154 1.384 . S
C152 H174 0.931 . S
C153 C152 1.384 . S
C153 C156 1.382 . S
C154 C152 1.384 . S
C154 C155 1.381 . S
C154 H175 0.930 . S
C155 C154 1.381 . S
C155 C157 1.381 . S
C155 C158 1.487 . S
C156 C153 1.382 . S
C156 C157 1.387 . S
C156 H176 0.930 . S
C157 C155 1.381 . S
C157 C156 1.387 . S
C157 H177 0.931 . S
C158 C155 1.487 . S
C158 C165 1.399 . S
C158 N183 1.343 . S
C159 C160 1.384 . S
C159 C161 1.384 . S
C159 H178 0.931 . S
C160 C159 1.384 . S
C160 C163 1.382 . S
C161 C159 1.384 . S
C161 C162 1.381 . S
C161 H179 0.930 . S
C162 C161 1.381 . S
C162 C164 1.381 . S
C162 C165 1.487 . S
C163 C160 1.382 . S
C163 C164 1.387 . S
C163 H180 0.930 . S
C164 C162 1.381 . S
C164 C163 1.387 . S
C164 H181 0.931 . S
C165 C158 1.399 . S
C165 C162 1.487 . S
C165 N182 1.343 1_455 S
H166 C138 0.931 . S
H167 C140 0.930 . S
H168 C142 0.930 . S
H169 C143 0.931 . S
H170 C145 0.931 . S
H171 C147 0.930 . S
H172 C149 0.930 . S
H173 C150 0.931 . S
H174 C152 0.931 . S
H175 C154 0.930 . S
H176 C156 0.930 . S
H177 C157 0.931 . S
H178 C159 0.931 . S
H179 C161 0.930 . S
H180 C163 0.930 . S
H181 C164 0.931 . S
N182 C144 1.343 . S
N182 C165 1.343 1_655 S
N183 C151 1.343 1_455 S
N183 C158 1.343 . S
C184 C185 1.384 . S
C184 C186 1.384 . S
C184 H212 0.931 . S
C185 C184 1.384 . S
C185 C188 1.382 . S
C186 C184 1.384 . S
C186 C187 1.381 . S
C186 H213 0.901 1_556 S
C187 C186 1.381 . S
C187 C189 1.381 . S
C187 C190 1.487 . S
C188 C185 1.382 . S
C188 C189 1.387 . S
C188 H214 0.930 . S
C189 C187 1.381 . S
C189 C188 1.387 . S
C189 H215 0.931 . S
C190 C187 1.487 . S
C190 C197 1.399 1_566 S
C190 N228 1.343 1_565 S
C191 C192 1.384 . S
C191 C193 1.384 . S
C191 H216 0.931 . S
C192 C191 1.384 . S
C192 C195 1.382 . S
C193 C191 1.384 . S
C193 C194 1.381 . S
C193 H217 0.930 . S
C194 C193 1.381 . S
C194 C196 1.381 . S
C194 C197 1.487 1_565 S
C195 C192 1.382 . S
C195 C196 1.387 . S
C195 H218 0.930 . S
C196 C194 1.381 . S
C196 C195 1.387 . S
C196 H219 0.931 1_565 S
C197 C190 1.399 1_544 S
C197 C194 1.487 1_545 S
C197 N229 1.343 . S
C198 C199 1.384 . S
C198 C200 1.384 1_554 S
C198 H220 0.920 1_554 S
C199 C198 1.384 . S
C199 C202 1.382 . S
C200 C198 1.384 1_556 S
C200 C201 1.381 1_556 S
C200 H221 0.930 . S
C201 C200 1.381 1_554 S
C201 C203 1.381 . S
C201 C204 1.487 1_554 S
C202 C199 1.382 . S
C202 C203 1.387 . S
C202 H222 0.930 . S
C203 C201 1.381 . S
C203 C202 1.387 . S
C203 H223 0.931 . S
C204 C201 1.487 1_556 S
C204 C211 1.399 . S
C204 N229 1.343 1_556 S
C205 C206 1.384 . S
C205 C207 1.384 . S
C205 H224 0.931 . S
C206 C205 1.384 . S
C206 C209 1.382 . S
C207 C205 1.384 . S
C207 C208 1.381 . S
C207 H225 0.930 . S
C208 C207 1.381 . S
C208 C210 1.381 . S
C208 C211 1.487 . S
C209 C206 1.382 . S
C209 C210 1.387 . S
C209 H226 0.930 . S
C210 C208 1.381 . S
C210 C209 1.387 . S
C210 H227 0.931 . S
C211 C204 1.399 . S
C211 C208 1.487 . S
C211 N228 1.343 . S
H212 C184 0.931 . S
H213 C186 0.901 1_554 S
H214 C188 0.930 . S
H215 C189 0.931 . S
H216 C191 0.931 . S
H217 C193 0.930 . S
H218 C195 0.930 . S
H219 C196 0.931 1_545 S
H220 C198 0.920 1_556 S
H221 C200 0.930 . S
H222 C202 0.930 . S
H223 C203 0.931 . S
H224 C205 0.931 . S
H225 C207 0.930 . S
H226 C209 0.930 . S
H227 C210 0.931 . S
N228 C190 1.343 1_545 S
N228 C211 1.343 . S
N229 C197 1.343 . S
N229 C204 1.343 1_554 S
C230 C231 1.384 . S
C230 C232 1.384 . S
C230 H258 0.931 . S
C231 C230 1.384 . S
C231 C234 1.382 . S
C232 C230 1.384 . S
C232 C233 1.381 . S
C232 H259 0.930 . S
C233 C232 1.381 . S
C233 C235 1.381 . S
C233 C236 1.487 . S
C234 C231 1.382 . S
C234 C235 1.387 . S
C234 H260 0.930 . S
C235 C233 1.381 . S
C235 C234 1.387 . S
C235 H261 0.931 . S
C236 C233 1.487 . S
C236 C243 1.399 . S
C236 N274 1.343 . S
C237 C238 1.384 . S
C237 C239 1.384 . S
C237 H262 0.931 . S
C238 C237 1.384 . S
C238 C241 1.382 . S
C239 C237 1.384 . S
C239 C240 1.381 . S
C239 H263 0.930 . S
C240 C239 1.381 . S
C240 C242 1.381 . S
C240 C243 1.487 . S
C241 C238 1.382 . S
C241 C242 1.387 . S
C241 H264 0.930 . S
C242 C240 1.381 . S
C242 C241 1.387 . S
C242 H265 0.931 . S
C243 C236 1.399 . S
C243 C240 1.487 . S
C243 N275 1.343 . S
C244 C245 1.384 . S
C244 C246 1.384 . S
C244 H266 0.931 . S
C245 C244 1.384 . S
C245 C248 1.382 . S
C246 C244 1.384 . S
C246 C247 1.381 . S
C246 H267 0.930 . S
C247 C246 1.381 . S
C247 C249 1.381 . S
C247 C250 1.487 . S
C248 C245 1.382 . S
C248 C249 1.387 . S
C248 H268 0.930 . S
C249 C247 1.381 . S
C249 C248 1.387 . S
C249 H269 0.931 . S
C250 C247 1.487 . S
C250 C257 1.399 . S
C250 N275 1.343 . S
C251 C252 1.384 . S
C251 C253 1.384 . S
C251 H270 0.931 . S
C252 C251 1.384 . S
C252 C255 1.382 . S
C253 C251 1.384 . S
C253 C254 1.381 . S
C253 H271 0.930 . S
C254 C253 1.381 . S
C254 C256 1.381 . S
C254 C257 1.487 . S
C255 C252 1.382 . S
C255 C256 1.387 . S
C255 H272 0.930 . S
C256 C254 1.381 . S
C256 C255 1.387 . S
C256 H273 0.931 . S
C257 C250 1.399 . S
C257 C254 1.487 . S
C257 N274 1.343 . S
H258 C230 0.931 . S
H259 C232 0.930 . S
H260 C234 0.930 . S
H261 C235 0.931 . S
H262 C237 0.931 . S
H263 C239 0.930 . S
H264 C241 0.930 . S
H265 C242 0.931 . S
H266 C244 0.931 . S
H267 C246 0.930 . S
H268 C248 0.930 . S
H269 C249 0.931 . S
H270 C251 0.931 . S
H271 C253 0.930 . S
H272 C255 0.930 . S
H273 C256 0.931 . S
N274 C236 1.343 . S
N274 C257 1.343 . S
N275 C243 1.343 . S
N275 C250 1.343 . S
Mn276 O281 2.095 . S
Mn276 O291 2.162 . S
Mn276 O292 2.297 . S
Mn276 O300 2.385 . S
Mn276 O301 2.209 . S
Mn276 O302 2.094 . S
Mn277 O282 2.121 . S
Mn277 N284 2.257 . S
Mn277 N293 2.282 . S
Mn277 O301 2.215 . S
Mn277 O303 2.117 . S
C278 O300 1.234 . S
C278 O301 1.283 . S
C279 O291 1.281 . S
C279 O292 1.236 . S
C280 O302 1.240 . S
C280 O303 1.264 . S
O281 Mn276 2.095 . S
O281 C290 1.250 . S
O282 Mn277 2.121 . S
O282 C290 1.258 . S
C283 N284 1.326 . S
C283 C287 1.460 . S
C283 H289 0.929 . S
N284 Mn277 2.257 . S
N284 C283 1.326 . S
N284 C288 1.362 . S
C285 C286 1.258 . S
C285 C288 1.431 . S
C285 C305 1.449 . S
C286 C285 1.258 . S
C286 C287 1.477 . S
C286 H306 0.931 . S
C287 C283 1.460 . S
C287 C286 1.477 . S
C287 H307 0.930 . S
C288 N284 1.362 . S
C288 C285 1.431 . S
C288 C298 1.476 . S
H289 C283 0.929 . S
C290 O281 1.250 . S
C290 O282 1.258 . S
O291 Mn276 2.162 . S
O291 C279 1.281 . S
O292 Mn276 2.297 . S
O292 C279 1.236 . S
N293 Mn277 2.282 . S
N293 C294 1.328 . S
N293 C298 1.318 . S
C294 N293 1.328 . S
C294 C295 1.457 . S
C294 H299 0.929 . S
C295 C294 1.457 . S
C295 C296 1.291 . S
C295 H308 0.931 . S
C296 C295 1.291 . S
C296 C297 1.373 . S
C296 H309 0.929 . S
C297 C296 1.373 . S
C297 C298 1.396 . S
C297 C304 1.403 . S
C298 C288 1.476 . S
C298 N293 1.318 . S
C298 C297 1.396 . S
H299 C294 0.929 . S
O300 Mn276 2.385 . S
O300 C278 1.234 . S
O301 Mn276 2.209 . S
O301 Mn277 2.215 . S
O301 C278 1.283 . S
O302 Mn276 2.094 . S
O302 C280 1.240 . S
O303 Mn277 2.117 . S
O303 C280 1.264 . S
C304 C297 1.403 . S
C304 C305 1.399 . S
C304 H310 0.929 . S
C305 C285 1.449 . S
C305 C304 1.399 . S
C305 H311 0.930 . S
H306 C286 0.931 . S
H307 C287 0.930 . S
H308 C295 0.931 . S
H309 C296 0.929 . S
H310 C304 0.929 . S
H311 C305 0.930 . S
Mn312 O317 2.095 . S
Mn312 O327 2.162 . S
Mn312 O328 2.297 . S
Mn312 O336 2.385 . S
Mn312 O337 2.209 . S
Mn312 O338 2.094 . S
Mn313 O318 2.121 . S
Mn313 N320 2.257 . S
Mn313 N329 2.282 . S
Mn313 O337 2.215 . S
Mn313 O339 2.117 . S
C314 O336 1.234 . S
C314 O337 1.283 . S
C315 O327 1.281 . S
C315 O328 1.236 . S
C316 O338 1.240 . S
C316 O339 1.264 . S
O317 Mn312 2.095 . S
O317 C326 1.250 . S
O318 Mn313 2.121 . S
O318 C326 1.258 . S
C319 N320 1.326 . S
C319 C323 1.460 . S
C319 H325 0.929 . S
N320 Mn313 2.257 . S
N320 C319 1.326 . S
N320 C324 1.362 . S
C321 C322 1.258 . S
C321 C324 1.431 . S
C321 C341 1.449 . S
C322 C321 1.258 . S
C322 C323 1.477 . S
C322 H342 0.931 . S
C323 C319 1.460 . S
C323 C322 1.477 . S
C323 H343 0.930 . S
C324 N320 1.362 . S
C324 C321 1.431 . S
C324 C334 1.476 . S
H325 C319 0.929 . S
C326 O317 1.250 . S
C326 O318 1.258 . S
O327 Mn312 2.162 . S
O327 C315 1.281 . S
O328 Mn312 2.297 . S
O328 C315 1.236 . S
N329 Mn313 2.282 . S
N329 C330 1.328 . S
N329 C334 1.318 . S
C330 N329 1.328 . S
C330 C331 1.457 . S
C330 H335 0.929 . S
C331 C330 1.457 . S
C331 C332 1.291 . S
C331 H344 0.931 . S
C332 C331 1.291 . S
C332 C333 1.373 . S
C332 H345 0.929 . S
C333 C332 1.373 . S
C333 C334 1.396 . S
C333 C340 1.403 . S
C334 C324 1.476 . S
C334 N329 1.318 . S
C334 C333 1.396 . S
H335 C330 0.929 . S
O336 Mn312 2.385 . S
O336 C314 1.234 . S
O337 Mn312 2.209 . S
O337 Mn313 2.215 . S
O337 C314 1.283 . S
O338 Mn312 2.094 . S
O338 C316 1.240 . S
O339 Mn313 2.117 . S
O339 C316 1.264 . S
C340 C333 1.403 . S
C340 C341 1.399 . S
C340 H346 0.929 . S
C341 C321 1.449 . S
C341 C340 1.399 . S
C341 H347 0.930 . S
H342 C322 0.931 . S
H343 C323 0.930 . S
H344 C331 0.931 . S
H345 C332 0.929 . S
H346 C340 0.929 . S
H347 C341 0.930 . S
Mn348 O353 2.095 . S
Mn348 O363 2.162 . S
Mn348 O364 2.297 . S
Mn348 O372 2.385 . S
Mn348 O373 2.209 . S
Mn348 O374 2.094 . S
Mn349 O354 2.121 . S
Mn349 N356 2.257 . S
Mn349 N365 2.282 . S
Mn349 O373 2.215 . S
Mn349 O375 2.117 . S
C350 O372 1.234 . S
C350 O373 1.283 . S
C351 O363 1.281 . S
C351 O364 1.236 . S
C352 O374 1.240 . S
C352 O375 1.264 . S
O353 Mn348 2.095 . S
O353 C362 1.250 . S
O354 Mn349 2.121 . S
O354 C362 1.258 . S
C355 N356 1.326 . S
C355 C359 1.460 . S
C355 H361 0.929 . S
N356 Mn349 2.257 . S
N356 C355 1.326 . S
N356 C360 1.362 . S
C357 C358 1.258 . S
C357 C360 1.431 . S
C357 C377 1.449 . S
C358 C357 1.258 . S
C358 C359 1.477 . S
C358 H378 0.931 . S
C359 C355 1.460 . S
C359 C358 1.477 . S
C359 H379 0.930 . S
C360 N356 1.362 . S
C360 C357 1.431 . S
C360 C370 1.476 . S
H361 C355 0.929 . S
C362 O353 1.250 . S
C362 O354 1.258 . S
O363 Mn348 2.162 . S
O363 C351 1.281 . S
O364 Mn348 2.297 . S
O364 C351 1.236 . S
N365 Mn349 2.282 . S
N365 C366 1.328 . S
N365 C370 1.318 . S
C366 N365 1.328 . S
C366 C367 1.457 . S
C366 H371 0.929 . S
C367 C366 1.457 . S
C367 C368 1.291 . S
C367 H380 0.931 . S
C368 C367 1.291 . S
C368 C369 1.373 . S
C368 H381 0.929 . S
C369 C368 1.373 . S
C369 C370 1.396 . S
C369 C376 1.403 . S
C370 C360 1.476 . S
C370 N365 1.318 . S
C370 C369 1.396 . S
H371 C366 0.929 . S
O372 Mn348 2.385 . S
O372 C350 1.234 . S
O373 Mn348 2.209 . S
O373 Mn349 2.215 . S
O373 C350 1.283 . S
O374 Mn348 2.094 . S
O374 C352 1.240 . S
O375 Mn349 2.117 . S
O375 C352 1.264 . S
C376 C369 1.403 . S
C376 C377 1.399 . S
C376 H382 0.929 . S
C377 C357 1.449 . S
C377 C376 1.399 . S
C377 H383 0.930 . S
H378 C358 0.931 . S
H379 C359 0.930 . S
H380 C367 0.931 . S
H381 C368 0.929 . S
H382 C376 0.929 . S
H383 C377 0.930 . S
Mn384 O389 2.095 . S
Mn384 O399 2.162 . S
Mn384 O400 2.297 . S
Mn384 O408 2.385 . S
Mn384 O409 2.209 . S
Mn384 O410 2.094 . S
Mn385 O390 2.121 . S
Mn385 N392 2.257 . S
Mn385 N401 2.282 . S
Mn385 O409 2.215 . S
Mn385 O411 2.117 . S
C386 O408 1.234 . S
C386 O409 1.283 . S
C387 O399 1.281 . S
C387 O400 1.236 . S
C388 O410 1.240 . S
C388 O411 1.264 . S
O389 Mn384 2.095 . S
O389 C398 1.250 . S
O390 Mn385 2.121 . S
O390 C398 1.258 . S
C391 N392 1.326 . S
C391 C395 1.460 . S
C391 H397 0.929 . S
N392 Mn385 2.257 . S
N392 C391 1.326 . S
N392 C396 1.362 . S
C393 C394 1.258 . S
C393 C396 1.431 . S
C393 C413 1.449 . S
C394 C393 1.258 . S
C394 C395 1.477 . S
C394 H414 0.931 . S
C395 C391 1.460 . S
C395 C394 1.477 . S
C395 H415 0.930 . S
C396 N392 1.362 . S
C396 C393 1.431 . S
C396 C406 1.476 . S
H397 C391 0.929 . S
C398 O389 1.250 . S
C398 O390 1.258 . S
O399 Mn384 2.162 . S
O399 C387 1.281 . S
O400 Mn384 2.297 . S
O400 C387 1.236 . S
N401 Mn385 2.282 . S
N401 C402 1.328 . S
N401 C406 1.318 . S
C402 N401 1.328 . S
C402 C403 1.457 . S
C402 H407 0.929 . S
C403 C402 1.457 . S
C403 C404 1.291 . S
C403 H416 0.931 . S
C404 C403 1.291 . S
C404 C405 1.373 . S
C404 H417 0.929 . S
C405 C404 1.373 . S
C405 C406 1.396 . S
C405 C412 1.403 . S
C406 C396 1.476 . S
C406 N401 1.318 . S
C406 C405 1.396 . S
H407 C402 0.929 . S
O408 Mn384 2.385 . S
O408 C386 1.234 . S
O409 Mn384 2.209 . S
O409 Mn385 2.215 . S
O409 C386 1.283 . S
O410 Mn384 2.094 . S
O410 C388 1.240 . S
O411 Mn385 2.117 . S
O411 C388 1.264 . S
C412 C405 1.403 . S
C412 C413 1.399 . S
C412 H418 0.929 . S
C413 C393 1.449 . S
C413 C412 1.399 . S
C413 H419 0.930 . S
H414 C394 0.931 . S
H415 C395 0.930 . S
H416 C403 0.931 . S
H417 C404 0.929 . S
H418 C412 0.929 . S
H419 C413 0.930 . S
Mn420 O425 2.095 . S
Mn420 O435 2.162 . S
Mn420 O436 2.297 . S
Mn420 O444 2.385 . S
Mn420 O445 2.209 . S
Mn420 O446 2.094 . S
Mn421 O426 2.121 . S
Mn421 N428 2.257 . S
Mn421 N437 2.282 . S
Mn421 O445 2.215 . S
Mn421 O447 2.117 . S
C422 O444 1.234 . S
C422 O445 1.283 . S
C423 O435 1.281 . S
C423 O436 1.236 . S
C424 O446 1.240 . S
C424 O447 1.264 . S
O425 Mn420 2.095 . S
O425 C434 1.250 . S
O426 Mn421 2.121 . S
O426 C434 1.258 . S
C427 N428 1.326 . S
C427 C431 1.460 . S
C427 H433 0.929 . S
N428 Mn421 2.257 . S
N428 C427 1.326 . S
N428 C432 1.362 . S
C429 C430 1.258 . S
C429 C432 1.431 . S
C429 C449 1.449 . S
C430 C429 1.258 . S
C430 C431 1.477 . S
C430 H450 0.931 . S
C431 C427 1.460 . S
C431 C430 1.477 . S
C431 H451 0.930 . S
C432 N428 1.362 . S
C432 C429 1.431 . S
C432 C442 1.476 . S
H433 C427 0.929 . S
C434 O425 1.250 . S
C434 O426 1.258 . S
O435 Mn420 2.162 . S
O435 C423 1.281 . S
O436 Mn420 2.297 . S
O436 C423 1.236 . S
N437 Mn421 2.282 . S
N437 C438 1.328 . S
N437 C442 1.318 . S
C438 N437 1.328 . S
C438 C439 1.457 . S
C438 H443 0.929 . S
C439 C438 1.457 . S
C439 C440 1.291 . S
C439 H452 0.931 . S
C440 C439 1.291 . S
C440 C441 1.373 . S
C440 H453 0.929 . S
C441 C440 1.373 . S
C441 C442 1.396 . S
C441 C448 1.403 . S
C442 C432 1.476 . S
C442 N437 1.318 . S
C442 C441 1.396 . S
H443 C438 0.929 . S
O444 Mn420 2.385 . S
O444 C422 1.234 . S
O445 Mn420 2.209 . S
O445 Mn421 2.215 . S
O445 C422 1.283 . S
O446 Mn420 2.094 . S
O446 C424 1.240 . S
O447 Mn421 2.117 . S
O447 C424 1.264 . S
C448 C441 1.403 . S
C448 C449 1.399 . S
C448 H454 0.929 . S
C449 C429 1.449 . S
C449 C448 1.399 . S
C449 H455 0.930 . S
H450 C430 0.931 . S
H451 C431 0.930 . S
H452 C439 0.931 . S
H453 C440 0.929 . S
H454 C448 0.929 . S
H455 C449 0.930 . S
Mn456 O461 2.095 . S
Mn456 O471 2.162 . S
Mn456 O472 2.297 . S
Mn456 O480 2.385 . S
Mn456 O481 2.209 . S
Mn456 O482 2.094 . S
Mn457 O462 2.121 . S
Mn457 N464 2.257 . S
Mn457 N473 2.282 . S
Mn457 O481 2.215 . S
Mn457 O483 2.117 . S
C458 O480 1.234 . S
C458 O481 1.283 . S
C459 O471 1.281 . S
C459 O472 1.236 . S
C460 O482 1.240 . S
C460 O483 1.264 . S
O461 Mn456 2.095 . S
O461 C470 1.250 . S
O462 Mn457 2.121 . S
O462 C470 1.258 . S
C463 N464 1.326 . S
C463 C467 1.460 . S
C463 H469 0.929 . S
N464 Mn457 2.257 . S
N464 C463 1.326 . S
N464 C468 1.362 . S
C465 C466 1.258 . S
C465 C468 1.431 . S
C465 C485 1.449 . S
C466 C465 1.258 . S
C466 C467 1.477 . S
C466 H486 0.931 . S
C467 C463 1.460 . S
C467 C466 1.477 . S
C467 H487 0.930 . S
C468 N464 1.362 . S
C468 C465 1.431 . S
C468 C478 1.476 . S
H469 C463 0.929 . S
C470 O461 1.250 . S
C470 O462 1.258 . S
O471 Mn456 2.162 . S
O471 C459 1.281 . S
O472 Mn456 2.297 . S
O472 C459 1.236 . S
N473 Mn457 2.282 . S
N473 C474 1.328 . S
N473 C478 1.318 . S
C474 N473 1.328 . S
C474 C475 1.457 . S
C474 H479 0.929 . S
C475 C474 1.457 . S
C475 C476 1.291 . S
C475 H488 0.931 . S
C476 C475 1.291 . S
C476 C477 1.373 . S
C476 H489 0.929 . S
C477 C476 1.373 . S
C477 C478 1.396 . S
C477 C484 1.403 . S
C478 C468 1.476 . S
C478 N473 1.318 . S
C478 C477 1.396 . S
H479 C474 0.929 . S
O480 Mn456 2.385 . S
O480 C458 1.234 . S
O481 Mn456 2.209 . S
O481 Mn457 2.215 . S
O481 C458 1.283 . S
O482 Mn456 2.094 . S
O482 C460 1.240 . S
O483 Mn457 2.117 . S
O483 C460 1.264 . S
C484 C477 1.403 . S
C484 C485 1.399 . S
C484 H490 0.929 . S
C485 C465 1.449 . S
C485 C484 1.399 . S
C485 H491 0.930 . S
H486 C466 0.931 . S
H487 C467 0.930 . S
H488 C475 0.931 . S
H489 C476 0.929 . S
H490 C484 0.929 . S
H491 C485 0.930 . S
H492 C504 0.930 . S
H493 C506 0.930 . S
H494 C507 0.930 . S
H495 C511 0.959 . S
H496 C511 0.959 . S
H497 C511 0.961 . S
H498 C512 0.960 . S
H499 C512 0.961 . S
H500 C512 0.959 . S
H501 C515 0.929 . S
H502 C516 0.931 . S
H503 C518 0.930 . S
C504 H492 0.930 . S
C504 C505 1.399 . S
C504 C509 1.399 . S
C505 C504 1.399 . S
C505 C506 1.376 . S
C506 H493 0.930 . S
C506 C505 1.376 . S
C506 C507 1.388 . S
C507 H494 0.930 . S
C507 C506 1.388 . S
C507 C508 1.390 . S
C508 C507 1.390 . S
C508 C509 1.394 . S
C508 C514 1.465 . S
C509 C504 1.399 . S
C509 C508 1.394 . S
C509 C510 1.516 . S
C510 C509 1.516 . S
C510 C511 1.502 . S
C510 C512 1.561 . S
C510 C513 1.526 . S
C511 H495 0.959 . S
C511 H496 0.959 . S
C511 H497 0.961 . S
C511 C510 1.502 . S
C512 H498 0.960 . S
C512 H499 0.961 . S
C512 H500 0.959 . S
C512 C510 1.561 . S
C513 C510 1.526 . S
C513 C514 1.396 . S
C513 C518 1.390 . S
C514 C508 1.465 . S
C514 C513 1.396 . S
C514 C515 1.399 . S
C515 H501 0.929 . S
C515 C514 1.399 . S
C515 C516 1.385 . S
C516 H502 0.931 . S
C516 C515 1.385 . S
C516 C517 1.389 . S
C517 C516 1.389 . S
C517 C518 1.387 . S
C518 H503 0.930 . S
C518 C513 1.390 . S
C518 C517 1.387 . S
H519 C531 0.930 . S
H520 C533 0.930 . S
H521 C534 0.930 . S
H522 C538 0.959 . S
H523 C538 0.959 . S
H524 C538 0.961 . S
H525 C539 0.960 . S
H526 C539 0.961 . S
H527 C539 0.959 . S
H528 C542 0.929 . S
H529 C543 0.931 . S
H530 C545 0.930 . S
C531 H519 0.930 . S
C531 C532 1.399 . S
C531 C536 1.399 . S
C532 C531 1.399 . S
C532 C533 1.376 . S
C533 H520 0.930 . S
C533 C532 1.376 . S
C533 C534 1.388 . S
C534 H521 0.930 . S
C534 C533 1.388 . S
C534 C535 1.390 . S
C535 C534 1.390 . S
C535 C536 1.394 . S
C535 C541 1.465 . S
C536 C531 1.399 . S
C536 C535 1.394 . S
C536 C537 1.516 . S
C537 C536 1.516 . S
C537 C538 1.502 . S
C537 C539 1.561 . S
C537 C540 1.526 . S
C538 H522 0.959 . S
C538 H523 0.959 . S
C538 H524 0.961 . S
C538 C537 1.502 . S
C539 H525 0.960 . S
C539 H526 0.961 . S
C539 H527 0.959 . S
C539 C537 1.561 . S
C540 C537 1.526 . S
C540 C541 1.396 . S
C540 C545 1.390 . S
C541 C535 1.465 . S
C541 C540 1.396 . S
C541 C542 1.399 . S
C542 H528 0.929 . S
C542 C541 1.399 . S
C542 C543 1.385 . S
C543 H529 0.931 . S
C543 C542 1.385 . S
C543 C544 1.389 . S
C544 C543 1.389 . S
C544 C545 1.387 . S
C545 H530 0.930 . S
C545 C540 1.390 . S
C545 C544 1.387 . S
H546 C558 0.930 . S
H547 C560 0.930 . S
H548 C561 0.930 . S
H549 C565 0.959 . S
H550 C565 0.959 . S
H551 C565 0.961 . S
H552 C566 0.960 . S
H553 C566 0.961 . S
H554 C566 0.959 . S
H555 C569 0.929 . S
H556 C570 0.931 . S
H557 C572 0.930 . S
C558 H546 0.930 . S
C558 C559 1.399 . S
C558 C563 1.399 . S
C559 C558 1.399 . S
C559 C560 1.376 . S
C560 H547 0.930 . S
C560 C559 1.376 . S
C560 C561 1.388 . S
C561 H548 0.930 . S
C561 C560 1.388 . S
C561 C562 1.390 . S
C562 C561 1.390 . S
C562 C563 1.394 . S
C562 C568 1.465 . S
C563 C558 1.399 . S
C563 C562 1.394 . S
C563 C564 1.516 . S
C564 C563 1.516 . S
C564 C565 1.502 . S
C564 C566 1.561 . S
C564 C567 1.526 . S
C565 H549 0.959 . S
C565 H550 0.959 . S
C565 H551 0.961 . S
C565 C564 1.502 . S
C566 H552 0.960 . S
C566 H553 0.961 . S
C566 H554 0.959 . S
C566 C564 1.561 . S
C567 C564 1.526 . S
C567 C568 1.396 . S
C567 C572 1.390 . S
C568 C562 1.465 . S
C568 C567 1.396 . S
C568 C569 1.399 . S
C569 H555 0.929 . S
C569 C568 1.399 . S
C569 C570 1.385 . S
C570 H556 0.931 . S
C570 C569 1.385 . S
C570 C571 1.389 . S
C571 C570 1.389 . S
C571 C572 1.387 . S
C572 H557 0.930 . S
C572 C567 1.390 . S
C572 C571 1.387 . S
H573 C585 0.930 . S
H574 C587 0.930 . S
H575 C588 0.930 . S
H576 C592 0.959 . S
H577 C592 0.959 . S
H578 C592 0.961 . S
H579 C593 0.960 . S
H580 C593 0.961 . S
H581 C593 0.959 . S
H582 C596 0.929 . S
H583 C597 0.931 . S
H584 C599 0.930 . S
C585 H573 0.930 . S
C585 C586 1.399 . S
C585 C590 1.399 . S
C586 C585 1.399 . S
C586 C587 1.376 . S
C587 H574 0.930 . S
C587 C586 1.376 . S
C587 C588 1.388 . S
C588 H575 0.930 . S
C588 C587 1.388 . S
C588 C589 1.390 . S
C589 C588 1.390 . S
C589 C590 1.394 . S
C589 C595 1.465 . S
C590 C585 1.399 . S
C590 C589 1.394 . S
C590 C591 1.516 . S
C591 C590 1.516 . S
C591 C592 1.502 . S
C591 C593 1.561 . S
C591 C594 1.526 . S
C592 H576 0.959 . S
C592 H577 0.959 . S
C592 H578 0.961 . S
C592 C591 1.502 . S
C593 H579 0.960 . S
C593 H580 0.961 . S
C593 H581 0.959 . S
C593 C591 1.561 . S
C594 C591 1.526 . S
C594 C595 1.396 . S
C594 C599 1.390 . S
C595 C589 1.465 . S
C595 C594 1.396 . S
C595 C596 1.399 . S
C596 H582 0.929 . S
C596 C595 1.399 . S
C596 C597 1.385 . S
C597 H583 0.931 . S
C597 C596 1.385 . S
C597 C598 1.389 . S
C598 C597 1.389 . S
C598 C599 1.387 . S
C599 H584 0.930 . S
C599 C594 1.390 . S
C599 C598 1.387 . S
H600 C612 0.930 . S
H601 C614 0.930 . S
H602 C615 0.930 . S
H603 C619 0.959 . S
H604 C619 0.959 . S
H605 C619 0.961 . S
H606 C620 0.960 . S
H607 C620 0.961 . S
H608 C620 0.959 . S
H609 C623 0.929 . S
H610 C624 0.931 . S
H611 C626 0.930 . S
C612 H600 0.930 . S
C612 C613 1.399 . S
C612 C617 1.399 . S
C613 C612 1.399 . S
C613 C614 1.376 . S
C614 H601 0.930 . S
C614 C613 1.376 . S
C614 C615 1.388 . S
C615 H602 0.930 . S
C615 C614 1.388 . S
C615 C616 1.390 . S
C616 C615 1.390 . S
C616 C617 1.394 . S
C616 C622 1.465 . S
C617 C612 1.399 . S
C617 C616 1.394 . S
C617 C618 1.516 . S
C618 C617 1.516 . S
C618 C619 1.502 . S
C618 C620 1.561 . S
C618 C621 1.526 . S
C619 H603 0.959 . S
C619 H604 0.959 . S
C619 H605 0.961 . S
C619 C618 1.502 . S
C620 H606 0.960 . S
C620 H607 0.961 . S
C620 H608 0.959 . S
C620 C618 1.561 . S
C621 C618 1.526 . S
C621 C622 1.396 . S
C621 C626 1.390 . S
C622 C616 1.465 . S
C622 C621 1.396 . S
C622 C623 1.399 . S
C623 H609 0.929 . S
C623 C622 1.399 . S
C623 C624 1.385 . S
C624 H610 0.931 . S
C624 C623 1.385 . S
C624 C625 1.389 . S
C625 C624 1.389 . S
C625 C626 1.387 . S
C626 H611 0.930 . S
C626 C621 1.390 . S
C626 C625 1.387 . S
H627 C639 0.930 . S
H628 C641 0.930 . S
H629 C642 0.930 . S
H630 C646 0.959 . S
H631 C646 0.959 . S
H632 C646 0.961 . S
H633 C647 0.960 . S
H634 C647 0.961 . S
H635 C647 0.959 . S
H636 C650 0.929 . S
H637 C651 0.931 . S
H638 C653 0.930 . S
C639 H627 0.930 . S
C639 C640 1.399 . S
C639 C644 1.399 . S
C640 C639 1.399 . S
C640 C641 1.376 . S
C641 H628 0.930 . S
C641 C640 1.376 . S
C641 C642 1.388 . S
C642 H629 0.930 . S
C642 C641 1.388 . S
C642 C643 1.390 . S
C643 C642 1.390 . S
C643 C644 1.394 . S
C643 C649 1.465 . S
C644 C639 1.399 . S
C644 C643 1.394 . S
C644 C645 1.516 . S
C645 C644 1.516 . S
C645 C646 1.502 . S
C645 C647 1.561 . S
C645 C648 1.526 . S
C646 H630 0.959 . S
C646 H631 0.959 . S
C646 H632 0.961 . S
C646 C645 1.502 . S
C647 H633 0.960 . S
C647 H634 0.961 . S
C647 H635 0.959 . S
C647 C645 1.561 . S
C648 C645 1.526 . S
C648 C649 1.396 . S
C648 C653 1.390 . S
C649 C643 1.465 . S
C649 C648 1.396 . S
C649 C650 1.399 . S
C650 H636 0.929 . S
C650 C649 1.399 . S
C650 C651 1.385 . S
C651 H637 0.931 . S
C651 C650 1.385 . S
C651 C652 1.389 . S
C652 C651 1.389 . S
C652 C653 1.387 . S
C653 H638 0.930 . S
C653 C648 1.390 . S
C653 C652 1.387 . S
H654 C666 0.930 . S
H655 C668 0.930 . S
H656 C669 0.930 . S
H657 C673 0.959 . S
H658 C673 0.959 . S
H659 C673 0.961 . S
H660 C674 0.960 . S
H661 C674 0.961 . S
H662 C674 0.959 . S
H663 C677 0.929 . S
H664 C678 0.931 . S
H665 C680 0.930 . S
C666 H654 0.930 . S
C666 C667 1.399 . S
C666 C671 1.399 . S
C667 C666 1.399 . S
C667 C668 1.376 . S
C668 H655 0.930 . S
C668 C667 1.376 . S
C668 C669 1.388 . S
C669 H656 0.930 . S
C669 C668 1.388 . S
C669 C670 1.390 . S
C670 C669 1.390 . S
C670 C671 1.394 . S
C670 C676 1.465 . S
C671 C666 1.399 . S
C671 C670 1.394 . S
C671 C672 1.516 . S
C672 C671 1.516 . S
C672 C673 1.502 . S
C672 C674 1.561 . S
C672 C675 1.526 . S
C673 H657 0.959 . S
C673 H658 0.959 . S
C673 H659 0.961 . S
C673 C672 1.502 . S
C674 H660 0.960 . S
C674 H661 0.961 . S
C674 H662 0.959 . S
C674 C672 1.561 . S
C675 C672 1.526 . S
C675 C676 1.396 . S
C675 C680 1.390 . S
C676 C670 1.465 . S
C676 C675 1.396 . S
C676 C677 1.399 . S
C677 H663 0.929 . S
C677 C676 1.399 . S
C677 C678 1.385 . S
C678 H664 0.931 . S
C678 C677 1.385 . S
C678 C679 1.389 . S
C679 C678 1.389 . S
C679 C680 1.387 . S
C680 H665 0.930 . S
C680 C675 1.390 . S
C680 C679 1.387 . S
H681 C693 0.930 . S
H682 C695 0.930 . S
H683 C696 0.930 . S
H684 C700 0.959 . S
H685 C700 0.959 . S
H686 C700 0.961 . S
H687 C701 0.960 . S
H688 C701 0.961 . S
H689 C701 0.959 . S
H690 C704 0.929 . S
H691 C705 0.931 . S
H692 C707 0.930 . S
C693 H681 0.930 . S
C693 C694 1.399 . S
C693 C698 1.399 . S
C694 C693 1.399 . S
C694 C695 1.376 . S
C695 H682 0.930 . S
C695 C694 1.376 . S
C695 C696 1.388 . S
C696 H683 0.930 . S
C696 C695 1.388 . S
C696 C697 1.390 . S
C697 C696 1.390 . S
C697 C698 1.394 . S
C697 C703 1.465 . S
C698 C693 1.399 . S
C698 C697 1.394 . S
C698 C699 1.516 . S
C699 C698 1.516 . S
C699 C700 1.502 . S
C699 C701 1.561 . S
C699 C702 1.526 . S
C700 H684 0.959 . S
C700 H685 0.959 . S
C700 H686 0.961 . S
C700 C699 1.502 . S
C701 H687 0.960 . S
C701 H688 0.961 . S
C701 H689 0.959 . S
C701 C699 1.561 . S
C702 C699 1.526 . S
C702 C703 1.396 . S
C702 C707 1.390 . S
C703 C697 1.465 . S
C703 C702 1.396 . S
C703 C704 1.399 . S
C704 H690 0.929 . S
C704 C703 1.399 . S
C704 C705 1.385 . S
C705 H691 0.931 . S
C705 C704 1.385 . S
C705 C706 1.389 . S
C706 C705 1.389 . S
C706 C707 1.387 . S
C707 H692 0.930 . S
C707 C702 1.390 . S
C707 C706 1.387 . S
H708 C720 0.930 . S
H709 C722 0.930 . S
H710 C723 0.930 . S
H711 C727 0.959 . S
H712 C727 0.959 . S
H713 C727 0.961 . S
H714 C728 0.960 . S
H715 C728 0.961 . S
H716 C728 0.959 . S
H717 C731 0.929 . S
H718 C732 0.931 . S
H719 C734 0.930 . S
C720 H708 0.930 . S
C720 C721 1.399 . S
C720 C725 1.399 . S
C721 C720 1.399 . S
C721 C722 1.376 . S
C722 H709 0.930 . S
C722 C721 1.376 . S
C722 C723 1.388 . S
C723 H710 0.930 . S
C723 C722 1.388 . S
C723 C724 1.390 . S
C724 C723 1.390 . S
C724 C725 1.394 . S
C724 C730 1.465 . S
C725 C720 1.399 . S
C725 C724 1.394 . S
C725 C726 1.516 . S
C726 C725 1.516 . S
C726 C727 1.502 . S
C726 C728 1.561 . S
C726 C729 1.526 . S
C727 H711 0.959 . S
C727 H712 0.959 . S
C727 H713 0.961 . S
C727 C726 1.502 . S
C728 H714 0.960 . S
C728 H715 0.961 . S
C728 H716 0.959 . S
C728 C726 1.561 . S
C729 C726 1.526 . S
C729 C730 1.396 . S
C729 C734 1.390 . S
C730 C724 1.465 . S
C730 C729 1.396 . S
C730 C731 1.399 . S
C731 H717 0.929 . S
C731 C730 1.399 . S
C731 C732 1.385 . S
C732 H718 0.931 . S
C732 C731 1.385 . S
C732 C733 1.389 . S
C733 C732 1.389 . S
C733 C734 1.387 . S
C734 H719 0.930 . S
C734 C729 1.390 . S
C734 C733 1.387 . S
H735 C747 0.930 . S
H736 C749 0.930 1_556 S
H737 C750 0.930 1_556 S
H738 C754 0.959 . S
H739 C754 0.959 . S
H740 C754 0.961 . S
H741 C755 0.960 . S
H742 C755 0.961 . S
H743 C755 0.959 . S
H744 C758 0.929 . S
H745 C759 0.931 . S
H746 C761 0.930 . S
C747 H735 0.930 . S
C747 C748 1.399 . S
C747 C752 1.399 . S
C748 C747 1.399 . S
C748 C749 1.376 . S
C749 H736 0.930 1_554 S
C749 C748 1.376 . S
C749 C750 1.388 . S
C750 H737 0.930 1_554 S
C750 C749 1.388 . S
C750 C751 1.390 . S
C751 C750 1.390 . S
C751 C752 1.394 . S
C751 C757 1.465 . S
C752 C747 1.399 . S
C752 C751 1.394 . S
C752 C753 1.516 . S
C753 C752 1.516 . S
C753 C754 1.502 . S
C753 C755 1.561 . S
C753 C756 1.526 . S
C754 H738 0.959 . S
C754 H739 0.959 . S
C754 H740 0.961 . S
C754 C753 1.502 . S
C755 H741 0.960 . S
C755 H742 0.961 . S
C755 H743 0.959 . S
C755 C753 1.561 . S
C756 C753 1.526 . S
C756 C757 1.396 . S
C756 C761 1.390 . S
C757 C751 1.465 . S
C757 C756 1.396 . S
C757 C758 1.399 . S
C758 H744 0.929 . S
C758 C757 1.399 . S
C758 C759 1.385 . S
C759 H745 0.931 . S
C759 C758 1.385 . S
C759 C760 1.389 . S
C760 C759 1.389 . S
C760 C761 1.387 . S
C761 H746 0.930 . S
C761 C756 1.390 . S
C761 C760 1.387 . S
H762 C774 0.930 . S
H763 C776 0.930 . S
H764 C777 0.930 . S
H765 C781 0.959 . S
H766 C781 0.959 . S
H767 C781 0.961 . S
H768 C782 0.960 . S
H769 C782 0.961 . S
H770 C782 0.959 . S
H771 C785 0.929 . S
H772 C786 0.931 . S
H773 C788 0.930 . S
C774 H762 0.930 . S
C774 C775 1.399 . S
C774 C779 1.399 . S
C775 C774 1.399 . S
C775 C776 1.376 . S
C776 H763 0.930 . S
C776 C775 1.376 . S
C776 C777 1.388 . S
C777 H764 0.930 . S
C777 C776 1.388 . S
C777 C778 1.390 . S
C778 C777 1.390 . S
C778 C779 1.394 . S
C778 C784 1.465 . S
C779 C774 1.399 . S
C779 C778 1.394 . S
C779 C780 1.516 . S
C780 C779 1.516 . S
C780 C781 1.502 . S
C780 C782 1.561 . S
C780 C783 1.526 . S
C781 H765 0.959 . S
C781 H766 0.959 . S
C781 H767 0.961 . S
C781 C780 1.502 . S
C782 H768 0.960 . S
C782 H769 0.961 . S
C782 H770 0.959 . S
C782 C780 1.561 . S
C783 C780 1.526 . S
C783 C784 1.396 . S
C783 C788 1.390 . S
C784 C778 1.465 . S
C784 C783 1.396 . S
C784 C785 1.399 . S
C785 H771 0.929 . S
C785 C784 1.399 . S
C785 C786 1.385 . S
C786 H772 0.931 . S
C786 C785 1.385 . S
C786 C787 1.389 . S
C787 C786 1.389 . S
C787 C788 1.387 . S
C788 H773 0.930 . S
C788 C783 1.390 . S
C788 C787 1.387 . S
H789 C801 0.930 . S
H790 C803 0.930 . S
H791 C804 0.930 . S
H792 C808 0.959 . S
H793 C808 0.959 . S
H794 C808 0.961 . S
H795 C809 0.960 . S
H796 C809 0.961 . S
H797 C809 0.959 . S
H798 C812 0.929 . S
H799 C813 0.931 . S
H800 C815 0.930 . S
C801 H789 0.930 . S
C801 C802 1.399 . S
C801 C806 1.399 . S
C802 C801 1.399 . S
C802 C803 1.376 . S
C803 H790 0.930 . S
C803 C802 1.376 . S
C803 C804 1.388 . S
C804 H791 0.930 . S
C804 C803 1.388 . S
C804 C805 1.390 . S
C805 C804 1.390 . S
C805 C806 1.394 . S
C805 C811 1.465 . S
C806 C801 1.399 . S
C806 C805 1.394 . S
C806 C807 1.516 . S
C807 C806 1.516 . S
C807 C808 1.502 . S
C807 C809 1.561 . S
C807 C810 1.526 . S
C808 H792 0.959 . S
C808 H793 0.959 . S
C808 H794 0.961 . S
C808 C807 1.502 . S
C809 H795 0.960 . S
C809 H796 0.961 . S
C809 H797 0.959 . S
C809 C807 1.561 . S
C810 C807 1.526 . S
C810 C811 1.396 . S
C810 C815 1.390 . S
C811 C805 1.465 . S
C811 C810 1.396 . S
C811 C812 1.399 . S
C812 H798 0.929 . S
C812 C811 1.399 . S
C812 C813 1.385 . S
C813 H799 0.931 . S
C813 C812 1.385 . S
C813 C814 1.389 . S
C814 C813 1.389 . S
C814 C815 1.387 . S
C815 H800 0.930 . S
C815 C810 1.390 . S
C815 C814 1.387 . S
H816 C828 0.930 . S
H817 C830 0.930 . S
H818 C831 0.930 . S
H819 C835 0.959 . S
H820 C835 0.959 . S
H821 C835 0.961 . S
H822 C836 0.960 . S
H823 C836 0.961 . S
H824 C836 0.959 . S
H825 C839 0.929 . S
H826 C840 0.931 . S
H827 C842 0.930 . S
C828 H816 0.930 . S
C828 C829 1.399 . S
C828 C833 1.399 . S
C829 C828 1.399 . S
C829 C830 1.376 . S
C830 H817 0.930 . S
C830 C829 1.376 . S
C830 C831 1.388 . S
C831 H818 0.930 . S
C831 C830 1.388 . S
C831 C832 1.390 . S
C832 C831 1.390 . S
C832 C833 1.394 . S
C832 C838 1.465 . S
C833 C828 1.399 . S
C833 C832 1.394 . S
C833 C834 1.516 . S
C834 C833 1.516 . S
C834 C835 1.502 . S
C834 C836 1.561 . S
C834 C837 1.526 . S
C835 H819 0.959 . S
C835 H820 0.959 . S
C835 H821 0.961 . S
C835 C834 1.502 . S
C836 H822 0.960 . S
C836 H823 0.961 . S
C836 H824 0.959 . S
C836 C834 1.561 . S
C837 C834 1.526 . S
C837 C838 1.396 . S
C837 C842 1.390 . S
C838 C832 1.465 . S
C838 C837 1.396 . S
C838 C839 1.399 . S
C839 H825 0.929 . S
C839 C838 1.399 . S
C839 C840 1.385 . S
C840 H826 0.931 . S
C840 C839 1.385 . S
C840 C841 1.389 . S
C841 C840 1.389 . S
C841 C842 1.387 . S
C842 H827 0.930 . S
C842 C837 1.390 . S
C842 C841 1.387 . S
H843 C855 0.930 . S
H844 C857 0.930 . S
H845 C858 0.930 . S
H846 C862 0.959 . S
H847 C862 0.959 . S
H848 C862 0.961 . S
H849 C863 0.960 . S
H850 C863 0.961 . S
H851 C863 0.959 . S
H852 C866 0.929 . S
H853 C867 0.931 . S
H854 C869 0.930 . S
C855 H843 0.930 . S
C855 C856 1.399 . S
C855 C860 1.399 . S
C856 C855 1.399 . S
C856 C857 1.376 . S
C857 H844 0.930 . S
C857 C856 1.376 . S
C857 C858 1.388 . S
C858 H845 0.930 . S
C858 C857 1.388 . S
C858 C859 1.390 . S
C859 C858 1.390 . S
C859 C860 1.394 . S
C859 C865 1.465 . S
C860 C855 1.399 . S
C860 C859 1.394 . S
C860 C861 1.516 . S
C861 C860 1.516 . S
C861 C862 1.502 . S
C861 C863 1.561 . S
C861 C864 1.526 . S
C862 H846 0.959 . S
C862 H847 0.959 . S
C862 H848 0.961 . S
C862 C861 1.502 . S
C863 H849 0.960 . S
C863 H850 0.961 . S
C863 H851 0.959 . S
C863 C861 1.561 . S
C864 C861 1.526 . S
C864 C865 1.396 . S
C864 C869 1.390 . S
C865 C859 1.465 . S
C865 C864 1.396 . S
C865 C866 1.399 . S
C866 H852 0.929 . S
C866 C865 1.399 . S
C866 C867 1.385 . S
C867 H853 0.931 . S
C867 C866 1.385 . S
C867 C868 1.389 . S
C868 C867 1.389 . S
C868 C869 1.387 . S
C869 H854 0.930 . S
C869 C864 1.390 . S
C869 C868 1.387 . S
H870 C882 0.930 . S
H871 C884 0.930 . S
H872 C885 0.930 . S
H873 C889 0.959 . S
H874 C889 0.959 . S
H875 C889 0.961 . S
H876 C890 0.960 . S
H877 C890 0.961 . S
H878 C890 0.959 . S
H879 C893 0.929 . S
H880 C894 0.931 . S
H881 C896 0.930 . S
C882 H870 0.930 . S
C882 C883 1.399 . S
C882 C887 1.399 . S
C883 C882 1.399 . S
C883 C884 1.376 . S
C884 H871 0.930 . S
C884 C883 1.376 . S
C884 C885 1.388 . S
C885 H872 0.930 . S
C885 C884 1.388 . S
C885 C886 1.390 . S
C886 C885 1.390 . S
C886 C887 1.394 . S
C886 C892 1.465 . S
C887 C882 1.399 . S
C887 C886 1.394 . S
C887 C888 1.516 . S
C888 C887 1.516 . S
C888 C889 1.502 . S
C888 C890 1.561 . S
C888 C891 1.526 . S
C889 H873 0.959 . S
C889 H874 0.959 . S
C889 H875 0.961 . S
C889 C888 1.502 . S
C890 H876 0.960 . S
C890 H877 0.961 . S
C890 H878 0.959 . S
C890 C888 1.561 . S
C891 C888 1.526 . S
C891 C892 1.396 . S
C891 C896 1.390 . S
C892 C886 1.465 . S
C892 C891 1.396 . S
C892 C893 1.399 . S
C893 H879 0.929 . S
C893 C892 1.399 . S
C893 C894 1.385 . S
C894 H880 0.931 . S
C894 C893 1.385 . S
C894 C895 1.389 . S
C895 C894 1.389 . S
C895 C896 1.387 . S
C896 H881 0.930 . S
C896 C891 1.390 . S
C896 C895 1.387 . S
H897 C909 0.930 . S
H898 C911 0.930 . S
H899 C912 0.930 . S
H900 C916 0.959 . S
H901 C916 0.959 . S
H902 C916 0.961 . S
H903 C917 0.960 . S
H904 C917 0.961 . S
H905 C917 0.959 . S
H906 C920 0.929 . S
H907 C921 0.931 . S
H908 C923 0.930 . S
C909 H897 0.930 . S
C909 C910 1.399 . S
C909 C914 1.399 . S
C910 C909 1.399 . S
C910 C911 1.376 . S
C911 H898 0.930 . S
C911 C910 1.376 . S
C911 C912 1.388 . S
C912 H899 0.930 . S
C912 C911 1.388 . S
C912 C913 1.390 . S
C913 C912 1.390 . S
C913 C914 1.394 . S
C913 C919 1.465 . S
C914 C909 1.399 . S
C914 C913 1.394 . S
C914 C915 1.516 . S
C915 C914 1.516 . S
C915 C916 1.502 . S
C915 C917 1.561 . S
C915 C918 1.526 . S
C916 H900 0.959 . S
C916 H901 0.959 . S
C916 H902 0.961 . S
C916 C915 1.502 . S
C917 H903 0.960 . S
C917 H904 0.961 . S
C917 H905 0.959 . S
C917 C915 1.561 . S
C918 C915 1.526 . S
C918 C919 1.396 . S
C918 C923 1.390 . S
C919 C913 1.465 . S
C919 C918 1.396 . S
C919 C920 1.399 1_556 S
C920 H906 0.929 . S
C920 C919 1.399 1_554 S
C920 C921 1.385 . S
C921 H907 0.931 . S
C921 C920 1.385 . S
C921 C922 1.389 . S
C922 C921 1.389 . S
C922 C923 1.387 1_554 S
C923 H908 0.930 . S
C923 C918 1.390 . S
C923 C922 1.387 1_556 S
H924 C936 0.930 . S
H925 C938 0.930 . S
H926 C939 0.930 . S
H927 C943 0.959 . S
H928 C943 0.959 . S
H929 C943 0.961 . S
H930 C944 0.960 . S
H931 C944 0.961 . S
H932 C944 0.959 . S
H933 C947 0.929 . S
H934 C948 0.931 . S
H935 C950 0.930 . S
C936 H924 0.930 . S
C936 C937 1.399 . S
C936 C941 1.399 . S
C937 C936 1.399 . S
C937 C938 1.376 . S
C938 H925 0.930 . S
C938 C937 1.376 . S
C938 C939 1.388 . S
C939 H926 0.930 . S
C939 C938 1.388 . S
C939 C940 1.390 . S
C940 C939 1.390 . S
C940 C941 1.394 . S
C940 C946 1.465 . S
C941 C936 1.399 . S
C941 C940 1.394 . S
C941 C942 1.516 . S
C942 C941 1.516 . S
C942 C943 1.502 . S
C942 C944 1.561 . S
C942 C945 1.526 . S
C943 H927 0.959 . S
C943 H928 0.959 . S
C943 H929 0.961 . S
C943 C942 1.502 . S
C944 H930 0.960 . S
C944 H931 0.961 . S
C944 H932 0.959 . S
C944 C942 1.561 . S
C945 C942 1.526 . S
C945 C946 1.396 . S
C945 C950 1.390 . S
C946 C940 1.465 . S
C946 C945 1.396 . S
C946 C947 1.399 . S
C947 H933 0.929 . S
C947 C946 1.399 . S
C947 C948 1.385 . S
C948 H934 0.931 . S
C948 C947 1.385 . S
C948 C949 1.389 . S
C949 C948 1.389 . S
C949 C950 1.387 . S
C950 H935 0.930 . S
C950 C945 1.390 . S
C950 C949 1.387 . S
H951 C963 0.930 . S
H952 C965 0.930 . S
H953 C966 0.930 . S
H954 C970 0.959 . S
H955 C970 0.959 . S
H956 C970 0.961 . S
H957 C971 0.960 . S
H958 C971 0.961 . S
H959 C971 0.959 . S
H960 C974 0.929 . S
H961 C975 0.931 . S
H962 C977 0.930 . S
C963 H951 0.930 . S
C963 C964 1.399 . S
C963 C968 1.399 . S
C964 C963 1.399 . S
C964 C965 1.376 . S
C965 H952 0.930 . S
C965 C964 1.376 . S
C965 C966 1.388 . S
C966 H953 0.930 . S
C966 C965 1.388 . S
C966 C967 1.390 . S
C967 C966 1.390 . S
C967 C968 1.394 . S
C967 C973 1.465 . S
C968 C963 1.399 . S
C968 C967 1.394 . S
C968 C969 1.516 . S
C969 C968 1.516 . S
C969 C970 1.502 . S
C969 C971 1.561 . S
C969 C972 1.526 . S
C970 H954 0.959 . S
C970 H955 0.959 . S
C970 H956 0.961 . S
C970 C969 1.502 . S
C971 H957 0.960 . S
C971 H958 0.961 . S
C971 H959 0.959 . S
C971 C969 1.561 . S
C972 C969 1.526 . S
C972 C973 1.396 . S
C972 C977 1.390 . S
C973 C967 1.465 . S
C973 C972 1.396 . S
C973 C974 1.399 . S
C974 H960 0.929 . S
C974 C973 1.399 . S
C974 C975 1.385 . S
C975 H961 0.931 . S
C975 C974 1.385 . S
C975 C976 1.389 . S
C976 C975 1.389 . S
C976 C977 1.387 . S
C977 H962 0.930 . S
C977 C972 1.390 . S
C977 C976 1.387 . S
H978 C990 0.930 . S
H979 C992 0.930 . S
H980 C993 0.930 . S
H981 C997 0.959 . S
H982 C997 0.959 . S
H983 C997 0.961 . S
H984 C998 0.960 . S
H985 C998 0.961 . S
H986 C998 0.959 . S
H987 C1001 0.929 . S
H988 C1002 0.931 . S
H989 C1004 0.930 . S
C990 H978 0.930 . S
C990 C991 1.399 . S
C990 C995 1.399 . S
C991 C990 1.399 . S
C991 C992 1.376 . S
C992 H979 0.930 . S
C992 C991 1.376 . S
C992 C993 1.388 . S
C993 H980 0.930 . S
C993 C992 1.388 . S
C993 C994 1.390 . S
C994 C993 1.390 . S
C994 C995 1.394 . S
C994 C1000 1.465 . S
C995 C990 1.399 . S
C995 C994 1.394 . S
C995 C996 1.516 . S
C996 C995 1.516 . S
C996 C997 1.502 . S
C996 C998 1.561 . S
C996 C999 1.526 . S
C997 H981 0.959 . S
C997 H982 0.959 . S
C997 H983 0.961 . S
C997 C996 1.502 . S
C998 H984 0.960 . S
C998 H985 0.961 . S
C998 H986 0.959 . S
C998 C996 1.561 . S
C999 C996 1.526 . S
C999 C1000 1.396 . S
C999 C1004 1.390 . S
C1000 C994 1.465 . S
C1000 C999 1.396 . S
C1000 C1001 1.399 . S
C1001 H987 0.929 . S
C1001 C1000 1.399 . S
C1001 C1002 1.385 . S
C1002 H988 0.931 . S
C1002 C1001 1.385 . S
C1002 C1003 1.389 . S
C1003 C1002 1.389 . S
C1003 C1004 1.387 . S
C1004 H989 0.930 . S
C1004 C999 1.390 . S
C1004 C1003 1.387 . S
H1005 C1017 0.930 . S
H1006 C1019 0.930 . S
H1007 C1020 0.930 . S
H1008 C1024 0.959 . S
H1009 C1024 0.959 . S
H1010 C1024 0.961 . S
H1011 C1025 0.960 . S
H1012 C1025 0.961 . S
H1013 C1025 0.959 . S
H1014 C1028 0.929 . S
H1015 C1029 0.931 . S
H1016 C1031 0.930 . S
C1017 H1005 0.930 . S
C1017 C1018 1.399 . S
C1017 C1022 1.399 . S
C1018 C1017 1.399 . S
C1018 C1019 1.376 . S
C1019 H1006 0.930 . S
C1019 C1018 1.376 . S
C1019 C1020 1.388 . S
C1020 H1007 0.930 . S
C1020 C1019 1.388 . S
C1020 C1021 1.390 . S
C1021 C1020 1.390 . S
C1021 C1022 1.394 . S
C1021 C1027 1.465 . S
C1022 C1017 1.399 . S
C1022 C1021 1.394 . S
C1022 C1023 1.516 . S
C1023 C1022 1.516 . S
C1023 C1024 1.502 . S
C1023 C1025 1.561 . S
C1023 C1026 1.526 . S
C1024 H1008 0.959 . S
C1024 H1009 0.959 . S
C1024 H1010 0.961 . S
C1024 C1023 1.502 . S
C1025 H1011 0.960 . S
C1025 H1012 0.961 . S
C1025 H1013 0.959 . S
C1025 C1023 1.561 . S
C1026 C1023 1.526 . S
C1026 C1027 1.396 . S
C1026 C1031 1.390 . S
C1027 C1021 1.465 . S
C1027 C1026 1.396 . S
C1027 C1028 1.399 . S
C1028 H1014 0.929 . S
C1028 C1027 1.399 . S
C1028 C1029 1.385 . S
C1029 H1015 0.931 . S
C1029 C1028 1.385 . S
C1029 C1030 1.389 . S
C1030 C1029 1.389 . S
C1030 C1031 1.387 . S
C1031 H1016 0.930 . S
C1031 C1026 1.390 . S
C1031 C1030 1.387 . S
H1032 C1044 0.930 . S
H1033 C1046 0.930 . S
H1034 C1047 0.930 . S
H1035 C1051 0.959 . S
H1036 C1051 0.959 . S
H1037 C1051 0.961 . S
H1038 C1052 0.960 . S
H1039 C1052 0.961 . S
H1040 C1052 0.959 . S
H1041 C1055 0.929 . S
H1042 C1056 0.931 . S
H1043 C1058 0.930 . S
C1044 H1032 0.930 . S
C1044 C1045 1.399 . S
C1044 C1049 1.399 . S
C1045 C1044 1.399 . S
C1045 C1046 1.376 . S
C1046 H1033 0.930 . S
C1046 C1045 1.376 . S
C1046 C1047 1.388 . S
C1047 H1034 0.930 . S
C1047 C1046 1.388 . S
C1047 C1048 1.390 . S
C1048 C1047 1.390 . S
C1048 C1049 1.394 . S
C1048 C1054 1.465 . S
C1049 C1044 1.399 . S
C1049 C1048 1.394 . S
C1049 C1050 1.516 . S
C1050 C1049 1.516 . S
C1050 C1051 1.502 . S
C1050 C1052 1.561 . S
C1050 C1053 1.526 . S
C1051 H1035 0.959 . S
C1051 H1036 0.959 . S
C1051 H1037 0.961 . S
C1051 C1050 1.502 . S
C1052 H1038 0.960 . S
C1052 H1039 0.961 . S
C1052 H1040 0.959 . S
C1052 C1050 1.561 . S
C1053 C1050 1.526 . S
C1053 C1054 1.396 . S
C1053 C1058 1.390 . S
C1054 C1048 1.465 . S
C1054 C1053 1.396 . S
C1054 C1055 1.399 . S
C1055 H1041 0.929 . S
C1055 C1054 1.399 . S
C1055 C1056 1.385 . S
C1056 H1042 0.931 . S
C1056 C1055 1.385 . S
C1056 C1057 1.389 . S
C1057 C1056 1.389 . S
C1057 C1058 1.387 . S
C1058 H1043 0.930 . S
C1058 C1053 1.390 . S
C1058 C1057 1.387 . S
H1059 C1071 0.930 . S
H1060 C1073 0.930 . S
H1061 C1074 0.930 . S
H1062 C1078 0.959 . S
H1063 C1078 0.959 . S
H1064 C1078 0.961 . S
H1065 C1079 0.960 . S
H1066 C1079 0.961 . S
H1067 C1079 0.959 . S
H1068 C1082 0.929 . S
H1069 C1083 0.931 . S
H1070 C1085 0.930 . S
C1071 H1059 0.930 . S
C1071 C1072 1.399 . S
C1071 C1076 1.399 . S
C1072 C1071 1.399 . S
C1072 C1073 1.376 . S
C1073 H1060 0.930 . S
C1073 C1072 1.376 . S
C1073 C1074 1.388 . S
C1074 H1061 0.930 . S
C1074 C1073 1.388 . S
C1074 C1075 1.390 . S
C1075 C1074 1.390 . S
C1075 C1076 1.394 . S
C1075 C1081 1.465 . S
C1076 C1071 1.399 . S
C1076 C1075 1.394 . S
C1076 C1077 1.516 . S
C1077 C1076 1.516 . S
C1077 C1078 1.502 . S
C1077 C1079 1.561 . S
C1077 C1080 1.526 . S
C1078 H1062 0.959 . S
C1078 H1063 0.959 . S
C1078 H1064 0.961 . S
C1078 C1077 1.502 . S
C1079 H1065 0.960 . S
C1079 H1066 0.961 . S
C1079 H1067 0.959 . S
C1079 C1077 1.561 . S
C1080 C1077 1.526 . S
C1080 C1081 1.396 . S
C1080 C1085 1.390 . S
C1081 C1075 1.465 . S
C1081 C1080 1.396 . S
C1081 C1082 1.399 . S
C1082 H1068 0.929 . S
C1082 C1081 1.399 . S
C1082 C1083 1.385 . S
C1083 H1069 0.931 . S
C1083 C1082 1.385 . S
C1083 C1084 1.389 . S
C1084 C1083 1.389 . S
C1084 C1085 1.387 . S
C1085 H1070 0.930 . S
C1085 C1080 1.390 . S
C1085 C1084 1.387 . S
H1086 C1098 0.930 . S
H1087 C1100 0.930 . S
H1088 C1101 0.930 . S
H1089 C1105 0.959 . S
H1090 C1105 0.959 . S
H1091 C1105 0.961 . S
H1092 C1106 0.960 . S
H1093 C1106 0.961 . S
H1094 C1106 0.959 . S
H1095 C1109 0.929 . S
H1096 C1110 0.931 . S
H1097 C1112 0.930 . S
C1098 H1086 0.930 . S
C1098 C1099 1.399 . S
C1098 C1103 1.399 . S
C1099 C1098 1.399 . S
C1099 C1100 1.376 . S
C1100 H1087 0.930 . S
C1100 C1099 1.376 . S
C1100 C1101 1.388 . S
C1101 H1088 0.930 . S
C1101 C1100 1.388 . S
C1101 C1102 1.390 . S
C1102 C1101 1.390 . S
C1102 C1103 1.394 . S
C1102 C1108 1.465 1_554 S
C1103 C1098 1.399 . S
C1103 C1102 1.394 . S
C1103 C1104 1.516 . S
C1104 C1103 1.516 . S
C1104 C1105 1.502 . S
C1104 C1106 1.561 . S
C1104 C1107 1.526 1_554 S
C1105 H1089 0.959 . S
C1105 H1090 0.959 . S
C1105 H1091 0.961 . S
C1105 C1104 1.502 . S
C1106 H1092 0.960 . S
C1106 H1093 0.961 . S
C1106 H1094 0.959 . S
C1106 C1104 1.561 . S
C1107 C1104 1.526 1_556 S
C1107 C1108 1.396 . S
C1107 C1112 1.390 . S
C1108 C1102 1.465 1_556 S
C1108 C1107 1.396 . S
C1108 C1109 1.399 . S
C1109 H1095 0.929 . S
C1109 C1108 1.399 . S
C1109 C1110 1.385 . S
C1110 H1096 0.931 . S
C1110 C1109 1.385 . S
C1110 C1111 1.389 . S
C1111 C1110 1.389 . S
C1111 C1112 1.387 . S
C1112 H1097 0.930 . S
C1112 C1107 1.390 . S
C1112 C1111 1.387 . S
H1113 C1125 0.930 . S
H1114 C1127 0.930 . S
H1115 C1128 0.930 . S
H1116 C1132 0.959 . S
H1117 C1132 0.959 . S
H1118 C1132 0.961 . S
H1119 C1133 0.960 . S
H1120 C1133 0.961 . S
H1121 C1133 0.959 . S
H1122 C1136 0.929 . S
H1123 C1137 0.931 . S
H1124 C1139 0.930 . S
C1125 H1113 0.930 . S
C1125 C1126 1.399 . S
C1125 C1130 1.399 . S
C1126 C1125 1.399 . S
C1126 C1127 1.376 . S
C1127 H1114 0.930 . S
C1127 C1126 1.376 . S
C1127 C1128 1.388 . S
C1128 H1115 0.930 . S
C1128 C1127 1.388 . S
C1128 C1129 1.390 . S
C1129 C1128 1.390 . S
C1129 C1130 1.394 . S
C1129 C1135 1.465 . S
C1130 C1125 1.399 . S
C1130 C1129 1.394 . S
C1130 C1131 1.516 . S
C1131 C1130 1.516 . S
C1131 C1132 1.502 . S
C1131 C1133 1.561 . S
C1131 C1134 1.526 . S
C1132 H1116 0.959 . S
C1132 H1117 0.959 . S
C1132 H1118 0.961 . S
C1132 C1131 1.502 . S
C1133 H1119 0.960 . S
C1133 H1120 0.961 . S
C1133 H1121 0.959 . S
C1133 C1131 1.561 . S
C1134 C1131 1.526 . S
C1134 C1135 1.396 . S
C1134 C1139 1.390 . S
C1135 C1129 1.465 . S
C1135 C1134 1.396 . S
C1135 C1136 1.399 . S
C1136 H1122 0.929 . S
C1136 C1135 1.399 . S
C1136 C1137 1.385 . S
C1137 H1123 0.931 . S
C1137 C1136 1.385 . S
C1137 C1138 1.389 . S
C1138 C1137 1.389 . S
C1138 C1139 1.387 . S
C1139 H1124 0.930 . S
C1139 C1134 1.390 . S
C1139 C1138 1.387 . S
C517 C459 1.580 . S
C505 C15 1.597 . S
C532 C61 1.585 . S
C544 C279 1.640 . S
C559 C114 1.569 . S
C571 C326 1.573 . S
C586 C139 1.556 . S
C598 C362 1.553 . S
C625 C387 1.583 . S
C613 C185 1.545 . S
C640 C245 1.572 . S
C652 C423 1.568 . S
C667 C47 1.630 . S
C679 C315 1.610 . S
C694 C100 1.577 . S
C706 C351 1.567 . S
C721 C153 1.495 . S
C733 C398 1.506 . S
C760 C434 1.557 . S
C748 C199 1.538 . S
C787 C470 1.563 . S
C775 C231 1.576 . S
C814 C290 1.588 . S
C802 C1 1.584 . S
C829 C22 1.454 . S
C841 C314 1.469 . S
C856 C68 1.474 . S
C868 C350 1.485 . S
C895 C388 1.491 . S
C883 C107 1.479 . S
C910 C146 1.491 . S
C922 C424 1.482 . S
C949 C460 1.465 . S
C937 C192 1.451 . S
C976 C280 1.453 . S
C964 C252 1.435 . S
C1003 C458 1.471 . S
C991 C54 1.469 . S
C1018 C93 1.467 . S
C1030 C278 1.468 . S
C1057 C316 1.473 . S
C1045 C160 1.460 . S
C1072 C206 1.471 . S
C1084 C352 1.488 . S
C1099 C238 1.512 . S
C1111 C386 1.502 . S
C1126 C8 1.490 . S
C1138 C422 1.498 . S
