# Generated by pormake.
# Topology ptr, (4,4)-cn, num edge types: 1
# Building blocks:
#     Node 0, Type 0, BuildingBlock: AZAVOO_clean_sbu_0, # of connection points: 4
#     Node 1, Type 0, BuildingBlock: AZAVOO_clean_sbu_0, # of connection points: 4
#     Node 2, Type 0, BuildingBlock: AZAVOO_clean_sbu_0, # of connection points: 4
#     Node 3, Type 0, BuildingBlock: AZAVOO_clean_sbu_0, # of connection points: 4
#     Node 4, Type 0, BuildingBlock: AZAVOO_clean_sbu_0, # of connection points: 4
#     Node 5, Type 0, BuildingBlock: AZAVOO_clean_sbu_0, # of connection points: 4
#     Node 6, Type 0, BuildingBlock: AZAVOO_clean_sbu_0, # of connection points: 4
#     Node 7, Type 0, BuildingBlock: AZAVOO_clean_sbu_0, # of connection points: 4
#     Node 8, Type 0, BuildingBlock: AZAVOO_clean_sbu_0, # of connection points: 4
#     Node 9, Type 0, BuildingBlock: AZAVOO_clean_sbu_0, # of connection points: 4
#     Node 10, Type 0, BuildingBlock: AZAVOO_clean_sbu_0, # of connection points: 4
#     Node 11, Type 0, BuildingBlock: AZAVOO_clean_sbu_0, # of connection points: 4
#     Node 12, Type 0, BuildingBlock: AZAVOO_clean_sbu_0, # of connection points: 4
#     Node 13, Type 0, BuildingBlock: AZAVOO_clean_sbu_0, # of connection points: 4
#     Node 14, Type 0, BuildingBlock: AZAVOO_clean_sbu_0, # of connection points: 4
#     Node 15, Type 0, BuildingBlock: AZAVOO_clean_sbu_0, # of connection points: 4
#     Node 16, Type 0, BuildingBlock: AZAVOO_clean_sbu_0, # of connection points: 4
#     Node 17, Type 0, BuildingBlock: AZAVOO_clean_sbu_0, # of connection points: 4
#     Node 18, Type 1, BuildingBlock: MUDLON_clean_linker_0, # of connection points: 4
#     Node 19, Type 1, BuildingBlock: MUDLON_clean_linker_0, # of connection points: 4
#     Node 20, Type 1, BuildingBlock: MUDLON_clean_linker_0, # of connection points: 4
#     Node 21, Type 1, BuildingBlock: MUDLON_clean_linker_0, # of connection points: 4
#     Node 22, Type 1, BuildingBlock: MUDLON_clean_linker_0, # of connection points: 4
#     Node 23, Type 1, BuildingBlock: MUDLON_clean_linker_0, # of connection points: 4
#     Node 24, Type 1, BuildingBlock: MUDLON_clean_linker_0, # of connection points: 4
#     Node 25, Type 1, BuildingBlock: MUDLON_clean_linker_0, # of connection points: 4
#     Node 26, Type 1, BuildingBlock: MUDLON_clean_linker_0, # of connection points: 4
#     Node 27, Type 1, BuildingBlock: MUDLON_clean_linker_0, # of connection points: 4
#     Node 28, Type 1, BuildingBlock: MUDLON_clean_linker_0, # of connection points: 4
#     Node 29, Type 1, BuildingBlock: MUDLON_clean_linker_0, # of connection points: 4
#     Node 30, Type 1, BuildingBlock: MUDLON_clean_linker_0, # of connection points: 4
#     Node 31, Type 1, BuildingBlock: MUDLON_clean_linker_0, # of connection points: 4
#     Node 32, Type 1, BuildingBlock: MUDLON_clean_linker_0, # of connection points: 4
#     Node 33, Type 1, BuildingBlock: MUDLON_clean_linker_0, # of connection points: 4
#     Node 34, Type 1, BuildingBlock: MUDLON_clean_linker_0, # of connection points: 4
#     Node 35, Type 1, BuildingBlock: MUDLON_clean_linker_0, # of connection points: 4
#     Edge 36, Type (0, 1), BuildingBlock: UVAHIK_clean_linker_0, # of connection points: 2
#     Edge 37, Type (0, 1), BuildingBlock: UVAHIK_clean_linker_0, # of connection points: 2
#     Edge 38, Type (0, 1), BuildingBlock: UVAHIK_clean_linker_0, # of connection points: 2
#     Edge 39, Type (0, 1), BuildingBlock: UVAHIK_clean_linker_0, # of connection points: 2
#     Edge 40, Type (0, 1), BuildingBlock: UVAHIK_clean_linker_0, # of connection points: 2
#     Edge 41, Type (0, 1), BuildingBlock: UVAHIK_clean_linker_0, # of connection points: 2
#     Edge 42, Type (0, 1), BuildingBlock: UVAHIK_clean_linker_0, # of connection points: 2
#     Edge 43, Type (0, 1), BuildingBlock: UVAHIK_clean_linker_0, # of connection points: 2
#     Edge 44, Type (0, 1), BuildingBlock: UVAHIK_clean_linker_0, # of connection points: 2
#     Edge 45, Type (0, 1), BuildingBlock: UVAHIK_clean_linker_0, # of connection points: 2
#     Edge 46, Type (0, 1), BuildingBlock: UVAHIK_clean_linker_0, # of connection points: 2
#     Edge 47, Type (0, 1), BuildingBlock: UVAHIK_clean_linker_0, # of connection points: 2
#     Edge 48, Type (0, 1), BuildingBlock: UVAHIK_clean_linker_0, # of connection points: 2
#     Edge 49, Type (0, 1), BuildingBlock: UVAHIK_clean_linker_0, # of connection points: 2
#     Edge 50, Type (0, 1), BuildingBlock: UVAHIK_clean_linker_0, # of connection points: 2
#     Edge 51, Type (0, 1), BuildingBlock: UVAHIK_clean_linker_0, # of connection points: 2
#     Edge 52, Type (0, 1), BuildingBlock: UVAHIK_clean_linker_0, # of connection points: 2
#     Edge 53, Type (0, 1), BuildingBlock: UVAHIK_clean_linker_0, # of connection points: 2
#     Edge 54, Type (0, 1), BuildingBlock: UVAHIK_clean_linker_0, # of connection points: 2
#     Edge 55, Type (0, 1), BuildingBlock: UVAHIK_clean_linker_0, # of connection points: 2
#     Edge 56, Type (0, 1), BuildingBlock: UVAHIK_clean_linker_0, # of connection points: 2
#     Edge 57, Type (0, 1), BuildingBlock: UVAHIK_clean_linker_0, # of connection points: 2
#     Edge 58, Type (0, 1), BuildingBlock: UVAHIK_clean_linker_0, # of connection points: 2
#     Edge 59, Type (0, 1), BuildingBlock: UVAHIK_clean_linker_0, # of connection points: 2
#     Edge 60, Type (0, 1), BuildingBlock: UVAHIK_clean_linker_0, # of connection points: 2
#     Edge 61, Type (0, 1), BuildingBlock: UVAHIK_clean_linker_0, # of connection points: 2
#     Edge 62, Type (0, 1), BuildingBlock: UVAHIK_clean_linker_0, # of connection points: 2
#     Edge 63, Type (0, 1), BuildingBlock: UVAHIK_clean_linker_0, # of connection points: 2
#     Edge 64, Type (0, 1), BuildingBlock: UVAHIK_clean_linker_0, # of connection points: 2
#     Edge 65, Type (0, 1), BuildingBlock: UVAHIK_clean_linker_0, # of connection points: 2
#     Edge 66, Type (0, 1), BuildingBlock: UVAHIK_clean_linker_0, # of connection points: 2
#     Edge 67, Type (0, 1), BuildingBlock: UVAHIK_clean_linker_0, # of connection points: 2
#     Edge 68, Type (0, 1), BuildingBlock: UVAHIK_clean_linker_0, # of connection points: 2
#     Edge 69, Type (0, 1), BuildingBlock: UVAHIK_clean_linker_0, # of connection points: 2
#     Edge 70, Type (0, 1), BuildingBlock: UVAHIK_clean_linker_0, # of connection points: 2
#     Edge 71, Type (0, 1), BuildingBlock: UVAHIK_clean_linker_0, # of connection points: 2
#     Edge 72, Type (0, 1), BuildingBlock: UVAHIK_clean_linker_0, # of connection points: 2
#     Edge 73, Type (0, 1), BuildingBlock: UVAHIK_clean_linker_0, # of connection points: 2
#     Edge 74, Type (0, 1), BuildingBlock: UVAHIK_clean_linker_0, # of connection points: 2
#     Edge 75, Type (0, 1), BuildingBlock: UVAHIK_clean_linker_0, # of connection points: 2
#     Edge 76, Type (0, 1), BuildingBlock: UVAHIK_clean_linker_0, # of connection points: 2
#     Edge 77, Type (0, 1), BuildingBlock: UVAHIK_clean_linker_0, # of connection points: 2
#     Edge 78, Type (0, 1), BuildingBlock: UVAHIK_clean_linker_0, # of connection points: 2
#     Edge 79, Type (0, 1), BuildingBlock: UVAHIK_clean_linker_0, # of connection points: 2
#     Edge 80, Type (0, 1), BuildingBlock: UVAHIK_clean_linker_0, # of connection points: 2
#     Edge 81, Type (0, 1), BuildingBlock: UVAHIK_clean_linker_0, # of connection points: 2
#     Edge 82, Type (0, 1), BuildingBlock: UVAHIK_clean_linker_0, # of connection points: 2
#     Edge 83, Type (0, 1), BuildingBlock: UVAHIK_clean_linker_0, # of connection points: 2
#     Edge 84, Type (0, 1), BuildingBlock: UVAHIK_clean_linker_0, # of connection points: 2
#     Edge 85, Type (0, 1), BuildingBlock: UVAHIK_clean_linker_0, # of connection points: 2
#     Edge 86, Type (0, 1), BuildingBlock: UVAHIK_clean_linker_0, # of connection points: 2
#     Edge 87, Type (0, 1), BuildingBlock: UVAHIK_clean_linker_0, # of connection points: 2
#     Edge 88, Type (0, 1), BuildingBlock: UVAHIK_clean_linker_0, # of connection points: 2
#     Edge 89, Type (0, 1), BuildingBlock: UVAHIK_clean_linker_0, # of connection points: 2
#     Edge 90, Type (0, 1), BuildingBlock: UVAHIK_clean_linker_0, # of connection points: 2
#     Edge 91, Type (0, 1), BuildingBlock: UVAHIK_clean_linker_0, # of connection points: 2
#     Edge 92, Type (0, 1), BuildingBlock: UVAHIK_clean_linker_0, # of connection points: 2
#     Edge 93, Type (0, 1), BuildingBlock: UVAHIK_clean_linker_0, # of connection points: 2
#     Edge 94, Type (0, 1), BuildingBlock: UVAHIK_clean_linker_0, # of connection points: 2
#     Edge 95, Type (0, 1), BuildingBlock: UVAHIK_clean_linker_0, # of connection points: 2
#     Edge 96, Type (0, 1), BuildingBlock: UVAHIK_clean_linker_0, # of connection points: 2
#     Edge 97, Type (0, 1), BuildingBlock: UVAHIK_clean_linker_0, # of connection points: 2
#     Edge 98, Type (0, 1), BuildingBlock: UVAHIK_clean_linker_0, # of connection points: 2
#     Edge 99, Type (0, 1), BuildingBlock: UVAHIK_clean_linker_0, # of connection points: 2
#     Edge 100, Type (0, 1), BuildingBlock: UVAHIK_clean_linker_0, # of connection points: 2
#     Edge 101, Type (0, 1), BuildingBlock: UVAHIK_clean_linker_0, # of connection points: 2
#     Edge 102, Type (0, 1), BuildingBlock: UVAHIK_clean_linker_0, # of connection points: 2
#     Edge 103, Type (0, 1), BuildingBlock: UVAHIK_clean_linker_0, # of connection points: 2
#     Edge 104, Type (0, 1), BuildingBlock: UVAHIK_clean_linker_0, # of connection points: 2
#     Edge 105, Type (0, 1), BuildingBlock: UVAHIK_clean_linker_0, # of connection points: 2
#     Edge 106, Type (0, 1), BuildingBlock: UVAHIK_clean_linker_0, # of connection points: 2
#     Edge 107, Type (0, 1), BuildingBlock: UVAHIK_clean_linker_0, # of connection points: 2
# Relax obj value: 0.069
# Max RMSD: 0.223
# Mean RMSD: 0.107
data_MOF--net-ptr--node1-AZAVOO_clean_sbu_0--node2-MUDLON_clean_linker_0--edge1-UVAHIK_clean_linker_0
_symmetry_space_group_name_H-M    P1
_symmetry_Int_Tables_number       1
_symmetry_cell_setting            triclinic
loop_
_symmetry_equiv_pos_as_xyz
'x, y, z'
_cell_length_a     129.16449
_cell_length_b     127.42306
_cell_length_c     72.812146
_cell_angle_alpha  90.940498
_cell_angle_beta   90.934987
_cell_angle_gamma 120.00991
loop_
_atom_site_label
_atom_site_type_symbol
_atom_site_fract_x
_atom_site_fract_y
_atom_site_fract_z
_atom_type_partial_charge
Mg0 Mg 0.0033 0.3566 0.98524 0.0
O1 O -6e-05 0.36644 0.00916 0.0
O2 O 0.98437 0.36855 0.0006 0.0
Mg3 Mg 0.97835 0.36089 0.9713 0.0
C4 C 0.99245 0.36999 0.01236 0.0
C5 C 0.02514 0.36001 0.01001 0.0
O6 O 0.02888 0.37154 0.00746 0.0
O7 O 0.98668 0.3388 0.99215 0.0
O8 O 0.97198 0.34174 0.98176 0.0
O9 O 0.01573 0.3745 0.97307 0.0
O10 O 0.99633 0.36377 0.96669 0.0
C11 C 0.97559 0.33504 0.98904 0.0
C12 C 0.00637 0.37357 0.96466 0.0
O13 O 0.01499 0.35206 0.00336 0.0
Mg14 Mg 0.63638 0.64171 0.04342 0.0
O15 O 0.62235 0.63381 0.01974 0.0
O16 O 0.60522 0.63134 0.03073 0.0
Mg17 Mg 0.60819 0.63735 0.06103 0.0
C18 C 0.61129 0.63058 0.01762 0.0
C19 C 0.66092 0.65712 0.02503 0.0
O20 O 0.66129 0.6652 0.03687 0.0
O21 O 0.63745 0.65989 0.04046 0.0
O22 O 0.62065 0.65726 0.05287 0.0
O23 O 0.63148 0.62325 0.05191 0.0
O24 O 0.62298 0.63342 0.06242 0.0
C25 C 0.63068 0.66397 0.04538 0.0
C26 C 0.62339 0.62351 0.06185 0.0
O27 O 0.65163 0.64667 0.02384 0.0
Mg28 Mg 0.35929 0.99231 0.98831 0.0
O29 O 0.37043 0.99504 0.01463 0.0
O30 O 0.38822 0.01179 0.01188 0.0
Mg31 Mg 0.38853 0.01941 0.98356 0.0
C32 C 0.38087 0.00268 0.02097 0.0
C33 C 0.34178 0.96959 0.00993 0.0
O34 O 0.35114 0.96809 0.00986 0.0
O35 O 0.35636 0.00783 0.99663 0.0
O36 O 0.37421 0.02415 0.99226 0.0
O37 O 0.36647 0.98126 0.97634 0.0
O38 O 0.37485 0.00112 0.97347 0.0
C39 C 0.36325 0.0193 0.99669 0.0
C40 C 0.37527 0.99131 0.97071 0.0
O41 O 0.34242 0.97881 0.00242 0.0
Mg42 Mg 0.99589 0.6446 0.028 0.0
O43 O -0.00074 0.63592 0.00243 0.0
O44 O 0.01577 0.63496 0.00882 0.0
Mg45 Mg 0.0223 0.6419 0.03819 0.0
C46 C 0.00719 0.63322 0.9979 0.0
C47 C 0.97195 0.64113 0.01054 0.0
O48 O 0.96774 0.63059 0.01832 0.0
O49 O 0.0117 0.66314 0.02152 0.0
O50 O 0.02736 0.66111 0.02953 0.0
O51 O 0.98449 0.6263 0.03959 0.0
O52 O 0.00398 0.63745 0.04469 0.0
C53 C 0.02296 0.6675 0.02367 0.0
C54 C 0.9942 0.62737 0.04683 0.0
O55 O 0.98312 0.64863 0.01161 0.0
Mg56 Mg 0.36812 0.36419 0.98171 0.0
O57 O 0.38227 0.37305 0.00519 0.0
O58 O 0.39913 0.37446 0.99487 0.0
Mg59 Mg 0.39597 0.36688 0.96543 0.0
C60 C 0.39328 0.3761 0.00746 0.0
C61 C 0.34487 0.36217 0.9932 0.0
O62 O 0.34619 0.36576 0.97615 0.0
O63 O 0.36619 0.34575 0.98739 0.0
O64 O 0.3831 0.3479 0.97603 0.0
O65 O 0.37392 0.38245 0.97039 0.0
O66 O 0.38138 0.37083 0.96239 0.0
C67 C 0.37305 0.34152 0.98363 0.0
C68 C 0.38158 0.38098 0.96108 0.0
O69 O 0.35298 0.36069 0.00073 0.0
Mg70 Mg 0.63573 0.00216 0.03594 0.0
O71 O 0.62241 0.99801 0.01172 0.0
O72 O 0.60469 0.98326 0.02095 0.0
Mg73 Mg 0.60657 0.97823 0.05025 0.0
C74 C 0.61123 0.99065 0.00885 0.0
C75 C 0.66138 0.01875 0.0279 0.0
O76 O 0.66065 0.0186 0.04589 0.0
O77 O 0.63586 0.98477 0.02985 0.0
O78 O 0.61823 0.97042 0.03982 0.0
O79 O 0.63152 0.0159 0.04702 0.0
O80 O 0.62206 0.99657 0.05434 0.0
C81 C 0.62835 0.97368 0.03271 0.0
C82 C 0.62297 0.0071 0.05565 0.0
O83 O 0.65185 0.01259 0.01822 0.0
Mg84 Mg 0.67372 0.69533 0.32305 0.0
O85 O 0.66779 0.70296 0.34716 0.0
O86 O 0.6528 0.70517 0.33579 0.0
Mg87 Mg 0.64923 0.69928 0.30555 0.0
C88 C 0.6598 0.70602 0.34906 0.0
C89 C 0.68839 0.68398 0.33298 0.0
O90 O 0.68534 0.68136 0.31548 0.0
O91 O 0.65712 0.67686 0.32584 0.0
O92 O 0.64261 0.67953 0.31381 0.0
O93 O 0.68672 0.71398 0.31441 0.0
O94 O 0.66793 0.70358 0.30436 0.0
C95 C 0.64619 0.67279 0.32106 0.0
C96 C 0.67805 0.71356 0.30463 0.0
O97 O 0.68463 0.69007 0.34174 0.0
Mg98 Mg 0.30172 0.97658 0.37055 0.0
O99 O 0.28858 0.9678 0.34603 0.0
O100 O 0.27163 0.96754 0.35279 0.0
Mg101 Mg 0.27378 0.97542 0.38201 0.0
C102 C 0.27792 0.96526 0.34184 0.0
C103 C 0.3277 0.9876 0.35702 0.0
O104 O 0.32944 0.99499 0.37103 0.0
O105 O 0.30474 0.99515 0.36365 0.0
O106 O 0.28793 0.99444 0.37249 0.0
O107 O 0.29507 0.95849 0.38205 0.0
O108 O 0.28743 0.97026 0.3883 0.0
C109 C 0.29844 0.00018 0.36605 0.0
C110 C 0.28693 0.95994 0.38993 0.0
O111 O 0.31713 0.97918 0.35293 0.0
Mg112 Mg 0.02898 0.32582 0.32413 0.0
O113 O 0.04147 0.33194 0.34981 0.0
O114 O 0.05816 0.34894 0.3427 0.0
Mg115 Mg 0.05667 0.35318 0.31281 0.0
C116 C 0.05189 0.34079 0.35408 0.0
C117 C 0.00597 0.30262 0.33708 0.0
O118 O 0.00864 0.29753 0.32355 0.0
O119 O 0.02518 0.34116 0.32873 0.0
O120 O 0.042 0.3576 0.32064 0.0
O121 O 0.03656 0.31448 0.31445 0.0
O122 O 0.04377 0.33371 0.30761 0.0
C123 C 0.03129 0.35253 0.32628 0.0
C124 C 0.0447 0.32409 0.30669 0.0
O125 O 0.0129 0.31379 0.34106 0.0
Mg126 Mg 0.66334 0.96998 0.36506 0.0
O127 O 0.66866 0.96167 0.3411 0.0
O128 O 0.68321 0.95874 0.35244 0.0
Mg129 Mg 0.68734 0.96509 0.38251 0.0
C130 C 0.67623 0.95806 0.33926 0.0
C131 C 0.64188 0.97154 0.35237 0.0
O132 O 0.63901 0.96592 0.36804 0.0
O133 O 0.6803 0.98831 0.36131 0.0
O134 O 0.694 0.98469 0.37419 0.0
O135 O 0.65008 0.95148 0.37457 0.0
O136 O 0.66897 0.96154 0.38396 0.0
C137 C 0.69104 0.99185 0.3667 0.0
C138 C 0.65874 0.95174 0.38411 0.0
O139 O 0.65219 0.97486 0.34615 0.0
Mg140 Mg 0.03256 0.70091 0.3171 0.0
O141 O 0.04603 0.70944 0.34158 0.0
O142 O 0.06349 0.71205 0.33188 0.0
Mg143 Mg 0.06145 0.70573 0.30195 0.0
C144 C 0.05708 0.71285 0.34439 0.0
C145 C 0.00885 0.69803 0.32913 0.0
O146 O 0.01054 0.70329 0.31321 0.0
O147 O 0.0315 0.68272 0.3215 0.0
O148 O 0.0491 0.68623 0.31107 0.0
O149 O 0.03743 0.71922 0.30718 0.0
O150 O 0.04642 0.7091 0.29881 0.0
C151 C 0.03893 0.67919 0.31789 0.0
C152 C 0.04581 0.71888 0.29814 0.0
O153 O 0.01677 0.69583 0.33546 0.0
Mg154 Mg 0.30543 0.33863 0.37018 0.0
O155 O 0.29251 0.33565 0.34604 0.0
O156 O 0.27456 0.32018 0.35294 0.0
Mg157 Mg 0.27583 0.31391 0.38168 0.0
C158 C 0.28148 0.32834 0.34204 0.0
C159 C 0.33044 0.34853 0.35364 0.0
O160 O 0.3299 0.33991 0.36393 0.0
O161 O 0.30556 0.32142 0.36185 0.0
O162 O 0.28771 0.30665 0.37045 0.0
O163 O 0.3009 0.35167 0.38314 0.0
O164 O 0.29139 0.33197 0.38806 0.0
C165 C 0.29796 0.31021 0.36359 0.0
C166 C 0.29221 0.34238 0.39071 0.0
O167 O 0.32155 0.35023 0.35285 0.0
Mg168 Mg 0.33646 0.02969 0.65422 0.0
O169 O 0.33165 0.03736 0.67942 0.0
O170 O 0.31552 0.03862 0.67155 0.0
Mg171 Mg 0.30998 0.03174 0.64184 0.0
C172 C 0.32365 0.04009 0.68324 0.0
C173 C 0.36015 0.03162 0.66776 0.0
O174 O 0.36376 0.03949 0.65456 0.0
O175 O 0.32087 0.01084 0.65908 0.0
O176 O 0.30507 0.0124 0.6502 0.0
O177 O 0.34781 0.04836 0.64426 0.0
O178 O 0.32865 0.03678 0.63677 0.0
C179 C 0.30963 0.00618 0.65621 0.0
C180 C 0.33832 0.04713 0.63592 0.0
O181 O 0.34913 0.02603 0.67161 0.0
Mg182 Mg 0.96761 0.30585 0.70401 0.0
O183 O 0.95332 0.29523 0.68128 0.0
O184 O 0.93571 0.29088 0.69291 0.0
Mg185 Mg 0.93856 0.29777 0.72277 0.0
C186 C 0.94197 0.29055 0.67975 0.0
C187 C 0.98566 0.30518 0.67651 0.0
O188 O 0.97914 0.29351 0.67934 0.0
O189 O 0.9658 0.32254 0.69952 0.0
O190 O 0.94843 0.31734 0.71266 0.0
O191 O 0.96539 0.28846 0.71447 0.0
O192 O 0.95519 0.2971 0.72403 0.0
C193 C 0.95779 0.325 0.70444 0.0
C194 C 0.95706 0.28809 0.72458 0.0
O195 O 0.98271 0.31238 0.68386 0.0
Mg196 Mg 0.70199 0.66117 0.6511 0.0
O197 O 0.71523 0.66725 0.67585 0.0
O198 O 0.73293 0.68142 0.66562 0.0
Mg199 Mg 0.73127 0.68385 0.63497 0.0
C200 C 0.72634 0.67498 0.67851 0.0
C201 C 0.68368 0.64349 0.67972 0.0
O202 O 0.69132 0.63955 0.68094 0.0
O203 O 0.70192 0.67892 0.65305 0.0
O204 O 0.7195 0.69222 0.64157 0.0
O205 O 0.70617 0.64669 0.64366 0.0
O206 O 0.71583 0.66533 0.6334 0.0
C207 C 0.70943 0.68962 0.64824 0.0
C208 C 0.71484 0.65478 0.63427 0.0
O209 O 0.68594 0.65228 0.66942 0.0
Mg210 Mg 0.33057 0.3089 0.69581 0.0
O211 O 0.33564 0.30072 0.67133 0.0
O212 O 0.35042 0.29785 0.68169 0.0
Mg213 Mg 0.35442 0.30343 0.71199 0.0
C214 C 0.34333 0.29734 0.66882 0.0
C215 C 0.31106 0.30607 0.66731 0.0
O216 O 0.30954 0.29507 0.66656 0.0
O217 O 0.34764 0.32719 0.69254 0.0
O218 O 0.36141 0.32316 0.70394 0.0
O219 O 0.31721 0.29042 0.7049 0.0
O220 O 0.33615 0.30021 0.71422 0.0
C221 C 0.35847 0.3305 0.69708 0.0
C222 C 0.32584 0.29048 0.7143 0.0
O223 O 0.31958 0.31416 0.67729 0.0
Mg224 Mg 0.69468 0.02473 0.64449 0.0
O225 O 0.70704 0.03455 0.66948 0.0
O226 O 0.72448 0.03536 0.66466 0.0
Mg227 Mg 0.72355 0.02699 0.63622 0.0
C228 C 0.7177 0.03756 0.67462 0.0
C229 C 0.67442 0.02871 0.66061 0.0
O230 O 0.67996 0.03871 0.65134 0.0
O231 O 0.69238 0.00673 0.65353 0.0
O232 O 0.70974 0.0081 0.64631 0.0
O233 O 0.70102 0.04238 0.63105 0.0
O234 O 0.70948 0.0311 0.62786 0.0
C235 C 0.69915 0.00214 0.65237 0.0
C236 C 0.70959 0.04107 0.62456 0.0
O237 O 0.67845 0.02143 0.66064 0.0
Mg238 Mg 0.97032 0.67953 0.7013 0.0
O239 O 0.95654 0.67386 0.67723 0.0
O240 O 0.939 0.65988 0.68815 0.0
Mg241 Mg 0.94137 0.6566 0.71818 0.0
C242 C 0.94531 0.66642 0.67512 0.0
C243 C 0.99576 0.69034 0.6894 0.0
O244 O 0.99556 0.68596 0.70568 0.0
O245 O 0.97043 0.66183 0.69782 0.0
O246 O 0.95294 0.64838 0.70941 0.0
O247 O 0.96629 0.69387 0.71043 0.0
O248 O 0.95687 0.67505 0.71998 0.0
C249 C 0.96289 0.65104 0.70221 0.0
C250 C 0.95784 0.68561 0.71995 0.0
O251 O 0.98606 0.68899 0.68246 0.0
H252 H 0.23613 0.36322 0.1417 0.0
N253 N 0.21686 0.34717 0.12249 0.0
H254 H 0.24368 0.36048 0.17106 0.0
H255 H 0.20573 0.32715 0.14379 0.0
H256 H 0.21269 0.32456 0.17381 0.0
H257 H 0.21809 0.32667 0.11544 0.0
H258 H 0.23199 0.32498 0.09484 0.0
H259 H 0.2304 0.36308 0.09789 0.0
H260 H 0.24437 0.36151 0.07726 0.0
H261 H 0.20406 0.3553 0.13917 0.0
H262 H 0.20077 0.32839 0.09908 0.0
H263 H 0.18269 0.34761 0.13639 0.0
H264 H 0.17962 0.32132 0.09509 0.0
H265 H 0.12654 0.33391 0.12922 0.0
H266 H 0.12009 0.33548 0.15981 0.0
H267 H 0.11716 0.30117 0.17314 0.0
H268 H 0.12335 0.29952 0.14206 0.0
H269 H 0.1053 0.30084 0.10695 0.0
H270 H 0.09233 0.30582 0.08901 0.0
H271 H 0.12326 0.33896 0.07259 0.0
H272 H 0.13608 0.33418 0.09075 0.0
H273 H 0.14608 0.33878 0.11965 0.0
H274 H 0.16745 0.34667 0.11898 0.0
H275 H 0.16111 0.31041 0.10791 0.0
N276 N 0.12843 0.31497 0.11488 0.0
H277 H 0.1396 0.3028 0.10699 0.0
C278 C 0.22035 0.3455 0.14066 0.0
C279 C 0.23096 0.35481 0.14876 0.0
C280 C 0.2352 0.35323 0.16564 0.0
C281 C 0.22879 0.3423 0.17499 0.0
C282 C 0.21799 0.33303 0.16695 0.0
C283 C 0.21389 0.33454 0.14986 0.0
C284 C 0.22329 0.34507 0.10823 0.0
C285 C 0.22365 0.33422 0.1069 0.0
C286 C 0.23163 0.33329 0.0952 0.0
C287 C 0.23936 0.34315 0.08457 0.0
C288 C 0.23847 0.35371 0.08514 0.0
C289 C 0.23052 0.35465 0.09691 0.0
C290 C 0.20417 0.34253 0.11948 0.0
C291 C 0.19876 0.34785 0.12955 0.0
C292 C 0.1865 0.3435 0.12774 0.0
C293 C 0.1793 0.33386 0.11535 0.0
C294 C 0.18476 0.32861 0.105 0.0
C295 C 0.19701 0.33278 0.10717 0.0
C296 C 0.12533 0.3165 0.13331 0.0
C297 C 0.12462 0.32676 0.13874 0.0
C298 C 0.121 0.32769 0.15634 0.0
C299 C 0.11811 0.31845 0.16898 0.0
C300 C 0.11917 0.30837 0.16368 0.0
C301 C 0.12275 0.30742 0.146 0.0
C302 C 0.12169 0.31716 0.10081 0.0
C303 C 0.10931 0.30907 0.09918 0.0
C304 C 0.1019 0.31193 0.08886 0.0
C305 C 0.10672 0.32294 0.07963 0.0
C306 C 0.1192 0.33059 0.08 0.0
C307 C 0.12661 0.32778 0.09049 0.0
C308 C 0.14117 0.32017 0.11291 0.0
C309 C 0.14925 0.33256 0.11656 0.0
C310 C 0.16156 0.33704 0.1165 0.0
C311 C 0.16615 0.3292 0.11361 0.0
C312 C 0.15802 0.31682 0.10985 0.0
C313 C 0.14569 0.31241 0.10938 0.0
H314 H 0.71499 0.81225 0.13423 0.0
N315 N 0.70062 0.81996 0.12163 0.0
H316 H 0.7135 0.80206 0.1631 0.0
H317 H 0.68634 0.81821 0.15062 0.0
H318 H 0.685 0.80834 0.17936 0.0
H319 H 0.67754 0.80134 0.12488 0.0
H320 H 0.66731 0.78343 0.10499 0.0
H321 H 0.70743 0.81664 0.08881 0.0
H322 H 0.69685 0.799 0.0679 0.0
H323 H 0.71876 0.84219 0.11745 0.0
H324 H 0.68044 0.82198 0.12166 0.0
H325 H 0.71813 0.86094 0.11495 0.0
H326 H 0.67973 0.84065 0.12076 0.0
H327 H 0.70933 0.91995 0.12911 0.0
H328 H 0.70613 0.928 0.15779 0.0
H329 H 0.67953 0.89169 0.17236 0.0
H330 H 0.68238 0.88387 0.14322 0.0
H331 H 0.67398 0.88989 0.11481 0.0
H332 H 0.66364 0.89479 0.09128 0.0
H333 H 0.69612 0.91253 0.06055 0.0
H334 H 0.70657 0.90793 0.08475 0.0
H335 H 0.71516 0.89388 0.12995 0.0
H336 H 0.71569 0.87507 0.13145 0.0
H337 H 0.68117 0.85604 0.10314 0.0
N338 N 0.69784 0.89717 0.11636 0.0
H339 H 0.68029 0.87453 0.1031 0.0
C340 C 0.70083 0.81602 0.14007 0.0
C341 C 0.70862 0.81167 0.14424 0.0
C342 C 0.70777 0.80587 0.16075 0.0
C343 C 0.69905 0.8043 0.17343 0.0
C344 C 0.69169 0.80926 0.16973 0.0
C345 C 0.69254 0.81504 0.15324 0.0
C346 C 0.69344 0.81024 0.10856 0.0
C347 C 0.68182 0.80098 0.11244 0.0
C348 C 0.67588 0.79073 0.10083 0.0
C349 C 0.68129 0.7896 0.08486 0.0
C350 C 0.69252 0.79935 0.08031 0.0
C351 C 0.69855 0.80951 0.09213 0.0
C352 C 0.69973 0.83074 0.11998 0.0
C353 C 0.71023 0.84185 0.11804 0.0
C354 C 0.70983 0.85257 0.11682 0.0
C355 C 0.69889 0.85243 0.11787 0.0
C356 C 0.68832 0.84119 0.11962 0.0
C357 C 0.68872 0.83045 0.12039 0.0
C358 C 0.69624 0.90135 0.13409 0.0
C359 C 0.70288 0.91375 0.1386 0.0
C360 C 0.70106 0.91831 0.15505 0.0
C361 C 0.69259 0.9105 0.16751 0.0
C362 C 0.68601 0.89801 0.16303 0.0
C363 C 0.68774 0.89348 0.14644 0.0
C364 C 0.69114 0.89874 0.10165 0.0
C365 C 0.67888 0.89479 0.10299 0.0
C366 C 0.67292 0.89746 0.08935 0.0
C367 C 0.67905 0.9041 0.07401 0.0
C368 C 0.69118 0.90755 0.0723 0.0
C369 C 0.69715 0.9049 0.08603 0.0
C370 C 0.69781 0.8858 0.11632 0.0
C371 C 0.70771 0.88562 0.12413 0.0
C372 C 0.70802 0.87484 0.12479 0.0
C373 C 0.69851 0.86394 0.11728 0.0
C374 C 0.6886 0.86415 0.10936 0.0
C375 C 0.68816 0.87488 0.10912 0.0
H376 H 0.11459 0.79656 0.11378 0.0
N377 N 0.11809 0.81887 0.10476 0.0
H378 H 0.10809 0.78676 0.14305 0.0
H379 H 0.11256 0.82736 0.13457 0.0
H380 H 0.10622 0.81762 0.1643 0.0
H381 H 0.09444 0.80606 0.09866 0.0
H382 H 0.08345 0.78973 0.07619 0.0
H383 H 0.12758 0.81433 0.07314 0.0
H384 H 0.11657 0.79819 0.05051 0.0
H385 H 0.13395 0.81045 0.10416 0.0
H386 H 0.1314 0.84288 0.10745 0.0
H387 H 0.15542 0.82238 0.10981 0.0
H388 H 0.15293 0.85493 0.11403 0.0
H389 H 0.22218 0.86742 0.15802 0.0
H390 H 0.23003 0.88011 0.18582 0.0
H391 H 0.20424 0.89202 0.17823 0.0
H392 H 0.19705 0.87992 0.14976 0.0
H393 H 0.21415 0.88954 0.12386 0.0
H394 H 0.23015 0.90075 0.10261 0.0
H395 H 0.2322 0.86845 0.09107 0.0
H396 H 0.21636 0.85738 0.11294 0.0
H397 H 0.18979 0.84397 0.14356 0.0
H398 H 0.16856 0.83256 0.13486 0.0
H399 H 0.1726 0.86285 0.10344 0.0
N400 N 0.20584 0.8662 0.1343 0.0
H401 H 0.1936 0.87437 0.11306 0.0
C402 C 0.11403 0.81274 0.12195 0.0
C403 C 0.11283 0.80127 0.12472 0.0
C404 C 0.10918 0.79569 0.14154 0.0
C405 C 0.10672 0.80144 0.15607 0.0
C406 C 0.10794 0.81291 0.15333 0.0
C407 C 0.11158 0.81849 0.13641 0.0
C408 C 0.11197 0.81096 0.08878 0.0
C409 C 0.09938 0.80447 0.08815 0.0
C410 C 0.09306 0.79517 0.07509 0.0
C411 C 0.09914 0.79234 0.06183 0.0
C412 C 0.11163 0.79978 0.06103 0.0
C413 C 0.11798 0.80903 0.07424 0.0
C414 C 0.13102 0.82581 0.10509 0.0
C415 C 0.13802 0.82018 0.1059 0.0
C416 C 0.15034 0.82702 0.10937 0.0
C417 C 0.15594 0.83963 0.11264 0.0
C418 C 0.14898 0.84528 0.11135 0.0
C419 C 0.13667 0.83842 0.10758 0.0
C420 C 0.20898 0.87259 0.15188 0.0
C421 C 0.21814 0.87266 0.16254 0.0
C422 C 0.22256 0.8799 0.17851 0.0
C423 C 0.21779 0.88714 0.18443 0.0
C424 C 0.2083 0.88675 0.17401 0.0
C425 C 0.20403 0.87966 0.1578 0.0
C426 C 0.21416 0.87262 0.1201 0.0
C427 C 0.21794 0.88483 0.11661 0.0
C428 C 0.22705 0.89121 0.10433 0.0
C429 C 0.23253 0.88552 0.09522 0.0
C430 C 0.22832 0.87315 0.09809 0.0
C431 C 0.21922 0.86679 0.11045 0.0
C432 C 0.19334 0.85992 0.12885 0.0
C433 C 0.18605 0.84812 0.13483 0.0
C434 C 0.17394 0.84159 0.12966 0.0
C435 C 0.16885 0.8467 0.11818 0.0
C436 C 0.17617 0.85863 0.11236 0.0
C437 C 0.18826 0.86521 0.11774 0.0
H438 H 0.32905 0.2104 0.89056 0.0
N439 N 0.31055 0.18882 0.90201 0.0
H440 H 0.3298 0.22035 0.86208 0.0
H441 H 0.2944 0.18043 0.87434 0.0
H442 H 0.29534 0.19007 0.8451 0.0
H443 H 0.29965 0.20012 0.91558 0.0
H444 H 0.30781 0.2172 0.93744 0.0
H445 H 0.33104 0.19678 0.92404 0.0
H446 H 0.33874 0.21308 0.94685 0.0
H447 H 0.33118 0.19154 0.8872 0.0
H448 H 0.29952 0.16673 0.9158 0.0
H449 H 0.33756 0.17653 0.88627 0.0
H450 H 0.30603 0.15161 0.91511 0.0
H451 H 0.35693 0.12978 0.87731 0.0
H452 H 0.35409 0.11748 0.84947 0.0
H453 H 0.31578 0.10111 0.8537 0.0
H454 H 0.31874 0.11343 0.88157 0.0
H455 H 0.31953 0.11269 0.91421 0.0
H456 H 0.31795 0.0992 0.93875 0.0
H457 H 0.35651 0.11563 0.94067 0.0
H458 H 0.35792 0.12955 0.91708 0.0
H459 H 0.33829 0.14224 0.87034 0.0
H460 H 0.33064 0.15619 0.87111 0.0
H461 H 0.32334 0.14958 0.92863 0.0
N462 N 0.3402 0.12954 0.8983 0.0
H463 H 0.33107 0.13575 0.92818 0.0
C464 C 0.31152 0.1947 0.88475 0.0
C465 C 0.32161 0.2059 0.88079 0.0
C466 C 0.32209 0.21154 0.86431 0.0
C467 C 0.31263 0.20604 0.8512 0.0
C468 C 0.30271 0.19468 0.85498 0.0
C469 C 0.30217 0.18911 0.87162 0.0
C470 C 0.31467 0.19717 0.91778 0.0
C471 C 0.30811 0.2028 0.92259 0.0
C472 C 0.31279 0.21255 0.93525 0.0
C473 C 0.32409 0.21674 0.9438 0.0
C474 C 0.3302 0.21041 0.94015 0.0
C475 C 0.32567 0.20089 0.92711 0.0
C476 C 0.31469 0.18017 0.90133 0.0
C477 C 0.3255 0.18282 0.89311 0.0
C478 C 0.32918 0.17423 0.8926 0.0
C479 C 0.32223 0.16287 0.90047 0.0
C480 C 0.31156 0.1603 0.90897 0.0
C481 C 0.30781 0.16888 0.90932 0.0
C482 C 0.33809 0.12252 0.88148 0.0
C483 C 0.34794 0.12358 0.87212 0.0
C484 C 0.34629 0.11658 0.85622 0.0
C485 C 0.33471 0.10832 0.84938 0.0
C486 C 0.32481 0.10729 0.85875 0.0
C487 C 0.32648 0.11433 0.87465 0.0
C488 C 0.3389 0.12223 0.91398 0.0
C489 C 0.32763 0.11351 0.9202 0.0
C490 C 0.32675 0.10573 0.93417 0.0
C491 C 0.33709 0.10622 0.94179 0.0
C492 C 0.34834 0.1151 0.93561 0.0
C493 C 0.34919 0.12304 0.92198 0.0
C494 C 0.33464 0.13708 0.89883 0.0
C495 C 0.33474 0.14343 0.88308 0.0
C496 C 0.3305 0.15157 0.88354 0.0
C497 C 0.32623 0.15381 0.89986 0.0
C498 C 0.32629 0.14776 0.91573 0.0
C499 C 0.33065 0.13969 0.91535 0.0
H500 H 0.7616 0.11784 0.88005 0.0
N501 N 0.78283 0.12448 0.89532 0.0
H502 H 0.75346 0.10739 0.85044 0.0
H503 H 0.79503 0.11934 0.86936 0.0
H504 H 0.78729 0.1096 0.83941 0.0
H505 H 0.7836 0.10344 0.89724 0.0
H506 H 0.77317 0.08751 0.91957 0.0
H507 H 0.77291 0.1262 0.92591 0.0
H508 H 0.76282 0.11052 0.94856 0.0
H509 H 0.78756 0.14715 0.89836 0.0
H510 H 0.80428 0.1252 0.89898 0.0
H511 H 0.80703 0.16541 0.90269 0.0
H512 H 0.82401 0.14348 0.90176 0.0
H513 H 0.86737 0.21788 0.88234 0.0
H514 H 0.87907 0.22307 0.8544 0.0
H515 H 0.88492 0.19288 0.86212 0.0
H516 H 0.8728 0.1875 0.8898 0.0
H517 H 0.87956 0.19536 0.91994 0.0
H518 H 0.89375 0.20719 0.94495 0.0
H519 H 0.87551 0.22749 0.95271 0.0
H520 H 0.86151 0.21578 0.92741 0.0
H521 H 0.84285 0.19629 0.88826 0.0
H522 H 0.82363 0.17764 0.88618 0.0
H523 H 0.83803 0.16002 0.91994 0.0
N524 N 0.86278 0.2 0.90473 0.0
H525 H 0.85755 0.17864 0.92071 0.0
C526 C 0.77892 0.1195 0.87693 0.0
C527 C 0.76726 0.11615 0.87111 0.0
C528 C 0.76266 0.11023 0.85412 0.0
C529 C 0.7697 0.10762 0.84243 0.0
C530 C 0.78152 0.11126 0.84813 0.0
C531 C 0.78605 0.11702 0.86526 0.0
C532 C 0.77877 0.11589 0.9098 0.0
C533 C 0.77923 0.10511 0.90855 0.0
C534 C 0.77331 0.09604 0.9213 0.0
C535 C 0.76717 0.09779 0.9357 0.0
C536 C 0.76757 0.10897 0.93768 0.0
C537 C 0.77327 0.1179 0.92476 0.0
C538 C 0.79454 0.13493 0.89788 0.0
C539 C 0.79552 0.14634 0.89916 0.0
C540 C 0.80669 0.15676 0.90148 0.0
C541 C 0.8172 0.15601 0.90217 0.0
C542 C 0.81615 0.14446 0.90136 0.0
C543 C 0.80489 0.13399 0.89947 0.0
C544 C 0.86941 0.20247 0.88818 0.0
C545 C 0.87111 0.21235 0.87788 0.0
C546 C 0.87771 0.21523 0.86194 0.0
C547 C 0.88285 0.20834 0.85615 0.0
C548 C 0.88107 0.19834 0.86638 0.0
C549 C 0.87424 0.19532 0.8822 0.0
C550 C 0.8696 0.20488 0.92163 0.0
C551 C 0.87847 0.20219 0.92721 0.0
C552 C 0.88657 0.20894 0.94153 0.0
C553 C 0.88578 0.21831 0.95068 0.0
C554 C 0.87628 0.22026 0.94604 0.0
C555 C 0.86831 0.21363 0.93157 0.0
C556 C 0.85151 0.18889 0.90481 0.0
C557 C 0.8418 0.18838 0.89523 0.0
C558 C 0.83079 0.17771 0.89423 0.0
C559 C 0.82913 0.16729 0.90316 0.0
C560 C 0.83895 0.16781 0.91277 0.0
C561 C 0.8501 0.17849 0.91343 0.0
H562 H 0.79699 0.71536 0.88872 0.0
N563 N 0.80239 0.70112 0.90781 0.0
H564 H 0.78803 0.71158 0.85766 0.0
H565 H 0.79826 0.68226 0.8845 0.0
H566 H 0.78914 0.67831 0.85352 0.0
H567 H 0.78487 0.67723 0.90974 0.0
H568 H 0.76701 0.66942 0.92811 0.0
H569 H 0.79848 0.7127 0.93509 0.0
H570 H 0.78065 0.7048 0.95393 0.0
H571 H 0.82418 0.71852 0.90048 0.0
H572 H 0.80504 0.68269 0.92242 0.0
H573 H 0.84286 0.71836 0.90383 0.0
H574 H 0.82377 0.68276 0.92712 0.0
H575 H 0.9002 0.71873 0.8991 0.0
H576 H 0.90768 0.7189 0.86834 0.0
H577 H 0.87455 0.68626 0.8535 0.0
H578 H 0.86736 0.68595 0.88416 0.0
H579 H 0.87374 0.6779 0.90976 0.0
H580 H 0.88351 0.66848 0.92597 0.0
H581 H 0.90444 0.70148 0.95843 0.0
H582 H 0.89473 0.71093 0.94182 0.0
H583 H 0.87648 0.72007 0.92167 0.0
H584 H 0.85751 0.71978 0.92374 0.0
H585 H 0.83857 0.6811 0.91208 0.0
N586 N 0.87987 0.70182 0.91294 0.0
H587 H 0.85754 0.68141 0.91173 0.0
C588 C 0.79822 0.69911 0.88891 0.0
C589 C 0.79545 0.70736 0.88096 0.0
C590 C 0.79037 0.70519 0.86326 0.0
C591 C 0.78785 0.69462 0.85324 0.0
C592 C 0.79089 0.68646 0.86104 0.0
C593 C 0.79612 0.68873 0.87869 0.0
C594 C 0.79297 0.69566 0.92087 0.0
C595 C 0.78415 0.6833 0.91948 0.0
C596 C 0.77393 0.67883 0.92998 0.0
C597 C 0.77243 0.68655 0.94225 0.0
C598 C 0.78163 0.69866 0.9446 0.0
C599 C 0.79179 0.70317 0.9339 0.0
C600 C 0.81322 0.70074 0.9113 0.0
C601 C 0.82407 0.71071 0.90638 0.0
C602 C 0.83477 0.71063 0.90851 0.0
C603 C 0.83494 0.70059 0.91598 0.0
C604 C 0.82403 0.6906 0.92114 0.0
C605 C 0.81326 0.6906 0.91863 0.0
C606 C 0.88325 0.70239 0.89404 0.0
C607 C 0.89451 0.71174 0.88907 0.0
C608 C 0.89873 0.71184 0.87148 0.0
C609 C 0.89172 0.70255 0.8585 0.0
C610 C 0.88023 0.69346 0.86327 0.0
C611 C 0.87605 0.69333 0.88086 0.0
C612 C 0.88356 0.69519 0.92458 0.0
C613 C 0.88018 0.68302 0.92068 0.0
C614 C 0.88579 0.67762 0.92999 0.0
C615 C 0.89487 0.68428 0.94332 0.0
C616 C 0.89764 0.69618 0.948 0.0
C617 C 0.89203 0.70156 0.93869 0.0
C618 C 0.86847 0.70087 0.91614 0.0
C619 C 0.86819 0.71152 0.91992 0.0
C620 C 0.85732 0.71133 0.92085 0.0
C621 C 0.84642 0.70046 0.91756 0.0
C622 C 0.84672 0.68965 0.91472 0.0
C623 C 0.85763 0.68983 0.91427 0.0
H624 H 0.76597 0.61621 0.45643 0.0
N625 N 0.78576 0.63195 0.43992 0.0
H626 H 0.76036 0.61739 0.48803 0.0
H627 H 0.7999 0.64882 0.46645 0.0
H628 H 0.79452 0.64992 0.49808 0.0
H629 H 0.79142 0.65579 0.44208 0.0
H630 H 0.78123 0.66465 0.42556 0.0
H631 H 0.77013 0.62196 0.41202 0.0
H632 H 0.75964 0.63067 0.39565 0.0
H633 H 0.7909 0.61437 0.44172 0.0
H634 H 0.80683 0.65248 0.43119 0.0
H635 H 0.81054 0.61612 0.44128 0.0
H636 H 0.82645 0.65424 0.4299 0.0
H637 H 0.8614 0.62253 0.47652 0.0
H638 H 0.87121 0.62774 0.50705 0.0
H639 H 0.88939 0.66566 0.4938 0.0
H640 H 0.8798 0.66038 0.46339 0.0
H641 H 0.87529 0.65858 0.43033 0.0
H642 H 0.89312 0.66616 0.41173 0.0
H643 H 0.89293 0.63243 0.41844 0.0
H644 H 0.87533 0.62511 0.43746 0.0
H645 H 0.84612 0.62007 0.43097 0.0
H646 H 0.82705 0.61911 0.42436 0.0
H647 H 0.84077 0.65444 0.4507 0.0
N648 N 0.86508 0.63741 0.4491 0.0
H649 H 0.85991 0.65557 0.4562 0.0
C650 C 0.78329 0.63238 0.45907 0.0
C651 C 0.77227 0.62349 0.46557 0.0
C652 C 0.76913 0.62415 0.48364 0.0
C653 C 0.777 0.63377 0.49556 0.0
C654 C 0.78821 0.64249 0.48917 0.0
C655 C 0.79132 0.64183 0.4711 0.0
C656 C 0.78155 0.63815 0.42822 0.0
C657 C 0.78473 0.65032 0.43164 0.0
C658 C 0.77879 0.65536 0.42231 0.0
C659 C 0.76951 0.64834 0.40943 0.0
C660 C 0.76681 0.63638 0.40535 0.0
C661 C 0.77278 0.63137 0.41467 0.0
C662 C 0.79729 0.6332 0.43647 0.0
C663 C 0.79861 0.62305 0.43879 0.0
C664 C 0.80988 0.62408 0.43845 0.0
C665 C 0.82016 0.63535 0.4356 0.0
C666 C 0.81878 0.64546 0.43243 0.0
C667 C 0.80747 0.64443 0.43297 0.0
C668 C 0.86982 0.64099 0.46766 0.0
C669 C 0.86736 0.63197 0.48037 0.0
C670 C 0.87295 0.63497 0.49779 0.0
C671 C 0.88116 0.64712 0.5028 0.0
C672 C 0.88327 0.65621 0.49026 0.0
C673 C 0.87769 0.65319 0.47287 0.0
C674 C 0.87407 0.64129 0.43537 0.0
C675 C 0.87897 0.65275 0.42752 0.0
C676 C 0.88914 0.65706 0.41684 0.0
C677 C 0.89454 0.64996 0.41385 0.0
C678 C 0.88914 0.63821 0.42081 0.0
C679 C 0.87903 0.63396 0.43149 0.0
C680 C 0.85436 0.63772 0.44439 0.0
C681 C 0.84501 0.62765 0.43508 0.0
C682 C 0.8341 0.6271 0.43144 0.0
C683 C 0.83225 0.63661 0.43725 0.0
C684 C 0.84185 0.64697 0.44588 0.0
C685 C 0.85282 0.64757 0.44927 0.0
H686 H 0.37745 0.14444 0.46844 0.0
N687 N 0.36449 0.15227 0.451 0.0
H688 H 0.373 0.13361 0.4973 0.0
H689 H 0.34614 0.14797 0.47372 0.0
H690 H 0.34171 0.13733 0.5027 0.0
H691 H 0.34118 0.13395 0.44643 0.0
H692 H 0.33362 0.11733 0.42406 0.0
H693 H 0.37576 0.15055 0.42181 0.0
H694 H 0.36802 0.13421 0.39834 0.0
H695 H 0.38055 0.17398 0.46434 0.0
H696 H 0.34636 0.15507 0.43552 0.0
H697 H 0.37945 0.19251 0.46486 0.0
H698 H 0.34558 0.17369 0.43471 0.0
H699 H 0.37586 0.25046 0.46646 0.0
H700 H 0.37351 0.2597 0.49473 0.0
H701 H 0.34002 0.22704 0.50383 0.0
H702 H 0.34242 0.21791 0.47581 0.0
H703 H 0.33681 0.22135 0.44637 0.0
H704 H 0.32789 0.22721 0.42192 0.0
H705 H 0.36225 0.24659 0.39639 0.0
H706 H 0.37123 0.24103 0.42158 0.0
H707 H 0.37992 0.2268 0.44915 0.0
H708 H 0.38096 0.20821 0.44765 0.0
H709 H 0.34248 0.18716 0.45202 0.0
N710 N 0.36064 0.22895 0.45135 0.0
H711 H 0.34155 0.20573 0.4519 0.0
C712 C 0.36218 0.14701 0.46894 0.0
C713 C 0.36974 0.14305 0.47602 0.0
C714 C 0.3672 0.13692 0.49253 0.0
C715 C 0.35699 0.1346 0.50228 0.0
C716 C 0.34957 0.13887 0.49541 0.0
C717 C 0.35214 0.14503 0.47891 0.0
C718 C 0.35918 0.14341 0.43606 0.0
C719 C 0.34712 0.13415 0.43598 0.0
C720 C 0.34273 0.12467 0.42291 0.0
C721 C 0.35022 0.12429 0.40939 0.0
C722 C 0.36205 0.13402 0.40877 0.0
C723 C 0.36648 0.14343 0.42205 0.0
C724 C 0.36368 0.16314 0.44977 0.0
C725 C 0.37292 0.1739 0.45781 0.0
C726 C 0.37229 0.18452 0.45795 0.0
C727 C 0.36245 0.18471 0.44971 0.0
C728 C 0.35322 0.17391 0.44146 0.0
C729 C 0.35373 0.16321 0.44169 0.0
C730 C 0.35938 0.23353 0.46892 0.0
C731 C 0.3681 0.24527 0.47472 0.0
C732 C 0.36675 0.25051 0.49084 0.0
C733 C 0.35653 0.24411 0.50142 0.0
C734 C 0.3479 0.23225 0.49582 0.0
C735 C 0.34932 0.22698 0.47977 0.0
C736 C 0.35478 0.23095 0.43595 0.0
C737 C 0.34243 0.22676 0.43548 0.0
C738 C 0.3373 0.23003 0.4213 0.0
C739 C 0.34436 0.23746 0.4072 0.0
C740 C 0.35659 0.24104 0.40719 0.0
C741 C 0.36172 0.23784 0.42148 0.0
C742 C 0.36075 0.21771 0.45102 0.0
C743 C 0.37174 0.21814 0.44976 0.0
C744 C 0.37229 0.20748 0.44906 0.0
C745 C 0.36181 0.19608 0.44992 0.0
C746 C 0.35075 0.1957 0.45111 0.0
C747 C 0.3502 0.20638 0.4514 0.0
H748 H 0.80514 0.11221 0.45611 0.0
N749 N 0.80883 0.13269 0.44123 0.0
H750 H 0.7945 0.10309 0.4841 0.0
H751 H 0.80045 0.14302 0.46593 0.0
H752 H 0.79052 0.13441 0.49442 0.0
H753 H 0.78501 0.12601 0.43886 0.0
H754 H 0.77071 0.11242 0.41606 0.0
H755 H 0.8138 0.12707 0.40833 0.0
H756 H 0.79965 0.11461 0.38387 0.0
H757 H 0.83109 0.1445 0.45451 0.0
H758 H 0.80426 0.15008 0.42788 0.0
H759 H 0.8443 0.16632 0.45788 0.0
H760 H 0.81773 0.17194 0.42983 0.0
H761 H 0.88273 0.22264 0.46944 0.0
H762 H 0.89171 0.22887 0.50007 0.0
H763 H 0.86177 0.23274 0.5169 0.0
H764 H 0.8533 0.22729 0.48562 0.0
H765 H 0.88066 0.2459 0.45984 0.0
H766 H 0.89715 0.25664 0.43956 0.0
H767 H 0.88043 0.22687 0.39985 0.0
H768 H 0.86405 0.21592 0.42031 0.0
H769 H 0.8697 0.20583 0.45011 0.0
H770 H 0.85678 0.1842 0.4441 0.0
H771 H 0.82572 0.18834 0.45032 0.0
N772 N 0.86263 0.22254 0.45645 0.0
H773 H 0.83886 0.21018 0.45502 0.0
C774 C 0.80371 0.12831 0.45894 0.0
C775 C 0.80207 0.11713 0.46457 0.0
C776 C 0.79604 0.11199 0.48064 0.0
C777 C 0.79161 0.118 0.49159 0.0
C778 C 0.79362 0.12941 0.48622 0.0
C779 C 0.79947 0.13445 0.46999 0.0
C780 C 0.8005 0.12711 0.42578 0.0
C781 C 0.78832 0.12355 0.42696 0.0
C782 C 0.78007 0.11583 0.41351 0.0
C783 C 0.7838 0.11189 0.39806 0.0
C784 C 0.79621 0.1168 0.39588 0.0
C785 C 0.80441 0.12413 0.40974 0.0
C786 C 0.81678 0.14563 0.44079 0.0
C787 C 0.82821 0.15048 0.44894 0.0
C788 C 0.83577 0.16299 0.45074 0.0
C789 C 0.83217 0.17102 0.44408 0.0
C790 C 0.82078 0.16611 0.43542 0.0
C791 C 0.8131 0.15355 0.43401 0.0
C792 C 0.86742 0.22474 0.47513 0.0
C793 C 0.87804 0.22472 0.47975 0.0
C794 C 0.88315 0.22824 0.49743 0.0
C795 C 0.8776 0.2315 0.51109 0.0
C796 C 0.86655 0.23069 0.50668 0.0
C797 C 0.86159 0.22745 0.48886 0.0
C798 C 0.87157 0.22942 0.44281 0.0
C799 C 0.88055 0.2415 0.44693 0.0
C800 C 0.88995 0.24779 0.43509 0.0
C801 C 0.89037 0.24244 0.41831 0.0
C802 C 0.88068 0.23102 0.41307 0.0
C803 C 0.87129 0.22467 0.42501 0.0
C804 C 0.85521 0.20965 0.45276 0.0
C805 C 0.86011 0.20208 0.45006 0.0
C806 C 0.85266 0.18965 0.44673 0.0
C807 C 0.84013 0.1844 0.4467 0.0
C808 C 0.83529 0.19201 0.44975 0.0
C809 C 0.84277 0.2045 0.45263 0.0
H810 H 0.02516 0.55903 0.21396 0.0
N811 N 0.00995 0.53866 0.23016 0.0
H812 H 0.02164 0.56722 0.18594 0.0
H813 H 0.99004 0.52755 0.20778 0.0
H814 H 0.98663 0.53523 0.17921 0.0
H815 H 0.99288 0.54481 0.23669 0.0
H816 H 0.99377 0.55835 0.26125 0.0
H817 H 0.02302 0.54399 0.26133 0.0
H818 H 0.02326 0.55658 0.28707 0.0
H819 H 0.02852 0.53529 0.22802 0.0
H820 H 0.99034 0.51639 0.23354 0.0
H821 H 0.02838 0.51608 0.22753 0.0
H822 H 0.98983 0.49692 0.23165 0.0
H823 H 0.02553 0.45379 0.21215 0.0
H824 H 0.02217 0.44187 0.18392 0.0
H825 H 0.98869 0.44122 0.17432 0.0
H826 H 0.99191 0.45259 0.20338 0.0
H827 H 0.98927 0.44366 0.23763 0.0
H828 H 0.98506 0.43005 0.26321 0.0
H829 H 0.02307 0.44742 0.27596 0.0
H830 H 0.02688 0.4615 0.25144 0.0
H831 H 0.02451 0.48086 0.20844 0.0
H832 H 0.02346 0.49941 0.20862 0.0
H833 H 0.99437 0.48353 0.24645 0.0
N834 N 0.01132 0.46087 0.22678 0.0
H835 H 0.9949 0.46479 0.24509 0.0
C836 C 0.00795 0.54268 0.21281 0.0
C837 C 0.01679 0.55379 0.20628 0.0
C838 C 0.01476 0.55839 0.1902 0.0
C839 C 0.00384 0.55187 0.1802 0.0
C840 C 0.99507 0.54058 0.18664 0.0
C841 C 0.99707 0.53608 0.20288 0.0
C842 C 0.00816 0.5437 0.24685 0.0
C843 C -0.00056 0.54721 0.24774 0.0
C844 C -0.00011 0.5549 0.26204 0.0
C845 C 0.00885 0.55895 0.27601 0.0
C846 C 0.01655 0.55411 0.27621 0.0
C847 C 0.01634 0.54675 0.26162 0.0
C848 C 0.00946 0.52717 0.23055 0.0
C849 C 0.02009 0.5269 0.22894 0.0
C850 C 0.01993 0.51589 0.22844 0.0
C851 C 0.00906 0.50485 0.22917 0.0
C852 C 0.99838 0.50519 0.23114 0.0
C853 C 0.99861 0.51629 0.23201 0.0
C854 C 0.00907 0.45417 0.20967 0.0
C855 C 0.01748 0.45107 0.20389 0.0
C856 C 0.01557 0.44434 0.18764 0.0
C857 C 0.00523 0.44069 0.17658 0.0
C858 C 0.99672 0.44377 0.1825 0.0
C859 C 0.99857 0.45036 0.19901 0.0
C860 C 0.0084 0.45366 0.24289 0.0
C861 C 0.9966 0.44472 0.24639 0.0
C862 C 0.99425 0.43684 0.2609 0.0
C863 C 0.0037 0.43748 0.27176 0.0
C864 C 0.01546 0.44672 0.26838 0.0
C865 C 0.01773 0.45476 0.25421 0.0
C866 C 0.00993 0.47142 0.2268 0.0
C867 C 0.01782 0.48136 0.21659 0.0
C868 C 0.01728 0.49202 0.21691 0.0
C869 C 0.00897 0.49312 0.22785 0.0
C870 C 0.00084 0.48304 0.23776 0.0
C871 C 0.00122 0.47226 0.23711 0.0
H872 H 0.56987 0.52467 0.23298 0.0
N873 N 0.54909 0.51847 0.2482 0.0
H874 H 0.57727 0.53498 0.20393 0.0
H875 H 0.53624 0.52332 0.22254 0.0
H876 H 0.54344 0.53331 0.19365 0.0
H877 H 0.54411 0.53703 0.25006 0.0
H878 H 0.554 0.5547 0.2705 0.0
H879 H 0.56144 0.52049 0.27885 0.0
H880 H 0.57075 0.53782 0.3005 0.0
H881 H 0.54585 0.4963 0.24903 0.0
H882 H 0.52675 0.51595 0.25027 0.0
H883 H 0.52697 0.47717 0.24746 0.0
H884 H 0.5078 0.49697 0.24695 0.0
H885 H 0.4671 0.4199 0.21394 0.0
H886 H 0.45845 0.41372 0.18277 0.0
H887 H 0.45912 0.44776 0.17739 0.0
H888 H 0.46797 0.45395 0.20854 0.0
H889 H 0.45461 0.44626 0.23375 0.0
H890 H 0.43682 0.43686 0.25237 0.0
H891 H 0.44996 0.41554 0.27883 0.0
H892 H 0.46772 0.42484 0.25976 0.0
H893 H 0.49373 0.44633 0.22112 0.0
H894 H 0.51219 0.46548 0.22623 0.0
H895 H 0.49318 0.47893 0.25845 0.0
N896 N 0.47208 0.44003 0.23253 0.0
H897 H 0.47464 0.46014 0.25201 0.0
C898 C 0.55253 0.52318 0.23004 0.0
C899 C 0.56401 0.52637 0.22427 0.0
C900 C 0.5682 0.53222 0.20768 0.0
C901 C 0.56095 0.53502 0.19657 0.0
C902 C 0.54929 0.53142 0.20203 0.0
C903 C 0.54512 0.52558 0.21858 0.0
C904 C 0.55232 0.52755 0.26262 0.0
C905 C 0.54978 0.53703 0.26113 0.0
C906 C 0.5554 0.54715 0.27307 0.0
C907 C 0.56346 0.5479 0.28701 0.0
C908 C 0.56495 0.5378 0.28957 0.0
C909 C 0.55952 0.52779 0.27738 0.0
C910 C 0.53772 0.50751 0.24937 0.0
C911 C 0.53753 0.49644 0.24892 0.0
C912 C 0.5267 0.48552 0.24774 0.0
C913 C 0.51576 0.48543 0.24651 0.0
C914 C 0.51598 0.49659 0.24787 0.0
C915 C 0.52685 0.50752 0.24956 0.0
C916 C 0.4681 0.4373 0.21354 0.0
C917 C 0.46554 0.42608 0.2059 0.0
C918 C 0.46064 0.42259 0.18812 0.0
C919 C 0.45808 0.43025 0.1777 0.0
C920 C 0.4609 0.44164 0.1852 0.0
C921 C 0.46597 0.44519 0.20294 0.0
C922 C 0.46243 0.43609 0.24519 0.0
C923 C 0.45374 0.43963 0.24358 0.0
C924 C 0.44358 0.43426 0.25425 0.0
C925 C 0.44199 0.42541 0.26688 0.0
C926 C 0.451 0.42239 0.26924 0.0
C927 C 0.46111 0.42766 0.25839 0.0
C928 C 0.48274 0.45164 0.23612 0.0
C929 C 0.49355 0.45345 0.22919 0.0
C930 C 0.50415 0.4644 0.23237 0.0
C931 C 0.50431 0.4738 0.24304 0.0
C932 C 0.49345 0.472 0.25001 0.0
C933 C 0.48276 0.46111 0.24642 0.0
H934 H 0.53545 0.99204 0.21915 0.0
N935 N 0.53357 0.00843 0.24161 0.0
H936 H 0.54449 0.99587 0.18918 0.0
H937 H 0.54234 0.02881 0.22302 0.0
H938 H 0.55188 0.03284 0.19298 0.0
H939 H 0.55403 0.02356 0.25891 0.0
H940 H 0.56752 0.01852 0.27542 0.0
H941 H 0.52798 0.9855 0.25257 0.0
H942 H 0.54116 0.98045 0.26943 0.0
H943 H 0.51657 0.98573 0.22828 0.0
H944 H 0.52143 0.01796 0.25653 0.0
H945 H 0.49512 0.97713 0.22828 0.0
H946 H 0.49975 0.00963 0.25566 0.0
H947 H 0.42552 0.95838 0.21389 0.0
H948 H 0.41726 0.96188 0.18583 0.0
H949 H 0.4475 0.99837 0.1848 0.0
H950 H 0.45518 0.99499 0.21351 0.0
H951 H 0.44722 0.99616 0.24403 0.0
H952 H 0.4338 0.99917 0.26392 0.0
H953 H 0.41481 0.96089 0.27492 0.0
H954 H 0.42816 0.95794 0.25465 0.0
H955 H 0.45909 0.97161 0.21004 0.0
H956 H 0.48049 0.97959 0.21297 0.0
H957 H 0.48092 0.99471 0.26671 0.0
N958 N 0.44475 0.97429 0.2335 0.0
H959 H 0.45968 0.98725 0.26353 0.0
C960 C 0.53804 0.01012 0.22324 0.0
C961 C 0.53862 0.00085 0.21338 0.0
C962 C 0.54383 0.00306 0.19622 0.0
C963 C 0.54878 0.01462 0.18874 0.0
C964 C 0.54807 0.02384 0.19845 0.0
C965 C 0.54264 0.02156 0.21552 0.0
C966 C 0.53998 0.00501 0.2544 0.0
C967 C 0.55107 0.01415 0.26156 0.0
C968 C 0.55876 0.01124 0.271 0.0
C969 C 0.55549 0.99906 0.27357 0.0
C970 C 0.54407 0.98992 0.26734 0.0
C971 C 0.53642 0.99284 0.25779 0.0
C972 C 0.52072 0.00253 0.24265 0.0
C973 C 0.51308 0.99097 0.23466 0.0
C974 C 0.5007 0.98609 0.23444 0.0
C975 C 0.49564 0.99272 0.24178 0.0
C976 C 0.50328 0.00418 0.25007 0.0
C977 C 0.51568 0.00899 0.25053 0.0
C978 C 0.44099 0.97632 0.21573 0.0
C979 C 0.43039 0.96708 0.20745 0.0
C980 C 0.42573 0.96911 0.19133 0.0
C981 C 0.43168 0.98043 0.18292 0.0
C982 C 0.44251 0.98961 0.191 0.0
C983 C 0.44703 0.98764 0.20734 0.0
C984 C 0.43861 0.97677 0.24783 0.0
C985 C 0.4403 0.98847 0.25099 0.0
C986 C 0.43267 0.99018 0.26244 0.0
C987 C 0.42317 0.98024 0.27082 0.0
C988 C 0.42194 0.96869 0.26844 0.0
C989 C 0.4296 0.967 0.25703 0.0
C990 C 0.4576 0.97925 0.23599 0.0
C991 C 0.46378 0.97684 0.22235 0.0
C992 C 0.47605 0.98127 0.22418 0.0
C993 C 0.4825 0.9879 0.24005 0.0
C994 C 0.47631 0.98993 0.25408 0.0
C995 C 0.46402 0.98562 0.25217 0.0
H996 H 0.44366 0.96579 0.79961 0.0
N997 N 0.45931 0.98375 0.77954 0.0
H998 H 0.43702 0.96728 0.83032 0.0
H999 H 0.46836 0.00429 0.80145 0.0
H1000 H 0.46234 0.0058 0.83233 0.0
H1001 H 0.46699 0.00712 0.7698 0.0
H1002 H 0.45532 0.01384 0.75181 0.0
H1003 H 0.43994 0.96989 0.75902 0.0
H1004 H 0.42839 0.97645 0.74041 0.0
H1005 H 0.462 0.96549 0.76802 0.0
H1006 H 0.48196 0.0034 0.78369 0.0
H1007 H 0.48058 0.96491 0.7666 0.0
H1008 H 0.50045 0.00275 0.78378 0.0
H1009 H 0.53773 0.96436 0.80491 0.0
H1010 H 0.54672 0.96729 0.8358 0.0
H1011 H 0.55025 0.0028 0.83987 0.0
H1012 H 0.54108 -0.0003 0.80903 0.0
H1013 H 0.55281 0.00337 0.78232 0.0
H1014 H 0.56959 0.00991 0.76201 0.0
H1015 H 0.55367 0.97356 0.73866 0.0
H1016 H 0.5369 0.96701 0.75942 0.0
H1017 H 0.51209 0.96316 0.79154 0.0
H1018 H 0.49404 0.96452 0.78771 0.0
H1019 H 0.51531 0.00106 0.76851 0.0
N1020 N 0.53442 0.98005 0.78594 0.0
H1021 H 0.53334 -0.00016 0.77356 0.0
C1022 C 0.45653 0.98485 0.79827 0.0
C1023 C 0.44783 0.9745 0.80683 0.0
C1024 C 0.44412 0.97538 0.82442 0.0
C1025 C 0.44914 0.98668 0.83384 0.0
C1026 C 0.45816 0.99699 0.8254 0.0
C1027 C 0.46174 0.99611 0.80774 0.0
C1028 C 0.45422 0.98798 0.76588 0.0
C1029 C 0.45869 0.00039 0.76318 0.0
C1030 C 0.45202 0.00421 0.75281 0.0
C1031 C 0.44081 0.99568 0.74497 0.0
C1032 C 0.43685 0.98326 0.74662 0.0
C1033 C 0.44348 0.97948 0.75704 0.0
C1034 C 0.47054 0.98437 0.77629 0.0
C1035 C 0.47043 0.9737 0.77106 0.0
C1036 C 0.48105 0.97337 0.77052 0.0
C1037 C 0.49205 0.9837 0.77557 0.0
C1038 C 0.4922 0.99461 0.77979 0.0
C1039 C 0.48155 0.99497 0.77996 0.0
C1040 C 0.5388 0.98179 0.80469 0.0
C1041 C 0.54031 0.97269 0.8126 0.0
C1042 C 0.54541 0.97438 0.83021 0.0
C1043 C 0.54922 0.98529 0.84019 0.0
C1044 C 0.5475 0.99435 0.83239 0.0
C1045 C 0.54225 0.99259 0.81482 0.0
C1046 C 0.54358 0.98463 0.77241 0.0
C1047 C 0.55278 0.99683 0.77266 0.0
C1048 C 0.56238 0.00059 0.76094 0.0
C1049 C 0.563 0.99224 0.7488 0.0
C1050 C 0.55352 0.98017 0.74803 0.0
C1051 C 0.54391 0.97643 0.75974 0.0
C1052 C 0.52405 0.98128 0.7827 0.0
C1053 C 0.51282 0.97144 0.78646 0.0
C1054 C 0.50249 0.97222 0.78406 0.0
C1055 C 0.50313 0.98287 0.77754 0.0
C1056 C 0.51444 0.99275 0.77369 0.0
C1057 C 0.52481 0.99202 0.77642 0.0
H1058 H 0.99357 0.55622 0.79341 0.0
N1059 N 0.01269 0.55337 0.78522 0.0
H1060 H 0.99143 0.56601 0.82092 0.0
H1061 H 0.02705 0.5612 0.815 0.0
H1062 H 0.0247 0.57045 0.84315 0.0
H1063 H 0.02506 0.57609 0.77444 0.0
H1064 H 0.01901 0.58588 0.75166 0.0
H1065 H 0.99457 0.54143 0.75835 0.0
H1066 H 0.9889 0.55103 0.73512 0.0
H1067 H 0.98981 0.53515 0.79094 0.0
H1068 H 0.0256 0.54258 0.78088 0.0
H1069 H 0.98293 0.51361 0.79222 0.0
H1070 H 0.01899 0.52102 0.78331 0.0
H1071 H 0.97082 0.4489 0.82055 0.0
H1072 H 0.97795 0.44201 0.84652 0.0
H1073 H 0.01446 0.46678 0.83226 0.0
H1074 H 0.00723 0.47375 0.80646 0.0
H1075 H 0.00069 0.46065 0.77931 0.0
H1076 H 0.99698 0.44565 0.75534 0.0
H1077 H 0.96023 0.43735 0.7501 0.0
H1078 H 0.96393 0.45205 0.77504 0.0
H1079 H 0.97626 0.47771 0.8131 0.0
H1080 H 0.98338 0.49931 0.81078 0.0
H1081 H 0.00816 0.50177 0.76946 0.0
N1082 N 0.98384 0.46463 0.79546 0.0
H1083 H 0.00154 0.48038 0.77289 0.0
C1084 C 0.01063 0.55816 0.80203 0.0
C1085 C 0.0004 0.55928 0.80421 0.0
C1086 C -0.00086 0.56481 0.82008 0.0
C1087 C 0.00794 0.56915 0.83427 0.0
C1088 C 0.01788 0.56751 0.83235 0.0
C1089 C 0.01921 0.56213 0.81636 0.0
C1090 C 0.0102 0.55809 0.76876 0.0
C1091 C 0.01728 0.57053 0.76566 0.0
C1092 C 0.01382 0.57611 0.75249 0.0
C1093 C 0.00328 0.56929 0.74176 0.0
C1094 C 0.99684 0.55664 0.74357 0.0
C1095 C 0.00016 0.55109 0.757 0.0
C1096 C 0.00825 0.54048 0.7856 0.0
C1097 C 0.99622 0.53214 0.7891 0.0
C1098 C 0.99232 0.51978 0.79001 0.0
C1099 C 0.00039 0.51549 0.78798 0.0
C1100 C 0.01244 0.5239 0.78459 0.0
C1101 C 0.01628 0.53625 0.78331 0.0
C1102 C 0.98845 0.46172 0.81155 0.0
C1103 C 0.98035 0.45296 0.82325 0.0
C1104 C 0.98444 0.44909 0.83808 0.0
C1105 C 0.99676 0.45386 0.84137 0.0
C1106 C 0.00492 0.46291 0.82994 0.0
C1107 C 0.0008 0.46689 0.81523 0.0
C1108 C 0.98248 0.4573 0.77928 0.0
C1109 C 0.99185 0.45569 0.77299 0.0
C1110 C 0.98973 0.44716 0.75902 0.0
C1111 C 0.97825 0.44014 0.75086 0.0
C1112 C 0.96911 0.44238 0.75634 0.0
C1113 C 0.97122 0.45084 0.77047 0.0
C1114 C 0.98819 0.47735 0.79305 0.0
C1115 C 0.98323 0.48295 0.80356 0.0
C1116 C 0.98726 0.49529 0.80206 0.0
C1117 C 0.99627 0.50234 0.78974 0.0
C1118 C 0.0013 0.49671 0.77924 0.0
C1119 C 0.9974 0.48437 0.78102 0.0
H1120 H 0.47665 0.46016 0.79677 0.0
N1121 N 0.47483 0.47619 0.77612 0.0
H1122 H 0.4662 0.45136 0.82522 0.0
H1123 H 0.46087 0.483 0.795 0.0
H1124 H 0.45035 0.4742 0.82318 0.0
H1125 H 0.45232 0.47182 0.76676 0.0
H1126 H 0.43854 0.45611 0.74518 0.0
H1127 H 0.48084 0.46604 0.74936 0.0
H1128 H 0.46738 0.45103 0.72634 0.0
H1129 H 0.49825 0.48599 0.77967 0.0
H1130 H 0.47058 0.49481 0.76964 0.0
H1131 H 0.51324 0.50751 0.78153 0.0
H1132 H 0.4854 0.51648 0.77261 0.0
H1133 H 0.55392 0.56206 0.808 0.0
H1134 H 0.56274 0.5707 0.83805 0.0
H1135 H 0.53865 0.5848 0.8434 0.0
H1136 H 0.52958 0.57578 0.81315 0.0
H1137 H 0.54701 0.58569 0.77467 0.0
H1138 H 0.56505 0.5945 0.75654 0.0
H1139 H 0.56451 0.5603 0.75655 0.0
H1140 H 0.54685 0.55177 0.77526 0.0
H1141 H 0.53401 0.54429 0.80842 0.0
H1142 H 0.5188 0.52339 0.80333 0.0
H1143 H 0.5025 0.53371 0.76025 0.0
N1144 N 0.53624 0.56406 0.78975 0.0
H1145 H 0.51767 0.55503 0.76609 0.0
C1146 C 0.46949 0.47214 0.7937 0.0
C1147 C 0.47107 0.46338 0.80267 0.0
C1148 C 0.46515 0.45842 0.8189 0.0
C1149 C 0.45744 0.46209 0.82632 0.0
C1150 C 0.45617 0.47116 0.81765 0.0
C1151 C 0.46221 0.47621 0.80154 0.0
C1152 C 0.46753 0.46975 0.76016 0.0
C1153 C 0.45573 0.46743 0.7579 0.0
C1154 C 0.44784 0.45847 0.74528 0.0
C1155 C 0.45169 0.45193 0.73433 0.0
C1156 C 0.46393 0.45548 0.73504 0.0
C1157 C 0.4717 0.46418 0.748 0.0
C1158 C 0.48337 0.48887 0.77484 0.0
C1159 C 0.49546 0.49264 0.77781 0.0
C1160 C 0.50396 0.50494 0.77909 0.0
C1161 C 0.5005 0.51376 0.7777 0.0
C1162 C 0.48839 0.50995 0.77379 0.0
C1163 C 0.47988 0.49757 0.77225 0.0
C1164 C 0.54103 0.56828 0.80822 0.0
C1165 C 0.55043 0.56692 0.81559 0.0
C1166 C 0.55555 0.57196 0.8328 0.0
C1167 C 0.55151 0.57858 0.84305 0.0
C1168 C 0.54192 0.57969 0.8359 0.0
C1169 C 0.53674 0.57457 0.81864 0.0
C1170 C 0.54551 0.56811 0.77634 0.0
C1171 C 0.55066 0.58005 0.77041 0.0
C1172 C 0.56096 0.58504 0.76001 0.0
C1173 C 0.56631 0.57813 0.75521 0.0
C1174 C 0.56076 0.56594 0.76029 0.0
C1175 C 0.55052 0.56099 0.77083 0.0
C1176 C 0.527 0.55144 0.78772 0.0
C1177 C 0.52717 0.54226 0.79802 0.0
C1178 C 0.51847 0.53015 0.7949 0.0
C1179 C 0.50948 0.52679 0.7812 0.0
C1180 C 0.50923 0.53595 0.77102 0.0
C1181 C 0.5179 0.54813 0.77429 0.0
H1182 H 0.67812 0.87917 0.55577 0.0
N1183 N 0.6618 0.86008 0.57314 0.0
H1184 H 0.67554 0.88751 0.52722 0.0
H1185 H 0.64141 0.85033 0.55122 0.0
H1186 H 0.63889 0.85817 0.52228 0.0
H1187 H 0.6415 0.86054 0.58183 0.0
H1188 H 0.64019 0.87378 0.60527 0.0
H1189 H 0.67779 0.87258 0.59964 0.0
H1190 H 0.67661 0.88587 0.62307 0.0
H1191 H 0.67662 0.8516 0.56969 0.0
H1192 H 0.63977 0.84044 0.5793 0.0
H1193 H 0.6718 0.83047 0.56926 0.0
H1194 H 0.63462 0.81919 0.57773 0.0
H1195 H 0.66315 0.77643 0.55379 0.0
H1196 H 0.66512 0.76731 0.52544 0.0
H1197 H 0.62701 0.75041 0.5149 0.0
H1198 H 0.62515 0.75988 0.54331 0.0
H1199 H 0.6333 0.75235 0.58443 0.0
H1200 H 0.64356 0.74581 0.60569 0.0
H1201 H 0.67411 0.78215 0.60785 0.0
H1202 H 0.66411 0.78836 0.58569 0.0
H1203 H 0.6584 0.79283 0.54757 0.0
H1204 H 0.66233 0.81338 0.54967 0.0
H1205 H 0.6362 0.80343 0.59202 0.0
N1206 N 0.64236 0.77351 0.56807 0.0
H1207 H 0.63174 0.7824 0.58908 0.0
C1208 C 0.66006 0.8641 0.55557 0.0
C1209 C 0.66957 0.87452 0.5484 0.0
C1210 C 0.66808 0.87921 0.53202 0.0
C1211 C 0.65701 0.87349 0.52233 0.0
C1212 C 0.6475 0.86291 0.52944 0.0
C1213 C 0.64898 0.85831 0.54596 0.0
C1214 C 0.65984 0.86572 0.58893 0.0
C1215 C 0.64908 0.86579 0.5911 0.0
C1216 C 0.64836 0.8734 0.60445 0.0
C1217 C 0.65833 0.88096 0.61591 0.0
C1218 C 0.66873 0.88009 0.61461 0.0
C1219 C 0.66946 0.87255 0.6012 0.0
C1220 C 0.65858 0.84756 0.57426 0.0
C1221 C 0.66747 0.84453 0.57165 0.0
C1222 C 0.66465 0.83244 0.5712 0.0
C1223 C 0.65276 0.82306 0.57307 0.0
C1224 C 0.64387 0.82615 0.57629 0.0
C1225 C 0.64678 0.83831 0.57703 0.0
C1226 C 0.64393 0.76882 0.55073 0.0
C1227 C 0.6552 0.77081 0.54539 0.0
C1228 C 0.65632 0.76551 0.52918 0.0
C1229 C 0.64621 0.75803 0.51795 0.0
C1230 C 0.63499 0.75622 0.52314 0.0
C1231 C 0.63389 0.76158 0.53937 0.0
C1232 C 0.64785 0.77078 0.58335 0.0
C1233 C 0.64211 0.75894 0.58981 0.0
C1234 C 0.648 0.75525 0.60208 0.0
C1235 C 0.65976 0.76341 0.60841 0.0
C1236 C 0.66518 0.77554 0.60297 0.0
C1237 C 0.65937 0.77916 0.5904 0.0
C1238 C 0.64459 0.78584 0.56811 0.0
C1239 C 0.65331 0.79484 0.55716 0.0
C1240 C 0.65571 0.80678 0.55856 0.0
C1241 C 0.6497 0.81016 0.57119 0.0
C1242 C 0.64092 0.80116 0.582 0.0
C1243 C 0.63838 0.78914 0.58039 0.0
H1244 H 0.23537 0.86151 0.55527 0.0
N1245 N 0.21551 0.85377 0.57401 0.0
H1246 H 0.24055 0.8727 0.52671 0.0
H1247 H 0.20059 0.85844 0.55271 0.0
H1248 H 0.20558 0.86939 0.52413 0.0
H1249 H 0.21011 0.87174 0.58053 0.0
H1250 H 0.22047 0.88861 0.6023 0.0
H1251 H 0.22975 0.85529 0.60192 0.0
H1252 H 0.23965 0.8718 0.62489 0.0
H1253 H 0.21241 0.83186 0.56792 0.0
H1254 H 0.1936 0.85045 0.5836 0.0
H1255 H 0.19369 0.81248 0.56777 0.0
H1256 H 0.17475 0.83116 0.58292 0.0
H1257 H 0.13313 0.75342 0.55124 0.0
H1258 H 0.12227 0.74582 0.52179 0.0
H1259 H 0.12088 0.77887 0.51671 0.0
H1260 H 0.13224 0.78657 0.54574 0.0
H1261 H 0.12475 0.78411 0.57564 0.0
H1262 H 0.10721 0.77564 0.59486 0.0
H1263 H 0.11463 0.74758 0.61141 0.0
H1264 H 0.13225 0.75623 0.59226 0.0
H1265 H 0.1575 0.78285 0.54668 0.0
H1266 H 0.17588 0.8023 0.54885 0.0
H1267 H 0.16354 0.8117 0.59781 0.0
N1268 N 0.13886 0.7741 0.5689 0.0
H1269 H 0.14506 0.79244 0.59552 0.0
C1270 C 0.21764 0.85911 0.55615 0.0
C1271 C 0.22879 0.86305 0.54835 0.0
C1272 C 0.23169 0.8694 0.53202 0.0
C1273 C 0.22348 0.87196 0.52319 0.0
C1274 C 0.21215 0.86768 0.53072 0.0
C1275 C 0.20925 0.86131 0.54704 0.0
C1276 C 0.21939 0.86236 0.58929 0.0
C1277 C 0.21643 0.87158 0.59026 0.0
C1278 C 0.22233 0.88123 0.60296 0.0
C1279 C 0.23114 0.88177 0.61524 0.0
C1280 C 0.23322 0.87193 0.61531 0.0
C1281 C 0.22747 0.86239 0.60236 0.0
C1282 C 0.20442 0.84256 0.5757 0.0
C1283 C 0.20422 0.83172 0.57143 0.0
C1284 C 0.1935 0.82069 0.57118 0.0
C1285 C 0.18268 0.82028 0.57508 0.0
C1286 C 0.18293 0.83114 0.57994 0.0
C1287 C 0.19371 0.8422 0.58027 0.0
C1288 C 0.13342 0.77047 0.55071 0.0
C1289 C 0.13061 0.75905 0.54359 0.0
C1290 C 0.12429 0.7547 0.52688 0.0
C1291 C 0.12054 0.76166 0.51698 0.0
C1292 C 0.12368 0.77329 0.5239 0.0
C1293 C 0.13008 0.77767 0.54058 0.0
C1294 C 0.12981 0.77076 0.58252 0.0
C1295 C 0.1227 0.77625 0.58361 0.0
C1296 C 0.11265 0.77136 0.59455 0.0
C1297 C 0.10945 0.76086 0.60453 0.0
C1298 C 0.1169 0.75575 0.60408 0.0
C1299 C 0.12696 0.76066 0.59315 0.0
C1300 C 0.14943 0.78612 0.57033 0.0
C1301 C 0.15858 0.78916 0.5577 0.0
C1302 C 0.16921 0.80026 0.55911 0.0
C1303 C 0.17118 0.80859 0.57349 0.0
C1304 C 0.16219 0.80558 0.58635 0.0
C1305 C 0.1515 0.79446 0.58492 0.0
H1306 H 0.19026 0.31197 0.53848 0.0
N1307 N 0.18939 0.32509 0.56642 0.0
H1308 H 0.20215 0.31936 0.5109 0.0
H1309 H 0.20212 0.34877 0.55635 0.0
H1310 H 0.21416 0.35626 0.52891 0.0
H1311 H 0.21037 0.34343 0.58186 0.0
H1312 H 0.22482 0.34079 0.59997 0.0
H1313 H 0.18554 0.305 0.58266 0.0
H1314 H 0.1998 0.3023 0.60164 0.0
H1315 H 0.16772 0.31613 0.55178 0.0
H1316 H 0.19225 0.34302 0.59129 0.0
H1317 H 0.15377 0.32346 0.55584 0.0
H1318 H 0.17801 0.34993 0.59645 0.0
H1319 H 0.11108 0.33748 0.56521 0.0
H1320 H 0.10092 0.33473 0.53567 0.0
H1321 H 0.13161 0.3672 0.51663 0.0
H1322 H 0.1415 0.37021 0.5468 0.0
H1323 H 0.12366 0.37078 0.58333 0.0
H1324 H 0.10628 0.36592 0.60164 0.0
H1325 H 0.10664 0.33435 0.62156 0.0
H1326 H 0.12363 0.33896 0.60303 0.0
H1327 H 0.12665 0.33272 0.57296 0.0
H1328 H 0.14008 0.32462 0.57408 0.0
H1329 H 0.17011 0.36093 0.58285 0.0
N1330 N 0.13286 0.35666 0.57628 0.0
H1331 H 0.15632 0.36882 0.58314 0.0
C1332 C 0.19541 0.32978 0.54948 0.0
C1333 C 0.19529 0.32163 0.53625 0.0
C1334 C 0.20202 0.32587 0.52051 0.0
C1335 C 0.20908 0.33839 0.51781 0.0
C1336 C 0.20885 0.34657 0.53074 0.0
C1337 C 0.20199 0.3423 0.54641 0.0
C1338 C 0.19686 0.32434 0.58069 0.0
C1339 C 0.20786 0.33445 0.58638 0.0
C1340 C 0.21614 0.33292 0.59688 0.0
C1341 C 0.21358 0.32129 0.60204 0.0
C1342 C 0.2022 0.31135 0.59755 0.0
C1343 C 0.19396 0.31288 0.58691 0.0
C1344 C 0.18097 0.32889 0.57125 0.0
C1345 C 0.16993 0.32342 0.56172 0.0
C1346 C 0.16192 0.3276 0.56419 0.0
C1347 C 0.16465 0.33729 0.5766 0.0
C1348 C 0.17563 0.34258 0.58659 0.0
C1349 C 0.18377 0.33852 0.5838 0.0
C1350 C 0.12705 0.3542 0.55831 0.0
C1351 C 0.11567 0.344 0.55468 0.0
C1352 C 0.10988 0.34238 0.53765 0.0
C1353 C 0.11539 0.35078 0.52371 0.0
C1354 C 0.12697 0.36069 0.52714 0.0
C1355 C 0.1327 0.36239 0.5443 0.0
C1356 C 0.12485 0.35512 0.59106 0.0
C1357 C 0.12017 0.36297 0.592 0.0
C1358 C 0.11022 0.36017 0.60253 0.0
C1359 C 0.10484 0.34953 0.61269 0.0
C1360 C 0.1103 0.34237 0.61335 0.0
C1361 C 0.12015 0.34508 0.60263 0.0
C1362 C 0.14047 0.35143 0.57824 0.0
C1363 C 0.13608 0.33893 0.57551 0.0
C1364 C 0.14385 0.33431 0.57593 0.0
C1365 C 0.15628 0.34209 0.57834 0.0
C1366 C 0.16062 0.35458 0.58128 0.0
C1367 C 0.15277 0.35916 0.58133 0.0
C1368 C 0.98336 0.37661 0.03679 0.0
C1369 C 0.99338 0.37638 0.02998 0.0
C1370 C 0.98434 0.38317 0.05292 0.0
C1371 C 0.00531 0.40972 0.07961 0.0
H1372 H 0.98429 0.3953 0.12042 0.0
C1373 C 0.01325 0.43589 0.14838 0.0
C1374 C 0.00341 0.43365 0.15908 0.0
C1375 C 0.01175 0.42889 0.13256 0.0
C1376 C 0.9901 0.39956 0.10904 0.0
H1377 H 0.01225 0.38279 0.03481 0.0
H1378 H 0.01401 0.39456 0.0628 0.0
H1379 H 0.98214 0.38287 0.09319 0.0
H1380 H 0.98416 0.42236 0.16105 0.0
H1381 H 0.98145 0.41063 0.13289 0.0
H1382 H 0.013 0.42649 0.09488 0.0
C1383 C 0.0054 0.38953 0.05568 0.0
C1384 C 0.98891 0.39239 0.09352 0.0
C1385 C 0.00437 0.38275 0.03975 0.0
C1386 C 0.99195 0.42444 0.15314 0.0
C1387 C 0.99042 0.41755 0.1371 0.0
C1388 C 0.00635 0.41695 0.09494 0.0
C1389 C 0.9954 0.38984 0.06234 0.0
C1390 C 0.99658 0.39739 0.07876 0.0
C1391 C 0.00033 0.41958 0.12669 0.0
C1392 C 0.99884 0.41196 0.10998 0.0
H1393 H 0.97476 0.37175 0.02959 0.0
H1394 H 0.97652 0.38332 0.05776 0.0
H1395 H 0.01121 0.41382 0.06825 0.0
H1396 H 0.02219 0.44306 0.15223 0.0
H1397 H 0.01964 0.43067 0.12516 0.0
C1398 C 0.61581 0.6022 0.07143 0.0
C1399 C 0.61506 0.61282 0.07229 0.0
C1400 C 0.60874 0.59246 0.08251 0.0
C1401 C 0.58201 0.5793 0.1112 0.0
H1402 H 0.59885 0.56612 0.13823 0.0
C1403 C 0.56368 0.55198 0.17663 0.0
C1404 C 0.56578 0.54236 0.17999 0.0
C1405 C 0.56873 0.55938 0.16165 0.0
C1406 C 0.59394 0.56952 0.13056 0.0
H1407 H 0.60601 0.62141 0.08503 0.0
H1408 H 0.59365 0.6044 0.10439 0.0
H1409 H 0.60924 0.58116 0.11508 0.0
H1410 H 0.57453 0.53273 0.16996 0.0
H1411 H 0.58329 0.54563 0.14362 0.0
H1412 H 0.56674 0.56775 0.12686 0.0
C1413 C 0.59966 0.60357 0.09504 0.0
C1414 C 0.5999 0.57816 0.1173 0.0
C1415 C 0.60677 0.61334 0.08399 0.0
C1416 C 0.57287 0.54016 0.16783 0.0
C1417 C 0.57789 0.54755 0.15277 0.0
C1418 C 0.57602 0.57061 0.12442 0.0
C1419 C 0.60073 0.59312 0.09466 0.0
C1420 C 0.59406 0.58327 0.10767 0.0
C1421 C 0.57598 0.55733 0.14962 0.0
C1422 C 0.58197 0.56575 0.13445 0.0
H1423 H 0.62206 0.60148 0.06249 0.0
H1424 H 0.60964 0.58446 0.08175 0.0
H1425 H 0.57723 0.58296 0.10381 0.0
H1426 H 0.55844 0.55404 0.18593 0.0
H1427 H 0.56726 0.56696 0.15986 0.0
C1428 C 0.37985 0.98865 0.04541 0.0
C1429 C 0.38489 0.00049 0.03888 0.0
C1430 C 0.38442 0.9864 0.06145 0.0
C1431 C 0.40043 -0.00038 0.1046 0.0
H1432 H 0.41219 0.97706 0.10009 0.0
C1433 C 0.42768 0.99427 0.16345 0.0
C1434 C 0.4264 0.98277 0.16619 0.0
C1435 C 0.4225 0.99639 0.14802 0.0
C1436 C 0.40876 0.98321 0.10177 0.0
H1437 H 0.39833 0.01931 0.0444 0.0
H1438 H 0.40606 0.01538 0.07281 0.0
H1439 H 0.40265 0.98056 0.07362 0.0
H1440 H 0.4187 0.96453 0.15443 0.0
H1441 H 0.40908 0.96801 0.12827 0.0
H1442 H 0.40609 0.00202 0.13283 0.0
C1443 C 0.39869 0.00786 0.06533 0.0
C1444 C 0.40336 0.98525 0.08653 0.0
C1445 C 0.39429 0.01009 0.04907 0.0
C1446 C 0.41976 0.97346 0.15302 0.0
C1447 C 0.41438 0.97552 0.13777 0.0
C1448 C 0.40561 0.9974 0.11996 0.0
C1449 C 0.39393 0.99598 0.07144 0.0
C1450 C 0.39922 0.99353 0.0878 0.0
C1451 C 0.41568 0.98702 0.13502 0.0
C1452 C 0.40994 0.98923 0.11873 0.0
H1453 H 0.37264 0.98107 0.03781 0.0
H1454 H 0.38059 0.97717 0.06599 0.0
H1455 H 0.39722 0.00599 0.1059 0.0
H1456 H 0.43255 0.00164 0.17337 0.0
H1457 H 0.42392 0.00543 0.14628 0.0
C1458 C 0.38669 0.98118 0.96113 0.0
C1459 C 0.38541 0.99149 0.96137 0.0
C1460 C 0.3956 0.98092 0.95086 0.0
C1461 C 0.42303 0.00027 0.92459 0.0
H1462 H 0.41237 0.97061 0.8957 0.0
C1463 C 0.44297 0.99786 0.85568 0.0
C1464 C 0.44442 0.98782 0.85179 0.0
C1465 C 0.43763 0.99852 0.87182 0.0
C1466 C 0.41557 0.97888 0.90391 0.0
H1467 H 0.39268 0.00977 0.95163 0.0
H1468 H 0.40798 0.00922 0.93329 0.0
H1469 H 0.39955 0.97139 0.91911 0.0
H1470 H 0.44186 0.97088 0.86235 0.0
H1471 H 0.43223 0.97192 0.89038 0.0
H1472 H 0.43882 0.00789 0.90859 0.0
C1473 C 0.40231 0.0014 0.9413 0.0
C1474 C 0.40823 0.97933 0.91737 0.0
C1475 C 0.39348 0.0017 0.95173 0.0
C1476 C 0.44069 0.97863 0.86474 0.0
C1477 C 0.43524 0.97924 0.88082 0.0
C1478 C 0.43032 -0.00016 0.91098 0.0
C1479 C 0.40333 0.99092 0.94045 0.0
C1480 C 0.41177 0.9901 0.92765 0.0
C1481 C 0.43351 0.98912 0.88438 0.0
C1482 C 0.42656 0.9892 0.90029 0.0
H1483 H 0.38068 0.97321 0.9686 0.0
H1484 H 0.39629 0.97279 0.95081 0.0
H1485 H 0.42612 0.00864 0.93248 0.0
H1486 H 0.44552 0.00501 0.84591 0.0
H1487 H 0.43624 0.00615 0.87406 0.0
C1488 C 0.017 0.39515 0.95458 0.0
C1489 C 0.00703 0.38337 0.95332 0.0
C1490 C 0.01759 0.40424 0.94333 0.0
C1491 C 0.00706 0.40836 0.89894 0.0
H1492 H 0.01173 0.43895 0.91867 0.0
C1493 C 0.99596 0.44644 0.8733 0.0
C1494 C 0.00096 0.44868 0.85581 0.0
C1495 C 0.99883 0.44019 0.88612 0.0
C1496 C 0.0105 0.43047 0.913 0.0
H1497 H 0.98991 0.37187 0.93935 0.0
H1498 H 0.99109 0.38765 0.91955 0.0
H1499 H 0.0125 0.42433 0.93942 0.0
H1500 H 0.01319 0.44652 0.83824 0.0
H1501 H 0.01814 0.43549 0.86061 0.0
H1502 H 0.00488 0.41432 0.87262 0.0
C1503 C 0.99838 0.38987 0.92928 0.0
C1504 C 0.011 0.42217 0.92482 0.0
C1505 C 0.99769 0.38087 0.94069 0.0
C1506 C 0.00927 0.44499 0.85166 0.0
C1507 C 0.01203 0.43862 0.86439 0.0
C1508 C 0.00675 0.41671 0.88712 0.0
C1509 C 0.00835 0.40161 0.93043 0.0
C1510 C 0.00903 0.41094 0.91791 0.0
C1511 C 0.00665 0.43594 0.8816 0.0
C1512 C 0.00826 0.42776 0.89406 0.0
H1513 H 0.02431 0.39733 0.96423 0.0
H1514 H 0.02537 0.41325 0.94443 0.0
H1515 H 0.00558 0.39979 0.89329 0.0
H1516 H 0.98959 0.44926 0.87688 0.0
H1517 H 0.9945 0.43817 0.89924 0.0
C1518 C 0.61169 0.62547 0.98425 0.0
C1519 C 0.60523 0.62568 -0.00053 0.0
C1520 C 0.6059 0.62071 0.96723 0.0
C1521 C 0.57808 0.61273 0.94059 0.0
H1522 H 0.58705 0.59293 0.91148 0.0
C1523 C 0.55092 0.58447 0.87604 0.0
C1524 C 0.55755 0.58452 0.86087 0.0
C1525 C 0.55669 0.58978 0.8929 0.0
C1526 C 0.58452 0.59854 0.91936 0.0
H1527 H 0.58755 0.62101 0.00865 0.0
H1528 H 0.57747 0.61257 0.97911 0.0
H1529 H 0.59728 0.60166 0.94091 0.0
H1530 H 0.57547 0.59066 0.85135 0.0
H1531 H 0.58547 0.5998 0.88072 0.0
H1532 H 0.56523 0.60948 0.91905 0.0
C1533 C 0.58705 0.61627 0.98023 0.0
C1534 C 0.5904 0.60357 0.93622 0.0
C1535 C 0.59284 0.62106 0.99722 0.0
C1536 C 0.57007 0.5902 0.86286 0.0
C1537 C 0.57581 0.59546 0.87969 0.0
C1538 C 0.57216 0.60766 0.92375 0.0
C1539 C 0.5935 0.61602 0.96503 0.0
C1540 C 0.58727 0.61074 0.94703 0.0
C1541 C 0.56919 0.59523 0.89494 0.0
C1542 C 0.57534 0.60053 0.91293 0.0
H1543 H 0.62125 0.62901 0.98545 0.0
H1544 H 0.61117 0.62082 0.95574 0.0
H1545 H 0.57556 0.61836 0.94844 0.0
H1546 H 0.54126 0.58008 0.87501 0.0
H1547 H 0.55134 0.58936 0.90446 0.0
C1548 C 0.0167 0.62856 0.97183 0.0
C1549 C 0.00639 0.62764 0.97957 0.0
C1550 C 0.01598 0.6228 0.95502 0.0
C1551 C 0.9961 0.59666 0.92645 0.0
H1552 H 0.0186 0.61351 0.88818 0.0
C1553 C 0.99585 0.57247 0.85817 0.0
C1554 C 0.00701 0.57579 0.85064 0.0
C1555 C 0.99502 0.57902 0.87313 0.0
C1556 C 0.01234 0.60861 0.8988 0.0
H1557 H 0.98725 0.62002 0.97569 0.0
H1558 H 0.98597 0.60965 0.94634 0.0
H1559 H 0.01851 0.62473 0.91554 0.0
H1560 H 0.02605 0.58872 0.85305 0.0
H1561 H 0.02467 0.59966 0.87955 0.0
H1562 H 0.99027 0.58043 0.9102 0.0
C1563 C 0.9946 0.61495 0.95331 0.0
C1564 C 0.01224 0.61508 0.9144 0.0
C1565 C 0.99535 0.62093 0.97002 0.0
C1566 C 0.01731 0.58574 0.8586 0.0
C1567 C 0.0165 0.59219 0.87365 0.0
C1568 C 0.99631 0.59014 0.91095 0.0
C1569 C 0.00492 0.61581 0.94571 0.0
C1570 C 0.00423 0.60914 0.92846 0.0
C1571 C 0.00533 0.58899 0.88104 0.0
C1572 C 0.00455 0.596 0.89703 0.0
H1573 H 0.02534 0.63371 0.97882 0.0
H1574 H 0.02406 0.62353 0.94953 0.0
H1575 H 0.98991 0.59186 0.9372 0.0
H1576 H 0.98773 0.56477 0.85258 0.0
H1577 H 0.98626 0.57634 0.87832 0.0
C1578 C 0.39235 0.40246 0.95066 0.0
C1579 C 0.39027 0.39054 0.9493 0.0
C1580 C 0.40012 0.41125 0.93867 0.0
C1581 C 0.41087 0.41404 0.89248 0.0
H1582 H 0.43748 0.44536 0.90825 0.0
C1583 C 0.45518 0.45355 0.85777 0.0
C1584 C 0.45007 0.4558 0.84222 0.0
C1585 C 0.44797 0.44673 0.87206 0.0
C1586 C 0.43005 0.43665 0.90372 0.0
H1587 H 0.3948 0.37851 0.93453 0.0
H1588 H 0.40814 0.39379 0.91345 0.0
H1589 H 0.42472 0.43103 0.93129 0.0
H1590 H 0.43351 0.45286 0.82949 0.0
H1591 H 0.4209 0.44081 0.85434 0.0
H1592 H 0.4161 0.41959 0.86498 0.0
C1593 C 0.40382 0.39633 0.92383 0.0
C1594 C 0.42275 0.42852 0.91683 0.0
C1595 C 0.39624 0.38763 0.93596 0.0
C1596 C 0.43768 0.45135 0.84139 0.0
C1597 C 0.43047 0.4444 0.85552 0.0
C1598 C 0.41801 0.42222 0.8794 0.0
C1599 C 0.40574 0.40818 0.92496 0.0
C1600 C 0.4132 0.41709 0.91129 0.0
C1601 C 0.43552 0.44189 0.87086 0.0
C1602 C 0.42772 0.43356 0.88489 0.0
H1603 H 0.38789 0.40496 0.96085 0.0
H1604 H 0.40145 0.42034 0.93974 0.0
H1605 H 0.4035 0.40531 0.88789 0.0
H1606 H 0.46471 0.45693 0.85876 0.0
H1607 H 0.45205 0.44485 0.88371 0.0
C1608 C 0.5937 0.98164 0.98674 0.0
C1609 C 0.60545 0.99085 0.9912 0.0
C1610 C 0.58793 0.98202 0.97062 0.0
C1611 C 0.59324 0.99585 0.92497 0.0
H1612 H 0.55937 0.98506 0.92668 0.0
C1613 C 0.56611 0.99806 0.86248 0.0
C1614 C 0.55532 0.98728 0.85839 0.0
C1615 C 0.57236 -0.00048 0.87908 0.0
C1616 C 0.56882 0.98806 0.92599 0.0
H1617 H 0.6204 0.00764 0.98203 0.0
H1618 H 0.61022 0.00839 0.95394 0.0
H1619 H 0.57026 0.98573 0.95472 0.0
H1620 H 0.5424 0.96978 0.86868 0.0
H1621 H 0.55325 0.97234 0.8977 0.0
H1622 H 0.59173 0.99818 0.89616 0.0
C1623 C 0.60553 0.00078 0.96285 0.0
C1624 C 0.57506 0.9884 0.94203 0.0
C1625 C 0.61136 0.00037 0.97897 0.0
C1626 C 0.55073 0.97815 0.87143 0.0
C1627 C 0.5569 0.97966 0.88808 0.0
C1628 C 0.587 0.99559 0.90893 0.0
C1629 C 0.5937 0.99166 0.95857 0.0
C1630 C 0.5873 0.9921 0.94167 0.0
C1631 C 0.56785 0.99029 0.89199 0.0
C1632 C 0.57468 0.9915 0.90923 0.0
H1633 H 0.58891 0.9741 0.99572 0.0
H1634 H 0.57892 0.97468 0.96757 0.0
H1635 H 0.60263 0.99863 0.92416 0.0
H1636 H 0.56991 0.00522 0.85261 0.0
H1637 H 0.58074 0.00785 0.88179 0.0
C1638 C 0.60803 0.00081 0.08029 0.0
C1639 C 0.61458 0.00904 0.06668 0.0
C1640 C 0.60081 0.00307 0.09182 0.0
C1641 C 0.58285 0.01695 0.09664 0.0
H1642 H 0.59086 0.01945 0.14874 0.0
C1643 C 0.56752 0.02679 0.17163 0.0
C1644 C 0.55565 0.01719 0.17174 0.0
C1645 C 0.57479 0.02791 0.15694 0.0
C1646 C 0.58861 0.01893 0.13422 0.0
H1647 H 0.61836 0.02581 0.05391 0.0
H1648 H 0.60535 0.02956 0.07389 0.0
H1649 H 0.60331 0.01665 0.12652 0.0
H1650 H 0.54178 0.0018 0.15615 0.0
H1651 H 0.55447 0.00388 0.13026 0.0
H1652 H 0.56777 0.01863 0.10449 0.0
C1653 C 0.60599 0.02148 0.07569 0.0
C1654 C 0.59567 0.01724 0.12157 0.0
C1655 C 0.61343 0.01935 0.06436 0.0
C1656 C 0.55092 0.00925 0.15637 0.0
C1657 C 0.55815 0.01048 0.14156 0.0
C1658 C 0.57562 0.01839 0.10936 0.0
C1659 C 0.59982 0.01346 0.0897 0.0
C1660 C 0.59276 0.01611 0.10274 0.0
C1661 C 0.57025 0.01955 0.14203 0.0
C1662 C 0.57841 0.0193 0.12827 0.0
H1663 H 0.60876 0.99281 0.08243 0.0
H1664 H 0.59606 0.99676 0.10253 0.0
H1665 H 0.58047 0.01606 0.08213 0.0
H1666 H 0.57139 0.03298 0.18338 0.0
H1667 H 0.5841 0.035 0.15756 0.0
C1668 C 0.98313 0.60745 0.06232 0.0
C1669 C 0.99404 0.6174 0.0572 0.0
C1670 C 0.98299 0.59852 0.07339 0.0
C1671 C 0.0009 0.58516 0.08914 0.0
H1672 H 0.98348 0.57922 0.13422 0.0
C1673 C 0.01074 0.56413 0.15164 0.0
C1674 C 0.00148 0.55711 0.16359 0.0
C1675 C 0.00876 0.56985 0.13691 0.0
C1676 C 0.98819 0.58052 0.12155 0.0
H1677 H 0.01334 0.62555 0.05933 0.0
H1678 H 0.01306 0.60985 0.07823 0.0
H1679 H 0.98176 0.5919 0.11113 0.0
H1680 H 0.98272 0.55034 0.16895 0.0
H1681 H 0.97914 0.55981 0.1428 0.0
H1682 H 0.00733 0.57378 0.09942 0.0
C1683 C 0.00463 0.60899 0.07368 0.0
C1684 C 0.98722 0.58783 0.10834 0.0
C1685 C 0.00478 0.61801 0.06289 0.0
C1686 C 0.99006 0.55558 0.15998 0.0
C1687 C 0.98804 0.56117 0.1451 0.0
C1688 C 0.00174 0.5777 0.10223 0.0
C1689 C 0.99375 0.59926 0.07928 0.0
C1690 C 0.99375 0.59042 0.0922 0.0
C1691 C 0.99742 0.56858 0.13358 0.0
C1692 C 0.9956 0.57549 0.11879 0.0
H1693 H 0.97469 0.60672 0.0582 0.0
H1694 H 0.97448 0.59108 0.07748 0.0
H1695 H 0.00593 0.58693 0.0767 0.0
H1696 H 0.01959 0.56534 0.15376 0.0
H1697 H 0.01626 0.57558 0.1285 0.0
C1698 C 0.39458 0.38621 0.03808 0.0
C1699 C 0.39957 0.3818 0.02518 0.0
C1700 C 0.40075 0.39179 0.0546 0.0
C1701 C 0.42384 0.39329 0.08635 0.0
H1702 H 0.42757 0.4241 0.10297 0.0
C1703 C 0.45579 0.42032 0.14677 0.0
C1704 C 0.452 0.42604 0.15942 0.0
C1705 C 0.44947 0.41544 0.13017 0.0
C1706 C 0.42649 0.41542 0.09866 0.0
H1707 H 0.41493 0.37971 0.01965 0.0
H1708 H 0.42556 0.38931 0.04843 0.0
H1709 H 0.41591 0.41419 0.07484 0.0
H1710 H 0.43873 0.43132 0.16454 0.0
H1711 H 0.42753 0.42261 0.13568 0.0
H1712 H 0.43421 0.39434 0.11017 0.0
C1713 C 0.41689 0.38845 0.04579 0.0
C1714 C 0.41982 0.40977 0.08254 0.0
C1715 C 0.41081 0.38301 0.02924 0.0
C1716 C 0.44192 0.42706 0.15494 0.0
C1717 C 0.43552 0.42208 0.13839 0.0
C1718 C 0.43042 0.39888 0.10251 0.0
C1719 C 0.41195 0.39292 0.05863 0.0
C1720 C 0.41853 0.3987 0.07614 0.0
C1721 C 0.43912 0.41605 0.12591 0.0
C1722 C 0.43194 0.41008 0.1088 0.0
H1723 H 0.38596 0.38546 0.03536 0.0
H1724 H 0.3967 0.39509 0.06432 0.0
H1725 H 0.42284 0.38467 0.0819 0.0
H1726 H 0.46362 0.41955 0.14978 0.0
H1727 H 0.45268 0.41113 0.12071 0.0
C1728 C 0.66547 0.71142 0.38261 0.0
C1729 C 0.65853 0.7108 0.3671 0.0
C1730 C 0.66412 0.71596 0.39951 0.0
C1731 C 0.64289 0.72216 0.42465 0.0
H1732 H 0.67081 0.74391 0.45473 0.0
C1733 C 0.64091 0.75108 0.48485 0.0
C1734 C 0.64742 0.75204 0.50107 0.0
C1735 C 0.64219 0.74557 0.46896 0.0
C1736 C 0.66292 0.73774 0.44658 0.0
H1737 H 0.6448 0.7146 0.35726 0.0
H1738 H 0.64262 0.72261 0.38643 0.0
H1739 H 0.67326 0.73507 0.4263 0.0
H1740 H 0.66015 0.74764 0.51337 0.0
H1741 H 0.66245 0.73815 0.4856 0.0
H1742 H 0.63257 0.72497 0.44479 0.0
C1743 C 0.64893 0.71939 0.3857 0.0
C1744 C 0.66432 0.73265 0.43031 0.0
C1745 C 0.65026 0.71485 0.36889 0.0
C1746 C 0.65518 0.74728 0.50102 0.0
C1747 C 0.65649 0.74181 0.48512 0.0
C1748 C 0.6415 0.72728 0.44087 0.0
C1749 C 0.65581 0.71997 0.40124 0.0
C1750 C 0.65433 0.72489 0.41906 0.0
C1751 C 0.65002 0.74091 0.4689 0.0
C1752 C 0.6515 0.7352 0.45194 0.0
H1753 H 0.67191 0.70836 0.38174 0.0
H1754 H 0.66949 0.71619 0.41126 0.0
H1755 H 0.63498 0.71603 0.4165 0.0
H1756 H 0.63498 0.7548 0.48432 0.0
H1757 H 0.6372 0.74516 0.4566 0.0
C1758 C 0.27694 0.93876 0.40106 0.0
C1759 C 0.27749 0.95004 0.40042 0.0
C1760 C 0.26877 0.92969 0.4122 0.0
C1761 C 0.25217 0.92599 0.45417 0.0
H1762 H 0.23735 0.89181 0.44078 0.0
C1763 C 0.2242 0.88899 0.50539 0.0
C1764 C 0.227 0.87969 0.50682 0.0
C1765 C 0.22838 0.89695 0.49082 0.0
C1766 C 0.24145 0.90132 0.44472 0.0
H1767 H 0.26959 0.9605 0.41044 0.0
H1768 H 0.25521 0.94457 0.42983 0.0
H1769 H 0.24803 0.90697 0.41776 0.0
H1770 H 0.23592 0.87112 0.49366 0.0
H1771 H 0.24337 0.88512 0.46836 0.0
H1772 H 0.24586 0.92036 0.48121 0.0
C1773 C 0.26122 0.94281 0.42185 0.0
C1774 C 0.24756 0.91 0.43155 0.0
C1775 C 0.2694 0.95191 0.41067 0.0
C1776 C 0.23373 0.87827 0.49304 0.0
C1777 C 0.23787 0.88621 0.47844 0.0
C1778 C 0.24604 0.91731 0.46732 0.0
C1779 C 0.26095 0.93167 0.42297 0.0
C1780 C 0.25321 0.92244 0.43623 0.0
C1781 C 0.23541 0.89576 0.47734 0.0
C1782 C 0.24082 0.90488 0.46284 0.0
H1783 H 0.28304 0.93702 0.39332 0.0
H1784 H 0.26893 0.92129 0.4129 0.0
H1785 H 0.25656 0.93549 0.45831 0.0
H1786 H 0.21913 0.8904 0.51587 0.0
H1787 H 0.22624 0.90414 0.49026 0.0
C1788 C 0.06656 0.35261 0.37958 0.0
C1789 C 0.05712 0.34151 0.37259 0.0
C1790 C 0.07204 0.35325 0.39656 0.0
C1791 C 0.07886 0.3353 0.42728 0.0
H1792 H 0.08517 0.36047 0.46374 0.0
C1793 C 0.10104 0.33789 0.49811 0.0
C1794 C 0.10885 0.34944 0.50599 0.0
C1795 C 0.09434 0.33662 0.48211 0.0
C1796 C 0.08365 0.35349 0.45361 0.0
H1797 H 0.04594 0.3224 0.37803 0.0
H1798 H 0.05573 0.32351 0.40768 0.0
H1799 H 0.0739 0.3588 0.4356 0.0
H1800 H 0.11578 0.36872 0.50292 0.0
H1801 H 0.10464 0.36655 0.4746 0.0
H1802 H 0.08895 0.33023 0.44484 0.0
C1803 C 0.05879 0.3317 0.39997 0.0
C1804 C 0.07711 0.3525 0.43756 0.0
C1805 C 0.05316 0.33109 0.38309 0.0
C1806 C 0.10999 0.35969 0.49718 0.0
C1807 C 0.10341 0.35843 0.48106 0.0
C1808 C 0.08555 0.33639 0.44322 0.0
C1809 C 0.06832 0.34278 0.40679 0.0
C1810 C 0.0747 0.34342 0.42423 0.0
C1811 C 0.09538 0.34688 0.47342 0.0
C1812 C 0.08809 0.34555 0.45656 0.0
H1813 H 0.06978 0.36081 0.37185 0.0
H1814 H 0.07942 0.36189 0.40146 0.0
H1815 H 0.07724 0.32832 0.41708 0.0
H1816 H 0.10004 0.32979 0.50433 0.0
H1817 H 0.08818 0.32757 0.47676 0.0
C1818 C 0.06452 0.33482 0.29161 0.0
C1819 C 0.05456 0.32396 0.29686 0.0
C1820 C 0.0733 0.33463 0.28092 0.0
C1821 C 0.08409 0.31441 0.26225 0.0
H1822 H 0.0954 0.33762 0.22325 0.0
C1823 C 0.10367 0.30869 0.19436 0.0
C1824 C 0.11334 0.31908 0.18715 0.0
C1825 C 0.09825 0.30956 0.21032 0.0
C1826 C 0.09249 0.33121 0.23424 0.0
H1827 H 0.04615 0.30436 0.2955 0.0
H1828 H 0.06121 0.30399 0.27626 0.0
H1829 H 0.08258 0.33867 0.24633 0.0
H1830 H 0.12543 0.33837 0.19183 0.0
H1831 H 0.11579 0.33989 0.21948 0.0
H1832 H 0.09362 0.30662 0.24939 0.0
C1833 C 0.06244 0.31269 0.28076 0.0
C1834 C 0.08515 0.33182 0.24755 0.0
C1835 C 0.05375 0.3129 0.29171 0.0
C1836 C 0.11783 0.33024 0.19678 0.0
C1837 C 0.11235 0.33112 0.21264 0.0
C1838 C 0.09134 0.31372 0.24877 0.0
C1839 C 0.07222 0.32356 0.27493 0.0
C1840 C 0.08076 0.32336 0.26164 0.0
C1841 C 0.10234 0.32084 0.21932 0.0
C1842 C 0.09552 0.32206 0.23455 0.0
H1843 H 0.0655 0.3435 0.29549 0.0
H1844 H 0.08085 0.34319 0.27709 0.0
H1845 H 0.08103 0.30786 0.27306 0.0
H1846 H 0.09989 0.29998 0.18721 0.0
H1847 H 0.09046 0.30151 0.21507 0.0
C1848 C 0.67021 0.72365 0.28389 0.0
C1849 C 0.67978 0.72408 0.29397 0.0
C1850 C 0.67206 0.73318 0.27266 0.0
C1851 C 0.69388 0.7652 0.26197 0.0
H1852 H 0.67732 0.75583 0.21446 0.0
C1853 C 0.70641 0.79715 0.2 0.0
C1854 C 0.69686 0.79653 0.18954 0.0
C1855 C 0.70423 0.78908 0.21418 0.0
C1856 C 0.6819 0.75861 0.22776 0.0
H1857 H 0.69877 0.73501 0.30051 0.0
H1858 H 0.70206 0.7515 0.28056 0.0
H1859 H 0.67361 0.74036 0.23661 0.0
H1860 H 0.67754 0.78704 0.18592 0.0
H1861 H 0.67376 0.77308 0.21071 0.0
H1862 H 0.70239 0.78349 0.25273 0.0
C1863 C 0.69307 0.7439 0.28158 0.0
C1864 C 0.67975 0.74974 0.2405 0.0
C1865 C 0.69119 0.7344 0.29295 0.0
C1866 C 0.68509 0.78787 0.19385 0.0
C1867 C 0.68292 0.77977 0.20791 0.0
C1868 C 0.69609 0.77409 0.24912 0.0
C1869 C 0.68355 0.74332 0.27106 0.0
C1870 C 0.68569 0.75291 0.25778 0.0
C1871 C 0.69246 0.78016 0.21804 0.0
C1872 C 0.6901 0.77087 0.2319 0.0
H1873 H 0.6613 0.71586 0.28435 0.0
H1874 H 0.66447 0.73253 0.26504 0.0
H1875 H 0.69851 0.76798 0.27522 0.0
H1876 H 0.71557 0.80378 0.19707 0.0
H1877 H 0.71176 0.78954 0.2217 0.0
C1878 C 0.26263 0.95914 0.31621 0.0
C1879 C 0.27237 0.95871 0.32424 0.0
C1880 C 0.25689 0.95227 0.30025 0.0
C1881 C 0.26 0.93367 0.26261 0.0
H1882 H 0.22561 0.91977 0.25756 0.0
C1883 C 0.22793 0.89223 0.2158 0.0
C1884 C 0.22309 0.89543 0.20088 0.0
C1885 C 0.23379 0.90039 0.23051 0.0
C1886 C 0.23522 0.92367 0.25883 0.0
H1887 H 0.28375 0.95079 0.32186 0.0
H1888 H 0.27346 0.93842 0.29464 0.0
H1889 H 0.23643 0.93335 0.28373 0.0
H1890 H 0.22046 0.9098 0.19019 0.0
H1891 H 0.23017 0.92375 0.21645 0.0
H1892 H 0.25853 0.92337 0.23811 0.0
C1893 C 0.27045 0.94435 0.30015 0.0
C1894 C 0.24147 0.93153 0.27371 0.0
C1895 C 0.27635 0.95141 0.31587 0.0
C1896 C 0.22387 0.90687 0.20148 0.0
C1897 C 0.22952 0.91493 0.21641 0.0
C1898 C 0.2537 0.92562 0.24798 0.0
C1899 C 0.26058 0.9446 0.29216 0.0
C1900 C 0.25396 0.93662 0.27587 0.0
C1901 C 0.23467 0.91181 0.23084 0.0
C1902 C 0.24128 0.92055 0.24603 0.0
H1903 H 0.25943 0.96477 0.32228 0.0
H1904 H 0.24952 0.95296 0.29432 0.0
H1905 H 0.26961 0.93758 0.26348 0.0
H1906 H 0.22728 0.88343 0.21613 0.0
H1907 H 0.23764 0.8978 0.24165 0.0
C1908 C 0.67266 0.95509 0.305 0.0
C1909 C 0.67702 0.95282 0.32138 0.0
C1910 C 0.67399 0.95051 0.28812 0.0
C1911 C 0.69191 0.93831 0.26663 0.0
H1912 H 0.66776 0.92764 0.22754 0.0
C1913 C 0.70021 0.92516 0.19464 0.0
C1914 C 0.6906 0.91542 0.18498 0.0
C1915 C 0.69836 0.92988 0.21089 0.0
C1916 C 0.67455 0.93046 0.23837 0.0
H1917 H 0.68572 0.94354 0.33297 0.0
H1918 H 0.68766 0.93526 0.30385 0.0
H1919 H 0.66456 0.93509 0.2567 0.0
H1920 H 0.67141 0.90312 0.18493 0.0
H1921 H 0.66827 0.91097 0.21369 0.0
H1922 H 0.70167 0.93322 0.24871 0.0
C1923 C 0.68361 0.94092 0.30381 0.0
C1924 C 0.67279 0.93491 0.25503 0.0
C1925 C 0.68243 0.94562 0.32058 0.0
C1926 C 0.67907 0.9105 0.19209 0.0
C1927 C 0.67723 0.91515 0.20848 0.0
C1928 C 0.69361 0.93375 0.25009 0.0
C1929 C 0.67958 0.94345 0.28731 0.0
C1930 C 0.68144 0.93886 0.2694 0.0
C1931 C 0.68685 0.92491 0.2181 0.0
C1932 C 0.68497 0.92977 0.23571 0.0
H1933 H 0.66848 0.96064 0.30516 0.0
H1934 H 0.67088 0.95275 0.2757 0.0
H1935 H 0.69888 0.94146 0.27721 0.0
H1936 H 0.70924 0.92909 0.18976 0.0
H1937 H 0.70597 0.93752 0.21772 0.0
C1938 C 0.05206 0.73882 0.28379 0.0
C1939 C 0.05418 0.72922 0.28713 0.0
C1940 C 0.05923 0.74796 0.27182 0.0
C1941 C 0.07908 0.75297 0.23295 0.0
H1942 H 0.08623 0.78629 0.23838 0.0
C1943 C 0.10768 0.78862 0.18105 0.0
C1944 C 0.10264 0.79528 0.17382 0.0
C1945 C 0.10307 0.78179 0.19669 0.0
C1946 C 0.08427 0.777 0.23672 0.0
H1947 H 0.06589 0.72204 0.28121 0.0
H1948 H 0.07864 0.73814 0.26101 0.0
H1949 H 0.07599 0.77207 0.26283 0.0
H1950 H 0.08913 0.8004 0.17785 0.0
H1951 H 0.08115 0.78854 0.20536 0.0
H1952 H 0.08732 0.75787 0.20689 0.0
C1953 C 0.07121 0.73845 0.26715 0.0
C1954 C 0.07838 0.76885 0.25066 0.0
C1955 C 0.06395 0.72924 0.27891 0.0
C1956 C 0.09327 0.79544 0.18314 0.0
C1957 C 0.0887 0.78865 0.19889 0.0
C1958 C 0.08504 0.76112 0.21915 0.0
C1959 C 0.06876 0.74775 0.26307 0.0
C1960 C 0.07563 0.7567 0.24887 0.0
C1961 C 0.09338 0.78154 0.20555 0.0
C1962 C 0.08763 0.77319 0.22081 0.0
H1963 H 0.04458 0.73905 0.28988 0.0
H1964 H 0.05699 0.7549 0.26887 0.0
H1965 H 0.07687 0.74364 0.23086 0.0
H1966 H 0.11509 0.78853 0.17444 0.0
H1967 H 0.10698 0.77655 0.20172 0.0
C1968 C 0.28127 0.34076 0.31595 0.0
C1969 C 0.2764 0.32951 0.32439 0.0
C1970 C 0.27604 0.34199 0.29977 0.0
C1971 C 0.24777 0.32621 0.27121 0.0
H1972 H 0.26729 0.34962 0.2353 0.0
C1973 C 0.2319 0.32907 0.19716 0.0
C1974 C 0.23357 0.34052 0.19272 0.0
C1975 C 0.23682 0.32754 0.21345 0.0
C1976 C 0.26176 0.34309 0.24528 0.0
H1977 H 0.26253 0.31061 0.32224 0.0
H1978 H 0.25378 0.31256 0.29357 0.0
H1979 H 0.2768 0.34706 0.26273 0.0
H1980 H 0.24146 0.35926 0.20249 0.0
H1981 H 0.25049 0.35662 0.23041 0.0
H1982 H 0.23281 0.32196 0.25316 0.0
C1983 C 0.26132 0.32059 0.29974 0.0
C1984 C 0.26717 0.34166 0.26108 0.0
C1985 C 0.26639 0.31944 0.31612 0.0
C1986 C 0.2402 0.35036 0.20513 0.0
C1987 C 0.24532 0.34887 0.2212 0.0
C1988 C 0.24242 0.32747 0.25522 0.0
C1989 C 0.26597 0.33192 0.29144 0.0
C1990 C 0.26024 0.33326 0.27435 0.0
C1991 C 0.2437 0.33746 0.22544 0.0
C1992 C 0.24936 0.33598 0.24222 0.0
H1993 H 0.28892 0.34871 0.32212 0.0
H1994 H 0.27977 0.35091 0.29407 0.0
H1995 H 0.24208 0.31984 0.28123 0.0
H1996 H 0.22706 0.32131 0.18788 0.0
H1997 H 0.23553 0.31866 0.21644 0.0
C1998 C 0.28243 0.35408 0.40119 0.0
C1999 C 0.28344 0.34361 0.40189 0.0
C2000 C 0.27447 0.35538 0.41251 0.0
C2001 C 0.26089 0.34651 0.45668 0.0
H2002 H 0.23568 0.35204 0.4384 0.0
C2003 C 0.21397 0.33739 0.48488 0.0
C2004 C 0.21755 0.34277 0.50255 0.0
C2005 C 0.22243 0.34005 0.47137 0.0
C2006 C 0.24276 0.35061 0.44366 0.0
H2007 H 0.27686 0.32625 0.41476 0.0
H2008 H 0.26319 0.32867 0.43478 0.0
H2009 H 0.24978 0.3513 0.41688 0.0
H2010 H 0.23266 0.35561 0.51968 0.0
H2011 H 0.24745 0.3602 0.49609 0.0
H2012 H 0.25387 0.34561 0.48334 0.0
C2013 C 0.26849 0.3358 0.42541 0.0
C2014 C 0.25081 0.35023 0.4314 0.0
C2015 C 0.27626 0.33441 0.4139 0.0
C2016 C 0.22963 0.35139 0.50614 0.0
C2017 C 0.2381 0.35395 0.49271 0.0
C2018 C 0.25301 0.34709 0.46892 0.0
C2019 C 0.2676 0.34633 0.42491 0.0
C2020 C 0.25976 0.3479 0.43782 0.0
C2021 C 0.23462 0.34802 0.4754 0.0
C2022 C 0.24374 0.34893 0.4625 0.0
H2023 H 0.28783 0.36129 0.392 0.0
H2024 H 0.27391 0.36358 0.41196 0.0
H2025 H 0.26778 0.34478 0.46192 0.0
H2026 H 0.20469 0.33077 0.48173 0.0
H2027 H 0.21952 0.33531 0.45816 0.0
C2028 C 0.6667 0.94003 0.4006 0.0
C2029 C 0.65691 0.9412 0.39478 0.0
C2030 C 0.66505 0.93056 0.41178 0.0
C2031 C 0.64594 0.91168 0.44722 0.0
H2032 H 0.66203 0.89322 0.43974 0.0
C2033 C 0.64453 0.87868 0.5016 0.0
C2034 C 0.65532 0.87881 0.50527 0.0
C2035 C 0.64323 0.88438 0.4862 0.0
C2036 C 0.65756 0.89836 0.44212 0.0
H2037 H 0.63765 0.93316 0.3958 0.0
H2038 H 0.63481 0.91669 0.4158 0.0
H2039 H 0.66255 0.90677 0.416 0.0
H2040 H 0.67302 0.8846 0.49507 0.0
H2041 H 0.671 0.89501 0.46884 0.0
H2042 H 0.64148 0.90388 0.47368 0.0
C2043 C 0.64374 0.92311 0.41152 0.0
C2044 C 0.6578 0.90605 0.42847 0.0
C2045 C 0.64537 0.93249 0.40004 0.0
C2046 C 0.66466 0.8845 0.49288 0.0
C2047 C 0.66341 0.89031 0.47762 0.0
C2048 C 0.64583 0.90412 0.46098 0.0
C2049 C 0.65359 0.92214 0.41762 0.0
C2050 C 0.65216 0.91292 0.43103 0.0
C2051 C 0.65274 0.89046 0.47418 0.0
C2052 C 0.65183 0.89752 0.45876 0.0
H2053 H 0.67567 0.94648 0.39673 0.0
H2054 H 0.67281 0.93008 0.41641 0.0
H2055 H 0.64164 0.91699 0.44961 0.0
H2056 H 0.63717 0.87449 0.51089 0.0
H2057 H 0.63482 0.88413 0.48386 0.0
C2058 C 0.0572 0.72136 0.3759 0.0
C2059 C 0.06274 0.71774 0.36275 0.0
C2060 C 0.06275 0.72605 0.39313 0.0
C2061 C 0.08469 0.72589 0.42557 0.0
H2062 H 0.08816 0.75598 0.44533 0.0
C2063 C 0.10425 0.74434 0.49832 0.0
C2064 C 0.11314 0.75665 0.49977 0.0
C2065 C 0.09741 0.73953 0.48212 0.0
C2066 C 0.08725 0.74758 0.43995 0.0
H2067 H 0.07841 0.71613 0.3575 0.0
H2068 H 0.08794 0.72417 0.38748 0.0
H2069 H 0.07734 0.74751 0.41597 0.0
H2070 H 0.1217 0.77357 0.48528 0.0
H2071 H 0.1096 0.76515 0.45705 0.0
H2072 H 0.09469 0.72599 0.44936 0.0
C2073 C 0.07933 0.72338 0.38448 0.0
C2074 C 0.08099 0.74268 0.42327 0.0
C2075 C 0.07388 0.71884 0.36725 0.0
C2076 C 0.11485 0.76408 0.48472 0.0
C2077 C 0.10792 0.75927 0.46854 0.0
C2078 C 0.09083 0.73071 0.44231 0.0
C2079 C 0.07384 0.72704 0.39759 0.0
C2080 C 0.07978 0.73187 0.41582 0.0
C2081 C 0.09921 0.74692 0.46703 0.0
C2082 C 0.09228 0.74165 0.44959 0.0
H2083 H 0.04864 0.72065 0.37285 0.0
H2084 H 0.0583 0.72876 0.40304 0.0
H2085 H 0.08381 0.7175 0.42021 0.0
H2086 H 0.10249 0.73841 0.50976 0.0
H2087 H 0.09064 0.73001 0.48143 0.0
C2088 C 0.33285 0.04752 0.71486 0.0
C2089 C 0.32406 0.04566 0.7015 0.0
C2090 C 0.33361 0.05341 0.73164 0.0
C2091 C 0.31664 0.06272 0.76211 0.0
H2092 H 0.34821 0.08671 0.78073 0.0
C2093 C 0.32431 0.08835 0.83192 0.0
C2094 C 0.33302 0.10073 0.83266 0.0
C2095 C 0.32302 0.08114 0.8164 0.0
C2096 C 0.33932 0.0801 0.77566 0.0
H2097 H 0.30903 0.04834 0.69555 0.0
H2098 H 0.31047 0.05871 0.72459 0.0
H2099 H 0.34621 0.07487 0.75296 0.0
H2100 H 0.34694 0.11532 0.81747 0.0
H2101 H 0.34462 0.10279 0.79036 0.0
H2102 H 0.30974 0.06824 0.7845 0.0
C2103 C 0.31668 0.05548 0.72224 0.0
C2104 C 0.33818 0.07318 0.75987 0.0
C2105 C 0.3159 0.04959 0.7055 0.0
C2106 C 0.34028 0.10577 0.81745 0.0
C2107 C 0.33897 0.09857 0.80192 0.0
C2108 C 0.31778 0.06965 0.7779 0.0
C2109 C 0.32562 0.05758 0.73545 0.0
C2110 C 0.32682 0.06447 0.75281 0.0
C2111 C 0.33038 0.08615 0.80124 0.0
C2112 C 0.32913 0.0785 0.78478 0.0
H2113 H 0.33925 0.04457 0.7123 0.0
H2114 H 0.34049 0.05471 0.74163 0.0
H2115 H 0.30776 0.05599 0.75717 0.0
H2116 H 0.31868 0.08416 0.84352 0.0
H2117 H 0.31641 0.07158 0.81642 0.0
C2118 C 0.94376 0.27915 0.75106 0.0
C2119 C 0.94987 0.27772 0.73633 0.0
C2120 C 0.9374 0.26965 0.76286 0.0
C2121 C 0.92036 0.23754 0.7664 0.0
H2122 H 0.92744 0.24406 0.81872 0.0
C2123 C 0.90237 0.21441 0.84157 0.0
C2124 C 0.89056 0.21211 0.84 0.0
C2125 C 0.91032 0.22003 0.8274 0.0
C2126 C 0.92548 0.242 0.80416 0.0
H2127 H 0.9539 0.26516 0.72209 0.0
H2128 H 0.94233 0.24829 0.74259 0.0
H2129 H 0.94028 0.2591 0.79687 0.0
H2130 H 0.87751 0.213 0.82203 0.0
H2131 H 0.89135 0.22269 0.79716 0.0
H2132 H 0.90513 0.22072 0.77379 0.0
C2133 C 0.94269 0.25688 0.74503 0.0
C2134 C 0.93277 0.25064 0.7917 0.0
C2135 C 0.94929 0.2665 0.73339 0.0
C2136 C 0.8866 0.21474 0.82356 0.0
C2137 C 0.89449 0.22019 0.80931 0.0
C2138 C 0.91293 0.22896 0.77891 0.0
C2139 C 0.93684 0.25847 0.75999 0.0
C2140 C 0.93012 0.24859 0.77277 0.0
C2141 C 0.90652 0.22327 0.81135 0.0
C2142 C 0.91529 0.23124 0.79792 0.0
H2143 H 0.94408 0.2877 0.75371 0.0
H2144 H 0.93286 0.27102 0.77424 0.0
H2145 H 0.91815 0.23582 0.75184 0.0
H2146 H 0.90564 0.21251 0.85416 0.0
H2147 H 0.91955 0.22229 0.82927 0.0
C2148 C 0.74299 0.68695 0.70138 0.0
C2149 C 0.73187 0.6766 0.69707 0.0
C2150 C 0.74842 0.68851 0.71869 0.0
C2151 C 0.75024 0.67199 0.75777 0.0
H2152 H 0.76374 0.70313 0.78355 0.0
C2153 C 0.77165 0.68049 0.83098 0.0
C2154 C 0.78164 0.69194 0.83504 0.0
C2155 C 0.76525 0.67823 0.81432 0.0
C2156 C 0.76018 0.69442 0.77644 0.0
H2157 H 0.71776 0.65973 0.70758 0.0
H2158 H 0.72742 0.66242 0.7379 0.0
H2159 H 0.75292 0.69989 0.75439 0.0
H2160 H 0.79307 0.70987 0.82464 0.0
H2161 H 0.78215 0.70588 0.79537 0.0
H2162 H 0.75776 0.6666 0.77953 0.0
C2163 C 0.73185 0.66932 0.72779 0.0
C2164 C 0.75392 0.69256 0.75978 0.0
C2165 C 0.72631 0.66782 0.7105 0.0
C2166 C 0.78531 0.701 0.82194 0.0
C2167 C 0.779 0.69872 0.80523 0.0
C2168 C 0.75662 0.67389 0.77437 0.0
C2169 C 0.74295 0.67969 0.73204 0.0
C2170 C 0.74897 0.68136 0.75022 0.0
C2171 C 0.76878 0.68736 0.8013 0.0
C2172 C 0.76175 0.68517 0.78384 0.0
H2173 H 0.74751 0.69391 0.69139 0.0
H2174 H 0.75703 0.69654 0.72154 0.0
H2175 H 0.74661 0.6633 0.75056 0.0
H2176 H 0.76854 0.67338 0.84093 0.0
H2177 H 0.75735 0.66944 0.81188 0.0
C2178 C 0.72191 0.64037 0.62535 0.0
C2179 C 0.7233 0.65203 0.62486 0.0
C2180 C 0.72932 0.63754 0.61514 0.0
C2181 C 0.7576 0.65122 0.58981 0.0
H2182 H 0.7409 0.62261 0.55789 0.0
C2183 C 0.77549 0.64662 0.52055 0.0
C2184 C 0.77315 0.63516 0.5141 0.0
C2185 C 0.77091 0.64786 0.53714 0.0
C2186 C 0.74578 0.63049 0.56697 0.0
H2187 H 0.73375 0.66993 0.61363 0.0
H2188 H 0.74663 0.66503 0.596 0.0
H2189 H 0.7301 0.62626 0.58193 0.0
H2190 H 0.76466 0.61611 0.52046 0.0
H2191 H 0.75662 0.61828 0.54952 0.0
H2192 H 0.77319 0.65565 0.57445 0.0
C2193 C 0.73992 0.6581 0.6044 0.0
C2194 C 0.73957 0.63258 0.58075 0.0
C2195 C 0.73249 0.6609 0.61447 0.0
C2196 C 0.76647 0.62503 0.52495 0.0
C2197 C 0.76188 0.62628 0.54158 0.0
C2198 C 0.76381 0.64911 0.57607 0.0
C2199 C 0.7383 0.64635 0.60438 0.0
C2200 C 0.74534 0.64315 0.59193 0.0
C2201 C 0.76388 0.63768 0.5477 0.0
C2202 C 0.75787 0.63891 0.56413 0.0
H2203 H 0.71493 0.63334 0.63325 0.0
H2204 H 0.72791 0.62842 0.61546 0.0
H2205 H 0.76231 0.65934 0.59844 0.0
H2206 H 0.78043 0.65458 0.5124 0.0
H2207 H 0.77244 0.65674 0.54126 0.0
C2208 C 0.3494 0.06833 0.62473 0.0
C2209 C 0.33868 0.0572 0.6256 0.0
C2210 C 0.35011 0.07747 0.61359 0.0
C2211 C 0.33587 0.08131 0.57215 0.0
H2212 H 0.35573 0.11554 0.58473 0.0
C2213 C 0.34187 0.11791 0.52133 0.0
C2214 C 0.35375 0.12713 0.51891 0.0
C2215 C 0.33898 0.11012 0.53605 0.0
C2216 C 0.35018 0.10601 0.58102 0.0
H2217 H 0.32015 0.04712 0.61601 0.0
H2218 H 0.32133 0.06316 0.59682 0.0
H2219 H 0.35238 0.10049 0.60774 0.0
H2220 H 0.3718 0.13575 0.53055 0.0
H2221 H 0.36678 0.12202 0.55609 0.0
H2222 H 0.33385 0.08679 0.54536 0.0
C2223 C 0.32925 0.06474 0.60452 0.0
C2224 C 0.34826 0.09739 0.59418 0.0
C2225 C 0.32855 0.05558 0.61564 0.0
C2226 C 0.36259 0.12865 0.53192 0.0
C2227 C 0.35969 0.12087 0.54667 0.0
C2228 C 0.33776 0.08992 0.55903 0.0
C2229 C 0.3401 0.07571 0.6031 0.0
C2230 C 0.34124 0.08493 0.5898 0.0
C2231 C 0.3479 0.11137 0.5487 0.0
C2232 C 0.34508 0.10236 0.56322 0.0
H2233 H 0.35737 0.06987 0.63223 0.0
H2234 H 0.35864 0.08574 0.61266 0.0
H2235 H 0.33058 0.0718 0.56819 0.0
H2236 H 0.33487 0.11643 0.51147 0.0
H2237 H 0.32979 0.10297 0.53735 0.0
C2238 C 0.92482 0.28362 0.65733 0.0
C2239 C 0.93573 0.28439 0.66227 0.0
C2240 C 0.91863 0.27748 0.64118 0.0
C2241 C 0.92207 0.26447 0.59686 0.0
H2242 H 0.8874 0.24823 0.59609 0.0
C2243 C 0.89111 0.23244 0.53738 0.0
C2244 C 0.88363 0.23636 0.52945 0.0
C2245 C 0.89742 0.23768 0.55392 0.0
C2246 C 0.89708 0.25272 0.59617 0.0
H2247 H 0.94874 0.27932 0.6542 0.0
H2248 H 0.9377 0.26811 0.62637 0.0
H2249 H 0.89863 0.2584 0.62429 0.0
H2250 H 0.87699 0.24892 0.53311 0.0
H2251 H 0.88749 0.25749 0.56236 0.0
H2252 H 0.92032 0.25833 0.56875 0.0
C2253 C 0.93406 0.27256 0.63465 0.0
C2254 C 0.90356 0.25866 0.61225 0.0
C2255 C 0.94038 0.27895 0.65065 0.0
C2256 C 0.8824 0.24541 0.53885 0.0
C2257 C 0.8885 0.25043 0.55557 0.0
C2258 C 0.91555 0.25829 0.58088 0.0
C2259 C 0.92305 0.2717 0.62971 0.0
C2260 C 0.91616 0.26481 0.61277 0.0
C2261 C 0.89617 0.24673 0.5631 0.0
C2262 C 0.90302 0.25252 0.58035 0.0
H2263 H 0.92108 0.28786 0.6659 0.0
H2264 H 0.9104 0.27737 0.63767 0.0
H2265 H 0.93173 0.26922 0.59655 0.0
H2266 H 0.89213 0.22534 0.53085 0.0
H2267 H 0.90322 0.23462 0.5596 0.0
C2268 C 0.33494 0.28876 0.63712 0.0
C2269 C 0.34423 0.29271 0.65046 0.0
C2270 C 0.3358 0.28403 0.62008 0.0
C2271 C 0.35769 0.28393 0.58843 0.0
H2272 H 0.3317 0.2528 0.57078 0.0
C2273 C 0.36422 0.25654 0.53073 0.0
C2274 C 0.35476 0.24991 0.518 0.0
C2275 C 0.36258 0.26211 0.54623 0.0
C2276 C 0.33898 0.26159 0.57532 0.0
H2277 H 0.36183 0.29504 0.65615 0.0
H2278 H 0.36335 0.28694 0.6265 0.0
H2279 H 0.32936 0.26226 0.59862 0.0
H2280 H 0.3362 0.24406 0.51136 0.0
H2281 H 0.33336 0.25393 0.53822 0.0
H2282 H 0.36733 0.28337 0.56521 0.0
C2283 C 0.3554 0.28747 0.6292 0.0
C2284 C 0.33762 0.267 0.59129 0.0
C2285 C 0.35447 0.29204 0.64625 0.0
C2286 C 0.34362 0.24897 0.52108 0.0
C2287 C 0.34199 0.25462 0.53649 0.0
C2288 C 0.35901 0.27859 0.5724 0.0
C2289 C 0.34606 0.28335 0.61597 0.0
C2290 C 0.34704 0.27813 0.59816 0.0
C2291 C 0.35145 0.26128 0.54928 0.0
C2292 C 0.34975 0.26726 0.56579 0.0
H2293 H 0.32692 0.28915 0.63995 0.0
H2294 H 0.3285 0.28096 0.61008 0.0
H2295 H 0.36504 0.2926 0.59327 0.0
H2296 H 0.37287 0.2573 0.52885 0.0
H2297 H 0.37 0.26694 0.55594 0.0
C2298 C 0.72896 0.04966 0.60814 0.0
C2299 C 0.71915 0.05069 0.61383 0.0
C2300 C 0.7376 0.05842 0.59709 0.0
C2301 C 0.74079 0.07973 0.56226 0.0
H2302 H 0.7749 0.09326 0.57074 0.0
C2303 C 0.77448 0.11338 0.51216 0.0
C2304 C 0.78438 0.11209 0.50793 0.0
C2305 C 0.76721 0.10723 0.52675 0.0
C2306 C 0.7654 0.08948 0.56806 0.0
H2307 H 0.71082 0.06184 0.61262 0.0
H2308 H 0.72583 0.07701 0.593 0.0
H2309 H 0.76092 0.07992 0.59331 0.0
H2310 H 0.79462 0.10362 0.51635 0.0
H2311 H 0.78161 0.09242 0.54114 0.0
H2312 H 0.74509 0.08873 0.53671 0.0
C2313 C 0.72683 0.06944 0.59721 0.0
C2314 C 0.75742 0.0819 0.58104 0.0
C2315 C 0.71827 0.06078 0.60848 0.0
C2316 C 0.78696 0.10468 0.51897 0.0
C2317 C 0.77958 0.09839 0.53342 0.0
C2318 C 0.74874 0.08716 0.54917 0.0
C2319 C 0.7365 0.06828 0.59128 0.0
C2320 C 0.74505 0.0769 0.57819 0.0
C2321 C 0.76952 0.09946 0.53735 0.0
C2322 C 0.76115 0.09208 0.55183 0.0
H2323 H 0.72988 0.04199 0.6119 0.0
H2324 H 0.74491 0.05724 0.59255 0.0
H2325 H 0.73128 0.07585 0.5596 0.0
H2326 H 0.77209 0.11887 0.50387 0.0
H2327 H 0.75968 0.10847 0.52955 0.0
C2328 C 0.94564 0.67215 0.64208 0.0
C2329 C 0.93925 0.66532 0.65712 0.0
C2330 C 0.93973 0.67107 0.62525 0.0
C2331 C 0.90963 0.66102 0.60503 0.0
H2332 H 0.9234 0.65836 0.55949 0.0
C2333 C 0.88226 0.64446 0.53678 0.0
C2334 C 0.88792 0.65024 0.52065 0.0
C2335 C 0.88878 0.6471 0.55339 0.0
C2336 C 0.9195 0.65926 0.57207 0.0
H2337 H 0.92161 0.65193 0.66611 0.0
H2338 H 0.91145 0.65002 0.63689 0.0
H2339 H 0.93448 0.66166 0.58849 0.0
H2340 H 0.90489 0.66332 0.50933 0.0
H2341 H 0.91618 0.66809 0.53836 0.0
H2342 H 0.89461 0.65851 0.58867 0.0
C2343 C 0.92097 0.65633 0.63814 0.0
C2344 C 0.92586 0.66115 0.58867 0.0
C2345 C 0.92685 0.65739 0.65489 0.0
C2346 C 0.90022 0.65881 0.52154 0.0
C2347 C 0.90673 0.66144 0.53814 0.0
C2348 C 0.90328 0.65913 0.58844 0.0
C2349 C 0.92732 0.66318 0.62314 0.0
C2350 C 0.92093 0.66192 0.60536 0.0
C2351 C 0.9011 0.65557 0.55424 0.0
C2352 C 0.90808 0.6581 0.57178 0.0
H2353 H 0.95518 0.67835 0.64331 0.0
H2354 H 0.94486 0.67653 0.61396 0.0
H2355 H 0.90568 0.66179 0.61762 0.0
H2356 H 0.87279 0.63788 0.53657 0.0
H2357 H 0.88419 0.64233 0.5655 0.0
C2358 C 0.95088 0.69982 0.7306 0.0
C2359 C 0.94953 0.68816 0.73023 0.0
C2360 C 0.94348 0.70237 0.74134 0.0
C2361 C 0.91495 0.68787 0.76577 0.0
H2362 H 0.93085 0.71568 0.79939 0.0
C2363 C 0.89484 0.69056 0.83387 0.0
C2364 C 0.89672 0.70179 0.84063 0.0
C2365 C 0.90018 0.68982 0.8178 0.0
C2366 C 0.92621 0.70802 0.78985 0.0
H2367 H 0.93924 0.67002 0.74071 0.0
H2368 H 0.92632 0.67442 0.75918 0.0
H2369 H 0.94223 0.71272 0.7755 0.0
H2370 H 0.90541 0.72103 0.83543 0.0
H2371 H 0.91482 0.71973 0.80726 0.0
H2372 H 0.899 0.68299 0.78038 0.0
C2373 C 0.93301 0.68156 0.75104 0.0
C2374 C 0.93274 0.70632 0.77617 0.0
C2375 C 0.94045 0.67905 0.74047 0.0
C2376 C 0.90389 0.71226 0.83069 0.0
C2377 C 0.90927 0.71152 0.81456 0.0
C2378 C 0.90841 0.68959 0.77938 0.0
C2379 C 0.93453 0.69327 0.75177 0.0
C2380 C 0.92725 0.69604 0.76435 0.0
C2381 C 0.90757 0.70029 0.80806 0.0
C2382 C 0.91405 0.69948 0.79192 0.0
H2383 H 0.9578 0.70704 0.72287 0.0
H2384 H 0.94482 0.71146 0.74159 0.0
H2385 H 0.91044 0.67997 0.75663 0.0
H2386 H 0.88957 0.68235 0.84137 0.0
H2387 H 0.89889 0.68107 0.81342 0.0
C2388 C 0.3122 0.27009 0.72706 0.0
C2389 C 0.32385 0.27984 0.72487 0.0
C2390 C 0.31018 0.26052 0.73836 0.0
C2391 C 0.32453 0.24511 0.76035 0.0
H2392 H 0.30157 0.23803 0.79856 0.0
C2393 C 0.32389 0.21953 0.82524 0.0
C2394 C 0.313 0.21238 0.83399 0.0
C2395 C 0.32444 0.22634 0.81006 0.0
C2396 C 0.30782 0.23966 0.78778 0.0
H2397 H 0.34254 0.28695 0.73247 0.0
H2398 H 0.33903 0.27013 0.75181 0.0
H2399 H 0.30384 0.25228 0.77497 0.0
H2400 H 0.29405 0.20649 0.83304 0.0
H2401 H 0.29491 0.21786 0.80608 0.0
H2402 H 0.32851 0.23247 0.77302 0.0
C2403 C 0.33147 0.26993 0.74479 0.0
C2404 C 0.30915 0.24787 0.77429 0.0
C2405 C 0.33347 0.27958 0.73372 0.0
C2406 C 0.30259 0.21181 0.82663 0.0
C2407 C 0.30311 0.2185 0.8113 0.0
C2408 C 0.3231 0.23675 0.7737 0.0
C2409 C 0.3198 0.26041 0.74747 0.0
C2410 C 0.31765 0.25083 0.76064 0.0
C2411 C 0.31409 0.22605 0.80303 0.0
C2412 C 0.31488 0.23408 0.7878 0.0
H2413 H 0.30458 0.27001 0.72046 0.0
H2414 H 0.30109 0.25325 0.74013 0.0
H2415 H 0.33107 0.24715 0.74985 0.0
H2416 H 0.33206 0.22002 0.83026 0.0
H2417 H 0.33308 0.23212 0.80423 0.0
C2418 C 0.71734 0.05038 0.70081 0.0
C2419 C 0.72254 0.0442 0.69239 0.0
C2420 C 0.72235 0.05722 0.71705 0.0
C2421 C 0.75064 0.07176 0.74528 0.0
H2422 H 0.73056 0.07411 0.78224 0.0
C2423 C 0.76773 0.09224 0.81842 0.0
C2424 C 0.76459 0.10076 0.82473 0.0
C2425 C 0.7627 0.08555 0.80208 0.0
C2426 C 0.73627 0.07359 0.77195 0.0
H2427 H 0.73682 0.03999 0.69477 0.0
H2428 H 0.74527 0.05149 0.7234 0.0
H2429 H 0.72136 0.06156 0.75454 0.0
H2430 H 0.75381 0.10902 0.81841 0.0
H2431 H 0.74476 0.09702 0.79021 0.0
H2432 H 0.76552 0.08353 0.76307 0.0
C2433 C 0.73757 0.05144 0.71718 0.0
C2434 C 0.73101 0.06644 0.75604 0.0
C2435 C 0.73267 0.04475 0.70081 0.0
C2436 C 0.75629 0.10241 0.81421 0.0
C2437 C 0.75113 0.09557 0.79801 0.0
C2438 C 0.75587 0.07875 0.76131 0.0
C2439 C 0.73258 0.0579 0.72541 0.0
C2440 C 0.73813 0.06544 0.74246 0.0
C2441 C 0.75428 0.08709 0.79182 0.0
C2442 C 0.74873 0.07975 0.77477 0.0
H2443 H 0.70958 0.05021 0.69459 0.0
H2444 H 0.71835 0.06221 0.72279 0.0
H2445 H 0.75645 0.07145 0.73499 0.0
H2446 H 0.77388 0.09052 0.82629 0.0
H2447 H 0.76518 0.07897 0.79769 0.0
C2448 C 0.04442 0.36488 0.02617 0.0
C2449 C 0.03314 0.35622 0.01881 0.0
C2450 C 0.05231 0.36132 0.03313 0.0
C2451 C 0.05381 0.33446 0.04883 0.0
H2452 H 0.08741 0.35422 0.03802 0.0
C2453 C 0.08789 0.31839 0.06198 0.0
C2454 C 0.09871 0.32684 0.07095 0.0
C2455 C 0.07996 0.32198 0.05524 0.0
C2456 C 0.07807 0.34865 0.04125 0.0
H2457 H 0.02121 0.33698 0.01336 0.0
H2458 H 0.03501 0.33081 0.02514 0.0
H2459 H 0.07332 0.36052 0.02784 0.0
H2460 H 0.10962 0.34574 0.07973 0.0
H2461 H 0.09594 0.35198 0.06763 0.0
H2462 H 0.05859 0.32251 0.06204 0.0
C2463 C 0.03773 0.34035 0.02583 0.0
C2464 C 0.06999 0.35229 0.0355 0.0
C2465 C 0.02982 0.3439 0.01897 0.0
C2466 C 0.10151 0.33901 0.07258 0.0
C2467 C 0.09364 0.3426 0.06572 0.0
C2468 C 0.06188 0.33078 0.05447 0.0
C2469 C 0.04913 0.34902 0.03281 0.0
C2470 C 0.05776 0.34525 0.03924 0.0
C2471 C 0.08271 0.3341 0.05718 0.0
C2472 C 0.0741 0.33785 0.05076 0.0
H2473 H 0.04723 0.37444 0.02634 0.0
H2474 H 0.06093 0.36822 0.03871 0.0
H2475 H 0.0445 0.3289 0.05221 0.0
H2476 H 0.08551 0.30898 0.06023 0.0
H2477 H 0.07168 0.31525 0.04848 0.0
C2478 C 0.62804 0.68214 0.04926 0.0
C2479 C 0.63499 0.67709 0.04349 0.0
C2480 C 0.63271 0.6947 0.04934 0.0
C2481 C 0.66143 0.72243 0.05478 0.0
H2482 H 0.64413 0.73877 0.04072 0.0
C2483 C 0.68305 0.77361 0.06677 0.0
C2484 C 0.67579 0.77787 0.07418 0.0
C2485 C 0.678 0.76191 0.05914 0.0
C2486 C 0.64905 0.73434 0.04483 0.0
H2487 H 0.65208 0.6813 0.03224 0.0
H2488 H 0.6602 0.70313 0.03256 0.0
H2489 H 0.63513 0.71695 0.03463 0.0
H2490 H 0.65737 0.77331 0.07791 0.0
H2491 H 0.64862 0.75269 0.06558 0.0
H2492 H 0.67508 0.73949 0.06578 0.0
C2493 C 0.65118 0.69737 0.03718 0.0
C2494 C 0.64391 0.72185 0.04129 0.0
C2495 C 0.6465 0.68484 0.03697 0.0
C2496 C 0.66329 0.77028 0.07278 0.0
C2497 C 0.65824 0.75848 0.06541 0.0
C2498 C 0.6665 0.73482 0.05851 0.0
C2499 C 0.64445 0.70245 0.04377 0.0
C2500 C 0.65004 0.71578 0.04633 0.0
C2501 C 0.66556 0.75402 0.059 0.0
C2502 C 0.66037 0.74096 0.0537 0.0
H2503 H 0.61911 0.67644 0.05427 0.0
H2504 H 0.62734 0.69837 0.05458 0.0
H2505 H 0.66628 0.71795 0.05915 0.0
H2506 H 0.69271 0.77907 0.06766 0.0
H2507 H 0.68392 0.75891 0.0539 0.0
C2508 C 0.32984 0.95045 0.02702 0.0
C2509 C 0.3305 0.96045 0.01809 0.0
C2510 C 0.31911 0.94171 0.03443 0.0
C2511 C 0.28651 0.92928 0.03118 0.0
H2512 H 0.28691 0.9177 0.07995 0.0
C2513 C 0.24378 0.90187 0.07263 0.0
C2514 C 0.24313 0.8927 0.08385 0.0
C2515 C 0.25424 0.90939 0.06339 0.0
C2516 C 0.28665 0.92068 0.0662 0.0
H2517 H 0.32042 0.96915 0.01 0.0
H2518 H 0.30173 0.95393 0.02301 0.0
H2519 H 0.30564 0.93235 0.06642 0.0
H2520 H 0.2529 0.88406 0.09377 0.0
H2521 H 0.27098 0.89692 0.07722 0.0
H2522 H 0.26751 0.91763 0.03098 0.0
C2523 C 0.30948 0.95279 0.0241 0.0
C2524 C 0.29739 0.9291 0.05847 0.0
C2525 C 0.32021 0.96154 0.01677 0.0
C2526 C 0.25304 0.89095 0.0851 0.0
C2527 C 0.26347 0.89844 0.07582 0.0
C2528 C 0.27576 0.92082 0.03888 0.0
C2529 C 0.30881 0.94277 0.033 0.0
C2530 C 0.29743 0.93355 0.04094 0.0
C2531 C 0.26427 0.90789 0.06513 0.0
C2532 C 0.2757 0.91648 0.05653 0.0
H2533 H 0.3376 0.94933 0.02824 0.0
H2534 H 0.31883 0.93404 0.04108 0.0
H2535 H 0.28629 0.93242 0.01753 0.0
H2536 H 0.23626 0.90337 0.0712 0.0
H2537 H 0.25458 0.91664 0.05537 0.0
C2538 C 0.34566 0.02247 -0.00123 0.0
C2539 C 0.35811 0.02724 1e-05 0.0
C2540 C 0.3409 0.03019 -0.00153 0.0
C2541 C 0.34726 0.06159 0.00613 0.0
H2542 H 0.32959 0.05605 0.96007 0.0
C2543 C 0.3454 0.09977 0.96808 0.0
C2544 C 0.33623 0.09694 0.9549 0.0
C2545 C 0.34568 0.09064 0.97807 0.0
C2546 C 0.33418 0.05765 0.97327 0.0
H2547 H 0.37523 0.0438 0.00364 0.0
H2548 H 0.36689 0.05726 0.00327 0.0
H2549 H 0.33436 0.04102 0.97058 0.0
H2550 H 0.3195 0.08225 0.94329 0.0
H2551 H 0.31953 0.06661 0.96162 0.0
H2552 H 0.34717 0.0783 0.00879 0.0
C2553 C 0.36084 0.04755 0.00242 0.0
C2554 C 0.33696 0.04899 0.97925 0.0
C2555 C 0.36562 0.03984 0.00248 0.0
C2556 C 0.32675 0.08489 0.95325 0.0
C2557 C 0.32687 0.07581 0.96359 0.0
C2558 C 0.34427 0.07019 0.00032 0.0
C2559 C 0.34848 0.04282 -0.00031 0.0
C2560 C 0.34383 0.05104 0.99543 0.0
C2561 C 0.33662 0.07846 0.9755 0.0
C2562 C 0.33803 0.06852 0.98348 0.0
H2563 H 0.33961 0.0128 0.99693 0.0
H2564 H 0.33134 0.02633 0.99647 0.0
H2565 H 0.3525 0.06333 0.01874 0.0
H2566 H 0.35267 0.10899 0.97022 0.0
H2567 H 0.35337 0.09313 0.98705 0.0
C2568 C 0.95455 0.31772 0.98759 0.0
C2569 C 0.96659 0.32232 0.99297 0.0
C2570 C 0.94617 0.30551 0.98958 0.0
C2571 C 0.92854 0.28013 -0.00019 0.0
H2572 H 0.93867 0.2574 0.9849 0.0
C2573 C 0.89335 0.23142 0.97942 0.0
C2574 C 0.89568 0.22717 0.96296 0.0
C2575 C 0.90254 0.24143 0.98905 0.0
C2576 C 0.93566 0.26361 0.98909 0.0
H2577 H 0.9791 0.31774 0.00559 0.0
H2578 H 0.96434 0.29639 0.00942 0.0
H2579 H 0.95354 0.27862 0.99042 0.0
H2580 H 0.90951 0.22967 0.94416 0.0
H2581 H 0.92537 0.24725 0.96044 0.0
H2582 H 0.91063 0.26544 0.99688 0.0
C2583 C 0.96147 0.30222 0.00328 0.0
C2584 C 0.94424 0.27579 0.99254 0.0
C2585 C 0.96992 0.31448 0.00116 0.0
C2586 C 0.90748 0.23265 0.95693 0.0
C2587 C 0.91661 0.24275 0.96637 0.0
C2588 C 0.91997 0.26802 0.99607 0.0
C2589 C 0.94952 0.29754 0.9972 0.0
C2590 C 0.94074 0.28429 0.99721 0.0
C2591 C 0.9142 0.24756 0.98222 0.0
C2592 C 0.92338 0.25968 0.98994 0.0
H2593 H 0.95163 0.32345 0.98121 0.0
H2594 H 0.93714 0.30225 0.98438 0.0
H2595 H 0.92553 0.28635 0.00389 0.0
H2596 H 0.88434 0.22727 0.98445 0.0
H2597 H 0.90039 0.24467 0.00144 0.0
C2598 C 0.67333 0.6503 0.00816 0.0
C2599 C 0.67169 0.65977 0.01477 0.0
C2600 C 0.68404 0.6528 9e-05 0.0
C2601 C 0.71572 0.67752 0.99702 0.0
H2602 H 0.71632 0.65653 0.95845 0.0
C2603 C 0.76035 0.68434 0.97005 0.0
C2604 C 0.76084 0.68231 0.95118 0.0
C2605 C 0.74939 0.68095 0.97808 0.0
C2606 C 0.71634 0.66259 0.96907 0.0
H2607 H 0.67973 0.67929 0.01737 0.0
H2608 H 0.69818 0.68371 0.00251 0.0
H2609 H 0.6973 0.65243 0.97056 0.0
H2610 H 0.75038 0.6753 0.92583 0.0
H2611 H 0.73136 0.66978 0.93956 0.0
H2612 H 0.73468 0.68807 0.99483 0.0
C2613 C 0.69142 0.67432 0.00418 0.0
C2614 C 0.7054 0.66011 0.97624 0.0
C2615 C 0.68079 0.6718 0.01254 0.0
C2616 C 0.75021 0.67677 0.94049 0.0
C2617 C 0.73929 0.67357 0.94841 0.0
C2618 C 0.72663 0.68011 0.98963 0.0
C2619 C 0.69329 0.66485 0.99816 0.0
C2620 C 0.70493 0.66754 0.99032 0.0
C2621 C 0.73872 0.67566 0.96731 0.0
C2622 C 0.7271 0.67268 0.97555 0.0
H2623 H 0.6665 0.64092 0.00982 0.0
H2624 H 0.68517 0.64526 0.9959 0.0
H2625 H 0.71579 0.68333 0.00808 0.0
H2626 H 0.76845 0.68855 0.97858 0.0
H2627 H 0.7493 0.68249 0.99273 0.0
C2628 C 0.96806 0.65631 0.99507 0.0
C2629 C 0.96368 0.64463 0.00192 0.0
C2630 C 0.96021 0.65988 0.98801 0.0
C2631 C 0.92876 0.65264 0.98988 0.0
H2632 H 0.9372 0.67331 0.94777 0.0
C2633 C 0.89692 0.66709 0.95597 0.0
C2634 C 0.9022 0.67929 0.95101 0.0
C2635 C 0.90402 0.66233 0.96206 0.0
C2636 C 0.93476 0.66761 0.95964 0.0
H2637 H 0.9476 0.62743 0.00628 0.0
H2638 H 0.93391 0.63361 0.99372 0.0
H2639 H 0.9503 0.66578 0.95793 0.0
H2640 H 0.91909 0.69602 0.9485 0.0
H2641 H 0.9314 0.68778 0.95938 0.0
H2642 H 0.91322 0.65452 0.99156 0.0
C2643 C 0.94342 0.64008 0.9941 0.0
C2644 C 0.94227 0.6633 0.96547 0.0
C2645 C 0.95128 0.63651 0.00118 0.0
C2646 C 0.91471 0.68663 0.95247 0.0
C2647 C 0.92179 0.68187 0.95846 0.0
C2648 C 0.92122 0.65693 0.98401 0.0
C2649 C 0.94778 0.65185 0.98758 0.0
C2650 C 0.93944 0.65587 0.98079 0.0
C2651 C 0.91655 0.66964 0.96316 0.0
C2652 C 0.92422 0.66458 0.96895 0.0
H2653 H 0.97756 0.6628 0.99547 0.0
H2654 H 0.96388 0.66906 0.98333 0.0
H2655 H 0.92638 0.64706 0.00188 0.0
H2656 H 0.8873 0.66122 0.95508 0.0
H2657 H 0.89973 0.65285 0.96552 0.0
C2658 C 0.3769 0.32416 0.98435 0.0
C2659 C 0.36896 0.32857 0.98675 0.0
C2660 C 0.37277 0.31174 0.98447 0.0
C2661 C 0.3475 0.28155 0.99516 0.0
H2662 H 0.35758 0.27154 0.95164 0.0
C2663 C 0.32327 0.23234 0.96472 0.0
C2664 C 0.33 0.22841 0.95472 0.0
C2665 C 0.32865 0.24414 0.97228 0.0
C2666 C 0.35486 0.27411 0.96412 0.0
H2667 H 0.35062 0.32343 0.99254 0.0
H2668 H 0.34338 0.30166 0.99255 0.0
H2669 H 0.36588 0.2929 0.9588 0.0
H2670 H 0.34798 0.23375 0.94606 0.0
H2671 H 0.35736 0.2538 0.96015 0.0
H2672 H 0.33635 0.26264 0.00032 0.0
C2673 C 0.35281 0.30786 0.99064 0.0
C2674 C 0.35961 0.28641 0.96818 0.0
C2675 C 0.35695 0.32033 0.99055 0.0
C2676 C 0.34242 0.23629 0.95372 0.0
C2677 C 0.34781 0.24795 0.96155 0.0
C2678 C 0.3428 0.26917 0.99117 0.0
C2679 C 0.36061 0.30344 0.98695 0.0
C2680 C 0.35595 0.29029 0.98366 0.0
C2681 C 0.34093 0.25222 0.97024 0.0
C2682 C 0.34637 0.2653 0.9755 0.0
H2683 H 0.38625 0.33025 0.9817 0.0
H2684 H 0.37903 0.3086 0.98195 0.0
H2685 H 0.34455 0.28431 0.00722 0.0
H2686 H 0.31374 0.22647 0.96622 0.0
H2687 H 0.32305 0.24708 0.9789 0.0
C2688 C 0.67446 0.02463 0.00046 0.0
C2689 C 0.67314 0.02582 0.01937 0.0
C2690 C 0.68567 0.03132 0.99262 0.0
C2691 C 0.71408 0.05946 -0.00052 0.0
H2692 H 0.72621 0.04522 0.96455 0.0
C2693 C 0.75895 0.08931 0.96628 0.0
C2694 C 0.75906 0.08762 0.94721 0.0
C2695 C 0.74974 0.08056 0.97659 0.0
C2696 C 0.72292 0.04935 0.9742 0.0
H2697 H 0.68253 0.03486 0.0449 0.0
H2698 H 0.702 0.04659 0.03116 0.0
H2699 H 0.70715 0.03236 0.97913 0.0
H2700 H 0.75004 0.07525 0.92407 0.0
H2701 H 0.73381 0.06014 0.94187 0.0
H2702 H 0.72945 0.07649 0.99413 0.0
C2703 C 0.69439 0.04051 0.02242 0.0
C2704 C 0.71202 0.04198 0.98253 0.0
C2705 C 0.68323 0.03376 0.03027 0.0
C2706 C 0.75023 0.07671 0.9388 0.0
C2707 C 0.74092 0.06804 0.94905 0.0
C2708 C 0.72489 0.06683 0.99104 0.0
C2709 C 0.69572 0.03939 0.00352 0.0
C2710 C 0.70746 0.047 0.99514 0.0
C2711 C 0.74034 0.07006 0.96797 0.0
C2712 C 0.72942 0.06191 0.97816 0.0
H2713 H 0.66685 0.01854 0.99172 0.0
H2714 H 0.68644 0.03037 0.97796 0.0
H2715 H 0.71071 0.0636 0.00898 0.0
H2716 H 0.76573 0.09761 0.97308 0.0
H2717 H 0.74975 0.08227 0.99121 0.0
C2718 C 0.62342 0.952 0.02978 0.0
C2719 C 0.63182 0.96443 0.02886 0.0
C2720 C 0.62703 0.94336 0.02821 0.0
C2721 C 0.65311 0.93937 0.01722 0.0
H2722 H 0.64021 0.91553 0.05522 0.0
C2723 C 0.67921 0.9203 0.05477 0.0
C2724 C 0.67306 0.90835 0.06093 0.0
C2725 C 0.67311 0.92505 0.04516 0.0
C2726 C 0.64373 0.92192 0.04423 0.0
H2727 H 0.65051 0.97746 0.02459 0.0
H2728 H 0.65684 0.96251 0.02248 0.0
H2729 H 0.63117 0.92784 0.04884 0.0
H2730 H 0.65592 0.89167 0.06033 0.0
H2731 H 0.64523 0.90007 0.04382 0.0
H2732 H 0.66618 0.93388 0.01355 0.0
C2733 C 0.64742 0.95935 0.02402 0.0
C2734 C 0.63853 0.929 0.04053 0.0
C2735 C 0.64379 0.96797 0.0254 0.0
C2736 C 0.66086 0.901 0.05613 0.0
C2737 C 0.65474 0.90578 0.04662 0.0
C2738 C 0.65839 0.93235 0.02105 0.0
C2739 C 0.63914 0.94696 0.02588 0.0
C2740 C 0.64338 0.93808 0.02738 0.0
C2741 C 0.66073 0.91798 0.04159 0.0
C2742 C 0.65395 0.9238 0.03498 0.0
H2743 H 0.61409 0.94895 0.03217 0.0
H2744 H 0.62037 0.93388 0.02933 0.0
H2745 H 0.65692 0.9461 0.00672 0.0
H2746 H 0.68857 0.92627 0.05838 0.0
H2747 H 0.67795 0.93453 0.04165 0.0
C2748 C 0.02696 0.68873 0.0193 0.0
C2749 C 0.03123 0.68055 0.02067 0.0
C2750 C 0.03495 0.70124 0.01908 0.0
C2751 C 0.06537 0.72312 0.03567 0.0
H2752 H 0.06048 0.74647 0.00906 0.0
C2753 C 0.09787 0.77373 0.04728 0.0
C2754 C 0.09262 0.78094 0.05042 0.0
C2755 C 0.09114 0.76206 0.03953 0.0
C2756 C 0.06194 0.74006 0.01662 0.0
H2757 H 0.04726 0.67906 0.02139 0.0
H2758 H 0.06112 0.70076 0.02071 0.0
H2759 H 0.04709 0.72475 0.00293 0.0
H2760 H 0.07641 0.78185 0.0463 0.0
H2761 H 0.06456 0.76132 0.03342 0.0
H2762 H 0.07989 0.73824 0.04979 0.0
C2763 C 0.05161 0.69756 0.02031 0.0
C2764 C 0.05427 0.72763 0.01311 0.0
C2765 C 0.04364 0.6851 0.02063 0.0
C2766 C 0.08068 0.77646 0.04445 0.0
C2767 C 0.07391 0.76473 0.03683 0.0
C2768 C 0.07297 0.73549 0.03919 0.0
C2769 C 0.04737 0.7058 0.02013 0.0
C2770 C 0.05586 0.71902 0.02271 0.0
C2771 C 0.07896 0.75723 0.03488 0.0
C2772 C 0.07132 0.74413 0.02983 0.0
H2773 H 0.01745 0.68553 0.01927 0.0
H2774 H 0.03139 0.70734 0.01902 0.0
H2775 H 0.0667 0.71677 0.04363 0.0
H2776 H 0.10699 0.77678 0.05177 0.0
H2777 H 0.09539 0.75663 0.03784 0.0
C2778 C 0.32544 0.36191 0.99469 0.0
C2779 C 0.3339 0.35949 0.00298 0.0
C2780 C 0.31488 0.35911 0.00349 0.0
C2781 C 0.30118 0.35294 0.04903 0.0
H2782 H 0.27169 0.3403 0.02003 0.0
C2783 C 0.25596 0.33846 0.08234 0.0
C2784 C 0.24901 0.34288 0.07416 0.0
C2785 C 0.26583 0.33929 0.07341 0.0
C2786 C 0.27987 0.34389 0.02828 0.0
H2787 H 0.33793 0.35227 0.0271 0.0
H2788 H 0.31938 0.34724 0.04244 0.0
H2789 H 0.29001 0.34412 0.00521 0.0
H2790 H 0.24667 0.35119 0.04991 0.0
H2791 H 0.26395 0.35271 0.03432 0.0
H2792 H 0.29102 0.35274 0.07209 0.0
C2793 C 0.321 0.35144 0.02918 0.0
C2794 C 0.29037 0.3461 0.0198 0.0
C2795 C 0.3316 0.35429 0.02038 0.0
C2796 C 0.25191 0.34779 0.0566 0.0
C2797 C 0.26174 0.34856 0.04762 0.0
C2798 C 0.29066 0.35068 0.05752 0.0
C2799 C 0.31249 0.35378 0.02079 0.0
C2800 C 0.30119 0.3508 0.03003 0.0
C2801 C 0.26893 0.34452 0.05608 0.0
C2802 C 0.27992 0.34624 0.0472 0.0
H2803 H 0.32695 0.36598 0.98134 0.0
H2804 H 0.30865 0.36126 0.99679 0.0
H2805 H 0.30938 0.35671 0.05727 0.0
H2806 H 0.25404 0.33474 0.09594 0.0
H2807 H 0.27112 0.33598 0.08018 0.0
C2808 C 0.70045 0.68351 0.36016 0.0
C2809 C 0.69643 0.68026 0.34177 0.0
C2810 C 0.70837 0.68023 0.36801 0.0
C2811 C 0.71957 0.65874 0.36172 0.0
H2812 H 0.74646 0.682 0.39226 0.0
C2813 C 0.75798 0.65044 0.38292 0.0
C2814 C 0.76208 0.65311 0.40134 0.0
C2815 C 0.75023 0.65414 0.37581 0.0
C2816 C 0.73893 0.67537 0.3839 0.0
H2817 H 0.69756 0.67098 0.31727 0.0
H2818 H 0.71136 0.66541 0.33084 0.0
H2819 H 0.73206 0.68742 0.38013 0.0
H2820 H 0.76128 0.66186 0.42667 0.0
H2821 H 0.74786 0.66838 0.41423 0.0
H2822 H 0.72643 0.6467 0.3654 0.0
C2823 C 0.7083 0.67033 0.33931 0.0
C2824 C 0.73067 0.67846 0.37699 0.0
C2825 C 0.70043 0.6736 0.33149 0.0
C2826 C 0.75847 0.65983 0.41234 0.0
C2827 C 0.75074 0.66354 0.40522 0.0
C2828 C 0.72783 0.65566 0.36859 0.0
C2829 C 0.71239 0.67361 0.35765 0.0
C2830 C 0.72092 0.6702 0.36571 0.0
C2831 C 0.74641 0.66061 0.38694 0.0
C2832 C 0.73765 0.66396 0.37967 0.0
H2833 H 0.69753 0.68863 0.36845 0.0
H2834 H 0.71126 0.68279 0.38224 0.0
H2835 H 0.71205 0.65208 0.35336 0.0
H2836 H 0.76072 0.64543 0.37401 0.0
H2837 H 0.74722 0.65192 0.36157 0.0
C2838 C 0.29726 0.01926 0.36511 0.0
C2839 C 0.30392 0.01336 0.36291 0.0
C2840 C 0.30286 0.03191 0.36469 0.0
C2841 C 0.33177 0.05812 0.37633 0.0
H2842 H 0.31839 0.07663 0.3552 0.0
C2843 C 0.35377 0.10892 0.39289 0.0
C2844 C 0.34598 0.11325 0.3973 0.0
C2845 C 0.34944 0.09762 0.38407 0.0
C2846 C 0.32222 0.0716 0.36128 0.0
H2847 H 0.32158 0.01613 0.35735 0.0
H2848 H 0.33131 0.03815 0.35676 0.0
H2849 H 0.30899 0.0549 0.34811 0.0
H2850 H 0.32765 0.10943 0.39433 0.0
H2851 H 0.32001 0.0895 0.37997 0.0
H2852 H 0.34454 0.07446 0.39034 0.0
C2853 C 0.32177 0.03298 0.35895 0.0
C2854 C 0.31685 0.05916 0.35715 0.0
C2855 C 0.31617 0.02035 0.35923 0.0
C2856 C 0.33388 0.10628 0.39161 0.0
C2857 C 0.32952 0.09488 0.38306 0.0
C2858 C 0.33703 0.07047 0.38064 0.0
C2859 C 0.31524 0.0389 0.36217 0.0
C2860 C 0.3215 0.05228 0.36483 0.0
C2861 C 0.33718 0.09023 0.37971 0.0
C2862 C 0.33224 0.07737 0.37339 0.0
H2863 H 0.2878 0.01416 0.36785 0.0
H2864 H 0.29761 0.03623 0.36731 0.0
H2865 H 0.33543 0.05302 0.38273 0.0
H2866 H 0.36313 0.11393 0.39708 0.0
H2867 H 0.35568 0.0945 0.38128 0.0
C2868 C 0.99025 0.30216 0.35715 0.0
C2869 C 0.99436 0.2959 0.34618 0.0
C2870 C 0.97888 0.29608 0.36453 0.0
C2871 C 0.94947 0.26791 0.3584 0.0
H2872 H 0.94388 0.27783 0.40611 0.0
C2873 C 0.90564 0.24148 0.39854 0.0
C2874 C 0.90124 0.24841 0.40704 0.0
C2875 C 0.91663 0.24713 0.38988 0.0
C2876 C 0.9453 0.27505 0.39269 0.0
H2877 H 0.98992 0.27825 0.33484 0.0
H2878 H 0.97019 0.26752 0.34826 0.0
H2879 H 0.96408 0.28755 0.39455 0.0
H2880 H 0.90466 0.26673 0.41202 0.0
H2881 H 0.92398 0.27656 0.3973 0.0
H2882 H 0.93064 0.25517 0.3569 0.0
C2883 C 0.97563 0.27721 0.35074 0.0
C2884 C 0.95687 0.28062 0.38603 0.0
C2885 C 0.98698 0.28334 0.34317 0.0
C2886 C 0.90788 0.26111 0.40599 0.0
C2887 C 0.91893 0.26675 0.39753 0.0
C2888 C 0.9379 0.26223 0.36519 0.0
C2889 C 0.97138 0.28354 0.36133 0.0
C2890 C 0.95911 0.2772 0.36873 0.0
C2891 C 0.92351 0.25982 0.38971 0.0
C2892 C 0.93571 0.26583 0.38233 0.0
H2893 H 0.99567 0.31186 0.35963 0.0
H2894 H 0.97587 0.30131 0.37234 0.0
H2895 H 0.95081 0.26517 0.3449 0.0
H2896 H 0.90088 0.23169 0.39928 0.0
H2897 H 0.92 0.24157 0.38406 0.0
C2898 C 0.03243 0.3726 0.33091 0.0
C2899 C 0.0255 0.35993 0.32866 0.0
C2900 C 0.02698 0.3797 0.33084 0.0
C2901 C 0.00301 0.38021 0.30748 0.0
H2902 H 0.00979 0.4075 0.33982 0.0
C2903 C 0.99258 0.41576 0.28156 0.0
C2904 C 0.0016 0.42786 0.28508 0.0
C2905 C 0.99214 0.4064 0.29185 0.0
C2906 C 0.00785 0.39997 0.33055 0.0
H2907 H 0.00738 0.34473 0.32551 0.0
H2908 H 0.99794 0.35724 0.32474 0.0
H2909 H 0.01606 0.39311 0.34903 0.0
H2910 H 0.01625 0.43961 0.30394 0.0
H2911 H 0.01621 0.42337 0.32058 0.0
H2912 H 0.99588 0.38742 0.2882 0.0
C2913 C 0.00755 0.3616 0.32683 0.0
C2914 C 0.01136 0.39169 0.33595 0.0
C2915 C 0.01297 0.35447 0.32726 0.0
C2916 C 0.00948 0.43039 0.30024 0.0
C2917 C 0.00928 0.42101 0.31014 0.0
C2918 C -0.00022 0.38861 0.30187 0.0
C2919 C 0.01454 0.37428 0.3282 0.0
C2920 C 0.00919 0.38191 0.32425 0.0
C2921 C 0.00094 0.40882 0.30553 0.0
C2922 C 0.00244 0.39882 0.31309 0.0
H2923 H 0.04209 0.37705 0.33216 0.0
H2924 H 0.03256 0.38948 0.33174 0.0
H2925 H 0.00137 0.3728 0.29811 0.0
H2926 H 0.98627 0.41333 0.27012 0.0
H2927 H 0.98526 0.3972 0.28833 0.0
C2928 C 0.62517 0.6552 0.32008 0.0
C2929 C 0.63749 0.65972 0.32309 0.0
C2930 C 0.61707 0.64275 0.32043 0.0
C2931 C 0.61586 0.61405 0.31117 0.0
H2932 H 0.58461 0.59965 0.33284 0.0
C2933 C 0.58327 0.56319 0.30155 0.0
C2934 C 0.57127 0.55962 0.2972 0.0
C2935 C 0.59118 0.57485 0.30852 0.0
C2936 C 0.59327 0.60353 0.32659 0.0
H2937 H 0.65087 0.65469 0.32956 0.0
H2938 H 0.63672 0.63296 0.32999 0.0
H2939 H 0.59879 0.62128 0.3379 0.0
H2940 H 0.55807 0.5654 0.2982 0.0
H2941 H 0.572 0.58591 0.30937 0.0
H2942 H 0.6103 0.59661 0.29911 0.0
C2943 C 0.63336 0.63908 0.32729 0.0
C2944 C 0.60139 0.61591 0.32956 0.0
C2945 C 0.64146 0.65153 0.32711 0.0
C2946 C 0.56728 0.56787 0.30097 0.0
C2947 C 0.57526 0.57962 0.30766 0.0
C2948 C 0.60772 0.60175 0.30803 0.0
C2949 C 0.62112 0.63455 0.32364 0.0
C2950 C 0.61274 0.6213 0.32176 0.0
C2951 C 0.5874 0.58338 0.31101 0.0
C2952 C 0.59628 0.59632 0.31558 0.0
H2953 H 0.62179 0.66126 0.31704 0.0
H2954 H 0.60769 0.63952 0.31744 0.0
H2955 H 0.62445 0.61798 0.3047 0.0
H2956 H 0.5868 0.55723 0.29874 0.0
H2957 H 0.60038 0.57729 0.31138 0.0
C2958 C 0.34973 0.9975 0.35187 0.0
C2959 C 0.33797 0.98847 0.34703 0.0
C2960 C 0.35946 0.99781 0.34322 0.0
C2961 C 0.36754 0.98614 0.30214 0.0
H2962 H 0.39477 0.99145 0.33256 0.0
C2963 C 0.40177 0.97336 0.2771 0.0
C2964 C 0.41395 0.98171 0.28056 0.0
C2965 C 0.39298 0.97505 0.2852 0.0
C2966 C 0.3873 0.9901 0.32386 0.0
H2967 H 0.32721 0.97282 0.32902 0.0
H2968 H 0.34413 0.97326 0.31414 0.0
H2969 H 0.37851 0.99311 0.3463 0.0
H2970 H 0.42647 0.99824 0.29552 0.0
H2971 H 0.41103 0.00119 0.30975 0.0
H2972 H 0.37622 0.98289 0.27978 0.0
C2973 C 0.34586 0.98022 0.32445 0.0
C2974 C 0.37799 0.99108 0.3317 0.0
C2975 C 0.33614 0.97992 0.33306 0.0
C2976 C 0.41715 0.99169 0.29254 0.0
C2977 C 0.40833 0.99334 0.30076 0.0
C2978 C 0.37681 0.98512 0.29433 0.0
C2979 C 0.35764 0.98909 0.32953 0.0
C2980 C 0.36793 0.98894 0.32097 0.0
C2981 C 0.39615 0.9851 0.29699 0.0
C2982 C 0.3867 0.98692 0.30515 0.0
H2983 H 0.35145 0.00426 0.36252 0.0
H2984 H 0.36841 0.00486 0.34727 0.0
H2985 H 0.36004 0.98468 0.29341 0.0
H2986 H 0.39901 0.96567 0.26774 0.0
H2987 H 0.38367 0.96845 0.28222 0.0
C2988 C 0.63666 0.98195 0.32785 0.0
C2989 C 0.63324 0.97406 0.34265 0.0
C2990 C 0.62843 0.98458 0.31936 0.0
C2991 C 0.59605 0.97285 0.31282 0.0
H2992 H 0.60523 0.00627 0.3038 0.0
C2993 C 0.56508 0.9861 0.27413 0.0
C2994 C 0.56424 0.9959 0.28155 0.0
C2995 C 0.57363 0.98341 0.28097 0.0
C2996 C 0.60254 0.9969 0.30631 0.0
H2997 H 0.61845 0.96257 0.35993 0.0
H2998 H 0.6042 0.9671 0.34513 0.0
H2999 H 0.62004 0.00151 0.31639 0.0
H3000 H 0.57167 0.01045 0.30224 0.0
H3001 H 0.58667 0.00579 0.31409 0.0
H3002 H 0.57853 0.96823 0.30303 0.0
C3003 C 0.61319 0.97124 0.34002 0.0
C3004 C 0.61104 0.99417 0.31331 0.0
C3005 C 0.6214 0.96871 0.34857 0.0
C3006 C 0.57216 0.00293 0.29605 0.0
C3007 C 0.58076 0.00027 0.30283 0.0
C3008 C 0.58759 0.97557 0.30571 0.0
C3009 C 0.61661 0.97925 0.32539 0.0
C3010 C 0.60785 0.98212 0.31681 0.0
C3011 C 0.5816 0.99049 0.29533 0.0
C3012 C 0.5907 0.98763 0.30252 0.0
H3013 H 0.64572 0.98623 0.32299 0.0
H3014 H 0.63129 0.99073 0.30802 0.0
H3015 H 0.59336 0.96347 0.31524 0.0
H3016 H 0.55932 0.98066 0.26269 0.0
H3017 H 0.57415 0.97592 0.27475 0.0
C3018 C 0.04446 0.66315 0.32138 0.0
C3019 C 0.03556 0.6664 0.32067 0.0
C3020 C 0.04138 0.65099 0.32153 0.0
C3021 C 0.01655 0.61935 0.3263 0.0
H3022 H 0.0348 0.61265 0.29101 0.0
C3023 C 0.00216 0.57181 0.29341 0.0
C3024 C 0.01133 0.56948 0.28836 0.0
C3025 C 0.00493 0.583 0.30152 0.0
C3026 C 0.02975 0.61433 0.30121 0.0
H3027 H 0.01643 0.65947 0.32072 0.0
H3028 H 0.01102 0.63812 0.3205 0.0
H3029 H 0.03998 0.63339 0.2976 0.0
H3030 H 0.03062 0.57694 0.2895 0.0
H3031 H 0.03526 0.59588 0.30441 0.0
H3032 H 0.00612 0.60008 0.32945 0.0
C3033 C 0.02039 0.64501 0.32117 0.0
C3034 C 0.03273 0.62626 0.30499 0.0
C3035 C 0.02349 0.65724 0.32121 0.0
C3036 C 0.02323 0.57821 0.29319 0.0
C3037 C 0.02595 0.58924 0.30152 0.0
C3038 C 0.01356 0.60731 0.32251 0.0
C3039 C 0.02932 0.64177 0.32072 0.0
C3040 C 0.0262 0.62895 0.31757 0.0
C3041 C 0.01691 0.59202 0.30493 0.0
C3042 C 0.02016 0.60468 0.30992 0.0
H3043 H 0.05385 0.67 0.32133 0.0
H3044 H 0.04848 0.64881 0.32167 0.0
H3045 H 0.01136 0.62114 0.33609 0.0
H3046 H 0.99287 0.56523 0.29037 0.0
H3047 H 0.99773 0.58482 0.30408 0.0
C3048 C 0.34385 0.36799 0.33825 0.0
C3049 C 0.34154 0.35658 0.34405 0.0
C3050 C 0.3547 0.3759 0.33022 0.0
C3051 C 0.38563 0.38131 0.32531 0.0
H3052 H 0.38679 0.40251 0.28686 0.0
C3053 C 0.43047 0.41684 0.29547 0.0
C3054 C 0.43058 0.41867 0.2765 0.0
C3055 C 0.41963 0.40997 0.30423 0.0
C3056 C 0.38663 0.39657 0.29746 0.0
H3057 H 0.34855 0.34431 0.34544 0.0
H3058 H 0.36722 0.35783 0.33075 0.0
H3059 H 0.36776 0.38864 0.30016 0.0
H3060 H 0.41956 0.41469 0.25177 0.0
H3061 H 0.40071 0.4024 0.26684 0.0
H3062 H 0.40439 0.38876 0.32193 0.0
C3063 C 0.36089 0.36091 0.33296 0.0
C3064 C 0.37571 0.38873 0.30531 0.0
C3065 C 0.35014 0.3531 0.34125 0.0
C3066 C 0.41969 0.41357 0.26648 0.0
C3067 C 0.40889 0.40656 0.27516 0.0
C3068 C 0.39652 0.38903 0.31728 0.0
C3069 C 0.36339 0.37248 0.32755 0.0
C3070 C 0.37505 0.38096 0.3193 0.0
C3071 C 0.4087 0.40462 0.29415 0.0
C3072 C 0.39717 0.39674 0.3032 0.0
H3073 H 0.33742 0.37096 0.34036 0.0
H3074 H 0.35635 0.38478 0.32649 0.0
H3075 H 0.38554 0.37564 0.33629 0.0
H3076 H 0.43876 0.42076 0.3035 0.0
H3077 H 0.41984 0.40887 0.31892 0.0
C3078 C 0.29286 0.28866 0.35814 0.0
C3079 C 0.30145 0.30107 0.359 0.0
C3080 C 0.29636 0.27995 0.3564 0.0
C3081 C 0.32278 0.27587 0.34872 0.0
H3082 H 0.3071 0.25043 0.38387 0.0
C3083 C 0.34585 0.25463 0.38889 0.0
C3084 C 0.33923 0.24241 0.39376 0.0
C3085 C 0.34048 0.25991 0.37872 0.0
C3086 C 0.31142 0.25728 0.37365 0.0
H3087 H 0.32041 0.31407 0.3575 0.0
H3088 H 0.32654 0.29895 0.35511 0.0
H3089 H 0.29882 0.26331 0.37671 0.0
H3090 H 0.32203 0.2259 0.39037 0.0
H3091 H 0.31259 0.23524 0.37291 0.0
H3092 H 0.33583 0.27022 0.3467 0.0
C3093 C 0.31707 0.29588 0.35542 0.0
C3094 C 0.30666 0.26469 0.3695 0.0
C3095 C 0.31355 0.30459 0.35694 0.0
C3096 C 0.32732 0.2354 0.3872 0.0
C3097 C 0.32192 0.24072 0.37713 0.0
C3098 C 0.32761 0.26851 0.35301 0.0
C3099 C 0.30855 0.28344 0.3557 0.0
C3100 C 0.31247 0.27433 0.35743 0.0
C3101 C 0.32835 0.25312 0.37329 0.0
C3102 C 0.32216 0.25938 0.36595 0.0
H3103 H 0.28344 0.28564 0.35939 0.0
H3104 H 0.28954 0.27046 0.35622 0.0
H3105 H 0.32735 0.28304 0.33906 0.0
H3106 H 0.35498 0.26036 0.39388 0.0
H3107 H 0.34563 0.26952 0.37619 0.0
C3108 C 0.71063 0.00951 0.37671 0.0
C3109 C 0.70043 0.00471 0.36507 0.0
C3110 C 0.71963 0.02156 0.37558 0.0
C3111 C 0.72639 0.05145 0.358 0.0
H3112 H 0.75846 0.05868 0.37153 0.0
C3113 C 0.76275 0.09882 0.38463 0.0
C3114 C 0.7748 0.10167 0.38578 0.0
C3115 C 0.75389 0.08773 0.37692 0.0
C3116 C 0.74969 0.057 0.36721 0.0
H3117 H 0.69164 0.00882 0.34304 0.0
H3118 H 0.70768 0.02992 0.34054 0.0
H3119 H 0.74285 0.03794 0.36752 0.0
H3120 H 0.78689 0.09537 0.37709 0.0
H3121 H 0.77183 0.07704 0.36201 0.0
H3122 H 0.73341 0.07059 0.35688 0.0
C3123 C 0.70858 0.02438 0.35085 0.0
C3124 C 0.74059 0.04495 0.36533 0.0
C3125 C 0.69941 0.01228 0.35221 0.0
C3126 C 0.77783 0.09373 0.37682 0.0
C3127 C 0.76903 0.08289 0.36844 0.0
C3128 C 0.73561 0.06358 0.35944 0.0
C3129 C 0.71885 0.02915 0.36248 0.0
C3130 C 0.72872 0.04199 0.36148 0.0
C3131 C 0.75684 0.07935 0.36941 0.0
C3132 C 0.74734 0.06656 0.36472 0.0
H3133 H 0.71161 0.004 0.38701 0.0
H3134 H 0.72714 0.02494 0.38524 0.0
H3135 H 0.71738 0.04955 0.35493 0.0
H3136 H 0.75998 0.10486 0.39044 0.0
H3137 H 0.74468 0.08554 0.37788 0.0
C3138 C 0.98886 0.69653 0.33151 0.0
C3139 C 0.99756 0.69409 0.3388 0.0
C3140 C 0.97788 0.69222 0.33996 0.0
C3141 C 0.95758 0.66827 0.37038 0.0
H3142 H 0.9424 0.68783 0.37491 0.0
C3143 C 0.9152 0.65303 0.41203 0.0
C3144 C 0.90622 0.65506 0.40475 0.0
C3145 C 0.92631 0.65796 0.4039 0.0
C3146 C 0.94646 0.68221 0.37354 0.0
H3147 H 0.00167 0.68547 0.36095 0.0
H3148 H 0.98252 0.67801 0.37578 0.0
H3149 H 0.9621 0.69643 0.36145 0.0
H3150 H 0.90189 0.66387 0.38317 0.0
H3151 H 0.92137 0.67247 0.36884 0.0
H3152 H 0.94196 0.65404 0.38237 0.0
C3153 C 0.98415 0.68313 0.36338 0.0
C3154 C 0.95775 0.68714 0.36587 0.0
C3155 C 0.99514 0.68746 0.35495 0.0
C3156 C 0.90865 0.6622 0.38916 0.0
C3157 C 0.9198 0.66715 0.38099 0.0
C3158 C 0.9463 0.66334 0.37801 0.0
C3159 C 0.97535 0.68535 0.35586 0.0
C3160 C 0.96344 0.68023 0.36425 0.0
C3161 C 0.92875 0.66506 0.38828 0.0
C3162 C 0.94062 0.67026 0.37974 0.0
H3163 H 0.99043 0.70161 0.31908 0.0
H3164 H 0.97126 0.69399 0.33372 0.0
H3165 H 0.96162 0.66263 0.36899 0.0
H3166 H 0.91372 0.64781 0.42429 0.0
H3167 H 0.93308 0.65638 0.41008 0.0
C3168 C 0.3647 0.01921 0.68935 0.0
C3169 C 0.36869 0.02875 0.67701 0.0
C3170 C 0.37269 0.01601 0.69706 0.0
C3171 C 0.40484 0.02718 0.70631 0.0
H3172 H 0.39465 0.99295 0.70739 0.0
C3173 C 0.43728 0.00971 0.72514 0.0
C3174 C 0.4328 -0.00039 0.73647 0.0
C3175 C 0.42965 0.01348 0.71771 0.0
C3176 C 0.3976 0.00255 0.70737 0.0
H3177 H 0.38429 0.04264 0.66352 0.0
H3178 H 0.39819 0.03704 0.67693 0.0
H3179 H 0.38093 0.99929 0.69559 0.0
H3180 H 0.41683 0.98579 0.7493 0.0
H3181 H 0.40359 0.99232 0.73638 0.0
H3182 H 0.42151 0.03043 0.71816 0.0
C3183 C 0.3889 0.03207 0.68071 0.0
C3184 C 0.38973 0.00617 0.70063 0.0
C3185 C 0.3809 0.03523 0.67295 0.0
C3186 C 0.42054 0.99342 0.74025 0.0
C3187 C 0.41294 0.99718 0.73286 0.0
C3188 C 0.41272 0.02355 0.7131 0.0
C3189 C 0.38486 0.02232 0.69267 0.0
C3190 C 0.39324 0.01853 0.70007 0.0
C3191 C 0.41737 0.00724 0.72149 0.0
C3192 C 0.40917 0.01118 0.71377 0.0
H3193 H 0.35536 0.01405 0.69282 0.0
H3194 H 0.36934 0.00857 0.70643 0.0
H3195 H 0.40777 0.03677 0.70621 0.0
H3196 H 0.44667 0.01463 0.72188 0.0
H3197 H 0.43333 0.02119 0.70883 0.0
C3198 C 0.97031 0.34653 0.69444 0.0
C3199 C 0.9596 0.3373 0.70153 0.0
C3200 C 0.9724 0.3584 0.69352 0.0
C3201 C 0.95748 0.37697 0.69776 0.0
H3202 H 0.98826 0.40146 0.71835 0.0
C3203 C 0.96477 0.41873 0.73937 0.0
C3204 C 0.97559 0.42976 0.73814 0.0
C3205 C 0.96287 0.40843 0.72944 0.0
C3206 C 0.97971 0.39482 0.71219 0.0
H3207 H 0.94245 0.33323 0.71235 0.0
H3208 H 0.94617 0.35381 0.71107 0.0
H3209 H 0.98489 0.38132 0.71069 0.0
H3210 H 0.99256 0.43872 0.7244 0.0
H3211 H 0.98931 0.42058 0.70739 0.0
H3212 H 0.95213 0.39034 0.70029 0.0
C3213 C 0.95292 0.35192 0.70598 0.0
C3214 C 0.97777 0.38325 0.70777 0.0
C3215 C 0.95083 0.3401 0.70688 0.0
C3216 C 0.98422 0.43033 0.72598 0.0
C3217 C 0.98236 0.41997 0.71617 0.0
C3218 C 0.9594 0.38851 0.7023 0.0
C3219 C 0.96381 0.36128 0.69964 0.0
C3220 C 0.96651 0.37406 0.70109 0.0
C3221 C 0.97176 0.40885 0.71813 0.0
C3222 C 0.97041 0.39743 0.71011 0.0
H3223 H 0.97723 0.34468 0.69008 0.0
H3224 H 0.98083 0.36537 0.68836 0.0
H3225 H 0.94878 0.37018 0.69226 0.0
H3226 H 0.95799 0.41783 0.74879 0.0
H3227 H 0.95468 0.39996 0.73146 0.0
C3228 C 0.66322 0.64024 0.68509 0.0
C3229 C 0.672 0.63704 0.68872 0.0
C3230 C 0.65186 0.63362 0.69234 0.0
C3231 C 0.63502 0.61302 0.72896 0.0
H3232 H 0.60768 0.60353 0.696 0.0
C3233 C 0.58689 0.58109 0.75163 0.0
C3234 C 0.57807 0.58389 0.74617 0.0
C3235 C 0.59825 0.58708 0.74417 0.0
C3236 C 0.6152 0.60622 0.70545 0.0
H3237 H 0.67583 0.6246 0.70329 0.0
H3238 H 0.65593 0.61308 0.71612 0.0
H3239 H 0.62785 0.61526 0.68449 0.0
H3240 H 0.57423 0.59497 0.72814 0.0
H3241 H 0.59415 0.60569 0.71555 0.0
H3242 H 0.62243 0.60419 0.75003 0.0
C3243 C 0.65789 0.62071 0.70761 0.0
C3244 C 0.62676 0.61292 0.69884 0.0
C3245 C 0.66926 0.62729 0.70022 0.0
C3246 C 0.58084 0.59268 0.7328 0.0
C3247 C 0.59223 0.59873 0.72542 0.0
C3248 C 0.62347 0.60638 0.73562 0.0
C3249 C 0.64903 0.62371 0.7035 0.0
C3250 C 0.63678 0.61643 0.71054 0.0
C3251 C 0.60112 0.5961 0.73116 0.0
C3252 C 0.61341 0.60292 0.72396 0.0
H3253 H 0.66503 0.64773 0.67633 0.0
H3254 H 0.64526 0.63625 0.68918 0.0
H3255 H 0.64259 0.6157 0.73833 0.0
H3256 H 0.58516 0.5745 0.76208 0.0
H3257 H 0.60481 0.58469 0.7487 0.0
C3258 C 0.71405 0.71097 0.64361 0.0
C3259 C 0.70615 0.69922 0.64954 0.0
C3260 C 0.71054 0.71969 0.6431 0.0
C3261 C 0.68795 0.7274 0.65876 0.0
H3262 H 0.69356 0.74303 0.61183 0.0
C3263 C 0.66118 0.7493 0.6309 0.0
C3264 C 0.66677 0.75894 0.61875 0.0
C3265 C 0.66731 0.74374 0.63801 0.0
C3266 C 0.69213 0.739 0.6252 0.0
H3267 H 0.6886 0.68765 0.66058 0.0
H3268 H 0.68245 0.70288 0.65951 0.0
H3269 H 0.70194 0.73016 0.61831 0.0
H3270 H 0.68356 0.77078 0.60567 0.0
H3271 H 0.69432 0.76157 0.61881 0.0
H3272 H 0.67793 0.73613 0.66548 0.0
C3273 C 0.69138 0.70534 0.65535 0.0
C3274 C 0.69693 0.73158 0.62889 0.0
C3275 C 0.69488 0.69659 0.65583 0.0
C3276 C 0.67891 0.76345 0.61505 0.0
C3277 C 0.68507 0.75802 0.62236 0.0
C3278 C 0.68319 0.73493 0.65511 0.0
C3279 C 0.69907 0.71688 0.64855 0.0
C3280 C 0.69477 0.72557 0.64559 0.0
C3281 C 0.67921 0.74779 0.63331 0.0
C3282 C 0.68511 0.7407 0.63817 0.0
H3283 H 0.72285 0.71337 0.63885 0.0
H3284 H 0.71672 0.72858 0.63805 0.0
H3285 H 0.68623 0.72295 0.67181 0.0
H3286 H 0.65192 0.74574 0.6344 0.0
H3287 H 0.6625 0.73588 0.6464 0.0
C3288 C 0.30656 0.98533 0.66066 0.0
C3289 C 0.3017 0.99297 0.65853 0.0
C3290 C 0.29912 0.97274 0.6605 0.0
C3291 C 0.26794 0.94786 0.66454 0.0
H3292 H 0.27702 0.93126 0.6288 0.0
C3293 C 0.2346 0.9006 0.63273 0.0
C3294 C 0.23896 0.8931 0.62632 0.0
C3295 C 0.24241 0.91213 0.64038 0.0
C3296 C 0.27443 0.93562 0.63918 0.0
H3297 H 0.28513 0.99335 0.65573 0.0
H3298 H 0.27218 0.97138 0.65555 0.0
H3299 H 0.29043 0.9526 0.63594 0.0
H3300 H 0.25501 0.89171 0.62416 0.0
H3301 H 0.26836 0.91134 0.63844 0.0
H3302 H 0.25188 0.93086 0.66772 0.0
C3303 C 0.28175 0.97515 0.6573 0.0
C3304 C 0.28213 0.94791 0.64321 0.0
C3305 C 0.28919 0.98774 0.65728 0.0
C3306 C 0.25121 0.89711 0.629 0.0
C3307 C 0.25897 0.90853 0.63692 0.0
C3308 C 0.26026 0.93549 0.66067 0.0
C3309 C 0.28666 0.96752 0.65841 0.0
C3310 C 0.27891 0.95421 0.65571 0.0
C3311 C 0.25476 0.91638 0.64208 0.0
C3312 C 0.26332 0.92924 0.6477 0.0
H3313 H 0.31615 0.98904 0.66173 0.0
H3314 H 0.30314 0.96707 0.66157 0.0
H3315 H 0.26527 0.95249 0.67434 0.0
H3316 H 0.2252 0.89775 0.63132 0.0
H3317 H 0.2388 0.91789 0.64413 0.0
C3318 C 0.00511 0.32267 0.66694 0.0
C3319 C 0.99722 0.31008 0.66723 0.0
C3320 C 0.01661 0.32729 0.66022 0.0
C3321 C 0.03544 0.31971 0.6318 0.0
H3322 H 0.06151 0.34423 0.66236 0.0
C3323 C 0.08417 0.33288 0.6194 0.0
C3324 C 0.09293 0.34524 0.6208 0.0
C3325 C 0.07258 0.32886 0.62524 0.0
C3326 C 0.05434 0.3375 0.65354 0.0
H3327 H 0.99505 0.29251 0.65992 0.0
H3328 H 0.01512 0.3006 0.64811 0.0
H3329 H 0.04089 0.33687 0.67103 0.0
H3330 H 0.09639 0.363 0.63006 0.0
H3331 H 0.07604 0.35602 0.63985 0.0
H3332 H 0.04883 0.32035 0.61425 0.0
C3333 C 0.01239 0.30688 0.65309 0.0
C3334 C 0.04252 0.33329 0.65851 0.0
C3335 C 0.00091 0.30225 0.65991 0.0
C3336 C 0.08985 0.35344 0.62863 0.0
C3337 C 0.07821 0.34942 0.63439 0.0
C3338 C 0.04724 0.32396 0.62678 0.0
C3339 C 0.02044 0.31944 0.65353 0.0
C3340 C 0.03295 0.32429 0.64776 0.0
C3341 C 0.06939 0.3371 0.6325 0.0
C3342 C 0.05684 0.33283 0.63767 0.0
H3343 H 0.00254 0.32898 0.67241 0.0
H3344 H 0.02256 0.33702 0.66047 0.0
H3345 H 0.02824 0.31288 0.62312 0.0
H3346 H 0.08613 0.32631 0.61319 0.0
H3347 H 0.06609 0.31928 0.62389 0.0
C3348 C 0.29274 0.29962 0.64745 0.0
C3349 C 0.302 0.30849 0.65878 0.0
C3350 C 0.28342 0.3013 0.64107 0.0
C3351 C 0.27427 0.32451 0.6352 0.0
H3352 H 0.24232 0.29648 0.63533 0.0
C3353 C 0.23169 0.32801 0.62301 0.0
C3354 C 0.22312 0.31942 0.61046 0.0
C3355 C 0.24125 0.32673 0.6295 0.0
C3356 C 0.25119 0.30437 0.63511 0.0
H3357 H 0.30894 0.32628 0.67179 0.0
H3358 H 0.2926 0.32912 0.66091 0.0
H3359 H 0.25939 0.29439 0.64459 0.0
H3360 H 0.21795 0.30272 0.59499 0.0
H3361 H 0.23441 0.30039 0.60661 0.0
H3362 H 0.26598 0.33449 0.62588 0.0
C3363 C 0.29259 0.32092 0.65674 0.0
C3364 C 0.261 0.30317 0.64033 0.0
C3365 C 0.30196 0.31927 0.66304 0.0
C3366 C 0.22419 0.30938 0.60494 0.0
C3367 C 0.23368 0.30806 0.61153 0.0
C3368 C 0.26444 0.32572 0.63008 0.0
C3369 C 0.28309 0.31186 0.64595 0.0
C3370 C 0.27268 0.3132 0.64033 0.0
C3371 C 0.2424 0.31679 0.6237 0.0
C3372 C 0.2528 0.31564 0.62988 0.0
H3373 H 0.29254 0.29125 0.64379 0.0
H3374 H 0.2764 0.29425 0.63243 0.0
H3375 H 0.28313 0.33239 0.63483 0.0
H3376 H 0.23107 0.33577 0.62775 0.0
H3377 H 0.24775 0.33352 0.63908 0.0
C3378 C 0.68281 0.98239 0.66403 0.0
C3379 C 0.69428 0.98921 0.65679 0.0
C3380 C 0.67768 0.96988 0.66607 0.0
C3381 C 0.66588 0.94336 0.65421 0.0
H3382 H 0.68506 0.92814 0.66188 0.0
C3383 C 0.65458 0.89829 0.61943 0.0
C3384 C 0.65862 0.89092 0.62719 0.0
C3385 C 0.65693 0.90908 0.62828 0.0
C3386 C 0.67945 0.93214 0.66009 0.0
H3387 H 0.70956 0.98827 0.64689 0.0
H3388 H 0.70056 0.96655 0.64995 0.0
H3389 H 0.69362 0.94963 0.66899 0.0
H3390 H 0.66742 0.88856 0.65106 0.0
H3391 H 0.67134 0.90735 0.66678 0.0
H3392 H 0.6517 0.92587 0.64529 0.0
C3393 C 0.69556 0.97083 0.65441 0.0
C3394 C 0.68444 0.94454 0.66392 0.0
C3395 C 0.70071 0.98332 0.65249 0.0
C3396 C 0.66433 0.89415 0.64464 0.0
C3397 C 0.66661 0.90493 0.65359 0.0
C3398 C 0.66084 0.93093 0.65057 0.0
C3399 C 0.68388 0.96389 0.66082 0.0
C3400 C 0.67789 0.95041 0.66029 0.0
C3401 C 0.66332 0.91275 0.6452 0.0
C3402 C 0.66772 0.92526 0.65273 0.0
H3403 H 0.67765 0.98665 0.66767 0.0
H3404 H 0.66875 0.96486 0.67137 0.0
H3405 H 0.66054 0.94754 0.6512 0.0
H3406 H 0.65032 0.89616 0.60588 0.0
H3407 H 0.6544 0.91491 0.62121 0.0
C3408 C 0.01783 0.69872 0.68811 0.0
C3409 C 0.00723 0.69725 0.67996 0.0
C3410 C 0.02879 0.70565 0.67979 0.0
C3411 C 0.04397 0.73 0.64675 0.0
H3412 H 0.06733 0.71935 0.64692 0.0
C3413 C 0.08749 0.75349 0.60586 0.0
C3414 C 0.09794 0.75471 0.6142 0.0
C3415 C 0.07645 0.74687 0.61416 0.0
C3416 C 0.06096 0.72253 0.64697 0.0
H3417 H -0.00019 0.70178 0.65649 0.0
H3418 H 0.01899 0.71382 0.64181 0.0
H3419 H 0.04785 0.70665 0.66017 0.0
H3420 H 0.10506 0.75029 0.63815 0.0
H3421 H 0.08578 0.73872 0.65268 0.0
H3422 H 0.0571 0.74588 0.6335 0.0
C3423 C 0.01881 0.70971 0.6548 0.0
C3424 C 0.04979 0.71523 0.65453 0.0
C3425 C 0.00782 0.70275 0.66314 0.0
C3426 C 0.09715 0.74938 0.63126 0.0
C3427 C 0.08611 0.74274 0.63955 0.0
C3428 C 0.05515 0.73729 0.63918 0.0
C3429 C 0.02943 0.71129 0.66308 0.0
C3430 C 0.04117 0.7189 0.65456 0.0
C3431 C 0.07561 0.74128 0.63098 0.0
C3432 C 0.06378 0.73365 0.63925 0.0
H3433 H 0.01771 0.69463 0.70109 0.0
H3434 H 0.03681 0.7068 0.68666 0.0
H3435 H 0.0376 0.73317 0.64681 0.0
H3436 H 0.08774 0.7573 0.59257 0.0
H3437 H 0.06852 0.74579 0.60709 0.0
C3438 C 0.9574 0.62922 0.70287 0.0
C3439 C 0.96601 0.64138 0.69999 0.0
C3440 C 0.9606 0.62026 0.70288 0.0
C3441 C 0.98454 0.61335 0.69152 0.0
H3442 H 0.97245 0.59262 0.73344 0.0
C3443 C 0.00582 0.58649 0.72201 0.0
C3444 C 0.99828 0.57551 0.73058 0.0
C3445 C 0.00118 0.59336 0.71446 0.0
C3446 C 0.97573 0.59812 0.72142 0.0
H3447 H 0.98463 0.65353 0.69382 0.0
H3448 H 0.99024 0.63788 0.69417 0.0
H3449 H 0.96558 0.60676 0.72711 0.0
H3450 H 0.97976 0.56281 0.73671 0.0
H3451 H 0.9717 0.57445 0.72286 0.0
H3452 H 0.99493 0.6048 0.68617 0.0
C3453 C 0.98099 0.63528 0.69624 0.0
C3454 C 0.97179 0.60627 0.71779 0.0
C3455 C 0.97777 0.64426 0.69615 0.0
C3456 C 0.98589 0.57115 0.73015 0.0
C3457 C 0.98126 0.57794 0.72244 0.0
C3458 C 0.98848 0.60513 0.69513 0.0
C3459 C 0.9725 0.62324 0.70011 0.0
C3460 C 0.9762 0.61405 0.7029 0.0
C3461 C 0.98889 0.58935 0.71519 0.0
C3462 C 0.98418 0.59748 0.71023 0.0
H3463 H 0.94822 0.62664 0.7056 0.0
H3464 H 0.95379 0.61102 0.70552 0.0
H3465 H 0.98804 0.61917 0.67986 0.0
H3466 H 0.01538 0.59002 0.72173 0.0
H3467 H 0.00732 0.60211 0.70896 0.0
C3468 C 0.38003 0.34651 0.69749 0.0
C3469 C 0.36796 0.34333 0.69538 0.0
C3470 C 0.38904 0.35863 0.69828 0.0
C3471 C 0.39688 0.39015 0.68957 0.0
H3472 H 0.41901 0.3971 0.73072 0.0
C3473 C 0.43189 0.43884 0.71727 0.0
C3474 C 0.44281 0.44045 0.72443 0.0
C3475 C 0.42281 0.42737 0.71098 0.0
C3476 C 0.41306 0.39533 0.71897 0.0
H3477 H 0.35598 0.35046 0.69128 0.0
H3478 H 0.37184 0.37179 0.69284 0.0
H3479 H 0.40306 0.37647 0.72455 0.0
H3480 H 0.45283 0.43118 0.72952 0.0
H3481 H 0.43742 0.41162 0.71777 0.0
H3482 H 0.407 0.40916 0.6841 0.0
C3483 C 0.37426 0.36481 0.69383 0.0
C3484 C 0.40388 0.38348 0.71546 0.0
C3485 C 0.36518 0.3526 0.693 0.0
C3486 C 0.44467 0.43047 0.72396 0.0
C3487 C 0.4357 0.41912 0.7175 0.0
C3488 C 0.40617 0.40209 0.69304 0.0
C3489 C 0.38624 0.36793 0.69705 0.0
C3490 C 0.39576 0.38071 0.70063 0.0
C3491 C 0.4245 0.4173 0.71162 0.0
C3492 C 0.41445 0.40477 0.70768 0.0
H3493 H 0.38254 0.33963 0.69905 0.0
H3494 H 0.39822 0.36075 0.70035 0.0
H3495 H 0.39073 0.38826 0.67804 0.0
H3496 H 0.43018 0.44633 0.71705 0.0
H3497 H 0.4143 0.42629 0.70646 0.0
C3498 C 0.65854 0.03342 0.66992 0.0
C3499 C 0.66328 0.0256 0.6702 0.0
C3500 C 0.64777 0.03022 0.67842 0.0
C3501 C 0.62728 0.00981 0.71307 0.0
H3502 H 0.60374 0.01532 0.68806 0.0
C3503 C 0.57896 0.98839 0.73715 0.0
C3504 C 0.57391 0.99592 0.73809 0.0
C3505 C 0.58976 0.9922 0.72845 0.0
C3506 C 0.61027 0.01383 0.69528 0.0
H3507 H 0.66046 0.00834 0.67978 0.0
H3508 H 0.64166 0.00274 0.69439 0.0
H3509 H 0.62304 0.02189 0.67415 0.0
H3510 H 0.57604 0.01319 0.73007 0.0
H3511 H 0.59502 0.01991 0.71494 0.0
H3512 H 0.6145 0.00168 0.73413 0.0
C3513 C 0.64633 0.01141 0.68782 0.0
C3514 C 0.62134 0.01761 0.68735 0.0
C3515 C 0.65708 0.0146 0.67934 0.0
C3516 C 0.57976 0.00723 0.7297 0.0
C3517 C 0.59057 0.01104 0.72092 0.0
C3518 C 0.61623 0.00601 0.72097 0.0
C3519 C 0.64151 0.01915 0.68739 0.0
C3520 C 0.62993 0.01557 0.6961 0.0
C3521 C 0.59577 0.00363 0.72045 0.0
C3522 C 0.60757 0.00789 0.7121 0.0
H3523 H 0.66311 0.04198 0.66304 0.0
H3524 H 0.64437 0.03646 0.67805 0.0
H3525 H 0.63378 0.0083 0.72034 0.0
H3526 H 0.57475 0.97968 0.74366 0.0
H3527 H 0.59346 0.98623 0.72809 0.0
loop_
_geom_bond_atom_site_label_1
_geom_bond_atom_site_label_2
_geom_bond_distance
_geom_bond_site_symmetry_2
_ccdc_geom_bond_type
Mg0 O1 1.978 1_556 S
Mg0 O7 1.980 1_456 S
Mg0 O9 2.139 . S
Mg0 O10 2.280 1_455 S
Mg0 O13 1.996 1_556 S
O1 Mg0 1.978 1_554 S
O1 C4 1.250 1_455 S
O2 Mg3 2.028 1_554 S
O2 C4 1.248 . S
Mg3 O2 2.028 1_556 S
Mg3 O8 2.032 . S
Mg3 O10 2.079 . S
C4 O1 1.250 1_655 S
C4 O2 1.248 . S
C5 O6 1.264 . S
C5 O13 1.249 . S
O6 C5 1.264 . S
O7 Mg0 1.980 1_654 S
O7 C11 1.246 1_554 S
O8 Mg3 2.032 . S
O8 C11 1.259 . S
O9 Mg0 2.139 . S
O9 C12 1.252 . S
O10 Mg0 2.280 1_655 S
O10 Mg3 2.079 . S
O10 C12 1.273 1_655 S
C11 O7 1.246 1_556 S
C11 O8 1.259 . S
C12 O9 1.252 . S
C12 O10 1.273 1_455 S
O13 Mg0 1.996 1_554 S
O13 C5 1.249 . S
Mg14 O15 2.028 1_554 S
Mg14 O21 1.986 . S
Mg14 O23 2.114 . S
Mg14 O24 2.251 . S
Mg14 O27 2.010 . S
O15 Mg14 2.028 1_556 S
O15 C18 1.250 . S
O16 Mg17 2.085 . S
O16 C18 1.215 1_554 S
Mg17 O16 2.085 . S
Mg17 O22 2.032 . S
Mg17 O24 2.079 . S
C18 O15 1.250 . S
C18 O16 1.215 1_556 S
C19 O20 1.264 . S
C19 O27 1.249 . S
O20 C19 1.264 . S
O21 Mg14 1.986 . S
O21 C25 1.246 . S
O22 Mg17 2.032 . S
O22 C25 1.259 . S
O23 Mg14 2.114 . S
O23 C26 1.252 . S
O24 Mg14 2.251 . S
O24 Mg17 2.079 . S
O24 C26 1.273 . S
C25 O21 1.246 . S
C25 O22 1.259 . S
C26 O23 1.252 . S
C26 O24 1.273 . S
O27 Mg14 2.010 . S
O27 C19 1.249 . S
Mg28 O29 2.018 . S
Mg28 O35 1.986 1_565 S
Mg28 O37 2.114 1_554 S
Mg28 O38 2.252 1_564 S
Mg28 O41 2.010 . S
O29 Mg28 2.018 . S
O29 C32 1.242 1_565 S
O30 Mg31 2.028 1_554 S
O30 C32 1.248 . S
Mg31 O30 2.028 1_556 S
Mg31 O36 2.033 1_556 S
Mg31 O38 2.079 . S
C32 O29 1.242 1_545 S
C32 O30 1.248 . S
C33 O34 1.264 . S
C33 O41 1.249 . S
O34 C33 1.264 . S
O35 Mg28 1.986 1_545 S
O35 C39 1.253 . S
O36 Mg31 2.033 1_554 S
O36 C39 1.258 . S
O37 Mg28 2.114 1_556 S
O37 C40 1.252 . S
O38 Mg28 2.252 1_546 S
O38 Mg31 2.079 . S
O38 C40 1.273 1_545 S
C39 O35 1.253 . S
C39 O36 1.258 . S
C40 O37 1.252 . S
C40 O38 1.273 1_565 S
O41 Mg28 2.010 . S
O41 C33 1.249 . S
Mg42 O43 2.058 1_554 S
Mg42 O49 1.986 1_655 S
Mg42 O51 2.114 . S
Mg42 O52 2.251 1_655 S
Mg42 O55 2.010 . S
O43 Mg42 2.058 1_556 S
O43 C46 1.169 1_655 S
O44 Mg45 2.028 . S
O44 C46 1.248 1_554 S
Mg45 O44 2.028 . S
Mg45 O50 2.032 . S
Mg45 O52 2.079 . S
C46 O43 1.169 1_455 S
C46 O44 1.248 1_556 S
C47 O48 1.264 . S
C47 O55 1.249 . S
O48 C47 1.264 . S
O49 Mg42 1.986 1_455 S
O49 C53 1.246 . S
O50 Mg45 2.032 . S
O50 C53 1.259 . S
O51 Mg42 2.114 . S
O51 C54 1.252 . S
O52 Mg42 2.251 1_455 S
O52 Mg45 2.079 . S
O52 C54 1.273 1_455 S
C53 O49 1.246 . S
C53 O50 1.259 . S
C54 O51 1.252 . S
C54 O52 1.273 1_655 S
O55 Mg42 2.010 . S
O55 C47 1.249 . S
Mg56 O57 2.028 . S
Mg56 O63 1.986 . S
Mg56 O65 2.114 1_554 S
Mg56 O66 2.251 1_554 S
Mg56 O69 2.010 . S
O57 Mg56 2.028 . S
O57 C60 1.250 . S
O58 Mg59 2.028 1_554 S
O58 C60 1.248 . S
Mg59 O58 2.028 1_556 S
Mg59 O64 2.033 . S
Mg59 O66 2.079 . S
C60 O57 1.250 . S
C60 O58 1.248 . S
C61 O62 1.264 . S
C61 O69 1.249 . S
O62 C61 1.264 . S
O63 Mg56 1.986 . S
O63 C67 1.257 . S
O64 Mg59 2.033 . S
O64 C67 1.256 1_556 S
O65 Mg56 2.114 1_556 S
O65 C68 1.252 . S
O66 Mg56 2.251 1_556 S
O66 Mg59 2.079 . S
O66 C68 1.273 . S
C67 O63 1.257 . S
C67 O64 1.256 1_554 S
C68 O65 1.252 . S
C68 O66 1.273 . S
O69 Mg56 2.010 . S
O69 C61 1.249 . S
Mg70 O71 2.078 . S
Mg70 O77 1.986 1_545 S
Mg70 O79 2.114 . S
Mg70 O80 2.251 1_545 S
Mg70 O83 2.010 . S
O71 Mg70 2.078 . S
O71 C74 1.233 1_544 S
O72 Mg73 2.028 . S
O72 C74 1.248 1_554 S
Mg73 O72 2.028 . S
Mg73 O78 2.032 . S
Mg73 O80 2.079 . S
C74 O71 1.233 1_566 S
C74 O72 1.248 1_556 S
C75 O76 1.264 . S
C75 O83 1.249 . S
O76 C75 1.264 . S
O77 Mg70 1.986 1_565 S
O77 C81 1.246 . S
O78 Mg73 2.032 . S
O78 C81 1.259 . S
O79 Mg70 2.114 . S
O79 C82 1.252 . S
O80 Mg70 2.251 1_565 S
O80 Mg73 2.079 . S
O80 C82 1.273 1_565 S
C81 O77 1.246 . S
C81 O78 1.259 . S
C82 O79 1.252 . S
C82 O80 1.273 1_545 S
O83 Mg70 2.010 . S
O83 C75 1.249 . S
Mg84 O85 2.028 . S
Mg84 O91 1.986 . S
Mg84 O93 2.114 . S
Mg84 O94 2.251 . S
Mg84 O97 2.010 . S
O85 Mg84 2.028 . S
O85 C88 1.250 . S
O86 Mg87 2.028 . S
O86 C88 1.248 . S
Mg87 O86 2.028 . S
Mg87 O92 2.032 . S
Mg87 O94 2.079 . S
C88 O85 1.250 . S
C88 O86 1.248 . S
C89 O90 1.264 . S
C89 O97 1.249 . S
O90 C89 1.264 . S
O91 Mg84 1.986 . S
O91 C95 1.246 . S
O92 Mg87 2.032 . S
O92 C95 1.259 . S
O93 Mg84 2.114 . S
O93 C96 1.252 . S
O94 Mg84 2.251 . S
O94 Mg87 2.079 . S
O94 C96 1.273 . S
C95 O91 1.246 . S
C95 O92 1.259 . S
C96 O93 1.252 . S
C96 O94 1.273 . S
O97 Mg84 2.010 . S
O97 C89 1.249 . S
Mg98 O99 2.028 . S
Mg98 O105 1.986 . S
Mg98 O107 2.114 . S
Mg98 O108 2.251 . S
Mg98 O111 2.010 . S
O99 Mg98 2.028 . S
O99 C102 1.250 . S
O100 Mg101 2.028 . S
O100 C102 1.248 . S
Mg101 O100 2.028 . S
Mg101 O106 2.032 . S
Mg101 O108 2.079 . S
C102 O99 1.250 . S
C102 O100 1.248 . S
C103 O104 1.264 . S
C103 O111 1.249 . S
O104 C103 1.264 . S
O105 Mg98 1.986 . S
O105 C109 1.246 . S
O106 Mg101 2.032 . S
O106 C109 1.259 . S
O107 Mg98 2.114 . S
O107 C110 1.252 . S
O108 Mg98 2.251 . S
O108 Mg101 2.079 . S
O108 C110 1.273 . S
C109 O105 1.246 . S
C109 O106 1.259 . S
C110 O107 1.252 . S
C110 O108 1.273 . S
O111 Mg98 2.010 . S
O111 C103 1.249 . S
Mg112 O113 2.028 . S
Mg112 O119 1.986 . S
Mg112 O121 2.114 . S
Mg112 O122 2.251 . S
Mg112 O125 2.010 . S
O113 Mg112 2.028 . S
O113 C116 1.250 . S
O114 Mg115 2.028 . S
O114 C116 1.248 . S
Mg115 O114 2.028 . S
Mg115 O120 2.032 . S
Mg115 O122 2.079 . S
C116 O113 1.250 . S
C116 O114 1.248 . S
C117 O118 1.264 . S
C117 O125 1.249 1_655 S
O118 C117 1.264 . S
O119 Mg112 1.986 . S
O119 C123 1.246 . S
O120 Mg115 2.032 . S
O120 C123 1.259 . S
O121 Mg112 2.114 . S
O121 C124 1.252 . S
O122 Mg112 2.251 . S
O122 Mg115 2.079 . S
O122 C124 1.273 . S
C123 O119 1.246 . S
C123 O120 1.259 . S
C124 O121 1.252 . S
C124 O122 1.273 . S
O125 Mg112 2.010 . S
O125 C117 1.249 1_455 S
Mg126 O127 2.028 . S
Mg126 O133 1.986 . S
Mg126 O135 2.114 . S
Mg126 O136 2.251 . S
Mg126 O139 2.010 . S
O127 Mg126 2.028 . S
O127 C130 1.250 . S
O128 Mg129 2.028 . S
O128 C130 1.248 . S
Mg129 O128 2.028 . S
Mg129 O134 2.032 . S
Mg129 O136 2.079 . S
C130 O127 1.250 . S
C130 O128 1.248 . S
C131 O132 1.264 . S
C131 O139 1.249 . S
O132 C131 1.264 . S
O133 Mg126 1.986 . S
O133 C137 1.246 . S
O134 Mg129 2.032 . S
O134 C137 1.259 . S
O135 Mg126 2.114 . S
O135 C138 1.252 . S
O136 Mg126 2.251 . S
O136 Mg129 2.079 . S
O136 C138 1.273 . S
C137 O133 1.246 . S
C137 O134 1.259 . S
C138 O135 1.252 . S
C138 O136 1.273 . S
O139 Mg126 2.010 . S
O139 C131 1.249 . S
Mg140 O141 2.028 . S
Mg140 O147 1.986 . S
Mg140 O149 2.114 . S
Mg140 O150 2.251 . S
Mg140 O153 2.010 . S
O141 Mg140 2.028 . S
O141 C144 1.250 . S
O142 Mg143 2.028 . S
O142 C144 1.248 . S
Mg143 O142 2.028 . S
Mg143 O148 2.032 . S
Mg143 O150 2.079 . S
C144 O141 1.250 . S
C144 O142 1.248 . S
C145 O146 1.264 . S
C145 O153 1.249 1_655 S
O146 C145 1.264 . S
O147 Mg140 1.986 . S
O147 C151 1.246 . S
O148 Mg143 2.032 . S
O148 C151 1.259 . S
O149 Mg140 2.114 . S
O149 C152 1.252 . S
O150 Mg140 2.251 . S
O150 Mg143 2.079 . S
O150 C152 1.273 . S
C151 O147 1.246 . S
C151 O148 1.259 . S
C152 O149 1.252 . S
C152 O150 1.273 . S
O153 Mg140 2.010 . S
O153 C145 1.249 1_455 S
Mg154 O155 2.028 . S
Mg154 O161 1.986 . S
Mg154 O163 2.114 . S
Mg154 O164 2.251 . S
Mg154 O167 2.010 . S
O155 Mg154 2.028 . S
O155 C158 1.250 . S
O156 Mg157 2.028 . S
O156 C158 1.248 . S
Mg157 O156 2.028 . S
Mg157 O162 2.032 . S
Mg157 O164 2.079 . S
C158 O155 1.250 . S
C158 O156 1.248 . S
C159 O160 1.264 . S
C159 O167 1.249 . S
O160 C159 1.264 . S
O161 Mg154 1.986 . S
O161 C165 1.246 . S
O162 Mg157 2.032 . S
O162 C165 1.259 . S
O163 Mg154 2.114 . S
O163 C166 1.252 . S
O164 Mg154 2.251 . S
O164 Mg157 2.079 . S
O164 C166 1.273 . S
C165 O161 1.246 . S
C165 O162 1.259 . S
C166 O163 1.252 . S
C166 O164 1.273 . S
O167 Mg154 2.010 . S
O167 C159 1.249 . S
Mg168 O169 2.028 . S
Mg168 O175 1.986 . S
Mg168 O177 2.114 . S
Mg168 O178 2.251 . S
Mg168 O181 2.010 . S
O169 Mg168 2.028 . S
O169 C172 1.250 . S
O170 Mg171 2.028 . S
O170 C172 1.248 . S
Mg171 O170 2.028 . S
Mg171 O176 2.032 . S
Mg171 O178 2.079 . S
C172 O169 1.250 . S
C172 O170 1.248 . S
C173 O174 1.264 . S
C173 O181 1.249 . S
O174 C173 1.264 . S
O175 Mg168 1.986 . S
O175 C179 1.246 . S
O176 Mg171 2.032 . S
O176 C179 1.259 . S
O177 Mg168 2.114 . S
O177 C180 1.252 . S
O178 Mg168 2.251 . S
O178 Mg171 2.079 . S
O178 C180 1.273 . S
C179 O175 1.246 . S
C179 O176 1.259 . S
C180 O177 1.252 . S
C180 O178 1.273 . S
O181 Mg168 2.010 . S
O181 C173 1.249 . S
Mg182 O183 2.028 . S
Mg182 O189 1.986 . S
Mg182 O191 2.114 . S
Mg182 O192 2.251 . S
Mg182 O195 2.010 . S
O183 Mg182 2.028 . S
O183 C186 1.250 . S
O184 Mg185 2.028 . S
O184 C186 1.248 . S
Mg185 O184 2.028 . S
Mg185 O190 2.032 . S
Mg185 O192 2.079 . S
C186 O183 1.250 . S
C186 O184 1.248 . S
C187 O188 1.264 . S
C187 O195 1.249 1_455 S
O188 C187 1.264 . S
O189 Mg182 1.986 . S
O189 C193 1.246 . S
O190 Mg185 2.032 . S
O190 C193 1.259 . S
O191 Mg182 2.114 . S
O191 C194 1.252 . S
O192 Mg182 2.251 . S
O192 Mg185 2.079 . S
O192 C194 1.273 . S
C193 O189 1.246 . S
C193 O190 1.259 . S
C194 O191 1.252 . S
C194 O192 1.273 . S
O195 Mg182 2.010 . S
O195 C187 1.249 1_655 S
Mg196 O197 2.028 . S
Mg196 O203 1.986 . S
Mg196 O205 2.114 . S
Mg196 O206 2.251 . S
Mg196 O209 2.010 . S
O197 Mg196 2.028 . S
O197 C200 1.250 . S
O198 Mg199 2.028 . S
O198 C200 1.248 . S
Mg199 O198 2.028 . S
Mg199 O204 2.032 . S
Mg199 O206 2.079 . S
C200 O197 1.250 . S
C200 O198 1.248 . S
C201 O202 1.264 . S
C201 O209 1.249 . S
O202 C201 1.264 . S
O203 Mg196 1.986 . S
O203 C207 1.246 . S
O204 Mg199 2.032 . S
O204 C207 1.259 . S
O205 Mg196 2.114 . S
O205 C208 1.252 . S
O206 Mg196 2.251 . S
O206 Mg199 2.079 . S
O206 C208 1.273 . S
C207 O203 1.246 . S
C207 O204 1.259 . S
C208 O205 1.252 . S
C208 O206 1.273 . S
O209 Mg196 2.010 . S
O209 C201 1.249 . S
Mg210 O211 2.028 . S
Mg210 O217 1.986 . S
Mg210 O219 2.114 . S
Mg210 O220 2.251 . S
Mg210 O223 2.010 . S
O211 Mg210 2.028 . S
O211 C214 1.250 . S
O212 Mg213 2.028 . S
O212 C214 1.248 . S
Mg213 O212 2.028 . S
Mg213 O218 2.032 . S
Mg213 O220 2.079 . S
C214 O211 1.250 . S
C214 O212 1.248 . S
C215 O216 1.264 . S
C215 O223 1.249 . S
O216 C215 1.264 . S
O217 Mg210 1.986 . S
O217 C221 1.246 . S
O218 Mg213 2.032 . S
O218 C221 1.259 . S
O219 Mg210 2.114 . S
O219 C222 1.252 . S
O220 Mg210 2.251 . S
O220 Mg213 2.079 . S
O220 C222 1.273 . S
C221 O217 1.246 . S
C221 O218 1.259 . S
C222 O219 1.252 . S
C222 O220 1.273 . S
O223 Mg210 2.010 . S
O223 C215 1.249 . S
Mg224 O225 2.028 . S
Mg224 O231 1.986 . S
Mg224 O233 2.114 . S
Mg224 O234 2.251 . S
Mg224 O237 2.010 . S
O225 Mg224 2.028 . S
O225 C228 1.250 . S
O226 Mg227 2.028 . S
O226 C228 1.248 . S
Mg227 O226 2.028 . S
Mg227 O232 2.032 . S
Mg227 O234 2.079 . S
C228 O225 1.250 . S
C228 O226 1.248 . S
C229 O230 1.264 . S
C229 O237 1.249 . S
O230 C229 1.264 . S
O231 Mg224 1.986 . S
O231 C235 1.246 . S
O232 Mg227 2.032 . S
O232 C235 1.259 . S
O233 Mg224 2.114 . S
O233 C236 1.252 . S
O234 Mg224 2.251 . S
O234 Mg227 2.079 . S
O234 C236 1.273 . S
C235 O231 1.246 . S
C235 O232 1.259 . S
C236 O233 1.252 . S
C236 O234 1.273 . S
O237 Mg224 2.010 . S
O237 C229 1.249 . S
Mg238 O239 2.028 . S
Mg238 O245 1.986 . S
Mg238 O247 2.114 . S
Mg238 O248 2.251 . S
Mg238 O251 2.010 . S
O239 Mg238 2.028 . S
O239 C242 1.250 . S
O240 Mg241 2.028 . S
O240 C242 1.248 . S
Mg241 O240 2.028 . S
Mg241 O246 2.032 . S
Mg241 O248 2.079 . S
C242 O239 1.250 . S
C242 O240 1.248 . S
C243 O244 1.264 . S
C243 O251 1.249 1_455 S
O244 C243 1.264 . S
O245 Mg238 1.986 . S
O245 C249 1.246 . S
O246 Mg241 2.032 . S
O246 C249 1.259 . S
O247 Mg238 2.114 . S
O247 C250 1.252 . S
O248 Mg238 2.251 . S
O248 Mg241 2.079 . S
O248 C250 1.273 . S
C249 O245 1.246 . S
C249 O246 1.259 . S
C250 O247 1.252 . S
C250 O248 1.273 . S
O251 Mg238 2.010 . S
O251 C243 1.249 1_655 S
H252 C279 0.929 . S
N253 C278 1.433 . S
N253 C284 1.435 . S
N253 C290 1.423 . S
H254 C280 0.930 . S
H255 C283 0.931 . S
H256 C282 0.929 . S
H257 C285 0.930 . S
H258 C286 0.932 . S
H259 C289 0.929 . S
H260 C288 0.931 . S
H261 C291 0.929 . S
H262 C295 0.932 . S
H263 C292 0.931 . S
H264 C294 0.929 . S
H265 C297 0.929 . S
H266 C298 0.930 . S
H267 C300 0.929 . S
H268 C301 0.931 . S
H269 C303 0.930 . S
H270 C304 0.932 . S
H271 C306 0.931 . S
H272 C307 0.929 . S
H273 C309 0.929 . S
H274 C310 0.931 . S
H275 C312 0.929 . S
N276 C296 1.433 . S
N276 C302 1.435 . S
N276 C308 1.423 . S
H277 C313 0.932 . S
C278 N253 1.433 . S
C278 C279 1.363 . S
C278 C283 1.370 . S
C279 H252 0.929 . S
C279 C278 1.363 . S
C279 C280 1.385 . S
C280 H254 0.930 . S
C280 C279 1.385 . S
C280 C281 1.357 . S
C281 C280 1.357 . S
C281 C282 1.406 . S
C282 H256 0.929 . S
C282 C281 1.406 . S
C282 C283 1.391 . S
C283 H255 0.931 . S
C283 C278 1.370 . S
C283 C282 1.391 . S
C284 N253 1.435 . S
C284 C285 1.358 . S
C284 C289 1.371 . S
C285 H257 0.930 . S
C285 C284 1.358 . S
C285 C286 1.405 . S
C286 H258 0.932 . S
C286 C285 1.405 . S
C286 C287 1.383 . S
C287 C286 1.383 . S
C287 C288 1.393 . S
C288 H260 0.931 . S
C288 C287 1.393 . S
C288 C289 1.382 . S
C289 H259 0.929 . S
C289 C284 1.371 . S
C289 C288 1.382 . S
C290 N253 1.423 . S
C290 C291 1.362 . S
C290 C295 1.388 . S
C291 H261 0.929 . S
C291 C290 1.362 . S
C291 C292 1.376 . S
C292 H263 0.931 . S
C292 C291 1.376 . S
C292 C293 1.396 . S
C293 C292 1.396 . S
C293 C294 1.348 . S
C293 C311 1.472 . S
C294 H264 0.929 . S
C294 C293 1.348 . S
C294 C295 1.443 . S
C295 H262 0.932 . S
C295 C290 1.388 . S
C295 C294 1.443 . S
C296 N276 1.433 . S
C296 C297 1.363 . S
C296 C301 1.370 . S
C297 H265 0.929 . S
C297 C296 1.363 . S
C297 C298 1.385 . S
C298 H266 0.930 . S
C298 C297 1.385 . S
C298 C299 1.357 . S
C299 C298 1.357 . S
C299 C300 1.406 . S
C300 H267 0.929 . S
C300 C299 1.406 . S
C300 C301 1.391 . S
C301 H268 0.931 . S
C301 C296 1.370 . S
C301 C300 1.391 . S
C302 N276 1.435 . S
C302 C303 1.358 . S
C302 C307 1.371 . S
C303 H269 0.930 . S
C303 C302 1.358 . S
C303 C304 1.405 . S
C304 H270 0.932 . S
C304 C303 1.405 . S
C304 C305 1.383 . S
C305 C304 1.383 . S
C305 C306 1.393 . S
C306 H271 0.931 . S
C306 C305 1.393 . S
C306 C307 1.382 . S
C307 H272 0.929 . S
C307 C302 1.371 . S
C307 C306 1.382 . S
C308 N276 1.423 . S
C308 C309 1.362 . S
C308 C313 1.388 . S
C309 H273 0.929 . S
C309 C308 1.362 . S
C309 C310 1.376 . S
C310 H274 0.931 . S
C310 C309 1.376 . S
C310 C311 1.396 . S
C311 C293 1.472 . S
C311 C310 1.396 . S
C311 C312 1.348 . S
C312 H275 0.929 . S
C312 C311 1.348 . S
C312 C313 1.443 . S
C313 H277 0.932 . S
C313 C308 1.388 . S
C313 C312 1.443 . S
H314 C341 0.929 . S
N315 C340 1.433 . S
N315 C346 1.435 . S
N315 C352 1.423 . S
H316 C342 0.930 . S
H317 C345 0.931 . S
H318 C344 0.929 . S
H319 C347 0.930 . S
H320 C348 0.932 . S
H321 C351 0.929 . S
H322 C350 0.931 . S
H323 C353 0.929 . S
H324 C357 0.932 . S
H325 C354 0.931 . S
H326 C356 0.929 . S
H327 C359 0.929 . S
H328 C360 0.930 . S
H329 C362 0.929 . S
H330 C363 0.931 . S
H331 C365 0.930 . S
H332 C366 0.932 . S
H333 C368 0.931 . S
H334 C369 0.929 . S
H335 C371 0.929 . S
H336 C372 0.931 . S
H337 C374 0.929 . S
N338 C358 1.433 . S
N338 C364 1.435 . S
N338 C370 1.423 . S
H339 C375 0.932 . S
C340 N315 1.433 . S
C340 C341 1.363 . S
C340 C345 1.370 . S
C341 H314 0.929 . S
C341 C340 1.363 . S
C341 C342 1.385 . S
C342 H316 0.930 . S
C342 C341 1.385 . S
C342 C343 1.357 . S
C343 C342 1.357 . S
C343 C344 1.406 . S
C344 H318 0.929 . S
C344 C343 1.406 . S
C344 C345 1.391 . S
C345 H317 0.931 . S
C345 C340 1.370 . S
C345 C344 1.391 . S
C346 N315 1.435 . S
C346 C347 1.358 . S
C346 C351 1.371 . S
C347 H319 0.930 . S
C347 C346 1.358 . S
C347 C348 1.405 . S
C348 H320 0.932 . S
C348 C347 1.405 . S
C348 C349 1.383 . S
C349 C348 1.383 . S
C349 C350 1.393 . S
C350 H322 0.931 . S
C350 C349 1.393 . S
C350 C351 1.382 . S
C351 H321 0.929 . S
C351 C346 1.371 . S
C351 C350 1.382 . S
C352 N315 1.423 . S
C352 C353 1.362 . S
C352 C357 1.388 . S
C353 H323 0.929 . S
C353 C352 1.362 . S
C353 C354 1.376 . S
C354 H325 0.931 . S
C354 C353 1.376 . S
C354 C355 1.396 . S
C355 C354 1.396 . S
C355 C356 1.348 . S
C355 C373 1.472 . S
C356 H326 0.929 . S
C356 C355 1.348 . S
C356 C357 1.443 . S
C357 H324 0.932 . S
C357 C352 1.388 . S
C357 C356 1.443 . S
C358 N338 1.433 . S
C358 C359 1.363 . S
C358 C363 1.370 . S
C359 H327 0.929 . S
C359 C358 1.363 . S
C359 C360 1.385 . S
C360 H328 0.930 . S
C360 C359 1.385 . S
C360 C361 1.357 . S
C361 C360 1.357 . S
C361 C362 1.406 . S
C362 H329 0.929 . S
C362 C361 1.406 . S
C362 C363 1.391 . S
C363 H330 0.931 . S
C363 C358 1.370 . S
C363 C362 1.391 . S
C364 N338 1.435 . S
C364 C365 1.358 . S
C364 C369 1.371 . S
C365 H331 0.930 . S
C365 C364 1.358 . S
C365 C366 1.405 . S
C366 H332 0.932 . S
C366 C365 1.405 . S
C366 C367 1.383 . S
C367 C366 1.383 . S
C367 C368 1.393 . S
C368 H333 0.931 . S
C368 C367 1.393 . S
C368 C369 1.382 . S
C369 H334 0.929 . S
C369 C364 1.371 . S
C369 C368 1.382 . S
C370 N338 1.423 . S
C370 C371 1.362 . S
C370 C375 1.388 . S
C371 H335 0.929 . S
C371 C370 1.362 . S
C371 C372 1.376 . S
C372 H336 0.931 . S
C372 C371 1.376 . S
C372 C373 1.396 . S
C373 C355 1.472 . S
C373 C372 1.396 . S
C373 C374 1.348 . S
C374 H337 0.929 . S
C374 C373 1.348 . S
C374 C375 1.443 . S
C375 H339 0.932 . S
C375 C370 1.388 . S
C375 C374 1.443 . S
H376 C403 0.929 . S
N377 C402 1.433 . S
N377 C408 1.435 . S
N377 C414 1.423 . S
H378 C404 0.930 . S
H379 C407 0.931 . S
H380 C406 0.929 . S
H381 C409 0.930 . S
H382 C410 0.932 . S
H383 C413 0.929 . S
H384 C412 0.931 . S
H385 C415 0.929 . S
H386 C419 0.932 . S
H387 C416 0.931 . S
H388 C418 0.929 . S
H389 C421 0.929 . S
H390 C422 0.930 . S
H391 C424 0.929 . S
H392 C425 0.931 . S
H393 C427 0.930 . S
H394 C428 0.932 . S
H395 C430 0.931 . S
H396 C431 0.929 . S
H397 C433 0.929 . S
H398 C434 0.931 . S
H399 C436 0.929 . S
N400 C420 1.433 . S
N400 C426 1.435 . S
N400 C432 1.423 . S
H401 C437 0.932 . S
C402 N377 1.433 . S
C402 C403 1.363 . S
C402 C407 1.370 . S
C403 H376 0.929 . S
C403 C402 1.363 . S
C403 C404 1.385 . S
C404 H378 0.930 . S
C404 C403 1.385 . S
C404 C405 1.357 . S
C405 C404 1.357 . S
C405 C406 1.406 . S
C406 H380 0.929 . S
C406 C405 1.406 . S
C406 C407 1.391 . S
C407 H379 0.931 . S
C407 C402 1.370 . S
C407 C406 1.391 . S
C408 N377 1.435 . S
C408 C409 1.358 . S
C408 C413 1.371 . S
C409 H381 0.930 . S
C409 C408 1.358 . S
C409 C410 1.405 . S
C410 H382 0.932 . S
C410 C409 1.405 . S
C410 C411 1.383 . S
C411 C410 1.383 . S
C411 C412 1.393 . S
C412 H384 0.931 . S
C412 C411 1.393 . S
C412 C413 1.382 . S
C413 H383 0.929 . S
C413 C408 1.371 . S
C413 C412 1.382 . S
C414 N377 1.423 . S
C414 C415 1.362 . S
C414 C419 1.388 . S
C415 H385 0.929 . S
C415 C414 1.362 . S
C415 C416 1.376 . S
C416 H387 0.931 . S
C416 C415 1.376 . S
C416 C417 1.396 . S
C417 C416 1.396 . S
C417 C418 1.348 . S
C417 C435 1.472 . S
C418 H388 0.929 . S
C418 C417 1.348 . S
C418 C419 1.443 . S
C419 H386 0.932 . S
C419 C414 1.388 . S
C419 C418 1.443 . S
C420 N400 1.433 . S
C420 C421 1.363 . S
C420 C425 1.370 . S
C421 H389 0.929 . S
C421 C420 1.363 . S
C421 C422 1.385 . S
C422 H390 0.930 . S
C422 C421 1.385 . S
C422 C423 1.357 . S
C423 C422 1.357 . S
C423 C424 1.406 . S
C424 H391 0.929 . S
C424 C423 1.406 . S
C424 C425 1.391 . S
C425 H392 0.931 . S
C425 C420 1.370 . S
C425 C424 1.391 . S
C426 N400 1.435 . S
C426 C427 1.358 . S
C426 C431 1.371 . S
C427 H393 0.930 . S
C427 C426 1.358 . S
C427 C428 1.405 . S
C428 H394 0.932 . S
C428 C427 1.405 . S
C428 C429 1.383 . S
C429 C428 1.383 . S
C429 C430 1.393 . S
C430 H395 0.931 . S
C430 C429 1.393 . S
C430 C431 1.382 . S
C431 H396 0.929 . S
C431 C426 1.371 . S
C431 C430 1.382 . S
C432 N400 1.423 . S
C432 C433 1.362 . S
C432 C437 1.388 . S
C433 H397 0.929 . S
C433 C432 1.362 . S
C433 C434 1.376 . S
C434 H398 0.931 . S
C434 C433 1.376 . S
C434 C435 1.396 . S
C435 C417 1.472 . S
C435 C434 1.396 . S
C435 C436 1.348 . S
C436 H399 0.929 . S
C436 C435 1.348 . S
C436 C437 1.443 . S
C437 H401 0.932 . S
C437 C432 1.388 . S
C437 C436 1.443 . S
H438 C465 0.929 . S
N439 C464 1.433 . S
N439 C470 1.435 . S
N439 C476 1.423 . S
H440 C466 0.930 . S
H441 C469 0.931 . S
H442 C468 0.929 . S
H443 C471 0.930 . S
H444 C472 0.932 . S
H445 C475 0.929 . S
H446 C474 0.931 . S
H447 C477 0.929 . S
H448 C481 0.932 . S
H449 C478 0.931 . S
H450 C480 0.929 . S
H451 C483 0.929 . S
H452 C484 0.930 . S
H453 C486 0.929 . S
H454 C487 0.931 . S
H455 C489 0.930 . S
H456 C490 0.932 . S
H457 C492 0.931 . S
H458 C493 0.929 . S
H459 C495 0.929 . S
H460 C496 0.931 . S
H461 C498 0.929 . S
N462 C482 1.433 . S
N462 C488 1.435 . S
N462 C494 1.423 . S
H463 C499 0.932 . S
C464 N439 1.433 . S
C464 C465 1.363 . S
C464 C469 1.370 . S
C465 H438 0.929 . S
C465 C464 1.363 . S
C465 C466 1.385 . S
C466 H440 0.930 . S
C466 C465 1.385 . S
C466 C467 1.357 . S
C467 C466 1.357 . S
C467 C468 1.406 . S
C468 H442 0.929 . S
C468 C467 1.406 . S
C468 C469 1.391 . S
C469 H441 0.931 . S
C469 C464 1.370 . S
C469 C468 1.391 . S
C470 N439 1.435 . S
C470 C471 1.358 . S
C470 C475 1.371 . S
C471 H443 0.930 . S
C471 C470 1.358 . S
C471 C472 1.405 . S
C472 H444 0.932 . S
C472 C471 1.405 . S
C472 C473 1.383 . S
C473 C472 1.383 . S
C473 C474 1.393 . S
C474 H446 0.931 . S
C474 C473 1.393 . S
C474 C475 1.382 . S
C475 H445 0.929 . S
C475 C470 1.371 . S
C475 C474 1.382 . S
C476 N439 1.423 . S
C476 C477 1.362 . S
C476 C481 1.388 . S
C477 H447 0.929 . S
C477 C476 1.362 . S
C477 C478 1.376 . S
C478 H449 0.931 . S
C478 C477 1.376 . S
C478 C479 1.396 . S
C479 C478 1.396 . S
C479 C480 1.348 . S
C479 C497 1.472 . S
C480 H450 0.929 . S
C480 C479 1.348 . S
C480 C481 1.443 . S
C481 H448 0.932 . S
C481 C476 1.388 . S
C481 C480 1.443 . S
C482 N462 1.433 . S
C482 C483 1.363 . S
C482 C487 1.370 . S
C483 H451 0.929 . S
C483 C482 1.363 . S
C483 C484 1.385 . S
C484 H452 0.930 . S
C484 C483 1.385 . S
C484 C485 1.357 . S
C485 C484 1.357 . S
C485 C486 1.406 . S
C486 H453 0.929 . S
C486 C485 1.406 . S
C486 C487 1.391 . S
C487 H454 0.931 . S
C487 C482 1.370 . S
C487 C486 1.391 . S
C488 N462 1.435 . S
C488 C489 1.358 . S
C488 C493 1.371 . S
C489 H455 0.930 . S
C489 C488 1.358 . S
C489 C490 1.405 . S
C490 H456 0.932 . S
C490 C489 1.405 . S
C490 C491 1.383 . S
C491 C490 1.383 . S
C491 C492 1.393 . S
C492 H457 0.931 . S
C492 C491 1.393 . S
C492 C493 1.382 . S
C493 H458 0.929 . S
C493 C488 1.371 . S
C493 C492 1.382 . S
C494 N462 1.423 . S
C494 C495 1.362 . S
C494 C499 1.388 . S
C495 H459 0.929 . S
C495 C494 1.362 . S
C495 C496 1.376 . S
C496 H460 0.931 . S
C496 C495 1.376 . S
C496 C497 1.396 . S
C497 C479 1.472 . S
C497 C496 1.396 . S
C497 C498 1.348 . S
C498 H461 0.929 . S
C498 C497 1.348 . S
C498 C499 1.443 . S
C499 H463 0.932 . S
C499 C494 1.388 . S
C499 C498 1.443 . S
H500 C527 0.929 . S
N501 C526 1.433 . S
N501 C532 1.435 . S
N501 C538 1.423 . S
H502 C528 0.930 . S
H503 C531 0.931 . S
H504 C530 0.929 . S
H505 C533 0.930 . S
H506 C534 0.932 . S
H507 C537 0.929 . S
H508 C536 0.931 . S
H509 C539 0.929 . S
H510 C543 0.932 . S
H511 C540 0.931 . S
H512 C542 0.929 . S
H513 C545 0.929 . S
H514 C546 0.930 . S
H515 C548 0.929 . S
H516 C549 0.931 . S
H517 C551 0.930 . S
H518 C552 0.932 . S
H519 C554 0.931 . S
H520 C555 0.929 . S
H521 C557 0.929 . S
H522 C558 0.931 . S
H523 C560 0.929 . S
N524 C544 1.433 . S
N524 C550 1.435 . S
N524 C556 1.423 . S
H525 C561 0.932 . S
C526 N501 1.433 . S
C526 C527 1.363 . S
C526 C531 1.370 . S
C527 H500 0.929 . S
C527 C526 1.363 . S
C527 C528 1.385 . S
C528 H502 0.930 . S
C528 C527 1.385 . S
C528 C529 1.357 . S
C529 C528 1.357 . S
C529 C530 1.406 . S
C530 H504 0.929 . S
C530 C529 1.406 . S
C530 C531 1.391 . S
C531 H503 0.931 . S
C531 C526 1.370 . S
C531 C530 1.391 . S
C532 N501 1.435 . S
C532 C533 1.358 . S
C532 C537 1.371 . S
C533 H505 0.930 . S
C533 C532 1.358 . S
C533 C534 1.405 . S
C534 H506 0.932 . S
C534 C533 1.405 . S
C534 C535 1.383 . S
C535 C534 1.383 . S
C535 C536 1.393 . S
C536 H508 0.931 . S
C536 C535 1.393 . S
C536 C537 1.382 . S
C537 H507 0.929 . S
C537 C532 1.371 . S
C537 C536 1.382 . S
C538 N501 1.423 . S
C538 C539 1.362 . S
C538 C543 1.388 . S
C539 H509 0.929 . S
C539 C538 1.362 . S
C539 C540 1.376 . S
C540 H511 0.931 . S
C540 C539 1.376 . S
C540 C541 1.396 . S
C541 C540 1.396 . S
C541 C542 1.348 . S
C541 C559 1.472 . S
C542 H512 0.929 . S
C542 C541 1.348 . S
C542 C543 1.443 . S
C543 H510 0.932 . S
C543 C538 1.388 . S
C543 C542 1.443 . S
C544 N524 1.433 . S
C544 C545 1.363 . S
C544 C549 1.370 . S
C545 H513 0.929 . S
C545 C544 1.363 . S
C545 C546 1.385 . S
C546 H514 0.930 . S
C546 C545 1.385 . S
C546 C547 1.357 . S
C547 C546 1.357 . S
C547 C548 1.406 . S
C548 H515 0.929 . S
C548 C547 1.406 . S
C548 C549 1.391 . S
C549 H516 0.931 . S
C549 C544 1.370 . S
C549 C548 1.391 . S
C550 N524 1.435 . S
C550 C551 1.358 . S
C550 C555 1.371 . S
C551 H517 0.930 . S
C551 C550 1.358 . S
C551 C552 1.405 . S
C552 H518 0.932 . S
C552 C551 1.405 . S
C552 C553 1.383 . S
C553 C552 1.383 . S
C553 C554 1.393 . S
C554 H519 0.931 . S
C554 C553 1.393 . S
C554 C555 1.382 . S
C555 H520 0.929 . S
C555 C550 1.371 . S
C555 C554 1.382 . S
C556 N524 1.423 . S
C556 C557 1.362 . S
C556 C561 1.388 . S
C557 H521 0.929 . S
C557 C556 1.362 . S
C557 C558 1.376 . S
C558 H522 0.931 . S
C558 C557 1.376 . S
C558 C559 1.396 . S
C559 C541 1.472 . S
C559 C558 1.396 . S
C559 C560 1.348 . S
C560 H523 0.929 . S
C560 C559 1.348 . S
C560 C561 1.443 . S
C561 H525 0.932 . S
C561 C556 1.388 . S
C561 C560 1.443 . S
H562 C589 0.929 . S
N563 C588 1.433 . S
N563 C594 1.435 . S
N563 C600 1.423 . S
H564 C590 0.930 . S
H565 C593 0.931 . S
H566 C592 0.929 . S
H567 C595 0.930 . S
H568 C596 0.932 . S
H569 C599 0.929 . S
H570 C598 0.931 . S
H571 C601 0.929 . S
H572 C605 0.932 . S
H573 C602 0.931 . S
H574 C604 0.929 . S
H575 C607 0.929 . S
H576 C608 0.930 . S
H577 C610 0.929 . S
H578 C611 0.931 . S
H579 C613 0.930 . S
H580 C614 0.932 . S
H581 C616 0.931 . S
H582 C617 0.929 . S
H583 C619 0.929 . S
H584 C620 0.931 . S
H585 C622 0.929 . S
N586 C606 1.433 . S
N586 C612 1.435 . S
N586 C618 1.423 . S
H587 C623 0.932 . S
C588 N563 1.433 . S
C588 C589 1.363 . S
C588 C593 1.370 . S
C589 H562 0.929 . S
C589 C588 1.363 . S
C589 C590 1.385 . S
C590 H564 0.930 . S
C590 C589 1.385 . S
C590 C591 1.357 . S
C591 C590 1.357 . S
C591 C592 1.406 . S
C592 H566 0.929 . S
C592 C591 1.406 . S
C592 C593 1.391 . S
C593 H565 0.931 . S
C593 C588 1.370 . S
C593 C592 1.391 . S
C594 N563 1.435 . S
C594 C595 1.358 . S
C594 C599 1.371 . S
C595 H567 0.930 . S
C595 C594 1.358 . S
C595 C596 1.405 . S
C596 H568 0.932 . S
C596 C595 1.405 . S
C596 C597 1.383 . S
C597 C596 1.383 . S
C597 C598 1.393 . S
C598 H570 0.931 . S
C598 C597 1.393 . S
C598 C599 1.382 . S
C599 H569 0.929 . S
C599 C594 1.371 . S
C599 C598 1.382 . S
C600 N563 1.423 . S
C600 C601 1.362 . S
C600 C605 1.388 . S
C601 H571 0.929 . S
C601 C600 1.362 . S
C601 C602 1.376 . S
C602 H573 0.931 . S
C602 C601 1.376 . S
C602 C603 1.396 . S
C603 C602 1.396 . S
C603 C604 1.348 . S
C603 C621 1.472 . S
C604 H574 0.929 . S
C604 C603 1.348 . S
C604 C605 1.443 . S
C605 H572 0.932 . S
C605 C600 1.388 . S
C605 C604 1.443 . S
C606 N586 1.433 . S
C606 C607 1.363 . S
C606 C611 1.370 . S
C607 H575 0.929 . S
C607 C606 1.363 . S
C607 C608 1.385 . S
C608 H576 0.930 . S
C608 C607 1.385 . S
C608 C609 1.357 . S
C609 C608 1.357 . S
C609 C610 1.406 . S
C610 H577 0.929 . S
C610 C609 1.406 . S
C610 C611 1.391 . S
C611 H578 0.931 . S
C611 C606 1.370 . S
C611 C610 1.391 . S
C612 N586 1.435 . S
C612 C613 1.358 . S
C612 C617 1.371 . S
C613 H579 0.930 . S
C613 C612 1.358 . S
C613 C614 1.405 . S
C614 H580 0.932 . S
C614 C613 1.405 . S
C614 C615 1.383 . S
C615 C614 1.383 . S
C615 C616 1.393 . S
C616 H581 0.931 . S
C616 C615 1.393 . S
C616 C617 1.382 . S
C617 H582 0.929 . S
C617 C612 1.371 . S
C617 C616 1.382 . S
C618 N586 1.423 . S
C618 C619 1.362 . S
C618 C623 1.388 . S
C619 H583 0.929 . S
C619 C618 1.362 . S
C619 C620 1.376 . S
C620 H584 0.931 . S
C620 C619 1.376 . S
C620 C621 1.396 . S
C621 C603 1.472 . S
C621 C620 1.396 . S
C621 C622 1.348 . S
C622 H585 0.929 . S
C622 C621 1.348 . S
C622 C623 1.443 . S
C623 H587 0.932 . S
C623 C618 1.388 . S
C623 C622 1.443 . S
H624 C651 0.929 . S
N625 C650 1.433 . S
N625 C656 1.435 . S
N625 C662 1.423 . S
H626 C652 0.930 . S
H627 C655 0.931 . S
H628 C654 0.929 . S
H629 C657 0.930 . S
H630 C658 0.932 . S
H631 C661 0.929 . S
H632 C660 0.931 . S
H633 C663 0.929 . S
H634 C667 0.932 . S
H635 C664 0.931 . S
H636 C666 0.929 . S
H637 C669 0.929 . S
H638 C670 0.930 . S
H639 C672 0.929 . S
H640 C673 0.931 . S
H641 C675 0.930 . S
H642 C676 0.932 . S
H643 C678 0.931 . S
H644 C679 0.929 . S
H645 C681 0.929 . S
H646 C682 0.931 . S
H647 C684 0.929 . S
N648 C668 1.433 . S
N648 C674 1.435 . S
N648 C680 1.423 . S
H649 C685 0.932 . S
C650 N625 1.433 . S
C650 C651 1.363 . S
C650 C655 1.370 . S
C651 H624 0.929 . S
C651 C650 1.363 . S
C651 C652 1.385 . S
C652 H626 0.930 . S
C652 C651 1.385 . S
C652 C653 1.357 . S
C653 C652 1.357 . S
C653 C654 1.406 . S
C654 H628 0.929 . S
C654 C653 1.406 . S
C654 C655 1.391 . S
C655 H627 0.931 . S
C655 C650 1.370 . S
C655 C654 1.391 . S
C656 N625 1.435 . S
C656 C657 1.358 . S
C656 C661 1.371 . S
C657 H629 0.930 . S
C657 C656 1.358 . S
C657 C658 1.405 . S
C658 H630 0.932 . S
C658 C657 1.405 . S
C658 C659 1.383 . S
C659 C658 1.383 . S
C659 C660 1.393 . S
C660 H632 0.931 . S
C660 C659 1.393 . S
C660 C661 1.382 . S
C661 H631 0.929 . S
C661 C656 1.371 . S
C661 C660 1.382 . S
C662 N625 1.423 . S
C662 C663 1.362 . S
C662 C667 1.388 . S
C663 H633 0.929 . S
C663 C662 1.362 . S
C663 C664 1.376 . S
C664 H635 0.931 . S
C664 C663 1.376 . S
C664 C665 1.396 . S
C665 C664 1.396 . S
C665 C666 1.348 . S
C665 C683 1.472 . S
C666 H636 0.929 . S
C666 C665 1.348 . S
C666 C667 1.443 . S
C667 H634 0.932 . S
C667 C662 1.388 . S
C667 C666 1.443 . S
C668 N648 1.433 . S
C668 C669 1.363 . S
C668 C673 1.370 . S
C669 H637 0.929 . S
C669 C668 1.363 . S
C669 C670 1.385 . S
C670 H638 0.930 . S
C670 C669 1.385 . S
C670 C671 1.357 . S
C671 C670 1.357 . S
C671 C672 1.406 . S
C672 H639 0.929 . S
C672 C671 1.406 . S
C672 C673 1.391 . S
C673 H640 0.931 . S
C673 C668 1.370 . S
C673 C672 1.391 . S
C674 N648 1.435 . S
C674 C675 1.358 . S
C674 C679 1.371 . S
C675 H641 0.930 . S
C675 C674 1.358 . S
C675 C676 1.405 . S
C676 H642 0.932 . S
C676 C675 1.405 . S
C676 C677 1.383 . S
C677 C676 1.383 . S
C677 C678 1.393 . S
C678 H643 0.931 . S
C678 C677 1.393 . S
C678 C679 1.382 . S
C679 H644 0.929 . S
C679 C674 1.371 . S
C679 C678 1.382 . S
C680 N648 1.423 . S
C680 C681 1.362 . S
C680 C685 1.388 . S
C681 H645 0.929 . S
C681 C680 1.362 . S
C681 C682 1.376 . S
C682 H646 0.931 . S
C682 C681 1.376 . S
C682 C683 1.396 . S
C683 C665 1.472 . S
C683 C682 1.396 . S
C683 C684 1.348 . S
C684 H647 0.929 . S
C684 C683 1.348 . S
C684 C685 1.443 . S
C685 H649 0.932 . S
C685 C680 1.388 . S
C685 C684 1.443 . S
H686 C713 0.929 . S
N687 C712 1.433 . S
N687 C718 1.435 . S
N687 C724 1.423 . S
H688 C714 0.930 . S
H689 C717 0.931 . S
H690 C716 0.929 . S
H691 C719 0.930 . S
H692 C720 0.932 . S
H693 C723 0.929 . S
H694 C722 0.931 . S
H695 C725 0.929 . S
H696 C729 0.932 . S
H697 C726 0.931 . S
H698 C728 0.929 . S
H699 C731 0.929 . S
H700 C732 0.930 . S
H701 C734 0.929 . S
H702 C735 0.931 . S
H703 C737 0.930 . S
H704 C738 0.932 . S
H705 C740 0.931 . S
H706 C741 0.929 . S
H707 C743 0.929 . S
H708 C744 0.931 . S
H709 C746 0.929 . S
N710 C730 1.433 . S
N710 C736 1.435 . S
N710 C742 1.423 . S
H711 C747 0.932 . S
C712 N687 1.433 . S
C712 C713 1.363 . S
C712 C717 1.370 . S
C713 H686 0.929 . S
C713 C712 1.363 . S
C713 C714 1.385 . S
C714 H688 0.930 . S
C714 C713 1.385 . S
C714 C715 1.357 . S
C715 C714 1.357 . S
C715 C716 1.406 . S
C716 H690 0.929 . S
C716 C715 1.406 . S
C716 C717 1.391 . S
C717 H689 0.931 . S
C717 C712 1.370 . S
C717 C716 1.391 . S
C718 N687 1.435 . S
C718 C719 1.358 . S
C718 C723 1.371 . S
C719 H691 0.930 . S
C719 C718 1.358 . S
C719 C720 1.405 . S
C720 H692 0.932 . S
C720 C719 1.405 . S
C720 C721 1.383 . S
C721 C720 1.383 . S
C721 C722 1.393 . S
C722 H694 0.931 . S
C722 C721 1.393 . S
C722 C723 1.382 . S
C723 H693 0.929 . S
C723 C718 1.371 . S
C723 C722 1.382 . S
C724 N687 1.423 . S
C724 C725 1.362 . S
C724 C729 1.388 . S
C725 H695 0.929 . S
C725 C724 1.362 . S
C725 C726 1.376 . S
C726 H697 0.931 . S
C726 C725 1.376 . S
C726 C727 1.396 . S
C727 C726 1.396 . S
C727 C728 1.348 . S
C727 C745 1.472 . S
C728 H698 0.929 . S
C728 C727 1.348 . S
C728 C729 1.443 . S
C729 H696 0.932 . S
C729 C724 1.388 . S
C729 C728 1.443 . S
C730 N710 1.433 . S
C730 C731 1.363 . S
C730 C735 1.370 . S
C731 H699 0.929 . S
C731 C730 1.363 . S
C731 C732 1.385 . S
C732 H700 0.930 . S
C732 C731 1.385 . S
C732 C733 1.357 . S
C733 C732 1.357 . S
C733 C734 1.406 . S
C734 H701 0.929 . S
C734 C733 1.406 . S
C734 C735 1.391 . S
C735 H702 0.931 . S
C735 C730 1.370 . S
C735 C734 1.391 . S
C736 N710 1.435 . S
C736 C737 1.358 . S
C736 C741 1.371 . S
C737 H703 0.930 . S
C737 C736 1.358 . S
C737 C738 1.405 . S
C738 H704 0.932 . S
C738 C737 1.405 . S
C738 C739 1.383 . S
C739 C738 1.383 . S
C739 C740 1.393 . S
C740 H705 0.931 . S
C740 C739 1.393 . S
C740 C741 1.382 . S
C741 H706 0.929 . S
C741 C736 1.371 . S
C741 C740 1.382 . S
C742 N710 1.423 . S
C742 C743 1.362 . S
C742 C747 1.388 . S
C743 H707 0.929 . S
C743 C742 1.362 . S
C743 C744 1.376 . S
C744 H708 0.931 . S
C744 C743 1.376 . S
C744 C745 1.396 . S
C745 C727 1.472 . S
C745 C744 1.396 . S
C745 C746 1.348 . S
C746 H709 0.929 . S
C746 C745 1.348 . S
C746 C747 1.443 . S
C747 H711 0.932 . S
C747 C742 1.388 . S
C747 C746 1.443 . S
H748 C775 0.929 . S
N749 C774 1.433 . S
N749 C780 1.435 . S
N749 C786 1.423 . S
H750 C776 0.930 . S
H751 C779 0.931 . S
H752 C778 0.929 . S
H753 C781 0.930 . S
H754 C782 0.932 . S
H755 C785 0.929 . S
H756 C784 0.931 . S
H757 C787 0.929 . S
H758 C791 0.932 . S
H759 C788 0.931 . S
H760 C790 0.929 . S
H761 C793 0.929 . S
H762 C794 0.930 . S
H763 C796 0.929 . S
H764 C797 0.931 . S
H765 C799 0.930 . S
H766 C800 0.932 . S
H767 C802 0.931 . S
H768 C803 0.929 . S
H769 C805 0.929 . S
H770 C806 0.931 . S
H771 C808 0.929 . S
N772 C792 1.433 . S
N772 C798 1.435 . S
N772 C804 1.423 . S
H773 C809 0.932 . S
C774 N749 1.433 . S
C774 C775 1.363 . S
C774 C779 1.370 . S
C775 H748 0.929 . S
C775 C774 1.363 . S
C775 C776 1.385 . S
C776 H750 0.930 . S
C776 C775 1.385 . S
C776 C777 1.357 . S
C777 C776 1.357 . S
C777 C778 1.406 . S
C778 H752 0.929 . S
C778 C777 1.406 . S
C778 C779 1.391 . S
C779 H751 0.931 . S
C779 C774 1.370 . S
C779 C778 1.391 . S
C780 N749 1.435 . S
C780 C781 1.358 . S
C780 C785 1.371 . S
C781 H753 0.930 . S
C781 C780 1.358 . S
C781 C782 1.405 . S
C782 H754 0.932 . S
C782 C781 1.405 . S
C782 C783 1.383 . S
C783 C782 1.383 . S
C783 C784 1.393 . S
C784 H756 0.931 . S
C784 C783 1.393 . S
C784 C785 1.382 . S
C785 H755 0.929 . S
C785 C780 1.371 . S
C785 C784 1.382 . S
C786 N749 1.423 . S
C786 C787 1.362 . S
C786 C791 1.388 . S
C787 H757 0.929 . S
C787 C786 1.362 . S
C787 C788 1.376 . S
C788 H759 0.931 . S
C788 C787 1.376 . S
C788 C789 1.396 . S
C789 C788 1.396 . S
C789 C790 1.348 . S
C789 C807 1.472 . S
C790 H760 0.929 . S
C790 C789 1.348 . S
C790 C791 1.443 . S
C791 H758 0.932 . S
C791 C786 1.388 . S
C791 C790 1.443 . S
C792 N772 1.433 . S
C792 C793 1.363 . S
C792 C797 1.370 . S
C793 H761 0.929 . S
C793 C792 1.363 . S
C793 C794 1.385 . S
C794 H762 0.930 . S
C794 C793 1.385 . S
C794 C795 1.357 . S
C795 C794 1.357 . S
C795 C796 1.406 . S
C796 H763 0.929 . S
C796 C795 1.406 . S
C796 C797 1.391 . S
C797 H764 0.931 . S
C797 C792 1.370 . S
C797 C796 1.391 . S
C798 N772 1.435 . S
C798 C799 1.358 . S
C798 C803 1.371 . S
C799 H765 0.930 . S
C799 C798 1.358 . S
C799 C800 1.405 . S
C800 H766 0.932 . S
C800 C799 1.405 . S
C800 C801 1.383 . S
C801 C800 1.383 . S
C801 C802 1.393 . S
C802 H767 0.931 . S
C802 C801 1.393 . S
C802 C803 1.382 . S
C803 H768 0.929 . S
C803 C798 1.371 . S
C803 C802 1.382 . S
C804 N772 1.423 . S
C804 C805 1.362 . S
C804 C809 1.388 . S
C805 H769 0.929 . S
C805 C804 1.362 . S
C805 C806 1.376 . S
C806 H770 0.931 . S
C806 C805 1.376 . S
C806 C807 1.396 . S
C807 C789 1.472 . S
C807 C806 1.396 . S
C807 C808 1.348 . S
C808 H771 0.929 . S
C808 C807 1.348 . S
C808 C809 1.443 . S
C809 H773 0.932 . S
C809 C804 1.388 . S
C809 C808 1.443 . S
H810 C837 0.929 . S
N811 C836 1.433 . S
N811 C842 1.435 . S
N811 C848 1.423 . S
H812 C838 0.930 . S
H813 C841 0.931 . S
H814 C840 0.929 . S
H815 C843 0.930 . S
H816 C844 0.932 . S
H817 C847 0.929 . S
H818 C846 0.931 . S
H819 C849 0.929 . S
H820 C853 0.932 1_655 S
H821 C850 0.931 . S
H822 C852 0.939 . S
H823 C855 0.929 . S
H824 C856 0.930 . S
H825 C858 0.929 . S
H826 C859 0.931 . S
H827 C861 0.930 . S
H828 C862 0.932 . S
H829 C864 0.931 . S
H830 C865 0.929 . S
H831 C867 0.929 . S
H832 C868 0.931 . S
H833 C870 0.980 . S
N834 C854 1.433 . S
N834 C860 1.435 . S
N834 C866 1.423 . S
H835 C871 0.932 1_655 S
C836 N811 1.433 . S
C836 C837 1.363 . S
C836 C841 1.370 1_455 S
C837 H810 0.929 . S
C837 C836 1.363 . S
C837 C838 1.385 . S
C838 H812 0.930 . S
C838 C837 1.385 . S
C838 C839 1.357 1_455 S
C839 C838 1.357 1_655 S
C839 C840 1.406 . S
C840 H814 0.929 . S
C840 C839 1.406 . S
C840 C841 1.391 . S
C841 H813 0.931 . S
C841 C836 1.370 1_655 S
C841 C840 1.391 . S
C842 N811 1.435 . S
C842 C843 1.358 1_455 S
C842 C847 1.371 . S
C843 H815 0.930 . S
C843 C842 1.358 1_655 S
C843 C844 1.405 . S
C844 H816 0.932 . S
C844 C843 1.405 . S
C844 C845 1.383 1_655 S
C845 C844 1.383 1_455 S
C845 C846 1.393 . S
C846 H818 0.931 . S
C846 C845 1.393 . S
C846 C847 1.382 . S
C847 H817 0.929 . S
C847 C842 1.371 . S
C847 C846 1.382 . S
C848 N811 1.423 . S
C848 C849 1.362 . S
C848 C853 1.388 . S
C849 H819 0.929 . S
C849 C848 1.362 . S
C849 C850 1.376 . S
C850 H821 0.931 . S
C850 C849 1.376 . S
C850 C851 1.396 . S
C851 C850 1.396 . S
C851 C852 1.348 . S
C851 C869 1.472 . S
C852 H822 0.939 . S
C852 C851 1.348 . S
C852 C853 1.443 . S
C853 H820 0.932 1_455 S
C853 C848 1.388 . S
C853 C852 1.443 . S
C854 N834 1.433 . S
C854 C855 1.363 . S
C854 C859 1.370 1_455 S
C855 H823 0.929 . S
C855 C854 1.363 . S
C855 C856 1.385 . S
C856 H824 0.930 . S
C856 C855 1.385 . S
C856 C857 1.357 1_455 S
C857 C856 1.357 1_655 S
C857 C858 1.406 . S
C858 H825 0.929 . S
C858 C857 1.406 . S
C858 C859 1.391 . S
C859 H826 0.931 . S
C859 C854 1.370 1_655 S
C859 C858 1.391 . S
C860 N834 1.435 . S
C860 C861 1.358 1_455 S
C860 C865 1.371 . S
C861 H827 0.930 . S
C861 C860 1.358 1_655 S
C861 C862 1.405 . S
C862 H828 0.932 . S
C862 C861 1.405 . S
C862 C863 1.383 1_655 S
C863 C862 1.383 1_455 S
C863 C864 1.393 . S
C864 H829 0.931 . S
C864 C863 1.393 . S
C864 C865 1.382 . S
C865 H830 0.929 . S
C865 C860 1.371 . S
C865 C864 1.382 . S
C866 N834 1.423 . S
C866 C867 1.362 . S
C866 C871 1.388 . S
C867 H831 0.929 . S
C867 C866 1.362 . S
C867 C868 1.376 . S
C868 H832 0.931 . S
C868 C867 1.376 . S
C868 C869 1.396 . S
C869 C851 1.472 . S
C869 C868 1.396 . S
C869 C870 1.348 . S
C870 H833 0.980 . S
C870 C869 1.348 . S
C870 C871 1.443 . S
C871 H835 0.932 1_455 S
C871 C866 1.388 . S
C871 C870 1.443 . S
H872 C899 0.929 . S
N873 C898 1.433 . S
N873 C904 1.435 . S
N873 C910 1.423 . S
H874 C900 0.930 . S
H875 C903 0.931 . S
H876 C902 0.929 . S
H877 C905 0.930 . S
H878 C906 0.932 . S
H879 C909 0.929 . S
H880 C908 0.931 . S
H881 C911 0.929 . S
H882 C915 0.932 . S
H883 C912 0.931 . S
H884 C914 0.929 . S
H885 C917 0.929 . S
H886 C918 0.930 . S
H887 C920 0.929 . S
H888 C921 0.931 . S
H889 C923 0.930 . S
H890 C924 0.932 . S
H891 C926 0.931 . S
H892 C927 0.929 . S
H893 C929 0.929 . S
H894 C930 0.931 . S
H895 C932 0.929 . S
N896 C916 1.433 . S
N896 C922 1.435 . S
N896 C928 1.423 . S
H897 C933 0.932 . S
C898 N873 1.433 . S
C898 C899 1.363 . S
C898 C903 1.370 . S
C899 H872 0.929 . S
C899 C898 1.363 . S
C899 C900 1.385 . S
C900 H874 0.930 . S
C900 C899 1.385 . S
C900 C901 1.357 . S
C901 C900 1.357 . S
C901 C902 1.406 . S
C902 H876 0.929 . S
C902 C901 1.406 . S
C902 C903 1.391 . S
C903 H875 0.931 . S
C903 C898 1.370 . S
C903 C902 1.391 . S
C904 N873 1.435 . S
C904 C905 1.358 . S
C904 C909 1.371 . S
C905 H877 0.930 . S
C905 C904 1.358 . S
C905 C906 1.405 . S
C906 H878 0.932 . S
C906 C905 1.405 . S
C906 C907 1.383 . S
C907 C906 1.383 . S
C907 C908 1.393 . S
C908 H880 0.931 . S
C908 C907 1.393 . S
C908 C909 1.382 . S
C909 H879 0.929 . S
C909 C904 1.371 . S
C909 C908 1.382 . S
C910 N873 1.423 . S
C910 C911 1.362 . S
C910 C915 1.388 . S
C911 H881 0.929 . S
C911 C910 1.362 . S
C911 C912 1.376 . S
C912 H883 0.931 . S
C912 C911 1.376 . S
C912 C913 1.396 . S
C913 C912 1.396 . S
C913 C914 1.348 . S
C913 C931 1.472 . S
C914 H884 0.929 . S
C914 C913 1.348 . S
C914 C915 1.443 . S
C915 H882 0.932 . S
C915 C910 1.388 . S
C915 C914 1.443 . S
C916 N896 1.433 . S
C916 C917 1.363 . S
C916 C921 1.370 . S
C917 H885 0.929 . S
C917 C916 1.363 . S
C917 C918 1.385 . S
C918 H886 0.930 . S
C918 C917 1.385 . S
C918 C919 1.357 . S
C919 C918 1.357 . S
C919 C920 1.406 . S
C920 H887 0.929 . S
C920 C919 1.406 . S
C920 C921 1.391 . S
C921 H888 0.931 . S
C921 C916 1.370 . S
C921 C920 1.391 . S
C922 N896 1.435 . S
C922 C923 1.358 . S
C922 C927 1.371 . S
C923 H889 0.930 . S
C923 C922 1.358 . S
C923 C924 1.405 . S
C924 H890 0.932 . S
C924 C923 1.405 . S
C924 C925 1.383 . S
C925 C924 1.383 . S
C925 C926 1.393 . S
C926 H891 0.931 . S
C926 C925 1.393 . S
C926 C927 1.382 . S
C927 H892 0.929 . S
C927 C922 1.371 . S
C927 C926 1.382 . S
C928 N896 1.423 . S
C928 C929 1.362 . S
C928 C933 1.388 . S
C929 H893 0.929 . S
C929 C928 1.362 . S
C929 C930 1.376 . S
C930 H894 0.931 . S
C930 C929 1.376 . S
C930 C931 1.396 . S
C931 C913 1.472 . S
C931 C930 1.396 . S
C931 C932 1.348 . S
C932 H895 0.929 . S
C932 C931 1.348 . S
C932 C933 1.443 . S
C933 H897 0.932 . S
C933 C928 1.388 . S
C933 C932 1.443 . S
H934 C961 0.929 . S
N935 C960 1.433 . S
N935 C966 1.435 . S
N935 C972 1.423 . S
H936 C962 0.930 . S
H937 C965 0.931 . S
H938 C964 0.929 . S
H939 C967 0.930 . S
H940 C968 0.932 . S
H941 C971 0.929 . S
H942 C970 0.931 . S
H943 C973 0.929 . S
H944 C977 0.932 1_545 S
H945 C974 0.931 . S
H946 C976 0.991 . S
H947 C979 0.929 . S
H948 C980 0.930 . S
H949 C982 0.929 . S
H950 C983 0.931 . S
H951 C985 0.930 . S
H952 C986 0.932 . S
H953 C988 0.931 . S
H954 C989 0.929 . S
H955 C991 0.929 . S
H956 C992 0.931 . S
H957 C994 0.943 . S
N958 C978 1.433 . S
N958 C984 1.435 . S
N958 C990 1.423 . S
H959 C995 0.932 1_545 S
C960 N935 1.433 . S
C960 C961 1.363 . S
C960 C965 1.370 1_565 S
C961 H934 0.929 . S
C961 C960 1.363 . S
C961 C962 1.385 . S
C962 H936 0.930 . S
C962 C961 1.385 . S
C962 C963 1.357 1_565 S
C963 C962 1.357 1_545 S
C963 C964 1.406 . S
C964 H938 0.929 . S
C964 C963 1.406 . S
C964 C965 1.391 . S
C965 H937 0.931 . S
C965 C960 1.370 1_545 S
C965 C964 1.391 . S
C966 N935 1.435 . S
C966 C967 1.358 1_565 S
C966 C971 1.371 . S
C967 H939 0.930 . S
C967 C966 1.358 1_545 S
C967 C968 1.405 . S
C968 H940 0.932 . S
C968 C967 1.405 . S
C968 C969 1.383 1_545 S
C969 C968 1.383 1_565 S
C969 C970 1.393 . S
C970 H942 0.931 . S
C970 C969 1.393 . S
C970 C971 1.382 . S
C971 H941 0.929 . S
C971 C966 1.371 . S
C971 C970 1.382 . S
C972 N935 1.423 . S
C972 C973 1.362 . S
C972 C977 1.388 . S
C973 H943 0.929 . S
C973 C972 1.362 . S
C973 C974 1.376 . S
C974 H945 0.931 . S
C974 C973 1.376 . S
C974 C975 1.396 . S
C975 C974 1.396 . S
C975 C976 1.348 . S
C975 C993 1.472 . S
C976 H946 0.991 . S
C976 C975 1.348 . S
C976 C977 1.443 . S
C977 H944 0.932 1_565 S
C977 C972 1.388 . S
C977 C976 1.443 . S
C978 N958 1.433 . S
C978 C979 1.363 . S
C978 C983 1.370 1_565 S
C979 H947 0.929 . S
C979 C978 1.363 . S
C979 C980 1.385 . S
C980 H948 0.930 . S
C980 C979 1.385 . S
C980 C981 1.357 1_565 S
C981 C980 1.357 1_545 S
C981 C982 1.406 . S
C982 H949 0.929 . S
C982 C981 1.406 . S
C982 C983 1.391 . S
C983 H950 0.931 . S
C983 C978 1.370 1_545 S
C983 C982 1.391 . S
C984 N958 1.435 . S
C984 C985 1.358 1_565 S
C984 C989 1.371 . S
C985 H951 0.930 . S
C985 C984 1.358 1_545 S
C985 C986 1.405 . S
C986 H952 0.932 . S
C986 C985 1.405 . S
C986 C987 1.383 1_545 S
C987 C986 1.383 1_565 S
C987 C988 1.393 . S
C988 H953 0.931 . S
C988 C987 1.393 . S
C988 C989 1.382 . S
C989 H954 0.929 . S
C989 C984 1.371 . S
C989 C988 1.382 . S
C990 N958 1.423 . S
C990 C991 1.362 . S
C990 C995 1.388 . S
C991 H955 0.929 . S
C991 C990 1.362 . S
C991 C992 1.376 . S
C992 H956 0.931 . S
C992 C991 1.376 . S
C992 C993 1.396 . S
C993 C975 1.472 . S
C993 C992 1.396 . S
C993 C994 1.348 . S
C994 H957 0.943 . S
C994 C993 1.348 . S
C994 C995 1.443 . S
C995 H959 0.932 1_565 S
C995 C990 1.388 . S
C995 C994 1.443 . S
H996 C1023 0.929 . S
N997 C1022 1.433 . S
N997 C1028 1.435 . S
N997 C1034 1.423 . S
H998 C1024 0.930 . S
H999 C1027 0.930 . S
H1000 C1026 0.950 . S
H1001 C1029 0.930 . S
H1002 C1030 0.932 . S
H1003 C1033 0.929 . S
H1004 C1032 0.931 . S
H1005 C1035 0.929 . S
H1006 C1039 1.000 . S
H1007 C1036 0.931 . S
H1008 C1038 0.917 1_545 S
H1009 C1041 0.929 . S
H1010 C1042 0.930 . S
H1011 C1044 0.929 . S
H1012 C1045 1.015 . S
H1013 C1047 0.930 . S
H1014 C1048 0.932 . S
H1015 C1050 0.931 . S
H1016 C1051 0.929 . S
H1017 C1053 0.929 . S
H1018 C1054 0.931 . S
H1019 C1056 0.894 1_545 S
N1020 C1040 1.433 . S
N1020 C1046 1.435 . S
N1020 C1052 1.423 . S
H1021 C1057 0.972 . S
C1022 N997 1.433 . S
C1022 C1023 1.363 . S
C1022 C1027 1.363 1_565 S
C1023 H996 0.929 . S
C1023 C1022 1.363 . S
C1023 C1024 1.385 . S
C1024 H998 0.930 . S
C1024 C1023 1.385 . S
C1024 C1025 1.357 . S
C1025 C1024 1.357 . S
C1025 C1026 1.414 1_565 S
C1026 H1000 0.950 . S
C1026 C1025 1.414 1_545 S
C1026 C1027 1.385 . S
C1027 H999 0.930 . S
C1027 C1022 1.363 1_545 S
C1027 C1026 1.385 . S
C1028 N997 1.435 . S
C1028 C1029 1.358 1_565 S
C1028 C1033 1.371 . S
C1029 H1001 0.930 . S
C1029 C1028 1.358 1_545 S
C1029 C1030 1.405 . S
C1030 H1002 0.932 . S
C1030 C1029 1.405 . S
C1030 C1031 1.383 . S
C1031 C1030 1.383 . S
C1031 C1032 1.393 1_545 S
C1032 H1004 0.931 . S
C1032 C1031 1.393 1_565 S
C1032 C1033 1.382 . S
C1033 H1003 0.929 . S
C1033 C1028 1.371 . S
C1033 C1032 1.382 . S
C1034 N997 1.423 . S
C1034 C1035 1.362 . S
C1034 C1039 1.368 1_565 S
C1035 H1005 0.929 . S
C1035 C1034 1.362 . S
C1035 C1036 1.376 . S
C1036 H1007 0.931 . S
C1036 C1035 1.376 . S
C1036 C1037 1.396 . S
C1037 C1036 1.396 . S
C1037 C1038 1.397 . S
C1037 C1055 1.472 . S
C1038 H1008 0.917 1_565 S
C1038 C1037 1.397 . S
C1038 C1039 1.366 1_565 S
C1039 H1006 1.000 . S
C1039 C1034 1.368 1_545 S
C1039 C1038 1.366 1_545 S
C1040 N1020 1.433 . S
C1040 C1041 1.363 . S
C1040 C1045 1.307 1_565 S
C1041 H1009 0.929 . S
C1041 C1040 1.363 . S
C1041 C1042 1.385 . S
C1042 H1010 0.930 . S
C1042 C1041 1.385 . S
C1042 C1043 1.357 . S
C1043 C1042 1.357 . S
C1043 C1044 1.406 1_565 S
C1044 H1011 0.929 . S
C1044 C1043 1.406 1_545 S
C1044 C1045 1.378 . S
C1045 H1012 1.015 . S
C1045 C1040 1.307 1_545 S
C1045 C1044 1.378 . S
C1046 N1020 1.435 . S
C1046 C1047 1.358 1_565 S
C1046 C1051 1.371 . S
C1047 H1013 0.930 . S
C1047 C1046 1.358 1_545 S
C1047 C1048 1.405 . S
C1048 H1014 0.932 . S
C1048 C1047 1.405 . S
C1048 C1049 1.383 . S
C1049 C1048 1.383 . S
C1049 C1050 1.393 1_545 S
C1050 H1015 0.931 . S
C1050 C1049 1.393 1_565 S
C1050 C1051 1.382 . S
C1051 H1016 0.929 . S
C1051 C1046 1.371 . S
C1051 C1050 1.382 . S
C1052 N1020 1.423 . S
C1052 C1053 1.362 . S
C1052 C1057 1.313 1_565 S
C1053 H1017 0.929 . S
C1053 C1052 1.362 . S
C1053 C1054 1.376 . S
C1054 H1018 0.931 . S
C1054 C1053 1.376 . S
C1054 C1055 1.396 . S
C1055 C1037 1.472 . S
C1055 C1054 1.396 . S
C1055 C1056 1.363 . S
C1056 H1019 0.894 1_565 S
C1056 C1055 1.363 . S
C1056 C1057 1.510 1_565 S
C1057 H1021 0.972 . S
C1057 C1052 1.313 1_545 S
C1057 C1056 1.510 1_545 S
H1058 C1085 0.929 . S
N1059 C1084 1.433 . S
N1059 C1090 1.435 . S
N1059 C1096 1.423 . S
H1060 C1086 0.930 . S
H1061 C1089 0.931 . S
H1062 C1088 0.929 . S
H1063 C1091 0.930 . S
H1064 C1092 0.932 . S
H1065 C1095 0.929 . S
H1066 C1094 0.931 . S
H1067 C1097 0.929 . S
H1068 C1101 0.932 1_455 S
H1069 C1098 0.931 . S
H1070 C1100 0.994 . S
H1071 C1103 0.929 . S
H1072 C1104 0.930 . S
H1073 C1106 0.929 . S
H1074 C1107 0.931 . S
H1075 C1109 0.930 . S
H1076 C1110 0.932 . S
H1077 C1112 0.931 . S
H1078 C1113 0.929 . S
H1079 C1115 0.929 . S
H1080 C1116 0.931 . S
H1081 C1118 0.943 . S
N1082 C1102 1.433 . S
N1082 C1108 1.435 . S
N1082 C1114 1.423 . S
H1083 C1119 0.932 1_455 S
C1084 N1059 1.433 . S
C1084 C1085 1.363 . S
C1084 C1089 1.370 1_655 S
C1085 H1058 0.929 . S
C1085 C1084 1.363 . S
C1085 C1086 1.385 . S
C1086 H1060 0.930 . S
C1086 C1085 1.385 . S
C1086 C1087 1.357 1_655 S
C1087 C1086 1.357 1_455 S
C1087 C1088 1.406 . S
C1088 H1062 0.929 . S
C1088 C1087 1.406 . S
C1088 C1089 1.391 . S
C1089 H1061 0.931 . S
C1089 C1084 1.370 1_455 S
C1089 C1088 1.391 . S
C1090 N1059 1.435 . S
C1090 C1091 1.358 1_655 S
C1090 C1095 1.371 . S
C1091 H1063 0.930 . S
C1091 C1090 1.358 1_455 S
C1091 C1092 1.405 . S
C1092 H1064 0.932 . S
C1092 C1091 1.405 . S
C1092 C1093 1.383 1_455 S
C1093 C1092 1.383 1_655 S
C1093 C1094 1.393 . S
C1094 H1066 0.931 . S
C1094 C1093 1.393 . S
C1094 C1095 1.382 . S
C1095 H1065 0.929 . S
C1095 C1090 1.371 . S
C1095 C1094 1.382 . S
C1096 N1059 1.423 . S
C1096 C1097 1.362 . S
C1096 C1101 1.388 . S
C1097 H1067 0.929 . S
C1097 C1096 1.362 . S
C1097 C1098 1.376 . S
C1098 H1069 0.931 . S
C1098 C1097 1.376 . S
C1098 C1099 1.396 . S
C1099 C1098 1.396 . S
C1099 C1100 1.348 . S
C1099 C1117 1.472 . S
C1100 H1070 0.994 . S
C1100 C1099 1.348 . S
C1100 C1101 1.443 . S
C1101 H1068 0.932 1_655 S
C1101 C1096 1.388 . S
C1101 C1100 1.443 . S
C1102 N1082 1.433 . S
C1102 C1103 1.363 . S
C1102 C1107 1.370 1_655 S
C1103 H1071 0.929 . S
C1103 C1102 1.363 . S
C1103 C1104 1.385 . S
C1104 H1072 0.930 . S
C1104 C1103 1.385 . S
C1104 C1105 1.357 1_655 S
C1105 C1104 1.357 1_455 S
C1105 C1106 1.406 . S
C1106 H1073 0.929 . S
C1106 C1105 1.406 . S
C1106 C1107 1.391 . S
C1107 H1074 0.931 . S
C1107 C1102 1.370 1_455 S
C1107 C1106 1.391 . S
C1108 N1082 1.435 . S
C1108 C1109 1.358 1_655 S
C1108 C1113 1.371 . S
C1109 H1075 0.930 . S
C1109 C1108 1.358 1_455 S
C1109 C1110 1.405 . S
C1110 H1076 0.932 . S
C1110 C1109 1.405 . S
C1110 C1111 1.383 1_455 S
C1111 C1110 1.383 1_655 S
C1111 C1112 1.393 . S
C1112 H1077 0.931 . S
C1112 C1111 1.393 . S
C1112 C1113 1.382 . S
C1113 H1078 0.929 . S
C1113 C1108 1.371 . S
C1113 C1112 1.382 . S
C1114 N1082 1.423 . S
C1114 C1115 1.362 . S
C1114 C1119 1.388 . S
C1115 H1079 0.929 . S
C1115 C1114 1.362 . S
C1115 C1116 1.376 . S
C1116 H1080 0.931 . S
C1116 C1115 1.376 . S
C1116 C1117 1.396 . S
C1117 C1099 1.472 . S
C1117 C1116 1.396 . S
C1117 C1118 1.348 . S
C1118 H1081 0.943 . S
C1118 C1117 1.348 . S
C1118 C1119 1.443 . S
C1119 H1083 0.932 1_655 S
C1119 C1114 1.388 . S
C1119 C1118 1.443 . S
H1120 C1147 0.929 . S
N1121 C1146 1.433 . S
N1121 C1152 1.435 . S
N1121 C1158 1.423 . S
H1122 C1148 0.930 . S
H1123 C1151 0.931 . S
H1124 C1150 0.929 . S
H1125 C1153 0.930 . S
H1126 C1154 0.932 . S
H1127 C1157 0.929 . S
H1128 C1156 0.931 . S
H1129 C1159 0.929 . S
H1130 C1163 0.932 . S
H1131 C1160 0.931 . S
H1132 C1162 0.929 . S
H1133 C1165 0.929 . S
H1134 C1166 0.930 . S
H1135 C1168 0.929 . S
H1136 C1169 0.931 . S
H1137 C1171 0.930 . S
H1138 C1172 0.932 . S
H1139 C1174 0.931 . S
H1140 C1175 0.929 . S
H1141 C1177 0.929 . S
H1142 C1178 0.931 . S
H1143 C1180 0.929 . S
N1144 C1164 1.433 . S
N1144 C1170 1.435 . S
N1144 C1176 1.423 . S
H1145 C1181 0.932 . S
C1146 N1121 1.433 . S
C1146 C1147 1.363 . S
C1146 C1151 1.370 . S
C1147 H1120 0.929 . S
C1147 C1146 1.363 . S
C1147 C1148 1.385 . S
C1148 H1122 0.930 . S
C1148 C1147 1.385 . S
C1148 C1149 1.357 . S
C1149 C1148 1.357 . S
C1149 C1150 1.406 . S
C1150 H1124 0.929 . S
C1150 C1149 1.406 . S
C1150 C1151 1.391 . S
C1151 H1123 0.931 . S
C1151 C1146 1.370 . S
C1151 C1150 1.391 . S
C1152 N1121 1.435 . S
C1152 C1153 1.358 . S
C1152 C1157 1.371 . S
C1153 H1125 0.930 . S
C1153 C1152 1.358 . S
C1153 C1154 1.405 . S
C1154 H1126 0.932 . S
C1154 C1153 1.405 . S
C1154 C1155 1.383 . S
C1155 C1154 1.383 . S
C1155 C1156 1.393 . S
C1156 H1128 0.931 . S
C1156 C1155 1.393 . S
C1156 C1157 1.382 . S
C1157 H1127 0.929 . S
C1157 C1152 1.371 . S
C1157 C1156 1.382 . S
C1158 N1121 1.423 . S
C1158 C1159 1.362 . S
C1158 C1163 1.388 . S
C1159 H1129 0.929 . S
C1159 C1158 1.362 . S
C1159 C1160 1.376 . S
C1160 H1131 0.931 . S
C1160 C1159 1.376 . S
C1160 C1161 1.396 . S
C1161 C1160 1.396 . S
C1161 C1162 1.348 . S
C1161 C1179 1.472 . S
C1162 H1132 0.929 . S
C1162 C1161 1.348 . S
C1162 C1163 1.443 . S
C1163 H1130 0.932 . S
C1163 C1158 1.388 . S
C1163 C1162 1.443 . S
C1164 N1144 1.433 . S
C1164 C1165 1.363 . S
C1164 C1169 1.370 . S
C1165 H1133 0.929 . S
C1165 C1164 1.363 . S
C1165 C1166 1.385 . S
C1166 H1134 0.930 . S
C1166 C1165 1.385 . S
C1166 C1167 1.357 . S
C1167 C1166 1.357 . S
C1167 C1168 1.406 . S
C1168 H1135 0.929 . S
C1168 C1167 1.406 . S
C1168 C1169 1.391 . S
C1169 H1136 0.931 . S
C1169 C1164 1.370 . S
C1169 C1168 1.391 . S
C1170 N1144 1.435 . S
C1170 C1171 1.358 . S
C1170 C1175 1.371 . S
C1171 H1137 0.930 . S
C1171 C1170 1.358 . S
C1171 C1172 1.405 . S
C1172 H1138 0.932 . S
C1172 C1171 1.405 . S
C1172 C1173 1.383 . S
C1173 C1172 1.383 . S
C1173 C1174 1.393 . S
C1174 H1139 0.931 . S
C1174 C1173 1.393 . S
C1174 C1175 1.382 . S
C1175 H1140 0.929 . S
C1175 C1170 1.371 . S
C1175 C1174 1.382 . S
C1176 N1144 1.423 . S
C1176 C1177 1.362 . S
C1176 C1181 1.388 . S
C1177 H1141 0.929 . S
C1177 C1176 1.362 . S
C1177 C1178 1.376 . S
C1178 H1142 0.931 . S
C1178 C1177 1.376 . S
C1178 C1179 1.396 . S
C1179 C1161 1.472 . S
C1179 C1178 1.396 . S
C1179 C1180 1.348 . S
C1180 H1143 0.929 . S
C1180 C1179 1.348 . S
C1180 C1181 1.443 . S
C1181 H1145 0.932 . S
C1181 C1176 1.388 . S
C1181 C1180 1.443 . S
H1182 C1209 0.929 . S
N1183 C1208 1.433 . S
N1183 C1214 1.435 . S
N1183 C1220 1.423 . S
H1184 C1210 0.930 . S
H1185 C1213 0.931 . S
H1186 C1212 0.929 . S
H1187 C1215 0.930 . S
H1188 C1216 0.932 . S
H1189 C1219 0.929 . S
H1190 C1218 0.931 . S
H1191 C1221 0.929 . S
H1192 C1225 0.932 . S
H1193 C1222 0.931 . S
H1194 C1224 0.929 . S
H1195 C1227 0.929 . S
H1196 C1228 0.930 . S
H1197 C1230 0.929 . S
H1198 C1231 0.931 . S
H1199 C1233 0.930 . S
H1200 C1234 0.932 . S
H1201 C1236 0.931 . S
H1202 C1237 0.929 . S
H1203 C1239 0.929 . S
H1204 C1240 0.931 . S
H1205 C1242 0.929 . S
N1206 C1226 1.433 . S
N1206 C1232 1.435 . S
N1206 C1238 1.423 . S
H1207 C1243 0.932 . S
C1208 N1183 1.433 . S
C1208 C1209 1.363 . S
C1208 C1213 1.370 . S
C1209 H1182 0.929 . S
C1209 C1208 1.363 . S
C1209 C1210 1.385 . S
C1210 H1184 0.930 . S
C1210 C1209 1.385 . S
C1210 C1211 1.357 . S
C1211 C1210 1.357 . S
C1211 C1212 1.406 . S
C1212 H1186 0.929 . S
C1212 C1211 1.406 . S
C1212 C1213 1.391 . S
C1213 H1185 0.931 . S
C1213 C1208 1.370 . S
C1213 C1212 1.391 . S
C1214 N1183 1.435 . S
C1214 C1215 1.358 . S
C1214 C1219 1.371 . S
C1215 H1187 0.930 . S
C1215 C1214 1.358 . S
C1215 C1216 1.405 . S
C1216 H1188 0.932 . S
C1216 C1215 1.405 . S
C1216 C1217 1.383 . S
C1217 C1216 1.383 . S
C1217 C1218 1.393 . S
C1218 H1190 0.931 . S
C1218 C1217 1.393 . S
C1218 C1219 1.382 . S
C1219 H1189 0.929 . S
C1219 C1214 1.371 . S
C1219 C1218 1.382 . S
C1220 N1183 1.423 . S
C1220 C1221 1.362 . S
C1220 C1225 1.388 . S
C1221 H1191 0.929 . S
C1221 C1220 1.362 . S
C1221 C1222 1.376 . S
C1222 H1193 0.931 . S
C1222 C1221 1.376 . S
C1222 C1223 1.396 . S
C1223 C1222 1.396 . S
C1223 C1224 1.348 . S
C1223 C1241 1.472 . S
C1224 H1194 0.929 . S
C1224 C1223 1.348 . S
C1224 C1225 1.443 . S
C1225 H1192 0.932 . S
C1225 C1220 1.388 . S
C1225 C1224 1.443 . S
C1226 N1206 1.433 . S
C1226 C1227 1.363 . S
C1226 C1231 1.370 . S
C1227 H1195 0.929 . S
C1227 C1226 1.363 . S
C1227 C1228 1.385 . S
C1228 H1196 0.930 . S
C1228 C1227 1.385 . S
C1228 C1229 1.357 . S
C1229 C1228 1.357 . S
C1229 C1230 1.406 . S
C1230 H1197 0.929 . S
C1230 C1229 1.406 . S
C1230 C1231 1.391 . S
C1231 H1198 0.931 . S
C1231 C1226 1.370 . S
C1231 C1230 1.391 . S
C1232 N1206 1.435 . S
C1232 C1233 1.358 . S
C1232 C1237 1.371 . S
C1233 H1199 0.930 . S
C1233 C1232 1.358 . S
C1233 C1234 1.405 . S
C1234 H1200 0.932 . S
C1234 C1233 1.405 . S
C1234 C1235 1.383 . S
C1235 C1234 1.383 . S
C1235 C1236 1.393 . S
C1236 H1201 0.931 . S
C1236 C1235 1.393 . S
C1236 C1237 1.382 . S
C1237 H1202 0.929 . S
C1237 C1232 1.371 . S
C1237 C1236 1.382 . S
C1238 N1206 1.423 . S
C1238 C1239 1.362 . S
C1238 C1243 1.388 . S
C1239 H1203 0.929 . S
C1239 C1238 1.362 . S
C1239 C1240 1.376 . S
C1240 H1204 0.931 . S
C1240 C1239 1.376 . S
C1240 C1241 1.396 . S
C1241 C1223 1.472 . S
C1241 C1240 1.396 . S
C1241 C1242 1.348 . S
C1242 H1205 0.929 . S
C1242 C1241 1.348 . S
C1242 C1243 1.443 . S
C1243 H1207 0.932 . S
C1243 C1238 1.388 . S
C1243 C1242 1.443 . S
H1244 C1271 0.929 . S
N1245 C1270 1.433 . S
N1245 C1276 1.435 . S
N1245 C1282 1.423 . S
H1246 C1272 0.930 . S
H1247 C1275 0.931 . S
H1248 C1274 0.929 . S
H1249 C1277 0.930 . S
H1250 C1278 0.932 . S
H1251 C1281 0.929 . S
H1252 C1280 0.931 . S
H1253 C1283 0.929 . S
H1254 C1287 0.932 . S
H1255 C1284 0.931 . S
H1256 C1286 0.929 . S
H1257 C1289 0.929 . S
H1258 C1290 0.930 . S
H1259 C1292 0.929 . S
H1260 C1293 0.931 . S
H1261 C1295 0.930 . S
H1262 C1296 0.932 . S
H1263 C1298 0.931 . S
H1264 C1299 0.929 . S
H1265 C1301 0.929 . S
H1266 C1302 0.931 . S
H1267 C1304 0.929 . S
N1268 C1288 1.433 . S
N1268 C1294 1.435 . S
N1268 C1300 1.423 . S
H1269 C1305 0.932 . S
C1270 N1245 1.433 . S
C1270 C1271 1.363 . S
C1270 C1275 1.370 . S
C1271 H1244 0.929 . S
C1271 C1270 1.363 . S
C1271 C1272 1.385 . S
C1272 H1246 0.930 . S
C1272 C1271 1.385 . S
C1272 C1273 1.357 . S
C1273 C1272 1.357 . S
C1273 C1274 1.406 . S
C1274 H1248 0.929 . S
C1274 C1273 1.406 . S
C1274 C1275 1.391 . S
C1275 H1247 0.931 . S
C1275 C1270 1.370 . S
C1275 C1274 1.391 . S
C1276 N1245 1.435 . S
C1276 C1277 1.358 . S
C1276 C1281 1.371 . S
C1277 H1249 0.930 . S
C1277 C1276 1.358 . S
C1277 C1278 1.405 . S
C1278 H1250 0.932 . S
C1278 C1277 1.405 . S
C1278 C1279 1.383 . S
C1279 C1278 1.383 . S
C1279 C1280 1.393 . S
C1280 H1252 0.931 . S
C1280 C1279 1.393 . S
C1280 C1281 1.382 . S
C1281 H1251 0.929 . S
C1281 C1276 1.371 . S
C1281 C1280 1.382 . S
C1282 N1245 1.423 . S
C1282 C1283 1.362 . S
C1282 C1287 1.388 . S
C1283 H1253 0.929 . S
C1283 C1282 1.362 . S
C1283 C1284 1.376 . S
C1284 H1255 0.931 . S
C1284 C1283 1.376 . S
C1284 C1285 1.396 . S
C1285 C1284 1.396 . S
C1285 C1286 1.348 . S
C1285 C1303 1.472 . S
C1286 H1256 0.929 . S
C1286 C1285 1.348 . S
C1286 C1287 1.443 . S
C1287 H1254 0.932 . S
C1287 C1282 1.388 . S
C1287 C1286 1.443 . S
C1288 N1268 1.433 . S
C1288 C1289 1.363 . S
C1288 C1293 1.370 . S
C1289 H1257 0.929 . S
C1289 C1288 1.363 . S
C1289 C1290 1.385 . S
C1290 H1258 0.930 . S
C1290 C1289 1.385 . S
C1290 C1291 1.357 . S
C1291 C1290 1.357 . S
C1291 C1292 1.406 . S
C1292 H1259 0.929 . S
C1292 C1291 1.406 . S
C1292 C1293 1.391 . S
C1293 H1260 0.931 . S
C1293 C1288 1.370 . S
C1293 C1292 1.391 . S
C1294 N1268 1.435 . S
C1294 C1295 1.358 . S
C1294 C1299 1.371 . S
C1295 H1261 0.930 . S
C1295 C1294 1.358 . S
C1295 C1296 1.405 . S
C1296 H1262 0.932 . S
C1296 C1295 1.405 . S
C1296 C1297 1.383 . S
C1297 C1296 1.383 . S
C1297 C1298 1.393 . S
C1298 H1263 0.931 . S
C1298 C1297 1.393 . S
C1298 C1299 1.382 . S
C1299 H1264 0.929 . S
C1299 C1294 1.371 . S
C1299 C1298 1.382 . S
C1300 N1268 1.423 . S
C1300 C1301 1.362 . S
C1300 C1305 1.388 . S
C1301 H1265 0.929 . S
C1301 C1300 1.362 . S
C1301 C1302 1.376 . S
C1302 H1266 0.931 . S
C1302 C1301 1.376 . S
C1302 C1303 1.396 . S
C1303 C1285 1.472 . S
C1303 C1302 1.396 . S
C1303 C1304 1.348 . S
C1304 H1267 0.929 . S
C1304 C1303 1.348 . S
C1304 C1305 1.443 . S
C1305 H1269 0.932 . S
C1305 C1300 1.388 . S
C1305 C1304 1.443 . S
H1306 C1333 0.929 . S
N1307 C1332 1.433 . S
N1307 C1338 1.435 . S
N1307 C1344 1.423 . S
H1308 C1334 0.930 . S
H1309 C1337 0.931 . S
H1310 C1336 0.929 . S
H1311 C1339 0.930 . S
H1312 C1340 0.932 . S
H1313 C1343 0.929 . S
H1314 C1342 0.931 . S
H1315 C1345 0.929 . S
H1316 C1349 0.932 . S
H1317 C1346 0.931 . S
H1318 C1348 0.929 . S
H1319 C1351 0.929 . S
H1320 C1352 0.930 . S
H1321 C1354 0.929 . S
H1322 C1355 0.931 . S
H1323 C1357 0.930 . S
H1324 C1358 0.932 . S
H1325 C1360 0.931 . S
H1326 C1361 0.929 . S
H1327 C1363 0.929 . S
H1328 C1364 0.931 . S
H1329 C1366 0.929 . S
N1330 C1350 1.433 . S
N1330 C1356 1.435 . S
N1330 C1362 1.423 . S
H1331 C1367 0.932 . S
C1332 N1307 1.433 . S
C1332 C1333 1.363 . S
C1332 C1337 1.370 . S
C1333 H1306 0.929 . S
C1333 C1332 1.363 . S
C1333 C1334 1.385 . S
C1334 H1308 0.930 . S
C1334 C1333 1.385 . S
C1334 C1335 1.357 . S
C1335 C1334 1.357 . S
C1335 C1336 1.406 . S
C1336 H1310 0.929 . S
C1336 C1335 1.406 . S
C1336 C1337 1.391 . S
C1337 H1309 0.931 . S
C1337 C1332 1.370 . S
C1337 C1336 1.391 . S
C1338 N1307 1.435 . S
C1338 C1339 1.358 . S
C1338 C1343 1.371 . S
C1339 H1311 0.930 . S
C1339 C1338 1.358 . S
C1339 C1340 1.405 . S
C1340 H1312 0.932 . S
C1340 C1339 1.405 . S
C1340 C1341 1.383 . S
C1341 C1340 1.383 . S
C1341 C1342 1.393 . S
C1342 H1314 0.931 . S
C1342 C1341 1.393 . S
C1342 C1343 1.382 . S
C1343 H1313 0.929 . S
C1343 C1338 1.371 . S
C1343 C1342 1.382 . S
C1344 N1307 1.423 . S
C1344 C1345 1.362 . S
C1344 C1349 1.388 . S
C1345 H1315 0.929 . S
C1345 C1344 1.362 . S
C1345 C1346 1.376 . S
C1346 H1317 0.931 . S
C1346 C1345 1.376 . S
C1346 C1347 1.396 . S
C1347 C1346 1.396 . S
C1347 C1348 1.348 . S
C1347 C1365 1.472 . S
C1348 H1318 0.929 . S
C1348 C1347 1.348 . S
C1348 C1349 1.443 . S
C1349 H1316 0.932 . S
C1349 C1344 1.388 . S
C1349 C1348 1.443 . S
C1350 N1330 1.433 . S
C1350 C1351 1.363 . S
C1350 C1355 1.370 . S
C1351 H1319 0.929 . S
C1351 C1350 1.363 . S
C1351 C1352 1.385 . S
C1352 H1320 0.930 . S
C1352 C1351 1.385 . S
C1352 C1353 1.357 . S
C1353 C1352 1.357 . S
C1353 C1354 1.406 . S
C1354 H1321 0.929 . S
C1354 C1353 1.406 . S
C1354 C1355 1.391 . S
C1355 H1322 0.931 . S
C1355 C1350 1.370 . S
C1355 C1354 1.391 . S
C1356 N1330 1.435 . S
C1356 C1357 1.358 . S
C1356 C1361 1.371 . S
C1357 H1323 0.930 . S
C1357 C1356 1.358 . S
C1357 C1358 1.405 . S
C1358 H1324 0.932 . S
C1358 C1357 1.405 . S
C1358 C1359 1.383 . S
C1359 C1358 1.383 . S
C1359 C1360 1.393 . S
C1360 H1325 0.931 . S
C1360 C1359 1.393 . S
C1360 C1361 1.382 . S
C1361 H1326 0.929 . S
C1361 C1356 1.371 . S
C1361 C1360 1.382 . S
C1362 N1330 1.423 . S
C1362 C1363 1.362 . S
C1362 C1367 1.388 . S
C1363 H1327 0.929 . S
C1363 C1362 1.362 . S
C1363 C1364 1.376 . S
C1364 H1328 0.931 . S
C1364 C1363 1.376 . S
C1364 C1365 1.396 . S
C1365 C1347 1.472 . S
C1365 C1364 1.396 . S
C1365 C1366 1.348 . S
C1366 H1329 0.929 . S
C1366 C1365 1.348 . S
C1366 C1367 1.443 . S
C1367 H1331 0.932 . S
C1367 C1362 1.388 . S
C1367 C1366 1.443 . S
C1368 C1369 1.369 . S
C1368 C1370 1.327 . S
C1368 H1393 0.950 . S
C1369 C1368 1.369 . S
C1369 C1385 1.348 1_655 S
C1370 C1368 1.327 . S
C1370 C1389 1.429 . S
C1370 H1394 0.950 . S
C1371 C1388 1.574 . S
C1371 C1390 1.368 1_455 S
C1371 H1395 0.949 . S
H1372 C1376 0.949 . S
C1373 C1374 1.349 1_455 S
C1373 C1375 1.327 . S
C1373 H1396 0.950 . S
C1374 C1373 1.349 1_655 S
C1374 C1386 1.349 . S
C1375 C1373 1.327 . S
C1375 C1391 1.429 1_455 S
C1375 H1397 0.950 . S
C1376 H1372 0.949 . S
C1376 C1384 1.574 . S
C1376 C1392 1.368 . S
H1377 C1385 0.950 . S
H1378 C1383 0.950 . S
H1379 C1384 0.949 . S
H1380 C1386 0.950 . S
H1381 C1387 0.950 . S
H1382 C1388 0.949 . S
C1383 H1378 0.950 . S
C1383 C1385 1.327 . S
C1383 C1389 1.429 1_455 S
C1384 C1376 1.574 . S
C1384 H1379 0.949 . S
C1384 C1390 1.368 . S
C1385 C1369 1.348 1_455 S
C1385 H1377 0.950 . S
C1385 C1383 1.327 . S
C1386 C1374 1.349 . S
C1386 H1380 0.950 . S
C1386 C1387 1.327 . S
C1387 H1381 0.950 . S
C1387 C1386 1.327 . S
C1387 C1391 1.429 . S
C1388 C1371 1.574 . S
C1388 H1382 0.949 . S
C1388 C1392 1.368 1_455 S
C1389 C1370 1.429 . S
C1389 C1383 1.429 1_655 S
C1389 C1390 1.523 . S
C1390 C1371 1.368 1_655 S
C1390 C1384 1.368 . S
C1390 C1389 1.523 . S
C1391 C1375 1.429 1_655 S
C1391 C1387 1.429 . S
C1391 C1392 1.523 . S
C1392 C1376 1.368 . S
C1392 C1388 1.368 1_655 S
C1392 C1391 1.523 . S
H1393 C1368 0.950 . S
H1394 C1370 0.950 . S
H1395 C1371 0.949 . S
H1396 C1373 0.950 . S
H1397 C1375 0.950 . S
C1398 C1399 1.349 . S
C1398 C1400 1.327 . S
C1398 H1423 0.950 . S
C1399 C1398 1.349 . S
C1399 C1415 1.349 . S
C1400 C1398 1.327 . S
C1400 C1419 1.429 . S
C1400 H1424 0.950 . S
C1401 C1418 1.574 . S
C1401 C1420 1.368 . S
C1401 H1425 0.949 . S
H1402 C1406 0.949 . S
C1403 C1404 1.349 . S
C1403 C1405 1.327 . S
C1403 H1426 0.950 . S
C1404 C1403 1.349 . S
C1404 C1416 1.349 . S
C1405 C1403 1.327 . S
C1405 C1421 1.429 . S
C1405 H1427 0.950 . S
C1406 H1402 0.949 . S
C1406 C1414 1.574 . S
C1406 C1422 1.368 . S
H1407 C1415 0.950 . S
H1408 C1413 0.950 . S
H1409 C1414 0.949 . S
H1410 C1416 0.950 . S
H1411 C1417 0.950 . S
H1412 C1418 0.949 . S
C1413 H1408 0.950 . S
C1413 C1415 1.327 . S
C1413 C1419 1.429 . S
C1414 C1406 1.574 . S
C1414 H1409 0.949 . S
C1414 C1420 1.368 . S
C1415 C1399 1.349 . S
C1415 H1407 0.950 . S
C1415 C1413 1.327 . S
C1416 C1404 1.349 . S
C1416 H1410 0.950 . S
C1416 C1417 1.327 . S
C1417 H1411 0.950 . S
C1417 C1416 1.327 . S
C1417 C1421 1.429 . S
C1418 C1401 1.574 . S
C1418 H1412 0.949 . S
C1418 C1422 1.368 . S
C1419 C1400 1.429 . S
C1419 C1413 1.429 . S
C1419 C1420 1.523 . S
C1420 C1401 1.368 . S
C1420 C1414 1.368 . S
C1420 C1419 1.523 . S
C1421 C1405 1.429 . S
C1421 C1417 1.429 . S
C1421 C1422 1.523 . S
C1422 C1406 1.368 . S
C1422 C1418 1.368 . S
C1422 C1421 1.523 . S
H1423 C1398 0.950 . S
H1424 C1400 0.950 . S
H1425 C1401 0.949 . S
H1426 C1403 0.950 . S
H1427 C1405 0.950 . S
C1428 C1429 1.349 1_565 S
C1428 C1430 1.327 . S
C1428 H1453 0.950 . S
C1429 C1428 1.349 1_545 S
C1429 C1445 1.349 . S
C1430 C1428 1.327 . S
C1430 C1449 1.429 1_565 S
C1430 H1454 0.950 . S
C1431 C1448 1.574 . S
C1431 C1450 1.368 . S
C1431 H1455 0.949 . S
H1432 C1436 0.949 . S
C1433 C1434 1.349 . S
C1433 C1435 1.327 . S
C1433 H1456 0.950 . S
C1434 C1433 1.349 . S
C1434 C1446 1.349 1_545 S
C1435 C1433 1.327 . S
C1435 C1451 1.429 . S
C1435 H1457 0.950 . S
C1436 H1432 0.949 . S
C1436 C1444 1.574 . S
C1436 C1452 1.368 1_565 S
H1437 C1445 0.950 . S
H1438 C1443 0.950 . S
H1439 C1444 0.949 . S
H1440 C1446 0.950 . S
H1441 C1447 0.950 . S
H1442 C1448 0.949 . S
C1443 H1438 0.950 . S
C1443 C1445 1.327 . S
C1443 C1449 1.429 . S
C1444 C1436 1.574 . S
C1444 H1439 0.949 . S
C1444 C1450 1.368 1_565 S
C1445 C1429 1.349 . S
C1445 H1437 0.950 . S
C1445 C1443 1.327 . S
C1446 C1434 1.349 1_565 S
C1446 H1440 0.950 . S
C1446 C1447 1.327 . S
C1447 H1441 0.950 . S
C1447 C1446 1.327 . S
C1447 C1451 1.429 1_565 S
C1448 C1431 1.574 . S
C1448 H1442 0.949 . S
C1448 C1452 1.368 . S
C1449 C1430 1.429 1_545 S
C1449 C1443 1.429 . S
C1449 C1450 1.523 . S
C1450 C1431 1.368 . S
C1450 C1444 1.368 1_545 S
C1450 C1449 1.523 . S
C1451 C1435 1.429 . S
C1451 C1447 1.429 1_545 S
C1451 C1452 1.523 . S
C1452 C1436 1.368 1_545 S
C1452 C1448 1.368 . S
C1452 C1451 1.523 . S
H1453 C1428 0.950 . S
H1454 C1430 0.950 . S
H1455 C1431 0.949 . S
H1456 C1433 0.950 . S
H1457 C1435 0.950 . S
C1458 C1459 1.349 . S
C1458 C1460 1.327 . S
C1458 H1483 0.950 . S
C1459 C1458 1.349 . S
C1459 C1475 1.349 1_565 S
C1460 C1458 1.327 . S
C1460 C1479 1.429 . S
C1460 H1484 0.950 . S
C1461 C1478 1.574 . S
C1461 C1480 1.368 1_545 S
C1461 H1485 0.949 . S
H1462 C1466 0.949 . S
C1463 C1464 1.349 1_545 S
C1463 C1465 1.327 . S
C1463 H1486 0.950 . S
C1464 C1463 1.349 1_565 S
C1464 C1476 1.349 . S
C1465 C1463 1.327 . S
C1465 C1481 1.429 1_545 S
C1465 H1487 0.950 . S
C1466 H1462 0.949 . S
C1466 C1474 1.574 . S
C1466 C1482 1.368 . S
H1467 C1475 0.950 . S
H1468 C1473 0.950 . S
H1469 C1474 0.949 . S
H1470 C1476 0.950 . S
H1471 C1477 0.950 . S
H1472 C1478 0.949 . S
C1473 H1468 0.950 . S
C1473 C1475 1.327 . S
C1473 C1479 1.429 1_545 S
C1474 C1466 1.574 . S
C1474 H1469 0.949 . S
C1474 C1480 1.368 . S
C1475 C1459 1.349 1_545 S
C1475 H1467 0.950 . S
C1475 C1473 1.327 . S
C1476 C1464 1.349 . S
C1476 H1470 0.950 . S
C1476 C1477 1.327 . S
C1477 H1471 0.950 . S
C1477 C1476 1.327 . S
C1477 C1481 1.429 . S
C1478 C1461 1.574 . S
C1478 H1472 0.949 . S
C1478 C1482 1.368 1_545 S
C1479 C1460 1.429 . S
C1479 C1473 1.429 1_565 S
C1479 C1480 1.523 . S
C1480 C1461 1.368 1_565 S
C1480 C1474 1.368 . S
C1480 C1479 1.523 . S
C1481 C1465 1.429 1_565 S
C1481 C1477 1.429 . S
C1481 C1482 1.523 . S
C1482 C1466 1.368 . S
C1482 C1478 1.368 1_565 S
C1482 C1481 1.523 . S
H1483 C1458 0.950 . S
H1484 C1460 0.950 . S
H1485 C1461 0.949 . S
H1486 C1463 0.950 . S
H1487 C1465 0.950 . S
C1488 C1489 1.349 . S
C1488 C1490 1.327 . S
C1488 H1513 0.950 . S
C1489 C1488 1.349 . S
C1489 C1505 1.372 . S
C1490 C1488 1.327 . S
C1490 C1509 1.429 . S
C1490 H1514 0.950 . S
C1491 C1508 1.574 . S
C1491 C1510 1.368 1_655 S
C1491 H1515 0.949 . S
H1492 C1496 0.949 . S
C1493 C1494 1.349 1_655 S
C1493 C1495 1.327 . S
C1493 H1516 0.950 . S
C1494 C1493 1.349 1_455 S
C1494 C1506 1.349 . S
C1495 C1493 1.327 . S
C1495 C1511 1.429 1_655 S
C1495 H1517 0.950 . S
C1496 H1492 0.949 . S
C1496 C1504 1.574 . S
C1496 C1512 1.368 . S
H1497 C1505 0.943 1_655 S
H1498 C1503 0.962 . S
H1499 C1504 0.949 . S
H1500 C1506 0.950 . S
H1501 C1507 0.950 . S
H1502 C1508 0.949 . S
C1503 H1498 0.962 . S
C1503 C1505 1.304 1_655 S
C1503 C1509 1.425 1_655 S
C1504 C1496 1.574 . S
C1504 H1499 0.949 . S
C1504 C1510 1.368 . S
C1505 C1489 1.372 . S
C1505 H1497 0.943 1_455 S
C1505 C1503 1.304 1_455 S
C1506 C1494 1.349 . S
C1506 H1500 0.950 . S
C1506 C1507 1.327 . S
C1507 H1501 0.950 . S
C1507 C1506 1.327 . S
C1507 C1511 1.429 . S
C1508 C1491 1.574 . S
C1508 H1502 0.949 . S
C1508 C1512 1.368 1_655 S
C1509 C1490 1.429 . S
C1509 C1503 1.425 1_455 S
C1509 C1510 1.523 . S
C1510 C1491 1.368 1_455 S
C1510 C1504 1.368 . S
C1510 C1509 1.523 . S
C1511 C1495 1.429 1_455 S
C1511 C1507 1.429 . S
C1511 C1512 1.523 . S
C1512 C1496 1.368 . S
C1512 C1508 1.368 1_455 S
C1512 C1511 1.523 . S
H1513 C1488 0.950 . S
H1514 C1490 0.950 . S
H1515 C1491 0.949 . S
H1516 C1493 0.950 . S
H1517 C1495 0.950 . S
C1518 C1519 1.349 . S
C1518 C1520 1.327 . S
C1518 H1543 0.950 . S
C1519 C1518 1.349 . S
C1519 C1535 1.349 . S
C1520 C1518 1.327 . S
C1520 C1539 1.429 . S
C1520 H1544 0.950 . S
C1521 C1538 1.574 . S
C1521 C1540 1.368 . S
C1521 H1545 0.949 . S
H1522 C1526 0.949 . S
C1523 C1524 1.349 . S
C1523 C1525 1.327 . S
C1523 H1546 0.950 . S
C1524 C1523 1.349 . S
C1524 C1536 1.349 . S
C1525 C1523 1.327 . S
C1525 C1541 1.429 . S
C1525 H1547 0.950 . S
C1526 H1522 0.949 . S
C1526 C1534 1.574 . S
C1526 C1542 1.368 . S
H1527 C1535 0.950 . S
H1528 C1533 0.950 . S
H1529 C1534 0.949 . S
H1530 C1536 0.950 . S
H1531 C1537 0.950 . S
H1532 C1538 0.949 . S
C1533 H1528 0.950 . S
C1533 C1535 1.327 . S
C1533 C1539 1.429 . S
C1534 C1526 1.574 . S
C1534 H1529 0.949 . S
C1534 C1540 1.368 . S
C1535 C1519 1.349 . S
C1535 H1527 0.950 . S
C1535 C1533 1.327 . S
C1536 C1524 1.349 . S
C1536 H1530 0.950 . S
C1536 C1537 1.327 . S
C1537 H1531 0.950 . S
C1537 C1536 1.327 . S
C1537 C1541 1.429 . S
C1538 C1521 1.574 . S
C1538 H1532 0.949 . S
C1538 C1542 1.368 . S
C1539 C1520 1.429 . S
C1539 C1533 1.429 . S
C1539 C1540 1.523 . S
C1540 C1521 1.368 . S
C1540 C1534 1.368 . S
C1540 C1539 1.523 . S
C1541 C1525 1.429 . S
C1541 C1537 1.429 . S
C1541 C1542 1.523 . S
C1542 C1526 1.368 . S
C1542 C1538 1.368 . S
C1542 C1541 1.523 . S
H1543 C1518 0.950 . S
H1544 C1520 0.950 . S
H1545 C1521 0.949 . S
H1546 C1523 0.950 . S
H1547 C1525 0.950 . S
C1548 C1549 1.349 . S
C1548 C1550 1.327 . S
C1548 H1573 0.950 . S
C1549 C1548 1.349 . S
C1549 C1565 1.349 1_455 S
C1550 C1548 1.327 . S
C1550 C1569 1.429 . S
C1550 H1574 0.950 . S
C1551 C1568 1.574 . S
C1551 C1570 1.368 1_655 S
C1551 H1575 0.949 . S
H1552 C1556 0.949 . S
C1553 C1554 1.349 1_655 S
C1553 C1555 1.327 . S
C1553 H1576 0.950 . S
C1554 C1553 1.349 1_455 S
C1554 C1566 1.349 . S
C1555 C1553 1.327 . S
C1555 C1571 1.429 1_655 S
C1555 H1577 0.950 . S
C1556 H1552 0.949 . S
C1556 C1564 1.574 . S
C1556 C1572 1.368 . S
H1557 C1565 0.950 . S
H1558 C1563 0.950 . S
H1559 C1564 0.949 . S
H1560 C1566 0.950 . S
H1561 C1567 0.950 . S
H1562 C1568 0.949 . S
C1563 H1558 0.950 . S
C1563 C1565 1.327 . S
C1563 C1569 1.429 1_655 S
C1564 C1556 1.574 . S
C1564 H1559 0.949 . S
C1564 C1570 1.368 . S
C1565 C1549 1.349 1_655 S
C1565 H1557 0.950 . S
C1565 C1563 1.327 . S
C1566 C1554 1.349 . S
C1566 H1560 0.950 . S
C1566 C1567 1.327 . S
C1567 H1561 0.950 . S
C1567 C1566 1.327 . S
C1567 C1571 1.429 . S
C1568 C1551 1.574 . S
C1568 H1562 0.949 . S
C1568 C1572 1.368 1_655 S
C1569 C1550 1.429 . S
C1569 C1563 1.429 1_455 S
C1569 C1570 1.523 . S
C1570 C1551 1.368 1_455 S
C1570 C1564 1.368 . S
C1570 C1569 1.523 . S
C1571 C1555 1.429 1_455 S
C1571 C1567 1.429 . S
C1571 C1572 1.523 . S
C1572 C1556 1.368 . S
C1572 C1568 1.368 1_455 S
C1572 C1571 1.523 . S
H1573 C1548 0.950 . S
H1574 C1550 0.950 . S
H1575 C1551 0.949 . S
H1576 C1553 0.950 . S
H1577 C1555 0.950 . S
C1578 C1579 1.349 . S
C1578 C1580 1.327 . S
C1578 H1603 0.950 . S
C1579 C1578 1.349 . S
C1579 C1595 1.349 . S
C1580 C1578 1.327 . S
C1580 C1599 1.429 . S
C1580 H1604 0.950 . S
C1581 C1598 1.574 . S
C1581 C1600 1.368 . S
C1581 H1605 0.949 . S
H1582 C1586 0.949 . S
C1583 C1584 1.349 . S
C1583 C1585 1.327 . S
C1583 H1606 0.950 . S
C1584 C1583 1.349 . S
C1584 C1596 1.349 . S
C1585 C1583 1.327 . S
C1585 C1601 1.429 . S
C1585 H1607 0.950 . S
C1586 H1582 0.949 . S
C1586 C1594 1.574 . S
C1586 C1602 1.368 . S
H1587 C1595 0.950 . S
H1588 C1593 0.950 . S
H1589 C1594 0.949 . S
H1590 C1596 0.950 . S
H1591 C1597 0.950 . S
H1592 C1598 0.949 . S
C1593 H1588 0.950 . S
C1593 C1595 1.327 . S
C1593 C1599 1.429 . S
C1594 C1586 1.574 . S
C1594 H1589 0.949 . S
C1594 C1600 1.368 . S
C1595 C1579 1.349 . S
C1595 H1587 0.950 . S
C1595 C1593 1.327 . S
C1596 C1584 1.349 . S
C1596 H1590 0.950 . S
C1596 C1597 1.327 . S
C1597 H1591 0.950 . S
C1597 C1596 1.327 . S
C1597 C1601 1.429 . S
C1598 C1581 1.574 . S
C1598 H1592 0.949 . S
C1598 C1602 1.368 . S
C1599 C1580 1.429 . S
C1599 C1593 1.429 . S
C1599 C1600 1.523 . S
C1600 C1581 1.368 . S
C1600 C1594 1.368 . S
C1600 C1599 1.523 . S
C1601 C1585 1.429 . S
C1601 C1597 1.429 . S
C1601 C1602 1.523 . S
C1602 C1586 1.368 . S
C1602 C1598 1.368 . S
C1602 C1601 1.523 . S
H1603 C1578 0.950 . S
H1604 C1580 0.950 . S
H1605 C1581 0.949 . S
H1606 C1583 0.950 . S
H1607 C1585 0.950 . S
C1608 C1609 1.349 . S
C1608 C1610 1.327 . S
C1608 H1633 0.950 . S
C1609 C1608 1.349 . S
C1609 C1625 1.349 1_565 S
C1610 C1608 1.327 . S
C1610 C1629 1.429 . S
C1610 H1634 0.950 . S
C1611 C1628 1.574 . S
C1611 C1630 1.368 1_545 S
C1611 H1635 0.949 . S
H1612 C1616 0.949 . S
C1613 C1614 1.349 1_545 S
C1613 C1615 1.327 . S
C1613 H1636 0.950 . S
C1614 C1613 1.349 1_565 S
C1614 C1626 1.349 . S
C1615 C1613 1.327 . S
C1615 C1631 1.429 1_545 S
C1615 H1637 0.950 . S
C1616 H1612 0.949 . S
C1616 C1624 1.574 . S
C1616 C1632 1.368 . S
H1617 C1625 0.950 . S
H1618 C1623 0.950 . S
H1619 C1624 0.949 . S
H1620 C1626 0.950 . S
H1621 C1627 0.950 . S
H1622 C1628 0.949 . S
C1623 H1618 0.950 . S
C1623 C1625 1.327 . S
C1623 C1629 1.429 1_545 S
C1624 C1616 1.574 . S
C1624 H1619 0.949 . S
C1624 C1630 1.368 . S
C1625 C1609 1.349 1_545 S
C1625 H1617 0.950 . S
C1625 C1623 1.327 . S
C1626 C1614 1.349 . S
C1626 H1620 0.950 . S
C1626 C1627 1.327 . S
C1627 H1621 0.950 . S
C1627 C1626 1.327 . S
C1627 C1631 1.429 . S
C1628 C1611 1.574 . S
C1628 H1622 0.949 . S
C1628 C1632 1.368 1_545 S
C1629 C1610 1.429 . S
C1629 C1623 1.429 1_565 S
C1629 C1630 1.523 . S
C1630 C1611 1.368 1_565 S
C1630 C1624 1.368 . S
C1630 C1629 1.523 . S
C1631 C1615 1.429 1_565 S
C1631 C1627 1.429 . S
C1631 C1632 1.523 . S
C1632 C1616 1.368 . S
C1632 C1628 1.368 1_565 S
C1632 C1631 1.523 . S
H1633 C1608 0.950 . S
H1634 C1610 0.950 . S
H1635 C1611 0.949 . S
H1636 C1613 0.950 . S
H1637 C1615 0.950 . S
C1638 C1639 1.348 . S
C1638 C1640 1.350 1_545 S
C1638 H1663 0.950 1_545 S
C1639 C1638 1.348 . S
C1639 C1655 1.349 . S
C1640 C1638 1.350 1_565 S
C1640 C1659 1.364 1_565 S
C1640 H1664 0.996 . S
C1641 C1658 1.574 . S
C1641 C1660 1.368 . S
C1641 H1665 0.949 . S
H1642 C1646 0.949 . S
C1643 C1644 1.349 . S
C1643 C1645 1.327 . S
C1643 H1666 0.950 . S
C1644 C1643 1.349 . S
C1644 C1656 1.349 1_545 S
C1645 C1643 1.327 . S
C1645 C1661 1.429 . S
C1645 H1667 0.950 . S
C1646 H1642 0.949 . S
C1646 C1654 1.574 . S
C1646 C1662 1.368 1_565 S
H1647 C1655 0.950 . S
H1648 C1653 0.950 . S
H1649 C1654 0.949 . S
H1650 C1656 0.950 . S
H1651 C1657 0.950 . S
H1652 C1658 0.949 . S
C1653 H1648 0.950 . S
C1653 C1655 1.327 . S
C1653 C1659 1.429 . S
C1654 C1646 1.574 . S
C1654 H1649 0.949 . S
C1654 C1660 1.368 1_565 S
C1655 C1639 1.349 . S
C1655 H1647 0.950 . S
C1655 C1653 1.327 . S
C1656 C1644 1.349 1_565 S
C1656 H1650 0.950 . S
C1656 C1657 1.327 . S
C1657 H1651 0.950 . S
C1657 C1656 1.327 . S
C1657 C1661 1.429 1_565 S
C1658 C1641 1.574 . S
C1658 H1652 0.949 . S
C1658 C1662 1.368 . S
C1659 C1640 1.364 1_545 S
C1659 C1653 1.429 . S
C1659 C1660 1.523 . S
C1660 C1641 1.368 . S
C1660 C1654 1.368 1_545 S
C1660 C1659 1.523 . S
C1661 C1645 1.429 . S
C1661 C1657 1.429 1_545 S
C1661 C1662 1.523 . S
C1662 C1646 1.368 1_545 S
C1662 C1658 1.368 . S
C1662 C1661 1.523 . S
H1663 C1638 0.950 1_565 S
H1664 C1640 0.996 . S
H1665 C1641 0.949 . S
H1666 C1643 0.950 . S
H1667 C1645 0.950 . S
C1668 C1669 1.349 . S
C1668 C1670 1.327 . S
C1668 H1693 0.950 . S
C1669 C1668 1.349 . S
C1669 C1685 1.349 . S
C1670 C1668 1.327 . S
C1670 C1689 1.429 . S
C1670 H1694 0.950 . S
C1671 C1688 1.574 . S
C1671 C1690 1.368 . S
C1671 H1695 0.949 . S
H1672 C1676 0.949 . S
C1673 C1674 1.349 . S
C1673 C1675 1.327 . S
C1673 H1696 0.950 . S
C1674 C1673 1.349 . S
C1674 C1686 1.349 . S
C1675 C1673 1.327 . S
C1675 C1691 1.429 . S
C1675 H1697 0.950 . S
C1676 H1672 0.949 . S
C1676 C1684 1.574 . S
C1676 C1692 1.368 . S
H1677 C1685 0.950 . S
H1678 C1683 0.950 . S
H1679 C1684 0.949 . S
H1680 C1686 0.950 . S
H1681 C1687 0.950 . S
H1682 C1688 0.949 . S
C1683 H1678 0.950 . S
C1683 C1685 1.327 . S
C1683 C1689 1.429 . S
C1684 C1676 1.574 . S
C1684 H1679 0.949 . S
C1684 C1690 1.368 . S
C1685 C1669 1.349 . S
C1685 H1677 0.950 . S
C1685 C1683 1.327 . S
C1686 C1674 1.349 . S
C1686 H1680 0.950 . S
C1686 C1687 1.327 . S
C1687 H1681 0.950 . S
C1687 C1686 1.327 . S
C1687 C1691 1.429 . S
C1688 C1671 1.574 . S
C1688 H1682 0.949 . S
C1688 C1692 1.368 . S
C1689 C1670 1.429 . S
C1689 C1683 1.429 . S
C1689 C1690 1.523 . S
C1690 C1671 1.368 . S
C1690 C1684 1.368 . S
C1690 C1689 1.523 . S
C1691 C1675 1.429 . S
C1691 C1687 1.429 . S
C1691 C1692 1.523 . S
C1692 C1676 1.368 . S
C1692 C1688 1.368 . S
C1692 C1691 1.523 . S
H1693 C1668 0.950 . S
H1694 C1670 0.950 . S
H1695 C1671 0.949 . S
H1696 C1673 0.950 . S
H1697 C1675 0.950 . S
C1698 C1699 1.349 . S
C1698 C1700 1.327 . S
C1698 H1723 0.950 . S
C1699 C1698 1.349 . S
C1699 C1715 1.349 . S
C1700 C1698 1.327 . S
C1700 C1719 1.429 . S
C1700 H1724 0.950 . S
C1701 C1718 1.574 . S
C1701 C1720 1.368 . S
C1701 H1725 0.949 . S
H1702 C1706 0.949 . S
C1703 C1704 1.349 . S
C1703 C1705 1.327 . S
C1703 H1726 0.950 . S
C1704 C1703 1.349 . S
C1704 C1716 1.349 . S
C1705 C1703 1.327 . S
C1705 C1721 1.429 . S
C1705 H1727 0.950 . S
C1706 H1702 0.949 . S
C1706 C1714 1.574 . S
C1706 C1722 1.368 . S
H1707 C1715 0.950 . S
H1708 C1713 0.950 . S
H1709 C1714 0.949 . S
H1710 C1716 0.950 . S
H1711 C1717 0.950 . S
H1712 C1718 0.949 . S
C1713 H1708 0.950 . S
C1713 C1715 1.327 . S
C1713 C1719 1.429 . S
C1714 C1706 1.574 . S
C1714 H1709 0.949 . S
C1714 C1720 1.368 . S
C1715 C1699 1.349 . S
C1715 H1707 0.950 . S
C1715 C1713 1.327 . S
C1716 C1704 1.349 . S
C1716 H1710 0.950 . S
C1716 C1717 1.327 . S
C1717 H1711 0.950 . S
C1717 C1716 1.327 . S
C1717 C1721 1.429 . S
C1718 C1701 1.574 . S
C1718 H1712 0.949 . S
C1718 C1722 1.368 . S
C1719 C1700 1.429 . S
C1719 C1713 1.429 . S
C1719 C1720 1.523 . S
C1720 C1701 1.368 . S
C1720 C1714 1.368 . S
C1720 C1719 1.523 . S
C1721 C1705 1.429 . S
C1721 C1717 1.429 . S
C1721 C1722 1.523 . S
C1722 C1706 1.368 . S
C1722 C1718 1.368 . S
C1722 C1721 1.523 . S
H1723 C1698 0.950 . S
H1724 C1700 0.950 . S
H1725 C1701 0.949 . S
H1726 C1703 0.950 . S
H1727 C1705 0.950 . S
C1728 C1729 1.349 . S
C1728 C1730 1.327 . S
C1728 H1753 0.950 . S
C1729 C1728 1.349 . S
C1729 C1745 1.349 . S
C1730 C1728 1.327 . S
C1730 C1749 1.429 . S
C1730 H1754 0.950 . S
C1731 C1748 1.574 . S
C1731 C1750 1.368 . S
C1731 H1755 0.949 . S
H1732 C1736 0.949 . S
C1733 C1734 1.349 . S
C1733 C1735 1.327 . S
C1733 H1756 0.950 . S
C1734 C1733 1.349 . S
C1734 C1746 1.349 . S
C1735 C1733 1.327 . S
C1735 C1751 1.429 . S
C1735 H1757 0.950 . S
C1736 H1732 0.949 . S
C1736 C1744 1.574 . S
C1736 C1752 1.368 . S
H1737 C1745 0.950 . S
H1738 C1743 0.950 . S
H1739 C1744 0.949 . S
H1740 C1746 0.950 . S
H1741 C1747 0.950 . S
H1742 C1748 0.949 . S
C1743 H1738 0.950 . S
C1743 C1745 1.327 . S
C1743 C1749 1.429 . S
C1744 C1736 1.574 . S
C1744 H1739 0.949 . S
C1744 C1750 1.368 . S
C1745 C1729 1.349 . S
C1745 H1737 0.950 . S
C1745 C1743 1.327 . S
C1746 C1734 1.349 . S
C1746 H1740 0.950 . S
C1746 C1747 1.327 . S
C1747 H1741 0.950 . S
C1747 C1746 1.327 . S
C1747 C1751 1.429 . S
C1748 C1731 1.574 . S
C1748 H1742 0.949 . S
C1748 C1752 1.368 . S
C1749 C1730 1.429 . S
C1749 C1743 1.429 . S
C1749 C1750 1.523 . S
C1750 C1731 1.368 . S
C1750 C1744 1.368 . S
C1750 C1749 1.523 . S
C1751 C1735 1.429 . S
C1751 C1747 1.429 . S
C1751 C1752 1.523 . S
C1752 C1736 1.368 . S
C1752 C1748 1.368 . S
C1752 C1751 1.523 . S
H1753 C1728 0.950 . S
H1754 C1730 0.950 . S
H1755 C1731 0.949 . S
H1756 C1733 0.950 . S
H1757 C1735 0.950 . S
C1758 C1759 1.349 . S
C1758 C1760 1.327 . S
C1758 H1783 0.950 . S
C1759 C1758 1.349 . S
C1759 C1775 1.349 . S
C1760 C1758 1.327 . S
C1760 C1779 1.429 . S
C1760 H1784 0.950 . S
C1761 C1778 1.574 . S
C1761 C1780 1.368 . S
C1761 H1785 0.949 . S
H1762 C1766 0.949 . S
C1763 C1764 1.349 . S
C1763 C1765 1.327 . S
C1763 H1786 0.950 . S
C1764 C1763 1.349 . S
C1764 C1776 1.349 . S
C1765 C1763 1.327 . S
C1765 C1781 1.429 . S
C1765 H1787 0.950 . S
C1766 H1762 0.949 . S
C1766 C1774 1.574 . S
C1766 C1782 1.368 . S
H1767 C1775 0.950 . S
H1768 C1773 0.950 . S
H1769 C1774 0.949 . S
H1770 C1776 0.950 . S
H1771 C1777 0.950 . S
H1772 C1778 0.949 . S
C1773 H1768 0.950 . S
C1773 C1775 1.327 . S
C1773 C1779 1.429 . S
C1774 C1766 1.574 . S
C1774 H1769 0.949 . S
C1774 C1780 1.368 . S
C1775 C1759 1.349 . S
C1775 H1767 0.950 . S
C1775 C1773 1.327 . S
C1776 C1764 1.349 . S
C1776 H1770 0.950 . S
C1776 C1777 1.327 . S
C1777 H1771 0.950 . S
C1777 C1776 1.327 . S
C1777 C1781 1.429 . S
C1778 C1761 1.574 . S
C1778 H1772 0.949 . S
C1778 C1782 1.368 . S
C1779 C1760 1.429 . S
C1779 C1773 1.429 . S
C1779 C1780 1.523 . S
C1780 C1761 1.368 . S
C1780 C1774 1.368 . S
C1780 C1779 1.523 . S
C1781 C1765 1.429 . S
C1781 C1777 1.429 . S
C1781 C1782 1.523 . S
C1782 C1766 1.368 . S
C1782 C1778 1.368 . S
C1782 C1781 1.523 . S
H1783 C1758 0.950 . S
H1784 C1760 0.950 . S
H1785 C1761 0.949 . S
H1786 C1763 0.950 . S
H1787 C1765 0.950 . S
C1788 C1789 1.349 . S
C1788 C1790 1.327 . S
C1788 H1813 0.950 . S
C1789 C1788 1.349 . S
C1789 C1805 1.349 . S
C1790 C1788 1.327 . S
C1790 C1809 1.429 . S
C1790 H1814 0.950 . S
C1791 C1808 1.574 . S
C1791 C1810 1.368 . S
C1791 H1815 0.949 . S
H1792 C1796 0.949 . S
C1793 C1794 1.349 . S
C1793 C1795 1.327 . S
C1793 H1816 0.950 . S
C1794 C1793 1.349 . S
C1794 C1806 1.349 . S
C1795 C1793 1.327 . S
C1795 C1811 1.429 . S
C1795 H1817 0.950 . S
C1796 H1792 0.949 . S
C1796 C1804 1.574 . S
C1796 C1812 1.368 . S
H1797 C1805 0.950 . S
H1798 C1803 0.950 . S
H1799 C1804 0.949 . S
H1800 C1806 0.950 . S
H1801 C1807 0.950 . S
H1802 C1808 0.949 . S
C1803 H1798 0.950 . S
C1803 C1805 1.327 . S
C1803 C1809 1.429 . S
C1804 C1796 1.574 . S
C1804 H1799 0.949 . S
C1804 C1810 1.368 . S
C1805 C1789 1.349 . S
C1805 H1797 0.950 . S
C1805 C1803 1.327 . S
C1806 C1794 1.349 . S
C1806 H1800 0.950 . S
C1806 C1807 1.327 . S
C1807 H1801 0.950 . S
C1807 C1806 1.327 . S
C1807 C1811 1.429 . S
C1808 C1791 1.574 . S
C1808 H1802 0.949 . S
C1808 C1812 1.368 . S
C1809 C1790 1.429 . S
C1809 C1803 1.429 . S
C1809 C1810 1.523 . S
C1810 C1791 1.368 . S
C1810 C1804 1.368 . S
C1810 C1809 1.523 . S
C1811 C1795 1.429 . S
C1811 C1807 1.429 . S
C1811 C1812 1.523 . S
C1812 C1796 1.368 . S
C1812 C1808 1.368 . S
C1812 C1811 1.523 . S
H1813 C1788 0.950 . S
H1814 C1790 0.950 . S
H1815 C1791 0.949 . S
H1816 C1793 0.950 . S
H1817 C1795 0.950 . S
C1818 C1819 1.349 . S
C1818 C1820 1.327 . S
C1818 H1843 0.950 . S
C1819 C1818 1.349 . S
C1819 C1835 1.349 . S
C1820 C1818 1.327 . S
C1820 C1839 1.429 . S
C1820 H1844 0.950 . S
C1821 C1838 1.574 . S
C1821 C1840 1.368 . S
C1821 H1845 0.949 . S
H1822 C1826 0.949 . S
C1823 C1824 1.349 . S
C1823 C1825 1.327 . S
C1823 H1846 0.950 . S
C1824 C1823 1.349 . S
C1824 C1836 1.349 . S
C1825 C1823 1.327 . S
C1825 C1841 1.429 . S
C1825 H1847 0.950 . S
C1826 H1822 0.949 . S
C1826 C1834 1.574 . S
C1826 C1842 1.368 . S
H1827 C1835 0.950 . S
H1828 C1833 0.950 . S
H1829 C1834 0.949 . S
H1830 C1836 0.950 . S
H1831 C1837 0.950 . S
H1832 C1838 0.949 . S
C1833 H1828 0.950 . S
C1833 C1835 1.327 . S
C1833 C1839 1.429 . S
C1834 C1826 1.574 . S
C1834 H1829 0.949 . S
C1834 C1840 1.368 . S
C1835 C1819 1.349 . S
C1835 H1827 0.950 . S
C1835 C1833 1.327 . S
C1836 C1824 1.349 . S
C1836 H1830 0.950 . S
C1836 C1837 1.327 . S
C1837 H1831 0.950 . S
C1837 C1836 1.327 . S
C1837 C1841 1.429 . S
C1838 C1821 1.574 . S
C1838 H1832 0.949 . S
C1838 C1842 1.368 . S
C1839 C1820 1.429 . S
C1839 C1833 1.429 . S
C1839 C1840 1.523 . S
C1840 C1821 1.368 . S
C1840 C1834 1.368 . S
C1840 C1839 1.523 . S
C1841 C1825 1.429 . S
C1841 C1837 1.429 . S
C1841 C1842 1.523 . S
C1842 C1826 1.368 . S
C1842 C1838 1.368 . S
C1842 C1841 1.523 . S
H1843 C1818 0.950 . S
H1844 C1820 0.950 . S
H1845 C1821 0.949 . S
H1846 C1823 0.950 . S
H1847 C1825 0.950 . S
C1848 C1849 1.349 . S
C1848 C1850 1.327 . S
C1848 H1873 0.950 . S
C1849 C1848 1.349 . S
C1849 C1865 1.349 . S
C1850 C1848 1.327 . S
C1850 C1869 1.429 . S
C1850 H1874 0.950 . S
C1851 C1868 1.574 . S
C1851 C1870 1.368 . S
C1851 H1875 0.949 . S
H1852 C1856 0.949 . S
C1853 C1854 1.349 . S
C1853 C1855 1.327 . S
C1853 H1876 0.950 . S
C1854 C1853 1.349 . S
C1854 C1866 1.349 . S
C1855 C1853 1.327 . S
C1855 C1871 1.429 . S
C1855 H1877 0.950 . S
C1856 H1852 0.949 . S
C1856 C1864 1.574 . S
C1856 C1872 1.368 . S
H1857 C1865 0.950 . S
H1858 C1863 0.950 . S
H1859 C1864 0.949 . S
H1860 C1866 0.950 . S
H1861 C1867 0.950 . S
H1862 C1868 0.949 . S
C1863 H1858 0.950 . S
C1863 C1865 1.327 . S
C1863 C1869 1.429 . S
C1864 C1856 1.574 . S
C1864 H1859 0.949 . S
C1864 C1870 1.368 . S
C1865 C1849 1.349 . S
C1865 H1857 0.950 . S
C1865 C1863 1.327 . S
C1866 C1854 1.349 . S
C1866 H1860 0.950 . S
C1866 C1867 1.327 . S
C1867 H1861 0.950 . S
C1867 C1866 1.327 . S
C1867 C1871 1.429 . S
C1868 C1851 1.574 . S
C1868 H1862 0.949 . S
C1868 C1872 1.368 . S
C1869 C1850 1.429 . S
C1869 C1863 1.429 . S
C1869 C1870 1.523 . S
C1870 C1851 1.368 . S
C1870 C1864 1.368 . S
C1870 C1869 1.523 . S
C1871 C1855 1.429 . S
C1871 C1867 1.429 . S
C1871 C1872 1.523 . S
C1872 C1856 1.368 . S
C1872 C1868 1.368 . S
C1872 C1871 1.523 . S
H1873 C1848 0.950 . S
H1874 C1850 0.950 . S
H1875 C1851 0.949 . S
H1876 C1853 0.950 . S
H1877 C1855 0.950 . S
C1878 C1879 1.349 . S
C1878 C1880 1.327 . S
C1878 H1903 0.950 . S
C1879 C1878 1.349 . S
C1879 C1895 1.349 . S
C1880 C1878 1.327 . S
C1880 C1899 1.429 . S
C1880 H1904 0.950 . S
C1881 C1898 1.574 . S
C1881 C1900 1.368 . S
C1881 H1905 0.949 . S
H1882 C1886 0.949 . S
C1883 C1884 1.349 . S
C1883 C1885 1.327 . S
C1883 H1906 0.950 . S
C1884 C1883 1.349 . S
C1884 C1896 1.349 . S
C1885 C1883 1.327 . S
C1885 C1901 1.429 . S
C1885 H1907 0.950 . S
C1886 H1882 0.949 . S
C1886 C1894 1.574 . S
C1886 C1902 1.368 . S
H1887 C1895 0.950 . S
H1888 C1893 0.950 . S
H1889 C1894 0.949 . S
H1890 C1896 0.950 . S
H1891 C1897 0.950 . S
H1892 C1898 0.949 . S
C1893 H1888 0.950 . S
C1893 C1895 1.327 . S
C1893 C1899 1.429 . S
C1894 C1886 1.574 . S
C1894 H1889 0.949 . S
C1894 C1900 1.368 . S
C1895 C1879 1.349 . S
C1895 H1887 0.950 . S
C1895 C1893 1.327 . S
C1896 C1884 1.349 . S
C1896 H1890 0.950 . S
C1896 C1897 1.327 . S
C1897 H1891 0.950 . S
C1897 C1896 1.327 . S
C1897 C1901 1.429 . S
C1898 C1881 1.574 . S
C1898 H1892 0.949 . S
C1898 C1902 1.368 . S
C1899 C1880 1.429 . S
C1899 C1893 1.429 . S
C1899 C1900 1.523 . S
C1900 C1881 1.368 . S
C1900 C1894 1.368 . S
C1900 C1899 1.523 . S
C1901 C1885 1.429 . S
C1901 C1897 1.429 . S
C1901 C1902 1.523 . S
C1902 C1886 1.368 . S
C1902 C1898 1.368 . S
C1902 C1901 1.523 . S
H1903 C1878 0.950 . S
H1904 C1880 0.950 . S
H1905 C1881 0.949 . S
H1906 C1883 0.950 . S
H1907 C1885 0.950 . S
C1908 C1909 1.349 . S
C1908 C1910 1.327 . S
C1908 H1933 0.950 . S
C1909 C1908 1.349 . S
C1909 C1925 1.349 . S
C1910 C1908 1.327 . S
C1910 C1929 1.429 . S
C1910 H1934 0.950 . S
C1911 C1928 1.574 . S
C1911 C1930 1.368 . S
C1911 H1935 0.949 . S
H1912 C1916 0.949 . S
C1913 C1914 1.349 . S
C1913 C1915 1.327 . S
C1913 H1936 0.950 . S
C1914 C1913 1.349 . S
C1914 C1926 1.349 . S
C1915 C1913 1.327 . S
C1915 C1931 1.429 . S
C1915 H1937 0.950 . S
C1916 H1912 0.949 . S
C1916 C1924 1.574 . S
C1916 C1932 1.368 . S
H1917 C1925 0.950 . S
H1918 C1923 0.950 . S
H1919 C1924 0.949 . S
H1920 C1926 0.950 . S
H1921 C1927 0.950 . S
H1922 C1928 0.949 . S
C1923 H1918 0.950 . S
C1923 C1925 1.327 . S
C1923 C1929 1.429 . S
C1924 C1916 1.574 . S
C1924 H1919 0.949 . S
C1924 C1930 1.368 . S
C1925 C1909 1.349 . S
C1925 H1917 0.950 . S
C1925 C1923 1.327 . S
C1926 C1914 1.349 . S
C1926 H1920 0.950 . S
C1926 C1927 1.327 . S
C1927 H1921 0.950 . S
C1927 C1926 1.327 . S
C1927 C1931 1.429 . S
C1928 C1911 1.574 . S
C1928 H1922 0.949 . S
C1928 C1932 1.368 . S
C1929 C1910 1.429 . S
C1929 C1923 1.429 . S
C1929 C1930 1.523 . S
C1930 C1911 1.368 . S
C1930 C1924 1.368 . S
C1930 C1929 1.523 . S
C1931 C1915 1.429 . S
C1931 C1927 1.429 . S
C1931 C1932 1.523 . S
C1932 C1916 1.368 . S
C1932 C1928 1.368 . S
C1932 C1931 1.523 . S
H1933 C1908 0.950 . S
H1934 C1910 0.950 . S
H1935 C1911 0.949 . S
H1936 C1913 0.950 . S
H1937 C1915 0.950 . S
C1938 C1939 1.349 . S
C1938 C1940 1.327 . S
C1938 H1963 0.950 . S
C1939 C1938 1.349 . S
C1939 C1955 1.349 . S
C1940 C1938 1.327 . S
C1940 C1959 1.429 . S
C1940 H1964 0.950 . S
C1941 C1958 1.574 . S
C1941 C1960 1.368 . S
C1941 H1965 0.949 . S
H1942 C1946 0.949 . S
C1943 C1944 1.349 . S
C1943 C1945 1.327 . S
C1943 H1966 0.950 . S
C1944 C1943 1.349 . S
C1944 C1956 1.349 . S
C1945 C1943 1.327 . S
C1945 C1961 1.429 . S
C1945 H1967 0.950 . S
C1946 H1942 0.949 . S
C1946 C1954 1.574 . S
C1946 C1962 1.368 . S
H1947 C1955 0.950 . S
H1948 C1953 0.950 . S
H1949 C1954 0.949 . S
H1950 C1956 0.950 . S
H1951 C1957 0.950 . S
H1952 C1958 0.949 . S
C1953 H1948 0.950 . S
C1953 C1955 1.327 . S
C1953 C1959 1.429 . S
C1954 C1946 1.574 . S
C1954 H1949 0.949 . S
C1954 C1960 1.368 . S
C1955 C1939 1.349 . S
C1955 H1947 0.950 . S
C1955 C1953 1.327 . S
C1956 C1944 1.349 . S
C1956 H1950 0.950 . S
C1956 C1957 1.327 . S
C1957 H1951 0.950 . S
C1957 C1956 1.327 . S
C1957 C1961 1.429 . S
C1958 C1941 1.574 . S
C1958 H1952 0.949 . S
C1958 C1962 1.368 . S
C1959 C1940 1.429 . S
C1959 C1953 1.429 . S
C1959 C1960 1.523 . S
C1960 C1941 1.368 . S
C1960 C1954 1.368 . S
C1960 C1959 1.523 . S
C1961 C1945 1.429 . S
C1961 C1957 1.429 . S
C1961 C1962 1.523 . S
C1962 C1946 1.368 . S
C1962 C1958 1.368 . S
C1962 C1961 1.523 . S
H1963 C1938 0.950 . S
H1964 C1940 0.950 . S
H1965 C1941 0.949 . S
H1966 C1943 0.950 . S
H1967 C1945 0.950 . S
C1968 C1969 1.349 . S
C1968 C1970 1.327 . S
C1968 H1993 0.950 . S
C1969 C1968 1.349 . S
C1969 C1985 1.349 . S
C1970 C1968 1.327 . S
C1970 C1989 1.429 . S
C1970 H1994 0.950 . S
C1971 C1988 1.574 . S
C1971 C1990 1.368 . S
C1971 H1995 0.949 . S
H1972 C1976 0.949 . S
C1973 C1974 1.349 . S
C1973 C1975 1.327 . S
C1973 H1996 0.950 . S
C1974 C1973 1.349 . S
C1974 C1986 1.349 . S
C1975 C1973 1.327 . S
C1975 C1991 1.429 . S
C1975 H1997 0.950 . S
C1976 H1972 0.949 . S
C1976 C1984 1.574 . S
C1976 C1992 1.368 . S
H1977 C1985 0.950 . S
H1978 C1983 0.950 . S
H1979 C1984 0.949 . S
H1980 C1986 0.950 . S
H1981 C1987 0.950 . S
H1982 C1988 0.949 . S
C1983 H1978 0.950 . S
C1983 C1985 1.327 . S
C1983 C1989 1.429 . S
C1984 C1976 1.574 . S
C1984 H1979 0.949 . S
C1984 C1990 1.368 . S
C1985 C1969 1.349 . S
C1985 H1977 0.950 . S
C1985 C1983 1.327 . S
C1986 C1974 1.349 . S
C1986 H1980 0.950 . S
C1986 C1987 1.327 . S
C1987 H1981 0.950 . S
C1987 C1986 1.327 . S
C1987 C1991 1.429 . S
C1988 C1971 1.574 . S
C1988 H1982 0.949 . S
C1988 C1992 1.368 . S
C1989 C1970 1.429 . S
C1989 C1983 1.429 . S
C1989 C1990 1.523 . S
C1990 C1971 1.368 . S
C1990 C1984 1.368 . S
C1990 C1989 1.523 . S
C1991 C1975 1.429 . S
C1991 C1987 1.429 . S
C1991 C1992 1.523 . S
C1992 C1976 1.368 . S
C1992 C1988 1.368 . S
C1992 C1991 1.523 . S
H1993 C1968 0.950 . S
H1994 C1970 0.950 . S
H1995 C1971 0.949 . S
H1996 C1973 0.950 . S
H1997 C1975 0.950 . S
C1998 C1999 1.349 . S
C1998 C2000 1.327 . S
C1998 H2023 0.950 . S
C1999 C1998 1.349 . S
C1999 C2015 1.349 . S
C2000 C1998 1.327 . S
C2000 C2019 1.429 . S
C2000 H2024 0.950 . S
C2001 C2018 1.574 . S
C2001 C2020 1.368 . S
C2001 H2025 0.949 . S
H2002 C2006 0.949 . S
C2003 C2004 1.349 . S
C2003 C2005 1.327 . S
C2003 H2026 0.950 . S
C2004 C2003 1.349 . S
C2004 C2016 1.349 . S
C2005 C2003 1.327 . S
C2005 C2021 1.429 . S
C2005 H2027 0.950 . S
C2006 H2002 0.949 . S
C2006 C2014 1.574 . S
C2006 C2022 1.368 . S
H2007 C2015 0.950 . S
H2008 C2013 0.950 . S
H2009 C2014 0.949 . S
H2010 C2016 0.950 . S
H2011 C2017 0.950 . S
H2012 C2018 0.949 . S
C2013 H2008 0.950 . S
C2013 C2015 1.327 . S
C2013 C2019 1.429 . S
C2014 C2006 1.574 . S
C2014 H2009 0.949 . S
C2014 C2020 1.368 . S
C2015 C1999 1.349 . S
C2015 H2007 0.950 . S
C2015 C2013 1.327 . S
C2016 C2004 1.349 . S
C2016 H2010 0.950 . S
C2016 C2017 1.327 . S
C2017 H2011 0.950 . S
C2017 C2016 1.327 . S
C2017 C2021 1.429 . S
C2018 C2001 1.574 . S
C2018 H2012 0.949 . S
C2018 C2022 1.368 . S
C2019 C2000 1.429 . S
C2019 C2013 1.429 . S
C2019 C2020 1.523 . S
C2020 C2001 1.368 . S
C2020 C2014 1.368 . S
C2020 C2019 1.523 . S
C2021 C2005 1.429 . S
C2021 C2017 1.429 . S
C2021 C2022 1.523 . S
C2022 C2006 1.368 . S
C2022 C2018 1.368 . S
C2022 C2021 1.523 . S
H2023 C1998 0.950 . S
H2024 C2000 0.950 . S
H2025 C2001 0.949 . S
H2026 C2003 0.950 . S
H2027 C2005 0.950 . S
C2028 C2029 1.349 . S
C2028 C2030 1.327 . S
C2028 H2053 0.950 . S
C2029 C2028 1.349 . S
C2029 C2045 1.349 . S
C2030 C2028 1.327 . S
C2030 C2049 1.429 . S
C2030 H2054 0.950 . S
C2031 C2048 1.574 . S
C2031 C2050 1.368 . S
C2031 H2055 0.949 . S
H2032 C2036 0.949 . S
C2033 C2034 1.349 . S
C2033 C2035 1.327 . S
C2033 H2056 0.950 . S
C2034 C2033 1.349 . S
C2034 C2046 1.349 . S
C2035 C2033 1.327 . S
C2035 C2051 1.429 . S
C2035 H2057 0.950 . S
C2036 H2032 0.949 . S
C2036 C2044 1.574 . S
C2036 C2052 1.368 . S
H2037 C2045 0.950 . S
H2038 C2043 0.950 . S
H2039 C2044 0.949 . S
H2040 C2046 0.950 . S
H2041 C2047 0.950 . S
H2042 C2048 0.949 . S
C2043 H2038 0.950 . S
C2043 C2045 1.327 . S
C2043 C2049 1.429 . S
C2044 C2036 1.574 . S
C2044 H2039 0.949 . S
C2044 C2050 1.368 . S
C2045 C2029 1.349 . S
C2045 H2037 0.950 . S
C2045 C2043 1.327 . S
C2046 C2034 1.349 . S
C2046 H2040 0.950 . S
C2046 C2047 1.327 . S
C2047 H2041 0.950 . S
C2047 C2046 1.327 . S
C2047 C2051 1.429 . S
C2048 C2031 1.574 . S
C2048 H2042 0.949 . S
C2048 C2052 1.368 . S
C2049 C2030 1.429 . S
C2049 C2043 1.429 . S
C2049 C2050 1.523 . S
C2050 C2031 1.368 . S
C2050 C2044 1.368 . S
C2050 C2049 1.523 . S
C2051 C2035 1.429 . S
C2051 C2047 1.429 . S
C2051 C2052 1.523 . S
C2052 C2036 1.368 . S
C2052 C2048 1.368 . S
C2052 C2051 1.523 . S
H2053 C2028 0.950 . S
H2054 C2030 0.950 . S
H2055 C2031 0.949 . S
H2056 C2033 0.950 . S
H2057 C2035 0.950 . S
C2058 C2059 1.349 . S
C2058 C2060 1.327 . S
C2058 H2083 0.950 . S
C2059 C2058 1.349 . S
C2059 C2075 1.349 . S
C2060 C2058 1.327 . S
C2060 C2079 1.429 . S
C2060 H2084 0.950 . S
C2061 C2078 1.574 . S
C2061 C2080 1.368 . S
C2061 H2085 0.949 . S
H2062 C2066 0.949 . S
C2063 C2064 1.349 . S
C2063 C2065 1.327 . S
C2063 H2086 0.950 . S
C2064 C2063 1.349 . S
C2064 C2076 1.349 . S
C2065 C2063 1.327 . S
C2065 C2081 1.429 . S
C2065 H2087 0.950 . S
C2066 H2062 0.949 . S
C2066 C2074 1.574 . S
C2066 C2082 1.368 . S
H2067 C2075 0.950 . S
H2068 C2073 0.950 . S
H2069 C2074 0.949 . S
H2070 C2076 0.950 . S
H2071 C2077 0.950 . S
H2072 C2078 0.949 . S
C2073 H2068 0.950 . S
C2073 C2075 1.327 . S
C2073 C2079 1.429 . S
C2074 C2066 1.574 . S
C2074 H2069 0.949 . S
C2074 C2080 1.368 . S
C2075 C2059 1.349 . S
C2075 H2067 0.950 . S
C2075 C2073 1.327 . S
C2076 C2064 1.349 . S
C2076 H2070 0.950 . S
C2076 C2077 1.327 . S
C2077 H2071 0.950 . S
C2077 C2076 1.327 . S
C2077 C2081 1.429 . S
C2078 C2061 1.574 . S
C2078 H2072 0.949 . S
C2078 C2082 1.368 . S
C2079 C2060 1.429 . S
C2079 C2073 1.429 . S
C2079 C2080 1.523 . S
C2080 C2061 1.368 . S
C2080 C2074 1.368 . S
C2080 C2079 1.523 . S
C2081 C2065 1.429 . S
C2081 C2077 1.429 . S
C2081 C2082 1.523 . S
C2082 C2066 1.368 . S
C2082 C2078 1.368 . S
C2082 C2081 1.523 . S
H2083 C2058 0.950 . S
H2084 C2060 0.950 . S
H2085 C2061 0.949 . S
H2086 C2063 0.950 . S
H2087 C2065 0.950 . S
C2088 C2089 1.349 . S
C2088 C2090 1.327 . S
C2088 H2113 0.950 . S
C2089 C2088 1.349 . S
C2089 C2105 1.349 . S
C2090 C2088 1.327 . S
C2090 C2109 1.429 . S
C2090 H2114 0.950 . S
C2091 C2108 1.574 . S
C2091 C2110 1.368 . S
C2091 H2115 0.949 . S
H2092 C2096 0.949 . S
C2093 C2094 1.349 . S
C2093 C2095 1.327 . S
C2093 H2116 0.950 . S
C2094 C2093 1.349 . S
C2094 C2106 1.349 . S
C2095 C2093 1.327 . S
C2095 C2111 1.429 . S
C2095 H2117 0.950 . S
C2096 H2092 0.949 . S
C2096 C2104 1.574 . S
C2096 C2112 1.368 . S
H2097 C2105 0.950 . S
H2098 C2103 0.950 . S
H2099 C2104 0.949 . S
H2100 C2106 0.950 . S
H2101 C2107 0.950 . S
H2102 C2108 0.949 . S
C2103 H2098 0.950 . S
C2103 C2105 1.327 . S
C2103 C2109 1.429 . S
C2104 C2096 1.574 . S
C2104 H2099 0.949 . S
C2104 C2110 1.368 . S
C2105 C2089 1.349 . S
C2105 H2097 0.950 . S
C2105 C2103 1.327 . S
C2106 C2094 1.349 . S
C2106 H2100 0.950 . S
C2106 C2107 1.327 . S
C2107 H2101 0.950 . S
C2107 C2106 1.327 . S
C2107 C2111 1.429 . S
C2108 C2091 1.574 . S
C2108 H2102 0.949 . S
C2108 C2112 1.368 . S
C2109 C2090 1.429 . S
C2109 C2103 1.429 . S
C2109 C2110 1.523 . S
C2110 C2091 1.368 . S
C2110 C2104 1.368 . S
C2110 C2109 1.523 . S
C2111 C2095 1.429 . S
C2111 C2107 1.429 . S
C2111 C2112 1.523 . S
C2112 C2096 1.368 . S
C2112 C2108 1.368 . S
C2112 C2111 1.523 . S
H2113 C2088 0.950 . S
H2114 C2090 0.950 . S
H2115 C2091 0.949 . S
H2116 C2093 0.950 . S
H2117 C2095 0.950 . S
C2118 C2119 1.349 . S
C2118 C2120 1.327 . S
C2118 H2143 0.950 . S
C2119 C2118 1.349 . S
C2119 C2135 1.349 . S
C2120 C2118 1.327 . S
C2120 C2139 1.429 . S
C2120 H2144 0.950 . S
C2121 C2138 1.574 . S
C2121 C2140 1.368 . S
C2121 H2145 0.949 . S
H2122 C2126 0.949 . S
C2123 C2124 1.349 . S
C2123 C2125 1.327 . S
C2123 H2146 0.950 . S
C2124 C2123 1.349 . S
C2124 C2136 1.349 . S
C2125 C2123 1.327 . S
C2125 C2141 1.429 . S
C2125 H2147 0.950 . S
C2126 H2122 0.949 . S
C2126 C2134 1.574 . S
C2126 C2142 1.368 . S
H2127 C2135 0.950 . S
H2128 C2133 0.950 . S
H2129 C2134 0.949 . S
H2130 C2136 0.950 . S
H2131 C2137 0.950 . S
H2132 C2138 0.949 . S
C2133 H2128 0.950 . S
C2133 C2135 1.327 . S
C2133 C2139 1.429 . S
C2134 C2126 1.574 . S
C2134 H2129 0.949 . S
C2134 C2140 1.368 . S
C2135 C2119 1.349 . S
C2135 H2127 0.950 . S
C2135 C2133 1.327 . S
C2136 C2124 1.349 . S
C2136 H2130 0.950 . S
C2136 C2137 1.327 . S
C2137 H2131 0.950 . S
C2137 C2136 1.327 . S
C2137 C2141 1.429 . S
C2138 C2121 1.574 . S
C2138 H2132 0.949 . S
C2138 C2142 1.368 . S
C2139 C2120 1.429 . S
C2139 C2133 1.429 . S
C2139 C2140 1.523 . S
C2140 C2121 1.368 . S
C2140 C2134 1.368 . S
C2140 C2139 1.523 . S
C2141 C2125 1.429 . S
C2141 C2137 1.429 . S
C2141 C2142 1.523 . S
C2142 C2126 1.368 . S
C2142 C2138 1.368 . S
C2142 C2141 1.523 . S
H2143 C2118 0.950 . S
H2144 C2120 0.950 . S
H2145 C2121 0.949 . S
H2146 C2123 0.950 . S
H2147 C2125 0.950 . S
C2148 C2149 1.349 . S
C2148 C2150 1.327 . S
C2148 H2173 0.950 . S
C2149 C2148 1.349 . S
C2149 C2165 1.349 . S
C2150 C2148 1.327 . S
C2150 C2169 1.429 . S
C2150 H2174 0.950 . S
C2151 C2168 1.574 . S
C2151 C2170 1.368 . S
C2151 H2175 0.949 . S
H2152 C2156 0.949 . S
C2153 C2154 1.349 . S
C2153 C2155 1.327 . S
C2153 H2176 0.950 . S
C2154 C2153 1.349 . S
C2154 C2166 1.349 . S
C2155 C2153 1.327 . S
C2155 C2171 1.429 . S
C2155 H2177 0.950 . S
C2156 H2152 0.949 . S
C2156 C2164 1.574 . S
C2156 C2172 1.368 . S
H2157 C2165 0.950 . S
H2158 C2163 0.950 . S
H2159 C2164 0.949 . S
H2160 C2166 0.950 . S
H2161 C2167 0.950 . S
H2162 C2168 0.949 . S
C2163 H2158 0.950 . S
C2163 C2165 1.327 . S
C2163 C2169 1.429 . S
C2164 C2156 1.574 . S
C2164 H2159 0.949 . S
C2164 C2170 1.368 . S
C2165 C2149 1.349 . S
C2165 H2157 0.950 . S
C2165 C2163 1.327 . S
C2166 C2154 1.349 . S
C2166 H2160 0.950 . S
C2166 C2167 1.327 . S
C2167 H2161 0.950 . S
C2167 C2166 1.327 . S
C2167 C2171 1.429 . S
C2168 C2151 1.574 . S
C2168 H2162 0.949 . S
C2168 C2172 1.368 . S
C2169 C2150 1.429 . S
C2169 C2163 1.429 . S
C2169 C2170 1.523 . S
C2170 C2151 1.368 . S
C2170 C2164 1.368 . S
C2170 C2169 1.523 . S
C2171 C2155 1.429 . S
C2171 C2167 1.429 . S
C2171 C2172 1.523 . S
C2172 C2156 1.368 . S
C2172 C2168 1.368 . S
C2172 C2171 1.523 . S
H2173 C2148 0.950 . S
H2174 C2150 0.950 . S
H2175 C2151 0.949 . S
H2176 C2153 0.950 . S
H2177 C2155 0.950 . S
C2178 C2179 1.349 . S
C2178 C2180 1.327 . S
C2178 H2203 0.950 . S
C2179 C2178 1.349 . S
C2179 C2195 1.349 . S
C2180 C2178 1.327 . S
C2180 C2199 1.429 . S
C2180 H2204 0.950 . S
C2181 C2198 1.574 . S
C2181 C2200 1.368 . S
C2181 H2205 0.949 . S
H2182 C2186 0.949 . S
C2183 C2184 1.349 . S
C2183 C2185 1.327 . S
C2183 H2206 0.950 . S
C2184 C2183 1.349 . S
C2184 C2196 1.349 . S
C2185 C2183 1.327 . S
C2185 C2201 1.429 . S
C2185 H2207 0.950 . S
C2186 H2182 0.949 . S
C2186 C2194 1.574 . S
C2186 C2202 1.368 . S
H2187 C2195 0.950 . S
H2188 C2193 0.950 . S
H2189 C2194 0.949 . S
H2190 C2196 0.950 . S
H2191 C2197 0.950 . S
H2192 C2198 0.949 . S
C2193 H2188 0.950 . S
C2193 C2195 1.327 . S
C2193 C2199 1.429 . S
C2194 C2186 1.574 . S
C2194 H2189 0.949 . S
C2194 C2200 1.368 . S
C2195 C2179 1.349 . S
C2195 H2187 0.950 . S
C2195 C2193 1.327 . S
C2196 C2184 1.349 . S
C2196 H2190 0.950 . S
C2196 C2197 1.327 . S
C2197 H2191 0.950 . S
C2197 C2196 1.327 . S
C2197 C2201 1.429 . S
C2198 C2181 1.574 . S
C2198 H2192 0.949 . S
C2198 C2202 1.368 . S
C2199 C2180 1.429 . S
C2199 C2193 1.429 . S
C2199 C2200 1.523 . S
C2200 C2181 1.368 . S
C2200 C2194 1.368 . S
C2200 C2199 1.523 . S
C2201 C2185 1.429 . S
C2201 C2197 1.429 . S
C2201 C2202 1.523 . S
C2202 C2186 1.368 . S
C2202 C2198 1.368 . S
C2202 C2201 1.523 . S
H2203 C2178 0.950 . S
H2204 C2180 0.950 . S
H2205 C2181 0.949 . S
H2206 C2183 0.950 . S
H2207 C2185 0.950 . S
C2208 C2209 1.349 . S
C2208 C2210 1.327 . S
C2208 H2233 0.950 . S
C2209 C2208 1.349 . S
C2209 C2225 1.349 . S
C2210 C2208 1.327 . S
C2210 C2229 1.429 . S
C2210 H2234 0.950 . S
C2211 C2228 1.574 . S
C2211 C2230 1.368 . S
C2211 H2235 0.949 . S
H2212 C2216 0.949 . S
C2213 C2214 1.349 . S
C2213 C2215 1.327 . S
C2213 H2236 0.950 . S
C2214 C2213 1.349 . S
C2214 C2226 1.349 . S
C2215 C2213 1.327 . S
C2215 C2231 1.429 . S
C2215 H2237 0.950 . S
C2216 H2212 0.949 . S
C2216 C2224 1.574 . S
C2216 C2232 1.368 . S
H2217 C2225 0.950 . S
H2218 C2223 0.950 . S
H2219 C2224 0.949 . S
H2220 C2226 0.950 . S
H2221 C2227 0.950 . S
H2222 C2228 0.949 . S
C2223 H2218 0.950 . S
C2223 C2225 1.327 . S
C2223 C2229 1.429 . S
C2224 C2216 1.574 . S
C2224 H2219 0.949 . S
C2224 C2230 1.368 . S
C2225 C2209 1.349 . S
C2225 H2217 0.950 . S
C2225 C2223 1.327 . S
C2226 C2214 1.349 . S
C2226 H2220 0.950 . S
C2226 C2227 1.327 . S
C2227 H2221 0.950 . S
C2227 C2226 1.327 . S
C2227 C2231 1.429 . S
C2228 C2211 1.574 . S
C2228 H2222 0.949 . S
C2228 C2232 1.368 . S
C2229 C2210 1.429 . S
C2229 C2223 1.429 . S
C2229 C2230 1.523 . S
C2230 C2211 1.368 . S
C2230 C2224 1.368 . S
C2230 C2229 1.523 . S
C2231 C2215 1.429 . S
C2231 C2227 1.429 . S
C2231 C2232 1.523 . S
C2232 C2216 1.368 . S
C2232 C2228 1.368 . S
C2232 C2231 1.523 . S
H2233 C2208 0.950 . S
H2234 C2210 0.950 . S
H2235 C2211 0.949 . S
H2236 C2213 0.950 . S
H2237 C2215 0.950 . S
C2238 C2239 1.349 . S
C2238 C2240 1.327 . S
C2238 H2263 0.950 . S
C2239 C2238 1.349 . S
C2239 C2255 1.349 . S
C2240 C2238 1.327 . S
C2240 C2259 1.429 . S
C2240 H2264 0.950 . S
C2241 C2258 1.574 . S
C2241 C2260 1.368 . S
C2241 H2265 0.949 . S
H2242 C2246 0.949 . S
C2243 C2244 1.349 . S
C2243 C2245 1.327 . S
C2243 H2266 0.950 . S
C2244 C2243 1.349 . S
C2244 C2256 1.349 . S
C2245 C2243 1.327 . S
C2245 C2261 1.429 . S
C2245 H2267 0.950 . S
C2246 H2242 0.949 . S
C2246 C2254 1.574 . S
C2246 C2262 1.368 . S
H2247 C2255 0.950 . S
H2248 C2253 0.950 . S
H2249 C2254 0.949 . S
H2250 C2256 0.950 . S
H2251 C2257 0.950 . S
H2252 C2258 0.949 . S
C2253 H2248 0.950 . S
C2253 C2255 1.327 . S
C2253 C2259 1.429 . S
C2254 C2246 1.574 . S
C2254 H2249 0.949 . S
C2254 C2260 1.368 . S
C2255 C2239 1.349 . S
C2255 H2247 0.950 . S
C2255 C2253 1.327 . S
C2256 C2244 1.349 . S
C2256 H2250 0.950 . S
C2256 C2257 1.327 . S
C2257 H2251 0.950 . S
C2257 C2256 1.327 . S
C2257 C2261 1.429 . S
C2258 C2241 1.574 . S
C2258 H2252 0.949 . S
C2258 C2262 1.368 . S
C2259 C2240 1.429 . S
C2259 C2253 1.429 . S
C2259 C2260 1.523 . S
C2260 C2241 1.368 . S
C2260 C2254 1.368 . S
C2260 C2259 1.523 . S
C2261 C2245 1.429 . S
C2261 C2257 1.429 . S
C2261 C2262 1.523 . S
C2262 C2246 1.368 . S
C2262 C2258 1.368 . S
C2262 C2261 1.523 . S
H2263 C2238 0.950 . S
H2264 C2240 0.950 . S
H2265 C2241 0.949 . S
H2266 C2243 0.950 . S
H2267 C2245 0.950 . S
C2268 C2269 1.349 . S
C2268 C2270 1.327 . S
C2268 H2293 0.950 . S
C2269 C2268 1.349 . S
C2269 C2285 1.349 . S
C2270 C2268 1.327 . S
C2270 C2289 1.429 . S
C2270 H2294 0.950 . S
C2271 C2288 1.574 . S
C2271 C2290 1.368 . S
C2271 H2295 0.949 . S
H2272 C2276 0.949 . S
C2273 C2274 1.349 . S
C2273 C2275 1.327 . S
C2273 H2296 0.950 . S
C2274 C2273 1.349 . S
C2274 C2286 1.349 . S
C2275 C2273 1.327 . S
C2275 C2291 1.429 . S
C2275 H2297 0.950 . S
C2276 H2272 0.949 . S
C2276 C2284 1.574 . S
C2276 C2292 1.368 . S
H2277 C2285 0.950 . S
H2278 C2283 0.950 . S
H2279 C2284 0.949 . S
H2280 C2286 0.950 . S
H2281 C2287 0.950 . S
H2282 C2288 0.949 . S
C2283 H2278 0.950 . S
C2283 C2285 1.327 . S
C2283 C2289 1.429 . S
C2284 C2276 1.574 . S
C2284 H2279 0.949 . S
C2284 C2290 1.368 . S
C2285 C2269 1.349 . S
C2285 H2277 0.950 . S
C2285 C2283 1.327 . S
C2286 C2274 1.349 . S
C2286 H2280 0.950 . S
C2286 C2287 1.327 . S
C2287 H2281 0.950 . S
C2287 C2286 1.327 . S
C2287 C2291 1.429 . S
C2288 C2271 1.574 . S
C2288 H2282 0.949 . S
C2288 C2292 1.368 . S
C2289 C2270 1.429 . S
C2289 C2283 1.429 . S
C2289 C2290 1.523 . S
C2290 C2271 1.368 . S
C2290 C2284 1.368 . S
C2290 C2289 1.523 . S
C2291 C2275 1.429 . S
C2291 C2287 1.429 . S
C2291 C2292 1.523 . S
C2292 C2276 1.368 . S
C2292 C2288 1.368 . S
C2292 C2291 1.523 . S
H2293 C2268 0.950 . S
H2294 C2270 0.950 . S
H2295 C2271 0.949 . S
H2296 C2273 0.950 . S
H2297 C2275 0.950 . S
C2298 C2299 1.349 . S
C2298 C2300 1.327 . S
C2298 H2323 0.950 . S
C2299 C2298 1.349 . S
C2299 C2315 1.349 . S
C2300 C2298 1.327 . S
C2300 C2319 1.429 . S
C2300 H2324 0.950 . S
C2301 C2318 1.574 . S
C2301 C2320 1.368 . S
C2301 H2325 0.949 . S
H2302 C2306 0.949 . S
C2303 C2304 1.349 . S
C2303 C2305 1.327 . S
C2303 H2326 0.950 . S
C2304 C2303 1.349 . S
C2304 C2316 1.349 . S
C2305 C2303 1.327 . S
C2305 C2321 1.429 . S
C2305 H2327 0.950 . S
C2306 H2302 0.949 . S
C2306 C2314 1.574 . S
C2306 C2322 1.368 . S
H2307 C2315 0.950 . S
H2308 C2313 0.950 . S
H2309 C2314 0.949 . S
H2310 C2316 0.950 . S
H2311 C2317 0.950 . S
H2312 C2318 0.949 . S
C2313 H2308 0.950 . S
C2313 C2315 1.327 . S
C2313 C2319 1.429 . S
C2314 C2306 1.574 . S
C2314 H2309 0.949 . S
C2314 C2320 1.368 . S
C2315 C2299 1.349 . S
C2315 H2307 0.950 . S
C2315 C2313 1.327 . S
C2316 C2304 1.349 . S
C2316 H2310 0.950 . S
C2316 C2317 1.327 . S
C2317 H2311 0.950 . S
C2317 C2316 1.327 . S
C2317 C2321 1.429 . S
C2318 C2301 1.574 . S
C2318 H2312 0.949 . S
C2318 C2322 1.368 . S
C2319 C2300 1.429 . S
C2319 C2313 1.429 . S
C2319 C2320 1.523 . S
C2320 C2301 1.368 . S
C2320 C2314 1.368 . S
C2320 C2319 1.523 . S
C2321 C2305 1.429 . S
C2321 C2317 1.429 . S
C2321 C2322 1.523 . S
C2322 C2306 1.368 . S
C2322 C2318 1.368 . S
C2322 C2321 1.523 . S
H2323 C2298 0.950 . S
H2324 C2300 0.950 . S
H2325 C2301 0.949 . S
H2326 C2303 0.950 . S
H2327 C2305 0.950 . S
C2328 C2329 1.349 . S
C2328 C2330 1.327 . S
C2328 H2353 0.950 . S
C2329 C2328 1.349 . S
C2329 C2345 1.349 . S
C2330 C2328 1.327 . S
C2330 C2349 1.429 . S
C2330 H2354 0.950 . S
C2331 C2348 1.574 . S
C2331 C2350 1.368 . S
C2331 H2355 0.949 . S
H2332 C2336 0.949 . S
C2333 C2334 1.349 . S
C2333 C2335 1.327 . S
C2333 H2356 0.950 . S
C2334 C2333 1.349 . S
C2334 C2346 1.349 . S
C2335 C2333 1.327 . S
C2335 C2351 1.429 . S
C2335 H2357 0.950 . S
C2336 H2332 0.949 . S
C2336 C2344 1.574 . S
C2336 C2352 1.368 . S
H2337 C2345 0.950 . S
H2338 C2343 0.950 . S
H2339 C2344 0.949 . S
H2340 C2346 0.950 . S
H2341 C2347 0.950 . S
H2342 C2348 0.949 . S
C2343 H2338 0.950 . S
C2343 C2345 1.327 . S
C2343 C2349 1.429 . S
C2344 C2336 1.574 . S
C2344 H2339 0.949 . S
C2344 C2350 1.368 . S
C2345 C2329 1.349 . S
C2345 H2337 0.950 . S
C2345 C2343 1.327 . S
C2346 C2334 1.349 . S
C2346 H2340 0.950 . S
C2346 C2347 1.327 . S
C2347 H2341 0.950 . S
C2347 C2346 1.327 . S
C2347 C2351 1.429 . S
C2348 C2331 1.574 . S
C2348 H2342 0.949 . S
C2348 C2352 1.368 . S
C2349 C2330 1.429 . S
C2349 C2343 1.429 . S
C2349 C2350 1.523 . S
C2350 C2331 1.368 . S
C2350 C2344 1.368 . S
C2350 C2349 1.523 . S
C2351 C2335 1.429 . S
C2351 C2347 1.429 . S
C2351 C2352 1.523 . S
C2352 C2336 1.368 . S
C2352 C2348 1.368 . S
C2352 C2351 1.523 . S
H2353 C2328 0.950 . S
H2354 C2330 0.950 . S
H2355 C2331 0.949 . S
H2356 C2333 0.950 . S
H2357 C2335 0.950 . S
C2358 C2359 1.349 . S
C2358 C2360 1.327 . S
C2358 H2383 0.950 . S
C2359 C2358 1.349 . S
C2359 C2375 1.349 . S
C2360 C2358 1.327 . S
C2360 C2379 1.429 . S
C2360 H2384 0.950 . S
C2361 C2378 1.574 . S
C2361 C2380 1.368 . S
C2361 H2385 0.949 . S
H2362 C2366 0.949 . S
C2363 C2364 1.349 . S
C2363 C2365 1.327 . S
C2363 H2386 0.950 . S
C2364 C2363 1.349 . S
C2364 C2376 1.349 . S
C2365 C2363 1.327 . S
C2365 C2381 1.429 . S
C2365 H2387 0.950 . S
C2366 H2362 0.949 . S
C2366 C2374 1.574 . S
C2366 C2382 1.368 . S
H2367 C2375 0.950 . S
H2368 C2373 0.950 . S
H2369 C2374 0.949 . S
H2370 C2376 0.950 . S
H2371 C2377 0.950 . S
H2372 C2378 0.949 . S
C2373 H2368 0.950 . S
C2373 C2375 1.327 . S
C2373 C2379 1.429 . S
C2374 C2366 1.574 . S
C2374 H2369 0.949 . S
C2374 C2380 1.368 . S
C2375 C2359 1.349 . S
C2375 H2367 0.950 . S
C2375 C2373 1.327 . S
C2376 C2364 1.349 . S
C2376 H2370 0.950 . S
C2376 C2377 1.327 . S
C2377 H2371 0.950 . S
C2377 C2376 1.327 . S
C2377 C2381 1.429 . S
C2378 C2361 1.574 . S
C2378 H2372 0.949 . S
C2378 C2382 1.368 . S
C2379 C2360 1.429 . S
C2379 C2373 1.429 . S
C2379 C2380 1.523 . S
C2380 C2361 1.368 . S
C2380 C2374 1.368 . S
C2380 C2379 1.523 . S
C2381 C2365 1.429 . S
C2381 C2377 1.429 . S
C2381 C2382 1.523 . S
C2382 C2366 1.368 . S
C2382 C2378 1.368 . S
C2382 C2381 1.523 . S
H2383 C2358 0.950 . S
H2384 C2360 0.950 . S
H2385 C2361 0.949 . S
H2386 C2363 0.950 . S
H2387 C2365 0.950 . S
C2388 C2389 1.349 . S
C2388 C2390 1.327 . S
C2388 H2413 0.950 . S
C2389 C2388 1.349 . S
C2389 C2405 1.349 . S
C2390 C2388 1.327 . S
C2390 C2409 1.429 . S
C2390 H2414 0.950 . S
C2391 C2408 1.574 . S
C2391 C2410 1.368 . S
C2391 H2415 0.949 . S
H2392 C2396 0.949 . S
C2393 C2394 1.349 . S
C2393 C2395 1.327 . S
C2393 H2416 0.950 . S
C2394 C2393 1.349 . S
C2394 C2406 1.349 . S
C2395 C2393 1.327 . S
C2395 C2411 1.429 . S
C2395 H2417 0.950 . S
C2396 H2392 0.949 . S
C2396 C2404 1.574 . S
C2396 C2412 1.368 . S
H2397 C2405 0.950 . S
H2398 C2403 0.950 . S
H2399 C2404 0.949 . S
H2400 C2406 0.950 . S
H2401 C2407 0.950 . S
H2402 C2408 0.949 . S
C2403 H2398 0.950 . S
C2403 C2405 1.327 . S
C2403 C2409 1.429 . S
C2404 C2396 1.574 . S
C2404 H2399 0.949 . S
C2404 C2410 1.368 . S
C2405 C2389 1.349 . S
C2405 H2397 0.950 . S
C2405 C2403 1.327 . S
C2406 C2394 1.349 . S
C2406 H2400 0.950 . S
C2406 C2407 1.327 . S
C2407 H2401 0.950 . S
C2407 C2406 1.327 . S
C2407 C2411 1.429 . S
C2408 C2391 1.574 . S
C2408 H2402 0.949 . S
C2408 C2412 1.368 . S
C2409 C2390 1.429 . S
C2409 C2403 1.429 . S
C2409 C2410 1.523 . S
C2410 C2391 1.368 . S
C2410 C2404 1.368 . S
C2410 C2409 1.523 . S
C2411 C2395 1.429 . S
C2411 C2407 1.429 . S
C2411 C2412 1.523 . S
C2412 C2396 1.368 . S
C2412 C2408 1.368 . S
C2412 C2411 1.523 . S
H2413 C2388 0.950 . S
H2414 C2390 0.950 . S
H2415 C2391 0.949 . S
H2416 C2393 0.950 . S
H2417 C2395 0.950 . S
C2418 C2419 1.349 . S
C2418 C2420 1.327 . S
C2418 H2443 0.950 . S
C2419 C2418 1.349 . S
C2419 C2435 1.349 . S
C2420 C2418 1.327 . S
C2420 C2439 1.429 . S
C2420 H2444 0.950 . S
C2421 C2438 1.574 . S
C2421 C2440 1.368 . S
C2421 H2445 0.949 . S
H2422 C2426 0.949 . S
C2423 C2424 1.349 . S
C2423 C2425 1.327 . S
C2423 H2446 0.950 . S
C2424 C2423 1.349 . S
C2424 C2436 1.349 . S
C2425 C2423 1.327 . S
C2425 C2441 1.429 . S
C2425 H2447 0.950 . S
C2426 H2422 0.949 . S
C2426 C2434 1.574 . S
C2426 C2442 1.368 . S
H2427 C2435 0.950 . S
H2428 C2433 0.950 . S
H2429 C2434 0.949 . S
H2430 C2436 0.950 . S
H2431 C2437 0.950 . S
H2432 C2438 0.949 . S
C2433 H2428 0.950 . S
C2433 C2435 1.327 . S
C2433 C2439 1.429 . S
C2434 C2426 1.574 . S
C2434 H2429 0.949 . S
C2434 C2440 1.368 . S
C2435 C2419 1.349 . S
C2435 H2427 0.950 . S
C2435 C2433 1.327 . S
C2436 C2424 1.349 . S
C2436 H2430 0.950 . S
C2436 C2437 1.327 . S
C2437 H2431 0.950 . S
C2437 C2436 1.327 . S
C2437 C2441 1.429 . S
C2438 C2421 1.574 . S
C2438 H2432 0.949 . S
C2438 C2442 1.368 . S
C2439 C2420 1.429 . S
C2439 C2433 1.429 . S
C2439 C2440 1.523 . S
C2440 C2421 1.368 . S
C2440 C2434 1.368 . S
C2440 C2439 1.523 . S
C2441 C2425 1.429 . S
C2441 C2437 1.429 . S
C2441 C2442 1.523 . S
C2442 C2426 1.368 . S
C2442 C2438 1.368 . S
C2442 C2441 1.523 . S
H2443 C2418 0.950 . S
H2444 C2420 0.950 . S
H2445 C2421 0.949 . S
H2446 C2423 0.950 . S
H2447 C2425 0.950 . S
C2448 C2449 1.349 . S
C2448 C2450 1.327 . S
C2448 H2473 0.950 . S
C2449 C2448 1.349 . S
C2449 C2465 1.349 . S
C2450 C2448 1.327 . S
C2450 C2469 1.429 . S
C2450 H2474 0.950 . S
C2451 C2468 1.574 . S
C2451 C2470 1.368 . S
C2451 H2475 0.949 . S
H2452 C2456 0.949 . S
C2453 C2454 1.349 . S
C2453 C2455 1.327 . S
C2453 H2476 0.950 . S
C2454 C2453 1.349 . S
C2454 C2466 1.349 . S
C2455 C2453 1.327 . S
C2455 C2471 1.429 . S
C2455 H2477 0.950 . S
C2456 H2452 0.949 . S
C2456 C2464 1.574 . S
C2456 C2472 1.368 . S
H2457 C2465 0.950 . S
H2458 C2463 0.950 . S
H2459 C2464 0.949 . S
H2460 C2466 0.950 . S
H2461 C2467 0.950 . S
H2462 C2468 0.949 . S
C2463 H2458 0.950 . S
C2463 C2465 1.327 . S
C2463 C2469 1.429 . S
C2464 C2456 1.574 . S
C2464 H2459 0.949 . S
C2464 C2470 1.368 . S
C2465 C2449 1.349 . S
C2465 H2457 0.950 . S
C2465 C2463 1.327 . S
C2466 C2454 1.349 . S
C2466 H2460 0.950 . S
C2466 C2467 1.327 . S
C2467 H2461 0.950 . S
C2467 C2466 1.327 . S
C2467 C2471 1.429 . S
C2468 C2451 1.574 . S
C2468 H2462 0.949 . S
C2468 C2472 1.368 . S
C2469 C2450 1.429 . S
C2469 C2463 1.429 . S
C2469 C2470 1.523 . S
C2470 C2451 1.368 . S
C2470 C2464 1.368 . S
C2470 C2469 1.523 . S
C2471 C2455 1.429 . S
C2471 C2467 1.429 . S
C2471 C2472 1.523 . S
C2472 C2456 1.368 . S
C2472 C2468 1.368 . S
C2472 C2471 1.523 . S
H2473 C2448 0.950 . S
H2474 C2450 0.950 . S
H2475 C2451 0.949 . S
H2476 C2453 0.950 . S
H2477 C2455 0.950 . S
C2478 C2479 1.349 . S
C2478 C2480 1.327 . S
C2478 H2503 0.950 . S
C2479 C2478 1.349 . S
C2479 C2495 1.349 . S
C2480 C2478 1.327 . S
C2480 C2499 1.429 . S
C2480 H2504 0.950 . S
C2481 C2498 1.574 . S
C2481 C2500 1.368 . S
C2481 H2505 0.949 . S
H2482 C2486 0.949 . S
C2483 C2484 1.349 . S
C2483 C2485 1.327 . S
C2483 H2506 0.950 . S
C2484 C2483 1.349 . S
C2484 C2496 1.349 . S
C2485 C2483 1.327 . S
C2485 C2501 1.429 . S
C2485 H2507 0.950 . S
C2486 H2482 0.949 . S
C2486 C2494 1.574 . S
C2486 C2502 1.368 . S
H2487 C2495 0.950 . S
H2488 C2493 0.950 . S
H2489 C2494 0.949 . S
H2490 C2496 0.950 . S
H2491 C2497 0.950 . S
H2492 C2498 0.949 . S
C2493 H2488 0.950 . S
C2493 C2495 1.327 . S
C2493 C2499 1.429 . S
C2494 C2486 1.574 . S
C2494 H2489 0.949 . S
C2494 C2500 1.368 . S
C2495 C2479 1.349 . S
C2495 H2487 0.950 . S
C2495 C2493 1.327 . S
C2496 C2484 1.349 . S
C2496 H2490 0.950 . S
C2496 C2497 1.327 . S
C2497 H2491 0.950 . S
C2497 C2496 1.327 . S
C2497 C2501 1.429 . S
C2498 C2481 1.574 . S
C2498 H2492 0.949 . S
C2498 C2502 1.368 . S
C2499 C2480 1.429 . S
C2499 C2493 1.429 . S
C2499 C2500 1.523 . S
C2500 C2481 1.368 . S
C2500 C2494 1.368 . S
C2500 C2499 1.523 . S
C2501 C2485 1.429 . S
C2501 C2497 1.429 . S
C2501 C2502 1.523 . S
C2502 C2486 1.368 . S
C2502 C2498 1.368 . S
C2502 C2501 1.523 . S
H2503 C2478 0.950 . S
H2504 C2480 0.950 . S
H2505 C2481 0.949 . S
H2506 C2483 0.950 . S
H2507 C2485 0.950 . S
C2508 C2509 1.349 . S
C2508 C2510 1.327 . S
C2508 H2533 0.950 . S
C2509 C2508 1.349 . S
C2509 C2525 1.349 . S
C2510 C2508 1.327 . S
C2510 C2529 1.429 . S
C2510 H2534 0.950 . S
C2511 C2528 1.574 . S
C2511 C2530 1.368 . S
C2511 H2535 0.949 . S
H2512 C2516 0.949 . S
C2513 C2514 1.349 . S
C2513 C2515 1.327 . S
C2513 H2536 0.950 . S
C2514 C2513 1.349 . S
C2514 C2526 1.349 . S
C2515 C2513 1.327 . S
C2515 C2531 1.429 . S
C2515 H2537 0.950 . S
C2516 H2512 0.949 . S
C2516 C2524 1.574 . S
C2516 C2532 1.368 . S
H2517 C2525 0.950 . S
H2518 C2523 0.950 . S
H2519 C2524 0.949 . S
H2520 C2526 0.950 . S
H2521 C2527 0.950 . S
H2522 C2528 0.949 . S
C2523 H2518 0.950 . S
C2523 C2525 1.327 . S
C2523 C2529 1.429 . S
C2524 C2516 1.574 . S
C2524 H2519 0.949 . S
C2524 C2530 1.368 . S
C2525 C2509 1.349 . S
C2525 H2517 0.950 . S
C2525 C2523 1.327 . S
C2526 C2514 1.349 . S
C2526 H2520 0.950 . S
C2526 C2527 1.327 . S
C2527 H2521 0.950 . S
C2527 C2526 1.327 . S
C2527 C2531 1.429 . S
C2528 C2511 1.574 . S
C2528 H2522 0.949 . S
C2528 C2532 1.368 . S
C2529 C2510 1.429 . S
C2529 C2523 1.429 . S
C2529 C2530 1.523 . S
C2530 C2511 1.368 . S
C2530 C2524 1.368 . S
C2530 C2529 1.523 . S
C2531 C2515 1.429 . S
C2531 C2527 1.429 . S
C2531 C2532 1.523 . S
C2532 C2516 1.368 . S
C2532 C2528 1.368 . S
C2532 C2531 1.523 . S
H2533 C2508 0.950 . S
H2534 C2510 0.950 . S
H2535 C2511 0.949 . S
H2536 C2513 0.950 . S
H2537 C2515 0.950 . S
C2538 C2539 1.349 . S
C2538 C2540 1.327 . S
C2538 H2563 0.950 . S
C2539 C2538 1.349 . S
C2539 C2555 1.349 1_556 S
C2540 C2538 1.327 . S
C2540 C2559 1.429 . S
C2540 H2564 0.950 . S
C2541 C2558 1.574 . S
C2541 C2560 1.368 . S
C2541 H2565 0.953 1_556 S
H2542 C2546 0.949 . S
C2543 C2544 1.349 . S
C2543 C2545 1.327 . S
C2543 H2566 0.950 . S
C2544 C2543 1.349 . S
C2544 C2556 1.349 . S
C2545 C2543 1.327 . S
C2545 C2561 1.429 . S
C2545 H2567 0.950 . S
C2546 H2542 0.949 . S
C2546 C2554 1.574 . S
C2546 C2562 1.368 . S
H2547 C2555 0.950 . S
H2548 C2553 0.950 . S
H2549 C2554 0.949 . S
H2550 C2556 0.950 . S
H2551 C2557 0.950 . S
H2552 C2558 0.949 . S
C2553 H2548 0.950 . S
C2553 C2555 1.327 . S
C2553 C2559 1.429 1_554 S
C2554 C2546 1.574 . S
C2554 H2549 0.949 . S
C2554 C2560 1.368 . S
C2555 C2539 1.349 1_554 S
C2555 H2547 0.950 . S
C2555 C2553 1.327 . S
C2556 C2544 1.349 . S
C2556 H2550 0.950 . S
C2556 C2557 1.327 . S
C2557 H2551 0.950 . S
C2557 C2556 1.327 . S
C2557 C2561 1.429 . S
C2558 C2541 1.574 . S
C2558 H2552 0.949 . S
C2558 C2562 1.368 . S
C2559 C2540 1.429 . S
C2559 C2553 1.429 1_556 S
C2559 C2560 1.523 . S
C2560 C2541 1.368 . S
C2560 C2554 1.368 . S
C2560 C2559 1.523 . S
C2561 C2545 1.429 . S
C2561 C2557 1.429 . S
C2561 C2562 1.523 . S
C2562 C2546 1.368 . S
C2562 C2558 1.368 . S
C2562 C2561 1.523 . S
H2563 C2538 0.950 . S
H2564 C2540 0.950 . S
H2565 C2541 0.953 1_554 S
H2566 C2543 0.950 . S
H2567 C2545 0.950 . S
C2568 C2569 1.349 . S
C2568 C2570 1.327 . S
C2568 H2593 0.950 . S
C2569 C2568 1.349 . S
C2569 C2585 1.349 1_556 S
C2570 C2568 1.327 . S
C2570 C2589 1.429 . S
C2570 H2594 0.950 . S
C2571 C2588 1.574 . S
C2571 C2590 1.368 . S
C2571 H2595 0.949 1_556 S
H2572 C2576 0.949 . S
C2573 C2574 1.349 . S
C2573 C2575 1.327 . S
C2573 H2596 0.950 . S
C2574 C2573 1.349 . S
C2574 C2586 1.349 . S
C2575 C2573 1.327 . S
C2575 C2591 1.429 . S
C2575 H2597 0.950 . S
C2576 H2572 0.949 . S
C2576 C2584 1.574 . S
C2576 C2592 1.368 . S
H2577 C2585 0.950 . S
H2578 C2583 0.950 . S
H2579 C2584 0.949 . S
H2580 C2586 0.950 . S
H2581 C2587 0.950 . S
H2582 C2588 0.949 . S
C2583 H2578 0.950 . S
C2583 C2585 1.327 . S
C2583 C2589 1.429 1_554 S
C2584 C2576 1.574 . S
C2584 H2579 0.949 . S
C2584 C2590 1.368 . S
C2585 C2569 1.349 1_554 S
C2585 H2577 0.950 . S
C2585 C2583 1.327 . S
C2586 C2574 1.349 . S
C2586 H2580 0.950 . S
C2586 C2587 1.327 . S
C2587 H2581 0.950 . S
C2587 C2586 1.327 . S
C2587 C2591 1.429 . S
C2588 C2571 1.574 . S
C2588 H2582 0.949 . S
C2588 C2592 1.368 . S
C2589 C2570 1.429 . S
C2589 C2583 1.429 1_556 S
C2589 C2590 1.523 . S
C2590 C2571 1.368 . S
C2590 C2584 1.368 . S
C2590 C2589 1.523 . S
C2591 C2575 1.429 . S
C2591 C2587 1.429 . S
C2591 C2592 1.523 . S
C2592 C2576 1.368 . S
C2592 C2588 1.368 . S
C2592 C2591 1.523 . S
H2593 C2568 0.950 . S
H2594 C2570 0.950 . S
H2595 C2571 0.949 1_554 S
H2596 C2573 0.950 . S
H2597 C2575 0.950 . S
C2598 C2599 1.349 . S
C2598 C2600 1.327 . S
C2598 H2623 0.950 . S
C2599 C2598 1.349 . S
C2599 C2615 1.349 1_556 S
C2600 C2598 1.327 . S
C2600 C2619 1.429 . S
C2600 H2624 0.950 . S
C2601 C2618 1.574 . S
C2601 C2620 1.368 . S
C2601 H2625 0.949 1_556 S
H2602 C2606 0.949 . S
C2603 C2604 1.349 . S
C2603 C2605 1.327 . S
C2603 H2626 0.950 . S
C2604 C2603 1.349 . S
C2604 C2616 1.349 . S
C2605 C2603 1.327 . S
C2605 C2621 1.429 . S
C2605 H2627 0.950 . S
C2606 H2602 0.949 . S
C2606 C2614 1.574 . S
C2606 C2622 1.368 . S
H2607 C2615 0.950 . S
H2608 C2613 0.950 . S
H2609 C2614 0.949 . S
H2610 C2616 0.950 . S
H2611 C2617 0.950 . S
H2612 C2618 0.949 . S
C2613 H2608 0.950 . S
C2613 C2615 1.327 . S
C2613 C2619 1.429 1_554 S
C2614 C2606 1.574 . S
C2614 H2609 0.949 . S
C2614 C2620 1.368 . S
C2615 C2599 1.349 1_554 S
C2615 H2607 0.950 . S
C2615 C2613 1.327 . S
C2616 C2604 1.349 . S
C2616 H2610 0.950 . S
C2616 C2617 1.327 . S
C2617 H2611 0.950 . S
C2617 C2616 1.327 . S
C2617 C2621 1.429 . S
C2618 C2601 1.574 . S
C2618 H2612 0.949 . S
C2618 C2622 1.368 . S
C2619 C2600 1.429 . S
C2619 C2613 1.429 1_556 S
C2619 C2620 1.523 . S
C2620 C2601 1.368 . S
C2620 C2614 1.368 . S
C2620 C2619 1.523 . S
C2621 C2605 1.429 . S
C2621 C2617 1.429 . S
C2621 C2622 1.523 . S
C2622 C2606 1.368 . S
C2622 C2618 1.368 . S
C2622 C2621 1.523 . S
H2623 C2598 0.950 . S
H2624 C2600 0.950 . S
H2625 C2601 0.949 1_554 S
H2626 C2603 0.950 . S
H2627 C2605 0.950 . S
C2628 C2629 1.349 . S
C2628 C2630 1.327 . S
C2628 H2653 0.950 . S
C2629 C2628 1.349 . S
C2629 C2645 1.349 1_556 S
C2630 C2628 1.327 . S
C2630 C2649 1.429 . S
C2630 H2654 0.950 . S
C2631 C2648 1.574 . S
C2631 C2650 1.368 . S
C2631 H2655 0.949 . S
H2632 C2636 0.949 . S
C2633 C2634 1.349 . S
C2633 C2635 1.327 . S
C2633 H2656 0.950 . S
C2634 C2633 1.349 . S
C2634 C2646 1.349 . S
C2635 C2633 1.327 . S
C2635 C2651 1.429 . S
C2635 H2657 0.950 . S
C2636 H2632 0.949 . S
C2636 C2644 1.574 . S
C2636 C2652 1.368 . S
H2637 C2645 0.950 . S
H2638 C2643 0.947 1_554 S
H2639 C2644 0.949 . S
H2640 C2646 0.950 . S
H2641 C2647 0.950 . S
H2642 C2648 0.949 . S
C2643 H2638 0.947 1_556 S
C2643 C2645 1.325 1_556 S
C2643 C2649 1.433 . S
C2644 C2636 1.574 . S
C2644 H2639 0.949 . S
C2644 C2650 1.368 . S
C2645 C2629 1.349 1_554 S
C2645 H2637 0.950 . S
C2645 C2643 1.325 1_554 S
C2646 C2634 1.349 . S
C2646 H2640 0.950 . S
C2646 C2647 1.327 . S
C2647 H2641 0.950 . S
C2647 C2646 1.327 . S
C2647 C2651 1.429 . S
C2648 C2631 1.574 . S
C2648 H2642 0.949 . S
C2648 C2652 1.368 . S
C2649 C2630 1.429 . S
C2649 C2643 1.433 . S
C2649 C2650 1.523 . S
C2650 C2631 1.368 . S
C2650 C2644 1.368 . S
C2650 C2649 1.523 . S
C2651 C2635 1.429 . S
C2651 C2647 1.429 . S
C2651 C2652 1.523 . S
C2652 C2636 1.368 . S
C2652 C2648 1.368 . S
C2652 C2651 1.523 . S
H2653 C2628 0.950 . S
H2654 C2630 0.950 . S
H2655 C2631 0.949 . S
H2656 C2633 0.950 . S
H2657 C2635 0.950 . S
C2658 C2659 1.349 . S
C2658 C2660 1.327 . S
C2658 H2683 0.950 . S
C2659 C2658 1.349 . S
C2659 C2675 1.349 1_556 S
C2660 C2658 1.327 . S
C2660 C2679 1.429 . S
C2660 H2684 0.950 . S
C2661 C2678 1.574 . S
C2661 C2680 1.368 . S
C2661 H2685 0.917 1_556 S
H2662 C2666 0.949 . S
C2663 C2664 1.349 . S
C2663 C2665 1.327 . S
C2663 H2686 0.950 . S
C2664 C2663 1.349 . S
C2664 C2676 1.349 . S
C2665 C2663 1.327 . S
C2665 C2681 1.429 . S
C2665 H2687 0.950 . S
C2666 H2662 0.949 . S
C2666 C2674 1.574 . S
C2666 C2682 1.368 . S
H2667 C2675 0.950 . S
H2668 C2673 0.950 . S
H2669 C2674 0.949 . S
H2670 C2676 0.950 . S
H2671 C2677 0.950 . S
H2672 C2678 0.949 . S
C2673 H2668 0.950 . S
C2673 C2675 1.327 . S
C2673 C2679 1.429 1_554 S
C2674 C2666 1.574 . S
C2674 H2669 0.949 . S
C2674 C2680 1.368 . S
C2675 C2659 1.349 1_554 S
C2675 H2667 0.950 . S
C2675 C2673 1.327 . S
C2676 C2664 1.349 . S
C2676 H2670 0.950 . S
C2676 C2677 1.327 . S
C2677 H2671 0.950 . S
C2677 C2676 1.327 . S
C2677 C2681 1.429 . S
C2678 C2661 1.574 . S
C2678 H2672 0.949 . S
C2678 C2682 1.368 . S
C2679 C2660 1.429 . S
C2679 C2673 1.429 1_556 S
C2679 C2680 1.523 . S
C2680 C2661 1.368 . S
C2680 C2674 1.368 . S
C2680 C2679 1.523 . S
C2681 C2665 1.429 . S
C2681 C2677 1.429 . S
C2681 C2682 1.523 . S
C2682 C2666 1.368 . S
C2682 C2678 1.368 . S
C2682 C2681 1.523 . S
H2683 C2658 0.950 . S
H2684 C2660 0.950 . S
H2685 C2661 0.917 1_554 S
H2686 C2663 0.950 . S
H2687 C2665 0.950 . S
C2688 C2689 1.349 1_556 S
C2688 C2690 1.327 . S
C2688 H2713 0.950 . S
C2689 C2688 1.349 1_554 S
C2689 C2705 1.349 . S
C2690 C2688 1.327 . S
C2690 C2709 1.429 . S
C2690 H2714 0.950 . S
C2691 C2708 1.574 . S
C2691 C2710 1.368 . S
C2691 H2715 0.949 1_556 S
H2692 C2696 0.949 . S
C2693 C2694 1.349 . S
C2693 C2695 1.327 . S
C2693 H2716 0.950 . S
C2694 C2693 1.349 . S
C2694 C2706 1.349 . S
C2695 C2693 1.327 . S
C2695 C2711 1.429 . S
C2695 H2717 0.950 . S
C2696 H2692 0.949 . S
C2696 C2704 1.574 . S
C2696 C2712 1.368 . S
H2697 C2705 0.950 . S
H2698 C2703 0.950 . S
H2699 C2704 0.949 . S
H2700 C2706 0.950 . S
H2701 C2707 0.950 . S
H2702 C2708 0.949 . S
C2703 H2698 0.950 . S
C2703 C2705 1.327 . S
C2703 C2709 1.429 1_554 S
C2704 C2696 1.574 . S
C2704 H2699 0.949 . S
C2704 C2710 1.368 . S
C2705 C2689 1.349 . S
C2705 H2697 0.950 . S
C2705 C2703 1.327 . S
C2706 C2694 1.349 . S
C2706 H2700 0.950 . S
C2706 C2707 1.327 . S
C2707 H2701 0.950 . S
C2707 C2706 1.327 . S
C2707 C2711 1.429 . S
C2708 C2691 1.574 . S
C2708 H2702 0.949 . S
C2708 C2712 1.368 . S
C2709 C2690 1.429 . S
C2709 C2703 1.429 1_556 S
C2709 C2710 1.523 . S
C2710 C2691 1.368 . S
C2710 C2704 1.368 . S
C2710 C2709 1.523 . S
C2711 C2695 1.429 . S
C2711 C2707 1.429 . S
C2711 C2712 1.523 . S
C2712 C2696 1.368 . S
C2712 C2708 1.368 . S
C2712 C2711 1.523 . S
H2713 C2688 0.950 . S
H2714 C2690 0.950 . S
H2715 C2691 0.949 1_554 S
H2716 C2693 0.950 . S
H2717 C2695 0.950 . S
C2718 C2719 1.349 . S
C2718 C2720 1.327 . S
C2718 H2743 0.950 . S
C2719 C2718 1.349 . S
C2719 C2735 1.349 . S
C2720 C2718 1.327 . S
C2720 C2739 1.429 . S
C2720 H2744 0.950 . S
C2721 C2738 1.574 . S
C2721 C2740 1.368 . S
C2721 H2745 0.949 . S
H2722 C2726 0.949 . S
C2723 C2724 1.349 . S
C2723 C2725 1.327 . S
C2723 H2746 0.950 . S
C2724 C2723 1.349 . S
C2724 C2736 1.349 . S
C2725 C2723 1.327 . S
C2725 C2741 1.429 . S
C2725 H2747 0.950 . S
C2726 H2722 0.949 . S
C2726 C2734 1.574 . S
C2726 C2742 1.368 . S
H2727 C2735 0.950 . S
H2728 C2733 0.950 . S
H2729 C2734 0.949 . S
H2730 C2736 0.950 . S
H2731 C2737 0.950 . S
H2732 C2738 0.949 . S
C2733 H2728 0.950 . S
C2733 C2735 1.327 . S
C2733 C2739 1.429 . S
C2734 C2726 1.574 . S
C2734 H2729 0.949 . S
C2734 C2740 1.368 . S
C2735 C2719 1.349 . S
C2735 H2727 0.950 . S
C2735 C2733 1.327 . S
C2736 C2724 1.349 . S
C2736 H2730 0.950 . S
C2736 C2737 1.327 . S
C2737 H2731 0.950 . S
C2737 C2736 1.327 . S
C2737 C2741 1.429 . S
C2738 C2721 1.574 . S
C2738 H2732 0.949 . S
C2738 C2742 1.368 . S
C2739 C2720 1.429 . S
C2739 C2733 1.429 . S
C2739 C2740 1.523 . S
C2740 C2721 1.368 . S
C2740 C2734 1.368 . S
C2740 C2739 1.523 . S
C2741 C2725 1.429 . S
C2741 C2737 1.429 . S
C2741 C2742 1.523 . S
C2742 C2726 1.368 . S
C2742 C2738 1.368 . S
C2742 C2741 1.523 . S
H2743 C2718 0.950 . S
H2744 C2720 0.950 . S
H2745 C2721 0.949 . S
H2746 C2723 0.950 . S
H2747 C2725 0.950 . S
C2748 C2749 1.349 . S
C2748 C2750 1.327 . S
C2748 H2773 0.950 . S
C2749 C2748 1.349 . S
C2749 C2765 1.349 . S
C2750 C2748 1.327 . S
C2750 C2769 1.429 . S
C2750 H2774 0.950 . S
C2751 C2768 1.574 . S
C2751 C2770 1.368 . S
C2751 H2775 0.949 . S
H2752 C2756 0.949 . S
C2753 C2754 1.349 . S
C2753 C2755 1.327 . S
C2753 H2776 0.950 . S
C2754 C2753 1.349 . S
C2754 C2766 1.349 . S
C2755 C2753 1.327 . S
C2755 C2771 1.429 . S
C2755 H2777 0.950 . S
C2756 H2752 0.949 . S
C2756 C2764 1.574 . S
C2756 C2772 1.368 . S
H2757 C2765 0.950 . S
H2758 C2763 0.950 . S
H2759 C2764 0.949 . S
H2760 C2766 0.950 . S
H2761 C2767 0.950 . S
H2762 C2768 0.949 . S
C2763 H2758 0.950 . S
C2763 C2765 1.327 . S
C2763 C2769 1.429 . S
C2764 C2756 1.574 . S
C2764 H2759 0.949 . S
C2764 C2770 1.368 . S
C2765 C2749 1.349 . S
C2765 H2757 0.950 . S
C2765 C2763 1.327 . S
C2766 C2754 1.349 . S
C2766 H2760 0.950 . S
C2766 C2767 1.327 . S
C2767 H2761 0.950 . S
C2767 C2766 1.327 . S
C2767 C2771 1.429 . S
C2768 C2751 1.574 . S
C2768 H2762 0.949 . S
C2768 C2772 1.368 . S
C2769 C2750 1.429 . S
C2769 C2763 1.429 . S
C2769 C2770 1.523 . S
C2770 C2751 1.368 . S
C2770 C2764 1.368 . S
C2770 C2769 1.523 . S
C2771 C2755 1.429 . S
C2771 C2767 1.429 . S
C2771 C2772 1.523 . S
C2772 C2756 1.368 . S
C2772 C2768 1.368 . S
C2772 C2771 1.523 . S
H2773 C2748 0.950 . S
H2774 C2750 0.950 . S
H2775 C2751 0.949 . S
H2776 C2753 0.950 . S
H2777 C2755 0.950 . S
C2778 C2779 1.349 . S
C2778 C2780 1.327 . S
C2778 H2803 0.950 . S
C2779 C2778 1.349 . S
C2779 C2795 1.349 . S
C2780 C2778 1.327 . S
C2780 C2799 1.429 . S
C2780 H2804 0.950 . S
C2781 C2798 1.574 . S
C2781 C2800 1.368 . S
C2781 H2805 0.949 . S
H2782 C2786 0.949 . S
C2783 C2784 1.349 . S
C2783 C2785 1.327 . S
C2783 H2806 0.950 . S
C2784 C2783 1.349 . S
C2784 C2796 1.349 . S
C2785 C2783 1.327 . S
C2785 C2801 1.429 . S
C2785 H2807 0.950 . S
C2786 H2782 0.949 . S
C2786 C2794 1.574 . S
C2786 C2802 1.368 . S
H2787 C2795 0.950 . S
H2788 C2793 0.950 . S
H2789 C2794 0.949 . S
H2790 C2796 0.950 . S
H2791 C2797 0.950 . S
H2792 C2798 0.949 . S
C2793 H2788 0.950 . S
C2793 C2795 1.327 . S
C2793 C2799 1.429 . S
C2794 C2786 1.574 . S
C2794 H2789 0.949 . S
C2794 C2800 1.368 . S
C2795 C2779 1.349 . S
C2795 H2787 0.950 . S
C2795 C2793 1.327 . S
C2796 C2784 1.349 . S
C2796 H2790 0.950 . S
C2796 C2797 1.327 . S
C2797 H2791 0.950 . S
C2797 C2796 1.327 . S
C2797 C2801 1.429 . S
C2798 C2781 1.574 . S
C2798 H2792 0.949 . S
C2798 C2802 1.368 . S
C2799 C2780 1.429 . S
C2799 C2793 1.429 . S
C2799 C2800 1.523 . S
C2800 C2781 1.368 . S
C2800 C2794 1.368 . S
C2800 C2799 1.523 . S
C2801 C2785 1.429 . S
C2801 C2797 1.429 . S
C2801 C2802 1.523 . S
C2802 C2786 1.368 . S
C2802 C2798 1.368 . S
C2802 C2801 1.523 . S
H2803 C2778 0.950 . S
H2804 C2780 0.950 . S
H2805 C2781 0.949 . S
H2806 C2783 0.950 . S
H2807 C2785 0.950 . S
C2808 C2809 1.349 . S
C2808 C2810 1.327 . S
C2808 H2833 0.950 . S
C2809 C2808 1.349 . S
C2809 C2825 1.349 . S
C2810 C2808 1.327 . S
C2810 C2829 1.429 . S
C2810 H2834 0.950 . S
C2811 C2828 1.574 . S
C2811 C2830 1.368 . S
C2811 H2835 0.949 . S
H2812 C2816 0.949 . S
C2813 C2814 1.349 . S
C2813 C2815 1.327 . S
C2813 H2836 0.950 . S
C2814 C2813 1.349 . S
C2814 C2826 1.349 . S
C2815 C2813 1.327 . S
C2815 C2831 1.429 . S
C2815 H2837 0.950 . S
C2816 H2812 0.949 . S
C2816 C2824 1.574 . S
C2816 C2832 1.368 . S
H2817 C2825 0.950 . S
H2818 C2823 0.950 . S
H2819 C2824 0.949 . S
H2820 C2826 0.950 . S
H2821 C2827 0.950 . S
H2822 C2828 0.949 . S
C2823 H2818 0.950 . S
C2823 C2825 1.327 . S
C2823 C2829 1.429 . S
C2824 C2816 1.574 . S
C2824 H2819 0.949 . S
C2824 C2830 1.368 . S
C2825 C2809 1.349 . S
C2825 H2817 0.950 . S
C2825 C2823 1.327 . S
C2826 C2814 1.349 . S
C2826 H2820 0.950 . S
C2826 C2827 1.327 . S
C2827 H2821 0.950 . S
C2827 C2826 1.327 . S
C2827 C2831 1.429 . S
C2828 C2811 1.574 . S
C2828 H2822 0.949 . S
C2828 C2832 1.368 . S
C2829 C2810 1.429 . S
C2829 C2823 1.429 . S
C2829 C2830 1.523 . S
C2830 C2811 1.368 . S
C2830 C2824 1.368 . S
C2830 C2829 1.523 . S
C2831 C2815 1.429 . S
C2831 C2827 1.429 . S
C2831 C2832 1.523 . S
C2832 C2816 1.368 . S
C2832 C2828 1.368 . S
C2832 C2831 1.523 . S
H2833 C2808 0.950 . S
H2834 C2810 0.950 . S
H2835 C2811 0.949 . S
H2836 C2813 0.950 . S
H2837 C2815 0.950 . S
C2838 C2839 1.349 . S
C2838 C2840 1.327 . S
C2838 H2863 0.950 . S
C2839 C2838 1.349 . S
C2839 C2855 1.349 . S
C2840 C2838 1.327 . S
C2840 C2859 1.429 . S
C2840 H2864 0.950 . S
C2841 C2858 1.574 . S
C2841 C2860 1.368 . S
C2841 H2865 0.949 . S
H2842 C2846 0.949 . S
C2843 C2844 1.349 . S
C2843 C2845 1.327 . S
C2843 H2866 0.950 . S
C2844 C2843 1.349 . S
C2844 C2856 1.349 . S
C2845 C2843 1.327 . S
C2845 C2861 1.429 . S
C2845 H2867 0.950 . S
C2846 H2842 0.949 . S
C2846 C2854 1.574 . S
C2846 C2862 1.368 . S
H2847 C2855 0.950 . S
H2848 C2853 0.950 . S
H2849 C2854 0.949 . S
H2850 C2856 0.950 . S
H2851 C2857 0.950 . S
H2852 C2858 0.949 . S
C2853 H2848 0.950 . S
C2853 C2855 1.327 . S
C2853 C2859 1.429 . S
C2854 C2846 1.574 . S
C2854 H2849 0.949 . S
C2854 C2860 1.368 . S
C2855 C2839 1.349 . S
C2855 H2847 0.950 . S
C2855 C2853 1.327 . S
C2856 C2844 1.349 . S
C2856 H2850 0.950 . S
C2856 C2857 1.327 . S
C2857 H2851 0.950 . S
C2857 C2856 1.327 . S
C2857 C2861 1.429 . S
C2858 C2841 1.574 . S
C2858 H2852 0.949 . S
C2858 C2862 1.368 . S
C2859 C2840 1.429 . S
C2859 C2853 1.429 . S
C2859 C2860 1.523 . S
C2860 C2841 1.368 . S
C2860 C2854 1.368 . S
C2860 C2859 1.523 . S
C2861 C2845 1.429 . S
C2861 C2857 1.429 . S
C2861 C2862 1.523 . S
C2862 C2846 1.368 . S
C2862 C2858 1.368 . S
C2862 C2861 1.523 . S
H2863 C2838 0.950 . S
H2864 C2840 0.950 . S
H2865 C2841 0.949 . S
H2866 C2843 0.950 . S
H2867 C2845 0.950 . S
C2868 C2869 1.349 . S
C2868 C2870 1.327 . S
C2868 H2893 0.950 . S
C2869 C2868 1.349 . S
C2869 C2885 1.349 . S
C2870 C2868 1.327 . S
C2870 C2889 1.429 . S
C2870 H2894 0.950 . S
C2871 C2888 1.574 . S
C2871 C2890 1.368 . S
C2871 H2895 0.949 . S
H2872 C2876 0.949 . S
C2873 C2874 1.349 . S
C2873 C2875 1.327 . S
C2873 H2896 0.950 . S
C2874 C2873 1.349 . S
C2874 C2886 1.349 . S
C2875 C2873 1.327 . S
C2875 C2891 1.429 . S
C2875 H2897 0.950 . S
C2876 H2872 0.949 . S
C2876 C2884 1.574 . S
C2876 C2892 1.368 . S
H2877 C2885 0.950 . S
H2878 C2883 0.950 . S
H2879 C2884 0.949 . S
H2880 C2886 0.950 . S
H2881 C2887 0.950 . S
H2882 C2888 0.949 . S
C2883 H2878 0.950 . S
C2883 C2885 1.327 . S
C2883 C2889 1.429 . S
C2884 C2876 1.574 . S
C2884 H2879 0.949 . S
C2884 C2890 1.368 . S
C2885 C2869 1.349 . S
C2885 H2877 0.950 . S
C2885 C2883 1.327 . S
C2886 C2874 1.349 . S
C2886 H2880 0.950 . S
C2886 C2887 1.327 . S
C2887 H2881 0.950 . S
C2887 C2886 1.327 . S
C2887 C2891 1.429 . S
C2888 C2871 1.574 . S
C2888 H2882 0.949 . S
C2888 C2892 1.368 . S
C2889 C2870 1.429 . S
C2889 C2883 1.429 . S
C2889 C2890 1.523 . S
C2890 C2871 1.368 . S
C2890 C2884 1.368 . S
C2890 C2889 1.523 . S
C2891 C2875 1.429 . S
C2891 C2887 1.429 . S
C2891 C2892 1.523 . S
C2892 C2876 1.368 . S
C2892 C2888 1.368 . S
C2892 C2891 1.523 . S
H2893 C2868 0.950 . S
H2894 C2870 0.950 . S
H2895 C2871 0.949 . S
H2896 C2873 0.950 . S
H2897 C2875 0.950 . S
C2898 C2899 1.349 . S
C2898 C2900 1.327 . S
C2898 H2923 0.950 . S
C2899 C2898 1.349 . S
C2899 C2915 1.349 . S
C2900 C2898 1.327 . S
C2900 C2919 1.429 . S
C2900 H2924 0.950 . S
C2901 C2918 1.574 . S
C2901 C2920 1.368 . S
C2901 H2925 0.949 . S
H2902 C2906 0.949 . S
C2903 C2904 1.349 1_655 S
C2903 C2905 1.267 1_655 S
C2903 H2926 0.950 . S
C2904 C2903 1.349 1_455 S
C2904 C2916 1.349 . S
C2905 C2903 1.267 1_455 S
C2905 C2921 1.503 . S
C2905 H2927 0.945 1_455 S
C2906 H2902 0.949 . S
C2906 C2914 1.574 . S
C2906 C2922 1.368 . S
H2907 C2915 0.950 . S
H2908 C2913 0.950 . S
H2909 C2914 0.949 . S
H2910 C2916 0.950 . S
H2911 C2917 0.950 . S
H2912 C2918 0.885 1_655 S
C2913 H2908 0.950 . S
C2913 C2915 1.327 . S
C2913 C2919 1.429 . S
C2914 C2906 1.574 . S
C2914 H2909 0.949 . S
C2914 C2920 1.368 . S
C2915 C2899 1.349 . S
C2915 H2907 0.950 . S
C2915 C2913 1.327 . S
C2916 C2904 1.349 . S
C2916 H2910 0.950 . S
C2916 C2917 1.327 . S
C2917 H2911 0.950 . S
C2917 C2916 1.327 . S
C2917 C2921 1.429 . S
C2918 C2901 1.574 . S
C2918 H2912 0.885 1_455 S
C2918 C2922 1.368 . S
C2919 C2900 1.429 . S
C2919 C2913 1.429 . S
C2919 C2920 1.523 . S
C2920 C2901 1.368 . S
C2920 C2914 1.368 . S
C2920 C2919 1.523 . S
C2921 C2905 1.503 . S
C2921 C2917 1.429 . S
C2921 C2922 1.523 . S
C2922 C2906 1.368 . S
C2922 C2918 1.368 . S
C2922 C2921 1.523 . S
H2923 C2898 0.950 . S
H2924 C2900 0.950 . S
H2925 C2901 0.949 . S
H2926 C2903 0.950 . S
H2927 C2905 0.945 1_655 S
C2928 C2929 1.349 . S
C2928 C2930 1.327 . S
C2928 H2953 0.950 . S
C2929 C2928 1.349 . S
C2929 C2945 1.349 . S
C2930 C2928 1.327 . S
C2930 C2949 1.429 . S
C2930 H2954 0.950 . S
C2931 C2948 1.574 . S
C2931 C2950 1.368 . S
C2931 H2955 0.949 . S
H2932 C2936 0.949 . S
C2933 C2934 1.349 . S
C2933 C2935 1.327 . S
C2933 H2956 0.950 . S
C2934 C2933 1.349 . S
C2934 C2946 1.349 . S
C2935 C2933 1.327 . S
C2935 C2951 1.429 . S
C2935 H2957 0.950 . S
C2936 H2932 0.949 . S
C2936 C2944 1.574 . S
C2936 C2952 1.368 . S
H2937 C2945 0.950 . S
H2938 C2943 0.950 . S
H2939 C2944 0.949 . S
H2940 C2946 0.950 . S
H2941 C2947 0.950 . S
H2942 C2948 0.949 . S
C2943 H2938 0.950 . S
C2943 C2945 1.327 . S
C2943 C2949 1.429 . S
C2944 C2936 1.574 . S
C2944 H2939 0.949 . S
C2944 C2950 1.368 . S
C2945 C2929 1.349 . S
C2945 H2937 0.950 . S
C2945 C2943 1.327 . S
C2946 C2934 1.349 . S
C2946 H2940 0.950 . S
C2946 C2947 1.327 . S
C2947 H2941 0.950 . S
C2947 C2946 1.327 . S
C2947 C2951 1.429 . S
C2948 C2931 1.574 . S
C2948 H2942 0.949 . S
C2948 C2952 1.368 . S
C2949 C2930 1.429 . S
C2949 C2943 1.429 . S
C2949 C2950 1.523 . S
C2950 C2931 1.368 . S
C2950 C2944 1.368 . S
C2950 C2949 1.523 . S
C2951 C2935 1.429 . S
C2951 C2947 1.429 . S
C2951 C2952 1.523 . S
C2952 C2936 1.368 . S
C2952 C2948 1.368 . S
C2952 C2951 1.523 . S
H2953 C2928 0.950 . S
H2954 C2930 0.950 . S
H2955 C2931 0.949 . S
H2956 C2933 0.950 . S
H2957 C2935 0.950 . S
C2958 C2959 1.349 . S
C2958 C2960 1.327 . S
C2958 H2983 0.950 . S
C2959 C2958 1.349 . S
C2959 C2975 1.349 . S
C2960 C2958 1.327 . S
C2960 C2979 1.429 . S
C2960 H2984 0.950 . S
C2961 C2978 1.574 . S
C2961 C2980 1.368 . S
C2961 H2985 0.949 . S
H2962 C2966 0.949 . S
C2963 C2964 1.349 . S
C2963 C2965 1.327 . S
C2963 H2986 0.950 . S
C2964 C2963 1.349 . S
C2964 C2976 1.390 . S
C2965 C2963 1.327 . S
C2965 C2981 1.429 . S
C2965 H2987 0.950 . S
C2966 H2962 0.949 . S
C2966 C2974 1.574 . S
C2966 C2982 1.368 . S
H2967 C2975 0.950 . S
H2968 C2973 0.950 . S
H2969 C2974 0.949 . S
H2970 C2976 0.943 1_545 S
H2971 C2977 0.950 1_545 S
H2972 C2978 0.949 . S
C2973 H2968 0.950 . S
C2973 C2975 1.327 . S
C2973 C2979 1.429 . S
C2974 C2966 1.574 . S
C2974 H2969 0.949 . S
C2974 C2980 1.368 . S
C2975 C2959 1.349 . S
C2975 H2967 0.950 . S
C2975 C2973 1.327 . S
C2976 C2964 1.390 . S
C2976 H2970 0.943 1_565 S
C2976 C2977 1.301 . S
C2977 H2971 0.950 1_565 S
C2977 C2976 1.301 . S
C2977 C2981 1.429 . S
C2978 C2961 1.574 . S
C2978 H2972 0.949 . S
C2978 C2982 1.368 . S
C2979 C2960 1.429 . S
C2979 C2973 1.429 . S
C2979 C2980 1.523 . S
C2980 C2961 1.368 . S
C2980 C2974 1.368 . S
C2980 C2979 1.523 . S
C2981 C2965 1.429 . S
C2981 C2977 1.429 . S
C2981 C2982 1.523 . S
C2982 C2966 1.368 . S
C2982 C2978 1.368 . S
C2982 C2981 1.523 . S
H2983 C2958 0.950 . S
H2984 C2960 0.950 . S
H2985 C2961 0.949 . S
H2986 C2963 0.950 . S
H2987 C2965 0.950 . S
C2988 C2989 1.349 . S
C2988 C2990 1.327 . S
C2988 H3013 0.950 . S
C2989 C2988 1.349 . S
C2989 C3005 1.349 . S
C2990 C2988 1.327 . S
C2990 C3009 1.429 . S
C2990 H3014 0.950 . S
C2991 C3008 1.574 . S
C2991 C3010 1.368 . S
C2991 H3015 0.949 . S
H2992 C2996 0.949 1_545 S
C2993 C2994 1.349 . S
C2993 C2995 1.327 . S
C2993 H3016 0.950 . S
C2994 C2993 1.349 . S
C2994 C3006 1.349 1_565 S
C2995 C2993 1.327 . S
C2995 C3011 1.429 . S
C2995 H3017 0.950 . S
C2996 H2992 0.949 1_565 S
C2996 C3004 1.574 . S
C2996 C3012 1.368 . S
H2997 C3005 0.950 . S
H2998 C3003 0.950 . S
H2999 C3004 0.949 1_545 S
H3000 C3006 0.950 . S
H3001 C3007 0.950 . S
H3002 C3008 0.949 . S
C3003 H2998 0.950 . S
C3003 C3005 1.327 . S
C3003 C3009 1.429 . S
C3004 C2996 1.574 . S
C3004 H2999 0.949 1_565 S
C3004 C3010 1.368 . S
C3005 C2989 1.349 . S
C3005 H2997 0.950 . S
C3005 C3003 1.327 . S
C3006 C2994 1.349 1_545 S
C3006 H3000 0.950 . S
C3006 C3007 1.327 . S
C3007 H3001 0.950 . S
C3007 C3006 1.327 . S
C3007 C3011 1.429 1_545 S
C3008 C2991 1.574 . S
C3008 H3002 0.949 . S
C3008 C3012 1.368 . S
C3009 C2990 1.429 . S
C3009 C3003 1.429 . S
C3009 C3010 1.523 . S
C3010 C2991 1.368 . S
C3010 C3004 1.368 . S
C3010 C3009 1.523 . S
C3011 C2995 1.429 . S
C3011 C3007 1.429 1_565 S
C3011 C3012 1.523 . S
C3012 C2996 1.368 . S
C3012 C3008 1.368 . S
C3012 C3011 1.523 . S
H3013 C2988 0.950 . S
H3014 C2990 0.950 . S
H3015 C2991 0.949 . S
H3016 C2993 0.950 . S
H3017 C2995 0.950 . S
C3018 C3019 1.349 . S
C3018 C3020 1.327 . S
C3018 H3043 0.950 . S
C3019 C3018 1.349 . S
C3019 C3035 1.349 . S
C3020 C3018 1.327 . S
C3020 C3039 1.429 . S
C3020 H3044 0.950 . S
C3021 C3038 1.574 . S
C3021 C3040 1.368 . S
C3021 H3045 0.949 . S
H3022 C3026 0.949 . S
C3023 C3024 1.349 1_655 S
C3023 C3025 1.340 1_655 S
C3023 H3046 0.950 . S
C3024 C3023 1.349 1_455 S
C3024 C3036 1.349 . S
C3025 C3023 1.340 1_455 S
C3025 C3041 1.444 . S
C3025 H3047 0.922 1_455 S
C3026 H3022 0.949 . S
C3026 C3034 1.574 . S
C3026 C3042 1.368 . S
H3027 C3035 0.950 . S
H3028 C3033 0.950 . S
H3029 C3034 0.949 . S
H3030 C3036 0.950 . S
H3031 C3037 0.950 . S
H3032 C3038 0.949 1_655 S
C3033 H3028 0.950 . S
C3033 C3035 1.327 . S
C3033 C3039 1.429 . S
C3034 C3026 1.574 . S
C3034 H3029 0.949 . S
C3034 C3040 1.368 . S
C3035 C3019 1.349 . S
C3035 H3027 0.950 . S
C3035 C3033 1.327 . S
C3036 C3024 1.349 . S
C3036 H3030 0.950 . S
C3036 C3037 1.327 . S
C3037 H3031 0.950 . S
C3037 C3036 1.327 . S
C3037 C3041 1.429 . S
C3038 C3021 1.574 . S
C3038 H3032 0.949 1_455 S
C3038 C3042 1.368 . S
C3039 C3020 1.429 . S
C3039 C3033 1.429 . S
C3039 C3040 1.523 . S
C3040 C3021 1.368 . S
C3040 C3034 1.368 . S
C3040 C3039 1.523 . S
C3041 C3025 1.444 . S
C3041 C3037 1.429 . S
C3041 C3042 1.523 . S
C3042 C3026 1.368 . S
C3042 C3038 1.368 . S
C3042 C3041 1.523 . S
H3043 C3018 0.950 . S
H3044 C3020 0.950 . S
H3045 C3021 0.949 . S
H3046 C3023 0.950 . S
H3047 C3025 0.922 1_655 S
C3048 C3049 1.349 . S
C3048 C3050 1.327 . S
C3048 H3073 0.950 . S
C3049 C3048 1.349 . S
C3049 C3065 1.349 . S
C3050 C3048 1.327 . S
C3050 C3069 1.429 . S
C3050 H3074 0.950 . S
C3051 C3068 1.574 . S
C3051 C3070 1.368 . S
C3051 H3075 0.949 . S
H3052 C3056 0.949 . S
C3053 C3054 1.349 . S
C3053 C3055 1.327 . S
C3053 H3076 0.950 . S
C3054 C3053 1.349 . S
C3054 C3066 1.349 . S
C3055 C3053 1.327 . S
C3055 C3071 1.429 . S
C3055 H3077 0.950 . S
C3056 H3052 0.949 . S
C3056 C3064 1.574 . S
C3056 C3072 1.368 . S
H3057 C3065 0.950 . S
H3058 C3063 0.950 . S
H3059 C3064 0.949 . S
H3060 C3066 0.950 . S
H3061 C3067 0.950 . S
H3062 C3068 0.949 . S
C3063 H3058 0.950 . S
C3063 C3065 1.327 . S
C3063 C3069 1.429 . S
C3064 C3056 1.574 . S
C3064 H3059 0.949 . S
C3064 C3070 1.368 . S
C3065 C3049 1.349 . S
C3065 H3057 0.950 . S
C3065 C3063 1.327 . S
C3066 C3054 1.349 . S
C3066 H3060 0.950 . S
C3066 C3067 1.327 . S
C3067 H3061 0.950 . S
C3067 C3066 1.327 . S
C3067 C3071 1.429 . S
C3068 C3051 1.574 . S
C3068 H3062 0.949 . S
C3068 C3072 1.368 . S
C3069 C3050 1.429 . S
C3069 C3063 1.429 . S
C3069 C3070 1.523 . S
C3070 C3051 1.368 . S
C3070 C3064 1.368 . S
C3070 C3069 1.523 . S
C3071 C3055 1.429 . S
C3071 C3067 1.429 . S
C3071 C3072 1.523 . S
C3072 C3056 1.368 . S
C3072 C3068 1.368 . S
C3072 C3071 1.523 . S
H3073 C3048 0.950 . S
H3074 C3050 0.950 . S
H3075 C3051 0.949 . S
H3076 C3053 0.950 . S
H3077 C3055 0.950 . S
C3078 C3079 1.349 . S
C3078 C3080 1.327 . S
C3078 H3103 0.950 . S
C3079 C3078 1.349 . S
C3079 C3095 1.349 . S
C3080 C3078 1.327 . S
C3080 C3099 1.429 . S
C3080 H3104 0.950 . S
C3081 C3098 1.574 . S
C3081 C3100 1.368 . S
C3081 H3105 0.949 . S
H3082 C3086 0.949 . S
C3083 C3084 1.349 . S
C3083 C3085 1.327 . S
C3083 H3106 0.950 . S
C3084 C3083 1.349 . S
C3084 C3096 1.349 . S
C3085 C3083 1.327 . S
C3085 C3101 1.429 . S
C3085 H3107 0.950 . S
C3086 H3082 0.949 . S
C3086 C3094 1.574 . S
C3086 C3102 1.368 . S
H3087 C3095 0.950 . S
H3088 C3093 0.950 . S
H3089 C3094 0.949 . S
H3090 C3096 0.950 . S
H3091 C3097 0.950 . S
H3092 C3098 0.949 . S
C3093 H3088 0.950 . S
C3093 C3095 1.327 . S
C3093 C3099 1.429 . S
C3094 C3086 1.574 . S
C3094 H3089 0.949 . S
C3094 C3100 1.368 . S
C3095 C3079 1.349 . S
C3095 H3087 0.950 . S
C3095 C3093 1.327 . S
C3096 C3084 1.349 . S
C3096 H3090 0.950 . S
C3096 C3097 1.327 . S
C3097 H3091 0.950 . S
C3097 C3096 1.327 . S
C3097 C3101 1.429 . S
C3098 C3081 1.574 . S
C3098 H3092 0.949 . S
C3098 C3102 1.368 . S
C3099 C3080 1.429 . S
C3099 C3093 1.429 . S
C3099 C3100 1.523 . S
C3100 C3081 1.368 . S
C3100 C3094 1.368 . S
C3100 C3099 1.523 . S
C3101 C3085 1.429 . S
C3101 C3097 1.429 . S
C3101 C3102 1.523 . S
C3102 C3086 1.368 . S
C3102 C3098 1.368 . S
C3102 C3101 1.523 . S
H3103 C3078 0.950 . S
H3104 C3080 0.950 . S
H3105 C3081 0.949 . S
H3106 C3083 0.950 . S
H3107 C3085 0.950 . S
C3108 C3109 1.349 . S
C3108 C3110 1.327 . S
C3108 H3133 0.950 . S
C3109 C3108 1.349 . S
C3109 C3125 1.349 . S
C3110 C3108 1.327 . S
C3110 C3129 1.429 . S
C3110 H3134 0.950 . S
C3111 C3128 1.574 . S
C3111 C3130 1.368 . S
C3111 H3135 0.949 . S
H3112 C3116 0.949 . S
C3113 C3114 1.349 . S
C3113 C3115 1.327 . S
C3113 H3136 0.950 . S
C3114 C3113 1.349 . S
C3114 C3126 1.349 . S
C3115 C3113 1.327 . S
C3115 C3131 1.429 . S
C3115 H3137 0.950 . S
C3116 H3112 0.949 . S
C3116 C3124 1.574 . S
C3116 C3132 1.368 . S
H3117 C3125 0.950 . S
H3118 C3123 0.950 . S
H3119 C3124 0.949 . S
H3120 C3126 0.950 . S
H3121 C3127 0.950 . S
H3122 C3128 0.949 . S
C3123 H3118 0.950 . S
C3123 C3125 1.327 . S
C3123 C3129 1.429 . S
C3124 C3116 1.574 . S
C3124 H3119 0.949 . S
C3124 C3130 1.368 . S
C3125 C3109 1.349 . S
C3125 H3117 0.950 . S
C3125 C3123 1.327 . S
C3126 C3114 1.349 . S
C3126 H3120 0.950 . S
C3126 C3127 1.327 . S
C3127 H3121 0.950 . S
C3127 C3126 1.327 . S
C3127 C3131 1.429 . S
C3128 C3111 1.574 . S
C3128 H3122 0.949 . S
C3128 C3132 1.368 . S
C3129 C3110 1.429 . S
C3129 C3123 1.429 . S
C3129 C3130 1.523 . S
C3130 C3111 1.368 . S
C3130 C3124 1.368 . S
C3130 C3129 1.523 . S
C3131 C3115 1.429 . S
C3131 C3127 1.429 . S
C3131 C3132 1.523 . S
C3132 C3116 1.368 . S
C3132 C3128 1.368 . S
C3132 C3131 1.523 . S
H3133 C3108 0.950 . S
H3134 C3110 0.950 . S
H3135 C3111 0.949 . S
H3136 C3113 0.950 . S
H3137 C3115 0.950 . S
C3138 C3139 1.349 . S
C3138 C3140 1.327 . S
C3138 H3163 0.950 . S
C3139 C3138 1.349 . S
C3139 C3155 1.349 . S
C3140 C3138 1.327 . S
C3140 C3159 1.429 . S
C3140 H3164 0.950 . S
C3141 C3158 1.574 . S
C3141 C3160 1.368 . S
C3141 H3165 0.949 . S
H3142 C3146 0.949 . S
C3143 C3144 1.349 . S
C3143 C3145 1.327 . S
C3143 H3166 0.950 . S
C3144 C3143 1.349 . S
C3144 C3156 1.349 . S
C3145 C3143 1.327 . S
C3145 C3161 1.429 . S
C3145 H3167 0.950 . S
C3146 H3142 0.949 . S
C3146 C3154 1.574 . S
C3146 C3162 1.368 . S
H3147 C3155 0.950 . S
H3148 C3153 0.950 . S
H3149 C3154 0.949 . S
H3150 C3156 0.950 . S
H3151 C3157 0.950 . S
H3152 C3158 0.949 . S
C3153 H3148 0.950 . S
C3153 C3155 1.327 . S
C3153 C3159 1.429 . S
C3154 C3146 1.574 . S
C3154 H3149 0.949 . S
C3154 C3160 1.368 . S
C3155 C3139 1.349 . S
C3155 H3147 0.950 . S
C3155 C3153 1.327 . S
C3156 C3144 1.349 . S
C3156 H3150 0.950 . S
C3156 C3157 1.327 . S
C3157 H3151 0.950 . S
C3157 C3156 1.327 . S
C3157 C3161 1.429 . S
C3158 C3141 1.574 . S
C3158 H3152 0.949 . S
C3158 C3162 1.368 . S
C3159 C3140 1.429 . S
C3159 C3153 1.429 . S
C3159 C3160 1.523 . S
C3160 C3141 1.368 . S
C3160 C3154 1.368 . S
C3160 C3159 1.523 . S
C3161 C3145 1.429 . S
C3161 C3157 1.429 . S
C3161 C3162 1.523 . S
C3162 C3146 1.368 . S
C3162 C3158 1.368 . S
C3162 C3161 1.523 . S
H3163 C3138 0.950 . S
H3164 C3140 0.950 . S
H3165 C3141 0.949 . S
H3166 C3143 0.950 . S
H3167 C3145 0.950 . S
C3168 C3169 1.349 . S
C3168 C3170 1.327 . S
C3168 H3193 0.950 . S
C3169 C3168 1.349 . S
C3169 C3185 1.349 . S
C3170 C3168 1.327 . S
C3170 C3189 1.429 . S
C3170 H3194 0.950 . S
C3171 C3188 1.574 . S
C3171 C3190 1.368 . S
C3171 H3195 0.949 . S
H3172 C3176 0.949 1_565 S
C3173 C3174 1.349 . S
C3173 C3175 1.327 . S
C3173 H3196 0.950 . S
C3174 C3173 1.349 . S
C3174 C3186 1.349 1_545 S
C3175 C3173 1.327 . S
C3175 C3191 1.429 . S
C3175 H3197 0.950 . S
C3176 H3172 0.949 1_545 S
C3176 C3184 1.574 . S
C3176 C3192 1.368 . S
H3177 C3185 0.950 . S
H3178 C3183 0.950 . S
H3179 C3184 0.949 . S
H3180 C3186 0.950 . S
H3181 C3187 0.946 . S
H3182 C3188 0.949 . S
C3183 H3178 0.950 . S
C3183 C3185 1.327 . S
C3183 C3189 1.429 . S
C3184 C3176 1.574 . S
C3184 H3179 0.949 . S
C3184 C3190 1.368 . S
C3185 C3169 1.349 . S
C3185 H3177 0.950 . S
C3185 C3183 1.327 . S
C3186 C3174 1.349 1_565 S
C3186 H3180 0.950 . S
C3186 C3187 1.321 . S
C3187 H3181 0.946 . S
C3187 C3186 1.321 . S
C3187 C3191 1.438 1_565 S
C3188 C3171 1.574 . S
C3188 H3182 0.949 . S
C3188 C3192 1.368 . S
C3189 C3170 1.429 . S
C3189 C3183 1.429 . S
C3189 C3190 1.523 . S
C3190 C3171 1.368 . S
C3190 C3184 1.368 . S
C3190 C3189 1.523 . S
C3191 C3175 1.429 . S
C3191 C3187 1.438 1_545 S
C3191 C3192 1.523 . S
C3192 C3176 1.368 . S
C3192 C3188 1.368 . S
C3192 C3191 1.523 . S
H3193 C3168 0.950 . S
H3194 C3170 0.950 . S
H3195 C3171 0.949 . S
H3196 C3173 0.950 . S
H3197 C3175 0.950 . S
C3198 C3199 1.349 . S
C3198 C3200 1.327 . S
C3198 H3223 0.950 . S
C3199 C3198 1.349 . S
C3199 C3215 1.349 . S
C3200 C3198 1.327 . S
C3200 C3219 1.429 . S
C3200 H3224 0.950 . S
C3201 C3218 1.574 . S
C3201 C3220 1.368 . S
C3201 H3225 0.949 . S
H3202 C3206 0.949 1_455 S
C3203 C3204 1.349 . S
C3203 C3205 1.327 . S
C3203 H3226 0.950 . S
C3204 C3203 1.349 . S
C3204 C3216 1.349 1_655 S
C3205 C3203 1.327 . S
C3205 C3221 1.429 . S
C3205 H3227 0.950 . S
C3206 H3202 0.949 1_655 S
C3206 C3214 1.574 . S
C3206 C3222 1.368 . S
H3207 C3215 0.950 . S
H3208 C3213 0.950 . S
H3209 C3214 0.949 1_455 S
H3210 C3216 0.950 . S
H3211 C3217 0.950 . S
H3212 C3218 0.949 . S
C3213 H3208 0.950 . S
C3213 C3215 1.327 . S
C3213 C3219 1.429 . S
C3214 C3206 1.574 . S
C3214 H3209 0.949 1_655 S
C3214 C3220 1.368 . S
C3215 C3199 1.349 . S
C3215 H3207 0.950 . S
C3215 C3213 1.327 . S
C3216 C3204 1.349 1_455 S
C3216 H3210 0.950 . S
C3216 C3217 1.327 . S
C3217 H3211 0.950 . S
C3217 C3216 1.327 . S
C3217 C3221 1.429 1_455 S
C3218 C3201 1.574 . S
C3218 H3212 0.949 . S
C3218 C3222 1.368 . S
C3219 C3200 1.429 . S
C3219 C3213 1.429 . S
C3219 C3220 1.523 . S
C3220 C3201 1.368 . S
C3220 C3214 1.368 . S
C3220 C3219 1.523 . S
C3221 C3205 1.429 . S
C3221 C3217 1.429 1_655 S
C3221 C3222 1.523 . S
C3222 C3206 1.368 . S
C3222 C3218 1.368 . S
C3222 C3221 1.523 . S
H3223 C3198 0.950 . S
H3224 C3200 0.950 . S
H3225 C3201 0.949 . S
H3226 C3203 0.950 . S
H3227 C3205 0.950 . S
C3228 C3229 1.349 . S
C3228 C3230 1.327 . S
C3228 H3253 0.950 . S
C3229 C3228 1.349 . S
C3229 C3245 1.349 . S
C3230 C3228 1.327 . S
C3230 C3249 1.429 . S
C3230 H3254 0.950 . S
C3231 C3248 1.574 . S
C3231 C3250 1.368 . S
C3231 H3255 0.949 . S
H3232 C3236 0.949 . S
C3233 C3234 1.349 . S
C3233 C3235 1.327 . S
C3233 H3256 0.950 . S
C3234 C3233 1.349 . S
C3234 C3246 1.349 . S
C3235 C3233 1.327 . S
C3235 C3251 1.429 . S
C3235 H3257 0.950 . S
C3236 H3232 0.949 . S
C3236 C3244 1.574 . S
C3236 C3252 1.368 . S
H3237 C3245 0.950 . S
H3238 C3243 0.950 . S
H3239 C3244 0.949 . S
H3240 C3246 0.950 . S
H3241 C3247 0.950 . S
H3242 C3248 0.949 . S
C3243 H3238 0.950 . S
C3243 C3245 1.327 . S
C3243 C3249 1.429 . S
C3244 C3236 1.574 . S
C3244 H3239 0.949 . S
C3244 C3250 1.368 . S
C3245 C3229 1.349 . S
C3245 H3237 0.950 . S
C3245 C3243 1.327 . S
C3246 C3234 1.349 . S
C3246 H3240 0.950 . S
C3246 C3247 1.327 . S
C3247 H3241 0.950 . S
C3247 C3246 1.327 . S
C3247 C3251 1.429 . S
C3248 C3231 1.574 . S
C3248 H3242 0.949 . S
C3248 C3252 1.368 . S
C3249 C3230 1.429 . S
C3249 C3243 1.429 . S
C3249 C3250 1.523 . S
C3250 C3231 1.368 . S
C3250 C3244 1.368 . S
C3250 C3249 1.523 . S
C3251 C3235 1.429 . S
C3251 C3247 1.429 . S
C3251 C3252 1.523 . S
C3252 C3236 1.368 . S
C3252 C3248 1.368 . S
C3252 C3251 1.523 . S
H3253 C3228 0.950 . S
H3254 C3230 0.950 . S
H3255 C3231 0.949 . S
H3256 C3233 0.950 . S
H3257 C3235 0.950 . S
C3258 C3259 1.349 . S
C3258 C3260 1.327 . S
C3258 H3283 0.950 . S
C3259 C3258 1.349 . S
C3259 C3275 1.349 . S
C3260 C3258 1.327 . S
C3260 C3279 1.429 . S
C3260 H3284 0.950 . S
C3261 C3278 1.574 . S
C3261 C3280 1.368 . S
C3261 H3285 0.949 . S
H3262 C3266 0.949 . S
C3263 C3264 1.349 . S
C3263 C3265 1.327 . S
C3263 H3286 0.950 . S
C3264 C3263 1.349 . S
C3264 C3276 1.349 . S
C3265 C3263 1.327 . S
C3265 C3281 1.429 . S
C3265 H3287 0.950 . S
C3266 H3262 0.949 . S
C3266 C3274 1.574 . S
C3266 C3282 1.368 . S
H3267 C3275 0.950 . S
H3268 C3273 0.950 . S
H3269 C3274 0.949 . S
H3270 C3276 0.950 . S
H3271 C3277 0.950 . S
H3272 C3278 0.949 . S
C3273 H3268 0.950 . S
C3273 C3275 1.327 . S
C3273 C3279 1.429 . S
C3274 C3266 1.574 . S
C3274 H3269 0.949 . S
C3274 C3280 1.368 . S
C3275 C3259 1.349 . S
C3275 H3267 0.950 . S
C3275 C3273 1.327 . S
C3276 C3264 1.349 . S
C3276 H3270 0.950 . S
C3276 C3277 1.327 . S
C3277 H3271 0.950 . S
C3277 C3276 1.327 . S
C3277 C3281 1.429 . S
C3278 C3261 1.574 . S
C3278 H3272 0.949 . S
C3278 C3282 1.368 . S
C3279 C3260 1.429 . S
C3279 C3273 1.429 . S
C3279 C3280 1.523 . S
C3280 C3261 1.368 . S
C3280 C3274 1.368 . S
C3280 C3279 1.523 . S
C3281 C3265 1.429 . S
C3281 C3277 1.429 . S
C3281 C3282 1.523 . S
C3282 C3266 1.368 . S
C3282 C3278 1.368 . S
C3282 C3281 1.523 . S
H3283 C3258 0.950 . S
H3284 C3260 0.950 . S
H3285 C3261 0.949 . S
H3286 C3263 0.950 . S
H3287 C3265 0.950 . S
C3288 C3289 1.349 . S
C3288 C3290 1.327 . S
C3288 H3313 0.950 . S
C3289 C3288 1.349 . S
C3289 C3305 1.349 . S
C3290 C3288 1.327 . S
C3290 C3309 1.429 . S
C3290 H3314 0.950 . S
C3291 C3308 1.574 . S
C3291 C3310 1.368 . S
C3291 H3315 0.949 . S
H3292 C3296 0.949 . S
C3293 C3294 1.349 . S
C3293 C3295 1.327 . S
C3293 H3316 0.950 . S
C3294 C3293 1.349 . S
C3294 C3306 1.349 . S
C3295 C3293 1.327 . S
C3295 C3311 1.429 . S
C3295 H3317 0.950 . S
C3296 H3292 0.949 . S
C3296 C3304 1.574 . S
C3296 C3312 1.368 . S
H3297 C3305 0.950 . S
H3298 C3303 0.950 . S
H3299 C3304 0.949 . S
H3300 C3306 0.950 . S
H3301 C3307 0.950 . S
H3302 C3308 0.949 . S
C3303 H3298 0.950 . S
C3303 C3305 1.327 . S
C3303 C3309 1.429 . S
C3304 C3296 1.574 . S
C3304 H3299 0.949 . S
C3304 C3310 1.368 . S
C3305 C3289 1.349 . S
C3305 H3297 0.950 . S
C3305 C3303 1.327 . S
C3306 C3294 1.349 . S
C3306 H3300 0.950 . S
C3306 C3307 1.327 . S
C3307 H3301 0.950 . S
C3307 C3306 1.327 . S
C3307 C3311 1.429 . S
C3308 C3291 1.574 . S
C3308 H3302 0.949 . S
C3308 C3312 1.368 . S
C3309 C3290 1.429 . S
C3309 C3303 1.429 . S
C3309 C3310 1.523 . S
C3310 C3291 1.368 . S
C3310 C3304 1.368 . S
C3310 C3309 1.523 . S
C3311 C3295 1.429 . S
C3311 C3307 1.429 . S
C3311 C3312 1.523 . S
C3312 C3296 1.368 . S
C3312 C3308 1.368 . S
C3312 C3311 1.523 . S
H3313 C3288 0.950 . S
H3314 C3290 0.950 . S
H3315 C3291 0.949 . S
H3316 C3293 0.950 . S
H3317 C3295 0.950 . S
C3318 C3319 1.349 . S
C3318 C3320 1.327 . S
C3318 H3343 0.950 . S
C3319 C3318 1.349 . S
C3319 C3335 1.349 . S
C3320 C3318 1.327 . S
C3320 C3339 1.429 . S
C3320 H3344 0.950 . S
C3321 C3338 1.574 . S
C3321 C3340 1.368 . S
C3321 H3345 0.949 . S
H3322 C3326 0.949 . S
C3323 C3324 1.349 . S
C3323 C3325 1.327 . S
C3323 H3346 0.950 . S
C3324 C3323 1.349 . S
C3324 C3336 1.349 . S
C3325 C3323 1.327 . S
C3325 C3341 1.429 . S
C3325 H3347 0.950 . S
C3326 H3322 0.949 . S
C3326 C3334 1.574 . S
C3326 C3342 1.368 . S
H3327 C3335 0.950 . S
H3328 C3333 0.950 . S
H3329 C3334 0.949 . S
H3330 C3336 0.950 . S
H3331 C3337 0.950 . S
H3332 C3338 0.949 . S
C3333 H3328 0.950 . S
C3333 C3335 1.327 . S
C3333 C3339 1.429 . S
C3334 C3326 1.574 . S
C3334 H3329 0.949 . S
C3334 C3340 1.368 . S
C3335 C3319 1.349 . S
C3335 H3327 0.950 . S
C3335 C3333 1.327 . S
C3336 C3324 1.349 . S
C3336 H3330 0.950 . S
C3336 C3337 1.327 . S
C3337 H3331 0.950 . S
C3337 C3336 1.327 . S
C3337 C3341 1.429 . S
C3338 C3321 1.574 . S
C3338 H3332 0.949 . S
C3338 C3342 1.368 . S
C3339 C3320 1.429 . S
C3339 C3333 1.429 . S
C3339 C3340 1.523 . S
C3340 C3321 1.368 . S
C3340 C3334 1.368 . S
C3340 C3339 1.523 . S
C3341 C3325 1.429 . S
C3341 C3337 1.429 . S
C3341 C3342 1.523 . S
C3342 C3326 1.368 . S
C3342 C3338 1.368 . S
C3342 C3341 1.523 . S
H3343 C3318 0.950 . S
H3344 C3320 0.950 . S
H3345 C3321 0.949 . S
H3346 C3323 0.950 . S
H3347 C3325 0.950 . S
C3348 C3349 1.349 . S
C3348 C3350 1.327 . S
C3348 H3373 0.950 . S
C3349 C3348 1.349 . S
C3349 C3365 1.349 . S
C3350 C3348 1.327 . S
C3350 C3369 1.429 . S
C3350 H3374 0.950 . S
C3351 C3368 1.574 . S
C3351 C3370 1.368 . S
C3351 H3375 0.949 . S
H3352 C3356 0.949 . S
C3353 C3354 1.349 . S
C3353 C3355 1.327 . S
C3353 H3376 0.950 . S
C3354 C3353 1.349 . S
C3354 C3366 1.349 . S
C3355 C3353 1.327 . S
C3355 C3371 1.429 . S
C3355 H3377 0.950 . S
C3356 H3352 0.949 . S
C3356 C3364 1.574 . S
C3356 C3372 1.368 . S
H3357 C3365 0.950 . S
H3358 C3363 0.950 . S
H3359 C3364 0.949 . S
H3360 C3366 0.950 . S
H3361 C3367 0.950 . S
H3362 C3368 0.949 . S
C3363 H3358 0.950 . S
C3363 C3365 1.327 . S
C3363 C3369 1.429 . S
C3364 C3356 1.574 . S
C3364 H3359 0.949 . S
C3364 C3370 1.368 . S
C3365 C3349 1.349 . S
C3365 H3357 0.950 . S
C3365 C3363 1.327 . S
C3366 C3354 1.349 . S
C3366 H3360 0.950 . S
C3366 C3367 1.327 . S
C3367 H3361 0.950 . S
C3367 C3366 1.327 . S
C3367 C3371 1.429 . S
C3368 C3351 1.574 . S
C3368 H3362 0.949 . S
C3368 C3372 1.368 . S
C3369 C3350 1.429 . S
C3369 C3363 1.429 . S
C3369 C3370 1.523 . S
C3370 C3351 1.368 . S
C3370 C3364 1.368 . S
C3370 C3369 1.523 . S
C3371 C3355 1.429 . S
C3371 C3367 1.429 . S
C3371 C3372 1.523 . S
C3372 C3356 1.368 . S
C3372 C3368 1.368 . S
C3372 C3371 1.523 . S
H3373 C3348 0.950 . S
H3374 C3350 0.950 . S
H3375 C3351 0.949 . S
H3376 C3353 0.950 . S
H3377 C3355 0.950 . S
C3378 C3379 1.349 . S
C3378 C3380 1.327 . S
C3378 H3403 0.950 . S
C3379 C3378 1.349 . S
C3379 C3395 1.349 . S
C3380 C3378 1.327 . S
C3380 C3399 1.429 . S
C3380 H3404 0.950 . S
C3381 C3398 1.574 . S
C3381 C3400 1.368 . S
C3381 H3405 0.949 . S
H3382 C3386 0.949 . S
C3383 C3384 1.349 . S
C3383 C3385 1.327 . S
C3383 H3406 0.950 . S
C3384 C3383 1.349 . S
C3384 C3396 1.349 . S
C3385 C3383 1.327 . S
C3385 C3401 1.429 . S
C3385 H3407 0.950 . S
C3386 H3382 0.949 . S
C3386 C3394 1.574 . S
C3386 C3402 1.368 . S
H3387 C3395 0.950 . S
H3388 C3393 0.950 . S
H3389 C3394 0.949 . S
H3390 C3396 0.950 . S
H3391 C3397 0.950 . S
H3392 C3398 0.949 . S
C3393 H3388 0.950 . S
C3393 C3395 1.327 . S
C3393 C3399 1.429 . S
C3394 C3386 1.574 . S
C3394 H3389 0.949 . S
C3394 C3400 1.368 . S
C3395 C3379 1.349 . S
C3395 H3387 0.950 . S
C3395 C3393 1.327 . S
C3396 C3384 1.349 . S
C3396 H3390 0.950 . S
C3396 C3397 1.327 . S
C3397 H3391 0.950 . S
C3397 C3396 1.327 . S
C3397 C3401 1.429 . S
C3398 C3381 1.574 . S
C3398 H3392 0.949 . S
C3398 C3402 1.368 . S
C3399 C3380 1.429 . S
C3399 C3393 1.429 . S
C3399 C3400 1.523 . S
C3400 C3381 1.368 . S
C3400 C3394 1.368 . S
C3400 C3399 1.523 . S
C3401 C3385 1.429 . S
C3401 C3397 1.429 . S
C3401 C3402 1.523 . S
C3402 C3386 1.368 . S
C3402 C3398 1.368 . S
C3402 C3401 1.523 . S
H3403 C3378 0.950 . S
H3404 C3380 0.950 . S
H3405 C3381 0.949 . S
H3406 C3383 0.950 . S
H3407 C3385 0.950 . S
C3408 C3409 1.349 . S
C3408 C3410 1.327 . S
C3408 H3433 0.950 . S
C3409 C3408 1.349 . S
C3409 C3425 1.349 . S
C3410 C3408 1.327 . S
C3410 C3429 1.429 . S
C3410 H3434 0.950 . S
C3411 C3428 1.574 . S
C3411 C3430 1.368 . S
C3411 H3435 0.949 . S
H3412 C3416 0.949 . S
C3413 C3414 1.349 . S
C3413 C3415 1.327 . S
C3413 H3436 0.950 . S
C3414 C3413 1.349 . S
C3414 C3426 1.349 . S
C3415 C3413 1.327 . S
C3415 C3431 1.429 . S
C3415 H3437 0.950 . S
C3416 H3412 0.949 . S
C3416 C3424 1.574 . S
C3416 C3432 1.368 . S
H3417 C3425 0.950 . S
H3418 C3423 0.950 . S
H3419 C3424 0.949 . S
H3420 C3426 0.950 . S
H3421 C3427 0.950 . S
H3422 C3428 0.949 . S
C3423 H3418 0.950 . S
C3423 C3425 1.327 . S
C3423 C3429 1.429 . S
C3424 C3416 1.574 . S
C3424 H3419 0.949 . S
C3424 C3430 1.368 . S
C3425 C3409 1.349 . S
C3425 H3417 0.950 . S
C3425 C3423 1.327 . S
C3426 C3414 1.349 . S
C3426 H3420 0.950 . S
C3426 C3427 1.327 . S
C3427 H3421 0.950 . S
C3427 C3426 1.327 . S
C3427 C3431 1.429 . S
C3428 C3411 1.574 . S
C3428 H3422 0.949 . S
C3428 C3432 1.368 . S
C3429 C3410 1.429 . S
C3429 C3423 1.429 . S
C3429 C3430 1.523 . S
C3430 C3411 1.368 . S
C3430 C3424 1.368 . S
C3430 C3429 1.523 . S
C3431 C3415 1.429 . S
C3431 C3427 1.429 . S
C3431 C3432 1.523 . S
C3432 C3416 1.368 . S
C3432 C3428 1.368 . S
C3432 C3431 1.523 . S
H3433 C3408 0.950 . S
H3434 C3410 0.950 . S
H3435 C3411 0.949 . S
H3436 C3413 0.950 . S
H3437 C3415 0.950 . S
C3438 C3439 1.349 . S
C3438 C3440 1.327 . S
C3438 H3463 0.950 . S
C3439 C3438 1.349 . S
C3439 C3455 1.349 . S
C3440 C3438 1.327 . S
C3440 C3459 1.429 . S
C3440 H3464 0.950 . S
C3441 C3458 1.574 . S
C3441 C3460 1.368 . S
C3441 H3465 0.949 1_655 S
H3442 C3446 0.949 . S
C3443 C3444 1.349 1_455 S
C3443 C3445 1.327 . S
C3443 H3466 0.950 . S
C3444 C3443 1.349 1_655 S
C3444 C3456 1.349 . S
C3445 C3443 1.327 . S
C3445 C3461 1.429 1_455 S
C3445 H3467 0.950 . S
C3446 H3442 0.949 . S
C3446 C3454 1.574 . S
C3446 C3462 1.368 . S
H3447 C3455 0.950 . S
H3448 C3453 0.950 . S
H3449 C3454 0.949 . S
H3450 C3456 0.950 . S
H3451 C3457 0.950 . S
H3452 C3458 0.949 1_455 S
C3453 H3448 0.950 . S
C3453 C3455 1.327 . S
C3453 C3459 1.429 . S
C3454 C3446 1.574 . S
C3454 H3449 0.949 . S
C3454 C3460 1.368 . S
C3455 C3439 1.349 . S
C3455 H3447 0.950 . S
C3455 C3453 1.327 . S
C3456 C3444 1.349 . S
C3456 H3450 0.950 . S
C3456 C3457 1.327 . S
C3457 H3451 0.950 . S
C3457 C3456 1.327 . S
C3457 C3461 1.429 . S
C3458 C3441 1.574 . S
C3458 H3452 0.949 1_655 S
C3458 C3462 1.368 . S
C3459 C3440 1.429 . S
C3459 C3453 1.429 . S
C3459 C3460 1.523 . S
C3460 C3441 1.368 . S
C3460 C3454 1.368 . S
C3460 C3459 1.523 . S
C3461 C3445 1.429 1_655 S
C3461 C3457 1.429 . S
C3461 C3462 1.523 . S
C3462 C3446 1.368 . S
C3462 C3458 1.368 . S
C3462 C3461 1.523 . S
H3463 C3438 0.950 . S
H3464 C3440 0.950 . S
H3465 C3441 0.949 1_455 S
H3466 C3443 0.950 . S
H3467 C3445 0.950 . S
C3468 C3469 1.349 . S
C3468 C3470 1.327 . S
C3468 H3493 0.950 . S
C3469 C3468 1.349 . S
C3469 C3485 1.349 . S
C3470 C3468 1.327 . S
C3470 C3489 1.429 . S
C3470 H3494 0.950 . S
C3471 C3488 1.574 . S
C3471 C3490 1.368 . S
C3471 H3495 0.949 . S
H3472 C3476 0.949 . S
C3473 C3474 1.349 . S
C3473 C3475 1.327 . S
C3473 H3496 0.950 . S
C3474 C3473 1.349 . S
C3474 C3486 1.349 . S
C3475 C3473 1.327 . S
C3475 C3491 1.429 . S
C3475 H3497 0.950 . S
C3476 H3472 0.949 . S
C3476 C3484 1.574 . S
C3476 C3492 1.368 . S
H3477 C3485 0.950 . S
H3478 C3483 0.950 . S
H3479 C3484 0.949 . S
H3480 C3486 0.950 . S
H3481 C3487 0.950 . S
H3482 C3488 0.949 . S
C3483 H3478 0.950 . S
C3483 C3485 1.327 . S
C3483 C3489 1.429 . S
C3484 C3476 1.574 . S
C3484 H3479 0.949 . S
C3484 C3490 1.368 . S
C3485 C3469 1.349 . S
C3485 H3477 0.950 . S
C3485 C3483 1.327 . S
C3486 C3474 1.349 . S
C3486 H3480 0.950 . S
C3486 C3487 1.327 . S
C3487 H3481 0.950 . S
C3487 C3486 1.327 . S
C3487 C3491 1.429 . S
C3488 C3471 1.574 . S
C3488 H3482 0.949 . S
C3488 C3492 1.368 . S
C3489 C3470 1.429 . S
C3489 C3483 1.429 . S
C3489 C3490 1.523 . S
C3490 C3471 1.368 . S
C3490 C3484 1.368 . S
C3490 C3489 1.523 . S
C3491 C3475 1.429 . S
C3491 C3487 1.429 . S
C3491 C3492 1.523 . S
C3492 C3476 1.368 . S
C3492 C3488 1.368 . S
C3492 C3491 1.523 . S
H3493 C3468 0.950 . S
H3494 C3470 0.950 . S
H3495 C3471 0.949 . S
H3496 C3473 0.950 . S
H3497 C3475 0.950 . S
C3498 C3499 1.349 . S
C3498 C3500 1.327 . S
C3498 H3523 0.950 . S
C3499 C3498 1.349 . S
C3499 C3515 1.349 . S
C3500 C3498 1.327 . S
C3500 C3519 1.429 . S
C3500 H3524 0.950 . S
C3501 C3518 1.574 . S
C3501 C3520 1.368 . S
C3501 H3525 0.995 . S
H3502 C3506 0.949 . S
C3503 C3504 1.349 1_565 S
C3503 C3505 1.302 . S
C3503 H3526 0.950 . S
C3504 C3503 1.349 1_545 S
C3504 C3516 1.349 . S
C3505 C3503 1.302 . S
C3505 C3521 1.380 1_565 S
C3505 H3527 1.030 . S
C3506 H3502 0.949 . S
C3506 C3514 1.574 . S
C3506 C3522 1.368 . S
H3507 C3515 0.950 . S
H3508 C3513 0.950 . S
H3509 C3514 0.949 . S
H3510 C3516 0.950 . S
H3511 C3517 0.950 . S
H3512 C3518 0.949 1_565 S
C3513 H3508 0.950 . S
C3513 C3515 1.327 . S
C3513 C3519 1.429 . S
C3514 C3506 1.574 . S
C3514 H3509 0.949 . S
C3514 C3520 1.368 . S
C3515 C3499 1.349 . S
C3515 H3507 0.950 . S
C3515 C3513 1.327 . S
C3516 C3504 1.349 . S
C3516 H3510 0.950 . S
C3516 C3517 1.327 . S
C3517 H3511 0.950 . S
C3517 C3516 1.327 . S
C3517 C3521 1.429 . S
C3518 C3501 1.574 . S
C3518 H3512 0.949 1_545 S
C3518 C3522 1.368 . S
C3519 C3500 1.429 . S
C3519 C3513 1.429 . S
C3519 C3520 1.523 . S
C3520 C3501 1.368 . S
C3520 C3514 1.368 . S
C3520 C3519 1.523 . S
C3521 C3505 1.380 1_545 S
C3521 C3517 1.429 . S
C3521 C3522 1.523 . S
C3522 C3506 1.368 . S
C3522 C3518 1.368 . S
C3522 C3521 1.523 . S
H3523 C3498 0.950 . S
H3524 C3500 0.950 . S
H3525 C3501 0.995 . S
H3526 C3503 0.950 . S
H3527 C3505 1.030 . S
C1369 C4 1.574 . S
C1374 C857 1.563 . S
C1399 C26 1.595 . S
C1404 C901 1.539 . S
C1434 C981 1.484 . S
C1429 C32 1.511 . S
C1459 C40 1.514 . S
C1464 C1025 1.462 . S
C1489 C12 1.559 . S
C1494 C1105 1.506 . S
C1519 C18 1.546 . S
C1524 C1167 1.527 . S
C1549 C46 1.564 . S
C1554 C1087 1.543 . S
C1584 C1149 1.515 . S
C1579 C68 1.591 . S
C1614 C1043 1.523 . S
C1609 C74 1.532 . S
C1639 C82 1.495 . S
C1644 C963 1.437 . S
C1674 C839 1.518 . S
C1669 C54 1.581 . S
C1699 C60 1.542 . S
C1704 C919 1.542 . S
C1729 C88 1.629 . S
C1734 C1229 1.608 . S
C1759 C110 1.619 . S
C1764 C1273 1.563 . S
C1794 C1353 1.565 . S
C1789 C116 1.590 . S
C1819 C124 1.534 . S
C1824 C299 1.464 . S
C1849 C96 1.582 . S
C1854 C343 1.531 . S
C1879 C102 1.551 . S
C1884 C423 1.528 . S
C1909 C130 1.606 . S
C1914 C361 1.605 . S
C1939 C152 1.638 . S
C1944 C405 1.560 . S
C1974 C281 1.563 . S
C1969 C158 1.589 . S
C2004 C1335 1.484 . S
C1999 C166 1.556 . S
C2034 C1211 1.505 . S
C2029 C138 1.571 . S
C2064 C1291 1.580 . S
C2059 C144 1.578 . S
C2089 C172 1.618 . S
C2094 C485 1.595 . S
C2119 C194 1.627 . S
C2124 C547 1.548 . S
C2149 C200 1.590 . S
C2154 C591 1.590 . S
C2179 C208 1.546 . S
C2184 C653 1.493 . S
C2214 C715 1.535 . S
C2209 C180 1.587 . S
C2244 C795 1.551 . S
C2239 C186 1.571 . S
C2274 C733 1.639 . S
C2269 C214 1.638 . S
C2304 C777 1.546 . S
C2299 C236 1.624 . S
C2329 C242 1.575 . S
C2334 C671 1.576 . S
C2364 C609 1.470 . S
C2359 C250 1.522 . S
C2389 C222 1.584 . S
C2394 C467 1.516 . S
C2424 C529 1.540 . S
C2419 C228 1.562 . S
C2454 C305 1.303 . S
C2449 C5 1.154 . S
C2479 C25 1.301 . S
C2484 C349 1.240 . S
C2514 C429 1.304 . S
C2509 C33 1.163 . S
C2544 C491 1.167 . S
C2539 C39 1.203 1_556 S
C2574 C553 1.235 . S
C2569 C11 1.305 . S
C2604 C597 1.258 . S
C2599 C19 1.099 1_556 S
C2629 C47 1.177 1_556 S
C2634 C615 1.356 . S
C2659 C67 1.288 1_556 S
C2664 C473 1.224 . S
C2689 C75 1.143 . S
C2694 C535 1.285 . S
C2719 C81 1.251 . S
C2724 C367 1.202 . S
C2754 C411 1.209 . S
C2749 C53 1.275 . S
C2779 C61 1.096 . S
C2784 C287 1.242 . S
C2814 C659 1.302 . S
C2809 C89 1.136 . S
C2839 C109 1.355 1_545 S
C2844 C721 1.292 . S
C2869 C117 1.147 . S
C2874 C801 1.297 . S
C2904 C863 1.169 . S
C2899 C123 1.214 . S
C2929 C95 1.289 . S
C2934 C907 1.234 . S
C2959 C103 1.050 . S
C2964 C987 1.182 . S
C2989 C131 1.067 . S
C2994 C969 1.191 . S
C3019 C151 1.263 . S
C3024 C845 1.203 . S
C3054 C925 1.272 . S
C3049 C159 1.114 . S
C3079 C165 1.269 . S
C3084 C739 1.218 . S
C3109 C137 1.342 1_545 S
C3114 C783 1.270 . S
C3144 C677 1.289 . S
C3139 C145 1.125 . S
C3174 C1031 1.235 . S
C3169 C173 1.086 . S
C3199 C193 1.236 . S
C3204 C1111 1.180 . S
C3229 C201 1.107 . S
C3234 C1173 1.251 . S
C3264 C1235 1.188 . S
C3259 C207 1.248 . S
C3294 C1279 1.297 . S
C3289 C179 1.357 1_565 S
C3319 C187 1.131 . S
C3324 C1359 1.284 . S
C3349 C215 1.152 . S
C3354 C1341 1.307 . S
C3379 C235 1.347 1_565 S
C3384 C1217 1.272 . S
C3414 C1297 1.299 . S
C3409 C243 1.137 . S
C3444 C1093 1.142 . S
C3439 C249 1.182 . S
C3474 C1155 1.230 . S
C3469 C221 1.297 . S
C3499 C229 1.063 . S
C3504 C1049 1.206 . S
