# Generated by pormake.
# Topology llk, (3,12)-cn, num edge types: 1
# Building blocks:
#     Node 0, Type 0, BuildingBlock: BETDAH_clean_linker_0, # of connection points: 3
#     Node 1, Type 0, BuildingBlock: BETDAH_clean_linker_0, # of connection points: 3
#     Node 2, Type 0, BuildingBlock: BETDAH_clean_linker_0, # of connection points: 3
#     Node 3, Type 0, BuildingBlock: BETDAH_clean_linker_0, # of connection points: 3
#     Node 4, Type 0, BuildingBlock: BETDAH_clean_linker_0, # of connection points: 3
#     Node 5, Type 0, BuildingBlock: BETDAH_clean_linker_0, # of connection points: 3
#     Node 6, Type 0, BuildingBlock: BETDAH_clean_linker_0, # of connection points: 3
#     Node 7, Type 0, BuildingBlock: BETDAH_clean_linker_0, # of connection points: 3
#     Node 8, Type 0, BuildingBlock: BETDAH_clean_linker_0, # of connection points: 3
#     Node 9, Type 0, BuildingBlock: BETDAH_clean_linker_0, # of connection points: 3
#     Node 10, Type 0, BuildingBlock: BETDAH_clean_linker_0, # of connection points: 3
#     Node 11, Type 0, BuildingBlock: BETDAH_clean_linker_0, # of connection points: 3
#     Node 12, Type 0, BuildingBlock: BETDAH_clean_linker_0, # of connection points: 3
#     Node 13, Type 0, BuildingBlock: BETDAH_clean_linker_0, # of connection points: 3
#     Node 14, Type 0, BuildingBlock: BETDAH_clean_linker_0, # of connection points: 3
#     Node 15, Type 0, BuildingBlock: BETDAH_clean_linker_0, # of connection points: 3
#     Node 16, Type 0, BuildingBlock: BETDAH_clean_linker_0, # of connection points: 3
#     Node 17, Type 0, BuildingBlock: BETDAH_clean_linker_0, # of connection points: 3
#     Node 18, Type 0, BuildingBlock: BETDAH_clean_linker_0, # of connection points: 3
#     Node 19, Type 0, BuildingBlock: BETDAH_clean_linker_0, # of connection points: 3
#     Node 20, Type 0, BuildingBlock: BETDAH_clean_linker_0, # of connection points: 3
#     Node 21, Type 0, BuildingBlock: BETDAH_clean_linker_0, # of connection points: 3
#     Node 22, Type 0, BuildingBlock: BETDAH_clean_linker_0, # of connection points: 3
#     Node 23, Type 0, BuildingBlock: BETDAH_clean_linker_0, # of connection points: 3
#     Node 24, Type 1, BuildingBlock: EZIPEK_clean_sbu_0, # of connection points: 12
#     Node 25, Type 1, BuildingBlock: EZIPEK_clean_sbu_0, # of connection points: 12
#     Node 26, Type 1, BuildingBlock: EZIPEK_clean_sbu_0, # of connection points: 12
#     Node 27, Type 1, BuildingBlock: EZIPEK_clean_sbu_0, # of connection points: 12
#     Node 28, Type 1, BuildingBlock: EZIPEK_clean_sbu_0, # of connection points: 12
#     Node 29, Type 1, BuildingBlock: EZIPEK_clean_sbu_0, # of connection points: 12
#     Edge 30, Type (0, 1), BuildingBlock: CIFDUS_clean_linker_0, # of connection points: 2
#     Edge 31, Type (0, 1), BuildingBlock: CIFDUS_clean_linker_0, # of connection points: 2
#     Edge 32, Type (0, 1), BuildingBlock: CIFDUS_clean_linker_0, # of connection points: 2
#     Edge 33, Type (0, 1), BuildingBlock: CIFDUS_clean_linker_0, # of connection points: 2
#     Edge 34, Type (0, 1), BuildingBlock: CIFDUS_clean_linker_0, # of connection points: 2
#     Edge 35, Type (0, 1), BuildingBlock: CIFDUS_clean_linker_0, # of connection points: 2
#     Edge 36, Type (0, 1), BuildingBlock: CIFDUS_clean_linker_0, # of connection points: 2
#     Edge 37, Type (0, 1), BuildingBlock: CIFDUS_clean_linker_0, # of connection points: 2
#     Edge 38, Type (0, 1), BuildingBlock: CIFDUS_clean_linker_0, # of connection points: 2
#     Edge 39, Type (0, 1), BuildingBlock: CIFDUS_clean_linker_0, # of connection points: 2
#     Edge 40, Type (0, 1), BuildingBlock: CIFDUS_clean_linker_0, # of connection points: 2
#     Edge 41, Type (0, 1), BuildingBlock: CIFDUS_clean_linker_0, # of connection points: 2
#     Edge 42, Type (0, 1), BuildingBlock: CIFDUS_clean_linker_0, # of connection points: 2
#     Edge 43, Type (0, 1), BuildingBlock: CIFDUS_clean_linker_0, # of connection points: 2
#     Edge 44, Type (0, 1), BuildingBlock: CIFDUS_clean_linker_0, # of connection points: 2
#     Edge 45, Type (0, 1), BuildingBlock: CIFDUS_clean_linker_0, # of connection points: 2
#     Edge 46, Type (0, 1), BuildingBlock: CIFDUS_clean_linker_0, # of connection points: 2
#     Edge 47, Type (0, 1), BuildingBlock: CIFDUS_clean_linker_0, # of connection points: 2
#     Edge 48, Type (0, 1), BuildingBlock: CIFDUS_clean_linker_0, # of connection points: 2
#     Edge 49, Type (0, 1), BuildingBlock: CIFDUS_clean_linker_0, # of connection points: 2
#     Edge 50, Type (0, 1), BuildingBlock: CIFDUS_clean_linker_0, # of connection points: 2
#     Edge 51, Type (0, 1), BuildingBlock: CIFDUS_clean_linker_0, # of connection points: 2
#     Edge 52, Type (0, 1), BuildingBlock: CIFDUS_clean_linker_0, # of connection points: 2
#     Edge 53, Type (0, 1), BuildingBlock: CIFDUS_clean_linker_0, # of connection points: 2
#     Edge 54, Type (0, 1), BuildingBlock: CIFDUS_clean_linker_0, # of connection points: 2
#     Edge 55, Type (0, 1), BuildingBlock: CIFDUS_clean_linker_0, # of connection points: 2
#     Edge 56, Type (0, 1), BuildingBlock: CIFDUS_clean_linker_0, # of connection points: 2
#     Edge 57, Type (0, 1), BuildingBlock: CIFDUS_clean_linker_0, # of connection points: 2
#     Edge 58, Type (0, 1), BuildingBlock: CIFDUS_clean_linker_0, # of connection points: 2
#     Edge 59, Type (0, 1), BuildingBlock: CIFDUS_clean_linker_0, # of connection points: 2
#     Edge 60, Type (0, 1), BuildingBlock: CIFDUS_clean_linker_0, # of connection points: 2
#     Edge 61, Type (0, 1), BuildingBlock: CIFDUS_clean_linker_0, # of connection points: 2
#     Edge 62, Type (0, 1), BuildingBlock: CIFDUS_clean_linker_0, # of connection points: 2
#     Edge 63, Type (0, 1), BuildingBlock: CIFDUS_clean_linker_0, # of connection points: 2
#     Edge 64, Type (0, 1), BuildingBlock: CIFDUS_clean_linker_0, # of connection points: 2
#     Edge 65, Type (0, 1), BuildingBlock: CIFDUS_clean_linker_0, # of connection points: 2
#     Edge 66, Type (0, 1), BuildingBlock: CIFDUS_clean_linker_0, # of connection points: 2
#     Edge 67, Type (0, 1), BuildingBlock: CIFDUS_clean_linker_0, # of connection points: 2
#     Edge 68, Type (0, 1), BuildingBlock: CIFDUS_clean_linker_0, # of connection points: 2
#     Edge 69, Type (0, 1), BuildingBlock: CIFDUS_clean_linker_0, # of connection points: 2
#     Edge 70, Type (0, 1), BuildingBlock: CIFDUS_clean_linker_0, # of connection points: 2
#     Edge 71, Type (0, 1), BuildingBlock: CIFDUS_clean_linker_0, # of connection points: 2
#     Edge 72, Type (0, 1), BuildingBlock: CIFDUS_clean_linker_0, # of connection points: 2
#     Edge 73, Type (0, 1), BuildingBlock: CIFDUS_clean_linker_0, # of connection points: 2
#     Edge 74, Type (0, 1), BuildingBlock: CIFDUS_clean_linker_0, # of connection points: 2
#     Edge 75, Type (0, 1), BuildingBlock: CIFDUS_clean_linker_0, # of connection points: 2
#     Edge 76, Type (0, 1), BuildingBlock: CIFDUS_clean_linker_0, # of connection points: 2
#     Edge 77, Type (0, 1), BuildingBlock: CIFDUS_clean_linker_0, # of connection points: 2
#     Edge 78, Type (0, 1), BuildingBlock: CIFDUS_clean_linker_0, # of connection points: 2
#     Edge 79, Type (0, 1), BuildingBlock: CIFDUS_clean_linker_0, # of connection points: 2
#     Edge 80, Type (0, 1), BuildingBlock: CIFDUS_clean_linker_0, # of connection points: 2
#     Edge 81, Type (0, 1), BuildingBlock: CIFDUS_clean_linker_0, # of connection points: 2
#     Edge 82, Type (0, 1), BuildingBlock: CIFDUS_clean_linker_0, # of connection points: 2
#     Edge 83, Type (0, 1), BuildingBlock: CIFDUS_clean_linker_0, # of connection points: 2
#     Edge 84, Type (0, 1), BuildingBlock: CIFDUS_clean_linker_0, # of connection points: 2
#     Edge 85, Type (0, 1), BuildingBlock: CIFDUS_clean_linker_0, # of connection points: 2
#     Edge 86, Type (0, 1), BuildingBlock: CIFDUS_clean_linker_0, # of connection points: 2
#     Edge 87, Type (0, 1), BuildingBlock: CIFDUS_clean_linker_0, # of connection points: 2
#     Edge 88, Type (0, 1), BuildingBlock: CIFDUS_clean_linker_0, # of connection points: 2
#     Edge 89, Type (0, 1), BuildingBlock: CIFDUS_clean_linker_0, # of connection points: 2
#     Edge 90, Type (0, 1), BuildingBlock: CIFDUS_clean_linker_0, # of connection points: 2
#     Edge 91, Type (0, 1), BuildingBlock: CIFDUS_clean_linker_0, # of connection points: 2
#     Edge 92, Type (0, 1), BuildingBlock: CIFDUS_clean_linker_0, # of connection points: 2
#     Edge 93, Type (0, 1), BuildingBlock: CIFDUS_clean_linker_0, # of connection points: 2
#     Edge 94, Type (0, 1), BuildingBlock: CIFDUS_clean_linker_0, # of connection points: 2
#     Edge 95, Type (0, 1), BuildingBlock: CIFDUS_clean_linker_0, # of connection points: 2
#     Edge 96, Type (0, 1), BuildingBlock: CIFDUS_clean_linker_0, # of connection points: 2
#     Edge 97, Type (0, 1), BuildingBlock: CIFDUS_clean_linker_0, # of connection points: 2
#     Edge 98, Type (0, 1), BuildingBlock: CIFDUS_clean_linker_0, # of connection points: 2
#     Edge 99, Type (0, 1), BuildingBlock: CIFDUS_clean_linker_0, # of connection points: 2
#     Edge 100, Type (0, 1), BuildingBlock: CIFDUS_clean_linker_0, # of connection points: 2
#     Edge 101, Type (0, 1), BuildingBlock: CIFDUS_clean_linker_0, # of connection points: 2
# Relax obj value: 0.070
# Max RMSD: 0.165
# Mean RMSD: 0.122
data_MOF--net-llk--node1-EZIPEK_clean_sbu_0--node2-BETDAH_clean_linker_0--edge1-CIFDUS_clean_linker_0
_symmetry_space_group_name_H-M    P1
_symmetry_Int_Tables_number       1
_symmetry_cell_setting            triclinic
loop_
_symmetry_equiv_pos_as_xyz
'x, y, z'
_cell_length_a     41.773523
_cell_length_b     42.046453
_cell_length_c     42.244108
_cell_angle_alpha  90.11988
_cell_angle_beta   90.274492
_cell_angle_gamma 89.984181
loop_
_atom_site_label
_atom_site_type_symbol
_atom_site_fract_x
_atom_site_fract_y
_atom_site_fract_z
_atom_type_partial_charge
H0 H 0.02839 0.25448 0.35041 0.0
H1 H 0.02182 0.30435 0.26177 0.0
H2 H 0.02634 0.20217 0.26298 0.0
C3 C 0.02636 0.25407 0.32484 0.0
C4 C 0.02665 0.22463 0.30905 0.0
C5 C 0.02384 0.283 0.30829 0.0
C6 C 0.02374 0.28234 0.2749 0.0
C7 C 0.02525 0.25308 0.25855 0.0
C8 C 0.02628 0.22453 0.27577 0.0
N9 N 0.02513 0.25109 0.22488 0.0
C10 C 0.02617 0.27671 0.20403 0.0
H11 H 0.67501 0.99239 0.27486 0.0
H12 H 0.76852 0.99897 0.31685 0.0
H13 H 0.7579 0.99537 0.21531 0.0
C14 C 0.70082 0.993 0.27231 0.0
C15 C 0.71395 0.99253 0.24192 0.0
C16 C 0.72021 0.9947 0.29945 0.0
C17 C 0.7535 0.99759 0.29597 0.0
C18 C 0.76717 0.99817 0.26548 0.0
C19 C 0.74726 0.99556 0.23866 0.0
N20 N 0.80075 1.00097 0.26085 0.0
C21 C 0.82332 1.00207 0.28517 0.0
H22 H 0.00438 0.66241 0.26404 0.0
H23 H 0.00513 0.75201 0.31345 0.0
H24 H 0.01005 0.74983 0.21188 0.0
C25 C 0.00519 0.68812 0.26362 0.0
C26 C 0.00702 0.70379 0.23429 0.0
C27 C 0.00465 0.70507 0.29242 0.0
C28 C 0.00582 0.73859 0.29157 0.0
C29 C 0.00749 0.75468 0.26235 0.0
C30 C 0.00814 0.73716 0.2341 0.0
N31 N 0.00869 0.78841 0.2601 0.0
C32 C 0.00827 0.80956 0.28546 0.0
H33 H 0.26738 0.00612 0.34577 0.0
H34 H 0.31721 1.00199 0.25711 0.0
H35 H 0.21428 0.99978 0.25845 0.0
C36 C 0.2668 0.00463 0.32018 0.0
C37 C 0.23706 1.0031 0.30443 0.0
C38 C 0.29586 0.00406 0.30342 0.0
C39 C 0.295 1.00216 0.2702 0.0
C40 C 0.26551 1.00088 0.25394 0.0
C41 C 0.23682 1.00132 0.27116 0.0
N42 N 0.26369 0.99892 0.22034 0.0
C43 C 0.28988 0.99963 0.20005 0.0
H44 H 0.04173 0.76114 0.66403 0.0
H45 H 0.04363 0.69951 0.7448 0.0
H46 H 0.02961 0.8004 0.7572 0.0
C47 C 0.04062 0.75799 0.68947 0.0
C48 C 0.03497 0.78443 0.70889 0.0
C49 C 0.04357 0.72739 0.70208 0.0
C50 C 0.04156 0.72319 0.73501 0.0
C51 C 0.03701 0.74965 0.75507 0.0
C52 C 0.03389 0.78018 0.74183 0.0
N53 N 0.03482 0.74647 0.78849 0.0
C54 C 0.0347 0.71766 0.80473 0.0
H55 H 0.26688 1.00168 0.67415 0.0
H56 H 0.31987 1.00181 0.76168 0.0
H57 H 0.2169 0.00385 0.76274 0.0
C58 C 0.26733 1.00193 0.69977 0.0
C59 C 0.2382 1.00256 0.71626 0.0
C60 C 0.29697 1.00159 0.71575 0.0
C61 C 0.29726 1.00228 0.74907 0.0
C62 C 0.2683 1.00308 0.76604 0.0
C63 C 0.23904 1.00304 0.74951 0.0
N64 N 0.2675 0.00398 0.79968 0.0
C65 C 0.29423 0.00407 0.81951 0.0
H66 H 0.02515 0.34563 0.76076 0.0
H67 H 0.02497 0.25783 0.70922 0.0
H68 H 0.02295 0.25658 0.81094 0.0
C69 C 0.02471 0.31991 0.7607 0.0
C70 C 0.02431 0.30344 0.7897 0.0
C71 C 0.02448 0.3037 0.73156 0.0
C72 C 0.02429 0.27039 0.73157 0.0
C73 C 0.02369 0.25331 0.76014 0.0
C74 C 0.02376 0.26992 0.78905 0.0
N75 N 0.02282 0.21949 0.76035 0.0
C76 C 0.02203 0.20128 0.73277 0.0
H77 H 0.77545 0.99223 0.66332 0.0
H78 H 0.71377 0.9891 0.7444 0.0
H79 H 0.81534 1.00218 0.75669 0.0
C80 C 0.77221 0.99301 0.68876 0.0
C81 C 0.79902 0.99752 0.70836 0.0
C82 C 0.74139 0.98969 0.70141 0.0
C83 C 0.73743 0.99163 0.7344 0.0
C84 C 0.76415 0.99618 0.75442 0.0
C85 C 0.79484 0.9986 0.74126 0.0
N86 N 0.7611 0.99855 0.78782 0.0
C87 C 0.7321 1.00053 0.80376 0.0
H88 H 0.35573 0.24998 0.01063 0.0
H89 H 0.26674 0.30086 1.00334 0.0
H90 H 0.26679 0.19869 0.00675 0.0
C91 C 0.32985 0.24998 0.00898 0.0
C92 C 0.3134 0.22082 0.00864 0.0
C93 C 0.31328 0.27907 0.00706 0.0
C94 C 0.27968 0.27865 1.00522 0.0
C95 C 0.26292 0.24959 1.00516 0.0
C96 C 0.27989 0.22094 0.00668 0.0
N97 N 0.22902 0.24819 1.00357 0.0
C98 C 0.20935 0.27478 1.00212 0.0
H99 H 0.363 0.76253 0.02443 0.0
H100 H 0.2775 0.70623 0.0232 0.0
H101 H 0.27187 0.80724 0.00721 0.0
C102 C 0.33723 0.76096 0.02183 0.0
C103 C 0.31948 0.78864 0.01548 0.0
C104 C 0.32232 0.7312 0.02443 0.0
C105 C 0.28902 0.72917 0.02092 0.0
C106 C 0.27066 0.75656 0.01479 0.0
C107 C 0.286 0.78624 0.0123 0.0
N108 N 0.23688 0.75481 0.01066 0.0
C109 C 0.21981 0.72636 0.01157 0.0
H110 H 0.76138 0.35218 0.01902 0.0
H111 H 0.71715 0.26015 0.01452 0.0
H112 H 0.8197 0.26815 0.02306 0.0
C113 C 0.76344 0.3265 0.01883 0.0
C114 C 0.79388 0.31264 0.02127 0.0
C115 C 0.73565 0.3079 0.01624 0.0
C116 C 0.73847 0.27462 0.01657 0.0
C117 C 0.76887 0.26018 0.01899 0.0
C118 C 0.79641 0.27932 0.02103 0.0
N119 N 0.77266 0.22658 0.01958 0.0
C120 C 0.74748 0.20491 0.0186 0.0
H121 H 0.76899 0.65491 0.02031 0.0
H122 H 0.71175 0.73954 0.02205 0.0
H123 H 0.81369 0.74632 0.00963 0.0
C124 C 0.76732 0.68062 0.01972 0.0
C125 C 0.79519 0.69873 0.01558 0.0
C126 C 0.73724 0.69507 0.02271 0.0
C127 C 0.73488 0.72824 0.01974 0.0
C128 C 0.7625 0.7467 0.0145 0.0
C129 C 0.79248 0.73185 0.01277 0.0
N130 N 0.76117 0.78024 0.01126 0.0
C131 C 0.73298 0.79773 0.01119 0.0
H132 H 0.51254 0.75398 0.85952 0.0
H133 H 0.51435 0.8115 0.77585 0.0
H134 H 0.52115 0.70952 0.76821 0.0
C135 C 0.51339 0.75576 0.83394 0.0
C136 C 0.51593 0.72794 0.81573 0.0
C137 C 0.51229 0.78588 0.81982 0.0
C138 C 0.51528 0.78829 0.78685 0.0
C139 C 0.5189 0.7607 0.76818 0.0
C140 C 0.51912 0.73069 0.78275 0.0
N141 N 0.5219 0.76228 0.73473 0.0
C142 C 0.52025 0.7904 0.7175 0.0
H143 H 0.17069 0.48519 0.76138 0.0
H144 H 0.26026 0.49809 0.81014 0.0
H145 H 0.25649 0.50052 0.70804 0.0
C146 C 0.19639 0.48878 0.76067 0.0
C147 C 0.21142 0.49184 0.73128 0.0
C148 C 0.21367 0.49067 0.78917 0.0
C149 C 0.24679 0.49665 0.78822 0.0
C150 C 0.26237 0.50028 0.75884 0.0
C151 C 0.24445 0.49812 0.73057 0.0
N152 N 0.29593 0.50576 0.7566 0.0
C153 C 0.3176 0.50476 0.78179 0.0
H154 H 0.52835 0.15786 0.75576 0.0
H155 H 0.52821 0.24178 0.81379 0.0
H156 H 0.51579 0.2497 0.71283 0.0
C157 C 0.52657 0.18348 0.75793 0.0
C158 C 0.52188 0.20186 0.73056 0.0
C159 C 0.52893 0.19763 0.78802 0.0
C160 C 0.52616 0.23078 0.79069 0.0
C161 C 0.52135 0.24969 0.76363 0.0
C162 C 0.51959 0.23512 0.73363 0.0
N163 N 0.51804 0.28331 0.76587 0.0
C164 C 0.5182 0.30014 0.79436 0.0
H165 H 0.76446 0.53351 0.85822 0.0
H166 H 0.82073 0.52349 0.77387 0.0
H167 H 0.71867 0.51009 0.7699 0.0
C168 C 0.76586 0.52885 0.83307 0.0
C169 C 0.73766 0.52175 0.81616 0.0
C170 C 0.796 0.52917 0.81834 0.0
C171 C 0.79773 0.52319 0.78557 0.0
C172 C 0.76966 0.51677 0.76802 0.0
C173 C 0.73994 0.51595 0.78347 0.0
N174 N 0.77017 0.5103 0.73497 0.0
C175 C 0.79691 0.51175 0.71544 0.0
H176 H 0.52143 0.25644 0.17101 0.0
H177 H 0.52354 0.20319 0.25755 0.0
H178 H 0.50984 0.30483 0.25993 0.0
C179 C 0.52073 0.25606 0.19665 0.0
C180 C 0.51614 0.28455 0.21331 0.0
C181 C 0.5242 0.22685 0.21226 0.0
C182 C 0.52108 0.22571 0.24539 0.0
C183 C 0.51555 0.25396 0.26265 0.0
C184 C 0.51331 0.28316 0.24646 0.0
N185 N 0.51264 0.25432 0.29623 0.0
C186 C 0.51425 0.22794 0.31615 0.0
H187 H 0.76781 0.50608 0.16357 0.0
H188 H 0.81808 0.50116 0.252 0.0
H189 H 0.71553 0.48963 0.24931 0.0
C190 C 0.76755 0.50288 0.18903 0.0
C191 C 0.73836 0.49696 0.20408 0.0
C192 C 0.79647 0.50346 0.20595 0.0
C193 C 0.79578 0.50078 0.23897 0.0
C194 C 0.76657 0.49625 0.2549 0.0
C195 C 0.73788 0.49431 0.23728 0.0
N196 N 0.76562 0.49217 0.28833 0.0
C197 C 0.79289 0.4915 0.30749 0.0
H198 H 0.48718 0.85006 0.2503 0.0
H199 H 0.49992 0.75988 0.2043 0.0
H200 H 0.49966 0.76584 0.30641 0.0
C201 C 0.49018 0.82448 0.25196 0.0
C202 C 0.49239 0.81029 0.2818 0.0
C203 C 0.49252 0.80661 0.22406 0.0
C204 C 0.49797 0.77367 0.22588 0.0
C205 C 0.50048 0.75877 0.25574 0.0
C206 C 0.49792 0.77731 0.28351 0.0
N207 N 0.50533 0.72537 0.25894 0.0
C208 C 0.50601 0.70331 0.2342 0.0
H209 H 0.26655 0.46879 0.17302 0.0
H210 H 0.21157 0.4793 0.25797 0.0
H211 H 0.31372 0.49382 0.26012 0.0
C212 C 0.26555 0.47343 0.19826 0.0
C213 C 0.29367 0.48159 0.21451 0.0
C214 C 0.2359 0.47279 0.21356 0.0
C215 C 0.2345 0.47942 0.24614 0.0
C216 C 0.2628 0.48639 0.26314 0.0
C217 C 0.2922 0.48742 0.24718 0.0
N218 N 0.26265 0.49341 0.29602 0.0
C219 C 0.23553 0.49412 0.31498 0.0
H220 H 0.86147 0.76314 0.50735 0.0
H221 H 0.77039 0.80792 0.49612 0.0
H222 H 0.77552 0.70644 0.51012 0.0
C223 C 0.83561 0.76109 0.50634 0.0
C224 C 0.82103 0.73119 0.50981 0.0
C225 C 0.81739 0.78862 0.50157 0.0
C226 C 0.78413 0.78637 0.49934 0.0
C227 C 0.76876 0.75676 0.5023 0.0
C228 C 0.78737 0.72916 0.50727 0.0
N229 N 0.73474 0.75444 0.50128 0.0
C230 C 0.71467 0.78099 0.50019 0.0
H231 H 0.8557 0.2552 0.50959 0.0
H232 H 0.77136 0.1982 0.52001 0.0
H233 H 0.76478 0.30028 0.52596 0.0
C234 C 0.83018 0.25349 0.51382 0.0
C235 C 0.81232 0.28141 0.5184 0.0
C236 C 0.81569 0.22342 0.5147 0.0
C237 C 0.7825 0.22141 0.51885 0.0
C238 C 0.76393 0.24912 0.52253 0.0
C239 C 0.77899 0.27903 0.52232 0.0
N240 N 0.7303 0.24749 0.52729 0.0
C241 C 0.71343 0.21895 0.52765 0.0
H242 H 0.26885 0.84535 0.48427 0.0
H243 H 0.20925 0.76326 0.47405 0.0
H244 H 0.312 0.75266 0.47798 0.0
C245 C 0.26667 0.81982 0.48119 0.0
C246 C 0.29427 0.80092 0.48051 0.0
C247 C 0.23618 0.80651 0.47824 0.0
C248 C 0.23296 0.77345 0.47631 0.0
C249 C 0.26034 0.75383 0.47647 0.0
C250 C 0.29095 0.76771 0.47841 0.0
N251 N 0.25776 0.72023 0.47428 0.0
C252 C 0.22868 0.70422 0.47582 0.0
H253 H 0.2679 0.16362 0.50819 0.0
H254 H 0.21578 0.25105 0.51647 0.0
H255 H 0.31865 0.25231 0.50703 0.0
C256 C 0.2675 0.18941 0.50888 0.0
C257 C 0.29636 0.20593 0.50619 0.0
C258 C 0.23835 0.20544 0.51214 0.0
C259 C 0.23837 0.23867 0.5143 0.0
C260 C 0.26733 0.25584 0.51291 0.0
C261 C 0.29638 0.23926 0.50889 0.0
N262 N 0.26764 0.28963 0.51473 0.0
C263 C 0.23977 0.30781 0.51618 0.0
C264 C 0.01346 0.92454 0.58513 0.0
C265 C 0.01441 0.92875 0.43229 0.0
C266 C 0.02845 0.07732 0.59124 0.0
C267 C 0.0197 0.08445 0.43731 0.0
C268 C 0.94789 0.08658 0.51638 0.0
C269 C 0.93642 0.93374 0.5127 0.0
C270 C 0.10128 0.07508 0.50765 0.0
C271 C 0.08958 0.92158 0.50879 0.0
C272 C 0.09719 0.99865 0.4341 0.0
C273 C 0.94126 0.01002 0.43361 0.0
C274 C 0.09792 1.00263 0.58683 0.0
C275 C 0.94243 0.01154 0.58728 0.0
Eu276 Eu 0.01456 0.94492 0.50918 0.0
O277 O 0.9888 0.97932 0.48117 0.0
O278 O 0.04606 0.97257 0.53872 0.0
Eu279 Eu 0.95904 0.00891 0.51046 0.0
Eu280 Eu 0.07894 0.99972 0.51051 0.0
O281 O 0.98871 0.97766 0.53835 0.0
O282 O 0.04482 0.97523 0.48147 0.0
Eu283 Eu 0.01971 1.00167 0.5715 0.0
Eu284 Eu 0.01926 0.00623 0.44979 0.0
O285 O 0.99339 0.03288 0.54026 0.0
O286 O 0.99323 0.0354 0.48327 0.0
O287 O 0.04915 0.0313 0.48335 0.0
O288 O 0.04934 0.02888 0.54005 0.0
Eu289 Eu 0.02351 0.06396 0.51346 0.0
O290 O 0.01194 0.91666 0.55455 0.0
O291 O 0.01271 0.91923 0.46233 0.0
O292 O 0.02815 0.08869 0.56165 0.0
O293 O 0.02029 0.09225 0.46799 0.0
O294 O 0.93563 0.05765 0.51162 0.0
O295 O 0.92828 0.9644 0.51212 0.0
O296 O 0.10869 0.04427 0.5064 0.0
O297 O 0.10175 0.95092 0.50947 0.0
O298 O 0.06728 0.00358 0.4235 0.0
O299 O 0.97157 0.00839 0.42366 0.0
O300 O 0.06787 1.00074 0.59752 0.0
O301 O 0.97227 0.00633 0.59773 0.0
O302 O 0.07208 0.08725 0.51126 0.0
O303 O 0.97892 0.09353 0.5186 0.0
O304 O 0.05866 0.91405 0.50903 0.0
O305 O 0.96598 0.92206 0.5113 0.0
O306 O 0.01681 0.95903 0.42269 0.0
O307 O 0.02051 0.05483 0.42557 0.0
O308 O 0.01698 0.95398 0.59651 0.0
O309 O 0.02523 0.04692 0.59942 0.0
O310 O 0.93325 0.01321 0.55703 0.0
O311 O 0.93201 0.01074 0.46384 0.0
O312 O 0.10658 1.00235 0.55647 0.0
O313 O 0.10569 0.99615 0.46446 0.0
C314 C 0.52234 0.9242 0.082 0.0
C315 C 0.51974 0.07777 0.0968 0.0
C316 C 0.52503 0.9384 0.93012 0.0
C317 C 0.52179 0.09145 0.94336 0.0
C318 C 0.60157 0.01662 0.93881 0.0
C319 C 0.59895 0.00593 0.09109 0.0
C320 C 0.44593 0.01147 0.93462 0.0
C321 C 0.44339 0.99994 0.08849 0.0
C322 C 0.44236 0.08242 0.02147 0.0
C323 C 0.59694 0.08876 0.01966 0.0
C324 C 0.44815 0.92846 1.00452 0.0
C325 C 0.60362 0.9357 0.008 0.0
Eu326 Eu 0.5213 1.00281 0.07303 0.0
O327 O 0.54894 0.03522 0.04464 0.0
O328 O 0.4945 0.97666 0.03801 0.0
Eu329 Eu 0.58254 0.01125 0.01472 0.0
Eu330 Eu 0.46143 0.00617 0.01191 0.0
O331 O 0.55178 0.97887 0.03971 0.0
O332 O 0.49262 0.03277 0.04282 0.0
Eu333 Eu 0.52515 0.94864 0.00803 0.0
Eu334 Eu 0.52016 0.06836 0.01844 0.0
O335 O 0.55257 0.98387 0.98336 0.0
O336 O 0.55 0.04025 0.98805 0.0
O337 O 0.49315 0.03792 0.98686 0.0
O338 O 0.49569 0.98187 0.98242 0.0
Eu339 Eu 0.52346 0.01338 0.9534 0.0
O340 O 0.51975 0.9533 0.09449 0.0
O341 O 0.51856 0.04688 0.10383 0.0
O342 O 0.52529 0.96919 0.92266 0.0
O343 O 0.52428 0.06214 0.93156 0.0
O344 O 0.61021 0.01577 0.96923 0.0
O345 O 0.60879 0.01054 0.0615 0.0
O346 O 0.43571 0.00845 0.96442 0.0
O347 O 0.43402 1.00197 0.05822 0.0
O348 O 0.4725 0.09261 0.02334 0.0
O349 O 0.56612 0.0972 0.02042 0.0
O350 O 0.47912 0.92059 1.0041 0.0
O351 O 0.5738 0.92429 0.00619 0.0
O352 O 0.47655 0.01403 0.92588 0.0
O353 O 0.57146 0.01556 0.92794 0.0
O354 O 0.47376 0.9998 0.09854 0.0
O355 O 0.56861 1.00151 0.10013 0.0
O356 O 0.52131 0.09016 0.06772 0.0
O357 O 0.51865 0.09899 0.97396 0.0
O358 O 0.52566 0.9173 0.05141 0.0
O359 O 0.52487 0.92637 0.95932 0.0
O360 O 0.6115 0.96622 0.01148 0.0
O361 O 0.60767 0.05892 0.0177 0.0
O362 O 0.43656 0.95796 0.00775 0.0
O363 O 0.43302 0.05244 0.0161 0.0
C364 C 0.01799 0.42263 0.08371 0.0
C365 C 0.02409 0.43254 0.92962 0.0
C366 C 0.01692 0.57573 0.09385 0.0
C367 C 0.02416 0.58695 0.94071 0.0
C368 C 0.94056 0.57721 0.01644 0.0
C369 C 0.94727 0.42396 1.00268 0.0
C370 C 0.09501 0.58459 0.02307 0.0
C371 C 0.10189 0.43001 0.01018 0.0
C372 C 0.10415 0.50897 0.94088 0.0
C373 C 0.94915 0.5103 0.92963 0.0
C374 C 0.09283 0.49955 0.09368 0.0
C375 C 0.9389 0.49649 0.08167 0.0
Eu376 Eu 0.0238 0.44381 0.00757 0.0
O377 O 0.99627 0.4768 0.97947 0.0
O378 O 0.04905 0.47515 0.03958 0.0
Eu379 Eu 0.96128 0.50183 0.00691 0.0
Eu380 Eu 0.08216 0.50651 0.01597 0.0
O381 O 0.99244 0.47299 0.03541 0.0
O382 O 0.0527 0.47906 0.98388 0.0
Eu383 Eu 0.01721 0.50028 0.07087 0.0
Eu384 Eu 0.0254 0.50856 0.95196 0.0
O385 O 0.98973 0.52951 0.03937 0.0
O386 O 0.99373 0.53357 0.98341 0.0
O387 O 0.05041 0.53557 0.98777 0.0
O388 O 0.04676 0.53152 0.0434 0.0
Eu389 Eu 0.01862 0.5644 0.016 0.0
O390 O 0.02216 0.4143 0.05332 0.0
O391 O 0.02507 0.42029 0.95881 0.0
O392 O 0.01652 0.58805 0.06468 0.0
O393 O 0.02038 0.59397 0.97132 0.0
O394 O 0.93247 0.5467 0.01333 0.0
O395 O 0.93652 0.45391 1.00301 0.0
O396 O 0.10677 0.55499 0.02114 0.0
O397 O 0.11078 0.46037 0.01382 0.0
O398 O 0.07443 0.50742 0.92918 0.0
O399 O 0.98012 0.51044 0.92192 0.0
O400 O 0.06188 0.49913 0.10102 0.0
O401 O 0.96824 0.49913 0.09404 0.0
O402 O 0.06414 0.59252 0.02163 0.0
O403 O 0.97023 0.58895 0.01665 0.0
O404 O 0.07186 0.41961 0.00747 0.0
O405 O 0.97793 0.4151 1.00371 0.0
O406 O 0.02419 0.4635 0.92257 0.0
O407 O 0.02709 0.55755 0.92882 0.0
O408 O 0.01536 0.45235 0.09436 0.0
O409 O 0.01696 0.54481 0.10071 0.0
O410 O 0.9317 0.49602 0.05091 0.0
O411 O 0.93744 0.50769 0.95888 0.0
O412 O 0.10513 0.50175 0.06463 0.0
O413 O 0.11217 0.51035 0.97147 0.0
C414 C 0.5152 0.42381 0.08448 0.0
C415 C 0.50215 0.57881 0.09098 0.0
C416 C 0.52048 0.43182 0.9301 0.0
C417 C 0.50561 0.58491 0.93837 0.0
C418 C 0.59295 0.51185 0.94028 0.0
C419 C 0.58366 0.50433 0.09315 0.0
C420 C 0.43616 0.50419 0.93075 0.0
C421 C 0.42915 0.49832 0.08369 0.0
C422 C 0.42797 0.57492 0.01338 0.0
C423 C 0.58206 0.58604 0.01835 0.0
C424 C 0.43934 0.42164 1.0022 0.0
C425 C 0.59308 0.43275 0.0085 0.0
Eu426 Eu 0.5073 0.50145 0.07199 0.0
O427 O 0.53528 0.53301 0.04307 0.0
O428 O 0.48284 0.47226 0.03699 0.0
Eu429 Eu 0.57034 0.50818 0.01548 0.0
Eu430 Eu 0.45049 0.49965 0.00799 0.0
O431 O 0.53892 0.47656 0.04008 0.0
O432 O 0.4791 0.52861 0.03907 0.0
Eu433 Eu 0.51495 0.44429 0.00812 0.0
Eu434 Eu 0.50637 0.56373 0.01408 0.0
O435 O 0.54185 0.47997 0.98362 0.0
O436 O 0.5386 0.53579 0.98596 0.0
O437 O 0.48179 0.53149 0.98287 0.0
O438 O 0.48599 0.47573 0.97977 0.0
Eu439 Eu 0.5138 0.50771 0.95081 0.0
O440 O 0.51038 0.45305 0.09604 0.0
O441 O 0.50342 0.54827 0.10011 0.0
O442 O 0.5188 0.46254 0.92242 0.0
O443 O 0.51151 0.55595 0.92676 0.0
O444 O 0.5997 0.51211 0.97117 0.0
O445 O 0.5948 0.50487 0.06354 0.0
O446 O 0.42583 0.50137 0.96044 0.0
O447 O 0.42147 0.49827 0.05298 0.0
O448 O 0.45758 0.58634 0.01628 0.0
O449 O 0.55129 0.59388 0.01501 0.0
O450 O 0.4704 0.41449 1.00326 0.0
O451 O 0.56363 0.42058 0.00778 0.0
O452 O 0.46696 0.50637 0.9221 0.0
O453 O 0.56343 0.51082 0.92768 0.0
O454 O 0.45878 0.49854 0.09564 0.0
O455 O 0.55285 0.50402 0.10137 0.0
O456 O 0.50326 0.5889 0.06111 0.0
O457 O 0.50227 0.59226 0.96892 0.0
O458 O 0.51748 0.41608 0.05383 0.0
O459 O 0.51915 0.42014 0.95957 0.0
O460 O 0.60041 0.46355 0.01119 0.0
O461 O 0.59363 0.55652 0.02016 0.0
O462 O 0.42692 0.45086 1.00434 0.0
O463 O 0.42009 0.54447 0.00887 0.0
C464 C 0.0249 0.42971 0.59085 0.0
C465 C 0.00833 0.42094 0.43792 0.0
C466 C 0.01666 0.58222 0.58428 0.0
C467 C 0.00194 0.57547 0.4306 0.0
C468 C 0.93248 0.57648 0.51194 0.0
C469 C 0.93963 0.42233 0.52301 0.0
C470 C 0.08816 0.58174 0.50393 0.0
C471 C 0.09424 0.42896 0.50507 0.0
C472 C 0.08387 0.50139 0.42813 0.0
C473 C 0.92841 0.49631 0.44095 0.0
C474 C 0.09692 0.50695 0.58073 0.0
C475 C 0.94215 0.50429 0.59361 0.0
Eu476 Eu 0.01601 0.44183 0.51367 0.0
O477 O 0.98366 0.47128 0.48634 0.0
O478 O 0.04501 0.47644 0.53779 0.0
Eu479 Eu 0.95287 0.49998 0.51568 0.0
Eu480 Eu 0.07279 0.50468 0.50587 0.0
O481 O 0.98829 0.47408 0.54235 0.0
O482 O 0.03982 0.47371 0.48173 0.0
Eu483 Eu 0.01797 0.50517 0.57011 0.0
Eu484 Eu 0.00769 0.49899 0.4507 0.0
O485 O 0.98615 0.53119 0.5394 0.0
O486 O 0.98179 0.52789 0.48406 0.0
O487 O 0.03769 0.53046 0.47856 0.0
O488 O 0.04239 0.53326 0.53523 0.0
Eu489 Eu 0.01098 0.56309 0.50785 0.0
O490 O 0.02248 0.41775 0.56158 0.0
O491 O 0.01065 0.41306 0.46848 0.0
O492 O 0.01493 0.59125 0.55396 0.0
O493 O 0.00579 0.5872 0.45983 0.0
O494 O 0.92396 0.54585 0.51317 0.0
O495 O 0.92806 0.4519 0.52055 0.0
O496 O 0.09812 0.55169 0.50448 0.0
O497 O 0.10173 0.45967 0.50315 0.0
O498 O 0.05282 0.49914 0.4205 0.0
O499 O 0.95776 0.49643 0.42834 0.0
O500 O 0.0674 0.50649 0.59273 0.0
O501 O 0.97336 0.50455 0.60069 0.0
O502 O 0.05762 0.59136 0.50384 0.0
O503 O 0.96249 0.5875 0.51088 0.0
O504 O 0.0648 0.41722 0.50956 0.0
O505 O 0.97045 0.4141 0.52145 0.0
O506 O 0.00767 0.45055 0.42642 0.0
O507 O 0.00175 0.54465 0.42275 0.0
O508 O 0.02338 0.46039 0.5986 0.0
O509 O 0.01761 0.55246 0.59488 0.0
O510 O 0.92998 0.50309 0.56431 0.0
O511 O 0.92203 0.49698 0.47184 0.0
O512 O 0.10421 0.5068 0.55 0.0
O513 O 0.09545 0.50424 0.45748 0.0
C514 C 0.50556 0.92249 0.58419 0.0
C515 C 0.51075 0.92489 0.43192 0.0
C516 C 0.51109 0.07678 0.58832 0.0
C517 C 0.51843 0.07912 0.4336 0.0
C518 C 0.44047 0.0836 0.51294 0.0
C519 C 0.43172 0.92955 0.49797 0.0
C520 C 0.59415 0.07447 0.50927 0.0
C521 C 0.58523 0.91951 0.51297 0.0
C522 C 0.59127 0.99313 0.4354 0.0
C523 C 0.4365 0.01169 0.43141 0.0
C524 C 0.58787 0.99786 0.58895 0.0
C525 C 0.43297 0.99828 0.58377 0.0
Eu526 Eu 0.50914 0.94164 0.50835 0.0
O527 O 0.48296 0.97539 0.48016 0.0
O528 O 0.5389 0.97109 0.53801 0.0
Eu529 Eu 0.45223 0.0053 0.50798 0.0
Eu530 Eu 0.57347 0.99798 0.51142 0.0
O531 O 0.4817 0.97439 0.53636 0.0
O532 O 0.53998 0.97237 0.48185 0.0
Eu533 Eu 0.51103 0.99997 0.56965 0.0
Eu534 Eu 0.5135 1.002 0.44954 0.0
O535 O 0.48545 0.03064 0.53758 0.0
O536 O 0.48666 0.03189 0.48132 0.0
O537 O 0.54299 0.02807 0.48289 0.0
O538 O 0.54218 0.0276 0.53946 0.0
Eu539 Eu 0.5162 0.06161 0.51098 0.0
O540 O 0.50362 0.91426 0.55377 0.0
O541 O 0.51265 0.91507 0.46185 0.0
O542 O 0.51606 0.08749 0.55889 0.0
O543 O 0.51673 0.08868 0.46387 0.0
O544 O 0.42853 0.05412 0.51106 0.0
O545 O 0.42374 0.96031 0.49894 0.0
O546 O 0.60296 0.04389 0.51075 0.0
O547 O 0.5974 0.94896 0.51194 0.0
O548 O 0.56107 0.99507 0.42507 0.0
O549 O 0.46659 0.00687 0.42177 0.0
O550 O 0.55731 1.00007 0.59773 0.0
O551 O 0.46299 0.99893 0.59481 0.0
O552 O 0.56428 0.08545 0.50937 0.0
O553 O 0.47135 0.09137 0.51316 0.0
O554 O 0.55417 0.91223 0.51244 0.0
O555 O 0.46101 0.91766 0.50225 0.0
O556 O 0.509 0.95518 0.42249 0.0
O557 O 0.51863 0.04887 0.42391 0.0
O558 O 0.50962 0.95213 0.59508 0.0
O559 O 0.50834 0.04629 0.59654 0.0
O560 O 0.42423 1.00009 0.55338 0.0
O561 O 0.42681 0.01262 0.46141 0.0
O562 O 0.5985 0.99619 0.55919 0.0
O563 O 0.60109 0.99492 0.46546 0.0
H564 H 0.22387 0.15414 0.4762 0.0
H565 H 0.18483 0.21534 0.54859 0.0
H566 H 0.13737 0.18141 0.55186 0.0
H567 H 0.10914 0.13195 0.53692 0.0
H568 H 0.15215 0.06832 0.46902 0.0
H569 H 0.19664 0.10518 0.46196 0.0
C570 C 0.20522 0.15993 0.49304 0.0
C571 C 0.20817 0.18692 0.5125 0.0
C572 C 0.17898 0.13965 0.49586 0.0
C573 C 0.18313 0.19473 0.53325 0.0
C574 C 0.15616 0.17519 0.53535 0.0
C575 C 0.12826 0.12636 0.52052 0.0
C576 C 0.12767 0.09759 0.5036 0.0
C577 C 0.15416 0.14726 0.5172 0.0
C578 C 0.15247 0.09026 0.48254 0.0
C579 C 0.17775 0.11134 0.47837 0.0
H580 H 0.873 0.2133 0.54296 0.0
H581 H 0.80303 0.16786 0.48254 0.0
H582 H 0.83692 0.12048 0.47913 0.0
H583 H 0.88771 0.09291 0.49172 0.0
H584 H 0.95825 0.14064 0.54984 0.0
H585 H 0.92303 0.18639 0.55527 0.0
C586 C 0.86527 0.19322 0.52868 0.0
C587 C 0.83568 0.19428 0.51278 0.0
C588 C 0.88506 0.16649 0.52632 0.0
C589 C 0.82565 0.16762 0.49516 0.0
C590 C 0.84509 0.1406 0.49306 0.0
C591 C 0.8952 0.11327 0.5057 0.0
C592 C 0.92558 0.11347 0.52018 0.0
C593 C 0.87498 0.13986 0.50836 0.0
C594 C 0.93513 0.14006 0.53811 0.0
C595 C 0.91499 0.16621 0.54134 0.0
H596 H 0.85823 0.81203 0.5449 0.0
H597 H 0.81167 0.83519 0.4567 0.0
H598 H 0.84196 0.88515 0.45386 0.0
H599 H 0.8858 0.91956 0.47442 0.0
H600 H 0.93209 0.89486 0.56232 0.0
H601 H 0.89769 0.84826 0.56769 0.0
C602 C 0.85469 0.82814 0.52514 0.0
C603 C 0.83335 0.81993 0.50078 0.0
C604 C 0.87213 0.85645 0.5237 0.0
C605 C 0.82826 0.84113 0.4756 0.0
C606 C 0.84557 0.86957 0.47397 0.0
C607 C 0.88764 0.90426 0.49499 0.0
C608 C 0.91135 0.91011 0.51789 0.0
C609 C 0.86808 0.87718 0.49759 0.0
C610 C 0.91406 0.89026 0.54438 0.0
C611 C 0.89449 0.86372 0.54741 0.0
H612 H 0.18054 0.80205 0.51148 0.0
H613 H 0.22951 0.85911 0.44204 0.0
H614 H 0.18802 0.89966 0.44546 0.0
H615 H 0.14017 0.92047 0.47074 0.0
H616 H 0.08903 0.8638 0.53845 0.0
H617 H 0.12893 0.82116 0.53317 0.0
C618 C 0.18169 0.82308 0.49671 0.0
C619 C 0.20821 0.82794 0.47696 0.0
C620 C 0.15772 0.8464 0.49882 0.0
C621 C 0.20954 0.85524 0.45786 0.0
C622 C 0.18591 0.8784 0.45979 0.0
C623 C 0.13793 0.89884 0.48439 0.0
C624 C 0.11244 0.89537 0.50541 0.0
C625 C 0.16042 0.87458 0.48077 0.0
C626 C 0.10888 0.86691 0.52234 0.0
C627 C 0.13159 0.84263 0.51929 0.0
H628 H 0.4952 0.16835 0.21362 0.0
H629 H 0.56958 0.22155 0.16701 0.0
H630 H 0.5752 0.17974 0.12745 0.0
H631 H 0.55567 0.13054 0.10316 0.0
H632 H 0.48345 0.0752 0.15027 0.0
H633 H 0.48031 0.11513 0.1926 0.0
C634 C 0.5131 0.17035 0.19523 0.0
C635 C 0.53149 0.19826 0.19287 0.0
C636 C 0.51625 0.14609 0.17237 0.0
C637 C 0.5547 0.20054 0.16894 0.0
C638 C 0.55791 0.1767 0.14626 0.0
C639 C 0.53937 0.12721 0.12281 0.0
C640 C 0.51946 0.1004 0.12348 0.0
C641 C 0.53815 0.14987 0.14718 0.0
C642 C 0.4989 0.09586 0.14931 0.0
C643 C 0.49709 0.11867 0.17344 0.0
H644 H 0.80988 0.47185 0.15214 0.0
H645 H 0.85248 0.53533 0.22078 0.0
H646 H 0.90194 0.53667 0.18972 0.0
H647 H 0.93168 0.5221 0.14087 0.0
H648 H 0.88458 0.46385 0.07057 0.0
H649 H 0.83805 0.45856 0.1042 0.0
C650 C 0.82971 0.48649 0.16018 0.0
C651 C 0.8272 0.50397 0.1884 0.0
C652 C 0.8573 0.48806 0.14181 0.0
C653 C 0.85373 0.52167 0.19906 0.0
C654 C 0.88194 0.52259 0.18123 0.0
C655 C 0.91129 0.50806 0.13319 0.0
C656 C 0.91168 0.49303 0.1034 0.0
C657 C 0.88383 0.50618 0.15228 0.0
C658 C 0.88497 0.47534 0.09343 0.0
C659 C 0.85828 0.4724 0.11262 0.0
H660 H 0.53497 0.80793 0.17518 0.0
H661 H 0.44395 0.84496 0.2058 0.0
H662 H 0.44495 0.88467 0.16382 0.0
H663 H 0.47457 0.91279 0.12251 0.0
H664 H 0.56421 0.87507 0.08935 0.0
H665 H 0.56116 0.83176 0.1282 0.0
C666 C 0.51497 0.82406 0.17192 0.0
C667 C 0.48959 0.82382 0.19365 0.0
C668 C 0.51587 0.84715 0.14784 0.0
C669 C 0.46382 0.84493 0.18939 0.0
C670 C 0.46449 0.86779 0.1656 0.0
C671 C 0.4933 0.89492 0.1238 0.0
C672 C 0.51988 0.89722 0.10386 0.0
C673 C 0.49092 0.86986 0.14549 0.0
C674 C 0.54372 0.87373 0.10493 0.0
C675 C 0.54193 0.84902 0.12702 0.0
H676 H 0.18255 0.5096 0.21317 0.0
H677 H 0.22467 0.42708 0.16911 0.0
H678 H 0.18377 0.42812 0.12763 0.0
H679 H 0.13931 0.45581 0.10099 0.0
H680 H 0.09576 0.5369 0.14587 0.0
H681 H 0.13391 0.53332 0.18996 0.0
C682 C 0.18215 0.4913 0.19504 0.0
C683 C 0.20673 0.46853 0.19395 0.0
C684 C 0.15877 0.49226 0.17107 0.0
C685 C 0.20611 0.44505 0.17018 0.0
C686 C 0.1829 0.44575 0.14637 0.0
C687 C 0.1383 0.47258 0.12053 0.0
C688 C 0.11536 0.49688 0.12024 0.0
C689 C 0.15981 0.46989 0.14598 0.0
C690 C 0.11351 0.51815 0.14578 0.0
C691 C 0.13523 0.51606 0.17092 0.0
H692 H 0.54274 0.84344 0.81598 0.0
H693 H 0.47121 0.79242 0.86912 0.0
H694 H 0.46837 0.83573 0.90728 0.0
H695 H 0.48877 0.8861 0.92765 0.0
H696 H 0.55813 0.93923 0.87435 0.0
H697 H 0.55891 0.89735 0.83369 0.0
C698 C 0.52613 0.84209 0.83558 0.0
C699 C 0.50778 0.8144 0.84009 0.0
C700 C 0.52438 0.86731 0.85743 0.0
C701 C 0.48627 0.81307 0.86559 0.0
C702 C 0.4845 0.83786 0.88737 0.0
C703 C 0.50396 0.88849 0.90706 0.0
C704 C 0.52375 0.91519 0.90409 0.0
C705 C 0.50398 0.86467 0.88393 0.0
C706 C 0.5428 0.91864 0.87704 0.0
C707 C 0.5433 0.89471 0.85393 0.0
H708 H 0.21644 0.52708 0.84311 0.0
H709 H 0.17104 0.44411 0.80273 0.0
H710 H 0.13362 0.44214 0.84667 0.0
H711 H 0.11035 0.46688 0.89366 0.0
H712 H 0.15652 0.54774 0.93676 0.0
H713 H 0.19721 0.54768 0.89489 0.0
C714 C 0.19885 0.50818 0.84439 0.0
C715 C 0.19606 0.48621 0.81933 0.0
C716 C 0.17726 0.50711 0.86993 0.0
C717 C 0.1732 0.46173 0.82137 0.0
C718 C 0.15176 0.46058 0.84646 0.0
C719 C 0.12949 0.48433 0.89391 0.0
C720 C 0.13031 0.50761 0.91769 0.0
C721 C 0.15291 0.48371 0.87029 0.0
C722 C 0.15546 0.52974 0.9184 0.0
C723 C 0.17864 0.5297 0.89449 0.0
H724 H 0.50103 0.2033 0.84633 0.0
H725 H 0.56889 0.14669 0.79378 0.0
H726 H 0.5737 0.11001 0.83803 0.0
H727 H 0.5563 0.0921 0.88997 0.0
H728 H 0.48995 0.14859 0.9441 0.0
H729 H 0.48757 0.18787 0.90118 0.0
C730 C 0.51728 0.18326 0.84477 0.0
C731 C 0.53408 0.17744 0.81646 0.0
C732 C 0.52021 0.16229 0.87053 0.0
C733 C 0.55499 0.15127 0.81489 0.0
C734 C 0.55794 0.13038 0.84026 0.0
C735 C 0.54142 0.11311 0.89246 0.0
C736 C 0.52295 0.1173 0.91985 0.0
C737 C 0.54019 0.13531 0.86787 0.0
C738 C 0.50434 0.14491 0.92314 0.0
C739 C 0.50285 0.16721 0.89856 0.0
H740 H 0.85359 0.49813 0.81425 0.0
H741 H 0.80452 0.57102 0.86741 0.0
H742 H 0.84758 0.5716 0.90644 0.0
H743 H 0.89709 0.54833 0.92796 0.0
H744 H 0.94878 0.47912 0.87303 0.0
H745 H 0.90712 0.48042 0.83203 0.0
C746 C 0.85263 0.51471 0.83391 0.0
C747 C 0.82529 0.53386 0.83822 0.0
C748 C 0.87783 0.51533 0.85619 0.0
C749 C 0.82469 0.55524 0.86395 0.0
C750 C 0.84939 0.5557 0.88629 0.0
C751 C 0.89925 0.53372 0.90687 0.0
C752 C 0.92558 0.51324 0.90365 0.0
C753 C 0.87561 0.5352 0.88315 0.0
C754 C 0.92858 0.4949 0.87602 0.0
C755 C 0.90474 0.49564 0.85263 0.0
H756 H 0.67722 0.7 0.99681 0.0
H757 H 0.73321 0.64499 0.06322 0.0
H758 H 0.68954 0.60713 0.06863 0.0
H759 H 0.63723 0.58738 0.05159 0.0
H760 H 0.57964 0.64286 0.9872 0.0
H761 H 0.62188 0.68318 0.98441 0.0
C762 C 0.67962 0.68008 0.01291 0.0
C763 C 0.70875 0.67494 0.02898 0.0
C764 C 0.65421 0.65841 0.01617 0.0
C765 C 0.7114 0.649 0.04983 0.0
C766 C 0.68639 0.6274 0.05309 0.0
C767 C 0.63387 0.60842 0.03711 0.0
C768 C 0.60569 0.61203 0.01931 0.0
C769 C 0.65805 0.63144 0.03579 0.0
C770 C 0.60125 0.63963 1.00111 0.0
C771 C 0.62542 0.66258 0.9994 0.0
H772 H 0.31591 0.67326 0.99584 0.0
H773 H 0.37287 0.72408 0.06493 0.0
H774 H 0.40949 0.6791 0.06882 0.0
H775 H 0.4275 0.62735 0.04972 0.0
H776 H 0.37057 0.57532 0.98178 0.0
H777 H 0.33108 0.61854 0.98093 0.0
C778 C 0.33595 0.67425 0.01223 0.0
C779 C 0.34197 0.70223 0.02966 0.0
C780 C 0.35688 0.6482 0.01447 0.0
C781 C 0.36815 0.70314 0.05067 0.0
C782 C 0.38901 0.6774 0.05304 0.0
C783 C 0.40634 0.62541 0.03485 0.0
C784 C 0.40209 0.59858 0.01546 0.0
C785 C 0.38401 0.65019 0.03449 0.0
C786 C 0.37429 0.59589 0.99685 0.0
C787 C 0.35187 0.62062 0.99625 0.0
H788 H 0.36891 0.29196 0.9766 0.0
H789 H 0.29807 0.33521 0.03699 0.0
H790 H 0.32938 0.38433 0.03872 0.0
H791 H 0.37896 0.41389 0.02579 0.0
H792 H 0.45086 0.36824 0.96841 0.0
H793 H 0.41732 0.32114 0.96321 0.0
C794 C 0.36038 0.31198 0.99042 0.0
C795 C 0.3313 0.30966 0.00689 0.0
C796 C 0.37884 0.33977 0.99199 0.0
C797 C 0.32026 0.3363 0.02389 0.0
C798 C 0.33827 0.36437 0.02508 0.0
C799 C 0.38703 0.39371 0.01192 0.0
C800 C 0.41739 0.39445 0.99768 0.0
C801 C 0.36785 0.36625 0.00956 0.0
C802 C 0.42773 0.3681 0.97992 0.0
C803 C 0.40855 0.34116 0.97686 0.0
H804 H 0.72104 0.35984 0.98136 0.0
H805 H 0.6791 0.29219 0.04561 0.0
H806 H 0.62968 0.3236 0.04692 0.0
H807 H 0.60046 0.37335 0.03364 0.0
H808 H 0.64585 0.44254 0.97361 0.0
H809 H 0.6922 0.408 0.96744 0.0
C810 C 0.70118 0.35196 0.99582 0.0
C811 C 0.70402 0.32401 0.0138 0.0
C812 C 0.67363 0.37077 0.99758 0.0
C813 C 0.67758 0.3136 0.03149 0.0
C814 C 0.64943 0.33173 0.0325 0.0
C815 C 0.62049 0.38064 0.01911 0.0
C816 C 0.62009 0.41063 1.00441 0.0
C817 C 0.6475 0.36081 0.01627 0.0
C818 C 0.64604 0.4199 0.98564 0.0
C819 C 0.67241 0.40005 0.98193 0.0
H820 H 0.00916 0.67267 0.70283 0.0
H821 H 0.08288 0.72165 0.65102 0.0
H822 H 0.07988 0.68191 0.60887 0.0
H823 H 0.05438 0.63449 0.58548 0.0
H824 H 0.98272 0.58403 0.63853 0.0
H825 H 0.98655 0.62315 0.68133 0.0
C826 C 0.02507 0.6742 0.68267 0.0
C827 C 0.04603 0.70013 0.67992 0.0
C828 C 0.0231 0.65137 0.65845 0.0
C829 C 0.0663 0.70202 0.65348 0.0
C830 C 0.06451 0.67941 0.62931 0.0
C831 C 0.03946 0.63238 0.60633 0.0
C832 C 0.01794 0.60696 0.60881 0.0
C833 C 0.0425 0.65438 0.63121 0.0
C834 C 0.99925 0.60374 0.63617 0.0
C835 C 0.00154 0.62595 0.66065 0.0
H836 H 0.30864 0.96879 0.66143 0.0
H837 H 0.35375 0.03284 0.72801 0.0
H838 H 0.40117 0.03546 0.69434 0.0
H839 H 0.4281 0.02281 0.64357 0.0
H840 H 0.37937 0.96338 0.5753 0.0
H841 H 0.33476 0.95646 0.61162 0.0
C842 C 0.32862 0.98367 0.66855 0.0
C843 C 0.32725 1.00095 0.69709 0.0
C844 C 0.3551 0.98619 0.6485 0.0
C845 C 0.35405 0.0191 0.70631 0.0
C846 C 0.38111 0.02087 0.68688 0.0
C847 C 0.40776 0.00822 0.63685 0.0
C848 C 0.40688 0.99377 0.60678 0.0
C849 C 0.38165 0.005 0.6576 0.0
C850 C 0.38038 0.97505 0.59819 0.0
C851 C 0.35493 0.97096 0.61897 0.0
H852 H 0.05558 0.35885 0.71801 0.0
H853 H 0.99231 0.28895 0.67638 0.0
H854 H 0.98966 0.31995 0.62766 0.0
H855 H 0.0022 0.3692 0.59815 0.0
H856 H 0.05903 0.4417 0.64392 0.0
H857 H 0.06693 0.40771 0.68971 0.0
C858 C 0.04082 0.35046 0.69853 0.0
C859 C 0.02402 0.32166 0.70117 0.0
C860 C 0.03821 0.36901 0.67117 0.0
C861 C 0.00588 0.31084 0.67507 0.0
C862 C 0.00409 0.3287 0.64721 0.0
C863 C 0.01658 0.37727 0.61804 0.0
C864 C 0.03043 0.40771 0.61746 0.0
C865 C 0.01978 0.3581 0.64514 0.0
C866 C 0.0485 0.41822 0.64361 0.0
C867 C 0.05289 0.39886 0.66992 0.0
H868 H 0.6818 0.01643 0.70484 0.0
H869 H 0.73872 0.95174 0.64897 0.0
H870 H 0.69632 0.94867 0.60934 0.0
H871 H 0.64425 0.96633 0.5891 0.0
H872 H 0.58565 0.02842 0.6459 0.0
H873 H 0.6273 0.03013 0.68684 0.0
C874 C 0.6847 1.0012 0.68431 0.0
C875 C 0.71371 0.98485 0.67965 0.0
C876 C 0.66 0.99921 0.66167 0.0
C877 C 0.71702 0.96528 0.65278 0.0
C878 C 0.69272 0.96337 0.63013 0.0
C879 C 0.64063 0.9802 0.61047 0.0
C880 C 0.61219 0.99752 0.61437 0.0
C881 C 0.6644 0.98071 0.63402 0.0
C882 C 0.60743 0.0149 0.64241 0.0
C883 C 0.63124 0.01595 0.66576 0.0
H884 H 0.99059 0.29291 0.36259 0.0
H885 H 0.05012 0.34181 0.29512 0.0
H886 H 0.04834 0.38989 0.32792 0.0
H887 H 0.03309 0.41679 0.37811 0.0
H888 H 0.9779 0.36496 0.44699 0.0
H889 H 0.97543 0.31912 0.41165 0.0
C890 C 0.00356 0.3139 0.35508 0.0
C891 C 0.02091 0.31338 0.32656 0.0
C892 C 0.00342 0.34096 0.37454 0.0
C893 C 0.03647 0.34138 0.31684 0.0
C894 C 0.03568 0.36885 0.33575 0.0
C895 C 0.02031 0.39552 0.38516 0.0
C896 C 0.00578 0.39421 0.41518 0.0
C897 C 0.01969 0.36876 0.36496 0.0
C898 C 0.98953 0.36644 0.42417 0.0
C899 C 0.98803 0.34024 0.40394 0.0
H900 H 0.67271 0.95541 0.31731 0.0
H901 H 0.73262 0.03139 0.35223 0.0
H902 H 0.69966 0.0353 0.40001 0.0
H903 H 0.64951 0.02144 0.42836 0.0
H904 H 0.58699 0.94998 0.3886 0.0
H905 H 0.6248 0.94037 0.34582 0.0
C906 C 0.67863 0.97284 0.33539 0.0
C907 C 0.70462 0.99353 0.33095 0.0
C908 C 0.6587 0.97608 0.36166 0.0
C909 C 0.71266 0.01523 0.35506 0.0
C910 C 0.69361 0.01769 0.38219 0.0
C911 C 0.64451 0.0036 0.41042 0.0
C912 C 0.61555 0.98661 0.41124 0.0
C913 C 0.66592 0.99896 0.38521 0.0
C914 C 0.60902 0.96359 0.38801 0.0
C915 C 0.63064 0.958 0.36369 0.0
H916 H 0.97109 0.65112 0.30565 0.0
H917 H 0.03625 0.71855 0.3483 0.0
H918 H 0.03915 0.68581 0.39603 0.0
H919 H 0.02665 0.63545 0.42398 0.0
H920 H 0.9655 0.56643 0.37815 0.0
H921 H 0.95831 0.60191 0.33315 0.0
C922 C 0.98621 0.65866 0.3252 0.0
C923 C 0.00377 0.68717 0.32299 0.0
C924 C 0.9888 0.63913 0.35199 0.0
C925 C 0.02227 0.69689 0.34922 0.0
C926 C 0.02421 0.67798 0.37648 0.0
C927 C 0.01156 0.62838 0.40423 0.0
C928 C 0.99678 0.59825 0.40435 0.0
C929 C 0.00809 0.6487 0.37789 0.0
C930 C 0.97745 0.5893 0.3785 0.0
C931 C 0.97321 0.60963 0.35278 0.0
H932 H 0.31115 0.04095 0.35411 0.0
H933 H 0.35048 0.96926 0.29234 0.0
H934 H 0.39933 0.96747 0.32456 0.0
H935 H 0.42899 0.9831 0.37337 0.0
H936 H 0.38666 0.05203 0.4363 0.0
H937 H 0.341 0.0579 0.40083 0.0
C938 C 0.33033 0.02482 0.3477 0.0
C939 C 0.32689 0.005 0.32105 0.0
C940 C 0.35789 0.02332 0.36673 0.0
C941 C 0.35246 0.9849 0.31265 0.0
C942 C 0.38035 0.9837 0.33122 0.0
C943 C 0.40996 0.99972 0.37894 0.0
C944 C 0.41115 0.01708 0.40745 0.0
C945 C 0.38311 1.00237 0.3587 0.0
C946 C 0.3862 0.03829 0.4146 0.0
C947 C 0.36004 0.04166 0.39434 0.0
H948 H 0.99523 0.21247 0.36404 0.0
H949 H 0.05803 0.1682 0.29612 0.0
H950 H 0.05966 0.11992 0.32837 0.0
H951 H 0.04552 0.09118 0.37787 0.0
H952 H 0.98613 0.13845 0.44682 0.0
H953 H 0.9815 0.18467 0.41252 0.0
C954 C 0.00968 0.1925 0.35633 0.0
C955 C 0.02678 0.19436 0.32773 0.0
C956 C 0.01129 0.16524 0.37539 0.0
C957 C 0.04442 0.16759 0.31786 0.0
C958 C 0.04557 0.13998 0.33645 0.0
C959 C 0.03142 0.11155 0.38518 0.0
C960 C 0.01635 0.11141 0.41496 0.0
C961 C 0.02939 0.13863 0.3655 0.0
C962 C 0.9983 0.13806 0.42422 0.0
C963 C 0.99553 0.16451 0.40457 0.0
H964 H 0.81681 0.01449 0.34735 0.0
H965 H 0.8858 0.99144 0.27542 0.0
H966 H 0.92897 0.9924 0.31495 0.0
H967 H 0.94682 0.99928 0.37001 0.0
H968 H 0.87741 0.02189 0.44217 0.0
H969 H 0.8348 0.02158 0.40261 0.0
C970 C 0.84133 0.00967 0.34049 0.0
C971 C 0.84839 1.00285 0.30878 0.0
C972 C 0.86591 0.01019 0.36335 0.0
C973 C 0.88006 0.99671 0.29987 0.0
C974 C 0.90467 0.99727 0.32242 0.0
C975 C 0.92243 0.00431 0.37715 0.0
C976 C 0.91552 0.01059 0.40916 0.0
C977 C 0.89787 0.00395 0.35426 0.0
C978 C 0.88361 0.01685 0.41781 0.0
C979 C 0.85911 0.01671 0.39517 0.0
H980 H 0.01615 0.80364 0.34843 0.0
H981 H 1.0003 0.87177 0.27407 0.0
H982 H 1.00094 0.91536 0.31274 0.0
H983 H 0.0062 0.934 0.36795 0.0
H984 H 0.02192 0.86505 0.44215 0.0
H985 H 0.02112 0.82221 0.40354 0.0
C986 C 0.01277 0.82806 0.34088 0.0
C987 C 0.00813 0.83476 0.30873 0.0
C988 C 0.01317 0.85291 0.36323 0.0
C989 C 0.00385 0.86631 0.2989 0.0
C990 C 0.00425 0.89117 0.32096 0.0
C991 C 0.00952 0.90964 0.37568 0.0
C992 C 0.01401 0.90301 0.40805 0.0
C993 C 0.00896 0.88479 0.35325 0.0
C994 C 0.01815 0.87112 0.41751 0.0
C995 C 0.01778 0.84643 0.3954 0.0
H996 H 0.22543 0.97318 0.36026 0.0
H997 H 0.17967 0.03278 0.29046 0.0
H998 H 0.13119 0.03483 0.3228 0.0
H999 H 0.10277 0.02219 0.37312 0.0
H1000 H 0.15234 0.96644 0.44371 0.0
H1001 H 0.198 0.96076 0.40917 0.0
C1002 C 0.20507 0.98697 0.35212 0.0
C1003 C 0.20659 1.00309 0.32302 0.0
C1004 C 0.17768 0.98879 0.37118 0.0
C1005 C 0.17932 0.01993 0.31263 0.0
C1006 C 0.15158 0.02131 0.33127 0.0
C1007 C 0.12345 0.00858 0.38073 0.0
C1008 C 0.1238 0.9946 0.41107 0.0
C1009 C 0.15058 0.00616 0.36088 0.0
C1010 C 0.15108 0.97735 0.42059 0.0
C1011 C 0.17743 0.97413 0.40083 0.0
H1012 H 0.99701 0.79611 0.65855 0.0
H1013 H 0.05974 0.84307 0.7251 0.0
H1014 H 0.05601 0.89236 0.69416 0.0
H1015 H 0.03945 0.92 0.64468 0.0
H1016 H 0.98169 0.86919 0.57624 0.0
H1017 H 0.97929 0.82345 0.61114 0.0
C1018 C 0.00991 0.81713 0.66635 0.0
C1019 C 0.02912 0.81578 0.69371 0.0
C1020 C 0.00879 0.84462 0.64783 0.0
C1021 C 0.04484 0.84349 0.70406 0.0
C1022 C 0.04293 0.87155 0.6862 0.0
C1023 C 0.02605 0.89902 0.63768 0.0
C1024 C 0.01074 0.89804 0.60789 0.0
C1025 C 0.0257 0.87211 0.65752 0.0
C1026 C 0.99371 0.87061 0.59896 0.0
C1027 C 0.99232 0.84438 0.61891 0.0
H1028 H 0.22399 0.03477 0.66226 0.0
H1029 H 0.1826 0.97007 0.72977 0.0
H1030 H 0.1341 0.96614 0.69716 0.0
H1031 H 0.10506 0.97799 0.64685 0.0
H1032 H 0.14988 0.03945 0.57839 0.0
H1033 H 0.19544 0.04718 0.61359 0.0
C1034 C 0.20452 0.01956 0.66983 0.0
C1035 C 0.20729 1.00241 0.69827 0.0
C1036 C 0.17729 0.01656 0.65052 0.0
C1037 C 0.18121 0.9837 0.70808 0.0
C1038 C 0.15352 0.98121 0.68928 0.0
C1039 C 0.12475 0.9932 0.63986 0.0
C1040 C 0.12425 0.0078 0.60988 0.0
C1041 C 0.15151 0.99707 0.66008 0.0
C1042 C 0.14991 0.02747 0.60109 0.0
C1043 C 0.17596 0.03206 0.62126 0.0
H1044 H 0.05248 0.14658 0.72147 0.0
H1045 H 0.99037 0.21633 0.67901 0.0
H1046 H 0.98881 0.18551 0.62957 0.0
H1047 H 0.00342 0.13698 0.5993 0.0
H1048 H 0.06419 0.06677 0.64345 0.0
H1049 H 0.06839 0.09944 0.691 0.0
C1050 C 0.03872 0.15494 0.70128 0.0
C1051 C 0.02146 0.18336 0.70359 0.0
C1052 C 0.03782 0.13701 0.6732 0.0
C1053 C 0.00373 0.19429 0.67752 0.0
C1054 C 0.00289 0.17673 0.64932 0.0
C1055 C 0.01793 0.1292 0.61919 0.0
C1056 C 0.0334 0.09953 0.61795 0.0
C1057 C 0.01967 0.14786 0.64693 0.0
C1058 C 0.05186 0.08945 0.64399 0.0
C1059 C 0.05426 0.10807 0.67121 0.0
H1060 H 0.81454 0.03633 0.66017 0.0
H1061 H 0.85505 0.96689 0.72362 0.0
H1062 H 0.90523 0.96746 0.69359 0.0
H1063 H 0.93511 0.98347 0.64536 0.0
H1064 H 0.89195 0.05103 0.58125 0.0
H1065 H 0.84537 0.05539 0.61532 0.0
C1066 C 0.83446 0.02148 0.66755 0.0
C1067 C 0.83101 1.00126 0.69371 0.0
C1068 C 0.86267 0.02138 0.64981 0.0
C1069 C 0.85719 0.98266 0.70349 0.0
C1070 C 0.88576 0.98281 0.68619 0.0
C1071 C 0.91569 0.99948 0.63924 0.0
C1072 C 0.91673 0.01655 0.61064 0.0
C1073 C 0.88845 1.00144 0.65873 0.0
C1074 C 0.89144 0.03721 0.60288 0.0
C1075 C 0.86481 0.0398 0.62236 0.0
H1076 H 0.3532 0.98953 0.20856 0.0
H1077 H 0.28158 0.01184 0.13838 0.0
H1078 H 0.32263 0.01345 0.09716 0.0
H1079 H 0.37889 0.00885 0.08123 0.0
H1080 H 0.45085 0.9868 0.15163 0.0
H1081 H 0.40984 0.98474 0.19241 0.0
C1082 C 0.34676 0.99476 0.18421 0.0
C1083 C 0.31465 1.00063 0.17627 0.0
C1084 C 0.37054 0.99567 0.16068 0.0
C1085 C 0.30631 0.00731 0.14481 0.0
C1086 C 0.32973 0.00821 0.1213 0.0
C1087 C 0.38569 0.00346 0.10543 0.0
C1088 C 0.41808 0.99804 0.11314 0.0
C1089 C 0.36195 1.00243 0.12895 0.0
C1090 C 0.42622 0.99125 0.14482 0.0
C1091 C 0.40274 0.99002 0.16828 0.0
H1092 H 0.00176 0.33598 0.2051 0.0
H1093 H 0.05312 0.26937 0.14685 0.0
H1094 H 0.05434 0.30794 0.10335 0.0
H1095 H 0.04107 0.36126 0.08204 0.0
H1096 H 0.98984 0.42758 0.14135 0.0
H1097 H 0.98818 0.38876 0.18382 0.0
C1098 C 0.01327 0.3301 0.18287 0.0
C1099 C 0.02748 0.30017 0.17902 0.0
C1100 C 0.01381 0.35237 0.15802 0.0
C1101 C 0.0422 0.2925 0.15021 0.0
C1102 C 0.04281 0.31449 0.12535 0.0
C1103 C 0.02935 0.36708 0.10415 0.0
C1104 C 0.01578 0.39745 0.10835 0.0
C1105 C 0.02866 0.34458 0.12893 0.0
C1106 C 1.00083 0.40458 0.13737 0.0
C1107 C 0.99978 0.38235 0.16181 0.0
H1108 H 0.71516 0.0245 0.18554 0.0
H1109 H 0.66352 0.95187 0.23617 0.0
H1110 H 0.62303 0.95014 0.19454 0.0
H1111 H 0.60081 0.97078 0.1448 0.0
H1112 H 0.65361 0.04108 0.09233 0.0
H1113 H 0.69507 0.04206 0.13339 0.0
C1114 C 0.69536 0.00792 0.18717 0.0
C1115 C 0.69213 0.98879 0.21422 0.0
C1116 C 0.67213 0.00682 0.16294 0.0
C1117 C 0.66622 0.96743 0.21595 0.0
C1118 C 0.64304 0.96634 0.19213 0.0
C1119 C 0.62138 0.98634 0.14245 0.0
C1120 C 0.62402 0.00604 0.11583 0.0
C1121 C 0.64541 0.98634 0.16581 0.0
C1122 C 0.65107 0.02568 0.1127 0.0
C1123 C 0.67477 0.02628 0.13616 0.0
H1124 H 0.03674 0.64704 0.22356 0.0
H1125 H 0.97939 0.71836 0.17661 0.0
H1126 H 0.97931 0.68648 0.12817 0.0
H1127 H 0.99318 0.6365 0.0998 0.0
H1128 H 0.04543 0.56366 0.15004 0.0
H1129 H 0.04915 0.59759 0.19649 0.0
C1130 C 0.02372 0.65557 0.203 0.0
C1131 C 0.00787 0.68508 0.20412 0.0
C1132 C 0.02271 0.63663 0.17564 0.0
C1133 C 0.99215 0.69595 0.17659 0.0
C1134 C 0.99183 0.67756 0.14885 0.0
C1135 C 0.0055 0.62823 0.12089 0.0
C1136 C 0.01908 0.59758 0.12135 0.0
C1137 C 0.00674 0.64764 0.14818 0.0
C1138 C 0.03471 0.58707 0.14898 0.0
C1139 C 0.03688 0.60648 0.17564 0.0
H1140 H 0.35745 0.01575 0.81191 0.0
H1141 H 0.28575 0.9924 0.88101 0.0
H1142 H 0.32627 0.99287 0.92308 0.0
H1143 H 0.38187 0.99997 0.94017 0.0
H1144 H 0.45421 0.0231 0.87121 0.0
H1145 H 0.41382 0.02267 0.82929 0.0
C1146 C 0.35091 0.01072 0.83621 0.0
C1147 C 0.3189 0.00399 0.84361 0.0
C1148 C 0.3744 0.01105 0.86029 0.0
C1149 C 0.3104 0.99757 0.87499 0.0
C1150 C 0.33352 0.99788 0.89899 0.0
C1151 C 0.38893 0.00504 0.91603 0.0
C1152 C 0.4212 0.01162 0.90908 0.0
C1153 C 0.36559 0.00464 0.89194 0.0
C1154 C 0.42965 0.01791 0.87746 0.0
C1155 C 0.40652 0.01769 0.85336 0.0
H1156 H 0.99476 0.35982 0.80249 0.0
H1157 H 0.0544 0.28827 0.84616 0.0
H1158 H 0.05794 0.3206 0.8943 0.0
H1159 H 0.04683 0.37132 0.92289 0.0
H1160 H 0.99275 0.44439 0.87499 0.0
H1161 H 0.98523 0.40983 0.82945 0.0
C1162 C 0.00905 0.35131 0.82221 0.0
C1163 C 0.02465 0.32168 0.82022 0.0
C1164 C 0.01226 0.37059 0.84916 0.0
C1165 C 0.04188 0.31081 0.84684 0.0
C1166 C 0.04421 0.32947 0.87436 0.0
C1167 C 0.03336 0.37953 0.90248 0.0
C1168 C 0.02034 0.41047 0.90241 0.0
C1169 C 0.0299 0.3597 0.87563 0.0
C1170 C 0.00313 0.42084 0.87568 0.0
C1171 C 0.99873 0.40103 0.84959 0.0
H1172 H 0.73083 0.02303 0.86249 0.0
H1173 H 0.67104 0.98429 0.78867 0.0
H1174 H 0.62415 0.98754 0.8235 0.0
H1175 H 0.60093 0.99945 0.87611 0.0
H1176 H 0.6622 0.03745 0.94969 0.0
H1177 H 0.70757 0.03661 0.91389 0.0
C1178 C 0.70742 0.01549 0.8541 0.0
C1179 C 0.70407 0.00343 0.82337 0.0
C1180 C 0.68089 0.01726 0.87426 0.0
C1181 C 0.67391 0.99364 0.81243 0.0
C1182 C 0.6472 0.9955 0.83232 0.0
C1183 C 0.62412 0.00787 0.88416 0.0
C1184 C 0.62809 0.01829 0.91566 0.0
C1185 C 0.65046 0.00703 0.86344 0.0
C1186 C 0.65842 0.02895 0.92573 0.0
C1187 C 0.68447 0.02855 0.90526 0.0
H1188 H 0.02472 0.71778 0.86682 0.0
H1189 H 0.04244 0.65584 0.78757 0.0
H1190 H 0.04063 0.60927 0.82264 0.0
H1191 H 0.03409 0.58648 0.87626 0.0
H1192 H 0.01632 0.64982 0.95504 0.0
H1193 H 0.01806 0.69527 0.91985 0.0
C1194 C 0.02818 0.69401 0.85735 0.0
C1195 C 0.03372 0.68997 0.82492 0.0
C1196 C 0.0271 0.66759 0.8776 0.0
C1197 C 0.03816 0.6593 0.81262 0.0
C1198 C 0.03712 0.63276 0.83265 0.0
C1199 C 0.03057 0.61018 0.88577 0.0
C1200 C 0.02513 0.61441 0.91846 0.0
C1201 C 0.03161 0.63661 0.86527 0.0
C1202 C 0.02064 0.6455 0.93014 0.0
C1203 C 0.0216 0.67171 0.91 0.0
H1204 H 0.21968 0.33553 0.01997 0.0
H1205 H 0.14942 0.27164 0.98035 0.0
H1206 H 0.11007 0.31472 0.97832 0.0
H1207 H 0.09549 0.36964 0.98889 0.0
H1208 H 0.16493 0.4345 0.02896 0.0
H1209 H 0.20507 0.39201 0.02937 0.0
C1210 C 0.19576 0.33131 0.01079 0.0
C1211 C 0.1871 0.30079 1.00031 0.0
C1212 C 0.17331 0.35622 0.00977 0.0
C1213 C 0.15628 0.29515 0.98848 0.0
C1214 C 0.13388 0.3197 0.98735 0.0
C1215 C 0.11936 0.37464 0.99781 0.0
C1216 C 0.12707 0.40521 0.00912 0.0
C1217 C 0.14209 0.35021 0.99813 0.0
C1218 C 0.15833 0.41122 0.02008 0.0
C1219 C 0.18126 0.3869 0.02043 0.0
H1220 H 0.16441 0.71649 0.04124 0.0
H1221 H 0.23608 0.67047 0.9844 0.0
H1222 H 0.20505 0.6208 0.98483 0.0
H1223 H 0.15571 0.59139 0.99939 0.0
H1224 H 0.08399 0.63898 0.05544 0.0
H1225 H 0.1168 0.68676 0.05766 0.0
C1226 C 0.17318 0.69546 0.02911 0.0
C1227 C 0.20215 0.69685 0.01268 0.0
C1228 C 0.15518 0.66724 0.02939 0.0
C1229 C 0.21359 0.6697 0.99706 0.0
C1230 C 0.19591 0.64138 0.99736 0.0
C1231 C 0.14759 0.61207 0.01247 0.0
C1232 C 0.11739 0.61165 0.02708 0.0
C1233 C 0.16644 0.63992 0.01321 0.0
C1234 C 0.10701 0.63876 0.04371 0.0
C1235 C 0.12574 0.66616 0.04501 0.0
H1236 H 0.36333 0.20652 0.04719 0.0
H1237 H 0.30379 0.16674 0.97346 0.0
H1238 H 0.33636 0.11832 0.97319 0.0
H1239 H 0.38493 0.08926 0.99086 0.0
H1240 H 0.44539 0.13136 0.06265 0.0
H1241 H 0.40943 0.17676 0.06672 0.0
C1242 C 0.3575 0.18728 0.03101 0.0
C1243 C 0.33144 0.19039 0.01014 0.0
C1244 C 0.37662 0.1599 0.03058 0.0
C1245 C 0.32371 0.16491 0.98986 0.0
C1246 C 0.34243 0.13728 0.98957 0.0
C1247 C 0.38981 0.10816 0.00771 0.0
C1248 C 0.41782 0.10716 0.02624 0.0
C1249 C 0.36933 0.13473 0.00943 0.0
C1250 C 0.42411 0.13184 0.04788 0.0
C1251 C 0.40359 0.15782 0.05023 0.0
H1252 H 0.85182 0.30741 0.99105 0.0
H1253 H 0.80022 0.36529 0.05824 0.0
H1254 H 0.84267 0.40483 0.05744 0.0
H1255 H 0.89275 0.42451 0.03558 0.0
H1256 H 0.94763 0.36618 0.9721 0.0
H1257 H 0.90572 0.32513 0.97341 0.0
C1258 C 0.85018 0.32839 0.00592 0.0
C1259 C 0.82245 0.33368 0.0241 0.0
C1260 C 0.87504 0.35109 1.00568 0.0
C1261 C 0.82081 0.361 0.04334 0.0
C1262 C 0.84512 0.38363 0.04299 0.0
C1263 C 0.8955 0.40284 0.02207 0.0
C1264 C 0.92281 0.39859 1.00342 0.0
C1265 C 0.87192 0.37926 0.02373 0.0
C1266 C 0.92657 0.37005 0.98647 0.0
C1267 C 0.90266 0.34662 0.98727 0.0
H1268 H 0.73357 0.85978 1.0004 0.0
H1269 H 0.67112 0.78112 0.02092 0.0
H1270 H 0.62467 0.81692 0.02082 0.0
H1271 H 0.60232 0.8711 0.01596 0.0
H1272 H 0.66599 0.94943 0.99573 0.0
H1273 H 0.71134 0.91333 0.9946 0.0
C1274 C 0.7097 0.85062 1.00476 0.0
C1275 C 0.70542 0.81821 0.01068 0.0
C1276 C 0.68339 0.87127 1.00475 0.0
C1277 C 0.67469 0.80619 0.01633 0.0
C1278 C 0.64823 0.82662 0.01626 0.0
C1279 C 0.62607 0.88022 0.01109 0.0
C1280 C 0.63064 0.913 0.00612 0.0
C1281 C 0.65232 0.85928 0.01062 0.0
C1282 C 0.66167 0.9244 0.99998 0.0
C1283 C 0.68773 0.90377 0.99924 0.0
H1284 H 0.8147 0.64935 0.05176 0.0
H1285 H 0.84692 0.71183 0.97752 0.0
H1286 H 0.89678 0.68152 0.97337 0.0
H1287 H 0.92912 0.63411 0.98786 0.0
H1288 H 0.89276 0.5691 0.05785 0.0
H1289 H 0.84627 0.60315 0.06625 0.0
C1290 C 0.83244 0.65625 0.0344 0.0
C1291 C 0.82679 0.68252 0.01463 0.0
C1292 C 0.86021 0.63803 0.03124 0.0
C1293 C 0.85063 0.69175 0.99311 0.0
C1294 C 0.87904 0.67427 0.99054 0.0
C1295 C 0.91107 0.62775 1.00509 0.0
C1296 C 0.91404 0.59928 0.02217 0.0
C1297 C 0.8838 0.64695 0.00904 0.0
C1298 C 0.89061 0.59087 0.0443 0.0
C1299 C 0.86414 0.61031 0.04915 0.0
H1300 H 0.37475 0.79936 0.98397 0.0
H1301 H 0.30286 0.84752 0.03912 0.0
H1302 H 0.33501 0.89634 0.03842 0.0
H1303 H 0.38621 0.92383 0.026 0.0
H1304 H 0.45891 0.87259 0.97445 0.0
H1305 H 0.42406 0.82659 0.97027 0.0
C1306 C 0.36607 0.82048 0.99598 0.0
C1307 C 0.33665 0.81956 0.01201 0.0
C1308 C 0.38506 0.84795 0.99635 0.0
C1309 C 0.3254 0.84751 0.02655 0.0
C1310 C 0.34392 0.87537 0.02638 0.0
C1311 C 0.39421 0.90269 0.01359 0.0
C1312 C 0.42526 0.90172 1.00066 0.0
C1313 C 0.37418 0.87568 0.01194 0.0
C1314 C 0.43531 0.87404 0.98481 0.0
C1315 C 0.41536 0.84763 0.98237 0.0
H1316 H 0.68409 0.21207 0.02847 0.0
H1317 H 0.75706 0.14315 0.00656 0.0
H1318 H 0.71685 0.10075 1.00511 0.0
H1319 H 0.6612 0.08345 0.01004 0.0
H1320 H 0.58766 0.15229 0.03172 0.0
H1321 H 0.62775 0.19451 0.03321 0.0
C1322 C 0.691 0.18774 0.02333 0.0
C1323 C 0.72325 0.18046 0.01756 0.0
C1324 C 0.66771 0.16354 0.02251 0.0
C1325 C 0.73222 0.14905 0.01101 0.0
C1326 C 0.70929 0.12488 0.01021 0.0
C1327 C 0.65382 0.10763 0.01521 0.0
C1328 C 0.62132 0.11452 0.02079 0.0
C1329 C 0.67697 0.13185 0.01595 0.0
C1330 C 0.61241 0.14616 0.02723 0.0
C1331 C 0.63536 0.1704 0.02813 0.0
H1332 H 0.47697 0.71069 0.86368 0.0
H1333 H 0.55214 0.67438 0.80397 0.0
H1334 H 0.55368 0.62519 0.83502 0.0
H1335 H 0.53679 0.59463 0.88239 0.0
H1336 H 0.46497 0.6345 0.94398 0.0
H1337 H 0.45946 0.68042 0.90932 0.0
C1338 C 0.49389 0.69213 0.85748 0.0
C1339 C 0.51479 0.6965 0.83186 0.0
C1340 C 0.49546 0.66465 0.87606 0.0
C1341 C 0.53574 0.67168 0.82356 0.0
C1342 C 0.53681 0.64365 0.84148 0.0
C1343 C 0.51976 0.61328 0.88795 0.0
C1344 C 0.50148 0.61135 0.91579 0.0
C1345 C 0.51727 0.64018 0.86825 0.0
C1346 C 0.4796 0.63568 0.92289 0.0
C1347 C 0.47635 0.66189 0.90305 0.0
H1348 H 0.31129 0.51072 0.84495 0.0
H1349 H 0.38046 0.497 0.77098 0.0
H1350 H 0.42396 0.49595 0.81022 0.0
H1351 H 0.44225 0.49881 0.86598 0.0
H1352 H 0.37204 0.51246 0.93959 0.0
H1353 H 0.32946 0.51366 0.90038 0.0
C1354 C 0.33592 0.50746 0.83757 0.0
C1355 C 0.34288 0.50388 0.80535 0.0
C1356 C 0.36072 0.50688 0.86027 0.0
C1357 C 0.37474 0.49974 0.79583 0.0
C1358 C 0.39956 0.49918 0.81824 0.0
C1359 C 0.41768 0.50212 0.87345 0.0
C1360 C 0.41067 0.50536 0.90589 0.0
C1361 C 0.39288 0.50273 0.8506 0.0
C1362 C 0.37847 0.50959 0.91494 0.0
C1363 C 0.35389 0.51037 0.89247 0.0
H1364 H 0.53818 0.36011 0.79974 0.0
H1365 H 0.49812 0.28249 0.85264 0.0
H1366 H 0.49656 0.3158 0.90054 0.0
H1367 H 0.50501 0.36817 0.92673 0.0
H1368 H 0.54463 0.4454 0.87218 0.0
H1369 H 0.54808 0.41126 0.82591 0.0
C1370 C 0.52928 0.35056 0.82187 0.0
C1371 C 0.51826 0.31915 0.82294 0.0
C1372 C 0.52833 0.36986 0.84904 0.0
C1373 C 0.50671 0.30677 0.8515 0.0
C1374 C 0.50582 0.3258 0.87881 0.0
C1375 C 0.51466 0.37738 0.90481 0.0
C1376 C 0.52428 0.40946 0.90304 0.0
C1377 C 0.51637 0.35755 0.87783 0.0
C1378 C 0.53662 0.42099 0.87429 0.0
C1379 C 0.53871 0.40145 0.8477 0.0
H1380 H 0.72741 0.49852 0.87519 0.0
H1381 H 0.67695 0.53932 0.79571 0.0
H1382 H 0.62693 0.53798 0.82582 0.0
H1383 H 0.59801 0.52787 0.87664 0.0
H1384 H 0.65292 0.4942 0.95686 0.0
H1385 H 0.70039 0.49093 0.92484 0.0
C1386 C 0.70574 0.5078 0.86442 0.0
C1387 C 0.70639 0.51955 0.83329 0.0
C1388 C 0.67755 0.50833 0.88222 0.0
C1389 C 0.67741 0.53001 0.81957 0.0
C1390 C 0.64875 0.5295 0.83692 0.0
C1391 C 0.62035 0.51975 0.887 0.0
C1392 C 0.62143 0.51086 0.9192 0.0
C1393 C 0.64858 0.51911 0.86854 0.0
C1394 C 0.65085 0.5008 0.9322 0.0
C1395 C 0.67831 0.49899 0.9139 0.0
H1396 H 0.5514 0.30139 0.16208 0.0
H1397 H 0.47788 0.33715 0.22413 0.0
H1398 H 0.47259 0.38476 0.19113 0.0
H1399 H 0.48623 0.4144 0.14197 0.0
H1400 H 0.55591 0.37439 0.07813 0.0
H1401 H 0.5646 0.32993 0.11398 0.0
C1402 C 0.53386 0.31931 0.16834 0.0
C1403 C 0.51469 0.31521 0.19539 0.0
C1404 C 0.52999 0.34581 0.14861 0.0
C1405 C 0.49307 0.33953 0.20358 0.0
C1406 C 0.48981 0.36668 0.18451 0.0
C1407 C 0.50338 0.39597 0.13609 0.0
C1408 C 0.52025 0.39758 0.10731 0.0
C1409 C 0.50773 0.36981 0.15659 0.0
C1410 C 0.54232 0.3735 0.0999 0.0
C1411 C 0.54743 0.34812 0.12046 0.0
H1412 H 0.67793 0.52257 0.20966 0.0
H1413 H 0.73441 0.45832 0.15297 0.0
H1414 H 0.69153 0.4547 0.11398 0.0
H1415 H 0.63975 0.47266 0.09373 0.0
H1416 H 0.58105 0.53452 0.15052 0.0
H1417 H 0.62272 0.53613 0.19166 0.0
C1418 C 0.6805 0.50737 0.18906 0.0
C1419 C 0.70959 0.4913 0.18391 0.0
C1420 C 0.65551 0.50526 0.16652 0.0
C1421 C 0.71253 0.47152 0.15715 0.0
C1422 C 0.68803 0.4694 0.13479 0.0
C1423 C 0.63608 0.48642 0.11518 0.0
C1424 C 0.60768 0.5038 0.11895 0.0
C1425 C 0.65979 0.48678 0.13881 0.0
C1426 C 0.60285 0.52101 0.1471 0.0
C1427 C 0.62668 0.52197 0.17058 0.0
H1428 H 0.48591 0.70399 0.17339 0.0
H1429 H 0.52833 0.64431 0.24484 0.0
H1430 H 0.52985 0.5995 0.20757 0.0
H1431 H 0.51975 0.57743 0.15395 0.0
H1432 H 0.47793 0.63823 0.08263 0.0
H1433 H 0.47532 0.68192 0.12026 0.0
C1434 C 0.49549 0.68114 0.18065 0.0
C1435 C 0.50711 0.6773 0.21159 0.0
C1436 C 0.49629 0.65552 0.15906 0.0
C1437 C 0.51938 0.64769 0.22096 0.0
C1438 C 0.52018 0.62207 0.19969 0.0
C1439 C 0.50982 0.60014 0.14676 0.0
C1440 C 0.49914 0.60434 0.11536 0.0
C1441 C 0.50873 0.62566 0.16859 0.0
C1442 C 0.48658 0.63416 0.10649 0.0
C1443 C 0.48504 0.65933 0.12804 0.0
H1444 H 0.3004 0.51149 0.15858 0.0
H1445 H 0.35445 0.46104 0.22975 0.0
H1446 H 0.40225 0.46337 0.19623 0.0
H1447 H 0.42727 0.47642 0.14466 0.0
H1448 H 0.3705 0.52349 0.07297 0.0
H1449 H 0.32491 0.52507 0.10849 0.0
C1450 C 0.32257 0.50076 0.16674 0.0
C1451 C 0.32374 0.48558 0.19633 0.0
C1452 C 0.34934 0.50124 0.14705 0.0
C1453 C 0.35294 0.47282 0.20702 0.0
C1454 C 0.38016 0.47393 0.18776 0.0
C1455 C 0.40494 0.48712 0.13696 0.0
C1456 C 0.40216 0.49949 0.1061 0.0
C1457 C 0.37845 0.48754 0.15742 0.0
C1458 C 0.37311 0.5133 0.09638 0.0
C1459 C 0.34706 0.51441 0.11673 0.0
H1460 H 0.86139 0.50529 0.72087 0.0
H1461 H 0.78455 0.51912 0.65395 0.0
H1462 H 0.82258 0.51813 0.61009 0.0
H1463 H 0.87739 0.51257 0.59069 0.0
H1464 H 0.95496 0.49901 0.65726 0.0
H1465 H 0.91714 0.5007 0.70113 0.0
C1466 C 0.8532 0.50822 0.69664 0.0
C1467 C 0.82041 0.51233 0.6904 0.0
C1468 C 0.8753 0.50758 0.67148 0.0
C1469 C 0.8098 0.51602 0.6591 0.0
C1470 C 0.8315 0.51539 0.63407 0.0
C1471 C 0.88615 0.50991 0.61474 0.0
C1472 C 0.91911 0.50553 0.62044 0.0
C1473 C 0.86429 0.51102 0.63994 0.0
C1474 C 0.9298 0.50242 0.65196 0.0
C1475 C 0.90815 0.50336 0.67717 0.0
H1476 H 0.49449 0.79377 0.6599 0.0
H1477 H 0.54156 0.84945 0.73193 0.0
H1478 H 0.53967 0.89658 0.69761 0.0
H1479 H 0.52642 0.92109 0.64589 0.0
H1480 H 0.47991 0.86394 0.57406 0.0
H1481 H 0.47962 0.81847 0.60943 0.0
C1482 C 0.50415 0.81635 0.668 0.0
C1483 C 0.51817 0.81848 0.69807 0.0
C1484 C 0.50312 0.84303 0.64814 0.0
C1485 C 0.53068 0.84756 0.70866 0.0
C1486 C 0.5296 0.87439 0.68908 0.0
C1487 C 0.51593 0.89879 0.63813 0.0
C1488 C 0.50343 0.896 0.60723 0.0
C1489 C 0.5161 0.87235 0.6586 0.0
C1490 C 0.49006 0.8668 0.59754 0.0
C1491 C 0.48981 0.84068 0.61778 0.0
H1492 H 0.21061 0.52897 0.67775 0.0
H1493 H 0.16813 0.44525 0.71895 0.0
H1494 H 0.12981 0.44205 0.67545 0.0
H1495 H 0.1058 0.46505 0.62771 0.0
H1496 H 0.148 0.54753 0.58493 0.0
H1497 H 0.1893 0.54906 0.62645 0.0
C1498 C 0.19336 0.50973 0.67684 0.0
C1499 C 0.19189 0.48774 0.70192 0.0
C1500 C 0.17118 0.50798 0.65157 0.0
C1501 C 0.16936 0.46289 0.70033 0.0
C1502 C 0.14743 0.46098 0.67544 0.0
C1503 C 0.12402 0.48333 0.62762 0.0
C1504 C 0.1236 0.50647 0.60379 0.0
C1505 C 0.1476 0.48382 0.65139 0.0
C1506 C 0.14787 0.52954 0.60316 0.0
C1507 C 0.17138 0.53044 0.62696 0.0
H1508 H 0.48671 0.14976 0.71616 0.0
H1509 H 0.55145 0.21736 0.6745 0.0
H1510 H 0.55215 0.18616 0.62529 0.0
H1511 H 0.53779 0.13657 0.59579 0.0
H1512 H 0.47446 0.06899 0.64013 0.0
H1513 H 0.47002 0.10302 0.68636 0.0
C1514 C 0.50096 0.15775 0.6963 0.0
C1515 C 0.51933 0.18561 0.69919 0.0
C1516 C 0.50174 0.13942 0.66852 0.0
C1517 C 0.53704 0.19601 0.67292 0.0
C1518 C 0.53762 0.17802 0.64485 0.0
C1519 C 0.52278 0.12956 0.61545 0.0
C1520 C 0.50691 0.09996 0.6146 0.0
C1521 C 0.52059 0.14924 0.64258 0.0
C1522 C 0.48748 0.09127 0.6403 0.0
C1523 C 0.48478 0.11079 0.66681 0.0
H1524 H 0.79469 0.50173 0.36994 0.0
H1525 H 0.85399 0.47971 0.28974 0.0
H1526 H 0.90171 0.47964 0.32371 0.0
H1527 H 0.92655 0.4858 0.37665 0.0
H1528 H 0.86605 0.50681 0.45676 0.0
H1529 H 0.81921 0.50714 0.42262 0.0
C1530 C 0.81813 0.49692 0.36003 0.0
C1531 C 0.82105 0.49098 0.32755 0.0
C1532 C 0.84533 0.49664 0.37975 0.0
C1533 C 0.85132 0.48462 0.31475 0.0
C1534 C 0.87858 0.4845 0.33419 0.0
C1535 C 0.90315 0.49045 0.38665 0.0
C1536 C 0.90011 0.49615 0.41938 0.0
C1537 C 0.87591 0.49052 0.36679 0.0
C1538 C 0.86941 0.50208 0.43179 0.0
C1539 C 0.84241 0.50238 0.41224 0.0
H1540 H 0.52865 0.81031 0.33627 0.0
H1541 H 0.44824 0.85687 0.29161 0.0
H1542 H 0.44749 0.89692 0.33331 0.0
H1543 H 0.47142 0.92076 0.381 0.0
H1544 H 0.54899 0.87266 0.42841 0.0
H1545 H 0.54917 0.83135 0.38734 0.0
C1546 C 0.5106 0.82884 0.33603 0.0
C1547 C 0.48898 0.83087 0.31043 0.0
C1548 C 0.51007 0.85186 0.36038 0.0
C1549 C 0.46568 0.85511 0.31059 0.0
C1550 C 0.46518 0.87808 0.33445 0.0
C1551 C 0.48836 0.90122 0.38222 0.0
C1552 C 0.51046 0.8999 0.40729 0.0
C1553 C 0.4877 0.87715 0.35906 0.0
C1554 C 0.53186 0.87416 0.40913 0.0
C1555 C 0.53193 0.85055 0.3857 0.0
H1556 H 0.17127 0.49134 0.3057 0.0
H1557 H 0.24486 0.50097 0.37691 0.0
H1558 H 0.20428 0.50449 0.41828 0.0
H1559 H 0.14855 0.50467 0.43413 0.0
H1560 H 0.07371 0.49483 0.36385 0.0
H1561 H 0.11409 0.49161 0.32215 0.0
C1562 C 0.17818 0.49418 0.33032 0.0
C1563 C 0.21076 0.49587 0.33856 0.0
C1564 C 0.15462 0.4962 0.35403 0.0
C1565 C 0.21978 0.49959 0.3703 0.0
C1566 C 0.19664 0.50162 0.39388 0.0
C1567 C 0.1408 0.5019 0.40975 0.0
C1568 C 0.10794 0.50009 0.4023 0.0
C1569 C 0.16404 0.49995 0.38601 0.0
C1570 C 0.09875 0.4964 0.3704 0.0
C1571 C 0.12186 0.49451 0.3465 0.0
H1572 H 0.52355 0.16452 0.30978 0.0
H1573 H 0.50646 0.23861 0.37814 0.0
H1574 H 0.50691 0.19951 0.42108 0.0
H1575 H 0.51144 0.14395 0.43915 0.0
H1576 H 0.52835 0.06981 0.37024 0.0
H1577 H 0.52878 0.10894 0.328 0.0
C1578 C 0.51999 0.17194 0.33412 0.0
C1579 C 0.51495 0.20421 0.34099 0.0
C1580 C 0.52024 0.14927 0.35869 0.0
C1581 C 0.51036 0.21376 0.37247 0.0
C1582 C 0.51062 0.19143 0.397 0.0
C1583 C 0.51536 0.1363 0.41495 0.0
C1584 C 0.51974 0.10375 0.4082 0.0
C1585 C 0.51547 0.15905 0.39042 0.0
C1586 C 0.52473 0.09454 0.37647 0.0
C1587 C 0.52501 0.11697 0.35209 0.0
H1588 H 0.65793 0.78853 0.52863 0.0
H1589 H 0.72731 0.83665 0.47087 0.0
H1590 H 0.6945 0.88501 0.47128 0.0
H1591 H 0.64507 0.91334 0.48729 0.0
H1592 H 0.57486 0.8637 0.54317 0.0
H1593 H 0.6088 0.81656 0.54444 0.0
C1594 C 0.66573 0.80966 0.51615 0.0
C1595 C 0.69486 0.80927 0.49985 0.0
C1596 C 0.64656 0.83719 0.51623 0.0
C1597 C 0.70492 0.83659 0.4837 0.0
C1598 C 0.68617 0.86422 0.48393 0.0
C1599 C 0.63743 0.89229 0.49999 0.0
C1600 C 0.60749 0.89208 0.51511 0.0
C1601 C 0.65687 0.86483 0.5001 0.0
C1602 C 0.59771 0.86446 0.53115 0.0
C1603 C 0.6171 0.83744 0.53192 0.0
H1604 H 0.67154 0.1995 0.48386 0.0
H1605 H 0.71795 0.17182 0.5707 0.0
H1606 H 0.68762 0.12175 0.5711 0.0
H1607 H 0.64479 0.08758 0.54824 0.0
H1608 H 0.59717 0.11738 0.46258 0.0
H1609 H 0.63127 0.16443 0.45968 0.0
C1610 C 0.67501 0.18232 0.50271 0.0
C1611 C 0.69648 0.18907 0.52734 0.0
C1612 C 0.65739 0.15389 0.50281 0.0
C1613 C 0.70119 0.1669 0.55166 0.0
C1614 C 0.68395 0.13833 0.55183 0.0
C1615 C 0.64256 0.10408 0.52865 0.0
C1616 C 0.61885 0.09909 0.5055 0.0
C1617 C 0.66163 0.13172 0.52771 0.0
C1618 C 0.6155 0.12083 0.48051 0.0
C1619 C 0.63482 0.14779 0.47895 0.0
H1620 H 0.81643 0.67006 0.48623 0.0
H1621 H 0.87216 0.72858 0.55001 0.0
H1622 H 0.91116 0.68616 0.55626 0.0
H1623 H 0.93166 0.63371 0.54123 0.0
H1624 H 0.87502 0.57287 0.48088 0.0
H1625 H 0.83415 0.61453 0.47603 0.0
C1626 C 0.83679 0.67332 0.50191 0.0
C1627 C 0.84167 0.70296 0.51686 0.0
C1628 C 0.85918 0.64842 0.50589 0.0
C1629 C 0.86821 0.70652 0.5373 0.0
C1630 C 0.89055 0.68217 0.54107 0.0
C1631 C 0.91027 0.62954 0.52715 0.0
C1632 C 0.90651 0.60047 0.51115 0.0
C1633 C 0.88671 0.65332 0.52494 0.0
C1634 C 0.87843 0.59512 0.49343 0.0
C1635 C 0.85512 0.61897 0.49058 0.0
H1636 H 0.31204 0.85374 0.44918 0.0
H1637 H 0.34738 0.78439 0.51581 0.0
H1638 H 0.39504 0.81725 0.52541 0.0
H1639 H 0.4234 0.86878 0.51906 0.0
H1640 H 0.38315 0.9399 0.45696 0.0
H1641 H 0.34006 0.90371 0.44213 0.0
C1642 C 0.33016 0.84575 0.46585 0.0
C1643 C 0.3259 0.81698 0.4822 0.0
C1644 C 0.35624 0.86546 0.47255 0.0
C1645 C 0.3501 0.80645 0.5029 0.0
C1646 C 0.37712 0.82542 0.50868 0.0
C1647 C 0.4052 0.87617 0.50221 0.0
C1648 C 0.40612 0.90703 0.48938 0.0
C1649 C 0.37991 0.85546 0.49437 0.0
C1650 C 0.38253 0.91646 0.46757 0.0
C1651 C 0.35806 0.89572 0.4589 0.0
H1652 H 0.22581 0.35942 0.48197 0.0
H1653 H 0.18774 0.29559 0.55182 0.0
H1654 H 0.13749 0.32596 0.55309 0.0
H1655 H 0.10518 0.37235 0.53548 0.0
H1656 H 0.14497 0.43654 0.4665 0.0
H1657 H 0.19334 0.40439 0.46339 0.0
C1658 C 0.20641 0.35227 0.4974 0.0
C1659 C 0.21021 0.32566 0.51691 0.0
C1660 C 0.17783 0.36988 0.49803 0.0
C1661 C 0.18513 0.31626 0.53675 0.0
C1662 C 0.15645 0.33355 0.5374 0.0
C1663 C 0.12429 0.37893 0.51949 0.0
C1664 C 0.12152 0.40681 0.50133 0.0
C1665 C 0.15256 0.36058 0.51826 0.0
C1666 C 0.14662 0.41531 0.48093 0.0
C1667 C 0.17434 0.39696 0.47912 0.0
H1668 H 0.35135 0.20155 0.54126 0.0
H1669 H 0.30537 0.1668 0.45644 0.0
H1670 H 0.3459 0.12537 0.45103 0.0
H1671 H 0.39147 0.09591 0.47315 0.0
H1672 H 0.43965 0.13135 0.5563 0.0
H1673 H 0.40129 0.17542 0.55997 0.0
C1674 C 0.35088 0.18547 0.52116 0.0
C1675 C 0.32546 0.18706 0.49934 0.0
C1676 C 0.37417 0.16137 0.51838 0.0
C1677 C 0.3248 0.16591 0.4735 0.0
C1678 C 0.34776 0.14206 0.47056 0.0
C1679 C 0.39342 0.11331 0.49202 0.0
C1680 C 0.41768 0.11022 0.51479 0.0
C1681 C 0.37193 0.13893 0.49339 0.0
C1682 C 0.42076 0.13325 0.53873 0.0
C1683 C 0.39895 0.15845 0.54076 0.0
H1684 H 0.86738 0.29428 0.54965 0.0
H1685 H 0.79542 0.33841 0.49088 0.0
H1686 H 0.82716 0.3875 0.48934 0.0
H1687 H 0.87802 0.41612 0.50107 0.0
H1688 H 0.95055 0.36918 0.55718 0.0
H1689 H 0.91614 0.32291 0.56307 0.0
C1690 C 0.85861 0.3146 0.5364 0.0
C1691 C 0.82932 0.3125 0.51998 0.0
C1692 C 0.87729 0.3422 0.53494 0.0
C1693 C 0.81789 0.33939 0.50373 0.0
C1694 C 0.83616 0.36737 0.50267 0.0
C1695 C 0.88602 0.39588 0.51488 0.0
C1696 C 0.9169 0.39596 0.52843 0.0
C1697 C 0.86626 0.36883 0.51765 0.0
C1698 C 0.92707 0.36954 0.54615 0.0
C1699 C 0.90739 0.34307 0.54961 0.0
H1700 H 0.21796 0.65605 0.51479 0.0
H1701 H 0.17332 0.71465 0.44384 0.0
H1702 H 0.1235 0.68378 0.44821 0.0
H1703 H 0.09394 0.63743 0.47037 0.0
H1704 H 0.14098 0.5785 0.53981 0.0
H1705 H 0.18819 0.61223 0.53846 0.0
C1706 C 0.19718 0.66205 0.50046 0.0
C1707 C 0.19898 0.68712 0.47892 0.0
C1708 C 0.16902 0.64415 0.503 0.0
C1709 C 0.17219 0.69508 0.46045 0.0
C1710 C 0.1438 0.67751 0.463 0.0
C1711 C 0.11436 0.63247 0.48552 0.0
C1712 C 0.11407 0.60554 0.50519 0.0
C1713 C 0.14203 0.65166 0.48396 0.0
C1714 C 0.14077 0.59906 0.52448 0.0
C1715 C 0.16783 0.61826 0.52364 0.0
loop_
_geom_bond_atom_site_label_1
_geom_bond_atom_site_label_2
_geom_bond_distance
_geom_bond_site_symmetry_2
_ccdc_geom_bond_type
H0 C3 0.929 . S
H1 C6 0.929 . S
H2 C8 0.930 . S
C3 H0 0.929 . S
C3 C4 1.398 . S
C3 C5 1.396 . S
C4 C3 1.398 . S
C4 C8 1.407 . S
C5 C3 1.396 . S
C5 C6 1.394 . S
C6 H1 0.929 . S
C6 C5 1.394 . S
C6 C7 1.382 . S
C7 C6 1.382 . S
C7 C8 1.392 . S
C7 N9 1.420 . S
C8 H2 0.930 . S
C8 C4 1.407 . S
C8 C7 1.392 . S
N9 C7 1.420 . S
N9 C10 1.244 . S
C10 N9 1.244 . S
H11 C14 0.929 . S
H12 C17 0.929 . S
H13 C19 0.930 . S
C14 H11 0.929 . S
C14 C15 1.395 1_545 S
C14 C16 1.394 1_545 S
C15 C14 1.395 1_565 S
C15 C19 1.414 . S
C16 C14 1.394 1_565 S
C16 C17 1.397 . S
C17 H12 0.929 . S
C17 C16 1.397 . S
C17 C18 1.382 . S
C18 C17 1.382 . S
C18 C19 1.392 . S
C18 N20 1.420 . S
C19 H13 0.930 . S
C19 C15 1.414 . S
C19 C18 1.392 . S
N20 C18 1.420 . S
N20 C21 1.232 1_565 S
C21 N20 1.232 1_545 S
H22 C25 0.929 . S
H23 C28 0.929 . S
H24 C30 0.930 . S
C25 H22 0.929 . S
C25 C26 1.398 . S
C25 C27 1.396 . S
C26 C25 1.398 . S
C26 C30 1.407 . S
C27 C25 1.396 . S
C27 C28 1.394 . S
C28 H23 0.929 . S
C28 C27 1.394 . S
C28 C29 1.382 . S
C29 C28 1.382 . S
C29 C30 1.392 . S
C29 N31 1.420 . S
C30 H24 0.930 . S
C30 C26 1.407 . S
C30 C29 1.392 . S
N31 C29 1.420 . S
N31 C32 1.244 . S
C32 N31 1.244 . S
H33 C36 0.929 . S
H34 C39 0.929 . S
H35 C41 0.930 . S
C36 H33 0.929 . S
C36 C37 1.395 1_545 S
C36 C38 1.394 1_545 S
C37 C36 1.395 1_565 S
C37 C41 1.414 . S
C38 C36 1.394 1_565 S
C38 C39 1.397 . S
C39 H34 0.929 . S
C39 C38 1.397 . S
C39 C40 1.382 . S
C40 C39 1.382 . S
C40 C41 1.392 . S
C40 N42 1.420 . S
C41 H35 0.930 . S
C41 C37 1.414 . S
C41 C40 1.392 . S
N42 C40 1.420 . S
N42 C43 1.232 1_565 S
C43 N42 1.232 1_545 S
H44 C47 0.929 . S
H45 C50 0.929 . S
H46 C52 0.930 . S
C47 H44 0.929 . S
C47 C48 1.398 . S
C47 C49 1.396 . S
C48 C47 1.398 . S
C48 C52 1.407 . S
C49 C47 1.396 . S
C49 C50 1.394 . S
C50 H45 0.929 . S
C50 C49 1.394 . S
C50 C51 1.382 . S
C51 C50 1.382 . S
C51 C52 1.392 . S
C51 N53 1.420 . S
C52 H46 0.930 . S
C52 C48 1.407 . S
C52 C51 1.392 . S
N53 C51 1.420 . S
N53 C54 1.244 . S
C54 N53 1.244 . S
H55 C58 0.929 . S
H56 C61 0.929 . S
H57 C63 0.930 . S
C58 H55 0.929 . S
C58 C59 1.398 1_565 S
C58 C60 1.393 1_565 S
C59 C58 1.398 1_545 S
C59 C63 1.407 . S
C60 C58 1.393 1_545 S
C60 C61 1.400 . S
C61 H56 0.929 . S
C61 C60 1.400 . S
C61 C62 1.382 . S
C62 C61 1.382 . S
C62 C63 1.392 . S
C62 N64 1.420 . S
C63 H57 0.930 . S
C63 C59 1.407 . S
C63 C62 1.392 . S
N64 C62 1.420 . S
N64 C65 1.240 1_545 S
C65 N64 1.240 1_565 S
H66 C69 0.929 . S
H67 C72 0.929 . S
H68 C74 0.930 . S
C69 H66 0.929 . S
C69 C70 1.398 . S
C69 C71 1.396 . S
C70 C69 1.398 . S
C70 C74 1.407 . S
C71 C69 1.396 . S
C71 C72 1.394 . S
C72 H67 0.929 . S
C72 C71 1.394 . S
C72 C73 1.382 . S
C73 C72 1.382 . S
C73 C74 1.392 . S
C73 N75 1.420 . S
C74 H68 0.930 . S
C74 C70 1.407 . S
C74 C73 1.392 . S
N75 C73 1.420 . S
N75 C76 1.244 . S
C76 N75 1.244 . S
H77 C80 0.929 . S
H78 C83 0.929 . S
H79 C85 0.930 . S
C80 H77 0.929 . S
C80 C81 1.396 1_545 S
C80 C82 1.395 1_545 S
C81 C80 1.396 1_565 S
C81 C85 1.412 . S
C82 C80 1.395 1_565 S
C82 C83 1.395 . S
C83 H78 0.929 . S
C83 C82 1.395 . S
C83 C84 1.382 . S
C84 C83 1.382 . S
C84 C85 1.392 . S
C84 N86 1.420 . S
C85 H79 0.930 . S
C85 C81 1.412 . S
C85 C84 1.392 . S
N86 C84 1.420 . S
N86 C87 1.244 1_565 S
C87 N86 1.244 1_545 S
H88 C91 0.929 . S
H89 C94 0.929 . S
H90 C96 0.930 . S
C91 H88 0.929 . S
C91 C92 1.398 . S
C91 C93 1.396 . S
C92 C91 1.398 . S
C92 C96 1.407 1_554 S
C93 C91 1.396 . S
C93 C94 1.394 1_554 S
C94 H89 0.929 . S
C94 C93 1.394 1_556 S
C94 C95 1.382 . S
C95 C94 1.382 . S
C95 C96 1.392 . S
C95 N97 1.420 . S
C96 H90 0.930 . S
C96 C92 1.407 1_556 S
C96 C95 1.392 . S
N97 C95 1.420 . S
N97 C98 1.244 1_556 S
C98 N97 1.244 1_554 S
H99 C102 0.929 1_556 S
H100 C105 0.929 . S
H101 C107 0.930 . S
C102 H99 0.929 1_554 S
C102 C103 1.398 . S
C102 C104 1.396 . S
C103 C102 1.398 . S
C103 C107 1.407 . S
C104 C102 1.396 . S
C104 C105 1.394 . S
C105 H100 0.929 . S
C105 C104 1.394 . S
C105 C106 1.382 . S
C106 C105 1.382 . S
C106 C107 1.392 . S
C106 N108 1.420 . S
C107 H101 0.930 . S
C107 C103 1.407 . S
C107 C106 1.392 . S
N108 C106 1.420 . S
N108 C109 1.244 . S
C109 N108 1.244 . S
H110 C113 0.929 . S
H111 C116 0.932 . S
H112 C118 0.930 . S
C113 H110 0.929 . S
C113 C114 1.398 . S
C113 C115 1.396 . S
C114 C113 1.398 . S
C114 C118 1.407 1_554 S
C115 C113 1.396 . S
C115 C116 1.389 1_554 S
C116 H111 0.932 . S
C116 C115 1.389 1_556 S
C116 C117 1.384 . S
C117 C116 1.384 . S
C117 C118 1.392 . S
C117 N119 1.420 . S
C118 H112 0.930 . S
C118 C114 1.407 1_556 S
C118 C117 1.392 . S
N119 C117 1.420 . S
N119 C120 1.244 1_556 S
C120 N119 1.244 1_554 S
H121 C124 0.929 1_556 S
H122 C127 0.929 . S
H123 C129 0.930 . S
C124 H121 0.929 1_554 S
C124 C125 1.398 . S
C124 C126 1.396 . S
C125 C124 1.398 . S
C125 C129 1.407 . S
C126 C124 1.396 . S
C126 C127 1.394 . S
C127 H122 0.929 . S
C127 C126 1.394 . S
C127 C128 1.382 . S
C128 C127 1.382 . S
C128 C129 1.392 . S
C128 N130 1.420 . S
C129 H123 0.930 . S
C129 C125 1.407 . S
C129 C128 1.392 . S
N130 C128 1.420 . S
N130 C131 1.244 . S
C131 N130 1.244 . S
H132 C135 0.929 . S
H133 C138 0.929 . S
H134 C140 0.930 . S
C135 H132 0.929 . S
C135 C136 1.398 . S
C135 C137 1.396 . S
C136 C135 1.398 . S
C136 C140 1.407 . S
C137 C135 1.396 . S
C137 C138 1.394 . S
C138 H133 0.929 . S
C138 C137 1.394 . S
C138 C139 1.382 . S
C139 C138 1.382 . S
C139 C140 1.392 . S
C139 N141 1.420 . S
C140 H134 0.930 . S
C140 C136 1.407 . S
C140 C139 1.392 . S
N141 C139 1.420 . S
N141 C142 1.244 . S
C142 N141 1.244 . S
H143 C146 0.929 . S
H144 C149 0.929 . S
H145 C151 0.930 . S
C146 H143 0.929 . S
C146 C147 1.398 . S
C146 C148 1.396 . S
C147 C146 1.398 . S
C147 C151 1.407 . S
C148 C146 1.396 . S
C148 C149 1.394 . S
C149 H144 0.929 . S
C149 C148 1.394 . S
C149 C150 1.382 . S
C150 C149 1.382 . S
C150 C151 1.392 . S
C150 N152 1.420 . S
C151 H145 0.930 . S
C151 C147 1.407 . S
C151 C150 1.392 . S
N152 C150 1.420 . S
N152 C153 1.244 . S
C153 N152 1.244 . S
H154 C157 0.929 . S
H155 C160 0.929 . S
H156 C162 0.930 . S
C157 H154 0.929 . S
C157 C158 1.398 . S
C157 C159 1.396 . S
C158 C157 1.398 . S
C158 C162 1.407 . S
C159 C157 1.396 . S
C159 C160 1.394 . S
C160 H155 0.929 . S
C160 C159 1.394 . S
C160 C161 1.382 . S
C161 C160 1.382 . S
C161 C162 1.392 . S
C161 N163 1.420 . S
C162 H156 0.930 . S
C162 C158 1.407 . S
C162 C161 1.392 . S
N163 C161 1.420 . S
N163 C164 1.244 . S
C164 N163 1.244 . S
H165 C168 0.929 . S
H166 C171 0.929 . S
H167 C173 0.930 . S
C168 H165 0.929 . S
C168 C169 1.398 . S
C168 C170 1.396 . S
C169 C168 1.398 . S
C169 C173 1.407 . S
C170 C168 1.396 . S
C170 C171 1.394 . S
C171 H166 0.929 . S
C171 C170 1.394 . S
C171 C172 1.382 . S
C172 C171 1.382 . S
C172 C173 1.392 . S
C172 N174 1.420 . S
C173 H167 0.930 . S
C173 C169 1.407 . S
C173 C172 1.392 . S
N174 C172 1.420 . S
N174 C175 1.244 . S
C175 N174 1.244 . S
H176 C179 0.929 . S
H177 C182 0.929 . S
H178 C184 0.930 . S
C179 H176 0.929 . S
C179 C180 1.398 . S
C179 C181 1.396 . S
C180 C179 1.398 . S
C180 C184 1.407 . S
C181 C179 1.396 . S
C181 C182 1.394 . S
C182 H177 0.929 . S
C182 C181 1.394 . S
C182 C183 1.382 . S
C183 C182 1.382 . S
C183 C184 1.392 . S
C183 N185 1.420 . S
C184 H178 0.930 . S
C184 C180 1.407 . S
C184 C183 1.392 . S
N185 C183 1.420 . S
N185 C186 1.244 . S
C186 N185 1.244 . S
H187 C190 0.929 . S
H188 C193 0.929 . S
H189 C195 0.930 . S
C190 H187 0.929 . S
C190 C191 1.398 . S
C190 C192 1.396 . S
C191 C190 1.398 . S
C191 C195 1.407 . S
C192 C190 1.396 . S
C192 C193 1.394 . S
C193 H188 0.929 . S
C193 C192 1.394 . S
C193 C194 1.382 . S
C194 C193 1.382 . S
C194 C195 1.392 . S
C194 N196 1.420 . S
C195 H189 0.930 . S
C195 C191 1.407 . S
C195 C194 1.392 . S
N196 C194 1.420 . S
N196 C197 1.244 . S
C197 N196 1.244 . S
H198 C201 0.929 . S
H199 C204 0.929 . S
H200 C206 0.930 . S
C201 H198 0.929 . S
C201 C202 1.398 . S
C201 C203 1.396 . S
C202 C201 1.398 . S
C202 C206 1.407 . S
C203 C201 1.396 . S
C203 C204 1.394 . S
C204 H199 0.929 . S
C204 C203 1.394 . S
C204 C205 1.382 . S
C205 C204 1.382 . S
C205 C206 1.392 . S
C205 N207 1.420 . S
C206 H200 0.930 . S
C206 C202 1.407 . S
C206 C205 1.392 . S
N207 C205 1.420 . S
N207 C208 1.244 . S
C208 N207 1.244 . S
H209 C212 0.929 . S
H210 C215 0.929 . S
H211 C217 0.930 . S
C212 H209 0.929 . S
C212 C213 1.398 . S
C212 C214 1.396 . S
C213 C212 1.398 . S
C213 C217 1.407 . S
C214 C212 1.396 . S
C214 C215 1.394 . S
C215 H210 0.929 . S
C215 C214 1.394 . S
C215 C216 1.382 . S
C216 C215 1.382 . S
C216 C217 1.392 . S
C216 N218 1.420 . S
C217 H211 0.930 . S
C217 C213 1.407 . S
C217 C216 1.392 . S
N218 C216 1.420 . S
N218 C219 1.244 . S
C219 N218 1.244 . S
H220 C223 0.929 . S
H221 C226 0.929 . S
H222 C228 0.930 . S
C223 H220 0.929 . S
C223 C224 1.398 . S
C223 C225 1.396 . S
C224 C223 1.398 . S
C224 C228 1.407 . S
C225 C223 1.396 . S
C225 C226 1.394 . S
C226 H221 0.929 . S
C226 C225 1.394 . S
C226 C227 1.382 . S
C227 C226 1.382 . S
C227 C228 1.392 . S
C227 N229 1.420 . S
C228 H222 0.930 . S
C228 C224 1.407 . S
C228 C227 1.392 . S
N229 C227 1.420 . S
N229 C230 1.244 . S
C230 N229 1.244 . S
H231 C234 0.929 . S
H232 C237 0.929 . S
H233 C239 0.930 . S
C234 H231 0.929 . S
C234 C235 1.398 . S
C234 C236 1.396 . S
C235 C234 1.398 . S
C235 C239 1.407 . S
C236 C234 1.396 . S
C236 C237 1.394 . S
C237 H232 0.929 . S
C237 C236 1.394 . S
C237 C238 1.382 . S
C238 C237 1.382 . S
C238 C239 1.392 . S
C238 N240 1.420 . S
C239 H233 0.930 . S
C239 C235 1.407 . S
C239 C238 1.392 . S
N240 C238 1.420 . S
N240 C241 1.244 . S
C241 N240 1.244 . S
H242 C245 0.929 . S
H243 C248 0.929 . S
H244 C250 0.930 . S
C245 H242 0.929 . S
C245 C246 1.398 . S
C245 C247 1.396 . S
C246 C245 1.398 . S
C246 C250 1.407 . S
C247 C245 1.396 . S
C247 C248 1.394 . S
C248 H243 0.929 . S
C248 C247 1.394 . S
C248 C249 1.382 . S
C249 C248 1.382 . S
C249 C250 1.392 . S
C249 N251 1.420 . S
C250 H244 0.930 . S
C250 C246 1.407 . S
C250 C249 1.392 . S
N251 C249 1.420 . S
N251 C252 1.244 . S
C252 N251 1.244 . S
H253 C256 0.929 . S
H254 C259 0.929 . S
H255 C261 0.930 . S
C256 H253 0.929 . S
C256 C257 1.398 . S
C256 C258 1.396 . S
C257 C256 1.398 . S
C257 C261 1.407 . S
C258 C256 1.396 . S
C258 C259 1.394 . S
C259 H254 0.929 . S
C259 C258 1.394 . S
C259 C260 1.382 . S
C260 C259 1.382 . S
C260 C261 1.392 . S
C260 N262 1.420 . S
C261 H255 0.930 . S
C261 C257 1.407 . S
C261 C260 1.392 . S
N262 C260 1.420 . S
N262 C263 1.244 . S
C263 N262 1.244 . S
C264 O290 1.283 . S
C264 O308 1.283 . S
C265 O291 1.283 . S
C265 O306 1.283 . S
C266 O292 1.283 . S
C266 O309 1.283 . S
C267 O293 1.283 . S
C267 O307 1.283 . S
C268 O294 1.283 . S
C268 O303 1.283 . S
C269 O295 1.283 . S
C269 O305 1.283 . S
C270 O296 1.283 . S
C270 O302 1.283 . S
C271 O297 1.283 . S
C271 O304 1.283 . S
C272 O298 1.283 . S
C272 O313 1.283 . S
C273 O299 1.283 . S
C273 O311 1.283 . S
C274 O300 1.283 . S
C274 O312 1.283 . S
C275 O301 1.283 . S
C275 O310 1.283 . S
Eu276 O277 2.370 1_455 S
Eu276 O278 2.370 . S
Eu276 O281 2.370 1_455 S
Eu276 O282 2.370 . S
Eu276 O290 2.363 . S
Eu276 O291 2.363 . S
Eu276 O304 2.363 . S
Eu276 O305 2.363 1_455 S
O277 Eu276 2.370 1_655 S
O277 Eu279 2.367 1_565 S
O277 Eu284 2.368 1_665 S
O278 Eu276 2.370 . S
O278 Eu280 2.367 1_565 S
O278 Eu283 2.367 1_565 S
Eu279 O277 2.367 1_545 S
Eu279 O281 2.367 1_545 S
Eu279 O285 2.373 . S
Eu279 O286 2.373 . S
Eu279 O294 2.367 . S
Eu279 O295 2.358 1_545 S
Eu279 O310 2.363 . S
Eu279 O311 2.363 . S
Eu280 O278 2.367 1_545 S
Eu280 O282 2.367 1_545 S
Eu280 O287 2.373 . S
Eu280 O288 2.373 . S
Eu280 O296 2.367 . S
Eu280 O297 2.359 1_545 S
Eu280 O312 2.363 . S
Eu280 O313 2.363 . S
O281 Eu276 2.370 1_655 S
O281 Eu279 2.367 1_565 S
O281 Eu283 2.367 1_665 S
O282 Eu276 2.370 . S
O282 Eu280 2.367 1_565 S
O282 Eu284 2.368 1_565 S
Eu283 O278 2.367 1_545 S
Eu283 O281 2.367 1_445 S
Eu283 O285 2.373 1_455 S
Eu283 O288 2.373 . S
Eu283 O300 2.363 . S
Eu283 O301 2.363 1_455 S
Eu283 O308 2.358 1_545 S
Eu283 O309 2.368 . S
Eu284 O277 2.368 1_445 S
Eu284 O282 2.368 1_545 S
Eu284 O286 2.372 1_455 S
Eu284 O287 2.372 . S
Eu284 O298 2.363 . S
Eu284 O299 2.363 1_455 S
Eu284 O306 2.359 1_545 S
Eu284 O307 2.367 . S
O285 Eu279 2.373 . S
O285 Eu283 2.373 1_655 S
O285 Eu289 2.370 1_655 S
O286 Eu279 2.373 . S
O286 Eu284 2.372 1_655 S
O286 Eu289 2.370 1_655 S
O287 Eu280 2.373 . S
O287 Eu284 2.372 . S
O287 Eu289 2.370 . S
O288 Eu280 2.373 . S
O288 Eu283 2.373 . S
O288 Eu289 2.370 . S
Eu289 O285 2.370 1_455 S
Eu289 O286 2.370 1_455 S
Eu289 O287 2.370 . S
Eu289 O288 2.370 . S
Eu289 O292 2.363 . S
Eu289 O293 2.363 . S
Eu289 O302 2.363 . S
Eu289 O303 2.363 1_455 S
O290 C264 1.283 . S
O290 Eu276 2.363 . S
O291 C265 1.283 . S
O291 Eu276 2.363 . S
O292 C266 1.283 . S
O292 Eu289 2.363 . S
O293 C267 1.283 . S
O293 Eu289 2.363 . S
O294 C268 1.283 . S
O294 Eu279 2.367 . S
O295 C269 1.283 . S
O295 Eu279 2.358 1_565 S
O296 C270 1.283 . S
O296 Eu280 2.367 . S
O297 C271 1.283 . S
O297 Eu280 2.359 1_565 S
O298 C272 1.283 . S
O298 Eu284 2.363 . S
O299 C273 1.283 . S
O299 Eu284 2.363 1_655 S
O300 C274 1.283 . S
O300 Eu283 2.363 . S
O301 C275 1.283 . S
O301 Eu283 2.363 1_655 S
O302 C270 1.283 . S
O302 Eu289 2.363 . S
O303 C268 1.283 . S
O303 Eu289 2.363 1_655 S
O304 C271 1.283 . S
O304 Eu276 2.363 . S
O305 C269 1.283 . S
O305 Eu276 2.363 1_655 S
O306 C265 1.283 . S
O306 Eu284 2.359 1_565 S
O307 C267 1.283 . S
O307 Eu284 2.367 . S
O308 C264 1.283 . S
O308 Eu283 2.358 1_565 S
O309 C266 1.283 . S
O309 Eu283 2.368 . S
O310 C275 1.283 . S
O310 Eu279 2.363 . S
O311 C273 1.283 . S
O311 Eu279 2.363 . S
O312 C274 1.283 . S
O312 Eu280 2.363 . S
O313 C272 1.283 . S
O313 Eu280 2.363 . S
C314 O340 1.283 . S
C314 O358 1.283 . S
C315 O341 1.283 . S
C315 O356 1.283 . S
C316 O342 1.283 . S
C316 O359 1.283 . S
C317 O343 1.283 . S
C317 O357 1.283 . S
C318 O344 1.283 . S
C318 O353 1.283 . S
C319 O345 1.283 . S
C319 O355 1.283 . S
C320 O346 1.283 . S
C320 O352 1.283 . S
C321 O347 1.283 . S
C321 O354 1.283 . S
C322 O348 1.283 . S
C322 O363 1.283 . S
C323 O349 1.283 . S
C323 O361 1.283 . S
C324 O350 1.283 . S
C324 O362 1.283 . S
C325 O351 1.283 . S
C325 O360 1.283 . S
Eu326 O327 2.374 . S
Eu326 O328 2.367 1_545 S
Eu326 O331 2.367 1_545 S
Eu326 O332 2.374 . S
Eu326 O340 2.357 1_545 S
Eu326 O341 2.369 . S
Eu326 O354 2.363 . S
Eu326 O355 2.363 . S
O327 Eu326 2.374 . S
O327 Eu329 2.372 . S
O327 Eu334 2.370 . S
O328 Eu326 2.367 1_565 S
O328 Eu330 2.368 1_565 S
O328 Eu333 2.370 . S
Eu329 O327 2.372 . S
Eu329 O331 2.368 1_545 S
Eu329 O335 2.368 1_544 S
Eu329 O336 2.372 1_554 S
Eu329 O344 2.363 1_554 S
Eu329 O345 2.363 . S
Eu329 O360 2.359 1_545 S
Eu329 O361 2.367 . S
Eu330 O328 2.368 1_545 S
Eu330 O332 2.373 . S
Eu330 O337 2.373 1_554 S
Eu330 O338 2.368 1_544 S
Eu330 O346 2.363 1_554 S
Eu330 O347 2.363 . S
Eu330 O362 2.359 1_545 S
Eu330 O363 2.367 . S
O331 Eu326 2.367 1_565 S
O331 Eu329 2.368 1_565 S
O331 Eu333 2.370 . S
O332 Eu326 2.374 . S
O332 Eu330 2.373 . S
O332 Eu334 2.370 . S
Eu333 O328 2.370 . S
Eu333 O331 2.370 . S
Eu333 O335 2.370 1_554 S
Eu333 O338 2.370 1_554 S
Eu333 O350 2.363 . S
Eu333 O351 2.363 . S
Eu333 O358 2.363 . S
Eu333 O359 2.363 1_554 S
Eu334 O327 2.370 . S
Eu334 O332 2.370 . S
Eu334 O336 2.370 1_554 S
Eu334 O337 2.370 1_554 S
Eu334 O348 2.363 . S
Eu334 O349 2.363 . S
Eu334 O356 2.363 . S
Eu334 O357 2.363 1_554 S
O335 Eu329 2.368 1_566 S
O335 Eu333 2.370 1_556 S
O335 Eu339 2.369 1_565 S
O336 Eu329 2.372 1_556 S
O336 Eu334 2.370 1_556 S
O336 Eu339 2.372 . S
O337 Eu330 2.373 1_556 S
O337 Eu334 2.370 1_556 S
O337 Eu339 2.372 . S
O338 Eu330 2.368 1_566 S
O338 Eu333 2.370 1_556 S
O338 Eu339 2.369 1_565 S
Eu339 O335 2.369 1_545 S
Eu339 O336 2.372 . S
Eu339 O337 2.372 . S
Eu339 O338 2.369 1_545 S
Eu339 O342 2.360 1_545 S
Eu339 O343 2.365 . S
Eu339 O352 2.363 . S
Eu339 O353 2.363 . S
O340 C314 1.283 . S
O340 Eu326 2.357 1_565 S
O341 C315 1.283 . S
O341 Eu326 2.369 . S
O342 C316 1.283 . S
O342 Eu339 2.360 1_565 S
O343 C317 1.283 . S
O343 Eu339 2.365 . S
O344 C318 1.283 . S
O344 Eu329 2.363 1_556 S
O345 C319 1.283 . S
O345 Eu329 2.363 . S
O346 C320 1.283 . S
O346 Eu330 2.363 1_556 S
O347 C321 1.283 . S
O347 Eu330 2.363 . S
O348 C322 1.283 . S
O348 Eu334 2.363 . S
O349 C323 1.283 . S
O349 Eu334 2.363 . S
O350 C324 1.283 . S
O350 Eu333 2.363 . S
O351 C325 1.283 . S
O351 Eu333 2.363 . S
O352 C320 1.283 . S
O352 Eu339 2.363 . S
O353 C318 1.283 . S
O353 Eu339 2.363 . S
O354 C321 1.283 . S
O354 Eu326 2.363 . S
O355 C319 1.283 . S
O355 Eu326 2.363 . S
O356 C315 1.283 . S
O356 Eu334 2.363 . S
O357 C317 1.283 . S
O357 Eu334 2.363 1_556 S
O358 C314 1.283 . S
O358 Eu333 2.363 . S
O359 C316 1.283 . S
O359 Eu333 2.363 1_556 S
O360 C325 1.283 . S
O360 Eu329 2.359 1_565 S
O361 C323 1.283 . S
O361 Eu329 2.367 . S
O362 C324 1.283 . S
O362 Eu330 2.359 1_565 S
O363 C322 1.283 . S
O363 Eu330 2.367 . S
C364 O390 1.283 . S
C364 O408 1.283 . S
C365 O391 1.283 . S
C365 O406 1.283 . S
C366 O392 1.283 . S
C366 O409 1.283 . S
C367 O393 1.283 . S
C367 O407 1.283 . S
C368 O394 1.283 . S
C368 O403 1.283 . S
C369 O395 1.283 . S
C369 O405 1.283 . S
C370 O396 1.283 . S
C370 O402 1.283 . S
C371 O397 1.283 . S
C371 O404 1.283 . S
C372 O398 1.283 . S
C372 O413 1.283 . S
C373 O399 1.283 . S
C373 O411 1.283 . S
C374 O400 1.283 . S
C374 O412 1.283 . S
C375 O401 1.283 . S
C375 O410 1.283 . S
Eu376 O377 2.370 1_454 S
Eu376 O378 2.370 . S
Eu376 O381 2.370 1_455 S
Eu376 O382 2.370 1_554 S
Eu376 O390 2.363 . S
Eu376 O391 2.363 1_554 S
Eu376 O404 2.363 . S
Eu376 O405 2.363 1_455 S
O377 Eu376 2.370 1_656 S
O377 Eu379 2.370 1_556 S
O377 Eu384 2.370 1_655 S
O378 Eu376 2.370 . S
O378 Eu380 2.370 . S
O378 Eu383 2.370 . S
Eu379 O377 2.370 1_554 S
Eu379 O381 2.370 . S
Eu379 O385 2.370 . S
Eu379 O386 2.370 1_554 S
Eu379 O394 2.363 . S
Eu379 O395 2.363 . S
Eu379 O410 2.363 . S
Eu379 O411 2.363 1_554 S
Eu380 O378 2.370 . S
Eu380 O382 2.370 1_554 S
Eu380 O387 2.370 1_554 S
Eu380 O388 2.370 . S
Eu380 O396 2.363 . S
Eu380 O397 2.363 . S
Eu380 O412 2.363 . S
Eu380 O413 2.363 1_554 S
O381 Eu376 2.370 1_655 S
O381 Eu379 2.370 . S
O381 Eu383 2.370 1_655 S
O382 Eu376 2.370 1_556 S
O382 Eu380 2.370 1_556 S
O382 Eu384 2.370 . S
Eu383 O378 2.370 . S
Eu383 O381 2.370 1_455 S
Eu383 O385 2.370 1_455 S
Eu383 O388 2.370 . S
Eu383 O400 2.363 . S
Eu383 O401 2.363 1_455 S
Eu383 O408 2.363 . S
Eu383 O409 2.363 . S
Eu384 O377 2.370 1_455 S
Eu384 O382 2.370 . S
Eu384 O386 2.370 1_455 S
Eu384 O387 2.370 . S
Eu384 O398 2.363 . S
Eu384 O399 2.363 1_455 S
Eu384 O406 2.363 . S
Eu384 O407 2.363 . S
O385 Eu379 2.370 . S
O385 Eu383 2.370 1_655 S
O385 Eu389 2.370 1_655 S
O386 Eu379 2.370 1_556 S
O386 Eu384 2.370 1_655 S
O386 Eu389 2.370 1_656 S
O387 Eu380 2.370 1_556 S
O387 Eu384 2.370 . S
O387 Eu389 2.370 1_556 S
O388 Eu380 2.370 . S
O388 Eu383 2.370 . S
O388 Eu389 2.370 . S
Eu389 O385 2.370 1_455 S
Eu389 O386 2.370 1_454 S
Eu389 O387 2.370 1_554 S
Eu389 O388 2.370 . S
Eu389 O392 2.363 . S
Eu389 O393 2.363 1_554 S
Eu389 O402 2.363 . S
Eu389 O403 2.363 1_455 S
O390 C364 1.283 . S
O390 Eu376 2.363 . S
O391 C365 1.283 . S
O391 Eu376 2.363 1_556 S
O392 C366 1.283 . S
O392 Eu389 2.363 . S
O393 C367 1.283 . S
O393 Eu389 2.363 1_556 S
O394 C368 1.283 . S
O394 Eu379 2.363 . S
O395 C369 1.283 . S
O395 Eu379 2.363 . S
O396 C370 1.283 . S
O396 Eu380 2.363 . S
O397 C371 1.283 . S
O397 Eu380 2.363 . S
O398 C372 1.283 . S
O398 Eu384 2.363 . S
O399 C373 1.283 . S
O399 Eu384 2.363 1_655 S
O400 C374 1.283 . S
O400 Eu383 2.363 . S
O401 C375 1.283 . S
O401 Eu383 2.363 1_655 S
O402 C370 1.283 . S
O402 Eu389 2.363 . S
O403 C368 1.283 . S
O403 Eu389 2.363 1_655 S
O404 C371 1.283 . S
O404 Eu376 2.363 . S
O405 C369 1.283 . S
O405 Eu376 2.363 1_655 S
O406 C365 1.283 . S
O406 Eu384 2.363 . S
O407 C367 1.283 . S
O407 Eu384 2.363 . S
O408 C364 1.283 . S
O408 Eu383 2.363 . S
O409 C366 1.283 . S
O409 Eu383 2.363 . S
O410 C375 1.283 . S
O410 Eu379 2.363 . S
O411 C373 1.283 . S
O411 Eu379 2.363 1_556 S
O412 C374 1.283 . S
O412 Eu380 2.363 . S
O413 C372 1.283 . S
O413 Eu380 2.363 1_556 S
C414 O440 1.283 . S
C414 O458 1.283 . S
C415 O441 1.283 . S
C415 O456 1.283 . S
C416 O442 1.283 . S
C416 O459 1.283 . S
C417 O443 1.283 . S
C417 O457 1.283 . S
C418 O444 1.283 . S
C418 O453 1.283 . S
C419 O445 1.283 . S
C419 O455 1.283 . S
C420 O446 1.283 . S
C420 O452 1.283 . S
C421 O447 1.283 . S
C421 O454 1.283 . S
C422 O448 1.283 . S
C422 O463 1.283 . S
C423 O449 1.283 . S
C423 O461 1.283 . S
C424 O450 1.283 . S
C424 O462 1.283 . S
C425 O451 1.283 . S
C425 O460 1.283 . S
Eu426 O427 2.370 . S
Eu426 O428 2.370 . S
Eu426 O431 2.370 . S
Eu426 O432 2.370 . S
Eu426 O440 2.363 . S
Eu426 O441 2.363 . S
Eu426 O454 2.363 . S
Eu426 O455 2.363 . S
O427 Eu426 2.370 . S
O427 Eu429 2.370 . S
O427 Eu434 2.370 . S
O428 Eu426 2.370 . S
O428 Eu430 2.370 . S
O428 Eu433 2.370 . S
Eu429 O427 2.370 . S
Eu429 O431 2.370 . S
Eu429 O435 2.370 1_554 S
Eu429 O436 2.370 1_554 S
Eu429 O444 2.363 1_554 S
Eu429 O445 2.363 . S
Eu429 O460 2.363 . S
Eu429 O461 2.363 . S
Eu430 O428 2.370 . S
Eu430 O432 2.370 . S
Eu430 O437 2.370 1_554 S
Eu430 O438 2.370 1_554 S
Eu430 O446 2.363 1_554 S
Eu430 O447 2.363 . S
Eu430 O462 2.363 . S
Eu430 O463 2.363 . S
O431 Eu426 2.370 . S
O431 Eu429 2.370 . S
O431 Eu433 2.370 . S
O432 Eu426 2.370 . S
O432 Eu430 2.370 . S
O432 Eu434 2.370 . S
Eu433 O428 2.370 . S
Eu433 O431 2.370 . S
Eu433 O435 2.370 1_554 S
Eu433 O438 2.370 1_554 S
Eu433 O450 2.363 . S
Eu433 O451 2.363 . S
Eu433 O458 2.363 . S
Eu433 O459 2.363 1_554 S
Eu434 O427 2.370 . S
Eu434 O432 2.370 . S
Eu434 O436 2.370 1_554 S
Eu434 O437 2.370 1_554 S
Eu434 O448 2.363 . S
Eu434 O449 2.363 . S
Eu434 O456 2.363 . S
Eu434 O457 2.363 1_554 S
O435 Eu429 2.370 1_556 S
O435 Eu433 2.370 1_556 S
O435 Eu439 2.370 . S
O436 Eu429 2.370 1_556 S
O436 Eu434 2.370 1_556 S
O436 Eu439 2.370 . S
O437 Eu430 2.370 1_556 S
O437 Eu434 2.370 1_556 S
O437 Eu439 2.370 . S
O438 Eu430 2.370 1_556 S
O438 Eu433 2.370 1_556 S
O438 Eu439 2.370 . S
Eu439 O435 2.370 . S
Eu439 O436 2.370 . S
Eu439 O437 2.370 . S
Eu439 O438 2.370 . S
Eu439 O442 2.363 . S
Eu439 O443 2.363 . S
Eu439 O452 2.363 . S
Eu439 O453 2.363 . S
O440 C414 1.283 . S
O440 Eu426 2.363 . S
O441 C415 1.283 . S
O441 Eu426 2.363 . S
O442 C416 1.283 . S
O442 Eu439 2.363 . S
O443 C417 1.283 . S
O443 Eu439 2.363 . S
O444 C418 1.283 . S
O444 Eu429 2.363 1_556 S
O445 C419 1.283 . S
O445 Eu429 2.363 . S
O446 C420 1.283 . S
O446 Eu430 2.363 1_556 S
O447 C421 1.283 . S
O447 Eu430 2.363 . S
O448 C422 1.283 . S
O448 Eu434 2.363 . S
O449 C423 1.283 . S
O449 Eu434 2.363 . S
O450 C424 1.283 . S
O450 Eu433 2.363 . S
O451 C425 1.283 . S
O451 Eu433 2.363 . S
O452 C420 1.283 . S
O452 Eu439 2.363 . S
O453 C418 1.283 . S
O453 Eu439 2.363 . S
O454 C421 1.283 . S
O454 Eu426 2.363 . S
O455 C419 1.283 . S
O455 Eu426 2.363 . S
O456 C415 1.283 . S
O456 Eu434 2.363 . S
O457 C417 1.283 . S
O457 Eu434 2.363 1_556 S
O458 C414 1.283 . S
O458 Eu433 2.363 . S
O459 C416 1.283 . S
O459 Eu433 2.363 1_556 S
O460 C425 1.283 . S
O460 Eu429 2.363 . S
O461 C423 1.283 . S
O461 Eu429 2.363 . S
O462 C424 1.283 . S
O462 Eu430 2.363 . S
O463 C422 1.283 . S
O463 Eu430 2.363 . S
C464 O490 1.283 . S
C464 O508 1.283 . S
C465 O491 1.283 . S
C465 O506 1.283 . S
C466 O492 1.283 . S
C466 O509 1.283 . S
C467 O493 1.283 . S
C467 O507 1.283 . S
C468 O494 1.283 . S
C468 O503 1.283 . S
C469 O495 1.283 . S
C469 O505 1.283 . S
C470 O496 1.283 . S
C470 O502 1.283 . S
C471 O497 1.283 . S
C471 O504 1.283 . S
C472 O498 1.283 . S
C472 O513 1.283 . S
C473 O499 1.283 . S
C473 O511 1.283 . S
C474 O500 1.283 . S
C474 O512 1.283 . S
C475 O501 1.283 . S
C475 O510 1.283 . S
Eu476 O477 2.370 1_455 S
Eu476 O478 2.370 . S
Eu476 O481 2.370 1_455 S
Eu476 O482 2.370 . S
Eu476 O490 2.363 . S
Eu476 O491 2.363 . S
Eu476 O504 2.363 . S
Eu476 O505 2.363 1_455 S
O477 Eu476 2.370 1_655 S
O477 Eu479 2.370 . S
O477 Eu484 2.370 1_655 S
O478 Eu476 2.370 . S
O478 Eu480 2.370 . S
O478 Eu483 2.370 . S
Eu479 O477 2.370 . S
Eu479 O481 2.370 . S
Eu479 O485 2.370 . S
Eu479 O486 2.370 . S
Eu479 O494 2.363 . S
Eu479 O495 2.363 . S
Eu479 O510 2.363 . S
Eu479 O511 2.363 . S
Eu480 O478 2.370 . S
Eu480 O482 2.370 . S
Eu480 O487 2.370 . S
Eu480 O488 2.370 . S
Eu480 O496 2.363 . S
Eu480 O497 2.363 . S
Eu480 O512 2.363 . S
Eu480 O513 2.363 . S
O481 Eu476 2.370 1_655 S
O481 Eu479 2.370 . S
O481 Eu483 2.370 1_655 S
O482 Eu476 2.370 . S
O482 Eu480 2.370 . S
O482 Eu484 2.370 . S
Eu483 O478 2.370 . S
Eu483 O481 2.370 1_455 S
Eu483 O485 2.370 1_455 S
Eu483 O488 2.370 . S
Eu483 O500 2.363 . S
Eu483 O501 2.363 1_455 S
Eu483 O508 2.363 . S
Eu483 O509 2.363 . S
Eu484 O477 2.370 1_455 S
Eu484 O482 2.370 . S
Eu484 O486 2.370 1_455 S
Eu484 O487 2.370 . S
Eu484 O498 2.363 . S
Eu484 O499 2.363 1_455 S
Eu484 O506 2.363 . S
Eu484 O507 2.363 . S
O485 Eu479 2.370 . S
O485 Eu483 2.370 1_655 S
O485 Eu489 2.370 1_655 S
O486 Eu479 2.370 . S
O486 Eu484 2.370 1_655 S
O486 Eu489 2.370 1_655 S
O487 Eu480 2.370 . S
O487 Eu484 2.370 . S
O487 Eu489 2.370 . S
O488 Eu480 2.370 . S
O488 Eu483 2.370 . S
O488 Eu489 2.370 . S
Eu489 O485 2.370 1_455 S
Eu489 O486 2.370 1_455 S
Eu489 O487 2.370 . S
Eu489 O488 2.370 . S
Eu489 O492 2.363 . S
Eu489 O493 2.363 . S
Eu489 O502 2.363 . S
Eu489 O503 2.363 1_455 S
O490 C464 1.283 . S
O490 Eu476 2.363 . S
O491 C465 1.283 . S
O491 Eu476 2.363 . S
O492 C466 1.283 . S
O492 Eu489 2.363 . S
O493 C467 1.283 . S
O493 Eu489 2.363 . S
O494 C468 1.283 . S
O494 Eu479 2.363 . S
O495 C469 1.283 . S
O495 Eu479 2.363 . S
O496 C470 1.283 . S
O496 Eu480 2.363 . S
O497 C471 1.283 . S
O497 Eu480 2.363 . S
O498 C472 1.283 . S
O498 Eu484 2.363 . S
O499 C473 1.283 . S
O499 Eu484 2.363 1_655 S
O500 C474 1.283 . S
O500 Eu483 2.363 . S
O501 C475 1.283 . S
O501 Eu483 2.363 1_655 S
O502 C470 1.283 . S
O502 Eu489 2.363 . S
O503 C468 1.283 . S
O503 Eu489 2.363 1_655 S
O504 C471 1.283 . S
O504 Eu476 2.363 . S
O505 C469 1.283 . S
O505 Eu476 2.363 1_655 S
O506 C465 1.283 . S
O506 Eu484 2.363 . S
O507 C467 1.283 . S
O507 Eu484 2.363 . S
O508 C464 1.283 . S
O508 Eu483 2.363 . S
O509 C466 1.283 . S
O509 Eu483 2.363 . S
O510 C475 1.283 . S
O510 Eu479 2.363 . S
O511 C473 1.283 . S
O511 Eu479 2.363 . S
O512 C474 1.283 . S
O512 Eu480 2.363 . S
O513 C472 1.283 . S
O513 Eu480 2.363 . S
C514 O540 1.283 . S
C514 O558 1.283 . S
C515 O541 1.283 . S
C515 O556 1.283 . S
C516 O542 1.283 . S
C516 O559 1.283 . S
C517 O543 1.283 . S
C517 O557 1.283 . S
C518 O544 1.283 . S
C518 O553 1.283 . S
C519 O545 1.283 . S
C519 O555 1.283 . S
C520 O546 1.283 . S
C520 O552 1.283 . S
C521 O547 1.283 . S
C521 O554 1.283 . S
C522 O548 1.283 . S
C522 O563 1.283 . S
C523 O549 1.283 . S
C523 O561 1.283 . S
C524 O550 1.283 . S
C524 O562 1.283 . S
C525 O551 1.283 . S
C525 O560 1.283 . S
Eu526 O527 2.370 . S
Eu526 O528 2.370 . S
Eu526 O531 2.370 . S
Eu526 O532 2.370 . S
Eu526 O540 2.363 . S
Eu526 O541 2.363 . S
Eu526 O554 2.363 . S
Eu526 O555 2.363 . S
O527 Eu526 2.370 . S
O527 Eu529 2.368 1_565 S
O527 Eu534 2.368 1_565 S
O528 Eu526 2.370 . S
O528 Eu530 2.368 1_565 S
O528 Eu533 2.367 1_565 S
Eu529 O527 2.368 1_545 S
Eu529 O531 2.368 1_545 S
Eu529 O535 2.373 . S
Eu529 O536 2.373 . S
Eu529 O544 2.367 . S
Eu529 O545 2.359 1_545 S
Eu529 O560 2.363 . S
Eu529 O561 2.363 . S
Eu530 O528 2.368 1_545 S
Eu530 O532 2.368 1_545 S
Eu530 O537 2.373 . S
Eu530 O538 2.373 . S
Eu530 O546 2.367 . S
Eu530 O547 2.359 1_545 S
Eu530 O562 2.363 . S
Eu530 O563 2.363 . S
O531 Eu526 2.370 . S
O531 Eu529 2.368 1_565 S
O531 Eu533 2.367 1_565 S
O532 Eu526 2.370 . S
O532 Eu530 2.368 1_565 S
O532 Eu534 2.368 1_565 S
Eu533 O528 2.367 1_545 S
Eu533 O531 2.367 1_545 S
Eu533 O535 2.373 . S
Eu533 O538 2.373 . S
Eu533 O550 2.363 . S
Eu533 O551 2.363 . S
Eu533 O558 2.358 1_545 S
Eu533 O559 2.368 . S
Eu534 O527 2.368 1_545 S
Eu534 O532 2.368 1_545 S
Eu534 O536 2.372 . S
Eu534 O537 2.372 . S
Eu534 O548 2.363 . S
Eu534 O549 2.363 . S
Eu534 O556 2.359 1_545 S
Eu534 O557 2.367 . S
O535 Eu529 2.373 . S
O535 Eu533 2.373 . S
O535 Eu539 2.370 . S
O536 Eu529 2.373 . S
O536 Eu534 2.372 . S
O536 Eu539 2.370 . S
O537 Eu530 2.373 . S
O537 Eu534 2.372 . S
O537 Eu539 2.370 . S
O538 Eu530 2.373 . S
O538 Eu533 2.373 . S
O538 Eu539 2.370 . S
Eu539 O535 2.370 . S
Eu539 O536 2.370 . S
Eu539 O537 2.370 . S
Eu539 O538 2.370 . S
Eu539 O542 2.363 . S
Eu539 O543 2.363 . S
Eu539 O552 2.363 . S
Eu539 O553 2.363 . S
O540 C514 1.283 . S
O540 Eu526 2.363 . S
O541 C515 1.283 . S
O541 Eu526 2.363 . S
O542 C516 1.283 . S
O542 Eu539 2.363 . S
O543 C517 1.283 . S
O543 Eu539 2.363 . S
O544 C518 1.283 . S
O544 Eu529 2.367 . S
O545 C519 1.283 . S
O545 Eu529 2.359 1_565 S
O546 C520 1.283 . S
O546 Eu530 2.367 . S
O547 C521 1.283 . S
O547 Eu530 2.359 1_565 S
O548 C522 1.283 . S
O548 Eu534 2.363 . S
O549 C523 1.283 . S
O549 Eu534 2.363 . S
O550 C524 1.283 . S
O550 Eu533 2.363 . S
O551 C525 1.283 . S
O551 Eu533 2.363 . S
O552 C520 1.283 . S
O552 Eu539 2.363 . S
O553 C518 1.283 . S
O553 Eu539 2.363 . S
O554 C521 1.283 . S
O554 Eu526 2.363 . S
O555 C519 1.283 . S
O555 Eu526 2.363 . S
O556 C515 1.283 . S
O556 Eu534 2.359 1_565 S
O557 C517 1.283 . S
O557 Eu534 2.367 . S
O558 C514 1.283 . S
O558 Eu533 2.358 1_565 S
O559 C516 1.283 . S
O559 Eu533 2.368 . S
O560 C525 1.283 . S
O560 Eu529 2.363 . S
O561 C523 1.283 . S
O561 Eu529 2.363 . S
O562 C524 1.283 . S
O562 Eu530 2.363 . S
O563 C522 1.283 . S
O563 Eu530 2.363 . S
H564 C570 0.930 . S
H565 C573 0.930 . S
H566 C574 0.930 . S
H567 C575 0.930 . S
H568 C578 0.930 . S
H569 C579 0.930 . S
C570 H564 0.930 . S
C570 C571 1.355 . S
C570 C572 1.415 . S
C571 C570 1.355 . S
C571 C573 1.419 . S
C572 C570 1.415 . S
C572 C577 1.425 . S
C572 C579 1.409 . S
C573 H565 0.930 . S
C573 C571 1.419 . S
C573 C574 1.362 . S
C574 H566 0.930 . S
C574 C573 1.362 . S
C574 C577 1.409 . S
C575 H567 0.930 . S
C575 C576 1.355 . S
C575 C577 1.415 . S
C576 C575 1.355 . S
C576 C578 1.419 . S
C577 C572 1.425 . S
C577 C574 1.409 . S
C577 C575 1.415 . S
C578 H568 0.930 . S
C578 C576 1.419 . S
C578 C579 1.362 . S
C579 H569 0.930 . S
C579 C572 1.409 . S
C579 C578 1.362 . S
H580 C586 0.930 . S
H581 C589 0.930 . S
H582 C590 0.930 . S
H583 C591 0.930 . S
H584 C594 0.930 . S
H585 C595 0.930 . S
C586 H580 0.930 . S
C586 C587 1.355 . S
C586 C588 1.415 . S
C587 C586 1.355 . S
C587 C589 1.419 . S
C588 C586 1.415 . S
C588 C593 1.425 . S
C588 C595 1.409 . S
C589 H581 0.930 . S
C589 C587 1.419 . S
C589 C590 1.362 . S
C590 H582 0.930 . S
C590 C589 1.362 . S
C590 C593 1.409 . S
C591 H583 0.930 . S
C591 C592 1.355 . S
C591 C593 1.415 . S
C592 C591 1.355 . S
C592 C594 1.419 . S
C593 C588 1.425 . S
C593 C590 1.409 . S
C593 C591 1.415 . S
C594 H584 0.930 . S
C594 C592 1.419 . S
C594 C595 1.362 . S
C595 H585 0.930 . S
C595 C588 1.409 . S
C595 C594 1.362 . S
H596 C602 0.930 . S
H597 C605 0.930 . S
H598 C606 0.930 . S
H599 C607 0.930 . S
H600 C610 0.930 . S
H601 C611 0.930 . S
C602 H596 0.930 . S
C602 C603 1.355 . S
C602 C604 1.415 . S
C603 C602 1.355 . S
C603 C605 1.419 . S
C604 C602 1.415 . S
C604 C609 1.425 . S
C604 C611 1.409 . S
C605 H597 0.930 . S
C605 C603 1.419 . S
C605 C606 1.362 . S
C606 H598 0.930 . S
C606 C605 1.362 . S
C606 C609 1.409 . S
C607 H599 0.930 . S
C607 C608 1.355 . S
C607 C609 1.415 . S
C608 C607 1.355 . S
C608 C610 1.419 . S
C609 C604 1.425 . S
C609 C606 1.409 . S
C609 C607 1.415 . S
C610 H600 0.930 . S
C610 C608 1.419 . S
C610 C611 1.362 . S
C611 H601 0.930 . S
C611 C604 1.409 . S
C611 C610 1.362 . S
H612 C618 0.930 . S
H613 C621 0.930 . S
H614 C622 0.930 . S
H615 C623 0.930 . S
H616 C626 0.930 . S
H617 C627 0.930 . S
C618 H612 0.930 . S
C618 C619 1.355 . S
C618 C620 1.415 . S
C619 C618 1.355 . S
C619 C621 1.419 . S
C620 C618 1.415 . S
C620 C625 1.425 . S
C620 C627 1.409 . S
C621 H613 0.930 . S
C621 C619 1.419 . S
C621 C622 1.362 . S
C622 H614 0.930 . S
C622 C621 1.362 . S
C622 C625 1.409 . S
C623 H615 0.930 . S
C623 C624 1.355 . S
C623 C625 1.415 . S
C624 C623 1.355 . S
C624 C626 1.419 . S
C625 C620 1.425 . S
C625 C622 1.409 . S
C625 C623 1.415 . S
C626 H616 0.930 . S
C626 C624 1.419 . S
C626 C627 1.362 . S
C627 H617 0.930 . S
C627 C620 1.409 . S
C627 C626 1.362 . S
H628 C634 0.930 . S
H629 C637 0.930 . S
H630 C638 0.930 . S
H631 C639 0.930 . S
H632 C642 0.930 . S
H633 C643 0.930 . S
C634 H628 0.930 . S
C634 C635 1.355 . S
C634 C636 1.415 . S
C635 C634 1.355 . S
C635 C637 1.419 . S
C636 C634 1.415 . S
C636 C641 1.425 . S
C636 C643 1.409 . S
C637 H629 0.930 . S
C637 C635 1.419 . S
C637 C638 1.362 . S
C638 H630 0.930 . S
C638 C637 1.362 . S
C638 C641 1.409 . S
C639 H631 0.930 . S
C639 C640 1.355 . S
C639 C641 1.415 . S
C640 C639 1.355 . S
C640 C642 1.419 . S
C641 C636 1.425 . S
C641 C638 1.409 . S
C641 C639 1.415 . S
C642 H632 0.930 . S
C642 C640 1.419 . S
C642 C643 1.362 . S
C643 H633 0.930 . S
C643 C636 1.409 . S
C643 C642 1.362 . S
H644 C650 0.930 . S
H645 C653 0.930 . S
H646 C654 0.930 . S
H647 C655 0.930 . S
H648 C658 0.930 . S
H649 C659 0.930 . S
C650 H644 0.930 . S
C650 C651 1.355 . S
C650 C652 1.415 . S
C651 C650 1.355 . S
C651 C653 1.419 . S
C652 C650 1.415 . S
C652 C657 1.425 . S
C652 C659 1.409 . S
C653 H645 0.930 . S
C653 C651 1.419 . S
C653 C654 1.362 . S
C654 H646 0.930 . S
C654 C653 1.362 . S
C654 C657 1.409 . S
C655 H647 0.930 . S
C655 C656 1.355 . S
C655 C657 1.415 . S
C656 C655 1.355 . S
C656 C658 1.419 . S
C657 C652 1.425 . S
C657 C654 1.409 . S
C657 C655 1.415 . S
C658 H648 0.930 . S
C658 C656 1.419 . S
C658 C659 1.362 . S
C659 H649 0.930 . S
C659 C652 1.409 . S
C659 C658 1.362 . S
H660 C666 0.930 . S
H661 C669 0.930 . S
H662 C670 0.930 . S
H663 C671 0.930 . S
H664 C674 0.930 . S
H665 C675 0.930 . S
C666 H660 0.930 . S
C666 C667 1.355 . S
C666 C668 1.415 . S
C667 C666 1.355 . S
C667 C669 1.419 . S
C668 C666 1.415 . S
C668 C673 1.425 . S
C668 C675 1.409 . S
C669 H661 0.930 . S
C669 C667 1.419 . S
C669 C670 1.362 . S
C670 H662 0.930 . S
C670 C669 1.362 . S
C670 C673 1.409 . S
C671 H663 0.930 . S
C671 C672 1.355 . S
C671 C673 1.415 . S
C672 C671 1.355 . S
C672 C674 1.419 . S
C673 C668 1.425 . S
C673 C670 1.409 . S
C673 C671 1.415 . S
C674 H664 0.930 . S
C674 C672 1.419 . S
C674 C675 1.362 . S
C675 H665 0.930 . S
C675 C668 1.409 . S
C675 C674 1.362 . S
H676 C682 0.930 . S
H677 C685 0.930 . S
H678 C686 0.930 . S
H679 C687 0.930 . S
H680 C690 0.930 . S
H681 C691 0.930 . S
C682 H676 0.930 . S
C682 C683 1.355 . S
C682 C684 1.415 . S
C683 C682 1.355 . S
C683 C685 1.419 . S
C684 C682 1.415 . S
C684 C689 1.425 . S
C684 C691 1.409 . S
C685 H677 0.930 . S
C685 C683 1.419 . S
C685 C686 1.362 . S
C686 H678 0.930 . S
C686 C685 1.362 . S
C686 C689 1.409 . S
C687 H679 0.930 . S
C687 C688 1.355 . S
C687 C689 1.415 . S
C688 C687 1.355 . S
C688 C690 1.419 . S
C689 C684 1.425 . S
C689 C686 1.409 . S
C689 C687 1.415 . S
C690 H680 0.930 . S
C690 C688 1.419 . S
C690 C691 1.362 . S
C691 H681 0.930 . S
C691 C684 1.409 . S
C691 C690 1.362 . S
H692 C698 0.930 . S
H693 C701 0.930 . S
H694 C702 0.930 . S
H695 C703 0.930 . S
H696 C706 0.930 . S
H697 C707 0.930 . S
C698 H692 0.930 . S
C698 C699 1.355 . S
C698 C700 1.415 . S
C699 C698 1.355 . S
C699 C701 1.419 . S
C700 C698 1.415 . S
C700 C705 1.425 . S
C700 C707 1.409 . S
C701 H693 0.930 . S
C701 C699 1.419 . S
C701 C702 1.362 . S
C702 H694 0.930 . S
C702 C701 1.362 . S
C702 C705 1.409 . S
C703 H695 0.930 . S
C703 C704 1.355 . S
C703 C705 1.415 . S
C704 C703 1.355 . S
C704 C706 1.419 . S
C705 C700 1.425 . S
C705 C702 1.409 . S
C705 C703 1.415 . S
C706 H696 0.930 . S
C706 C704 1.419 . S
C706 C707 1.362 . S
C707 H697 0.930 . S
C707 C700 1.409 . S
C707 C706 1.362 . S
H708 C714 0.930 . S
H709 C717 0.930 . S
H710 C718 0.930 . S
H711 C719 0.930 . S
H712 C722 0.930 . S
H713 C723 0.930 . S
C714 H708 0.930 . S
C714 C715 1.355 . S
C714 C716 1.415 . S
C715 C714 1.355 . S
C715 C717 1.419 . S
C716 C714 1.415 . S
C716 C721 1.425 . S
C716 C723 1.409 . S
C717 H709 0.930 . S
C717 C715 1.419 . S
C717 C718 1.362 . S
C718 H710 0.930 . S
C718 C717 1.362 . S
C718 C721 1.409 . S
C719 H711 0.930 . S
C719 C720 1.355 . S
C719 C721 1.415 . S
C720 C719 1.355 . S
C720 C722 1.419 . S
C721 C716 1.425 . S
C721 C718 1.409 . S
C721 C719 1.415 . S
C722 H712 0.930 . S
C722 C720 1.419 . S
C722 C723 1.362 . S
C723 H713 0.930 . S
C723 C716 1.409 . S
C723 C722 1.362 . S
H724 C730 0.930 . S
H725 C733 0.930 . S
H726 C734 0.930 . S
H727 C735 0.930 . S
H728 C738 0.930 . S
H729 C739 0.930 . S
C730 H724 0.930 . S
C730 C731 1.355 . S
C730 C732 1.415 . S
C731 C730 1.355 . S
C731 C733 1.419 . S
C732 C730 1.415 . S
C732 C737 1.425 . S
C732 C739 1.409 . S
C733 H725 0.930 . S
C733 C731 1.419 . S
C733 C734 1.362 . S
C734 H726 0.930 . S
C734 C733 1.362 . S
C734 C737 1.409 . S
C735 H727 0.930 . S
C735 C736 1.355 . S
C735 C737 1.415 . S
C736 C735 1.355 . S
C736 C738 1.419 . S
C737 C732 1.425 . S
C737 C734 1.409 . S
C737 C735 1.415 . S
C738 H728 0.930 . S
C738 C736 1.419 . S
C738 C739 1.362 . S
C739 H729 0.930 . S
C739 C732 1.409 . S
C739 C738 1.362 . S
H740 C746 0.930 . S
H741 C749 0.930 . S
H742 C750 0.930 . S
H743 C751 0.930 . S
H744 C754 0.930 . S
H745 C755 0.930 . S
C746 H740 0.930 . S
C746 C747 1.355 . S
C746 C748 1.415 . S
C747 C746 1.355 . S
C747 C749 1.419 . S
C748 C746 1.415 . S
C748 C753 1.425 . S
C748 C755 1.409 . S
C749 H741 0.930 . S
C749 C747 1.419 . S
C749 C750 1.362 . S
C750 H742 0.930 . S
C750 C749 1.362 . S
C750 C753 1.409 . S
C751 H743 0.930 . S
C751 C752 1.355 . S
C751 C753 1.415 . S
C752 C751 1.355 . S
C752 C754 1.419 . S
C753 C748 1.425 . S
C753 C750 1.409 . S
C753 C751 1.415 . S
C754 H744 0.930 . S
C754 C752 1.419 . S
C754 C755 1.362 . S
C755 H745 0.930 . S
C755 C748 1.409 . S
C755 C754 1.362 . S
H756 C762 0.930 . S
H757 C765 0.930 . S
H758 C766 0.930 . S
H759 C767 0.930 . S
H760 C770 0.930 . S
H761 C771 0.930 . S
C762 H756 0.930 . S
C762 C763 1.355 1_556 S
C762 C764 1.415 . S
C763 C762 1.355 1_554 S
C763 C765 1.419 . S
C764 C762 1.415 . S
C764 C769 1.425 1_556 S
C764 C771 1.409 . S
C765 H757 0.930 . S
C765 C763 1.419 . S
C765 C766 1.362 . S
C766 H758 0.930 . S
C766 C765 1.362 . S
C766 C769 1.409 . S
C767 H759 0.930 . S
C767 C768 1.355 . S
C767 C769 1.415 . S
C768 C767 1.355 . S
C768 C770 1.419 1_554 S
C769 C764 1.425 1_554 S
C769 C766 1.409 . S
C769 C767 1.415 . S
C770 H760 0.930 . S
C770 C768 1.419 1_556 S
C770 C771 1.362 . S
C771 H761 0.930 . S
C771 C764 1.409 . S
C771 C770 1.362 . S
H772 C778 0.930 . S
H773 C781 0.930 . S
H774 C782 0.930 . S
H775 C783 0.930 . S
H776 C786 0.930 . S
H777 C787 0.930 . S
C778 H772 0.930 . S
C778 C779 1.355 1_556 S
C778 C780 1.415 . S
C779 C778 1.355 1_554 S
C779 C781 1.419 . S
C780 C778 1.415 . S
C780 C785 1.425 1_556 S
C780 C787 1.409 . S
C781 H773 0.930 . S
C781 C779 1.419 . S
C781 C782 1.362 . S
C782 H774 0.930 . S
C782 C781 1.362 . S
C782 C785 1.409 . S
C783 H775 0.930 . S
C783 C784 1.355 . S
C783 C785 1.415 . S
C784 C783 1.355 . S
C784 C786 1.419 1_554 S
C785 C780 1.425 1_554 S
C785 C782 1.409 . S
C785 C783 1.415 . S
C786 H776 0.930 . S
C786 C784 1.419 1_556 S
C786 C787 1.362 . S
C787 H777 0.930 . S
C787 C780 1.409 . S
C787 C786 1.362 . S
H788 C794 0.930 . S
H789 C797 0.930 . S
H790 C798 0.930 . S
H791 C799 0.930 . S
H792 C802 0.930 . S
H793 C803 0.930 . S
C794 H788 0.930 . S
C794 C795 1.355 . S
C794 C796 1.415 . S
C795 C794 1.355 . S
C795 C797 1.419 . S
C796 C794 1.415 . S
C796 C801 1.425 . S
C796 C803 1.409 . S
C797 H789 0.930 . S
C797 C795 1.419 . S
C797 C798 1.362 . S
C798 H790 0.930 . S
C798 C797 1.362 . S
C798 C801 1.409 . S
C799 H791 0.930 . S
C799 C800 1.355 . S
C799 C801 1.415 . S
C800 C799 1.355 . S
C800 C802 1.419 . S
C801 C796 1.425 . S
C801 C798 1.409 . S
C801 C799 1.415 . S
C802 H792 0.930 . S
C802 C800 1.419 . S
C802 C803 1.362 . S
C803 H793 0.930 . S
C803 C796 1.409 . S
C803 C802 1.362 . S
H804 C810 0.930 . S
H805 C813 0.930 . S
H806 C814 0.930 . S
H807 C815 0.930 . S
H808 C818 0.928 1_556 S
H809 C819 0.929 1_556 S
C810 H804 0.930 . S
C810 C811 1.355 . S
C810 C812 1.415 . S
C811 C810 1.355 . S
C811 C813 1.419 . S
C812 C810 1.415 . S
C812 C817 1.425 . S
C812 C819 1.411 . S
C813 H805 0.930 . S
C813 C811 1.419 . S
C813 C814 1.362 . S
C814 H806 0.930 . S
C814 C813 1.362 . S
C814 C817 1.409 . S
C815 H807 0.930 . S
C815 C816 1.355 . S
C815 C817 1.415 . S
C816 C815 1.355 . S
C816 C818 1.422 . S
C817 C812 1.425 . S
C817 C814 1.409 . S
C817 C815 1.415 . S
C818 H808 0.928 1_554 S
C818 C816 1.422 . S
C818 C819 1.362 . S
C819 H809 0.929 1_554 S
C819 C812 1.411 . S
C819 C818 1.362 . S
H820 C826 0.930 1_655 S
H821 C829 0.930 . S
H822 C830 0.930 . S
H823 C831 0.930 . S
H824 C834 0.930 . S
H825 C835 0.930 . S
C826 H820 0.930 1_455 S
C826 C827 1.355 . S
C826 C828 1.415 . S
C827 C826 1.355 . S
C827 C829 1.419 . S
C828 C826 1.415 . S
C828 C833 1.425 . S
C828 C835 1.409 1_455 S
C829 H821 0.930 . S
C829 C827 1.419 . S
C829 C830 1.362 . S
C830 H822 0.930 . S
C830 C829 1.362 . S
C830 C833 1.409 . S
C831 H823 0.930 . S
C831 C832 1.355 . S
C831 C833 1.415 . S
C832 C831 1.355 . S
C832 C834 1.419 1_455 S
C833 C828 1.425 . S
C833 C830 1.409 . S
C833 C831 1.415 . S
C834 H824 0.930 . S
C834 C832 1.419 1_655 S
C834 C835 1.362 . S
C835 H825 0.930 . S
C835 C828 1.409 1_655 S
C835 C834 1.362 . S
H836 C842 0.930 . S
H837 C845 0.930 . S
H838 C846 0.930 . S
H839 C847 0.930 . S
H840 C850 0.930 . S
H841 C851 0.930 . S
C842 H836 0.930 . S
C842 C843 1.355 1_565 S
C842 C844 1.415 . S
C843 C842 1.355 1_545 S
C843 C845 1.419 . S
C844 C842 1.415 . S
C844 C849 1.425 1_565 S
C844 C851 1.409 . S
C845 H837 0.930 . S
C845 C843 1.419 . S
C845 C846 1.362 . S
C846 H838 0.930 . S
C846 C845 1.362 . S
C846 C849 1.409 . S
C847 H839 0.930 . S
C847 C848 1.358 . S
C847 C849 1.415 . S
C848 C847 1.358 . S
C848 C850 1.415 1_545 S
C849 C844 1.425 1_545 S
C849 C846 1.409 . S
C849 C847 1.415 . S
C850 H840 0.930 . S
C850 C848 1.415 1_565 S
C850 C851 1.362 . S
C851 H841 0.930 . S
C851 C844 1.409 . S
C851 C850 1.362 . S
H852 C858 0.930 . S
H853 C861 0.927 1_655 S
H854 C862 0.930 . S
H855 C863 0.930 1_655 S
H856 C866 0.930 . S
H857 C867 0.930 . S
C858 H852 0.930 . S
C858 C859 1.355 . S
C858 C860 1.415 . S
C859 C858 1.355 . S
C859 C861 1.423 . S
C860 C858 1.415 . S
C860 C865 1.425 . S
C860 C867 1.409 . S
C861 H853 0.927 1_455 S
C861 C859 1.423 . S
C861 C862 1.362 1_455 S
C862 H854 0.930 . S
C862 C861 1.362 1_655 S
C862 C865 1.409 1_655 S
C863 H855 0.930 1_455 S
C863 C864 1.355 . S
C863 C865 1.415 . S
C864 C863 1.355 . S
C864 C866 1.419 . S
C865 C860 1.425 . S
C865 C862 1.409 1_455 S
C865 C863 1.415 . S
C866 H856 0.930 . S
C866 C864 1.419 . S
C866 C867 1.362 . S
C867 H857 0.930 . S
C867 C860 1.409 . S
C867 C866 1.362 . S
H868 C874 0.930 . S
H869 C877 0.932 . S
H870 C878 0.930 . S
H871 C879 0.930 . S
H872 C882 0.930 . S
H873 C883 0.931 . S
C874 H868 0.930 . S
C874 C875 1.356 . S
C874 C876 1.415 . S
C875 C874 1.356 . S
C875 C877 1.418 1_565 S
C876 C874 1.415 . S
C876 C881 1.425 1_565 S
C876 C883 1.409 . S
C877 H869 0.932 . S
C877 C875 1.418 1_545 S
C877 C878 1.363 . S
C878 H870 0.930 . S
C878 C877 1.363 . S
C878 C881 1.409 . S
C879 H871 0.930 . S
C879 C880 1.355 . S
C879 C881 1.415 . S
C880 C879 1.355 . S
C880 C882 1.419 1_545 S
C881 C876 1.425 1_545 S
C881 C878 1.409 . S
C881 C879 1.415 . S
C882 H872 0.930 . S
C882 C880 1.419 1_565 S
C882 C883 1.362 . S
C883 H873 0.931 . S
C883 C876 1.409 . S
C883 C882 1.362 . S
H884 C890 0.930 1_655 S
H885 C893 0.930 . S
H886 C894 0.930 . S
H887 C895 0.930 . S
H888 C898 0.930 . S
H889 C899 0.930 . S
C890 H884 0.930 1_455 S
C890 C891 1.355 . S
C890 C892 1.415 . S
C891 C890 1.355 . S
C891 C893 1.419 . S
C892 C890 1.415 . S
C892 C897 1.425 . S
C892 C899 1.409 1_455 S
C893 H885 0.930 . S
C893 C891 1.419 . S
C893 C894 1.362 . S
C894 H886 0.930 . S
C894 C893 1.362 . S
C894 C897 1.409 . S
C895 H887 0.930 . S
C895 C896 1.355 . S
C895 C897 1.415 . S
C896 C895 1.355 . S
C896 C898 1.419 1_455 S
C897 C892 1.425 . S
C897 C894 1.409 . S
C897 C895 1.415 . S
C898 H888 0.930 . S
C898 C896 1.419 1_655 S
C898 C899 1.362 . S
C899 H889 0.930 . S
C899 C892 1.409 1_655 S
C899 C898 1.362 . S
H900 C906 0.930 . S
H901 C909 0.930 . S
H902 C910 0.930 . S
H903 C911 0.930 . S
H904 C914 0.930 . S
H905 C915 0.930 . S
C906 H900 0.930 . S
C906 C907 1.355 1_565 S
C906 C908 1.415 . S
C907 C906 1.355 1_545 S
C907 C909 1.419 . S
C908 C906 1.415 . S
C908 C913 1.425 1_565 S
C908 C915 1.409 . S
C909 H901 0.930 . S
C909 C907 1.419 . S
C909 C910 1.362 . S
C910 H902 0.930 . S
C910 C909 1.362 . S
C910 C913 1.409 . S
C911 H903 0.930 . S
C911 C912 1.355 1_545 S
C911 C913 1.415 . S
C912 C911 1.355 1_565 S
C912 C914 1.419 . S
C913 C908 1.425 1_545 S
C913 C910 1.409 . S
C913 C911 1.415 . S
C914 H904 0.930 . S
C914 C912 1.419 . S
C914 C915 1.362 . S
C915 H905 0.930 . S
C915 C908 1.409 . S
C915 C914 1.362 . S
H916 C922 0.934 . S
H917 C925 0.930 . S
H918 C926 0.930 . S
H919 C927 0.930 . S
H920 C930 0.933 . S
H921 C931 0.930 1_655 S
C922 H916 0.934 . S
C922 C923 1.355 . S
C922 C924 1.415 . S
C923 C922 1.355 . S
C923 C925 1.419 . S
C924 C922 1.415 . S
C924 C929 1.425 . S
C924 C931 1.409 . S
C925 H917 0.930 . S
C925 C923 1.419 . S
C925 C926 1.362 . S
C926 H918 0.930 . S
C926 C925 1.362 . S
C926 C929 1.409 . S
C927 H919 0.930 . S
C927 C928 1.355 . S
C927 C929 1.415 . S
C928 C927 1.355 . S
C928 C930 1.419 . S
C929 C924 1.425 . S
C929 C926 1.409 . S
C929 C927 1.415 . S
C930 H920 0.933 . S
C930 C928 1.419 . S
C930 C931 1.362 . S
C931 H921 0.930 1_455 S
C931 C924 1.409 . S
C931 C930 1.362 . S
H932 C938 0.930 . S
H933 C941 0.930 . S
H934 C942 0.930 . S
H935 C943 0.930 . S
H936 C946 0.930 . S
H937 C947 0.930 . S
C938 H932 0.930 . S
C938 C939 1.357 . S
C938 C940 1.415 . S
C939 C938 1.357 . S
C939 C941 1.417 1_545 S
C940 C938 1.415 . S
C940 C945 1.425 1_545 S
C940 C947 1.409 . S
C941 H933 0.930 . S
C941 C939 1.417 1_565 S
C941 C942 1.362 . S
C942 H934 0.930 . S
C942 C941 1.362 . S
C942 C945 1.409 . S
C943 H935 0.930 . S
C943 C944 1.354 . S
C943 C945 1.415 . S
C944 C943 1.354 . S
C944 C946 1.420 1_565 S
C945 C940 1.425 1_565 S
C945 C942 1.409 . S
C945 C943 1.415 . S
C946 H936 0.930 . S
C946 C944 1.420 1_545 S
C946 C947 1.362 . S
C947 H937 0.930 . S
C947 C940 1.409 . S
C947 C946 1.362 . S
H948 C954 0.930 1_655 S
H949 C957 0.930 . S
H950 C958 0.930 . S
H951 C959 0.930 . S
H952 C962 0.930 1_655 S
H953 C963 0.936 . S
C954 H948 0.930 1_455 S
C954 C955 1.355 . S
C954 C956 1.415 . S
C955 C954 1.355 . S
C955 C957 1.419 . S
C956 C954 1.415 . S
C956 C961 1.425 . S
C956 C963 1.405 1_455 S
C957 H949 0.930 . S
C957 C955 1.419 . S
C957 C958 1.362 . S
C958 H950 0.930 . S
C958 C957 1.362 . S
C958 C961 1.409 . S
C959 H951 0.930 . S
C959 C960 1.355 . S
C959 C961 1.415 . S
C960 C959 1.355 . S
C960 C962 1.419 . S
C961 C956 1.425 . S
C961 C958 1.409 . S
C961 C959 1.415 . S
C962 H952 0.930 1_455 S
C962 C960 1.419 . S
C962 C963 1.361 1_455 S
C963 H953 0.936 . S
C963 C956 1.405 1_655 S
C963 C962 1.361 1_655 S
H964 C970 0.930 . S
H965 C973 0.930 . S
H966 C974 0.930 . S
H967 C975 0.930 . S
H968 C978 0.930 . S
H969 C979 0.930 . S
C970 H964 0.930 . S
C970 C971 1.358 . S
C970 C972 1.415 . S
C971 C970 1.358 . S
C971 C973 1.416 1_545 S
C972 C970 1.415 . S
C972 C977 1.425 1_545 S
C972 C979 1.409 . S
C973 H965 0.930 . S
C973 C971 1.416 1_565 S
C973 C974 1.362 . S
C974 H966 0.930 . S
C974 C973 1.362 . S
C974 C977 1.409 . S
C975 H967 0.930 . S
C975 C976 1.356 . S
C975 C977 1.415 . S
C976 C975 1.356 . S
C976 C978 1.418 1_565 S
C977 C972 1.425 1_565 S
C977 C974 1.409 . S
C977 C975 1.415 . S
C978 H968 0.930 . S
C978 C976 1.418 1_545 S
C978 C979 1.362 . S
C979 H969 0.930 . S
C979 C972 1.409 . S
C979 C978 1.362 . S
H980 C986 0.930 . S
H981 C989 0.930 . S
H982 C990 0.930 . S
H983 C991 0.930 1_655 S
H984 C994 0.930 . S
H985 C995 0.930 . S
C986 H980 0.930 . S
C986 C987 1.355 . S
C986 C988 1.415 . S
C987 C986 1.355 . S
C987 C989 1.419 1_455 S
C988 C986 1.415 . S
C988 C993 1.425 . S
C988 C995 1.409 . S
C989 H981 0.930 . S
C989 C987 1.419 1_655 S
C989 C990 1.362 . S
C990 H982 0.930 . S
C990 C989 1.362 . S
C990 C993 1.409 1_655 S
C991 H983 0.930 1_455 S
C991 C992 1.355 . S
C991 C993 1.415 . S
C992 C991 1.355 . S
C992 C994 1.419 . S
C993 C988 1.425 . S
C993 C990 1.409 1_455 S
C993 C991 1.415 . S
C994 H984 0.930 . S
C994 C992 1.419 . S
C994 C995 1.362 . S
C995 H985 0.930 . S
C995 C988 1.409 . S
C995 C994 1.362 . S
H996 C1002 0.930 . S
H997 C1005 0.930 . S
H998 C1006 0.930 . S
H999 C1007 0.930 . S
H1000 C1010 0.930 . S
H1001 C1011 0.930 . S
C1002 H996 0.930 . S
C1002 C1003 1.355 1_565 S
C1002 C1004 1.415 . S
C1003 C1002 1.355 1_545 S
C1003 C1005 1.419 . S
C1004 C1002 1.415 . S
C1004 C1009 1.425 1_565 S
C1004 C1011 1.409 . S
C1005 H997 0.930 . S
C1005 C1003 1.419 . S
C1005 C1006 1.362 . S
C1006 H998 0.930 . S
C1006 C1005 1.362 . S
C1006 C1009 1.409 . S
C1007 H999 0.930 . S
C1007 C1008 1.355 1_545 S
C1007 C1009 1.415 . S
C1008 C1007 1.355 1_565 S
C1008 C1010 1.419 . S
C1009 C1004 1.425 1_545 S
C1009 C1006 1.409 . S
C1009 C1007 1.415 . S
C1010 H1000 0.930 . S
C1010 C1008 1.419 . S
C1010 C1011 1.362 . S
C1011 H1001 0.930 . S
C1011 C1004 1.409 . S
C1011 C1010 1.362 . S
H1012 C1018 0.930 . S
H1013 C1021 0.930 . S
H1014 C1022 0.930 . S
H1015 C1023 0.930 . S
H1016 C1026 0.930 . S
H1017 C1027 0.930 . S
C1018 H1012 0.930 . S
C1018 C1019 1.355 . S
C1018 C1020 1.415 . S
C1019 C1018 1.355 . S
C1019 C1021 1.419 . S
C1020 C1018 1.415 . S
C1020 C1025 1.425 . S
C1020 C1027 1.409 . S
C1021 H1013 0.930 . S
C1021 C1019 1.419 . S
C1021 C1022 1.362 . S
C1022 H1014 0.930 . S
C1022 C1021 1.362 . S
C1022 C1025 1.409 . S
C1023 H1015 0.930 . S
C1023 C1024 1.355 . S
C1023 C1025 1.415 . S
C1024 C1023 1.355 . S
C1024 C1026 1.419 . S
C1025 C1020 1.425 . S
C1025 C1022 1.409 . S
C1025 C1023 1.415 . S
C1026 H1016 0.930 . S
C1026 C1024 1.419 . S
C1026 C1027 1.362 . S
C1027 H1017 0.930 . S
C1027 C1020 1.409 . S
C1027 C1026 1.362 . S
H1028 C1034 0.930 . S
H1029 C1037 0.930 . S
H1030 C1038 0.930 . S
H1031 C1039 0.930 . S
H1032 C1042 0.930 . S
H1033 C1043 0.930 . S
C1034 H1028 0.930 . S
C1034 C1035 1.355 1_545 S
C1034 C1036 1.415 . S
C1035 C1034 1.355 1_565 S
C1035 C1037 1.419 . S
C1036 C1034 1.415 . S
C1036 C1041 1.425 1_545 S
C1036 C1043 1.409 . S
C1037 H1029 0.930 . S
C1037 C1035 1.419 . S
C1037 C1038 1.362 . S
C1038 H1030 0.930 . S
C1038 C1037 1.362 . S
C1038 C1041 1.409 . S
C1039 H1031 0.930 . S
C1039 C1040 1.355 1_565 S
C1039 C1041 1.415 . S
C1040 C1039 1.355 1_545 S
C1040 C1042 1.419 . S
C1041 C1036 1.425 1_565 S
C1041 C1038 1.409 . S
C1041 C1039 1.415 . S
C1042 H1032 0.930 . S
C1042 C1040 1.419 . S
C1042 C1043 1.362 . S
C1043 H1033 0.930 . S
C1043 C1036 1.409 . S
C1043 C1042 1.362 . S
H1044 C1050 0.930 . S
H1045 C1053 0.930 . S
H1046 C1054 0.930 . S
H1047 C1055 0.930 . S
H1048 C1058 0.930 . S
H1049 C1059 0.930 . S
C1050 H1044 0.930 . S
C1050 C1051 1.355 . S
C1050 C1052 1.415 . S
C1051 C1050 1.355 . S
C1051 C1053 1.419 . S
C1052 C1050 1.415 . S
C1052 C1057 1.425 . S
C1052 C1059 1.409 . S
C1053 H1045 0.930 . S
C1053 C1051 1.419 . S
C1053 C1054 1.362 . S
C1054 H1046 0.930 . S
C1054 C1053 1.362 . S
C1054 C1057 1.409 . S
C1055 H1047 0.930 . S
C1055 C1056 1.355 . S
C1055 C1057 1.415 . S
C1056 C1055 1.355 . S
C1056 C1058 1.419 . S
C1057 C1052 1.425 . S
C1057 C1054 1.409 . S
C1057 C1055 1.415 . S
C1058 H1048 0.930 . S
C1058 C1056 1.419 . S
C1058 C1059 1.362 . S
C1059 H1049 0.930 . S
C1059 C1052 1.409 . S
C1059 C1058 1.362 . S
H1060 C1066 0.930 . S
H1061 C1069 0.930 . S
H1062 C1070 0.930 . S
H1063 C1071 0.930 . S
H1064 C1074 0.930 . S
H1065 C1075 0.930 . S
C1066 H1060 0.930 . S
C1066 C1067 1.355 1_545 S
C1066 C1068 1.415 . S
C1067 C1066 1.355 1_565 S
C1067 C1069 1.419 . S
C1068 C1066 1.415 . S
C1068 C1073 1.425 1_545 S
C1068 C1075 1.409 . S
C1069 H1061 0.930 . S
C1069 C1067 1.419 . S
C1069 C1070 1.362 . S
C1070 H1062 0.930 . S
C1070 C1069 1.362 . S
C1070 C1073 1.409 . S
C1071 H1063 0.930 . S
C1071 C1072 1.355 1_565 S
C1071 C1073 1.415 . S
C1072 C1071 1.355 1_545 S
C1072 C1074 1.419 . S
C1073 C1068 1.425 1_565 S
C1073 C1070 1.409 . S
C1073 C1071 1.415 . S
C1074 H1064 0.930 . S
C1074 C1072 1.419 . S
C1074 C1075 1.362 . S
C1075 H1065 0.930 . S
C1075 C1068 1.409 . S
C1075 C1074 1.362 . S
H1076 C1082 0.930 . S
H1077 C1085 0.930 . S
H1078 C1086 0.930 . S
H1079 C1087 0.930 . S
H1080 C1090 0.930 . S
H1081 C1091 0.930 . S
C1082 H1076 0.930 . S
C1082 C1083 1.355 1_565 S
C1082 C1084 1.415 . S
C1083 C1082 1.355 1_545 S
C1083 C1085 1.419 . S
C1084 C1082 1.415 . S
C1084 C1089 1.425 1_565 S
C1084 C1091 1.409 . S
C1085 H1077 0.930 . S
C1085 C1083 1.419 . S
C1085 C1086 1.362 . S
C1086 H1078 0.930 . S
C1086 C1085 1.362 . S
C1086 C1089 1.409 . S
C1087 H1079 0.930 . S
C1087 C1088 1.355 1_545 S
C1087 C1089 1.415 . S
C1088 C1087 1.355 1_565 S
C1088 C1090 1.419 . S
C1089 C1084 1.425 1_545 S
C1089 C1086 1.409 . S
C1089 C1087 1.415 . S
C1090 H1080 0.930 . S
C1090 C1088 1.419 . S
C1090 C1091 1.362 . S
C1091 H1081 0.930 . S
C1091 C1084 1.409 . S
C1091 C1090 1.362 . S
H1092 C1098 0.930 . S
H1093 C1101 0.930 . S
H1094 C1102 0.930 . S
H1095 C1103 0.930 . S
H1096 C1106 0.930 1_655 S
H1097 C1107 0.931 . S
C1098 H1092 0.930 . S
C1098 C1099 1.355 . S
C1098 C1100 1.415 . S
C1099 C1098 1.355 . S
C1099 C1101 1.419 . S
C1100 C1098 1.415 . S
C1100 C1105 1.425 . S
C1100 C1107 1.409 . S
C1101 H1093 0.930 . S
C1101 C1099 1.419 . S
C1101 C1102 1.362 . S
C1102 H1094 0.930 . S
C1102 C1101 1.362 . S
C1102 C1105 1.409 . S
C1103 H1095 0.930 . S
C1103 C1104 1.355 . S
C1103 C1105 1.415 . S
C1104 C1103 1.355 . S
C1104 C1106 1.419 . S
C1105 C1100 1.425 . S
C1105 C1102 1.409 . S
C1105 C1103 1.415 . S
C1106 H1096 0.930 1_455 S
C1106 C1104 1.419 . S
C1106 C1107 1.362 . S
C1107 H1097 0.931 . S
C1107 C1100 1.409 . S
C1107 C1106 1.362 . S
H1108 C1114 0.929 . S
H1109 C1117 0.930 . S
H1110 C1118 0.930 . S
H1111 C1119 0.929 . S
H1112 C1122 0.930 . S
H1113 C1123 0.930 . S
C1114 H1108 0.929 . S
C1114 C1115 1.355 1_565 S
C1114 C1116 1.414 . S
C1115 C1114 1.355 1_545 S
C1115 C1117 1.419 . S
C1116 C1114 1.414 . S
C1116 C1121 1.424 1_565 S
C1116 C1123 1.412 . S
C1117 H1109 0.930 . S
C1117 C1115 1.419 . S
C1117 C1118 1.362 . S
C1118 H1110 0.930 . S
C1118 C1117 1.362 . S
C1118 C1121 1.409 . S
C1119 H1111 0.929 . S
C1119 C1120 1.354 1_545 S
C1119 C1121 1.415 . S
C1120 C1119 1.354 1_565 S
C1120 C1122 1.419 . S
C1121 C1116 1.424 1_545 S
C1121 C1118 1.409 . S
C1121 C1119 1.415 . S
C1122 H1112 0.930 . S
C1122 C1120 1.419 . S
C1122 C1123 1.362 . S
C1123 H1113 0.930 . S
C1123 C1116 1.412 . S
C1123 C1122 1.362 . S
H1124 C1130 0.930 . S
H1125 C1133 0.930 . S
H1126 C1134 0.930 . S
H1127 C1135 0.930 . S
H1128 C1138 0.930 . S
H1129 C1139 0.930 . S
C1130 H1124 0.930 . S
C1130 C1131 1.355 . S
C1130 C1132 1.415 . S
C1131 C1130 1.355 . S
C1131 C1133 1.419 1_455 S
C1132 C1130 1.415 . S
C1132 C1137 1.425 1_455 S
C1132 C1139 1.409 . S
C1133 H1125 0.930 . S
C1133 C1131 1.419 1_655 S
C1133 C1134 1.362 . S
C1134 H1126 0.930 . S
C1134 C1133 1.362 . S
C1134 C1137 1.409 . S
C1135 H1127 0.930 . S
C1135 C1136 1.355 1_655 S
C1135 C1137 1.415 . S
C1136 C1135 1.355 1_455 S
C1136 C1138 1.419 . S
C1137 C1132 1.425 1_655 S
C1137 C1134 1.409 . S
C1137 C1135 1.415 . S
C1138 H1128 0.930 . S
C1138 C1136 1.419 . S
C1138 C1139 1.362 . S
C1139 H1129 0.930 . S
C1139 C1132 1.409 . S
C1139 C1138 1.362 . S
H1140 C1146 0.930 . S
H1141 C1149 0.930 . S
H1142 C1150 0.930 . S
H1143 C1151 0.930 . S
H1144 C1154 0.930 . S
H1145 C1155 0.930 . S
C1146 H1140 0.930 . S
C1146 C1147 1.355 1_545 S
C1146 C1148 1.415 . S
C1147 C1146 1.355 1_565 S
C1147 C1149 1.419 . S
C1148 C1146 1.415 . S
C1148 C1153 1.425 1_545 S
C1148 C1155 1.409 . S
C1149 H1141 0.930 . S
C1149 C1147 1.419 . S
C1149 C1150 1.362 . S
C1150 H1142 0.930 . S
C1150 C1149 1.362 . S
C1150 C1153 1.409 . S
C1151 H1143 0.930 . S
C1151 C1152 1.355 1_565 S
C1151 C1153 1.415 . S
C1152 C1151 1.355 1_545 S
C1152 C1154 1.419 . S
C1153 C1148 1.425 1_565 S
C1153 C1150 1.409 . S
C1153 C1151 1.415 . S
C1154 H1144 0.930 . S
C1154 C1152 1.419 . S
C1154 C1155 1.362 . S
C1155 H1145 0.930 . S
C1155 C1148 1.409 . S
C1155 C1154 1.362 . S
H1156 C1162 0.930 . S
H1157 C1165 0.930 . S
H1158 C1166 0.930 . S
H1159 C1167 0.930 . S
H1160 C1170 0.930 . S
H1161 C1171 0.930 . S
C1162 H1156 0.930 . S
C1162 C1163 1.355 1_655 S
C1162 C1164 1.415 . S
C1163 C1162 1.355 1_455 S
C1163 C1165 1.419 . S
C1164 C1162 1.415 . S
C1164 C1169 1.425 1_655 S
C1164 C1171 1.409 . S
C1165 H1157 0.930 . S
C1165 C1163 1.419 . S
C1165 C1166 1.362 . S
C1166 H1158 0.930 . S
C1166 C1165 1.362 . S
C1166 C1169 1.409 . S
C1167 H1159 0.930 . S
C1167 C1168 1.355 . S
C1167 C1169 1.415 . S
C1168 C1167 1.355 . S
C1168 C1170 1.419 1_455 S
C1169 C1164 1.425 1_455 S
C1169 C1166 1.409 . S
C1169 C1167 1.415 . S
C1170 H1160 0.930 . S
C1170 C1168 1.419 1_655 S
C1170 C1171 1.362 . S
C1171 H1161 0.930 . S
C1171 C1164 1.409 . S
C1171 C1170 1.362 . S
H1172 C1178 0.930 . S
H1173 C1181 0.930 . S
H1174 C1182 0.930 . S
H1175 C1183 0.930 . S
H1176 C1186 0.930 . S
H1177 C1187 0.930 . S
C1178 H1172 0.930 . S
C1178 C1179 1.355 . S
C1178 C1180 1.415 . S
C1179 C1178 1.355 . S
C1179 C1181 1.419 1_565 S
C1180 C1178 1.415 . S
C1180 C1185 1.425 1_565 S
C1180 C1187 1.409 . S
C1181 H1173 0.930 . S
C1181 C1179 1.419 1_545 S
C1181 C1182 1.362 . S
C1182 H1174 0.930 . S
C1182 C1181 1.362 . S
C1182 C1185 1.409 . S
C1183 H1175 0.930 . S
C1183 C1184 1.358 . S
C1183 C1185 1.415 . S
C1184 C1183 1.358 . S
C1184 C1186 1.415 1_545 S
C1185 C1180 1.425 1_545 S
C1185 C1182 1.409 . S
C1185 C1183 1.415 . S
C1186 H1176 0.930 . S
C1186 C1184 1.415 1_565 S
C1186 C1187 1.362 . S
C1187 H1177 0.930 . S
C1187 C1180 1.409 . S
C1187 C1186 1.362 . S
H1188 C1194 0.933 . S
H1189 C1197 0.930 . S
H1190 C1198 0.930 . S
H1191 C1199 0.930 . S
H1192 C1202 0.930 . S
H1193 C1203 0.930 . S
C1194 H1188 0.933 . S
C1194 C1195 1.352 1_655 S
C1194 C1196 1.415 . S
C1195 C1194 1.352 1_455 S
C1195 C1197 1.419 . S
C1196 C1194 1.415 . S
C1196 C1201 1.427 1_655 S
C1196 C1203 1.407 . S
C1197 H1189 0.930 . S
C1197 C1195 1.419 . S
C1197 C1198 1.362 . S
C1198 H1190 0.930 . S
C1198 C1197 1.362 . S
C1198 C1201 1.409 . S
C1199 H1191 0.930 . S
C1199 C1200 1.355 . S
C1199 C1201 1.415 . S
C1200 C1199 1.355 . S
C1200 C1202 1.419 1_455 S
C1201 C1196 1.427 1_455 S
C1201 C1198 1.409 . S
C1201 C1199 1.415 . S
C1202 H1192 0.930 . S
C1202 C1200 1.419 1_655 S
C1202 C1203 1.362 . S
C1203 H1193 0.930 . S
C1203 C1196 1.407 . S
C1203 C1202 1.362 . S
H1204 C1210 0.930 . S
H1205 C1213 0.935 . S
H1206 C1214 0.930 . S
H1207 C1215 0.930 . S
H1208 C1218 0.930 . S
H1209 C1219 0.930 . S
C1210 H1204 0.930 . S
C1210 C1211 1.355 . S
C1210 C1212 1.415 . S
C1211 C1210 1.355 . S
C1211 C1213 1.413 1_554 S
C1212 C1210 1.415 . S
C1212 C1217 1.426 1_554 S
C1212 C1219 1.409 . S
C1213 H1205 0.935 . S
C1213 C1211 1.413 1_556 S
C1213 C1214 1.365 . S
C1214 H1206 0.930 . S
C1214 C1213 1.365 . S
C1214 C1217 1.409 . S
C1215 H1207 0.930 . S
C1215 C1216 1.351 1_556 S
C1215 C1217 1.415 . S
C1216 C1215 1.351 1_554 S
C1216 C1218 1.425 . S
C1217 C1212 1.426 1_556 S
C1217 C1214 1.409 . S
C1217 C1215 1.415 . S
C1218 H1208 0.930 . S
C1218 C1216 1.425 . S
C1218 C1219 1.362 . S
C1219 H1209 0.930 . S
C1219 C1212 1.409 . S
C1219 C1218 1.362 . S
H1220 C1226 0.930 . S
H1221 C1229 0.930 . S
H1222 C1230 0.930 . S
H1223 C1231 0.930 . S
H1224 C1234 0.930 . S
H1225 C1235 0.930 . S
C1226 H1220 0.930 . S
C1226 C1227 1.355 . S
C1226 C1228 1.415 . S
C1227 C1226 1.355 . S
C1227 C1229 1.419 1_554 S
C1228 C1226 1.415 . S
C1228 C1233 1.425 1_554 S
C1228 C1235 1.409 . S
C1229 H1221 0.930 . S
C1229 C1227 1.419 1_556 S
C1229 C1230 1.362 . S
C1230 H1222 0.930 . S
C1230 C1229 1.362 . S
C1230 C1233 1.409 . S
C1231 H1223 0.930 . S
C1231 C1232 1.355 1_556 S
C1231 C1233 1.415 . S
C1232 C1231 1.355 1_554 S
C1232 C1234 1.419 . S
C1233 C1228 1.425 1_556 S
C1233 C1230 1.409 . S
C1233 C1231 1.415 . S
C1234 H1224 0.930 . S
C1234 C1232 1.419 . S
C1234 C1235 1.362 . S
C1235 H1225 0.930 . S
C1235 C1228 1.409 . S
C1235 C1234 1.362 . S
H1236 C1242 0.930 . S
H1237 C1245 0.930 . S
H1238 C1246 0.930 . S
H1239 C1247 0.930 . S
H1240 C1250 0.930 . S
H1241 C1251 0.930 . S
C1242 H1236 0.930 . S
C1242 C1243 1.355 . S
C1242 C1244 1.415 . S
C1243 C1242 1.355 . S
C1243 C1245 1.419 1_554 S
C1244 C1242 1.415 . S
C1244 C1249 1.425 1_554 S
C1244 C1251 1.409 . S
C1245 H1237 0.930 . S
C1245 C1243 1.419 1_556 S
C1245 C1246 1.362 . S
C1246 H1238 0.930 . S
C1246 C1245 1.362 . S
C1246 C1249 1.409 . S
C1247 H1239 0.930 . S
C1247 C1248 1.355 1_556 S
C1247 C1249 1.415 . S
C1248 C1247 1.355 1_554 S
C1248 C1250 1.419 . S
C1249 C1244 1.425 1_556 S
C1249 C1246 1.409 . S
C1249 C1247 1.415 . S
C1250 H1240 0.930 . S
C1250 C1248 1.419 . S
C1250 C1251 1.362 . S
C1251 H1241 0.930 . S
C1251 C1244 1.409 . S
C1251 C1250 1.362 . S
H1252 C1258 0.930 . S
H1253 C1261 0.930 . S
H1254 C1262 0.930 . S
H1255 C1263 0.930 . S
H1256 C1266 0.930 . S
H1257 C1267 0.930 . S
C1258 H1252 0.930 . S
C1258 C1259 1.355 1_556 S
C1258 C1260 1.415 . S
C1259 C1258 1.355 1_554 S
C1259 C1261 1.419 . S
C1260 C1258 1.415 . S
C1260 C1265 1.425 1_556 S
C1260 C1267 1.409 . S
C1261 H1253 0.930 . S
C1261 C1259 1.419 . S
C1261 C1262 1.362 . S
C1262 H1254 0.930 . S
C1262 C1261 1.362 . S
C1262 C1265 1.409 . S
C1263 H1255 0.930 . S
C1263 C1264 1.355 1_554 S
C1263 C1265 1.415 . S
C1264 C1263 1.355 1_556 S
C1264 C1266 1.419 . S
C1265 C1260 1.425 1_554 S
C1265 C1262 1.409 . S
C1265 C1263 1.415 . S
C1266 H1256 0.930 . S
C1266 C1264 1.419 . S
C1266 C1267 1.362 . S
C1267 H1257 0.930 . S
C1267 C1260 1.409 . S
C1267 C1266 1.362 . S
H1268 C1274 0.930 1_556 S
H1269 C1277 0.930 . S
H1270 C1278 0.930 . S
H1271 C1279 0.930 . S
H1272 C1282 0.935 . S
H1273 C1283 0.930 . S
C1274 H1268 0.930 1_554 S
C1274 C1275 1.355 . S
C1274 C1276 1.415 . S
C1275 C1274 1.355 . S
C1275 C1277 1.419 . S
C1276 C1274 1.415 . S
C1276 C1281 1.425 . S
C1276 C1283 1.409 1_554 S
C1277 H1269 0.930 . S
C1277 C1275 1.419 . S
C1277 C1278 1.362 . S
C1278 H1270 0.930 . S
C1278 C1277 1.362 . S
C1278 C1281 1.409 . S
C1279 H1271 0.930 . S
C1279 C1280 1.355 . S
C1279 C1281 1.415 . S
C1280 C1279 1.355 . S
C1280 C1282 1.413 1_554 S
C1281 C1276 1.425 . S
C1281 C1278 1.409 . S
C1281 C1279 1.415 . S
C1282 H1272 0.935 . S
C1282 C1280 1.413 1_556 S
C1282 C1283 1.364 . S
C1283 H1273 0.930 . S
C1283 C1276 1.409 1_556 S
C1283 C1282 1.364 . S
H1284 C1290 0.930 . S
H1285 C1293 0.930 . S
H1286 C1294 0.930 . S
H1287 C1295 0.930 . S
H1288 C1298 0.930 . S
H1289 C1299 0.930 . S
C1290 H1284 0.930 . S
C1290 C1291 1.371 . S
C1290 C1292 1.415 . S
C1291 C1290 1.371 . S
C1291 C1293 1.399 1_554 S
C1292 C1290 1.415 . S
C1292 C1297 1.425 1_554 S
C1292 C1299 1.409 . S
C1293 H1285 0.930 . S
C1293 C1291 1.399 1_556 S
C1293 C1294 1.362 . S
C1294 H1286 0.930 . S
C1294 C1293 1.362 . S
C1294 C1297 1.409 . S
C1295 H1287 0.930 . S
C1295 C1296 1.355 1_556 S
C1295 C1297 1.415 . S
C1296 C1295 1.355 1_554 S
C1296 C1298 1.419 . S
C1297 C1292 1.425 1_556 S
C1297 C1294 1.409 . S
C1297 C1295 1.415 . S
C1298 H1288 0.930 . S
C1298 C1296 1.419 . S
C1298 C1299 1.362 . S
C1299 H1289 0.930 . S
C1299 C1292 1.409 . S
C1299 C1298 1.362 . S
H1300 C1306 0.930 . S
H1301 C1309 0.930 . S
H1302 C1310 0.930 . S
H1303 C1311 0.930 . S
H1304 C1314 0.930 . S
H1305 C1315 0.930 . S
C1306 H1300 0.930 . S
C1306 C1307 1.355 1_556 S
C1306 C1308 1.415 . S
C1307 C1306 1.355 1_554 S
C1307 C1309 1.419 . S
C1308 C1306 1.415 . S
C1308 C1313 1.425 1_556 S
C1308 C1315 1.409 . S
C1309 H1301 0.930 . S
C1309 C1307 1.419 . S
C1309 C1310 1.362 . S
C1310 H1302 0.930 . S
C1310 C1309 1.362 . S
C1310 C1313 1.409 . S
C1311 H1303 0.930 . S
C1311 C1312 1.355 . S
C1311 C1313 1.415 . S
C1312 C1311 1.355 . S
C1312 C1314 1.419 1_554 S
C1313 C1308 1.425 1_554 S
C1313 C1310 1.409 . S
C1313 C1311 1.415 . S
C1314 H1304 0.930 . S
C1314 C1312 1.419 1_556 S
C1314 C1315 1.362 . S
C1315 H1305 0.930 . S
C1315 C1308 1.409 . S
C1315 C1314 1.362 . S
H1316 C1322 0.930 . S
H1317 C1325 0.930 . S
H1318 C1326 0.930 . S
H1319 C1327 0.930 . S
H1320 C1330 0.930 . S
H1321 C1331 0.931 1_556 S
C1322 H1316 0.930 . S
C1322 C1323 1.355 . S
C1322 C1324 1.415 . S
C1323 C1322 1.355 . S
C1323 C1325 1.419 . S
C1324 C1322 1.415 . S
C1324 C1329 1.425 . S
C1324 C1331 1.409 . S
C1325 H1317 0.930 . S
C1325 C1323 1.419 . S
C1325 C1326 1.362 . S
C1326 H1318 0.930 . S
C1326 C1325 1.362 . S
C1326 C1329 1.409 . S
C1327 H1319 0.930 . S
C1327 C1328 1.355 . S
C1327 C1329 1.415 . S
C1328 C1327 1.355 . S
C1328 C1330 1.419 . S
C1329 C1324 1.425 . S
C1329 C1326 1.409 . S
C1329 C1327 1.415 . S
C1330 H1320 0.930 . S
C1330 C1328 1.419 . S
C1330 C1331 1.362 . S
C1331 H1321 0.931 1_554 S
C1331 C1324 1.409 . S
C1331 C1330 1.362 . S
H1332 C1338 0.930 . S
H1333 C1341 0.930 . S
H1334 C1342 0.930 . S
H1335 C1343 0.930 . S
H1336 C1346 0.930 . S
H1337 C1347 0.930 . S
C1338 H1332 0.930 . S
C1338 C1339 1.355 . S
C1338 C1340 1.415 . S
C1339 C1338 1.355 . S
C1339 C1341 1.419 . S
C1340 C1338 1.415 . S
C1340 C1345 1.425 . S
C1340 C1347 1.409 . S
C1341 H1333 0.930 . S
C1341 C1339 1.419 . S
C1341 C1342 1.362 . S
C1342 H1334 0.930 . S
C1342 C1341 1.362 . S
C1342 C1345 1.409 . S
C1343 H1335 0.930 . S
C1343 C1344 1.355 . S
C1343 C1345 1.415 . S
C1344 C1343 1.355 . S
C1344 C1346 1.419 . S
C1345 C1340 1.425 . S
C1345 C1342 1.409 . S
C1345 C1343 1.415 . S
C1346 H1336 0.930 . S
C1346 C1344 1.419 . S
C1346 C1347 1.362 . S
C1347 H1337 0.930 . S
C1347 C1340 1.409 . S
C1347 C1346 1.362 . S
H1348 C1354 0.930 . S
H1349 C1357 0.930 . S
H1350 C1358 0.930 . S
H1351 C1359 0.930 . S
H1352 C1362 0.930 . S
H1353 C1363 0.930 . S
C1354 H1348 0.930 . S
C1354 C1355 1.355 . S
C1354 C1356 1.415 . S
C1355 C1354 1.355 . S
C1355 C1357 1.419 . S
C1356 C1354 1.415 . S
C1356 C1361 1.425 . S
C1356 C1363 1.409 . S
C1357 H1349 0.930 . S
C1357 C1355 1.419 . S
C1357 C1358 1.362 . S
C1358 H1350 0.930 . S
C1358 C1357 1.362 . S
C1358 C1361 1.409 . S
C1359 H1351 0.930 . S
C1359 C1360 1.355 . S
C1359 C1361 1.415 . S
C1360 C1359 1.355 . S
C1360 C1362 1.419 . S
C1361 C1356 1.425 . S
C1361 C1358 1.409 . S
C1361 C1359 1.415 . S
C1362 H1352 0.930 . S
C1362 C1360 1.419 . S
C1362 C1363 1.362 . S
C1363 H1353 0.930 . S
C1363 C1356 1.409 . S
C1363 C1362 1.362 . S
H1364 C1370 0.930 . S
H1365 C1373 0.930 . S
H1366 C1374 0.930 . S
H1367 C1375 0.930 . S
H1368 C1378 0.930 . S
H1369 C1379 0.930 . S
C1370 H1364 0.930 . S
C1370 C1371 1.355 . S
C1370 C1372 1.415 . S
C1371 C1370 1.355 . S
C1371 C1373 1.419 . S
C1372 C1370 1.415 . S
C1372 C1377 1.425 . S
C1372 C1379 1.409 . S
C1373 H1365 0.930 . S
C1373 C1371 1.419 . S
C1373 C1374 1.362 . S
C1374 H1366 0.930 . S
C1374 C1373 1.362 . S
C1374 C1377 1.409 . S
C1375 H1367 0.930 . S
C1375 C1376 1.355 . S
C1375 C1377 1.415 . S
C1376 C1375 1.355 . S
C1376 C1378 1.419 . S
C1377 C1372 1.425 . S
C1377 C1374 1.409 . S
C1377 C1375 1.415 . S
C1378 H1368 0.930 . S
C1378 C1376 1.419 . S
C1378 C1379 1.362 . S
C1379 H1369 0.930 . S
C1379 C1372 1.409 . S
C1379 C1378 1.362 . S
H1380 C1386 0.930 . S
H1381 C1389 0.930 . S
H1382 C1390 0.930 . S
H1383 C1391 0.930 . S
H1384 C1394 0.930 . S
H1385 C1395 0.930 . S
C1386 H1380 0.930 . S
C1386 C1387 1.355 . S
C1386 C1388 1.415 . S
C1387 C1386 1.355 . S
C1387 C1389 1.419 . S
C1388 C1386 1.415 . S
C1388 C1393 1.425 . S
C1388 C1395 1.409 . S
C1389 H1381 0.930 . S
C1389 C1387 1.419 . S
C1389 C1390 1.362 . S
C1390 H1382 0.930 . S
C1390 C1389 1.362 . S
C1390 C1393 1.409 . S
C1391 H1383 0.930 . S
C1391 C1392 1.355 . S
C1391 C1393 1.415 . S
C1392 C1391 1.355 . S
C1392 C1394 1.419 . S
C1393 C1388 1.425 . S
C1393 C1390 1.409 . S
C1393 C1391 1.415 . S
C1394 H1384 0.930 . S
C1394 C1392 1.419 . S
C1394 C1395 1.362 . S
C1395 H1385 0.930 . S
C1395 C1388 1.409 . S
C1395 C1394 1.362 . S
H1396 C1402 0.930 . S
H1397 C1405 0.930 . S
H1398 C1406 0.930 . S
H1399 C1407 0.930 . S
H1400 C1410 0.930 . S
H1401 C1411 0.930 . S
C1402 H1396 0.930 . S
C1402 C1403 1.355 . S
C1402 C1404 1.415 . S
C1403 C1402 1.355 . S
C1403 C1405 1.419 . S
C1404 C1402 1.415 . S
C1404 C1409 1.425 . S
C1404 C1411 1.409 . S
C1405 H1397 0.930 . S
C1405 C1403 1.419 . S
C1405 C1406 1.362 . S
C1406 H1398 0.930 . S
C1406 C1405 1.362 . S
C1406 C1409 1.409 . S
C1407 H1399 0.930 . S
C1407 C1408 1.355 . S
C1407 C1409 1.415 . S
C1408 C1407 1.355 . S
C1408 C1410 1.419 . S
C1409 C1404 1.425 . S
C1409 C1406 1.409 . S
C1409 C1407 1.415 . S
C1410 H1400 0.930 . S
C1410 C1408 1.419 . S
C1410 C1411 1.362 . S
C1411 H1401 0.930 . S
C1411 C1404 1.409 . S
C1411 C1410 1.362 . S
H1412 C1418 0.930 . S
H1413 C1421 0.930 . S
H1414 C1422 0.930 . S
H1415 C1423 0.930 . S
H1416 C1426 0.930 . S
H1417 C1427 0.930 . S
C1418 H1412 0.930 . S
C1418 C1419 1.355 . S
C1418 C1420 1.415 . S
C1419 C1418 1.355 . S
C1419 C1421 1.419 . S
C1420 C1418 1.415 . S
C1420 C1425 1.425 . S
C1420 C1427 1.409 . S
C1421 H1413 0.930 . S
C1421 C1419 1.419 . S
C1421 C1422 1.362 . S
C1422 H1414 0.930 . S
C1422 C1421 1.362 . S
C1422 C1425 1.409 . S
C1423 H1415 0.930 . S
C1423 C1424 1.355 . S
C1423 C1425 1.415 . S
C1424 C1423 1.355 . S
C1424 C1426 1.419 . S
C1425 C1420 1.425 . S
C1425 C1422 1.409 . S
C1425 C1423 1.415 . S
C1426 H1416 0.930 . S
C1426 C1424 1.419 . S
C1426 C1427 1.362 . S
C1427 H1417 0.930 . S
C1427 C1420 1.409 . S
C1427 C1426 1.362 . S
H1428 C1434 0.930 . S
H1429 C1437 0.930 . S
H1430 C1438 0.930 . S
H1431 C1439 0.930 . S
H1432 C1442 0.930 . S
H1433 C1443 0.930 . S
C1434 H1428 0.930 . S
C1434 C1435 1.355 . S
C1434 C1436 1.415 . S
C1435 C1434 1.355 . S
C1435 C1437 1.419 . S
C1436 C1434 1.415 . S
C1436 C1441 1.425 . S
C1436 C1443 1.409 . S
C1437 H1429 0.930 . S
C1437 C1435 1.419 . S
C1437 C1438 1.362 . S
C1438 H1430 0.930 . S
C1438 C1437 1.362 . S
C1438 C1441 1.409 . S
C1439 H1431 0.930 . S
C1439 C1440 1.355 . S
C1439 C1441 1.415 . S
C1440 C1439 1.355 . S
C1440 C1442 1.419 . S
C1441 C1436 1.425 . S
C1441 C1438 1.409 . S
C1441 C1439 1.415 . S
C1442 H1432 0.930 . S
C1442 C1440 1.419 . S
C1442 C1443 1.362 . S
C1443 H1433 0.930 . S
C1443 C1436 1.409 . S
C1443 C1442 1.362 . S
H1444 C1450 0.930 . S
H1445 C1453 0.930 . S
H1446 C1454 0.930 . S
H1447 C1455 0.930 . S
H1448 C1458 0.930 . S
H1449 C1459 0.930 . S
C1450 H1444 0.930 . S
C1450 C1451 1.355 . S
C1450 C1452 1.415 . S
C1451 C1450 1.355 . S
C1451 C1453 1.419 . S
C1452 C1450 1.415 . S
C1452 C1457 1.425 . S
C1452 C1459 1.409 . S
C1453 H1445 0.930 . S
C1453 C1451 1.419 . S
C1453 C1454 1.362 . S
C1454 H1446 0.930 . S
C1454 C1453 1.362 . S
C1454 C1457 1.409 . S
C1455 H1447 0.930 . S
C1455 C1456 1.355 . S
C1455 C1457 1.415 . S
C1456 C1455 1.355 . S
C1456 C1458 1.419 . S
C1457 C1452 1.425 . S
C1457 C1454 1.409 . S
C1457 C1455 1.415 . S
C1458 H1448 0.930 . S
C1458 C1456 1.419 . S
C1458 C1459 1.362 . S
C1459 H1449 0.930 . S
C1459 C1452 1.409 . S
C1459 C1458 1.362 . S
H1460 C1466 0.930 . S
H1461 C1469 0.930 . S
H1462 C1470 0.930 . S
H1463 C1471 0.930 . S
H1464 C1474 0.930 . S
H1465 C1475 0.930 . S
C1466 H1460 0.930 . S
C1466 C1467 1.355 . S
C1466 C1468 1.415 . S
C1467 C1466 1.355 . S
C1467 C1469 1.419 . S
C1468 C1466 1.415 . S
C1468 C1473 1.425 . S
C1468 C1475 1.409 . S
C1469 H1461 0.930 . S
C1469 C1467 1.419 . S
C1469 C1470 1.362 . S
C1470 H1462 0.930 . S
C1470 C1469 1.362 . S
C1470 C1473 1.409 . S
C1471 H1463 0.930 . S
C1471 C1472 1.355 . S
C1471 C1473 1.415 . S
C1472 C1471 1.355 . S
C1472 C1474 1.419 . S
C1473 C1468 1.425 . S
C1473 C1470 1.409 . S
C1473 C1471 1.415 . S
C1474 H1464 0.930 . S
C1474 C1472 1.419 . S
C1474 C1475 1.362 . S
C1475 H1465 0.930 . S
C1475 C1468 1.409 . S
C1475 C1474 1.362 . S
H1476 C1482 0.930 . S
H1477 C1485 0.930 . S
H1478 C1486 0.930 . S
H1479 C1487 0.930 . S
H1480 C1490 0.930 . S
H1481 C1491 0.930 . S
C1482 H1476 0.930 . S
C1482 C1483 1.355 . S
C1482 C1484 1.415 . S
C1483 C1482 1.355 . S
C1483 C1485 1.419 . S
C1484 C1482 1.415 . S
C1484 C1489 1.425 . S
C1484 C1491 1.409 . S
C1485 H1477 0.930 . S
C1485 C1483 1.419 . S
C1485 C1486 1.362 . S
C1486 H1478 0.930 . S
C1486 C1485 1.362 . S
C1486 C1489 1.409 . S
C1487 H1479 0.930 . S
C1487 C1488 1.355 . S
C1487 C1489 1.415 . S
C1488 C1487 1.355 . S
C1488 C1490 1.419 . S
C1489 C1484 1.425 . S
C1489 C1486 1.409 . S
C1489 C1487 1.415 . S
C1490 H1480 0.930 . S
C1490 C1488 1.419 . S
C1490 C1491 1.362 . S
C1491 H1481 0.930 . S
C1491 C1484 1.409 . S
C1491 C1490 1.362 . S
H1492 C1498 0.930 . S
H1493 C1501 0.930 . S
H1494 C1502 0.930 . S
H1495 C1503 0.930 . S
H1496 C1506 0.930 . S
H1497 C1507 0.930 . S
C1498 H1492 0.930 . S
C1498 C1499 1.355 . S
C1498 C1500 1.415 . S
C1499 C1498 1.355 . S
C1499 C1501 1.419 . S
C1500 C1498 1.415 . S
C1500 C1505 1.425 . S
C1500 C1507 1.409 . S
C1501 H1493 0.930 . S
C1501 C1499 1.419 . S
C1501 C1502 1.362 . S
C1502 H1494 0.930 . S
C1502 C1501 1.362 . S
C1502 C1505 1.409 . S
C1503 H1495 0.930 . S
C1503 C1504 1.355 . S
C1503 C1505 1.415 . S
C1504 C1503 1.355 . S
C1504 C1506 1.419 . S
C1505 C1500 1.425 . S
C1505 C1502 1.409 . S
C1505 C1503 1.415 . S
C1506 H1496 0.930 . S
C1506 C1504 1.419 . S
C1506 C1507 1.362 . S
C1507 H1497 0.930 . S
C1507 C1500 1.409 . S
C1507 C1506 1.362 . S
H1508 C1514 0.930 . S
H1509 C1517 0.930 . S
H1510 C1518 0.930 . S
H1511 C1519 0.930 . S
H1512 C1522 0.930 . S
H1513 C1523 0.930 . S
C1514 H1508 0.930 . S
C1514 C1515 1.355 . S
C1514 C1516 1.415 . S
C1515 C1514 1.355 . S
C1515 C1517 1.419 . S
C1516 C1514 1.415 . S
C1516 C1521 1.425 . S
C1516 C1523 1.409 . S
C1517 H1509 0.930 . S
C1517 C1515 1.419 . S
C1517 C1518 1.362 . S
C1518 H1510 0.930 . S
C1518 C1517 1.362 . S
C1518 C1521 1.409 . S
C1519 H1511 0.930 . S
C1519 C1520 1.355 . S
C1519 C1521 1.415 . S
C1520 C1519 1.355 . S
C1520 C1522 1.419 . S
C1521 C1516 1.425 . S
C1521 C1518 1.409 . S
C1521 C1519 1.415 . S
C1522 H1512 0.930 . S
C1522 C1520 1.419 . S
C1522 C1523 1.362 . S
C1523 H1513 0.930 . S
C1523 C1516 1.409 . S
C1523 C1522 1.362 . S
H1524 C1530 0.930 . S
H1525 C1533 0.930 . S
H1526 C1534 0.930 . S
H1527 C1535 0.930 . S
H1528 C1538 0.930 . S
H1529 C1539 0.930 . S
C1530 H1524 0.930 . S
C1530 C1531 1.355 . S
C1530 C1532 1.415 . S
C1531 C1530 1.355 . S
C1531 C1533 1.419 . S
C1532 C1530 1.415 . S
C1532 C1537 1.425 . S
C1532 C1539 1.409 . S
C1533 H1525 0.930 . S
C1533 C1531 1.419 . S
C1533 C1534 1.362 . S
C1534 H1526 0.930 . S
C1534 C1533 1.362 . S
C1534 C1537 1.409 . S
C1535 H1527 0.930 . S
C1535 C1536 1.355 . S
C1535 C1537 1.415 . S
C1536 C1535 1.355 . S
C1536 C1538 1.419 . S
C1537 C1532 1.425 . S
C1537 C1534 1.409 . S
C1537 C1535 1.415 . S
C1538 H1528 0.930 . S
C1538 C1536 1.419 . S
C1538 C1539 1.362 . S
C1539 H1529 0.930 . S
C1539 C1532 1.409 . S
C1539 C1538 1.362 . S
H1540 C1546 0.930 . S
H1541 C1549 0.930 . S
H1542 C1550 0.930 . S
H1543 C1551 0.930 . S
H1544 C1554 0.930 . S
H1545 C1555 0.930 . S
C1546 H1540 0.930 . S
C1546 C1547 1.355 . S
C1546 C1548 1.415 . S
C1547 C1546 1.355 . S
C1547 C1549 1.419 . S
C1548 C1546 1.415 . S
C1548 C1553 1.425 . S
C1548 C1555 1.409 . S
C1549 H1541 0.930 . S
C1549 C1547 1.419 . S
C1549 C1550 1.362 . S
C1550 H1542 0.930 . S
C1550 C1549 1.362 . S
C1550 C1553 1.409 . S
C1551 H1543 0.930 . S
C1551 C1552 1.355 . S
C1551 C1553 1.415 . S
C1552 C1551 1.355 . S
C1552 C1554 1.419 . S
C1553 C1548 1.425 . S
C1553 C1550 1.409 . S
C1553 C1551 1.415 . S
C1554 H1544 0.930 . S
C1554 C1552 1.419 . S
C1554 C1555 1.362 . S
C1555 H1545 0.930 . S
C1555 C1548 1.409 . S
C1555 C1554 1.362 . S
H1556 C1562 0.930 . S
H1557 C1565 0.930 . S
H1558 C1566 0.930 . S
H1559 C1567 0.930 . S
H1560 C1570 0.930 . S
H1561 C1571 0.930 . S
C1562 H1556 0.930 . S
C1562 C1563 1.355 . S
C1562 C1564 1.415 . S
C1563 C1562 1.355 . S
C1563 C1565 1.419 . S
C1564 C1562 1.415 . S
C1564 C1569 1.425 . S
C1564 C1571 1.409 . S
C1565 H1557 0.930 . S
C1565 C1563 1.419 . S
C1565 C1566 1.362 . S
C1566 H1558 0.930 . S
C1566 C1565 1.362 . S
C1566 C1569 1.409 . S
C1567 H1559 0.930 . S
C1567 C1568 1.355 . S
C1567 C1569 1.415 . S
C1568 C1567 1.355 . S
C1568 C1570 1.419 . S
C1569 C1564 1.425 . S
C1569 C1566 1.409 . S
C1569 C1567 1.415 . S
C1570 H1560 0.930 . S
C1570 C1568 1.419 . S
C1570 C1571 1.362 . S
C1571 H1561 0.930 . S
C1571 C1564 1.409 . S
C1571 C1570 1.362 . S
H1572 C1578 0.930 . S
H1573 C1581 0.930 . S
H1574 C1582 0.930 . S
H1575 C1583 0.930 . S
H1576 C1586 0.930 . S
H1577 C1587 0.930 . S
C1578 H1572 0.930 . S
C1578 C1579 1.355 . S
C1578 C1580 1.415 . S
C1579 C1578 1.355 . S
C1579 C1581 1.419 . S
C1580 C1578 1.415 . S
C1580 C1585 1.425 . S
C1580 C1587 1.409 . S
C1581 H1573 0.930 . S
C1581 C1579 1.419 . S
C1581 C1582 1.362 . S
C1582 H1574 0.930 . S
C1582 C1581 1.362 . S
C1582 C1585 1.409 . S
C1583 H1575 0.930 . S
C1583 C1584 1.355 . S
C1583 C1585 1.415 . S
C1584 C1583 1.355 . S
C1584 C1586 1.419 . S
C1585 C1580 1.425 . S
C1585 C1582 1.409 . S
C1585 C1583 1.415 . S
C1586 H1576 0.930 . S
C1586 C1584 1.419 . S
C1586 C1587 1.362 . S
C1587 H1577 0.930 . S
C1587 C1580 1.409 . S
C1587 C1586 1.362 . S
H1588 C1594 0.930 . S
H1589 C1597 0.930 . S
H1590 C1598 0.930 . S
H1591 C1599 0.930 . S
H1592 C1602 0.930 . S
H1593 C1603 0.930 . S
C1594 H1588 0.930 . S
C1594 C1595 1.355 . S
C1594 C1596 1.415 . S
C1595 C1594 1.355 . S
C1595 C1597 1.419 . S
C1596 C1594 1.415 . S
C1596 C1601 1.425 . S
C1596 C1603 1.409 . S
C1597 H1589 0.930 . S
C1597 C1595 1.419 . S
C1597 C1598 1.362 . S
C1598 H1590 0.930 . S
C1598 C1597 1.362 . S
C1598 C1601 1.409 . S
C1599 H1591 0.930 . S
C1599 C1600 1.355 . S
C1599 C1601 1.415 . S
C1600 C1599 1.355 . S
C1600 C1602 1.419 . S
C1601 C1596 1.425 . S
C1601 C1598 1.409 . S
C1601 C1599 1.415 . S
C1602 H1592 0.930 . S
C1602 C1600 1.419 . S
C1602 C1603 1.362 . S
C1603 H1593 0.930 . S
C1603 C1596 1.409 . S
C1603 C1602 1.362 . S
H1604 C1610 0.930 . S
H1605 C1613 0.930 . S
H1606 C1614 0.930 . S
H1607 C1615 0.930 . S
H1608 C1618 0.930 . S
H1609 C1619 0.930 . S
C1610 H1604 0.930 . S
C1610 C1611 1.355 . S
C1610 C1612 1.415 . S
C1611 C1610 1.355 . S
C1611 C1613 1.419 . S
C1612 C1610 1.415 . S
C1612 C1617 1.425 . S
C1612 C1619 1.409 . S
C1613 H1605 0.930 . S
C1613 C1611 1.419 . S
C1613 C1614 1.362 . S
C1614 H1606 0.930 . S
C1614 C1613 1.362 . S
C1614 C1617 1.409 . S
C1615 H1607 0.930 . S
C1615 C1616 1.355 . S
C1615 C1617 1.415 . S
C1616 C1615 1.355 . S
C1616 C1618 1.419 . S
C1617 C1612 1.425 . S
C1617 C1614 1.409 . S
C1617 C1615 1.415 . S
C1618 H1608 0.930 . S
C1618 C1616 1.419 . S
C1618 C1619 1.362 . S
C1619 H1609 0.930 . S
C1619 C1612 1.409 . S
C1619 C1618 1.362 . S
H1620 C1626 0.930 . S
H1621 C1629 0.930 . S
H1622 C1630 0.930 . S
H1623 C1631 0.930 . S
H1624 C1634 0.930 . S
H1625 C1635 0.930 . S
C1626 H1620 0.930 . S
C1626 C1627 1.355 . S
C1626 C1628 1.415 . S
C1627 C1626 1.355 . S
C1627 C1629 1.419 . S
C1628 C1626 1.415 . S
C1628 C1633 1.425 . S
C1628 C1635 1.409 . S
C1629 H1621 0.930 . S
C1629 C1627 1.419 . S
C1629 C1630 1.362 . S
C1630 H1622 0.930 . S
C1630 C1629 1.362 . S
C1630 C1633 1.409 . S
C1631 H1623 0.930 . S
C1631 C1632 1.355 . S
C1631 C1633 1.415 . S
C1632 C1631 1.355 . S
C1632 C1634 1.419 . S
C1633 C1628 1.425 . S
C1633 C1630 1.409 . S
C1633 C1631 1.415 . S
C1634 H1624 0.930 . S
C1634 C1632 1.419 . S
C1634 C1635 1.362 . S
C1635 H1625 0.930 . S
C1635 C1628 1.409 . S
C1635 C1634 1.362 . S
H1636 C1642 0.930 . S
H1637 C1645 0.930 . S
H1638 C1646 0.930 . S
H1639 C1647 0.930 . S
H1640 C1650 0.930 . S
H1641 C1651 0.930 . S
C1642 H1636 0.930 . S
C1642 C1643 1.355 . S
C1642 C1644 1.415 . S
C1643 C1642 1.355 . S
C1643 C1645 1.419 . S
C1644 C1642 1.415 . S
C1644 C1649 1.425 . S
C1644 C1651 1.409 . S
C1645 H1637 0.930 . S
C1645 C1643 1.419 . S
C1645 C1646 1.362 . S
C1646 H1638 0.930 . S
C1646 C1645 1.362 . S
C1646 C1649 1.409 . S
C1647 H1639 0.930 . S
C1647 C1648 1.355 . S
C1647 C1649 1.415 . S
C1648 C1647 1.355 . S
C1648 C1650 1.419 . S
C1649 C1644 1.425 . S
C1649 C1646 1.409 . S
C1649 C1647 1.415 . S
C1650 H1640 0.930 . S
C1650 C1648 1.419 . S
C1650 C1651 1.362 . S
C1651 H1641 0.930 . S
C1651 C1644 1.409 . S
C1651 C1650 1.362 . S
H1652 C1658 0.930 . S
H1653 C1661 0.930 . S
H1654 C1662 0.930 . S
H1655 C1663 0.930 . S
H1656 C1666 0.930 . S
H1657 C1667 0.930 . S
C1658 H1652 0.930 . S
C1658 C1659 1.355 . S
C1658 C1660 1.415 . S
C1659 C1658 1.355 . S
C1659 C1661 1.419 . S
C1660 C1658 1.415 . S
C1660 C1665 1.425 . S
C1660 C1667 1.409 . S
C1661 H1653 0.930 . S
C1661 C1659 1.419 . S
C1661 C1662 1.362 . S
C1662 H1654 0.930 . S
C1662 C1661 1.362 . S
C1662 C1665 1.409 . S
C1663 H1655 0.930 . S
C1663 C1664 1.355 . S
C1663 C1665 1.415 . S
C1664 C1663 1.355 . S
C1664 C1666 1.419 . S
C1665 C1660 1.425 . S
C1665 C1662 1.409 . S
C1665 C1663 1.415 . S
C1666 H1656 0.930 . S
C1666 C1664 1.419 . S
C1666 C1667 1.362 . S
C1667 H1657 0.930 . S
C1667 C1660 1.409 . S
C1667 C1666 1.362 . S
H1668 C1674 0.930 . S
H1669 C1677 0.930 . S
H1670 C1678 0.930 . S
H1671 C1679 0.930 . S
H1672 C1682 0.930 . S
H1673 C1683 0.930 . S
C1674 H1668 0.930 . S
C1674 C1675 1.355 . S
C1674 C1676 1.415 . S
C1675 C1674 1.355 . S
C1675 C1677 1.419 . S
C1676 C1674 1.415 . S
C1676 C1681 1.425 . S
C1676 C1683 1.409 . S
C1677 H1669 0.930 . S
C1677 C1675 1.419 . S
C1677 C1678 1.362 . S
C1678 H1670 0.930 . S
C1678 C1677 1.362 . S
C1678 C1681 1.409 . S
C1679 H1671 0.930 . S
C1679 C1680 1.355 . S
C1679 C1681 1.415 . S
C1680 C1679 1.355 . S
C1680 C1682 1.419 . S
C1681 C1676 1.425 . S
C1681 C1678 1.409 . S
C1681 C1679 1.415 . S
C1682 H1672 0.930 . S
C1682 C1680 1.419 . S
C1682 C1683 1.362 . S
C1683 H1673 0.930 . S
C1683 C1676 1.409 . S
C1683 C1682 1.362 . S
H1684 C1690 0.930 . S
H1685 C1693 0.930 . S
H1686 C1694 0.930 . S
H1687 C1695 0.930 . S
H1688 C1698 0.930 . S
H1689 C1699 0.930 . S
C1690 H1684 0.930 . S
C1690 C1691 1.355 . S
C1690 C1692 1.415 . S
C1691 C1690 1.355 . S
C1691 C1693 1.419 . S
C1692 C1690 1.415 . S
C1692 C1697 1.425 . S
C1692 C1699 1.409 . S
C1693 H1685 0.930 . S
C1693 C1691 1.419 . S
C1693 C1694 1.362 . S
C1694 H1686 0.930 . S
C1694 C1693 1.362 . S
C1694 C1697 1.409 . S
C1695 H1687 0.930 . S
C1695 C1696 1.355 . S
C1695 C1697 1.415 . S
C1696 C1695 1.355 . S
C1696 C1698 1.419 . S
C1697 C1692 1.425 . S
C1697 C1694 1.409 . S
C1697 C1695 1.415 . S
C1698 H1688 0.930 . S
C1698 C1696 1.419 . S
C1698 C1699 1.362 . S
C1699 H1689 0.930 . S
C1699 C1692 1.409 . S
C1699 C1698 1.362 . S
H1700 C1706 0.930 . S
H1701 C1709 0.930 . S
H1702 C1710 0.930 . S
H1703 C1711 0.930 . S
H1704 C1714 0.930 . S
H1705 C1715 0.930 . S
C1706 H1700 0.930 . S
C1706 C1707 1.355 . S
C1706 C1708 1.415 . S
C1707 C1706 1.355 . S
C1707 C1709 1.419 . S
C1708 C1706 1.415 . S
C1708 C1713 1.425 . S
C1708 C1715 1.409 . S
C1709 H1701 0.930 . S
C1709 C1707 1.419 . S
C1709 C1710 1.362 . S
C1710 H1702 0.930 . S
C1710 C1709 1.362 . S
C1710 C1713 1.409 . S
C1711 H1703 0.930 . S
C1711 C1712 1.355 . S
C1711 C1713 1.415 . S
C1712 C1711 1.355 . S
C1712 C1714 1.419 . S
C1713 C1708 1.425 . S
C1713 C1710 1.409 . S
C1713 C1711 1.415 . S
C1714 H1704 0.930 . S
C1714 C1712 1.419 . S
C1714 C1715 1.362 . S
C1715 H1705 0.930 . S
C1715 C1708 1.409 . S
C1715 C1714 1.362 . S
C576 C270 1.353 . S
C571 C258 1.356 . S
C587 C236 1.602 . S
C592 C268 1.598 . S
C608 C269 1.598 . S
C603 C225 1.599 . S
C619 C247 1.345 . S
C624 C271 1.354 . S
C640 C315 1.484 . S
C635 C181 1.478 . S
C656 C375 1.414 . S
C651 C192 1.418 . S
C667 C203 1.478 . S
C672 C314 1.480 . S
C688 C374 1.671 . S
C683 C214 1.666 . S
C699 C137 1.557 . S
C704 C316 1.557 . S
C720 C372 1.580 . S
C715 C148 1.572 . S
C731 C159 1.566 . S
C736 C317 1.566 . S
C747 C170 1.325 . S
C752 C373 1.332 . S
C768 C423 1.354 . S
C763 C126 1.345 . S
C779 C104 1.593 . S
C784 C422 1.600 . S
C795 C93 1.603 . S
C800 C424 1.597 . S
C816 C425 1.352 . S
C811 C115 1.359 . S
C827 C49 1.478 . S
C832 C466 1.484 . S
C843 C60 1.418 . S
C848 C525 1.414 . S
C859 C71 1.480 . S
C864 C464 1.473 . S
C875 C82 1.666 . S
C880 C524 1.672 . S
C896 C465 1.552 . S
C891 C5 1.558 . S
C912 C522 1.578 1_565 S
C907 C16 1.580 1_545 S
C923 C27 1.568 . S
C928 C467 1.559 . S
C944 C523 1.327 1_565 S
C939 C38 1.334 1_545 S
C960 C267 1.647 . S
C955 C4 1.619 . S
C971 C21 1.434 . S
C976 C273 1.491 1_565 S
C987 C32 1.343 . S
C992 C265 1.462 . S
C1003 C37 1.410 1_545 S
C1008 C272 1.449 1_565 S
C1019 C48 1.565 . S
C1024 C264 1.636 . S
C1040 C274 1.489 . S
C1035 C59 1.439 1_565 S
C1051 C76 1.289 . S
C1056 C266 1.437 . S
C1072 C275 1.740 . S
C1067 C81 1.720 . S
C1088 C321 1.401 1_565 S
C1083 C43 1.334 . S
C1099 C10 1.456 . S
C1104 C364 1.517 . S
C1120 C319 1.638 1_565 S
C1115 C15 1.569 1_545 S
C1136 C366 1.715 . S
C1131 C26 1.697 . S
C1147 C65 1.344 . S
C1152 C320 1.437 . S
C1168 C365 1.626 . S
C1163 C70 1.591 . S
C1184 C318 1.491 . S
C1179 C87 1.350 1_565 S
C1200 C367 1.433 . S
C1195 C54 1.299 . S
C1216 C371 1.474 . S
C1211 C98 1.420 . S
C1227 C109 1.323 . S
C1232 C370 1.459 . S
C1248 C322 1.641 . S
C1243 C92 1.601 . S
C1264 C369 1.455 1_556 S
C1259 C114 1.388 . S
C1275 C131 1.207 . S
C1280 C325 1.342 . S
C1291 C125 1.421 . S
C1296 C368 1.457 . S
C1312 C324 1.639 . S
C1307 C103 1.581 . S
C1328 C323 1.365 . S
C1323 C120 1.305 . S
C1344 C417 1.647 . S
C1339 C136 1.612 . S
C1360 C420 1.490 . S
C1355 C153 1.433 . S
C1371 C164 1.298 . S
C1376 C416 1.449 . S
C1392 C418 1.453 . S
C1387 C169 1.429 . S
C1408 C414 1.636 . S
C1403 C180 1.615 . S
C1419 C191 1.406 . S
C1424 C419 1.483 . S
C1435 C208 1.393 . S
C1440 C415 1.461 . S
C1456 C421 1.740 . S
C1451 C213 1.712 . S
C1472 C475 1.395 . S
C1467 C175 1.306 . S
C1483 C142 1.379 . S
C1488 C514 1.508 . S
C1504 C474 1.639 . S
C1499 C147 1.569 . S
C1520 C516 1.722 . S
C1515 C158 1.666 . S
C1536 C473 1.427 . S
C1531 C197 1.288 . S
C1547 C202 1.562 . S
C1552 C515 1.618 . S
C1568 C472 1.499 . S
C1563 C219 1.403 . S
C1584 C517 1.438 . S
C1579 C186 1.348 . S
C1600 C521 1.460 . S
C1595 C230 1.334 . S
C1611 C241 1.381 . S
C1616 C520 1.469 . S
C1632 C468 1.640 . S
C1627 C224 1.579 . S
C1643 C246 1.439 . S
C1648 C519 1.464 . S
C1664 C471 1.342 . S
C1659 C263 1.207 . S
C1680 C518 1.450 . S
C1675 C257 1.376 . S
C1696 C469 1.641 . S
C1691 C235 1.620 . S
C1707 C252 1.214 . S
C1712 C470 1.346 . S
