# Generated by pormake.
# Topology eea, (3,6)-cn, num edge types: 1
# Building blocks:
#     Node 0, Type 0, BuildingBlock: MIDCAF_clean_linker_0, # of connection points: 3
#     Node 1, Type 0, BuildingBlock: MIDCAF_clean_linker_0, # of connection points: 3
#     Node 2, Type 0, BuildingBlock: MIDCAF_clean_linker_0, # of connection points: 3
#     Node 3, Type 0, BuildingBlock: MIDCAF_clean_linker_0, # of connection points: 3
#     Node 4, Type 0, BuildingBlock: MIDCAF_clean_linker_0, # of connection points: 3
#     Node 5, Type 0, BuildingBlock: MIDCAF_clean_linker_0, # of connection points: 3
#     Node 6, Type 0, BuildingBlock: MIDCAF_clean_linker_0, # of connection points: 3
#     Node 7, Type 0, BuildingBlock: MIDCAF_clean_linker_0, # of connection points: 3
#     Node 8, Type 0, BuildingBlock: MIDCAF_clean_linker_0, # of connection points: 3
#     Node 9, Type 0, BuildingBlock: MIDCAF_clean_linker_0, # of connection points: 3
#     Node 10, Type 0, BuildingBlock: MIDCAF_clean_linker_0, # of connection points: 3
#     Node 11, Type 0, BuildingBlock: MIDCAF_clean_linker_0, # of connection points: 3
#     Node 12, Type 0, BuildingBlock: MIDCAF_clean_linker_0, # of connection points: 3
#     Node 13, Type 0, BuildingBlock: MIDCAF_clean_linker_0, # of connection points: 3
#     Node 14, Type 0, BuildingBlock: MIDCAF_clean_linker_0, # of connection points: 3
#     Node 15, Type 0, BuildingBlock: MIDCAF_clean_linker_0, # of connection points: 3
#     Node 16, Type 0, BuildingBlock: MIDCAF_clean_linker_0, # of connection points: 3
#     Node 17, Type 0, BuildingBlock: MIDCAF_clean_linker_0, # of connection points: 3
#     Node 18, Type 1, BuildingBlock: KUMBOL_clean_sbu_0, # of connection points: 6
#     Node 19, Type 1, BuildingBlock: KUMBOL_clean_sbu_0, # of connection points: 6
#     Node 20, Type 1, BuildingBlock: KUMBOL_clean_sbu_0, # of connection points: 6
#     Node 21, Type 1, BuildingBlock: KUMBOL_clean_sbu_0, # of connection points: 6
#     Node 22, Type 1, BuildingBlock: KUMBOL_clean_sbu_0, # of connection points: 6
#     Node 23, Type 1, BuildingBlock: KUMBOL_clean_sbu_0, # of connection points: 6
#     Node 24, Type 1, BuildingBlock: KUMBOL_clean_sbu_0, # of connection points: 6
#     Node 25, Type 1, BuildingBlock: KUMBOL_clean_sbu_0, # of connection points: 6
#     Node 26, Type 1, BuildingBlock: KUMBOL_clean_sbu_0, # of connection points: 6
#     Edge 27, Type (0, 1), BuildingBlock: XUDNAN_clean_linker_2, # of connection points: 2
#     Edge 28, Type (0, 1), BuildingBlock: XUDNAN_clean_linker_2, # of connection points: 2
#     Edge 29, Type (0, 1), BuildingBlock: XUDNAN_clean_linker_2, # of connection points: 2
#     Edge 30, Type (0, 1), BuildingBlock: XUDNAN_clean_linker_2, # of connection points: 2
#     Edge 31, Type (0, 1), BuildingBlock: XUDNAN_clean_linker_2, # of connection points: 2
#     Edge 32, Type (0, 1), BuildingBlock: XUDNAN_clean_linker_2, # of connection points: 2
#     Edge 33, Type (0, 1), BuildingBlock: XUDNAN_clean_linker_2, # of connection points: 2
#     Edge 34, Type (0, 1), BuildingBlock: XUDNAN_clean_linker_2, # of connection points: 2
#     Edge 35, Type (0, 1), BuildingBlock: XUDNAN_clean_linker_2, # of connection points: 2
#     Edge 36, Type (0, 1), BuildingBlock: XUDNAN_clean_linker_2, # of connection points: 2
#     Edge 37, Type (0, 1), BuildingBlock: XUDNAN_clean_linker_2, # of connection points: 2
#     Edge 38, Type (0, 1), BuildingBlock: XUDNAN_clean_linker_2, # of connection points: 2
#     Edge 39, Type (0, 1), BuildingBlock: XUDNAN_clean_linker_2, # of connection points: 2
#     Edge 40, Type (0, 1), BuildingBlock: XUDNAN_clean_linker_2, # of connection points: 2
#     Edge 41, Type (0, 1), BuildingBlock: XUDNAN_clean_linker_2, # of connection points: 2
#     Edge 42, Type (0, 1), BuildingBlock: XUDNAN_clean_linker_2, # of connection points: 2
#     Edge 43, Type (0, 1), BuildingBlock: XUDNAN_clean_linker_2, # of connection points: 2
#     Edge 44, Type (0, 1), BuildingBlock: XUDNAN_clean_linker_2, # of connection points: 2
#     Edge 45, Type (0, 1), BuildingBlock: XUDNAN_clean_linker_2, # of connection points: 2
#     Edge 46, Type (0, 1), BuildingBlock: XUDNAN_clean_linker_2, # of connection points: 2
#     Edge 47, Type (0, 1), BuildingBlock: XUDNAN_clean_linker_2, # of connection points: 2
#     Edge 48, Type (0, 1), BuildingBlock: XUDNAN_clean_linker_2, # of connection points: 2
#     Edge 49, Type (0, 1), BuildingBlock: XUDNAN_clean_linker_2, # of connection points: 2
#     Edge 50, Type (0, 1), BuildingBlock: XUDNAN_clean_linker_2, # of connection points: 2
#     Edge 51, Type (0, 1), BuildingBlock: XUDNAN_clean_linker_2, # of connection points: 2
#     Edge 52, Type (0, 1), BuildingBlock: XUDNAN_clean_linker_2, # of connection points: 2
#     Edge 53, Type (0, 1), BuildingBlock: XUDNAN_clean_linker_2, # of connection points: 2
#     Edge 54, Type (0, 1), BuildingBlock: XUDNAN_clean_linker_2, # of connection points: 2
#     Edge 55, Type (0, 1), BuildingBlock: XUDNAN_clean_linker_2, # of connection points: 2
#     Edge 56, Type (0, 1), BuildingBlock: XUDNAN_clean_linker_2, # of connection points: 2
#     Edge 57, Type (0, 1), BuildingBlock: XUDNAN_clean_linker_2, # of connection points: 2
#     Edge 58, Type (0, 1), BuildingBlock: XUDNAN_clean_linker_2, # of connection points: 2
#     Edge 59, Type (0, 1), BuildingBlock: XUDNAN_clean_linker_2, # of connection points: 2
#     Edge 60, Type (0, 1), BuildingBlock: XUDNAN_clean_linker_2, # of connection points: 2
#     Edge 61, Type (0, 1), BuildingBlock: XUDNAN_clean_linker_2, # of connection points: 2
#     Edge 62, Type (0, 1), BuildingBlock: XUDNAN_clean_linker_2, # of connection points: 2
#     Edge 63, Type (0, 1), BuildingBlock: XUDNAN_clean_linker_2, # of connection points: 2
#     Edge 64, Type (0, 1), BuildingBlock: XUDNAN_clean_linker_2, # of connection points: 2
#     Edge 65, Type (0, 1), BuildingBlock: XUDNAN_clean_linker_2, # of connection points: 2
#     Edge 66, Type (0, 1), BuildingBlock: XUDNAN_clean_linker_2, # of connection points: 2
#     Edge 67, Type (0, 1), BuildingBlock: XUDNAN_clean_linker_2, # of connection points: 2
#     Edge 68, Type (0, 1), BuildingBlock: XUDNAN_clean_linker_2, # of connection points: 2
#     Edge 69, Type (0, 1), BuildingBlock: XUDNAN_clean_linker_2, # of connection points: 2
#     Edge 70, Type (0, 1), BuildingBlock: XUDNAN_clean_linker_2, # of connection points: 2
#     Edge 71, Type (0, 1), BuildingBlock: XUDNAN_clean_linker_2, # of connection points: 2
#     Edge 72, Type (0, 1), BuildingBlock: XUDNAN_clean_linker_2, # of connection points: 2
#     Edge 73, Type (0, 1), BuildingBlock: XUDNAN_clean_linker_2, # of connection points: 2
#     Edge 74, Type (0, 1), BuildingBlock: XUDNAN_clean_linker_2, # of connection points: 2
#     Edge 75, Type (0, 1), BuildingBlock: XUDNAN_clean_linker_2, # of connection points: 2
#     Edge 76, Type (0, 1), BuildingBlock: XUDNAN_clean_linker_2, # of connection points: 2
#     Edge 77, Type (0, 1), BuildingBlock: XUDNAN_clean_linker_2, # of connection points: 2
#     Edge 78, Type (0, 1), BuildingBlock: XUDNAN_clean_linker_2, # of connection points: 2
#     Edge 79, Type (0, 1), BuildingBlock: XUDNAN_clean_linker_2, # of connection points: 2
#     Edge 80, Type (0, 1), BuildingBlock: XUDNAN_clean_linker_2, # of connection points: 2
# Relax obj value: 0.009
# Max RMSD: 0.094
# Mean RMSD: 0.062
data_MOF--net-eea--node1-KUMBOL_clean_sbu_0--node2-MIDCAF_clean_linker_0--edge1-XUDNAN_clean_linker_2
_symmetry_space_group_name_H-M    P1
_symmetry_Int_Tables_number       1
_symmetry_cell_setting            triclinic
loop_
_symmetry_equiv_pos_as_xyz
'x, y, z'
_cell_length_a     62.23445
_cell_length_b     63.470528
_cell_length_c     88.277961
_cell_angle_alpha  90.193586
_cell_angle_beta   90.131503
_cell_angle_gamma 119.97912
loop_
_atom_site_label
_atom_site_type_symbol
_atom_site_fract_x
_atom_site_fract_y
_atom_site_fract_z
_atom_type_partial_charge
C0 C 0.21306 0.03132 0.41214 0.0
C1 C 0.20371 0.02768 0.39725 0.0
C2 C 0.20308 0.0469 0.38985 0.0
C3 C 0.21106 0.06906 0.39721 0.0
H4 H 0.20753 0.13053 0.3928 0.0
H5 H 0.20537 0.16239 0.37869 0.0
H6 H 0.24549 0.2137 0.41457 0.0
H7 H 0.2479 0.18204 0.42868 0.0
H8 H 0.24258 0.15237 0.46272 0.0
H9 H 0.26064 0.16099 0.48798 0.0
H10 H 0.28911 0.11218 0.47994 0.0
H11 H 0.26971 0.10255 0.45497 0.0
H12 H 0.22786 0.05569 0.43108 0.0
H13 H 0.21365 0.01679 0.41817 0.0
H14 H 0.19647 0.04486 0.37827 0.0
H15 H 0.2101 0.08334 0.3911 0.0
N16 N 0.22436 0.11332 0.41305 0.0
N17 N 0.24054 0.13892 0.4342 0.0
N18 N 0.23745 0.10048 0.43425 0.0
C19 C 0.23083 0.13479 0.41998 0.0
C20 C 0.2439 0.12188 0.4414 0.0
C21 C 0.22754 0.09605 0.42005 0.0
C22 C 0.22808 0.15373 0.41185 0.0
C23 C 0.21582 0.14857 0.39774 0.0
C24 C 0.21444 0.16677 0.38967 0.0
C25 C 0.22544 0.19055 0.39547 0.0
C26 C 0.23716 0.19559 0.40971 0.0
C27 C 0.23841 0.17739 0.41784 0.0
C28 C 0.25474 0.12681 0.45684 0.0
C29 C 0.25265 0.14344 0.46638 0.0
C30 C 0.26321 0.14852 0.48085 0.0
C31 C 0.27662 0.1375 0.48608 0.0
C32 C 0.27862 0.12077 0.4765 0.0
C33 C 0.26761 0.11532 0.46211 0.0
C34 C 0.21997 0.07265 0.4122 0.0
C35 C 0.2211 0.05358 0.41955 0.0
C36 C 0.97327 0.19542 0.40401 0.0
C37 C 0.97812 0.18673 0.39053 0.0
C38 C 0.96101 0.16311 0.38554 0.0
C39 C 0.9395 0.14851 0.39384 0.0
H40 H 0.87062 0.0871 0.39 0.0
H41 H 0.83674 0.05021 0.37885 0.0
H42 H 0.79571 0.03558 0.42058 0.0
H43 H 0.82922 0.07259 0.43167 0.0
H44 H 0.85068 0.1086 0.45875 0.0
H45 H 0.84638 0.12018 0.48437 0.0
H46 H 0.9155 0.18779 0.47969 0.0
H47 H 0.92017 0.17603 0.45416 0.0
H48 H 0.94885 0.18806 0.42276 0.0
H49 H 0.98626 0.21344 0.40825 0.0
H50 H 0.96416 0.15597 0.37514 0.0
H51 H 0.92673 0.1304 0.38965 0.0
N52 N 0.89369 0.12032 0.41037 0.0
N53 N 0.87052 0.11289 0.4326 0.0
N54 N 0.90933 0.14827 0.43053 0.0
C55 C 0.87285 0.1059 0.41842 0.0
C56 C 0.88864 0.13401 0.43877 0.0
C57 C 0.91202 0.14153 0.41633 0.0
C58 C 0.85267 0.08298 0.41174 0.0
C59 C 0.85441 0.07603 0.39684 0.0
C60 C 0.83503 0.05478 0.39045 0.0
C61 C 0.81345 0.04002 0.39879 0.0
C62 C 0.81188 0.04677 0.41375 0.0
C63 C 0.83122 0.06797 0.42014 0.0
C64 C 0.88583 0.14133 0.45433 0.0
C65 C 0.865 0.12597 0.46313 0.0
C66 C 0.86242 0.13267 0.47783 0.0
C67 C 0.88058 0.15493 0.48412 0.0
C68 C 0.90132 0.17036 0.47529 0.0
C69 C 0.90393 0.16365 0.4606 0.0
C70 C 0.93471 0.15712 0.40741 0.0
C71 C 0.95188 0.18077 0.41239 0.0
C72 C 0.8201 0.78941 0.40802 0.0
C73 C 0.82796 0.80469 0.3953 0.0
C74 C 0.85209 0.81322 0.38981 0.0
C75 C 0.86797 0.80651 0.39683 0.0
H76 H 0.93429 0.80499 0.39029 0.0
H77 H 0.96878 0.80601 0.37628 0.0
H78 H 0.97421 0.75964 0.40986 0.0
H79 H 0.94011 0.75864 0.42387 0.0
H80 H 0.91199 0.75008 0.45464 0.0
H81 H 0.90414 0.73465 0.48037 0.0
H82 H 0.84326 0.7488 0.48373 0.0
H83 H 0.85071 0.76376 0.45777 0.0
H84 H 0.82943 0.77125 0.42498 0.0
H85 H 0.80169 0.78272 0.41259 0.0
H86 H 0.85861 0.82489 0.37998 0.0
H87 H 0.88642 0.81337 0.39227 0.0
N88 N 0.89742 0.7868 0.4098 0.0
N89 N 0.90734 0.77055 0.43073 0.0
N90 N 0.87217 0.77501 0.43143 0.0
C91 C 0.9126 0.77986 0.41648 0.0
C92 C 0.88727 0.76817 0.43834 0.0
C93 C 0.87709 0.78434 0.41717 0.0
C94 C 0.93424 0.78159 0.40819 0.0
C95 C 0.94291 0.79509 0.39472 0.0
C96 C 0.96274 0.79581 0.38673 0.0
C97 C 0.97404 0.78275 0.39191 0.0
C98 C 0.96568 0.76966 0.40549 0.0
C99 C 0.94616 0.76919 0.41356 0.0
C100 C 0.88207 0.75831 0.45404 0.0
C101 C 0.89688 0.74991 0.4608 0.0
C102 C 0.89246 0.74116 0.47565 0.0
C103 C 0.87317 0.74061 0.48424 0.0
C104 C 0.85813 0.74871 0.47744 0.0
C105 C 0.86252 0.75744 0.46254 0.0
C106 C 0.86022 0.79141 0.40965 0.0
C107 C 0.83609 0.78299 0.41517 0.0
C108 C 0.04187 0.22282 0.60745 0.0
C109 C 0.03328 0.20884 0.62067 0.0
C110 C 0.0448 0.19588 0.6256 0.0
C111 C 0.06521 0.19764 0.61773 0.0
H112 H 0.13136 0.19243 0.62416 0.0
H113 H 0.16498 0.19135 0.63815 0.0
H114 H 0.21654 0.23378 0.60308 0.0
H115 H 0.18336 0.23466 0.58905 0.0
H116 H 0.15767 0.22868 0.55599 0.0
H117 H 0.16616 0.24241 0.5299 0.0
H118 H 0.1057 0.25736 0.53078 0.0
H119 H 0.09711 0.24363 0.55711 0.0
H120 H 0.06821 0.23546 0.5894 0.0
H121 H 0.03328 0.233 0.60344 0.0
H122 H 0.03858 0.18511 0.63583 0.0
H123 H 0.07412 0.18792 0.622 0.0
N124 N 0.11368 0.21157 0.60414 0.0
N125 N 0.13869 0.22318 0.58248 0.0
N126 N 0.10088 0.22283 0.58199 0.0
C127 C 0.13489 0.21572 0.59713 0.0
C128 C 0.12182 0.22667 0.57477 0.0
C129 C 0.09658 0.21513 0.59665 0.0
C130 C 0.1546 0.21372 0.60548 0.0
C131 C 0.14984 0.20139 0.6194 0.0
C132 C 0.16901 0.20065 0.62738 0.0
C133 C 0.19335 0.21263 0.62173 0.0
C134 C 0.19799 0.22458 0.60776 0.0
C135 C 0.17887 0.22497 0.59969 0.0
C136 C 0.12664 0.23496 0.55873 0.0
C137 C 0.1461 0.23486 0.5507 0.0
C138 C 0.15091 0.24261 0.53566 0.0
C139 C 0.13654 0.25087 0.52822 0.0
C140 C 0.1172 0.25122 0.53623 0.0
C141 C 0.1122 0.24321 0.55129 0.0
C142 C 0.07412 0.212 0.60461 0.0
C143 C 0.06187 0.22418 0.59942 0.0
C144 C 0.79335 0.82303 0.59671 0.0
C145 C 0.80454 0.83095 0.61104 0.0
C146 C 0.80702 0.85253 0.61712 0.0
C147 C 0.79871 0.86598 0.60906 0.0
H148 H 0.80472 0.93196 0.60921 0.0
H149 H 0.81498 0.9716 0.61927 0.0
H150 H 0.77045 0.97876 0.58426 0.0
H151 H 0.76066 0.93934 0.57389 0.0
H152 H 0.7447 0.90269 0.54557 0.0
H153 H 0.72079 0.88754 0.52222 0.0
H154 H 0.71714 0.8184 0.5285 0.0
H155 H 0.74085 0.83335 0.55196 0.0
H156 H 0.77655 0.82994 0.57759 0.0
H157 H 0.79138 0.80659 0.59163 0.0
H158 H 0.8151 0.85892 0.62825 0.0
H159 H 0.80094 0.88248 0.61419 0.0
N160 N 0.78383 0.89469 0.59179 0.0
N161 N 0.76368 0.90016 0.57103 0.0
N162 N 0.76637 0.86465 0.57292 0.0
C163 C 0.77627 0.9085 0.58432 0.0
C164 C 0.75864 0.87825 0.56524 0.0
C165 C 0.77901 0.87279 0.58623 0.0
C166 C 0.78194 0.93243 0.59065 0.0
C167 C 0.79704 0.94192 0.60363 0.0
C168 C 0.80282 0.96463 0.60949 0.0
C169 C 0.79361 0.97842 0.60257 0.0
C170 C 0.77821 0.9688 0.58973 0.0
C171 C 0.7725 0.94611 0.58382 0.0
C172 C 0.74467 0.86924 0.55075 0.0
C173 C 0.73888 0.88426 0.542 0.0
C174 C 0.7253 0.87565 0.52853 0.0
C175 C 0.71703 0.85176 0.52351 0.0
C176 C 0.723 0.83681 0.53215 0.0
C177 C 0.73672 0.84546 0.54558 0.0
C178 C 0.78758 0.85817 0.5947 0.0
C179 C 0.78494 0.83648 0.58863 0.0
C180 C 0.16387 0.96929 0.60395 0.0
C181 C 0.16469 0.97236 0.61973 0.0
C182 C 0.14979 0.9521 0.62883 0.0
C183 C 0.1341 0.92928 0.6222 0.0
H184 H 0.06227 0.86342 0.62633 0.0
H185 H 0.02794 0.82966 0.63966 0.0
H186 H 0.02474 0.77992 0.60509 0.0
H187 H 0.05883 0.81342 0.59175 0.0
H188 H 0.08982 0.83514 0.56032 0.0
H189 H 0.09853 0.83143 0.53367 0.0
H190 H 0.14465 0.90947 0.53102 0.0
H191 H 0.13608 0.91329 0.55738 0.0
H192 H 0.1485 0.94507 0.58513 0.0
H193 H 0.17536 0.98448 0.59664 0.0
H194 H 0.15001 0.95398 0.64104 0.0
H195 H 0.12276 0.914 0.62948 0.0
N196 N 0.09863 0.88347 0.60668 0.0
N197 N 0.08876 0.85861 0.58498 0.0
N198 N 0.12138 0.89889 0.58435 0.0
C199 C 0.0842 0.86158 0.59971 0.0
C200 C 0.10732 0.87726 0.57721 0.0
C201 C 0.11736 0.90221 0.59904 0.0
C202 C 0.06344 0.84118 0.60797 0.0
C203 C 0.05429 0.84528 0.62158 0.0
C204 C 0.03451 0.82599 0.62917 0.0
C205 C 0.02371 0.80213 0.62346 0.0
C206 C 0.03285 0.79806 0.60987 0.0
C207 C 0.05234 0.81732 0.60219 0.0
C208 C 0.1122 0.87451 0.56104 0.0
C209 C 0.10176 0.8515 0.55403 0.0
C210 C 0.10684 0.84934 0.5388 0.0
C211 C 0.12215 0.87017 0.53023 0.0
C212 C 0.13251 0.8931 0.53725 0.0
C213 C 0.12769 0.89524 0.55244 0.0
C214 C 0.13334 0.92626 0.60636 0.0
C215 C 0.14851 0.94658 0.59736 0.0
C216 C 0.90981 0.37986 0.74016 0.0
C217 C 0.90001 0.37299 0.72548 0.0
C218 C 0.88979 0.38579 0.71836 0.0
C219 C 0.88932 0.40504 0.72584 0.0
H220 H 0.87084 0.45847 0.72113 0.0
H221 H 0.85534 0.48239 0.70874 0.0
H222 H 0.87084 0.52637 0.74911 0.0
H223 H 0.88672 0.50262 0.76157 0.0
H224 H 0.91841 0.49279 0.79028 0.0
H225 H 0.93013 0.49646 0.81719 0.0
H226 H 0.9119 0.4213 0.81723 0.0
H227 H 0.90047 0.41761 0.79066 0.0
H228 H 0.91682 0.40348 0.75902 0.0
H229 H 0.91743 0.37011 0.74606 0.0
H230 H 0.88222 0.38095 0.707 0.0
H231 H 0.8812 0.41446 0.72011 0.0
N232 N 0.89016 0.44565 0.74213 0.0
N233 N 0.89527 0.46687 0.76498 0.0
N234 N 0.90367 0.4348 0.76392 0.0
C235 C 0.88894 0.4635 0.75001 0.0
C236 C 0.90255 0.45241 0.77199 0.0
C237 C 0.89766 0.43132 0.74902 0.0
C238 C 0.88003 0.47854 0.7424 0.0
C239 C 0.87105 0.47326 0.72742 0.0
C240 C 0.86198 0.48687 0.72031 0.0
C241 C 0.86172 0.50617 0.72797 0.0
C242 C 0.87095 0.5117 0.74288 0.0
C243 C 0.87995 0.498 0.75003 0.0
C244 C 0.90861 0.45495 0.78834 0.0
C245 C 0.91677 0.47706 0.79611 0.0
C246 C 0.92357 0.4792 0.81144 0.0
C247 C 0.92177 0.45912 0.81926 0.0
C248 C 0.91319 0.43699 0.81153 0.0
C249 C 0.90682 0.43496 0.79626 0.0
C250 C 0.89887 0.41168 0.74064 0.0
C251 C 0.90925 0.39893 0.74765 0.0
C252 C 0.62886 0.53861 0.7411 0.0
C253 C 0.63769 0.53495 0.72725 0.0
C254 C 0.62686 0.51124 0.7213 0.0
C255 C 0.60734 0.49173 0.72888 0.0
H256 H 0.54797 0.42291 0.72095 0.0
H257 H 0.52183 0.38501 0.70745 0.0
H258 H 0.47937 0.35377 0.7481 0.0
H259 H 0.50521 0.39185 0.76162 0.0
H260 H 0.54465 0.42474 0.79516 0.0
H261 H 0.53475 0.42685 0.8215 0.0
H262 H 0.53973 0.49634 0.813 0.0
H263 H 0.55189 0.49488 0.78695 0.0
H264 H 0.60325 0.52264 0.7594 0.0
H265 H 0.637 0.55663 0.74606 0.0
H266 H 0.63315 0.50786 0.71061 0.0
H267 H 0.59933 0.47374 0.72389 0.0
N268 N 0.56354 0.45307 0.74344 0.0
N269 N 0.54039 0.43617 0.76547 0.0
N270 N 0.57264 0.47687 0.76551 0.0
C271 C 0.54473 0.4338 0.75066 0.0
C272 C 0.55417 0.4576 0.77294 0.0
C273 C 0.57765 0.47464 0.75076 0.0
C274 C 0.52887 0.41054 0.74243 0.0
C275 C 0.53309 0.40802 0.72706 0.0
C276 C 0.51812 0.38621 0.7193 0.0
C277 C 0.49853 0.36628 0.72669 0.0
C278 C 0.49412 0.36883 0.74202 0.0
C279 C 0.50911 0.39066 0.7498 0.0
C280 C 0.54898 0.45961 0.78905 0.0
C281 C 0.54383 0.44054 0.79903 0.0
C282 C 0.53784 0.4417 0.81414 0.0
C283 C 0.5359 0.4616 0.8196 0.0
C284 C 0.54134 0.48084 0.80951 0.0
C285 C 0.54816 0.48 0.79448 0.0
C286 C 0.5984 0.49539 0.74272 0.0
C287 C 0.60957 0.51908 0.74878 0.0
C288 C 0.47763 0.10131 0.73859 0.0
C289 C 0.4831 0.11326 0.72455 0.0
C290 C 0.50554 0.11898 0.71742 0.0
C291 C 0.52241 0.11354 0.72432 0.0
H292 H 0.59422 0.1283 0.72073 0.0
H293 H 0.6337 0.14067 0.70831 0.0
H294 H 0.64963 0.09963 0.74082 0.0
H295 H 0.61012 0.08725 0.75337 0.0
H296 H 0.58033 0.07561 0.78507 0.0
H297 H 0.57462 0.06187 0.81119 0.0
H298 H 0.50472 0.0608 0.81264 0.0
H299 H 0.51013 0.0741 0.78636 0.0
H300 H 0.48999 0.08718 0.75651 0.0
H301 H 0.46058 0.09681 0.74443 0.0
H302 H 0.51018 0.12789 0.70651 0.0
H303 H 0.53961 0.11858 0.71851 0.0
N304 N 0.55767 0.10346 0.73909 0.0
N305 N 0.57103 0.09081 0.76025 0.0
N306 N 0.53229 0.08875 0.76054 0.0
C307 C 0.5752 0.09997 0.74597 0.0
C308 C 0.54965 0.08519 0.76765 0.0
C309 C 0.5361 0.09781 0.74623 0.0
C310 C 0.59893 0.10681 0.73811 0.0
C311 C 0.60602 0.12177 0.72523 0.0
C312 C 0.62873 0.12898 0.71813 0.0
C313 C 0.6448 0.12116 0.72359 0.0
C314 C 0.63755 0.1058 0.73627 0.0
C315 C 0.61497 0.09884 0.74352 0.0
C316 C 0.54574 0.07608 0.78352 0.0
C317 C 0.56367 0.0724 0.79089 0.0
C318 C 0.56047 0.06465 0.80595 0.0
C319 C 0.53927 0.06036 0.8141 0.0
C320 C 0.52116 0.06369 0.80669 0.0
C321 C 0.52435 0.07145 0.7916 0.0
C322 C 0.51738 0.10229 0.7386 0.0
C323 C 0.4946 0.09595 0.74556 0.0
C324 C 0.70409 0.55288 0.94039 0.0
C325 C 0.69852 0.54116 0.95451 0.0
C326 C 0.71507 0.53445 0.96068 0.0
C327 C 0.73646 0.539 0.95285 0.0
H328 H 0.79728 0.52753 0.9553 0.0
H329 H 0.82986 0.52352 0.96844 0.0
H330 H 0.88253 0.56791 0.93438 0.0
H331 H 0.85024 0.57167 0.92111 0.0
H332 H 0.82079 0.56401 0.88766 0.0
H333 H 0.82772 0.57694 0.86138 0.0
H334 H 0.77274 0.59916 0.86496 0.0
H335 H 0.76559 0.58608 0.89147 0.0
H336 H 0.729 0.56608 0.92155 0.0
H337 H 0.69162 0.5581 0.93528 0.0
H338 H 0.71148 0.52565 0.97161 0.0
H339 H 0.74861 0.53338 0.95798 0.0
N340 N 0.7814 0.55008 0.93699 0.0
N341 N 0.80537 0.56158 0.91493 0.0
N342 N 0.76809 0.56236 0.91553 0.0
C343 C 0.80202 0.55373 0.92948 0.0
C344 C 0.78854 0.56586 0.90782 0.0
C345 C 0.76435 0.55441 0.93014 0.0
C346 C 0.82115 0.55005 0.93718 0.0
C347 C 0.81577 0.53628 0.95055 0.0
C348 C 0.83432 0.53383 0.95803 0.0
C349 C 0.85866 0.54548 0.95243 0.0
C350 C 0.86391 0.55883 0.93896 0.0
C351 C 0.84537 0.56093 0.93136 0.0
C352 C 0.79257 0.57394 0.89175 0.0
C353 C 0.81012 0.57166 0.88293 0.0
C354 C 0.81402 0.57894 0.86779 0.0
C355 C 0.8007 0.58896 0.86106 0.0
C356 C 0.78336 0.59158 0.86987 0.0
C357 C 0.77918 0.58396 0.88502 0.0
C358 C 0.74186 0.55027 0.93857 0.0
C359 C 0.72545 0.55728 0.93248 0.0
C360 C 0.44626 0.14573 0.92954 0.0
C361 C 0.45743 0.14875 0.94388 0.0
C362 C 0.46237 0.16924 0.95261 0.0
C363 C 0.45683 0.18656 0.94701 0.0
H364 H 0.4685 0.2549 0.95628 0.0
H365 H 0.47705 0.2899 0.97191 0.0
H366 H 0.43508 0.30806 0.9408 0.0
H367 H 0.4273 0.2736 0.92489 0.0
H368 H 0.42953 0.25577 0.89014 0.0
H369 H 0.41187 0.25374 0.86533 0.0
H370 H 0.38759 0.17708 0.86244 0.0
H371 H 0.40601 0.17923 0.88734 0.0
H372 H 0.43239 0.16023 0.91278 0.0
H373 H 0.4418 0.12993 0.92262 0.0
H374 H 0.47118 0.17227 0.96362 0.0
H375 H 0.4613 0.20229 0.954 0.0
N376 N 0.44617 0.22247 0.9351 0.0
N377 N 0.43338 0.23831 0.91541 0.0
N378 N 0.43241 0.20116 0.91205 0.0
C379 C 0.44216 0.24022 0.92971 0.0
C380 C 0.42851 0.21896 0.90647 0.0
C381 C 0.44132 0.20286 0.9264 0.0
C382 C 0.44723 0.26142 0.93932 0.0
C383 C 0.46109 0.26635 0.95277 0.0
C384 C 0.46588 0.28638 0.96179 0.0
C385 C 0.45671 0.30182 0.95766 0.0
C386 C 0.44279 0.29682 0.94422 0.0
C387 C 0.4382 0.27694 0.93512 0.0
C388 C 0.41893 0.21758 0.89087 0.0
C389 C 0.42051 0.23843 0.88426 0.0
C390 C 0.41028 0.23727 0.87001 0.0
C391 C 0.39793 0.21517 0.86197 0.0
C392 C 0.39706 0.19443 0.8683 0.0
C393 C 0.40752 0.19563 0.8826 0.0
C394 C 0.44621 0.18386 0.93252 0.0
C395 C 0.44075 0.16308 0.92392 0.0
C396 C 0.85586 0.28964 0.93211 0.0
C397 C 0.84913 0.29564 0.94599 0.0
C398 C 0.82471 0.28122 0.95113 0.0
C399 C 0.80771 0.26069 0.94303 0.0
H400 H 0.7424 0.2026 0.94944 0.0
H401 H 0.70535 0.17582 0.96361 0.0
H402 H 0.68591 0.11913 0.93026 0.0
H403 H 0.72342 0.14597 0.91598 0.0
H404 H 0.75704 0.15954 0.88626 0.0
H405 H 0.76601 0.14695 0.86219 0.0
H406 H 0.83372 0.21603 0.85858 0.0
H407 H 0.82467 0.22893 0.88269 0.0
H408 H 0.84467 0.26429 0.91353 0.0
H409 H 0.87458 0.30045 0.92786 0.0
H410 H 0.81877 0.28565 0.96161 0.0
H411 H 0.78923 0.24993 0.94762 0.0
N412 N 0.77544 0.215 0.92915 0.0
N413 N 0.76381 0.18704 0.90919 0.0
N414 N 0.80145 0.22423 0.9081 0.0
C415 C 0.7589 0.19323 0.92298 0.0
C416 C 0.78499 0.20246 0.90162 0.0
C417 C 0.7967 0.23063 0.9219 0.0
C418 C 0.73599 0.17655 0.93148 0.0
C419 C 0.73035 0.18444 0.94505 0.0
C420 C 0.70897 0.1691 0.95319 0.0
C421 C 0.6926 0.14537 0.94805 0.0
C422 C 0.69827 0.13727 0.93459 0.0
C423 C 0.71968 0.15272 0.92635 0.0
C424 C 0.7902 0.19524 0.88658 0.0
C425 C 0.77383 0.17218 0.88037 0.0
C426 C 0.77902 0.16488 0.86656 0.0
C427 C 0.80069 0.18039 0.85849 0.0
C428 C 0.81678 0.20369 0.86445 0.0
C429 C 0.81164 0.21101 0.87834 0.0
C430 C 0.81459 0.25389 0.9295 0.0
C431 C 0.83875 0.2689 0.92394 0.0
C432 C 0.56442 0.70856 0.07953 0.0
C433 C 0.54089 0.69586 0.07253 0.0
C434 C 0.52425 0.70456 0.07468 0.0
C435 C 0.53149 0.72615 0.0826 0.0
H436 H 0.53569 0.79086 0.06879 0.0
H437 H 0.52906 0.8185 0.05319 0.0
H438 H 0.5765 0.87826 0.08279 0.0
H439 H 0.58306 0.85045 0.09868 0.0
H440 H 0.60953 0.84012 0.12602 0.0
H441 H 0.63457 0.8542 0.14897 0.0
H442 H 0.62296 0.78205 0.1564 0.0
H443 H 0.5976 0.76772 0.13345 0.0
H444 H 0.58996 0.73983 0.09262 0.0
H445 H 0.57788 0.70267 0.07809 0.0
H446 H 0.50566 0.69494 0.07001 0.0
H447 H 0.51856 0.73283 0.08353 0.0
N448 N 0.55755 0.77876 0.08841 0.0
N449 N 0.58006 0.80929 0.10633 0.0
N450 N 0.57814 0.77142 0.1082 0.0
C451 C 0.56576 0.80168 0.09362 0.0
C452 C 0.58617 0.79423 0.11378 0.0
C453 C 0.56367 0.7636 0.09556 0.0
C454 C 0.56017 0.81841 0.08495 0.0
C455 C 0.54467 0.80984 0.0721 0.0
C456 C 0.54093 0.82573 0.06308 0.0
C457 C 0.55256 0.85064 0.06662 0.0
C458 C 0.56726 0.85915 0.07979 0.0
C459 C 0.57107 0.8432 0.08886 0.0
C460 C 0.60154 0.80275 0.12779 0.0
C461 C 0.61223 0.82716 0.1325 0.0
C462 C 0.62672 0.83531 0.14565 0.0
C463 C 0.63082 0.81926 0.15448 0.0
C464 C 0.61996 0.79481 0.1499 0.0
C465 C 0.60557 0.78666 0.13667 0.0
C466 C 0.55526 0.73925 0.08903 0.0
C467 C 0.57143 0.72993 0.08784 0.0
C468 C 0.30816 0.85401 0.07636 0.0
C469 C 0.31458 0.84704 0.06271 0.0
C470 C 0.29844 0.82391 0.05667 0.0
C471 C 0.27647 0.80802 0.06407 0.0
H472 H 0.21558 0.74432 0.0573 0.0
H473 H 0.18619 0.70941 0.04256 0.0
H474 H 0.13027 0.69216 0.07673 0.0
H475 H 0.16009 0.72696 0.09183 0.0
H476 H 0.18611 0.74923 0.1255 0.0
H477 H 0.17777 0.75313 0.15192 0.0
H478 H 0.23435 0.82893 0.15156 0.0
H479 H 0.24298 0.82512 0.12489 0.0
H480 H 0.28177 0.84372 0.09443 0.0
H481 H 0.32034 0.87171 0.08132 0.0
H482 H 0.3027 0.81812 0.04609 0.0
H483 H 0.26463 0.79034 0.05899 0.0
N484 N 0.2297 0.77711 0.07787 0.0
N485 N 0.20373 0.76396 0.09898 0.0
N486 N 0.24178 0.80073 0.10007 0.0
C487 C 0.20825 0.76042 0.08444 0.0
C488 C 0.22036 0.784 0.10691 0.0
C489 C 0.24656 0.79729 0.08549 0.0
C490 C 0.1902 0.73862 0.07574 0.0
C491 C 0.19705 0.73316 0.06174 0.0
C492 C 0.1801 0.71315 0.05321 0.0
C493 C 0.15573 0.69812 0.05834 0.0
C494 C 0.14893 0.70327 0.07248 0.0
C495 C 0.16601 0.72329 0.0811 0.0
C496 C 0.21528 0.78687 0.12301 0.0
C497 C 0.19682 0.7668 0.13096 0.0
C498 C 0.19211 0.76896 0.14616 0.0
C499 C 0.2055 0.79128 0.15383 0.0
C500 C 0.2237 0.81151 0.1459 0.0
C501 C 0.2287 0.80928 0.13067 0.0
C502 C 0.27004 0.81472 0.07782 0.0
C503 C 0.28616 0.83793 0.0839 0.0
C504 C 0.15285 0.45037 0.07314 0.0
C505 C 0.15923 0.46271 0.05923 0.0
C506 C 0.18267 0.46981 0.05307 0.0
C507 C 0.19939 0.46483 0.06065 0.0
H508 H 0.26985 0.47209 0.05672 0.0
H509 H 0.30559 0.47518 0.04306 0.0
H510 H 0.31334 0.43054 0.07691 0.0
H511 H 0.27805 0.4276 0.09064 0.0
H512 H 0.25189 0.42272 0.12224 0.0
H513 H 0.24527 0.40897 0.14832 0.0
H514 H 0.17784 0.4126 0.14962 0.0
H515 H 0.18418 0.42602 0.12329 0.0
H516 H 0.16417 0.43617 0.09155 0.0
H517 H 0.13502 0.44485 0.07826 0.0
H518 H 0.18808 0.47913 0.0423 0.0
H519 H 0.21728 0.47065 0.05552 0.0
N520 N 0.23213 0.45129 0.07564 0.0
N521 N 0.24383 0.43799 0.09723 0.0
N522 N 0.20683 0.43931 0.09725 0.0
C523 C 0.24852 0.44641 0.08278 0.0
C524 C 0.22314 0.43448 0.10461 0.0
C525 C 0.21117 0.44771 0.08275 0.0
C526 C 0.27091 0.44945 0.07475 0.0
C527 C 0.27926 0.46305 0.0613 0.0
C528 C 0.29981 0.46496 0.05351 0.0
C529 C 0.31211 0.45297 0.05888 0.0
C530 C 0.30406 0.43979 0.07244 0.0
C531 C 0.28385 0.43819 0.08033 0.0
C532 C 0.21864 0.42563 0.12056 0.0
C533 C 0.23559 0.4206 0.12801 0.0
C534 C 0.23187 0.41282 0.14306 0.0
C535 C 0.21112 0.40984 0.15118 0.0
C536 C 0.19394 0.41452 0.1437 0.0
C537 C 0.19767 0.42235 0.1286 0.0
C538 C 0.1932 0.45277 0.07468 0.0
C539 C 0.16967 0.44556 0.08081 0.0
C540 C 0.3677 0.88978 0.27437 0.0
C541 C 0.36291 0.87843 0.28861 0.0
C542 C 0.3805 0.87312 0.29478 0.0
C543 C 0.40205 0.87853 0.28683 0.0
H544 H 0.4586 0.86383 0.28722 0.0
H545 H 0.48695 0.85256 0.29882 0.0
H546 H 0.54278 0.89544 0.26581 0.0
H547 H 0.51433 0.90676 0.25404 0.0
H548 H 0.49279 0.91767 0.22258 0.0
H549 H 0.49826 0.93166 0.19643 0.0
H550 H 0.42989 0.93343 0.19887 0.0
H551 H 0.42412 0.91906 0.22486 0.0
H552 H 0.39218 0.90353 0.25533 0.0
H553 H 0.35446 0.89395 0.26923 0.0
H554 H 0.37762 0.86473 0.30581 0.0
H555 H 0.41497 0.87392 0.29199 0.0
N556 N 0.4459 0.88881 0.27014 0.0
N557 N 0.47044 0.90215 0.24831 0.0
N558 N 0.43344 0.90352 0.2496 0.0
C559 C 0.46652 0.89274 0.26253 0.0
C560 C 0.45396 0.90756 0.24172 0.0
C561 C 0.4293 0.89421 0.26385 0.0
C562 C 0.48411 0.88621 0.26964 0.0
C563 C 0.47692 0.87096 0.2824 0.0
C564 C 0.49313 0.86436 0.28903 0.0
C565 C 0.51708 0.87306 0.28322 0.0
C566 C 0.52448 0.88858 0.2706 0.0
C567 C 0.50812 0.89493 0.26381 0.0
C568 C 0.45792 0.91706 0.22592 0.0
C569 C 0.4789 0.92107 0.21758 0.0
C570 C 0.48214 0.92925 0.20257 0.0
C571 C 0.46447 0.93358 0.19546 0.0
C572 C 0.44369 0.9299 0.20386 0.0
C573 C 0.44046 0.92178 0.21886 0.0
C574 C 0.40667 0.88937 0.27243 0.0
C575 C 0.38929 0.89513 0.26635 0.0
C576 C 0.10197 0.4739 0.27094 0.0
C577 C 0.10141 0.47417 0.28687 0.0
C578 C 0.09343 0.48871 0.29418 0.0
C579 C 0.08826 0.50427 0.28588 0.0
H580 H 0.1287 0.58212 0.28699 0.0
H581 H 0.1407 0.61848 0.30197 0.0
H582 H 0.09778 0.63763 0.27229 0.0
H583 H 0.08679 0.60165 0.25682 0.0
H584 H 0.10707 0.57742 0.21825 0.0
H585 H 0.09477 0.57572 0.19193 0.0
H586 H 0.03241 0.50343 0.19918 0.0
H587 H 0.0462 0.50467 0.22519 0.0
H588 H 0.09859 0.49003 0.25036 0.0
H589 H 0.10806 0.46285 0.26501 0.0
H590 H 0.09223 0.48885 0.30642 0.0
H591 H 0.08331 0.51609 0.29195 0.0
N592 N 0.09755 0.54678 0.26937 0.0
N593 N 0.09202 0.56413 0.24744 0.0
N594 N 0.08365 0.52359 0.24704 0.0
C595 C 0.09854 0.56612 0.26227 0.0
C596 C 0.08456 0.54293 0.23979 0.0
C597 C 0.09013 0.52551 0.26192 0.0
C598 C 0.10666 0.58895 0.27079 0.0
C599 C 0.12191 0.59415 0.28362 0.0
C600 C 0.12865 0.61495 0.29228 0.0
C601 C 0.11992 0.63088 0.28852 0.0
C602 C 0.10507 0.62593 0.27546 0.0
C603 C 0.09866 0.60526 0.26662 0.0
C604 C 0.07753 0.54119 0.22369 0.0
C605 C 0.09088 0.56111 0.2141 0.0
C606 C 0.08361 0.56017 0.19904 0.0
C607 C 0.06229 0.53957 0.19331 0.0
C608 C 0.04914 0.51949 0.20297 0.0
C609 C 0.05691 0.52019 0.21794 0.0
C610 C 0.0907 0.5055 0.27005 0.0
C611 C 0.09657 0.48945 0.26256 0.0
C612 C 0.52908 0.63091 0.26449 0.0
C613 C 0.52803 0.63751 0.27957 0.0
C614 C 0.50667 0.62277 0.2881 0.0
C615 C 0.48703 0.60164 0.28178 0.0
H616 H 0.39228 0.48912 0.25653 0.0
H617 H 0.35576 0.46347 0.2717 0.0
H618 H 0.37943 0.52072 0.30513 0.0
H619 H 0.41587 0.54654 0.28997 0.0
H620 H 0.42463 0.49864 0.22636 0.0
H621 H 0.43164 0.48576 0.20165 0.0
H622 H 0.49413 0.55763 0.19442 0.0
H623 H 0.48712 0.57063 0.21895 0.0
H624 H 0.51112 0.60528 0.24656 0.0
H625 H 0.54507 0.6421 0.25752 0.0
H626 H 0.50536 0.62725 0.29978 0.0
H627 H 0.47103 0.59053 0.28877 0.0
N628 N 0.44753 0.55721 0.26849 0.0
N629 N 0.43186 0.52883 0.24855 0.0
N630 N 0.47019 0.56468 0.24607 0.0
C631 C 0.42932 0.53573 0.26275 0.0
C632 C 0.45223 0.54329 0.24011 0.0
C633 C 0.46804 0.57178 0.26024 0.0
C634 C 0.40708 0.51996 0.27198 0.0
C635 C 0.38976 0.4963 0.2671 0.0
C636 C 0.36889 0.4815 0.27586 0.0
C637 C 0.36475 0.49005 0.28963 0.0
C638 C 0.38201 0.51368 0.29451 0.0
C639 C 0.40297 0.52843 0.28582 0.0
C640 C 0.45539 0.53564 0.22474 0.0
C641 C 0.43973 0.51177 0.21946 0.0
C642 C 0.44381 0.50434 0.20532 0.0
C643 C 0.46347 0.52066 0.19609 0.0
C644 C 0.47866 0.54468 0.20118 0.0
C645 C 0.47473 0.55206 0.21533 0.0
C646 C 0.4883 0.59478 0.26678 0.0
C647 C 0.50949 0.60982 0.25818 0.0
Gd648 Gd 0.51269 0.01402 0.02297 0.0
Gd649 Gd 0.49153 0.98066 0.98624 0.0
C650 C 0.41752 0.90928 0.98377 0.0
C651 C 0.43058 0.8804 0.97656 0.0
C652 C 0.461 0.92329 0.97963 0.0
C653 C 0.44249 0.92815 0.98352 0.0
C654 C 0.45523 0.89951 0.97561 0.0
C655 C 0.41175 0.88528 0.98068 0.0
C656 C 0.39908 0.91523 0.98663 0.0
C657 C 0.40569 0.93958 0.98846 0.0
N658 N 0.44877 0.95159 0.98619 0.0
C659 C 0.43071 0.95766 0.98791 0.0
H660 H 0.43544 0.97636 0.9894 0.0
C661 C 0.50278 0.93907 0.97247 0.0
N662 N 0.4845 0.9422 0.9787 0.0
C663 C 0.49807 0.91582 0.96838 0.0
C664 C 0.47427 0.89586 0.97021 0.0
H665 H 0.52122 0.95448 0.9711 0.0
H666 H 0.39271 0.87049 0.98097 0.0
H667 H 0.56828 0.01713 0.0214 0.0
H668 H 0.3797 0.90127 0.98702 0.0
H669 H 0.39154 0.94446 0.99035 0.0
H670 H 0.42579 0.86195 0.9737 0.0
H671 H 0.48166 0.04197 0.03327 0.0
H672 H 0.62482 0.09172 0.02565 0.0
H673 H 0.61246 0.04845 0.02204 0.0
H674 H 0.57896 0.13266 0.03508 0.0
H675 H 0.51278 0.91332 0.96384 0.0
H676 H 0.47062 0.87788 0.96697 0.0
H677 H 0.61214 0.12305 0.03045 0.0
H678 H 0.49033 0.08371 0.03901 0.0
N679 N 0.55544 0.04234 0.02422 0.0
C680 C 0.60532 0.07802 0.02539 0.0
C681 C 0.59842 0.05361 0.02339 0.0
C682 C 0.58699 0.08439 0.02737 0.0
C683 C 0.56188 0.06586 0.02681 0.0
C684 C 0.57327 0.03587 0.02304 0.0
N685 N 0.51943 0.05289 0.02912 0.0
C686 C 0.54328 0.07131 0.02934 0.0
C687 C 0.50539 0.08049 0.03626 0.0
C688 C 0.52979 0.09986 0.03588 0.0
C689 C 0.50055 0.05691 0.03306 0.0
C690 C 0.54914 0.09537 0.03259 0.0
H691 H 0.53351 0.1181 0.03841 0.0
O692 O 0.49393 0.00666 0.0447 0.0
O693 O 0.48389 0.98158 0.01076 0.0
O694 O 0.47843 0.0079 0.99 0.0
O695 O 0.50616 0.03769 0.00672 0.0
O696 O 0.47139 0.99813 0.02564 0.0
O697 O 0.52721 0.00407 0.04236 0.0
O698 O 0.51021 0.99105 0.96447 0.0
O699 O 0.52076 0.01241 0.9987 0.0
O700 O 0.52508 0.98586 0.02041 0.0
O701 O 0.50266 0.95852 1.00066 0.0
O702 O 0.53289 0.99696 0.98289 0.0
O703 O 0.47493 0.98942 0.96739 0.0
C704 C 0.46465 0.97961 0.01682 0.0
C705 C 0.57408 0.11402 0.03272 0.0
C706 C 0.59296 0.10854 0.03009 0.0
C707 C 0.51011 0.00263 0.05154 0.0
C708 C 0.51827 0.01349 0.06671 0.0
C709 C 0.53667 0.03792 0.06848 0.0
C710 C 0.50735 0.99915 0.07962 0.0
C711 C 0.51462 0.00908 0.09433 0.0
C712 C 0.54406 0.04791 0.08297 0.0
C713 C 0.53316 0.03368 0.0958 0.0
C714 C 0.49019 0.03047 0.99531 0.0
C715 C 0.53999 0.01461 0.99248 0.0
C716 C 0.49246 0.99289 0.95795 0.0
C717 C 0.48473 0.9817 0.94284 0.0
C718 C 0.46691 0.95705 0.94116 0.0
C719 C 0.49562 0.99593 0.92991 0.0
C720 C 0.48894 0.98565 0.91526 0.0
C721 C 0.46009 0.94672 0.92672 0.0
C722 C 0.47099 0.96083 0.91386 0.0
C723 C 0.51751 0.96529 0.01268 0.0
H724 H 0.54526 0.04923 0.05869 0.0
H725 H 0.49334 0.98019 0.07816 0.0
H726 H 0.55821 0.06682 0.08427 0.0
H727 H 0.53896 0.04212 0.10686 0.0
H728 H 0.45833 0.94582 0.95099 0.0
H729 H 0.50918 0.01505 0.9313 0.0
H730 H 0.4464 0.92764 0.92549 0.0
H731 H 0.46567 0.95216 0.90284 0.0
Gd732 Gd 0.98543 0.49118 0.0222 0.0
Gd733 Gd 0.01961 0.49901 0.98609 0.0
C734 C 0.08771 0.48916 0.98577 0.0
C735 C 0.12044 0.5293 0.97831 0.0
C736 C 0.07785 0.5207 0.98034 0.0
C737 C 0.07036 0.49725 0.98471 0.0
C738 C 0.10285 0.53684 0.97664 0.0
C739 C 0.11288 0.50549 0.9829 0.0
C740 C 0.07914 0.4648 0.98934 0.0
C741 C 0.05377 0.44901 0.99119 0.0
N742 N 0.0459 0.48205 0.98734 0.0
C743 C 0.03729 0.45789 0.98993 0.0
H744 H 0.01782 0.44538 0.99157 0.0
C745 C 0.0661 0.54891 0.97226 0.0
N746 N 0.06034 0.52724 0.97877 0.0
C747 C 0.09065 0.56568 0.96849 0.0
C748 C 0.1092 0.55977 0.97092 0.0
H749 H 0.05177 0.55348 0.97032 0.0
H750 H 0.12653 0.49971 0.98383 0.0
H751 H 0.98441 0.54358 0.02213 0.0
H752 H 0.09187 0.45789 0.99036 0.0
H753 H 0.04687 0.43002 0.9937 0.0
H754 H 0.13979 0.54153 0.9757 0.0
H755 H 0.95573 0.43505 0.03611 0.0
H756 H 0.90892 0.52709 0.02374 0.0
H757 H 0.95369 0.55724 0.02241 0.0
H758 H 0.86423 0.44116 0.03224 0.0
H759 H 0.09523 0.5831 0.96371 0.0
H760 H 0.12819 0.57272 0.96794 0.0
H761 H 0.87556 0.48356 0.02721 0.0
H762 H 0.91271 0.40291 0.04175 0.0
N763 N 0.95736 0.5059 0.02241 0.0
C764 C 0.92233 0.52095 0.02348 0.0
C765 C 0.94758 0.53802 0.02278 0.0
C766 C 0.91478 0.49623 0.0246 0.0
C767 C 0.93299 0.4892 0.02412 0.0
C768 C 0.96495 0.53015 0.02258 0.0
N769 N 0.94511 0.46011 0.02818 0.0
C770 C 0.92662 0.46544 0.02703 0.0
C771 C 0.91631 0.42033 0.03747 0.0
C772 C 0.89679 0.4249 0.03526 0.0
C773 C 0.94059 0.43849 0.03424 0.0
C774 C 0.90189 0.44793 0.03044 0.0
H775 H 0.87803 0.41094 0.03798 0.0
O776 O 0.99262 0.48177 0.0445 0.0
O777 O 0.01776 0.4928 0.01079 0.0
O778 O 0.98942 0.45987 0.98957 0.0
O779 O 0.96109 0.45878 0.00741 0.0
O780 O 1.00154 0.46678 0.02724 0.0
O781 O 0.99512 0.51668 0.04098 0.0
O782 O 0.01136 0.50788 0.96392 0.0
O783 O 0.988 0.49952 0.99757 0.0
O784 O 0.01542 0.53077 0.01873 0.0
O785 O 0.04319 0.53277 0.99993 0.0
O786 O 0.00742 0.52617 0.98142 0.0
O787 O 0.00757 0.47249 0.96781 0.0
C788 C 0.01989 0.47683 0.01796 0.0
C789 C 0.88339 0.45441 0.02983 0.0
C790 C 0.88984 0.47856 0.02699 0.0
C791 C 0.99583 0.50174 0.05078 0.0
C792 C 0.9828 0.49884 0.06514 0.0
C793 C 0.95683 0.48524 0.0659 0.0
C794 C 0.99663 0.5089 0.07843 0.0
C795 C 0.98461 0.5048 0.09245 0.0
C796 C 0.94484 0.48123 0.07983 0.0
C797 C 0.95866 0.49077 0.0931 0.0
C798 C 0.96764 0.44894 0.99641 0.0
C799 C 0.98917 0.51763 0.99079 0.0
C800 C 0.00631 0.48712 0.958 0.0
C801 C 0.0166 0.4881 0.94296 0.0
C802 C 0.04178 0.49586 0.94086 0.0
C803 C 1.00074 0.48176 0.93043 0.0
C804 C 0.00975 0.48305 0.91569 0.0
C805 C 0.05096 0.49731 0.92623 0.0
C806 C 0.03509 0.49101 0.91368 0.0
C807 C 0.03668 0.54232 0.01119 0.0
H808 H 0.94583 0.47754 0.05581 0.0
H809 H 0.01672 0.51945 0.07793 0.0
H810 H 0.92481 0.47058 0.08034 0.0
H811 H 0.94914 0.48743 0.10384 0.0
H812 H 0.05426 0.50086 0.95046 0.0
H813 H 0.98137 0.47618 0.93218 0.0
H814 H 0.07041 0.50332 0.92461 0.0
H815 H 0.04255 0.49205 0.90246 0.0
Gd816 Gd 0.49522 0.50768 0.99101 0.0
Gd817 Gd 0.52102 0.5029 0.02821 0.0
C818 C 0.60146 0.51915 0.02858 0.0
C819 C 0.59668 0.48029 0.03623 0.0
C820 C 0.56063 0.48545 0.03409 0.0
C821 C 0.57555 0.50919 0.02962 0.0
C822 C 0.57106 0.47093 0.03796 0.0
C823 C 0.61186 0.50437 0.0315 0.0
C824 C 0.61615 0.54379 0.02503 0.0
C825 C 0.60502 0.55803 0.02325 0.0
N826 N 0.56482 0.52291 0.02704 0.0
C827 C 0.57925 0.54733 0.02453 0.0
H828 H 0.57102 0.55862 0.023 0.0
C829 C 0.52124 0.45542 0.04267 0.0
N830 N 0.53608 0.47715 0.03574 0.0
C831 C 0.5306 0.44021 0.04661 0.0
C832 C 0.55556 0.44781 0.04399 0.0
H833 H 0.50195 0.44958 0.04474 0.0
H834 H 0.63168 0.51159 0.03058 0.0
H835 H 0.44153 0.45466 0.99105 0.0
H836 H 0.6361 0.55211 0.02403 0.0
H837 H 0.61625 0.57722 0.0208 0.0
H838 H 0.60503 0.46932 0.03894 0.0
H839 H 0.52405 0.56553 0.97954 0.0
H840 H 0.38216 0.46943 0.98476 0.0
H841 H 0.39675 0.4401 0.98893 0.0
H842 H 0.42436 0.55504 0.97495 0.0
H843 H 0.51859 0.42267 0.05169 0.0
H844 H 0.56283 0.43608 0.04713 0.0
H845 H 0.39265 0.51245 0.97968 0.0
H846 H 0.51326 0.59656 0.97194 0.0
N847 N 0.45221 0.492 0.98894 0.0
C848 C 0.40185 0.47595 0.98581 0.0
C849 C 0.41001 0.45934 0.98813 0.0
C850 C 0.41925 0.50069 0.98431 0.0
C851 C 0.44465 0.50823 0.98587 0.0
C852 C 0.43543 0.46769 0.98938 0.0
N853 N 0.48671 0.53842 0.98392 0.0
C854 C 0.46245 0.53219 0.98321 0.0
C855 C 0.4988 0.57857 0.97516 0.0
C856 C 0.474 0.5728 0.97508 0.0
C857 C 0.50486 0.56097 0.97946 0.0
C858 C 0.45542 0.54927 0.97891 0.0
H859 H 0.46935 0.58645 0.9717 0.0
O860 O 0.51419 0.51688 0.96942 0.0
O861 O 0.52645 0.50839 1.00347 0.0
O862 O 0.52687 0.54076 0.02377 0.0
O863 O 0.49652 0.53657 0.00653 0.0
O864 O 0.53604 0.53448 0.98717 0.0
O865 O 0.4805 0.48216 0.97205 0.0
O866 O 0.50408 0.49328 0.05047 0.0
O867 O 0.4886 0.49947 0.01556 0.0
O868 O 0.48601 0.46871 0.99547 0.0
O869 O 0.51184 0.46883 0.01511 0.0
O870 O 0.48118 0.4749 0.03293 0.0
O871 O 0.53458 0.52957 0.04645 0.0
C872 C 0.54467 0.5251 0.99662 0.0
C873 C 0.43014 0.54212 0.97808 0.0
C874 C 0.41208 0.51787 0.98076 0.0
C875 C 0.49772 0.49689 0.96276 0.0
C876 C 0.48981 0.49989 0.94757 0.0
C877 C 0.47812 0.51369 0.94553 0.0
C878 C 0.49564 0.49035 0.93483 0.0
C879 C 0.49047 0.49519 0.92012 0.0
C880 C 0.47278 0.51836 0.93097 0.0
C881 C 0.47911 0.50937 0.91832 0.0
C882 C 0.5126 0.54844 0.01755 0.0
C883 C 0.4714 0.48176 0.02257 0.0
C884 C 0.51992 0.51408 0.05651 0.0
C885 C 0.53147 0.51266 0.07073 0.0
C886 C 0.55399 0.51259 0.07058 0.0
C887 C 0.51914 0.50984 0.08454 0.0
C888 C 0.52893 0.50635 0.09806 0.0
C889 C 0.56385 0.50932 0.08399 0.0
C890 C 0.55133 0.50603 0.09765 0.0
C891 C 0.49608 0.45826 1.00367 0.0
H892 H 0.47347 0.52117 0.95513 0.0
H893 H 0.50479 0.47975 0.93634 0.0
H894 H 0.46389 0.52915 0.92949 0.0
H895 H 0.47485 0.51323 0.90711 0.0
H896 H 0.56384 0.51485 0.0601 0.0
H897 H 0.50163 0.50968 0.0847 0.0
H898 H 0.58116 0.50916 0.08377 0.0
H899 H 0.55924 0.50344 0.10794 0.0
Gd900 Gd 0.18289 0.35296 0.36038 0.0
Gd901 Gd 0.1625 0.32323 0.32249 0.0
C902 C 0.08895 0.25232 0.3166 0.0
C903 C 0.10271 0.22365 0.31029 0.0
C904 C 0.13284 0.26633 0.31456 0.0
C905 C 0.11391 0.27112 0.31749 0.0
C906 C 0.12748 0.24265 0.3106 0.0
C907 C 0.08347 0.22847 0.31329 0.0
C908 C 0.07026 0.25815 0.31877 0.0
C909 C 0.07669 0.28234 0.32123 0.0
N910 N 0.1199 0.29436 0.32065 0.0
C911 C 0.10172 0.30036 0.32193 0.0
H912 H 0.10631 0.31891 0.32394 0.0
C913 C 0.17562 0.28192 0.31024 0.0
N914 N 0.15649 0.28511 0.31489 0.0
C915 C 0.1713 0.25873 0.30636 0.0
C916 C 0.14715 0.23894 0.30672 0.0
H917 H 0.19433 0.2972 0.31005 0.0
H918 H 0.06442 0.21375 0.31271 0.0
H919 H 0.24111 0.36252 0.35819 0.0
H920 H 0.05086 0.24423 0.31826 0.0
H921 H 0.06238 0.28712 0.32268 0.0
H922 H 0.09822 0.20527 0.30742 0.0
H923 H 0.14708 0.37392 0.37416 0.0
H924 H 0.29186 0.43794 0.36616 0.0
H925 H 0.28392 0.3966 0.35999 0.0
H926 H 0.23873 0.46941 0.37985 0.0
H927 H 0.18658 0.25614 0.30309 0.0
H928 H 0.14382 0.221 0.30365 0.0
H929 H 0.2748 0.46504 0.37346 0.0
H930 H 0.15134 0.4127 0.38313 0.0
N931 N 0.22459 0.38422 0.36274 0.0
C932 C 0.27294 0.423 0.36535 0.0
C933 C 0.26854 0.39969 0.36191 0.0
C934 C 0.25288 0.42659 0.36812 0.0
C935 C 0.22862 0.40654 0.3668 0.0
C936 C 0.24414 0.38035 0.3609 0.0
N937 N 0.18552 0.38909 0.36944 0.0
C938 C 0.20842 0.40905 0.3703 0.0
C939 C 0.16755 0.41196 0.37948 0.0
C940 C 0.19089 0.43294 0.37978 0.0
C941 C 0.16521 0.39 0.37442 0.0
C942 C 0.21176 0.4316 0.37534 0.0
H943 H 0.19266 0.44992 0.38373 0.0
O944 O 0.1634 0.33879 0.38161 0.0
O945 O 0.15453 0.32176 0.34697 0.0
O946 O 0.14893 0.35006 0.32738 0.0
O947 O 0.17483 0.37728 0.34605 0.0
O948 O 0.1414 0.33542 0.36342 0.0
O949 O 0.19957 0.34249 0.37839 0.0
O950 O 0.18086 0.3325 0.30061 0.0
O951 O 0.19091 0.35431 0.3358 0.0
O952 O 0.19947 0.32932 0.35433 0.0
O953 O 0.17201 0.29993 0.33723 0.0
O954 O 0.20394 0.34111 0.31894 0.0
O955 O 0.14795 0.33533 0.30418 0.0
C956 C 0.13506 0.31876 0.35324 0.0
C957 C 0.23579 0.45187 0.37614 0.0
C958 C 0.25632 0.44938 0.3725 0.0
C959 C 0.18132 0.3368 0.38776 0.0
C960 C 0.1879 0.34583 0.40343 0.0
C961 C 0.20228 0.37079 0.40649 0.0
C962 C 0.17911 0.32924 0.4155 0.0
C963 C 0.18467 0.33744 0.43066 0.0
C964 C 0.20783 0.37909 0.42143 0.0
C965 C 0.19913 0.36261 0.43344 0.0
C966 C 0.15871 0.37118 0.33477 0.0
C967 C 0.21031 0.35777 0.32916 0.0
C968 C 0.16463 0.33718 0.29451 0.0
C969 C 0.15581 0.32717 0.27922 0.0
C970 C 0.13689 0.30302 0.27717 0.0
C971 C 0.16676 0.34197 0.26649 0.0
C972 C 0.15908 0.33273 0.25167 0.0
C973 C 0.12904 0.29373 0.26258 0.0
C974 C 0.14004 0.30838 0.24992 0.0
C975 C 0.19003 0.30789 0.34746 0.0
H976 H 0.20918 0.38382 0.39735 0.0
H977 H 0.1677 0.30998 0.41307 0.0
H978 H 0.21901 0.39839 0.42373 0.0
H979 H 0.20411 0.36958 0.44489 0.0
H980 H 0.12827 0.29135 0.28682 0.0
H981 H 0.18118 0.36071 0.26819 0.0
H982 H 0.11451 0.27502 0.26106 0.0
H983 H 0.13391 0.30043 0.23877 0.0
Gd984 Gd 0.65026 0.8282 0.35561 0.0
Gd985 Gd 0.69389 0.84804 0.32314 0.0
C986 C 0.77166 0.85783 0.32643 0.0
C987 C 0.79783 0.90156 0.32363 0.0
C988 C 0.75292 0.8829 0.32268 0.0
C989 C 0.75044 0.86031 0.32507 0.0
C990 C 0.77663 0.90374 0.32161 0.0
C991 C 0.79535 0.87863 0.32604 0.0
C992 C 0.76844 0.83446 0.32778 0.0
C993 C 0.74455 0.8143 0.32724 0.0
N994 N 0.72728 0.84061 0.3253 0.0
C995 C 0.7241 0.8177 0.32579 0.0
H996 H 0.70581 0.80192 0.32547 0.0
C997 C 0.73359 0.90576 0.31658 0.0
N998 N 0.73208 0.8843 0.32068 0.0
C999 C 0.75668 0.92698 0.31548 0.0
C1000 C 0.77831 0.92601 0.31813 0.0
H1001 H 0.7169 0.90658 0.31457 0.0
H1002 H 0.81185 0.87712 0.32724 0.0
H1003 H 0.6375 0.87373 0.35305 0.0
H1004 H 0.78424 0.83177 0.32892 0.0
H1005 H 0.74185 0.79612 0.32798 0.0
H1006 H 0.81621 0.91739 0.32299 0.0
H1007 H 0.62816 0.76978 0.36427 0.0
H1008 H 0.55888 0.84284 0.35004 0.0
H1009 H 0.60103 0.87888 0.35058 0.0
H1010 H 0.52813 0.75754 0.35657 0.0
H1011 H 0.75779 0.94405 0.31259 0.0
H1012 H 0.79618 0.94245 0.3172 0.0
H1013 H 0.53181 0.79748 0.35211 0.0
H1014 H 0.58759 0.73207 0.36663 0.0
N1015 N 0.61648 0.83504 0.35355 0.0
C1016 C 0.57487 0.84044 0.35115 0.0
C1017 C 0.59862 0.86082 0.35147 0.0
C1018 C 0.57202 0.81724 0.35265 0.0
C1019 C 0.59346 0.81513 0.35396 0.0
C1020 C 0.6193 0.85779 0.35289 0.0
N1021 N 0.61243 0.79163 0.35826 0.0
C1022 C 0.59137 0.79271 0.35642 0.0
C1023 C 0.58839 0.74899 0.3637 0.0
C1024 C 0.56655 0.74962 0.36123 0.0
C1025 C 0.61131 0.77036 0.36238 0.0
C1026 C 0.56783 0.7717 0.35769 0.0
H1027 H 0.54881 0.73307 0.36233 0.0
O1028 O 0.65544 0.81847 0.37834 0.0
O1029 O 0.68734 0.83706 0.34722 0.0
O1030 O 0.6698 0.80679 0.32482 0.0
O1031 O 0.63387 0.79891 0.33777 0.0
O1032 O 0.67043 0.80783 0.3616 0.0
O1033 O 0.65197 0.85043 0.37483 0.0
O1034 O 0.69055 0.85861 0.30025 0.0
O1035 O 0.65696 0.83948 0.33155 0.0
O1036 O 0.67395 0.86943 0.35387 0.0
O1037 O 0.70997 0.87749 0.34096 0.0
O1038 O 0.67379 0.86841 0.31696 0.0
O1039 O 0.69061 0.82491 0.30409 0.0
C1040 C 0.69032 0.8213 0.35403 0.0
C1041 C 0.5464 0.77351 0.35578 0.0
C1042 C 0.54849 0.79625 0.35325 0.0
C1043 C 0.65365 0.83606 0.38471 0.0
C1044 C 0.63726 0.82924 0.39795 0.0
C1045 C 0.61203 0.82179 0.3963 0.0
C1046 C 0.64684 0.82933 0.4124 0.0
C1047 C 0.63127 0.82173 0.42516 0.0
C1048 C 0.59652 0.81439 0.40892 0.0
C1049 C 0.60601 0.81426 0.42325 0.0
C1050 C 0.64607 0.79246 0.32832 0.0
C1051 C 0.65396 0.85517 0.32464 0.0
C1052 C 0.69072 0.84002 0.29406 0.0
C1053 C 0.70736 0.8454 0.28105 0.0
C1054 C 0.73218 0.85157 0.28319 0.0
C1055 C 0.69844 0.84479 0.26633 0.0
C1056 C 0.71428 0.85057 0.25376 0.0
C1057 C 0.74793 0.85719 0.27078 0.0
C1058 C 0.73911 0.85676 0.25616 0.0
C1059 C 0.69763 0.8839 0.35034 0.0
H1060 H 0.6043 0.8216 0.38529 0.0
H1061 H 0.66628 0.83479 0.41363 0.0
H1062 H 0.57706 0.80866 0.40757 0.0
H1063 H 0.59362 0.80852 0.43288 0.0
H1064 H 0.73938 0.85207 0.2944 0.0
H1065 H 0.67933 0.84028 0.2647 0.0
H1066 H 0.76705 0.86191 0.2725 0.0
H1067 H 0.75167 0.86104 0.24671 0.0
Gd1068 Gd 0.15568 0.83358 0.32389 0.0
Gd1069 Gd 0.18061 0.83009 0.3616 0.0
C1070 C 0.26115 0.8472 0.36552 0.0
C1071 C 0.25607 0.80881 0.37446 0.0
C1072 C 0.22004 0.81343 0.37023 0.0
C1073 C 0.23516 0.83704 0.36562 0.0
C1074 C 0.23029 0.79923 0.37517 0.0
C1075 C 0.27148 0.83276 0.36959 0.0
C1076 C 0.27595 0.87172 0.3617 0.0
C1077 C 0.26478 0.88565 0.35874 0.0
N1078 N 0.22447 0.85042 0.36192 0.0
C1079 C 0.23892 0.87476 0.35916 0.0
H1080 H 0.23069 0.88583 0.35677 0.0
C1081 C 0.17993 0.78315 0.37757 0.0
N1082 N 0.19532 0.80492 0.37086 0.0
C1083 C 0.18913 0.76828 0.38259 0.0
C1084 C 0.21438 0.77618 0.38116 0.0
H1085 H 0.16037 0.77696 0.37865 0.0
H1086 H 0.29139 0.84015 0.36942 0.0
H1087 H 0.10402 0.77879 0.32354 0.0
H1088 H 0.29598 0.8802 0.36138 0.0
H1089 H 0.27607 0.90476 0.35607 0.0
H1090 H 0.2643 0.79809 0.37803 0.0
H1091 H 0.18164 0.89179 0.31344 0.0
H1092 H 0.04177 0.78896 0.31648 0.0
H1093 H 0.05885 0.7617 0.32093 0.0
H1094 H 0.07944 0.8746 0.30745 0.0
H1095 H 0.17674 0.75074 0.38755 0.0
H1096 H 0.22151 0.76469 0.38511 0.0
H1097 H 0.04965 0.83119 0.31143 0.0
H1098 H 0.16844 0.92131 0.30638 0.0
N1099 N 0.11244 0.81549 0.32125 0.0
C1100 C 0.06163 0.79659 0.31769 0.0
C1101 C 0.0712 0.78114 0.32017 0.0
C1102 C 0.07786 0.82162 0.3163 0.0
C1103 C 0.10352 0.83063 0.31809 0.0
C1104 C 0.09683 0.79092 0.32167 0.0
N1105 N 0.14484 0.8627 0.31676 0.0
C1106 C 0.12025 0.855 0.31573 0.0
C1107 C 0.1547 0.90273 0.30903 0.0
C1108 C 0.12946 0.89534 0.30851 0.0
C1109 C 0.16211 0.88599 0.31298 0.0
C1110 C 0.11186 0.87113 0.31166 0.0
H1111 H 0.12377 0.90832 0.30537 0.0
O1112 O 0.17418 0.84454 0.30218 0.0
O1113 O 0.18728 0.83606 0.33692 0.0
O1114 O 0.18648 0.86757 0.3558 0.0
O1115 O 0.15428 0.86084 0.33953 0.0
O1116 O 0.19617 0.86197 0.32058 0.0
O1117 O 0.14389 0.80759 0.3053 0.0
O1118 O 0.16175 0.82133 0.3833 0.0
O1119 O 0.14816 0.82504 0.34827 0.0
O1120 O 0.14884 0.79547 0.32842 0.0
O1121 O 0.17448 0.79685 0.34856 0.0
O1122 O 0.14105 0.80031 0.3654 0.0
O1123 O 0.19202 0.85769 0.37921 0.0
C1124 C 0.20528 0.8534 0.33029 0.0
C1125 C 0.08627 0.86246 0.31046 0.0
C1126 C 0.06931 0.83774 0.31273 0.0
C1127 C 0.15979 0.82345 0.29584 0.0
C1128 C 0.15057 0.82399 0.28059 0.0
C1129 C 0.13282 0.83113 0.27835 0.0
C1130 C 0.16022 0.81786 0.26805 0.0
C1131 C 0.15231 0.81888 0.25323 0.0
C1132 C 0.12487 0.83221 0.26372 0.0
C1133 C 0.13454 0.82618 0.25123 0.0
C1134 C 0.17084 0.87387 0.35002 0.0
C1135 C 0.13113 0.80665 0.35483 0.0
C1136 C 0.17612 0.84281 0.38903 0.0
C1137 C 0.18547 0.84341 0.40442 0.0
C1138 C 0.2052 0.83913 0.40696 0.0
C1139 C 0.17408 0.84786 0.41677 0.0
C1140 C 0.18231 0.84812 0.4317 0.0
C1141 C 0.21342 0.83926 0.42171 0.0
C1142 C 0.20211 0.84371 0.43401 0.0
C1143 C 0.15965 0.78593 0.33677 0.0
H1144 H 0.12521 0.83592 0.28787 0.0
H1145 H 0.17418 0.81265 0.26984 0.0
H1146 H 0.11113 0.8377 0.26205 0.0
H1147 H 0.1278 0.82686 0.24002 0.0
H1148 H 0.2142 0.8357 0.39758 0.0
H1149 H 0.15862 0.85083 0.41473 0.0
H1150 H 0.2287 0.83599 0.42361 0.0
H1151 H 0.20915 0.84411 0.4453 0.0
Gd1152 Gd 0.84284 0.68416 0.69176 0.0
Gd1153 Gd 0.81518 0.65335 0.65517 0.0
C1154 C 0.73331 0.59654 0.64919 0.0
C1155 C 0.73515 0.55991 0.64372 0.0
C1156 C 0.77306 0.59837 0.64817 0.0
C1157 C 0.75938 0.60975 0.65053 0.0
C1158 C 0.76116 0.57338 0.64453 0.0
C1159 C 0.72125 0.5715 0.64598 0.0
C1160 C 0.72021 0.60903 0.65068 0.0
C1161 C 0.7332 0.6342 0.6528 0.0
N1162 N 0.77168 0.63404 0.65328 0.0
C1163 C 0.7591 0.64654 0.65381 0.0
H1164 H 0.76889 0.666 0.65541 0.0
C1165 C 0.81254 0.60214 0.64502 0.0
N1166 N 0.79813 0.61203 0.64874 0.0
C1167 C 0.80161 0.57737 0.64152 0.0
C1168 C 0.7758 0.56286 0.64141 0.0
H1169 H 0.83251 0.61322 0.64512 0.0
H1170 H 0.70123 0.56101 0.645 0.0
H1171 H 0.88876 0.67094 0.69216 0.0
H1172 H 0.70015 0.59953 0.64981 0.0
H1173 H 0.7233 0.64413 0.65364 0.0
H1174 H 0.72565 0.54067 0.64102 0.0
H1175 H 0.82583 0.72496 0.70069 0.0
H1176 H 0.9576 0.73685 0.6989 0.0
H1177 H 0.93422 0.69233 0.69474 0.0
H1178 H 0.93273 0.79637 0.70671 0.0
H1179 H 0.8131 0.5695 0.6389 0.0
H1180 H 0.76737 0.54371 0.63861 0.0
H1181 H 0.95683 0.77555 0.70354 0.0
H1182 H 0.84547 0.76871 0.70685 0.0
N1183 N 0.88627 0.70309 0.69414 0.0
C1184 C 0.9376 0.72756 0.69767 0.0
C1185 C 0.92447 0.70244 0.69536 0.0
C1186 C 0.92469 0.74028 0.69883 0.0
C1187 C 0.89868 0.72735 0.697 0.0
C1188 C 0.89864 0.69037 0.69388 0.0
N1189 N 0.86011 0.72562 0.69789 0.0
C1190 C 0.88517 0.73901 0.69891 0.0
C1191 C 0.85686 0.7606 0.7046 0.0
C1192 C 0.88269 0.77481 0.70521 0.0
C1193 C 0.8458 0.73582 0.70114 0.0
C1194 C 0.89718 0.76399 0.70259 0.0
H1195 H 0.89121 0.79397 0.70802 0.0
O1196 O 0.82522 0.6811 0.71347 0.0
O1197 O 0.80876 0.65794 0.67935 0.0
O1198 O 0.81396 0.68826 0.65878 0.0
O1199 O 0.84684 0.7126 0.675 0.0
O1200 O 0.80505 0.68069 0.69441 0.0
O1201 O 0.8502 0.66685 0.71072 0.0
O1202 O 0.83276 0.65706 0.63334 0.0
O1203 O 0.84916 0.67927 0.66769 0.0
O1204 O 0.84402 0.64914 0.68834 0.0
O1205 O 0.81183 0.62485 0.67161 0.0
O1206 O 0.85316 0.65718 0.65227 0.0
O1207 O 0.80711 0.67042 0.63641 0.0
C1208 C 0.79326 0.66285 0.68509 0.0
C1209 C 0.92314 0.77715 0.70396 0.0
C1210 C 0.93686 0.76529 0.70216 0.0
C1211 C 0.83632 0.67075 0.72005 0.0
C1212 C 0.84657 0.67975 0.73526 0.0
C1213 C 0.8646 0.70416 0.73766 0.0
C1214 C 0.83782 0.6637 0.7476 0.0
C1215 C 0.84688 0.67192 0.76237 0.0
C1216 C 0.87369 0.71247 0.75225 0.0
C1217 C 0.86491 0.69653 0.76453 0.0
C1218 C 0.8308 0.70982 0.66421 0.0
C1219 C 0.86478 0.67463 0.66187 0.0
C1220 C 0.82117 0.66704 0.62693 0.0
C1221 C 0.81085 0.65801 0.61173 0.0
C1222 C 0.78906 0.63559 0.6098 0.0
C1223 C 0.82322 0.67197 0.59896 0.0
C1224 C 0.81411 0.66357 0.5842 0.0
C1225 C 0.77979 0.62716 0.59527 0.0
C1226 C 0.79219 0.64095 0.58256 0.0
C1227 C 0.82776 0.62766 0.68248 0.0
H1228 H 0.87156 0.71676 0.7283 0.0
H1229 H 0.82369 0.64489 0.74569 0.0
H1230 H 0.88765 0.73133 0.75404 0.0
H1231 H 0.87253 0.70341 0.77568 0.0
H1232 H 0.7793 0.6246 0.6195 0.0
H1233 H 0.83987 0.68945 0.60059 0.0
H1234 H 0.76301 0.60976 0.59383 0.0
H1235 H 0.78481 0.63362 0.57144 0.0
Gd1236 Gd 0.31958 0.16216 0.69319 0.0
Gd1237 Gd 0.35152 0.16493 0.65705 0.0
C1238 C 0.4142 0.14698 0.65585 0.0
C1239 C 0.4495 0.18565 0.64845 0.0
C1240 C 0.4086 0.18138 0.65088 0.0
C1241 C 0.39888 0.15747 0.65511 0.0
C1242 C 0.43391 0.19566 0.64716 0.0
C1243 C 0.43966 0.16134 0.65281 0.0
C1244 C 0.40338 0.12228 0.65935 0.0
C1245 C 0.37779 0.10855 0.66149 0.0
N1246 N 0.37424 0.14422 0.65799 0.0
C1247 C 0.36338 0.11979 0.66057 0.0
H1248 H 0.3437 0.10884 0.66235 0.0
C1249 C 0.4011 0.21305 0.64396 0.0
N1250 N 0.39301 0.19038 0.64976 0.0
C1251 C 0.42606 0.22797 0.64014 0.0
C1252 C 0.44262 0.21935 0.64194 0.0
H1253 H 0.38839 0.21986 0.64269 0.0
H1254 H 0.45177 0.15368 0.65348 0.0
H1255 H 0.32296 0.21641 0.69246 0.0
H1256 H 0.4145 0.11355 0.66012 0.0
H1257 H 0.36915 0.08933 0.66394 0.0
H1258 H 0.46905 0.19639 0.6458 0.0
H1259 H 0.28532 0.10314 0.70179 0.0
H1260 H 0.24942 0.20523 0.69625 0.0
H1261 H 0.29459 0.23301 0.69354 0.0
H1262 H 0.19952 0.11909 0.70325 0.0
H1263 H 0.4325 0.24612 0.63587 0.0
H1264 H 0.46194 0.23092 0.63896 0.0
H1265 H 0.2141 0.16267 0.70006 0.0
H1266 H 0.24124 0.07282 0.70633 0.0
N1267 N 0.29403 0.17956 0.69376 0.0
C1268 C 0.26176 0.19783 0.69564 0.0
C1269 C 0.28725 0.21357 0.69414 0.0
C1270 C 0.25258 0.17277 0.69676 0.0
C1271 C 0.26939 0.16405 0.69572 0.0
C1272 C 0.30325 0.2041 0.69349 0.0
N1273 N 0.27823 0.13214 0.69783 0.0
C1274 C 0.26119 0.13955 0.69775 0.0
C1275 C 0.24661 0.09152 0.70391 0.0
C1276 C 0.22872 0.09868 0.70343 0.0
C1277 C 0.27151 0.1087 0.70138 0.0
C1278 C 0.23597 0.12304 0.70062 0.0
H1279 H 0.20949 0.0854 0.7056 0.0
O1280 O 0.32242 0.151 0.71595 0.0
O1281 O 0.34943 0.15903 0.6818 0.0
O1282 O 0.31873 0.12745 0.66235 0.0
O1283 O 0.2922 0.13578 0.67617 0.0
O1284 O 0.33169 0.13448 0.69867 0.0
O1285 O 0.33221 0.18843 0.71167 0.0
O1286 O 0.34787 0.17445 0.63389 0.0
O1287 O 0.32363 0.17101 0.66875 0.0
O1288 O 0.35261 0.20049 0.68948 0.0
O1289 O 0.37817 0.19672 0.6714 0.0
O1290 O 0.34281 0.19475 0.65156 0.0
O1291 O 0.33272 0.13667 0.64015 0.0
C1292 C 0.34971 0.14227 0.68916 0.0
C1293 C 0.219 0.13149 0.7011 0.0
C1294 C 0.22731 0.15632 0.6993 0.0
C1295 C 0.32891 0.17225 0.7219 0.0
C1296 C 0.31547 0.17208 0.73565 0.0
C1297 C 0.28973 0.16257 0.73517 0.0
C1298 C 0.32832 0.18141 0.74939 0.0
C1299 C 0.31548 0.18161 0.76247 0.0
C1300 C 0.27694 0.16262 0.74808 0.0
C1301 C 0.28969 0.17214 0.76165 0.0
C1302 C 0.29624 0.12197 0.66674 0.0
C1303 C 0.32592 0.18918 0.66164 0.0
C1304 C 0.33737 0.15201 0.62916 0.0
C1305 C 0.34714 0.14755 0.61511 0.0
C1306 C 0.36402 0.13897 0.61547 0.0
C1307 C 0.33887 0.15127 0.60111 0.0
C1308 C 0.34688 0.14592 0.5875 0.0
C1309 C 0.37211 0.13373 0.60197 0.0
C1310 C 0.36346 0.13699 0.58805 0.0
C1311 C 0.37423 0.20872 0.68238 0.0
H1312 H 0.27948 0.15501 0.72488 0.0
H1313 H 0.34823 0.18881 0.74984 0.0
H1314 H 0.25706 0.15522 0.74757 0.0
H1315 H 0.27934 0.17185 0.77157 0.0
H1316 H 0.37074 0.1361 0.62613 0.0
H1317 H 0.32578 0.15783 0.60082 0.0
H1318 H 0.38503 0.12702 0.6023 0.0
H1319 H 0.36994 0.13281 0.5777 0.0
Gd1320 Gd 0.83154 0.17909 0.65555 0.0
Gd1321 Gd 0.85249 0.15884 0.68933 0.0
C1322 C 0.92255 0.15276 0.69172 0.0
C1323 C 0.90557 0.109 0.69267 0.0
C1324 C 0.87807 0.12585 0.69143 0.0
C1325 C 0.89827 0.14907 0.69083 0.0
C1326 C 0.88144 0.10554 0.69265 0.0
C1327 C 0.92609 0.13258 0.69227 0.0
C1328 C 0.94247 0.1766 0.6926 0.0
C1329 C 0.93782 0.19593 0.69324 0.0
N1330 N 0.89412 0.16811 0.69063 0.0
C1331 C 0.91338 0.19128 0.69254 0.0
H1332 H 0.91005 0.20636 0.69318 0.0
C1333 C 0.8347 0.10096 0.69415 0.0
N1334 N 0.85509 0.12325 0.69171 0.0
C1335 C 0.83706 0.08023 0.6953 0.0
C1336 C 0.86051 0.08248 0.69432 0.0
H1337 H 0.81648 0.09903 0.6948 0.0
H1338 H 0.94461 0.13505 0.69277 0.0
H1339 H 0.7754 0.12854 0.65472 0.0
H1340 H 0.96141 0.18022 0.69324 0.0
H1341 H 0.95305 0.21442 0.69431 0.0
H1342 H 0.90855 0.09362 0.69347 0.0
H1343 H 0.86357 0.23886 0.64927 0.0
H1344 H 0.71998 0.14956 0.65502 0.0
H1345 H 0.73143 0.11743 0.65492 0.0
H1346 H 0.76746 0.23652 0.65165 0.0
H1347 H 0.82079 0.06253 0.69686 0.0
H1348 H 0.8623 0.0664 0.69526 0.0
H1349 H 0.73361 0.19409 0.6539 0.0
H1350 H 0.85586 0.27333 0.64688 0.0
N1351 N 0.78898 0.1667 0.65514 0.0
C1352 C 0.73937 0.15457 0.65491 0.0
C1353 C 0.74576 0.13639 0.65483 0.0
C1354 C 0.75808 0.179 0.65449 0.0
C1355 C 0.78304 0.18452 0.65451 0.0
C1356 C 0.77078 0.1428 0.65472 0.0
N1357 N 0.82563 0.21271 0.6529 0.0
C1358 C 0.80199 0.20831 0.65336 0.0
C1359 C 0.84054 0.25514 0.64875 0.0
C1360 C 0.81636 0.25104 0.64985 0.0
C1361 C 0.84483 0.2356 0.65009 0.0
C1362 C 0.79667 0.22737 0.65202 0.0
H1363 H 0.81306 0.26619 0.64876 0.0
O1364 O 0.85029 0.19227 0.63401 0.0
O1365 O 0.86109 0.17402 0.66604 0.0
O1366 O 0.86801 0.19991 0.68889 0.0
O1367 O 0.84075 0.2067 0.67409 0.0
O1368 O 0.87265 0.20411 0.65226 0.0
O1369 O 0.81551 0.15811 0.63503 0.0
O1370 O 0.83428 0.14586 0.71106 0.0
O1371 O 0.82376 0.16519 0.67902 0.0
O1372 O 0.81858 0.13865 0.65557 0.0
O1373 O 0.84682 0.13308 0.66999 0.0
O1374 O 0.81086 0.13492 0.69232 0.0
O1375 O 0.86815 0.18065 0.70968 0.0
C1376 C 0.87995 0.19215 0.6605 0.0
C1377 C 0.77192 0.22211 0.65252 0.0
C1378 C 0.75265 0.19795 0.65379 0.0
C1379 C 0.83308 0.17399 0.62639 0.0
C1380 C 0.82552 0.1797 0.61194 0.0
C1381 C 0.80733 0.18654 0.61122 0.0
C1382 C 0.83686 0.17817 0.5986 0.0
C1383 C 0.83021 0.18342 0.58445 0.0
C1384 C 0.8005 0.19167 0.59722 0.0
C1385 C 0.8118 0.1901 0.5839 0.0
C1386 C 0.85856 0.2136 0.68439 0.0
C1387 C 0.80431 0.14785 0.68447 0.0
C1388 C 0.85136 0.16444 0.71857 0.0
C1389 C 0.86033 0.1588 0.73257 0.0
C1390 C 0.87869 0.15216 0.73199 0.0
C1391 C 0.84998 0.15938 0.74664 0.0
C1392 C 0.85762 0.15288 0.76001 0.0
C1393 C 0.88654 0.14602 0.74522 0.0
C1394 C 0.87603 0.14625 0.75913 0.0
C1395 C 0.83063 0.1269 0.65872 0.0
H1396 H 0.79845 0.18785 0.62142 0.0
H1397 H 0.85069 0.17257 0.59925 0.0
H1398 H 0.78646 0.19696 0.59668 0.0
H1399 H 0.8064 0.19448 0.57321 0.0
H1400 H 0.88687 0.15162 0.72132 0.0
H1401 H 0.83559 0.16425 0.74712 0.0
H1402 H 0.90071 0.14091 0.74468 0.0
H1403 H 0.88235 0.1413 0.76924 0.0
H1404 H 0.33439 0.89575 0.05653 0.0
H1405 H 0.34788 0.83541 0.0509 0.0
H1406 H 0.38646 0.86211 0.03703 0.0
H1407 H 0.3578 0.92285 0.01955 0.0
H1408 H 0.37146 0.9536 0.02657 0.0
H1409 H 0.34446 0.92958 0.03567 0.0
H1410 H 0.36796 0.94077 0.06141 0.0
H1411 H 0.39491 0.96486 0.05236 0.0
H1412 H 0.39737 0.94178 0.06278 0.0
H1413 H 0.4246 0.89577 0.0249 0.0
H1414 H 0.45972 0.9342 0.01562 0.0
H1415 H 0.42096 0.97243 0.02824 0.0
C1416 C 0.34554 0.88822 0.05243 0.0
C1417 C 0.33812 0.86349 0.05477 0.0
C1418 C 0.35308 0.85424 0.0491 0.0
C1419 C 0.37503 0.86925 0.04122 0.0
C1420 C 0.38171 0.89348 0.039 0.0
C1421 C 0.36742 0.90292 0.04441 0.0
C1422 C 0.37902 0.92969 0.04065 0.0
C1423 C 0.36217 0.93418 0.02998 0.0
C1424 C 0.38518 0.94518 0.05516 0.0
C1425 C 0.40232 0.93392 0.03262 0.0
C1426 C 0.40344 0.91276 0.03169 0.0
C1427 C 0.42375 0.91237 0.02536 0.0
C1428 C 0.44355 0.93426 0.02003 0.0
C1429 C 0.44272 0.95612 0.02082 0.0
C1430 C 0.42179 0.95585 0.02719 0.0
H1431 H 0.10883 0.43342 0.05467 0.0
H1432 H 0.1703 0.50593 0.04609 0.0
H1433 H 0.14169 0.51674 0.03349 0.0
H1434 H 0.07601 0.42751 0.01897 0.0
H1435 H 0.04576 0.41112 0.02748 0.0
H1436 H 0.07117 0.40857 0.03524 0.0
H1437 H 0.064 0.42226 0.06155 0.0
H1438 H 0.03855 0.42478 0.05388 0.0
H1439 H 0.06391 0.45054 0.06322 0.0
H1440 H 0.10616 0.52062 0.02337 0.0
H1441 H 0.06632 0.51684 0.01569 0.0
H1442 H 0.02767 0.44157 0.03004 0.0
C1443 C 0.11625 0.45156 0.05013 0.0
C1444 C 0.14185 0.46882 0.05135 0.0
C1445 C 0.15085 0.49231 0.04514 0.0
C1446 C 0.13472 0.49865 0.038 0.0
C1447 C 0.10963 0.48126 0.03704 0.0
C1448 C 0.10042 0.45814 0.04284 0.0
C1449 C 0.07258 0.44301 0.04046 0.0
C1450 C 0.066 0.42126 0.02991 0.0
C1451 C 0.05896 0.43466 0.05568 0.0
C1452 C 0.06749 0.46144 0.03283 0.0
C1453 C 0.08917 0.48334 0.03088 0.0
C1454 C 0.08913 0.50343 0.02462 0.0
C1455 C 0.06637 0.50107 0.0202 0.0
C1456 C 0.04397 0.47869 0.0218 0.0
C1457 C 0.04459 0.45873 0.02836 0.0
H1458 H 0.5548 0.66061 0.07476 0.0
H1459 H 0.51198 0.68282 0.04682 0.0
H1460 H 0.4998 0.64749 0.03025 0.0
H1461 H 0.57854 0.64181 0.04317 0.0
H1462 H 0.57753 0.61663 0.0532 0.0
H1463 H 0.58215 0.64316 0.06348 0.0
H1464 H 0.54419 0.61601 0.08029 0.0
H1465 H 0.53944 0.58943 0.07003 0.0
H1466 H 0.51461 0.59618 0.07147 0.0
H1467 H 0.49059 0.6089 0.01724 0.0
H1468 H 0.48781 0.57132 0.00746 0.0
H1469 H 0.54034 0.57644 0.04179 0.0
C1470 C 0.54304 0.65825 0.06511 0.0
C1471 C 0.53402 0.67447 0.0624 0.0
C1472 C 0.51854 0.67039 0.04959 0.0
C1473 C 0.51167 0.65044 0.03995 0.0
C1474 C 0.52073 0.63483 0.04303 0.0
C1475 C 0.53631 0.63862 0.05517 0.0
C1476 C 0.54401 0.6194 0.0556 0.0
C1477 C 0.57223 0.63095 0.05375 0.0
C1478 C 0.53502 0.60437 0.07022 0.0
C1479 C 0.53022 0.60425 0.04184 0.0
C1480 C 0.5167 0.61336 0.03487 0.0
C1481 C 0.5015 0.60186 0.0224 0.0
C1482 C 0.5002 0.58056 0.01684 0.0
C1483 C 0.51444 0.5712 0.02347 0.0
C1484 C 0.52958 0.58329 0.0362 0.0
H1485 H 0.88333 0.34273 0.93761 0.0
H1486 H 0.85628 0.29439 0.97629 0.0
H1487 H 0.88422 0.32814 0.99312 0.0
H1488 H 0.94807 0.37839 0.9506 0.0
H1489 H 0.95197 0.40671 0.94354 0.0
H1490 H 0.93066 0.37849 0.93427 0.0
H1491 H 0.8953 0.38839 0.9377 0.0
H1492 H 0.91651 0.41653 0.94705 0.0
H1493 H 0.88837 0.39482 0.9564 0.0
H1494 H 0.91357 0.36687 0.00598 0.0
H1495 H 0.94388 0.40864 0.01403 0.0
H1496 H 0.95232 0.43277 0.96747 0.0
C1497 C 0.8836 0.33924 0.94959 0.0
C1498 C 0.86748 0.31595 0.95566 0.0
C1499 C 0.86818 0.31214 0.97142 0.0
C1500 C 0.88408 0.33116 0.98107 0.0
C1501 C 0.89931 0.35396 0.97482 0.0
C1502 C 0.8994 0.35815 0.95945 0.0
C1503 C 0.91728 0.38468 0.95583 0.0
C1504 C 0.93824 0.38721 0.94545 0.0
C1505 C 0.90353 0.39681 0.94883 0.0
C1506 C 0.92698 0.39465 0.97158 0.0
C1507 C 0.91632 0.37656 0.98233 0.0
C1508 C 0.92193 0.38124 0.99769 0.0
C1509 C 0.93885 0.4051 1.00221 0.0
C1510 C 0.9498 0.42396 0.99146 0.0
C1511 C 0.94404 0.41861 0.97592 0.0
H1512 H 0.67734 0.56999 0.95886 0.0
H1513 H 0.6665 0.49823 0.96821 0.0
H1514 H 0.62722 0.48722 0.98117 0.0
H1515 H 0.65133 0.5765 0.99471 0.0
H1516 H 0.63699 0.59214 0.98611 0.0
H1517 H 0.66498 0.59498 0.97817 0.0
H1518 H 0.643 0.58013 0.95212 0.0
H1519 H 0.61501 0.57729 0.95999 0.0
H1520 H 0.61436 0.5515 0.95091 0.0
H1521 H 0.5879 0.48289 0.99152 0.0
H1522 H 0.55162 0.48595 0.99928 0.0
H1523 H 0.58782 0.5608 0.98413 0.0
C1524 C 0.6667 0.55198 0.96365 0.0
C1525 C 0.67508 0.53499 0.96256 0.0
C1526 C 0.66067 0.51166 0.96908 0.0
C1527 C 0.63828 0.5052 0.97642 0.0
C1528 C 0.63054 0.52232 0.97728 0.0
C1529 C 0.64434 0.54528 0.97117 0.0
C1530 C 0.63152 0.56006 0.97349 0.0
C1531 C 0.64715 0.58224 0.98373 0.0
C1532 C 0.62562 0.56769 0.95822 0.0
C1533 C 0.60807 0.54157 0.98145 0.0
C1534 C 0.608 0.51998 0.9836 0.0
C1535 C 0.58794 0.49984 0.99012 0.0
C1536 C 0.56742 0.5018 0.99458 0.0
C1537 C 0.5672 0.52386 0.99278 0.0
C1538 C 0.58775 0.54391 0.98598 0.0
H1539 H 0.45362 0.13073 0.97285 0.0
H1540 H 0.47832 0.12712 0.92742 0.0
H1541 H 0.49053 0.09781 0.93617 0.0
H1542 H 0.50312 0.12689 0.99279 0.0
H1543 H 0.48321 0.10834 0.00784 0.0
H1544 H 0.47667 0.12955 0.99825 0.0
H1545 H 0.43241 0.09464 0.99174 0.0
H1546 H 0.43878 0.07336 1.00136 0.0
H1547 H 0.4286 0.06805 0.98188 0.0
H1548 H 0.49918 0.06854 0.94928 0.0
H1549 H 0.50338 0.04002 0.96621 0.0
H1550 H 0.47417 0.06242 1.00357 0.0
C1551 C 0.46183 0.12396 0.96478 0.0
C1552 C 0.46482 0.13114 0.94939 0.0
C1553 C 0.47538 0.1216 0.93917 0.0
C1554 C 0.4826 0.1051 0.94407 0.0
C1555 C 0.47932 0.09838 0.95925 0.0
C1556 C 0.46925 0.10746 0.9695 0.0
C1557 C 0.46733 0.09669 0.98513 0.0
C1558 C 0.48355 0.11656 0.99668 0.0
C1559 C 0.44016 0.08233 0.99033 0.0
C1560 C 0.47763 0.07992 0.98197 0.0
C1561 C 0.48449 0.08135 0.96694 0.0
C1562 C 0.49387 0.06725 0.96105 0.0
C1563 C 0.496 0.05098 0.9707 0.0
C1564 C 0.48876 0.04889 0.98604 0.0
C1565 C 0.47986 0.06382 0.99186 0.0
H1566 H 0.67229 0.0967 0.95486 0.0
H1567 H 0.66047 0.15811 0.96049 0.0
H1568 H 0.62202 0.13216 0.97463 0.0
H1569 H 0.60946 0.05219 0.94851 0.0
H1570 H 0.61091 0.02847 0.95882 0.0
H1571 H 0.63839 0.05228 0.95006 0.0
H1572 H 0.66129 0.06242 0.97598 0.0
H1573 H 0.63374 0.03865 0.98479 0.0
H1574 H 0.648 0.06931 0.99206 0.0
H1575 H 0.58321 0.09896 0.98625 0.0
H1576 H 0.54684 0.06086 0.99439 0.0
H1577 H 0.58401 0.02092 0.9823 0.0
C1578 C 0.66162 0.10468 0.95909 0.0
C1579 C 0.66949 0.1295 0.95662 0.0
C1580 C 0.65504 0.13926 0.96242 0.0
C1581 C 0.63314 0.12465 0.97045 0.0
C1582 C 0.62596 0.10031 0.97272 0.0
C1583 C 0.63977 0.09037 0.96725 0.0
C1584 C 0.62739 0.06345 0.97081 0.0
C1585 C 0.62117 0.04821 0.95618 0.0
C1586 C 0.64358 0.05816 0.98155 0.0
C1587 C 0.60413 0.05969 0.97869 0.0
C1588 C 0.60379 0.08123 0.9798 0.0
C1589 C 0.58352 0.08208 0.98574 0.0
C1590 C 0.56293 0.06029 0.99049 0.0
C1591 C 0.56288 0.03799 0.98954 0.0
C1592 C 0.58385 0.03782 0.98359 0.0
H1593 H 0.86216 0.50585 0.96189 0.0
H1594 H 0.90139 0.58471 0.96188 0.0
H1595 H 0.93699 0.58547 0.97475 0.0
H1596 H 0.88503 0.49821 0.99819 0.0
H1597 H 0.88953 0.47337 0.99239 0.0
H1598 H 0.86551 0.47732 0.98375 0.0
H1599 H 0.88257 0.47955 0.95705 0.0
H1600 H 0.90592 0.47395 0.96497 0.0
H1601 H 0.9149 0.50028 0.95329 0.0
H1602 H 0.96975 0.5783 0.9845 0.0
H1603 H 0.99837 0.56347 0.99113 0.0
H1604 H 0.93866 0.48899 0.98618 0.0
C1605 C 0.87811 0.5232 0.96489 0.0
C1606 C 0.87908 0.54527 0.96099 0.0
C1607 C 0.90038 0.56767 0.96477 0.0
C1608 C 0.9206 0.56826 0.97214 0.0
C1609 C 0.91931 0.54628 0.97565 0.0
C1610 C 0.89871 0.52413 0.97214 0.0
C1611 C 0.90307 0.5033 0.97621 0.0
C1612 C 0.88471 0.48707 0.98837 0.0
C1613 C 0.90153 0.4884 0.96204 0.0
C1614 C 0.92944 0.51726 0.98237 0.0
C1615 C 0.93831 0.54206 0.9819 0.0
C1616 C 0.96288 0.55896 0.98533 0.0
C1617 C 0.97898 0.5504 0.98908 0.0
C1618 C 0.97041 0.52518 0.98977 0.0
C1619 C 0.94527 0.50833 0.98648 0.0
H1620 H 0.46676 0.34734 0.94857 0.0
H1621 H 0.45755 0.30428 0.98874 0.0
H1622 H 0.46646 0.33958 1.00482 0.0
H1623 H 0.51613 0.4036 0.96246 0.0
H1624 H 0.50495 0.42193 0.9537 0.0
H1625 H 0.49799 0.39332 0.94527 0.0
H1626 H 0.45101 0.37892 0.94616 0.0
H1627 H 0.45788 0.40753 0.95457 0.0
H1628 H 0.43707 0.37943 0.96394 0.0
H1629 H 0.47711 0.37964 0.01655 0.0
H1630 H 0.48762 0.42155 0.02309 0.0
H1631 H 0.48829 0.43806 0.97543 0.0
C1632 C 0.46629 0.34517 0.96074 0.0
C1633 C 0.46158 0.32299 0.96736 0.0
C1634 C 0.46157 0.32117 0.98336 0.0
C1635 C 0.46642 0.34107 0.99261 0.0
C1636 C 0.47105 0.36262 0.98571 0.0
C1637 C 0.47088 0.36477 0.97015 0.0
C1638 C 0.47638 0.38998 0.9656 0.0
C1639 C 0.50029 0.40297 0.9562 0.0
C1640 C 0.45426 0.38889 0.95707 0.0
C1641 C 0.4798 0.40168 0.98105 0.0
C1642 C 0.47674 0.38561 0.99249 0.0
C1643 C 0.47956 0.3924 0.0077 0.0
C1644 C 0.48579 0.4163 0.01131 0.0
C1645 C 0.48904 0.43305 0.99978 0.0
C1646 C 0.48575 0.42553 0.98447 0.0
H1647 H 0.12023 0.65209 0.06744 0.0
H1648 H 0.15006 0.69738 0.02756 0.0
H1649 H 0.12205 0.66272 0.01136 0.0
H1650 H 0.11326 0.59783 0.05142 0.0
H1651 H 0.08437 0.57786 0.06072 0.0
H1652 H 0.10615 0.60643 0.0694 0.0
H1653 H 0.07217 0.6186 0.07072 0.0
H1654 H 0.05026 0.58999 0.0621 0.0
H1655 H 0.05591 0.61813 0.05368 0.0
H1656 H 0.09282 0.62293 0.99932 0.0
H1657 H 0.0624 0.58059 0.99231 0.0
H1658 H 0.04993 0.56116 0.03978 0.0
C1659 C 0.12059 0.65484 0.05533 0.0
C1660 C 0.13758 0.67746 0.04879 0.0
C1661 C 0.13762 0.68015 0.03284 0.0
C1662 C 0.12164 0.66061 0.02353 0.0
C1663 C 0.10547 0.63852 0.03031 0.0
C1664 C 0.1046 0.63553 0.04584 0.0
C1665 C 0.08567 0.60967 0.05016 0.0
C1666 C 0.09812 0.59722 0.05841 0.0
C1667 C 0.06476 0.60907 0.05973 0.0
C1668 C 0.07633 0.59858 0.03461 0.0
C1669 C 0.08807 0.61556 0.02334 0.0
C1670 C 0.0834 0.60949 0.00804 0.0
C1671 C 0.06632 0.58537 1.00415 0.0
C1672 C 0.05409 0.5677 0.01549 0.0
C1673 C 0.05894 0.57446 0.03091 0.0
H1674 H 0.35476 0.49226 0.0477 0.0
H1675 H 0.31555 0.41355 0.05063 0.0
H1676 H 0.35028 0.41266 0.03787 0.0
H1677 H 0.38507 0.49684 0.01072 0.0
H1678 H 0.41418 0.52305 0.01614 0.0
H1679 H 0.3855 0.51858 0.02404 0.0
H1680 H 0.40133 0.52031 0.05124 0.0
H1681 H 0.43056 0.52589 0.04374 0.0
H1682 H 0.41347 0.50081 0.05645 0.0
H1683 H 0.39053 0.42001 0.02842 0.0
H1684 H 0.43467 0.43539 0.02269 0.0
H1685 H 0.44875 0.50944 0.02456 0.0
C1686 C 0.35333 0.47486 0.0453 0.0
C1687 C 0.33245 0.45293 0.0501 0.0
C1688 C 0.33142 0.43053 0.04709 0.0
C1689 C 0.35097 0.42984 0.03975 0.0
C1690 C 0.37149 0.45172 0.03541 0.0
C1691 C 0.3729 0.47386 0.03803 0.0
C1692 C 0.39814 0.49472 0.03341 0.0
C1693 C 0.39558 0.50916 0.02029 0.0
C1694 C 0.41167 0.51141 0.04702 0.0
C1695 C 0.41089 0.48082 0.0283 0.0
C1696 C 0.39497 0.456 0.02943 0.0
C1697 C 0.40299 0.43933 0.02706 0.0
C1698 C 0.42804 0.44819 0.02381 0.0
C1699 C 0.44473 0.47345 0.02262 0.0
C1700 C 0.43602 0.49 0.02468 0.0
H1701 H 0.54417 0.88833 0.07376 0.0
H1702 H 0.55537 0.85126 0.0358 0.0
H1703 H 0.5495 0.87785 0.01806 0.0
H1704 H 0.49667 0.89579 0.05665 0.0
H1705 H 0.50699 0.92559 0.06454 0.0
H1706 H 0.51327 0.90448 0.07443 0.0
H1707 H 0.56023 0.93623 0.07464 0.0
H1708 H 0.55403 0.95744 0.06474 0.0
H1709 H 0.57571 0.94929 0.05702 0.0
H1710 H 0.5407 0.90685 1.00436 0.0
H1711 H 0.52967 0.93701 0.99554 0.0
H1712 H 0.52431 0.95591 0.04205 0.0
C1713 C 0.54573 0.88607 0.06172 0.0
C1714 C 0.55008 0.8676 0.05616 0.0
C1715 C 0.55168 0.86501 0.04032 0.0
C1716 C 0.54855 0.88014 0.03014 0.0
C1717 C 0.54396 0.89791 0.03596 0.0
C1718 C 0.54262 0.90106 0.05136 0.0
C1719 C 0.53664 0.92109 0.05453 0.0
C1720 C 0.51192 0.91113 0.06304 0.0
C1721 C 0.55792 0.94227 0.06325 0.0
C1722 C 0.53456 0.92843 0.0385 0.0
C1723 C 0.53893 0.91484 0.02799 0.0
C1724 C 0.53727 0.91764 0.01248 0.0
C1725 C 0.53072 0.93463 0.00755 0.0
C1726 C 0.52586 0.94856 0.01806 0.0
C1727 C 0.52817 0.94564 0.03375 0.0
H1728 H 0.99862 0.23505 0.3836 0.0
H1729 H 0.00997 0.17335 0.37825 0.0
H1730 H 0.04996 0.19977 0.36554 0.0
H1731 H 0.02791 0.26498 0.34736 0.0
H1732 H 0.04121 0.29497 0.35558 0.0
H1733 H 0.01229 0.27065 0.36267 0.0
H1734 H 0.03101 0.27835 0.38978 0.0
H1735 H 0.0599 0.30263 0.38277 0.0
H1736 H 0.05937 0.27782 0.39296 0.0
H1737 H 0.0909 0.23397 0.35619 0.0
H1738 H 0.12873 0.2729 0.3504 0.0
H1739 H 0.09012 0.31192 0.36126 0.0
C1740 C 0.00941 0.22705 0.37962 0.0
C1741 C 1.00121 0.20215 0.3819 0.0
C1742 C 0.01578 0.19232 0.37646 0.0
C1743 C 0.03852 0.20719 0.36926 0.0
C1744 C 0.04626 0.23177 0.36741 0.0
C1745 C 0.03201 0.24157 0.37231 0.0
C1746 C 0.04505 0.26874 0.36969 0.0
C1747 C 0.03076 0.27521 0.35814 0.0
C1748 C 0.04907 0.28269 0.3847 0.0
C1749 C 0.0693 0.27289 0.36317 0.0
C1750 C 0.06957 0.25132 0.36174 0.0
C1751 C 0.09067 0.25088 0.35693 0.0
C1752 C 0.11204 0.27305 0.35359 0.0
C1753 C 0.11199 0.29526 0.35491 0.0
C1754 C 0.09035 0.29508 0.35977 0.0
H1755 H 0.77902 0.77544 0.38731 0.0
H1756 H 0.83889 0.85041 0.38675 0.0
H1757 H 0.81061 0.86287 0.37536 0.0
H1758 H 0.75158 0.77779 0.35144 0.0
H1759 H 0.72013 0.75821 0.3576 0.0
H1760 H 0.74498 0.75487 0.36552 0.0
H1761 H 0.73275 0.76047 0.39259 0.0
H1762 H 0.70761 0.76349 0.38491 0.0
H1763 H 0.73043 0.78701 0.397 0.0
H1764 H 0.77483 0.86747 0.36579 0.0
H1765 H 0.73517 0.86336 0.35706 0.0
H1766 H 0.69918 0.78523 0.36264 0.0
C1767 C 0.78616 0.79447 0.38479 0.0
C1768 C 0.81114 0.81198 0.38796 0.0
C1769 C 0.81987 0.83668 0.38432 0.0
C1770 C 0.80393 0.84393 0.37791 0.0
C1771 C 0.77936 0.82623 0.37504 0.0
C1772 C 0.77058 0.80198 0.37822 0.0
C1773 C 0.74342 0.78656 0.37399 0.0
C1774 C 0.73982 0.76828 0.36138 0.0
C1775 C 0.72763 0.77363 0.38796 0.0
C1776 C 0.73812 0.80597 0.36824 0.0
C1777 C 0.75908 0.82876 0.36896 0.0
C1778 C 0.75844 0.84966 0.36492 0.0
C1779 C 0.73587 0.84715 0.35986 0.0
C1780 C 0.71439 0.82389 0.35861 0.0
C1781 C 0.71552 0.80315 0.36309 0.0
H1782 H 0.22414 0.99792 0.39705 0.0
H1783 H 0.16187 0.00366 0.37981 0.0
H1784 H 0.14689 0.96509 0.36584 0.0
H1785 H 0.23513 0.97335 0.36356 0.0
H1786 H 0.24256 0.95294 0.37337 0.0
H1787 H 0.24827 0.98079 0.38236 0.0
H1788 H 0.22145 0.95642 0.40527 0.0
H1789 H 0.21577 0.92849 0.39637 0.0
H1790 H 0.19007 0.9322 0.40209 0.0
H1791 H 0.13889 0.92639 0.35348 0.0
H1792 H 0.13798 0.8895 0.34386 0.0
H1793 H 0.20539 0.90868 0.36912 0.0
C1794 C 0.2072 0.99091 0.39048 0.0
C1795 C 0.19427 0.00389 0.38945 0.0
C1796 C 0.17231 0.99424 0.38058 0.0
C1797 C 0.16356 0.97228 0.37267 0.0
C1798 C 0.1769 0.96011 0.37378 0.0
C1799 C 0.19817 0.96897 0.38251 0.0
C1800 C 0.20911 0.95236 0.38163 0.0
C1801 C 0.23532 0.96566 0.37482 0.0
C1802 C 0.20909 0.94174 0.39727 0.0
C1803 C 0.19076 0.93294 0.37095 0.0
C1804 C 0.17231 0.93774 0.3666 0.0
C1805 C 0.15326 0.92244 0.35678 0.0
C1806 C 0.15301 0.90159 0.3513 0.0
C1807 C 0.17176 0.89629 0.35559 0.0
C1808 C 0.19083 0.91223 0.36557 0.0
H1809 H 0.5269 0.67177 0.29825 0.0
H1810 H 0.57743 0.65288 0.27633 0.0
H1811 H 0.61303 0.68976 0.28711 0.0
H1812 H 0.56306 0.73576 0.29279 0.0
H1813 H 0.55562 0.74358 0.31091 0.0
H1814 H 0.53401 0.71537 0.3018 0.0
H1815 H 0.53395 0.69133 0.3256 0.0
H1816 H 0.55511 0.71972 0.33468 0.0
H1817 H 0.56307 0.69613 0.33308 0.0
H1818 H 0.64311 0.72924 0.29948 0.0
H1819 H 0.66574 0.76872 0.31272 0.0
H1820 H 0.59568 0.76148 0.32718 0.0
C1821 C 0.54544 0.67523 0.29587 0.0
C1822 C 0.54936 0.65946 0.28639 0.0
C1823 C 0.57396 0.66486 0.28337 0.0
C1824 C 0.5943 0.68567 0.28953 0.0
C1825 C 0.58978 0.70087 0.29874 0.0
C1826 C 0.56598 0.69591 0.30194 0.0
C1827 C 0.56628 0.71552 0.31193 0.0
C1828 C 0.55402 0.72831 0.30387 0.0
C1829 C 0.55388 0.70503 0.32723 0.0
C1830 C 0.59396 0.73234 0.31375 0.0
C1831 C 0.60717 0.72352 0.30606 0.0
C1832 C 0.63299 0.73626 0.30563 0.0
C1833 C 0.64568 0.75871 0.31318 0.0
C1834 C 0.63253 0.76817 0.32108 0.0
C1835 C 0.60632 0.75463 0.32143 0.0
H1836 H 0.33864 0.90464 0.29222 0.0
H1837 H 0.33346 0.83569 0.30335 0.0
H1838 H 0.29414 0.82305 0.31669 0.0
H1839 H 0.3122 0.91139 0.32783 0.0
H1840 H 0.29575 0.92455 0.31873 0.0
H1841 H 0.32432 0.9289 0.31076 0.0
H1842 H 0.30189 0.911 0.28515 0.0
H1843 H 0.27334 0.90665 0.29307 0.0
H1844 H 0.27452 0.88127 0.28477 0.0
H1845 H 0.25408 0.8166 0.32732 0.0
H1846 H 0.21617 0.81701 0.33465 0.0
H1847 H 0.24711 0.89035 0.31743 0.0
C1848 C 0.32924 0.8869 0.29748 0.0
C1849 C 0.33929 0.87122 0.2968 0.0
C1850 C 0.32642 0.8482 0.30391 0.0
C1851 C 0.30399 0.8408 0.31148 0.0
C1852 C 0.29464 0.85666 0.31196 0.0
C1853 C 0.30685 0.87926 0.3052 0.0
C1854 C 0.29236 0.89251 0.30708 0.0
C1855 C 0.30704 0.91571 0.31667 0.0
C1856 C 0.2851 0.89818 0.2916 0.0
C1857 C 0.26981 0.87355 0.31557 0.0
C1858 C 0.27163 0.85309 0.31836 0.0
C1859 C 0.25265 0.83269 0.32541 0.0
C1860 C 0.23118 0.83314 0.32963 0.0
C1861 C 0.22895 0.85398 0.32705 0.0
C1862 C 0.24856 0.8744 0.31988 0.0
H1863 H 0.09318 0.42732 0.28355 0.0
H1864 H 0.13339 0.49311 0.31059 0.0
H1865 H 0.15128 0.47342 0.326 0.0
H1866 H 0.07922 0.38488 0.31445 0.0
H1867 H 0.08355 0.36345 0.30331 0.0
H1868 H 0.07338 0.38243 0.29433 0.0
H1869 H 0.11038 0.39842 0.27574 0.0
H1870 H 0.12063 0.37946 0.28466 0.0
H1871 H 0.1415 0.41176 0.28317 0.0
H1872 H 0.16611 0.44788 0.33783 0.0
H1873 H 0.17657 0.41719 0.34598 0.0
H1874 H 0.12604 0.36681 0.3121 0.0
C1875 C 0.10574 0.4375 0.29272 0.0
C1876 C 0.11166 0.46164 0.296 0.0
C1877 C 0.12819 0.47444 0.30808 0.0
C1878 C 0.13858 0.46348 0.31684 0.0
C1879 C 0.13227 0.43968 0.31342 0.0
C1880 C 0.11623 0.42674 0.3017 0.0
C1881 C 0.11278 0.40138 0.3005 0.0
C1882 C 0.08562 0.38189 0.30332 0.0
C1883 C 0.12187 0.39754 0.2851 0.0
C1884 C 0.1295 0.40226 0.31332 0.0
C1885 C 0.14055 0.42457 0.32055 0.0
C1886 C 0.15734 0.43019 0.3324 0.0
C1887 C 0.16303 0.4125 0.33702 0.0
C1888 C 0.15177 0.38931 0.32994 0.0
C1889 C 0.13476 0.3842 0.3179 0.0
H1890 H 0.34466 0.4416 0.29616 0.0
H1891 H 0.33377 0.50326 0.30339 0.0
H1892 H 0.2949 0.47679 0.31713 0.0
H1893 H 0.28314 0.399 0.2883 0.0
H1894 H 0.28339 0.37406 0.29784 0.0
H1895 H 0.31168 0.3984 0.29023 0.0
H1896 H 0.33257 0.40577 0.3167 0.0
H1897 H 0.30422 0.38139 0.32437 0.0
H1898 H 0.31824 0.41128 0.3328 0.0
H1899 H 0.25478 0.44261 0.3273 0.0
H1900 H 0.2172 0.40368 0.3333 0.0
H1901 H 0.25482 0.36461 0.32018 0.0
C1902 C 0.33421 0.44957 0.30076 0.0
C1903 C 0.34225 0.47449 0.29872 0.0
C1904 C 0.32813 0.48428 0.30498 0.0
C1905 C 0.30601 0.46938 0.31278 0.0
C1906 C 0.29844 0.44481 0.3144 0.0
C1907 C 0.31223 0.43502 0.30866 0.0
C1908 C 0.29935 0.40782 0.31114 0.0
C1909 C 0.29408 0.39402 0.29598 0.0
C1910 C 0.3145 0.40118 0.32189 0.0
C1911 C 0.27569 0.40367 0.31859 0.0
C1912 C 0.27561 0.42524 0.32056 0.0
C1913 C 0.25489 0.42569 0.32615 0.0
C1914 C 0.23365 0.40349 0.32962 0.0
C1915 C 0.23345 0.38125 0.32768 0.0
C1916 C 0.25479 0.38145 0.32217 0.0
H1917 H 0.5663 0.90202 0.2909 0.0
H1918 H 0.50612 0.82718 0.2913 0.0
H1919 H 0.5341 0.81443 0.30275 0.0
H1920 H 0.61491 0.88995 0.28149 0.0
H1921 H 0.63763 0.9134 0.29366 0.0
H1922 H 0.61273 0.91661 0.28576 0.0
H1923 H 0.60012 0.92231 0.31273 0.0
H1924 H 0.62477 0.91882 0.32082 0.0
H1925 H 0.59323 0.89937 0.32686 0.0
H1926 H 0.56943 0.80954 0.3128 0.0
H1927 H 0.60883 0.81332 0.3218 0.0
H1928 H 0.6455 0.89145 0.31602 0.0
C1929 C 0.55906 0.88295 0.29336 0.0
C1930 C 0.53403 0.86557 0.29018 0.0
C1931 C 0.52517 0.84082 0.29374 0.0
C1932 C 0.54094 0.8334 0.3002 0.0
C1933 C 0.5655 0.85098 0.30319 0.0
C1934 C 0.57447 0.87526 0.29998 0.0
C1935 C 0.60159 0.89051 0.30438 0.0
C1936 C 0.61766 0.90337 0.29049 0.0
C1937 C 0.60513 0.90884 0.31694 0.0
C1938 C 0.6066 0.87097 0.31026 0.0
C1939 C 0.58554 0.84827 0.30949 0.0
C1940 C 0.5859 0.82729 0.3137 0.0
C1941 C 0.60833 0.82961 0.31891 0.0
C1942 C 0.62995 0.85276 0.32014 0.0
C1943 C 0.62905 0.87361 0.31557 0.0
H1944 H 0.12944 0.6766 0.28005 0.0
H1945 H 0.12343 0.63328 0.31954 0.0
H1946 H 0.13422 0.66855 0.33602 0.0
H1947 H 0.18002 0.73326 0.29316 0.0
H1948 H 0.16773 0.75136 0.28544 0.0
H1949 H 0.16041 0.72294 0.27656 0.0
H1950 H 0.11346 0.70791 0.2792 0.0
H1951 H 0.1207 0.73634 0.28804 0.0
H1952 H 0.10101 0.70807 0.2976 0.0
H1953 H 0.146 0.70848 0.34829 0.0
H1954 H 0.15551 0.74985 0.35552 0.0
H1955 H 0.15163 0.76647 0.30835 0.0
C1956 C 0.13016 0.67439 0.29216 0.0
C1957 C 0.12588 0.65214 0.29842 0.0
C1958 C 0.12725 0.65024 0.31437 0.0
C1959 C 0.13318 0.67014 0.32387 0.0
C1960 C 0.13743 0.69177 0.31731 0.0
C1961 C 0.13576 0.69398 0.30184 0.0
C1962 C 0.14052 0.7191 0.29774 0.0
C1963 C 0.16354 0.73245 0.28763 0.0
C1964 C 0.11755 0.71776 0.29021 0.0
C1965 C 0.14515 0.73061 0.31333 0.0
C1966 C 0.14348 0.7146 0.32444 0.0
C1967 C 0.14736 0.7212 0.33969 0.0
C1968 C 0.15297 0.7448 0.3437 0.0
C1969 C 0.15444 0.76136 0.33252 0.0
C1970 C 0.15044 0.7541 0.31716 0.0
H1971 H 0.81548 0.00573 0.38056 0.0
H1972 H 0.76387 0.0242 0.4014 0.0
H1973 H 0.72879 0.98698 0.39058 0.0
H1974 H 0.78021 0.98057 0.3455 0.0
H1975 H 0.78846 0.95714 0.34432 0.0
H1976 H 0.80925 0.98572 0.35333 0.0
H1977 H 0.80894 0.96225 0.37748 0.0
H1978 H 0.78774 0.93381 0.36843 0.0
H1979 H 0.77976 0.94179 0.38633 0.0
H1980 H 0.69934 0.94726 0.37833 0.0
H1981 H 0.67733 0.90756 0.36531 0.0
H1982 H 0.74798 0.91524 0.35179 0.0
C1983 C 0.79682 0.00211 0.38269 0.0
C1984 C 0.79244 0.01787 0.39189 0.0
C1985 C 0.76769 0.01225 0.39459 0.0
C1986 C 0.74764 0.99124 0.38839 0.0
C1987 C 0.7526 0.97606 0.37947 0.0
C1988 C 0.77655 0.98122 0.37658 0.0
C1989 C 0.77671 0.96156 0.36686 0.0
C1990 C 0.7894 0.97188 0.35159 0.0
C1991 C 0.78901 0.94912 0.37528 0.0
C1992 C 0.7491 0.94448 0.36485 0.0
C1993 C 0.73555 0.95322 0.3722 0.0
C1994 C 0.70973 0.94029 0.37243 0.0
C1995 C 0.6974 0.91771 0.36501 0.0
C1996 C 0.71089 0.90831 0.35743 0.0
C1997 C 0.7371 0.92205 0.35729 0.0
H1998 H 0.01675 0.82087 0.37989 0.0
H1999 H 0.97614 0.74232 0.38422 0.0
H2000 H 0.01008 0.73999 0.37146 0.0
H2001 H 0.04567 0.82269 0.34269 0.0
H2002 H 0.07512 0.84893 0.34755 0.0
H2003 H 0.04682 0.84537 0.3555 0.0
H2004 H 0.06338 0.84843 0.38268 0.0
H2005 H 0.09219 0.85305 0.37506 0.0
H2006 H 0.07515 0.82881 0.38833 0.0
H2007 H 0.04993 0.74609 0.36193 0.0
H2008 H 0.09381 0.76046 0.35593 0.0
H2009 H 0.10923 0.83499 0.35636 0.0
C2010 C 0.01482 0.80319 0.37779 0.0
C2011 C 0.9938 0.78174 0.38303 0.0
C2012 C 0.99213 0.75896 0.38038 0.0
C2013 C 0.01123 0.75744 0.37304 0.0
C2014 C 0.03192 0.77887 0.36829 0.0
C2015 C 0.0339 0.80135 0.37049 0.0
C2016 C 0.05916 0.82164 0.36544 0.0
C2017 C 0.05655 0.83549 0.35199 0.0
C2018 C 0.0733 0.83899 0.37867 0.0
C2019 C 0.07132 0.80705 0.36063 0.0
C2020 C 0.05507 0.78238 0.36223 0.0
C2021 C 0.06262 0.76527 0.36021 0.0
C2022 C 0.08753 0.77356 0.3568 0.0
C2023 C 0.10452 0.79866 0.35516 0.0
C2024 C 0.09626 0.81563 0.35686 0.0
H2025 H 0.1865 0.18961 0.37997 0.0
H2026 H 0.26449 0.23612 0.39088 0.0
H2027 H 0.26463 0.26988 0.37708 0.0
H2028 H 0.18885 0.21507 0.34169 0.0
H2029 H 0.159 0.21286 0.34379 0.0
H2030 H 0.16534 0.19134 0.35317 0.0
H2031 H 0.15364 0.20238 0.37898 0.0
H2032 H 0.14716 0.22379 0.36968 0.0
H2033 H 0.16914 0.23371 0.38511 0.0
H2034 H 0.25581 0.29934 0.36445 0.0
H2035 H 0.23818 0.32343 0.35406 0.0
H2036 H 0.16596 0.25827 0.35052 0.0
C2037 C 0.2037 0.20677 0.37917 0.0
C2038 C 0.2255 0.2103 0.38651 0.0
C2039 C 0.24754 0.23313 0.38548 0.0
C2040 C 0.24786 0.25233 0.37755 0.0
C2041 C 0.22603 0.24838 0.37061 0.0
C2042 C 0.20434 0.2262 0.37128 0.0
C2043 C 0.18306 0.22745 0.36374 0.0
C2044 C 0.1735 0.21068 0.34977 0.0
C2045 C 0.16202 0.22149 0.37505 0.0
C2046 C 0.19606 0.25399 0.35917 0.0
C2047 C 0.22091 0.26558 0.3631 0.0
C2048 C 0.23648 0.29044 0.36112 0.0
C2049 C 0.22628 0.30398 0.35529 0.0
C2050 C 0.20079 0.29264 0.35149 0.0
C2051 C 0.18561 0.26724 0.35308 0.0
H2052 H 0.67947 0.53847 0.71394 0.0
H2053 H 0.64133 0.57895 0.72194 0.0
H2054 H 0.6751 0.61458 0.70913 0.0
H2055 H 0.73994 0.58719 0.72121 0.0
H2056 H 0.75475 0.57878 0.70677 0.0
H2057 H 0.72657 0.55584 0.71539 0.0
H2058 H 0.70683 0.54277 0.68887 0.0
H2059 H 0.73436 0.5664 0.67993 0.0
H2060 H 0.70476 0.56452 0.67683 0.0
H2061 H 0.71432 0.64683 0.69781 0.0
H2062 H 0.75725 0.67408 0.68921 0.0
H2063 H 0.77009 0.61301 0.68765 0.0
C2064 C 0.67805 0.55471 0.71274 0.0
C2065 C 0.65772 0.55593 0.71894 0.0
C2066 C 0.65679 0.57766 0.7174 0.0
C2067 C 0.67579 0.59793 0.71003 0.0
C2068 C 0.69565 0.59623 0.70418 0.0
C2069 C 0.697 0.57523 0.70547 0.0
C2070 C 0.72127 0.57886 0.69908 0.0
C2071 C 0.73653 0.57494 0.71135 0.0
C2072 C 0.71654 0.56214 0.68535 0.0
C2073 C 0.73355 0.60534 0.69436 0.0
C2074 C 0.71829 0.6149 0.69729 0.0
C2075 C 0.72624 0.63946 0.69518 0.0
C2076 C 0.75061 0.65479 0.6903 0.0
C2077 C 0.76666 0.64551 0.68741 0.0
C2078 C 0.75789 0.62039 0.68924 0.0
H2079 H 0.43187 0.08727 0.7219 0.0
H2080 H 0.49644 0.15727 0.712 0.0
H2081 H 0.46936 0.17132 0.70108 0.0
H2082 H 0.39702 0.08446 0.68769 0.0
H2083 H 0.36744 0.07037 0.69711 0.0
H2084 H 0.39171 0.06503 0.70377 0.0
H2085 H 0.3887 0.08003 0.73058 0.0
H2086 H 0.36432 0.08527 0.72408 0.0
H2087 H 0.39175 0.10965 0.73283 0.0
H2088 H 0.43584 0.17896 0.69284 0.0
H2089 H 0.39768 0.17926 0.68664 0.0
H2090 H 0.35373 0.10416 0.70078 0.0
C2091 C 0.44027 0.10554 0.71741 0.0
C2092 C 0.46635 0.12113 0.71773 0.0
C2093 C 0.47661 0.14486 0.71168 0.0
C2094 C 0.46136 0.15307 0.70551 0.0
C2095 C 0.43583 0.13731 0.70538 0.0
C2096 C 0.42527 0.114 0.71106 0.0
C2097 C 0.39717 0.10097 0.70958 0.0
C2098 C 0.38778 0.07889 0.6989 0.0
C2099 C 0.38476 0.09355 0.7252 0.0
C2100 C 0.39364 0.12084 0.70256 0.0
C2101 C 0.41627 0.14157 0.70019 0.0
C2102 C 0.41803 0.16269 0.69438 0.0
C2103 C 0.39611 0.16262 0.69076 0.0
C2104 C 0.37264 0.14148 0.69264 0.0
C2105 C 0.37143 0.12041 0.69886 0.0
H2106 H 0.86179 0.33583 0.70964 0.0
H2107 H 0.93746 0.36229 0.7248 0.0
H2108 H 0.93548 0.32488 0.71505 0.0
H2109 H 0.83858 0.27497 0.71947 0.0
H2110 H 0.81837 0.26223 0.70327 0.0
H2111 H 0.82618 0.29192 0.71022 0.0
H2112 H 0.84311 0.31083 0.68374 0.0
H2113 H 0.83408 0.28079 0.67688 0.0
H2114 H 0.86561 0.30511 0.6746 0.0
H2115 H 0.92414 0.2834 0.70591 0.0
H2116 H 0.9051 0.24138 0.69619 0.0
H2117 H 0.83724 0.24226 0.6861 0.0
C2118 C 0.87815 0.33403 0.71055 0.0
C2119 C 0.89976 0.35193 0.718 0.0
C2120 C 0.92062 0.34867 0.71927 0.0
C2121 C 0.91972 0.32756 0.71372 0.0
C2122 C 0.89791 0.30999 0.7068 0.0
C2123 C 0.8776 0.31309 0.70502 0.0
C2124 C 0.85608 0.29092 0.69773 0.0
C2125 C 0.83348 0.27933 0.70831 0.0
C2126 C 0.84935 0.29731 0.68231 0.0
C2127 C 0.86738 0.27477 0.6959 0.0
C2128 C 0.89151 0.28612 0.70124 0.0
C2129 C 0.90537 0.2744 0.70151 0.0
C2130 C 0.89432 0.25047 0.69608 0.0
C2131 C 0.86974 0.2386 0.69038 0.0
C2132 C 0.85617 0.25099 0.69025 0.0
H2133 H 0.19755 0.98477 0.64364 0.0
H2134 H 0.16903 0.01528 0.61066 0.0
H2135 H 0.19858 0.05658 0.61991 0.0
H2136 H 0.20936 0.02965 0.67411 0.0
H2137 H 0.23742 0.03055 0.68028 0.0
H2138 H 0.21263 0.00313 0.67197 0.0
H2139 H 0.24316 0.00324 0.65201 0.0
H2140 H 0.26796 0.03072 0.66018 0.0
H2141 H 0.26049 0.02972 0.64036 0.0
H2142 H 0.23251 0.09445 0.63143 0.0
H2143 H 0.26888 0.1269 0.64497 0.0
H2144 H 0.27609 0.07275 0.67065 0.0
C2145 C 0.19723 0.00015 0.6386 0.0
C2146 C 0.181 0.99684 0.62642 0.0
C2147 C 0.18142 0.01742 0.61992 0.0
C2148 C 0.19806 0.04093 0.62514 0.0
C2149 C 0.21418 0.04363 0.63691 0.0
C2150 C 0.21388 0.02386 0.64365 0.0
C2151 C 0.23403 0.03205 0.65567 0.0
C2152 C 0.22268 0.02332 0.67144 0.0
C2153 C 0.2525 0.02342 0.65181 0.0
C2154 C 0.246 0.05946 0.65436 0.0
C2155 C 0.23402 0.06567 0.64356 0.0
C2156 C 0.24184 0.08981 0.64004 0.0
C2157 C 0.26238 0.1081 0.6478 0.0
C2158 C 0.27483 0.10217 0.6589 0.0
C2159 C 0.26667 0.07759 0.66221 0.0
H2160 H 0.98697 0.17084 0.62817 0.0
H2161 H 0.03534 0.24865 0.63335 0.0
H2162 H 1.00255 0.25136 0.64743 0.0
H2163 H 0.93249 0.17375 0.6209 0.0
H2164 H 0.91182 0.14615 0.63079 0.0
H2165 H 0.93998 0.14986 0.62265 0.0
H2166 H 0.95213 0.14087 0.64863 0.0
H2167 H 0.92489 0.13845 0.65747 0.0
H2168 H 0.95538 0.15982 0.66466 0.0
H2169 H 0.96395 0.24687 0.65808 0.0
H2170 H 0.92091 0.23553 0.66438 0.0
H2171 H 0.89638 0.16033 0.65319 0.0
C2172 C 0.99069 0.1883 0.63256 0.0
C2173 C 0.0137 0.20956 0.62983 0.0
C2174 C 0.01784 0.23221 0.63539 0.0
C2175 C 0.99938 0.23388 0.64345 0.0
C2176 C 0.97679 0.21272 0.64583 0.0
C2177 C 0.97223 0.19033 0.64051 0.0
C2178 C 0.94549 0.17087 0.6435 0.0
C2179 C 0.93164 0.1595 0.62857 0.0
C2180 C 0.94439 0.15134 0.65421 0.0
C2181 C 0.9357 0.18593 0.65109 0.0
C2182 C 0.95423 0.21 0.65237 0.0
C2183 C 0.94942 0.22801 0.65749 0.0
C2184 C 0.92497 0.22144 0.66106 0.0
C2185 C 0.90565 0.19701 0.65979 0.0
C2186 C 0.91109 0.17893 0.65493 0.0
H2187 H 0.78187 0.78128 0.61392 0.0
H2188 H 0.84721 0.8484 0.62796 0.0
H2189 H 0.86098 0.82489 0.64335 0.0
H2190 H 0.77088 0.75024 0.64898 0.0
H2191 H 0.76139 0.72101 0.64048 0.0
H2192 H 0.7568 0.74308 0.63042 0.0
H2193 H 0.7816 0.74046 0.60763 0.0
H2194 H 0.78614 0.71826 0.6176 0.0
H2195 H 0.81252 0.74561 0.61066 0.0
H2196 H 0.86734 0.79389 0.65753 0.0
H2197 H 0.86618 0.75774 0.66879 0.0
H2198 H 0.79693 0.71124 0.64505 0.0
C2199 C 0.79924 0.79105 0.62005 0.0
C2200 C 0.81339 0.81672 0.61976 0.0
C2201 C 0.83584 0.82877 0.62817 0.0
C2202 C 0.8439 0.81558 0.63689 0.0
C2203 C 0.82937 0.79033 0.63703 0.0
C2204 C 0.80759 0.77818 0.62876 0.0
C2205 C 0.79533 0.75096 0.63088 0.0
C2206 C 0.76958 0.74073 0.63813 0.0
C2207 C 0.79382 0.73807 0.6158 0.0
C2208 C 0.81355 0.7497 0.64169 0.0
C2209 C 0.83307 0.77256 0.64512 0.0
C2210 C 0.85213 0.77589 0.65493 0.0
C2211 C 0.85124 0.75525 0.66132 0.0
C2212 C 0.8314 0.73164 0.65788 0.0
C2213 C 0.81237 0.72899 0.64794 0.0
H2214 H 0.98127 0.79893 0.63546 0.0
H2215 H 0.01972 0.75825 0.62968 0.0
H2216 H 0.98484 0.7226 0.64177 0.0
H2217 H 0.9531 0.77285 0.67187 0.0
H2218 H 0.92363 0.77075 0.66784 0.0
H2219 H 0.95168 0.79453 0.65945 0.0
H2220 H 0.93441 0.78175 0.63246 0.0
H2221 H 0.90548 0.75882 0.64034 0.0
H2222 H 0.92139 0.75044 0.62665 0.0
H2223 H 0.94443 0.69021 0.65169 0.0
H2224 H 0.90073 0.66302 0.65894 0.0
H2225 H 0.88845 0.72446 0.65944 0.0
C2226 C 0.98251 0.78265 0.63703 0.0
C2227 C 0.00324 0.78136 0.63165 0.0
C2228 C 0.00397 0.75959 0.63362 0.0
C2229 C 0.98432 0.7393 0.64057 0.0
C2230 C 0.96403 0.74103 0.64555 0.0
C2231 C 0.96292 0.76211 0.64388 0.0
C2232 C 0.93818 0.75852 0.64934 0.0
C2233 C 0.94184 0.77514 0.66295 0.0
C2234 C 0.92404 0.76261 0.63643 0.0
C2235 C 0.9254 0.73198 0.654 0.0
C2236 C 0.94076 0.72233 0.65178 0.0
C2237 C 0.93242 0.69766 0.65381 0.0
C2238 C 0.90762 0.68236 0.65791 0.0
C2239 C 0.89155 0.69179 0.66019 0.0
C2240 C 0.90065 0.71697 0.65839 0.0
H2241 H 0.19763 0.17467 0.63352 0.0
H2242 H 0.23661 0.25319 0.6293 0.0
H2243 H 0.27316 0.25575 0.64209 0.0
H2244 H 0.22285 0.17204 0.67004 0.0
H2245 H 0.22698 0.14645 0.66559 0.0
H2246 H 0.2024 0.14926 0.65674 0.0
H2247 H 0.21768 0.14809 0.62995 0.0
H2248 H 0.24118 0.14315 0.63826 0.0
H2249 H 0.24984 0.16795 0.62528 0.0
H2250 H 0.30691 0.24975 0.65223 0.0
H2251 H 0.33583 0.23547 0.65955 0.0
H2252 H 0.27523 0.16102 0.65885 0.0
C2253 C 0.21371 0.19238 0.6356 0.0
C2254 C 0.21431 0.21377 0.63051 0.0
C2255 C 0.23583 0.23662 0.63311 0.0
C2256 C 0.25662 0.23825 0.64042 0.0
C2257 C 0.25566 0.21685 0.64508 0.0
C2258 C 0.23482 0.19432 0.64278 0.0
C2259 C 0.23943 0.1741 0.64791 0.0
C2260 C 0.22189 0.15958 0.66086 0.0
C2261 C 0.2369 0.15735 0.63455 0.0
C2262 C 0.26617 0.1888 0.65334 0.0
C2263 C 0.27512 0.21344 0.65154 0.0
C2264 C 0.29999 0.23058 0.65407 0.0
C2265 C 0.31627 0.22235 0.65824 0.0
C2266 C 0.30757 0.19728 0.66019 0.0
C2267 C 0.28212 0.18032 0.65794 0.0
H2268 H 0.79792 0.99339 0.63238 0.0
H2269 H 0.80521 0.01919 0.58611 0.0
H2270 H 0.81631 0.0599 0.59567 0.0
H2271 H 0.77151 0.0273 0.64781 0.0
H2272 H 0.7881 0.03395 0.66555 0.0
H2273 H 0.781 0.00673 0.65518 0.0
H2274 H 0.82764 0.0196 0.65515 0.0
H2275 H 0.83479 0.04685 0.66553 0.0
H2276 H 0.84999 0.04895 0.64779 0.0
H2277 H 0.82568 0.09731 0.60992 0.0
H2278 H 0.83297 0.12958 0.62823 0.0
H2279 H 0.82059 0.08041 0.66537 0.0
C2280 C 0.80212 0.00766 0.62425 0.0
C2281 C 0.80052 0.003 0.60846 0.0
C2282 C 0.80584 0.02214 0.59823 0.0
C2283 C 0.81238 0.0454 0.60355 0.0
C2284 C 0.8137 0.04932 0.61913 0.0
C2285 C 0.80881 0.03108 0.62937 0.0
C2286 C 0.81127 0.0402 0.64555 0.0
C2287 C 0.78649 0.02621 0.65401 0.0
C2288 C 0.83217 0.03882 0.654 0.0
C2289 C 0.81806 0.06635 0.64277 0.0
C2290 C 0.81938 0.07115 0.62743 0.0
C2291 C 0.8247 0.09377 0.62196 0.0
C2292 C 0.82858 0.11191 0.63244 0.0
C2293 C 0.82714 0.1074 0.64819 0.0
C2294 C 0.82211 0.08441 0.65342 0.0
H2295 H 0.44778 0.33516 0.72799 0.0
H2296 H 0.51485 0.344 0.70702 0.0
H2297 H 0.49013 0.3053 0.69328 0.0
H2298 H 0.41826 0.27008 0.73309 0.0
H2299 H 0.38752 0.26459 0.7289 0.0
H2300 H 0.41032 0.29325 0.73703 0.0
H2301 H 0.40394 0.31605 0.71474 0.0
H2302 H 0.38115 0.28744 0.70653 0.0
H2303 H 0.40758 0.30852 0.69557 0.0
H2304 H 0.45883 0.26564 0.68223 0.0
H2305 H 0.42267 0.22718 0.67428 0.0
H2306 H 0.37499 0.24333 0.70199 0.0
C2307 C 0.45728 0.32889 0.72057 0.0
C2308 C 0.48331 0.34278 0.71852 0.0
C2309 C 0.49494 0.33397 0.7086 0.0
C2310 C 0.48107 0.31191 0.7008 0.0
C2311 C 0.45553 0.29878 0.70302 0.0
C2312 C 0.44367 0.30685 0.71265 0.0
C2313 C 0.41593 0.28903 0.71296 0.0
C2314 C 0.40752 0.27862 0.72894 0.0
C2315 C 0.40129 0.30098 0.7071 0.0
C2316 C 0.41413 0.2697 0.70203 0.0
C2317 C 0.43725 0.27577 0.69647 0.0
C2318 C 0.44059 0.26078 0.6864 0.0
C2319 C 0.41979 0.23897 0.68185 0.0
C2320 C 0.39576 0.23228 0.68725 0.0
C2321 C 0.393 0.24793 0.69754 0.0
H2322 H 0.66642 0.09401 0.71563 0.0
H2323 H 0.67878 0.16759 0.71538 0.0
H2324 H 0.72021 0.18228 0.70418 0.0
H2325 H 0.72754 0.10869 0.7257 0.0
H2326 H 0.72822 0.08616 0.71355 0.0
H2327 H 0.69913 0.08127 0.72091 0.0
H2328 H 0.68162 0.07545 0.69357 0.0
H2329 H 0.71071 0.08036 0.68614 0.0
H2330 H 0.69808 0.09889 0.67972 0.0
H2331 H 0.76159 0.18942 0.69494 0.0
H2332 H 0.79887 0.18807 0.68704 0.0
H2333 H 0.75914 0.1097 0.69198 0.0
C2334 C 0.67785 0.1132 0.71319 0.0
C2335 C 0.66938 0.12968 0.71638 0.0
C2336 C 0.68479 0.15462 0.71289 0.0
C2337 C 0.70838 0.16314 0.70658 0.0
C2338 C 0.71622 0.14645 0.70364 0.0
C2339 C 0.70134 0.12197 0.70669 0.0
C2340 C 0.71429 0.10789 0.70254 0.0
C2341 C 0.71748 0.09527 0.71651 0.0
C2342 C 0.70034 0.08956 0.68973 0.0
C2343 C 0.73901 0.12836 0.69709 0.0
C2344 C 0.73972 0.15046 0.69778 0.0
C2345 C 0.76105 0.17214 0.69407 0.0
C2346 C 0.78212 0.1712 0.68948 0.0
C2347 C 0.78161 0.14869 0.68832 0.0
C2348 C 0.75981 0.12707 0.69235 0.0
H2349 H 0.88152 0.55572 0.72809 0.0
H2350 H 0.81962 0.48877 0.71065 0.0
H2351 H 0.80374 0.51246 0.69737 0.0
H2352 H 0.84728 0.58749 0.73426 0.0
H2353 H 0.8727 0.6165 0.72852 0.0
H2354 H 0.87881 0.5942 0.73694 0.0
H2355 H 0.90501 0.5964 0.71357 0.0
H2356 H 0.89891 0.61865 0.70507 0.0
H2357 H 0.89132 0.59107 0.69493 0.0
H2358 H 0.7949 0.54354 0.68573 0.0
H2359 H 0.79398 0.57974 0.6765 0.0
H2360 H 0.86185 0.6262 0.70152 0.0
C2361 C 0.86446 0.54602 0.72164 0.0
C2362 C 0.85181 0.5204 0.72039 0.0
C2363 C 0.82976 0.50841 0.71162 0.0
C2364 C 0.82052 0.52169 0.70411 0.0
C2365 C 0.83354 0.54693 0.70549 0.0
C2366 C 0.85502 0.55898 0.71405 0.0
C2367 C 0.86578 0.58626 0.71342 0.0
C2368 C 0.86615 0.59672 0.72922 0.0
C2369 C 0.89179 0.59883 0.70632 0.0
C2370 C 0.84707 0.58766 0.70312 0.0
C2371 C 0.82857 0.5648 0.6987 0.0
C2372 C 0.80932 0.56154 0.6891 0.0
C2373 C 0.80904 0.58224 0.68385 0.0
C2374 C 0.82797 0.60586 0.68814 0.0
C2375 C 0.8471 0.60845 0.69798 0.0
H2376 H 0.50723 0.9666 0.18063 0.0
H2377 H 0.42828 0.91836 0.17356 0.0
H2378 H 0.4326 0.93173 0.14698 0.0
H2379 H 0.51294 0.0154 0.15776 0.0
H2380 H 0.54291 0.02309 0.1503 0.0
H2381 H 0.53376 0.0094 0.16872 0.0
H2382 H 0.54182 0.97481 0.16031 0.0
H2383 H 0.55106 0.98844 0.14187 0.0
H2384 H 0.52662 0.95725 0.14357 0.0
H2385 H 0.44535 0.95093 0.12117 0.0
H2386 H 0.46548 0.97477 0.09826 0.0
H2387 H 0.53641 0.00963 0.12179 0.0
C2388 C 0.49088 0.95863 0.17346 0.0
C2389 C 0.46736 0.94146 0.17929 0.0
C2390 C 0.44642 0.9318 0.16951 0.0
C2391 C 0.44871 0.93916 0.15433 0.0
C2392 C 0.4721 0.95619 0.149 0.0
C2393 C 0.49283 0.96579 0.15826 0.0
C2394 C 0.51575 0.98411 0.14977 0.0
C2395 C 0.52699 0.0095 0.15707 0.0
C2396 C 0.53494 0.97564 0.14882 0.0
C2397 C 0.50465 0.98343 0.13433 0.0
C2398 C 0.47946 0.96714 0.13411 0.0
C2399 C 0.46511 0.96361 0.12118 0.0
C2400 C 0.47678 0.97716 0.10816 0.0
C2401 C 0.50261 0.99411 0.10809 0.0
C2402 C 0.51662 0.99706 0.12142 0.0
H2403 H 0.03737 0.50027 0.17382 0.0
H2404 H 0.06648 0.57834 0.17688 0.0
H2405 H 0.05212 0.57814 0.15092 0.0
H2406 H 0.04921 0.49678 0.13433 0.0
H2407 H 0.02036 0.46896 0.13112 0.0
H2408 H 0.03487 0.47539 0.14954 0.0
H2409 H 0.99463 0.47015 0.1617 0.0
H2410 H 0.97997 0.46362 0.14334 0.0
H2411 H 0.98141 0.4879 0.15475 0.0
H2412 H 0.03451 0.56963 0.12452 0.0
H2413 H 0.01156 0.5525 0.10045 0.0
H2414 H 0.99014 0.47984 0.11572 0.0
C2415 C 0.04065 0.51737 0.16918 0.0
C2416 C 0.05352 0.53938 0.17751 0.0
C2417 C 0.05745 0.56128 0.17072 0.0
C2418 C 0.04915 0.56137 0.15596 0.0
C2419 C 0.03654 0.53939 0.14816 0.0
C2420 C 0.03201 0.51775 0.15459 0.0
C2421 C 0.01667 0.4964 0.14414 0.0
C2422 C 0.03115 0.48364 0.13951 0.0
C2423 C 0.99169 0.47847 0.15142 0.0
C2424 C 0.0132 0.50945 0.13086 0.0
C2425 C 0.02515 0.53429 0.1333 0.0
C2426 C 0.02497 0.5502 0.12251 0.0
C2427 C 0.01199 0.5404 0.10892 0.0
C2428 C 0.99912 0.51499 0.10644 0.0
C2429 C 0.99978 0.49935 0.1175 0.0
H2430 H 0.47609 0.54456 0.16877 0.0
H2431 H 0.46414 0.47852 0.19075 0.0
H2432 H 0.47684 0.46631 0.16737 0.0
H2433 H 0.45498 0.51777 0.13078 0.0
H2434 H 0.47819 0.54468 0.12132 0.0
H2435 H 0.46621 0.54727 0.13937 0.0
H2436 H 0.5109 0.57051 0.15026 0.0
H2437 H 0.523 0.56793 0.13228 0.0
H2438 H 0.53019 0.5568 0.14919 0.0
H2439 H 0.49489 0.46332 0.14265 0.0
H2440 H 0.51486 0.4687 0.11766 0.0
H2441 H 0.51399 0.53597 0.11134 0.0
C2442 C 0.47592 0.52742 0.16861 0.0
C2443 C 0.46904 0.51245 0.18158 0.0
C2444 C 0.46898 0.49011 0.1809 0.0
C2445 C 0.47628 0.48308 0.16769 0.0
C2446 C 0.48335 0.49844 0.1552 0.0
C2447 C 0.48297 0.52003 0.15547 0.0
C2448 C 0.49227 0.53363 0.14067 0.0
C2449 C 0.47168 0.53597 0.13256 0.0
C2450 C 0.51547 0.55869 0.14326 0.0
C2451 C 0.49851 0.51661 0.13217 0.0
C2452 C 0.4932 0.49641 0.14076 0.0
C2453 C 0.49878 0.47887 0.13573 0.0
C2454 C 0.51019 0.4821 0.12158 0.0
C2455 C 0.51571 0.50261 0.1126 0.0
C2456 C 0.50953 0.51991 0.1179 0.0
H2457 H 0.96529 0.49368 0.83237 0.0
H2458 H 0.89577 0.42816 0.84212 0.0
H2459 H 0.91038 0.42795 0.86812 0.0
H2460 H 0.00366 0.47702 0.85182 0.0
H2461 H 0.02499 0.50697 0.85906 0.0
H2462 H 0.00837 0.5036 0.84167 0.0
H2463 H 0.99081 0.52982 0.85264 0.0
H2464 H 0.00768 0.53358 0.87 0.0
H2465 H 0.97461 0.52152 0.87046 0.0
H2466 H 0.93342 0.43294 0.89217 0.0
H2467 H 0.96292 0.44388 0.91344 0.0
H2468 H 0.01767 0.5064 0.88831 0.0
C2469 C 0.95295 0.47968 0.84013 0.0
C2470 C 0.92938 0.46098 0.83532 0.0
C2471 C 0.91392 0.4426 0.84563 0.0
C2472 C 0.92203 0.44235 0.8604 0.0
C2473 C 0.94564 0.46064 0.86467 0.0
C2474 C 0.96083 0.47909 0.85491 0.0
C2475 C 0.98583 0.49585 0.86216 0.0
C2476 C 0.00695 0.49584 0.85314 0.0
C2477 C 0.98997 0.52173 0.86392 0.0
C2478 C 0.98241 0.48367 0.87739 0.0
C2479 C 0.95904 0.46347 0.87861 0.0
C2480 C 0.95167 0.44889 0.89145 0.0
C2481 C 0.96854 0.45528 0.90347 0.0
C2482 C 0.99253 0.47608 0.90258 0.0
C2483 C 0.99953 0.49033 0.88929 0.0
H2484 H 0.5474 0.50145 0.8382 0.0
H2485 H 0.50471 0.42234 0.83742 0.0
H2486 H 0.49155 0.42254 0.86354 0.0
H2487 H 0.5658 0.50981 0.87745 0.0
H2488 H 0.56131 0.53552 0.88009 0.0
H2489 H 0.56956 0.5294 0.86172 0.0
H2490 H 0.53086 0.5283 0.84991 0.0
H2491 H 0.52257 0.53457 0.86822 0.0
H2492 H 0.50064 0.50809 0.85765 0.0
H2493 H 0.48267 0.43107 0.89001 0.0
H2494 H 0.47522 0.44772 0.9136 0.0
H2495 H 0.51948 0.52081 0.89614 0.0
C2496 C 0.53515 0.48407 0.84336 0.0
C2497 C 0.52767 0.46187 0.83555 0.0
C2498 C 0.51168 0.43969 0.84309 0.0
C2499 C 0.50382 0.43955 0.85798 0.0
C2500 C 0.51161 0.46171 0.86525 0.0
C2501 C 0.5266 0.48356 0.85811 0.0
C2502 C 0.53089 0.50485 0.86807 0.0
C2503 C 0.55853 0.52084 0.87207 0.0
C2504 C 0.52062 0.51983 0.86051 0.0
C2505 C 0.51584 0.49151 0.88188 0.0
C2506 C 0.50524 0.46663 0.88014 0.0
C2507 C 0.49079 0.45052 0.89147 0.0
C2508 C 0.48673 0.46009 0.90483 0.0
C2509 C 0.4967 0.48545 0.90659 0.0
C2510 C 0.51156 0.50132 0.895 0.0
H2511 H 0.49673 0.02661 0.82872 0.0
H2512 H 0.57512 0.07698 0.83629 0.0
H2513 H 0.57067 0.06396 0.86295 0.0
H2514 H 0.4759 0.03554 0.8654 0.0
H2515 H 0.45213 0.00408 0.86711 0.0
H2516 H 0.46142 0.01763 0.84865 0.0
H2517 H 0.47105 0.98388 0.84071 0.0
H2518 H 0.46187 0.97028 0.85915 0.0
H2519 H 0.49224 0.97882 0.85198 0.0
H2520 H 0.5579 0.04481 0.88874 0.0
H2521 H 0.5378 0.02087 0.91162 0.0
H2522 H 0.4674 0.98401 0.88756 0.0
C2523 C 0.51292 0.03513 0.836 0.0
C2524 C 0.53632 0.05278 0.83031 0.0
C2525 C 0.55708 0.06316 0.84025 0.0
C2526 C 0.55471 0.056 0.85547 0.0
C2527 C 0.53144 0.03848 0.86066 0.0
C2528 C 0.51089 0.02822 0.85124 0.0
C2529 C 0.48806 0.0095 0.85961 0.0
C2530 C 0.46821 0.01716 0.86023 0.0
C2531 C 0.4777 0.98412 0.85243 0.0
C2532 C 0.49902 0.01071 0.87517 0.0
C2533 C 0.52405 0.0276 0.87555 0.0
C2534 C 0.53825 0.03167 0.88861 0.0
C2535 C 0.5266 0.01806 0.9016 0.0
C2536 C 0.50094 0.00055 0.9015 0.0
C2537 C 0.48707 0.99703 0.88804 0.0
H2538 H 0.13912 0.2916 0.51531 0.0
H2539 H 0.14634 0.22859 0.50481 0.0
H2540 H 0.15763 0.24293 0.47851 0.0
H2541 H 0.11334 0.29487 0.47852 0.0
H2542 H 0.13013 0.32766 0.47832 0.0
H2543 H 0.12119 0.3117 0.49609 0.0
H2544 H 0.167 0.33499 0.50508 0.0
H2545 H 0.17609 0.35092 0.48733 0.0
H2546 H 0.19045 0.3339 0.49371 0.0
H2547 H 0.16991 0.26496 0.45363 0.0
H2548 H 0.18275 0.29331 0.43209 0.0
H2549 H 0.16712 0.3419 0.45851 0.0
C2550 C 0.14268 0.28063 0.5074 0.0
C2551 C 0.14185 0.25896 0.51215 0.0
C2552 C 0.14708 0.24536 0.5015 0.0
C2553 C 0.15338 0.25329 0.48651 0.0
C2554 C 0.15438 0.27488 0.48226 0.0
C2555 C 0.14913 0.28835 0.49238 0.0
C2556 C 0.15252 0.31141 0.48505 0.0
C2557 C 0.12782 0.3114 0.48446 0.0
C2558 C 0.17272 0.33414 0.49328 0.0
C2559 C 0.16081 0.30893 0.46932 0.0
C2560 C 0.16157 0.28764 0.46792 0.0
C2561 C 0.16917 0.28159 0.45456 0.0
C2562 C 0.17631 0.29778 0.44233 0.0
C2563 C 0.17592 0.31987 0.44351 0.0
C2564 C 0.16786 0.3253 0.45722 0.0
H2565 H 0.72379 0.87481 0.4961 0.0
H2566 H 0.6753 0.80736 0.51939 0.0
H2567 H 0.64887 0.7919 0.49653 0.0
H2568 H 0.67625 0.87952 0.47638 0.0
H2569 H 0.69402 0.89152 0.4593 0.0
H2570 H 0.70964 0.89694 0.4773 0.0
H2571 H 0.73535 0.87814 0.46701 0.0
H2572 H 0.71979 0.87264 0.44898 0.0
H2573 H 0.71954 0.84787 0.45906 0.0
H2574 H 0.62663 0.7845 0.47161 0.0
H2575 H 0.61088 0.78516 0.44599 0.0
H2576 H 0.67394 0.85724 0.43877 0.0
C2577 C 0.7076 0.85679 0.49639 0.0
C2578 C 0.70164 0.84227 0.50954 0.0
C2579 C 0.68042 0.81869 0.5094 0.0
C2580 C 0.66522 0.8098 0.49649 0.0
C2581 C 0.67156 0.82463 0.48377 0.0
C2582 C 0.69231 0.84757 0.48357 0.0
C2583 C 0.69483 0.85989 0.46847 0.0
C2584 C 0.6936 0.88335 0.47049 0.0
C2585 C 0.7188 0.86492 0.46041 0.0
C2586 C 0.67208 0.84041 0.46028 0.0
C2587 C 0.6589 0.82023 0.46932 0.0
C2588 C 0.63685 0.80016 0.4644 0.0
C2589 C 0.62798 0.80075 0.44988 0.0
C2590 C 0.64119 0.82123 0.4404 0.0
C2591 C 0.66361 0.84122 0.44569 0.0
H2592 H 0.13563 0.83898 0.51723 0.0
H2593 H 0.12129 0.89757 0.50668 0.0
H2594 H 0.13332 0.89702 0.48011 0.0
H2595 H 0.18912 0.85985 0.49466 0.0
H2596 H 0.18255 0.8301 0.48848 0.0
H2597 H 0.171 0.83369 0.50641 0.0
H2598 H 0.12618 0.80207 0.49825 0.0
H2599 H 0.13762 0.79826 0.48032 0.0
H2600 H 0.11376 0.80644 0.48084 0.0
H2601 H 0.14907 0.89176 0.4551 0.0
H2602 H 0.16739 0.88207 0.4333 0.0
H2603 H 0.17113 0.82651 0.45985 0.0
C2604 C 0.13458 0.85136 0.50925 0.0
C2605 C 0.12752 0.86833 0.51402 0.0
C2606 C 0.12683 0.88456 0.5033 0.0
C2607 C 0.13352 0.88431 0.48817 0.0
C2608 C 0.14083 0.86769 0.4839 0.0
C2609 C 0.14132 0.85144 0.49408 0.0
C2610 C 0.15096 0.8362 0.48668 0.0
C2611 C 0.17483 0.84021 0.49453 0.0
C2612 C 0.13093 0.80914 0.48651 0.0
C2613 C 0.15617 0.8467 0.47083 0.0
C2614 C 0.15001 0.86471 0.46944 0.0
C2615 C 0.15371 0.8775 0.456 0.0
C2616 C 0.16404 0.87177 0.44364 0.0
C2617 C 0.17063 0.85344 0.44478 0.0
C2618 C 0.16648 0.84073 0.4586 0.0
H2619 H 0.62236 0.79739 0.18243 0.0
H2620 H 0.6753 0.86134 0.15766 0.0
H2621 H 0.70183 0.87659 0.18047 0.0
H2622 H 0.62863 0.82783 0.21816 0.0
H2623 H 0.62591 0.80298 0.22941 0.0
H2624 H 0.6109 0.79705 0.21116 0.0
H2625 H 0.63378 0.77436 0.20263 0.0
H2626 H 0.64879 0.78015 0.22086 0.0
H2627 H 0.66715 0.78961 0.20385 0.0
H2628 H 0.72305 0.88455 0.20569 0.0
H2629 H 0.73734 0.88495 0.23187 0.0
H2630 H 0.67069 0.81597 0.24043 0.0
C2631 C 0.6396 0.81453 0.18179 0.0
C2632 C 0.64673 0.82821 0.16826 0.0
C2633 C 0.6693 0.8507 0.16795 0.0
C2634 C 0.68455 0.85946 0.18082 0.0
C2635 C 0.67695 0.84559 0.19397 0.0
C2636 C 0.655 0.82364 0.19458 0.0
C2637 C 0.65117 0.81234 0.21017 0.0
C2638 C 0.62776 0.80991 0.21766 0.0
C2639 C 0.65017 0.78766 0.20932 0.0
C2640 C 0.6745 0.8313 0.21817 0.0
C2641 C 0.68911 0.8503 0.2086 0.0
C2642 C 0.71176 0.86978 0.2133 0.0
C2643 C 0.71977 0.8698 0.22815 0.0
C2644 C 0.70515 0.8505 0.23818 0.0
C2645 C 0.68214 0.8311 0.23309 0.0
H2646 H 0.19786 0.82592 0.16763 0.0
H2647 H 0.20107 0.7604 0.1766 0.0
H2648 H 0.18969 0.76141 0.20327 0.0
H2649 H 0.2221 0.85535 0.20456 0.0
H2650 H 0.20157 0.86768 0.20546 0.0
H2651 H 0.21175 0.8628 0.18736 0.0
H2652 H 0.16596 0.83624 0.1788 0.0
H2653 H 0.15565 0.8409 0.19689 0.0
H2654 H 0.14507 0.81045 0.19007 0.0
H2655 H 0.17612 0.76838 0.22861 0.0
H2656 H 0.16073 0.78055 0.25082 0.0
H2657 H 0.16613 0.84153 0.2255 0.0
C2658 C 0.19659 0.81206 0.1753 0.0
C2659 C 0.20039 0.7931 0.17007 0.0
C2660 C 0.19809 0.775 0.18036 0.0
C2661 C 0.19175 0.77548 0.19553 0.0
C2662 C 0.18771 0.79417 0.20027 0.0
C2663 C 0.19006 0.81216 0.19048 0.0
C2664 C 0.18353 0.82951 0.19831 0.0
C2665 C 0.20609 0.85537 0.19896 0.0
C2666 C 0.16123 0.82924 0.19055 0.0
C2667 C 0.17682 0.81827 0.21394 0.0
C2668 C 0.17958 0.79803 0.21487 0.0
C2669 C 0.17408 0.78432 0.22806 0.0
C2670 C 0.16545 0.79144 0.24065 0.0
C2671 C 0.16227 0.81203 0.23995 0.0
C2672 C 0.16817 0.8256 0.22638 0.0
H2673 H 0.16779 0.37757 0.16584 0.0
H2674 H 0.24683 0.42476 0.17333 0.0
H2675 H 0.24195 0.41105 0.19984 0.0
H2676 H 0.14833 0.38681 0.20313 0.0
H2677 H 0.12352 0.35574 0.20456 0.0
H2678 H 0.13309 0.36977 0.18624 0.0
H2679 H 0.14048 0.33491 0.17747 0.0
H2680 H 0.13104 0.32083 0.19577 0.0
H2681 H 0.16093 0.32824 0.18831 0.0
H2682 H 0.22885 0.39111 0.22534 0.0
H2683 H 0.20843 0.3666 0.24795 0.0
H2684 H 0.13755 0.33352 0.22436 0.0
C2685 C 0.18403 0.38529 0.17309 0.0
C2686 C 0.20775 0.40218 0.16739 0.0
C2687 C 0.22853 0.41151 0.17729 0.0
C2688 C 0.22593 0.40396 0.19242 0.0
C2689 C 0.20239 0.38712 0.19761 0.0
C2690 C 0.18177 0.37796 0.18828 0.0
C2691 C 0.15865 0.35967 0.19663 0.0
C2692 C 0.13978 0.36853 0.1977 0.0
C2693 C 0.1471 0.33442 0.1891 0.0
C2694 C 0.16955 0.3598 0.21205 0.0
C2695 C 0.1948 0.37582 0.21238 0.0
C2696 C 0.20903 0.37869 0.22526 0.0
C2697 C 0.19719 0.36476 0.23811 0.0
C2698 C 0.17128 0.34812 0.23809 0.0
C2699 C 0.15739 0.34585 0.22481 0.0
H2700 H 0.80802 0.63178 0.84858 0.0
H2701 H 0.80352 0.56319 0.83705 0.0
H2702 H 0.81311 0.57623 0.81039 0.0
H2703 H 0.78124 0.63878 0.81321 0.0
H2704 H 0.80185 0.67121 0.81259 0.0
H2705 H 0.79308 0.65586 0.83056 0.0
H2706 H 0.83945 0.67369 0.83754 0.0
H2707 H 0.84836 0.68899 0.81958 0.0
H2708 H 0.85928 0.6686 0.82502 0.0
H2709 H 0.82471 0.59727 0.78517 0.0
H2710 H 0.83827 0.62513 0.76332 0.0
H2711 H 0.83544 0.68021 0.79114 0.0
C2712 C 0.80866 0.61937 0.84038 0.0
C2713 C 0.80498 0.59644 0.84488 0.0
C2714 C 0.80644 0.5809 0.83387 0.0
C2715 C 0.81176 0.5881 0.81869 0.0
C2716 C 0.81564 0.61094 0.81466 0.0
C2717 C 0.81416 0.62637 0.82517 0.0
C2718 C 0.82021 0.65038 0.81798 0.0
C2719 C 0.79775 0.65428 0.81862 0.0
C2720 C 0.84319 0.67167 0.82548 0.0
C2721 C 0.82559 0.64613 0.80186 0.0
C2722 C 0.82263 0.62319 0.80015 0.0
C2723 C 0.82691 0.61522 0.78635 0.0
C2724 C 0.8345 0.63115 0.77397 0.0
C2725 C 0.83789 0.65487 0.77546 0.0
C2726 C 0.83322 0.66229 0.78963 0.0
H2727 H 0.39544 0.18991 0.83576 0.0
H2728 H 0.37072 0.23696 0.85543 0.0
H2729 H 0.3496 0.23556 0.83156 0.0
H2730 H 0.40553 0.21439 0.79762 0.0
H2731 H 0.39389 0.1852 0.78852 0.0
H2732 H 0.40821 0.19059 0.80697 0.0
H2733 H 0.36881 0.15332 0.81757 0.0
H2734 H 0.35446 0.14773 0.79914 0.0
H2735 H 0.33914 0.15155 0.81535 0.0
H2736 H 0.32993 0.22819 0.8062 0.0
H2737 H 0.31164 0.2141 0.78078 0.0
H2738 H 0.34827 0.17139 0.77715 0.0
C2739 C 0.38556 0.19988 0.83504 0.0
C2740 C 0.38506 0.21382 0.84746 0.0
C2741 C 0.37191 0.22662 0.84601 0.0
C2742 C 0.35973 0.22586 0.83251 0.0
C2743 C 0.36076 0.21217 0.82049 0.0
C2744 C 0.37323 0.19932 0.82159 0.0
C2745 C 0.37068 0.18542 0.80704 0.0
C2746 C 0.3961 0.19445 0.7996 0.0
C2747 C 0.35748 0.15787 0.80996 0.0
C2748 C 0.3546 0.19227 0.79771 0.0
C2749 C 0.34924 0.20782 0.80571 0.0
C2750 C 0.33406 0.2161 0.79978 0.0
C2751 C 0.32373 0.20797 0.78537 0.0
C2752 C 0.32859 0.19172 0.77703 0.0
C2753 C 0.34455 0.18409 0.78321 0.0
H2754 H 0.8195 0.20529 0.83164 0.0
H2755 H 0.79623 0.13593 0.85334 0.0
H2756 H 0.80653 0.12107 0.8302 0.0
H2757 H 0.7965 0.18082 0.79396 0.0
H2758 H 0.82227 0.20545 0.78433 0.0
H2759 H 0.81252 0.21068 0.80248 0.0
H2760 H 0.85697 0.22725 0.81309 0.0
H2761 H 0.86687 0.22215 0.79496 0.0
H2762 H 0.87139 0.20874 0.81177 0.0
H2763 H 0.8209 0.11412 0.80533 0.0
H2764 H 0.83801 0.11533 0.77993 0.0
H2765 H 0.8515 0.18871 0.77371 0.0
C2766 C 0.8166 0.18699 0.83151 0.0
C2767 C 0.80688 0.17172 0.84432 0.0
C2768 C 0.80325 0.14784 0.84363 0.0
C2769 C 0.80916 0.13926 0.83055 0.0
C2770 C 0.81861 0.15469 0.81815 0.0
C2771 C 0.82226 0.17803 0.81845 0.0
C2772 C 0.83295 0.19089 0.80355 0.0
C2773 C 0.81498 0.19734 0.79561 0.0
C2774 C 0.85856 0.2136 0.80599 0.0
C2775 C 0.83499 0.17122 0.79492 0.0
C2776 C 0.8266 0.15051 0.8036 0.0
C2777 C 0.82738 0.13017 0.79839 0.0
C2778 C 0.83719 0.13105 0.78398 0.0
C2779 C 0.846 0.15206 0.77486 0.0
C2780 C 0.8446 0.17231 0.78036 0.0
H2781 H 0.28305 0.10744 0.50594 0.0
H2782 H 0.29783 0.18163 0.50098 0.0
H2783 H 0.31653 0.19151 0.52646 0.0
H2784 H 0.269 0.10075 0.54532 0.0
H2785 H 0.28465 0.08391 0.54917 0.0
H2786 H 0.27164 0.08232 0.53068 0.0
H2787 H 0.31446 0.0962 0.51845 0.0
H2788 H 0.3276 0.09776 0.53691 0.0
H2789 H 0.34113 0.12406 0.5248 0.0
H2790 H 0.33269 0.19314 0.55284 0.0
H2791 H 0.34766 0.18694 0.57753 0.0
H2792 H 0.32546 0.1129 0.56442 0.0
C2793 C 0.29045 0.12587 0.51006 0.0
C2794 C 0.28859 0.14362 0.50138 0.0
C2795 C 0.29833 0.16743 0.50745 0.0
C2796 C 0.30923 0.17333 0.5219 0.0
C2797 C 0.31062 0.15537 0.53012 0.0
C2798 C 0.30175 0.1322 0.52436 0.0
C2799 C 0.30609 0.11642 0.53536 0.0
C2800 C 0.28137 0.09456 0.54043 0.0
C2801 C 0.32335 0.10813 0.52847 0.0
C2802 C 0.31867 0.1343 0.54823 0.0
C2803 C 0.32091 0.15662 0.54504 0.0
C2804 C 0.33122 0.17581 0.55542 0.0
C2805 C 0.33958 0.17213 0.5694 0.0
C2806 C 0.33783 0.14954 0.57276 0.0
C2807 C 0.32728 0.13045 0.56202 0.0
H2808 H 0.83824 0.14825 0.49832 0.0
H2809 H 0.9171 0.17709 0.50568 0.0
H2810 H 0.91295 0.18835 0.53184 0.0
H2811 H 0.8327 0.19315 0.52028 0.0
H2812 H 0.8027 0.17174 0.5278 0.0
H2813 H 0.81192 0.16639 0.50951 0.0
H2814 H 0.80377 0.12416 0.51841 0.0
H2815 H 0.79445 0.12934 0.5367 0.0
H2816 H 0.8189 0.12205 0.5353 0.0
H2817 H 0.90014 0.19588 0.55735 0.0
H2818 H 0.8796 0.19918 0.58039 0.0
H2819 H 0.80887 0.16444 0.55667 0.0
C2820 C 0.85463 0.1568 0.50545 0.0
C2821 C 0.87804 0.16186 0.49988 0.0
C2822 C 0.89905 0.17336 0.50956 0.0
C2823 C 0.89685 0.17971 0.52449 0.0
C2824 C 0.87353 0.17443 0.52959 0.0
C2825 C 0.85278 0.16323 0.52038 0.0
C2826 C 0.82981 0.15936 0.5287 0.0
C2827 C 0.81863 0.17351 0.52112 0.0
C2828 C 0.8106 0.13211 0.52985 0.0
C2829 C 0.84088 0.17007 0.54405 0.0
C2830 C 0.86612 0.17867 0.54432 0.0
C2831 C 0.88037 0.18917 0.55728 0.0
C2832 C 0.8685 0.19083 0.57034 0.0
C2833 C 0.84259 0.18201 0.57038 0.0
C2834 C 0.82872 0.1716 0.55698 0.0
H2835 H 0.82866 0.71262 0.49905 0.0
H2836 H 0.90843 0.74902 0.50583 0.0
H2837 H 0.90203 0.73386 0.53205 0.0
H2838 H 0.81394 0.72485 0.53681 0.0
H2839 H 0.78584 0.69582 0.53815 0.0
H2840 H 0.79668 0.70975 0.51992 0.0
H2841 H 0.79635 0.67096 0.51033 0.0
H2842 H 0.78561 0.65696 0.52854 0.0
H2843 H 0.81353 0.65964 0.52061 0.0
H2844 H 0.88704 0.71383 0.55739 0.0
H2845 H 0.86458 0.69071 0.58 0.0
H2846 H 0.79449 0.6689 0.55728 0.0
C2847 C 0.84481 0.71767 0.50608 0.0
C2848 C 0.86909 0.73194 0.50025 0.0
C2849 C 0.88965 0.73778 0.50986 0.0
C2850 C 0.88621 0.7294 0.52484 0.0
C2851 C 0.86208 0.71525 0.53016 0.0
C2852 C 0.84172 0.7095 0.5211 0.0
C2853 C 0.81775 0.69379 0.52957 0.0
C2854 C 0.80267 0.70684 0.53121 0.0
C2855 C 0.80241 0.66886 0.5218 0.0
C2856 C 0.82784 0.69146 0.54475 0.0
C2857 C 0.85345 0.704 0.54485 0.0
C2858 C 0.86697 0.70413 0.55749 0.0
C2859 C 0.85399 0.69104 0.57035 0.0
C2860 C 0.82768 0.678 0.57057 0.0
C2861 C 0.81457 0.67842 0.55753 0.0
loop_
_geom_bond_atom_site_label_1
_geom_bond_atom_site_label_2
_geom_bond_distance
_geom_bond_site_symmetry_2
_ccdc_geom_bond_type
C0 C1 1.384 . S
C0 H13 0.947 . S
C0 C35 1.382 . S
C1 C0 1.384 . S
C1 C2 1.378 . S
C2 C1 1.378 . S
C2 C3 1.378 . S
C2 H14 0.952 . S
C3 C2 1.378 . S
C3 H15 0.950 . S
C3 C34 1.383 . S
H4 C23 0.947 . S
H5 C24 0.946 . S
H6 C26 0.953 . S
H7 C27 0.945 . S
H8 C29 0.952 . S
H9 C30 0.949 . S
H10 C32 0.950 . S
H11 C33 0.948 . S
H12 C35 0.951 . S
H13 C0 0.947 . S
H14 C2 0.952 . S
H15 C3 0.950 . S
N16 C19 1.382 . S
N16 C21 1.363 . S
N17 C19 1.371 . S
N17 C20 1.372 . S
N18 C20 1.361 . S
N18 C21 1.377 . S
C19 N16 1.382 . S
C19 N17 1.371 . S
C19 C22 1.480 . S
C20 N17 1.372 . S
C20 N18 1.361 . S
C20 C28 1.457 . S
C21 N16 1.363 . S
C21 N18 1.377 . S
C21 C34 1.479 . S
C22 C19 1.480 . S
C22 C23 1.383 . S
C22 C27 1.385 . S
C23 H4 0.947 . S
C23 C22 1.383 . S
C23 C24 1.388 . S
C24 H5 0.946 . S
C24 C23 1.388 . S
C24 C25 1.384 . S
C25 C24 1.384 . S
C25 C26 1.377 . S
C26 H6 0.953 . S
C26 C25 1.377 . S
C26 C27 1.369 . S
C27 H7 0.945 . S
C27 C22 1.385 . S
C27 C26 1.369 . S
C28 C20 1.457 . S
C28 C29 1.372 . S
C28 C33 1.364 . S
C29 H8 0.952 . S
C29 C28 1.372 . S
C29 C30 1.389 . S
C30 H9 0.949 . S
C30 C29 1.389 . S
C30 C31 1.387 . S
C31 C30 1.387 . S
C31 C32 1.372 . S
C32 H10 0.950 . S
C32 C31 1.372 . S
C32 C33 1.379 . S
C33 H11 0.948 . S
C33 C28 1.364 . S
C33 C32 1.379 . S
C34 C3 1.383 . S
C34 C21 1.479 . S
C34 C35 1.398 . S
C35 C0 1.382 . S
C35 H12 0.951 . S
C35 C34 1.398 . S
C36 C37 1.384 . S
C36 H49 0.947 . S
C36 C71 1.382 . S
C37 C36 1.384 . S
C37 C38 1.378 . S
C38 C37 1.378 . S
C38 C39 1.378 . S
C38 H50 0.952 . S
C39 C38 1.378 . S
C39 H51 0.950 . S
C39 C70 1.383 . S
H40 C59 0.947 . S
H41 C60 0.946 . S
H42 C62 0.953 . S
H43 C63 0.945 . S
H44 C65 0.952 . S
H45 C66 0.949 . S
H46 C68 0.950 . S
H47 C69 0.948 . S
H48 C71 0.951 . S
H49 C36 0.947 . S
H50 C38 0.952 . S
H51 C39 0.950 . S
N52 C55 1.382 . S
N52 C57 1.363 . S
N53 C55 1.371 . S
N53 C56 1.372 . S
N54 C56 1.361 . S
N54 C57 1.377 . S
C55 N52 1.382 . S
C55 N53 1.371 . S
C55 C58 1.480 . S
C56 N53 1.372 . S
C56 N54 1.361 . S
C56 C64 1.457 . S
C57 N52 1.363 . S
C57 N54 1.377 . S
C57 C70 1.479 . S
C58 C55 1.480 . S
C58 C59 1.383 . S
C58 C63 1.385 . S
C59 H40 0.947 . S
C59 C58 1.383 . S
C59 C60 1.388 . S
C60 H41 0.946 . S
C60 C59 1.388 . S
C60 C61 1.384 . S
C61 C60 1.384 . S
C61 C62 1.377 . S
C62 H42 0.953 . S
C62 C61 1.377 . S
C62 C63 1.369 . S
C63 H43 0.945 . S
C63 C58 1.385 . S
C63 C62 1.369 . S
C64 C56 1.457 . S
C64 C65 1.372 . S
C64 C69 1.364 . S
C65 H44 0.952 . S
C65 C64 1.372 . S
C65 C66 1.389 . S
C66 H45 0.949 . S
C66 C65 1.389 . S
C66 C67 1.387 . S
C67 C66 1.387 . S
C67 C68 1.372 . S
C68 H46 0.950 . S
C68 C67 1.372 . S
C68 C69 1.379 . S
C69 H47 0.948 . S
C69 C64 1.364 . S
C69 C68 1.379 . S
C70 C39 1.383 . S
C70 C57 1.479 . S
C70 C71 1.398 . S
C71 C36 1.382 . S
C71 H48 0.951 . S
C71 C70 1.398 . S
C72 C73 1.384 . S
C72 H85 0.947 . S
C72 C107 1.382 . S
C73 C72 1.384 . S
C73 C74 1.378 . S
C74 C73 1.378 . S
C74 C75 1.378 . S
C74 H86 0.952 . S
C75 C74 1.378 . S
C75 H87 0.950 . S
C75 C106 1.383 . S
H76 C95 0.947 . S
H77 C96 0.946 . S
H78 C98 0.953 . S
H79 C99 0.945 . S
H80 C101 0.952 . S
H81 C102 0.949 . S
H82 C104 0.950 . S
H83 C105 0.948 . S
H84 C107 0.951 . S
H85 C72 0.947 . S
H86 C74 0.952 . S
H87 C75 0.950 . S
N88 C91 1.382 . S
N88 C93 1.363 . S
N89 C91 1.371 . S
N89 C92 1.372 . S
N90 C92 1.361 . S
N90 C93 1.377 . S
C91 N88 1.382 . S
C91 N89 1.371 . S
C91 C94 1.480 . S
C92 N89 1.372 . S
C92 N90 1.361 . S
C92 C100 1.457 . S
C93 N88 1.363 . S
C93 N90 1.377 . S
C93 C106 1.479 . S
C94 C91 1.480 . S
C94 C95 1.383 . S
C94 C99 1.385 . S
C95 H76 0.947 . S
C95 C94 1.383 . S
C95 C96 1.388 . S
C96 H77 0.946 . S
C96 C95 1.388 . S
C96 C97 1.384 . S
C97 C96 1.384 . S
C97 C98 1.377 . S
C98 H78 0.953 . S
C98 C97 1.377 . S
C98 C99 1.369 . S
C99 H79 0.945 . S
C99 C94 1.385 . S
C99 C98 1.369 . S
C100 C92 1.457 . S
C100 C101 1.372 . S
C100 C105 1.364 . S
C101 H80 0.952 . S
C101 C100 1.372 . S
C101 C102 1.389 . S
C102 H81 0.949 . S
C102 C101 1.389 . S
C102 C103 1.387 . S
C103 C102 1.387 . S
C103 C104 1.372 . S
C104 H82 0.950 . S
C104 C103 1.372 . S
C104 C105 1.379 . S
C105 H83 0.948 . S
C105 C100 1.364 . S
C105 C104 1.379 . S
C106 C75 1.383 . S
C106 C93 1.479 . S
C106 C107 1.398 . S
C107 C72 1.382 . S
C107 H84 0.951 . S
C107 C106 1.398 . S
C108 C109 1.384 . S
C108 H121 0.947 . S
C108 C143 1.382 . S
C109 C108 1.384 . S
C109 C110 1.378 . S
C110 C109 1.378 . S
C110 C111 1.378 . S
C110 H122 0.952 . S
C111 C110 1.378 . S
C111 H123 0.950 . S
C111 C142 1.383 . S
H112 C131 0.947 . S
H113 C132 0.946 . S
H114 C134 0.953 . S
H115 C135 0.945 . S
H116 C137 0.952 . S
H117 C138 0.949 . S
H118 C140 0.950 . S
H119 C141 0.948 . S
H120 C143 0.951 . S
H121 C108 0.947 . S
H122 C110 0.952 . S
H123 C111 0.950 . S
N124 C127 1.382 . S
N124 C129 1.363 . S
N125 C127 1.371 . S
N125 C128 1.372 . S
N126 C128 1.361 . S
N126 C129 1.377 . S
C127 N124 1.382 . S
C127 N125 1.371 . S
C127 C130 1.480 . S
C128 N125 1.372 . S
C128 N126 1.361 . S
C128 C136 1.457 . S
C129 N124 1.363 . S
C129 N126 1.377 . S
C129 C142 1.479 . S
C130 C127 1.480 . S
C130 C131 1.383 . S
C130 C135 1.385 . S
C131 H112 0.947 . S
C131 C130 1.383 . S
C131 C132 1.388 . S
C132 H113 0.946 . S
C132 C131 1.388 . S
C132 C133 1.384 . S
C133 C132 1.384 . S
C133 C134 1.377 . S
C134 H114 0.953 . S
C134 C133 1.377 . S
C134 C135 1.369 . S
C135 H115 0.945 . S
C135 C130 1.385 . S
C135 C134 1.369 . S
C136 C128 1.457 . S
C136 C137 1.372 . S
C136 C141 1.364 . S
C137 H116 0.952 . S
C137 C136 1.372 . S
C137 C138 1.389 . S
C138 H117 0.949 . S
C138 C137 1.389 . S
C138 C139 1.387 . S
C139 C138 1.387 . S
C139 C140 1.372 . S
C140 H118 0.950 . S
C140 C139 1.372 . S
C140 C141 1.379 . S
C141 H119 0.948 . S
C141 C136 1.364 . S
C141 C140 1.379 . S
C142 C111 1.383 . S
C142 C129 1.479 . S
C142 C143 1.398 . S
C143 C108 1.382 . S
C143 H120 0.951 . S
C143 C142 1.398 . S
C144 C145 1.384 . S
C144 H157 0.947 . S
C144 C179 1.382 . S
C145 C144 1.384 . S
C145 C146 1.378 . S
C146 C145 1.378 . S
C146 C147 1.378 . S
C146 H158 0.952 . S
C147 C146 1.378 . S
C147 H159 0.950 . S
C147 C178 1.383 . S
H148 C167 0.947 . S
H149 C168 0.946 . S
H150 C170 0.953 . S
H151 C171 0.945 . S
H152 C173 0.952 . S
H153 C174 0.949 . S
H154 C176 0.950 . S
H155 C177 0.948 . S
H156 C179 0.951 . S
H157 C144 0.947 . S
H158 C146 0.952 . S
H159 C147 0.950 . S
N160 C163 1.382 . S
N160 C165 1.363 . S
N161 C163 1.371 . S
N161 C164 1.372 . S
N162 C164 1.361 . S
N162 C165 1.377 . S
C163 N160 1.382 . S
C163 N161 1.371 . S
C163 C166 1.480 . S
C164 N161 1.372 . S
C164 N162 1.361 . S
C164 C172 1.457 . S
C165 N160 1.363 . S
C165 N162 1.377 . S
C165 C178 1.479 . S
C166 C163 1.480 . S
C166 C167 1.383 . S
C166 C171 1.385 . S
C167 H148 0.947 . S
C167 C166 1.383 . S
C167 C168 1.388 . S
C168 H149 0.946 . S
C168 C167 1.388 . S
C168 C169 1.384 . S
C169 C168 1.384 . S
C169 C170 1.377 . S
C170 H150 0.953 . S
C170 C169 1.377 . S
C170 C171 1.369 . S
C171 H151 0.945 . S
C171 C166 1.385 . S
C171 C170 1.369 . S
C172 C164 1.457 . S
C172 C173 1.372 . S
C172 C177 1.364 . S
C173 H152 0.952 . S
C173 C172 1.372 . S
C173 C174 1.389 . S
C174 H153 0.949 . S
C174 C173 1.389 . S
C174 C175 1.387 . S
C175 C174 1.387 . S
C175 C176 1.372 . S
C176 H154 0.950 . S
C176 C175 1.372 . S
C176 C177 1.379 . S
C177 H155 0.948 . S
C177 C172 1.364 . S
C177 C176 1.379 . S
C178 C147 1.383 . S
C178 C165 1.479 . S
C178 C179 1.398 . S
C179 C144 1.382 . S
C179 H156 0.951 . S
C179 C178 1.398 . S
C180 C181 1.384 . S
C180 H193 0.947 . S
C180 C215 1.382 . S
C181 C180 1.384 . S
C181 C182 1.378 . S
C182 C181 1.378 . S
C182 C183 1.378 . S
C182 H194 0.952 . S
C183 C182 1.378 . S
C183 H195 0.950 . S
C183 C214 1.383 . S
H184 C203 0.947 . S
H185 C204 0.946 . S
H186 C206 0.953 . S
H187 C207 0.945 . S
H188 C209 0.952 . S
H189 C210 0.949 . S
H190 C212 0.950 . S
H191 C213 0.948 . S
H192 C215 0.951 . S
H193 C180 0.947 . S
H194 C182 0.952 . S
H195 C183 0.950 . S
N196 C199 1.382 . S
N196 C201 1.363 . S
N197 C199 1.371 . S
N197 C200 1.372 . S
N198 C200 1.361 . S
N198 C201 1.377 . S
C199 N196 1.382 . S
C199 N197 1.371 . S
C199 C202 1.480 . S
C200 N197 1.372 . S
C200 N198 1.361 . S
C200 C208 1.457 . S
C201 N196 1.363 . S
C201 N198 1.377 . S
C201 C214 1.479 . S
C202 C199 1.480 . S
C202 C203 1.383 . S
C202 C207 1.385 . S
C203 H184 0.947 . S
C203 C202 1.383 . S
C203 C204 1.388 . S
C204 H185 0.946 . S
C204 C203 1.388 . S
C204 C205 1.384 . S
C205 C204 1.384 . S
C205 C206 1.377 . S
C206 H186 0.953 . S
C206 C205 1.377 . S
C206 C207 1.369 . S
C207 H187 0.945 . S
C207 C202 1.385 . S
C207 C206 1.369 . S
C208 C200 1.457 . S
C208 C209 1.372 . S
C208 C213 1.364 . S
C209 H188 0.952 . S
C209 C208 1.372 . S
C209 C210 1.389 . S
C210 H189 0.949 . S
C210 C209 1.389 . S
C210 C211 1.387 . S
C211 C210 1.387 . S
C211 C212 1.372 . S
C212 H190 0.950 . S
C212 C211 1.372 . S
C212 C213 1.379 . S
C213 H191 0.948 . S
C213 C208 1.364 . S
C213 C212 1.379 . S
C214 C183 1.383 . S
C214 C201 1.479 . S
C214 C215 1.398 . S
C215 C180 1.382 . S
C215 H192 0.951 . S
C215 C214 1.398 . S
C216 C217 1.384 . S
C216 H229 0.947 . S
C216 C251 1.382 . S
C217 C216 1.384 . S
C217 C218 1.378 . S
C218 C217 1.378 . S
C218 C219 1.378 . S
C218 H230 0.952 . S
C219 C218 1.378 . S
C219 H231 0.950 . S
C219 C250 1.383 . S
H220 C239 0.947 . S
H221 C240 0.946 . S
H222 C242 0.953 . S
H223 C243 0.945 . S
H224 C245 0.952 . S
H225 C246 0.949 . S
H226 C248 0.950 . S
H227 C249 0.948 . S
H228 C251 0.951 . S
H229 C216 0.947 . S
H230 C218 0.952 . S
H231 C219 0.950 . S
N232 C235 1.382 . S
N232 C237 1.363 . S
N233 C235 1.371 . S
N233 C236 1.372 . S
N234 C236 1.361 . S
N234 C237 1.377 . S
C235 N232 1.382 . S
C235 N233 1.371 . S
C235 C238 1.480 . S
C236 N233 1.372 . S
C236 N234 1.361 . S
C236 C244 1.457 . S
C237 N232 1.363 . S
C237 N234 1.377 . S
C237 C250 1.479 . S
C238 C235 1.480 . S
C238 C239 1.383 . S
C238 C243 1.385 . S
C239 H220 0.947 . S
C239 C238 1.383 . S
C239 C240 1.388 . S
C240 H221 0.946 . S
C240 C239 1.388 . S
C240 C241 1.384 . S
C241 C240 1.384 . S
C241 C242 1.377 . S
C242 H222 0.953 . S
C242 C241 1.377 . S
C242 C243 1.369 . S
C243 H223 0.945 . S
C243 C238 1.385 . S
C243 C242 1.369 . S
C244 C236 1.457 . S
C244 C245 1.372 . S
C244 C249 1.364 . S
C245 H224 0.952 . S
C245 C244 1.372 . S
C245 C246 1.389 . S
C246 H225 0.949 . S
C246 C245 1.389 . S
C246 C247 1.387 . S
C247 C246 1.387 . S
C247 C248 1.372 . S
C248 H226 0.950 . S
C248 C247 1.372 . S
C248 C249 1.379 . S
C249 H227 0.948 . S
C249 C244 1.364 . S
C249 C248 1.379 . S
C250 C219 1.383 . S
C250 C237 1.479 . S
C250 C251 1.398 . S
C251 C216 1.382 . S
C251 H228 0.951 . S
C251 C250 1.398 . S
C252 C253 1.384 . S
C252 H265 0.947 . S
C252 C287 1.382 . S
C253 C252 1.384 . S
C253 C254 1.378 . S
C254 C253 1.378 . S
C254 C255 1.378 . S
C254 H266 0.952 . S
C255 C254 1.378 . S
C255 H267 0.950 . S
C255 C286 1.383 . S
H256 C275 0.947 . S
H257 C276 0.946 . S
H258 C278 0.953 . S
H259 C279 0.945 . S
H260 C281 0.952 . S
H261 C282 0.949 . S
H262 C284 0.950 . S
H263 C285 0.948 . S
H264 C287 0.951 . S
H265 C252 0.947 . S
H266 C254 0.952 . S
H267 C255 0.950 . S
N268 C271 1.382 . S
N268 C273 1.363 . S
N269 C271 1.371 . S
N269 C272 1.372 . S
N270 C272 1.361 . S
N270 C273 1.377 . S
C271 N268 1.382 . S
C271 N269 1.371 . S
C271 C274 1.480 . S
C272 N269 1.372 . S
C272 N270 1.361 . S
C272 C280 1.457 . S
C273 N268 1.363 . S
C273 N270 1.377 . S
C273 C286 1.479 . S
C274 C271 1.480 . S
C274 C275 1.383 . S
C274 C279 1.385 . S
C275 H256 0.947 . S
C275 C274 1.383 . S
C275 C276 1.388 . S
C276 H257 0.946 . S
C276 C275 1.388 . S
C276 C277 1.384 . S
C277 C276 1.384 . S
C277 C278 1.377 . S
C278 H258 0.953 . S
C278 C277 1.377 . S
C278 C279 1.369 . S
C279 H259 0.945 . S
C279 C274 1.385 . S
C279 C278 1.369 . S
C280 C272 1.457 . S
C280 C281 1.372 . S
C280 C285 1.364 . S
C281 H260 0.952 . S
C281 C280 1.372 . S
C281 C282 1.389 . S
C282 H261 0.949 . S
C282 C281 1.389 . S
C282 C283 1.387 . S
C283 C282 1.387 . S
C283 C284 1.372 . S
C284 H262 0.950 . S
C284 C283 1.372 . S
C284 C285 1.379 . S
C285 H263 0.948 . S
C285 C280 1.364 . S
C285 C284 1.379 . S
C286 C255 1.383 . S
C286 C273 1.479 . S
C286 C287 1.398 . S
C287 C252 1.382 . S
C287 H264 0.951 . S
C287 C286 1.398 . S
C288 C289 1.384 . S
C288 H301 0.947 . S
C288 C323 1.382 . S
C289 C288 1.384 . S
C289 C290 1.378 . S
C290 C289 1.378 . S
C290 C291 1.378 . S
C290 H302 0.952 . S
C291 C290 1.378 . S
C291 H303 0.950 . S
C291 C322 1.383 . S
H292 C311 0.947 . S
H293 C312 0.946 . S
H294 C314 0.953 . S
H295 C315 0.945 . S
H296 C317 0.952 . S
H297 C318 0.949 . S
H298 C320 0.950 . S
H299 C321 0.948 . S
H300 C323 0.951 . S
H301 C288 0.947 . S
H302 C290 0.952 . S
H303 C291 0.950 . S
N304 C307 1.382 . S
N304 C309 1.363 . S
N305 C307 1.371 . S
N305 C308 1.372 . S
N306 C308 1.361 . S
N306 C309 1.377 . S
C307 N304 1.382 . S
C307 N305 1.371 . S
C307 C310 1.480 . S
C308 N305 1.372 . S
C308 N306 1.361 . S
C308 C316 1.457 . S
C309 N304 1.363 . S
C309 N306 1.377 . S
C309 C322 1.479 . S
C310 C307 1.480 . S
C310 C311 1.383 . S
C310 C315 1.385 . S
C311 H292 0.947 . S
C311 C310 1.383 . S
C311 C312 1.388 . S
C312 H293 0.946 . S
C312 C311 1.388 . S
C312 C313 1.384 . S
C313 C312 1.384 . S
C313 C314 1.377 . S
C314 H294 0.953 . S
C314 C313 1.377 . S
C314 C315 1.369 . S
C315 H295 0.945 . S
C315 C310 1.385 . S
C315 C314 1.369 . S
C316 C308 1.457 . S
C316 C317 1.372 . S
C316 C321 1.364 . S
C317 H296 0.952 . S
C317 C316 1.372 . S
C317 C318 1.389 . S
C318 H297 0.949 . S
C318 C317 1.389 . S
C318 C319 1.387 . S
C319 C318 1.387 . S
C319 C320 1.372 . S
C320 H298 0.950 . S
C320 C319 1.372 . S
C320 C321 1.379 . S
C321 H299 0.948 . S
C321 C316 1.364 . S
C321 C320 1.379 . S
C322 C291 1.383 . S
C322 C309 1.479 . S
C322 C323 1.398 . S
C323 C288 1.382 . S
C323 H300 0.951 . S
C323 C322 1.398 . S
C324 C325 1.384 . S
C324 H337 0.947 . S
C324 C359 1.382 . S
C325 C324 1.384 . S
C325 C326 1.378 . S
C326 C325 1.378 . S
C326 C327 1.378 . S
C326 H338 0.952 . S
C327 C326 1.378 . S
C327 H339 0.950 . S
C327 C358 1.383 . S
H328 C347 0.947 . S
H329 C348 0.946 . S
H330 C350 0.953 . S
H331 C351 0.945 . S
H332 C353 0.952 . S
H333 C354 0.949 . S
H334 C356 0.950 . S
H335 C357 0.948 . S
H336 C359 0.951 . S
H337 C324 0.947 . S
H338 C326 0.952 . S
H339 C327 0.950 . S
N340 C343 1.382 . S
N340 C345 1.363 . S
N341 C343 1.371 . S
N341 C344 1.372 . S
N342 C344 1.361 . S
N342 C345 1.377 . S
C343 N340 1.382 . S
C343 N341 1.371 . S
C343 C346 1.480 . S
C344 N341 1.372 . S
C344 N342 1.361 . S
C344 C352 1.457 . S
C345 N340 1.363 . S
C345 N342 1.377 . S
C345 C358 1.479 . S
C346 C343 1.480 . S
C346 C347 1.383 . S
C346 C351 1.385 . S
C347 H328 0.947 . S
C347 C346 1.383 . S
C347 C348 1.388 . S
C348 H329 0.946 . S
C348 C347 1.388 . S
C348 C349 1.384 . S
C349 C348 1.384 . S
C349 C350 1.377 . S
C350 H330 0.953 . S
C350 C349 1.377 . S
C350 C351 1.369 . S
C351 H331 0.945 . S
C351 C346 1.385 . S
C351 C350 1.369 . S
C352 C344 1.457 . S
C352 C353 1.372 . S
C352 C357 1.364 . S
C353 H332 0.952 . S
C353 C352 1.372 . S
C353 C354 1.389 . S
C354 H333 0.949 . S
C354 C353 1.389 . S
C354 C355 1.387 . S
C355 C354 1.387 . S
C355 C356 1.372 . S
C356 H334 0.950 . S
C356 C355 1.372 . S
C356 C357 1.379 . S
C357 H335 0.948 . S
C357 C352 1.364 . S
C357 C356 1.379 . S
C358 C327 1.383 . S
C358 C345 1.479 . S
C358 C359 1.398 . S
C359 C324 1.382 . S
C359 H336 0.951 . S
C359 C358 1.398 . S
C360 C361 1.384 . S
C360 H373 0.947 . S
C360 C395 1.382 . S
C361 C360 1.384 . S
C361 C362 1.378 . S
C362 C361 1.378 . S
C362 C363 1.378 . S
C362 H374 0.952 . S
C363 C362 1.378 . S
C363 H375 0.950 . S
C363 C394 1.383 . S
H364 C383 0.947 . S
H365 C384 0.946 . S
H366 C386 0.953 . S
H367 C387 0.945 . S
H368 C389 0.952 . S
H369 C390 0.949 . S
H370 C392 0.950 . S
H371 C393 0.948 . S
H372 C395 0.951 . S
H373 C360 0.947 . S
H374 C362 0.952 . S
H375 C363 0.950 . S
N376 C379 1.382 . S
N376 C381 1.363 . S
N377 C379 1.371 . S
N377 C380 1.372 . S
N378 C380 1.361 . S
N378 C381 1.377 . S
C379 N376 1.382 . S
C379 N377 1.371 . S
C379 C382 1.480 . S
C380 N377 1.372 . S
C380 N378 1.361 . S
C380 C388 1.457 . S
C381 N376 1.363 . S
C381 N378 1.377 . S
C381 C394 1.479 . S
C382 C379 1.480 . S
C382 C383 1.383 . S
C382 C387 1.385 . S
C383 H364 0.947 . S
C383 C382 1.383 . S
C383 C384 1.388 . S
C384 H365 0.946 . S
C384 C383 1.388 . S
C384 C385 1.384 . S
C385 C384 1.384 . S
C385 C386 1.377 . S
C386 H366 0.953 . S
C386 C385 1.377 . S
C386 C387 1.369 . S
C387 H367 0.945 . S
C387 C382 1.385 . S
C387 C386 1.369 . S
C388 C380 1.457 . S
C388 C389 1.372 . S
C388 C393 1.364 . S
C389 H368 0.952 . S
C389 C388 1.372 . S
C389 C390 1.389 . S
C390 H369 0.949 . S
C390 C389 1.389 . S
C390 C391 1.387 . S
C391 C390 1.387 . S
C391 C392 1.372 . S
C392 H370 0.950 . S
C392 C391 1.372 . S
C392 C393 1.379 . S
C393 H371 0.948 . S
C393 C388 1.364 . S
C393 C392 1.379 . S
C394 C363 1.383 . S
C394 C381 1.479 . S
C394 C395 1.398 . S
C395 C360 1.382 . S
C395 H372 0.951 . S
C395 C394 1.398 . S
C396 C397 1.384 . S
C396 H409 0.947 . S
C396 C431 1.382 . S
C397 C396 1.384 . S
C397 C398 1.378 . S
C398 C397 1.378 . S
C398 C399 1.378 . S
C398 H410 0.952 . S
C399 C398 1.378 . S
C399 H411 0.950 . S
C399 C430 1.383 . S
H400 C419 0.947 . S
H401 C420 0.946 . S
H402 C422 0.953 . S
H403 C423 0.945 . S
H404 C425 0.952 . S
H405 C426 0.949 . S
H406 C428 0.950 . S
H407 C429 0.948 . S
H408 C431 0.951 . S
H409 C396 0.947 . S
H410 C398 0.952 . S
H411 C399 0.950 . S
N412 C415 1.382 . S
N412 C417 1.363 . S
N413 C415 1.371 . S
N413 C416 1.372 . S
N414 C416 1.361 . S
N414 C417 1.377 . S
C415 N412 1.382 . S
C415 N413 1.371 . S
C415 C418 1.480 . S
C416 N413 1.372 . S
C416 N414 1.361 . S
C416 C424 1.457 . S
C417 N412 1.363 . S
C417 N414 1.377 . S
C417 C430 1.479 . S
C418 C415 1.480 . S
C418 C419 1.383 . S
C418 C423 1.385 . S
C419 H400 0.947 . S
C419 C418 1.383 . S
C419 C420 1.388 . S
C420 H401 0.946 . S
C420 C419 1.388 . S
C420 C421 1.384 . S
C421 C420 1.384 . S
C421 C422 1.377 . S
C422 H402 0.953 . S
C422 C421 1.377 . S
C422 C423 1.369 . S
C423 H403 0.945 . S
C423 C418 1.385 . S
C423 C422 1.369 . S
C424 C416 1.457 . S
C424 C425 1.372 . S
C424 C429 1.364 . S
C425 H404 0.952 . S
C425 C424 1.372 . S
C425 C426 1.389 . S
C426 H405 0.949 . S
C426 C425 1.389 . S
C426 C427 1.387 . S
C427 C426 1.387 . S
C427 C428 1.372 . S
C428 H406 0.950 . S
C428 C427 1.372 . S
C428 C429 1.379 . S
C429 H407 0.948 . S
C429 C424 1.364 . S
C429 C428 1.379 . S
C430 C399 1.383 . S
C430 C417 1.479 . S
C430 C431 1.398 . S
C431 C396 1.382 . S
C431 H408 0.951 . S
C431 C430 1.398 . S
C432 C433 1.384 . S
C432 H445 0.947 . S
C432 C467 1.382 . S
C433 C432 1.384 . S
C433 C434 1.378 . S
C434 C433 1.378 . S
C434 C435 1.378 . S
C434 H446 0.952 . S
C435 C434 1.378 . S
C435 H447 0.950 . S
C435 C466 1.383 . S
H436 C455 0.947 . S
H437 C456 0.946 . S
H438 C458 0.953 . S
H439 C459 0.945 . S
H440 C461 0.952 . S
H441 C462 0.949 . S
H442 C464 0.950 . S
H443 C465 0.948 . S
H444 C467 0.951 . S
H445 C432 0.947 . S
H446 C434 0.952 . S
H447 C435 0.950 . S
N448 C451 1.382 . S
N448 C453 1.363 . S
N449 C451 1.371 . S
N449 C452 1.372 . S
N450 C452 1.361 . S
N450 C453 1.377 . S
C451 N448 1.382 . S
C451 N449 1.371 . S
C451 C454 1.480 . S
C452 N449 1.372 . S
C452 N450 1.361 . S
C452 C460 1.457 . S
C453 N448 1.363 . S
C453 N450 1.377 . S
C453 C466 1.479 . S
C454 C451 1.480 . S
C454 C455 1.383 . S
C454 C459 1.385 . S
C455 H436 0.947 . S
C455 C454 1.383 . S
C455 C456 1.388 . S
C456 H437 0.946 . S
C456 C455 1.388 . S
C456 C457 1.384 . S
C457 C456 1.384 . S
C457 C458 1.377 . S
C458 H438 0.953 . S
C458 C457 1.377 . S
C458 C459 1.369 . S
C459 H439 0.945 . S
C459 C454 1.385 . S
C459 C458 1.369 . S
C460 C452 1.457 . S
C460 C461 1.372 . S
C460 C465 1.364 . S
C461 H440 0.952 . S
C461 C460 1.372 . S
C461 C462 1.389 . S
C462 H441 0.949 . S
C462 C461 1.389 . S
C462 C463 1.387 . S
C463 C462 1.387 . S
C463 C464 1.372 . S
C464 H442 0.950 . S
C464 C463 1.372 . S
C464 C465 1.379 . S
C465 H443 0.948 . S
C465 C460 1.364 . S
C465 C464 1.379 . S
C466 C435 1.383 . S
C466 C453 1.479 . S
C466 C467 1.398 . S
C467 C432 1.382 . S
C467 H444 0.951 . S
C467 C466 1.398 . S
C468 C469 1.384 . S
C468 H481 0.947 . S
C468 C503 1.382 . S
C469 C468 1.384 . S
C469 C470 1.378 . S
C470 C469 1.378 . S
C470 C471 1.378 . S
C470 H482 0.952 . S
C471 C470 1.378 . S
C471 H483 0.950 . S
C471 C502 1.383 . S
H472 C491 0.947 . S
H473 C492 0.946 . S
H474 C494 0.953 . S
H475 C495 0.945 . S
H476 C497 0.952 . S
H477 C498 0.949 . S
H478 C500 0.950 . S
H479 C501 0.948 . S
H480 C503 0.951 . S
H481 C468 0.947 . S
H482 C470 0.952 . S
H483 C471 0.950 . S
N484 C487 1.382 . S
N484 C489 1.363 . S
N485 C487 1.371 . S
N485 C488 1.372 . S
N486 C488 1.361 . S
N486 C489 1.377 . S
C487 N484 1.382 . S
C487 N485 1.371 . S
C487 C490 1.480 . S
C488 N485 1.372 . S
C488 N486 1.361 . S
C488 C496 1.457 . S
C489 N484 1.363 . S
C489 N486 1.377 . S
C489 C502 1.479 . S
C490 C487 1.480 . S
C490 C491 1.383 . S
C490 C495 1.385 . S
C491 H472 0.947 . S
C491 C490 1.383 . S
C491 C492 1.388 . S
C492 H473 0.946 . S
C492 C491 1.388 . S
C492 C493 1.384 . S
C493 C492 1.384 . S
C493 C494 1.377 . S
C494 H474 0.953 . S
C494 C493 1.377 . S
C494 C495 1.369 . S
C495 H475 0.945 . S
C495 C490 1.385 . S
C495 C494 1.369 . S
C496 C488 1.457 . S
C496 C497 1.372 . S
C496 C501 1.364 . S
C497 H476 0.952 . S
C497 C496 1.372 . S
C497 C498 1.389 . S
C498 H477 0.949 . S
C498 C497 1.389 . S
C498 C499 1.387 . S
C499 C498 1.387 . S
C499 C500 1.372 . S
C500 H478 0.950 . S
C500 C499 1.372 . S
C500 C501 1.379 . S
C501 H479 0.948 . S
C501 C496 1.364 . S
C501 C500 1.379 . S
C502 C471 1.383 . S
C502 C489 1.479 . S
C502 C503 1.398 . S
C503 C468 1.382 . S
C503 H480 0.951 . S
C503 C502 1.398 . S
C504 C505 1.384 . S
C504 H517 0.947 . S
C504 C539 1.382 . S
C505 C504 1.384 . S
C505 C506 1.378 . S
C506 C505 1.378 . S
C506 C507 1.378 . S
C506 H518 0.952 . S
C507 C506 1.378 . S
C507 H519 0.950 . S
C507 C538 1.383 . S
H508 C527 0.947 . S
H509 C528 0.946 . S
H510 C530 0.953 . S
H511 C531 0.945 . S
H512 C533 0.952 . S
H513 C534 0.949 . S
H514 C536 0.950 . S
H515 C537 0.948 . S
H516 C539 0.951 . S
H517 C504 0.947 . S
H518 C506 0.952 . S
H519 C507 0.950 . S
N520 C523 1.382 . S
N520 C525 1.363 . S
N521 C523 1.371 . S
N521 C524 1.372 . S
N522 C524 1.361 . S
N522 C525 1.377 . S
C523 N520 1.382 . S
C523 N521 1.371 . S
C523 C526 1.480 . S
C524 N521 1.372 . S
C524 N522 1.361 . S
C524 C532 1.457 . S
C525 N520 1.363 . S
C525 N522 1.377 . S
C525 C538 1.479 . S
C526 C523 1.480 . S
C526 C527 1.383 . S
C526 C531 1.385 . S
C527 H508 0.947 . S
C527 C526 1.383 . S
C527 C528 1.388 . S
C528 H509 0.946 . S
C528 C527 1.388 . S
C528 C529 1.384 . S
C529 C528 1.384 . S
C529 C530 1.377 . S
C530 H510 0.953 . S
C530 C529 1.377 . S
C530 C531 1.369 . S
C531 H511 0.945 . S
C531 C526 1.385 . S
C531 C530 1.369 . S
C532 C524 1.457 . S
C532 C533 1.372 . S
C532 C537 1.364 . S
C533 H512 0.952 . S
C533 C532 1.372 . S
C533 C534 1.389 . S
C534 H513 0.949 . S
C534 C533 1.389 . S
C534 C535 1.387 . S
C535 C534 1.387 . S
C535 C536 1.372 . S
C536 H514 0.950 . S
C536 C535 1.372 . S
C536 C537 1.379 . S
C537 H515 0.948 . S
C537 C532 1.364 . S
C537 C536 1.379 . S
C538 C507 1.383 . S
C538 C525 1.479 . S
C538 C539 1.398 . S
C539 C504 1.382 . S
C539 H516 0.951 . S
C539 C538 1.398 . S
C540 C541 1.384 . S
C540 H553 0.947 . S
C540 C575 1.382 . S
C541 C540 1.384 . S
C541 C542 1.378 . S
C542 C541 1.378 . S
C542 C543 1.378 . S
C542 H554 0.952 . S
C543 C542 1.378 . S
C543 H555 0.950 . S
C543 C574 1.383 . S
H544 C563 0.947 . S
H545 C564 0.946 . S
H546 C566 0.953 . S
H547 C567 0.945 . S
H548 C569 0.952 . S
H549 C570 0.949 . S
H550 C572 0.950 . S
H551 C573 0.948 . S
H552 C575 0.951 . S
H553 C540 0.947 . S
H554 C542 0.952 . S
H555 C543 0.950 . S
N556 C559 1.382 . S
N556 C561 1.363 . S
N557 C559 1.371 . S
N557 C560 1.372 . S
N558 C560 1.361 . S
N558 C561 1.377 . S
C559 N556 1.382 . S
C559 N557 1.371 . S
C559 C562 1.480 . S
C560 N557 1.372 . S
C560 N558 1.361 . S
C560 C568 1.457 . S
C561 N556 1.363 . S
C561 N558 1.377 . S
C561 C574 1.479 . S
C562 C559 1.480 . S
C562 C563 1.383 . S
C562 C567 1.385 . S
C563 H544 0.947 . S
C563 C562 1.383 . S
C563 C564 1.388 . S
C564 H545 0.946 . S
C564 C563 1.388 . S
C564 C565 1.384 . S
C565 C564 1.384 . S
C565 C566 1.377 . S
C566 H546 0.953 . S
C566 C565 1.377 . S
C566 C567 1.369 . S
C567 H547 0.945 . S
C567 C562 1.385 . S
C567 C566 1.369 . S
C568 C560 1.457 . S
C568 C569 1.372 . S
C568 C573 1.364 . S
C569 H548 0.952 . S
C569 C568 1.372 . S
C569 C570 1.389 . S
C570 H549 0.949 . S
C570 C569 1.389 . S
C570 C571 1.387 . S
C571 C570 1.387 . S
C571 C572 1.372 . S
C572 H550 0.950 . S
C572 C571 1.372 . S
C572 C573 1.379 . S
C573 H551 0.948 . S
C573 C568 1.364 . S
C573 C572 1.379 . S
C574 C543 1.383 . S
C574 C561 1.479 . S
C574 C575 1.398 . S
C575 C540 1.382 . S
C575 H552 0.951 . S
C575 C574 1.398 . S
C576 C577 1.384 . S
C576 H589 0.947 . S
C576 C611 1.382 . S
C577 C576 1.384 . S
C577 C578 1.378 . S
C578 C577 1.378 . S
C578 C579 1.378 . S
C578 H590 0.952 . S
C579 C578 1.378 . S
C579 H591 0.950 . S
C579 C610 1.383 . S
H580 C599 0.947 . S
H581 C600 0.946 . S
H582 C602 0.953 . S
H583 C603 0.945 . S
H584 C605 0.952 . S
H585 C606 0.949 . S
H586 C608 0.950 . S
H587 C609 0.948 . S
H588 C611 0.951 . S
H589 C576 0.947 . S
H590 C578 0.952 . S
H591 C579 0.950 . S
N592 C595 1.382 . S
N592 C597 1.363 . S
N593 C595 1.371 . S
N593 C596 1.372 . S
N594 C596 1.361 . S
N594 C597 1.377 . S
C595 N592 1.382 . S
C595 N593 1.371 . S
C595 C598 1.480 . S
C596 N593 1.372 . S
C596 N594 1.361 . S
C596 C604 1.457 . S
C597 N592 1.363 . S
C597 N594 1.377 . S
C597 C610 1.479 . S
C598 C595 1.480 . S
C598 C599 1.383 . S
C598 C603 1.385 . S
C599 H580 0.947 . S
C599 C598 1.383 . S
C599 C600 1.388 . S
C600 H581 0.946 . S
C600 C599 1.388 . S
C600 C601 1.384 . S
C601 C600 1.384 . S
C601 C602 1.377 . S
C602 H582 0.953 . S
C602 C601 1.377 . S
C602 C603 1.369 . S
C603 H583 0.945 . S
C603 C598 1.385 . S
C603 C602 1.369 . S
C604 C596 1.457 . S
C604 C605 1.372 . S
C604 C609 1.364 . S
C605 H584 0.952 . S
C605 C604 1.372 . S
C605 C606 1.389 . S
C606 H585 0.949 . S
C606 C605 1.389 . S
C606 C607 1.387 . S
C607 C606 1.387 . S
C607 C608 1.372 . S
C608 H586 0.950 . S
C608 C607 1.372 . S
C608 C609 1.379 . S
C609 H587 0.948 . S
C609 C604 1.364 . S
C609 C608 1.379 . S
C610 C579 1.383 . S
C610 C597 1.479 . S
C610 C611 1.398 . S
C611 C576 1.382 . S
C611 H588 0.951 . S
C611 C610 1.398 . S
C612 C613 1.384 . S
C612 H625 0.947 . S
C612 C647 1.382 . S
C613 C612 1.384 . S
C613 C614 1.378 . S
C614 C613 1.378 . S
C614 C615 1.378 . S
C614 H626 0.952 . S
C615 C614 1.378 . S
C615 H627 0.950 . S
C615 C646 1.383 . S
H616 C635 0.947 . S
H617 C636 0.946 . S
H618 C638 0.953 . S
H619 C639 0.945 . S
H620 C641 0.952 . S
H621 C642 0.949 . S
H622 C644 0.950 . S
H623 C645 0.948 . S
H624 C647 0.951 . S
H625 C612 0.947 . S
H626 C614 0.952 . S
H627 C615 0.950 . S
N628 C631 1.382 . S
N628 C633 1.363 . S
N629 C631 1.371 . S
N629 C632 1.372 . S
N630 C632 1.361 . S
N630 C633 1.377 . S
C631 N628 1.382 . S
C631 N629 1.371 . S
C631 C634 1.480 . S
C632 N629 1.372 . S
C632 N630 1.361 . S
C632 C640 1.457 . S
C633 N628 1.363 . S
C633 N630 1.377 . S
C633 C646 1.479 . S
C634 C631 1.480 . S
C634 C635 1.383 . S
C634 C639 1.385 . S
C635 H616 0.947 . S
C635 C634 1.383 . S
C635 C636 1.388 . S
C636 H617 0.946 . S
C636 C635 1.388 . S
C636 C637 1.384 . S
C637 C636 1.384 . S
C637 C638 1.377 . S
C638 H618 0.953 . S
C638 C637 1.377 . S
C638 C639 1.369 . S
C639 H619 0.945 . S
C639 C634 1.385 . S
C639 C638 1.369 . S
C640 C632 1.457 . S
C640 C641 1.372 . S
C640 C645 1.364 . S
C641 H620 0.952 . S
C641 C640 1.372 . S
C641 C642 1.389 . S
C642 H621 0.949 . S
C642 C641 1.389 . S
C642 C643 1.387 . S
C643 C642 1.387 . S
C643 C644 1.372 . S
C644 H622 0.950 . S
C644 C643 1.372 . S
C644 C645 1.379 . S
C645 H623 0.948 . S
C645 C640 1.364 . S
C645 C644 1.379 . S
C646 C615 1.383 . S
C646 C633 1.479 . S
C646 C647 1.398 . S
C647 C612 1.382 . S
C647 H624 0.951 . S
C647 C646 1.398 . S
Gd648 N679 2.661 . S
Gd648 N685 2.601 . S
Gd648 O692 2.545 . S
Gd648 O693 2.606 1_545 S
Gd648 O695 2.429 . S
Gd648 O696 2.545 1_545 S
Gd648 O697 2.412 . S
Gd648 O699 2.362 1_554 S
Gd648 O700 2.324 1_545 S
Gd648 C707 2.828 . S
Gd649 N658 2.661 . S
Gd649 N662 2.601 . S
Gd649 O693 2.362 1_556 S
Gd649 O694 2.324 1_565 S
Gd649 O698 2.545 . S
Gd649 O699 2.606 1_565 S
Gd649 O701 2.429 . S
Gd649 O702 2.545 1_565 S
Gd649 O703 2.412 . S
Gd649 C716 2.828 . S
C650 C653 1.417 . S
C650 C655 1.431 . S
C650 C656 1.412 . S
C651 C654 1.437 . S
C651 C655 1.317 . S
C651 H670 0.929 . S
C652 C653 1.426 . S
C652 C654 1.413 . S
C652 N662 1.359 . S
C653 C650 1.417 . S
C653 C652 1.426 . S
C653 N658 1.350 . S
C654 C651 1.437 . S
C654 C652 1.413 . S
C654 C664 1.391 . S
C655 C650 1.431 . S
C655 C651 1.317 . S
C655 H666 0.930 . S
C656 C650 1.412 . S
C656 C657 1.355 . S
C656 H668 0.930 . S
C657 C656 1.355 . S
C657 C659 1.402 . S
C657 H669 0.930 . S
N658 Gd649 2.661 . S
N658 C653 1.350 . S
N658 C659 1.307 . S
C659 C657 1.402 . S
C659 N658 1.307 . S
C659 H660 0.930 . S
H660 C659 0.930 . S
C661 N662 1.334 . S
C661 C663 1.394 . S
C661 H665 0.930 . S
N662 Gd649 2.601 . S
N662 C652 1.359 . S
N662 C661 1.334 . S
C663 C661 1.394 . S
C663 C664 1.359 . S
C663 H675 0.930 . S
C664 C654 1.391 . S
C664 C663 1.359 . S
C664 H676 0.929 . S
H665 C661 0.930 . S
H666 C655 0.930 . S
H667 C684 0.930 . S
H668 C656 0.930 . S
H669 C657 0.930 . S
H670 C651 0.929 . S
H671 C689 0.930 . S
H672 C680 0.930 . S
H673 C681 0.930 . S
H674 C705 0.929 . S
H675 C663 0.930 . S
H676 C664 0.929 . S
H677 C706 0.930 . S
H678 C687 0.930 . S
N679 Gd648 2.661 . S
N679 C683 1.350 . S
N679 C684 1.307 . S
C680 H672 0.930 . S
C680 C681 1.355 . S
C680 C682 1.412 . S
C681 H673 0.930 . S
C681 C680 1.355 . S
C681 C684 1.402 . S
C682 C680 1.412 . S
C682 C683 1.417 . S
C682 C706 1.431 . S
C683 N679 1.350 . S
C683 C682 1.417 . S
C683 C686 1.426 . S
C684 H667 0.930 . S
C684 N679 1.307 . S
C684 C681 1.402 . S
N685 Gd648 2.601 . S
N685 C686 1.359 . S
N685 C689 1.334 . S
C686 C683 1.426 . S
C686 N685 1.359 . S
C686 C690 1.413 . S
C687 H678 0.930 . S
C687 C688 1.359 . S
C687 C689 1.394 . S
C688 C687 1.359 . S
C688 C690 1.391 . S
C688 H691 0.929 . S
C689 H671 0.930 . S
C689 N685 1.334 . S
C689 C687 1.394 . S
C690 C686 1.413 . S
C690 C688 1.391 . S
C690 C705 1.437 . S
H691 C688 0.929 . S
O692 Gd648 2.545 . S
O692 C707 1.258 . S
O693 Gd648 2.606 1_565 S
O693 Gd649 2.362 1_554 S
O693 C704 1.284 . S
O694 Gd649 2.324 1_545 S
O694 C714 1.254 . S
O695 Gd648 2.429 . S
O695 C714 1.268 1_554 S
O696 Gd648 2.545 1_565 S
O696 C704 1.250 . S
O697 Gd648 2.412 . S
O697 C707 1.252 . S
O698 Gd649 2.545 . S
O698 C716 1.258 . S
O699 Gd648 2.362 1_556 S
O699 Gd649 2.606 1_545 S
O699 C715 1.284 . S
O700 Gd648 2.324 1_565 S
O700 C723 1.254 . S
O701 Gd649 2.429 . S
O701 C723 1.268 1_556 S
O702 Gd649 2.545 1_545 S
O702 C715 1.250 . S
O703 Gd649 2.412 . S
O703 C716 1.252 . S
C704 O693 1.284 . S
C704 O696 1.250 . S
C705 H674 0.929 . S
C705 C690 1.437 . S
C705 C706 1.317 . S
C706 H677 0.930 . S
C706 C682 1.431 . S
C706 C705 1.317 . S
C707 Gd648 2.828 . S
C707 O692 1.258 . S
C707 O697 1.252 . S
C707 C708 1.497 . S
C708 C707 1.497 . S
C708 C709 1.395 . S
C708 C710 1.380 1_545 S
C709 C708 1.395 . S
C709 C712 1.398 . S
C709 H724 0.930 . S
C710 C708 1.380 1_565 S
C710 C711 1.391 . S
C710 H725 0.930 . S
C711 C710 1.391 . S
C711 C713 1.387 1_565 S
C712 C709 1.398 . S
C712 C713 1.380 . S
C712 H726 0.930 . S
C713 C711 1.387 1_545 S
C713 C712 1.380 . S
C713 H727 0.930 . S
C714 O694 1.254 . S
C714 O695 1.268 1_556 S
C715 O699 1.284 . S
C715 O702 1.250 . S
C716 Gd649 2.828 . S
C716 O698 1.258 . S
C716 O703 1.252 . S
C716 C717 1.497 . S
C717 C716 1.497 . S
C717 C718 1.395 . S
C717 C719 1.380 1_565 S
C718 C717 1.395 . S
C718 C721 1.398 . S
C718 H728 0.930 . S
C719 C717 1.380 1_545 S
C719 C720 1.391 . S
C719 H729 0.930 . S
C720 C719 1.391 . S
C720 C722 1.387 1_545 S
C721 C718 1.398 . S
C721 C722 1.380 . S
C721 H730 0.930 . S
C722 C720 1.387 1_565 S
C722 C721 1.380 . S
C722 H731 0.930 . S
C723 O700 1.254 . S
C723 O701 1.268 1_554 S
H724 C709 0.930 . S
H725 C710 0.930 . S
H726 C712 0.930 . S
H727 C713 0.930 . S
H728 C718 0.930 . S
H729 C719 0.930 . S
H730 C721 0.930 . S
H731 C722 0.930 . S
Gd732 N763 2.661 . S
Gd732 N769 2.601 . S
Gd732 O776 2.545 . S
Gd732 O777 2.606 1_655 S
Gd732 O779 2.429 . S
Gd732 O780 2.545 1_655 S
Gd732 O781 2.412 . S
Gd732 O783 2.362 1_554 S
Gd732 O784 2.324 1_655 S
Gd732 C791 2.828 . S
Gd733 N742 2.661 . S
Gd733 N746 2.601 . S
Gd733 O777 2.362 1_556 S
Gd733 O778 2.324 1_455 S
Gd733 O782 2.545 . S
Gd733 O783 2.606 1_455 S
Gd733 O785 2.429 . S
Gd733 O786 2.545 1_455 S
Gd733 O787 2.412 . S
Gd733 C800 2.828 . S
C734 C737 1.417 . S
C734 C739 1.431 . S
C734 C740 1.412 . S
C735 C738 1.437 . S
C735 C739 1.317 . S
C735 H754 0.929 . S
C736 C737 1.426 . S
C736 C738 1.413 . S
C736 N746 1.359 . S
C737 C734 1.417 . S
C737 C736 1.426 . S
C737 N742 1.350 . S
C738 C735 1.437 . S
C738 C736 1.413 . S
C738 C748 1.391 . S
C739 C734 1.431 . S
C739 C735 1.317 . S
C739 H750 0.930 . S
C740 C734 1.412 . S
C740 C741 1.355 . S
C740 H752 0.930 . S
C741 C740 1.355 . S
C741 C743 1.402 . S
C741 H753 0.930 . S
N742 Gd733 2.661 . S
N742 C737 1.350 . S
N742 C743 1.307 . S
C743 C741 1.402 . S
C743 N742 1.307 . S
C743 H744 0.930 . S
H744 C743 0.930 . S
C745 N746 1.334 . S
C745 C747 1.394 . S
C745 H749 0.930 . S
N746 Gd733 2.601 . S
N746 C736 1.359 . S
N746 C745 1.334 . S
C747 C745 1.394 . S
C747 C748 1.359 . S
C747 H759 0.930 . S
C748 C738 1.391 . S
C748 C747 1.359 . S
C748 H760 0.929 . S
H749 C745 0.930 . S
H750 C739 0.930 . S
H751 C768 0.930 . S
H752 C740 0.930 . S
H753 C741 0.930 . S
H754 C735 0.929 . S
H755 C773 0.930 . S
H756 C764 0.930 . S
H757 C765 0.930 . S
H758 C789 0.929 . S
H759 C747 0.930 . S
H760 C748 0.929 . S
H761 C790 0.930 . S
H762 C771 0.930 . S
N763 Gd732 2.661 . S
N763 C767 1.350 . S
N763 C768 1.307 . S
C764 H756 0.930 . S
C764 C765 1.355 . S
C764 C766 1.412 . S
C765 H757 0.930 . S
C765 C764 1.355 . S
C765 C768 1.402 . S
C766 C764 1.412 . S
C766 C767 1.417 . S
C766 C790 1.431 . S
C767 N763 1.350 . S
C767 C766 1.417 . S
C767 C770 1.426 . S
C768 H751 0.930 . S
C768 N763 1.307 . S
C768 C765 1.402 . S
N769 Gd732 2.601 . S
N769 C770 1.359 . S
N769 C773 1.334 . S
C770 C767 1.426 . S
C770 N769 1.359 . S
C770 C774 1.413 . S
C771 H762 0.930 . S
C771 C772 1.359 . S
C771 C773 1.394 . S
C772 C771 1.359 . S
C772 C774 1.391 . S
C772 H775 0.929 . S
C773 H755 0.930 . S
C773 N769 1.334 . S
C773 C771 1.394 . S
C774 C770 1.413 . S
C774 C772 1.391 . S
C774 C789 1.437 . S
H775 C772 0.929 . S
O776 Gd732 2.545 . S
O776 C791 1.258 . S
O777 Gd732 2.606 1_455 S
O777 Gd733 2.362 1_554 S
O777 C788 1.284 . S
O778 Gd733 2.324 1_655 S
O778 C798 1.254 . S
O779 Gd732 2.429 . S
O779 C798 1.268 1_554 S
O780 Gd732 2.545 1_455 S
O780 C788 1.250 . S
O781 Gd732 2.412 . S
O781 C791 1.252 . S
O782 Gd733 2.545 . S
O782 C800 1.258 . S
O783 Gd732 2.362 1_556 S
O783 Gd733 2.606 1_655 S
O783 C799 1.284 . S
O784 Gd732 2.324 1_455 S
O784 C807 1.254 . S
O785 Gd733 2.429 . S
O785 C807 1.268 1_556 S
O786 Gd733 2.545 1_655 S
O786 C799 1.250 . S
O787 Gd733 2.412 . S
O787 C800 1.252 . S
C788 O777 1.284 . S
C788 O780 1.250 . S
C789 H758 0.929 . S
C789 C774 1.437 . S
C789 C790 1.317 . S
C790 H761 0.930 . S
C790 C766 1.431 . S
C790 C789 1.317 . S
C791 Gd732 2.828 . S
C791 O776 1.258 . S
C791 O781 1.252 . S
C791 C792 1.497 . S
C792 C791 1.497 . S
C792 C793 1.395 . S
C792 C794 1.380 1_655 S
C793 C792 1.395 . S
C793 C796 1.398 . S
C793 H808 0.930 . S
C794 C792 1.380 1_455 S
C794 C795 1.391 . S
C794 H809 0.930 . S
C795 C794 1.391 . S
C795 C797 1.387 1_455 S
C796 C793 1.398 . S
C796 C797 1.380 . S
C796 H810 0.930 . S
C797 C795 1.387 1_655 S
C797 C796 1.380 . S
C797 H811 0.930 . S
C798 O778 1.254 . S
C798 O779 1.268 1_556 S
C799 O783 1.284 . S
C799 O786 1.250 . S
C800 Gd733 2.828 . S
C800 O782 1.258 . S
C800 O787 1.252 . S
C800 C801 1.497 . S
C801 C800 1.497 . S
C801 C802 1.395 . S
C801 C803 1.380 1_455 S
C802 C801 1.395 . S
C802 C805 1.398 . S
C802 H812 0.930 . S
C803 C801 1.380 1_655 S
C803 C804 1.391 . S
C803 H813 0.930 . S
C804 C803 1.391 . S
C804 C806 1.387 1_655 S
C805 C802 1.398 . S
C805 C806 1.380 . S
C805 H814 0.930 . S
C806 C804 1.387 1_455 S
C806 C805 1.380 . S
C806 H815 0.930 . S
C807 O784 1.254 . S
C807 O785 1.268 1_554 S
H808 C793 0.930 . S
H809 C794 0.930 . S
H810 C796 0.930 . S
H811 C797 0.930 . S
H812 C802 0.930 . S
H813 C803 0.930 . S
H814 C805 0.930 . S
H815 C806 0.930 . S
Gd816 N847 2.661 . S
Gd816 N853 2.601 . S
Gd816 O860 2.545 . S
Gd816 O861 2.606 . S
Gd816 O863 2.429 . S
Gd816 O864 2.545 . S
Gd816 O865 2.412 . S
Gd816 O867 2.362 1_556 S
Gd816 O868 2.324 . S
Gd816 C875 2.828 . S
Gd817 N826 2.661 . S
Gd817 N830 2.601 . S
Gd817 O861 2.362 1_554 S
Gd817 O862 2.324 . S
Gd817 O866 2.545 . S
Gd817 O867 2.606 . S
Gd817 O869 2.429 . S
Gd817 O870 2.545 . S
Gd817 O871 2.412 . S
Gd817 C884 2.828 . S
C818 C821 1.417 . S
C818 C823 1.431 . S
C818 C824 1.412 . S
C819 C822 1.437 . S
C819 C823 1.317 . S
C819 H838 0.929 . S
C820 C821 1.426 . S
C820 C822 1.413 . S
C820 N830 1.359 . S
C821 C818 1.417 . S
C821 C820 1.426 . S
C821 N826 1.350 . S
C822 C819 1.437 . S
C822 C820 1.413 . S
C822 C832 1.391 . S
C823 C818 1.431 . S
C823 C819 1.317 . S
C823 H834 0.930 . S
C824 C818 1.412 . S
C824 C825 1.355 . S
C824 H836 0.930 . S
C825 C824 1.355 . S
C825 C827 1.402 . S
C825 H837 0.930 . S
N826 Gd817 2.661 . S
N826 C821 1.350 . S
N826 C827 1.307 . S
C827 C825 1.402 . S
C827 N826 1.307 . S
C827 H828 0.930 . S
H828 C827 0.930 . S
C829 N830 1.334 . S
C829 C831 1.394 . S
C829 H833 0.930 . S
N830 Gd817 2.601 . S
N830 C820 1.359 . S
N830 C829 1.334 . S
C831 C829 1.394 . S
C831 C832 1.359 . S
C831 H843 0.930 . S
C832 C822 1.391 . S
C832 C831 1.359 . S
C832 H844 0.929 . S
H833 C829 0.930 . S
H834 C823 0.930 . S
H835 C852 0.930 . S
H836 C824 0.930 . S
H837 C825 0.930 . S
H838 C819 0.929 . S
H839 C857 0.930 . S
H840 C848 0.930 . S
H841 C849 0.930 . S
H842 C873 0.929 . S
H843 C831 0.930 . S
H844 C832 0.929 . S
H845 C874 0.930 . S
H846 C855 0.930 . S
N847 Gd816 2.661 . S
N847 C851 1.350 . S
N847 C852 1.307 . S
C848 H840 0.930 . S
C848 C849 1.355 . S
C848 C850 1.412 . S
C849 H841 0.930 . S
C849 C848 1.355 . S
C849 C852 1.402 . S
C850 C848 1.412 . S
C850 C851 1.417 . S
C850 C874 1.431 . S
C851 N847 1.350 . S
C851 C850 1.417 . S
C851 C854 1.426 . S
C852 H835 0.930 . S
C852 N847 1.307 . S
C852 C849 1.402 . S
N853 Gd816 2.601 . S
N853 C854 1.359 . S
N853 C857 1.334 . S
C854 C851 1.426 . S
C854 N853 1.359 . S
C854 C858 1.413 . S
C855 H846 0.930 . S
C855 C856 1.359 . S
C855 C857 1.394 . S
C856 C855 1.359 . S
C856 C858 1.391 . S
C856 H859 0.929 . S
C857 H839 0.930 . S
C857 N853 1.334 . S
C857 C855 1.394 . S
C858 C854 1.413 . S
C858 C856 1.391 . S
C858 C873 1.437 . S
H859 C856 0.929 . S
O860 Gd816 2.545 . S
O860 C875 1.258 . S
O861 Gd816 2.606 . S
O861 Gd817 2.362 1_556 S
O861 C872 1.284 . S
O862 Gd817 2.324 . S
O862 C882 1.254 . S
O863 Gd816 2.429 . S
O863 C882 1.268 1_556 S
O864 Gd816 2.545 . S
O864 C872 1.250 . S
O865 Gd816 2.412 . S
O865 C875 1.252 . S
O866 Gd817 2.545 . S
O866 C884 1.258 . S
O867 Gd816 2.362 1_554 S
O867 Gd817 2.606 . S
O867 C883 1.284 . S
O868 Gd816 2.324 . S
O868 C891 1.254 . S
O869 Gd817 2.429 . S
O869 C891 1.268 1_554 S
O870 Gd817 2.545 . S
O870 C883 1.250 . S
O871 Gd817 2.412 . S
O871 C884 1.252 . S
C872 O861 1.284 . S
C872 O864 1.250 . S
C873 H842 0.929 . S
C873 C858 1.437 . S
C873 C874 1.317 . S
C874 H845 0.930 . S
C874 C850 1.431 . S
C874 C873 1.317 . S
C875 Gd816 2.828 . S
C875 O860 1.258 . S
C875 O865 1.252 . S
C875 C876 1.497 . S
C876 C875 1.497 . S
C876 C877 1.395 . S
C876 C878 1.380 . S
C877 C876 1.395 . S
C877 C880 1.398 . S
C877 H892 0.930 . S
C878 C876 1.380 . S
C878 C879 1.391 . S
C878 H893 0.930 . S
C879 C878 1.391 . S
C879 C881 1.387 . S
C880 C877 1.398 . S
C880 C881 1.380 . S
C880 H894 0.930 . S
C881 C879 1.387 . S
C881 C880 1.380 . S
C881 H895 0.930 . S
C882 O862 1.254 . S
C882 O863 1.268 1_554 S
C883 O867 1.284 . S
C883 O870 1.250 . S
C884 Gd817 2.828 . S
C884 O866 1.258 . S
C884 O871 1.252 . S
C884 C885 1.497 . S
C885 C884 1.497 . S
C885 C886 1.395 . S
C885 C887 1.380 . S
C886 C885 1.395 . S
C886 C889 1.398 . S
C886 H896 0.930 . S
C887 C885 1.380 . S
C887 C888 1.391 . S
C887 H897 0.930 . S
C888 C887 1.391 . S
C888 C890 1.387 . S
C889 C886 1.398 . S
C889 C890 1.380 . S
C889 H898 0.930 . S
C890 C888 1.387 . S
C890 C889 1.380 . S
C890 H899 0.930 . S
C891 O868 1.254 . S
C891 O869 1.268 1_556 S
H892 C877 0.930 . S
H893 C878 0.930 . S
H894 C880 0.930 . S
H895 C881 0.930 . S
H896 C886 0.930 . S
H897 C887 0.930 . S
H898 C889 0.930 . S
H899 C890 0.930 . S
Gd900 N931 2.661 . S
Gd900 N937 2.601 . S
Gd900 O944 2.545 . S
Gd900 O945 2.606 . S
Gd900 O947 2.429 . S
Gd900 O948 2.545 . S
Gd900 O949 2.412 . S
Gd900 O951 2.362 . S
Gd900 O952 2.324 . S
Gd900 C959 2.828 . S
Gd901 N910 2.661 . S
Gd901 N914 2.601 . S
Gd901 O945 2.362 . S
Gd901 O946 2.324 . S
Gd901 O950 2.545 . S
Gd901 O951 2.606 . S
Gd901 O953 2.429 . S
Gd901 O954 2.545 . S
Gd901 O955 2.412 . S
Gd901 C968 2.828 . S
C902 C905 1.417 . S
C902 C907 1.431 . S
C902 C908 1.412 . S
C903 C906 1.437 . S
C903 C907 1.317 . S
C903 H922 0.929 . S
C904 C905 1.426 . S
C904 C906 1.413 . S
C904 N914 1.359 . S
C905 C902 1.417 . S
C905 C904 1.426 . S
C905 N910 1.350 . S
C906 C903 1.437 . S
C906 C904 1.413 . S
C906 C916 1.391 . S
C907 C902 1.431 . S
C907 C903 1.317 . S
C907 H918 0.930 . S
C908 C902 1.412 . S
C908 C909 1.355 . S
C908 H920 0.930 . S
C909 C908 1.355 . S
C909 C911 1.402 . S
C909 H921 0.930 . S
N910 Gd901 2.661 . S
N910 C905 1.350 . S
N910 C911 1.307 . S
C911 C909 1.402 . S
C911 N910 1.307 . S
C911 H912 0.930 . S
H912 C911 0.930 . S
C913 N914 1.334 . S
C913 C915 1.394 . S
C913 H917 0.930 . S
N914 Gd901 2.601 . S
N914 C904 1.359 . S
N914 C913 1.334 . S
C915 C913 1.394 . S
C915 C916 1.359 . S
C915 H927 0.930 . S
C916 C906 1.391 . S
C916 C915 1.359 . S
C916 H928 0.929 . S
H917 C913 0.930 . S
H918 C907 0.930 . S
H919 C936 0.930 . S
H920 C908 0.930 . S
H921 C909 0.930 . S
H922 C903 0.929 . S
H923 C941 0.930 . S
H924 C932 0.930 . S
H925 C933 0.930 . S
H926 C957 0.929 . S
H927 C915 0.930 . S
H928 C916 0.929 . S
H929 C958 0.930 . S
H930 C939 0.930 . S
N931 Gd900 2.661 . S
N931 C935 1.350 . S
N931 C936 1.307 . S
C932 H924 0.930 . S
C932 C933 1.355 . S
C932 C934 1.412 . S
C933 H925 0.930 . S
C933 C932 1.355 . S
C933 C936 1.402 . S
C934 C932 1.412 . S
C934 C935 1.417 . S
C934 C958 1.431 . S
C935 N931 1.350 . S
C935 C934 1.417 . S
C935 C938 1.426 . S
C936 H919 0.930 . S
C936 N931 1.307 . S
C936 C933 1.402 . S
N937 Gd900 2.601 . S
N937 C938 1.359 . S
N937 C941 1.334 . S
C938 C935 1.426 . S
C938 N937 1.359 . S
C938 C942 1.413 . S
C939 H930 0.930 . S
C939 C940 1.359 . S
C939 C941 1.394 . S
C940 C939 1.359 . S
C940 C942 1.391 . S
C940 H943 0.929 . S
C941 H923 0.930 . S
C941 N937 1.334 . S
C941 C939 1.394 . S
C942 C938 1.413 . S
C942 C940 1.391 . S
C942 C957 1.437 . S
H943 C940 0.929 . S
O944 Gd900 2.545 . S
O944 C959 1.258 . S
O945 Gd900 2.606 . S
O945 Gd901 2.362 . S
O945 C956 1.284 . S
O946 Gd901 2.324 . S
O946 C966 1.254 . S
O947 Gd900 2.429 . S
O947 C966 1.268 . S
O948 Gd900 2.545 . S
O948 C956 1.250 . S
O949 Gd900 2.412 . S
O949 C959 1.252 . S
O950 Gd901 2.545 . S
O950 C968 1.258 . S
O951 Gd900 2.362 . S
O951 Gd901 2.606 . S
O951 C967 1.284 . S
O952 Gd900 2.324 . S
O952 C975 1.254 . S
O953 Gd901 2.429 . S
O953 C975 1.268 . S
O954 Gd901 2.545 . S
O954 C967 1.250 . S
O955 Gd901 2.412 . S
O955 C968 1.252 . S
C956 O945 1.284 . S
C956 O948 1.250 . S
C957 H926 0.929 . S
C957 C942 1.437 . S
C957 C958 1.317 . S
C958 H929 0.930 . S
C958 C934 1.431 . S
C958 C957 1.317 . S
C959 Gd900 2.828 . S
C959 O944 1.258 . S
C959 O949 1.252 . S
C959 C960 1.497 . S
C960 C959 1.497 . S
C960 C961 1.395 . S
C960 C962 1.380 . S
C961 C960 1.395 . S
C961 C964 1.398 . S
C961 H976 0.930 . S
C962 C960 1.380 . S
C962 C963 1.391 . S
C962 H977 0.930 . S
C963 C962 1.391 . S
C963 C965 1.387 . S
C964 C961 1.398 . S
C964 C965 1.380 . S
C964 H978 0.930 . S
C965 C963 1.387 . S
C965 C964 1.380 . S
C965 H979 0.930 . S
C966 O946 1.254 . S
C966 O947 1.268 . S
C967 O951 1.284 . S
C967 O954 1.250 . S
C968 Gd901 2.828 . S
C968 O950 1.258 . S
C968 O955 1.252 . S
C968 C969 1.497 . S
C969 C968 1.497 . S
C969 C970 1.395 . S
C969 C971 1.380 . S
C970 C969 1.395 . S
C970 C973 1.398 . S
C970 H980 0.930 . S
C971 C969 1.380 . S
C971 C972 1.391 . S
C971 H981 0.930 . S
C972 C971 1.391 . S
C972 C974 1.387 . S
C973 C970 1.398 . S
C973 C974 1.380 . S
C973 H982 0.930 . S
C974 C972 1.387 . S
C974 C973 1.380 . S
C974 H983 0.930 . S
C975 O952 1.254 . S
C975 O953 1.268 . S
H976 C961 0.930 . S
H977 C962 0.930 . S
H978 C964 0.930 . S
H979 C965 0.930 . S
H980 C970 0.930 . S
H981 C971 0.930 . S
H982 C973 0.930 . S
H983 C974 0.930 . S
Gd984 N1015 2.661 . S
Gd984 N1021 2.601 . S
Gd984 O1028 2.545 . S
Gd984 O1029 2.606 . S
Gd984 O1031 2.429 . S
Gd984 O1032 2.545 . S
Gd984 O1033 2.412 . S
Gd984 O1035 2.362 . S
Gd984 O1036 2.324 . S
Gd984 C1043 2.828 . S
Gd985 N994 2.661 . S
Gd985 N998 2.601 . S
Gd985 O1029 2.362 . S
Gd985 O1030 2.324 . S
Gd985 O1034 2.545 . S
Gd985 O1035 2.606 . S
Gd985 O1037 2.429 . S
Gd985 O1038 2.545 . S
Gd985 O1039 2.412 . S
Gd985 C1052 2.828 . S
C986 C989 1.417 . S
C986 C991 1.431 . S
C986 C992 1.412 . S
C987 C990 1.437 . S
C987 C991 1.317 . S
C987 H1006 0.929 . S
C988 C989 1.426 . S
C988 C990 1.413 . S
C988 N998 1.359 . S
C989 C986 1.417 . S
C989 C988 1.426 . S
C989 N994 1.350 . S
C990 C987 1.437 . S
C990 C988 1.413 . S
C990 C1000 1.391 . S
C991 C986 1.431 . S
C991 C987 1.317 . S
C991 H1002 0.930 . S
C992 C986 1.412 . S
C992 C993 1.355 . S
C992 H1004 0.930 . S
C993 C992 1.355 . S
C993 C995 1.402 . S
C993 H1005 0.930 . S
N994 Gd985 2.661 . S
N994 C989 1.350 . S
N994 C995 1.307 . S
C995 C993 1.402 . S
C995 N994 1.307 . S
C995 H996 0.930 . S
H996 C995 0.930 . S
C997 N998 1.334 . S
C997 C999 1.394 . S
C997 H1001 0.930 . S
N998 Gd985 2.601 . S
N998 C988 1.359 . S
N998 C997 1.334 . S
C999 C997 1.394 . S
C999 C1000 1.359 . S
C999 H1011 0.930 . S
C1000 C990 1.391 . S
C1000 C999 1.359 . S
C1000 H1012 0.929 . S
H1001 C997 0.930 . S
H1002 C991 0.930 . S
H1003 C1020 0.930 . S
H1004 C992 0.930 . S
H1005 C993 0.930 . S
H1006 C987 0.929 . S
H1007 C1025 0.930 . S
H1008 C1016 0.930 . S
H1009 C1017 0.930 . S
H1010 C1041 0.929 . S
H1011 C999 0.930 . S
H1012 C1000 0.929 . S
H1013 C1042 0.930 . S
H1014 C1023 0.930 . S
N1015 Gd984 2.661 . S
N1015 C1019 1.350 . S
N1015 C1020 1.307 . S
C1016 H1008 0.930 . S
C1016 C1017 1.355 . S
C1016 C1018 1.412 . S
C1017 H1009 0.930 . S
C1017 C1016 1.355 . S
C1017 C1020 1.402 . S
C1018 C1016 1.412 . S
C1018 C1019 1.417 . S
C1018 C1042 1.431 . S
C1019 N1015 1.350 . S
C1019 C1018 1.417 . S
C1019 C1022 1.426 . S
C1020 H1003 0.930 . S
C1020 N1015 1.307 . S
C1020 C1017 1.402 . S
N1021 Gd984 2.601 . S
N1021 C1022 1.359 . S
N1021 C1025 1.334 . S
C1022 C1019 1.426 . S
C1022 N1021 1.359 . S
C1022 C1026 1.413 . S
C1023 H1014 0.930 . S
C1023 C1024 1.359 . S
C1023 C1025 1.394 . S
C1024 C1023 1.359 . S
C1024 C1026 1.391 . S
C1024 H1027 0.929 . S
C1025 H1007 0.930 . S
C1025 N1021 1.334 . S
C1025 C1023 1.394 . S
C1026 C1022 1.413 . S
C1026 C1024 1.391 . S
C1026 C1041 1.437 . S
H1027 C1024 0.929 . S
O1028 Gd984 2.545 . S
O1028 C1043 1.258 . S
O1029 Gd984 2.606 . S
O1029 Gd985 2.362 . S
O1029 C1040 1.284 . S
O1030 Gd985 2.324 . S
O1030 C1050 1.254 . S
O1031 Gd984 2.429 . S
O1031 C1050 1.268 . S
O1032 Gd984 2.545 . S
O1032 C1040 1.250 . S
O1033 Gd984 2.412 . S
O1033 C1043 1.252 . S
O1034 Gd985 2.545 . S
O1034 C1052 1.258 . S
O1035 Gd984 2.362 . S
O1035 Gd985 2.606 . S
O1035 C1051 1.284 . S
O1036 Gd984 2.324 . S
O1036 C1059 1.254 . S
O1037 Gd985 2.429 . S
O1037 C1059 1.268 . S
O1038 Gd985 2.545 . S
O1038 C1051 1.250 . S
O1039 Gd985 2.412 . S
O1039 C1052 1.252 . S
C1040 O1029 1.284 . S
C1040 O1032 1.250 . S
C1041 H1010 0.929 . S
C1041 C1026 1.437 . S
C1041 C1042 1.317 . S
C1042 H1013 0.930 . S
C1042 C1018 1.431 . S
C1042 C1041 1.317 . S
C1043 Gd984 2.828 . S
C1043 O1028 1.258 . S
C1043 O1033 1.252 . S
C1043 C1044 1.497 . S
C1044 C1043 1.497 . S
C1044 C1045 1.395 . S
C1044 C1046 1.380 . S
C1045 C1044 1.395 . S
C1045 C1048 1.398 . S
C1045 H1060 0.930 . S
C1046 C1044 1.380 . S
C1046 C1047 1.391 . S
C1046 H1061 0.930 . S
C1047 C1046 1.391 . S
C1047 C1049 1.387 . S
C1048 C1045 1.398 . S
C1048 C1049 1.380 . S
C1048 H1062 0.930 . S
C1049 C1047 1.387 . S
C1049 C1048 1.380 . S
C1049 H1063 0.930 . S
C1050 O1030 1.254 . S
C1050 O1031 1.268 . S
C1051 O1035 1.284 . S
C1051 O1038 1.250 . S
C1052 Gd985 2.828 . S
C1052 O1034 1.258 . S
C1052 O1039 1.252 . S
C1052 C1053 1.497 . S
C1053 C1052 1.497 . S
C1053 C1054 1.395 . S
C1053 C1055 1.380 . S
C1054 C1053 1.395 . S
C1054 C1057 1.398 . S
C1054 H1064 0.930 . S
C1055 C1053 1.380 . S
C1055 C1056 1.391 . S
C1055 H1065 0.930 . S
C1056 C1055 1.391 . S
C1056 C1058 1.387 . S
C1057 C1054 1.398 . S
C1057 C1058 1.380 . S
C1057 H1066 0.930 . S
C1058 C1056 1.387 . S
C1058 C1057 1.380 . S
C1058 H1067 0.930 . S
C1059 O1036 1.254 . S
C1059 O1037 1.268 . S
H1060 C1045 0.930 . S
H1061 C1046 0.930 . S
H1062 C1048 0.930 . S
H1063 C1049 0.930 . S
H1064 C1054 0.930 . S
H1065 C1055 0.930 . S
H1066 C1057 0.930 . S
H1067 C1058 0.930 . S
Gd1068 N1099 2.661 . S
Gd1068 N1105 2.601 . S
Gd1068 O1112 2.545 . S
Gd1068 O1113 2.606 . S
Gd1068 O1115 2.429 . S
Gd1068 O1116 2.545 . S
Gd1068 O1117 2.412 . S
Gd1068 O1119 2.362 . S
Gd1068 O1120 2.324 . S
Gd1068 C1127 2.828 . S
Gd1069 N1078 2.661 . S
Gd1069 N1082 2.601 . S
Gd1069 O1113 2.362 . S
Gd1069 O1114 2.324 . S
Gd1069 O1118 2.545 . S
Gd1069 O1119 2.606 . S
Gd1069 O1121 2.429 . S
Gd1069 O1122 2.545 . S
Gd1069 O1123 2.412 . S
Gd1069 C1136 2.828 . S
C1070 C1073 1.417 . S
C1070 C1075 1.431 . S
C1070 C1076 1.412 . S
C1071 C1074 1.437 . S
C1071 C1075 1.317 . S
C1071 H1090 0.929 . S
C1072 C1073 1.426 . S
C1072 C1074 1.413 . S
C1072 N1082 1.359 . S
C1073 C1070 1.417 . S
C1073 C1072 1.426 . S
C1073 N1078 1.350 . S
C1074 C1071 1.437 . S
C1074 C1072 1.413 . S
C1074 C1084 1.391 . S
C1075 C1070 1.431 . S
C1075 C1071 1.317 . S
C1075 H1086 0.930 . S
C1076 C1070 1.412 . S
C1076 C1077 1.355 . S
C1076 H1088 0.930 . S
C1077 C1076 1.355 . S
C1077 C1079 1.402 . S
C1077 H1089 0.930 . S
N1078 Gd1069 2.661 . S
N1078 C1073 1.350 . S
N1078 C1079 1.307 . S
C1079 C1077 1.402 . S
C1079 N1078 1.307 . S
C1079 H1080 0.930 . S
H1080 C1079 0.930 . S
C1081 N1082 1.334 . S
C1081 C1083 1.394 . S
C1081 H1085 0.930 . S
N1082 Gd1069 2.601 . S
N1082 C1072 1.359 . S
N1082 C1081 1.334 . S
C1083 C1081 1.394 . S
C1083 C1084 1.359 . S
C1083 H1095 0.930 . S
C1084 C1074 1.391 . S
C1084 C1083 1.359 . S
C1084 H1096 0.929 . S
H1085 C1081 0.930 . S
H1086 C1075 0.930 . S
H1087 C1104 0.930 . S
H1088 C1076 0.930 . S
H1089 C1077 0.930 . S
H1090 C1071 0.929 . S
H1091 C1109 0.930 . S
H1092 C1100 0.930 . S
H1093 C1101 0.930 . S
H1094 C1125 0.929 . S
H1095 C1083 0.930 . S
H1096 C1084 0.929 . S
H1097 C1126 0.930 . S
H1098 C1107 0.930 . S
N1099 Gd1068 2.661 . S
N1099 C1103 1.350 . S
N1099 C1104 1.307 . S
C1100 H1092 0.930 . S
C1100 C1101 1.355 . S
C1100 C1102 1.412 . S
C1101 H1093 0.930 . S
C1101 C1100 1.355 . S
C1101 C1104 1.402 . S
C1102 C1100 1.412 . S
C1102 C1103 1.417 . S
C1102 C1126 1.431 . S
C1103 N1099 1.350 . S
C1103 C1102 1.417 . S
C1103 C1106 1.426 . S
C1104 H1087 0.930 . S
C1104 N1099 1.307 . S
C1104 C1101 1.402 . S
N1105 Gd1068 2.601 . S
N1105 C1106 1.359 . S
N1105 C1109 1.334 . S
C1106 C1103 1.426 . S
C1106 N1105 1.359 . S
C1106 C1110 1.413 . S
C1107 H1098 0.930 . S
C1107 C1108 1.359 . S
C1107 C1109 1.394 . S
C1108 C1107 1.359 . S
C1108 C1110 1.391 . S
C1108 H1111 0.929 . S
C1109 H1091 0.930 . S
C1109 N1105 1.334 . S
C1109 C1107 1.394 . S
C1110 C1106 1.413 . S
C1110 C1108 1.391 . S
C1110 C1125 1.437 . S
H1111 C1108 0.929 . S
O1112 Gd1068 2.545 . S
O1112 C1127 1.258 . S
O1113 Gd1068 2.606 . S
O1113 Gd1069 2.362 . S
O1113 C1124 1.284 . S
O1114 Gd1069 2.324 . S
O1114 C1134 1.254 . S
O1115 Gd1068 2.429 . S
O1115 C1134 1.268 . S
O1116 Gd1068 2.545 . S
O1116 C1124 1.250 . S
O1117 Gd1068 2.412 . S
O1117 C1127 1.252 . S
O1118 Gd1069 2.545 . S
O1118 C1136 1.258 . S
O1119 Gd1068 2.362 . S
O1119 Gd1069 2.606 . S
O1119 C1135 1.284 . S
O1120 Gd1068 2.324 . S
O1120 C1143 1.254 . S
O1121 Gd1069 2.429 . S
O1121 C1143 1.268 . S
O1122 Gd1069 2.545 . S
O1122 C1135 1.250 . S
O1123 Gd1069 2.412 . S
O1123 C1136 1.252 . S
C1124 O1113 1.284 . S
C1124 O1116 1.250 . S
C1125 H1094 0.929 . S
C1125 C1110 1.437 . S
C1125 C1126 1.317 . S
C1126 H1097 0.930 . S
C1126 C1102 1.431 . S
C1126 C1125 1.317 . S
C1127 Gd1068 2.828 . S
C1127 O1112 1.258 . S
C1127 O1117 1.252 . S
C1127 C1128 1.497 . S
C1128 C1127 1.497 . S
C1128 C1129 1.395 . S
C1128 C1130 1.380 . S
C1129 C1128 1.395 . S
C1129 C1132 1.398 . S
C1129 H1144 0.930 . S
C1130 C1128 1.380 . S
C1130 C1131 1.391 . S
C1130 H1145 0.930 . S
C1131 C1130 1.391 . S
C1131 C1133 1.387 . S
C1132 C1129 1.398 . S
C1132 C1133 1.380 . S
C1132 H1146 0.930 . S
C1133 C1131 1.387 . S
C1133 C1132 1.380 . S
C1133 H1147 0.930 . S
C1134 O1114 1.254 . S
C1134 O1115 1.268 . S
C1135 O1119 1.284 . S
C1135 O1122 1.250 . S
C1136 Gd1069 2.828 . S
C1136 O1118 1.258 . S
C1136 O1123 1.252 . S
C1136 C1137 1.497 . S
C1137 C1136 1.497 . S
C1137 C1138 1.395 . S
C1137 C1139 1.380 . S
C1138 C1137 1.395 . S
C1138 C1141 1.398 . S
C1138 H1148 0.930 . S
C1139 C1137 1.380 . S
C1139 C1140 1.391 . S
C1139 H1149 0.930 . S
C1140 C1139 1.391 . S
C1140 C1142 1.387 . S
C1141 C1138 1.398 . S
C1141 C1142 1.380 . S
C1141 H1150 0.930 . S
C1142 C1140 1.387 . S
C1142 C1141 1.380 . S
C1142 H1151 0.930 . S
C1143 O1120 1.254 . S
C1143 O1121 1.268 . S
H1144 C1129 0.930 . S
H1145 C1130 0.930 . S
H1146 C1132 0.930 . S
H1147 C1133 0.930 . S
H1148 C1138 0.930 . S
H1149 C1139 0.930 . S
H1150 C1141 0.930 . S
H1151 C1142 0.930 . S
Gd1152 N1183 2.661 . S
Gd1152 N1189 2.601 . S
Gd1152 O1196 2.545 . S
Gd1152 O1197 2.606 . S
Gd1152 O1199 2.429 . S
Gd1152 O1200 2.545 . S
Gd1152 O1201 2.412 . S
Gd1152 O1203 2.362 . S
Gd1152 O1204 2.324 . S
Gd1152 C1211 2.828 . S
Gd1153 N1162 2.661 . S
Gd1153 N1166 2.601 . S
Gd1153 O1197 2.362 . S
Gd1153 O1198 2.324 . S
Gd1153 O1202 2.545 . S
Gd1153 O1203 2.606 . S
Gd1153 O1205 2.429 . S
Gd1153 O1206 2.545 . S
Gd1153 O1207 2.412 . S
Gd1153 C1220 2.828 . S
C1154 C1157 1.417 . S
C1154 C1159 1.431 . S
C1154 C1160 1.412 . S
C1155 C1158 1.437 . S
C1155 C1159 1.317 . S
C1155 H1174 0.929 . S
C1156 C1157 1.426 . S
C1156 C1158 1.413 . S
C1156 N1166 1.359 . S
C1157 C1154 1.417 . S
C1157 C1156 1.426 . S
C1157 N1162 1.350 . S
C1158 C1155 1.437 . S
C1158 C1156 1.413 . S
C1158 C1168 1.391 . S
C1159 C1154 1.431 . S
C1159 C1155 1.317 . S
C1159 H1170 0.930 . S
C1160 C1154 1.412 . S
C1160 C1161 1.355 . S
C1160 H1172 0.930 . S
C1161 C1160 1.355 . S
C1161 C1163 1.402 . S
C1161 H1173 0.930 . S
N1162 Gd1153 2.661 . S
N1162 C1157 1.350 . S
N1162 C1163 1.307 . S
C1163 C1161 1.402 . S
C1163 N1162 1.307 . S
C1163 H1164 0.930 . S
H1164 C1163 0.930 . S
C1165 N1166 1.334 . S
C1165 C1167 1.394 . S
C1165 H1169 0.930 . S
N1166 Gd1153 2.601 . S
N1166 C1156 1.359 . S
N1166 C1165 1.334 . S
C1167 C1165 1.394 . S
C1167 C1168 1.359 . S
C1167 H1179 0.930 . S
C1168 C1158 1.391 . S
C1168 C1167 1.359 . S
C1168 H1180 0.929 . S
H1169 C1165 0.930 . S
H1170 C1159 0.930 . S
H1171 C1188 0.930 . S
H1172 C1160 0.930 . S
H1173 C1161 0.930 . S
H1174 C1155 0.929 . S
H1175 C1193 0.930 . S
H1176 C1184 0.930 . S
H1177 C1185 0.930 . S
H1178 C1209 0.929 . S
H1179 C1167 0.930 . S
H1180 C1168 0.929 . S
H1181 C1210 0.930 . S
H1182 C1191 0.930 . S
N1183 Gd1152 2.661 . S
N1183 C1187 1.350 . S
N1183 C1188 1.307 . S
C1184 H1176 0.930 . S
C1184 C1185 1.355 . S
C1184 C1186 1.412 . S
C1185 H1177 0.930 . S
C1185 C1184 1.355 . S
C1185 C1188 1.402 . S
C1186 C1184 1.412 . S
C1186 C1187 1.417 . S
C1186 C1210 1.431 . S
C1187 N1183 1.350 . S
C1187 C1186 1.417 . S
C1187 C1190 1.426 . S
C1188 H1171 0.930 . S
C1188 N1183 1.307 . S
C1188 C1185 1.402 . S
N1189 Gd1152 2.601 . S
N1189 C1190 1.359 . S
N1189 C1193 1.334 . S
C1190 C1187 1.426 . S
C1190 N1189 1.359 . S
C1190 C1194 1.413 . S
C1191 H1182 0.930 . S
C1191 C1192 1.359 . S
C1191 C1193 1.394 . S
C1192 C1191 1.359 . S
C1192 C1194 1.391 . S
C1192 H1195 0.929 . S
C1193 H1175 0.930 . S
C1193 N1189 1.334 . S
C1193 C1191 1.394 . S
C1194 C1190 1.413 . S
C1194 C1192 1.391 . S
C1194 C1209 1.437 . S
H1195 C1192 0.929 . S
O1196 Gd1152 2.545 . S
O1196 C1211 1.258 . S
O1197 Gd1152 2.606 . S
O1197 Gd1153 2.362 . S
O1197 C1208 1.284 . S
O1198 Gd1153 2.324 . S
O1198 C1218 1.254 . S
O1199 Gd1152 2.429 . S
O1199 C1218 1.268 . S
O1200 Gd1152 2.545 . S
O1200 C1208 1.250 . S
O1201 Gd1152 2.412 . S
O1201 C1211 1.252 . S
O1202 Gd1153 2.545 . S
O1202 C1220 1.258 . S
O1203 Gd1152 2.362 . S
O1203 Gd1153 2.606 . S
O1203 C1219 1.284 . S
O1204 Gd1152 2.324 . S
O1204 C1227 1.254 . S
O1205 Gd1153 2.429 . S
O1205 C1227 1.268 . S
O1206 Gd1153 2.545 . S
O1206 C1219 1.250 . S
O1207 Gd1153 2.412 . S
O1207 C1220 1.252 . S
C1208 O1197 1.284 . S
C1208 O1200 1.250 . S
C1209 H1178 0.929 . S
C1209 C1194 1.437 . S
C1209 C1210 1.317 . S
C1210 H1181 0.930 . S
C1210 C1186 1.431 . S
C1210 C1209 1.317 . S
C1211 Gd1152 2.828 . S
C1211 O1196 1.258 . S
C1211 O1201 1.252 . S
C1211 C1212 1.497 . S
C1212 C1211 1.497 . S
C1212 C1213 1.395 . S
C1212 C1214 1.380 . S
C1213 C1212 1.395 . S
C1213 C1216 1.398 . S
C1213 H1228 0.930 . S
C1214 C1212 1.380 . S
C1214 C1215 1.391 . S
C1214 H1229 0.930 . S
C1215 C1214 1.391 . S
C1215 C1217 1.387 . S
C1216 C1213 1.398 . S
C1216 C1217 1.380 . S
C1216 H1230 0.930 . S
C1217 C1215 1.387 . S
C1217 C1216 1.380 . S
C1217 H1231 0.930 . S
C1218 O1198 1.254 . S
C1218 O1199 1.268 . S
C1219 O1203 1.284 . S
C1219 O1206 1.250 . S
C1220 Gd1153 2.828 . S
C1220 O1202 1.258 . S
C1220 O1207 1.252 . S
C1220 C1221 1.497 . S
C1221 C1220 1.497 . S
C1221 C1222 1.395 . S
C1221 C1223 1.380 . S
C1222 C1221 1.395 . S
C1222 C1225 1.398 . S
C1222 H1232 0.930 . S
C1223 C1221 1.380 . S
C1223 C1224 1.391 . S
C1223 H1233 0.930 . S
C1224 C1223 1.391 . S
C1224 C1226 1.387 . S
C1225 C1222 1.398 . S
C1225 C1226 1.380 . S
C1225 H1234 0.930 . S
C1226 C1224 1.387 . S
C1226 C1225 1.380 . S
C1226 H1235 0.930 . S
C1227 O1204 1.254 . S
C1227 O1205 1.268 . S
H1228 C1213 0.930 . S
H1229 C1214 0.930 . S
H1230 C1216 0.930 . S
H1231 C1217 0.930 . S
H1232 C1222 0.930 . S
H1233 C1223 0.930 . S
H1234 C1225 0.930 . S
H1235 C1226 0.930 . S
Gd1236 N1267 2.661 . S
Gd1236 N1273 2.601 . S
Gd1236 O1280 2.545 . S
Gd1236 O1281 2.606 . S
Gd1236 O1283 2.429 . S
Gd1236 O1284 2.545 . S
Gd1236 O1285 2.412 . S
Gd1236 O1287 2.362 . S
Gd1236 O1288 2.324 . S
Gd1236 C1295 2.828 . S
Gd1237 N1246 2.661 . S
Gd1237 N1250 2.601 . S
Gd1237 O1281 2.362 . S
Gd1237 O1282 2.324 . S
Gd1237 O1286 2.545 . S
Gd1237 O1287 2.606 . S
Gd1237 O1289 2.429 . S
Gd1237 O1290 2.545 . S
Gd1237 O1291 2.412 . S
Gd1237 C1304 2.828 . S
C1238 C1241 1.417 . S
C1238 C1243 1.431 . S
C1238 C1244 1.412 . S
C1239 C1242 1.437 . S
C1239 C1243 1.317 . S
C1239 H1258 0.929 . S
C1240 C1241 1.426 . S
C1240 C1242 1.413 . S
C1240 N1250 1.359 . S
C1241 C1238 1.417 . S
C1241 C1240 1.426 . S
C1241 N1246 1.350 . S
C1242 C1239 1.437 . S
C1242 C1240 1.413 . S
C1242 C1252 1.391 . S
C1243 C1238 1.431 . S
C1243 C1239 1.317 . S
C1243 H1254 0.930 . S
C1244 C1238 1.412 . S
C1244 C1245 1.355 . S
C1244 H1256 0.930 . S
C1245 C1244 1.355 . S
C1245 C1247 1.402 . S
C1245 H1257 0.930 . S
N1246 Gd1237 2.661 . S
N1246 C1241 1.350 . S
N1246 C1247 1.307 . S
C1247 C1245 1.402 . S
C1247 N1246 1.307 . S
C1247 H1248 0.930 . S
H1248 C1247 0.930 . S
C1249 N1250 1.334 . S
C1249 C1251 1.394 . S
C1249 H1253 0.930 . S
N1250 Gd1237 2.601 . S
N1250 C1240 1.359 . S
N1250 C1249 1.334 . S
C1251 C1249 1.394 . S
C1251 C1252 1.359 . S
C1251 H1263 0.930 . S
C1252 C1242 1.391 . S
C1252 C1251 1.359 . S
C1252 H1264 0.929 . S
H1253 C1249 0.930 . S
H1254 C1243 0.930 . S
H1255 C1272 0.930 . S
H1256 C1244 0.930 . S
H1257 C1245 0.930 . S
H1258 C1239 0.929 . S
H1259 C1277 0.930 . S
H1260 C1268 0.930 . S
H1261 C1269 0.930 . S
H1262 C1293 0.929 . S
H1263 C1251 0.930 . S
H1264 C1252 0.929 . S
H1265 C1294 0.930 . S
H1266 C1275 0.930 . S
N1267 Gd1236 2.661 . S
N1267 C1271 1.350 . S
N1267 C1272 1.307 . S
C1268 H1260 0.930 . S
C1268 C1269 1.355 . S
C1268 C1270 1.412 . S
C1269 H1261 0.930 . S
C1269 C1268 1.355 . S
C1269 C1272 1.402 . S
C1270 C1268 1.412 . S
C1270 C1271 1.417 . S
C1270 C1294 1.431 . S
C1271 N1267 1.350 . S
C1271 C1270 1.417 . S
C1271 C1274 1.426 . S
C1272 H1255 0.930 . S
C1272 N1267 1.307 . S
C1272 C1269 1.402 . S
N1273 Gd1236 2.601 . S
N1273 C1274 1.359 . S
N1273 C1277 1.334 . S
C1274 C1271 1.426 . S
C1274 N1273 1.359 . S
C1274 C1278 1.413 . S
C1275 H1266 0.930 . S
C1275 C1276 1.359 . S
C1275 C1277 1.394 . S
C1276 C1275 1.359 . S
C1276 C1278 1.391 . S
C1276 H1279 0.929 . S
C1277 H1259 0.930 . S
C1277 N1273 1.334 . S
C1277 C1275 1.394 . S
C1278 C1274 1.413 . S
C1278 C1276 1.391 . S
C1278 C1293 1.437 . S
H1279 C1276 0.929 . S
O1280 Gd1236 2.545 . S
O1280 C1295 1.258 . S
O1281 Gd1236 2.606 . S
O1281 Gd1237 2.362 . S
O1281 C1292 1.284 . S
O1282 Gd1237 2.324 . S
O1282 C1302 1.254 . S
O1283 Gd1236 2.429 . S
O1283 C1302 1.268 . S
O1284 Gd1236 2.545 . S
O1284 C1292 1.250 . S
O1285 Gd1236 2.412 . S
O1285 C1295 1.252 . S
O1286 Gd1237 2.545 . S
O1286 C1304 1.258 . S
O1287 Gd1236 2.362 . S
O1287 Gd1237 2.606 . S
O1287 C1303 1.284 . S
O1288 Gd1236 2.324 . S
O1288 C1311 1.254 . S
O1289 Gd1237 2.429 . S
O1289 C1311 1.268 . S
O1290 Gd1237 2.545 . S
O1290 C1303 1.250 . S
O1291 Gd1237 2.412 . S
O1291 C1304 1.252 . S
C1292 O1281 1.284 . S
C1292 O1284 1.250 . S
C1293 H1262 0.929 . S
C1293 C1278 1.437 . S
C1293 C1294 1.317 . S
C1294 H1265 0.930 . S
C1294 C1270 1.431 . S
C1294 C1293 1.317 . S
C1295 Gd1236 2.828 . S
C1295 O1280 1.258 . S
C1295 O1285 1.252 . S
C1295 C1296 1.497 . S
C1296 C1295 1.497 . S
C1296 C1297 1.395 . S
C1296 C1298 1.380 . S
C1297 C1296 1.395 . S
C1297 C1300 1.398 . S
C1297 H1312 0.930 . S
C1298 C1296 1.380 . S
C1298 C1299 1.391 . S
C1298 H1313 0.930 . S
C1299 C1298 1.391 . S
C1299 C1301 1.387 . S
C1300 C1297 1.398 . S
C1300 C1301 1.380 . S
C1300 H1314 0.930 . S
C1301 C1299 1.387 . S
C1301 C1300 1.380 . S
C1301 H1315 0.930 . S
C1302 O1282 1.254 . S
C1302 O1283 1.268 . S
C1303 O1287 1.284 . S
C1303 O1290 1.250 . S
C1304 Gd1237 2.828 . S
C1304 O1286 1.258 . S
C1304 O1291 1.252 . S
C1304 C1305 1.497 . S
C1305 C1304 1.497 . S
C1305 C1306 1.395 . S
C1305 C1307 1.380 . S
C1306 C1305 1.395 . S
C1306 C1309 1.398 . S
C1306 H1316 0.930 . S
C1307 C1305 1.380 . S
C1307 C1308 1.391 . S
C1307 H1317 0.930 . S
C1308 C1307 1.391 . S
C1308 C1310 1.387 . S
C1309 C1306 1.398 . S
C1309 C1310 1.380 . S
C1309 H1318 0.930 . S
C1310 C1308 1.387 . S
C1310 C1309 1.380 . S
C1310 H1319 0.930 . S
C1311 O1288 1.254 . S
C1311 O1289 1.268 . S
H1312 C1297 0.930 . S
H1313 C1298 0.930 . S
H1314 C1300 0.930 . S
H1315 C1301 0.930 . S
H1316 C1306 0.930 . S
H1317 C1307 0.930 . S
H1318 C1309 0.930 . S
H1319 C1310 0.930 . S
Gd1320 N1351 2.661 . S
Gd1320 N1357 2.601 . S
Gd1320 O1364 2.545 . S
Gd1320 O1365 2.606 . S
Gd1320 O1367 2.429 . S
Gd1320 O1368 2.545 . S
Gd1320 O1369 2.412 . S
Gd1320 O1371 2.362 . S
Gd1320 O1372 2.324 . S
Gd1320 C1379 2.828 . S
Gd1321 N1330 2.661 . S
Gd1321 N1334 2.601 . S
Gd1321 O1365 2.362 . S
Gd1321 O1366 2.324 . S
Gd1321 O1370 2.545 . S
Gd1321 O1371 2.606 . S
Gd1321 O1373 2.429 . S
Gd1321 O1374 2.545 . S
Gd1321 O1375 2.412 . S
Gd1321 C1388 2.828 . S
C1322 C1325 1.417 . S
C1322 C1327 1.431 . S
C1322 C1328 1.412 . S
C1323 C1326 1.437 . S
C1323 C1327 1.317 . S
C1323 H1342 0.929 . S
C1324 C1325 1.426 . S
C1324 C1326 1.413 . S
C1324 N1334 1.359 . S
C1325 C1322 1.417 . S
C1325 C1324 1.426 . S
C1325 N1330 1.350 . S
C1326 C1323 1.437 . S
C1326 C1324 1.413 . S
C1326 C1336 1.391 . S
C1327 C1322 1.431 . S
C1327 C1323 1.317 . S
C1327 H1338 0.930 . S
C1328 C1322 1.412 . S
C1328 C1329 1.355 . S
C1328 H1340 0.930 . S
C1329 C1328 1.355 . S
C1329 C1331 1.402 . S
C1329 H1341 0.930 . S
N1330 Gd1321 2.661 . S
N1330 C1325 1.350 . S
N1330 C1331 1.307 . S
C1331 C1329 1.402 . S
C1331 N1330 1.307 . S
C1331 H1332 0.930 . S
H1332 C1331 0.930 . S
C1333 N1334 1.334 . S
C1333 C1335 1.394 . S
C1333 H1337 0.930 . S
N1334 Gd1321 2.601 . S
N1334 C1324 1.359 . S
N1334 C1333 1.334 . S
C1335 C1333 1.394 . S
C1335 C1336 1.359 . S
C1335 H1347 0.930 . S
C1336 C1326 1.391 . S
C1336 C1335 1.359 . S
C1336 H1348 0.929 . S
H1337 C1333 0.930 . S
H1338 C1327 0.930 . S
H1339 C1356 0.930 . S
H1340 C1328 0.930 . S
H1341 C1329 0.930 . S
H1342 C1323 0.929 . S
H1343 C1361 0.930 . S
H1344 C1352 0.930 . S
H1345 C1353 0.930 . S
H1346 C1377 0.929 . S
H1347 C1335 0.930 . S
H1348 C1336 0.929 . S
H1349 C1378 0.930 . S
H1350 C1359 0.930 . S
N1351 Gd1320 2.661 . S
N1351 C1355 1.350 . S
N1351 C1356 1.307 . S
C1352 H1344 0.930 . S
C1352 C1353 1.355 . S
C1352 C1354 1.412 . S
C1353 H1345 0.930 . S
C1353 C1352 1.355 . S
C1353 C1356 1.402 . S
C1354 C1352 1.412 . S
C1354 C1355 1.417 . S
C1354 C1378 1.431 . S
C1355 N1351 1.350 . S
C1355 C1354 1.417 . S
C1355 C1358 1.426 . S
C1356 H1339 0.930 . S
C1356 N1351 1.307 . S
C1356 C1353 1.402 . S
N1357 Gd1320 2.601 . S
N1357 C1358 1.359 . S
N1357 C1361 1.334 . S
C1358 C1355 1.426 . S
C1358 N1357 1.359 . S
C1358 C1362 1.413 . S
C1359 H1350 0.930 . S
C1359 C1360 1.359 . S
C1359 C1361 1.394 . S
C1360 C1359 1.359 . S
C1360 C1362 1.391 . S
C1360 H1363 0.929 . S
C1361 H1343 0.930 . S
C1361 N1357 1.334 . S
C1361 C1359 1.394 . S
C1362 C1358 1.413 . S
C1362 C1360 1.391 . S
C1362 C1377 1.437 . S
H1363 C1360 0.929 . S
O1364 Gd1320 2.545 . S
O1364 C1379 1.258 . S
O1365 Gd1320 2.606 . S
O1365 Gd1321 2.362 . S
O1365 C1376 1.284 . S
O1366 Gd1321 2.324 . S
O1366 C1386 1.254 . S
O1367 Gd1320 2.429 . S
O1367 C1386 1.268 . S
O1368 Gd1320 2.545 . S
O1368 C1376 1.250 . S
O1369 Gd1320 2.412 . S
O1369 C1379 1.252 . S
O1370 Gd1321 2.545 . S
O1370 C1388 1.258 . S
O1371 Gd1320 2.362 . S
O1371 Gd1321 2.606 . S
O1371 C1387 1.284 . S
O1372 Gd1320 2.324 . S
O1372 C1395 1.254 . S
O1373 Gd1321 2.429 . S
O1373 C1395 1.268 . S
O1374 Gd1321 2.545 . S
O1374 C1387 1.250 . S
O1375 Gd1321 2.412 . S
O1375 C1388 1.252 . S
C1376 O1365 1.284 . S
C1376 O1368 1.250 . S
C1377 H1346 0.929 . S
C1377 C1362 1.437 . S
C1377 C1378 1.317 . S
C1378 H1349 0.930 . S
C1378 C1354 1.431 . S
C1378 C1377 1.317 . S
C1379 Gd1320 2.828 . S
C1379 O1364 1.258 . S
C1379 O1369 1.252 . S
C1379 C1380 1.497 . S
C1380 C1379 1.497 . S
C1380 C1381 1.395 . S
C1380 C1382 1.380 . S
C1381 C1380 1.395 . S
C1381 C1384 1.398 . S
C1381 H1396 0.930 . S
C1382 C1380 1.380 . S
C1382 C1383 1.391 . S
C1382 H1397 0.930 . S
C1383 C1382 1.391 . S
C1383 C1385 1.387 . S
C1384 C1381 1.398 . S
C1384 C1385 1.380 . S
C1384 H1398 0.930 . S
C1385 C1383 1.387 . S
C1385 C1384 1.380 . S
C1385 H1399 0.930 . S
C1386 O1366 1.254 . S
C1386 O1367 1.268 . S
C1387 O1371 1.284 . S
C1387 O1374 1.250 . S
C1388 Gd1321 2.828 . S
C1388 O1370 1.258 . S
C1388 O1375 1.252 . S
C1388 C1389 1.497 . S
C1389 C1388 1.497 . S
C1389 C1390 1.395 . S
C1389 C1391 1.380 . S
C1390 C1389 1.395 . S
C1390 C1393 1.398 . S
C1390 H1400 0.930 . S
C1391 C1389 1.380 . S
C1391 C1392 1.391 . S
C1391 H1401 0.930 . S
C1392 C1391 1.391 . S
C1392 C1394 1.387 . S
C1393 C1390 1.398 . S
C1393 C1394 1.380 . S
C1393 H1402 0.930 . S
C1394 C1392 1.387 . S
C1394 C1393 1.380 . S
C1394 H1403 0.930 . S
C1395 O1372 1.254 . S
C1395 O1373 1.268 . S
H1396 C1381 0.930 . S
H1397 C1382 0.930 . S
H1398 C1384 0.930 . S
H1399 C1385 0.930 . S
H1400 C1390 0.930 . S
H1401 C1391 0.930 . S
H1402 C1393 0.930 . S
H1403 C1394 0.930 . S
H1404 C1416 0.930 . S
H1405 C1418 0.930 . S
H1406 C1419 0.930 . S
H1407 C1423 0.959 . S
H1408 C1423 0.959 . S
H1409 C1423 0.961 . S
H1410 C1424 0.960 . S
H1411 C1424 0.961 . S
H1412 C1424 0.959 . S
H1413 C1427 0.929 . S
H1414 C1428 0.966 . S
H1415 C1430 0.930 . S
C1416 H1404 0.930 . S
C1416 C1417 1.399 . S
C1416 C1421 1.399 . S
C1417 C1416 1.399 . S
C1417 C1418 1.376 . S
C1418 H1405 0.930 . S
C1418 C1417 1.376 . S
C1418 C1419 1.388 . S
C1419 H1406 0.930 . S
C1419 C1418 1.388 . S
C1419 C1420 1.390 . S
C1420 C1419 1.390 . S
C1420 C1421 1.394 . S
C1420 C1426 1.465 . S
C1421 C1416 1.399 . S
C1421 C1420 1.394 . S
C1421 C1422 1.516 . S
C1422 C1421 1.516 . S
C1422 C1423 1.502 . S
C1422 C1424 1.561 . S
C1422 C1425 1.526 . S
C1423 H1407 0.959 . S
C1423 H1408 0.959 . S
C1423 H1409 0.961 . S
C1423 C1422 1.502 . S
C1424 H1410 0.960 . S
C1424 H1411 0.961 . S
C1424 H1412 0.959 . S
C1424 C1422 1.561 . S
C1425 C1422 1.526 . S
C1425 C1426 1.396 . S
C1425 C1430 1.390 . S
C1426 C1420 1.465 . S
C1426 C1425 1.396 . S
C1426 C1427 1.399 . S
C1427 H1413 0.929 . S
C1427 C1426 1.399 . S
C1427 C1428 1.385 . S
C1428 H1414 0.966 . S
C1428 C1427 1.385 . S
C1428 C1429 1.389 . S
C1429 C1428 1.389 . S
C1429 C1430 1.387 . S
C1430 H1415 0.930 . S
C1430 C1425 1.390 . S
C1430 C1429 1.387 . S
H1431 C1443 0.930 . S
H1432 C1445 0.930 . S
H1433 C1446 0.930 . S
H1434 C1450 0.959 . S
H1435 C1450 0.959 1_556 S
H1436 C1450 0.961 . S
H1437 C1451 0.960 . S
H1438 C1451 0.961 . S
H1439 C1451 0.959 . S
H1440 C1454 0.929 . S
H1441 C1455 0.931 . S
H1442 C1457 0.930 . S
C1443 H1431 0.930 . S
C1443 C1444 1.399 . S
C1443 C1448 1.399 . S
C1444 C1443 1.399 . S
C1444 C1445 1.376 . S
C1445 H1432 0.930 . S
C1445 C1444 1.376 . S
C1445 C1446 1.388 . S
C1446 H1433 0.930 . S
C1446 C1445 1.388 . S
C1446 C1447 1.390 . S
C1447 C1446 1.390 . S
C1447 C1448 1.394 . S
C1447 C1453 1.465 . S
C1448 C1443 1.399 . S
C1448 C1447 1.394 . S
C1448 C1449 1.516 . S
C1449 C1448 1.516 . S
C1449 C1450 1.502 . S
C1449 C1451 1.561 . S
C1449 C1452 1.526 . S
C1450 H1434 0.959 . S
C1450 H1435 0.959 1_554 S
C1450 H1436 0.961 . S
C1450 C1449 1.502 . S
C1451 H1437 0.960 . S
C1451 H1438 0.961 . S
C1451 H1439 0.959 . S
C1451 C1449 1.561 . S
C1452 C1449 1.526 . S
C1452 C1453 1.396 . S
C1452 C1457 1.390 . S
C1453 C1447 1.465 . S
C1453 C1452 1.396 . S
C1453 C1454 1.399 . S
C1454 H1440 0.929 . S
C1454 C1453 1.399 . S
C1454 C1455 1.385 . S
C1455 H1441 0.931 . S
C1455 C1454 1.385 . S
C1455 C1456 1.389 . S
C1456 C1455 1.389 . S
C1456 C1457 1.387 . S
C1457 H1442 0.930 . S
C1457 C1452 1.390 . S
C1457 C1456 1.387 . S
H1458 C1470 0.930 . S
H1459 C1472 0.930 . S
H1460 C1473 0.930 . S
H1461 C1477 0.959 . S
H1462 C1477 0.959 . S
H1463 C1477 0.961 . S
H1464 C1478 0.960 . S
H1465 C1478 0.961 . S
H1466 C1478 0.959 . S
H1467 C1481 0.877 1_556 S
H1468 C1482 0.931 1_556 S
H1469 C1484 0.930 . S
C1470 H1458 0.930 . S
C1470 C1471 1.399 . S
C1470 C1475 1.399 . S
C1471 C1470 1.399 . S
C1471 C1472 1.376 . S
C1472 H1459 0.930 . S
C1472 C1471 1.376 . S
C1472 C1473 1.388 . S
C1473 H1460 0.930 . S
C1473 C1472 1.388 . S
C1473 C1474 1.390 . S
C1474 C1473 1.390 . S
C1474 C1475 1.394 . S
C1474 C1480 1.465 . S
C1475 C1470 1.399 . S
C1475 C1474 1.394 . S
C1475 C1476 1.516 . S
C1476 C1475 1.516 . S
C1476 C1477 1.502 . S
C1476 C1478 1.561 . S
C1476 C1479 1.526 . S
C1477 H1461 0.959 . S
C1477 H1462 0.959 . S
C1477 H1463 0.961 . S
C1477 C1476 1.502 . S
C1478 H1464 0.960 . S
C1478 H1465 0.961 . S
C1478 H1466 0.959 . S
C1478 C1476 1.561 . S
C1479 C1476 1.526 . S
C1479 C1480 1.396 . S
C1479 C1484 1.390 . S
C1480 C1474 1.465 . S
C1480 C1479 1.396 . S
C1480 C1481 1.399 . S
C1481 H1467 0.877 1_554 S
C1481 C1480 1.399 . S
C1481 C1482 1.385 . S
C1482 H1468 0.931 1_554 S
C1482 C1481 1.385 . S
C1482 C1483 1.389 . S
C1483 C1482 1.389 . S
C1483 C1484 1.387 . S
C1484 H1469 0.930 . S
C1484 C1479 1.390 . S
C1484 C1483 1.387 . S
H1485 C1497 0.930 . S
H1486 C1499 0.930 . S
H1487 C1500 0.930 . S
H1488 C1504 0.959 . S
H1489 C1504 0.959 . S
H1490 C1504 0.961 . S
H1491 C1505 0.960 . S
H1492 C1505 0.961 . S
H1493 C1505 0.959 . S
H1494 C1508 0.929 1_554 S
H1495 C1509 0.931 1_554 S
H1496 C1511 0.930 . S
C1497 H1485 0.930 . S
C1497 C1498 1.399 . S
C1497 C1502 1.399 . S
C1498 C1497 1.399 . S
C1498 C1499 1.376 . S
C1499 H1486 0.930 . S
C1499 C1498 1.376 . S
C1499 C1500 1.388 . S
C1500 H1487 0.930 . S
C1500 C1499 1.388 . S
C1500 C1501 1.390 . S
C1501 C1500 1.390 . S
C1501 C1502 1.394 . S
C1501 C1507 1.465 . S
C1502 C1497 1.399 . S
C1502 C1501 1.394 . S
C1502 C1503 1.516 . S
C1503 C1502 1.516 . S
C1503 C1504 1.502 . S
C1503 C1505 1.561 . S
C1503 C1506 1.526 . S
C1504 H1488 0.959 . S
C1504 H1489 0.959 . S
C1504 H1490 0.961 . S
C1504 C1503 1.502 . S
C1505 H1491 0.960 . S
C1505 H1492 0.961 . S
C1505 H1493 0.959 . S
C1505 C1503 1.561 . S
C1506 C1503 1.526 . S
C1506 C1507 1.396 . S
C1506 C1511 1.390 . S
C1507 C1501 1.465 . S
C1507 C1506 1.396 . S
C1507 C1508 1.399 . S
C1508 H1494 0.929 1_556 S
C1508 C1507 1.399 . S
C1508 C1509 1.385 . S
C1509 H1495 0.931 1_556 S
C1509 C1508 1.385 . S
C1509 C1510 1.389 . S
C1510 C1509 1.389 . S
C1510 C1511 1.387 . S
C1511 H1496 0.930 . S
C1511 C1506 1.390 . S
C1511 C1510 1.387 . S
H1512 C1524 0.930 . S
H1513 C1526 0.930 . S
H1514 C1527 0.930 . S
H1515 C1531 0.959 . S
H1516 C1531 0.959 . S
H1517 C1531 0.961 . S
H1518 C1532 0.960 . S
H1519 C1532 0.961 . S
H1520 C1532 0.959 . S
H1521 C1535 0.929 . S
H1522 C1536 0.931 . S
H1523 C1538 0.930 . S
C1524 H1512 0.930 . S
C1524 C1525 1.399 . S
C1524 C1529 1.399 . S
C1525 C1524 1.399 . S
C1525 C1526 1.376 . S
C1526 H1513 0.930 . S
C1526 C1525 1.376 . S
C1526 C1527 1.388 . S
C1527 H1514 0.930 . S
C1527 C1526 1.388 . S
C1527 C1528 1.390 . S
C1528 C1527 1.390 . S
C1528 C1529 1.394 . S
C1528 C1534 1.465 . S
C1529 C1524 1.399 . S
C1529 C1528 1.394 . S
C1529 C1530 1.516 . S
C1530 C1529 1.516 . S
C1530 C1531 1.502 . S
C1530 C1532 1.561 . S
C1530 C1533 1.526 . S
C1531 H1515 0.959 . S
C1531 H1516 0.959 . S
C1531 H1517 0.961 . S
C1531 C1530 1.502 . S
C1532 H1518 0.960 . S
C1532 H1519 0.961 . S
C1532 H1520 0.959 . S
C1532 C1530 1.561 . S
C1533 C1530 1.526 . S
C1533 C1534 1.396 . S
C1533 C1538 1.390 . S
C1534 C1528 1.465 . S
C1534 C1533 1.396 . S
C1534 C1535 1.399 . S
C1535 H1521 0.929 . S
C1535 C1534 1.399 . S
C1535 C1536 1.385 . S
C1536 H1522 0.931 . S
C1536 C1535 1.385 . S
C1536 C1537 1.389 . S
C1537 C1536 1.389 . S
C1537 C1538 1.387 . S
C1538 H1523 0.930 . S
C1538 C1533 1.390 . S
C1538 C1537 1.387 . S
H1539 C1551 0.930 . S
H1540 C1553 0.930 . S
H1541 C1554 0.930 . S
H1542 C1558 0.959 . S
H1543 C1558 0.959 1_554 S
H1544 C1558 0.964 . S
H1545 C1559 0.951 1_554 S
H1546 C1559 0.909 1_554 S
H1547 C1559 0.988 . S
H1548 C1562 0.929 . S
H1549 C1563 0.931 . S
H1550 C1565 0.930 1_554 S
C1551 H1539 0.930 . S
C1551 C1552 1.399 . S
C1551 C1556 1.399 . S
C1552 C1551 1.399 . S
C1552 C1553 1.376 . S
C1553 H1540 0.930 . S
C1553 C1552 1.376 . S
C1553 C1554 1.388 . S
C1554 H1541 0.930 . S
C1554 C1553 1.388 . S
C1554 C1555 1.390 . S
C1555 C1554 1.390 . S
C1555 C1556 1.394 . S
C1555 C1561 1.465 . S
C1556 C1551 1.399 . S
C1556 C1555 1.394 . S
C1556 C1557 1.516 . S
C1557 C1556 1.516 . S
C1557 C1558 1.502 . S
C1557 C1559 1.598 . S
C1557 C1560 1.526 . S
C1558 H1542 0.959 . S
C1558 H1543 0.959 1_556 S
C1558 H1544 0.964 . S
C1558 C1557 1.502 . S
C1559 H1545 0.951 1_556 S
C1559 H1546 0.909 1_556 S
C1559 H1547 0.988 . S
C1559 C1557 1.598 . S
C1560 C1557 1.526 . S
C1560 C1561 1.396 . S
C1560 C1565 1.390 . S
C1561 C1555 1.465 . S
C1561 C1560 1.396 . S
C1561 C1562 1.399 . S
C1562 H1548 0.929 . S
C1562 C1561 1.399 . S
C1562 C1563 1.385 . S
C1563 H1549 0.931 . S
C1563 C1562 1.385 . S
C1563 C1564 1.389 . S
C1564 C1563 1.389 . S
C1564 C1565 1.387 . S
C1565 H1550 0.930 1_556 S
C1565 C1560 1.390 . S
C1565 C1564 1.387 . S
H1566 C1578 0.930 . S
H1567 C1580 0.930 . S
H1568 C1581 0.930 . S
H1569 C1585 0.959 . S
H1570 C1585 0.959 1_554 S
H1571 C1585 0.961 . S
H1572 C1586 0.960 . S
H1573 C1586 0.961 1_554 S
H1574 C1586 0.959 . S
H1575 C1589 0.929 . S
H1576 C1590 0.931 . S
H1577 C1592 0.930 1_554 S
C1578 H1566 0.930 . S
C1578 C1579 1.399 . S
C1578 C1583 1.399 . S
C1579 C1578 1.399 . S
C1579 C1580 1.376 . S
C1580 H1567 0.930 . S
C1580 C1579 1.376 . S
C1580 C1581 1.388 . S
C1581 H1568 0.930 . S
C1581 C1580 1.388 . S
C1581 C1582 1.390 . S
C1582 C1581 1.390 . S
C1582 C1583 1.394 . S
C1582 C1588 1.465 . S
C1583 C1578 1.399 . S
C1583 C1582 1.394 . S
C1583 C1584 1.516 . S
C1584 C1583 1.516 . S
C1584 C1585 1.502 . S
C1584 C1586 1.561 . S
C1584 C1587 1.526 . S
C1585 H1569 0.959 . S
C1585 H1570 0.959 1_556 S
C1585 H1571 0.961 . S
C1585 C1584 1.502 . S
C1586 H1572 0.960 . S
C1586 H1573 0.961 1_556 S
C1586 H1574 0.959 . S
C1586 C1584 1.561 . S
C1587 C1584 1.526 . S
C1587 C1588 1.396 . S
C1587 C1592 1.390 . S
C1588 C1582 1.465 . S
C1588 C1587 1.396 . S
C1588 C1589 1.399 . S
C1589 H1575 0.929 . S
C1589 C1588 1.399 . S
C1589 C1590 1.385 . S
C1590 H1576 0.931 . S
C1590 C1589 1.385 . S
C1590 C1591 1.389 . S
C1591 C1590 1.389 . S
C1591 C1592 1.387 . S
C1592 H1577 0.930 1_556 S
C1592 C1587 1.390 . S
C1592 C1591 1.387 . S
H1593 C1605 0.930 . S
H1594 C1607 0.930 . S
H1595 C1608 0.930 . S
H1596 C1612 0.959 . S
H1597 C1612 0.959 . S
H1598 C1612 0.961 . S
H1599 C1613 0.960 . S
H1600 C1613 0.961 . S
H1601 C1613 0.959 . S
H1602 C1616 0.929 . S
H1603 C1617 0.915 1_554 S
H1604 C1619 0.930 . S
C1605 H1593 0.930 . S
C1605 C1606 1.399 . S
C1605 C1610 1.399 . S
C1606 C1605 1.399 . S
C1606 C1607 1.376 . S
C1607 H1594 0.930 . S
C1607 C1606 1.376 . S
C1607 C1608 1.388 . S
C1608 H1595 0.930 . S
C1608 C1607 1.388 . S
C1608 C1609 1.390 . S
C1609 C1608 1.390 . S
C1609 C1610 1.394 . S
C1609 C1615 1.465 . S
C1610 C1605 1.399 . S
C1610 C1609 1.394 . S
C1610 C1611 1.516 . S
C1611 C1610 1.516 . S
C1611 C1612 1.502 . S
C1611 C1613 1.561 . S
C1611 C1614 1.526 . S
C1612 H1596 0.959 . S
C1612 H1597 0.959 . S
C1612 H1598 0.961 . S
C1612 C1611 1.502 . S
C1613 H1599 0.960 . S
C1613 H1600 0.961 . S
C1613 H1601 0.959 . S
C1613 C1611 1.561 . S
C1614 C1611 1.526 . S
C1614 C1615 1.396 . S
C1614 C1619 1.390 . S
C1615 C1609 1.465 . S
C1615 C1614 1.396 . S
C1615 C1616 1.399 . S
C1616 H1602 0.929 . S
C1616 C1615 1.399 . S
C1616 C1617 1.385 . S
C1617 H1603 0.915 1_556 S
C1617 C1616 1.385 . S
C1617 C1618 1.389 . S
C1618 C1617 1.389 . S
C1618 C1619 1.387 . S
C1619 H1604 0.930 . S
C1619 C1614 1.390 . S
C1619 C1618 1.387 . S
H1620 C1632 0.930 . S
H1621 C1634 0.930 . S
H1622 C1635 0.930 . S
H1623 C1639 0.959 . S
H1624 C1639 0.959 . S
H1625 C1639 0.961 . S
H1626 C1640 0.960 . S
H1627 C1640 0.961 . S
H1628 C1640 0.959 . S
H1629 C1643 0.929 1_554 S
H1630 C1644 0.931 1_554 S
H1631 C1646 0.930 . S
C1632 H1620 0.930 . S
C1632 C1633 1.399 . S
C1632 C1637 1.399 . S
C1633 C1632 1.399 . S
C1633 C1634 1.376 . S
C1634 H1621 0.930 . S
C1634 C1633 1.376 . S
C1634 C1635 1.388 . S
C1635 H1622 0.930 . S
C1635 C1634 1.388 . S
C1635 C1636 1.390 . S
C1636 C1635 1.390 . S
C1636 C1637 1.394 . S
C1636 C1642 1.465 . S
C1637 C1632 1.399 . S
C1637 C1636 1.394 . S
C1637 C1638 1.516 . S
C1638 C1637 1.516 . S
C1638 C1639 1.502 . S
C1638 C1640 1.561 . S
C1638 C1641 1.526 . S
C1639 H1623 0.959 . S
C1639 H1624 0.959 . S
C1639 H1625 0.961 . S
C1639 C1638 1.502 . S
C1640 H1626 0.960 . S
C1640 H1627 0.961 . S
C1640 H1628 0.959 . S
C1640 C1638 1.561 . S
C1641 C1638 1.526 . S
C1641 C1642 1.396 . S
C1641 C1646 1.390 . S
C1642 C1636 1.465 . S
C1642 C1641 1.396 . S
C1642 C1643 1.399 . S
C1643 H1629 0.929 1_556 S
C1643 C1642 1.399 . S
C1643 C1644 1.385 . S
C1644 H1630 0.931 1_556 S
C1644 C1643 1.385 . S
C1644 C1645 1.389 . S
C1645 C1644 1.389 . S
C1645 C1646 1.387 . S
C1646 H1631 0.930 . S
C1646 C1641 1.390 . S
C1646 C1645 1.387 . S
H1647 C1659 0.930 . S
H1648 C1661 0.930 . S
H1649 C1662 0.930 . S
H1650 C1666 0.959 . S
H1651 C1666 0.959 . S
H1652 C1666 0.961 . S
H1653 C1667 0.960 . S
H1654 C1667 0.961 . S
H1655 C1667 0.959 . S
H1656 C1670 0.929 . S
H1657 C1671 0.948 . S
H1658 C1673 0.930 . S
C1659 H1647 0.930 . S
C1659 C1660 1.399 . S
C1659 C1664 1.399 . S
C1660 C1659 1.399 . S
C1660 C1661 1.376 . S
C1661 H1648 0.930 . S
C1661 C1660 1.376 . S
C1661 C1662 1.388 . S
C1662 H1649 0.930 . S
C1662 C1661 1.388 . S
C1662 C1663 1.390 . S
C1663 C1662 1.390 . S
C1663 C1664 1.394 . S
C1663 C1669 1.465 . S
C1664 C1659 1.399 . S
C1664 C1663 1.394 . S
C1664 C1665 1.516 . S
C1665 C1664 1.516 . S
C1665 C1666 1.502 . S
C1665 C1667 1.561 . S
C1665 C1668 1.526 . S
C1666 H1650 0.959 . S
C1666 H1651 0.959 . S
C1666 H1652 0.961 . S
C1666 C1665 1.502 . S
C1667 H1653 0.960 . S
C1667 H1654 0.961 . S
C1667 H1655 0.959 . S
C1667 C1665 1.561 . S
C1668 C1665 1.526 . S
C1668 C1669 1.396 . S
C1668 C1673 1.390 . S
C1669 C1663 1.465 . S
C1669 C1668 1.396 . S
C1669 C1670 1.399 . S
C1670 H1656 0.929 . S
C1670 C1669 1.399 . S
C1670 C1671 1.385 . S
C1671 H1657 0.948 . S
C1671 C1670 1.385 . S
C1671 C1672 1.389 . S
C1672 C1671 1.389 . S
C1672 C1673 1.387 . S
C1673 H1658 0.930 . S
C1673 C1668 1.390 . S
C1673 C1672 1.387 . S
H1674 C1686 0.930 . S
H1675 C1688 0.930 . S
H1676 C1689 0.930 . S
H1677 C1693 0.959 . S
H1678 C1693 0.959 . S
H1679 C1693 0.961 . S
H1680 C1694 0.960 . S
H1681 C1694 0.961 . S
H1682 C1694 0.959 . S
H1683 C1697 0.929 . S
H1684 C1698 0.931 1_556 S
H1685 C1700 0.930 . S
C1686 H1674 0.930 . S
C1686 C1687 1.399 . S
C1686 C1691 1.399 . S
C1687 C1686 1.399 . S
C1687 C1688 1.376 . S
C1688 H1675 0.930 . S
C1688 C1687 1.376 . S
C1688 C1689 1.388 . S
C1689 H1676 0.930 . S
C1689 C1688 1.388 . S
C1689 C1690 1.390 . S
C1690 C1689 1.390 . S
C1690 C1691 1.394 . S
C1690 C1696 1.465 . S
C1691 C1686 1.399 . S
C1691 C1690 1.394 . S
C1691 C1692 1.516 . S
C1692 C1691 1.516 . S
C1692 C1693 1.502 . S
C1692 C1694 1.561 . S
C1692 C1695 1.526 . S
C1693 H1677 0.959 . S
C1693 H1678 0.959 . S
C1693 H1679 0.961 . S
C1693 C1692 1.502 . S
C1694 H1680 0.960 . S
C1694 H1681 0.961 . S
C1694 H1682 0.959 . S
C1694 C1692 1.561 . S
C1695 C1692 1.526 . S
C1695 C1696 1.396 . S
C1695 C1700 1.390 . S
C1696 C1690 1.465 . S
C1696 C1695 1.396 . S
C1696 C1697 1.399 . S
C1697 H1683 0.929 . S
C1697 C1696 1.399 . S
C1697 C1698 1.385 . S
C1698 H1684 0.931 1_554 S
C1698 C1697 1.385 . S
C1698 C1699 1.389 . S
C1699 C1698 1.389 . S
C1699 C1700 1.387 . S
C1700 H1685 0.930 . S
C1700 C1695 1.390 . S
C1700 C1699 1.387 . S
H1701 C1713 0.930 . S
H1702 C1715 0.930 . S
H1703 C1716 0.930 . S
H1704 C1720 0.959 . S
H1705 C1720 0.959 . S
H1706 C1720 0.961 . S
H1707 C1721 0.960 . S
H1708 C1721 0.961 . S
H1709 C1721 0.959 . S
H1710 C1724 0.929 1_556 S
H1711 C1725 0.931 1_556 S
H1712 C1727 0.930 . S
C1713 H1701 0.930 . S
C1713 C1714 1.399 . S
C1713 C1718 1.399 . S
C1714 C1713 1.399 . S
C1714 C1715 1.376 . S
C1715 H1702 0.930 . S
C1715 C1714 1.376 . S
C1715 C1716 1.388 . S
C1716 H1703 0.930 . S
C1716 C1715 1.388 . S
C1716 C1717 1.390 . S
C1717 C1716 1.390 . S
C1717 C1718 1.394 . S
C1717 C1723 1.465 . S
C1718 C1713 1.399 . S
C1718 C1717 1.394 . S
C1718 C1719 1.516 . S
C1719 C1718 1.516 . S
C1719 C1720 1.502 . S
C1719 C1721 1.561 . S
C1719 C1722 1.526 . S
C1720 H1704 0.959 . S
C1720 H1705 0.959 . S
C1720 H1706 0.961 . S
C1720 C1719 1.502 . S
C1721 H1707 0.960 . S
C1721 H1708 0.961 . S
C1721 H1709 0.959 . S
C1721 C1719 1.561 . S
C1722 C1719 1.526 . S
C1722 C1723 1.396 . S
C1722 C1727 1.390 . S
C1723 C1717 1.465 . S
C1723 C1722 1.396 . S
C1723 C1724 1.399 . S
C1724 H1710 0.929 1_554 S
C1724 C1723 1.399 . S
C1724 C1725 1.385 . S
C1725 H1711 0.931 1_554 S
C1725 C1724 1.385 . S
C1725 C1726 1.389 . S
C1726 C1725 1.389 . S
C1726 C1727 1.387 . S
C1727 H1712 0.930 . S
C1727 C1722 1.390 . S
C1727 C1726 1.387 . S
H1728 C1740 0.930 . S
H1729 C1742 0.924 1_655 S
H1730 C1743 0.930 . S
H1731 C1747 0.959 . S
H1732 C1747 0.959 . S
H1733 C1747 0.961 . S
H1734 C1748 0.960 . S
H1735 C1748 0.961 . S
H1736 C1748 0.959 . S
H1737 C1751 0.929 . S
H1738 C1752 0.931 . S
H1739 C1754 0.930 . S
C1740 H1728 0.930 . S
C1740 C1741 1.399 . S
C1740 C1745 1.399 1_655 S
C1741 C1740 1.399 . S
C1741 C1742 1.376 1_655 S
C1742 H1729 0.924 1_455 S
C1742 C1741 1.376 1_455 S
C1742 C1743 1.388 . S
C1743 H1730 0.930 . S
C1743 C1742 1.388 . S
C1743 C1744 1.390 . S
C1744 C1743 1.390 . S
C1744 C1745 1.394 . S
C1744 C1750 1.465 . S
C1745 C1740 1.399 1_455 S
C1745 C1744 1.394 . S
C1745 C1746 1.516 . S
C1746 C1745 1.516 . S
C1746 C1747 1.502 . S
C1746 C1748 1.561 . S
C1746 C1749 1.526 . S
C1747 H1731 0.959 . S
C1747 H1732 0.959 . S
C1747 H1733 0.961 . S
C1747 C1746 1.502 . S
C1748 H1734 0.960 . S
C1748 H1735 0.961 . S
C1748 H1736 0.959 . S
C1748 C1746 1.561 . S
C1749 C1746 1.526 . S
C1749 C1750 1.396 . S
C1749 C1754 1.390 . S
C1750 C1744 1.465 . S
C1750 C1749 1.396 . S
C1750 C1751 1.399 . S
C1751 H1737 0.929 . S
C1751 C1750 1.399 . S
C1751 C1752 1.385 . S
C1752 H1738 0.931 . S
C1752 C1751 1.385 . S
C1752 C1753 1.389 . S
C1753 C1752 1.389 . S
C1753 C1754 1.387 . S
C1754 H1739 0.930 . S
C1754 C1749 1.390 . S
C1754 C1753 1.387 . S
H1755 C1767 0.930 . S
H1756 C1769 0.930 . S
H1757 C1770 0.930 . S
H1758 C1774 0.959 . S
H1759 C1774 0.959 . S
H1760 C1774 0.961 . S
H1761 C1775 0.960 . S
H1762 C1775 0.961 . S
H1763 C1775 0.959 . S
H1764 C1778 0.929 . S
H1765 C1779 0.931 . S
H1766 C1781 0.930 . S
C1767 H1755 0.930 . S
C1767 C1768 1.399 . S
C1767 C1772 1.399 . S
C1768 C1767 1.399 . S
C1768 C1769 1.376 . S
C1769 H1756 0.930 . S
C1769 C1768 1.376 . S
C1769 C1770 1.388 . S
C1770 H1757 0.930 . S
C1770 C1769 1.388 . S
C1770 C1771 1.390 . S
C1771 C1770 1.390 . S
C1771 C1772 1.394 . S
C1771 C1777 1.465 . S
C1772 C1767 1.399 . S
C1772 C1771 1.394 . S
C1772 C1773 1.516 . S
C1773 C1772 1.516 . S
C1773 C1774 1.502 . S
C1773 C1775 1.561 . S
C1773 C1776 1.526 . S
C1774 H1758 0.959 . S
C1774 H1759 0.959 . S
C1774 H1760 0.961 . S
C1774 C1773 1.502 . S
C1775 H1761 0.960 . S
C1775 H1762 0.961 . S
C1775 H1763 0.959 . S
C1775 C1773 1.561 . S
C1776 C1773 1.526 . S
C1776 C1777 1.396 . S
C1776 C1781 1.390 . S
C1777 C1771 1.465 . S
C1777 C1776 1.396 . S
C1777 C1778 1.399 . S
C1778 H1764 0.929 . S
C1778 C1777 1.399 . S
C1778 C1779 1.385 . S
C1779 H1765 0.931 . S
C1779 C1778 1.385 . S
C1779 C1780 1.389 . S
C1780 C1779 1.389 . S
C1780 C1781 1.387 . S
C1781 H1766 0.930 . S
C1781 C1776 1.390 . S
C1781 C1780 1.387 . S
H1782 C1794 0.930 . S
H1783 C1796 0.930 . S
H1784 C1797 0.930 . S
H1785 C1801 0.959 . S
H1786 C1801 0.959 . S
H1787 C1801 0.961 . S
H1788 C1802 0.960 . S
H1789 C1802 0.961 . S
H1790 C1802 0.959 . S
H1791 C1805 0.929 . S
H1792 C1806 0.931 . S
H1793 C1808 0.930 . S
C1794 H1782 0.930 . S
C1794 C1795 1.399 . S
C1794 C1799 1.399 1_545 S
C1795 C1794 1.399 . S
C1795 C1796 1.376 . S
C1796 H1783 0.930 . S
C1796 C1795 1.376 . S
C1796 C1797 1.388 1_545 S
C1797 H1784 0.930 . S
C1797 C1796 1.388 1_565 S
C1797 C1798 1.390 . S
C1798 C1797 1.390 . S
C1798 C1799 1.394 . S
C1798 C1804 1.465 . S
C1799 C1794 1.399 1_565 S
C1799 C1798 1.394 . S
C1799 C1800 1.516 . S
C1800 C1799 1.516 . S
C1800 C1801 1.502 . S
C1800 C1802 1.561 . S
C1800 C1803 1.526 . S
C1801 H1785 0.959 . S
C1801 H1786 0.959 . S
C1801 H1787 0.961 . S
C1801 C1800 1.502 . S
C1802 H1788 0.960 . S
C1802 H1789 0.961 . S
C1802 H1790 0.959 . S
C1802 C1800 1.561 . S
C1803 C1800 1.526 . S
C1803 C1804 1.396 . S
C1803 C1808 1.390 . S
C1804 C1798 1.465 . S
C1804 C1803 1.396 . S
C1804 C1805 1.399 . S
C1805 H1791 0.929 . S
C1805 C1804 1.399 . S
C1805 C1806 1.385 . S
C1806 H1792 0.931 . S
C1806 C1805 1.385 . S
C1806 C1807 1.389 . S
C1807 C1806 1.389 . S
C1807 C1808 1.387 . S
C1808 H1793 0.930 . S
C1808 C1803 1.390 . S
C1808 C1807 1.387 . S
H1809 C1821 0.930 . S
H1810 C1823 0.930 . S
H1811 C1824 0.930 . S
H1812 C1828 0.959 . S
H1813 C1828 0.959 . S
H1814 C1828 0.961 . S
H1815 C1829 0.960 . S
H1816 C1829 0.961 . S
H1817 C1829 0.959 . S
H1818 C1832 0.929 . S
H1819 C1833 0.931 . S
H1820 C1835 0.930 . S
C1821 H1809 0.930 . S
C1821 C1822 1.399 . S
C1821 C1826 1.399 . S
C1822 C1821 1.399 . S
C1822 C1823 1.376 . S
C1823 H1810 0.930 . S
C1823 C1822 1.376 . S
C1823 C1824 1.388 . S
C1824 H1811 0.930 . S
C1824 C1823 1.388 . S
C1824 C1825 1.390 . S
C1825 C1824 1.390 . S
C1825 C1826 1.394 . S
C1825 C1831 1.465 . S
C1826 C1821 1.399 . S
C1826 C1825 1.394 . S
C1826 C1827 1.516 . S
C1827 C1826 1.516 . S
C1827 C1828 1.502 . S
C1827 C1829 1.561 . S
C1827 C1830 1.526 . S
C1828 H1812 0.959 . S
C1828 H1813 0.959 . S
C1828 H1814 0.961 . S
C1828 C1827 1.502 . S
C1829 H1815 0.960 . S
C1829 H1816 0.961 . S
C1829 H1817 0.959 . S
C1829 C1827 1.561 . S
C1830 C1827 1.526 . S
C1830 C1831 1.396 . S
C1830 C1835 1.390 . S
C1831 C1825 1.465 . S
C1831 C1830 1.396 . S
C1831 C1832 1.399 . S
C1832 H1818 0.929 . S
C1832 C1831 1.399 . S
C1832 C1833 1.385 . S
C1833 H1819 0.931 . S
C1833 C1832 1.385 . S
C1833 C1834 1.389 . S
C1834 C1833 1.389 . S
C1834 C1835 1.387 . S
C1835 H1820 0.930 . S
C1835 C1830 1.390 . S
C1835 C1834 1.387 . S
H1836 C1848 0.930 . S
H1837 C1850 0.930 . S
H1838 C1851 0.930 . S
H1839 C1855 0.959 . S
H1840 C1855 0.959 . S
H1841 C1855 0.961 . S
H1842 C1856 0.960 . S
H1843 C1856 0.961 . S
H1844 C1856 0.959 . S
H1845 C1859 0.929 . S
H1846 C1860 0.931 . S
H1847 C1862 0.930 . S
C1848 H1836 0.930 . S
C1848 C1849 1.399 . S
C1848 C1853 1.399 . S
C1849 C1848 1.399 . S
C1849 C1850 1.376 . S
C1850 H1837 0.930 . S
C1850 C1849 1.376 . S
C1850 C1851 1.388 . S
C1851 H1838 0.930 . S
C1851 C1850 1.388 . S
C1851 C1852 1.390 . S
C1852 C1851 1.390 . S
C1852 C1853 1.394 . S
C1852 C1858 1.465 . S
C1853 C1848 1.399 . S
C1853 C1852 1.394 . S
C1853 C1854 1.516 . S
C1854 C1853 1.516 . S
C1854 C1855 1.502 . S
C1854 C1856 1.561 . S
C1854 C1857 1.526 . S
C1855 H1839 0.959 . S
C1855 H1840 0.959 . S
C1855 H1841 0.961 . S
C1855 C1854 1.502 . S
C1856 H1842 0.960 . S
C1856 H1843 0.961 . S
C1856 H1844 0.959 . S
C1856 C1854 1.561 . S
C1857 C1854 1.526 . S
C1857 C1858 1.396 . S
C1857 C1862 1.390 . S
C1858 C1852 1.465 . S
C1858 C1857 1.396 . S
C1858 C1859 1.399 . S
C1859 H1845 0.929 . S
C1859 C1858 1.399 . S
C1859 C1860 1.385 . S
C1860 H1846 0.931 . S
C1860 C1859 1.385 . S
C1860 C1861 1.389 . S
C1861 C1860 1.389 . S
C1861 C1862 1.387 . S
C1862 H1847 0.930 . S
C1862 C1857 1.390 . S
C1862 C1861 1.387 . S
H1863 C1875 0.930 . S
H1864 C1877 0.930 . S
H1865 C1878 0.930 . S
H1866 C1882 0.959 . S
H1867 C1882 0.959 . S
H1868 C1882 0.961 . S
H1869 C1883 0.960 . S
H1870 C1883 0.961 . S
H1871 C1883 0.959 . S
H1872 C1886 0.929 . S
H1873 C1887 0.931 . S
H1874 C1889 0.930 . S
C1875 H1863 0.930 . S
C1875 C1876 1.399 . S
C1875 C1880 1.399 . S
C1876 C1875 1.399 . S
C1876 C1877 1.376 . S
C1877 H1864 0.930 . S
C1877 C1876 1.376 . S
C1877 C1878 1.388 . S
C1878 H1865 0.930 . S
C1878 C1877 1.388 . S
C1878 C1879 1.390 . S
C1879 C1878 1.390 . S
C1879 C1880 1.394 . S
C1879 C1885 1.465 . S
C1880 C1875 1.399 . S
C1880 C1879 1.394 . S
C1880 C1881 1.516 . S
C1881 C1880 1.516 . S
C1881 C1882 1.502 . S
C1881 C1883 1.561 . S
C1881 C1884 1.526 . S
C1882 H1866 0.959 . S
C1882 H1867 0.959 . S
C1882 H1868 0.961 . S
C1882 C1881 1.502 . S
C1883 H1869 0.960 . S
C1883 H1870 0.961 . S
C1883 H1871 0.959 . S
C1883 C1881 1.561 . S
C1884 C1881 1.526 . S
C1884 C1885 1.396 . S
C1884 C1889 1.390 . S
C1885 C1879 1.465 . S
C1885 C1884 1.396 . S
C1885 C1886 1.399 . S
C1886 H1872 0.929 . S
C1886 C1885 1.399 . S
C1886 C1887 1.385 . S
C1887 H1873 0.931 . S
C1887 C1886 1.385 . S
C1887 C1888 1.389 . S
C1888 C1887 1.389 . S
C1888 C1889 1.387 . S
C1889 H1874 0.930 . S
C1889 C1884 1.390 . S
C1889 C1888 1.387 . S
H1890 C1902 0.930 . S
H1891 C1904 0.930 . S
H1892 C1905 0.930 . S
H1893 C1909 0.959 . S
H1894 C1909 0.959 . S
H1895 C1909 0.961 . S
H1896 C1910 0.960 . S
H1897 C1910 0.961 . S
H1898 C1910 0.959 . S
H1899 C1913 0.929 . S
H1900 C1914 0.931 . S
H1901 C1916 0.930 . S
C1902 H1890 0.930 . S
C1902 C1903 1.399 . S
C1902 C1907 1.399 . S
C1903 C1902 1.399 . S
C1903 C1904 1.376 . S
C1904 H1891 0.930 . S
C1904 C1903 1.376 . S
C1904 C1905 1.388 . S
C1905 H1892 0.930 . S
C1905 C1904 1.388 . S
C1905 C1906 1.390 . S
C1906 C1905 1.390 . S
C1906 C1907 1.394 . S
C1906 C1912 1.465 . S
C1907 C1902 1.399 . S
C1907 C1906 1.394 . S
C1907 C1908 1.516 . S
C1908 C1907 1.516 . S
C1908 C1909 1.502 . S
C1908 C1910 1.561 . S
C1908 C1911 1.526 . S
C1909 H1893 0.959 . S
C1909 H1894 0.959 . S
C1909 H1895 0.961 . S
C1909 C1908 1.502 . S
C1910 H1896 0.960 . S
C1910 H1897 0.961 . S
C1910 H1898 0.959 . S
C1910 C1908 1.561 . S
C1911 C1908 1.526 . S
C1911 C1912 1.396 . S
C1911 C1916 1.390 . S
C1912 C1906 1.465 . S
C1912 C1911 1.396 . S
C1912 C1913 1.399 . S
C1913 H1899 0.929 . S
C1913 C1912 1.399 . S
C1913 C1914 1.385 . S
C1914 H1900 0.931 . S
C1914 C1913 1.385 . S
C1914 C1915 1.389 . S
C1915 C1914 1.389 . S
C1915 C1916 1.387 . S
C1916 H1901 0.930 . S
C1916 C1911 1.390 . S
C1916 C1915 1.387 . S
H1917 C1929 0.930 . S
H1918 C1931 0.930 . S
H1919 C1932 0.930 . S
H1920 C1936 0.959 . S
H1921 C1936 0.959 . S
H1922 C1936 0.961 . S
H1923 C1937 0.960 . S
H1924 C1937 0.961 . S
H1925 C1937 0.959 . S
H1926 C1940 0.929 . S
H1927 C1941 0.931 . S
H1928 C1943 0.930 . S
C1929 H1917 0.930 . S
C1929 C1930 1.399 . S
C1929 C1934 1.399 . S
C1930 C1929 1.399 . S
C1930 C1931 1.376 . S
C1931 H1918 0.930 . S
C1931 C1930 1.376 . S
C1931 C1932 1.388 . S
C1932 H1919 0.930 . S
C1932 C1931 1.388 . S
C1932 C1933 1.390 . S
C1933 C1932 1.390 . S
C1933 C1934 1.394 . S
C1933 C1939 1.465 . S
C1934 C1929 1.399 . S
C1934 C1933 1.394 . S
C1934 C1935 1.516 . S
C1935 C1934 1.516 . S
C1935 C1936 1.502 . S
C1935 C1937 1.561 . S
C1935 C1938 1.526 . S
C1936 H1920 0.959 . S
C1936 H1921 0.959 . S
C1936 H1922 0.961 . S
C1936 C1935 1.502 . S
C1937 H1923 0.960 . S
C1937 H1924 0.961 . S
C1937 H1925 0.959 . S
C1937 C1935 1.561 . S
C1938 C1935 1.526 . S
C1938 C1939 1.396 . S
C1938 C1943 1.390 . S
C1939 C1933 1.465 . S
C1939 C1938 1.396 . S
C1939 C1940 1.399 . S
C1940 H1926 0.929 . S
C1940 C1939 1.399 . S
C1940 C1941 1.385 . S
C1941 H1927 0.931 . S
C1941 C1940 1.385 . S
C1941 C1942 1.389 . S
C1942 C1941 1.389 . S
C1942 C1943 1.387 . S
C1943 H1928 0.930 . S
C1943 C1938 1.390 . S
C1943 C1942 1.387 . S
H1944 C1956 0.930 . S
H1945 C1958 0.930 . S
H1946 C1959 0.930 . S
H1947 C1963 0.959 . S
H1948 C1963 0.959 . S
H1949 C1963 0.961 . S
H1950 C1964 0.960 . S
H1951 C1964 0.961 . S
H1952 C1964 0.959 . S
H1953 C1967 0.929 . S
H1954 C1968 0.931 . S
H1955 C1970 0.930 . S
C1956 H1944 0.930 . S
C1956 C1957 1.399 . S
C1956 C1961 1.399 . S
C1957 C1956 1.399 . S
C1957 C1958 1.376 . S
C1958 H1945 0.930 . S
C1958 C1957 1.376 . S
C1958 C1959 1.388 . S
C1959 H1946 0.930 . S
C1959 C1958 1.388 . S
C1959 C1960 1.390 . S
C1960 C1959 1.390 . S
C1960 C1961 1.394 . S
C1960 C1966 1.465 . S
C1961 C1956 1.399 . S
C1961 C1960 1.394 . S
C1961 C1962 1.516 . S
C1962 C1961 1.516 . S
C1962 C1963 1.502 . S
C1962 C1964 1.561 . S
C1962 C1965 1.526 . S
C1963 H1947 0.959 . S
C1963 H1948 0.959 . S
C1963 H1949 0.961 . S
C1963 C1962 1.502 . S
C1964 H1950 0.960 . S
C1964 H1951 0.961 . S
C1964 H1952 0.959 . S
C1964 C1962 1.561 . S
C1965 C1962 1.526 . S
C1965 C1966 1.396 . S
C1965 C1970 1.390 . S
C1966 C1960 1.465 . S
C1966 C1965 1.396 . S
C1966 C1967 1.399 . S
C1967 H1953 0.929 . S
C1967 C1966 1.399 . S
C1967 C1968 1.385 . S
C1968 H1954 0.931 . S
C1968 C1967 1.385 . S
C1968 C1969 1.389 . S
C1969 C1968 1.389 . S
C1969 C1970 1.387 . S
C1970 H1955 0.930 . S
C1970 C1965 1.390 . S
C1970 C1969 1.387 . S
H1971 C1983 0.930 . S
H1972 C1985 0.930 . S
H1973 C1986 0.930 . S
H1974 C1990 0.959 . S
H1975 C1990 0.959 . S
H1976 C1990 0.961 . S
H1977 C1991 0.960 . S
H1978 C1991 0.961 . S
H1979 C1991 0.959 . S
H1980 C1994 0.929 . S
H1981 C1995 0.931 . S
H1982 C1997 0.930 . S
C1983 H1971 0.930 . S
C1983 C1984 1.399 1_565 S
C1983 C1988 1.399 . S
C1984 C1983 1.399 1_545 S
C1984 C1985 1.376 . S
C1985 H1972 0.930 . S
C1985 C1984 1.376 . S
C1985 C1986 1.388 1_545 S
C1986 H1973 0.930 . S
C1986 C1985 1.388 1_565 S
C1986 C1987 1.390 . S
C1987 C1986 1.390 . S
C1987 C1988 1.394 . S
C1987 C1993 1.465 . S
C1988 C1983 1.399 . S
C1988 C1987 1.394 . S
C1988 C1989 1.516 . S
C1989 C1988 1.516 . S
C1989 C1990 1.502 . S
C1989 C1991 1.561 . S
C1989 C1992 1.526 . S
C1990 H1974 0.959 . S
C1990 H1975 0.959 . S
C1990 H1976 0.961 . S
C1990 C1989 1.502 . S
C1991 H1977 0.960 . S
C1991 H1978 0.961 . S
C1991 H1979 0.959 . S
C1991 C1989 1.561 . S
C1992 C1989 1.526 . S
C1992 C1993 1.396 . S
C1992 C1997 1.390 . S
C1993 C1987 1.465 . S
C1993 C1992 1.396 . S
C1993 C1994 1.399 . S
C1994 H1980 0.929 . S
C1994 C1993 1.399 . S
C1994 C1995 1.385 . S
C1995 H1981 0.931 . S
C1995 C1994 1.385 . S
C1995 C1996 1.389 . S
C1996 C1995 1.389 . S
C1996 C1997 1.387 . S
C1997 H1982 0.930 . S
C1997 C1992 1.390 . S
C1997 C1996 1.387 . S
H1998 C2010 0.930 . S
H1999 C2012 0.930 . S
H2000 C2013 0.930 . S
H2001 C2017 0.959 . S
H2002 C2017 0.959 . S
H2003 C2017 0.961 . S
H2004 C2018 0.960 . S
H2005 C2018 0.961 . S
H2006 C2018 0.959 . S
H2007 C2021 0.929 . S
H2008 C2022 0.931 . S
H2009 C2024 0.930 . S
C2010 H1998 0.930 . S
C2010 C2011 1.399 1_455 S
C2010 C2015 1.399 . S
C2011 C2010 1.399 1_655 S
C2011 C2012 1.376 . S
C2012 H1999 0.930 . S
C2012 C2011 1.376 . S
C2012 C2013 1.388 1_655 S
C2013 H2000 0.930 . S
C2013 C2012 1.388 1_455 S
C2013 C2014 1.390 . S
C2014 C2013 1.390 . S
C2014 C2015 1.394 . S
C2014 C2020 1.465 . S
C2015 C2010 1.399 . S
C2015 C2014 1.394 . S
C2015 C2016 1.516 . S
C2016 C2015 1.516 . S
C2016 C2017 1.502 . S
C2016 C2018 1.561 . S
C2016 C2019 1.526 . S
C2017 H2001 0.959 . S
C2017 H2002 0.959 . S
C2017 H2003 0.961 . S
C2017 C2016 1.502 . S
C2018 H2004 0.960 . S
C2018 H2005 0.961 . S
C2018 H2006 0.959 . S
C2018 C2016 1.561 . S
C2019 C2016 1.526 . S
C2019 C2020 1.396 . S
C2019 C2024 1.390 . S
C2020 C2014 1.465 . S
C2020 C2019 1.396 . S
C2020 C2021 1.399 . S
C2021 H2007 0.929 . S
C2021 C2020 1.399 . S
C2021 C2022 1.385 . S
C2022 H2008 0.931 . S
C2022 C2021 1.385 . S
C2022 C2023 1.389 . S
C2023 C2022 1.389 . S
C2023 C2024 1.387 . S
C2024 H2009 0.930 . S
C2024 C2019 1.390 . S
C2024 C2023 1.387 . S
H2025 C2037 0.930 . S
H2026 C2039 0.930 . S
H2027 C2040 0.930 . S
H2028 C2044 0.959 . S
H2029 C2044 0.959 . S
H2030 C2044 0.961 . S
H2031 C2045 0.960 . S
H2032 C2045 0.961 . S
H2033 C2045 0.959 . S
H2034 C2048 0.929 . S
H2035 C2049 0.931 . S
H2036 C2051 0.930 . S
C2037 H2025 0.930 . S
C2037 C2038 1.399 . S
C2037 C2042 1.399 . S
C2038 C2037 1.399 . S
C2038 C2039 1.376 . S
C2039 H2026 0.930 . S
C2039 C2038 1.376 . S
C2039 C2040 1.388 . S
C2040 H2027 0.930 . S
C2040 C2039 1.388 . S
C2040 C2041 1.390 . S
C2041 C2040 1.390 . S
C2041 C2042 1.394 . S
C2041 C2047 1.465 . S
C2042 C2037 1.399 . S
C2042 C2041 1.394 . S
C2042 C2043 1.516 . S
C2043 C2042 1.516 . S
C2043 C2044 1.502 . S
C2043 C2045 1.561 . S
C2043 C2046 1.526 . S
C2044 H2028 0.959 . S
C2044 H2029 0.959 . S
C2044 H2030 0.961 . S
C2044 C2043 1.502 . S
C2045 H2031 0.960 . S
C2045 H2032 0.961 . S
C2045 H2033 0.959 . S
C2045 C2043 1.561 . S
C2046 C2043 1.526 . S
C2046 C2047 1.396 . S
C2046 C2051 1.390 . S
C2047 C2041 1.465 . S
C2047 C2046 1.396 . S
C2047 C2048 1.399 . S
C2048 H2034 0.929 . S
C2048 C2047 1.399 . S
C2048 C2049 1.385 . S
C2049 H2035 0.931 . S
C2049 C2048 1.385 . S
C2049 C2050 1.389 . S
C2050 C2049 1.389 . S
C2050 C2051 1.387 . S
C2051 H2036 0.930 . S
C2051 C2046 1.390 . S
C2051 C2050 1.387 . S
H2052 C2064 0.930 . S
H2053 C2066 0.930 . S
H2054 C2067 0.930 . S
H2055 C2071 0.959 . S
H2056 C2071 0.959 . S
H2057 C2071 0.961 . S
H2058 C2072 0.960 . S
H2059 C2072 0.961 . S
H2060 C2072 0.959 . S
H2061 C2075 0.929 . S
H2062 C2076 0.931 . S
H2063 C2078 0.930 . S
C2064 H2052 0.930 . S
C2064 C2065 1.399 . S
C2064 C2069 1.399 . S
C2065 C2064 1.399 . S
C2065 C2066 1.376 . S
C2066 H2053 0.930 . S
C2066 C2065 1.376 . S
C2066 C2067 1.388 . S
C2067 H2054 0.930 . S
C2067 C2066 1.388 . S
C2067 C2068 1.390 . S
C2068 C2067 1.390 . S
C2068 C2069 1.394 . S
C2068 C2074 1.465 . S
C2069 C2064 1.399 . S
C2069 C2068 1.394 . S
C2069 C2070 1.516 . S
C2070 C2069 1.516 . S
C2070 C2071 1.502 . S
C2070 C2072 1.561 . S
C2070 C2073 1.526 . S
C2071 H2055 0.959 . S
C2071 H2056 0.959 . S
C2071 H2057 0.961 . S
C2071 C2070 1.502 . S
C2072 H2058 0.960 . S
C2072 H2059 0.961 . S
C2072 H2060 0.959 . S
C2072 C2070 1.561 . S
C2073 C2070 1.526 . S
C2073 C2074 1.396 . S
C2073 C2078 1.390 . S
C2074 C2068 1.465 . S
C2074 C2073 1.396 . S
C2074 C2075 1.399 . S
C2075 H2061 0.929 . S
C2075 C2074 1.399 . S
C2075 C2076 1.385 . S
C2076 H2062 0.931 . S
C2076 C2075 1.385 . S
C2076 C2077 1.389 . S
C2077 C2076 1.389 . S
C2077 C2078 1.387 . S
C2078 H2063 0.930 . S
C2078 C2073 1.390 . S
C2078 C2077 1.387 . S
H2079 C2091 0.930 . S
H2080 C2093 0.930 . S
H2081 C2094 0.930 . S
H2082 C2098 0.959 . S
H2083 C2098 0.959 . S
H2084 C2098 0.961 . S
H2085 C2099 0.960 . S
H2086 C2099 0.961 . S
H2087 C2099 0.959 . S
H2088 C2102 0.929 . S
H2089 C2103 0.931 . S
H2090 C2105 0.930 . S
C2091 H2079 0.930 . S
C2091 C2092 1.399 . S
C2091 C2096 1.399 . S
C2092 C2091 1.399 . S
C2092 C2093 1.376 . S
C2093 H2080 0.930 . S
C2093 C2092 1.376 . S
C2093 C2094 1.388 . S
C2094 H2081 0.930 . S
C2094 C2093 1.388 . S
C2094 C2095 1.390 . S
C2095 C2094 1.390 . S
C2095 C2096 1.394 . S
C2095 C2101 1.465 . S
C2096 C2091 1.399 . S
C2096 C2095 1.394 . S
C2096 C2097 1.516 . S
C2097 C2096 1.516 . S
C2097 C2098 1.502 . S
C2097 C2099 1.561 . S
C2097 C2100 1.526 . S
C2098 H2082 0.959 . S
C2098 H2083 0.959 . S
C2098 H2084 0.961 . S
C2098 C2097 1.502 . S
C2099 H2085 0.960 . S
C2099 H2086 0.961 . S
C2099 H2087 0.959 . S
C2099 C2097 1.561 . S
C2100 C2097 1.526 . S
C2100 C2101 1.396 . S
C2100 C2105 1.390 . S
C2101 C2095 1.465 . S
C2101 C2100 1.396 . S
C2101 C2102 1.399 . S
C2102 H2088 0.929 . S
C2102 C2101 1.399 . S
C2102 C2103 1.385 . S
C2103 H2089 0.931 . S
C2103 C2102 1.385 . S
C2103 C2104 1.389 . S
C2104 C2103 1.389 . S
C2104 C2105 1.387 . S
C2105 H2090 0.930 . S
C2105 C2100 1.390 . S
C2105 C2104 1.387 . S
H2106 C2118 0.930 . S
H2107 C2120 0.930 . S
H2108 C2121 0.930 . S
H2109 C2125 0.959 . S
H2110 C2125 0.959 . S
H2111 C2125 0.961 . S
H2112 C2126 0.960 . S
H2113 C2126 0.961 . S
H2114 C2126 0.959 . S
H2115 C2129 0.929 . S
H2116 C2130 0.931 . S
H2117 C2132 0.930 . S
C2118 H2106 0.930 . S
C2118 C2119 1.399 . S
C2118 C2123 1.399 . S
C2119 C2118 1.399 . S
C2119 C2120 1.376 . S
C2120 H2107 0.930 . S
C2120 C2119 1.376 . S
C2120 C2121 1.388 . S
C2121 H2108 0.930 . S
C2121 C2120 1.388 . S
C2121 C2122 1.390 . S
C2122 C2121 1.390 . S
C2122 C2123 1.394 . S
C2122 C2128 1.465 . S
C2123 C2118 1.399 . S
C2123 C2122 1.394 . S
C2123 C2124 1.516 . S
C2124 C2123 1.516 . S
C2124 C2125 1.502 . S
C2124 C2126 1.561 . S
C2124 C2127 1.526 . S
C2125 H2109 0.959 . S
C2125 H2110 0.959 . S
C2125 H2111 0.961 . S
C2125 C2124 1.502 . S
C2126 H2112 0.960 . S
C2126 H2113 0.961 . S
C2126 H2114 0.959 . S
C2126 C2124 1.561 . S
C2127 C2124 1.526 . S
C2127 C2128 1.396 . S
C2127 C2132 1.390 . S
C2128 C2122 1.465 . S
C2128 C2127 1.396 . S
C2128 C2129 1.399 . S
C2129 H2115 0.929 . S
C2129 C2128 1.399 . S
C2129 C2130 1.385 . S
C2130 H2116 0.931 . S
C2130 C2129 1.385 . S
C2130 C2131 1.389 . S
C2131 C2130 1.389 . S
C2131 C2132 1.387 . S
C2132 H2117 0.930 . S
C2132 C2127 1.390 . S
C2132 C2131 1.387 . S
H2133 C2145 0.930 . S
H2134 C2147 0.921 1_565 S
H2135 C2148 0.930 . S
H2136 C2152 0.959 . S
H2137 C2152 0.959 . S
H2138 C2152 0.961 . S
H2139 C2153 0.960 . S
H2140 C2153 0.961 . S
H2141 C2153 0.959 . S
H2142 C2156 0.929 . S
H2143 C2157 0.931 . S
H2144 C2159 0.930 . S
C2145 H2133 0.930 . S
C2145 C2146 1.399 . S
C2145 C2150 1.399 1_565 S
C2146 C2145 1.399 . S
C2146 C2147 1.368 1_565 S
C2147 H2134 0.921 1_545 S
C2147 C2146 1.368 1_545 S
C2147 C2148 1.407 . S
C2148 H2135 0.930 . S
C2148 C2147 1.407 . S
C2148 C2149 1.390 . S
C2149 C2148 1.390 . S
C2149 C2150 1.394 . S
C2149 C2155 1.465 . S
C2150 C2145 1.399 1_545 S
C2150 C2149 1.394 . S
C2150 C2151 1.516 . S
C2151 C2150 1.516 . S
C2151 C2152 1.502 . S
C2151 C2153 1.561 . S
C2151 C2154 1.526 . S
C2152 H2136 0.959 . S
C2152 H2137 0.959 . S
C2152 H2138 0.961 . S
C2152 C2151 1.502 . S
C2153 H2139 0.960 . S
C2153 H2140 0.961 . S
C2153 H2141 0.959 . S
C2153 C2151 1.561 . S
C2154 C2151 1.526 . S
C2154 C2155 1.396 . S
C2154 C2159 1.390 . S
C2155 C2149 1.465 . S
C2155 C2154 1.396 . S
C2155 C2156 1.399 . S
C2156 H2142 0.929 . S
C2156 C2155 1.399 . S
C2156 C2157 1.385 . S
C2157 H2143 0.931 . S
C2157 C2156 1.385 . S
C2157 C2158 1.389 . S
C2158 C2157 1.389 . S
C2158 C2159 1.387 . S
C2159 H2144 0.930 . S
C2159 C2154 1.390 . S
C2159 C2158 1.387 . S
H2160 C2172 0.930 . S
H2161 C2174 0.930 . S
H2162 C2175 0.930 . S
H2163 C2179 0.959 . S
H2164 C2179 0.959 . S
H2165 C2179 0.961 . S
H2166 C2180 0.960 . S
H2167 C2180 0.961 . S
H2168 C2180 0.959 . S
H2169 C2183 0.929 . S
H2170 C2184 0.931 . S
H2171 C2186 0.930 . S
C2172 H2160 0.930 . S
C2172 C2173 1.399 1_655 S
C2172 C2177 1.399 . S
C2173 C2172 1.399 1_455 S
C2173 C2174 1.376 . S
C2174 H2161 0.930 . S
C2174 C2173 1.376 . S
C2174 C2175 1.388 1_455 S
C2175 H2162 0.930 . S
C2175 C2174 1.388 1_655 S
C2175 C2176 1.390 . S
C2176 C2175 1.390 . S
C2176 C2177 1.394 . S
C2176 C2182 1.465 . S
C2177 C2172 1.399 . S
C2177 C2176 1.394 . S
C2177 C2178 1.516 . S
C2178 C2177 1.516 . S
C2178 C2179 1.502 . S
C2178 C2180 1.561 . S
C2178 C2181 1.526 . S
C2179 H2163 0.959 . S
C2179 H2164 0.959 . S
C2179 H2165 0.961 . S
C2179 C2178 1.502 . S
C2180 H2166 0.960 . S
C2180 H2167 0.961 . S
C2180 H2168 0.959 . S
C2180 C2178 1.561 . S
C2181 C2178 1.526 . S
C2181 C2182 1.396 . S
C2181 C2186 1.390 . S
C2182 C2176 1.465 . S
C2182 C2181 1.396 . S
C2182 C2183 1.399 . S
C2183 H2169 0.929 . S
C2183 C2182 1.399 . S
C2183 C2184 1.385 . S
C2184 H2170 0.931 . S
C2184 C2183 1.385 . S
C2184 C2185 1.389 . S
C2185 C2184 1.389 . S
C2185 C2186 1.387 . S
C2186 H2171 0.930 . S
C2186 C2181 1.390 . S
C2186 C2185 1.387 . S
H2187 C2199 0.930 . S
H2188 C2201 0.930 . S
H2189 C2202 0.930 . S
H2190 C2206 0.959 . S
H2191 C2206 0.959 . S
H2192 C2206 0.961 . S
H2193 C2207 0.960 . S
H2194 C2207 0.961 . S
H2195 C2207 0.959 . S
H2196 C2210 0.929 . S
H2197 C2211 0.931 . S
H2198 C2213 0.930 . S
C2199 H2187 0.930 . S
C2199 C2200 1.399 . S
C2199 C2204 1.399 . S
C2200 C2199 1.399 . S
C2200 C2201 1.376 . S
C2201 H2188 0.930 . S
C2201 C2200 1.376 . S
C2201 C2202 1.388 . S
C2202 H2189 0.930 . S
C2202 C2201 1.388 . S
C2202 C2203 1.390 . S
C2203 C2202 1.390 . S
C2203 C2204 1.394 . S
C2203 C2209 1.465 . S
C2204 C2199 1.399 . S
C2204 C2203 1.394 . S
C2204 C2205 1.516 . S
C2205 C2204 1.516 . S
C2205 C2206 1.502 . S
C2205 C2207 1.561 . S
C2205 C2208 1.526 . S
C2206 H2190 0.959 . S
C2206 H2191 0.959 . S
C2206 H2192 0.961 . S
C2206 C2205 1.502 . S
C2207 H2193 0.960 . S
C2207 H2194 0.961 . S
C2207 H2195 0.959 . S
C2207 C2205 1.561 . S
C2208 C2205 1.526 . S
C2208 C2209 1.396 . S
C2208 C2213 1.390 . S
C2209 C2203 1.465 . S
C2209 C2208 1.396 . S
C2209 C2210 1.399 . S
C2210 H2196 0.929 . S
C2210 C2209 1.399 . S
C2210 C2211 1.385 . S
C2211 H2197 0.931 . S
C2211 C2210 1.385 . S
C2211 C2212 1.389 . S
C2212 C2211 1.389 . S
C2212 C2213 1.387 . S
C2213 H2198 0.930 . S
C2213 C2208 1.390 . S
C2213 C2212 1.387 . S
H2214 C2226 0.930 . S
H2215 C2228 0.930 . S
H2216 C2229 0.930 . S
H2217 C2233 0.959 . S
H2218 C2233 0.959 . S
H2219 C2233 0.961 . S
H2220 C2234 0.960 . S
H2221 C2234 0.961 . S
H2222 C2234 0.959 . S
H2223 C2237 0.929 . S
H2224 C2238 0.931 . S
H2225 C2240 0.930 . S
C2226 H2214 0.930 . S
C2226 C2227 1.399 1_655 S
C2226 C2231 1.399 . S
C2227 C2226 1.399 1_455 S
C2227 C2228 1.376 . S
C2228 H2215 0.930 . S
C2228 C2227 1.376 . S
C2228 C2229 1.388 1_455 S
C2229 H2216 0.930 . S
C2229 C2228 1.388 1_655 S
C2229 C2230 1.390 . S
C2230 C2229 1.390 . S
C2230 C2231 1.394 . S
C2230 C2236 1.465 . S
C2231 C2226 1.399 . S
C2231 C2230 1.394 . S
C2231 C2232 1.516 . S
C2232 C2231 1.516 . S
C2232 C2233 1.502 . S
C2232 C2234 1.561 . S
C2232 C2235 1.526 . S
C2233 H2217 0.959 . S
C2233 H2218 0.959 . S
C2233 H2219 0.961 . S
C2233 C2232 1.502 . S
C2234 H2220 0.960 . S
C2234 H2221 0.961 . S
C2234 H2222 0.959 . S
C2234 C2232 1.561 . S
C2235 C2232 1.526 . S
C2235 C2236 1.396 . S
C2235 C2240 1.390 . S
C2236 C2230 1.465 . S
C2236 C2235 1.396 . S
C2236 C2237 1.399 . S
C2237 H2223 0.929 . S
C2237 C2236 1.399 . S
C2237 C2238 1.385 . S
C2238 H2224 0.931 . S
C2238 C2237 1.385 . S
C2238 C2239 1.389 . S
C2239 C2238 1.389 . S
C2239 C2240 1.387 . S
C2240 H2225 0.930 . S
C2240 C2235 1.390 . S
C2240 C2239 1.387 . S
H2241 C2253 0.930 . S
H2242 C2255 0.930 . S
H2243 C2256 0.930 . S
H2244 C2260 0.959 . S
H2245 C2260 0.959 . S
H2246 C2260 0.961 . S
H2247 C2261 0.960 . S
H2248 C2261 0.961 . S
H2249 C2261 0.959 . S
H2250 C2264 0.929 . S
H2251 C2265 0.931 . S
H2252 C2267 0.930 . S
C2253 H2241 0.930 . S
C2253 C2254 1.399 . S
C2253 C2258 1.399 . S
C2254 C2253 1.399 . S
C2254 C2255 1.376 . S
C2255 H2242 0.930 . S
C2255 C2254 1.376 . S
C2255 C2256 1.388 . S
C2256 H2243 0.930 . S
C2256 C2255 1.388 . S
C2256 C2257 1.390 . S
C2257 C2256 1.390 . S
C2257 C2258 1.394 . S
C2257 C2263 1.465 . S
C2258 C2253 1.399 . S
C2258 C2257 1.394 . S
C2258 C2259 1.516 . S
C2259 C2258 1.516 . S
C2259 C2260 1.502 . S
C2259 C2261 1.561 . S
C2259 C2262 1.526 . S
C2260 H2244 0.959 . S
C2260 H2245 0.959 . S
C2260 H2246 0.961 . S
C2260 C2259 1.502 . S
C2261 H2247 0.960 . S
C2261 H2248 0.961 . S
C2261 H2249 0.959 . S
C2261 C2259 1.561 . S
C2262 C2259 1.526 . S
C2262 C2263 1.396 . S
C2262 C2267 1.390 . S
C2263 C2257 1.465 . S
C2263 C2262 1.396 . S
C2263 C2264 1.399 . S
C2264 H2250 0.929 . S
C2264 C2263 1.399 . S
C2264 C2265 1.385 . S
C2265 H2251 0.931 . S
C2265 C2264 1.385 . S
C2265 C2266 1.389 . S
C2266 C2265 1.389 . S
C2266 C2267 1.387 . S
C2267 H2252 0.930 . S
C2267 C2262 1.390 . S
C2267 C2266 1.387 . S
H2268 C2280 0.930 . S
H2269 C2282 0.950 . S
H2270 C2283 0.930 . S
H2271 C2287 0.959 . S
H2272 C2287 0.959 . S
H2273 C2287 0.961 . S
H2274 C2288 0.960 . S
H2275 C2288 0.961 . S
H2276 C2288 0.959 . S
H2277 C2291 0.929 . S
H2278 C2292 0.931 . S
H2279 C2294 0.930 . S
C2280 H2268 0.930 . S
C2280 C2281 1.399 . S
C2280 C2285 1.399 1_565 S
C2281 C2280 1.399 . S
C2281 C2282 1.412 . S
C2282 H2269 0.950 . S
C2282 C2281 1.412 . S
C2282 C2283 1.336 1_565 S
C2283 H2270 0.930 . S
C2283 C2282 1.336 1_545 S
C2283 C2284 1.390 . S
C2284 C2283 1.390 . S
C2284 C2285 1.394 . S
C2284 C2290 1.465 . S
C2285 C2280 1.399 1_545 S
C2285 C2284 1.394 . S
C2285 C2286 1.516 . S
C2286 C2285 1.516 . S
C2286 C2287 1.502 . S
C2286 C2288 1.561 . S
C2286 C2289 1.526 . S
C2287 H2271 0.959 . S
C2287 H2272 0.959 . S
C2287 H2273 0.961 . S
C2287 C2286 1.502 . S
C2288 H2274 0.960 . S
C2288 H2275 0.961 . S
C2288 H2276 0.959 . S
C2288 C2286 1.561 . S
C2289 C2286 1.526 . S
C2289 C2290 1.396 . S
C2289 C2294 1.390 . S
C2290 C2284 1.465 . S
C2290 C2289 1.396 . S
C2290 C2291 1.399 . S
C2291 H2277 0.929 . S
C2291 C2290 1.399 . S
C2291 C2292 1.385 . S
C2292 H2278 0.931 . S
C2292 C2291 1.385 . S
C2292 C2293 1.389 . S
C2293 C2292 1.389 . S
C2293 C2294 1.387 . S
C2294 H2279 0.930 . S
C2294 C2289 1.390 . S
C2294 C2293 1.387 . S
H2295 C2307 0.930 . S
H2296 C2309 0.930 . S
H2297 C2310 0.930 . S
H2298 C2314 0.959 . S
H2299 C2314 0.959 . S
H2300 C2314 0.961 . S
H2301 C2315 0.960 . S
H2302 C2315 0.961 . S
H2303 C2315 0.959 . S
H2304 C2318 0.929 . S
H2305 C2319 0.931 . S
H2306 C2321 0.930 . S
C2307 H2295 0.930 . S
C2307 C2308 1.399 . S
C2307 C2312 1.399 . S
C2308 C2307 1.399 . S
C2308 C2309 1.376 . S
C2309 H2296 0.930 . S
C2309 C2308 1.376 . S
C2309 C2310 1.388 . S
C2310 H2297 0.930 . S
C2310 C2309 1.388 . S
C2310 C2311 1.390 . S
C2311 C2310 1.390 . S
C2311 C2312 1.394 . S
C2311 C2317 1.465 . S
C2312 C2307 1.399 . S
C2312 C2311 1.394 . S
C2312 C2313 1.516 . S
C2313 C2312 1.516 . S
C2313 C2314 1.502 . S
C2313 C2315 1.561 . S
C2313 C2316 1.526 . S
C2314 H2298 0.959 . S
C2314 H2299 0.959 . S
C2314 H2300 0.961 . S
C2314 C2313 1.502 . S
C2315 H2301 0.960 . S
C2315 H2302 0.961 . S
C2315 H2303 0.959 . S
C2315 C2313 1.561 . S
C2316 C2313 1.526 . S
C2316 C2317 1.396 . S
C2316 C2321 1.390 . S
C2317 C2311 1.465 . S
C2317 C2316 1.396 . S
C2317 C2318 1.399 . S
C2318 H2304 0.929 . S
C2318 C2317 1.399 . S
C2318 C2319 1.385 . S
C2319 H2305 0.931 . S
C2319 C2318 1.385 . S
C2319 C2320 1.389 . S
C2320 C2319 1.389 . S
C2320 C2321 1.387 . S
C2321 H2306 0.930 . S
C2321 C2316 1.390 . S
C2321 C2320 1.387 . S
H2322 C2334 0.930 . S
H2323 C2336 0.930 . S
H2324 C2337 0.930 . S
H2325 C2341 0.959 . S
H2326 C2341 0.959 . S
H2327 C2341 0.961 . S
H2328 C2342 0.960 . S
H2329 C2342 0.961 . S
H2330 C2342 0.959 . S
H2331 C2345 0.929 . S
H2332 C2346 0.931 . S
H2333 C2348 0.930 . S
C2334 H2322 0.930 . S
C2334 C2335 1.399 . S
C2334 C2339 1.399 . S
C2335 C2334 1.399 . S
C2335 C2336 1.376 . S
C2336 H2323 0.930 . S
C2336 C2335 1.376 . S
C2336 C2337 1.388 . S
C2337 H2324 0.930 . S
C2337 C2336 1.388 . S
C2337 C2338 1.390 . S
C2338 C2337 1.390 . S
C2338 C2339 1.394 . S
C2338 C2344 1.465 . S
C2339 C2334 1.399 . S
C2339 C2338 1.394 . S
C2339 C2340 1.516 . S
C2340 C2339 1.516 . S
C2340 C2341 1.502 . S
C2340 C2342 1.561 . S
C2340 C2343 1.526 . S
C2341 H2325 0.959 . S
C2341 H2326 0.959 . S
C2341 H2327 0.961 . S
C2341 C2340 1.502 . S
C2342 H2328 0.960 . S
C2342 H2329 0.961 . S
C2342 H2330 0.959 . S
C2342 C2340 1.561 . S
C2343 C2340 1.526 . S
C2343 C2344 1.396 . S
C2343 C2348 1.390 . S
C2344 C2338 1.465 . S
C2344 C2343 1.396 . S
C2344 C2345 1.399 . S
C2345 H2331 0.929 . S
C2345 C2344 1.399 . S
C2345 C2346 1.385 . S
C2346 H2332 0.931 . S
C2346 C2345 1.385 . S
C2346 C2347 1.389 . S
C2347 C2346 1.389 . S
C2347 C2348 1.387 . S
C2348 H2333 0.930 . S
C2348 C2343 1.390 . S
C2348 C2347 1.387 . S
H2349 C2361 0.930 . S
H2350 C2363 0.930 . S
H2351 C2364 0.930 . S
H2352 C2368 0.959 . S
H2353 C2368 0.959 . S
H2354 C2368 0.961 . S
H2355 C2369 0.960 . S
H2356 C2369 0.961 . S
H2357 C2369 0.959 . S
H2358 C2372 0.929 . S
H2359 C2373 0.931 . S
H2360 C2375 0.930 . S
C2361 H2349 0.930 . S
C2361 C2362 1.399 . S
C2361 C2366 1.399 . S
C2362 C2361 1.399 . S
C2362 C2363 1.376 . S
C2363 H2350 0.930 . S
C2363 C2362 1.376 . S
C2363 C2364 1.388 . S
C2364 H2351 0.930 . S
C2364 C2363 1.388 . S
C2364 C2365 1.390 . S
C2365 C2364 1.390 . S
C2365 C2366 1.394 . S
C2365 C2371 1.465 . S
C2366 C2361 1.399 . S
C2366 C2365 1.394 . S
C2366 C2367 1.516 . S
C2367 C2366 1.516 . S
C2367 C2368 1.502 . S
C2367 C2369 1.561 . S
C2367 C2370 1.526 . S
C2368 H2352 0.959 . S
C2368 H2353 0.959 . S
C2368 H2354 0.961 . S
C2368 C2367 1.502 . S
C2369 H2355 0.960 . S
C2369 H2356 0.961 . S
C2369 H2357 0.959 . S
C2369 C2367 1.561 . S
C2370 C2367 1.526 . S
C2370 C2371 1.396 . S
C2370 C2375 1.390 . S
C2371 C2365 1.465 . S
C2371 C2370 1.396 . S
C2371 C2372 1.399 . S
C2372 H2358 0.929 . S
C2372 C2371 1.399 . S
C2372 C2373 1.385 . S
C2373 H2359 0.931 . S
C2373 C2372 1.385 . S
C2373 C2374 1.389 . S
C2374 C2373 1.389 . S
C2374 C2375 1.387 . S
C2375 H2360 0.930 . S
C2375 C2370 1.390 . S
C2375 C2374 1.387 . S
H2376 C2388 0.930 . S
H2377 C2390 0.930 . S
H2378 C2391 0.930 . S
H2379 C2395 0.959 . S
H2380 C2395 0.959 1_545 S
H2381 C2395 0.961 . S
H2382 C2396 0.960 . S
H2383 C2396 0.961 . S
H2384 C2396 0.959 1_565 S
H2385 C2399 0.929 . S
H2386 C2400 0.931 . S
H2387 C2402 0.903 1_545 S
C2388 H2376 0.930 . S
C2388 C2389 1.399 . S
C2388 C2393 1.399 . S
C2389 C2388 1.399 . S
C2389 C2390 1.376 . S
C2390 H2377 0.930 . S
C2390 C2389 1.376 . S
C2390 C2391 1.388 . S
C2391 H2378 0.930 . S
C2391 C2390 1.388 . S
C2391 C2392 1.390 . S
C2392 C2391 1.390 . S
C2392 C2393 1.394 . S
C2392 C2398 1.465 . S
C2393 C2388 1.399 . S
C2393 C2392 1.394 . S
C2393 C2394 1.516 . S
C2394 C2393 1.516 . S
C2394 C2395 1.502 . S
C2394 C2396 1.561 1_565 S
C2394 C2397 1.526 . S
C2395 H2379 0.959 . S
C2395 H2380 0.959 1_565 S
C2395 H2381 0.961 . S
C2395 C2394 1.502 . S
C2396 H2382 0.960 . S
C2396 H2383 0.961 . S
C2396 H2384 0.959 1_545 S
C2396 C2394 1.561 1_545 S
C2397 C2394 1.526 . S
C2397 C2398 1.396 . S
C2397 C2402 1.390 . S
C2398 C2392 1.465 . S
C2398 C2397 1.396 . S
C2398 C2399 1.399 . S
C2399 H2385 0.929 . S
C2399 C2398 1.399 . S
C2399 C2400 1.385 . S
C2400 H2386 0.931 . S
C2400 C2399 1.385 . S
C2400 C2401 1.389 . S
C2401 C2400 1.389 . S
C2401 C2402 1.387 . S
C2402 H2387 0.903 1_565 S
C2402 C2397 1.390 . S
C2402 C2401 1.387 . S
H2403 C2415 0.930 . S
H2404 C2417 0.930 . S
H2405 C2418 0.930 . S
H2406 C2422 0.959 . S
H2407 C2422 0.959 . S
H2408 C2422 0.961 . S
H2409 C2423 0.960 . S
H2410 C2423 0.961 1_655 S
H2411 C2423 0.959 1_655 S
H2412 C2426 0.929 . S
H2413 C2427 0.931 . S
H2414 C2429 0.930 . S
C2415 H2403 0.930 . S
C2415 C2416 1.399 . S
C2415 C2420 1.399 . S
C2416 C2415 1.399 . S
C2416 C2417 1.376 . S
C2417 H2404 0.930 . S
C2417 C2416 1.376 . S
C2417 C2418 1.388 . S
C2418 H2405 0.930 . S
C2418 C2417 1.388 . S
C2418 C2419 1.390 . S
C2419 C2418 1.390 . S
C2419 C2420 1.394 . S
C2419 C2425 1.465 . S
C2420 C2415 1.399 . S
C2420 C2419 1.394 . S
C2420 C2421 1.516 . S
C2421 C2420 1.516 . S
C2421 C2422 1.502 . S
C2421 C2423 1.561 . S
C2421 C2424 1.526 . S
C2422 H2406 0.959 . S
C2422 H2407 0.959 . S
C2422 H2408 0.961 . S
C2422 C2421 1.502 . S
C2423 H2409 0.960 . S
C2423 H2410 0.961 1_455 S
C2423 H2411 0.959 1_455 S
C2423 C2421 1.561 . S
C2424 C2421 1.526 . S
C2424 C2425 1.396 . S
C2424 C2429 1.390 . S
C2425 C2419 1.465 . S
C2425 C2424 1.396 . S
C2425 C2426 1.399 . S
C2426 H2412 0.929 . S
C2426 C2425 1.399 . S
C2426 C2427 1.385 . S
C2427 H2413 0.931 . S
C2427 C2426 1.385 . S
C2427 C2428 1.389 . S
C2428 C2427 1.389 . S
C2428 C2429 1.387 . S
C2429 H2414 0.930 . S
C2429 C2424 1.390 . S
C2429 C2428 1.387 . S
H2430 C2442 0.930 . S
H2431 C2444 0.930 . S
H2432 C2445 0.930 . S
H2433 C2449 0.959 . S
H2434 C2449 0.959 . S
H2435 C2449 0.961 . S
H2436 C2450 0.960 . S
H2437 C2450 0.961 . S
H2438 C2450 0.959 . S
H2439 C2453 0.929 . S
H2440 C2454 0.931 . S
H2441 C2456 0.930 . S
C2442 H2430 0.930 . S
C2442 C2443 1.399 . S
C2442 C2447 1.399 . S
C2443 C2442 1.399 . S
C2443 C2444 1.376 . S
C2444 H2431 0.930 . S
C2444 C2443 1.376 . S
C2444 C2445 1.388 . S
C2445 H2432 0.930 . S
C2445 C2444 1.388 . S
C2445 C2446 1.390 . S
C2446 C2445 1.390 . S
C2446 C2447 1.394 . S
C2446 C2452 1.465 . S
C2447 C2442 1.399 . S
C2447 C2446 1.394 . S
C2447 C2448 1.516 . S
C2448 C2447 1.516 . S
C2448 C2449 1.502 . S
C2448 C2450 1.561 . S
C2448 C2451 1.526 . S
C2449 H2433 0.959 . S
C2449 H2434 0.959 . S
C2449 H2435 0.961 . S
C2449 C2448 1.502 . S
C2450 H2436 0.960 . S
C2450 H2437 0.961 . S
C2450 H2438 0.959 . S
C2450 C2448 1.561 . S
C2451 C2448 1.526 . S
C2451 C2452 1.396 . S
C2451 C2456 1.390 . S
C2452 C2446 1.465 . S
C2452 C2451 1.396 . S
C2452 C2453 1.399 . S
C2453 H2439 0.929 . S
C2453 C2452 1.399 . S
C2453 C2454 1.385 . S
C2454 H2440 0.931 . S
C2454 C2453 1.385 . S
C2454 C2455 1.389 . S
C2455 C2454 1.389 . S
C2455 C2456 1.387 . S
C2456 H2441 0.930 . S
C2456 C2451 1.390 . S
C2456 C2455 1.387 . S
H2457 C2469 0.930 . S
H2458 C2471 0.930 . S
H2459 C2472 0.930 . S
H2460 C2476 0.967 . S
H2461 C2476 0.959 . S
H2462 C2476 0.959 . S
H2463 C2477 0.960 . S
H2464 C2477 0.961 . S
H2465 C2477 0.959 . S
H2466 C2480 0.929 . S
H2467 C2481 0.931 . S
H2468 C2483 0.930 . S
C2469 H2457 0.930 . S
C2469 C2470 1.399 . S
C2469 C2474 1.399 . S
C2470 C2469 1.399 . S
C2470 C2471 1.376 . S
C2471 H2458 0.930 . S
C2471 C2470 1.376 . S
C2471 C2472 1.388 . S
C2472 H2459 0.930 . S
C2472 C2471 1.388 . S
C2472 C2473 1.390 . S
C2473 C2472 1.390 . S
C2473 C2474 1.394 . S
C2473 C2479 1.465 . S
C2474 C2469 1.399 . S
C2474 C2473 1.394 . S
C2474 C2475 1.516 . S
C2475 C2474 1.516 . S
C2475 C2476 1.496 1_655 S
C2475 C2477 1.561 . S
C2475 C2478 1.526 . S
C2476 H2460 0.967 . S
C2476 H2461 0.959 . S
C2476 H2462 0.959 . S
C2476 C2475 1.496 1_455 S
C2477 H2463 0.960 . S
C2477 H2464 0.961 . S
C2477 H2465 0.959 . S
C2477 C2475 1.561 . S
C2478 C2475 1.526 . S
C2478 C2479 1.396 . S
C2478 C2483 1.390 . S
C2479 C2473 1.465 . S
C2479 C2478 1.396 . S
C2479 C2480 1.399 . S
C2480 H2466 0.929 . S
C2480 C2479 1.399 . S
C2480 C2481 1.385 . S
C2481 H2467 0.931 . S
C2481 C2480 1.385 . S
C2481 C2482 1.389 . S
C2482 C2481 1.389 . S
C2482 C2483 1.387 . S
C2483 H2468 0.930 . S
C2483 C2478 1.390 . S
C2483 C2482 1.387 . S
H2484 C2496 0.930 . S
H2485 C2498 0.930 . S
H2486 C2499 0.930 . S
H2487 C2503 0.959 . S
H2488 C2503 0.959 . S
H2489 C2503 0.961 . S
H2490 C2504 0.960 . S
H2491 C2504 0.961 . S
H2492 C2504 0.959 . S
H2493 C2507 0.929 . S
H2494 C2508 0.931 . S
H2495 C2510 0.930 . S
C2496 H2484 0.930 . S
C2496 C2497 1.399 . S
C2496 C2501 1.399 . S
C2497 C2496 1.399 . S
C2497 C2498 1.376 . S
C2498 H2485 0.930 . S
C2498 C2497 1.376 . S
C2498 C2499 1.388 . S
C2499 H2486 0.930 . S
C2499 C2498 1.388 . S
C2499 C2500 1.390 . S
C2500 C2499 1.390 . S
C2500 C2501 1.394 . S
C2500 C2506 1.465 . S
C2501 C2496 1.399 . S
C2501 C2500 1.394 . S
C2501 C2502 1.516 . S
C2502 C2501 1.516 . S
C2502 C2503 1.502 . S
C2502 C2504 1.561 . S
C2502 C2505 1.526 . S
C2503 H2487 0.959 . S
C2503 H2488 0.959 . S
C2503 H2489 0.961 . S
C2503 C2502 1.502 . S
C2504 H2490 0.960 . S
C2504 H2491 0.961 . S
C2504 H2492 0.959 . S
C2504 C2502 1.561 . S
C2505 C2502 1.526 . S
C2505 C2506 1.396 . S
C2505 C2510 1.390 . S
C2506 C2500 1.465 . S
C2506 C2505 1.396 . S
C2506 C2507 1.399 . S
C2507 H2493 0.929 . S
C2507 C2506 1.399 . S
C2507 C2508 1.385 . S
C2508 H2494 0.931 . S
C2508 C2507 1.385 . S
C2508 C2509 1.389 . S
C2509 C2508 1.389 . S
C2509 C2510 1.387 . S
C2510 H2495 0.930 . S
C2510 C2505 1.390 . S
C2510 C2509 1.387 . S
H2511 C2523 0.930 . S
H2512 C2525 0.930 . S
H2513 C2526 0.930 . S
H2514 C2530 0.959 . S
H2515 C2530 0.959 1_565 S
H2516 C2530 0.961 . S
H2517 C2531 0.960 . S
H2518 C2531 0.961 . S
H2519 C2531 0.959 1_545 S
H2520 C2534 0.929 . S
H2521 C2535 0.931 . S
H2522 C2537 0.930 . S
C2523 H2511 0.930 . S
C2523 C2524 1.399 . S
C2523 C2528 1.399 . S
C2524 C2523 1.399 . S
C2524 C2525 1.376 . S
C2525 H2512 0.930 . S
C2525 C2524 1.376 . S
C2525 C2526 1.388 . S
C2526 H2513 0.930 . S
C2526 C2525 1.388 . S
C2526 C2527 1.390 . S
C2527 C2526 1.390 . S
C2527 C2528 1.394 . S
C2527 C2533 1.465 . S
C2528 C2523 1.399 . S
C2528 C2527 1.394 . S
C2528 C2529 1.516 . S
C2529 C2528 1.516 . S
C2529 C2530 1.502 . S
C2529 C2531 1.561 1_545 S
C2529 C2532 1.526 . S
C2530 H2514 0.959 . S
C2530 H2515 0.959 1_545 S
C2530 H2516 0.961 . S
C2530 C2529 1.502 . S
C2531 H2517 0.960 . S
C2531 H2518 0.961 . S
C2531 H2519 0.959 1_565 S
C2531 C2529 1.561 1_565 S
C2532 C2529 1.526 . S
C2532 C2533 1.396 . S
C2532 C2537 1.390 . S
C2533 C2527 1.465 . S
C2533 C2532 1.396 . S
C2533 C2534 1.399 . S
C2534 H2520 0.929 . S
C2534 C2533 1.399 . S
C2534 C2535 1.385 . S
C2535 H2521 0.931 . S
C2535 C2534 1.385 . S
C2535 C2536 1.389 . S
C2536 C2535 1.389 . S
C2536 C2537 1.387 . S
C2537 H2522 0.930 . S
C2537 C2532 1.390 . S
C2537 C2536 1.387 . S
H2538 C2550 0.930 . S
H2539 C2552 0.930 . S
H2540 C2553 0.930 . S
H2541 C2557 0.959 . S
H2542 C2557 0.959 . S
H2543 C2557 0.961 . S
H2544 C2558 0.960 . S
H2545 C2558 0.961 . S
H2546 C2558 0.959 . S
H2547 C2561 0.929 . S
H2548 C2562 0.931 . S
H2549 C2564 0.930 . S
C2550 H2538 0.930 . S
C2550 C2551 1.399 . S
C2550 C2555 1.399 . S
C2551 C2550 1.399 . S
C2551 C2552 1.376 . S
C2552 H2539 0.930 . S
C2552 C2551 1.376 . S
C2552 C2553 1.388 . S
C2553 H2540 0.930 . S
C2553 C2552 1.388 . S
C2553 C2554 1.390 . S
C2554 C2553 1.390 . S
C2554 C2555 1.394 . S
C2554 C2560 1.465 . S
C2555 C2550 1.399 . S
C2555 C2554 1.394 . S
C2555 C2556 1.516 . S
C2556 C2555 1.516 . S
C2556 C2557 1.502 . S
C2556 C2558 1.561 . S
C2556 C2559 1.526 . S
C2557 H2541 0.959 . S
C2557 H2542 0.959 . S
C2557 H2543 0.961 . S
C2557 C2556 1.502 . S
C2558 H2544 0.960 . S
C2558 H2545 0.961 . S
C2558 H2546 0.959 . S
C2558 C2556 1.561 . S
C2559 C2556 1.526 . S
C2559 C2560 1.396 . S
C2559 C2564 1.390 . S
C2560 C2554 1.465 . S
C2560 C2559 1.396 . S
C2560 C2561 1.399 . S
C2561 H2547 0.929 . S
C2561 C2560 1.399 . S
C2561 C2562 1.385 . S
C2562 H2548 0.931 . S
C2562 C2561 1.385 . S
C2562 C2563 1.389 . S
C2563 C2562 1.389 . S
C2563 C2564 1.387 . S
C2564 H2549 0.930 . S
C2564 C2559 1.390 . S
C2564 C2563 1.387 . S
H2565 C2577 0.930 . S
H2566 C2579 0.930 . S
H2567 C2580 0.930 . S
H2568 C2584 0.959 . S
H2569 C2584 0.959 . S
H2570 C2584 0.961 . S
H2571 C2585 0.960 . S
H2572 C2585 0.961 . S
H2573 C2585 0.959 . S
H2574 C2588 0.929 . S
H2575 C2589 0.931 . S
H2576 C2591 0.930 . S
C2577 H2565 0.930 . S
C2577 C2578 1.399 . S
C2577 C2582 1.399 . S
C2578 C2577 1.399 . S
C2578 C2579 1.376 . S
C2579 H2566 0.930 . S
C2579 C2578 1.376 . S
C2579 C2580 1.388 . S
C2580 H2567 0.930 . S
C2580 C2579 1.388 . S
C2580 C2581 1.390 . S
C2581 C2580 1.390 . S
C2581 C2582 1.394 . S
C2581 C2587 1.465 . S
C2582 C2577 1.399 . S
C2582 C2581 1.394 . S
C2582 C2583 1.516 . S
C2583 C2582 1.516 . S
C2583 C2584 1.502 . S
C2583 C2585 1.561 . S
C2583 C2586 1.526 . S
C2584 H2568 0.959 . S
C2584 H2569 0.959 . S
C2584 H2570 0.961 . S
C2584 C2583 1.502 . S
C2585 H2571 0.960 . S
C2585 H2572 0.961 . S
C2585 H2573 0.959 . S
C2585 C2583 1.561 . S
C2586 C2583 1.526 . S
C2586 C2587 1.396 . S
C2586 C2591 1.390 . S
C2587 C2581 1.465 . S
C2587 C2586 1.396 . S
C2587 C2588 1.399 . S
C2588 H2574 0.929 . S
C2588 C2587 1.399 . S
C2588 C2589 1.385 . S
C2589 H2575 0.931 . S
C2589 C2588 1.385 . S
C2589 C2590 1.389 . S
C2590 C2589 1.389 . S
C2590 C2591 1.387 . S
C2591 H2576 0.930 . S
C2591 C2586 1.390 . S
C2591 C2590 1.387 . S
H2592 C2604 0.930 . S
H2593 C2606 0.930 . S
H2594 C2607 0.930 . S
H2595 C2611 0.959 . S
H2596 C2611 0.959 . S
H2597 C2611 0.961 . S
H2598 C2612 0.960 . S
H2599 C2612 0.961 . S
H2600 C2612 0.959 . S
H2601 C2615 0.929 . S
H2602 C2616 0.931 . S
H2603 C2618 0.930 . S
C2604 H2592 0.930 . S
C2604 C2605 1.399 . S
C2604 C2609 1.399 . S
C2605 C2604 1.399 . S
C2605 C2606 1.376 . S
C2606 H2593 0.930 . S
C2606 C2605 1.376 . S
C2606 C2607 1.388 . S
C2607 H2594 0.930 . S
C2607 C2606 1.388 . S
C2607 C2608 1.390 . S
C2608 C2607 1.390 . S
C2608 C2609 1.394 . S
C2608 C2614 1.465 . S
C2609 C2604 1.399 . S
C2609 C2608 1.394 . S
C2609 C2610 1.516 . S
C2610 C2609 1.516 . S
C2610 C2611 1.502 . S
C2610 C2612 1.561 . S
C2610 C2613 1.526 . S
C2611 H2595 0.959 . S
C2611 H2596 0.959 . S
C2611 H2597 0.961 . S
C2611 C2610 1.502 . S
C2612 H2598 0.960 . S
C2612 H2599 0.961 . S
C2612 H2600 0.959 . S
C2612 C2610 1.561 . S
C2613 C2610 1.526 . S
C2613 C2614 1.396 . S
C2613 C2618 1.390 . S
C2614 C2608 1.465 . S
C2614 C2613 1.396 . S
C2614 C2615 1.399 . S
C2615 H2601 0.929 . S
C2615 C2614 1.399 . S
C2615 C2616 1.385 . S
C2616 H2602 0.931 . S
C2616 C2615 1.385 . S
C2616 C2617 1.389 . S
C2617 C2616 1.389 . S
C2617 C2618 1.387 . S
C2618 H2603 0.930 . S
C2618 C2613 1.390 . S
C2618 C2617 1.387 . S
H2619 C2631 0.930 . S
H2620 C2633 0.930 . S
H2621 C2634 0.930 . S
H2622 C2638 0.959 . S
H2623 C2638 0.959 . S
H2624 C2638 0.961 . S
H2625 C2639 0.960 . S
H2626 C2639 0.961 . S
H2627 C2639 0.959 . S
H2628 C2642 0.929 . S
H2629 C2643 0.931 . S
H2630 C2645 0.930 . S
C2631 H2619 0.930 . S
C2631 C2632 1.399 . S
C2631 C2636 1.399 . S
C2632 C2631 1.399 . S
C2632 C2633 1.376 . S
C2633 H2620 0.930 . S
C2633 C2632 1.376 . S
C2633 C2634 1.388 . S
C2634 H2621 0.930 . S
C2634 C2633 1.388 . S
C2634 C2635 1.390 . S
C2635 C2634 1.390 . S
C2635 C2636 1.394 . S
C2635 C2641 1.465 . S
C2636 C2631 1.399 . S
C2636 C2635 1.394 . S
C2636 C2637 1.516 . S
C2637 C2636 1.516 . S
C2637 C2638 1.502 . S
C2637 C2639 1.561 . S
C2637 C2640 1.526 . S
C2638 H2622 0.959 . S
C2638 H2623 0.959 . S
C2638 H2624 0.961 . S
C2638 C2637 1.502 . S
C2639 H2625 0.960 . S
C2639 H2626 0.961 . S
C2639 H2627 0.959 . S
C2639 C2637 1.561 . S
C2640 C2637 1.526 . S
C2640 C2641 1.396 . S
C2640 C2645 1.390 . S
C2641 C2635 1.465 . S
C2641 C2640 1.396 . S
C2641 C2642 1.399 . S
C2642 H2628 0.929 . S
C2642 C2641 1.399 . S
C2642 C2643 1.385 . S
C2643 H2629 0.931 . S
C2643 C2642 1.385 . S
C2643 C2644 1.389 . S
C2644 C2643 1.389 . S
C2644 C2645 1.387 . S
C2645 H2630 0.930 . S
C2645 C2640 1.390 . S
C2645 C2644 1.387 . S
H2646 C2658 0.930 . S
H2647 C2660 0.930 . S
H2648 C2661 0.930 . S
H2649 C2665 0.959 . S
H2650 C2665 0.959 . S
H2651 C2665 0.961 . S
H2652 C2666 0.960 . S
H2653 C2666 0.961 . S
H2654 C2666 0.959 . S
H2655 C2669 0.929 . S
H2656 C2670 0.931 . S
H2657 C2672 0.930 . S
C2658 H2646 0.930 . S
C2658 C2659 1.399 . S
C2658 C2663 1.399 . S
C2659 C2658 1.399 . S
C2659 C2660 1.376 . S
C2660 H2647 0.930 . S
C2660 C2659 1.376 . S
C2660 C2661 1.388 . S
C2661 H2648 0.930 . S
C2661 C2660 1.388 . S
C2661 C2662 1.390 . S
C2662 C2661 1.390 . S
C2662 C2663 1.394 . S
C2662 C2668 1.465 . S
C2663 C2658 1.399 . S
C2663 C2662 1.394 . S
C2663 C2664 1.516 . S
C2664 C2663 1.516 . S
C2664 C2665 1.502 . S
C2664 C2666 1.561 . S
C2664 C2667 1.526 . S
C2665 H2649 0.959 . S
C2665 H2650 0.959 . S
C2665 H2651 0.961 . S
C2665 C2664 1.502 . S
C2666 H2652 0.960 . S
C2666 H2653 0.961 . S
C2666 H2654 0.959 . S
C2666 C2664 1.561 . S
C2667 C2664 1.526 . S
C2667 C2668 1.396 . S
C2667 C2672 1.390 . S
C2668 C2662 1.465 . S
C2668 C2667 1.396 . S
C2668 C2669 1.399 . S
C2669 H2655 0.929 . S
C2669 C2668 1.399 . S
C2669 C2670 1.385 . S
C2670 H2656 0.931 . S
C2670 C2669 1.385 . S
C2670 C2671 1.389 . S
C2671 C2670 1.389 . S
C2671 C2672 1.387 . S
C2672 H2657 0.930 . S
C2672 C2667 1.390 . S
C2672 C2671 1.387 . S
H2673 C2685 0.930 . S
H2674 C2687 0.930 . S
H2675 C2688 0.930 . S
H2676 C2692 0.959 . S
H2677 C2692 0.959 . S
H2678 C2692 0.961 . S
H2679 C2693 0.960 . S
H2680 C2693 0.961 . S
H2681 C2693 0.959 . S
H2682 C2696 0.929 . S
H2683 C2697 0.931 . S
H2684 C2699 0.930 . S
C2685 H2673 0.930 . S
C2685 C2686 1.399 . S
C2685 C2690 1.399 . S
C2686 C2685 1.399 . S
C2686 C2687 1.376 . S
C2687 H2674 0.930 . S
C2687 C2686 1.376 . S
C2687 C2688 1.388 . S
C2688 H2675 0.930 . S
C2688 C2687 1.388 . S
C2688 C2689 1.390 . S
C2689 C2688 1.390 . S
C2689 C2690 1.394 . S
C2689 C2695 1.465 . S
C2690 C2685 1.399 . S
C2690 C2689 1.394 . S
C2690 C2691 1.516 . S
C2691 C2690 1.516 . S
C2691 C2692 1.502 . S
C2691 C2693 1.561 . S
C2691 C2694 1.526 . S
C2692 H2676 0.959 . S
C2692 H2677 0.959 . S
C2692 H2678 0.961 . S
C2692 C2691 1.502 . S
C2693 H2679 0.960 . S
C2693 H2680 0.961 . S
C2693 H2681 0.959 . S
C2693 C2691 1.561 . S
C2694 C2691 1.526 . S
C2694 C2695 1.396 . S
C2694 C2699 1.390 . S
C2695 C2689 1.465 . S
C2695 C2694 1.396 . S
C2695 C2696 1.399 . S
C2696 H2682 0.929 . S
C2696 C2695 1.399 . S
C2696 C2697 1.385 . S
C2697 H2683 0.931 . S
C2697 C2696 1.385 . S
C2697 C2698 1.389 . S
C2698 C2697 1.389 . S
C2698 C2699 1.387 . S
C2699 H2684 0.930 . S
C2699 C2694 1.390 . S
C2699 C2698 1.387 . S
H2700 C2712 0.930 . S
H2701 C2714 0.930 . S
H2702 C2715 0.930 . S
H2703 C2719 0.959 . S
H2704 C2719 0.959 . S
H2705 C2719 0.961 . S
H2706 C2720 0.960 . S
H2707 C2720 0.961 . S
H2708 C2720 0.959 . S
H2709 C2723 0.929 . S
H2710 C2724 0.931 . S
H2711 C2726 0.930 . S
C2712 H2700 0.930 . S
C2712 C2713 1.399 . S
C2712 C2717 1.399 . S
C2713 C2712 1.399 . S
C2713 C2714 1.376 . S
C2714 H2701 0.930 . S
C2714 C2713 1.376 . S
C2714 C2715 1.388 . S
C2715 H2702 0.930 . S
C2715 C2714 1.388 . S
C2715 C2716 1.390 . S
C2716 C2715 1.390 . S
C2716 C2717 1.394 . S
C2716 C2722 1.465 . S
C2717 C2712 1.399 . S
C2717 C2716 1.394 . S
C2717 C2718 1.516 . S
C2718 C2717 1.516 . S
C2718 C2719 1.502 . S
C2718 C2720 1.561 . S
C2718 C2721 1.526 . S
C2719 H2703 0.959 . S
C2719 H2704 0.959 . S
C2719 H2705 0.961 . S
C2719 C2718 1.502 . S
C2720 H2706 0.960 . S
C2720 H2707 0.961 . S
C2720 H2708 0.959 . S
C2720 C2718 1.561 . S
C2721 C2718 1.526 . S
C2721 C2722 1.396 . S
C2721 C2726 1.390 . S
C2722 C2716 1.465 . S
C2722 C2721 1.396 . S
C2722 C2723 1.399 . S
C2723 H2709 0.929 . S
C2723 C2722 1.399 . S
C2723 C2724 1.385 . S
C2724 H2710 0.931 . S
C2724 C2723 1.385 . S
C2724 C2725 1.389 . S
C2725 C2724 1.389 . S
C2725 C2726 1.387 . S
C2726 H2711 0.930 . S
C2726 C2721 1.390 . S
C2726 C2725 1.387 . S
H2727 C2739 0.930 . S
H2728 C2741 0.930 . S
H2729 C2742 0.930 . S
H2730 C2746 0.959 . S
H2731 C2746 0.959 . S
H2732 C2746 0.961 . S
H2733 C2747 0.960 . S
H2734 C2747 0.961 . S
H2735 C2747 0.959 . S
H2736 C2750 0.929 . S
H2737 C2751 0.931 . S
H2738 C2753 0.930 . S
C2739 H2727 0.930 . S
C2739 C2740 1.399 . S
C2739 C2744 1.399 . S
C2740 C2739 1.399 . S
C2740 C2741 1.376 . S
C2741 H2728 0.930 . S
C2741 C2740 1.376 . S
C2741 C2742 1.388 . S
C2742 H2729 0.930 . S
C2742 C2741 1.388 . S
C2742 C2743 1.390 . S
C2743 C2742 1.390 . S
C2743 C2744 1.394 . S
C2743 C2749 1.465 . S
C2744 C2739 1.399 . S
C2744 C2743 1.394 . S
C2744 C2745 1.516 . S
C2745 C2744 1.516 . S
C2745 C2746 1.502 . S
C2745 C2747 1.561 . S
C2745 C2748 1.526 . S
C2746 H2730 0.959 . S
C2746 H2731 0.959 . S
C2746 H2732 0.961 . S
C2746 C2745 1.502 . S
C2747 H2733 0.960 . S
C2747 H2734 0.961 . S
C2747 H2735 0.959 . S
C2747 C2745 1.561 . S
C2748 C2745 1.526 . S
C2748 C2749 1.396 . S
C2748 C2753 1.390 . S
C2749 C2743 1.465 . S
C2749 C2748 1.396 . S
C2749 C2750 1.399 . S
C2750 H2736 0.929 . S
C2750 C2749 1.399 . S
C2750 C2751 1.385 . S
C2751 H2737 0.931 . S
C2751 C2750 1.385 . S
C2751 C2752 1.389 . S
C2752 C2751 1.389 . S
C2752 C2753 1.387 . S
C2753 H2738 0.930 . S
C2753 C2748 1.390 . S
C2753 C2752 1.387 . S
H2754 C2766 0.930 . S
H2755 C2768 0.930 . S
H2756 C2769 0.930 . S
H2757 C2773 0.959 . S
H2758 C2773 0.959 . S
H2759 C2773 0.961 . S
H2760 C2774 0.960 . S
H2761 C2774 0.961 . S
H2762 C2774 0.959 . S
H2763 C2777 0.929 . S
H2764 C2778 0.931 . S
H2765 C2780 0.930 . S
C2766 H2754 0.930 . S
C2766 C2767 1.399 . S
C2766 C2771 1.399 . S
C2767 C2766 1.399 . S
C2767 C2768 1.376 . S
C2768 H2755 0.930 . S
C2768 C2767 1.376 . S
C2768 C2769 1.388 . S
C2769 H2756 0.930 . S
C2769 C2768 1.388 . S
C2769 C2770 1.390 . S
C2770 C2769 1.390 . S
C2770 C2771 1.394 . S
C2770 C2776 1.465 . S
C2771 C2766 1.399 . S
C2771 C2770 1.394 . S
C2771 C2772 1.516 . S
C2772 C2771 1.516 . S
C2772 C2773 1.502 . S
C2772 C2774 1.561 . S
C2772 C2775 1.526 . S
C2773 H2757 0.959 . S
C2773 H2758 0.959 . S
C2773 H2759 0.961 . S
C2773 C2772 1.502 . S
C2774 H2760 0.960 . S
C2774 H2761 0.961 . S
C2774 H2762 0.959 . S
C2774 C2772 1.561 . S
C2775 C2772 1.526 . S
C2775 C2776 1.396 . S
C2775 C2780 1.390 . S
C2776 C2770 1.465 . S
C2776 C2775 1.396 . S
C2776 C2777 1.399 . S
C2777 H2763 0.929 . S
C2777 C2776 1.399 . S
C2777 C2778 1.385 . S
C2778 H2764 0.931 . S
C2778 C2777 1.385 . S
C2778 C2779 1.389 . S
C2779 C2778 1.389 . S
C2779 C2780 1.387 . S
C2780 H2765 0.930 . S
C2780 C2775 1.390 . S
C2780 C2779 1.387 . S
H2781 C2793 0.930 . S
H2782 C2795 0.930 . S
H2783 C2796 0.930 . S
H2784 C2800 0.959 . S
H2785 C2800 0.959 . S
H2786 C2800 0.961 . S
H2787 C2801 0.960 . S
H2788 C2801 0.961 . S
H2789 C2801 0.959 . S
H2790 C2804 0.929 . S
H2791 C2805 0.931 . S
H2792 C2807 0.930 . S
C2793 H2781 0.930 . S
C2793 C2794 1.399 . S
C2793 C2798 1.399 . S
C2794 C2793 1.399 . S
C2794 C2795 1.376 . S
C2795 H2782 0.930 . S
C2795 C2794 1.376 . S
C2795 C2796 1.388 . S
C2796 H2783 0.930 . S
C2796 C2795 1.388 . S
C2796 C2797 1.390 . S
C2797 C2796 1.390 . S
C2797 C2798 1.394 . S
C2797 C2803 1.465 . S
C2798 C2793 1.399 . S
C2798 C2797 1.394 . S
C2798 C2799 1.516 . S
C2799 C2798 1.516 . S
C2799 C2800 1.502 . S
C2799 C2801 1.561 . S
C2799 C2802 1.526 . S
C2800 H2784 0.959 . S
C2800 H2785 0.959 . S
C2800 H2786 0.961 . S
C2800 C2799 1.502 . S
C2801 H2787 0.960 . S
C2801 H2788 0.961 . S
C2801 H2789 0.959 . S
C2801 C2799 1.561 . S
C2802 C2799 1.526 . S
C2802 C2803 1.396 . S
C2802 C2807 1.390 . S
C2803 C2797 1.465 . S
C2803 C2802 1.396 . S
C2803 C2804 1.399 . S
C2804 H2790 0.929 . S
C2804 C2803 1.399 . S
C2804 C2805 1.385 . S
C2805 H2791 0.931 . S
C2805 C2804 1.385 . S
C2805 C2806 1.389 . S
C2806 C2805 1.389 . S
C2806 C2807 1.387 . S
C2807 H2792 0.930 . S
C2807 C2802 1.390 . S
C2807 C2806 1.387 . S
H2808 C2820 0.930 . S
H2809 C2822 0.930 . S
H2810 C2823 0.930 . S
H2811 C2827 0.959 . S
H2812 C2827 0.959 . S
H2813 C2827 0.961 . S
H2814 C2828 0.960 . S
H2815 C2828 0.961 . S
H2816 C2828 0.959 . S
H2817 C2831 0.929 . S
H2818 C2832 0.931 . S
H2819 C2834 0.930 . S
C2820 H2808 0.930 . S
C2820 C2821 1.399 . S
C2820 C2825 1.399 . S
C2821 C2820 1.399 . S
C2821 C2822 1.376 . S
C2822 H2809 0.930 . S
C2822 C2821 1.376 . S
C2822 C2823 1.388 . S
C2823 H2810 0.930 . S
C2823 C2822 1.388 . S
C2823 C2824 1.390 . S
C2824 C2823 1.390 . S
C2824 C2825 1.394 . S
C2824 C2830 1.465 . S
C2825 C2820 1.399 . S
C2825 C2824 1.394 . S
C2825 C2826 1.516 . S
C2826 C2825 1.516 . S
C2826 C2827 1.502 . S
C2826 C2828 1.561 . S
C2826 C2829 1.526 . S
C2827 H2811 0.959 . S
C2827 H2812 0.959 . S
C2827 H2813 0.961 . S
C2827 C2826 1.502 . S
C2828 H2814 0.960 . S
C2828 H2815 0.961 . S
C2828 H2816 0.959 . S
C2828 C2826 1.561 . S
C2829 C2826 1.526 . S
C2829 C2830 1.396 . S
C2829 C2834 1.390 . S
C2830 C2824 1.465 . S
C2830 C2829 1.396 . S
C2830 C2831 1.399 . S
C2831 H2817 0.929 . S
C2831 C2830 1.399 . S
C2831 C2832 1.385 . S
C2832 H2818 0.931 . S
C2832 C2831 1.385 . S
C2832 C2833 1.389 . S
C2833 C2832 1.389 . S
C2833 C2834 1.387 . S
C2834 H2819 0.930 . S
C2834 C2829 1.390 . S
C2834 C2833 1.387 . S
H2835 C2847 0.930 . S
H2836 C2849 0.930 . S
H2837 C2850 0.930 . S
H2838 C2854 0.959 . S
H2839 C2854 0.959 . S
H2840 C2854 0.961 . S
H2841 C2855 0.960 . S
H2842 C2855 0.961 . S
H2843 C2855 0.959 . S
H2844 C2858 0.929 . S
H2845 C2859 0.931 . S
H2846 C2861 0.930 . S
C2847 H2835 0.930 . S
C2847 C2848 1.399 . S
C2847 C2852 1.399 . S
C2848 C2847 1.399 . S
C2848 C2849 1.376 . S
C2849 H2836 0.930 . S
C2849 C2848 1.376 . S
C2849 C2850 1.388 . S
C2850 H2837 0.930 . S
C2850 C2849 1.388 . S
C2850 C2851 1.390 . S
C2851 C2850 1.390 . S
C2851 C2852 1.394 . S
C2851 C2857 1.465 . S
C2852 C2847 1.399 . S
C2852 C2851 1.394 . S
C2852 C2853 1.516 . S
C2853 C2852 1.516 . S
C2853 C2854 1.502 . S
C2853 C2855 1.561 . S
C2853 C2856 1.526 . S
C2854 H2838 0.959 . S
C2854 H2839 0.959 . S
C2854 H2840 0.961 . S
C2854 C2853 1.502 . S
C2855 H2841 0.960 . S
C2855 H2842 0.961 . S
C2855 H2843 0.959 . S
C2855 C2853 1.561 . S
C2856 C2853 1.526 . S
C2856 C2857 1.396 . S
C2856 C2861 1.390 . S
C2857 C2851 1.465 . S
C2857 C2856 1.396 . S
C2857 C2858 1.399 . S
C2858 H2844 0.929 . S
C2858 C2857 1.399 . S
C2858 C2859 1.385 . S
C2859 H2845 0.931 . S
C2859 C2858 1.385 . S
C2859 C2860 1.389 . S
C2860 C2859 1.389 . S
C2860 C2861 1.387 . S
C2861 H2846 0.930 . S
C2861 C2856 1.390 . S
C2861 C2860 1.387 . S
C1417 C469 1.434 . S
C1429 C704 1.409 . S
C1444 C505 1.462 . S
C1456 C788 1.363 . S
C1471 C433 1.473 . S
C1483 C882 1.422 . S
C1498 C397 1.432 . S
C1510 C798 1.367 . S
C1537 C872 1.326 . S
C1525 C325 1.400 . S
C1552 C361 1.419 . S
C1564 C714 1.371 . S
C1591 C715 1.332 . S
C1579 C421 1.431 . S
C1618 C799 1.388 . S
C1606 C349 1.459 . S
C1633 C385 1.484 . S
C1645 C891 1.398 . S
C1660 C493 1.433 . S
C1672 C807 1.351 . S
C1687 C529 1.402 . S
C1699 C883 1.340 . S
C1726 C723 1.356 . S
C1714 C457 1.428 . S
C1753 C956 1.316 . S
C1741 C37 1.443 . S
C1768 C73 1.462 . S
C1780 C1040 1.358 . S
C1795 C1 1.467 . S
C1807 C1134 1.449 . S
C1822 C613 1.436 . S
C1834 C1050 1.370 . S
C1849 C541 1.399 . S
C1861 C1124 1.341 . S
C1876 C577 1.408 . S
C1888 C966 1.388 . S
C1903 C637 1.447 . S
C1915 C967 1.390 . S
C1930 C565 1.468 . S
C1942 C1051 1.433 . S
C1969 C1143 1.406 . S
C1957 C601 1.485 . S
C1984 C61 1.429 . S
C1996 C1059 1.350 . S
C2023 C1135 1.316 . S
C2011 C97 1.398 . S
C2038 C25 1.408 . S
C2050 C975 1.348 . S
C2077 C1208 1.381 . S
C2065 C253 1.441 . S
C2092 C289 1.461 . S
C2104 C1292 1.378 . S
C2131 C1386 1.421 . S
C2119 C217 1.478 . S
C2158 C1302 1.393 . S
C2146 C181 1.433 . S
C2185 C1376 1.310 . S
C2173 C109 1.402 . S
C2200 C145 1.407 . S
C2212 C1218 1.409 . S
C2227 C205 1.445 . S
C2239 C1219 1.370 . S
C2254 C133 1.459 . S
C2266 C1303 1.389 . S
C2293 C1395 1.443 . S
C2281 C169 1.461 . S
C2308 C277 1.436 . S
C2320 C1311 1.419 . S
C2335 C313 1.407 . S
C2347 C1387 1.371 . S
C2362 C241 1.408 . S
C2374 C1227 1.406 . S
C2389 C571 1.454 . S
C2401 C711 1.390 . S
C2428 C795 1.378 . S
C2416 C607 1.503 . S
C2443 C643 1.462 . S
C2455 C888 1.278 . S
C2470 C247 1.502 . S
C2482 C804 1.407 . S
C2497 C283 1.468 . S
C2509 C879 1.363 . S
C2536 C720 1.363 . S
C2524 C319 1.451 . S
C2551 C139 1.452 . S
C2563 C963 1.388 . S
C2578 C175 1.496 . S
C2590 C1047 1.311 . S
C2605 C211 1.474 . S
C2617 C1140 1.398 . S
C2632 C463 1.498 . S
C2644 C1056 1.295 . S
C2671 C1131 1.371 . S
C2659 C499 1.469 . S
C2686 C535 1.448 . S
C2698 C972 1.342 . S
C2713 C355 1.450 . S
C2725 C1215 1.384 . S
C2740 C391 1.503 . S
C2752 C1299 1.381 . S
C2779 C1392 1.276 . S
C2767 C427 1.460 . S
C2794 C31 1.499 . S
C2806 C1308 1.302 . S
C2821 C67 1.468 . S
C2833 C1383 1.311 . S
C2848 C103 1.453 . S
C2860 C1224 1.369 . S
