# Generated by pormake.
# Topology tbo, (3,4)-cn, num edge types: 1
# Building blocks:
#     Node 0, Type 0, BuildingBlock: WUSLED_clean_sbu_0, # of connection points: 3
#     Node 1, Type 0, BuildingBlock: WUSLED_clean_sbu_0, # of connection points: 3
#     Node 2, Type 0, BuildingBlock: WUSLED_clean_sbu_0, # of connection points: 3
#     Node 3, Type 0, BuildingBlock: WUSLED_clean_sbu_0, # of connection points: 3
#     Node 4, Type 0, BuildingBlock: WUSLED_clean_sbu_0, # of connection points: 3
#     Node 5, Type 0, BuildingBlock: WUSLED_clean_sbu_0, # of connection points: 3
#     Node 6, Type 0, BuildingBlock: WUSLED_clean_sbu_0, # of connection points: 3
#     Node 7, Type 0, BuildingBlock: WUSLED_clean_sbu_0, # of connection points: 3
#     Node 8, Type 0, BuildingBlock: WUSLED_clean_sbu_0, # of connection points: 3
#     Node 9, Type 0, BuildingBlock: WUSLED_clean_sbu_0, # of connection points: 3
#     Node 10, Type 0, BuildingBlock: WUSLED_clean_sbu_0, # of connection points: 3
#     Node 11, Type 0, BuildingBlock: WUSLED_clean_sbu_0, # of connection points: 3
#     Node 12, Type 0, BuildingBlock: WUSLED_clean_sbu_0, # of connection points: 3
#     Node 13, Type 0, BuildingBlock: WUSLED_clean_sbu_0, # of connection points: 3
#     Node 14, Type 0, BuildingBlock: WUSLED_clean_sbu_0, # of connection points: 3
#     Node 15, Type 0, BuildingBlock: WUSLED_clean_sbu_0, # of connection points: 3
#     Node 16, Type 0, BuildingBlock: WUSLED_clean_sbu_0, # of connection points: 3
#     Node 17, Type 0, BuildingBlock: WUSLED_clean_sbu_0, # of connection points: 3
#     Node 18, Type 0, BuildingBlock: WUSLED_clean_sbu_0, # of connection points: 3
#     Node 19, Type 0, BuildingBlock: WUSLED_clean_sbu_0, # of connection points: 3
#     Node 20, Type 0, BuildingBlock: WUSLED_clean_sbu_0, # of connection points: 3
#     Node 21, Type 0, BuildingBlock: WUSLED_clean_sbu_0, # of connection points: 3
#     Node 22, Type 0, BuildingBlock: WUSLED_clean_sbu_0, # of connection points: 3
#     Node 23, Type 0, BuildingBlock: WUSLED_clean_sbu_0, # of connection points: 3
#     Node 24, Type 0, BuildingBlock: WUSLED_clean_sbu_0, # of connection points: 3
#     Node 25, Type 0, BuildingBlock: WUSLED_clean_sbu_0, # of connection points: 3
#     Node 26, Type 0, BuildingBlock: WUSLED_clean_sbu_0, # of connection points: 3
#     Node 27, Type 0, BuildingBlock: WUSLED_clean_sbu_0, # of connection points: 3
#     Node 28, Type 0, BuildingBlock: WUSLED_clean_sbu_0, # of connection points: 3
#     Node 29, Type 0, BuildingBlock: WUSLED_clean_sbu_0, # of connection points: 3
#     Node 30, Type 0, BuildingBlock: WUSLED_clean_sbu_0, # of connection points: 3
#     Node 31, Type 0, BuildingBlock: WUSLED_clean_sbu_0, # of connection points: 3
#     Node 32, Type 1, BuildingBlock: GIZVER_clean_linker_0, # of connection points: 4
#     Node 33, Type 1, BuildingBlock: GIZVER_clean_linker_0, # of connection points: 4
#     Node 34, Type 1, BuildingBlock: GIZVER_clean_linker_0, # of connection points: 4
#     Node 35, Type 1, BuildingBlock: GIZVER_clean_linker_0, # of connection points: 4
#     Node 36, Type 1, BuildingBlock: GIZVER_clean_linker_0, # of connection points: 4
#     Node 37, Type 1, BuildingBlock: GIZVER_clean_linker_0, # of connection points: 4
#     Node 38, Type 1, BuildingBlock: GIZVER_clean_linker_0, # of connection points: 4
#     Node 39, Type 1, BuildingBlock: GIZVER_clean_linker_0, # of connection points: 4
#     Node 40, Type 1, BuildingBlock: GIZVER_clean_linker_0, # of connection points: 4
#     Node 41, Type 1, BuildingBlock: GIZVER_clean_linker_0, # of connection points: 4
#     Node 42, Type 1, BuildingBlock: GIZVER_clean_linker_0, # of connection points: 4
#     Node 43, Type 1, BuildingBlock: GIZVER_clean_linker_0, # of connection points: 4
#     Node 44, Type 1, BuildingBlock: GIZVER_clean_linker_0, # of connection points: 4
#     Node 45, Type 1, BuildingBlock: GIZVER_clean_linker_0, # of connection points: 4
#     Node 46, Type 1, BuildingBlock: GIZVER_clean_linker_0, # of connection points: 4
#     Node 47, Type 1, BuildingBlock: GIZVER_clean_linker_0, # of connection points: 4
#     Node 48, Type 1, BuildingBlock: GIZVER_clean_linker_0, # of connection points: 4
#     Node 49, Type 1, BuildingBlock: GIZVER_clean_linker_0, # of connection points: 4
#     Node 50, Type 1, BuildingBlock: GIZVER_clean_linker_0, # of connection points: 4
#     Node 51, Type 1, BuildingBlock: GIZVER_clean_linker_0, # of connection points: 4
#     Node 52, Type 1, BuildingBlock: GIZVER_clean_linker_0, # of connection points: 4
#     Node 53, Type 1, BuildingBlock: GIZVER_clean_linker_0, # of connection points: 4
#     Node 54, Type 1, BuildingBlock: GIZVER_clean_linker_0, # of connection points: 4
#     Node 55, Type 1, BuildingBlock: GIZVER_clean_linker_0, # of connection points: 4
#     Edge 56, Type (0, 1), BuildingBlock: AJUNOK_clean_linker_0, # of connection points: 2
#     Edge 57, Type (0, 1), BuildingBlock: AJUNOK_clean_linker_0, # of connection points: 2
#     Edge 58, Type (0, 1), BuildingBlock: AJUNOK_clean_linker_0, # of connection points: 2
#     Edge 59, Type (0, 1), BuildingBlock: AJUNOK_clean_linker_0, # of connection points: 2
#     Edge 60, Type (0, 1), BuildingBlock: AJUNOK_clean_linker_0, # of connection points: 2
#     Edge 61, Type (0, 1), BuildingBlock: AJUNOK_clean_linker_0, # of connection points: 2
#     Edge 62, Type (0, 1), BuildingBlock: AJUNOK_clean_linker_0, # of connection points: 2
#     Edge 63, Type (0, 1), BuildingBlock: AJUNOK_clean_linker_0, # of connection points: 2
#     Edge 64, Type (0, 1), BuildingBlock: AJUNOK_clean_linker_0, # of connection points: 2
#     Edge 65, Type (0, 1), BuildingBlock: AJUNOK_clean_linker_0, # of connection points: 2
#     Edge 66, Type (0, 1), BuildingBlock: AJUNOK_clean_linker_0, # of connection points: 2
#     Edge 67, Type (0, 1), BuildingBlock: AJUNOK_clean_linker_0, # of connection points: 2
#     Edge 68, Type (0, 1), BuildingBlock: AJUNOK_clean_linker_0, # of connection points: 2
#     Edge 69, Type (0, 1), BuildingBlock: AJUNOK_clean_linker_0, # of connection points: 2
#     Edge 70, Type (0, 1), BuildingBlock: AJUNOK_clean_linker_0, # of connection points: 2
#     Edge 71, Type (0, 1), BuildingBlock: AJUNOK_clean_linker_0, # of connection points: 2
#     Edge 72, Type (0, 1), BuildingBlock: AJUNOK_clean_linker_0, # of connection points: 2
#     Edge 73, Type (0, 1), BuildingBlock: AJUNOK_clean_linker_0, # of connection points: 2
#     Edge 74, Type (0, 1), BuildingBlock: AJUNOK_clean_linker_0, # of connection points: 2
#     Edge 75, Type (0, 1), BuildingBlock: AJUNOK_clean_linker_0, # of connection points: 2
#     Edge 76, Type (0, 1), BuildingBlock: AJUNOK_clean_linker_0, # of connection points: 2
#     Edge 77, Type (0, 1), BuildingBlock: AJUNOK_clean_linker_0, # of connection points: 2
#     Edge 78, Type (0, 1), BuildingBlock: AJUNOK_clean_linker_0, # of connection points: 2
#     Edge 79, Type (0, 1), BuildingBlock: AJUNOK_clean_linker_0, # of connection points: 2
#     Edge 80, Type (0, 1), BuildingBlock: AJUNOK_clean_linker_0, # of connection points: 2
#     Edge 81, Type (0, 1), BuildingBlock: AJUNOK_clean_linker_0, # of connection points: 2
#     Edge 82, Type (0, 1), BuildingBlock: AJUNOK_clean_linker_0, # of connection points: 2
#     Edge 83, Type (0, 1), BuildingBlock: AJUNOK_clean_linker_0, # of connection points: 2
#     Edge 84, Type (0, 1), BuildingBlock: AJUNOK_clean_linker_0, # of connection points: 2
#     Edge 85, Type (0, 1), BuildingBlock: AJUNOK_clean_linker_0, # of connection points: 2
#     Edge 86, Type (0, 1), BuildingBlock: AJUNOK_clean_linker_0, # of connection points: 2
#     Edge 87, Type (0, 1), BuildingBlock: AJUNOK_clean_linker_0, # of connection points: 2
#     Edge 88, Type (0, 1), BuildingBlock: AJUNOK_clean_linker_0, # of connection points: 2
#     Edge 89, Type (0, 1), BuildingBlock: AJUNOK_clean_linker_0, # of connection points: 2
#     Edge 90, Type (0, 1), BuildingBlock: AJUNOK_clean_linker_0, # of connection points: 2
#     Edge 91, Type (0, 1), BuildingBlock: AJUNOK_clean_linker_0, # of connection points: 2
#     Edge 92, Type (0, 1), BuildingBlock: AJUNOK_clean_linker_0, # of connection points: 2
#     Edge 93, Type (0, 1), BuildingBlock: AJUNOK_clean_linker_0, # of connection points: 2
#     Edge 94, Type (0, 1), BuildingBlock: AJUNOK_clean_linker_0, # of connection points: 2
#     Edge 95, Type (0, 1), BuildingBlock: AJUNOK_clean_linker_0, # of connection points: 2
#     Edge 96, Type (0, 1), BuildingBlock: AJUNOK_clean_linker_0, # of connection points: 2
#     Edge 97, Type (0, 1), BuildingBlock: AJUNOK_clean_linker_0, # of connection points: 2
#     Edge 98, Type (0, 1), BuildingBlock: AJUNOK_clean_linker_0, # of connection points: 2
#     Edge 99, Type (0, 1), BuildingBlock: AJUNOK_clean_linker_0, # of connection points: 2
#     Edge 100, Type (0, 1), BuildingBlock: AJUNOK_clean_linker_0, # of connection points: 2
#     Edge 101, Type (0, 1), BuildingBlock: AJUNOK_clean_linker_0, # of connection points: 2
#     Edge 102, Type (0, 1), BuildingBlock: AJUNOK_clean_linker_0, # of connection points: 2
#     Edge 103, Type (0, 1), BuildingBlock: AJUNOK_clean_linker_0, # of connection points: 2
#     Edge 104, Type (0, 1), BuildingBlock: AJUNOK_clean_linker_0, # of connection points: 2
#     Edge 105, Type (0, 1), BuildingBlock: AJUNOK_clean_linker_0, # of connection points: 2
#     Edge 106, Type (0, 1), BuildingBlock: AJUNOK_clean_linker_0, # of connection points: 2
#     Edge 107, Type (0, 1), BuildingBlock: AJUNOK_clean_linker_0, # of connection points: 2
#     Edge 108, Type (0, 1), BuildingBlock: AJUNOK_clean_linker_0, # of connection points: 2
#     Edge 109, Type (0, 1), BuildingBlock: AJUNOK_clean_linker_0, # of connection points: 2
#     Edge 110, Type (0, 1), BuildingBlock: AJUNOK_clean_linker_0, # of connection points: 2
#     Edge 111, Type (0, 1), BuildingBlock: AJUNOK_clean_linker_0, # of connection points: 2
#     Edge 112, Type (0, 1), BuildingBlock: AJUNOK_clean_linker_0, # of connection points: 2
#     Edge 113, Type (0, 1), BuildingBlock: AJUNOK_clean_linker_0, # of connection points: 2
#     Edge 114, Type (0, 1), BuildingBlock: AJUNOK_clean_linker_0, # of connection points: 2
#     Edge 115, Type (0, 1), BuildingBlock: AJUNOK_clean_linker_0, # of connection points: 2
#     Edge 116, Type (0, 1), BuildingBlock: AJUNOK_clean_linker_0, # of connection points: 2
#     Edge 117, Type (0, 1), BuildingBlock: AJUNOK_clean_linker_0, # of connection points: 2
#     Edge 118, Type (0, 1), BuildingBlock: AJUNOK_clean_linker_0, # of connection points: 2
#     Edge 119, Type (0, 1), BuildingBlock: AJUNOK_clean_linker_0, # of connection points: 2
#     Edge 120, Type (0, 1), BuildingBlock: AJUNOK_clean_linker_0, # of connection points: 2
#     Edge 121, Type (0, 1), BuildingBlock: AJUNOK_clean_linker_0, # of connection points: 2
#     Edge 122, Type (0, 1), BuildingBlock: AJUNOK_clean_linker_0, # of connection points: 2
#     Edge 123, Type (0, 1), BuildingBlock: AJUNOK_clean_linker_0, # of connection points: 2
#     Edge 124, Type (0, 1), BuildingBlock: AJUNOK_clean_linker_0, # of connection points: 2
#     Edge 125, Type (0, 1), BuildingBlock: AJUNOK_clean_linker_0, # of connection points: 2
#     Edge 126, Type (0, 1), BuildingBlock: AJUNOK_clean_linker_0, # of connection points: 2
#     Edge 127, Type (0, 1), BuildingBlock: AJUNOK_clean_linker_0, # of connection points: 2
#     Edge 128, Type (0, 1), BuildingBlock: AJUNOK_clean_linker_0, # of connection points: 2
#     Edge 129, Type (0, 1), BuildingBlock: AJUNOK_clean_linker_0, # of connection points: 2
#     Edge 130, Type (0, 1), BuildingBlock: AJUNOK_clean_linker_0, # of connection points: 2
#     Edge 131, Type (0, 1), BuildingBlock: AJUNOK_clean_linker_0, # of connection points: 2
#     Edge 132, Type (0, 1), BuildingBlock: AJUNOK_clean_linker_0, # of connection points: 2
#     Edge 133, Type (0, 1), BuildingBlock: AJUNOK_clean_linker_0, # of connection points: 2
#     Edge 134, Type (0, 1), BuildingBlock: AJUNOK_clean_linker_0, # of connection points: 2
#     Edge 135, Type (0, 1), BuildingBlock: AJUNOK_clean_linker_0, # of connection points: 2
#     Edge 136, Type (0, 1), BuildingBlock: AJUNOK_clean_linker_0, # of connection points: 2
#     Edge 137, Type (0, 1), BuildingBlock: AJUNOK_clean_linker_0, # of connection points: 2
#     Edge 138, Type (0, 1), BuildingBlock: AJUNOK_clean_linker_0, # of connection points: 2
#     Edge 139, Type (0, 1), BuildingBlock: AJUNOK_clean_linker_0, # of connection points: 2
#     Edge 140, Type (0, 1), BuildingBlock: AJUNOK_clean_linker_0, # of connection points: 2
#     Edge 141, Type (0, 1), BuildingBlock: AJUNOK_clean_linker_0, # of connection points: 2
#     Edge 142, Type (0, 1), BuildingBlock: AJUNOK_clean_linker_0, # of connection points: 2
#     Edge 143, Type (0, 1), BuildingBlock: AJUNOK_clean_linker_0, # of connection points: 2
#     Edge 144, Type (0, 1), BuildingBlock: AJUNOK_clean_linker_0, # of connection points: 2
#     Edge 145, Type (0, 1), BuildingBlock: AJUNOK_clean_linker_0, # of connection points: 2
#     Edge 146, Type (0, 1), BuildingBlock: AJUNOK_clean_linker_0, # of connection points: 2
#     Edge 147, Type (0, 1), BuildingBlock: AJUNOK_clean_linker_0, # of connection points: 2
#     Edge 148, Type (0, 1), BuildingBlock: AJUNOK_clean_linker_0, # of connection points: 2
#     Edge 149, Type (0, 1), BuildingBlock: AJUNOK_clean_linker_0, # of connection points: 2
#     Edge 150, Type (0, 1), BuildingBlock: AJUNOK_clean_linker_0, # of connection points: 2
#     Edge 151, Type (0, 1), BuildingBlock: AJUNOK_clean_linker_0, # of connection points: 2
# Relax obj value: 0.000
# Max RMSD: 0.036
# Mean RMSD: 0.016
data_MOF--net-tbo--node1-WUSLED_clean_sbu_0--node2-GIZVER_clean_linker_0--edge1-AJUNOK_clean_linker_0
_symmetry_space_group_name_H-M    P1
_symmetry_Int_Tables_number       1
_symmetry_cell_setting            triclinic
loop_
_symmetry_equiv_pos_as_xyz
'x, y, z'
_cell_length_a     75.486855
_cell_length_b     75.794488
_cell_length_c     75.627029
_cell_angle_alpha  89.68375
_cell_angle_beta   90.396199
_cell_angle_gamma 90.989461
loop_
_atom_site_label
_atom_site_type_symbol
_atom_site_fract_x
_atom_site_fract_y
_atom_site_fract_z
_atom_type_partial_charge
C0 C 0.18814 0.13594 0.21003 0.0
C1 C 0.20607 0.13861 0.21463 0.0
C2 C 0.20869 0.10758 0.22293 0.0
C3 C 0.21617 0.12463 0.2211 0.0
C4 C 0.19086 0.10486 0.21795 0.0
C5 C 0.18071 0.11888 0.2116 0.0
U6 U 0.1764 0.17609 0.1808 0.0
O7 O 0.15028 0.18524 0.17164 0.0
O8 O 0.16693 0.20216 0.18858 0.0
C9 C 0.15147 0.19996 0.18073 0.0
C10 C 0.1767 0.15085 0.20479 0.0
C11 C 0.13596 0.20448 0.19146 0.0
C12 C 0.11859 0.20159 0.21833 0.0
C13 C 0.13247 0.19597 0.20762 0.0
C14 C 0.11124 0.22394 0.19662 0.0
C15 C 0.10792 0.21578 0.21304 0.0
C16 C 0.12511 0.21833 0.18595 0.0
C17 C 0.20838 0.18934 0.14259 0.0
C18 C 0.20619 0.20042 0.11229 0.0
C19 C 0.23196 0.20779 0.13015 0.0
C20 C 0.22486 0.19807 0.14425 0.0
C21 C 0.22288 0.20885 0.11389 0.0
C22 C 0.19904 0.19069 0.12647 0.0
C23 C 0.20202 0.178 0.1574 0.0
O24 O 0.18316 0.16684 0.20754 0.0
O25 O 0.16819 0.14936 0.18963 0.0
O26 O 0.18731 0.16873 0.15496 0.0
O27 O 0.2033 0.18482 0.17331 0.0
H28 H 0.21221 0.1516 0.21369 0.0
H29 H 0.2297 0.12736 0.22525 0.0
H30 H 0.18469 0.09191 0.21919 0.0
H31 H 0.16691 0.11647 0.20824 0.0
H32 H 0.11637 0.19503 0.2309 0.0
H33 H 0.14074 0.18527 0.21213 0.0
H34 H 0.10358 0.23515 0.19234 0.0
H35 H 0.12769 0.22515 0.17358 0.0
H36 H 0.19885 0.20107 0.09996 0.0
H37 H 0.24459 0.21453 0.13201 0.0
H38 H 0.23241 0.19721 0.15645 0.0
H39 H 0.18633 0.18406 0.1247 0.0
C40 C 0.82506 0.18894 0.13728 0.0
C41 C 0.82202 0.20702 0.13968 0.0
C42 C 0.81275 0.21004 0.10886 0.0
C43 C 0.81584 0.2174 0.12567 0.0
C44 C 0.81621 0.19204 0.10639 0.0
C45 C 0.82227 0.18161 0.12045 0.0
U46 U 0.85485 0.17579 0.17667 0.0
O47 O 0.84751 0.1671 0.2034 0.0
O48 O 0.86215 0.14928 0.18627 0.0
C49 C 0.85353 0.15109 0.20119 0.0
C50 C 0.82992 0.17731 0.15231 0.0
C51 C 0.84165 0.13623 0.20658 0.0
C52 C 0.81376 0.1252 0.2188 0.0
C53 C 0.82415 0.1391 0.21202 0.0
C54 C 0.83787 0.10512 0.2143 0.0
C55 C 0.82052 0.10805 0.22014 0.0
C56 C 0.84832 0.11906 0.20763 0.0
C57 C 0.8958 0.2046 0.18798 0.0
C58 C 0.91274 0.20181 0.21527 0.0
C59 C 0.9207 0.22451 0.19396 0.0
C60 C 0.9069 0.21871 0.18286 0.0
C61 C 0.92365 0.21626 0.21039 0.0
C62 C 0.89894 0.196 0.20414 0.0
C63 C 0.8804 0.19983 0.17682 0.0
O64 O 0.84432 0.16798 0.15048 0.0
O65 O 0.82833 0.18395 0.16824 0.0
O66 O 0.86487 0.20211 0.18413 0.0
O67 O 0.88135 0.18492 0.16811 0.0
H68 H 0.82395 0.21309 0.1525 0.0
H69 H 0.81286 0.23108 0.1282 0.0
H70 H 0.81397 0.18597 0.09362 0.0
H71 H 0.82443 0.1677 0.11827 0.0
H72 H 0.80066 0.12807 0.22362 0.0
H73 H 0.8186 0.15217 0.21154 0.0
H74 H 0.84347 0.09208 0.21515 0.0
H75 H 0.86179 0.1165 0.20366 0.0
H76 H 0.91469 0.1952 0.22785 0.0
H77 H 0.92858 0.23591 0.18999 0.0
H78 H 0.90459 0.22558 0.17048 0.0
H79 H 0.89046 0.1851 0.20833 0.0
C80 C 0.82643 0.84508 0.14077 0.0
C81 C 0.82269 0.82697 0.14308 0.0
C82 C 0.81362 0.82438 0.11215 0.0
C83 C 0.81627 0.81678 0.12897 0.0
C84 C 0.81778 0.8424 0.10978 0.0
C85 C 0.82408 0.85263 0.12394 0.0
U86 U 0.85594 0.85741 0.18084 0.0
O87 O 0.86442 0.88351 0.19074 0.0
O88 O 0.84821 0.86591 0.20745 0.0
C89 C 0.85566 0.8816 0.20563 0.0
C90 C 0.83152 0.8565 0.15591 0.0
C91 C 0.84493 0.89659 0.21134 0.0
C92 C 0.82496 0.92088 0.20546 0.0
C93 C 0.83504 0.90677 0.19937 0.0
C94 C 0.83454 0.91469 0.23545 0.0
C95 C 0.82452 0.92492 0.22361 0.0
C96 C 0.84461 0.90071 0.22937 0.0
C97 C 0.89557 0.8282 0.19337 0.0
C98 C 0.90729 0.8175 0.22148 0.0
C99 C 0.92661 0.82023 0.19617 0.0
C100 C 0.91246 0.82649 0.18597 0.0
C101 C 0.92416 0.81546 0.214 0.0
C102 C 0.89319 0.82389 0.21132 0.0
C103 C 0.88045 0.83321 0.18187 0.0
O104 O 0.82923 0.84972 0.17179 0.0
O105 O 0.84641 0.86565 0.15442 0.0
O106 O 0.88224 0.84803 0.17288 0.0
O107 O 0.86451 0.83088 0.18846 0.0
H108 H 0.82427 0.82072 0.15589 0.0
H109 H 0.81277 0.80308 0.13143 0.0
H110 H 0.81591 0.84866 0.09701 0.0
H111 H 0.82677 0.86657 0.12182 0.0
H112 H 0.8176 0.92866 0.19597 0.0
H113 H 0.83511 0.90383 0.18537 0.0
H114 H 0.83434 0.9173 0.24951 0.0
H115 H 0.85212 0.893 0.23882 0.0
H116 H 0.90477 0.81352 0.23501 0.0
H117 H 0.93941 0.81883 0.19001 0.0
H118 H 0.91464 0.82963 0.17216 0.0
H119 H 0.88033 0.82496 0.21744 0.0
C120 C 0.13885 0.82317 0.18646 0.0
C121 C 0.12962 0.83408 0.19805 0.0
C122 C 0.11026 0.80932 0.20648 0.0
C123 C 0.11544 0.82719 0.20801 0.0
C124 C 0.11977 0.79847 0.19502 0.0
C125 C 0.13384 0.80535 0.18509 0.0
U126 U 0.17764 0.85552 0.17587 0.0
O127 O 0.20435 0.84936 0.16662 0.0
O128 O 0.18679 0.86511 0.14982 0.0
C129 C 0.20194 0.8569 0.15111 0.0
C130 C 0.15382 0.82979 0.17573 0.0
C131 C 0.20721 0.84648 0.13563 0.0
C132 C 0.20965 0.81849 0.12029 0.0
C133 C 0.20314 0.82838 0.13437 0.0
C134 C 0.22374 0.84479 0.1082 0.0
C135 C 0.22035 0.82652 0.10725 0.0
C136 C 0.21728 0.85465 0.12229 0.0
C137 C 0.18911 0.89483 0.20641 0.0
C138 C 0.2169 0.90745 0.21752 0.0
C139 C 0.19103 0.92574 0.21513 0.0
C140 C 0.18122 0.91134 0.2085 0.0
C141 C 0.20897 0.92394 0.21988 0.0
C142 C 0.20714 0.89311 0.21079 0.0
C143 C 0.17805 0.87938 0.20098 0.0
O144 O 0.15163 0.84488 0.1674 0.0
O145 O 0.16961 0.82834 0.18295 0.0
O146 O 0.18528 0.86379 0.20268 0.0
O147 O 0.16878 0.88105 0.1863 0.0
H148 H 0.13338 0.84787 0.1994 0.0
H149 H 0.10846 0.83584 0.21683 0.0
H150 H 0.11653 0.78454 0.19394 0.0
H151 H 0.14091 0.79667 0.17637 0.0
H152 H 0.20682 0.80443 0.11994 0.0
H153 H 0.19532 0.82182 0.14449 0.0
H154 H 0.23161 0.85143 0.09817 0.0
H155 H 0.22046 0.86863 0.12295 0.0
H156 H 0.23053 0.90541 0.2215 0.0
H157 H 0.18452 0.93823 0.21679 0.0
H158 H 0.16732 0.91301 0.20535 0.0
H159 H 0.21364 0.88056 0.20947 0.0
C160 C 0.136 0.82469 0.84808 0.0
C161 C 0.12565 0.83577 0.8374 0.0
C162 C 0.10712 0.81059 0.82844 0.0
C163 C 0.11132 0.82876 0.82763 0.0
C164 C 0.11772 0.79961 0.83901 0.0
C165 C 0.13193 0.8066 0.84877 0.0
U166 U 0.17461 0.8575 0.85796 0.0
O167 O 0.1845 0.86685 0.88382 0.0
O168 O 0.20172 0.85159 0.86665 0.0
C169 C 0.19967 0.85876 0.88227 0.0
C170 C 0.1512 0.83142 0.85856 0.0
C171 C 0.205 0.84769 0.8974 0.0
C172 C 0.20251 0.82049 0.91447 0.0
C173 C 0.19643 0.83147 0.90084 0.0
C174 C 0.22548 0.84204 0.92166 0.0
C175 C 0.21721 0.82558 0.92494 0.0
C176 C 0.21941 0.85299 0.90802 0.0
C177 C 0.18465 0.89701 0.82752 0.0
C178 C 0.21295 0.91282 0.82675 0.0
C179 C 0.18807 0.9237 0.80978 0.0
C180 C 0.17752 0.90965 0.81603 0.0
C181 C 0.20596 0.92537 0.81494 0.0
C182 C 0.20238 0.89881 0.83305 0.0
C183 C 0.17375 0.88156 0.83282 0.0
O184 O 0.16676 0.83028 0.85103 0.0
O185 O 0.14905 0.84638 0.86694 0.0
O186 O 0.16504 0.88297 0.84772 0.0
O187 O 0.18131 0.86619 0.83104 0.0
H188 H 0.12867 0.84977 0.83658 0.0
H189 H 0.10349 0.83752 0.8195 0.0
H190 H 0.11524 0.7855 0.83949 0.0
H191 H 0.13986 0.79781 0.85679 0.0
H192 H 0.19588 0.80789 0.91668 0.0
H193 H 0.18529 0.82714 0.89275 0.0
H194 H 0.23706 0.84617 0.9292 0.0
H195 H 0.22625 0.86542 0.90548 0.0
H196 H 0.22678 0.91345 0.83065 0.0
H197 H 0.18229 0.93315 0.80073 0.0
H198 H 0.16387 0.90847 0.8116 0.0
H199 H 0.20816 0.88914 0.84187 0.0
C200 C 0.13656 0.18883 0.82384 0.0
C201 C 0.12186 0.19193 0.83468 0.0
C202 C 0.10797 0.20928 0.81126 0.0
C203 C 0.10769 0.20203 0.82843 0.0
C204 C 0.12271 0.20615 0.80051 0.0
C205 C 0.13677 0.19602 0.8067 0.0
U206 U 0.17564 0.17719 0.85489 0.0
O207 O 0.18493 0.15108 0.8637 0.0
O208 O 0.20236 0.16855 0.84813 0.0
C209 C 0.19993 0.15275 0.85505 0.0
C210 C 0.15151 0.17769 0.82965 0.0
C211 C 0.20525 0.13752 0.84413 0.0
C212 C 0.21831 0.12562 0.81741 0.0
C213 C 0.21152 0.13985 0.82677 0.0
C214 C 0.21208 0.10625 0.8422 0.0
C215 C 0.21902 0.10872 0.82513 0.0
C216 C 0.20538 0.12051 0.85162 0.0
C217 C 0.1862 0.20807 0.89446 0.0
C218 C 0.20714 0.20317 0.91859 0.0
C219 C 0.19464 0.23208 0.9141 0.0
C220 C 0.18495 0.22572 0.89961 0.0
C221 C 0.20571 0.22087 0.9239 0.0
C222 C 0.19742 0.19679 0.90398 0.0
C223 C 0.17575 0.20206 0.87901 0.0
O224 O 0.16742 0.18478 0.82795 0.0
O225 O 0.14958 0.16866 0.84444 0.0
O226 O 0.16688 0.18706 0.88068 0.0
O227 O 0.18351 0.20387 0.8636 0.0
H228 H 0.12122 0.18647 0.84793 0.0
H229 H 0.09642 0.20393 0.83694 0.0
H230 H 0.12344 0.21166 0.78728 0.0
H231 H 0.14786 0.19376 0.79803 0.0
H232 H 0.22361 0.128 0.80432 0.0
H233 H 0.21166 0.15276 0.82055 0.0
H234 H 0.21206 0.09334 0.8484 0.0
H235 H 0.20066 0.11832 0.86496 0.0
H236 H 0.21568 0.19427 0.92578 0.0
H237 H 0.19367 0.2459 0.91745 0.0
H238 H 0.17653 0.23467 0.89233 0.0
H239 H 0.19867 0.18313 0.90011 0.0
C240 C 0.82723 0.13933 0.84954 0.0
C241 C 0.82189 0.14212 0.83189 0.0
C242 C 0.81442 0.11084 0.82862 0.0
C243 C 0.8155 0.12806 0.8216 0.0
C244 C 0.8201 0.10802 0.84614 0.0
C245 C 0.8264 0.12211 0.85648 0.0
U246 U 0.85746 0.17873 0.86306 0.0
O247 O 0.85026 0.20514 0.87214 0.0
O248 O 0.86543 0.18781 0.88966 0.0
C249 C 0.857 0.20277 0.88802 0.0
C250 C 0.83239 0.15428 0.86122 0.0
C251 C 0.84542 0.20755 0.90282 0.0
C252 C 0.81742 0.20509 0.91846 0.0
C253 C 0.82881 0.19932 0.9052 0.0
C254 C 0.83933 0.22704 0.92742 0.0
C255 C 0.82248 0.21916 0.92962 0.0
C256 C 0.85068 0.22127 0.91416 0.0
C257 C 0.89822 0.18994 0.83382 0.0
C258 C 0.91325 0.21829 0.82942 0.0
C259 C 0.92606 0.1917 0.81783 0.0
C260 C 0.91197 0.18172 0.82481 0.0
C261 C 0.92662 0.21016 0.81964 0.0
C262 C 0.89915 0.20828 0.83643 0.0
C263 C 0.88253 0.17929 0.83906 0.0
O264 O 0.84692 0.15244 0.87071 0.0
O265 O 0.83076 0.17026 0.85461 0.0
O266 O 0.86708 0.18676 0.83683 0.0
O267 O 0.88373 0.17034 0.85395 0.0
H268 H 0.82219 0.15522 0.82612 0.0
H269 H 0.8108 0.13083 0.80833 0.0
H270 H 0.81943 0.09493 0.85195 0.0
H271 H 0.83028 0.11958 0.87007 0.0
H272 H 0.80453 0.19876 0.91981 0.0
H273 H 0.8245 0.18871 0.89655 0.0
H274 H 0.84348 0.23816 0.93547 0.0
H275 H 0.86341 0.22787 0.91245 0.0
H276 H 0.91332 0.23248 0.83102 0.0
H277 H 0.93635 0.18502 0.81069 0.0
H278 H 0.91155 0.16759 0.82272 0.0
H279 H 0.88871 0.21491 0.8434 0.0
C280 C 0.84526 0.89736 0.82784 0.0
C281 C 0.82754 0.89852 0.83317 0.0
C282 C 0.82418 0.92561 0.81593 0.0
C283 C 0.81708 0.91248 0.82721 0.0
C284 C 0.84204 0.92454 0.81093 0.0
C285 C 0.85247 0.91056 0.81685 0.0
U286 U 0.85579 0.85727 0.85731 0.0
O287 O 0.86419 0.83075 0.84984 0.0
O288 O 0.88177 0.84738 0.86619 0.0
C289 C 0.88 0.83273 0.85707 0.0
C290 C 0.85619 0.88214 0.83291 0.0
C291 C 0.89533 0.82758 0.84615 0.0
C292 C 0.90755 0.81683 0.81855 0.0
C293 C 0.89334 0.82347 0.82812 0.0
C294 C 0.92626 0.81895 0.84457 0.0
C295 C 0.9241 0.81415 0.82673 0.0
C296 C 0.91201 0.82549 0.85419 0.0
C297 C 0.82395 0.84636 0.89624 0.0
C298 C 0.82809 0.82556 0.92055 0.0
C299 C 0.79922 0.83801 0.91509 0.0
C300 C 0.80607 0.8476 0.9008 0.0
C301 C 0.81015 0.82701 0.92529 0.0
C302 C 0.83496 0.8352 0.90615 0.0
C303 C 0.83052 0.85693 0.88111 0.0
O304 O 0.86491 0.88349 0.84795 0.0
O305 O 0.84875 0.86651 0.83062 0.0
O306 O 0.82876 0.84962 0.86547 0.0
O307 O 0.84572 0.86541 0.88324 0.0
H308 H 0.8217 0.88842 0.84161 0.0
H309 H 0.80328 0.91266 0.83099 0.0
H310 H 0.84791 0.93444 0.80229 0.0
H311 H 0.86612 0.9099 0.81259 0.0
H312 H 0.90538 0.81322 0.80486 0.0
H313 H 0.8807 0.82494 0.82148 0.0
H314 H 0.93892 0.81744 0.85118 0.0
H315 H 0.91392 0.82856 0.86805 0.0
H316 H 0.83679 0.81708 0.92806 0.0
H317 H 0.78524 0.839 0.91799 0.0
H318 H 0.79732 0.856 0.89323 0.0
H319 H 0.8488 0.83397 0.90277 0.0
C320 C 0.18474 0.63644 0.70776 0.0
C321 C 0.20031 0.63276 0.69853 0.0
C322 C 0.20687 0.6088 0.71916 0.0
C323 C 0.21128 0.61908 0.7042 0.0
C324 C 0.19105 0.61233 0.7281 0.0
C325 C 0.1801 0.626 0.72244 0.0
U326 U 0.17431 0.67669 0.67868 0.0
O327 O 0.1485 0.68672 0.66957 0.0
O328 O 0.16579 0.7031 0.68644 0.0
C329 C 0.15022 0.70138 0.67868 0.0
C330 C 0.17371 0.6516 0.70287 0.0
C331 C 0.13484 0.70647 0.68936 0.0
C332 C 0.11908 0.70727 0.71731 0.0
C333 C 0.13305 0.70108 0.70706 0.0
C334 C 0.10823 0.72389 0.69217 0.0
C335 C 0.10656 0.71887 0.71002 0.0
C336 C 0.12221 0.71773 0.68195 0.0
C337 C 0.20607 0.68833 0.64007 0.0
C338 C 0.20109 0.70782 0.61484 0.0
C339 C 0.23091 0.69927 0.62262 0.0
C340 C 0.2243 0.68919 0.63671 0.0
C341 C 0.21943 0.70877 0.61152 0.0
C342 C 0.19446 0.69773 0.62904 0.0
C343 C 0.19972 0.67737 0.65503 0.0
O344 O 0.18113 0.6672 0.70536 0.0
O345 O 0.16512 0.65041 0.68773 0.0
O346 O 0.18463 0.66872 0.65281 0.0
O347 O 0.2014 0.68445 0.67079 0.0
H348 H 0.20414 0.64071 0.68719 0.0
H349 H 0.22339 0.61671 0.69704 0.0
H350 H 0.18747 0.60498 0.73991 0.0
H351 H 0.1682 0.62872 0.7298 0.0
H352 H 0.11842 0.70344 0.73111 0.0
H353 H 0.1427 0.69244 0.71307 0.0
H354 H 0.09881 0.73277 0.68615 0.0
H355 H 0.12336 0.72207 0.66833 0.0
H356 H 0.19186 0.71475 0.60639 0.0
H357 H 0.2451 0.69985 0.62056 0.0
H358 H 0.23348 0.68205 0.64505 0.0
H359 H 0.18032 0.69724 0.63136 0.0
C360 C 0.82346 0.6871 0.63641 0.0
C361 C 0.82878 0.70486 0.63471 0.0
C362 C 0.81067 0.70784 0.60804 0.0
C363 C 0.82238 0.71516 0.62071 0.0
C364 C 0.80573 0.68992 0.6096 0.0
C365 C 0.81208 0.67966 0.62365 0.0
U366 U 0.85416 0.67786 0.67589 0.0
O367 O 0.84738 0.67013 0.70314 0.0
O368 O 0.86335 0.65264 0.68688 0.0
C369 C 0.85504 0.65476 0.70192 0.0
C370 C 0.82887 0.67645 0.65184 0.0
C371 C 0.84474 0.63949 0.70868 0.0
C372 C 0.82372 0.61505 0.70483 0.0
C373 C 0.83329 0.62947 0.6978 0.0
C374 C 0.83683 0.62068 0.73361 0.0
C375 C 0.82551 0.61041 0.7228 0.0
C376 C 0.84638 0.63499 0.72659 0.0
C377 C 0.89363 0.70867 0.68574 0.0
C378 C 0.91134 0.70587 0.71255 0.0
C379 C 0.91755 0.7297 0.69191 0.0
C380 C 0.90381 0.72356 0.68091 0.0
C381 C 0.92136 0.72103 0.70795 0.0
C382 C 0.89761 0.69973 0.70153 0.0
C383 C 0.87843 0.70315 0.67465 0.0
O384 O 0.84383 0.66797 0.65036 0.0
O385 O 0.82713 0.68409 0.66728 0.0
O386 O 0.86282 0.70503 0.68192 0.0
O387 O 0.87996 0.68802 0.66643 0.0
H388 H 0.83752 0.71088 0.64447 0.0
H389 H 0.82611 0.72901 0.62017 0.0
H390 H 0.79675 0.6839 0.60006 0.0
H391 H 0.80781 0.66597 0.62474 0.0
H392 H 0.81499 0.60747 0.69622 0.0
H393 H 0.83175 0.63282 0.68394 0.0
H394 H 0.83808 0.61786 0.74761 0.0
H395 H 0.85501 0.64267 0.73524 0.0
H396 H 0.91397 0.69891 0.72481 0.0
H397 H 0.92474 0.74162 0.68818 0.0
H398 H 0.90085 0.73069 0.66882 0.0
H399 H 0.88987 0.68821 0.70548 0.0
C400 C 0.828 0.34584 0.6364 0.0
C401 C 0.83686 0.33011 0.633 0.0
C402 C 0.81624 0.32338 0.60884 0.0
C403 C 0.83101 0.31896 0.61935 0.0
C404 C 0.80767 0.33936 0.6121 0.0
C405 C 0.81353 0.35048 0.62574 0.0
U406 U 0.85759 0.35798 0.67634 0.0
O407 O 0.86581 0.38432 0.68608 0.0
O408 O 0.84988 0.36655 0.70285 0.0
C409 C 0.85675 0.38248 0.70079 0.0
C410 C 0.833 0.35711 0.65151 0.0
C411 C 0.84552 0.39748 0.70593 0.0
C412 C 0.81787 0.40891 0.71731 0.0
C413 C 0.82765 0.39493 0.71063 0.0
C414 C 0.84333 0.42846 0.71403 0.0
C415 C 0.82569 0.42576 0.71944 0.0
C416 C 0.85315 0.41444 0.70745 0.0
C417 C 0.89729 0.32911 0.68871 0.0
C418 C 0.91545 0.33369 0.71504 0.0
C419 C 0.92005 0.30812 0.69668 0.0
C420 C 0.90659 0.31368 0.68522 0.0
C421 C 0.92441 0.31787 0.71191 0.0
C422 C 0.90195 0.33923 0.70357 0.0
C423 C 0.88227 0.33389 0.67718 0.0
O424 O 0.831 0.34983 0.66719 0.0
O425 O 0.84792 0.36619 0.65002 0.0
O426 O 0.8839 0.34882 0.66836 0.0
O427 O 0.86651 0.33158 0.68417 0.0
H428 H 0.84805 0.32629 0.64113 0.0
H429 H 0.83786 0.30673 0.61718 0.0
H430 H 0.79602 0.34296 0.60457 0.0
H431 H 0.80645 0.36252 0.62825 0.0
H432 H 0.80434 0.40635 0.72141 0.0
H433 H 0.82132 0.38204 0.70963 0.0
H434 H 0.84963 0.44135 0.71512 0.0
H435 H 0.86688 0.41679 0.70392 0.0
H436 H 0.91872 0.34165 0.72649 0.0
H437 H 0.92662 0.29585 0.69395 0.0
H438 H 0.90316 0.30568 0.67383 0.0
H439 H 0.89494 0.35123 0.70645 0.0
C440 C 0.13515 0.32868 0.68788 0.0
C441 C 0.13449 0.33106 0.70628 0.0
C442 C 0.10622 0.31498 0.70754 0.0
C443 C 0.12016 0.32426 0.716 0.0
C444 C 0.10658 0.31334 0.68902 0.0
C445 C 0.12094 0.32006 0.67932 0.0
U446 U 0.17569 0.35888 0.67862 0.0
O447 O 0.20277 0.35162 0.67119 0.0
O448 O 0.18682 0.3678 0.65319 0.0
C449 C 0.20162 0.35915 0.65555 0.0
C450 C 0.1509 0.3341 0.67755 0.0
C451 C 0.20789 0.34861 0.64052 0.0
C452 C 0.20272 0.32952 0.61511 0.0
C453 C 0.19618 0.33929 0.6293 0.0
C454 C 0.23266 0.33825 0.62327 0.0
C455 C 0.22108 0.32883 0.61198 0.0
C456 C 0.22614 0.34801 0.63735 0.0
C457 C 0.18591 0.39835 0.70916 0.0
C458 C 0.21412 0.41432 0.71063 0.0
C459 C 0.18903 0.42479 0.7271 0.0
C460 C 0.17863 0.41078 0.72056 0.0
C461 C 0.20694 0.42668 0.72231 0.0
C462 C 0.20369 0.40031 0.70407 0.0
C463 C 0.17496 0.3831 0.70338 0.0
O464 O 0.14981 0.349 0.66867 0.0
O465 O 0.1663 0.33214 0.68547 0.0
O466 O 0.18207 0.36753 0.70565 0.0
O467 O 0.16683 0.38475 0.68805 0.0
H468 H 0.14525 0.33775 0.71318 0.0
H469 H 0.12029 0.32573 0.73024 0.0
H470 H 0.09586 0.30664 0.68205 0.0
H471 H 0.12112 0.31819 0.66513 0.0
H472 H 0.19341 0.32266 0.60651 0.0
H473 H 0.18202 0.33957 0.63148 0.0
H474 H 0.24686 0.33786 0.62137 0.0
H475 H 0.2354 0.35509 0.64586 0.0
H476 H 0.22796 0.41515 0.70699 0.0
H477 H 0.18311 0.43408 0.73604 0.0
H478 H 0.16494 0.40948 0.72465 0.0
H479 H 0.20958 0.39082 0.69532 0.0
C480 C 0.13441 0.32798 0.34706 0.0
C481 C 0.13615 0.32507 0.32882 0.0
C482 C 0.10549 0.31451 0.32692 0.0
C483 C 0.1219 0.31831 0.31891 0.0
C484 C 0.10363 0.31795 0.34507 0.0
C485 C 0.11795 0.32458 0.35503 0.0
U486 U 0.17481 0.35775 0.35864 0.0
O487 O 0.18522 0.36568 0.38484 0.0
O488 O 0.20159 0.35028 0.36693 0.0
C489 C 0.19986 0.35675 0.38291 0.0
C490 C 0.14982 0.33319 0.35821 0.0
C491 C 0.20516 0.34517 0.39787 0.0
C492 C 0.21712 0.31758 0.40908 0.0
C493 C 0.2105 0.32772 0.39508 0.0
C494 C 0.21268 0.34186 0.4291 0.0
C495 C 0.21841 0.32455 0.42625 0.0
C496 C 0.20617 0.35206 0.41506 0.0
C497 C 0.18681 0.39739 0.32891 0.0
C498 C 0.213 0.41594 0.33361 0.0
C499 C 0.19542 0.41939 0.30694 0.0
C500 C 0.18379 0.40606 0.31278 0.0
C501 C 0.21037 0.42424 0.31712 0.0
C502 C 0.20136 0.40256 0.33943 0.0
C503 C 0.17521 0.38243 0.33405 0.0
O504 O 0.16556 0.33118 0.35123 0.0
O505 O 0.14848 0.34792 0.36717 0.0
O506 O 0.16676 0.38396 0.3491 0.0
O507 O 0.18202 0.36675 0.33191 0.0
H508 H 0.14868 0.3275 0.32227 0.0
H509 H 0.124 0.31538 0.30509 0.0
H510 H 0.09117 0.31519 0.35165 0.0
H511 H 0.11628 0.32664 0.36908 0.0
H512 H 0.22185 0.30449 0.40628 0.0
H513 H 0.21006 0.32199 0.38199 0.0
H514 H 0.2135 0.34763 0.44216 0.0
H515 H 0.20227 0.3655 0.41758 0.0
H516 H 0.22422 0.41961 0.3419 0.0
H517 H 0.19309 0.42547 0.29416 0.0
H518 H 0.17263 0.40221 0.30447 0.0
H519 H 0.20388 0.39603 0.35196 0.0
C520 C 0.13955 0.68701 0.32684 0.0
C521 C 0.13032 0.69861 0.33774 0.0
C522 C 0.11068 0.70615 0.31313 0.0
C523 C 0.116 0.70816 0.3309 0.0
C524 C 0.12018 0.69468 0.30231 0.0
C525 C 0.13439 0.68518 0.30912 0.0
U526 U 0.17791 0.67653 0.35941 0.0
O527 O 0.18733 0.65039 0.36796 0.0
O528 O 0.20492 0.66835 0.35313 0.0
C529 C 0.20249 0.65237 0.35965 0.0
C530 C 0.15464 0.67669 0.33337 0.0
C531 C 0.20804 0.63744 0.34844 0.0
C532 C 0.22088 0.62615 0.32135 0.0
C533 C 0.21412 0.64015 0.33107 0.0
C534 C 0.21503 0.60627 0.34585 0.0
C535 C 0.22175 0.6091 0.32874 0.0
C536 C 0.20837 0.62031 0.35561 0.0
C537 C 0.18806 0.7055 0.39986 0.0
C538 C 0.21501 0.70311 0.41745 0.0
C539 C 0.19361 0.72541 0.42449 0.0
C540 C 0.18276 0.71947 0.41058 0.0
C541 C 0.20998 0.71744 0.42796 0.0
C542 C 0.20413 0.69717 0.40354 0.0
C543 C 0.17724 0.70063 0.38428 0.0
O544 O 0.17027 0.68453 0.33243 0.0
O545 O 0.15228 0.66777 0.34815 0.0
O546 O 0.16838 0.68557 0.38528 0.0
O547 O 0.18502 0.70306 0.36895 0.0
H548 H 0.1342 0.70029 0.35145 0.0
H549 H 0.10903 0.71701 0.33952 0.0
H550 H 0.11682 0.69325 0.28844 0.0
H551 H 0.14146 0.67643 0.30046 0.0
H552 H 0.226 0.6288 0.30824 0.0
H553 H 0.21407 0.65316 0.32509 0.0
H554 H 0.21513 0.59324 0.35178 0.0
H555 H 0.20376 0.61782 0.36895 0.0
H556 H 0.22755 0.69672 0.41979 0.0
H557 H 0.18953 0.73672 0.43202 0.0
H558 H 0.17046 0.72615 0.40786 0.0
H559 H 0.20846 0.68638 0.39538 0.0
C560 C 0.82692 0.63286 0.3486 0.0
C561 C 0.83549 0.63031 0.33243 0.0
C562 C 0.81576 0.60527 0.32588 0.0
C563 C 0.82993 0.61664 0.32115 0.0
C564 C 0.80758 0.60763 0.34233 0.0
C565 C 0.81313 0.62128 0.35357 0.0
U566 U 0.855 0.67397 0.361 0.0
O567 O 0.84619 0.70006 0.36937 0.0
O568 O 0.86222 0.68408 0.38747 0.0
C569 C 0.85271 0.69834 0.38545 0.0
C570 C 0.83131 0.64811 0.35991 0.0
C571 C 0.84094 0.70304 0.40029 0.0
C572 C 0.81324 0.71484 0.41115 0.0
C573 C 0.82346 0.70852 0.39726 0.0
C574 C 0.83748 0.70983 0.43156 0.0
C575 C 0.82016 0.71572 0.42846 0.0
C576 C 0.84775 0.70359 0.41763 0.0
C577 C 0.89517 0.68819 0.33241 0.0
C578 C 0.90632 0.71635 0.32093 0.0
C579 C 0.92642 0.69215 0.32518 0.0
C580 C 0.9124 0.68156 0.33146 0.0
C581 C 0.92351 0.70961 0.31962 0.0
C582 C 0.89233 0.7058 0.32732 0.0
C583 C 0.88025 0.67614 0.33727 0.0
O584 O 0.84613 0.64726 0.36909 0.0
O585 O 0.82891 0.66366 0.3526 0.0
O586 O 0.86416 0.68203 0.33462 0.0
O587 O 0.88189 0.66726 0.35217 0.0
H588 H 0.84615 0.63915 0.32834 0.0
H589 H 0.83648 0.61518 0.30855 0.0
H590 H 0.79636 0.59942 0.3462 0.0
H591 H 0.80628 0.62312 0.36595 0.0
H592 H 0.80016 0.71973 0.40816 0.0
H593 H 0.8178 0.70846 0.38406 0.0
H594 H 0.84321 0.71035 0.44472 0.0
H595 H 0.86122 0.69962 0.42034 0.0
H596 H 0.90348 0.72957 0.31635 0.0
H597 H 0.9395 0.68656 0.32436 0.0
H598 H 0.91496 0.66802 0.33519 0.0
H599 H 0.8792 0.71132 0.32775 0.0
C600 C 0.84625 0.39661 0.32819 0.0
C601 C 0.82801 0.39411 0.32496 0.0
C602 C 0.82536 0.42484 0.3156 0.0
C603 C 0.81773 0.40803 0.31865 0.0
C604 C 0.84353 0.42741 0.31923 0.0
C605 C 0.85385 0.41344 0.32543 0.0
U606 U 0.8585 0.35661 0.35737 0.0
O607 O 0.86743 0.33037 0.34964 0.0
O608 O 0.88488 0.34733 0.3658 0.0
C609 C 0.88327 0.33264 0.35671 0.0
C610 C 0.85775 0.3817 0.33323 0.0
C611 C 0.89855 0.32768 0.34565 0.0
C612 C 0.91062 0.31762 0.31772 0.0
C613 C 0.89657 0.32433 0.32747 0.0
C614 C 0.92917 0.31812 0.34393 0.0
C615 C 0.92707 0.31427 0.32585 0.0
C616 C 0.91506 0.32472 0.35371 0.0
C617 C 0.82728 0.34377 0.39628 0.0
C618 C 0.8309 0.33086 0.42571 0.0
C619 C 0.80311 0.32709 0.40993 0.0
C620 C 0.80994 0.33681 0.39571 0.0
C621 C 0.81338 0.32424 0.42523 0.0
C622 C 0.83779 0.3406 0.41139 0.0
C623 C 0.83346 0.35502 0.38137 0.0
O624 O 0.86662 0.38326 0.34819 0.0
O625 O 0.85114 0.36573 0.33075 0.0
O626 O 0.83171 0.34819 0.36551 0.0
O627 O 0.84835 0.36408 0.38349 0.0
H628 H 0.82173 0.38129 0.32687 0.0
H629 H 0.80391 0.40541 0.31555 0.0
H630 H 0.84983 0.44018 0.31705 0.0
H631 H 0.86788 0.41571 0.32774 0.0
H632 H 0.90832 0.31438 0.30396 0.0
H633 H 0.88399 0.32636 0.32084 0.0
H634 H 0.94165 0.31572 0.3506 0.0
H635 H 0.91692 0.32708 0.36773 0.0
H636 H 0.83916 0.32878 0.43727 0.0
H637 H 0.78975 0.32173 0.4089 0.0
H638 H 0.80155 0.33905 0.38426 0.0
H639 H 0.85122 0.3458 0.41226 0.0
C640 C 0.68846 0.13613 0.70905 0.0
C641 C 0.70625 0.13906 0.71404 0.0
C642 C 0.70917 0.10807 0.72238 0.0
C643 C 0.71643 0.12522 0.7207 0.0
C644 C 0.69149 0.10509 0.71701 0.0
C645 C 0.68126 0.11897 0.71046 0.0
U646 U 0.67547 0.17533 0.67893 0.0
O647 O 0.649 0.18425 0.67067 0.0
O648 O 0.66641 0.20169 0.68629 0.0
C649 C 0.65066 0.19931 0.6791 0.0
C650 C 0.67687 0.15093 0.70374 0.0
C651 C 0.63557 0.20445 0.6901 0.0
C652 C 0.6183 0.20213 0.71708 0.0
C653 C 0.63195 0.19609 0.70631 0.0
C654 C 0.61152 0.22469 0.69539 0.0
C655 C 0.608 0.2166 0.71181 0.0
C656 C 0.62514 0.21864 0.68465 0.0
C657 C 0.70465 0.1876 0.63865 0.0
C658 C 0.71508 0.21555 0.62611 0.0
C659 C 0.71317 0.18961 0.60765 0.0
C660 C 0.70681 0.17972 0.62205 0.0
C661 C 0.71757 0.20761 0.60954 0.0
C662 C 0.70861 0.2057 0.64046 0.0
C663 C 0.69967 0.17645 0.65409 0.0
O664 O 0.6835 0.16698 0.70562 0.0
O665 O 0.66764 0.14894 0.68905 0.0
O666 O 0.6849 0.1671 0.65269 0.0
O667 O 0.70193 0.18351 0.66981 0.0
H668 H 0.71222 0.15213 0.71328 0.0
H669 H 0.72983 0.12815 0.72514 0.0
H670 H 0.68548 0.09206 0.71813 0.0
H671 H 0.66755 0.11635 0.70684 0.0
H672 H 0.61593 0.19564 0.72967 0.0
H673 H 0.6399 0.18514 0.71077 0.0
H674 H 0.60419 0.23612 0.69111 0.0
H675 H 0.62782 0.22535 0.67224 0.0
H676 H 0.71877 0.22924 0.62822 0.0
H677 H 0.71493 0.18309 0.59509 0.0
H678 H 0.70397 0.16577 0.62032 0.0
H679 H 0.70721 0.21218 0.65309 0.0
C680 C 0.32283 0.19012 0.63876 0.0
C681 C 0.33246 0.19205 0.62297 0.0
C682 C 0.30977 0.21122 0.61069 0.0
C683 C 0.32596 0.20247 0.60907 0.0
C684 C 0.30018 0.20919 0.62646 0.0
C685 C 0.3066 0.19873 0.64028 0.0
U686 U 0.3549 0.17778 0.67679 0.0
O687 O 0.34871 0.16875 0.70371 0.0
O688 O 0.36329 0.15148 0.68596 0.0
C689 C 0.35511 0.15295 0.70117 0.0
C690 C 0.3289 0.1787 0.65351 0.0
C691 C 0.34383 0.13773 0.70679 0.0
C692 C 0.31669 0.12577 0.71981 0.0
C693 C 0.32644 0.14003 0.71283 0.0
C694 C 0.34118 0.10645 0.71418 0.0
C695 C 0.32407 0.10888 0.72091 0.0
C696 C 0.35098 0.12074 0.70731 0.0
C697 C 0.39536 0.20733 0.68728 0.0
C698 C 0.41473 0.2022 0.71254 0.0
C699 C 0.41782 0.22921 0.6955 0.0
C700 C 0.40407 0.22355 0.68428 0.0
C701 C 0.42305 0.21878 0.70998 0.0
C702 C 0.40094 0.19655 0.70132 0.0
C703 C 0.37981 0.20247 0.67636 0.0
O704 O 0.34346 0.16972 0.65114 0.0
O705 O 0.32786 0.18549 0.66942 0.0
O706 O 0.36445 0.20432 0.68413 0.0
O707 O 0.38082 0.1877 0.6674 0.0
H708 H 0.34492 0.18543 0.62127 0.0
H709 H 0.33351 0.20349 0.59697 0.0
H710 H 0.28773 0.21584 0.6282 0.0
H711 H 0.29881 0.19735 0.6522 0.0
H712 H 0.30358 0.12812 0.72494 0.0
H713 H 0.32047 0.15292 0.71262 0.0
H714 H 0.3471 0.09354 0.71447 0.0
H715 H 0.36433 0.11858 0.70273 0.0
H716 H 0.41868 0.19373 0.7234 0.0
H717 H 0.4239 0.24207 0.69324 0.0
H718 H 0.3999 0.23206 0.67353 0.0
H719 H 0.39436 0.18397 0.70382 0.0
C720 C 0.3264 0.84762 0.63809 0.0
C721 C 0.33015 0.8296 0.63668 0.0
C722 C 0.31254 0.82764 0.60954 0.0
C723 C 0.32329 0.8197 0.62252 0.0
C724 C 0.3095 0.84586 0.61061 0.0
C725 C 0.31631 0.85572 0.62479 0.0
U726 U 0.35684 0.85736 0.67819 0.0
O727 O 0.3655 0.88291 0.6893 0.0
O728 O 0.34945 0.86453 0.70531 0.0
C729 C 0.35682 0.88032 0.70414 0.0
C730 C 0.33189 0.85795 0.65376 0.0
C731 C 0.34601 0.89503 0.71048 0.0
C732 C 0.32626 0.91968 0.70546 0.0
C733 C 0.33631 0.90579 0.69887 0.0
C734 C 0.33545 0.91213 0.73525 0.0
C735 C 0.32565 0.92295 0.72377 0.0
C736 C 0.3455 0.89835 0.72867 0.0
C737 C 0.39677 0.82794 0.6882 0.0
C738 C 0.41207 0.82621 0.71658 0.0
C739 C 0.42376 0.81105 0.69121 0.0
C740 C 0.4098 0.81735 0.68079 0.0
C741 C 0.42498 0.81525 0.70927 0.0
C742 C 0.39813 0.83254 0.70612 0.0
C743 C 0.38148 0.83326 0.67726 0.0
O744 O 0.33007 0.84991 0.6691 0.0
O745 O 0.3468 0.86708 0.65249 0.0
O746 O 0.38298 0.84859 0.66914 0.0
O747 O 0.36582 0.83058 0.68437 0.0
H748 H 0.33797 0.82308 0.64676 0.0
H749 H 0.32586 0.8057 0.62207 0.0
H750 H 0.30163 0.85244 0.60063 0.0
H751 H 0.31336 0.86964 0.62557 0.0
H752 H 0.31911 0.92794 0.69623 0.0
H753 H 0.33653 0.90348 0.68475 0.0
H754 H 0.33513 0.91416 0.74942 0.0
H755 H 0.35286 0.89019 0.73785 0.0
H756 H 0.41237 0.82937 0.73052 0.0
H757 H 0.43348 0.80267 0.68518 0.0
H758 H 0.40899 0.81365 0.66698 0.0
H759 H 0.38817 0.84067 0.71212 0.0
C760 C 0.63349 0.82728 0.68862 0.0
C761 C 0.62867 0.83759 0.70312 0.0
C762 C 0.60576 0.81592 0.7111 0.0
C763 C 0.61487 0.83199 0.71423 0.0
C764 C 0.61023 0.806 0.69618 0.0
C765 C 0.624 0.81162 0.68508 0.0
U766 U 0.67414 0.8565 0.67829 0.0
O767 O 0.70104 0.8487 0.67086 0.0
O768 O 0.68527 0.86491 0.65271 0.0
C769 C 0.69996 0.8561 0.65514 0.0
C770 C 0.64898 0.83205 0.67774 0.0
C771 C 0.70604 0.84533 0.64024 0.0
C772 C 0.7006 0.82554 0.61544 0.0
C773 C 0.69422 0.83552 0.62955 0.0
C774 C 0.73057 0.83501 0.62265 0.0
C775 C 0.71888 0.82512 0.61188 0.0
C776 C 0.72421 0.84499 0.63665 0.0
C777 C 0.68556 0.89616 0.70847 0.0
C778 C 0.71337 0.90814 0.72021 0.0
C779 C 0.68789 0.92693 0.71752 0.0
C780 C 0.67796 0.91281 0.71051 0.0
C781 C 0.7056 0.92466 0.72286 0.0
C782 C 0.70348 0.89406 0.7131 0.0
C783 C 0.67425 0.88101 0.70275 0.0
O784 O 0.64805 0.84691 0.66876 0.0
O785 O 0.66442 0.82994 0.68554 0.0
O786 O 0.68071 0.86518 0.70524 0.0
O787 O 0.66593 0.8827 0.68752 0.0
H788 H 0.63583 0.84975 0.70605 0.0
H789 H 0.61153 0.84007 0.72546 0.0
H790 H 0.60355 0.79354 0.69347 0.0
H791 H 0.62756 0.80347 0.67397 0.0
H792 H 0.69122 0.81829 0.60723 0.0
H793 H 0.68012 0.83561 0.63208 0.0
H794 H 0.74472 0.83484 0.6204 0.0
H795 H 0.73354 0.85244 0.64475 0.0
H796 H 0.72696 0.90593 0.72423 0.0
H797 H 0.68162 0.93958 0.71898 0.0
H798 H 0.6642 0.9148 0.70701 0.0
H799 H 0.70978 0.88142 0.71165 0.0
C800 C 0.63431 0.82558 0.35163 0.0
C801 C 0.62809 0.83427 0.33642 0.0
C802 C 0.60693 0.81019 0.33097 0.0
C803 C 0.61444 0.82664 0.32617 0.0
C804 C 0.61293 0.80183 0.34647 0.0
C805 C 0.62646 0.80948 0.35671 0.0
U806 U 0.67299 0.85846 0.36026 0.0
O807 O 0.68375 0.86801 0.38571 0.0
O808 O 0.70041 0.85271 0.36801 0.0
C809 C 0.69899 0.8602 0.38354 0.0
C810 C 0.64965 0.83236 0.36182 0.0
C811 C 0.70567 0.84982 0.39862 0.0
C812 C 0.70403 0.82438 0.41838 0.0
C813 C 0.69658 0.83475 0.4049 0.0
C814 C 0.72948 0.84426 0.41957 0.0
C815 C 0.72069 0.82892 0.42566 0.0
C816 C 0.72201 0.85462 0.40621 0.0
C817 C 0.68256 0.89755 0.32947 0.0
C818 C 0.70949 0.9154 0.33232 0.0
C819 C 0.68896 0.92102 0.30827 0.0
C820 C 0.67784 0.90738 0.31446 0.0
C821 C 0.70502 0.92505 0.31701 0.0
C822 C 0.69835 0.90178 0.33851 0.0
C823 C 0.67149 0.88229 0.33491 0.0
O824 O 0.66504 0.83118 0.35396 0.0
O825 O 0.64763 0.84745 0.37 0.0
O826 O 0.66319 0.88382 0.35004 0.0
O827 O 0.6789 0.86686 0.33304 0.0
H828 H 0.6341 0.84668 0.33224 0.0
H829 H 0.61027 0.83323 0.31414 0.0
H830 H 0.60737 0.78917 0.35049 0.0
H831 H 0.63111 0.80257 0.36839 0.0
H832 H 0.69709 0.81249 0.42264 0.0
H833 H 0.68397 0.83078 0.3991 0.0
H834 H 0.7423 0.84809 0.42496 0.0
H835 H 0.72923 0.86618 0.40151 0.0
H836 H 0.72178 0.9182 0.33933 0.0
H837 H 0.68532 0.92792 0.29624 0.0
H838 H 0.66576 0.90421 0.30724 0.0
H839 H 0.70224 0.89429 0.3501 0.0
C840 C 0.63577 0.18718 0.33053 0.0
C841 C 0.63306 0.20355 0.33857 0.0
C842 C 0.60819 0.20914 0.31863 0.0
C843 C 0.61942 0.21445 0.33264 0.0
C844 C 0.61066 0.19249 0.31099 0.0
C845 C 0.62432 0.18162 0.31691 0.0
U846 U 0.67567 0.17645 0.3602 0.0
O847 O 0.68628 0.15078 0.36841 0.0
O848 O 0.70267 0.16907 0.35265 0.0
C849 C 0.70124 0.15332 0.35988 0.0
C850 C 0.65109 0.17629 0.33537 0.0
C851 C 0.70754 0.13853 0.34912 0.0
C852 C 0.70266 0.11418 0.32865 0.0
C853 C 0.69609 0.12835 0.33839 0.0
C854 C 0.73213 0.12046 0.34008 0.0
C855 C 0.72074 0.10995 0.32957 0.0
C856 C 0.72558 0.13451 0.34979 0.0
C857 C 0.68623 0.20583 0.40055 0.0
C858 C 0.71493 0.21024 0.41488 0.0
C859 C 0.68843 0.22085 0.42885 0.0
C860 C 0.67819 0.21424 0.4148 0.0
C861 C 0.70698 0.21932 0.42885 0.0
C862 C 0.70466 0.20356 0.40085 0.0
C863 C 0.67527 0.20046 0.38516 0.0
O864 O 0.66666 0.1841 0.3336 0.0
O865 O 0.6497 0.16708 0.35009 0.0
O866 O 0.66684 0.1852 0.38646 0.0
O867 O 0.6824 0.20314 0.36954 0.0
H868 H 0.64178 0.20808 0.34911 0.0
H869 H 0.61785 0.22721 0.33877 0.0
H870 H 0.60252 0.18817 0.29994 0.0
H871 H 0.62628 0.16907 0.31047 0.0
H872 H 0.6936 0.10642 0.32055 0.0
H873 H 0.68212 0.1313 0.3376 0.0
H874 H 0.7462 0.11793 0.34065 0.0
H875 H 0.73466 0.14231 0.35785 0.0
H876 H 0.72918 0.20885 0.41448 0.0
H877 H 0.68186 0.22741 0.43961 0.0
H878 H 0.66398 0.21602 0.41489 0.0
H879 H 0.71116 0.19702 0.39003 0.0
C880 C 0.32817 0.13818 0.34724 0.0
C881 C 0.32263 0.14076 0.32962 0.0
C882 C 0.31524 0.10942 0.32674 0.0
C883 C 0.31619 0.12657 0.31954 0.0
C884 C 0.32113 0.1068 0.34423 0.0
C885 C 0.32749 0.12101 0.35436 0.0
U886 U 0.3583 0.17774 0.3608 0.0
O887 O 0.351 0.20426 0.36939 0.0
O888 O 0.36573 0.1871 0.3875 0.0
C889 C 0.35717 0.20196 0.38552 0.0
C890 C 0.33325 0.15328 0.35876 0.0
C891 C 0.3455 0.20718 0.40025 0.0
C892 C 0.31747 0.21828 0.41106 0.0
C893 C 0.32769 0.2116 0.39732 0.0
C894 C 0.34241 0.2157 0.43111 0.0
C895 C 0.32473 0.22055 0.42811 0.0
C896 C 0.35267 0.20912 0.41734 0.0
C897 C 0.39946 0.18914 0.33267 0.0
C898 C 0.41777 0.21562 0.33628 0.0
C899 C 0.42368 0.19542 0.31241 0.0
C900 C 0.40968 0.1845 0.31805 0.0
C901 C 0.4278 0.21122 0.32134 0.0
C902 C 0.40372 0.20466 0.34191 0.0
C903 C 0.38386 0.17816 0.3373 0.0
O904 O 0.34762 0.15152 0.3685 0.0
O905 O 0.33178 0.16917 0.35189 0.0
O906 O 0.36844 0.18555 0.33467 0.0
O907 O 0.38473 0.16936 0.3523 0.0
H908 H 0.32278 0.15381 0.32372 0.0
H909 H 0.31131 0.12919 0.3063 0.0
H910 H 0.32057 0.09377 0.35018 0.0
H911 H 0.33151 0.11864 0.36793 0.0
H912 H 0.30407 0.2223 0.40811 0.0
H913 H 0.32175 0.21038 0.3843 0.0
H914 H 0.34841 0.21726 0.44407 0.0
H915 H 0.36638 0.20593 0.41994 0.0
H916 H 0.42059 0.22771 0.34341 0.0
H917 H 0.43079 0.19186 0.30061 0.0
H918 H 0.40649 0.17263 0.31067 0.0
H919 H 0.39594 0.20849 0.3532 0.0
C920 C 0.34611 0.89712 0.3286 0.0
C921 C 0.33231 0.90237 0.33964 0.0
C922 C 0.32318 0.9243 0.31777 0.0
C923 C 0.32098 0.91589 0.3343 0.0
C924 C 0.33736 0.91931 0.30704 0.0
C925 C 0.34868 0.90583 0.3124 0.0
U926 U 0.35888 0.85802 0.35844 0.0
O927 O 0.36716 0.83141 0.35108 0.0
O928 O 0.38544 0.84864 0.36601 0.0
C929 C 0.38331 0.83372 0.3574 0.0
C930 C 0.35751 0.8822 0.33337 0.0
C931 C 0.39809 0.82843 0.34584 0.0
C932 C 0.40925 0.81868 0.31741 0.0
C933 C 0.39551 0.82528 0.32769 0.0
C934 C 0.42859 0.81878 0.34306 0.0
C935 C 0.42594 0.81524 0.32498 0.0
C936 C 0.41481 0.82528 0.35336 0.0
C937 C 0.33022 0.84743 0.39963 0.0
C938 C 0.32601 0.81919 0.41468 0.0
C939 C 0.31472 0.84581 0.42773 0.0
C940 C 0.32145 0.85571 0.41353 0.0
C941 C 0.31651 0.82737 0.42824 0.0
C942 C 0.33278 0.82913 0.40048 0.0
C943 C 0.33531 0.85798 0.38392 0.0
O944 O 0.3671 0.88402 0.34785 0.0
O945 O 0.35003 0.86648 0.33199 0.0
O946 O 0.33259 0.85043 0.36851 0.0
O947 O 0.35044 0.86679 0.38484 0.0
H948 H 0.33015 0.89583 0.35224 0.0
H949 H 0.31036 0.91964 0.343 0.0
H950 H 0.33935 0.92544 0.29421 0.0
H951 H 0.35926 0.90195 0.30369 0.0
H952 H 0.40657 0.81568 0.30366 0.0
H953 H 0.38276 0.82748 0.32148 0.0
H954 H 0.44127 0.8163 0.3493 0.0
H955 H 0.41712 0.82751 0.36733 0.0
H956 H 0.32759 0.80502 0.4147 0.0
H957 H 0.3078 0.85254 0.43815 0.0
H958 H 0.3194 0.86982 0.41318 0.0
H959 H 0.33955 0.82245 0.38992 0.0
C960 C 0.68721 0.63692 0.20959 0.0
C961 C 0.68899 0.62164 0.19929 0.0
C962 C 0.70731 0.60815 0.22225 0.0
C963 C 0.69893 0.60739 0.20558 0.0
C964 C 0.70548 0.62346 0.23245 0.0
C965 C 0.69553 0.63761 0.22623 0.0
U966 U 0.67533 0.67589 0.17852 0.0
O967 O 0.64914 0.68581 0.17059 0.0
O968 O 0.66754 0.70276 0.18566 0.0
C969 C 0.65147 0.7008 0.17907 0.0
C970 C 0.67619 0.65197 0.20384 0.0
C971 C 0.63675 0.70701 0.19029 0.0
C972 C 0.60631 0.70485 0.20097 0.0
C973 C 0.62036 0.69789 0.1913 0.0
C974 C 0.62478 0.73001 0.20891 0.0
C975 C 0.60828 0.72114 0.20966 0.0
C976 C 0.63875 0.72311 0.19926 0.0
C977 C 0.70447 0.68649 0.13797 0.0
C978 C 0.70629 0.71476 0.12261 0.0
C979 C 0.72147 0.68955 0.11087 0.0
C980 C 0.7151 0.67915 0.12489 0.0
C981 C 0.71729 0.70753 0.10964 0.0
C982 C 0.69989 0.70433 0.13661 0.0
C983 C 0.69931 0.67565 0.15344 0.0
O984 O 0.68366 0.6677 0.20523 0.0
O985 O 0.66667 0.65009 0.1893 0.0
O986 O 0.6841 0.667 0.15228 0.0
O987 O 0.70191 0.68304 0.16894 0.0
H988 H 0.68261 0.62059 0.18646 0.0
H989 H 0.69981 0.59568 0.19751 0.0
H990 H 0.71188 0.62457 0.24528 0.0
H991 H 0.69428 0.64913 0.23451 0.0
H992 H 0.59378 0.69767 0.20136 0.0
H993 H 0.61829 0.68551 0.18446 0.0
H994 H 0.62692 0.74233 0.21586 0.0
H995 H 0.65114 0.73051 0.19867 0.0
H996 H 0.70314 0.72865 0.12231 0.0
H997 H 0.72987 0.68358 0.1011 0.0
H998 H 0.71882 0.66542 0.12572 0.0
H999 H 0.69176 0.71029 0.14663 0.0
C1000 C 0.32193 0.6872 0.13863 0.0
C1001 C 0.33387 0.69692 0.12805 0.0
C1002 C 0.3094 0.70757 0.10984 0.0
C1003 C 0.32766 0.70695 0.11372 0.0
C1004 C 0.29758 0.69767 0.12042 0.0
C1005 C 0.30379 0.6876 0.13463 0.0
U1006 U 0.35332 0.67846 0.17792 0.0
O1007 O 0.34672 0.67033 0.20511 0.0
O1008 O 0.36301 0.65331 0.18866 0.0
C1009 C 0.35468 0.65513 0.20374 0.0
C1010 C 0.32789 0.67679 0.15404 0.0
C1011 C 0.34468 0.63961 0.21039 0.0
C1012 C 0.32382 0.61503 0.2065 0.0
C1013 C 0.33314 0.62966 0.19954 0.0
C1014 C 0.33736 0.62034 0.23514 0.0
C1015 C 0.32596 0.61012 0.22437 0.0
C1016 C 0.34666 0.63485 0.2282 0.0
C1017 C 0.39229 0.71064 0.18786 0.0
C1018 C 0.42243 0.70773 0.19925 0.0
C1019 C 0.40549 0.73346 0.20657 0.0
C1020 C 0.39124 0.72692 0.19652 0.0
C1021 C 0.42125 0.72393 0.20813 0.0
C1022 C 0.4081 0.70112 0.18925 0.0
C1023 C 0.37701 0.70429 0.17703 0.0
O1024 O 0.34299 0.66856 0.15248 0.0
O1025 O 0.32609 0.68441 0.16947 0.0
O1026 O 0.36133 0.70576 0.18429 0.0
O1027 O 0.37879 0.68938 0.16842 0.0
H1028 H 0.34795 0.69682 0.13091 0.0
H1029 H 0.33714 0.71416 0.10566 0.0
H1030 H 0.28344 0.69798 0.11792 0.0
H1031 H 0.29436 0.68024 0.14265 0.0
H1032 H 0.31501 0.60751 0.19792 0.0
H1033 H 0.33132 0.63322 0.18576 0.0
H1034 H 0.33888 0.61731 0.24908 0.0
H1035 H 0.35535 0.64247 0.23683 0.0
H1036 H 0.43451 0.70023 0.19988 0.0
H1037 H 0.40408 0.74592 0.21331 0.0
H1038 H 0.37932 0.73464 0.19554 0.0
H1039 H 0.40947 0.68862 0.18257 0.0
C1040 C 0.32697 0.34573 0.14114 0.0
C1041 C 0.33837 0.33621 0.13027 0.0
C1042 C 0.31321 0.32622 0.11222 0.0
C1043 C 0.33153 0.32649 0.11593 0.0
C1044 C 0.30191 0.33553 0.1234 0.0
C1045 C 0.30873 0.34522 0.13763 0.0
U1046 U 0.35947 0.35734 0.1795 0.0
O1047 O 0.36817 0.38375 0.18864 0.0
O1048 O 0.35314 0.36609 0.20632 0.0
C1049 C 0.35979 0.38204 0.20377 0.0
C1050 C 0.33352 0.35647 0.15612 0.0
C1051 C 0.34863 0.39701 0.20913 0.0
C1052 C 0.321 0.40845 0.22051 0.0
C1053 C 0.33077 0.39446 0.21385 0.0
C1054 C 0.34645 0.42799 0.21719 0.0
C1055 C 0.3288 0.42531 0.22259 0.0
C1056 C 0.35627 0.41397 0.21064 0.0
C1057 C 0.39967 0.32864 0.19019 0.0
C1058 C 0.42 0.33461 0.21462 0.0
C1059 C 0.42146 0.30693 0.1989 0.0
C1060 C 0.40761 0.31225 0.1878 0.0
C1061 C 0.4276 0.31789 0.21266 0.0
C1062 C 0.40609 0.33991 0.20353 0.0
C1063 C 0.38415 0.33325 0.17928 0.0
O1064 O 0.33239 0.34906 0.17182 0.0
O1065 O 0.34839 0.36545 0.15376 0.0
O1066 O 0.38532 0.3481 0.17025 0.0
O1067 O 0.36874 0.33097 0.18701 0.0
H1068 H 0.35251 0.33633 0.13282 0.0
H1069 H 0.34054 0.31932 0.10764 0.0
H1070 H 0.2877 0.33514 0.1213 0.0
H1071 H 0.29969 0.35234 0.14595 0.0
H1072 H 0.30746 0.4059 0.2246 0.0
H1073 H 0.32443 0.38158 0.21282 0.0
H1074 H 0.35274 0.44089 0.21823 0.0
H1075 H 0.36999 0.41631 0.20705 0.0
H1076 H 0.42463 0.34348 0.2249 0.0
H1077 H 0.42694 0.29395 0.19712 0.0
H1078 H 0.4028 0.30335 0.17761 0.0
H1079 H 0.40013 0.35263 0.20556 0.0
C1080 C 0.63592 0.32656 0.18645 0.0
C1081 C 0.63539 0.32983 0.2047 0.0
C1082 C 0.60762 0.31302 0.20707 0.0
C1083 C 0.62136 0.32311 0.21491 0.0
C1084 C 0.60784 0.31046 0.18866 0.0
C1085 C 0.6219 0.31711 0.17848 0.0
U1086 U 0.67601 0.35697 0.17621 0.0
O1087 O 0.70279 0.35007 0.16772 0.0
O1088 O 0.68614 0.36624 0.15039 0.0
C1089 C 0.70103 0.35764 0.15214 0.0
C1090 C 0.65131 0.33208 0.17566 0.0
C1091 C 0.70653 0.34711 0.1368 0.0
C1092 C 0.70931 0.319 0.12171 0.0
C1093 C 0.7026 0.32897 0.13565 0.0
C1094 C 0.72337 0.34529 0.10956 0.0
C1095 C 0.72008 0.32699 0.1087 0.0
C1096 C 0.7167 0.35522 0.1235 0.0
C1097 C 0.6866 0.39623 0.20721 0.0
C1098 C 0.71495 0.41166 0.21066 0.0
C1099 C 0.68877 0.42314 0.22455 0.0
C1100 C 0.67864 0.4092 0.21751 0.0
C1101 C 0.70712 0.42434 0.22154 0.0
C1102 C 0.70478 0.39772 0.20357 0.0
C1103 C 0.67584 0.38089 0.20128 0.0
O1104 O 0.64989 0.34707 0.16697 0.0
O1105 O 0.66695 0.33012 0.18309 0.0
O1106 O 0.68319 0.36539 0.20311 0.0
O1107 O 0.66728 0.38269 0.18621 0.0
H1108 H 0.64602 0.33719 0.21112 0.0
H1109 H 0.62159 0.32531 0.22905 0.0
H1110 H 0.59727 0.3031 0.18216 0.0
H1111 H 0.62199 0.31455 0.1644 0.0
H1112 H 0.70655 0.30494 0.12142 0.0
H1113 H 0.69471 0.32243 0.14573 0.0
H1114 H 0.73127 0.35191 0.09954 0.0
H1115 H 0.7198 0.36922 0.12409 0.0
H1116 H 0.72905 0.41222 0.20811 0.0
H1117 H 0.68228 0.4329 0.23254 0.0
H1118 H 0.66461 0.40835 0.22038 0.0
H1119 H 0.71119 0.38789 0.1956 0.0
C1120 C 0.63529 0.32728 0.84889 0.0
C1121 C 0.6255 0.33869 0.83804 0.0
C1122 C 0.60683 0.31398 0.82813 0.0
C1123 C 0.61131 0.3321 0.82781 0.0
C1124 C 0.6166 0.30272 0.83922 0.0
C1125 C 0.63065 0.30931 0.84947 0.0
U1126 U 0.67449 0.35922 0.85842 0.0
O1127 O 0.68544 0.36827 0.88395 0.0
O1128 O 0.70179 0.35277 0.86612 0.0
C1129 C 0.70034 0.35978 0.8819 0.0
C1130 C 0.65069 0.33351 0.85935 0.0
C1131 C 0.70663 0.34878 0.8969 0.0
C1132 C 0.70356 0.33679 0.92676 0.0
C1133 C 0.69695 0.34689 0.91267 0.0
C1134 C 0.72959 0.33034 0.90962 0.0
C1135 C 0.71994 0.32832 0.92536 0.0
C1136 C 0.72305 0.34048 0.89562 0.0
C1137 C 0.68447 0.39852 0.82782 0.0
C1138 C 0.71165 0.41604 0.8302 0.0
C1139 C 0.69074 0.42195 0.80655 0.0
C1140 C 0.67957 0.40845 0.81293 0.0
C1141 C 0.707 0.42577 0.81499 0.0
C1142 C 0.70047 0.40254 0.83657 0.0
C1143 C 0.67335 0.38334 0.83333 0.0
O1144 O 0.66611 0.33215 0.85159 0.0
O1145 O 0.64898 0.34843 0.86792 0.0
O1146 O 0.66515 0.38488 0.84852 0.0
O1147 O 0.6806 0.36786 0.83132 0.0
H1148 H 0.62889 0.35262 0.8374 0.0
H1149 H 0.60388 0.34116 0.81964 0.0
H1150 H 0.61364 0.28869 0.83966 0.0
H1151 H 0.63809 0.30029 0.8577 0.0
H1152 H 0.69595 0.33577 0.93882 0.0
H1153 H 0.68433 0.35327 0.9142 0.0
H1154 H 0.74218 0.3239 0.90805 0.0
H1155 H 0.73089 0.34184 0.88373 0.0
H1156 H 0.72409 0.41868 0.83698 0.0
H1157 H 0.68696 0.42891 0.7946 0.0
H1158 H 0.66733 0.40543 0.80593 0.0
H1159 H 0.70449 0.39497 0.84807 0.0
C1160 C 0.63535 0.68793 0.82465 0.0
C1161 C 0.62035 0.69005 0.83534 0.0
C1162 C 0.60625 0.70787 0.81239 0.0
C1163 C 0.60593 0.69991 0.82924 0.0
C1164 C 0.62127 0.70568 0.80178 0.0
C1165 C 0.63558 0.6958 0.80781 0.0
U1166 U 0.67509 0.67721 0.85523 0.0
O1167 O 0.68547 0.65153 0.86376 0.0
O1168 O 0.70206 0.66956 0.84788 0.0
C1169 C 0.70054 0.65393 0.85538 0.0
C1170 C 0.65064 0.67715 0.83029 0.0
C1171 C 0.70704 0.63896 0.84503 0.0
C1172 C 0.70277 0.61472 0.82433 0.0
C1173 C 0.69596 0.629 0.83374 0.0
C1174 C 0.73171 0.62042 0.83729 0.0
C1175 C 0.7207 0.61016 0.82618 0.0
C1176 C 0.72493 0.6346 0.84665 0.0
C1177 C 0.68649 0.70694 0.89518 0.0
C1178 C 0.71362 0.72019 0.90721 0.0
C1179 C 0.68913 0.71332 0.92667 0.0
C1180 C 0.67933 0.70672 0.91229 0.0
C1181 C 0.70625 0.72051 0.92423 0.0
C1182 C 0.70388 0.71349 0.89286 0.0
C1183 C 0.67525 0.70153 0.87988 0.0
O1184 O 0.66635 0.68467 0.82844 0.0
O1185 O 0.64913 0.66798 0.84505 0.0
O1186 O 0.66645 0.68647 0.88138 0.0
O1187 O 0.68202 0.70401 0.86407 0.0
H1188 H 0.61967 0.68404 0.84834 0.0
H1189 H 0.59445 0.70108 0.83763 0.0
H1190 H 0.62205 0.71176 0.7888 0.0
H1191 H 0.6469 0.69428 0.79923 0.0
H1192 H 0.69401 0.60715 0.81575 0.0
H1193 H 0.68211 0.63224 0.83222 0.0
H1194 H 0.74569 0.61765 0.83858 0.0
H1195 H 0.73373 0.64222 0.85517 0.0
H1196 H 0.72674 0.72569 0.90485 0.0
H1197 H 0.68321 0.71301 0.93967 0.0
H1198 H 0.66597 0.70176 0.91448 0.0
H1199 H 0.70985 0.71389 0.87988 0.0
C1200 C 0.32678 0.63487 0.85097 0.0
C1201 C 0.33619 0.63129 0.83549 0.0
C1202 C 0.31525 0.60746 0.8282 0.0
C1203 C 0.33046 0.61771 0.8242 0.0
C1204 C 0.30614 0.61088 0.84395 0.0
C1205 C 0.31188 0.62444 0.85522 0.0
U1206 U 0.35634 0.67495 0.86251 0.0
O1207 O 0.34884 0.70141 0.87111 0.0
O1208 O 0.36499 0.68492 0.88861 0.0
C1209 C 0.35616 0.69962 0.88683 0.0
C1210 C 0.33169 0.64998 0.86228 0.0
C1211 C 0.34517 0.70479 0.90197 0.0
C1212 C 0.31654 0.70699 0.91635 0.0
C1213 C 0.327 0.70053 0.90266 0.0
C1214 C 0.34237 0.72152 0.92915 0.0
C1215 C 0.32407 0.71773 0.92966 0.0
C1216 C 0.3528 0.7151 0.91544 0.0
C1217 C 0.3958 0.68697 0.83246 0.0
C1218 C 0.4127 0.71453 0.83426 0.0
C1219 C 0.42012 0.69285 0.81222 0.0
C1220 C 0.40653 0.68172 0.81845 0.0
C1221 C 0.42328 0.70946 0.81994 0.0
C1222 C 0.39909 0.70336 0.8405 0.0
C1223 C 0.3807 0.6756 0.83779 0.0
O1224 O 0.34666 0.6487 0.87115 0.0
O1225 O 0.32961 0.6656 0.85502 0.0
O1226 O 0.36499 0.68257 0.83581 0.0
O1227 O 0.38247 0.66695 0.85279 0.0
H1228 H 0.34771 0.63924 0.83197 0.0
H1229 H 0.33774 0.61543 0.81215 0.0
H1230 H 0.29416 0.60355 0.84721 0.0
H1231 H 0.30438 0.62709 0.86705 0.0
H1232 H 0.30244 0.70414 0.91611 0.0
H1233 H 0.32082 0.69262 0.89236 0.0
H1234 H 0.34857 0.72971 0.9392 0.0
H1235 H 0.36678 0.71855 0.91515 0.0
H1236 H 0.41479 0.72725 0.84046 0.0
H1237 H 0.42771 0.68872 0.80092 0.0
H1238 H 0.4041 0.66917 0.81201 0.0
H1239 H 0.39091 0.70766 0.85132 0.0
C1240 C 0.34489 0.39642 0.82785 0.0
C1241 C 0.32686 0.39428 0.82336 0.0
C1242 C 0.32521 0.42529 0.81471 0.0
C1243 C 0.31716 0.40854 0.81687 0.0
C1244 C 0.34305 0.42757 0.81987 0.0
C1245 C 0.35279 0.41327 0.82626 0.0
U1246 U 0.35636 0.3561 0.8571 0.0
O1247 O 0.36461 0.32958 0.84916 0.0
O1248 O 0.38238 0.34613 0.86541 0.0
C1249 C 0.38026 0.33124 0.85674 0.0
C1250 C 0.35595 0.38114 0.83289 0.0
C1251 C 0.39545 0.32507 0.84639 0.0
C1252 C 0.42049 0.32996 0.82668 0.0
C1253 C 0.40602 0.33651 0.83608 0.0
C1254 C 0.41378 0.30058 0.83772 0.0
C1255 C 0.42463 0.31192 0.82756 0.0
C1256 C 0.39943 0.3071 0.84707 0.0
C1257 C 0.32657 0.34362 0.8969 0.0
C1258 C 0.3133 0.31644 0.90857 0.0
C1259 C 0.32001 0.34067 0.92834 0.0
C1260 C 0.32668 0.35058 0.91409 0.0
C1261 C 0.31286 0.32361 0.92568 0.0
C1262 C 0.32006 0.3263 0.89436 0.0
C1263 C 0.33194 0.35503 0.88175 0.0
O1264 O 0.3651 0.38249 0.8477 0.0
O1265 O 0.34883 0.36535 0.83057 0.0
O1266 O 0.32959 0.34846 0.86583 0.0
O1267 O 0.34693 0.36399 0.88344 0.0
H1268 H 0.32031 0.3815 0.82443 0.0
H1269 H 0.30348 0.40629 0.81298 0.0
H1270 H 0.34955 0.44037 0.81878 0.0
H1271 H 0.36664 0.41531 0.82963 0.0
H1272 H 0.4285 0.339 0.81883 0.0
H1273 H 0.40312 0.35044 0.83529 0.0
H1274 H 0.4162 0.28654 0.83823 0.0
H1275 H 0.39136 0.29802 0.85482 0.0
H1276 H 0.30783 0.30338 0.90604 0.0
H1277 H 0.32023 0.34645 0.9414 0.0
H1278 H 0.33159 0.36388 0.91646 0.0
H1279 H 0.31973 0.32048 0.88131 0.0
H1280 H 0.27491 0.2958 1.00036 0.0
H1281 H 0.23509 0.25448 1.00013 0.0
H1282 H 0.26571 0.26523 0.95343 0.0
H1283 H 0.24836 0.29688 0.01964 0.0
H1284 H 0.23298 0.27898 0.02046 0.0
H1285 H 0.27527 0.297 0.03771 0.0
H1286 H 0.27265 0.2635 0.08375 0.0
H1287 H 0.23845 0.25297 0.03934 0.0
C1288 C 0.26833 0.28483 0.99375 0.0
C1289 C 0.2725 0.28106 0.97607 0.0
C1290 C 0.25481 0.27528 1.00256 0.0
C1291 C 0.24579 0.26156 0.99356 0.0
C1292 C 0.24954 0.25788 0.97575 0.0
C1293 C 0.26322 0.26743 0.96734 0.0
C1294 C 0.24739 0.2822 0.01971 0.0
C1295 C 0.25641 0.27532 0.03627 0.0
C1296 C 0.27002 0.28539 0.04441 0.0
C1297 C 0.27587 0.28134 0.06167 0.0
C1298 C 0.26876 0.26636 0.07022 0.0
C1299 C 0.25546 0.25593 0.06222 0.0
C1300 C 0.24931 0.26047 0.04523 0.0
H1301 H 0.7723 0.23748 0.03636 0.0
H1302 H 0.73646 0.28113 0.03677 0.0
H1303 H 0.77066 0.27168 0.08137 0.0
H1304 H 0.74601 0.23751 0.01723 0.0
H1305 H 0.73103 0.25532 0.01751 0.0
H1306 H 0.7724 0.23842 0.99815 0.0
H1307 H 0.76933 0.27399 0.95379 0.0
H1308 H 0.73549 0.2812 0.99851 0.0
C1309 C 0.76737 0.24923 0.04264 0.0
C1310 C 0.77359 0.25389 0.05957 0.0
C1311 C 0.75409 0.2591 0.03418 0.0
C1312 C 0.74713 0.27385 0.04289 0.0
C1313 C 0.75332 0.27869 0.05982 0.0
C1314 C 0.76659 0.26867 0.06793 0.0
C1315 C 0.74537 0.25217 0.01745 0.0
C1316 C 0.75359 0.25947 1.00064 0.0
C1317 C 0.76711 0.25021 0.99207 0.0
C1318 C 0.77277 0.25532 0.97506 0.0
C1319 C 0.76524 0.27016 0.96701 0.0
C1320 C 0.75182 0.27955 0.9753 0.0
C1321 C 0.74617 0.27426 0.99222 0.0
H1322 H 0.73602 0.75503 0.03769 0.0
H1323 H 0.7734 0.79858 0.03887 0.0
H1324 H 0.76958 0.76312 0.08322 0.0
H1325 H 0.73135 0.78212 0.0199 0.0
H1326 H 0.74741 0.79945 0.01966 0.0
H1327 H 0.73297 0.75764 0.99943 0.0
H1328 H 0.7646 0.76758 0.95335 0.0
H1329 H 0.77394 0.79783 1.00059 0.0
C1330 C 0.74679 0.76211 0.04421 0.0
C1331 C 0.75222 0.75695 0.0613 0.0
C1332 C 0.75446 0.77707 0.03592 0.0
C1333 C 0.76796 0.78663 0.0448 0.0
C1334 C 0.77369 0.78147 0.06176 0.0
C1335 C 0.76588 0.76654 0.06976 0.0
C1336 C 0.74589 0.78482 0.01952 0.0
C1337 C 0.75314 0.77801 1.00224 0.0
C1338 C 0.74401 0.76445 0.99313 0.0
C1339 C 0.74819 0.76054 0.9755 0.0
C1340 C 0.76202 0.76994 0.96722 0.0
C1341 C 0.77134 0.78353 0.976 0.0
C1342 C 0.7671 0.78718 0.99373 0.0
H1343 H 0.27263 0.73644 0.03596 0.0
H1344 H 0.23721 0.78043 0.03535 0.0
H1345 H 0.26975 0.77057 0.08098 0.0
H1346 H 0.24665 0.73648 0.01644 0.0
H1347 H 0.23169 0.75429 0.01653 0.0
H1348 H 0.27508 0.73885 0.99938 0.0
H1349 H 0.27065 0.77099 0.95257 0.0
H1350 H 0.2346 0.77812 0.99553 0.0
C1351 C 0.26764 0.74822 0.04212 0.0
C1352 C 0.27343 0.75279 0.05925 0.0
C1353 C 0.25463 0.75817 0.03332 0.0
C1354 C 0.24764 0.77304 0.04176 0.0
C1355 C 0.25342 0.77784 0.05882 0.0
C1356 C 0.26624 0.76762 0.06738 0.0
C1357 C 0.24603 0.75114 0.01656 0.0
C1358 C 0.25438 0.75821 0.99972 0.0
C1359 C 0.26891 0.74957 0.99222 0.0
C1360 C 0.27488 0.75415 0.97518 0.0
C1361 C 0.2664 0.7677 0.96587 0.0
C1362 C 0.25193 0.77646 0.97306 0.0
C1363 C 0.24617 0.77187 0.99015 0.0
H1364 H 0.0364 0.23206 0.25888 0.0
H1365 H 0.03329 0.27092 0.30007 0.0
H1366 H 0.07985 0.26838 0.26797 0.0
H1367 H 0.01501 0.22845 0.28235 0.0
H1368 H 0.01541 0.24285 0.30078 0.0
H1369 H 0.99441 0.23276 0.25823 0.0
H1370 H 0.95202 0.26876 0.26693 0.0
H1371 H 0.99822 0.27068 0.3004 0.0
C1372 C 0.0419 0.24353 0.26559 0.0
C1373 C 0.05915 0.24954 0.26147 0.0
C1374 C 0.03233 0.25132 0.2794 0.0
C1375 C 0.04015 0.2654 0.2889 0.0
C1376 C 0.0572 0.27173 0.28465 0.0
C1377 C 0.06644 0.2639 0.27082 0.0
C1378 C 0.0154 0.24263 0.28607 0.0
C1379 C 0.99871 0.25139 0.27941 0.0
C1380 C 0.98917 0.24404 0.26508 0.0
C1381 C 0.97221 0.25013 0.26062 0.0
C1382 C 0.96523 0.26425 0.27009 0.0
C1383 C 0.97452 0.27184 0.28434 0.0
C1384 C 0.99129 0.26537 0.28895 0.0
H1385 H 0.79398 0.03485 0.2604 0.0
H1386 H 0.75471 0.03478 0.30139 0.0
H1387 H 0.76298 0.08095 0.26896 0.0
H1388 H 0.79663 0.01593 0.28726 0.0
H1389 H 0.77945 0.01486 0.3031 0.0
H1390 H 0.79557 0.99772 0.26072 0.0
H1391 H 0.76247 0.95121 0.26504 0.0
H1392 H 0.75342 0.99545 0.29882 0.0
C1393 C 0.78317 0.04123 0.26706 0.0
C1394 C 0.77874 0.05859 0.26233 0.0
C1395 C 0.77447 0.03249 0.2811 0.0
C1396 C 0.7611 0.0413 0.29028 0.0
C1397 C 0.75693 0.05888 0.2861 0.0
C1398 C 0.76554 0.06719 0.27182 0.0
C1399 C 0.78195 0.01559 0.28863 0.0
C1400 C 0.77469 0.99891 0.28006 0.0
C1401 C 0.78413 0.99094 0.2663 0.0
C1402 C 0.77968 0.97376 0.26063 0.0
C1403 C 0.76545 0.96476 0.26869 0.0
C1404 C 0.75581 0.97246 0.28235 0.0
C1405 C 0.76026 0.98972 0.28774 0.0
H1406 H 0.99664 0.73516 0.27936 0.0
H1407 H 0.99698 0.7753 0.23886 0.0
H1408 H 0.95226 0.76947 0.27331 0.0
H1409 H 0.01477 0.73227 0.25292 0.0
H1410 H 0.01464 0.74859 0.23606 0.0
H1411 H 0.03511 0.73472 0.2783 0.0
H1412 H 0.08274 0.76439 0.26676 0.0
H1413 H 0.03502 0.77414 0.23719 0.0
C1414 C 0.99065 0.74658 0.27321 0.0
C1415 C 0.97376 0.75185 0.27865 0.0
C1416 C 0.99927 0.75511 0.25899 0.0
C1417 C 0.99086 0.76923 0.25037 0.0
C1418 C 0.97401 0.77468 0.25568 0.0
C1419 C 0.96572 0.76607 0.26996 0.0
C1420 C 0.01527 0.7468 0.25067 0.0
C1421 C 0.03293 0.75399 0.25735 0.0
C1422 C 0.04191 0.74518 0.27109 0.0
C1423 C 0.05994 0.74886 0.2746 0.0
C1424 C 0.06865 0.76214 0.26476 0.0
C1425 C 0.05988 0.77134 0.2512 0.0
C1426 C 0.04186 0.76745 0.24786 0.0
H1427 H 0.23445 0.99698 0.26193 0.0
H1428 H 0.27561 0.99513 0.30172 0.0
H1429 H 0.26732 0.95144 0.26655 0.0
H1430 H 0.23302 0.01489 0.28908 0.0
H1431 H 0.2505 0.01481 0.30488 0.0
H1432 H 0.23446 0.03412 0.26263 0.0
H1433 H 0.26809 0.08004 0.26852 0.0
H1434 H 0.27584 0.03494 0.30217 0.0
C1435 C 0.24573 0.99048 0.26785 0.0
C1436 C 0.25032 0.97357 0.26202 0.0
C1437 C 0.25499 0.99856 0.28199 0.0
C1438 C 0.26899 0.98947 0.29026 0.0
C1439 C 0.27336 0.9724 0.28478 0.0
C1440 C 0.26425 0.9648 0.27045 0.0
C1441 C 0.24771 0.01502 0.29041 0.0
C1442 C 0.25496 0.03214 0.28263 0.0
C1443 C 0.24587 0.04058 0.26869 0.0
C1444 C 0.25075 0.0578 0.26334 0.0
C1445 C 0.26501 0.0664 0.27186 0.0
C1446 C 0.27417 0.05829 0.28582 0.0
C1447 C 0.26922 0.04105 0.291 0.0
H1448 H 0.99665 0.77337 0.79856 0.0
H1449 H 0.99273 0.73749 0.75468 0.0
H1450 H 0.94974 0.77197 0.76604 0.0
H1451 H 1.01386 0.74577 0.7977 0.0
H1452 H 1.01306 0.7319 0.7789 0.0
H1453 H 0.03266 0.77302 0.79789 0.0
H1454 H 0.07956 0.76848 0.76635 0.0
H1455 H 0.03346 0.73654 0.75448 0.0
C1456 C 0.9896 0.76852 0.78699 0.0
C1457 C 0.97248 0.77466 0.7832 0.0
C1458 C 0.99717 0.75527 0.77656 0.0
C1459 C 0.98745 0.74837 0.76211 0.0
C1460 C 0.97027 0.75428 0.75831 0.0
C1461 C 0.96315 0.76768 0.76867 0.0
C1462 C 1.01366 0.74599 0.78298 0.0
C1463 C 0.0309 0.75426 0.77658 0.0
C1464 C 0.03945 0.76748 0.78669 0.0
C1465 C 0.05708 0.77267 0.78314 0.0
C1466 C 0.06576 0.76509 0.76875 0.0
C1467 C 0.05742 0.7521 0.7583 0.0
C1468 C 0.03988 0.74688 0.76217 0.0
H1469 H 0.25463 0.99702 0.79691 0.0
H1470 H 0.29881 0.99595 0.76126 0.0
H1471 H 0.26316 0.95129 0.76493 0.0
H1472 H 0.28223 0.01455 0.80257 0.0
H1473 H 0.29952 0.01532 0.78681 0.0
H1474 H 0.25738 0.03449 0.80051 0.0
H1475 H 0.26585 0.08044 0.76788 0.0
H1476 H 0.29759 0.03457 0.76039 0.0
C1477 C 0.2619 0.99045 0.78661 0.0
C1478 C 0.25672 0.97334 0.78133 0.0
C1479 C 0.2771 0.99872 0.77945 0.0
C1480 C 0.28678 0.9899 0.76641 0.0
C1481 C 0.28162 0.97288 0.7608 0.0
C1482 C 0.26655 0.96482 0.76832 0.0
C1483 C 0.28484 0.01512 0.78811 0.0
C1484 C 0.27772 0.03223 0.78071 0.0
C1485 C 0.26397 0.04092 0.78946 0.0
C1486 C 0.25957 0.05833 0.78485 0.0
C1487 C 0.26861 0.06675 0.77092 0.0
C1488 C 0.2824 0.05837 0.76209 0.0
C1489 C 0.28665 0.04096 0.76682 0.0
H1490 H 0.99583 0.29942 0.75899 0.0
H1491 H 0.99822 0.25707 0.79727 0.0
H1492 H 0.95097 0.26458 0.7663 0.0
H1493 H 0.01769 0.30034 0.78289 0.0
H1494 H 0.01771 0.28387 0.79969 0.0
H1495 H 0.03514 0.29691 0.75577 0.0
H1496 H 0.0782 0.26071 0.75974 0.0
H1497 H 0.03541 0.25715 0.7968 0.0
C1498 C 0.98994 0.2878 0.76515 0.0
C1499 C 0.97234 0.28295 0.761 0.0
C1500 C 0.99946 0.27849 0.77823 0.0
C1501 C 0.99126 0.26394 0.78678 0.0
C1502 C 0.97384 0.25869 0.78231 0.0
C1503 C 0.96461 0.26821 0.76937 0.0
C1504 C 0.01699 0.28582 0.78511 0.0
C1505 C 0.03303 0.27752 0.77679 0.0
C1506 C 0.04111 0.28549 0.76193 0.0
C1507 C 0.05732 0.27932 0.75553 0.0
C1508 C 0.06528 0.26496 0.76403 0.0
C1509 C 0.05753 0.25688 0.77887 0.0
C1510 C 0.04128 0.26308 0.7851 0.0
H1511 H 0.7329 0.99751 0.764 0.0
H1512 H 0.77748 0.99773 0.79985 0.0
H1513 H 0.76713 0.95285 0.76656 0.0
H1514 H 0.73323 0.01638 0.79004 0.0
H1515 H 0.75107 0.01586 0.80542 0.0
H1516 H 0.73504 0.03518 0.76294 0.0
H1517 H 0.76809 0.08146 0.76932 0.0
H1518 H 0.77571 0.03652 0.80319 0.0
C1519 C 0.74474 0.99133 0.76911 0.0
C1520 C 0.74913 0.97435 0.76332 0.0
C1521 C 0.75493 0.99991 0.78227 0.0
C1522 C 0.76987 0.99142 0.78937 0.0
C1523 C 0.77443 0.97443 0.78369 0.0
C1524 C 0.76415 0.96622 0.77045 0.0
C1525 C 0.74795 0.01632 0.79102 0.0
C1526 C 0.75519 0.03347 0.78331 0.0
C1527 C 0.74628 0.04178 0.76918 0.0
C1528 C 0.75108 0.05903 0.76387 0.0
C1529 C 0.76509 0.0678 0.77263 0.0
C1530 C 0.77409 0.05981 0.78678 0.0
C1531 C 0.76922 0.04254 0.7919 0.0
H1532 H 0.25792 0.73791 0.49872 0.0
H1533 H 0.29624 0.78076 0.50017 0.0
H1534 H 0.26347 0.77292 0.45413 0.0
H1535 H 0.28363 0.73706 0.51879 0.0
H1536 H 0.2994 0.75468 0.51944 0.0
H1537 H 0.25773 0.73689 0.53789 0.0
H1538 H 0.26118 0.77139 0.58271 0.0
H1539 H 0.29436 0.78116 0.53771 0.0
C1540 C 0.26373 0.74969 0.49278 0.0
C1541 C 0.25882 0.75454 0.47546 0.0
C1542 C 0.2772 0.75914 0.50189 0.0
C1543 C 0.28545 0.7738 0.49356 0.0
C1544 C 0.28034 0.77899 0.47641 0.0
C1545 C 0.267 0.76933 0.46759 0.0
C1546 C 0.28492 0.75171 0.51888 0.0
C1547 C 0.27647 0.75866 0.53553 0.0
C1548 C 0.26302 0.74874 0.54407 0.0
C1549 C 0.25718 0.75343 0.56103 0.0
C1550 C 0.26473 0.76836 0.56921 0.0
C1551 C 0.27792 0.7786 0.56086 0.0
C1552 C 0.2837 0.77372 0.54396 0.0
H1553 H 0.75556 0.79873 0.53806 0.0
H1554 H 0.79194 0.75565 0.53654 0.0
H1555 H 0.75996 0.76351 0.58251 0.0
H1556 H 0.7809 0.80002 0.51854 0.0
H1557 H 0.7971 0.78335 0.51919 0.0
H1558 H 0.75698 0.79907 0.49707 0.0
H1559 H 0.76401 0.76435 0.45308 0.0
H1560 H 0.79387 0.75644 0.50094 0.0
C1561 C 0.76092 0.7869 0.544 0.0
C1562 C 0.75547 0.78171 0.56105 0.0
C1563 C 0.77408 0.77756 0.53504 0.0
C1564 C 0.78152 0.76263 0.54319 0.0
C1565 C 0.77636 0.75739 0.5603 0.0
C1566 C 0.76323 0.76691 0.56897 0.0
C1567 C 0.78254 0.78545 0.51864 0.0
C1568 C 0.77538 0.77791 0.50145 0.0
C1569 C 0.76262 0.78724 0.49161 0.0
C1570 C 0.75856 0.78246 0.47409 0.0
C1571 C 0.76666 0.76768 0.46679 0.0
C1572 C 0.77927 0.75812 0.47638 0.0
C1573 C 0.78353 0.76324 0.49376 0.0
H1574 H 0.7979 0.27592 0.53808 0.0
H1575 H 0.75857 0.23405 0.53615 0.0
H1576 H 0.76348 0.26655 0.58232 0.0
H1577 H 0.80075 0.25125 0.51749 0.0
H1578 H 0.78466 0.23387 0.51678 0.0
H1579 H 0.7981 0.27709 0.49844 0.0
H1580 H 0.76068 0.27331 0.45556 0.0
H1581 H 0.75679 0.23703 0.49929 0.0
C1582 C 0.78666 0.26902 0.5439 0.0
C1583 C 0.78142 0.27317 0.56119 0.0
C1584 C 0.77836 0.255 0.53464 0.0
C1585 C 0.76453 0.24532 0.54283 0.0
C1586 C 0.75896 0.24961 0.55996 0.0
C1587 C 0.76735 0.26362 0.56888 0.0
C1588 C 0.78623 0.24848 0.51753 0.0
C1589 C 0.77796 0.25657 0.50113 0.0
C1590 C 0.78632 0.27106 0.49264 0.0
C1591 C 0.77993 0.2773 0.4763 0.0
C1592 C 0.76505 0.26906 0.46857 0.0
C1593 C 0.75652 0.25463 0.47675 0.0
C1594 C 0.763 0.24847 0.49311 0.0
H1595 H 0.25934 0.30269 0.53851 0.0
H1596 H 0.29513 0.25903 0.53807 0.0
H1597 H 0.26154 0.26697 0.5828 0.0
H1598 H 0.28494 0.30323 0.51913 0.0
H1599 H 0.30088 0.28629 0.52034 0.0
H1600 H 0.25853 0.30017 0.49975 0.0
H1601 H 0.26574 0.26668 0.45479 0.0
H1602 H 0.29934 0.26113 0.5005 0.0
C1603 C 0.2643 0.29074 0.54456 0.0
C1604 C 0.25819 0.28554 0.56139 0.0
C1605 C 0.27755 0.28115 0.53595 0.0
C1606 C 0.28453 0.26612 0.54431 0.0
C1607 C 0.27862 0.26085 0.56114 0.0
C1608 C 0.26535 0.27049 0.56942 0.0
C1609 C 0.28638 0.28864 0.51955 0.0
C1610 C 0.27917 0.28093 0.50246 0.0
C1611 C 0.26501 0.28913 0.49363 0.0
C1612 C 0.25995 0.2839 0.47648 0.0
C1613 C 0.26891 0.27006 0.46838 0.0
C1614 C 0.28306 0.2617 0.47693 0.0
C1615 C 0.28804 0.26711 0.49405 0.0
H1616 H 0.79635 0.53526 0.75922 0.0
H1617 H 0.75579 0.53512 0.79887 0.0
H1618 H 0.76619 0.58196 0.76808 0.0
H1619 H 0.79835 0.51648 0.78622 0.0
H1620 H 0.78068 0.51535 0.80149 0.0
H1621 H 0.79817 0.49834 0.75957 0.0
H1622 H 0.76499 0.45179 0.76261 0.0
H1623 H 0.75504 0.49578 0.79654 0.0
C1624 C 0.78562 0.54186 0.76577 0.0
C1625 C 0.78197 0.55955 0.76154 0.0
C1626 C 0.77637 0.53301 0.77938 0.0
C1627 C 0.76272 0.54178 0.78817 0.0
C1628 C 0.75891 0.55948 0.78415 0.0
C1629 C 0.76842 0.56807 0.77062 0.0
C1630 C 0.78364 0.5161 0.7871 0.0
C1631 C 0.77673 0.49941 0.77831 0.0
C1632 C 0.78663 0.49149 0.76485 0.0
C1633 C 0.78248 0.47426 0.75915 0.0
C1634 C 0.76792 0.46526 0.76658 0.0
C1635 C 0.75791 0.47287 0.78004 0.0
C1636 C 0.76216 0.49012 0.7856 0.0
H1637 H 0.25467 0.53849 0.73806 0.0
H1638 H 0.29516 0.53796 0.77856 0.0
H1639 H 0.26256 0.58343 0.77172 0.0
H1640 H 0.27963 0.5188 0.73586 0.0
H1641 H 0.29721 0.51971 0.7515 0.0
H1642 H 0.25298 0.49987 0.74119 0.0
H1643 H 0.26378 0.45386 0.77274 0.0
H1644 H 0.29788 0.49968 0.77666 0.0
C1645 C 0.26112 0.54458 0.74938 0.0
C1646 C 0.25672 0.56189 0.75411 0.0
C1647 C 0.27495 0.53573 0.75823 0.0
C1648 C 0.28398 0.54429 0.77226 0.0
C1649 C 0.27965 0.56159 0.77707 0.0
C1650 C 0.26585 0.57006 0.76811 0.0
C1651 C 0.2825 0.51915 0.75031 0.0
C1652 C 0.27573 0.50206 0.75857 0.0
C1653 C 0.26069 0.49337 0.75138 0.0
C1654 C 0.25628 0.47595 0.75646 0.0
C1655 C 0.26668 0.46753 0.76933 0.0
C1656 C 0.28171 0.47589 0.77667 0.0
C1657 C 0.28602 0.49329 0.77143 0.0
H1658 H 0.298 0.53457 0.26134 0.0
H1659 H 0.25904 0.5351 0.30258 0.0
H1660 H 0.2676 0.58116 0.27025 0.0
H1661 H 0.30097 0.51634 0.28884 0.0
H1662 H 0.28349 0.515 0.30432 0.0
H1663 H 0.30077 0.49813 0.26225 0.0
H1664 H 0.2684 0.45106 0.26587 0.0
H1665 H 0.25804 0.49496 0.29971 0.0
C1666 C 0.28744 0.54122 0.26812 0.0
C1667 C 0.28355 0.55883 0.2637 0.0
C1668 C 0.27872 0.53255 0.28219 0.0
C1669 C 0.2654 0.54146 0.29137 0.0
C1670 C 0.26121 0.55896 0.28699 0.0
C1671 C 0.27013 0.56737 0.27298 0.0
C1672 C 0.28627 0.51575 0.2899 0.0
C1673 C 0.2795 0.49894 0.28123 0.0
C1674 C 0.28938 0.49113 0.26767 0.0
C1675 C 0.28544 0.47382 0.26206 0.0
C1676 C 0.27115 0.4646 0.26972 0.0
C1677 C 0.2613 0.47204 0.28337 0.0
C1678 C 0.2652 0.4894 0.28874 0.0
H1679 H 0.75364 0.53475 0.23789 0.0
H1680 H 0.79633 0.53592 0.27608 0.0
H1681 H 0.76083 0.5795 0.27195 0.0
H1682 H 0.77961 0.51613 0.23428 0.0
H1683 H 0.79747 0.517 0.24967 0.0
H1684 H 0.75349 0.49667 0.2395 0.0
H1685 H 0.76345 0.45197 0.27311 0.0
H1686 H 0.79808 0.49746 0.27544 0.0
C1687 C 0.7605 0.54112 0.24881 0.0
C1688 C 0.75521 0.55791 0.25432 0.0
C1689 C 0.77519 0.5329 0.25681 0.0
C1690 C 0.78451 0.54173 0.27048 0.0
C1691 C 0.77946 0.55863 0.2759 0.0
C1692 C 0.76461 0.56636 0.26799 0.0
C1693 C 0.78275 0.51644 0.24868 0.0
C1694 C 0.77607 0.49939 0.25708 0.0
C1695 C 0.76101 0.49058 0.25008 0.0
C1696 C 0.75621 0.47353 0.25601 0.0
C1697 C 0.76648 0.46548 0.26922 0.0
C1698 C 0.78149 0.47401 0.2764 0.0
C1699 C 0.78616 0.49104 0.27037 0.0
H1700 H 0.53662 0.23538 0.75689 0.0
H1701 H 0.534 0.27513 0.79721 0.0
H1702 H 0.5814 0.26971 0.7667 0.0
H1703 H 0.51551 0.23236 0.78054 0.0
H1704 H 0.51613 0.24707 0.79866 0.0
H1705 H 0.49478 0.23638 0.75628 0.0
H1706 H 0.45082 0.26963 0.76729 0.0
H1707 H 0.49872 0.2746 0.79817 0.0
C1708 C 0.5424 0.24677 0.76351 0.0
C1709 C 0.55995 0.25201 0.75972 0.0
C1710 C 0.53287 0.2551 0.77701 0.0
C1711 C 0.54096 0.26916 0.78634 0.0
C1712 C 0.55842 0.27469 0.78255 0.0
C1713 C 0.56767 0.26609 0.76916 0.0
C1714 C 0.51594 0.24663 0.78395 0.0
C1715 C 0.49907 0.25515 0.7774 0.0
C1716 C 0.48931 0.24735 0.76344 0.0
C1717 C 0.47186 0.25249 0.75987 0.0
C1718 C 0.46448 0.26608 0.76977 0.0
C1719 C 0.47393 0.27415 0.78367 0.0
C1720 C 0.49141 0.26883 0.78719 0.0
H1721 H 0.49654 0.79539 0.75722 0.0
H1722 H 0.49401 0.75739 0.79976 0.0
H1723 H 0.44956 0.76338 0.76458 0.0
H1724 H 0.51509 0.79865 0.78445 0.0
H1725 H 0.51513 0.78192 0.80095 0.0
H1726 H 0.53488 0.79752 0.75929 0.0
H1727 H 0.57806 0.76159 0.7637 0.0
H1728 H 0.53259 0.75466 0.79708 0.0
C1729 C 0.48955 0.78484 0.76411 0.0
C1730 C 0.47217 0.78011 0.75891 0.0
C1731 C 0.49765 0.77656 0.77876 0.0
C1732 C 0.48821 0.76324 0.78802 0.0
C1733 C 0.4708 0.75848 0.783 0.0
C1734 C 0.46309 0.7668 0.7683 0.0
C1735 C 0.51478 0.78408 0.78639 0.0
C1736 C 0.53134 0.77642 0.77845 0.0
C1737 C 0.54044 0.78564 0.76491 0.0
C1738 C 0.5574 0.78042 0.75974 0.0
C1739 C 0.56483 0.76541 0.76748 0.0
C1740 C 0.55602 0.75601 0.78088 0.0
C1741 C 0.5392 0.7615 0.78629 0.0
H1742 H 0.534 0.73752 0.25389 0.0
H1743 H 0.53594 0.77163 0.29936 0.0
H1744 H 0.58087 0.76856 0.26507 0.0
H1745 H 0.51456 0.73222 0.27965 0.0
H1746 H 0.51511 0.74663 0.29807 0.0
H1747 H 0.49561 0.73805 0.25403 0.0
H1748 H 0.45229 0.77279 0.26322 0.0
H1749 H 0.49734 0.77363 0.29829 0.0
C1750 C 0.54077 0.74756 0.26169 0.0
C1751 C 0.55814 0.75285 0.25724 0.0
C1752 C 0.53246 0.75456 0.27672 0.0
C1753 C 0.54181 0.76691 0.28727 0.0
C1754 C 0.55934 0.77188 0.28317 0.0
C1755 C 0.56719 0.76506 0.26799 0.0
C1756 C 0.51525 0.74641 0.28335 0.0
C1757 C 0.4988 0.75542 0.27644 0.0
C1758 C 0.48988 0.74873 0.26141 0.0
C1759 C 0.47309 0.75499 0.25656 0.0
C1760 C 0.46556 0.7685 0.26647 0.0
C1761 C 0.47419 0.77539 0.28148 0.0
C1762 C 0.49088 0.76885 0.28635 0.0
H1763 H 0.49969 0.29852 0.25938 0.0
H1764 H 0.49955 0.25832 0.29999 0.0
H1765 H 0.4528 0.26706 0.26859 0.0
H1766 H 0.52067 0.29995 0.28427 0.0
H1767 H 0.52034 0.28368 0.30121 0.0
H1768 H 0.53713 0.29521 0.25638 0.0
H1769 H 0.58179 0.26127 0.26256 0.0
H1770 H 0.53906 0.25805 0.29971 0.0
C1771 C 0.49315 0.28757 0.2661 0.0
C1772 C 0.47528 0.28363 0.26226 0.0
C1773 C 0.50211 0.27841 0.27969 0.0
C1774 C 0.49306 0.26484 0.289 0.0
C1775 C 0.47518 0.26077 0.28514 0.0
C1776 C 0.46661 0.27004 0.27157 0.0
C1777 C 0.51975 0.28545 0.2866 0.0
C1778 C 0.53577 0.27696 0.27845 0.0
C1779 C 0.54355 0.28441 0.26316 0.0
C1780 C 0.56008 0.27861 0.25721 0.0
C1781 C 0.56872 0.26527 0.26666 0.0
C1782 C 0.56129 0.25773 0.28193 0.0
C1783 C 0.54459 0.26335 0.28756 0.0
C1784 C 0.22071 0.23162 0.08961 0.0
C1785 C 0.23078 0.21904 0.09886 0.0
C1786 C 0.22853 0.24281 0.07686 0.0
C1787 C 0.24668 0.24181 0.0729 0.0
H1788 H 0.20691 0.23341 0.09284 0.0
H1789 H 0.22054 0.25293 0.07075 0.0
S1790 S 0.27818 0.20942 0.09129 0.0
N1791 N 0.25937 0.20489 0.10152 0.0
N1792 N 0.27403 0.22612 0.07785 0.0
C1793 C 0.25661 0.22864 0.08128 0.0
C1794 C 0.24867 0.21721 0.09416 0.0
C1795 C 0.79005 0.21391 0.08476 0.0
C1796 C 0.80462 0.22076 0.09443 0.0
C1797 C 0.78073 0.22442 0.07265 0.0
C1798 C 0.78558 0.2422 0.06977 0.0
H1799 H 0.78525 0.20058 0.08719 0.0
H1800 H 0.76907 0.21886 0.0662 0.0
S1801 S 0.8242 0.26579 0.08964 0.0
N1802 N 0.82464 0.24591 0.09867 0.0
N1803 N 0.80688 0.2657 0.07616 0.0
C1804 C 0.80067 0.24894 0.07858 0.0
C1805 C 0.81023 0.23822 0.09083 0.0
C1806 C 0.79111 0.82091 0.08772 0.0
C1807 C 0.80526 0.81387 0.09758 0.0
C1808 C 0.78162 0.81064 0.07536 0.0
C1809 C 0.78586 0.79291 0.07241 0.0
H1810 H 0.78677 0.83422 0.09014 0.0
H1811 H 0.77029 0.81637 0.06874 0.0
S1812 S 0.82323 0.76886 0.09281 0.0
N1813 N 0.82425 0.78858 0.10199 0.0
N1814 N 0.80616 0.76923 0.07904 0.0
C1815 C 0.80052 0.78597 0.08147 0.0
C1816 C 0.81026 0.79644 0.09397 0.0
C1817 C 0.21851 0.80314 0.08373 0.0
C1818 C 0.22868 0.81563 0.09331 0.0
C1819 C 0.22643 0.79168 0.07167 0.0
C1820 C 0.24485 0.79217 0.06888 0.0
H1821 H 0.20436 0.80197 0.08584 0.0
H1822 H 0.21821 0.78181 0.06513 0.0
S1823 S 0.27733 0.82283 0.08998 0.0
N1824 N 0.25813 0.8281 0.09867 0.0
N1825 N 0.2729 0.80672 0.07595 0.0
C1826 C 0.25506 0.805 0.07787 0.0
C1827 C 0.24702 0.81669 0.09008 0.0
C1828 C 0.2282 0.79565 0.93309 0.0
C1829 C 0.22483 0.8131 0.93813 0.0
C1830 C 0.23661 0.78389 0.94463 0.0
C1831 C 0.24194 0.78904 0.96174 0.0
H1832 H 0.22477 0.79116 0.91991 0.0
H1833 H 0.23913 0.77066 0.94003 0.0
S1834 S 0.23525 0.83289 0.98185 0.0
N1835 N 0.2267 0.83471 0.96176 0.0
N1836 N 0.24265 0.81255 0.98344 0.0
C1837 C 0.23819 0.80626 0.96719 0.0
C1838 C 0.22968 0.81832 0.95537 0.0
C1839 C 0.23464 0.22546 0.94008 0.0
C1840 C 0.21624 0.22806 0.93908 0.0
C1841 C 0.24521 0.23433 0.95269 0.0
C1842 C 0.2378 0.24608 0.96487 0.0
H1843 H 0.24106 0.21721 0.93048 0.0
H1844 H 0.2594 0.23248 0.95248 0.0
S1845 S 0.18999 0.25599 0.96895 0.0
N1846 N 0.19083 0.24185 0.95247 0.0
N1847 N 0.21066 0.25894 0.97572 0.0
C1848 C 0.21927 0.24801 0.96462 0.0
C1849 C 0.20853 0.23893 0.95184 0.0
C1850 C 0.7924 0.23066 0.93643 0.0
C1851 C 0.80961 0.22669 0.9423 0.0
C1852 C 0.78049 0.23939 0.94734 0.0
C1853 C 0.78522 0.24448 0.96465 0.0
H1854 H 0.78828 0.22757 0.92303 0.0
H1855 H 0.76753 0.24247 0.94205 0.0
S1856 S 0.8281 0.23593 0.98699 0.0
N1857 N 0.83037 0.2275 0.96705 0.0
N1858 N 0.80795 0.24407 0.98752 0.0
C1859 C 0.80209 0.23998 0.97099 0.0
C1860 C 0.81431 0.23112 0.95982 0.0
C1861 C 0.80504 0.79827 0.94142 0.0
C1862 C 0.80246 0.81659 0.94028 0.0
C1863 C 0.79575 0.78779 0.95377 0.0
C1864 C 0.78357 0.79521 0.96555 0.0
H1865 H 0.81362 0.79184 0.93211 0.0
H1866 H 0.79761 0.77365 0.95365 0.0
S1867 S 0.77354 0.84284 0.96919 0.0
N1868 N 0.7882 0.84194 0.95315 0.0
N1869 N 0.77037 0.82228 0.97593 0.0
C1870 C 0.78166 0.81366 0.9652 0.0
C1871 C 0.79116 0.82431 0.95266 0.0
C1872 C 0.09936 0.22663 0.24295 0.0
C1873 C 0.09452 0.22308 0.22532 0.0
C1874 C 0.08768 0.23483 0.25452 0.0
C1875 C 0.07061 0.23979 0.24901 0.0
H1876 H 0.11251 0.22353 0.24775 0.0
H1877 H 0.09216 0.23747 0.26791 0.0
S1878 S 0.05094 0.23244 0.20456 0.0
N1879 N 0.07106 0.22433 0.20315 0.0
N1880 N 0.04915 0.2399 0.22494 0.0
C1881 C 0.06534 0.23584 0.2316 0.0
C1882 C 0.0773 0.22752 0.21973 0.0
C1883 C 0.81795 0.08307 0.24204 0.0
C1884 C 0.81 0.09365 0.22892 0.0
C1885 C 0.80792 0.07093 0.25207 0.0
C1886 C 0.78953 0.06894 0.24942 0.0
H1887 H 0.83189 0.08477 0.24519 0.0
H1888 H 0.81444 0.06375 0.26261 0.0
S1889 S 0.76272 0.09146 0.21511 0.0
N1890 N 0.78292 0.09975 0.21252 0.0
N1891 N 0.76407 0.07721 0.23165 0.0
C1892 C 0.78158 0.0787 0.23575 0.0
C1893 C 0.7918 0.09097 0.22545 0.0
C1894 C 0.94842 0.79332 0.2167 0.0
C1895 C 0.93866 0.80698 0.22433 0.0
C1896 C 0.96066 0.78364 0.22669 0.0
C1897 C 0.96359 0.78718 0.24472 0.0
H1898 H 0.94599 0.78949 0.20311 0.0
H1899 H 0.96717 0.77268 0.22047 0.0
S1900 S 0.94345 0.82309 0.27042 0.0
N1901 N 0.93434 0.82479 0.25058 0.0
N1902 N 0.95707 0.80631 0.26939 0.0
C1903 C 0.95465 0.80136 0.25229 0.0
C1904 C 0.94227 0.81131 0.2421 0.0
C1905 C 0.21129 0.94806 0.24253 0.0
C1906 C 0.21901 0.93871 0.22856 0.0
C1907 C 0.2212 0.96033 0.25254 0.0
C1908 C 0.23921 0.96368 0.249 0.0
H1909 H 0.19774 0.94521 0.24637 0.0
H1910 H 0.21499 0.96645 0.26377 0.0
S1911 S 0.26501 0.94488 0.21231 0.0
N1912 N 0.24523 0.93538 0.21043 0.0
N1913 N 0.26389 0.95813 0.22952 0.0
C1914 C 0.2468 0.95526 0.23446 0.0
C1915 C 0.23671 0.94286 0.22419 0.0
C1916 C 0.09101 0.80668 0.7995 0.0
C1917 C 0.09235 0.8028 0.81768 0.0
C1918 C 0.07883 0.79759 0.7886 0.0
C1919 C 0.06747 0.7843 0.79542 0.0
H1920 H 0.1 0.81619 0.79349 0.0
H1921 H 0.07876 0.80055 0.77456 0.0
S1922 S 0.06447 0.77051 0.84252 0.0
N1923 N 0.08008 0.78603 0.84234 0.0
N1924 N 0.05768 0.76854 0.82182 0.0
C1925 C 0.06803 0.78099 0.81376 0.0
C1926 C 0.08037 0.7903 0.82486 0.0
C1927 C 0.22447 0.09127 0.79753 0.0
C1928 C 0.22785 0.09408 0.81565 0.0
C1929 C 0.2341 0.07896 0.78784 0.0
C1930 C 0.24744 0.06889 0.7959 0.0
H1931 H 0.21456 0.09895 0.79067 0.0
H1932 H 0.23145 0.07768 0.77381 0.0
S1933 S 0.26164 0.07123 0.84289 0.0
N1934 N 0.24558 0.08566 0.84122 0.0
N1935 N 0.26349 0.06248 0.82306 0.0
C1936 C 0.25057 0.07113 0.81411 0.0
C1937 C 0.24083 0.08372 0.82396 0.0
C1938 C 0.94978 0.2345 0.81941 0.0
C1939 C 0.94038 0.22105 0.81038 0.0
C1940 C 0.96159 0.24594 0.81046 0.0
C1941 C 0.96425 0.24446 0.79213 0.0
H1942 H 0.94771 0.23643 0.83342 0.0
H1943 H 0.968 0.25655 0.81776 0.0
S1944 S 0.94346 0.21116 0.76249 0.0
N1945 N 0.93504 0.20666 0.78213 0.0
N1946 N 0.95722 0.22807 0.76544 0.0
C1947 C 0.95542 0.23072 0.7831 0.0
C1948 C 0.94351 0.21903 0.79218 0.0
C1949 C 0.81278 0.94308 0.79007 0.0
C1950 C 0.81271 0.93968 0.8084 0.0
C1951 C 0.80096 0.95499 0.78232 0.0
C1952 C 0.78865 0.96413 0.79257 0.0
H1953 H 0.82157 0.93594 0.78151 0.0
H1954 H 0.80111 0.9567 0.76808 0.0
S1955 S 0.78392 0.96101 0.8413 0.0
N1956 N 0.80006 0.94737 0.83675 0.0
N1957 N 0.77763 0.9695 0.82215 0.0
C1958 C 0.78891 0.96142 0.811 0.0
C1959 C 0.80094 0.94924 0.8189 0.0
C1960 C 0.21145 0.0826 0.24478 0.0
C1961 C 0.21906 0.09307 0.23126 0.0
C1962 C 0.22151 0.07033 0.25434 0.0
C1963 C 0.2396 0.06808 0.25081 0.0
H1964 H 0.19781 0.08449 0.24861 0.0
H1965 H 0.21532 0.06328 0.26523 0.0
S1966 S 0.26527 0.0902 0.21515 0.0
N1967 N 0.24534 0.09876 0.21354 0.0
N1968 N 0.26428 0.07598 0.23175 0.0
C1969 C 0.24713 0.07771 0.23672 0.0
C1970 C 0.23688 0.09012 0.22691 0.0
C1971 C 0.21754 0.942 0.78855 0.0
C1972 C 0.21761 0.93935 0.807 0.0
C1973 C 0.22965 0.95368 0.78046 0.0
C1974 C 0.24228 0.96328 0.79047 0.0
H1975 H 0.20854 0.93445 0.7802 0.0
H1976 H 0.22948 0.95483 0.76617 0.0
S1977 S 0.2471 0.96218 0.83934 0.0
N1978 N 0.23053 0.94827 0.83516 0.0
N1979 N 0.25357 0.9699 0.81993 0.0
C1980 C 0.242 0.96132 0.80899 0.0
C1981 C 0.22965 0.94941 0.81724 0.0
C1982 C 0.08666 0.21736 0.78701 0.0
C1983 C 0.09312 0.22015 0.80431 0.0
C1984 C 0.07428 0.22868 0.77926 0.0
C1985 C 0.06771 0.24318 0.78853 0.0
H1986 H 0.09159 0.20659 0.77919 0.0
H1987 H 0.07027 0.22644 0.76566 0.0
S1988 S 0.07984 0.25614 0.8343 0.0
N1989 N 0.09158 0.23837 0.83062 0.0
N1990 N 0.06814 0.25948 0.81608 0.0
C1991 C 0.07339 0.2457 0.80609 0.0
C1992 C 0.08612 0.23423 0.81398 0.0
C1993 C 0.79305 0.08519 0.82591 0.0
C1994 C 0.80609 0.09621 0.81815 0.0
C1995 C 0.78349 0.07267 0.81588 0.0
C1996 C 0.78656 0.07071 0.79768 0.0
H1997 H 0.78959 0.08679 0.83968 0.0
H1998 H 0.77298 0.06514 0.82225 0.0
S1999 S 0.82092 0.09442 0.77149 0.0
N2000 N 0.82288 0.10287 0.79152 0.0
N2001 N 0.8047 0.07956 0.77266 0.0
C2002 C 0.80018 0.08095 0.78995 0.0
C2003 C 0.80997 0.09364 0.80016 0.0
C2004 C 0.9422 0.81067 0.79918 0.0
C2005 C 0.93861 0.80556 0.81675 0.0
C2006 C 0.9541 0.80131 0.78874 0.0
C2007 C 0.96299 0.78651 0.79546 0.0
H2008 H 0.93537 0.82171 0.79327 0.0
H2009 H 0.95588 0.80528 0.77507 0.0
S2010 S 0.9586 0.76777 0.84064 0.0
N2011 N 0.94525 0.78481 0.84045 0.0
N2012 N 0.96771 0.76741 0.82087 0.0
C2013 C 0.96014 0.78171 0.8132 0.0
C2014 C 0.94794 0.79117 0.82383 0.0
C2015 C 0.82042 0.95102 0.24339 0.0
C2016 C 0.81339 0.93936 0.23059 0.0
C2017 C 0.80966 0.96305 0.25215 0.0
C2018 C 0.79139 0.96389 0.24849 0.0
H2019 H 0.83428 0.95042 0.24713 0.0
H2020 H 0.81551 0.971 0.26259 0.0
S2021 S 0.76672 0.93766 0.21482 0.0
N2022 N 0.78718 0.93036 0.21383 0.0
N2023 N 0.76706 0.95326 0.22998 0.0
C2024 C 0.7844 0.95312 0.23494 0.0
C2025 C 0.79536 0.94082 0.22605 0.0
C2026 C 0.09518 0.80435 0.23568 0.0
C2027 C 0.09554 0.80163 0.21729 0.0
C2028 C 0.08294 0.79524 0.24645 0.0
C2029 C 0.07051 0.78313 0.23927 0.0
H2030 H 0.10497 0.81292 0.24191 0.0
H2031 H 0.08362 0.79725 0.26062 0.0
S2032 S 0.06482 0.77267 0.19163 0.0
N2033 N 0.08133 0.78723 0.19217 0.0
N2034 N 0.05876 0.76973 0.21238 0.0
C2035 C 0.07015 0.78101 0.22078 0.0
C2036 C 0.08257 0.79032 0.20983 0.0
C2037 C 0.93178 0.22716 0.24057 0.0
C2038 C 0.93691 0.22374 0.2231 0.0
C2039 C 0.9434 0.23543 0.25256 0.0
C2040 C 0.96069 0.2406 0.24764 0.0
H2041 H 0.91848 0.22385 0.24491 0.0
H2042 H 0.93874 0.2379 0.26582 0.0
S2043 S 0.98107 0.23377 0.20381 0.0
N2044 N 0.9608 0.22542 0.20169 0.0
N2045 N 0.98262 0.24114 0.22429 0.0
C2046 C 0.96621 0.23684 0.23038 0.0
C2047 C 0.95432 0.22845 0.21809 0.0
C2048 C 0.24012 0.71294 0.58586 0.0
C2049 C 0.2269 0.71978 0.59683 0.0
C2050 C 0.24903 0.72362 0.57343 0.0
C2051 C 0.24513 0.74162 0.5715 0.0
H2052 H 0.24399 0.6993 0.58725 0.0
H2053 H 0.2597 0.71795 0.56597 0.0
S2054 S 0.21058 0.7657 0.59578 0.0
N2055 N 0.20966 0.74553 0.60412 0.0
N2056 N 0.22611 0.76545 0.58051 0.0
C2057 C 0.23127 0.74839 0.58167 0.0
C2058 C 0.22222 0.73753 0.59435 0.0
C2059 C 0.7841 0.71865 0.59136 0.0
C2060 C 0.80258 0.71918 0.59408 0.0
C2061 C 0.77584 0.73046 0.57972 0.0
C2062 C 0.78571 0.74324 0.57024 0.0
H2063 H 0.77585 0.70952 0.59884 0.0
H2064 H 0.76153 0.72995 0.57854 0.0
S2065 S 0.8346 0.74924 0.57152 0.0
N2066 N 0.83063 0.7327 0.58532 0.0
N2067 N 0.81508 0.75518 0.56377 0.0
C2068 C 0.80426 0.74343 0.57224 0.0
C2069 C 0.81268 0.73138 0.58411 0.0
C2070 C 0.80587 0.29294 0.60066 0.0
C2071 C 0.8088 0.31065 0.59565 0.0
C2072 C 0.79744 0.28092 0.58923 0.0
C2073 C 0.79163 0.28605 0.57226 0.0
H2074 H 0.8096 0.28843 0.61376 0.0
H2075 H 0.79524 0.26751 0.59383 0.0
S2076 S 0.79722 0.3305 0.55219 0.0
N2077 N 0.80614 0.33246 0.57211 0.0
N2078 N 0.79011 0.30982 0.55067 0.0
C2079 C 0.79501 0.30352 0.5668 0.0
C2080 C 0.80356 0.31584 0.5785 0.0
C2081 C 0.24196 0.32533 0.58653 0.0
C2082 C 0.22845 0.31815 0.59729 0.0
C2083 C 0.25072 0.31498 0.57409 0.0
C2084 C 0.24637 0.29699 0.57193 0.0
H2085 H 0.24616 0.33898 0.58809 0.0
H2086 H 0.26161 0.32091 0.56679 0.0
S2087 S 0.21094 0.27212 0.59561 0.0
N2088 N 0.21046 0.29211 0.60415 0.0
N2089 N 0.22663 0.27281 0.58051 0.0
C2090 C 0.23224 0.28989 0.5819 0.0
C2091 C 0.22333 0.30042 0.5946 0.0
C2092 C 0.24023 0.32244 0.45136 0.0
C2093 C 0.22705 0.31432 0.44075 0.0
C2094 C 0.25011 0.31268 0.46366 0.0
C2095 C 0.24724 0.29441 0.46581 0.0
H2096 H 0.24354 0.33629 0.44958 0.0
H2097 H 0.2607 0.31933 0.47087 0.0
S2098 S 0.21267 0.26729 0.44322 0.0
N2099 N 0.21036 0.28724 0.43471 0.0
N2100 N 0.22915 0.26889 0.45762 0.0
C2101 C 0.2335 0.2863 0.456 0.0
C2102 C 0.22337 0.29624 0.44353 0.0
C2103 C 0.24012 0.72901 0.43631 0.0
C2104 C 0.22252 0.72521 0.44123 0.0
C2105 C 0.25183 0.73797 0.44772 0.0
C2106 C 0.24649 0.74345 0.4646 0.0
H2107 H 0.24473 0.72561 0.42324 0.0
H2108 H 0.26512 0.74094 0.44314 0.0
S2109 S 0.20233 0.73551 0.48451 0.0
N2110 N 0.20066 0.72663 0.46465 0.0
N2111 N 0.22274 0.74361 0.48608 0.0
C2112 C 0.22919 0.73913 0.47002 0.0
C2113 C 0.21718 0.73005 0.45833 0.0
C2114 C 0.81813 0.73722 0.45351 0.0
C2115 C 0.80991 0.72425 0.4428 0.0
C2116 C 0.80829 0.74729 0.46535 0.0
C2117 C 0.78985 0.74482 0.4669 0.0
H2118 H 0.83211 0.74029 0.45207 0.0
H2119 H 0.815 0.7578 0.47255 0.0
S2120 S 0.76242 0.7108 0.44405 0.0
N2121 N 0.78256 0.70807 0.43624 0.0
N2122 N 0.76407 0.72727 0.45822 0.0
C2123 C 0.78166 0.7312 0.45712 0.0
C2124 C 0.79168 0.72087 0.44515 0.0
C2125 C 0.81502 0.29986 0.44794 0.0
C2126 C 0.80574 0.31405 0.44039 0.0
C2127 C 0.80702 0.28865 0.46057 0.0
C2128 C 0.78949 0.29125 0.46608 0.0
H2129 H 0.8282 0.29685 0.44341 0.0
H2130 H 0.81423 0.2773 0.4653 0.0
S2131 S 0.76056 0.32802 0.45257 0.0
N2132 N 0.77888 0.33129 0.4411 0.0
N2133 N 0.76384 0.31006 0.46452 0.0
C2134 C 0.78053 0.306 0.45949 0.0
C2135 C 0.78865 0.31743 0.44673 0.0
C2136 C 0.09007 0.74508 0.721 0.0
C2137 C 0.09257 0.72671 0.72126 0.0
C2138 C 0.0781 0.75307 0.73247 0.0
C2139 C 0.06801 0.74303 0.74459 0.0
H2140 H 0.09789 0.75346 0.7123 0.0
H2141 H 0.07705 0.76731 0.73215 0.0
S2142 S 0.06871 0.69433 0.74981 0.0
N2143 N 0.08315 0.69858 0.73398 0.0
N2144 N 0.06089 0.71362 0.75572 0.0
C2145 C 0.0699 0.72458 0.74456 0.0
C2146 C 0.08214 0.71644 0.7329 0.0
C2147 C 0.7966 0.59427 0.72786 0.0
C2148 C 0.81503 0.59549 0.73065 0.0
C2149 C 0.78611 0.58191 0.73715 0.0
C2150 C 0.79363 0.5702 0.74953 0.0
H2151 H 0.79011 0.60351 0.71909 0.0
H2152 H 0.77189 0.58193 0.73509 0.0
S2153 S 0.84154 0.56685 0.76029 0.0
N2154 N 0.84058 0.58283 0.74541 0.0
N2155 N 0.82088 0.56002 0.76326 0.0
C2156 C 0.81218 0.57067 0.75172 0.0
C2157 C 0.82285 0.58322 0.74222 0.0
C2158 C 0.9539 0.30438 0.71926 0.0
C2159 C 0.93748 0.31083 0.72494 0.0
C2160 C 0.96563 0.29613 0.73113 0.0
C2161 C 0.96122 0.29385 0.74904 0.0
H2162 H 0.95757 0.30544 0.70547 0.0
H2163 H 0.97787 0.29089 0.72615 0.0
S2164 S 0.92032 0.30893 0.7708 0.0
N2165 N 0.91779 0.31475 0.74988 0.0
N2166 N 0.93983 0.29946 0.77208 0.0
C2167 C 0.94515 0.30074 0.75498 0.0
C2168 C 0.93329 0.30918 0.74297 0.0
C2169 C 0.21817 0.44333 0.74884 0.0
C2170 C 0.21833 0.4408 0.7304 0.0
C2171 C 0.22989 0.45536 0.75706 0.0
C2172 C 0.24215 0.46548 0.74718 0.0
H2173 H 0.20939 0.43545 0.75709 0.0
H2174 H 0.22968 0.4564 0.77134 0.0
S2175 S 0.2471 0.4648 0.6984 0.0
N2176 N 0.23104 0.45029 0.7024 0.0
N2177 N 0.25325 0.47266 0.71786 0.0
C2178 C 0.24198 0.46361 0.72868 0.0
C2179 C 0.23008 0.4513 0.7203 0.0
C2180 C 0.08215 0.29066 0.32398 0.0
C2181 C 0.09096 0.30554 0.31673 0.0
C2182 C 0.07022 0.28045 0.31384 0.0
C2183 C 0.06671 0.28469 0.29605 0.0
H2184 H 0.08518 0.28629 0.3373 0.0
H2185 H 0.0645 0.26858 0.31964 0.0
S2186 S 0.08408 0.32367 0.27154 0.0
N2187 N 0.09354 0.32516 0.29126 0.0
N2188 N 0.07151 0.30563 0.27211 0.0
C2189 C 0.07459 0.30005 0.28894 0.0
C2190 C 0.08661 0.31055 0.29929 0.0
C2191 C 0.22672 0.59214 0.30073 0.0
C2192 C 0.23043 0.59465 0.31883 0.0
C2193 C 0.23609 0.57991 0.29069 0.0
C2194 C 0.24948 0.56961 0.29837 0.0
H2195 H 0.21675 0.59997 0.29416 0.0
H2196 H 0.23317 0.57882 0.27669 0.0
S2197 S 0.26454 0.57123 0.34514 0.0
N2198 N 0.24855 0.58579 0.34396 0.0
N2199 N 0.26598 0.56275 0.32515 0.0
C2200 C 0.25297 0.5716 0.31655 0.0
C2201 C 0.2435 0.58411 0.32676 0.0
C2202 C 0.94843 0.7126 0.2979 0.0
C2203 C 0.93798 0.72024 0.31109 0.0
C2204 C 0.96074 0.72272 0.28819 0.0
C2205 C 0.9631 0.74091 0.29123 0.0
H2206 H 0.94652 0.69884 0.29446 0.0
H2207 H 0.9678 0.71642 0.27758 0.0
S2208 S 0.94093 0.76683 0.32587 0.0
N2209 N 0.93225 0.74677 0.32792 0.0
N2210 N 0.95523 0.76581 0.30949 0.0
C2211 C 0.95343 0.74854 0.30497 0.0
C2212 C 0.94092 0.73822 0.31492 0.0
C2213 C 0.82151 0.44901 0.29303 0.0
C2214 C 0.81469 0.43922 0.30744 0.0
C2215 C 0.81102 0.46113 0.28373 0.0
C2216 C 0.7933 0.46389 0.28843 0.0
H2217 H 0.83479 0.44669 0.28833 0.0
H2218 H 0.81654 0.46766 0.27218 0.0
S2219 S 0.76987 0.44369 0.32663 0.0
N2220 N 0.78967 0.43477 0.32717 0.0
N2221 N 0.76992 0.45724 0.30945 0.0
C2222 C 0.78662 0.45496 0.30337 0.0
C2223 C 0.79731 0.44271 0.31291 0.0
C2224 C 0.23744 0.60056 0.72879 0.0
C2225 C 0.21954 0.59564 0.7264 0.0
C2226 C 0.2494 0.58927 0.73719 0.0
C2227 C 0.24402 0.57252 0.74351 0.0
H2228 H 0.24215 0.61354 0.72473 0.0
H2229 H 0.26295 0.59386 0.7391 0.0
S2230 S 0.19902 0.55263 0.73929 0.0
N2231 N 0.19727 0.57232 0.73002 0.0
N2232 N 0.21984 0.55114 0.74595 0.0
C2233 C 0.22637 0.56708 0.74058 0.0
C2234 C 0.2141 0.57865 0.73207 0.0
C2235 C 0.21831 0.45324 0.30244 0.0
C2236 C 0.22368 0.43708 0.30991 0.0
C2237 C 0.23059 0.46489 0.2944 0.0
C2238 C 0.2486 0.46064 0.29334 0.0
H2239 H 0.20448 0.45682 0.30265 0.0
H2240 H 0.2259 0.47702 0.28852 0.0
S2241 S 0.26958 0.42034 0.31125 0.0
N2242 N 0.24837 0.41772 0.31595 0.0
N2243 N 0.27135 0.43961 0.30109 0.0
C2244 C 0.25419 0.44476 0.30113 0.0
C2245 C 0.24176 0.43299 0.30936 0.0
C2246 C 0.09542 0.73491 0.30763 0.0
C2247 C 0.09582 0.71649 0.30547 0.0
C2248 C 0.08309 0.7452 0.29837 0.0
C2249 C 0.07062 0.73749 0.28667 0.0
H2250 H 0.10525 0.74151 0.31585 0.0
H2251 H 0.08375 0.75941 0.29991 0.0
S2252 S 0.065 0.68957 0.27779 0.0
N2253 N 0.0816 0.69079 0.29209 0.0
N2254 N 0.05886 0.7101 0.2743 0.0
C2255 C 0.07028 0.71898 0.28515 0.0
C2256 C 0.08279 0.70851 0.29461 0.0
C2257 C 0.80453 0.59778 0.29559 0.0
C2258 C 0.80832 0.59226 0.31297 0.0
C2259 C 0.79575 0.58657 0.28361 0.0
C2260 C 0.79043 0.56932 0.28845 0.0
H2261 H 0.80776 0.61112 0.29137 0.0
H2262 H 0.79277 0.59159 0.2705 0.0
S2263 S 0.7985 0.54785 0.33184 0.0
N2264 N 0.80714 0.56791 0.33406 0.0
N2265 N 0.79047 0.54688 0.31148 0.0
C2266 C 0.79478 0.56332 0.30552 0.0
C2267 C 0.80369 0.57479 0.3178 0.0
C2268 C 0.95009 0.29081 0.32334 0.0
C2269 C 0.94139 0.30541 0.31585 0.0
C2270 C 0.96184 0.28072 0.31341 0.0
C2271 C 0.96529 0.28478 0.29559 0.0
H2272 H 0.94712 0.28658 0.33671 0.0
H2273 H 0.96744 0.26905 0.31942 0.0
S2274 S 0.9482 0.3231 0.27048 0.0
N2275 N 0.93887 0.32461 0.2901 0.0
N2276 N 0.96059 0.30537 0.27138 0.0
C2277 C 0.95754 0.2999 0.28825 0.0
C2278 C 0.94569 0.31026 0.29837 0.0
C2279 C 0.79782 0.443 0.72346 0.0
C2280 C 0.81563 0.44007 0.72815 0.0
C2281 C 0.78745 0.45489 0.73289 0.0
C2282 C 0.79447 0.46441 0.74732 0.0
H2283 H 0.79171 0.43571 0.71269 0.0
H2284 H 0.77364 0.45624 0.72921 0.0
S2285 S 0.84029 0.46164 0.76504 0.0
N2286 N 0.83982 0.44785 0.74821 0.0
N2287 N 0.82037 0.47025 0.76575 0.0
C2288 C 0.81241 0.46211 0.75176 0.0
C2289 C 0.82297 0.44994 0.74223 0.0
C2290 C 0.08365 0.31543 0.73191 0.0
C2291 C 0.09195 0.30625 0.71819 0.0
C2292 C 0.07149 0.30692 0.74324 0.0
C2293 C 0.06729 0.28886 0.74138 0.0
H2294 H 0.08688 0.32922 0.73416 0.0
H2295 H 0.06604 0.31432 0.75408 0.0
S2296 S 0.0845 0.25902 0.70706 0.0
N2297 N 0.09448 0.27817 0.70304 0.0
N2298 N 0.0715 0.26234 0.72414 0.0
C2299 C 0.0749 0.27972 0.72728 0.0
C2300 C 0.08723 0.28836 0.71574 0.0
C2301 C 0.92996 0.73102 0.73833 0.0
C2302 C 0.93468 0.72859 0.72056 0.0
C2303 C 0.94166 0.7391 0.75036 0.0
C2304 C 0.95864 0.74506 0.74519 0.0
H2305 H 0.91691 0.72704 0.7429 0.0
H2306 H 0.93733 0.74078 0.76387 0.0
S2307 S 0.97789 0.74099 0.70048 0.0
N2308 N 0.95784 0.73209 0.69855 0.0
N2309 N 0.97983 0.74743 0.72125 0.0
C2310 C 0.96375 0.74232 0.7276 0.0
C2311 C 0.95176 0.73413 0.71527 0.0
C2312 C 0.74018 0.21039 0.58537 0.0
C2313 C 0.72607 0.21775 0.59479 0.0
C2314 C 0.75 0.22044 0.5731 0.0
C2315 C 0.74613 0.23825 0.56982 0.0
H2316 H 0.74428 0.19703 0.58815 0.0
H2317 H 0.76136 0.21454 0.56692 0.0
S2318 S 0.70895 0.26304 0.5888 0.0
N2319 N 0.70744 0.24337 0.59824 0.0
N2320 N 0.72619 0.26231 0.57551 0.0
C2321 C 0.73145 0.24546 0.57831 0.0
C2322 C 0.72136 0.23522 0.5907 0.0
C2323 C 0.28469 0.22132 0.59139 0.0
C2324 C 0.30273 0.22258 0.59619 0.0
C2325 C 0.27719 0.23315 0.57926 0.0
C2326 C 0.28745 0.24663 0.57132 0.0
H2327 H 0.27617 0.21135 0.59739 0.0
H2328 H 0.26311 0.23209 0.57647 0.0
S2329 S 0.33531 0.2556 0.57909 0.0
N2330 N 0.3307 0.23835 0.59179 0.0
N2331 N 0.31661 0.26042 0.56883 0.0
C2332 C 0.30563 0.24765 0.57544 0.0
C2333 C 0.31327 0.23566 0.58789 0.0
C2334 C 0.31362 0.80433 0.58598 0.0
C2335 C 0.30382 0.81669 0.59552 0.0
C2336 C 0.30532 0.79277 0.57389 0.0
C2337 C 0.28688 0.79303 0.57102 0.0
H2338 H 0.32776 0.80333 0.58814 0.0
H2339 H 0.31327 0.783 0.56739 0.0
S2340 S 0.2553 0.82333 0.59197 0.0
N2341 N 0.27469 0.8288 0.60076 0.0
N2342 N 0.25923 0.80727 0.57795 0.0
C2343 C 0.27705 0.80575 0.57996 0.0
C2344 C 0.28547 0.81753 0.59221 0.0
C2345 C 0.7391 0.82157 0.58596 0.0
C2346 C 0.72608 0.8143 0.59724 0.0
C2347 C 0.74776 0.81118 0.5735 0.0
C2348 C 0.74378 0.79305 0.57183 0.0
H2349 H 0.74301 0.83534 0.5871 0.0
H2350 H 0.75828 0.81721 0.56576 0.0
S2351 S 0.70967 0.76786 0.59704 0.0
N2352 N 0.70894 0.78801 0.60517 0.0
N2353 N 0.72491 0.76859 0.58148 0.0
C2354 C 0.73014 0.78582 0.58236 0.0
C2355 C 0.72134 0.7964 0.59508 0.0
C2356 C 0.74709 0.81168 0.43491 0.0
C2357 C 0.72975 0.81706 0.43846 0.0
C2358 C 0.75615 0.80052 0.44653 0.0
C2359 C 0.74833 0.79436 0.46228 0.0
H2360 H 0.75368 0.816 0.42292 0.0
H2361 H 0.76951 0.79678 0.4432 0.0
S2362 S 0.70332 0.80478 0.47797 0.0
N2363 N 0.7051 0.81554 0.45898 0.0
N2364 N 0.72228 0.79455 0.48095 0.0
C2365 C 0.73106 0.79973 0.46613 0.0
C2366 C 0.72171 0.81101 0.45416 0.0
C2367 C 0.73198 0.21871 0.45108 0.0
C2368 C 0.71814 0.22795 0.4428 0.0
C2369 C 0.74369 0.22713 0.46301 0.0
C2370 C 0.74209 0.24515 0.46698 0.0
H2371 H 0.73401 0.20495 0.44801 0.0
H2372 H 0.75458 0.2197 0.46849 0.0
S2373 S 0.70769 0.27512 0.44962 0.0
N2374 N 0.70323 0.25604 0.43998 0.0
N2375 N 0.72504 0.2717 0.46251 0.0
C2376 C 0.72792 0.25434 0.45935 0.0
C2377 C 0.71599 0.2458 0.44726 0.0
C2378 C 0.32213 0.24295 0.45234 0.0
C2379 C 0.31434 0.22922 0.4423 0.0
C2380 C 0.31216 0.25272 0.46434 0.0
C2381 C 0.29397 0.24918 0.46673 0.0
H2382 H 0.33588 0.24676 0.45034 0.0
H2383 H 0.31852 0.2637 0.4711 0.0
S2384 S 0.26774 0.21311 0.44568 0.0
N2385 N 0.28772 0.21138 0.43714 0.0
N2386 N 0.26895 0.22998 0.4594 0.0
C2387 C 0.28622 0.23494 0.4575 0.0
C2388 C 0.29638 0.22492 0.44536 0.0
C2389 C 0.31685 0.80326 0.45132 0.0
C2390 C 0.30759 0.81654 0.44222 0.0
C2391 C 0.30821 0.79187 0.46336 0.0
C2392 C 0.28994 0.79322 0.46658 0.0
H2393 H 0.33081 0.80142 0.44884 0.0
H2394 H 0.31567 0.78138 0.46952 0.0
S2395 S 0.25976 0.82609 0.44679 0.0
N2396 N 0.27919 0.83065 0.43779 0.0
N2397 N 0.26308 0.80935 0.4604 0.0
C2398 C 0.28069 0.80681 0.45807 0.0
C2399 C 0.28947 0.81844 0.44591 0.0
C2400 C 0.5995 0.22759 0.7417 0.0
C2401 C 0.59472 0.22421 0.72401 0.0
C2402 C 0.58799 0.23618 0.75315 0.0
C2403 C 0.57117 0.24174 0.74746 0.0
H2404 H 0.61248 0.22407 0.74662 0.0
H2405 H 0.59242 0.23868 0.76658 0.0
S2406 S 0.55169 0.23496 0.70283 0.0
N2407 N 0.57152 0.22617 0.70164 0.0
N2408 N 0.54997 0.24253 0.72318 0.0
C2409 C 0.56594 0.23792 0.73 0.0
C2410 C 0.57771 0.22919 0.71827 0.0
C2411 C 0.29602 0.09137 0.72647 0.0
C2412 C 0.3142 0.09422 0.72994 0.0
C2413 C 0.28599 0.07904 0.73627 0.0
C2414 C 0.29375 0.06898 0.74986 0.0
H2415 H 0.28939 0.09905 0.71635 0.0
H2416 H 0.27192 0.07772 0.73354 0.0
S2417 S 0.34076 0.07143 0.7644 0.0
N2418 N 0.33951 0.08588 0.74804 0.0
N2419 N 0.3207 0.06263 0.76627 0.0
C2420 C 0.31201 0.07127 0.7531 0.0
C2421 C 0.32222 0.08388 0.7432 0.0
C2422 C 0.44158 0.78876 0.71984 0.0
C2423 C 0.43882 0.80707 0.72071 0.0
C2424 C 0.45312 0.78032 0.73163 0.0
C2425 C 0.46251 0.78981 0.74473 0.0
H2426 H 0.43418 0.78075 0.71044 0.0
H2427 H 0.4543 0.76611 0.73086 0.0
S2428 S 0.46117 0.83818 0.7517 0.0
N2429 N 0.44745 0.83461 0.73495 0.0
N2430 N 0.46893 0.81868 0.75731 0.0
C2431 C 0.46051 0.80822 0.74526 0.0
C2432 C 0.44868 0.81684 0.73326 0.0
C2433 C 0.7335 0.94278 0.72731 0.0
C2434 C 0.71579 0.93906 0.73196 0.0
C2435 C 0.74395 0.95493 0.73694 0.0
C2436 C 0.73708 0.96391 0.75155 0.0
H2437 H 0.73947 0.93597 0.71636 0.0
H2438 H 0.75767 0.95695 0.73322 0.0
S2439 S 0.69161 0.95885 0.76936 0.0
N2440 N 0.69189 0.9454 0.75227 0.0
N2441 N 0.71147 0.96829 0.77018 0.0
C2442 C 0.71925 0.96073 0.75602 0.0
C2443 C 0.70863 0.94831 0.74628 0.0
C2444 C 0.59761 0.78347 0.3139 0.0
C2445 C 0.59409 0.80084 0.31913 0.0
C2446 C 0.58615 0.77427 0.30246 0.0
C2447 C 0.5706 0.78197 0.29588 0.0
H2448 H 0.60951 0.77702 0.31846 0.0
H2449 H 0.58952 0.76098 0.29867 0.0
S2450 S 0.55494 0.82685 0.30591 0.0
N2451 N 0.57373 0.82529 0.31712 0.0
N2452 N 0.55204 0.80781 0.29564 0.0
C2453 C 0.5667 0.79919 0.3012 0.0
C2454 C 0.57852 0.80869 0.31275 0.0
C2455 C 0.72442 0.09366 0.30097 0.0
C2456 C 0.72802 0.09508 0.31919 0.0
C2457 C 0.73308 0.08124 0.2905 0.0
C2458 C 0.7456 0.06966 0.29786 0.0
H2459 H 0.71547 0.10276 0.29458 0.0
H2460 H 0.7304 0.08109 0.27641 0.0
S2461 S 0.75844 0.06694 0.34528 0.0
N2462 N 0.74375 0.0828 0.34444 0.0
N2463 N 0.76039 0.0599 0.32478 0.0
C2464 C 0.74862 0.07037 0.31624 0.0
C2465 C 0.73978 0.08298 0.32688 0.0
C2466 C 0.43674 0.24167 0.31159 0.0
C2467 C 0.44123 0.22388 0.31399 0.0
C2468 C 0.44814 0.25356 0.30286 0.0
C2469 C 0.46455 0.24821 0.29617 0.0
H2470 H 0.42398 0.24633 0.31586 0.0
H2471 H 0.44386 0.26702 0.30096 0.0
S2472 S 0.4834 0.20355 0.30041 0.0
N2473 N 0.4639 0.20181 0.31013 0.0
N2474 N 0.48524 0.22421 0.2935 0.0
C2475 C 0.46962 0.2307 0.29916 0.0
C2476 C 0.45796 0.21851 0.30805 0.0
C2477 C 0.31604 0.95351 0.30345 0.0
C2478 C 0.31019 0.93744 0.31114 0.0
C2479 C 0.30402 0.9653 0.29567 0.0
C2480 C 0.28577 0.96132 0.29513 0.0
H2481 H 0.33004 0.95684 0.3032 0.0
H2482 H 0.30907 0.97726 0.28946 0.0
S2483 S 0.26353 0.92142 0.31371 0.0
N2484 N 0.28477 0.91853 0.31797 0.0
N2485 N 0.26232 0.94067 0.30348 0.0
C2486 C 0.27972 0.9456 0.30319 0.0
C2487 C 0.29187 0.93368 0.31116 0.0
C2488 C 0.71182 0.08321 0.74437 0.0
C2489 C 0.71957 0.09374 0.73098 0.0
C2490 C 0.72186 0.07114 0.7542 0.0
C2491 C 0.74006 0.06914 0.75108 0.0
H2492 H 0.69807 0.08491 0.74789 0.0
H2493 H 0.71553 0.06403 0.76498 0.0
S2494 S 0.76617 0.0915 0.71589 0.0
N2495 N 0.74616 0.09975 0.71381 0.0
N2496 N 0.76504 0.07733 0.73253 0.0
C2497 C 0.74775 0.07882 0.73711 0.0
C2498 C 0.73753 0.09104 0.72703 0.0
C2499 C 0.73557 0.93331 0.30697 0.0
C2500 C 0.71783 0.93812 0.30932 0.0
C2501 C 0.74773 0.94468 0.29858 0.0
C2502 C 0.74272 0.96138 0.29225 0.0
H2503 H 0.74 0.92043 0.31119 0.0
H2504 H 0.76118 0.94026 0.29688 0.0
S2505 S 0.6982 0.98081 0.29608 0.0
N2506 N 0.69606 0.96114 0.30542 0.0
N2507 N 0.71901 0.98249 0.28953 0.0
C2508 C 0.72519 0.96662 0.29498 0.0
C2509 C 0.71272 0.95498 0.30347 0.0
C2510 C 0.60084 0.23887 0.30638 0.0
C2511 C 0.59521 0.22164 0.31083 0.0
C2512 C 0.58958 0.25051 0.29751 0.0
C2513 C 0.57215 0.24548 0.29278 0.0
H2514 H 0.6143 0.24323 0.30923 0.0
H2515 H 0.59468 0.26352 0.29406 0.0
S2516 S 0.5504 0.20234 0.30252 0.0
N2517 N 0.57063 0.20044 0.31074 0.0
N2518 N 0.54946 0.22241 0.29396 0.0
C2519 C 0.56607 0.22854 0.29771 0.0
C2520 C 0.57761 0.21659 0.30668 0.0
C2521 C 0.29384 0.08374 0.32455 0.0
C2522 C 0.3068 0.09467 0.31653 0.0
C2523 C 0.28411 0.07118 0.31474 0.0
C2524 C 0.28692 0.06908 0.29651 0.0
H2525 H 0.29056 0.08547 0.33835 0.0
H2526 H 0.27364 0.06375 0.32129 0.0
S2527 S 0.32101 0.09247 0.26971 0.0
N2528 N 0.32327 0.10106 0.28964 0.0
N2529 N 0.30476 0.07766 0.27119 0.0
C2530 C 0.30048 0.0792 0.28853 0.0
C2531 C 0.31046 0.09193 0.29852 0.0
C2532 C 0.44921 0.79219 0.32125 0.0
C2533 C 0.44009 0.8068 0.31436 0.0
C2534 C 0.46112 0.78275 0.31087 0.0
C2535 C 0.46435 0.78751 0.29316 0.0
H2536 H 0.44653 0.78748 0.33453 0.0
H2537 H 0.46712 0.77107 0.31646 0.0
S2538 S 0.44596 0.82615 0.26953 0.0
N2539 N 0.43675 0.82672 0.28927 0.0
N2540 N 0.45885 0.80877 0.26972 0.0
C2541 C 0.45608 0.80262 0.2864 0.0
C2542 C 0.44403 0.8123 0.29698 0.0
C2543 C 0.32182 0.94846 0.74441 0.0
C2544 C 0.3147 0.93733 0.73119 0.0
C2545 C 0.31129 0.9607 0.75316 0.0
C2546 C 0.29317 0.9623 0.7491 0.0
H2547 H 0.33559 0.94737 0.74837 0.0
H2548 H 0.31721 0.96834 0.7638 0.0
S2549 S 0.26833 0.9374 0.71454 0.0
N2550 N 0.28854 0.92945 0.71382 0.0
N2551 N 0.26888 0.95272 0.72998 0.0
C2552 C 0.28608 0.95191 0.73529 0.0
C2553 C 0.2968 0.93941 0.72639 0.0
C2554 C 0.57606 0.80188 0.71808 0.0
C2555 C 0.59254 0.80877 0.72396 0.0
C2556 C 0.5642 0.79348 0.72984 0.0
C2557 C 0.56855 0.79152 0.74783 0.0
H2558 H 0.57245 0.8027 0.70421 0.0
H2559 H 0.55191 0.78789 0.72473 0.0
S2560 S 0.60961 0.8076 0.77009 0.0
N2561 N 0.61224 0.81334 0.74917 0.0
N2562 N 0.58998 0.79772 0.77115 0.0
C2563 C 0.58468 0.79881 0.75397 0.0
C2564 C 0.59666 0.8074 0.74208 0.0
C2565 C 0.45233 0.23362 0.71728 0.0
C2566 C 0.43624 0.22584 0.723 0.0
C2567 C 0.46424 0.24164 0.72932 0.0
C2568 C 0.46031 0.24237 0.74743 0.0
H2569 H 0.45563 0.2337 0.70336 0.0
H2570 H 0.47628 0.24781 0.72436 0.0
S2571 S 0.42036 0.22358 0.76931 0.0
N2572 N 0.41733 0.21913 0.74815 0.0
N2573 N 0.4397 0.23399 0.77065 0.0
C2574 C 0.44454 0.23425 0.75337 0.0
C2575 C 0.43251 0.22604 0.7412 0.0
C2576 C 0.74383 0.71831 0.09263 0.0
C2577 C 0.72546 0.71896 0.09566 0.0
C2578 C 0.75223 0.73007 0.08083 0.0
C2579 C 0.74261 0.74287 0.07146 0.0
H2580 H 0.75193 0.70911 0.09996 0.0
H2581 H 0.76647 0.72946 0.07941 0.0
S2582 S 0.69403 0.74924 0.07361 0.0
N2583 N 0.69774 0.73271 0.08739 0.0
N2584 N 0.71355 0.75501 0.06549 0.0
C2585 C 0.72413 0.7432 0.07381 0.0
C2586 C 0.71557 0.73124 0.08587 0.0
C2587 C 0.28914 0.71202 0.08375 0.0
C2588 C 0.30237 0.71879 0.0952 0.0
C2589 C 0.28065 0.72285 0.07132 0.0
C2590 C 0.285 0.74093 0.06985 0.0
H2591 H 0.28494 0.69831 0.08475 0.0
H2592 H 0.26994 0.71721 0.06346 0.0
S2593 S 0.31979 0.7649 0.09552 0.0
N2594 N 0.3201 0.74458 0.1035 0.0
N2595 N 0.30449 0.76478 0.07982 0.0
C2596 C 0.29889 0.74765 0.08051 0.0
C2597 C 0.3075 0.73663 0.09323 0.0
C2598 C 0.31009 0.29794 0.09517 0.0
C2599 C 0.30563 0.31575 0.09725 0.0
C2600 C 0.30116 0.28714 0.08283 0.0
C2601 C 0.28747 0.29374 0.07202 0.0
H2602 H 0.31993 0.29205 0.10375 0.0
H2603 H 0.30454 0.27332 0.08223 0.0
S2604 S 0.27214 0.34003 0.07098 0.0
N2605 N 0.2879 0.33997 0.08623 0.0
N2606 N 0.27074 0.31963 0.06351 0.0
C2607 C 0.28361 0.3118 0.07328 0.0
C2608 C 0.29274 0.32278 0.08579 0.0
C2609 C 0.71838 0.3035 0.08526 0.0
C2610 C 0.72849 0.31608 0.0948 0.0
C2611 C 0.72634 0.29215 0.07312 0.0
C2612 C 0.74473 0.29281 0.07019 0.0
H2613 H 0.70425 0.30223 0.08743 0.0
H2614 H 0.71814 0.28224 0.0666 0.0
S2615 S 0.77706 0.32373 0.09118 0.0
N2616 N 0.75787 0.32877 0.10002 0.0
N2617 N 0.77269 0.30761 0.07712 0.0
C2618 C 0.75488 0.3057 0.07918 0.0
C2619 C 0.74681 0.31728 0.09148 0.0
C2620 C 0.7451 0.31886 0.9449 0.0
C2621 C 0.7271 0.31725 0.94004 0.0
C2622 C 0.75278 0.30725 0.95713 0.0
C2623 C 0.74273 0.29363 0.96513 0.0
H2624 H 0.75347 0.32892 0.93885 0.0
H2625 H 0.76683 0.30856 0.95994 0.0
S2626 S 0.69503 0.28385 0.95737 0.0
N2627 N 0.69937 0.30107 0.94454 0.0
N2628 N 0.71379 0.27941 0.96769 0.0
C2629 C 0.72457 0.2923 0.961 0.0
C2630 C 0.71676 0.30407 0.94844 0.0
C2631 C 0.73436 0.72601 0.94158 0.0
C2632 C 0.71618 0.72918 0.93906 0.0
C2633 C 0.74445 0.73553 0.95408 0.0
C2634 C 0.73676 0.74853 0.96464 0.0
H2635 H 0.74095 0.71638 0.93353 0.0
H2636 H 0.75852 0.73307 0.95515 0.0
S2637 S 0.68977 0.76205 0.96322 0.0
N2638 N 0.69094 0.74632 0.94827 0.0
N2639 N 0.70986 0.76403 0.97182 0.0
C2640 C 0.71849 0.75144 0.96268 0.0
C2641 C 0.70823 0.74182 0.9499 0.0
C2642 C 0.31438 0.74446 0.94617 0.0
C2643 C 0.31269 0.72619 0.94315 0.0
C2644 C 0.30268 0.75322 0.95732 0.0
C2645 C 0.28887 0.74407 0.96603 0.0
H2646 H 0.32436 0.75223 0.93927 0.0
H2647 H 0.30411 0.76739 0.9587 0.0
S2648 S 0.27959 0.6959 0.96382 0.0
N2649 N 0.29689 0.69903 0.95084 0.0
N2650 N 0.27472 0.71555 0.97157 0.0
C2651 C 0.28751 0.72568 0.96379 0.0
C2652 C 0.29941 0.71675 0.95237 0.0
C2653 C 0.3074 0.29543 0.9427 0.0
C2654 C 0.30414 0.31355 0.94036 0.0
C2655 C 0.29782 0.28521 0.95502 0.0
C2656 C 0.28466 0.29268 0.96558 0.0
H2657 H 0.31714 0.289 0.93463 0.0
H2658 H 0.30035 0.2712 0.95591 0.0
S2659 S 0.27092 0.33943 0.96468 0.0
N2660 N 0.28678 0.3385 0.94981 0.0
N2661 N 0.26897 0.31931 0.97301 0.0
C2662 C 0.28168 0.31088 0.96384 0.0
C2663 C 0.29137 0.32129 0.95124 0.0
C2664 C 0.58395 0.71853 0.23224 0.0
C2665 C 0.5934 0.72884 0.21981 0.0
C2666 C 0.5715 0.72614 0.24354 0.0
C2667 C 0.56806 0.74432 0.24278 0.0
H2668 H 0.58683 0.70466 0.23388 0.0
H2669 H 0.56529 0.71795 0.2536 0.0
S2670 S 0.58707 0.77652 0.21079 0.0
N2671 N 0.59672 0.75777 0.20601 0.0
N2672 N 0.57365 0.77203 0.22743 0.0
C2673 C 0.57657 0.75451 0.2297 0.0
C2674 C 0.58915 0.7468 0.21817 0.0
C2675 C 0.29728 0.59365 0.22974 0.0
C2676 C 0.31575 0.59499 0.23218 0.0
C2677 C 0.28706 0.58115 0.23916 0.0
C2678 C 0.29489 0.56945 0.25135 0.0
H2679 H 0.29055 0.60291 0.22117 0.0
H2680 H 0.2728 0.58111 0.2374 0.0
S2681 S 0.34304 0.56632 0.26106 0.0
N2682 N 0.34167 0.58237 0.24629 0.0
N2683 N 0.32249 0.55936 0.26442 0.0
C2684 C 0.31347 0.57001 0.25313 0.0
C2685 C 0.32387 0.58267 0.24348 0.0
C2686 C 0.45636 0.3028 0.21969 0.0
C2687 C 0.44097 0.31123 0.22558 0.0
C2688 C 0.46809 0.29471 0.23168 0.0
C2689 C 0.46472 0.29463 0.24992 0.0
H2690 H 0.45913 0.30211 0.20569 0.0
H2691 H 0.47942 0.28783 0.22659 0.0
S2692 S 0.42686 0.31537 0.27228 0.0
N2693 N 0.42345 0.31937 0.25106 0.0
N2694 N 0.44551 0.30435 0.27343 0.0
C2695 C 0.44979 0.30355 0.25602 0.0
C2696 C 0.43792 0.31181 0.2439 0.0
C2697 C 0.73074 0.44818 0.22049 0.0
C2698 C 0.71824 0.43826 0.23029 0.0
C2699 C 0.74229 0.46039 0.22875 0.0
C2700 C 0.74189 0.46301 0.24716 0.0
H2701 H 0.73181 0.44627 0.20636 0.0
H2702 H 0.75213 0.46723 0.22078 0.0
S2703 S 0.71125 0.44095 0.27875 0.0
N2704 N 0.70589 0.43233 0.25939 0.0
N2705 N 0.72742 0.45536 0.2748 0.0
C2706 C 0.72908 0.45362 0.25701 0.0
C2707 C 0.7173 0.44126 0.24862 0.0
C2708 C 0.5804 0.29388 0.82358 0.0
C2709 C 0.59252 0.3064 0.81662 0.0
C2710 C 0.56849 0.28457 0.81261 0.0
C2711 C 0.56823 0.28737 0.7942 0.0
H2712 H 0.58054 0.2908 0.83759 0.0
H2713 H 0.56016 0.27437 0.81848 0.0
S2714 S 0.59584 0.31997 0.7695 0.0
N2715 N 0.6026 0.32194 0.79022 0.0
N2716 N 0.57991 0.30477 0.7697 0.0
C2717 C 0.57947 0.30063 0.7872 0.0
C2718 C 0.59166 0.31008 0.79837 0.0
C2719 C 0.72571 0.59413 0.79767 0.0
C2720 C 0.7283 0.59527 0.81608 0.0
C2721 C 0.73489 0.58181 0.78754 0.0
C2722 C 0.74693 0.57007 0.79542 0.0
H2723 H 0.71721 0.6034 0.79092 0.0
H2724 H 0.73302 0.5819 0.77332 0.0
S2725 S 0.75701 0.56653 0.84343 0.0
N2726 N 0.74248 0.58251 0.84199 0.0
N2727 N 0.76009 0.55978 0.82298 0.0
C2728 C 0.74888 0.57046 0.81394 0.0
C2729 C 0.73951 0.58296 0.82424 0.0
C2730 C 0.43134 0.73941 0.80805 0.0
C2731 C 0.43644 0.72207 0.81205 0.0
C2732 C 0.44274 0.75114 0.7991 0.0
C2733 C 0.45977 0.74609 0.79382 0.0
H2734 H 0.41819 0.7438 0.81132 0.0
H2735 H 0.43807 0.76425 0.79605 0.0
S2736 S 0.48008 0.70264 0.80225 0.0
N2737 N 0.46013 0.70075 0.81099 0.0
N2738 N 0.4815 0.72283 0.79399 0.0
C2739 C 0.46532 0.72902 0.7983 0.0
C2740 C 0.45366 0.717 0.80738 0.0
C2741 C 0.2975 0.44307 0.81133 0.0
C2742 C 0.31512 0.43999 0.80634 0.0
C2743 C 0.28707 0.45544 0.80232 0.0
C2744 C 0.29385 0.46532 0.78799 0.0
H2745 H 0.29157 0.43556 0.82206 0.0
H2746 H 0.2734 0.45692 0.80625 0.0
S2747 S 0.33909 0.46232 0.76954 0.0
N2748 N 0.33885 0.44799 0.78607 0.0
N2749 N 0.31932 0.4713 0.76931 0.0
C2750 C 0.31161 0.46283 0.78323 0.0
C2751 C 0.32222 0.45017 0.79235 0.0
C2752 C 0.71604 0.58775 0.24697 0.0
C2753 C 0.718 0.59322 0.22925 0.0
C2754 C 0.72741 0.5754 0.25467 0.0
C2755 C 0.74114 0.56786 0.24493 0.0
H2756 H 0.70592 0.59347 0.25515 0.0
H2757 H 0.72589 0.57219 0.26856 0.0
S2758 S 0.75169 0.57711 0.19795 0.0
N2759 N 0.73454 0.58966 0.20204 0.0
N2760 N 0.75575 0.56627 0.21651 0.0
C2761 C 0.74276 0.57252 0.22699 0.0
C2762 C 0.73123 0.58522 0.21915 0.0
C2763 C 0.73744 0.43365 0.80438 0.0
C2764 C 0.71981 0.43867 0.80706 0.0
C2765 C 0.7496 0.44491 0.79586 0.0
C2766 C 0.74469 0.46171 0.78969 0.0
H2767 H 0.74179 0.42071 0.8085 0.0
H2768 H 0.76298 0.44036 0.79401 0.0
S2769 S 0.70047 0.48163 0.79428 0.0
N2770 N 0.69825 0.46194 0.80358 0.0
N2771 N 0.72117 0.48309 0.7874 0.0
C2772 C 0.72726 0.46713 0.79269 0.0
C2773 C 0.7148 0.4556 0.80133 0.0
C2774 C 0.58519 0.71644 0.78808 0.0
C2775 C 0.59119 0.7186 0.80564 0.0
C2776 C 0.57281 0.72788 0.78052 0.0
C2777 C 0.56575 0.74183 0.79025 0.0
H2778 H 0.59055 0.70615 0.77991 0.0
H2779 H 0.56925 0.72625 0.76672 0.0
S2780 S 0.57644 0.75295 0.83682 0.0
N2781 N 0.58862 0.73557 0.83269 0.0
N2782 N 0.56513 0.75686 0.81848 0.0
C2783 C 0.5709 0.74364 0.80805 0.0
C2784 C 0.58365 0.73206 0.81575 0.0
C2785 C 0.30577 0.5997 0.79741 0.0
C2786 C 0.30791 0.59452 0.81517 0.0
C2787 C 0.2972 0.58865 0.78513 0.0
C2788 C 0.29046 0.5719 0.79005 0.0
H2789 H 0.31014 0.61269 0.79307 0.0
H2790 H 0.29548 0.59344 0.77171 0.0
S2791 S 0.29395 0.55137 0.83448 0.0
N2792 N 0.30365 0.57095 0.83678 0.0
N2793 N 0.2874 0.55022 0.81362 0.0
C2794 C 0.29317 0.56619 0.80754 0.0
C2795 C 0.30185 0.57751 0.82013 0.0
C2796 C 0.44115 0.30832 0.79908 0.0
C2797 C 0.43957 0.30456 0.81725 0.0
C2798 C 0.45322 0.29929 0.78851 0.0
C2799 C 0.46425 0.2862 0.79567 0.0
H2800 H 0.43233 0.3176 0.79278 0.0
H2801 H 0.45336 0.30204 0.77443 0.0
S2802 S 0.46677 0.27302 0.84297 0.0
N2803 N 0.45142 0.28827 0.84232 0.0
N2804 N 0.47366 0.27096 0.82242 0.0
C2805 C 0.46358 0.28315 0.81403 0.0
C2806 C 0.45134 0.29238 0.8248 0.0
C2807 C 0.30089 0.44252 0.22648 0.0
C2808 C 0.31871 0.43967 0.2312 0.0
C2809 C 0.29048 0.45444 0.23583 0.0
C2810 C 0.29748 0.46408 0.2502 0.0
H2811 H 0.2948 0.43514 0.21576 0.0
H2812 H 0.27665 0.4557 0.23217 0.0
S2813 S 0.3433 0.46157 0.26793 0.0
N2814 N 0.34288 0.44766 0.2512 0.0
N2815 N 0.32336 0.47013 0.26858 0.0
C2816 C 0.31543 0.46186 0.25464 0.0
C2817 C 0.32602 0.44966 0.2452 0.0
C2818 C 0.58515 0.31415 0.2315 0.0
C2819 C 0.59368 0.30447 0.21827 0.0
C2820 C 0.57329 0.30591 0.24334 0.0
C2821 C 0.56965 0.28766 0.24249 0.0
H2822 H 0.58798 0.32812 0.23297 0.0
H2823 H 0.56765 0.31372 0.25378 0.0
S2824 S 0.58766 0.25652 0.20983 0.0
N2825 N 0.59701 0.27571 0.20469 0.0
N2826 N 0.57463 0.26038 0.22676 0.0
C2827 C 0.57749 0.278 0.2289 0.0
C2828 C 0.5895 0.28635 0.21683 0.0
C2829 C 0.44119 0.74895 0.21794 0.0
C2830 C 0.43619 0.73099 0.21918 0.0
C2831 C 0.45386 0.75642 0.22946 0.0
C2832 C 0.46216 0.74622 0.2426 0.0
H2833 H 0.43496 0.75742 0.20823 0.0
H2834 H 0.45683 0.77043 0.22842 0.0
S2835 S 0.45394 0.69861 0.25145 0.0
N2836 N 0.44072 0.70318 0.23462 0.0
N2837 N 0.46465 0.7172 0.2561 0.0
C2838 C 0.45778 0.72813 0.24361 0.0
C2839 C 0.44478 0.72052 0.23194 0.0
loop_
_geom_bond_atom_site_label_1
_geom_bond_atom_site_label_2
_geom_bond_distance
_geom_bond_site_symmetry_2
_ccdc_geom_bond_type
C0 C1 1.264 . S
C0 C5 1.479 . S
C0 C10 1.465 . S
C1 C0 1.264 . S
C1 C3 1.339 . S
C1 H28 0.931 . S
C2 C3 1.395 . S
C2 C4 1.320 . S
C3 C1 1.339 . S
C3 C2 1.395 . S
C3 H29 0.929 . S
C4 C2 1.320 . S
C4 C5 1.405 . S
C4 H30 0.930 . S
C5 C0 1.479 . S
C5 C4 1.405 . S
C5 H31 0.931 . S
U6 O7 2.454 . S
U6 O8 2.458 . S
U6 C9 2.984 . S
U6 C10 2.847 . S
U6 C23 2.882 . S
U6 O24 2.441 . S
U6 O25 2.420 . S
U6 O26 2.455 . S
U6 O27 2.449 . S
O7 U6 2.454 . S
O7 C9 1.353 . S
O8 U6 2.458 . S
O8 C9 1.286 . S
C9 U6 2.984 . S
C9 O7 1.353 . S
C9 O8 1.286 . S
C9 C11 1.363 . S
C10 C0 1.465 . S
C10 U6 2.847 . S
C10 O24 1.249 . S
C10 O25 1.202 . S
C11 C9 1.363 . S
C11 C13 1.408 . S
C11 C16 1.342 . S
C12 C13 1.310 . S
C12 C15 1.461 . S
C12 H32 0.932 . S
C13 C11 1.408 . S
C13 C12 1.310 . S
C13 H33 0.930 . S
C14 C15 1.474 . S
C14 C16 1.285 . S
C14 H34 0.929 . S
C15 C12 1.461 . S
C15 C14 1.474 . S
C16 C11 1.342 . S
C16 C14 1.285 . S
C16 H35 0.930 . S
C17 C20 1.424 . S
C17 C22 1.245 . S
C17 C23 1.428 . S
C18 C21 1.260 . S
C18 C22 1.477 . S
C18 H36 0.932 . S
C19 C20 1.384 . S
C19 C21 1.479 . S
C19 H37 0.929 . S
C20 C17 1.424 . S
C20 C19 1.384 . S
C20 H38 0.928 . S
C21 C18 1.260 . S
C21 C19 1.479 . S
C22 C17 1.245 . S
C22 C18 1.477 . S
C22 H39 0.932 . S
C23 U6 2.882 . S
C23 C17 1.428 . S
C23 O26 1.301 . S
C23 O27 1.282 . S
O24 U6 2.441 . S
O24 C10 1.249 . S
O25 U6 2.420 . S
O25 C10 1.202 . S
O26 U6 2.455 . S
O26 C23 1.301 . S
O27 U6 2.449 . S
O27 C23 1.282 . S
H28 C1 0.931 . S
H29 C3 0.929 . S
H30 C4 0.930 . S
H31 C5 0.931 . S
H32 C12 0.932 . S
H33 C13 0.930 . S
H34 C14 0.929 . S
H35 C16 0.930 . S
H36 C18 0.932 . S
H37 C19 0.929 . S
H38 C20 0.928 . S
H39 C22 0.932 . S
C40 C41 1.264 . S
C40 C45 1.479 . S
C40 C50 1.465 . S
C41 C40 1.264 . S
C41 C43 1.339 . S
C41 H68 0.931 . S
C42 C43 1.395 . S
C42 C44 1.320 . S
C43 C41 1.339 . S
C43 C42 1.395 . S
C43 H69 0.929 . S
C44 C42 1.320 . S
C44 C45 1.405 . S
C44 H70 0.930 . S
C45 C40 1.479 . S
C45 C44 1.405 . S
C45 H71 0.931 . S
U46 O47 2.454 . S
U46 O48 2.458 . S
U46 C49 2.984 . S
U46 C50 2.847 . S
U46 C63 2.882 . S
U46 O64 2.441 . S
U46 O65 2.420 . S
U46 O66 2.455 . S
U46 O67 2.449 . S
O47 U46 2.454 . S
O47 C49 1.353 . S
O48 U46 2.458 . S
O48 C49 1.286 . S
C49 U46 2.984 . S
C49 O47 1.353 . S
C49 O48 1.286 . S
C49 C51 1.363 . S
C50 C40 1.465 . S
C50 U46 2.847 . S
C50 O64 1.249 . S
C50 O65 1.202 . S
C51 C49 1.363 . S
C51 C53 1.408 . S
C51 C56 1.342 . S
C52 C53 1.310 . S
C52 C55 1.461 . S
C52 H72 0.932 . S
C53 C51 1.408 . S
C53 C52 1.310 . S
C53 H73 0.930 . S
C54 C55 1.474 . S
C54 C56 1.285 . S
C54 H74 0.929 . S
C55 C52 1.461 . S
C55 C54 1.474 . S
C56 C51 1.342 . S
C56 C54 1.285 . S
C56 H75 0.930 . S
C57 C60 1.424 . S
C57 C62 1.245 . S
C57 C63 1.428 . S
C58 C61 1.260 . S
C58 C62 1.477 . S
C58 H76 0.932 . S
C59 C60 1.384 . S
C59 C61 1.479 . S
C59 H77 0.929 . S
C60 C57 1.424 . S
C60 C59 1.384 . S
C60 H78 0.928 . S
C61 C58 1.260 . S
C61 C59 1.479 . S
C62 C57 1.245 . S
C62 C58 1.477 . S
C62 H79 0.932 . S
C63 U46 2.882 . S
C63 C57 1.428 . S
C63 O66 1.301 . S
C63 O67 1.282 . S
O64 U46 2.441 . S
O64 C50 1.249 . S
O65 U46 2.420 . S
O65 C50 1.202 . S
O66 U46 2.455 . S
O66 C63 1.301 . S
O67 U46 2.449 . S
O67 C63 1.282 . S
H68 C41 0.931 . S
H69 C43 0.929 . S
H70 C44 0.930 . S
H71 C45 0.931 . S
H72 C52 0.932 . S
H73 C53 0.930 . S
H74 C54 0.929 . S
H75 C56 0.930 . S
H76 C58 0.932 . S
H77 C59 0.929 . S
H78 C60 0.928 . S
H79 C62 0.932 . S
C80 C81 1.264 . S
C80 C85 1.479 . S
C80 C90 1.465 . S
C81 C80 1.264 . S
C81 C83 1.339 . S
C81 H108 0.931 . S
C82 C83 1.395 . S
C82 C84 1.320 . S
C83 C81 1.339 . S
C83 C82 1.395 . S
C83 H109 0.929 . S
C84 C82 1.320 . S
C84 C85 1.405 . S
C84 H110 0.930 . S
C85 C80 1.479 . S
C85 C84 1.405 . S
C85 H111 0.931 . S
U86 O87 2.454 . S
U86 O88 2.458 . S
U86 C89 2.984 . S
U86 C90 2.847 . S
U86 C103 2.882 . S
U86 O104 2.441 . S
U86 O105 2.420 . S
U86 O106 2.455 . S
U86 O107 2.449 . S
O87 U86 2.454 . S
O87 C89 1.353 . S
O88 U86 2.458 . S
O88 C89 1.286 . S
C89 U86 2.984 . S
C89 O87 1.353 . S
C89 O88 1.286 . S
C89 C91 1.363 . S
C90 C80 1.465 . S
C90 U86 2.847 . S
C90 O104 1.249 . S
C90 O105 1.202 . S
C91 C89 1.363 . S
C91 C93 1.408 . S
C91 C96 1.342 . S
C92 C93 1.310 . S
C92 C95 1.461 . S
C92 H112 0.932 . S
C93 C91 1.408 . S
C93 C92 1.310 . S
C93 H113 0.930 . S
C94 C95 1.474 . S
C94 C96 1.285 . S
C94 H114 0.929 . S
C95 C92 1.461 . S
C95 C94 1.474 . S
C96 C91 1.342 . S
C96 C94 1.285 . S
C96 H115 0.930 . S
C97 C100 1.424 . S
C97 C102 1.245 . S
C97 C103 1.428 . S
C98 C101 1.260 . S
C98 C102 1.477 . S
C98 H116 0.932 . S
C99 C100 1.384 . S
C99 C101 1.479 . S
C99 H117 0.929 . S
C100 C97 1.424 . S
C100 C99 1.384 . S
C100 H118 0.928 . S
C101 C98 1.260 . S
C101 C99 1.479 . S
C102 C97 1.245 . S
C102 C98 1.477 . S
C102 H119 0.932 . S
C103 U86 2.882 . S
C103 C97 1.428 . S
C103 O106 1.301 . S
C103 O107 1.282 . S
O104 U86 2.441 . S
O104 C90 1.249 . S
O105 U86 2.420 . S
O105 C90 1.202 . S
O106 U86 2.455 . S
O106 C103 1.301 . S
O107 U86 2.449 . S
O107 C103 1.282 . S
H108 C81 0.931 . S
H109 C83 0.929 . S
H110 C84 0.930 . S
H111 C85 0.931 . S
H112 C92 0.932 . S
H113 C93 0.930 . S
H114 C94 0.929 . S
H115 C96 0.930 . S
H116 C98 0.932 . S
H117 C99 0.929 . S
H118 C100 0.928 . S
H119 C102 0.932 . S
C120 C121 1.264 . S
C120 C125 1.479 . S
C120 C130 1.465 . S
C121 C120 1.264 . S
C121 C123 1.339 . S
C121 H148 0.931 . S
C122 C123 1.395 . S
C122 C124 1.320 . S
C123 C121 1.339 . S
C123 C122 1.395 . S
C123 H149 0.929 . S
C124 C122 1.320 . S
C124 C125 1.405 . S
C124 H150 0.930 . S
C125 C120 1.479 . S
C125 C124 1.405 . S
C125 H151 0.931 . S
U126 O127 2.454 . S
U126 O128 2.458 . S
U126 C129 2.984 . S
U126 C130 2.847 . S
U126 C143 2.882 . S
U126 O144 2.441 . S
U126 O145 2.420 . S
U126 O146 2.455 . S
U126 O147 2.449 . S
O127 U126 2.454 . S
O127 C129 1.353 . S
O128 U126 2.458 . S
O128 C129 1.286 . S
C129 U126 2.984 . S
C129 O127 1.353 . S
C129 O128 1.286 . S
C129 C131 1.363 . S
C130 C120 1.465 . S
C130 U126 2.847 . S
C130 O144 1.249 . S
C130 O145 1.202 . S
C131 C129 1.363 . S
C131 C133 1.408 . S
C131 C136 1.342 . S
C132 C133 1.310 . S
C132 C135 1.461 . S
C132 H152 0.932 . S
C133 C131 1.408 . S
C133 C132 1.310 . S
C133 H153 0.930 . S
C134 C135 1.474 . S
C134 C136 1.285 . S
C134 H154 0.929 . S
C135 C132 1.461 . S
C135 C134 1.474 . S
C136 C131 1.342 . S
C136 C134 1.285 . S
C136 H155 0.930 . S
C137 C140 1.424 . S
C137 C142 1.245 . S
C137 C143 1.428 . S
C138 C141 1.260 . S
C138 C142 1.477 . S
C138 H156 0.932 . S
C139 C140 1.384 . S
C139 C141 1.479 . S
C139 H157 0.929 . S
C140 C137 1.424 . S
C140 C139 1.384 . S
C140 H158 0.928 . S
C141 C138 1.260 . S
C141 C139 1.479 . S
C142 C137 1.245 . S
C142 C138 1.477 . S
C142 H159 0.932 . S
C143 U126 2.882 . S
C143 C137 1.428 . S
C143 O146 1.301 . S
C143 O147 1.282 . S
O144 U126 2.441 . S
O144 C130 1.249 . S
O145 U126 2.420 . S
O145 C130 1.202 . S
O146 U126 2.455 . S
O146 C143 1.301 . S
O147 U126 2.449 . S
O147 C143 1.282 . S
H148 C121 0.931 . S
H149 C123 0.929 . S
H150 C124 0.930 . S
H151 C125 0.931 . S
H152 C132 0.932 . S
H153 C133 0.930 . S
H154 C134 0.929 . S
H155 C136 0.930 . S
H156 C138 0.932 . S
H157 C139 0.929 . S
H158 C140 0.928 . S
H159 C142 0.932 . S
C160 C161 1.264 . S
C160 C165 1.479 . S
C160 C170 1.465 . S
C161 C160 1.264 . S
C161 C163 1.339 . S
C161 H188 0.931 . S
C162 C163 1.395 . S
C162 C164 1.320 . S
C163 C161 1.339 . S
C163 C162 1.395 . S
C163 H189 0.929 . S
C164 C162 1.320 . S
C164 C165 1.405 . S
C164 H190 0.930 . S
C165 C160 1.479 . S
C165 C164 1.405 . S
C165 H191 0.931 . S
U166 O167 2.454 . S
U166 O168 2.458 . S
U166 C169 2.984 . S
U166 C170 2.847 . S
U166 C183 2.882 . S
U166 O184 2.441 . S
U166 O185 2.420 . S
U166 O186 2.455 . S
U166 O187 2.449 . S
O167 U166 2.454 . S
O167 C169 1.353 . S
O168 U166 2.458 . S
O168 C169 1.286 . S
C169 U166 2.984 . S
C169 O167 1.353 . S
C169 O168 1.286 . S
C169 C171 1.363 . S
C170 C160 1.465 . S
C170 U166 2.847 . S
C170 O184 1.249 . S
C170 O185 1.202 . S
C171 C169 1.363 . S
C171 C173 1.408 . S
C171 C176 1.342 . S
C172 C173 1.310 . S
C172 C175 1.461 . S
C172 H192 0.932 . S
C173 C171 1.408 . S
C173 C172 1.310 . S
C173 H193 0.930 . S
C174 C175 1.474 . S
C174 C176 1.285 . S
C174 H194 0.929 . S
C175 C172 1.461 . S
C175 C174 1.474 . S
C176 C171 1.342 . S
C176 C174 1.285 . S
C176 H195 0.930 . S
C177 C180 1.424 . S
C177 C182 1.245 . S
C177 C183 1.428 . S
C178 C181 1.260 . S
C178 C182 1.477 . S
C178 H196 0.932 . S
C179 C180 1.384 . S
C179 C181 1.479 . S
C179 H197 0.929 . S
C180 C177 1.424 . S
C180 C179 1.384 . S
C180 H198 0.928 . S
C181 C178 1.260 . S
C181 C179 1.479 . S
C182 C177 1.245 . S
C182 C178 1.477 . S
C182 H199 0.932 . S
C183 U166 2.882 . S
C183 C177 1.428 . S
C183 O186 1.301 . S
C183 O187 1.282 . S
O184 U166 2.441 . S
O184 C170 1.249 . S
O185 U166 2.420 . S
O185 C170 1.202 . S
O186 U166 2.455 . S
O186 C183 1.301 . S
O187 U166 2.449 . S
O187 C183 1.282 . S
H188 C161 0.931 . S
H189 C163 0.929 . S
H190 C164 0.930 . S
H191 C165 0.931 . S
H192 C172 0.932 . S
H193 C173 0.930 . S
H194 C174 0.929 . S
H195 C176 0.930 . S
H196 C178 0.932 . S
H197 C179 0.929 . S
H198 C180 0.928 . S
H199 C182 0.932 . S
C200 C201 1.264 . S
C200 C205 1.479 . S
C200 C210 1.465 . S
C201 C200 1.264 . S
C201 C203 1.339 . S
C201 H228 0.931 . S
C202 C203 1.395 . S
C202 C204 1.320 . S
C203 C201 1.339 . S
C203 C202 1.395 . S
C203 H229 0.929 . S
C204 C202 1.320 . S
C204 C205 1.405 . S
C204 H230 0.930 . S
C205 C200 1.479 . S
C205 C204 1.405 . S
C205 H231 0.931 . S
U206 O207 2.454 . S
U206 O208 2.458 . S
U206 C209 2.984 . S
U206 C210 2.847 . S
U206 C223 2.882 . S
U206 O224 2.441 . S
U206 O225 2.420 . S
U206 O226 2.455 . S
U206 O227 2.449 . S
O207 U206 2.454 . S
O207 C209 1.353 . S
O208 U206 2.458 . S
O208 C209 1.286 . S
C209 U206 2.984 . S
C209 O207 1.353 . S
C209 O208 1.286 . S
C209 C211 1.363 . S
C210 C200 1.465 . S
C210 U206 2.847 . S
C210 O224 1.249 . S
C210 O225 1.202 . S
C211 C209 1.363 . S
C211 C213 1.408 . S
C211 C216 1.342 . S
C212 C213 1.310 . S
C212 C215 1.461 . S
C212 H232 0.932 . S
C213 C211 1.408 . S
C213 C212 1.310 . S
C213 H233 0.930 . S
C214 C215 1.474 . S
C214 C216 1.285 . S
C214 H234 0.929 . S
C215 C212 1.461 . S
C215 C214 1.474 . S
C216 C211 1.342 . S
C216 C214 1.285 . S
C216 H235 0.930 . S
C217 C220 1.424 . S
C217 C222 1.245 . S
C217 C223 1.428 . S
C218 C221 1.260 . S
C218 C222 1.477 . S
C218 H236 0.932 . S
C219 C220 1.384 . S
C219 C221 1.479 . S
C219 H237 0.929 . S
C220 C217 1.424 . S
C220 C219 1.384 . S
C220 H238 0.928 . S
C221 C218 1.260 . S
C221 C219 1.479 . S
C222 C217 1.245 . S
C222 C218 1.477 . S
C222 H239 0.932 . S
C223 U206 2.882 . S
C223 C217 1.428 . S
C223 O226 1.301 . S
C223 O227 1.282 . S
O224 U206 2.441 . S
O224 C210 1.249 . S
O225 U206 2.420 . S
O225 C210 1.202 . S
O226 U206 2.455 . S
O226 C223 1.301 . S
O227 U206 2.449 . S
O227 C223 1.282 . S
H228 C201 0.931 . S
H229 C203 0.929 . S
H230 C204 0.930 . S
H231 C205 0.931 . S
H232 C212 0.932 . S
H233 C213 0.930 . S
H234 C214 0.929 . S
H235 C216 0.930 . S
H236 C218 0.932 . S
H237 C219 0.929 . S
H238 C220 0.928 . S
H239 C222 0.932 . S
C240 C241 1.264 . S
C240 C245 1.479 . S
C240 C250 1.465 . S
C241 C240 1.264 . S
C241 C243 1.339 . S
C241 H268 0.931 . S
C242 C243 1.395 . S
C242 C244 1.320 . S
C243 C241 1.339 . S
C243 C242 1.395 . S
C243 H269 0.929 . S
C244 C242 1.320 . S
C244 C245 1.405 . S
C244 H270 0.930 . S
C245 C240 1.479 . S
C245 C244 1.405 . S
C245 H271 0.931 . S
U246 O247 2.454 . S
U246 O248 2.458 . S
U246 C249 2.984 . S
U246 C250 2.847 . S
U246 C263 2.882 . S
U246 O264 2.441 . S
U246 O265 2.420 . S
U246 O266 2.455 . S
U246 O267 2.449 . S
O247 U246 2.454 . S
O247 C249 1.353 . S
O248 U246 2.458 . S
O248 C249 1.286 . S
C249 U246 2.984 . S
C249 O247 1.353 . S
C249 O248 1.286 . S
C249 C251 1.363 . S
C250 C240 1.465 . S
C250 U246 2.847 . S
C250 O264 1.249 . S
C250 O265 1.202 . S
C251 C249 1.363 . S
C251 C253 1.408 . S
C251 C256 1.342 . S
C252 C253 1.310 . S
C252 C255 1.461 . S
C252 H272 0.932 . S
C253 C251 1.408 . S
C253 C252 1.310 . S
C253 H273 0.930 . S
C254 C255 1.474 . S
C254 C256 1.285 . S
C254 H274 0.929 . S
C255 C252 1.461 . S
C255 C254 1.474 . S
C256 C251 1.342 . S
C256 C254 1.285 . S
C256 H275 0.930 . S
C257 C260 1.424 . S
C257 C262 1.245 . S
C257 C263 1.428 . S
C258 C261 1.260 . S
C258 C262 1.477 . S
C258 H276 0.932 . S
C259 C260 1.384 . S
C259 C261 1.479 . S
C259 H277 0.929 . S
C260 C257 1.424 . S
C260 C259 1.384 . S
C260 H278 0.928 . S
C261 C258 1.260 . S
C261 C259 1.479 . S
C262 C257 1.245 . S
C262 C258 1.477 . S
C262 H279 0.932 . S
C263 U246 2.882 . S
C263 C257 1.428 . S
C263 O266 1.301 . S
C263 O267 1.282 . S
O264 U246 2.441 . S
O264 C250 1.249 . S
O265 U246 2.420 . S
O265 C250 1.202 . S
O266 U246 2.455 . S
O266 C263 1.301 . S
O267 U246 2.449 . S
O267 C263 1.282 . S
H268 C241 0.931 . S
H269 C243 0.929 . S
H270 C244 0.930 . S
H271 C245 0.931 . S
H272 C252 0.932 . S
H273 C253 0.930 . S
H274 C254 0.929 . S
H275 C256 0.930 . S
H276 C258 0.932 . S
H277 C259 0.929 . S
H278 C260 0.928 . S
H279 C262 0.932 . S
C280 C281 1.264 . S
C280 C285 1.479 . S
C280 C290 1.465 . S
C281 C280 1.264 . S
C281 C283 1.339 . S
C281 H308 0.931 . S
C282 C283 1.395 . S
C282 C284 1.320 . S
C283 C281 1.339 . S
C283 C282 1.395 . S
C283 H309 0.929 . S
C284 C282 1.320 . S
C284 C285 1.405 . S
C284 H310 0.930 . S
C285 C280 1.479 . S
C285 C284 1.405 . S
C285 H311 0.931 . S
U286 O287 2.454 . S
U286 O288 2.458 . S
U286 C289 2.984 . S
U286 C290 2.847 . S
U286 C303 2.882 . S
U286 O304 2.441 . S
U286 O305 2.420 . S
U286 O306 2.455 . S
U286 O307 2.449 . S
O287 U286 2.454 . S
O287 C289 1.353 . S
O288 U286 2.458 . S
O288 C289 1.286 . S
C289 U286 2.984 . S
C289 O287 1.353 . S
C289 O288 1.286 . S
C289 C291 1.363 . S
C290 C280 1.465 . S
C290 U286 2.847 . S
C290 O304 1.249 . S
C290 O305 1.202 . S
C291 C289 1.363 . S
C291 C293 1.408 . S
C291 C296 1.342 . S
C292 C293 1.310 . S
C292 C295 1.461 . S
C292 H312 0.932 . S
C293 C291 1.408 . S
C293 C292 1.310 . S
C293 H313 0.930 . S
C294 C295 1.474 . S
C294 C296 1.285 . S
C294 H314 0.929 . S
C295 C292 1.461 . S
C295 C294 1.474 . S
C296 C291 1.342 . S
C296 C294 1.285 . S
C296 H315 0.930 . S
C297 C300 1.424 . S
C297 C302 1.245 . S
C297 C303 1.428 . S
C298 C301 1.260 . S
C298 C302 1.477 . S
C298 H316 0.932 . S
C299 C300 1.384 . S
C299 C301 1.479 . S
C299 H317 0.929 . S
C300 C297 1.424 . S
C300 C299 1.384 . S
C300 H318 0.928 . S
C301 C298 1.260 . S
C301 C299 1.479 . S
C302 C297 1.245 . S
C302 C298 1.477 . S
C302 H319 0.932 . S
C303 U286 2.882 . S
C303 C297 1.428 . S
C303 O306 1.301 . S
C303 O307 1.282 . S
O304 U286 2.441 . S
O304 C290 1.249 . S
O305 U286 2.420 . S
O305 C290 1.202 . S
O306 U286 2.455 . S
O306 C303 1.301 . S
O307 U286 2.449 . S
O307 C303 1.282 . S
H308 C281 0.931 . S
H309 C283 0.929 . S
H310 C284 0.930 . S
H311 C285 0.931 . S
H312 C292 0.932 . S
H313 C293 0.930 . S
H314 C294 0.929 . S
H315 C296 0.930 . S
H316 C298 0.932 . S
H317 C299 0.929 . S
H318 C300 0.928 . S
H319 C302 0.932 . S
C320 C321 1.264 . S
C320 C325 1.479 . S
C320 C330 1.465 . S
C321 C320 1.264 . S
C321 C323 1.339 . S
C321 H348 0.931 . S
C322 C323 1.395 . S
C322 C324 1.320 . S
C323 C321 1.339 . S
C323 C322 1.395 . S
C323 H349 0.929 . S
C324 C322 1.320 . S
C324 C325 1.405 . S
C324 H350 0.930 . S
C325 C320 1.479 . S
C325 C324 1.405 . S
C325 H351 0.931 . S
U326 O327 2.454 . S
U326 O328 2.458 . S
U326 C329 2.984 . S
U326 C330 2.847 . S
U326 C343 2.882 . S
U326 O344 2.441 . S
U326 O345 2.420 . S
U326 O346 2.455 . S
U326 O347 2.449 . S
O327 U326 2.454 . S
O327 C329 1.353 . S
O328 U326 2.458 . S
O328 C329 1.286 . S
C329 U326 2.984 . S
C329 O327 1.353 . S
C329 O328 1.286 . S
C329 C331 1.363 . S
C330 C320 1.465 . S
C330 U326 2.847 . S
C330 O344 1.249 . S
C330 O345 1.202 . S
C331 C329 1.363 . S
C331 C333 1.408 . S
C331 C336 1.342 . S
C332 C333 1.310 . S
C332 C335 1.461 . S
C332 H352 0.932 . S
C333 C331 1.408 . S
C333 C332 1.310 . S
C333 H353 0.930 . S
C334 C335 1.474 . S
C334 C336 1.285 . S
C334 H354 0.929 . S
C335 C332 1.461 . S
C335 C334 1.474 . S
C336 C331 1.342 . S
C336 C334 1.285 . S
C336 H355 0.930 . S
C337 C340 1.424 . S
C337 C342 1.245 . S
C337 C343 1.428 . S
C338 C341 1.260 . S
C338 C342 1.477 . S
C338 H356 0.932 . S
C339 C340 1.384 . S
C339 C341 1.479 . S
C339 H357 0.929 . S
C340 C337 1.424 . S
C340 C339 1.384 . S
C340 H358 0.928 . S
C341 C338 1.260 . S
C341 C339 1.479 . S
C342 C337 1.245 . S
C342 C338 1.477 . S
C342 H359 0.932 . S
C343 U326 2.882 . S
C343 C337 1.428 . S
C343 O346 1.301 . S
C343 O347 1.282 . S
O344 U326 2.441 . S
O344 C330 1.249 . S
O345 U326 2.420 . S
O345 C330 1.202 . S
O346 U326 2.455 . S
O346 C343 1.301 . S
O347 U326 2.449 . S
O347 C343 1.282 . S
H348 C321 0.931 . S
H349 C323 0.929 . S
H350 C324 0.930 . S
H351 C325 0.931 . S
H352 C332 0.932 . S
H353 C333 0.930 . S
H354 C334 0.929 . S
H355 C336 0.930 . S
H356 C338 0.932 . S
H357 C339 0.929 . S
H358 C340 0.928 . S
H359 C342 0.932 . S
C360 C361 1.264 . S
C360 C365 1.479 . S
C360 C370 1.465 . S
C361 C360 1.264 . S
C361 C363 1.339 . S
C361 H388 0.931 . S
C362 C363 1.395 . S
C362 C364 1.320 . S
C363 C361 1.339 . S
C363 C362 1.395 . S
C363 H389 0.929 . S
C364 C362 1.320 . S
C364 C365 1.405 . S
C364 H390 0.930 . S
C365 C360 1.479 . S
C365 C364 1.405 . S
C365 H391 0.931 . S
U366 O367 2.454 . S
U366 O368 2.458 . S
U366 C369 2.984 . S
U366 C370 2.847 . S
U366 C383 2.882 . S
U366 O384 2.441 . S
U366 O385 2.420 . S
U366 O386 2.455 . S
U366 O387 2.449 . S
O367 U366 2.454 . S
O367 C369 1.353 . S
O368 U366 2.458 . S
O368 C369 1.286 . S
C369 U366 2.984 . S
C369 O367 1.353 . S
C369 O368 1.286 . S
C369 C371 1.363 . S
C370 C360 1.465 . S
C370 U366 2.847 . S
C370 O384 1.249 . S
C370 O385 1.202 . S
C371 C369 1.363 . S
C371 C373 1.408 . S
C371 C376 1.342 . S
C372 C373 1.310 . S
C372 C375 1.461 . S
C372 H392 0.932 . S
C373 C371 1.408 . S
C373 C372 1.310 . S
C373 H393 0.930 . S
C374 C375 1.474 . S
C374 C376 1.285 . S
C374 H394 0.929 . S
C375 C372 1.461 . S
C375 C374 1.474 . S
C376 C371 1.342 . S
C376 C374 1.285 . S
C376 H395 0.930 . S
C377 C380 1.424 . S
C377 C382 1.245 . S
C377 C383 1.428 . S
C378 C381 1.260 . S
C378 C382 1.477 . S
C378 H396 0.932 . S
C379 C380 1.384 . S
C379 C381 1.479 . S
C379 H397 0.929 . S
C380 C377 1.424 . S
C380 C379 1.384 . S
C380 H398 0.928 . S
C381 C378 1.260 . S
C381 C379 1.479 . S
C382 C377 1.245 . S
C382 C378 1.477 . S
C382 H399 0.932 . S
C383 U366 2.882 . S
C383 C377 1.428 . S
C383 O386 1.301 . S
C383 O387 1.282 . S
O384 U366 2.441 . S
O384 C370 1.249 . S
O385 U366 2.420 . S
O385 C370 1.202 . S
O386 U366 2.455 . S
O386 C383 1.301 . S
O387 U366 2.449 . S
O387 C383 1.282 . S
H388 C361 0.931 . S
H389 C363 0.929 . S
H390 C364 0.930 . S
H391 C365 0.931 . S
H392 C372 0.932 . S
H393 C373 0.930 . S
H394 C374 0.929 . S
H395 C376 0.930 . S
H396 C378 0.932 . S
H397 C379 0.929 . S
H398 C380 0.928 . S
H399 C382 0.932 . S
C400 C401 1.264 . S
C400 C405 1.479 . S
C400 C410 1.465 . S
C401 C400 1.264 . S
C401 C403 1.339 . S
C401 H428 0.931 . S
C402 C403 1.395 . S
C402 C404 1.320 . S
C403 C401 1.339 . S
C403 C402 1.395 . S
C403 H429 0.929 . S
C404 C402 1.320 . S
C404 C405 1.405 . S
C404 H430 0.930 . S
C405 C400 1.479 . S
C405 C404 1.405 . S
C405 H431 0.931 . S
U406 O407 2.454 . S
U406 O408 2.458 . S
U406 C409 2.984 . S
U406 C410 2.847 . S
U406 C423 2.882 . S
U406 O424 2.441 . S
U406 O425 2.420 . S
U406 O426 2.455 . S
U406 O427 2.449 . S
O407 U406 2.454 . S
O407 C409 1.353 . S
O408 U406 2.458 . S
O408 C409 1.286 . S
C409 U406 2.984 . S
C409 O407 1.353 . S
C409 O408 1.286 . S
C409 C411 1.363 . S
C410 C400 1.465 . S
C410 U406 2.847 . S
C410 O424 1.249 . S
C410 O425 1.202 . S
C411 C409 1.363 . S
C411 C413 1.408 . S
C411 C416 1.342 . S
C412 C413 1.310 . S
C412 C415 1.461 . S
C412 H432 0.932 . S
C413 C411 1.408 . S
C413 C412 1.310 . S
C413 H433 0.930 . S
C414 C415 1.474 . S
C414 C416 1.285 . S
C414 H434 0.929 . S
C415 C412 1.461 . S
C415 C414 1.474 . S
C416 C411 1.342 . S
C416 C414 1.285 . S
C416 H435 0.930 . S
C417 C420 1.424 . S
C417 C422 1.245 . S
C417 C423 1.428 . S
C418 C421 1.260 . S
C418 C422 1.477 . S
C418 H436 0.932 . S
C419 C420 1.384 . S
C419 C421 1.479 . S
C419 H437 0.929 . S
C420 C417 1.424 . S
C420 C419 1.384 . S
C420 H438 0.928 . S
C421 C418 1.260 . S
C421 C419 1.479 . S
C422 C417 1.245 . S
C422 C418 1.477 . S
C422 H439 0.932 . S
C423 U406 2.882 . S
C423 C417 1.428 . S
C423 O426 1.301 . S
C423 O427 1.282 . S
O424 U406 2.441 . S
O424 C410 1.249 . S
O425 U406 2.420 . S
O425 C410 1.202 . S
O426 U406 2.455 . S
O426 C423 1.301 . S
O427 U406 2.449 . S
O427 C423 1.282 . S
H428 C401 0.931 . S
H429 C403 0.929 . S
H430 C404 0.930 . S
H431 C405 0.931 . S
H432 C412 0.932 . S
H433 C413 0.930 . S
H434 C414 0.929 . S
H435 C416 0.930 . S
H436 C418 0.932 . S
H437 C419 0.929 . S
H438 C420 0.928 . S
H439 C422 0.932 . S
C440 C441 1.264 . S
C440 C445 1.479 . S
C440 C450 1.465 . S
C441 C440 1.264 . S
C441 C443 1.339 . S
C441 H468 0.931 . S
C442 C443 1.395 . S
C442 C444 1.320 . S
C443 C441 1.339 . S
C443 C442 1.395 . S
C443 H469 0.929 . S
C444 C442 1.320 . S
C444 C445 1.405 . S
C444 H470 0.930 . S
C445 C440 1.479 . S
C445 C444 1.405 . S
C445 H471 0.931 . S
U446 O447 2.454 . S
U446 O448 2.458 . S
U446 C449 2.984 . S
U446 C450 2.847 . S
U446 C463 2.882 . S
U446 O464 2.441 . S
U446 O465 2.420 . S
U446 O466 2.455 . S
U446 O467 2.449 . S
O447 U446 2.454 . S
O447 C449 1.353 . S
O448 U446 2.458 . S
O448 C449 1.286 . S
C449 U446 2.984 . S
C449 O447 1.353 . S
C449 O448 1.286 . S
C449 C451 1.363 . S
C450 C440 1.465 . S
C450 U446 2.847 . S
C450 O464 1.249 . S
C450 O465 1.202 . S
C451 C449 1.363 . S
C451 C453 1.408 . S
C451 C456 1.342 . S
C452 C453 1.310 . S
C452 C455 1.461 . S
C452 H472 0.932 . S
C453 C451 1.408 . S
C453 C452 1.310 . S
C453 H473 0.930 . S
C454 C455 1.474 . S
C454 C456 1.285 . S
C454 H474 0.929 . S
C455 C452 1.461 . S
C455 C454 1.474 . S
C456 C451 1.342 . S
C456 C454 1.285 . S
C456 H475 0.930 . S
C457 C460 1.424 . S
C457 C462 1.245 . S
C457 C463 1.428 . S
C458 C461 1.260 . S
C458 C462 1.477 . S
C458 H476 0.932 . S
C459 C460 1.384 . S
C459 C461 1.479 . S
C459 H477 0.929 . S
C460 C457 1.424 . S
C460 C459 1.384 . S
C460 H478 0.928 . S
C461 C458 1.260 . S
C461 C459 1.479 . S
C462 C457 1.245 . S
C462 C458 1.477 . S
C462 H479 0.932 . S
C463 U446 2.882 . S
C463 C457 1.428 . S
C463 O466 1.301 . S
C463 O467 1.282 . S
O464 U446 2.441 . S
O464 C450 1.249 . S
O465 U446 2.420 . S
O465 C450 1.202 . S
O466 U446 2.455 . S
O466 C463 1.301 . S
O467 U446 2.449 . S
O467 C463 1.282 . S
H468 C441 0.931 . S
H469 C443 0.929 . S
H470 C444 0.930 . S
H471 C445 0.931 . S
H472 C452 0.932 . S
H473 C453 0.930 . S
H474 C454 0.929 . S
H475 C456 0.930 . S
H476 C458 0.932 . S
H477 C459 0.929 . S
H478 C460 0.928 . S
H479 C462 0.932 . S
C480 C481 1.264 . S
C480 C485 1.479 . S
C480 C490 1.465 . S
C481 C480 1.264 . S
C481 C483 1.339 . S
C481 H508 0.931 . S
C482 C483 1.395 . S
C482 C484 1.320 . S
C483 C481 1.339 . S
C483 C482 1.395 . S
C483 H509 0.929 . S
C484 C482 1.320 . S
C484 C485 1.405 . S
C484 H510 0.930 . S
C485 C480 1.479 . S
C485 C484 1.405 . S
C485 H511 0.931 . S
U486 O487 2.454 . S
U486 O488 2.458 . S
U486 C489 2.984 . S
U486 C490 2.847 . S
U486 C503 2.882 . S
U486 O504 2.441 . S
U486 O505 2.420 . S
U486 O506 2.455 . S
U486 O507 2.449 . S
O487 U486 2.454 . S
O487 C489 1.353 . S
O488 U486 2.458 . S
O488 C489 1.286 . S
C489 U486 2.984 . S
C489 O487 1.353 . S
C489 O488 1.286 . S
C489 C491 1.363 . S
C490 C480 1.465 . S
C490 U486 2.847 . S
C490 O504 1.249 . S
C490 O505 1.202 . S
C491 C489 1.363 . S
C491 C493 1.408 . S
C491 C496 1.342 . S
C492 C493 1.310 . S
C492 C495 1.461 . S
C492 H512 0.932 . S
C493 C491 1.408 . S
C493 C492 1.310 . S
C493 H513 0.930 . S
C494 C495 1.474 . S
C494 C496 1.285 . S
C494 H514 0.929 . S
C495 C492 1.461 . S
C495 C494 1.474 . S
C496 C491 1.342 . S
C496 C494 1.285 . S
C496 H515 0.930 . S
C497 C500 1.424 . S
C497 C502 1.245 . S
C497 C503 1.428 . S
C498 C501 1.260 . S
C498 C502 1.477 . S
C498 H516 0.932 . S
C499 C500 1.384 . S
C499 C501 1.479 . S
C499 H517 0.929 . S
C500 C497 1.424 . S
C500 C499 1.384 . S
C500 H518 0.928 . S
C501 C498 1.260 . S
C501 C499 1.479 . S
C502 C497 1.245 . S
C502 C498 1.477 . S
C502 H519 0.932 . S
C503 U486 2.882 . S
C503 C497 1.428 . S
C503 O506 1.301 . S
C503 O507 1.282 . S
O504 U486 2.441 . S
O504 C490 1.249 . S
O505 U486 2.420 . S
O505 C490 1.202 . S
O506 U486 2.455 . S
O506 C503 1.301 . S
O507 U486 2.449 . S
O507 C503 1.282 . S
H508 C481 0.931 . S
H509 C483 0.929 . S
H510 C484 0.930 . S
H511 C485 0.931 . S
H512 C492 0.932 . S
H513 C493 0.930 . S
H514 C494 0.929 . S
H515 C496 0.930 . S
H516 C498 0.932 . S
H517 C499 0.929 . S
H518 C500 0.928 . S
H519 C502 0.932 . S
C520 C521 1.264 . S
C520 C525 1.479 . S
C520 C530 1.465 . S
C521 C520 1.264 . S
C521 C523 1.339 . S
C521 H548 0.931 . S
C522 C523 1.395 . S
C522 C524 1.320 . S
C523 C521 1.339 . S
C523 C522 1.395 . S
C523 H549 0.929 . S
C524 C522 1.320 . S
C524 C525 1.405 . S
C524 H550 0.930 . S
C525 C520 1.479 . S
C525 C524 1.405 . S
C525 H551 0.931 . S
U526 O527 2.454 . S
U526 O528 2.458 . S
U526 C529 2.984 . S
U526 C530 2.847 . S
U526 C543 2.882 . S
U526 O544 2.441 . S
U526 O545 2.420 . S
U526 O546 2.455 . S
U526 O547 2.449 . S
O527 U526 2.454 . S
O527 C529 1.353 . S
O528 U526 2.458 . S
O528 C529 1.286 . S
C529 U526 2.984 . S
C529 O527 1.353 . S
C529 O528 1.286 . S
C529 C531 1.363 . S
C530 C520 1.465 . S
C530 U526 2.847 . S
C530 O544 1.249 . S
C530 O545 1.202 . S
C531 C529 1.363 . S
C531 C533 1.408 . S
C531 C536 1.342 . S
C532 C533 1.310 . S
C532 C535 1.461 . S
C532 H552 0.932 . S
C533 C531 1.408 . S
C533 C532 1.310 . S
C533 H553 0.930 . S
C534 C535 1.474 . S
C534 C536 1.285 . S
C534 H554 0.929 . S
C535 C532 1.461 . S
C535 C534 1.474 . S
C536 C531 1.342 . S
C536 C534 1.285 . S
C536 H555 0.930 . S
C537 C540 1.424 . S
C537 C542 1.245 . S
C537 C543 1.428 . S
C538 C541 1.260 . S
C538 C542 1.477 . S
C538 H556 0.932 . S
C539 C540 1.384 . S
C539 C541 1.479 . S
C539 H557 0.929 . S
C540 C537 1.424 . S
C540 C539 1.384 . S
C540 H558 0.928 . S
C541 C538 1.260 . S
C541 C539 1.479 . S
C542 C537 1.245 . S
C542 C538 1.477 . S
C542 H559 0.932 . S
C543 U526 2.882 . S
C543 C537 1.428 . S
C543 O546 1.301 . S
C543 O547 1.282 . S
O544 U526 2.441 . S
O544 C530 1.249 . S
O545 U526 2.420 . S
O545 C530 1.202 . S
O546 U526 2.455 . S
O546 C543 1.301 . S
O547 U526 2.449 . S
O547 C543 1.282 . S
H548 C521 0.931 . S
H549 C523 0.929 . S
H550 C524 0.930 . S
H551 C525 0.931 . S
H552 C532 0.932 . S
H553 C533 0.930 . S
H554 C534 0.929 . S
H555 C536 0.930 . S
H556 C538 0.932 . S
H557 C539 0.929 . S
H558 C540 0.928 . S
H559 C542 0.932 . S
C560 C561 1.264 . S
C560 C565 1.479 . S
C560 C570 1.465 . S
C561 C560 1.264 . S
C561 C563 1.339 . S
C561 H588 0.931 . S
C562 C563 1.395 . S
C562 C564 1.320 . S
C563 C561 1.339 . S
C563 C562 1.395 . S
C563 H589 0.929 . S
C564 C562 1.320 . S
C564 C565 1.405 . S
C564 H590 0.930 . S
C565 C560 1.479 . S
C565 C564 1.405 . S
C565 H591 0.931 . S
U566 O567 2.454 . S
U566 O568 2.458 . S
U566 C569 2.984 . S
U566 C570 2.847 . S
U566 C583 2.882 . S
U566 O584 2.441 . S
U566 O585 2.420 . S
U566 O586 2.455 . S
U566 O587 2.449 . S
O567 U566 2.454 . S
O567 C569 1.353 . S
O568 U566 2.458 . S
O568 C569 1.286 . S
C569 U566 2.984 . S
C569 O567 1.353 . S
C569 O568 1.286 . S
C569 C571 1.363 . S
C570 C560 1.465 . S
C570 U566 2.847 . S
C570 O584 1.249 . S
C570 O585 1.202 . S
C571 C569 1.363 . S
C571 C573 1.408 . S
C571 C576 1.342 . S
C572 C573 1.310 . S
C572 C575 1.461 . S
C572 H592 0.932 . S
C573 C571 1.408 . S
C573 C572 1.310 . S
C573 H593 0.930 . S
C574 C575 1.474 . S
C574 C576 1.285 . S
C574 H594 0.929 . S
C575 C572 1.461 . S
C575 C574 1.474 . S
C576 C571 1.342 . S
C576 C574 1.285 . S
C576 H595 0.930 . S
C577 C580 1.424 . S
C577 C582 1.245 . S
C577 C583 1.428 . S
C578 C581 1.260 . S
C578 C582 1.477 . S
C578 H596 0.932 . S
C579 C580 1.384 . S
C579 C581 1.479 . S
C579 H597 0.929 . S
C580 C577 1.424 . S
C580 C579 1.384 . S
C580 H598 0.928 . S
C581 C578 1.260 . S
C581 C579 1.479 . S
C582 C577 1.245 . S
C582 C578 1.477 . S
C582 H599 0.932 . S
C583 U566 2.882 . S
C583 C577 1.428 . S
C583 O586 1.301 . S
C583 O587 1.282 . S
O584 U566 2.441 . S
O584 C570 1.249 . S
O585 U566 2.420 . S
O585 C570 1.202 . S
O586 U566 2.455 . S
O586 C583 1.301 . S
O587 U566 2.449 . S
O587 C583 1.282 . S
H588 C561 0.931 . S
H589 C563 0.929 . S
H590 C564 0.930 . S
H591 C565 0.931 . S
H592 C572 0.932 . S
H593 C573 0.930 . S
H594 C574 0.929 . S
H595 C576 0.930 . S
H596 C578 0.932 . S
H597 C579 0.929 . S
H598 C580 0.928 . S
H599 C582 0.932 . S
C600 C601 1.264 . S
C600 C605 1.479 . S
C600 C610 1.465 . S
C601 C600 1.264 . S
C601 C603 1.339 . S
C601 H628 0.931 . S
C602 C603 1.395 . S
C602 C604 1.320 . S
C603 C601 1.339 . S
C603 C602 1.395 . S
C603 H629 0.929 . S
C604 C602 1.320 . S
C604 C605 1.405 . S
C604 H630 0.930 . S
C605 C600 1.479 . S
C605 C604 1.405 . S
C605 H631 0.931 . S
U606 O607 2.454 . S
U606 O608 2.458 . S
U606 C609 2.984 . S
U606 C610 2.847 . S
U606 C623 2.882 . S
U606 O624 2.441 . S
U606 O625 2.420 . S
U606 O626 2.455 . S
U606 O627 2.449 . S
O607 U606 2.454 . S
O607 C609 1.353 . S
O608 U606 2.458 . S
O608 C609 1.286 . S
C609 U606 2.984 . S
C609 O607 1.353 . S
C609 O608 1.286 . S
C609 C611 1.363 . S
C610 C600 1.465 . S
C610 U606 2.847 . S
C610 O624 1.249 . S
C610 O625 1.202 . S
C611 C609 1.363 . S
C611 C613 1.408 . S
C611 C616 1.342 . S
C612 C613 1.310 . S
C612 C615 1.461 . S
C612 H632 0.932 . S
C613 C611 1.408 . S
C613 C612 1.310 . S
C613 H633 0.930 . S
C614 C615 1.474 . S
C614 C616 1.285 . S
C614 H634 0.929 . S
C615 C612 1.461 . S
C615 C614 1.474 . S
C616 C611 1.342 . S
C616 C614 1.285 . S
C616 H635 0.930 . S
C617 C620 1.424 . S
C617 C622 1.245 . S
C617 C623 1.428 . S
C618 C621 1.260 . S
C618 C622 1.477 . S
C618 H636 0.932 . S
C619 C620 1.384 . S
C619 C621 1.479 . S
C619 H637 0.929 . S
C620 C617 1.424 . S
C620 C619 1.384 . S
C620 H638 0.928 . S
C621 C618 1.260 . S
C621 C619 1.479 . S
C622 C617 1.245 . S
C622 C618 1.477 . S
C622 H639 0.932 . S
C623 U606 2.882 . S
C623 C617 1.428 . S
C623 O626 1.301 . S
C623 O627 1.282 . S
O624 U606 2.441 . S
O624 C610 1.249 . S
O625 U606 2.420 . S
O625 C610 1.202 . S
O626 U606 2.455 . S
O626 C623 1.301 . S
O627 U606 2.449 . S
O627 C623 1.282 . S
H628 C601 0.931 . S
H629 C603 0.929 . S
H630 C604 0.930 . S
H631 C605 0.931 . S
H632 C612 0.932 . S
H633 C613 0.930 . S
H634 C614 0.929 . S
H635 C616 0.930 . S
H636 C618 0.932 . S
H637 C619 0.929 . S
H638 C620 0.928 . S
H639 C622 0.932 . S
C640 C641 1.264 . S
C640 C645 1.479 . S
C640 C650 1.465 . S
C641 C640 1.264 . S
C641 C643 1.339 . S
C641 H668 0.931 . S
C642 C643 1.395 . S
C642 C644 1.320 . S
C643 C641 1.339 . S
C643 C642 1.395 . S
C643 H669 0.929 . S
C644 C642 1.320 . S
C644 C645 1.405 . S
C644 H670 0.930 . S
C645 C640 1.479 . S
C645 C644 1.405 . S
C645 H671 0.931 . S
U646 O647 2.454 . S
U646 O648 2.458 . S
U646 C649 2.984 . S
U646 C650 2.847 . S
U646 C663 2.882 . S
U646 O664 2.441 . S
U646 O665 2.420 . S
U646 O666 2.455 . S
U646 O667 2.449 . S
O647 U646 2.454 . S
O647 C649 1.353 . S
O648 U646 2.458 . S
O648 C649 1.286 . S
C649 U646 2.984 . S
C649 O647 1.353 . S
C649 O648 1.286 . S
C649 C651 1.363 . S
C650 C640 1.465 . S
C650 U646 2.847 . S
C650 O664 1.249 . S
C650 O665 1.202 . S
C651 C649 1.363 . S
C651 C653 1.408 . S
C651 C656 1.342 . S
C652 C653 1.310 . S
C652 C655 1.461 . S
C652 H672 0.932 . S
C653 C651 1.408 . S
C653 C652 1.310 . S
C653 H673 0.930 . S
C654 C655 1.474 . S
C654 C656 1.285 . S
C654 H674 0.929 . S
C655 C652 1.461 . S
C655 C654 1.474 . S
C656 C651 1.342 . S
C656 C654 1.285 . S
C656 H675 0.930 . S
C657 C660 1.424 . S
C657 C662 1.245 . S
C657 C663 1.428 . S
C658 C661 1.260 . S
C658 C662 1.477 . S
C658 H676 0.932 . S
C659 C660 1.384 . S
C659 C661 1.479 . S
C659 H677 0.929 . S
C660 C657 1.424 . S
C660 C659 1.384 . S
C660 H678 0.928 . S
C661 C658 1.260 . S
C661 C659 1.479 . S
C662 C657 1.245 . S
C662 C658 1.477 . S
C662 H679 0.932 . S
C663 U646 2.882 . S
C663 C657 1.428 . S
C663 O666 1.301 . S
C663 O667 1.282 . S
O664 U646 2.441 . S
O664 C650 1.249 . S
O665 U646 2.420 . S
O665 C650 1.202 . S
O666 U646 2.455 . S
O666 C663 1.301 . S
O667 U646 2.449 . S
O667 C663 1.282 . S
H668 C641 0.931 . S
H669 C643 0.929 . S
H670 C644 0.930 . S
H671 C645 0.931 . S
H672 C652 0.932 . S
H673 C653 0.930 . S
H674 C654 0.929 . S
H675 C656 0.930 . S
H676 C658 0.932 . S
H677 C659 0.929 . S
H678 C660 0.928 . S
H679 C662 0.932 . S
C680 C681 1.264 . S
C680 C685 1.479 . S
C680 C690 1.465 . S
C681 C680 1.264 . S
C681 C683 1.339 . S
C681 H708 0.931 . S
C682 C683 1.395 . S
C682 C684 1.320 . S
C683 C681 1.339 . S
C683 C682 1.395 . S
C683 H709 0.929 . S
C684 C682 1.320 . S
C684 C685 1.405 . S
C684 H710 0.930 . S
C685 C680 1.479 . S
C685 C684 1.405 . S
C685 H711 0.931 . S
U686 O687 2.454 . S
U686 O688 2.458 . S
U686 C689 2.984 . S
U686 C690 2.847 . S
U686 C703 2.882 . S
U686 O704 2.441 . S
U686 O705 2.420 . S
U686 O706 2.455 . S
U686 O707 2.449 . S
O687 U686 2.454 . S
O687 C689 1.353 . S
O688 U686 2.458 . S
O688 C689 1.286 . S
C689 U686 2.984 . S
C689 O687 1.353 . S
C689 O688 1.286 . S
C689 C691 1.363 . S
C690 C680 1.465 . S
C690 U686 2.847 . S
C690 O704 1.249 . S
C690 O705 1.202 . S
C691 C689 1.363 . S
C691 C693 1.408 . S
C691 C696 1.342 . S
C692 C693 1.310 . S
C692 C695 1.461 . S
C692 H712 0.932 . S
C693 C691 1.408 . S
C693 C692 1.310 . S
C693 H713 0.930 . S
C694 C695 1.474 . S
C694 C696 1.285 . S
C694 H714 0.929 . S
C695 C692 1.461 . S
C695 C694 1.474 . S
C696 C691 1.342 . S
C696 C694 1.285 . S
C696 H715 0.930 . S
C697 C700 1.424 . S
C697 C702 1.245 . S
C697 C703 1.428 . S
C698 C701 1.260 . S
C698 C702 1.477 . S
C698 H716 0.932 . S
C699 C700 1.384 . S
C699 C701 1.479 . S
C699 H717 0.929 . S
C700 C697 1.424 . S
C700 C699 1.384 . S
C700 H718 0.928 . S
C701 C698 1.260 . S
C701 C699 1.479 . S
C702 C697 1.245 . S
C702 C698 1.477 . S
C702 H719 0.932 . S
C703 U686 2.882 . S
C703 C697 1.428 . S
C703 O706 1.301 . S
C703 O707 1.282 . S
O704 U686 2.441 . S
O704 C690 1.249 . S
O705 U686 2.420 . S
O705 C690 1.202 . S
O706 U686 2.455 . S
O706 C703 1.301 . S
O707 U686 2.449 . S
O707 C703 1.282 . S
H708 C681 0.931 . S
H709 C683 0.929 . S
H710 C684 0.930 . S
H711 C685 0.931 . S
H712 C692 0.932 . S
H713 C693 0.930 . S
H714 C694 0.929 . S
H715 C696 0.930 . S
H716 C698 0.932 . S
H717 C699 0.929 . S
H718 C700 0.928 . S
H719 C702 0.932 . S
C720 C721 1.264 . S
C720 C725 1.479 . S
C720 C730 1.465 . S
C721 C720 1.264 . S
C721 C723 1.339 . S
C721 H748 0.931 . S
C722 C723 1.395 . S
C722 C724 1.320 . S
C723 C721 1.339 . S
C723 C722 1.395 . S
C723 H749 0.929 . S
C724 C722 1.320 . S
C724 C725 1.405 . S
C724 H750 0.930 . S
C725 C720 1.479 . S
C725 C724 1.405 . S
C725 H751 0.931 . S
U726 O727 2.454 . S
U726 O728 2.458 . S
U726 C729 2.984 . S
U726 C730 2.847 . S
U726 C743 2.882 . S
U726 O744 2.441 . S
U726 O745 2.420 . S
U726 O746 2.455 . S
U726 O747 2.449 . S
O727 U726 2.454 . S
O727 C729 1.353 . S
O728 U726 2.458 . S
O728 C729 1.286 . S
C729 U726 2.984 . S
C729 O727 1.353 . S
C729 O728 1.286 . S
C729 C731 1.363 . S
C730 C720 1.465 . S
C730 U726 2.847 . S
C730 O744 1.249 . S
C730 O745 1.202 . S
C731 C729 1.363 . S
C731 C733 1.408 . S
C731 C736 1.342 . S
C732 C733 1.310 . S
C732 C735 1.461 . S
C732 H752 0.932 . S
C733 C731 1.408 . S
C733 C732 1.310 . S
C733 H753 0.930 . S
C734 C735 1.474 . S
C734 C736 1.285 . S
C734 H754 0.929 . S
C735 C732 1.461 . S
C735 C734 1.474 . S
C736 C731 1.342 . S
C736 C734 1.285 . S
C736 H755 0.930 . S
C737 C740 1.424 . S
C737 C742 1.245 . S
C737 C743 1.428 . S
C738 C741 1.260 . S
C738 C742 1.477 . S
C738 H756 0.932 . S
C739 C740 1.384 . S
C739 C741 1.479 . S
C739 H757 0.929 . S
C740 C737 1.424 . S
C740 C739 1.384 . S
C740 H758 0.928 . S
C741 C738 1.260 . S
C741 C739 1.479 . S
C742 C737 1.245 . S
C742 C738 1.477 . S
C742 H759 0.932 . S
C743 U726 2.882 . S
C743 C737 1.428 . S
C743 O746 1.301 . S
C743 O747 1.282 . S
O744 U726 2.441 . S
O744 C730 1.249 . S
O745 U726 2.420 . S
O745 C730 1.202 . S
O746 U726 2.455 . S
O746 C743 1.301 . S
O747 U726 2.449 . S
O747 C743 1.282 . S
H748 C721 0.931 . S
H749 C723 0.929 . S
H750 C724 0.930 . S
H751 C725 0.931 . S
H752 C732 0.932 . S
H753 C733 0.930 . S
H754 C734 0.929 . S
H755 C736 0.930 . S
H756 C738 0.932 . S
H757 C739 0.929 . S
H758 C740 0.928 . S
H759 C742 0.932 . S
C760 C761 1.264 . S
C760 C765 1.479 . S
C760 C770 1.465 . S
C761 C760 1.264 . S
C761 C763 1.339 . S
C761 H788 0.931 . S
C762 C763 1.395 . S
C762 C764 1.320 . S
C763 C761 1.339 . S
C763 C762 1.395 . S
C763 H789 0.929 . S
C764 C762 1.320 . S
C764 C765 1.405 . S
C764 H790 0.930 . S
C765 C760 1.479 . S
C765 C764 1.405 . S
C765 H791 0.931 . S
U766 O767 2.454 . S
U766 O768 2.458 . S
U766 C769 2.984 . S
U766 C770 2.847 . S
U766 C783 2.882 . S
U766 O784 2.441 . S
U766 O785 2.420 . S
U766 O786 2.455 . S
U766 O787 2.449 . S
O767 U766 2.454 . S
O767 C769 1.353 . S
O768 U766 2.458 . S
O768 C769 1.286 . S
C769 U766 2.984 . S
C769 O767 1.353 . S
C769 O768 1.286 . S
C769 C771 1.363 . S
C770 C760 1.465 . S
C770 U766 2.847 . S
C770 O784 1.249 . S
C770 O785 1.202 . S
C771 C769 1.363 . S
C771 C773 1.408 . S
C771 C776 1.342 . S
C772 C773 1.310 . S
C772 C775 1.461 . S
C772 H792 0.932 . S
C773 C771 1.408 . S
C773 C772 1.310 . S
C773 H793 0.930 . S
C774 C775 1.474 . S
C774 C776 1.285 . S
C774 H794 0.929 . S
C775 C772 1.461 . S
C775 C774 1.474 . S
C776 C771 1.342 . S
C776 C774 1.285 . S
C776 H795 0.930 . S
C777 C780 1.424 . S
C777 C782 1.245 . S
C777 C783 1.428 . S
C778 C781 1.260 . S
C778 C782 1.477 . S
C778 H796 0.932 . S
C779 C780 1.384 . S
C779 C781 1.479 . S
C779 H797 0.929 . S
C780 C777 1.424 . S
C780 C779 1.384 . S
C780 H798 0.928 . S
C781 C778 1.260 . S
C781 C779 1.479 . S
C782 C777 1.245 . S
C782 C778 1.477 . S
C782 H799 0.932 . S
C783 U766 2.882 . S
C783 C777 1.428 . S
C783 O786 1.301 . S
C783 O787 1.282 . S
O784 U766 2.441 . S
O784 C770 1.249 . S
O785 U766 2.420 . S
O785 C770 1.202 . S
O786 U766 2.455 . S
O786 C783 1.301 . S
O787 U766 2.449 . S
O787 C783 1.282 . S
H788 C761 0.931 . S
H789 C763 0.929 . S
H790 C764 0.930 . S
H791 C765 0.931 . S
H792 C772 0.932 . S
H793 C773 0.930 . S
H794 C774 0.929 . S
H795 C776 0.930 . S
H796 C778 0.932 . S
H797 C779 0.929 . S
H798 C780 0.928 . S
H799 C782 0.932 . S
C800 C801 1.264 . S
C800 C805 1.479 . S
C800 C810 1.465 . S
C801 C800 1.264 . S
C801 C803 1.339 . S
C801 H828 0.931 . S
C802 C803 1.395 . S
C802 C804 1.320 . S
C803 C801 1.339 . S
C803 C802 1.395 . S
C803 H829 0.929 . S
C804 C802 1.320 . S
C804 C805 1.405 . S
C804 H830 0.930 . S
C805 C800 1.479 . S
C805 C804 1.405 . S
C805 H831 0.931 . S
U806 O807 2.454 . S
U806 O808 2.458 . S
U806 C809 2.984 . S
U806 C810 2.847 . S
U806 C823 2.882 . S
U806 O824 2.441 . S
U806 O825 2.420 . S
U806 O826 2.455 . S
U806 O827 2.449 . S
O807 U806 2.454 . S
O807 C809 1.353 . S
O808 U806 2.458 . S
O808 C809 1.286 . S
C809 U806 2.984 . S
C809 O807 1.353 . S
C809 O808 1.286 . S
C809 C811 1.363 . S
C810 C800 1.465 . S
C810 U806 2.847 . S
C810 O824 1.249 . S
C810 O825 1.202 . S
C811 C809 1.363 . S
C811 C813 1.408 . S
C811 C816 1.342 . S
C812 C813 1.310 . S
C812 C815 1.461 . S
C812 H832 0.932 . S
C813 C811 1.408 . S
C813 C812 1.310 . S
C813 H833 0.930 . S
C814 C815 1.474 . S
C814 C816 1.285 . S
C814 H834 0.929 . S
C815 C812 1.461 . S
C815 C814 1.474 . S
C816 C811 1.342 . S
C816 C814 1.285 . S
C816 H835 0.930 . S
C817 C820 1.424 . S
C817 C822 1.245 . S
C817 C823 1.428 . S
C818 C821 1.260 . S
C818 C822 1.477 . S
C818 H836 0.932 . S
C819 C820 1.384 . S
C819 C821 1.479 . S
C819 H837 0.929 . S
C820 C817 1.424 . S
C820 C819 1.384 . S
C820 H838 0.928 . S
C821 C818 1.260 . S
C821 C819 1.479 . S
C822 C817 1.245 . S
C822 C818 1.477 . S
C822 H839 0.932 . S
C823 U806 2.882 . S
C823 C817 1.428 . S
C823 O826 1.301 . S
C823 O827 1.282 . S
O824 U806 2.441 . S
O824 C810 1.249 . S
O825 U806 2.420 . S
O825 C810 1.202 . S
O826 U806 2.455 . S
O826 C823 1.301 . S
O827 U806 2.449 . S
O827 C823 1.282 . S
H828 C801 0.931 . S
H829 C803 0.929 . S
H830 C804 0.930 . S
H831 C805 0.931 . S
H832 C812 0.932 . S
H833 C813 0.930 . S
H834 C814 0.929 . S
H835 C816 0.930 . S
H836 C818 0.932 . S
H837 C819 0.929 . S
H838 C820 0.928 . S
H839 C822 0.932 . S
C840 C841 1.264 . S
C840 C845 1.479 . S
C840 C850 1.465 . S
C841 C840 1.264 . S
C841 C843 1.339 . S
C841 H868 0.931 . S
C842 C843 1.395 . S
C842 C844 1.320 . S
C843 C841 1.339 . S
C843 C842 1.395 . S
C843 H869 0.929 . S
C844 C842 1.320 . S
C844 C845 1.405 . S
C844 H870 0.930 . S
C845 C840 1.479 . S
C845 C844 1.405 . S
C845 H871 0.931 . S
U846 O847 2.454 . S
U846 O848 2.458 . S
U846 C849 2.984 . S
U846 C850 2.847 . S
U846 C863 2.882 . S
U846 O864 2.441 . S
U846 O865 2.420 . S
U846 O866 2.455 . S
U846 O867 2.449 . S
O847 U846 2.454 . S
O847 C849 1.353 . S
O848 U846 2.458 . S
O848 C849 1.286 . S
C849 U846 2.984 . S
C849 O847 1.353 . S
C849 O848 1.286 . S
C849 C851 1.363 . S
C850 C840 1.465 . S
C850 U846 2.847 . S
C850 O864 1.249 . S
C850 O865 1.202 . S
C851 C849 1.363 . S
C851 C853 1.408 . S
C851 C856 1.342 . S
C852 C853 1.310 . S
C852 C855 1.461 . S
C852 H872 0.932 . S
C853 C851 1.408 . S
C853 C852 1.310 . S
C853 H873 0.930 . S
C854 C855 1.474 . S
C854 C856 1.285 . S
C854 H874 0.929 . S
C855 C852 1.461 . S
C855 C854 1.474 . S
C856 C851 1.342 . S
C856 C854 1.285 . S
C856 H875 0.930 . S
C857 C860 1.424 . S
C857 C862 1.245 . S
C857 C863 1.428 . S
C858 C861 1.260 . S
C858 C862 1.477 . S
C858 H876 0.932 . S
C859 C860 1.384 . S
C859 C861 1.479 . S
C859 H877 0.929 . S
C860 C857 1.424 . S
C860 C859 1.384 . S
C860 H878 0.928 . S
C861 C858 1.260 . S
C861 C859 1.479 . S
C862 C857 1.245 . S
C862 C858 1.477 . S
C862 H879 0.932 . S
C863 U846 2.882 . S
C863 C857 1.428 . S
C863 O866 1.301 . S
C863 O867 1.282 . S
O864 U846 2.441 . S
O864 C850 1.249 . S
O865 U846 2.420 . S
O865 C850 1.202 . S
O866 U846 2.455 . S
O866 C863 1.301 . S
O867 U846 2.449 . S
O867 C863 1.282 . S
H868 C841 0.931 . S
H869 C843 0.929 . S
H870 C844 0.930 . S
H871 C845 0.931 . S
H872 C852 0.932 . S
H873 C853 0.930 . S
H874 C854 0.929 . S
H875 C856 0.930 . S
H876 C858 0.932 . S
H877 C859 0.929 . S
H878 C860 0.928 . S
H879 C862 0.932 . S
C880 C881 1.264 . S
C880 C885 1.479 . S
C880 C890 1.465 . S
C881 C880 1.264 . S
C881 C883 1.339 . S
C881 H908 0.931 . S
C882 C883 1.395 . S
C882 C884 1.320 . S
C883 C881 1.339 . S
C883 C882 1.395 . S
C883 H909 0.929 . S
C884 C882 1.320 . S
C884 C885 1.405 . S
C884 H910 0.930 . S
C885 C880 1.479 . S
C885 C884 1.405 . S
C885 H911 0.931 . S
U886 O887 2.454 . S
U886 O888 2.458 . S
U886 C889 2.984 . S
U886 C890 2.847 . S
U886 C903 2.882 . S
U886 O904 2.441 . S
U886 O905 2.420 . S
U886 O906 2.455 . S
U886 O907 2.449 . S
O887 U886 2.454 . S
O887 C889 1.353 . S
O888 U886 2.458 . S
O888 C889 1.286 . S
C889 U886 2.984 . S
C889 O887 1.353 . S
C889 O888 1.286 . S
C889 C891 1.363 . S
C890 C880 1.465 . S
C890 U886 2.847 . S
C890 O904 1.249 . S
C890 O905 1.202 . S
C891 C889 1.363 . S
C891 C893 1.408 . S
C891 C896 1.342 . S
C892 C893 1.310 . S
C892 C895 1.461 . S
C892 H912 0.932 . S
C893 C891 1.408 . S
C893 C892 1.310 . S
C893 H913 0.930 . S
C894 C895 1.474 . S
C894 C896 1.285 . S
C894 H914 0.929 . S
C895 C892 1.461 . S
C895 C894 1.474 . S
C896 C891 1.342 . S
C896 C894 1.285 . S
C896 H915 0.930 . S
C897 C900 1.424 . S
C897 C902 1.245 . S
C897 C903 1.428 . S
C898 C901 1.260 . S
C898 C902 1.477 . S
C898 H916 0.932 . S
C899 C900 1.384 . S
C899 C901 1.479 . S
C899 H917 0.929 . S
C900 C897 1.424 . S
C900 C899 1.384 . S
C900 H918 0.928 . S
C901 C898 1.260 . S
C901 C899 1.479 . S
C902 C897 1.245 . S
C902 C898 1.477 . S
C902 H919 0.932 . S
C903 U886 2.882 . S
C903 C897 1.428 . S
C903 O906 1.301 . S
C903 O907 1.282 . S
O904 U886 2.441 . S
O904 C890 1.249 . S
O905 U886 2.420 . S
O905 C890 1.202 . S
O906 U886 2.455 . S
O906 C903 1.301 . S
O907 U886 2.449 . S
O907 C903 1.282 . S
H908 C881 0.931 . S
H909 C883 0.929 . S
H910 C884 0.930 . S
H911 C885 0.931 . S
H912 C892 0.932 . S
H913 C893 0.930 . S
H914 C894 0.929 . S
H915 C896 0.930 . S
H916 C898 0.932 . S
H917 C899 0.929 . S
H918 C900 0.928 . S
H919 C902 0.932 . S
C920 C921 1.264 . S
C920 C925 1.479 . S
C920 C930 1.465 . S
C921 C920 1.264 . S
C921 C923 1.339 . S
C921 H948 0.931 . S
C922 C923 1.395 . S
C922 C924 1.320 . S
C923 C921 1.339 . S
C923 C922 1.395 . S
C923 H949 0.929 . S
C924 C922 1.320 . S
C924 C925 1.405 . S
C924 H950 0.930 . S
C925 C920 1.479 . S
C925 C924 1.405 . S
C925 H951 0.931 . S
U926 O927 2.454 . S
U926 O928 2.458 . S
U926 C929 2.984 . S
U926 C930 2.847 . S
U926 C943 2.882 . S
U926 O944 2.441 . S
U926 O945 2.420 . S
U926 O946 2.455 . S
U926 O947 2.449 . S
O927 U926 2.454 . S
O927 C929 1.353 . S
O928 U926 2.458 . S
O928 C929 1.286 . S
C929 U926 2.984 . S
C929 O927 1.353 . S
C929 O928 1.286 . S
C929 C931 1.363 . S
C930 C920 1.465 . S
C930 U926 2.847 . S
C930 O944 1.249 . S
C930 O945 1.202 . S
C931 C929 1.363 . S
C931 C933 1.408 . S
C931 C936 1.342 . S
C932 C933 1.310 . S
C932 C935 1.461 . S
C932 H952 0.932 . S
C933 C931 1.408 . S
C933 C932 1.310 . S
C933 H953 0.930 . S
C934 C935 1.474 . S
C934 C936 1.285 . S
C934 H954 0.929 . S
C935 C932 1.461 . S
C935 C934 1.474 . S
C936 C931 1.342 . S
C936 C934 1.285 . S
C936 H955 0.930 . S
C937 C940 1.424 . S
C937 C942 1.245 . S
C937 C943 1.428 . S
C938 C941 1.260 . S
C938 C942 1.477 . S
C938 H956 0.932 . S
C939 C940 1.384 . S
C939 C941 1.479 . S
C939 H957 0.929 . S
C940 C937 1.424 . S
C940 C939 1.384 . S
C940 H958 0.928 . S
C941 C938 1.260 . S
C941 C939 1.479 . S
C942 C937 1.245 . S
C942 C938 1.477 . S
C942 H959 0.932 . S
C943 U926 2.882 . S
C943 C937 1.428 . S
C943 O946 1.301 . S
C943 O947 1.282 . S
O944 U926 2.441 . S
O944 C930 1.249 . S
O945 U926 2.420 . S
O945 C930 1.202 . S
O946 U926 2.455 . S
O946 C943 1.301 . S
O947 U926 2.449 . S
O947 C943 1.282 . S
H948 C921 0.931 . S
H949 C923 0.929 . S
H950 C924 0.930 . S
H951 C925 0.931 . S
H952 C932 0.932 . S
H953 C933 0.930 . S
H954 C934 0.929 . S
H955 C936 0.930 . S
H956 C938 0.932 . S
H957 C939 0.929 . S
H958 C940 0.928 . S
H959 C942 0.932 . S
C960 C961 1.264 . S
C960 C965 1.479 . S
C960 C970 1.465 . S
C961 C960 1.264 . S
C961 C963 1.339 . S
C961 H988 0.931 . S
C962 C963 1.395 . S
C962 C964 1.320 . S
C963 C961 1.339 . S
C963 C962 1.395 . S
C963 H989 0.929 . S
C964 C962 1.320 . S
C964 C965 1.405 . S
C964 H990 0.930 . S
C965 C960 1.479 . S
C965 C964 1.405 . S
C965 H991 0.931 . S
U966 O967 2.454 . S
U966 O968 2.458 . S
U966 C969 2.984 . S
U966 C970 2.847 . S
U966 C983 2.882 . S
U966 O984 2.441 . S
U966 O985 2.420 . S
U966 O986 2.455 . S
U966 O987 2.449 . S
O967 U966 2.454 . S
O967 C969 1.353 . S
O968 U966 2.458 . S
O968 C969 1.286 . S
C969 U966 2.984 . S
C969 O967 1.353 . S
C969 O968 1.286 . S
C969 C971 1.363 . S
C970 C960 1.465 . S
C970 U966 2.847 . S
C970 O984 1.249 . S
C970 O985 1.202 . S
C971 C969 1.363 . S
C971 C973 1.408 . S
C971 C976 1.342 . S
C972 C973 1.310 . S
C972 C975 1.461 . S
C972 H992 0.932 . S
C973 C971 1.408 . S
C973 C972 1.310 . S
C973 H993 0.930 . S
C974 C975 1.474 . S
C974 C976 1.285 . S
C974 H994 0.929 . S
C975 C972 1.461 . S
C975 C974 1.474 . S
C976 C971 1.342 . S
C976 C974 1.285 . S
C976 H995 0.930 . S
C977 C980 1.424 . S
C977 C982 1.245 . S
C977 C983 1.428 . S
C978 C981 1.260 . S
C978 C982 1.477 . S
C978 H996 0.932 . S
C979 C980 1.384 . S
C979 C981 1.479 . S
C979 H997 0.929 . S
C980 C977 1.424 . S
C980 C979 1.384 . S
C980 H998 0.928 . S
C981 C978 1.260 . S
C981 C979 1.479 . S
C982 C977 1.245 . S
C982 C978 1.477 . S
C982 H999 0.932 . S
C983 U966 2.882 . S
C983 C977 1.428 . S
C983 O986 1.301 . S
C983 O987 1.282 . S
O984 U966 2.441 . S
O984 C970 1.249 . S
O985 U966 2.420 . S
O985 C970 1.202 . S
O986 U966 2.455 . S
O986 C983 1.301 . S
O987 U966 2.449 . S
O987 C983 1.282 . S
H988 C961 0.931 . S
H989 C963 0.929 . S
H990 C964 0.930 . S
H991 C965 0.931 . S
H992 C972 0.932 . S
H993 C973 0.930 . S
H994 C974 0.929 . S
H995 C976 0.930 . S
H996 C978 0.932 . S
H997 C979 0.929 . S
H998 C980 0.928 . S
H999 C982 0.932 . S
C1000 C1001 1.264 . S
C1000 C1005 1.479 . S
C1000 C1010 1.465 . S
C1001 C1000 1.264 . S
C1001 C1003 1.339 . S
C1001 H1028 0.931 . S
C1002 C1003 1.395 . S
C1002 C1004 1.320 . S
C1003 C1001 1.339 . S
C1003 C1002 1.395 . S
C1003 H1029 0.929 . S
C1004 C1002 1.320 . S
C1004 C1005 1.405 . S
C1004 H1030 0.930 . S
C1005 C1000 1.479 . S
C1005 C1004 1.405 . S
C1005 H1031 0.931 . S
U1006 O1007 2.454 . S
U1006 O1008 2.458 . S
U1006 C1009 2.984 . S
U1006 C1010 2.847 . S
U1006 C1023 2.882 . S
U1006 O1024 2.441 . S
U1006 O1025 2.420 . S
U1006 O1026 2.455 . S
U1006 O1027 2.449 . S
O1007 U1006 2.454 . S
O1007 C1009 1.353 . S
O1008 U1006 2.458 . S
O1008 C1009 1.286 . S
C1009 U1006 2.984 . S
C1009 O1007 1.353 . S
C1009 O1008 1.286 . S
C1009 C1011 1.363 . S
C1010 C1000 1.465 . S
C1010 U1006 2.847 . S
C1010 O1024 1.249 . S
C1010 O1025 1.202 . S
C1011 C1009 1.363 . S
C1011 C1013 1.408 . S
C1011 C1016 1.342 . S
C1012 C1013 1.310 . S
C1012 C1015 1.461 . S
C1012 H1032 0.932 . S
C1013 C1011 1.408 . S
C1013 C1012 1.310 . S
C1013 H1033 0.930 . S
C1014 C1015 1.474 . S
C1014 C1016 1.285 . S
C1014 H1034 0.929 . S
C1015 C1012 1.461 . S
C1015 C1014 1.474 . S
C1016 C1011 1.342 . S
C1016 C1014 1.285 . S
C1016 H1035 0.930 . S
C1017 C1020 1.424 . S
C1017 C1022 1.245 . S
C1017 C1023 1.428 . S
C1018 C1021 1.260 . S
C1018 C1022 1.477 . S
C1018 H1036 0.932 . S
C1019 C1020 1.384 . S
C1019 C1021 1.479 . S
C1019 H1037 0.929 . S
C1020 C1017 1.424 . S
C1020 C1019 1.384 . S
C1020 H1038 0.928 . S
C1021 C1018 1.260 . S
C1021 C1019 1.479 . S
C1022 C1017 1.245 . S
C1022 C1018 1.477 . S
C1022 H1039 0.932 . S
C1023 U1006 2.882 . S
C1023 C1017 1.428 . S
C1023 O1026 1.301 . S
C1023 O1027 1.282 . S
O1024 U1006 2.441 . S
O1024 C1010 1.249 . S
O1025 U1006 2.420 . S
O1025 C1010 1.202 . S
O1026 U1006 2.455 . S
O1026 C1023 1.301 . S
O1027 U1006 2.449 . S
O1027 C1023 1.282 . S
H1028 C1001 0.931 . S
H1029 C1003 0.929 . S
H1030 C1004 0.930 . S
H1031 C1005 0.931 . S
H1032 C1012 0.932 . S
H1033 C1013 0.930 . S
H1034 C1014 0.929 . S
H1035 C1016 0.930 . S
H1036 C1018 0.932 . S
H1037 C1019 0.929 . S
H1038 C1020 0.928 . S
H1039 C1022 0.932 . S
C1040 C1041 1.264 . S
C1040 C1045 1.479 . S
C1040 C1050 1.465 . S
C1041 C1040 1.264 . S
C1041 C1043 1.339 . S
C1041 H1068 0.931 . S
C1042 C1043 1.395 . S
C1042 C1044 1.320 . S
C1043 C1041 1.339 . S
C1043 C1042 1.395 . S
C1043 H1069 0.929 . S
C1044 C1042 1.320 . S
C1044 C1045 1.405 . S
C1044 H1070 0.930 . S
C1045 C1040 1.479 . S
C1045 C1044 1.405 . S
C1045 H1071 0.931 . S
U1046 O1047 2.454 . S
U1046 O1048 2.458 . S
U1046 C1049 2.984 . S
U1046 C1050 2.847 . S
U1046 C1063 2.882 . S
U1046 O1064 2.441 . S
U1046 O1065 2.420 . S
U1046 O1066 2.455 . S
U1046 O1067 2.449 . S
O1047 U1046 2.454 . S
O1047 C1049 1.353 . S
O1048 U1046 2.458 . S
O1048 C1049 1.286 . S
C1049 U1046 2.984 . S
C1049 O1047 1.353 . S
C1049 O1048 1.286 . S
C1049 C1051 1.363 . S
C1050 C1040 1.465 . S
C1050 U1046 2.847 . S
C1050 O1064 1.249 . S
C1050 O1065 1.202 . S
C1051 C1049 1.363 . S
C1051 C1053 1.408 . S
C1051 C1056 1.342 . S
C1052 C1053 1.310 . S
C1052 C1055 1.461 . S
C1052 H1072 0.932 . S
C1053 C1051 1.408 . S
C1053 C1052 1.310 . S
C1053 H1073 0.930 . S
C1054 C1055 1.474 . S
C1054 C1056 1.285 . S
C1054 H1074 0.929 . S
C1055 C1052 1.461 . S
C1055 C1054 1.474 . S
C1056 C1051 1.342 . S
C1056 C1054 1.285 . S
C1056 H1075 0.930 . S
C1057 C1060 1.424 . S
C1057 C1062 1.245 . S
C1057 C1063 1.428 . S
C1058 C1061 1.260 . S
C1058 C1062 1.477 . S
C1058 H1076 0.932 . S
C1059 C1060 1.384 . S
C1059 C1061 1.479 . S
C1059 H1077 0.929 . S
C1060 C1057 1.424 . S
C1060 C1059 1.384 . S
C1060 H1078 0.928 . S
C1061 C1058 1.260 . S
C1061 C1059 1.479 . S
C1062 C1057 1.245 . S
C1062 C1058 1.477 . S
C1062 H1079 0.932 . S
C1063 U1046 2.882 . S
C1063 C1057 1.428 . S
C1063 O1066 1.301 . S
C1063 O1067 1.282 . S
O1064 U1046 2.441 . S
O1064 C1050 1.249 . S
O1065 U1046 2.420 . S
O1065 C1050 1.202 . S
O1066 U1046 2.455 . S
O1066 C1063 1.301 . S
O1067 U1046 2.449 . S
O1067 C1063 1.282 . S
H1068 C1041 0.931 . S
H1069 C1043 0.929 . S
H1070 C1044 0.930 . S
H1071 C1045 0.931 . S
H1072 C1052 0.932 . S
H1073 C1053 0.930 . S
H1074 C1054 0.929 . S
H1075 C1056 0.930 . S
H1076 C1058 0.932 . S
H1077 C1059 0.929 . S
H1078 C1060 0.928 . S
H1079 C1062 0.932 . S
C1080 C1081 1.264 . S
C1080 C1085 1.479 . S
C1080 C1090 1.465 . S
C1081 C1080 1.264 . S
C1081 C1083 1.339 . S
C1081 H1108 0.931 . S
C1082 C1083 1.395 . S
C1082 C1084 1.320 . S
C1083 C1081 1.339 . S
C1083 C1082 1.395 . S
C1083 H1109 0.929 . S
C1084 C1082 1.320 . S
C1084 C1085 1.405 . S
C1084 H1110 0.930 . S
C1085 C1080 1.479 . S
C1085 C1084 1.405 . S
C1085 H1111 0.931 . S
U1086 O1087 2.454 . S
U1086 O1088 2.458 . S
U1086 C1089 2.984 . S
U1086 C1090 2.847 . S
U1086 C1103 2.882 . S
U1086 O1104 2.441 . S
U1086 O1105 2.420 . S
U1086 O1106 2.455 . S
U1086 O1107 2.449 . S
O1087 U1086 2.454 . S
O1087 C1089 1.353 . S
O1088 U1086 2.458 . S
O1088 C1089 1.286 . S
C1089 U1086 2.984 . S
C1089 O1087 1.353 . S
C1089 O1088 1.286 . S
C1089 C1091 1.363 . S
C1090 C1080 1.465 . S
C1090 U1086 2.847 . S
C1090 O1104 1.249 . S
C1090 O1105 1.202 . S
C1091 C1089 1.363 . S
C1091 C1093 1.408 . S
C1091 C1096 1.342 . S
C1092 C1093 1.310 . S
C1092 C1095 1.461 . S
C1092 H1112 0.932 . S
C1093 C1091 1.408 . S
C1093 C1092 1.310 . S
C1093 H1113 0.930 . S
C1094 C1095 1.474 . S
C1094 C1096 1.285 . S
C1094 H1114 0.929 . S
C1095 C1092 1.461 . S
C1095 C1094 1.474 . S
C1096 C1091 1.342 . S
C1096 C1094 1.285 . S
C1096 H1115 0.930 . S
C1097 C1100 1.424 . S
C1097 C1102 1.245 . S
C1097 C1103 1.428 . S
C1098 C1101 1.260 . S
C1098 C1102 1.477 . S
C1098 H1116 0.932 . S
C1099 C1100 1.384 . S
C1099 C1101 1.479 . S
C1099 H1117 0.929 . S
C1100 C1097 1.424 . S
C1100 C1099 1.384 . S
C1100 H1118 0.928 . S
C1101 C1098 1.260 . S
C1101 C1099 1.479 . S
C1102 C1097 1.245 . S
C1102 C1098 1.477 . S
C1102 H1119 0.932 . S
C1103 U1086 2.882 . S
C1103 C1097 1.428 . S
C1103 O1106 1.301 . S
C1103 O1107 1.282 . S
O1104 U1086 2.441 . S
O1104 C1090 1.249 . S
O1105 U1086 2.420 . S
O1105 C1090 1.202 . S
O1106 U1086 2.455 . S
O1106 C1103 1.301 . S
O1107 U1086 2.449 . S
O1107 C1103 1.282 . S
H1108 C1081 0.931 . S
H1109 C1083 0.929 . S
H1110 C1084 0.930 . S
H1111 C1085 0.931 . S
H1112 C1092 0.932 . S
H1113 C1093 0.930 . S
H1114 C1094 0.929 . S
H1115 C1096 0.930 . S
H1116 C1098 0.932 . S
H1117 C1099 0.929 . S
H1118 C1100 0.928 . S
H1119 C1102 0.932 . S
C1120 C1121 1.264 . S
C1120 C1125 1.479 . S
C1120 C1130 1.465 . S
C1121 C1120 1.264 . S
C1121 C1123 1.339 . S
C1121 H1148 0.931 . S
C1122 C1123 1.395 . S
C1122 C1124 1.320 . S
C1123 C1121 1.339 . S
C1123 C1122 1.395 . S
C1123 H1149 0.929 . S
C1124 C1122 1.320 . S
C1124 C1125 1.405 . S
C1124 H1150 0.930 . S
C1125 C1120 1.479 . S
C1125 C1124 1.405 . S
C1125 H1151 0.931 . S
U1126 O1127 2.454 . S
U1126 O1128 2.458 . S
U1126 C1129 2.984 . S
U1126 C1130 2.847 . S
U1126 C1143 2.882 . S
U1126 O1144 2.441 . S
U1126 O1145 2.420 . S
U1126 O1146 2.455 . S
U1126 O1147 2.449 . S
O1127 U1126 2.454 . S
O1127 C1129 1.353 . S
O1128 U1126 2.458 . S
O1128 C1129 1.286 . S
C1129 U1126 2.984 . S
C1129 O1127 1.353 . S
C1129 O1128 1.286 . S
C1129 C1131 1.363 . S
C1130 C1120 1.465 . S
C1130 U1126 2.847 . S
C1130 O1144 1.249 . S
C1130 O1145 1.202 . S
C1131 C1129 1.363 . S
C1131 C1133 1.408 . S
C1131 C1136 1.342 . S
C1132 C1133 1.310 . S
C1132 C1135 1.461 . S
C1132 H1152 0.932 . S
C1133 C1131 1.408 . S
C1133 C1132 1.310 . S
C1133 H1153 0.930 . S
C1134 C1135 1.474 . S
C1134 C1136 1.285 . S
C1134 H1154 0.929 . S
C1135 C1132 1.461 . S
C1135 C1134 1.474 . S
C1136 C1131 1.342 . S
C1136 C1134 1.285 . S
C1136 H1155 0.930 . S
C1137 C1140 1.424 . S
C1137 C1142 1.245 . S
C1137 C1143 1.428 . S
C1138 C1141 1.260 . S
C1138 C1142 1.477 . S
C1138 H1156 0.932 . S
C1139 C1140 1.384 . S
C1139 C1141 1.479 . S
C1139 H1157 0.929 . S
C1140 C1137 1.424 . S
C1140 C1139 1.384 . S
C1140 H1158 0.928 . S
C1141 C1138 1.260 . S
C1141 C1139 1.479 . S
C1142 C1137 1.245 . S
C1142 C1138 1.477 . S
C1142 H1159 0.932 . S
C1143 U1126 2.882 . S
C1143 C1137 1.428 . S
C1143 O1146 1.301 . S
C1143 O1147 1.282 . S
O1144 U1126 2.441 . S
O1144 C1130 1.249 . S
O1145 U1126 2.420 . S
O1145 C1130 1.202 . S
O1146 U1126 2.455 . S
O1146 C1143 1.301 . S
O1147 U1126 2.449 . S
O1147 C1143 1.282 . S
H1148 C1121 0.931 . S
H1149 C1123 0.929 . S
H1150 C1124 0.930 . S
H1151 C1125 0.931 . S
H1152 C1132 0.932 . S
H1153 C1133 0.930 . S
H1154 C1134 0.929 . S
H1155 C1136 0.930 . S
H1156 C1138 0.932 . S
H1157 C1139 0.929 . S
H1158 C1140 0.928 . S
H1159 C1142 0.932 . S
C1160 C1161 1.264 . S
C1160 C1165 1.479 . S
C1160 C1170 1.465 . S
C1161 C1160 1.264 . S
C1161 C1163 1.339 . S
C1161 H1188 0.931 . S
C1162 C1163 1.395 . S
C1162 C1164 1.320 . S
C1163 C1161 1.339 . S
C1163 C1162 1.395 . S
C1163 H1189 0.929 . S
C1164 C1162 1.320 . S
C1164 C1165 1.405 . S
C1164 H1190 0.930 . S
C1165 C1160 1.479 . S
C1165 C1164 1.405 . S
C1165 H1191 0.931 . S
U1166 O1167 2.454 . S
U1166 O1168 2.458 . S
U1166 C1169 2.984 . S
U1166 C1170 2.847 . S
U1166 C1183 2.882 . S
U1166 O1184 2.441 . S
U1166 O1185 2.420 . S
U1166 O1186 2.455 . S
U1166 O1187 2.449 . S
O1167 U1166 2.454 . S
O1167 C1169 1.353 . S
O1168 U1166 2.458 . S
O1168 C1169 1.286 . S
C1169 U1166 2.984 . S
C1169 O1167 1.353 . S
C1169 O1168 1.286 . S
C1169 C1171 1.363 . S
C1170 C1160 1.465 . S
C1170 U1166 2.847 . S
C1170 O1184 1.249 . S
C1170 O1185 1.202 . S
C1171 C1169 1.363 . S
C1171 C1173 1.408 . S
C1171 C1176 1.342 . S
C1172 C1173 1.310 . S
C1172 C1175 1.461 . S
C1172 H1192 0.932 . S
C1173 C1171 1.408 . S
C1173 C1172 1.310 . S
C1173 H1193 0.930 . S
C1174 C1175 1.474 . S
C1174 C1176 1.285 . S
C1174 H1194 0.929 . S
C1175 C1172 1.461 . S
C1175 C1174 1.474 . S
C1176 C1171 1.342 . S
C1176 C1174 1.285 . S
C1176 H1195 0.930 . S
C1177 C1180 1.424 . S
C1177 C1182 1.245 . S
C1177 C1183 1.428 . S
C1178 C1181 1.260 . S
C1178 C1182 1.477 . S
C1178 H1196 0.932 . S
C1179 C1180 1.384 . S
C1179 C1181 1.479 . S
C1179 H1197 0.929 . S
C1180 C1177 1.424 . S
C1180 C1179 1.384 . S
C1180 H1198 0.928 . S
C1181 C1178 1.260 . S
C1181 C1179 1.479 . S
C1182 C1177 1.245 . S
C1182 C1178 1.477 . S
C1182 H1199 0.932 . S
C1183 U1166 2.882 . S
C1183 C1177 1.428 . S
C1183 O1186 1.301 . S
C1183 O1187 1.282 . S
O1184 U1166 2.441 . S
O1184 C1170 1.249 . S
O1185 U1166 2.420 . S
O1185 C1170 1.202 . S
O1186 U1166 2.455 . S
O1186 C1183 1.301 . S
O1187 U1166 2.449 . S
O1187 C1183 1.282 . S
H1188 C1161 0.931 . S
H1189 C1163 0.929 . S
H1190 C1164 0.930 . S
H1191 C1165 0.931 . S
H1192 C1172 0.932 . S
H1193 C1173 0.930 . S
H1194 C1174 0.929 . S
H1195 C1176 0.930 . S
H1196 C1178 0.932 . S
H1197 C1179 0.929 . S
H1198 C1180 0.928 . S
H1199 C1182 0.932 . S
C1200 C1201 1.264 . S
C1200 C1205 1.479 . S
C1200 C1210 1.465 . S
C1201 C1200 1.264 . S
C1201 C1203 1.339 . S
C1201 H1228 0.931 . S
C1202 C1203 1.395 . S
C1202 C1204 1.320 . S
C1203 C1201 1.339 . S
C1203 C1202 1.395 . S
C1203 H1229 0.929 . S
C1204 C1202 1.320 . S
C1204 C1205 1.405 . S
C1204 H1230 0.930 . S
C1205 C1200 1.479 . S
C1205 C1204 1.405 . S
C1205 H1231 0.931 . S
U1206 O1207 2.454 . S
U1206 O1208 2.458 . S
U1206 C1209 2.984 . S
U1206 C1210 2.847 . S
U1206 C1223 2.882 . S
U1206 O1224 2.441 . S
U1206 O1225 2.420 . S
U1206 O1226 2.455 . S
U1206 O1227 2.449 . S
O1207 U1206 2.454 . S
O1207 C1209 1.353 . S
O1208 U1206 2.458 . S
O1208 C1209 1.286 . S
C1209 U1206 2.984 . S
C1209 O1207 1.353 . S
C1209 O1208 1.286 . S
C1209 C1211 1.363 . S
C1210 C1200 1.465 . S
C1210 U1206 2.847 . S
C1210 O1224 1.249 . S
C1210 O1225 1.202 . S
C1211 C1209 1.363 . S
C1211 C1213 1.408 . S
C1211 C1216 1.342 . S
C1212 C1213 1.310 . S
C1212 C1215 1.461 . S
C1212 H1232 0.932 . S
C1213 C1211 1.408 . S
C1213 C1212 1.310 . S
C1213 H1233 0.930 . S
C1214 C1215 1.474 . S
C1214 C1216 1.285 . S
C1214 H1234 0.929 . S
C1215 C1212 1.461 . S
C1215 C1214 1.474 . S
C1216 C1211 1.342 . S
C1216 C1214 1.285 . S
C1216 H1235 0.930 . S
C1217 C1220 1.424 . S
C1217 C1222 1.245 . S
C1217 C1223 1.428 . S
C1218 C1221 1.260 . S
C1218 C1222 1.477 . S
C1218 H1236 0.932 . S
C1219 C1220 1.384 . S
C1219 C1221 1.479 . S
C1219 H1237 0.929 . S
C1220 C1217 1.424 . S
C1220 C1219 1.384 . S
C1220 H1238 0.928 . S
C1221 C1218 1.260 . S
C1221 C1219 1.479 . S
C1222 C1217 1.245 . S
C1222 C1218 1.477 . S
C1222 H1239 0.932 . S
C1223 U1206 2.882 . S
C1223 C1217 1.428 . S
C1223 O1226 1.301 . S
C1223 O1227 1.282 . S
O1224 U1206 2.441 . S
O1224 C1210 1.249 . S
O1225 U1206 2.420 . S
O1225 C1210 1.202 . S
O1226 U1206 2.455 . S
O1226 C1223 1.301 . S
O1227 U1206 2.449 . S
O1227 C1223 1.282 . S
H1228 C1201 0.931 . S
H1229 C1203 0.929 . S
H1230 C1204 0.930 . S
H1231 C1205 0.931 . S
H1232 C1212 0.932 . S
H1233 C1213 0.930 . S
H1234 C1214 0.929 . S
H1235 C1216 0.930 . S
H1236 C1218 0.932 . S
H1237 C1219 0.929 . S
H1238 C1220 0.928 . S
H1239 C1222 0.932 . S
C1240 C1241 1.264 . S
C1240 C1245 1.479 . S
C1240 C1250 1.465 . S
C1241 C1240 1.264 . S
C1241 C1243 1.339 . S
C1241 H1268 0.931 . S
C1242 C1243 1.395 . S
C1242 C1244 1.320 . S
C1243 C1241 1.339 . S
C1243 C1242 1.395 . S
C1243 H1269 0.929 . S
C1244 C1242 1.320 . S
C1244 C1245 1.405 . S
C1244 H1270 0.930 . S
C1245 C1240 1.479 . S
C1245 C1244 1.405 . S
C1245 H1271 0.931 . S
U1246 O1247 2.454 . S
U1246 O1248 2.458 . S
U1246 C1249 2.984 . S
U1246 C1250 2.847 . S
U1246 C1263 2.882 . S
U1246 O1264 2.441 . S
U1246 O1265 2.420 . S
U1246 O1266 2.455 . S
U1246 O1267 2.449 . S
O1247 U1246 2.454 . S
O1247 C1249 1.353 . S
O1248 U1246 2.458 . S
O1248 C1249 1.286 . S
C1249 U1246 2.984 . S
C1249 O1247 1.353 . S
C1249 O1248 1.286 . S
C1249 C1251 1.363 . S
C1250 C1240 1.465 . S
C1250 U1246 2.847 . S
C1250 O1264 1.249 . S
C1250 O1265 1.202 . S
C1251 C1249 1.363 . S
C1251 C1253 1.408 . S
C1251 C1256 1.342 . S
C1252 C1253 1.310 . S
C1252 C1255 1.461 . S
C1252 H1272 0.932 . S
C1253 C1251 1.408 . S
C1253 C1252 1.310 . S
C1253 H1273 0.930 . S
C1254 C1255 1.474 . S
C1254 C1256 1.285 . S
C1254 H1274 0.929 . S
C1255 C1252 1.461 . S
C1255 C1254 1.474 . S
C1256 C1251 1.342 . S
C1256 C1254 1.285 . S
C1256 H1275 0.930 . S
C1257 C1260 1.424 . S
C1257 C1262 1.245 . S
C1257 C1263 1.428 . S
C1258 C1261 1.260 . S
C1258 C1262 1.477 . S
C1258 H1276 0.932 . S
C1259 C1260 1.384 . S
C1259 C1261 1.479 . S
C1259 H1277 0.929 . S
C1260 C1257 1.424 . S
C1260 C1259 1.384 . S
C1260 H1278 0.928 . S
C1261 C1258 1.260 . S
C1261 C1259 1.479 . S
C1262 C1257 1.245 . S
C1262 C1258 1.477 . S
C1262 H1279 0.932 . S
C1263 U1246 2.882 . S
C1263 C1257 1.428 . S
C1263 O1266 1.301 . S
C1263 O1267 1.282 . S
O1264 U1246 2.441 . S
O1264 C1250 1.249 . S
O1265 U1246 2.420 . S
O1265 C1250 1.202 . S
O1266 U1246 2.455 . S
O1266 C1263 1.301 . S
O1267 U1246 2.449 . S
O1267 C1263 1.282 . S
H1268 C1241 0.931 . S
H1269 C1243 0.929 . S
H1270 C1244 0.930 . S
H1271 C1245 0.931 . S
H1272 C1252 0.932 . S
H1273 C1253 0.930 . S
H1274 C1254 0.929 . S
H1275 C1256 0.930 . S
H1276 C1258 0.932 . S
H1277 C1259 0.929 . S
H1278 C1260 0.928 . S
H1279 C1262 0.932 . S
H1280 C1288 0.930 . S
H1281 C1291 0.930 . S
H1282 C1293 0.930 . S
H1283 C1294 0.970 . S
H1284 C1294 0.970 . S
H1285 C1296 0.930 . S
H1286 C1298 0.930 . S
H1287 C1300 0.930 . S
C1288 H1280 0.930 . S
C1288 C1289 1.382 . S
C1288 C1290 1.426 . S
C1289 C1288 1.382 . S
C1289 C1293 1.389 . S
C1290 C1288 1.426 . S
C1290 C1291 1.375 . S
C1290 C1294 1.532 1_556 S
C1291 H1281 0.930 . S
C1291 C1290 1.375 . S
C1291 C1292 1.416 . S
C1292 C1291 1.416 . S
C1292 C1293 1.371 . S
C1293 H1282 0.930 . S
C1293 C1289 1.389 . S
C1293 C1292 1.371 . S
C1294 H1283 0.970 . S
C1294 H1284 0.970 . S
C1294 C1290 1.532 1_554 S
C1294 C1295 1.499 . S
C1295 C1294 1.499 . S
C1295 C1296 1.370 . S
C1295 C1300 1.415 . S
C1296 H1285 0.930 . S
C1296 C1295 1.370 . S
C1296 C1297 1.407 . S
C1297 C1296 1.407 . S
C1297 C1298 1.365 . S
C1298 H1286 0.930 . S
C1298 C1297 1.365 . S
C1298 C1299 1.393 . S
C1299 C1298 1.393 . S
C1299 C1300 1.387 . S
C1300 H1287 0.930 . S
C1300 C1295 1.415 . S
C1300 C1299 1.387 . S
H1301 C1309 0.930 . S
H1302 C1312 0.930 . S
H1303 C1314 0.930 . S
H1304 C1315 0.970 . S
H1305 C1315 0.970 . S
H1306 C1317 0.930 . S
H1307 C1319 0.930 . S
H1308 C1321 0.930 . S
C1309 H1301 0.930 . S
C1309 C1310 1.382 . S
C1309 C1311 1.426 . S
C1310 C1309 1.382 . S
C1310 C1314 1.389 . S
C1311 C1309 1.426 . S
C1311 C1312 1.375 . S
C1311 C1315 1.532 . S
C1312 H1302 0.930 . S
C1312 C1311 1.375 . S
C1312 C1313 1.416 . S
C1313 C1312 1.416 . S
C1313 C1314 1.371 . S
C1314 H1303 0.930 . S
C1314 C1310 1.389 . S
C1314 C1313 1.371 . S
C1315 H1304 0.970 . S
C1315 H1305 0.970 . S
C1315 C1311 1.532 . S
C1315 C1316 1.499 1_554 S
C1316 C1315 1.499 1_556 S
C1316 C1317 1.370 . S
C1316 C1321 1.415 . S
C1317 H1306 0.930 . S
C1317 C1316 1.370 . S
C1317 C1318 1.407 . S
C1318 C1317 1.407 . S
C1318 C1319 1.365 . S
C1319 H1307 0.930 . S
C1319 C1318 1.365 . S
C1319 C1320 1.393 . S
C1320 C1319 1.393 . S
C1320 C1321 1.387 . S
C1321 H1308 0.930 . S
C1321 C1316 1.415 . S
C1321 C1320 1.387 . S
H1322 C1330 0.930 . S
H1323 C1333 0.930 . S
H1324 C1335 0.930 . S
H1325 C1336 0.970 . S
H1326 C1336 0.970 . S
H1327 C1338 0.930 . S
H1328 C1340 0.930 . S
H1329 C1342 0.930 . S
C1330 H1322 0.930 . S
C1330 C1331 1.382 . S
C1330 C1332 1.426 . S
C1331 C1330 1.382 . S
C1331 C1335 1.389 . S
C1332 C1330 1.426 . S
C1332 C1333 1.375 . S
C1332 C1336 1.532 . S
C1333 H1323 0.930 . S
C1333 C1332 1.375 . S
C1333 C1334 1.416 . S
C1334 C1333 1.416 . S
C1334 C1335 1.371 . S
C1335 H1324 0.930 . S
C1335 C1331 1.389 . S
C1335 C1334 1.371 . S
C1336 H1325 0.970 . S
C1336 H1326 0.970 . S
C1336 C1332 1.532 . S
C1336 C1337 1.499 1_554 S
C1337 C1336 1.499 1_556 S
C1337 C1338 1.370 . S
C1337 C1342 1.415 . S
C1338 H1327 0.930 . S
C1338 C1337 1.370 . S
C1338 C1339 1.407 . S
C1339 C1338 1.407 . S
C1339 C1340 1.365 . S
C1340 H1328 0.930 . S
C1340 C1339 1.365 . S
C1340 C1341 1.393 . S
C1341 C1340 1.393 . S
C1341 C1342 1.387 . S
C1342 H1329 0.930 . S
C1342 C1337 1.415 . S
C1342 C1341 1.387 . S
H1343 C1351 0.930 . S
H1344 C1354 0.930 . S
H1345 C1356 0.930 . S
H1346 C1357 0.970 . S
H1347 C1357 0.970 . S
H1348 C1359 0.930 . S
H1349 C1361 0.930 . S
H1350 C1363 0.930 . S
C1351 H1343 0.930 . S
C1351 C1352 1.382 . S
C1351 C1353 1.426 . S
C1352 C1351 1.382 . S
C1352 C1356 1.389 . S
C1353 C1351 1.426 . S
C1353 C1354 1.375 . S
C1353 C1357 1.532 . S
C1354 H1344 0.930 . S
C1354 C1353 1.375 . S
C1354 C1355 1.416 . S
C1355 C1354 1.416 . S
C1355 C1356 1.371 . S
C1356 H1345 0.930 . S
C1356 C1352 1.389 . S
C1356 C1355 1.371 . S
C1357 H1346 0.970 . S
C1357 H1347 0.970 . S
C1357 C1353 1.532 . S
C1357 C1358 1.499 1_554 S
C1358 C1357 1.499 1_556 S
C1358 C1359 1.370 . S
C1358 C1363 1.415 . S
C1359 H1348 0.930 . S
C1359 C1358 1.370 . S
C1359 C1360 1.407 . S
C1360 C1359 1.407 . S
C1360 C1361 1.365 . S
C1361 H1349 0.930 . S
C1361 C1360 1.365 . S
C1361 C1362 1.393 . S
C1362 C1361 1.393 . S
C1362 C1363 1.387 . S
C1363 H1350 0.930 . S
C1363 C1358 1.415 . S
C1363 C1362 1.387 . S
H1364 C1372 0.930 . S
H1365 C1375 0.930 . S
H1366 C1377 0.930 . S
H1367 C1378 0.970 . S
H1368 C1378 0.970 . S
H1369 C1380 0.930 . S
H1370 C1382 0.930 . S
H1371 C1384 0.930 . S
C1372 H1364 0.930 . S
C1372 C1373 1.382 . S
C1372 C1374 1.426 . S
C1373 C1372 1.382 . S
C1373 C1377 1.389 . S
C1374 C1372 1.426 . S
C1374 C1375 1.375 . S
C1374 C1378 1.532 . S
C1375 H1365 0.930 . S
C1375 C1374 1.375 . S
C1375 C1376 1.416 . S
C1376 C1375 1.416 . S
C1376 C1377 1.371 . S
C1377 H1366 0.930 . S
C1377 C1373 1.389 . S
C1377 C1376 1.371 . S
C1378 H1367 0.970 . S
C1378 H1368 0.970 . S
C1378 C1374 1.532 . S
C1378 C1379 1.499 1_455 S
C1379 C1378 1.499 1_655 S
C1379 C1380 1.370 . S
C1379 C1384 1.415 . S
C1380 H1369 0.930 . S
C1380 C1379 1.370 . S
C1380 C1381 1.407 . S
C1381 C1380 1.407 . S
C1381 C1382 1.365 . S
C1382 H1370 0.930 . S
C1382 C1381 1.365 . S
C1382 C1383 1.393 . S
C1383 C1382 1.393 . S
C1383 C1384 1.387 . S
C1384 H1371 0.930 . S
C1384 C1379 1.415 . S
C1384 C1383 1.387 . S
H1385 C1393 0.930 . S
H1386 C1396 0.930 . S
H1387 C1398 0.930 . S
H1388 C1399 0.970 . S
H1389 C1399 0.970 1_565 S
H1390 C1401 0.930 . S
H1391 C1403 0.930 . S
H1392 C1405 0.930 . S
C1393 H1385 0.930 . S
C1393 C1394 1.382 . S
C1393 C1395 1.426 . S
C1394 C1393 1.382 . S
C1394 C1398 1.389 . S
C1395 C1393 1.426 . S
C1395 C1396 1.375 . S
C1395 C1399 1.529 . S
C1396 H1386 0.930 . S
C1396 C1395 1.375 . S
C1396 C1397 1.416 . S
C1397 C1396 1.416 . S
C1397 C1398 1.371 . S
C1398 H1387 0.930 . S
C1398 C1394 1.389 . S
C1398 C1397 1.371 . S
C1399 H1388 0.970 . S
C1399 H1389 0.970 1_545 S
C1399 C1395 1.529 . S
C1399 C1400 1.503 1_545 S
C1400 C1399 1.503 1_565 S
C1400 C1401 1.370 . S
C1400 C1405 1.415 . S
C1401 H1390 0.930 . S
C1401 C1400 1.370 . S
C1401 C1402 1.407 . S
C1402 C1401 1.407 . S
C1402 C1403 1.365 . S
C1403 H1391 0.930 . S
C1403 C1402 1.365 . S
C1403 C1404 1.393 . S
C1404 C1403 1.393 . S
C1404 C1405 1.387 . S
C1405 H1392 0.930 . S
C1405 C1400 1.415 . S
C1405 C1404 1.387 . S
H1406 C1414 0.930 . S
H1407 C1417 0.930 . S
H1408 C1419 0.930 . S
H1409 C1420 0.970 . S
H1410 C1420 0.970 . S
H1411 C1422 0.930 . S
H1412 C1424 0.930 . S
H1413 C1426 0.930 . S
C1414 H1406 0.930 . S
C1414 C1415 1.382 . S
C1414 C1416 1.426 . S
C1415 C1414 1.382 . S
C1415 C1419 1.389 . S
C1416 C1414 1.426 . S
C1416 C1417 1.375 . S
C1416 C1420 1.533 . S
C1417 H1407 0.930 . S
C1417 C1416 1.375 . S
C1417 C1418 1.416 . S
C1418 C1417 1.416 . S
C1418 C1419 1.371 . S
C1419 H1408 0.930 . S
C1419 C1415 1.389 . S
C1419 C1418 1.371 . S
C1420 H1409 0.970 . S
C1420 H1410 0.970 . S
C1420 C1416 1.533 . S
C1420 C1421 1.499 1_655 S
C1421 C1420 1.499 1_455 S
C1421 C1422 1.370 . S
C1421 C1426 1.415 . S
C1422 H1411 0.930 . S
C1422 C1421 1.370 . S
C1422 C1423 1.407 . S
C1423 C1422 1.407 . S
C1423 C1424 1.365 . S
C1424 H1412 0.930 . S
C1424 C1423 1.365 . S
C1424 C1425 1.393 . S
C1425 C1424 1.393 . S
C1425 C1426 1.387 . S
C1426 H1413 0.930 . S
C1426 C1421 1.415 . S
C1426 C1425 1.387 . S
H1427 C1435 0.930 . S
H1428 C1438 0.930 . S
H1429 C1440 0.930 . S
H1430 C1441 0.970 . S
H1431 C1441 0.970 . S
H1432 C1443 0.930 . S
H1433 C1445 0.930 . S
H1434 C1447 0.930 . S
C1435 H1427 0.930 . S
C1435 C1436 1.382 . S
C1435 C1437 1.426 . S
C1436 C1435 1.382 . S
C1436 C1440 1.389 . S
C1437 C1435 1.426 . S
C1437 C1438 1.375 . S
C1437 C1441 1.532 1_565 S
C1438 H1428 0.930 . S
C1438 C1437 1.375 . S
C1438 C1439 1.416 . S
C1439 C1438 1.416 . S
C1439 C1440 1.371 . S
C1440 H1429 0.930 . S
C1440 C1436 1.389 . S
C1440 C1439 1.371 . S
C1441 H1430 0.970 . S
C1441 H1431 0.970 . S
C1441 C1437 1.532 1_545 S
C1441 C1442 1.499 . S
C1442 C1441 1.499 . S
C1442 C1443 1.370 . S
C1442 C1447 1.415 . S
C1443 H1432 0.930 . S
C1443 C1442 1.370 . S
C1443 C1444 1.407 . S
C1444 C1443 1.407 . S
C1444 C1445 1.365 . S
C1445 H1433 0.930 . S
C1445 C1444 1.365 . S
C1445 C1446 1.393 . S
C1446 C1445 1.393 . S
C1446 C1447 1.387 . S
C1447 H1434 0.930 . S
C1447 C1442 1.415 . S
C1447 C1446 1.387 . S
H1448 C1456 0.930 . S
H1449 C1459 0.930 . S
H1450 C1461 0.930 . S
H1451 C1462 0.970 . S
H1452 C1462 0.970 . S
H1453 C1464 0.930 . S
H1454 C1466 0.930 . S
H1455 C1468 0.930 . S
C1456 H1448 0.930 . S
C1456 C1457 1.382 . S
C1456 C1458 1.426 . S
C1457 C1456 1.382 . S
C1457 C1461 1.389 . S
C1458 C1456 1.426 . S
C1458 C1459 1.375 . S
C1458 C1462 1.532 1_655 S
C1459 H1449 0.930 . S
C1459 C1458 1.375 . S
C1459 C1460 1.416 . S
C1460 C1459 1.416 . S
C1460 C1461 1.371 . S
C1461 H1450 0.930 . S
C1461 C1457 1.389 . S
C1461 C1460 1.371 . S
C1462 H1451 0.970 . S
C1462 H1452 0.970 . S
C1462 C1458 1.532 1_455 S
C1462 C1463 1.499 . S
C1463 C1462 1.499 . S
C1463 C1464 1.370 . S
C1463 C1468 1.415 . S
C1464 H1453 0.930 . S
C1464 C1463 1.370 . S
C1464 C1465 1.407 . S
C1465 C1464 1.407 . S
C1465 C1466 1.365 . S
C1466 H1454 0.930 . S
C1466 C1465 1.365 . S
C1466 C1467 1.393 . S
C1467 C1466 1.393 . S
C1467 C1468 1.387 . S
C1468 H1455 0.930 . S
C1468 C1463 1.415 . S
C1468 C1467 1.387 . S
H1469 C1477 0.930 . S
H1470 C1480 0.930 . S
H1471 C1482 0.930 . S
H1472 C1483 0.970 . S
H1473 C1483 0.970 . S
H1474 C1485 0.930 . S
H1475 C1487 0.930 . S
H1476 C1489 0.930 . S
C1477 H1469 0.930 . S
C1477 C1478 1.382 . S
C1477 C1479 1.426 . S
C1478 C1477 1.382 . S
C1478 C1482 1.389 . S
C1479 C1477 1.426 . S
C1479 C1480 1.375 . S
C1479 C1483 1.532 1_565 S
C1480 H1470 0.930 . S
C1480 C1479 1.375 . S
C1480 C1481 1.416 . S
C1481 C1480 1.416 . S
C1481 C1482 1.371 . S
C1482 H1471 0.930 . S
C1482 C1478 1.389 . S
C1482 C1481 1.371 . S
C1483 H1472 0.970 . S
C1483 H1473 0.970 . S
C1483 C1479 1.532 1_545 S
C1483 C1484 1.499 . S
C1484 C1483 1.499 . S
C1484 C1485 1.370 . S
C1484 C1489 1.415 . S
C1485 H1474 0.930 . S
C1485 C1484 1.370 . S
C1485 C1486 1.407 . S
C1486 C1485 1.407 . S
C1486 C1487 1.365 . S
C1487 H1475 0.930 . S
C1487 C1486 1.365 . S
C1487 C1488 1.393 . S
C1488 C1487 1.393 . S
C1488 C1489 1.387 . S
C1489 H1476 0.930 . S
C1489 C1484 1.415 . S
C1489 C1488 1.387 . S
H1490 C1498 0.930 . S
H1491 C1501 0.930 . S
H1492 C1503 0.930 . S
H1493 C1504 0.970 . S
H1494 C1504 0.970 . S
H1495 C1506 0.930 . S
H1496 C1508 0.930 . S
H1497 C1510 0.930 . S
C1498 H1490 0.930 . S
C1498 C1499 1.382 . S
C1498 C1500 1.426 . S
C1499 C1498 1.382 . S
C1499 C1503 1.389 . S
C1500 C1498 1.426 . S
C1500 C1501 1.375 . S
C1500 C1504 1.532 1_655 S
C1501 H1491 0.930 . S
C1501 C1500 1.375 . S
C1501 C1502 1.416 . S
C1502 C1501 1.416 . S
C1502 C1503 1.371 . S
C1503 H1492 0.930 . S
C1503 C1499 1.389 . S
C1503 C1502 1.371 . S
C1504 H1493 0.970 . S
C1504 H1494 0.970 . S
C1504 C1500 1.532 1_455 S
C1504 C1505 1.499 . S
C1505 C1504 1.499 . S
C1505 C1506 1.370 . S
C1505 C1510 1.415 . S
C1506 H1495 0.930 . S
C1506 C1505 1.370 . S
C1506 C1507 1.407 . S
C1507 C1506 1.407 . S
C1507 C1508 1.365 . S
C1508 H1496 0.930 . S
C1508 C1507 1.365 . S
C1508 C1509 1.393 . S
C1509 C1508 1.393 . S
C1509 C1510 1.387 . S
C1510 H1497 0.930 . S
C1510 C1505 1.415 . S
C1510 C1509 1.387 . S
H1511 C1519 0.930 . S
H1512 C1522 0.930 . S
H1513 C1524 0.930 . S
H1514 C1525 0.970 . S
H1515 C1525 0.970 . S
H1516 C1527 0.930 . S
H1517 C1529 0.930 . S
H1518 C1531 0.930 . S
C1519 H1511 0.930 . S
C1519 C1520 1.382 . S
C1519 C1521 1.426 . S
C1520 C1519 1.382 . S
C1520 C1524 1.389 . S
C1521 C1519 1.426 . S
C1521 C1522 1.375 . S
C1521 C1525 1.532 1_565 S
C1522 H1512 0.930 . S
C1522 C1521 1.375 . S
C1522 C1523 1.416 . S
C1523 C1522 1.416 . S
C1523 C1524 1.371 . S
C1524 H1513 0.930 . S
C1524 C1520 1.389 . S
C1524 C1523 1.371 . S
C1525 H1514 0.970 . S
C1525 H1515 0.970 . S
C1525 C1521 1.532 1_545 S
C1525 C1526 1.499 . S
C1526 C1525 1.499 . S
C1526 C1527 1.370 . S
C1526 C1531 1.415 . S
C1527 H1516 0.930 . S
C1527 C1526 1.370 . S
C1527 C1528 1.407 . S
C1528 C1527 1.407 . S
C1528 C1529 1.365 . S
C1529 H1517 0.930 . S
C1529 C1528 1.365 . S
C1529 C1530 1.393 . S
C1530 C1529 1.393 . S
C1530 C1531 1.387 . S
C1531 H1518 0.930 . S
C1531 C1526 1.415 . S
C1531 C1530 1.387 . S
H1532 C1540 0.930 . S
H1533 C1543 0.930 . S
H1534 C1545 0.930 . S
H1535 C1546 0.970 . S
H1536 C1546 0.970 . S
H1537 C1548 0.930 . S
H1538 C1550 0.930 . S
H1539 C1552 0.930 . S
C1540 H1532 0.930 . S
C1540 C1541 1.382 . S
C1540 C1542 1.426 . S
C1541 C1540 1.382 . S
C1541 C1545 1.389 . S
C1542 C1540 1.426 . S
C1542 C1543 1.375 . S
C1542 C1546 1.532 . S
C1543 H1533 0.930 . S
C1543 C1542 1.375 . S
C1543 C1544 1.416 . S
C1544 C1543 1.416 . S
C1544 C1545 1.371 . S
C1545 H1534 0.930 . S
C1545 C1541 1.389 . S
C1545 C1544 1.371 . S
C1546 H1535 0.970 . S
C1546 H1536 0.970 . S
C1546 C1542 1.532 . S
C1546 C1547 1.499 . S
C1547 C1546 1.499 . S
C1547 C1548 1.370 . S
C1547 C1552 1.415 . S
C1548 H1537 0.930 . S
C1548 C1547 1.370 . S
C1548 C1549 1.407 . S
C1549 C1548 1.407 . S
C1549 C1550 1.365 . S
C1550 H1538 0.930 . S
C1550 C1549 1.365 . S
C1550 C1551 1.393 . S
C1551 C1550 1.393 . S
C1551 C1552 1.387 . S
C1552 H1539 0.930 . S
C1552 C1547 1.415 . S
C1552 C1551 1.387 . S
H1553 C1561 0.930 . S
H1554 C1564 0.930 . S
H1555 C1566 0.930 . S
H1556 C1567 0.970 . S
H1557 C1567 0.970 . S
H1558 C1569 0.930 . S
H1559 C1571 0.930 . S
H1560 C1573 0.930 . S
C1561 H1553 0.930 . S
C1561 C1562 1.382 . S
C1561 C1563 1.426 . S
C1562 C1561 1.382 . S
C1562 C1566 1.389 . S
C1563 C1561 1.426 . S
C1563 C1564 1.375 . S
C1563 C1567 1.532 . S
C1564 H1554 0.930 . S
C1564 C1563 1.375 . S
C1564 C1565 1.416 . S
C1565 C1564 1.416 . S
C1565 C1566 1.371 . S
C1566 H1555 0.930 . S
C1566 C1562 1.389 . S
C1566 C1565 1.371 . S
C1567 H1556 0.970 . S
C1567 H1557 0.970 . S
C1567 C1563 1.532 . S
C1567 C1568 1.499 . S
C1568 C1567 1.499 . S
C1568 C1569 1.370 . S
C1568 C1573 1.415 . S
C1569 H1558 0.930 . S
C1569 C1568 1.370 . S
C1569 C1570 1.407 . S
C1570 C1569 1.407 . S
C1570 C1571 1.365 . S
C1571 H1559 0.930 . S
C1571 C1570 1.365 . S
C1571 C1572 1.393 . S
C1572 C1571 1.393 . S
C1572 C1573 1.387 . S
C1573 H1560 0.930 . S
C1573 C1568 1.415 . S
C1573 C1572 1.387 . S
H1574 C1582 0.930 . S
H1575 C1585 0.930 . S
H1576 C1587 0.930 . S
H1577 C1588 0.970 . S
H1578 C1588 0.970 . S
H1579 C1590 0.930 . S
H1580 C1592 0.930 . S
H1581 C1594 0.930 . S
C1582 H1574 0.930 . S
C1582 C1583 1.382 . S
C1582 C1584 1.426 . S
C1583 C1582 1.382 . S
C1583 C1587 1.389 . S
C1584 C1582 1.426 . S
C1584 C1585 1.375 . S
C1584 C1588 1.532 . S
C1585 H1575 0.930 . S
C1585 C1584 1.375 . S
C1585 C1586 1.416 . S
C1586 C1585 1.416 . S
C1586 C1587 1.371 . S
C1587 H1576 0.930 . S
C1587 C1583 1.389 . S
C1587 C1586 1.371 . S
C1588 H1577 0.970 . S
C1588 H1578 0.970 . S
C1588 C1584 1.532 . S
C1588 C1589 1.499 . S
C1589 C1588 1.499 . S
C1589 C1590 1.370 . S
C1589 C1594 1.415 . S
C1590 H1579 0.930 . S
C1590 C1589 1.370 . S
C1590 C1591 1.407 . S
C1591 C1590 1.407 . S
C1591 C1592 1.365 . S
C1592 H1580 0.930 . S
C1592 C1591 1.365 . S
C1592 C1593 1.393 . S
C1593 C1592 1.393 . S
C1593 C1594 1.387 . S
C1594 H1581 0.930 . S
C1594 C1589 1.415 . S
C1594 C1593 1.387 . S
H1595 C1603 0.930 . S
H1596 C1606 0.930 . S
H1597 C1608 0.930 . S
H1598 C1609 0.970 . S
H1599 C1609 0.970 . S
H1600 C1611 0.930 . S
H1601 C1613 0.930 . S
H1602 C1615 0.930 . S
C1603 H1595 0.930 . S
C1603 C1604 1.382 . S
C1603 C1605 1.426 . S
C1604 C1603 1.382 . S
C1604 C1608 1.389 . S
C1605 C1603 1.426 . S
C1605 C1606 1.375 . S
C1605 C1609 1.532 . S
C1606 H1596 0.930 . S
C1606 C1605 1.375 . S
C1606 C1607 1.416 . S
C1607 C1606 1.416 . S
C1607 C1608 1.371 . S
C1608 H1597 0.930 . S
C1608 C1604 1.389 . S
C1608 C1607 1.371 . S
C1609 H1598 0.970 . S
C1609 H1599 0.970 . S
C1609 C1605 1.532 . S
C1609 C1610 1.499 . S
C1610 C1609 1.499 . S
C1610 C1611 1.370 . S
C1610 C1615 1.415 . S
C1611 H1600 0.930 . S
C1611 C1610 1.370 . S
C1611 C1612 1.407 . S
C1612 C1611 1.407 . S
C1612 C1613 1.365 . S
C1613 H1601 0.930 . S
C1613 C1612 1.365 . S
C1613 C1614 1.393 . S
C1614 C1613 1.393 . S
C1614 C1615 1.387 . S
C1615 H1602 0.930 . S
C1615 C1610 1.415 . S
C1615 C1614 1.387 . S
H1616 C1624 0.930 . S
H1617 C1627 0.930 . S
H1618 C1629 0.930 . S
H1619 C1630 0.970 . S
H1620 C1630 0.970 . S
H1621 C1632 0.930 . S
H1622 C1634 0.930 . S
H1623 C1636 0.930 . S
C1624 H1616 0.930 . S
C1624 C1625 1.382 . S
C1624 C1626 1.426 . S
C1625 C1624 1.382 . S
C1625 C1629 1.389 . S
C1626 C1624 1.426 . S
C1626 C1627 1.375 . S
C1626 C1630 1.532 . S
C1627 H1617 0.930 . S
C1627 C1626 1.375 . S
C1627 C1628 1.416 . S
C1628 C1627 1.416 . S
C1628 C1629 1.371 . S
C1629 H1618 0.930 . S
C1629 C1625 1.389 . S
C1629 C1628 1.371 . S
C1630 H1619 0.970 . S
C1630 H1620 0.970 . S
C1630 C1626 1.532 . S
C1630 C1631 1.499 . S
C1631 C1630 1.499 . S
C1631 C1632 1.370 . S
C1631 C1636 1.415 . S
C1632 H1621 0.930 . S
C1632 C1631 1.370 . S
C1632 C1633 1.407 . S
C1633 C1632 1.407 . S
C1633 C1634 1.365 . S
C1634 H1622 0.930 . S
C1634 C1633 1.365 . S
C1634 C1635 1.393 . S
C1635 C1634 1.393 . S
C1635 C1636 1.387 . S
C1636 H1623 0.930 . S
C1636 C1631 1.415 . S
C1636 C1635 1.387 . S
H1637 C1645 0.930 . S
H1638 C1648 0.930 . S
H1639 C1650 0.930 . S
H1640 C1651 0.970 . S
H1641 C1651 0.970 . S
H1642 C1653 0.930 . S
H1643 C1655 0.930 . S
H1644 C1657 0.930 . S
C1645 H1637 0.930 . S
C1645 C1646 1.382 . S
C1645 C1647 1.426 . S
C1646 C1645 1.382 . S
C1646 C1650 1.389 . S
C1647 C1645 1.426 . S
C1647 C1648 1.375 . S
C1647 C1651 1.532 . S
C1648 H1638 0.930 . S
C1648 C1647 1.375 . S
C1648 C1649 1.416 . S
C1649 C1648 1.416 . S
C1649 C1650 1.371 . S
C1650 H1639 0.930 . S
C1650 C1646 1.389 . S
C1650 C1649 1.371 . S
C1651 H1640 0.970 . S
C1651 H1641 0.970 . S
C1651 C1647 1.532 . S
C1651 C1652 1.499 . S
C1652 C1651 1.499 . S
C1652 C1653 1.370 . S
C1652 C1657 1.415 . S
C1653 H1642 0.930 . S
C1653 C1652 1.370 . S
C1653 C1654 1.407 . S
C1654 C1653 1.407 . S
C1654 C1655 1.365 . S
C1655 H1643 0.930 . S
C1655 C1654 1.365 . S
C1655 C1656 1.393 . S
C1656 C1655 1.393 . S
C1656 C1657 1.387 . S
C1657 H1644 0.930 . S
C1657 C1652 1.415 . S
C1657 C1656 1.387 . S
H1658 C1666 0.930 . S
H1659 C1669 0.930 . S
H1660 C1671 0.930 . S
H1661 C1672 0.970 . S
H1662 C1672 0.970 . S
H1663 C1674 0.930 . S
H1664 C1676 0.930 . S
H1665 C1678 0.930 . S
C1666 H1658 0.930 . S
C1666 C1667 1.382 . S
C1666 C1668 1.426 . S
C1667 C1666 1.382 . S
C1667 C1671 1.389 . S
C1668 C1666 1.426 . S
C1668 C1669 1.375 . S
C1668 C1672 1.532 . S
C1669 H1659 0.930 . S
C1669 C1668 1.375 . S
C1669 C1670 1.416 . S
C1670 C1669 1.416 . S
C1670 C1671 1.371 . S
C1671 H1660 0.930 . S
C1671 C1667 1.389 . S
C1671 C1670 1.371 . S
C1672 H1661 0.970 . S
C1672 H1662 0.970 . S
C1672 C1668 1.532 . S
C1672 C1673 1.499 . S
C1673 C1672 1.499 . S
C1673 C1674 1.370 . S
C1673 C1678 1.415 . S
C1674 H1663 0.930 . S
C1674 C1673 1.370 . S
C1674 C1675 1.407 . S
C1675 C1674 1.407 . S
C1675 C1676 1.365 . S
C1676 H1664 0.930 . S
C1676 C1675 1.365 . S
C1676 C1677 1.393 . S
C1677 C1676 1.393 . S
C1677 C1678 1.387 . S
C1678 H1665 0.930 . S
C1678 C1673 1.415 . S
C1678 C1677 1.387 . S
H1679 C1687 0.930 . S
H1680 C1690 0.930 . S
H1681 C1692 0.930 . S
H1682 C1693 0.970 . S
H1683 C1693 0.970 . S
H1684 C1695 0.930 . S
H1685 C1697 0.930 . S
H1686 C1699 0.930 . S
C1687 H1679 0.930 . S
C1687 C1688 1.382 . S
C1687 C1689 1.426 . S
C1688 C1687 1.382 . S
C1688 C1692 1.389 . S
C1689 C1687 1.426 . S
C1689 C1690 1.375 . S
C1689 C1693 1.532 . S
C1690 H1680 0.930 . S
C1690 C1689 1.375 . S
C1690 C1691 1.416 . S
C1691 C1690 1.416 . S
C1691 C1692 1.371 . S
C1692 H1681 0.930 . S
C1692 C1688 1.389 . S
C1692 C1691 1.371 . S
C1693 H1682 0.970 . S
C1693 H1683 0.970 . S
C1693 C1689 1.532 . S
C1693 C1694 1.499 . S
C1694 C1693 1.499 . S
C1694 C1695 1.370 . S
C1694 C1699 1.415 . S
C1695 H1684 0.930 . S
C1695 C1694 1.370 . S
C1695 C1696 1.407 . S
C1696 C1695 1.407 . S
C1696 C1697 1.365 . S
C1697 H1685 0.930 . S
C1697 C1696 1.365 . S
C1697 C1698 1.393 . S
C1698 C1697 1.393 . S
C1698 C1699 1.387 . S
C1699 H1686 0.930 . S
C1699 C1694 1.415 . S
C1699 C1698 1.387 . S
H1700 C1708 0.930 . S
H1701 C1711 0.930 . S
H1702 C1713 0.930 . S
H1703 C1714 0.970 . S
H1704 C1714 0.970 . S
H1705 C1716 0.930 . S
H1706 C1718 0.930 . S
H1707 C1720 0.930 . S
C1708 H1700 0.930 . S
C1708 C1709 1.382 . S
C1708 C1710 1.426 . S
C1709 C1708 1.382 . S
C1709 C1713 1.389 . S
C1710 C1708 1.426 . S
C1710 C1711 1.375 . S
C1710 C1714 1.532 . S
C1711 H1701 0.930 . S
C1711 C1710 1.375 . S
C1711 C1712 1.416 . S
C1712 C1711 1.416 . S
C1712 C1713 1.371 . S
C1713 H1702 0.930 . S
C1713 C1709 1.389 . S
C1713 C1712 1.371 . S
C1714 H1703 0.970 . S
C1714 H1704 0.970 . S
C1714 C1710 1.532 . S
C1714 C1715 1.499 . S
C1715 C1714 1.499 . S
C1715 C1716 1.370 . S
C1715 C1720 1.415 . S
C1716 H1705 0.930 . S
C1716 C1715 1.370 . S
C1716 C1717 1.407 . S
C1717 C1716 1.407 . S
C1717 C1718 1.365 . S
C1718 H1706 0.930 . S
C1718 C1717 1.365 . S
C1718 C1719 1.393 . S
C1719 C1718 1.393 . S
C1719 C1720 1.387 . S
C1720 H1707 0.930 . S
C1720 C1715 1.415 . S
C1720 C1719 1.387 . S
H1721 C1729 0.930 . S
H1722 C1732 0.930 . S
H1723 C1734 0.930 . S
H1724 C1735 0.970 . S
H1725 C1735 0.970 . S
H1726 C1737 0.930 . S
H1727 C1739 0.930 . S
H1728 C1741 0.930 . S
C1729 H1721 0.930 . S
C1729 C1730 1.382 . S
C1729 C1731 1.426 . S
C1730 C1729 1.382 . S
C1730 C1734 1.389 . S
C1731 C1729 1.426 . S
C1731 C1732 1.375 . S
C1731 C1735 1.532 . S
C1732 H1722 0.930 . S
C1732 C1731 1.375 . S
C1732 C1733 1.416 . S
C1733 C1732 1.416 . S
C1733 C1734 1.371 . S
C1734 H1723 0.930 . S
C1734 C1730 1.389 . S
C1734 C1733 1.371 . S
C1735 H1724 0.970 . S
C1735 H1725 0.970 . S
C1735 C1731 1.532 . S
C1735 C1736 1.499 . S
C1736 C1735 1.499 . S
C1736 C1737 1.370 . S
C1736 C1741 1.415 . S
C1737 H1726 0.930 . S
C1737 C1736 1.370 . S
C1737 C1738 1.407 . S
C1738 C1737 1.407 . S
C1738 C1739 1.365 . S
C1739 H1727 0.930 . S
C1739 C1738 1.365 . S
C1739 C1740 1.393 . S
C1740 C1739 1.393 . S
C1740 C1741 1.387 . S
C1741 H1728 0.930 . S
C1741 C1736 1.415 . S
C1741 C1740 1.387 . S
H1742 C1750 0.930 . S
H1743 C1753 0.930 . S
H1744 C1755 0.930 . S
H1745 C1756 0.970 . S
H1746 C1756 0.970 . S
H1747 C1758 0.930 . S
H1748 C1760 0.930 . S
H1749 C1762 0.930 . S
C1750 H1742 0.930 . S
C1750 C1751 1.382 . S
C1750 C1752 1.426 . S
C1751 C1750 1.382 . S
C1751 C1755 1.389 . S
C1752 C1750 1.426 . S
C1752 C1753 1.375 . S
C1752 C1756 1.532 . S
C1753 H1743 0.930 . S
C1753 C1752 1.375 . S
C1753 C1754 1.416 . S
C1754 C1753 1.416 . S
C1754 C1755 1.371 . S
C1755 H1744 0.930 . S
C1755 C1751 1.389 . S
C1755 C1754 1.371 . S
C1756 H1745 0.970 . S
C1756 H1746 0.970 . S
C1756 C1752 1.532 . S
C1756 C1757 1.499 . S
C1757 C1756 1.499 . S
C1757 C1758 1.370 . S
C1757 C1762 1.415 . S
C1758 H1747 0.930 . S
C1758 C1757 1.370 . S
C1758 C1759 1.407 . S
C1759 C1758 1.407 . S
C1759 C1760 1.365 . S
C1760 H1748 0.930 . S
C1760 C1759 1.365 . S
C1760 C1761 1.393 . S
C1761 C1760 1.393 . S
C1761 C1762 1.387 . S
C1762 H1749 0.930 . S
C1762 C1757 1.415 . S
C1762 C1761 1.387 . S
H1763 C1771 0.930 . S
H1764 C1774 0.930 . S
H1765 C1776 0.930 . S
H1766 C1777 0.970 . S
H1767 C1777 0.970 . S
H1768 C1779 0.930 . S
H1769 C1781 0.930 . S
H1770 C1783 0.930 . S
C1771 H1763 0.930 . S
C1771 C1772 1.382 . S
C1771 C1773 1.426 . S
C1772 C1771 1.382 . S
C1772 C1776 1.389 . S
C1773 C1771 1.426 . S
C1773 C1774 1.375 . S
C1773 C1777 1.532 . S
C1774 H1764 0.930 . S
C1774 C1773 1.375 . S
C1774 C1775 1.416 . S
C1775 C1774 1.416 . S
C1775 C1776 1.371 . S
C1776 H1765 0.930 . S
C1776 C1772 1.389 . S
C1776 C1775 1.371 . S
C1777 H1766 0.970 . S
C1777 H1767 0.970 . S
C1777 C1773 1.532 . S
C1777 C1778 1.499 . S
C1778 C1777 1.499 . S
C1778 C1779 1.370 . S
C1778 C1783 1.415 . S
C1779 H1768 0.930 . S
C1779 C1778 1.370 . S
C1779 C1780 1.407 . S
C1780 C1779 1.407 . S
C1780 C1781 1.365 . S
C1781 H1769 0.930 . S
C1781 C1780 1.365 . S
C1781 C1782 1.393 . S
C1782 C1781 1.393 . S
C1782 C1783 1.387 . S
C1783 H1770 0.930 . S
C1783 C1778 1.415 . S
C1783 C1782 1.387 . S
C1784 C1785 1.369 . S
C1784 C1786 1.419 . S
C1784 H1788 0.930 . S
C1785 C1784 1.369 . S
C1785 C1794 1.429 . S
C1786 C1784 1.419 . S
C1786 C1787 1.363 . S
C1786 H1789 0.929 . S
C1787 C1786 1.363 . S
C1787 C1793 1.428 . S
H1788 C1784 0.930 . S
H1789 C1786 0.929 . S
S1790 N1791 1.613 . S
S1790 N1792 1.610 . S
N1791 S1790 1.613 . S
N1791 C1794 1.350 . S
N1792 S1790 1.610 . S
N1792 C1793 1.351 . S
C1793 C1787 1.428 . S
C1793 N1792 1.351 . S
C1793 C1794 1.434 . S
C1794 C1785 1.429 . S
C1794 N1791 1.350 . S
C1794 C1793 1.434 . S
C1795 C1796 1.369 . S
C1795 C1797 1.419 . S
C1795 H1799 0.930 . S
C1796 C1795 1.369 . S
C1796 C1805 1.429 . S
C1797 C1795 1.419 . S
C1797 C1798 1.363 . S
C1797 H1800 0.929 . S
C1798 C1797 1.363 . S
C1798 C1804 1.428 . S
H1799 C1795 0.930 . S
H1800 C1797 0.929 . S
S1801 N1802 1.613 . S
S1801 N1803 1.610 . S
N1802 S1801 1.613 . S
N1802 C1805 1.350 . S
N1803 S1801 1.610 . S
N1803 C1804 1.351 . S
C1804 C1798 1.428 . S
C1804 N1803 1.351 . S
C1804 C1805 1.434 . S
C1805 C1796 1.429 . S
C1805 N1802 1.350 . S
C1805 C1804 1.434 . S
C1806 C1807 1.369 . S
C1806 C1808 1.419 . S
C1806 H1810 0.930 . S
C1807 C1806 1.369 . S
C1807 C1816 1.429 . S
C1808 C1806 1.419 . S
C1808 C1809 1.363 . S
C1808 H1811 0.929 . S
C1809 C1808 1.363 . S
C1809 C1815 1.428 . S
H1810 C1806 0.930 . S
H1811 C1808 0.929 . S
S1812 N1813 1.613 . S
S1812 N1814 1.610 . S
N1813 S1812 1.613 . S
N1813 C1816 1.350 . S
N1814 S1812 1.610 . S
N1814 C1815 1.351 . S
C1815 C1809 1.428 . S
C1815 N1814 1.351 . S
C1815 C1816 1.434 . S
C1816 C1807 1.429 . S
C1816 N1813 1.350 . S
C1816 C1815 1.434 . S
C1817 C1818 1.369 . S
C1817 C1819 1.419 . S
C1817 H1821 0.930 . S
C1818 C1817 1.369 . S
C1818 C1827 1.429 . S
C1819 C1817 1.419 . S
C1819 C1820 1.363 . S
C1819 H1822 0.929 . S
C1820 C1819 1.363 . S
C1820 C1826 1.428 . S
H1821 C1817 0.930 . S
H1822 C1819 0.929 . S
S1823 N1824 1.613 . S
S1823 N1825 1.610 . S
N1824 S1823 1.613 . S
N1824 C1827 1.350 . S
N1825 S1823 1.610 . S
N1825 C1826 1.351 . S
C1826 C1820 1.428 . S
C1826 N1825 1.351 . S
C1826 C1827 1.434 . S
C1827 C1818 1.429 . S
C1827 N1824 1.350 . S
C1827 C1826 1.434 . S
C1828 C1829 1.369 . S
C1828 C1830 1.419 . S
C1828 H1832 0.930 . S
C1829 C1828 1.369 . S
C1829 C1838 1.429 . S
C1830 C1828 1.419 . S
C1830 C1831 1.363 . S
C1830 H1833 0.929 . S
C1831 C1830 1.363 . S
C1831 C1837 1.428 . S
H1832 C1828 0.930 . S
H1833 C1830 0.929 . S
S1834 N1835 1.613 . S
S1834 N1836 1.610 . S
N1835 S1834 1.613 . S
N1835 C1838 1.350 . S
N1836 S1834 1.610 . S
N1836 C1837 1.351 . S
C1837 C1831 1.428 . S
C1837 N1836 1.351 . S
C1837 C1838 1.434 . S
C1838 C1829 1.429 . S
C1838 N1835 1.350 . S
C1838 C1837 1.434 . S
C1839 C1840 1.369 . S
C1839 C1841 1.419 . S
C1839 H1843 0.930 . S
C1840 C1839 1.369 . S
C1840 C1849 1.429 . S
C1841 C1839 1.419 . S
C1841 C1842 1.363 . S
C1841 H1844 0.929 . S
C1842 C1841 1.363 . S
C1842 C1848 1.428 . S
H1843 C1839 0.930 . S
H1844 C1841 0.929 . S
S1845 N1846 1.613 . S
S1845 N1847 1.610 . S
N1846 S1845 1.613 . S
N1846 C1849 1.350 . S
N1847 S1845 1.610 . S
N1847 C1848 1.351 . S
C1848 C1842 1.428 . S
C1848 N1847 1.351 . S
C1848 C1849 1.434 . S
C1849 C1840 1.429 . S
C1849 N1846 1.350 . S
C1849 C1848 1.434 . S
C1850 C1851 1.369 . S
C1850 C1852 1.419 . S
C1850 H1854 0.930 . S
C1851 C1850 1.369 . S
C1851 C1860 1.429 . S
C1852 C1850 1.419 . S
C1852 C1853 1.363 . S
C1852 H1855 0.929 . S
C1853 C1852 1.363 . S
C1853 C1859 1.428 . S
H1854 C1850 0.930 . S
H1855 C1852 0.929 . S
S1856 N1857 1.613 . S
S1856 N1858 1.610 . S
N1857 S1856 1.613 . S
N1857 C1860 1.350 . S
N1858 S1856 1.610 . S
N1858 C1859 1.351 . S
C1859 C1853 1.428 . S
C1859 N1858 1.351 . S
C1859 C1860 1.434 . S
C1860 C1851 1.429 . S
C1860 N1857 1.350 . S
C1860 C1859 1.434 . S
C1861 C1862 1.369 . S
C1861 C1863 1.419 . S
C1861 H1865 0.930 . S
C1862 C1861 1.369 . S
C1862 C1871 1.429 . S
C1863 C1861 1.419 . S
C1863 C1864 1.363 . S
C1863 H1866 0.929 . S
C1864 C1863 1.363 . S
C1864 C1870 1.428 . S
H1865 C1861 0.930 . S
H1866 C1863 0.929 . S
S1867 N1868 1.613 . S
S1867 N1869 1.610 . S
N1868 S1867 1.613 . S
N1868 C1871 1.350 . S
N1869 S1867 1.610 . S
N1869 C1870 1.351 . S
C1870 C1864 1.428 . S
C1870 N1869 1.351 . S
C1870 C1871 1.434 . S
C1871 C1862 1.429 . S
C1871 N1868 1.350 . S
C1871 C1870 1.434 . S
C1872 C1873 1.369 . S
C1872 C1874 1.419 . S
C1872 H1876 0.930 . S
C1873 C1872 1.369 . S
C1873 C1882 1.429 . S
C1874 C1872 1.419 . S
C1874 C1875 1.363 . S
C1874 H1877 0.929 . S
C1875 C1874 1.363 . S
C1875 C1881 1.428 . S
H1876 C1872 0.930 . S
H1877 C1874 0.929 . S
S1878 N1879 1.613 . S
S1878 N1880 1.610 . S
N1879 S1878 1.613 . S
N1879 C1882 1.350 . S
N1880 S1878 1.610 . S
N1880 C1881 1.351 . S
C1881 C1875 1.428 . S
C1881 N1880 1.351 . S
C1881 C1882 1.434 . S
C1882 C1873 1.429 . S
C1882 N1879 1.350 . S
C1882 C1881 1.434 . S
C1883 C1884 1.369 . S
C1883 C1885 1.419 . S
C1883 H1887 0.930 . S
C1884 C1883 1.369 . S
C1884 C1893 1.429 . S
C1885 C1883 1.419 . S
C1885 C1886 1.363 . S
C1885 H1888 0.929 . S
C1886 C1885 1.363 . S
C1886 C1892 1.428 . S
H1887 C1883 0.930 . S
H1888 C1885 0.929 . S
S1889 N1890 1.613 . S
S1889 N1891 1.610 . S
N1890 S1889 1.613 . S
N1890 C1893 1.350 . S
N1891 S1889 1.610 . S
N1891 C1892 1.351 . S
C1892 C1886 1.428 . S
C1892 N1891 1.351 . S
C1892 C1893 1.434 . S
C1893 C1884 1.429 . S
C1893 N1890 1.350 . S
C1893 C1892 1.434 . S
C1894 C1895 1.369 . S
C1894 C1896 1.419 . S
C1894 H1898 0.930 . S
C1895 C1894 1.369 . S
C1895 C1904 1.429 . S
C1896 C1894 1.419 . S
C1896 C1897 1.363 . S
C1896 H1899 0.929 . S
C1897 C1896 1.363 . S
C1897 C1903 1.428 . S
H1898 C1894 0.930 . S
H1899 C1896 0.929 . S
S1900 N1901 1.613 . S
S1900 N1902 1.610 . S
N1901 S1900 1.613 . S
N1901 C1904 1.350 . S
N1902 S1900 1.610 . S
N1902 C1903 1.351 . S
C1903 C1897 1.428 . S
C1903 N1902 1.351 . S
C1903 C1904 1.434 . S
C1904 C1895 1.429 . S
C1904 N1901 1.350 . S
C1904 C1903 1.434 . S
C1905 C1906 1.369 . S
C1905 C1907 1.419 . S
C1905 H1909 0.930 . S
C1906 C1905 1.369 . S
C1906 C1915 1.429 . S
C1907 C1905 1.419 . S
C1907 C1908 1.363 . S
C1907 H1910 0.929 . S
C1908 C1907 1.363 . S
C1908 C1914 1.428 . S
H1909 C1905 0.930 . S
H1910 C1907 0.929 . S
S1911 N1912 1.613 . S
S1911 N1913 1.610 . S
N1912 S1911 1.613 . S
N1912 C1915 1.350 . S
N1913 S1911 1.610 . S
N1913 C1914 1.351 . S
C1914 C1908 1.428 . S
C1914 N1913 1.351 . S
C1914 C1915 1.434 . S
C1915 C1906 1.429 . S
C1915 N1912 1.350 . S
C1915 C1914 1.434 . S
C1916 C1917 1.369 . S
C1916 C1918 1.419 . S
C1916 H1920 0.930 . S
C1917 C1916 1.369 . S
C1917 C1926 1.429 . S
C1918 C1916 1.419 . S
C1918 C1919 1.363 . S
C1918 H1921 0.929 . S
C1919 C1918 1.363 . S
C1919 C1925 1.428 . S
H1920 C1916 0.930 . S
H1921 C1918 0.929 . S
S1922 N1923 1.613 . S
S1922 N1924 1.610 . S
N1923 S1922 1.613 . S
N1923 C1926 1.350 . S
N1924 S1922 1.610 . S
N1924 C1925 1.351 . S
C1925 C1919 1.428 . S
C1925 N1924 1.351 . S
C1925 C1926 1.434 . S
C1926 C1917 1.429 . S
C1926 N1923 1.350 . S
C1926 C1925 1.434 . S
C1927 C1928 1.369 . S
C1927 C1929 1.419 . S
C1927 H1931 0.930 . S
C1928 C1927 1.369 . S
C1928 C1937 1.429 . S
C1929 C1927 1.419 . S
C1929 C1930 1.363 . S
C1929 H1932 0.929 . S
C1930 C1929 1.363 . S
C1930 C1936 1.428 . S
H1931 C1927 0.930 . S
H1932 C1929 0.929 . S
S1933 N1934 1.613 . S
S1933 N1935 1.610 . S
N1934 S1933 1.613 . S
N1934 C1937 1.350 . S
N1935 S1933 1.610 . S
N1935 C1936 1.351 . S
C1936 C1930 1.428 . S
C1936 N1935 1.351 . S
C1936 C1937 1.434 . S
C1937 C1928 1.429 . S
C1937 N1934 1.350 . S
C1937 C1936 1.434 . S
C1938 C1939 1.369 . S
C1938 C1940 1.419 . S
C1938 H1942 0.930 . S
C1939 C1938 1.369 . S
C1939 C1948 1.429 . S
C1940 C1938 1.419 . S
C1940 C1941 1.363 . S
C1940 H1943 0.929 . S
C1941 C1940 1.363 . S
C1941 C1947 1.428 . S
H1942 C1938 0.930 . S
H1943 C1940 0.929 . S
S1944 N1945 1.613 . S
S1944 N1946 1.610 . S
N1945 S1944 1.613 . S
N1945 C1948 1.350 . S
N1946 S1944 1.610 . S
N1946 C1947 1.351 . S
C1947 C1941 1.428 . S
C1947 N1946 1.351 . S
C1947 C1948 1.434 . S
C1948 C1939 1.429 . S
C1948 N1945 1.350 . S
C1948 C1947 1.434 . S
C1949 C1950 1.369 . S
C1949 C1951 1.419 . S
C1949 H1953 0.930 . S
C1950 C1949 1.369 . S
C1950 C1959 1.429 . S
C1951 C1949 1.419 . S
C1951 C1952 1.363 . S
C1951 H1954 0.929 . S
C1952 C1951 1.363 . S
C1952 C1958 1.428 . S
H1953 C1949 0.930 . S
H1954 C1951 0.929 . S
S1955 N1956 1.613 . S
S1955 N1957 1.610 . S
N1956 S1955 1.613 . S
N1956 C1959 1.350 . S
N1957 S1955 1.610 . S
N1957 C1958 1.351 . S
C1958 C1952 1.428 . S
C1958 N1957 1.351 . S
C1958 C1959 1.434 . S
C1959 C1950 1.429 . S
C1959 N1956 1.350 . S
C1959 C1958 1.434 . S
C1960 C1961 1.369 . S
C1960 C1962 1.419 . S
C1960 H1964 0.930 . S
C1961 C1960 1.369 . S
C1961 C1970 1.429 . S
C1962 C1960 1.419 . S
C1962 C1963 1.363 . S
C1962 H1965 0.929 . S
C1963 C1962 1.363 . S
C1963 C1969 1.428 . S
H1964 C1960 0.930 . S
H1965 C1962 0.929 . S
S1966 N1967 1.613 . S
S1966 N1968 1.610 . S
N1967 S1966 1.613 . S
N1967 C1970 1.350 . S
N1968 S1966 1.610 . S
N1968 C1969 1.351 . S
C1969 C1963 1.428 . S
C1969 N1968 1.351 . S
C1969 C1970 1.434 . S
C1970 C1961 1.429 . S
C1970 N1967 1.350 . S
C1970 C1969 1.434 . S
C1971 C1972 1.369 . S
C1971 C1973 1.419 . S
C1971 H1975 0.930 . S
C1972 C1971 1.369 . S
C1972 C1981 1.429 . S
C1973 C1971 1.419 . S
C1973 C1974 1.363 . S
C1973 H1976 0.929 . S
C1974 C1973 1.363 . S
C1974 C1980 1.428 . S
H1975 C1971 0.930 . S
H1976 C1973 0.929 . S
S1977 N1978 1.613 . S
S1977 N1979 1.610 . S
N1978 S1977 1.613 . S
N1978 C1981 1.350 . S
N1979 S1977 1.610 . S
N1979 C1980 1.351 . S
C1980 C1974 1.428 . S
C1980 N1979 1.351 . S
C1980 C1981 1.434 . S
C1981 C1972 1.429 . S
C1981 N1978 1.350 . S
C1981 C1980 1.434 . S
C1982 C1983 1.369 . S
C1982 C1984 1.419 . S
C1982 H1986 0.930 . S
C1983 C1982 1.369 . S
C1983 C1992 1.429 . S
C1984 C1982 1.419 . S
C1984 C1985 1.363 . S
C1984 H1987 0.929 . S
C1985 C1984 1.363 . S
C1985 C1991 1.428 . S
H1986 C1982 0.930 . S
H1987 C1984 0.929 . S
S1988 N1989 1.613 . S
S1988 N1990 1.610 . S
N1989 S1988 1.613 . S
N1989 C1992 1.350 . S
N1990 S1988 1.610 . S
N1990 C1991 1.351 . S
C1991 C1985 1.428 . S
C1991 N1990 1.351 . S
C1991 C1992 1.434 . S
C1992 C1983 1.429 . S
C1992 N1989 1.350 . S
C1992 C1991 1.434 . S
C1993 C1994 1.369 . S
C1993 C1995 1.419 . S
C1993 H1997 0.930 . S
C1994 C1993 1.369 . S
C1994 C2003 1.429 . S
C1995 C1993 1.419 . S
C1995 C1996 1.363 . S
C1995 H1998 0.929 . S
C1996 C1995 1.363 . S
C1996 C2002 1.428 . S
H1997 C1993 0.930 . S
H1998 C1995 0.929 . S
S1999 N2000 1.613 . S
S1999 N2001 1.610 . S
N2000 S1999 1.613 . S
N2000 C2003 1.350 . S
N2001 S1999 1.610 . S
N2001 C2002 1.351 . S
C2002 C1996 1.428 . S
C2002 N2001 1.351 . S
C2002 C2003 1.434 . S
C2003 C1994 1.429 . S
C2003 N2000 1.350 . S
C2003 C2002 1.434 . S
C2004 C2005 1.369 . S
C2004 C2006 1.419 . S
C2004 H2008 0.930 . S
C2005 C2004 1.369 . S
C2005 C2014 1.429 . S
C2006 C2004 1.419 . S
C2006 C2007 1.363 . S
C2006 H2009 0.929 . S
C2007 C2006 1.363 . S
C2007 C2013 1.428 . S
H2008 C2004 0.930 . S
H2009 C2006 0.929 . S
S2010 N2011 1.613 . S
S2010 N2012 1.610 . S
N2011 S2010 1.613 . S
N2011 C2014 1.350 . S
N2012 S2010 1.610 . S
N2012 C2013 1.351 . S
C2013 C2007 1.428 . S
C2013 N2012 1.351 . S
C2013 C2014 1.434 . S
C2014 C2005 1.429 . S
C2014 N2011 1.350 . S
C2014 C2013 1.434 . S
C2015 C2016 1.369 . S
C2015 C2017 1.419 . S
C2015 H2019 0.930 . S
C2016 C2015 1.369 . S
C2016 C2025 1.429 . S
C2017 C2015 1.419 . S
C2017 C2018 1.363 . S
C2017 H2020 0.929 . S
C2018 C2017 1.363 . S
C2018 C2024 1.428 . S
H2019 C2015 0.930 . S
H2020 C2017 0.929 . S
S2021 N2022 1.613 . S
S2021 N2023 1.610 . S
N2022 S2021 1.613 . S
N2022 C2025 1.350 . S
N2023 S2021 1.610 . S
N2023 C2024 1.351 . S
C2024 C2018 1.428 . S
C2024 N2023 1.351 . S
C2024 C2025 1.434 . S
C2025 C2016 1.429 . S
C2025 N2022 1.350 . S
C2025 C2024 1.434 . S
C2026 C2027 1.369 . S
C2026 C2028 1.419 . S
C2026 H2030 0.930 . S
C2027 C2026 1.369 . S
C2027 C2036 1.429 . S
C2028 C2026 1.419 . S
C2028 C2029 1.363 . S
C2028 H2031 0.929 . S
C2029 C2028 1.363 . S
C2029 C2035 1.428 . S
H2030 C2026 0.930 . S
H2031 C2028 0.929 . S
S2032 N2033 1.613 . S
S2032 N2034 1.610 . S
N2033 S2032 1.613 . S
N2033 C2036 1.350 . S
N2034 S2032 1.610 . S
N2034 C2035 1.351 . S
C2035 C2029 1.428 . S
C2035 N2034 1.351 . S
C2035 C2036 1.434 . S
C2036 C2027 1.429 . S
C2036 N2033 1.350 . S
C2036 C2035 1.434 . S
C2037 C2038 1.369 . S
C2037 C2039 1.419 . S
C2037 H2041 0.930 . S
C2038 C2037 1.369 . S
C2038 C2047 1.429 . S
C2039 C2037 1.419 . S
C2039 C2040 1.363 . S
C2039 H2042 0.929 . S
C2040 C2039 1.363 . S
C2040 C2046 1.428 . S
H2041 C2037 0.930 . S
H2042 C2039 0.929 . S
S2043 N2044 1.613 . S
S2043 N2045 1.610 . S
N2044 S2043 1.613 . S
N2044 C2047 1.350 . S
N2045 S2043 1.610 . S
N2045 C2046 1.351 . S
C2046 C2040 1.428 . S
C2046 N2045 1.351 . S
C2046 C2047 1.434 . S
C2047 C2038 1.429 . S
C2047 N2044 1.350 . S
C2047 C2046 1.434 . S
C2048 C2049 1.369 . S
C2048 C2050 1.419 . S
C2048 H2052 0.930 . S
C2049 C2048 1.369 . S
C2049 C2058 1.429 . S
C2050 C2048 1.419 . S
C2050 C2051 1.363 . S
C2050 H2053 0.929 . S
C2051 C2050 1.363 . S
C2051 C2057 1.428 . S
H2052 C2048 0.930 . S
H2053 C2050 0.929 . S
S2054 N2055 1.613 . S
S2054 N2056 1.610 . S
N2055 S2054 1.613 . S
N2055 C2058 1.350 . S
N2056 S2054 1.610 . S
N2056 C2057 1.351 . S
C2057 C2051 1.428 . S
C2057 N2056 1.351 . S
C2057 C2058 1.434 . S
C2058 C2049 1.429 . S
C2058 N2055 1.350 . S
C2058 C2057 1.434 . S
C2059 C2060 1.369 . S
C2059 C2061 1.419 . S
C2059 H2063 0.930 . S
C2060 C2059 1.369 . S
C2060 C2069 1.429 . S
C2061 C2059 1.419 . S
C2061 C2062 1.363 . S
C2061 H2064 0.929 . S
C2062 C2061 1.363 . S
C2062 C2068 1.428 . S
H2063 C2059 0.930 . S
H2064 C2061 0.929 . S
S2065 N2066 1.613 . S
S2065 N2067 1.610 . S
N2066 S2065 1.613 . S
N2066 C2069 1.350 . S
N2067 S2065 1.610 . S
N2067 C2068 1.351 . S
C2068 C2062 1.428 . S
C2068 N2067 1.351 . S
C2068 C2069 1.434 . S
C2069 C2060 1.429 . S
C2069 N2066 1.350 . S
C2069 C2068 1.434 . S
C2070 C2071 1.369 . S
C2070 C2072 1.419 . S
C2070 H2074 0.930 . S
C2071 C2070 1.369 . S
C2071 C2080 1.429 . S
C2072 C2070 1.419 . S
C2072 C2073 1.363 . S
C2072 H2075 0.929 . S
C2073 C2072 1.363 . S
C2073 C2079 1.428 . S
H2074 C2070 0.930 . S
H2075 C2072 0.929 . S
S2076 N2077 1.613 . S
S2076 N2078 1.610 . S
N2077 S2076 1.613 . S
N2077 C2080 1.350 . S
N2078 S2076 1.610 . S
N2078 C2079 1.351 . S
C2079 C2073 1.428 . S
C2079 N2078 1.351 . S
C2079 C2080 1.434 . S
C2080 C2071 1.429 . S
C2080 N2077 1.350 . S
C2080 C2079 1.434 . S
C2081 C2082 1.369 . S
C2081 C2083 1.419 . S
C2081 H2085 0.930 . S
C2082 C2081 1.369 . S
C2082 C2091 1.429 . S
C2083 C2081 1.419 . S
C2083 C2084 1.363 . S
C2083 H2086 0.929 . S
C2084 C2083 1.363 . S
C2084 C2090 1.428 . S
H2085 C2081 0.930 . S
H2086 C2083 0.929 . S
S2087 N2088 1.613 . S
S2087 N2089 1.610 . S
N2088 S2087 1.613 . S
N2088 C2091 1.350 . S
N2089 S2087 1.610 . S
N2089 C2090 1.351 . S
C2090 C2084 1.428 . S
C2090 N2089 1.351 . S
C2090 C2091 1.434 . S
C2091 C2082 1.429 . S
C2091 N2088 1.350 . S
C2091 C2090 1.434 . S
C2092 C2093 1.369 . S
C2092 C2094 1.419 . S
C2092 H2096 0.930 . S
C2093 C2092 1.369 . S
C2093 C2102 1.429 . S
C2094 C2092 1.419 . S
C2094 C2095 1.363 . S
C2094 H2097 0.929 . S
C2095 C2094 1.363 . S
C2095 C2101 1.428 . S
H2096 C2092 0.930 . S
H2097 C2094 0.929 . S
S2098 N2099 1.613 . S
S2098 N2100 1.610 . S
N2099 S2098 1.613 . S
N2099 C2102 1.350 . S
N2100 S2098 1.610 . S
N2100 C2101 1.351 . S
C2101 C2095 1.428 . S
C2101 N2100 1.351 . S
C2101 C2102 1.434 . S
C2102 C2093 1.429 . S
C2102 N2099 1.350 . S
C2102 C2101 1.434 . S
C2103 C2104 1.369 . S
C2103 C2105 1.419 . S
C2103 H2107 0.930 . S
C2104 C2103 1.369 . S
C2104 C2113 1.429 . S
C2105 C2103 1.419 . S
C2105 C2106 1.363 . S
C2105 H2108 0.929 . S
C2106 C2105 1.363 . S
C2106 C2112 1.428 . S
H2107 C2103 0.930 . S
H2108 C2105 0.929 . S
S2109 N2110 1.613 . S
S2109 N2111 1.610 . S
N2110 S2109 1.613 . S
N2110 C2113 1.350 . S
N2111 S2109 1.610 . S
N2111 C2112 1.351 . S
C2112 C2106 1.428 . S
C2112 N2111 1.351 . S
C2112 C2113 1.434 . S
C2113 C2104 1.429 . S
C2113 N2110 1.350 . S
C2113 C2112 1.434 . S
C2114 C2115 1.369 . S
C2114 C2116 1.419 . S
C2114 H2118 0.930 . S
C2115 C2114 1.369 . S
C2115 C2124 1.429 . S
C2116 C2114 1.419 . S
C2116 C2117 1.363 . S
C2116 H2119 0.929 . S
C2117 C2116 1.363 . S
C2117 C2123 1.428 . S
H2118 C2114 0.930 . S
H2119 C2116 0.929 . S
S2120 N2121 1.613 . S
S2120 N2122 1.610 . S
N2121 S2120 1.613 . S
N2121 C2124 1.350 . S
N2122 S2120 1.610 . S
N2122 C2123 1.351 . S
C2123 C2117 1.428 . S
C2123 N2122 1.351 . S
C2123 C2124 1.434 . S
C2124 C2115 1.429 . S
C2124 N2121 1.350 . S
C2124 C2123 1.434 . S
C2125 C2126 1.369 . S
C2125 C2127 1.419 . S
C2125 H2129 0.930 . S
C2126 C2125 1.369 . S
C2126 C2135 1.429 . S
C2127 C2125 1.419 . S
C2127 C2128 1.363 . S
C2127 H2130 0.929 . S
C2128 C2127 1.363 . S
C2128 C2134 1.428 . S
H2129 C2125 0.930 . S
H2130 C2127 0.929 . S
S2131 N2132 1.613 . S
S2131 N2133 1.610 . S
N2132 S2131 1.613 . S
N2132 C2135 1.350 . S
N2133 S2131 1.610 . S
N2133 C2134 1.351 . S
C2134 C2128 1.428 . S
C2134 N2133 1.351 . S
C2134 C2135 1.434 . S
C2135 C2126 1.429 . S
C2135 N2132 1.350 . S
C2135 C2134 1.434 . S
C2136 C2137 1.369 . S
C2136 C2138 1.419 . S
C2136 H2140 0.930 . S
C2137 C2136 1.369 . S
C2137 C2146 1.429 . S
C2138 C2136 1.419 . S
C2138 C2139 1.363 . S
C2138 H2141 0.929 . S
C2139 C2138 1.363 . S
C2139 C2145 1.428 . S
H2140 C2136 0.930 . S
H2141 C2138 0.929 . S
S2142 N2143 1.613 . S
S2142 N2144 1.610 . S
N2143 S2142 1.613 . S
N2143 C2146 1.350 . S
N2144 S2142 1.610 . S
N2144 C2145 1.351 . S
C2145 C2139 1.428 . S
C2145 N2144 1.351 . S
C2145 C2146 1.434 . S
C2146 C2137 1.429 . S
C2146 N2143 1.350 . S
C2146 C2145 1.434 . S
C2147 C2148 1.369 . S
C2147 C2149 1.419 . S
C2147 H2151 0.930 . S
C2148 C2147 1.369 . S
C2148 C2157 1.429 . S
C2149 C2147 1.419 . S
C2149 C2150 1.363 . S
C2149 H2152 0.929 . S
C2150 C2149 1.363 . S
C2150 C2156 1.428 . S
H2151 C2147 0.930 . S
H2152 C2149 0.929 . S
S2153 N2154 1.613 . S
S2153 N2155 1.610 . S
N2154 S2153 1.613 . S
N2154 C2157 1.350 . S
N2155 S2153 1.610 . S
N2155 C2156 1.351 . S
C2156 C2150 1.428 . S
C2156 N2155 1.351 . S
C2156 C2157 1.434 . S
C2157 C2148 1.429 . S
C2157 N2154 1.350 . S
C2157 C2156 1.434 . S
C2158 C2159 1.369 . S
C2158 C2160 1.419 . S
C2158 H2162 0.930 . S
C2159 C2158 1.369 . S
C2159 C2168 1.429 . S
C2160 C2158 1.419 . S
C2160 C2161 1.363 . S
C2160 H2163 0.929 . S
C2161 C2160 1.363 . S
C2161 C2167 1.428 . S
H2162 C2158 0.930 . S
H2163 C2160 0.929 . S
S2164 N2165 1.613 . S
S2164 N2166 1.610 . S
N2165 S2164 1.613 . S
N2165 C2168 1.350 . S
N2166 S2164 1.610 . S
N2166 C2167 1.351 . S
C2167 C2161 1.428 . S
C2167 N2166 1.351 . S
C2167 C2168 1.434 . S
C2168 C2159 1.429 . S
C2168 N2165 1.350 . S
C2168 C2167 1.434 . S
C2169 C2170 1.369 . S
C2169 C2171 1.419 . S
C2169 H2173 0.930 . S
C2170 C2169 1.369 . S
C2170 C2179 1.429 . S
C2171 C2169 1.419 . S
C2171 C2172 1.363 . S
C2171 H2174 0.929 . S
C2172 C2171 1.363 . S
C2172 C2178 1.428 . S
H2173 C2169 0.930 . S
H2174 C2171 0.929 . S
S2175 N2176 1.613 . S
S2175 N2177 1.610 . S
N2176 S2175 1.613 . S
N2176 C2179 1.350 . S
N2177 S2175 1.610 . S
N2177 C2178 1.351 . S
C2178 C2172 1.428 . S
C2178 N2177 1.351 . S
C2178 C2179 1.434 . S
C2179 C2170 1.429 . S
C2179 N2176 1.350 . S
C2179 C2178 1.434 . S
C2180 C2181 1.369 . S
C2180 C2182 1.419 . S
C2180 H2184 0.930 . S
C2181 C2180 1.369 . S
C2181 C2190 1.429 . S
C2182 C2180 1.419 . S
C2182 C2183 1.363 . S
C2182 H2185 0.929 . S
C2183 C2182 1.363 . S
C2183 C2189 1.428 . S
H2184 C2180 0.930 . S
H2185 C2182 0.929 . S
S2186 N2187 1.613 . S
S2186 N2188 1.610 . S
N2187 S2186 1.613 . S
N2187 C2190 1.350 . S
N2188 S2186 1.610 . S
N2188 C2189 1.351 . S
C2189 C2183 1.428 . S
C2189 N2188 1.351 . S
C2189 C2190 1.434 . S
C2190 C2181 1.429 . S
C2190 N2187 1.350 . S
C2190 C2189 1.434 . S
C2191 C2192 1.369 . S
C2191 C2193 1.419 . S
C2191 H2195 0.930 . S
C2192 C2191 1.369 . S
C2192 C2201 1.429 . S
C2193 C2191 1.419 . S
C2193 C2194 1.363 . S
C2193 H2196 0.929 . S
C2194 C2193 1.363 . S
C2194 C2200 1.428 . S
H2195 C2191 0.930 . S
H2196 C2193 0.929 . S
S2197 N2198 1.613 . S
S2197 N2199 1.610 . S
N2198 S2197 1.613 . S
N2198 C2201 1.350 . S
N2199 S2197 1.610 . S
N2199 C2200 1.351 . S
C2200 C2194 1.428 . S
C2200 N2199 1.351 . S
C2200 C2201 1.434 . S
C2201 C2192 1.429 . S
C2201 N2198 1.350 . S
C2201 C2200 1.434 . S
C2202 C2203 1.369 . S
C2202 C2204 1.419 . S
C2202 H2206 0.930 . S
C2203 C2202 1.369 . S
C2203 C2212 1.429 . S
C2204 C2202 1.419 . S
C2204 C2205 1.363 . S
C2204 H2207 0.929 . S
C2205 C2204 1.363 . S
C2205 C2211 1.428 . S
H2206 C2202 0.930 . S
H2207 C2204 0.929 . S
S2208 N2209 1.613 . S
S2208 N2210 1.610 . S
N2209 S2208 1.613 . S
N2209 C2212 1.350 . S
N2210 S2208 1.610 . S
N2210 C2211 1.351 . S
C2211 C2205 1.428 . S
C2211 N2210 1.351 . S
C2211 C2212 1.434 . S
C2212 C2203 1.429 . S
C2212 N2209 1.350 . S
C2212 C2211 1.434 . S
C2213 C2214 1.369 . S
C2213 C2215 1.419 . S
C2213 H2217 0.930 . S
C2214 C2213 1.369 . S
C2214 C2223 1.429 . S
C2215 C2213 1.419 . S
C2215 C2216 1.363 . S
C2215 H2218 0.929 . S
C2216 C2215 1.363 . S
C2216 C2222 1.428 . S
H2217 C2213 0.930 . S
H2218 C2215 0.929 . S
S2219 N2220 1.613 . S
S2219 N2221 1.610 . S
N2220 S2219 1.613 . S
N2220 C2223 1.350 . S
N2221 S2219 1.610 . S
N2221 C2222 1.351 . S
C2222 C2216 1.428 . S
C2222 N2221 1.351 . S
C2222 C2223 1.434 . S
C2223 C2214 1.429 . S
C2223 N2220 1.350 . S
C2223 C2222 1.434 . S
C2224 C2225 1.369 . S
C2224 C2226 1.419 . S
C2224 H2228 0.930 . S
C2225 C2224 1.369 . S
C2225 C2234 1.429 . S
C2226 C2224 1.419 . S
C2226 C2227 1.363 . S
C2226 H2229 0.929 . S
C2227 C2226 1.363 . S
C2227 C2233 1.428 . S
H2228 C2224 0.930 . S
H2229 C2226 0.929 . S
S2230 N2231 1.613 . S
S2230 N2232 1.610 . S
N2231 S2230 1.613 . S
N2231 C2234 1.350 . S
N2232 S2230 1.610 . S
N2232 C2233 1.351 . S
C2233 C2227 1.428 . S
C2233 N2232 1.351 . S
C2233 C2234 1.434 . S
C2234 C2225 1.429 . S
C2234 N2231 1.350 . S
C2234 C2233 1.434 . S
C2235 C2236 1.369 . S
C2235 C2237 1.419 . S
C2235 H2239 0.930 . S
C2236 C2235 1.369 . S
C2236 C2245 1.429 . S
C2237 C2235 1.419 . S
C2237 C2238 1.363 . S
C2237 H2240 0.929 . S
C2238 C2237 1.363 . S
C2238 C2244 1.428 . S
H2239 C2235 0.930 . S
H2240 C2237 0.929 . S
S2241 N2242 1.613 . S
S2241 N2243 1.610 . S
N2242 S2241 1.613 . S
N2242 C2245 1.350 . S
N2243 S2241 1.610 . S
N2243 C2244 1.351 . S
C2244 C2238 1.428 . S
C2244 N2243 1.351 . S
C2244 C2245 1.434 . S
C2245 C2236 1.429 . S
C2245 N2242 1.350 . S
C2245 C2244 1.434 . S
C2246 C2247 1.369 . S
C2246 C2248 1.419 . S
C2246 H2250 0.930 . S
C2247 C2246 1.369 . S
C2247 C2256 1.429 . S
C2248 C2246 1.419 . S
C2248 C2249 1.363 . S
C2248 H2251 0.929 . S
C2249 C2248 1.363 . S
C2249 C2255 1.428 . S
H2250 C2246 0.930 . S
H2251 C2248 0.929 . S
S2252 N2253 1.613 . S
S2252 N2254 1.610 . S
N2253 S2252 1.613 . S
N2253 C2256 1.350 . S
N2254 S2252 1.610 . S
N2254 C2255 1.351 . S
C2255 C2249 1.428 . S
C2255 N2254 1.351 . S
C2255 C2256 1.434 . S
C2256 C2247 1.429 . S
C2256 N2253 1.350 . S
C2256 C2255 1.434 . S
C2257 C2258 1.369 . S
C2257 C2259 1.419 . S
C2257 H2261 0.930 . S
C2258 C2257 1.369 . S
C2258 C2267 1.429 . S
C2259 C2257 1.419 . S
C2259 C2260 1.363 . S
C2259 H2262 0.929 . S
C2260 C2259 1.363 . S
C2260 C2266 1.428 . S
H2261 C2257 0.930 . S
H2262 C2259 0.929 . S
S2263 N2264 1.613 . S
S2263 N2265 1.610 . S
N2264 S2263 1.613 . S
N2264 C2267 1.350 . S
N2265 S2263 1.610 . S
N2265 C2266 1.351 . S
C2266 C2260 1.428 . S
C2266 N2265 1.351 . S
C2266 C2267 1.434 . S
C2267 C2258 1.429 . S
C2267 N2264 1.350 . S
C2267 C2266 1.434 . S
C2268 C2269 1.369 . S
C2268 C2270 1.419 . S
C2268 H2272 0.930 . S
C2269 C2268 1.369 . S
C2269 C2278 1.429 . S
C2270 C2268 1.419 . S
C2270 C2271 1.363 . S
C2270 H2273 0.929 . S
C2271 C2270 1.363 . S
C2271 C2277 1.428 . S
H2272 C2268 0.930 . S
H2273 C2270 0.929 . S
S2274 N2275 1.613 . S
S2274 N2276 1.610 . S
N2275 S2274 1.613 . S
N2275 C2278 1.350 . S
N2276 S2274 1.610 . S
N2276 C2277 1.351 . S
C2277 C2271 1.428 . S
C2277 N2276 1.351 . S
C2277 C2278 1.434 . S
C2278 C2269 1.429 . S
C2278 N2275 1.350 . S
C2278 C2277 1.434 . S
C2279 C2280 1.369 . S
C2279 C2281 1.419 . S
C2279 H2283 0.930 . S
C2280 C2279 1.369 . S
C2280 C2289 1.429 . S
C2281 C2279 1.419 . S
C2281 C2282 1.363 . S
C2281 H2284 0.929 . S
C2282 C2281 1.363 . S
C2282 C2288 1.428 . S
H2283 C2279 0.930 . S
H2284 C2281 0.929 . S
S2285 N2286 1.613 . S
S2285 N2287 1.610 . S
N2286 S2285 1.613 . S
N2286 C2289 1.350 . S
N2287 S2285 1.610 . S
N2287 C2288 1.351 . S
C2288 C2282 1.428 . S
C2288 N2287 1.351 . S
C2288 C2289 1.434 . S
C2289 C2280 1.429 . S
C2289 N2286 1.350 . S
C2289 C2288 1.434 . S
C2290 C2291 1.369 . S
C2290 C2292 1.419 . S
C2290 H2294 0.930 . S
C2291 C2290 1.369 . S
C2291 C2300 1.429 . S
C2292 C2290 1.419 . S
C2292 C2293 1.363 . S
C2292 H2295 0.929 . S
C2293 C2292 1.363 . S
C2293 C2299 1.428 . S
H2294 C2290 0.930 . S
H2295 C2292 0.929 . S
S2296 N2297 1.613 . S
S2296 N2298 1.610 . S
N2297 S2296 1.613 . S
N2297 C2300 1.350 . S
N2298 S2296 1.610 . S
N2298 C2299 1.351 . S
C2299 C2293 1.428 . S
C2299 N2298 1.351 . S
C2299 C2300 1.434 . S
C2300 C2291 1.429 . S
C2300 N2297 1.350 . S
C2300 C2299 1.434 . S
C2301 C2302 1.369 . S
C2301 C2303 1.419 . S
C2301 H2305 0.930 . S
C2302 C2301 1.369 . S
C2302 C2311 1.429 . S
C2303 C2301 1.419 . S
C2303 C2304 1.363 . S
C2303 H2306 0.929 . S
C2304 C2303 1.363 . S
C2304 C2310 1.428 . S
H2305 C2301 0.930 . S
H2306 C2303 0.929 . S
S2307 N2308 1.613 . S
S2307 N2309 1.610 . S
N2308 S2307 1.613 . S
N2308 C2311 1.350 . S
N2309 S2307 1.610 . S
N2309 C2310 1.351 . S
C2310 C2304 1.428 . S
C2310 N2309 1.351 . S
C2310 C2311 1.434 . S
C2311 C2302 1.429 . S
C2311 N2308 1.350 . S
C2311 C2310 1.434 . S
C2312 C2313 1.369 . S
C2312 C2314 1.419 . S
C2312 H2316 0.930 . S
C2313 C2312 1.369 . S
C2313 C2322 1.429 . S
C2314 C2312 1.419 . S
C2314 C2315 1.363 . S
C2314 H2317 0.929 . S
C2315 C2314 1.363 . S
C2315 C2321 1.428 . S
H2316 C2312 0.930 . S
H2317 C2314 0.929 . S
S2318 N2319 1.613 . S
S2318 N2320 1.610 . S
N2319 S2318 1.613 . S
N2319 C2322 1.350 . S
N2320 S2318 1.610 . S
N2320 C2321 1.351 . S
C2321 C2315 1.428 . S
C2321 N2320 1.351 . S
C2321 C2322 1.434 . S
C2322 C2313 1.429 . S
C2322 N2319 1.350 . S
C2322 C2321 1.434 . S
C2323 C2324 1.369 . S
C2323 C2325 1.419 . S
C2323 H2327 0.930 . S
C2324 C2323 1.369 . S
C2324 C2333 1.429 . S
C2325 C2323 1.419 . S
C2325 C2326 1.363 . S
C2325 H2328 0.929 . S
C2326 C2325 1.363 . S
C2326 C2332 1.428 . S
H2327 C2323 0.930 . S
H2328 C2325 0.929 . S
S2329 N2330 1.613 . S
S2329 N2331 1.610 . S
N2330 S2329 1.613 . S
N2330 C2333 1.350 . S
N2331 S2329 1.610 . S
N2331 C2332 1.351 . S
C2332 C2326 1.428 . S
C2332 N2331 1.351 . S
C2332 C2333 1.434 . S
C2333 C2324 1.429 . S
C2333 N2330 1.350 . S
C2333 C2332 1.434 . S
C2334 C2335 1.369 . S
C2334 C2336 1.419 . S
C2334 H2338 0.930 . S
C2335 C2334 1.369 . S
C2335 C2344 1.429 . S
C2336 C2334 1.419 . S
C2336 C2337 1.363 . S
C2336 H2339 0.929 . S
C2337 C2336 1.363 . S
C2337 C2343 1.428 . S
H2338 C2334 0.930 . S
H2339 C2336 0.929 . S
S2340 N2341 1.613 . S
S2340 N2342 1.610 . S
N2341 S2340 1.613 . S
N2341 C2344 1.350 . S
N2342 S2340 1.610 . S
N2342 C2343 1.351 . S
C2343 C2337 1.428 . S
C2343 N2342 1.351 . S
C2343 C2344 1.434 . S
C2344 C2335 1.429 . S
C2344 N2341 1.350 . S
C2344 C2343 1.434 . S
C2345 C2346 1.369 . S
C2345 C2347 1.419 . S
C2345 H2349 0.930 . S
C2346 C2345 1.369 . S
C2346 C2355 1.429 . S
C2347 C2345 1.419 . S
C2347 C2348 1.363 . S
C2347 H2350 0.929 . S
C2348 C2347 1.363 . S
C2348 C2354 1.428 . S
H2349 C2345 0.930 . S
H2350 C2347 0.929 . S
S2351 N2352 1.613 . S
S2351 N2353 1.610 . S
N2352 S2351 1.613 . S
N2352 C2355 1.350 . S
N2353 S2351 1.610 . S
N2353 C2354 1.351 . S
C2354 C2348 1.428 . S
C2354 N2353 1.351 . S
C2354 C2355 1.434 . S
C2355 C2346 1.429 . S
C2355 N2352 1.350 . S
C2355 C2354 1.434 . S
C2356 C2357 1.369 . S
C2356 C2358 1.419 . S
C2356 H2360 0.930 . S
C2357 C2356 1.369 . S
C2357 C2366 1.429 . S
C2358 C2356 1.419 . S
C2358 C2359 1.363 . S
C2358 H2361 0.929 . S
C2359 C2358 1.363 . S
C2359 C2365 1.428 . S
H2360 C2356 0.930 . S
H2361 C2358 0.929 . S
S2362 N2363 1.613 . S
S2362 N2364 1.610 . S
N2363 S2362 1.613 . S
N2363 C2366 1.350 . S
N2364 S2362 1.610 . S
N2364 C2365 1.351 . S
C2365 C2359 1.428 . S
C2365 N2364 1.351 . S
C2365 C2366 1.434 . S
C2366 C2357 1.429 . S
C2366 N2363 1.350 . S
C2366 C2365 1.434 . S
C2367 C2368 1.369 . S
C2367 C2369 1.419 . S
C2367 H2371 0.930 . S
C2368 C2367 1.369 . S
C2368 C2377 1.429 . S
C2369 C2367 1.419 . S
C2369 C2370 1.363 . S
C2369 H2372 0.929 . S
C2370 C2369 1.363 . S
C2370 C2376 1.428 . S
H2371 C2367 0.930 . S
H2372 C2369 0.929 . S
S2373 N2374 1.613 . S
S2373 N2375 1.610 . S
N2374 S2373 1.613 . S
N2374 C2377 1.350 . S
N2375 S2373 1.610 . S
N2375 C2376 1.351 . S
C2376 C2370 1.428 . S
C2376 N2375 1.351 . S
C2376 C2377 1.434 . S
C2377 C2368 1.429 . S
C2377 N2374 1.350 . S
C2377 C2376 1.434 . S
C2378 C2379 1.369 . S
C2378 C2380 1.419 . S
C2378 H2382 0.930 . S
C2379 C2378 1.369 . S
C2379 C2388 1.429 . S
C2380 C2378 1.419 . S
C2380 C2381 1.363 . S
C2380 H2383 0.929 . S
C2381 C2380 1.363 . S
C2381 C2387 1.428 . S
H2382 C2378 0.930 . S
H2383 C2380 0.929 . S
S2384 N2385 1.613 . S
S2384 N2386 1.610 . S
N2385 S2384 1.613 . S
N2385 C2388 1.350 . S
N2386 S2384 1.610 . S
N2386 C2387 1.351 . S
C2387 C2381 1.428 . S
C2387 N2386 1.351 . S
C2387 C2388 1.434 . S
C2388 C2379 1.429 . S
C2388 N2385 1.350 . S
C2388 C2387 1.434 . S
C2389 C2390 1.369 . S
C2389 C2391 1.419 . S
C2389 H2393 0.930 . S
C2390 C2389 1.369 . S
C2390 C2399 1.429 . S
C2391 C2389 1.419 . S
C2391 C2392 1.363 . S
C2391 H2394 0.929 . S
C2392 C2391 1.363 . S
C2392 C2398 1.428 . S
H2393 C2389 0.930 . S
H2394 C2391 0.929 . S
S2395 N2396 1.613 . S
S2395 N2397 1.610 . S
N2396 S2395 1.613 . S
N2396 C2399 1.350 . S
N2397 S2395 1.610 . S
N2397 C2398 1.351 . S
C2398 C2392 1.428 . S
C2398 N2397 1.351 . S
C2398 C2399 1.434 . S
C2399 C2390 1.429 . S
C2399 N2396 1.350 . S
C2399 C2398 1.434 . S
C2400 C2401 1.369 . S
C2400 C2402 1.419 . S
C2400 H2404 0.930 . S
C2401 C2400 1.369 . S
C2401 C2410 1.429 . S
C2402 C2400 1.419 . S
C2402 C2403 1.363 . S
C2402 H2405 0.929 . S
C2403 C2402 1.363 . S
C2403 C2409 1.428 . S
H2404 C2400 0.930 . S
H2405 C2402 0.929 . S
S2406 N2407 1.613 . S
S2406 N2408 1.610 . S
N2407 S2406 1.613 . S
N2407 C2410 1.350 . S
N2408 S2406 1.610 . S
N2408 C2409 1.351 . S
C2409 C2403 1.428 . S
C2409 N2408 1.351 . S
C2409 C2410 1.434 . S
C2410 C2401 1.429 . S
C2410 N2407 1.350 . S
C2410 C2409 1.434 . S
C2411 C2412 1.369 . S
C2411 C2413 1.419 . S
C2411 H2415 0.930 . S
C2412 C2411 1.369 . S
C2412 C2421 1.429 . S
C2413 C2411 1.419 . S
C2413 C2414 1.363 . S
C2413 H2416 0.929 . S
C2414 C2413 1.363 . S
C2414 C2420 1.428 . S
H2415 C2411 0.930 . S
H2416 C2413 0.929 . S
S2417 N2418 1.613 . S
S2417 N2419 1.610 . S
N2418 S2417 1.613 . S
N2418 C2421 1.350 . S
N2419 S2417 1.610 . S
N2419 C2420 1.351 . S
C2420 C2414 1.428 . S
C2420 N2419 1.351 . S
C2420 C2421 1.434 . S
C2421 C2412 1.429 . S
C2421 N2418 1.350 . S
C2421 C2420 1.434 . S
C2422 C2423 1.369 . S
C2422 C2424 1.419 . S
C2422 H2426 0.930 . S
C2423 C2422 1.369 . S
C2423 C2432 1.429 . S
C2424 C2422 1.419 . S
C2424 C2425 1.363 . S
C2424 H2427 0.929 . S
C2425 C2424 1.363 . S
C2425 C2431 1.428 . S
H2426 C2422 0.930 . S
H2427 C2424 0.929 . S
S2428 N2429 1.613 . S
S2428 N2430 1.610 . S
N2429 S2428 1.613 . S
N2429 C2432 1.350 . S
N2430 S2428 1.610 . S
N2430 C2431 1.351 . S
C2431 C2425 1.428 . S
C2431 N2430 1.351 . S
C2431 C2432 1.434 . S
C2432 C2423 1.429 . S
C2432 N2429 1.350 . S
C2432 C2431 1.434 . S
C2433 C2434 1.369 . S
C2433 C2435 1.419 . S
C2433 H2437 0.930 . S
C2434 C2433 1.369 . S
C2434 C2443 1.429 . S
C2435 C2433 1.419 . S
C2435 C2436 1.363 . S
C2435 H2438 0.929 . S
C2436 C2435 1.363 . S
C2436 C2442 1.428 . S
H2437 C2433 0.930 . S
H2438 C2435 0.929 . S
S2439 N2440 1.613 . S
S2439 N2441 1.610 . S
N2440 S2439 1.613 . S
N2440 C2443 1.350 . S
N2441 S2439 1.610 . S
N2441 C2442 1.351 . S
C2442 C2436 1.428 . S
C2442 N2441 1.351 . S
C2442 C2443 1.434 . S
C2443 C2434 1.429 . S
C2443 N2440 1.350 . S
C2443 C2442 1.434 . S
C2444 C2445 1.369 . S
C2444 C2446 1.419 . S
C2444 H2448 0.930 . S
C2445 C2444 1.369 . S
C2445 C2454 1.429 . S
C2446 C2444 1.419 . S
C2446 C2447 1.363 . S
C2446 H2449 0.929 . S
C2447 C2446 1.363 . S
C2447 C2453 1.428 . S
H2448 C2444 0.930 . S
H2449 C2446 0.929 . S
S2450 N2451 1.613 . S
S2450 N2452 1.610 . S
N2451 S2450 1.613 . S
N2451 C2454 1.350 . S
N2452 S2450 1.610 . S
N2452 C2453 1.351 . S
C2453 C2447 1.428 . S
C2453 N2452 1.351 . S
C2453 C2454 1.434 . S
C2454 C2445 1.429 . S
C2454 N2451 1.350 . S
C2454 C2453 1.434 . S
C2455 C2456 1.369 . S
C2455 C2457 1.419 . S
C2455 H2459 0.930 . S
C2456 C2455 1.369 . S
C2456 C2465 1.429 . S
C2457 C2455 1.419 . S
C2457 C2458 1.363 . S
C2457 H2460 0.929 . S
C2458 C2457 1.363 . S
C2458 C2464 1.428 . S
H2459 C2455 0.930 . S
H2460 C2457 0.929 . S
S2461 N2462 1.613 . S
S2461 N2463 1.610 . S
N2462 S2461 1.613 . S
N2462 C2465 1.350 . S
N2463 S2461 1.610 . S
N2463 C2464 1.351 . S
C2464 C2458 1.428 . S
C2464 N2463 1.351 . S
C2464 C2465 1.434 . S
C2465 C2456 1.429 . S
C2465 N2462 1.350 . S
C2465 C2464 1.434 . S
C2466 C2467 1.369 . S
C2466 C2468 1.419 . S
C2466 H2470 0.930 . S
C2467 C2466 1.369 . S
C2467 C2476 1.429 . S
C2468 C2466 1.419 . S
C2468 C2469 1.363 . S
C2468 H2471 0.929 . S
C2469 C2468 1.363 . S
C2469 C2475 1.428 . S
H2470 C2466 0.930 . S
H2471 C2468 0.929 . S
S2472 N2473 1.613 . S
S2472 N2474 1.610 . S
N2473 S2472 1.613 . S
N2473 C2476 1.350 . S
N2474 S2472 1.610 . S
N2474 C2475 1.351 . S
C2475 C2469 1.428 . S
C2475 N2474 1.351 . S
C2475 C2476 1.434 . S
C2476 C2467 1.429 . S
C2476 N2473 1.350 . S
C2476 C2475 1.434 . S
C2477 C2478 1.369 . S
C2477 C2479 1.419 . S
C2477 H2481 0.930 . S
C2478 C2477 1.369 . S
C2478 C2487 1.429 . S
C2479 C2477 1.419 . S
C2479 C2480 1.363 . S
C2479 H2482 0.929 . S
C2480 C2479 1.363 . S
C2480 C2486 1.428 . S
H2481 C2477 0.930 . S
H2482 C2479 0.929 . S
S2483 N2484 1.613 . S
S2483 N2485 1.610 . S
N2484 S2483 1.613 . S
N2484 C2487 1.350 . S
N2485 S2483 1.610 . S
N2485 C2486 1.351 . S
C2486 C2480 1.428 . S
C2486 N2485 1.351 . S
C2486 C2487 1.434 . S
C2487 C2478 1.429 . S
C2487 N2484 1.350 . S
C2487 C2486 1.434 . S
C2488 C2489 1.369 . S
C2488 C2490 1.419 . S
C2488 H2492 0.930 . S
C2489 C2488 1.369 . S
C2489 C2498 1.429 . S
C2490 C2488 1.419 . S
C2490 C2491 1.363 . S
C2490 H2493 0.929 . S
C2491 C2490 1.363 . S
C2491 C2497 1.428 . S
H2492 C2488 0.930 . S
H2493 C2490 0.929 . S
S2494 N2495 1.613 . S
S2494 N2496 1.610 . S
N2495 S2494 1.613 . S
N2495 C2498 1.350 . S
N2496 S2494 1.610 . S
N2496 C2497 1.351 . S
C2497 C2491 1.428 . S
C2497 N2496 1.351 . S
C2497 C2498 1.434 . S
C2498 C2489 1.429 . S
C2498 N2495 1.350 . S
C2498 C2497 1.434 . S
C2499 C2500 1.369 . S
C2499 C2501 1.419 . S
C2499 H2503 0.930 . S
C2500 C2499 1.369 . S
C2500 C2509 1.429 . S
C2501 C2499 1.419 . S
C2501 C2502 1.363 . S
C2501 H2504 0.929 . S
C2502 C2501 1.363 . S
C2502 C2508 1.428 . S
H2503 C2499 0.930 . S
H2504 C2501 0.929 . S
S2505 N2506 1.613 . S
S2505 N2507 1.610 . S
N2506 S2505 1.613 . S
N2506 C2509 1.350 . S
N2507 S2505 1.610 . S
N2507 C2508 1.351 . S
C2508 C2502 1.428 . S
C2508 N2507 1.351 . S
C2508 C2509 1.434 . S
C2509 C2500 1.429 . S
C2509 N2506 1.350 . S
C2509 C2508 1.434 . S
C2510 C2511 1.369 . S
C2510 C2512 1.419 . S
C2510 H2514 0.930 . S
C2511 C2510 1.369 . S
C2511 C2520 1.429 . S
C2512 C2510 1.419 . S
C2512 C2513 1.363 . S
C2512 H2515 0.929 . S
C2513 C2512 1.363 . S
C2513 C2519 1.428 . S
H2514 C2510 0.930 . S
H2515 C2512 0.929 . S
S2516 N2517 1.613 . S
S2516 N2518 1.610 . S
N2517 S2516 1.613 . S
N2517 C2520 1.350 . S
N2518 S2516 1.610 . S
N2518 C2519 1.351 . S
C2519 C2513 1.428 . S
C2519 N2518 1.351 . S
C2519 C2520 1.434 . S
C2520 C2511 1.429 . S
C2520 N2517 1.350 . S
C2520 C2519 1.434 . S
C2521 C2522 1.369 . S
C2521 C2523 1.419 . S
C2521 H2525 0.930 . S
C2522 C2521 1.369 . S
C2522 C2531 1.429 . S
C2523 C2521 1.419 . S
C2523 C2524 1.363 . S
C2523 H2526 0.929 . S
C2524 C2523 1.363 . S
C2524 C2530 1.428 . S
H2525 C2521 0.930 . S
H2526 C2523 0.929 . S
S2527 N2528 1.613 . S
S2527 N2529 1.610 . S
N2528 S2527 1.613 . S
N2528 C2531 1.350 . S
N2529 S2527 1.610 . S
N2529 C2530 1.351 . S
C2530 C2524 1.428 . S
C2530 N2529 1.351 . S
C2530 C2531 1.434 . S
C2531 C2522 1.429 . S
C2531 N2528 1.350 . S
C2531 C2530 1.434 . S
C2532 C2533 1.369 . S
C2532 C2534 1.419 . S
C2532 H2536 0.930 . S
C2533 C2532 1.369 . S
C2533 C2542 1.429 . S
C2534 C2532 1.419 . S
C2534 C2535 1.363 . S
C2534 H2537 0.929 . S
C2535 C2534 1.363 . S
C2535 C2541 1.428 . S
H2536 C2532 0.930 . S
H2537 C2534 0.929 . S
S2538 N2539 1.613 . S
S2538 N2540 1.610 . S
N2539 S2538 1.613 . S
N2539 C2542 1.350 . S
N2540 S2538 1.610 . S
N2540 C2541 1.351 . S
C2541 C2535 1.428 . S
C2541 N2540 1.351 . S
C2541 C2542 1.434 . S
C2542 C2533 1.429 . S
C2542 N2539 1.350 . S
C2542 C2541 1.434 . S
C2543 C2544 1.369 . S
C2543 C2545 1.419 . S
C2543 H2547 0.930 . S
C2544 C2543 1.369 . S
C2544 C2553 1.429 . S
C2545 C2543 1.419 . S
C2545 C2546 1.363 . S
C2545 H2548 0.929 . S
C2546 C2545 1.363 . S
C2546 C2552 1.428 . S
H2547 C2543 0.930 . S
H2548 C2545 0.929 . S
S2549 N2550 1.613 . S
S2549 N2551 1.610 . S
N2550 S2549 1.613 . S
N2550 C2553 1.350 . S
N2551 S2549 1.610 . S
N2551 C2552 1.351 . S
C2552 C2546 1.428 . S
C2552 N2551 1.351 . S
C2552 C2553 1.434 . S
C2553 C2544 1.429 . S
C2553 N2550 1.350 . S
C2553 C2552 1.434 . S
C2554 C2555 1.369 . S
C2554 C2556 1.419 . S
C2554 H2558 0.930 . S
C2555 C2554 1.369 . S
C2555 C2564 1.429 . S
C2556 C2554 1.419 . S
C2556 C2557 1.363 . S
C2556 H2559 0.929 . S
C2557 C2556 1.363 . S
C2557 C2563 1.428 . S
H2558 C2554 0.930 . S
H2559 C2556 0.929 . S
S2560 N2561 1.613 . S
S2560 N2562 1.610 . S
N2561 S2560 1.613 . S
N2561 C2564 1.350 . S
N2562 S2560 1.610 . S
N2562 C2563 1.351 . S
C2563 C2557 1.428 . S
C2563 N2562 1.351 . S
C2563 C2564 1.434 . S
C2564 C2555 1.429 . S
C2564 N2561 1.350 . S
C2564 C2563 1.434 . S
C2565 C2566 1.369 . S
C2565 C2567 1.419 . S
C2565 H2569 0.930 . S
C2566 C2565 1.369 . S
C2566 C2575 1.429 . S
C2567 C2565 1.419 . S
C2567 C2568 1.363 . S
C2567 H2570 0.929 . S
C2568 C2567 1.363 . S
C2568 C2574 1.428 . S
H2569 C2565 0.930 . S
H2570 C2567 0.929 . S
S2571 N2572 1.613 . S
S2571 N2573 1.610 . S
N2572 S2571 1.613 . S
N2572 C2575 1.350 . S
N2573 S2571 1.610 . S
N2573 C2574 1.351 . S
C2574 C2568 1.428 . S
C2574 N2573 1.351 . S
C2574 C2575 1.434 . S
C2575 C2566 1.429 . S
C2575 N2572 1.350 . S
C2575 C2574 1.434 . S
C2576 C2577 1.369 . S
C2576 C2578 1.419 . S
C2576 H2580 0.930 . S
C2577 C2576 1.369 . S
C2577 C2586 1.429 . S
C2578 C2576 1.419 . S
C2578 C2579 1.363 . S
C2578 H2581 0.929 . S
C2579 C2578 1.363 . S
C2579 C2585 1.428 . S
H2580 C2576 0.930 . S
H2581 C2578 0.929 . S
S2582 N2583 1.613 . S
S2582 N2584 1.610 . S
N2583 S2582 1.613 . S
N2583 C2586 1.350 . S
N2584 S2582 1.610 . S
N2584 C2585 1.351 . S
C2585 C2579 1.428 . S
C2585 N2584 1.351 . S
C2585 C2586 1.434 . S
C2586 C2577 1.429 . S
C2586 N2583 1.350 . S
C2586 C2585 1.434 . S
C2587 C2588 1.369 . S
C2587 C2589 1.419 . S
C2587 H2591 0.930 . S
C2588 C2587 1.369 . S
C2588 C2597 1.429 . S
C2589 C2587 1.419 . S
C2589 C2590 1.363 . S
C2589 H2592 0.929 . S
C2590 C2589 1.363 . S
C2590 C2596 1.428 . S
H2591 C2587 0.930 . S
H2592 C2589 0.929 . S
S2593 N2594 1.613 . S
S2593 N2595 1.610 . S
N2594 S2593 1.613 . S
N2594 C2597 1.350 . S
N2595 S2593 1.610 . S
N2595 C2596 1.351 . S
C2596 C2590 1.428 . S
C2596 N2595 1.351 . S
C2596 C2597 1.434 . S
C2597 C2588 1.429 . S
C2597 N2594 1.350 . S
C2597 C2596 1.434 . S
C2598 C2599 1.369 . S
C2598 C2600 1.419 . S
C2598 H2602 0.930 . S
C2599 C2598 1.369 . S
C2599 C2608 1.429 . S
C2600 C2598 1.419 . S
C2600 C2601 1.363 . S
C2600 H2603 0.929 . S
C2601 C2600 1.363 . S
C2601 C2607 1.428 . S
H2602 C2598 0.930 . S
H2603 C2600 0.929 . S
S2604 N2605 1.613 . S
S2604 N2606 1.610 . S
N2605 S2604 1.613 . S
N2605 C2608 1.350 . S
N2606 S2604 1.610 . S
N2606 C2607 1.351 . S
C2607 C2601 1.428 . S
C2607 N2606 1.351 . S
C2607 C2608 1.434 . S
C2608 C2599 1.429 . S
C2608 N2605 1.350 . S
C2608 C2607 1.434 . S
C2609 C2610 1.369 . S
C2609 C2611 1.419 . S
C2609 H2613 0.930 . S
C2610 C2609 1.369 . S
C2610 C2619 1.429 . S
C2611 C2609 1.419 . S
C2611 C2612 1.363 . S
C2611 H2614 0.929 . S
C2612 C2611 1.363 . S
C2612 C2618 1.428 . S
H2613 C2609 0.930 . S
H2614 C2611 0.929 . S
S2615 N2616 1.613 . S
S2615 N2617 1.610 . S
N2616 S2615 1.613 . S
N2616 C2619 1.350 . S
N2617 S2615 1.610 . S
N2617 C2618 1.351 . S
C2618 C2612 1.428 . S
C2618 N2617 1.351 . S
C2618 C2619 1.434 . S
C2619 C2610 1.429 . S
C2619 N2616 1.350 . S
C2619 C2618 1.434 . S
C2620 C2621 1.369 . S
C2620 C2622 1.419 . S
C2620 H2624 0.930 . S
C2621 C2620 1.369 . S
C2621 C2630 1.429 . S
C2622 C2620 1.419 . S
C2622 C2623 1.363 . S
C2622 H2625 0.929 . S
C2623 C2622 1.363 . S
C2623 C2629 1.428 . S
H2624 C2620 0.930 . S
H2625 C2622 0.929 . S
S2626 N2627 1.613 . S
S2626 N2628 1.610 . S
N2627 S2626 1.613 . S
N2627 C2630 1.350 . S
N2628 S2626 1.610 . S
N2628 C2629 1.351 . S
C2629 C2623 1.428 . S
C2629 N2628 1.351 . S
C2629 C2630 1.434 . S
C2630 C2621 1.429 . S
C2630 N2627 1.350 . S
C2630 C2629 1.434 . S
C2631 C2632 1.369 . S
C2631 C2633 1.419 . S
C2631 H2635 0.930 . S
C2632 C2631 1.369 . S
C2632 C2641 1.429 . S
C2633 C2631 1.419 . S
C2633 C2634 1.363 . S
C2633 H2636 0.929 . S
C2634 C2633 1.363 . S
C2634 C2640 1.428 . S
H2635 C2631 0.930 . S
H2636 C2633 0.929 . S
S2637 N2638 1.613 . S
S2637 N2639 1.610 . S
N2638 S2637 1.613 . S
N2638 C2641 1.350 . S
N2639 S2637 1.610 . S
N2639 C2640 1.351 . S
C2640 C2634 1.428 . S
C2640 N2639 1.351 . S
C2640 C2641 1.434 . S
C2641 C2632 1.429 . S
C2641 N2638 1.350 . S
C2641 C2640 1.434 . S
C2642 C2643 1.369 . S
C2642 C2644 1.419 . S
C2642 H2646 0.930 . S
C2643 C2642 1.369 . S
C2643 C2652 1.429 . S
C2644 C2642 1.419 . S
C2644 C2645 1.363 . S
C2644 H2647 0.929 . S
C2645 C2644 1.363 . S
C2645 C2651 1.428 . S
H2646 C2642 0.930 . S
H2647 C2644 0.929 . S
S2648 N2649 1.613 . S
S2648 N2650 1.610 . S
N2649 S2648 1.613 . S
N2649 C2652 1.350 . S
N2650 S2648 1.610 . S
N2650 C2651 1.351 . S
C2651 C2645 1.428 . S
C2651 N2650 1.351 . S
C2651 C2652 1.434 . S
C2652 C2643 1.429 . S
C2652 N2649 1.350 . S
C2652 C2651 1.434 . S
C2653 C2654 1.369 . S
C2653 C2655 1.419 . S
C2653 H2657 0.930 . S
C2654 C2653 1.369 . S
C2654 C2663 1.429 . S
C2655 C2653 1.419 . S
C2655 C2656 1.363 . S
C2655 H2658 0.929 . S
C2656 C2655 1.363 . S
C2656 C2662 1.428 . S
H2657 C2653 0.930 . S
H2658 C2655 0.929 . S
S2659 N2660 1.613 . S
S2659 N2661 1.610 . S
N2660 S2659 1.613 . S
N2660 C2663 1.350 . S
N2661 S2659 1.610 . S
N2661 C2662 1.351 . S
C2662 C2656 1.428 . S
C2662 N2661 1.351 . S
C2662 C2663 1.434 . S
C2663 C2654 1.429 . S
C2663 N2660 1.350 . S
C2663 C2662 1.434 . S
C2664 C2665 1.369 . S
C2664 C2666 1.419 . S
C2664 H2668 0.930 . S
C2665 C2664 1.369 . S
C2665 C2674 1.429 . S
C2666 C2664 1.419 . S
C2666 C2667 1.363 . S
C2666 H2669 0.929 . S
C2667 C2666 1.363 . S
C2667 C2673 1.428 . S
H2668 C2664 0.930 . S
H2669 C2666 0.929 . S
S2670 N2671 1.613 . S
S2670 N2672 1.610 . S
N2671 S2670 1.613 . S
N2671 C2674 1.350 . S
N2672 S2670 1.610 . S
N2672 C2673 1.351 . S
C2673 C2667 1.428 . S
C2673 N2672 1.351 . S
C2673 C2674 1.434 . S
C2674 C2665 1.429 . S
C2674 N2671 1.350 . S
C2674 C2673 1.434 . S
C2675 C2676 1.369 . S
C2675 C2677 1.419 . S
C2675 H2679 0.930 . S
C2676 C2675 1.369 . S
C2676 C2685 1.429 . S
C2677 C2675 1.419 . S
C2677 C2678 1.363 . S
C2677 H2680 0.929 . S
C2678 C2677 1.363 . S
C2678 C2684 1.428 . S
H2679 C2675 0.930 . S
H2680 C2677 0.929 . S
S2681 N2682 1.613 . S
S2681 N2683 1.610 . S
N2682 S2681 1.613 . S
N2682 C2685 1.350 . S
N2683 S2681 1.610 . S
N2683 C2684 1.351 . S
C2684 C2678 1.428 . S
C2684 N2683 1.351 . S
C2684 C2685 1.434 . S
C2685 C2676 1.429 . S
C2685 N2682 1.350 . S
C2685 C2684 1.434 . S
C2686 C2687 1.369 . S
C2686 C2688 1.419 . S
C2686 H2690 0.930 . S
C2687 C2686 1.369 . S
C2687 C2696 1.429 . S
C2688 C2686 1.419 . S
C2688 C2689 1.363 . S
C2688 H2691 0.929 . S
C2689 C2688 1.363 . S
C2689 C2695 1.428 . S
H2690 C2686 0.930 . S
H2691 C2688 0.929 . S
S2692 N2693 1.613 . S
S2692 N2694 1.610 . S
N2693 S2692 1.613 . S
N2693 C2696 1.350 . S
N2694 S2692 1.610 . S
N2694 C2695 1.351 . S
C2695 C2689 1.428 . S
C2695 N2694 1.351 . S
C2695 C2696 1.434 . S
C2696 C2687 1.429 . S
C2696 N2693 1.350 . S
C2696 C2695 1.434 . S
C2697 C2698 1.369 . S
C2697 C2699 1.419 . S
C2697 H2701 0.930 . S
C2698 C2697 1.369 . S
C2698 C2707 1.429 . S
C2699 C2697 1.419 . S
C2699 C2700 1.363 . S
C2699 H2702 0.929 . S
C2700 C2699 1.363 . S
C2700 C2706 1.428 . S
H2701 C2697 0.930 . S
H2702 C2699 0.929 . S
S2703 N2704 1.613 . S
S2703 N2705 1.610 . S
N2704 S2703 1.613 . S
N2704 C2707 1.350 . S
N2705 S2703 1.610 . S
N2705 C2706 1.351 . S
C2706 C2700 1.428 . S
C2706 N2705 1.351 . S
C2706 C2707 1.434 . S
C2707 C2698 1.429 . S
C2707 N2704 1.350 . S
C2707 C2706 1.434 . S
C2708 C2709 1.369 . S
C2708 C2710 1.419 . S
C2708 H2712 0.930 . S
C2709 C2708 1.369 . S
C2709 C2718 1.429 . S
C2710 C2708 1.419 . S
C2710 C2711 1.363 . S
C2710 H2713 0.929 . S
C2711 C2710 1.363 . S
C2711 C2717 1.428 . S
H2712 C2708 0.930 . S
H2713 C2710 0.929 . S
S2714 N2715 1.613 . S
S2714 N2716 1.610 . S
N2715 S2714 1.613 . S
N2715 C2718 1.350 . S
N2716 S2714 1.610 . S
N2716 C2717 1.351 . S
C2717 C2711 1.428 . S
C2717 N2716 1.351 . S
C2717 C2718 1.434 . S
C2718 C2709 1.429 . S
C2718 N2715 1.350 . S
C2718 C2717 1.434 . S
C2719 C2720 1.369 . S
C2719 C2721 1.419 . S
C2719 H2723 0.930 . S
C2720 C2719 1.369 . S
C2720 C2729 1.429 . S
C2721 C2719 1.419 . S
C2721 C2722 1.363 . S
C2721 H2724 0.929 . S
C2722 C2721 1.363 . S
C2722 C2728 1.428 . S
H2723 C2719 0.930 . S
H2724 C2721 0.929 . S
S2725 N2726 1.613 . S
S2725 N2727 1.610 . S
N2726 S2725 1.613 . S
N2726 C2729 1.350 . S
N2727 S2725 1.610 . S
N2727 C2728 1.351 . S
C2728 C2722 1.428 . S
C2728 N2727 1.351 . S
C2728 C2729 1.434 . S
C2729 C2720 1.429 . S
C2729 N2726 1.350 . S
C2729 C2728 1.434 . S
C2730 C2731 1.369 . S
C2730 C2732 1.419 . S
C2730 H2734 0.930 . S
C2731 C2730 1.369 . S
C2731 C2740 1.429 . S
C2732 C2730 1.419 . S
C2732 C2733 1.363 . S
C2732 H2735 0.929 . S
C2733 C2732 1.363 . S
C2733 C2739 1.428 . S
H2734 C2730 0.930 . S
H2735 C2732 0.929 . S
S2736 N2737 1.613 . S
S2736 N2738 1.610 . S
N2737 S2736 1.613 . S
N2737 C2740 1.350 . S
N2738 S2736 1.610 . S
N2738 C2739 1.351 . S
C2739 C2733 1.428 . S
C2739 N2738 1.351 . S
C2739 C2740 1.434 . S
C2740 C2731 1.429 . S
C2740 N2737 1.350 . S
C2740 C2739 1.434 . S
C2741 C2742 1.369 . S
C2741 C2743 1.419 . S
C2741 H2745 0.930 . S
C2742 C2741 1.369 . S
C2742 C2751 1.429 . S
C2743 C2741 1.419 . S
C2743 C2744 1.363 . S
C2743 H2746 0.929 . S
C2744 C2743 1.363 . S
C2744 C2750 1.428 . S
H2745 C2741 0.930 . S
H2746 C2743 0.929 . S
S2747 N2748 1.613 . S
S2747 N2749 1.610 . S
N2748 S2747 1.613 . S
N2748 C2751 1.350 . S
N2749 S2747 1.610 . S
N2749 C2750 1.351 . S
C2750 C2744 1.428 . S
C2750 N2749 1.351 . S
C2750 C2751 1.434 . S
C2751 C2742 1.429 . S
C2751 N2748 1.350 . S
C2751 C2750 1.434 . S
C2752 C2753 1.369 . S
C2752 C2754 1.419 . S
C2752 H2756 0.930 . S
C2753 C2752 1.369 . S
C2753 C2762 1.429 . S
C2754 C2752 1.419 . S
C2754 C2755 1.363 . S
C2754 H2757 0.929 . S
C2755 C2754 1.363 . S
C2755 C2761 1.428 . S
H2756 C2752 0.930 . S
H2757 C2754 0.929 . S
S2758 N2759 1.613 . S
S2758 N2760 1.610 . S
N2759 S2758 1.613 . S
N2759 C2762 1.350 . S
N2760 S2758 1.610 . S
N2760 C2761 1.351 . S
C2761 C2755 1.428 . S
C2761 N2760 1.351 . S
C2761 C2762 1.434 . S
C2762 C2753 1.429 . S
C2762 N2759 1.350 . S
C2762 C2761 1.434 . S
C2763 C2764 1.369 . S
C2763 C2765 1.419 . S
C2763 H2767 0.930 . S
C2764 C2763 1.369 . S
C2764 C2773 1.429 . S
C2765 C2763 1.419 . S
C2765 C2766 1.363 . S
C2765 H2768 0.929 . S
C2766 C2765 1.363 . S
C2766 C2772 1.428 . S
H2767 C2763 0.930 . S
H2768 C2765 0.929 . S
S2769 N2770 1.613 . S
S2769 N2771 1.610 . S
N2770 S2769 1.613 . S
N2770 C2773 1.350 . S
N2771 S2769 1.610 . S
N2771 C2772 1.351 . S
C2772 C2766 1.428 . S
C2772 N2771 1.351 . S
C2772 C2773 1.434 . S
C2773 C2764 1.429 . S
C2773 N2770 1.350 . S
C2773 C2772 1.434 . S
C2774 C2775 1.369 . S
C2774 C2776 1.419 . S
C2774 H2778 0.930 . S
C2775 C2774 1.369 . S
C2775 C2784 1.429 . S
C2776 C2774 1.419 . S
C2776 C2777 1.363 . S
C2776 H2779 0.929 . S
C2777 C2776 1.363 . S
C2777 C2783 1.428 . S
H2778 C2774 0.930 . S
H2779 C2776 0.929 . S
S2780 N2781 1.613 . S
S2780 N2782 1.610 . S
N2781 S2780 1.613 . S
N2781 C2784 1.350 . S
N2782 S2780 1.610 . S
N2782 C2783 1.351 . S
C2783 C2777 1.428 . S
C2783 N2782 1.351 . S
C2783 C2784 1.434 . S
C2784 C2775 1.429 . S
C2784 N2781 1.350 . S
C2784 C2783 1.434 . S
C2785 C2786 1.369 . S
C2785 C2787 1.419 . S
C2785 H2789 0.930 . S
C2786 C2785 1.369 . S
C2786 C2795 1.429 . S
C2787 C2785 1.419 . S
C2787 C2788 1.363 . S
C2787 H2790 0.929 . S
C2788 C2787 1.363 . S
C2788 C2794 1.428 . S
H2789 C2785 0.930 . S
H2790 C2787 0.929 . S
S2791 N2792 1.613 . S
S2791 N2793 1.610 . S
N2792 S2791 1.613 . S
N2792 C2795 1.350 . S
N2793 S2791 1.610 . S
N2793 C2794 1.351 . S
C2794 C2788 1.428 . S
C2794 N2793 1.351 . S
C2794 C2795 1.434 . S
C2795 C2786 1.429 . S
C2795 N2792 1.350 . S
C2795 C2794 1.434 . S
C2796 C2797 1.369 . S
C2796 C2798 1.419 . S
C2796 H2800 0.930 . S
C2797 C2796 1.369 . S
C2797 C2806 1.429 . S
C2798 C2796 1.419 . S
C2798 C2799 1.363 . S
C2798 H2801 0.929 . S
C2799 C2798 1.363 . S
C2799 C2805 1.428 . S
H2800 C2796 0.930 . S
H2801 C2798 0.929 . S
S2802 N2803 1.613 . S
S2802 N2804 1.610 . S
N2803 S2802 1.613 . S
N2803 C2806 1.350 . S
N2804 S2802 1.610 . S
N2804 C2805 1.351 . S
C2805 C2799 1.428 . S
C2805 N2804 1.351 . S
C2805 C2806 1.434 . S
C2806 C2797 1.429 . S
C2806 N2803 1.350 . S
C2806 C2805 1.434 . S
C2807 C2808 1.369 . S
C2807 C2809 1.419 . S
C2807 H2811 0.930 . S
C2808 C2807 1.369 . S
C2808 C2817 1.429 . S
C2809 C2807 1.419 . S
C2809 C2810 1.363 . S
C2809 H2812 0.929 . S
C2810 C2809 1.363 . S
C2810 C2816 1.428 . S
H2811 C2807 0.930 . S
H2812 C2809 0.929 . S
S2813 N2814 1.613 . S
S2813 N2815 1.610 . S
N2814 S2813 1.613 . S
N2814 C2817 1.350 . S
N2815 S2813 1.610 . S
N2815 C2816 1.351 . S
C2816 C2810 1.428 . S
C2816 N2815 1.351 . S
C2816 C2817 1.434 . S
C2817 C2808 1.429 . S
C2817 N2814 1.350 . S
C2817 C2816 1.434 . S
C2818 C2819 1.369 . S
C2818 C2820 1.419 . S
C2818 H2822 0.930 . S
C2819 C2818 1.369 . S
C2819 C2828 1.429 . S
C2820 C2818 1.419 . S
C2820 C2821 1.363 . S
C2820 H2823 0.929 . S
C2821 C2820 1.363 . S
C2821 C2827 1.428 . S
H2822 C2818 0.930 . S
H2823 C2820 0.929 . S
S2824 N2825 1.613 . S
S2824 N2826 1.610 . S
N2825 S2824 1.613 . S
N2825 C2828 1.350 . S
N2826 S2824 1.610 . S
N2826 C2827 1.351 . S
C2827 C2821 1.428 . S
C2827 N2826 1.351 . S
C2827 C2828 1.434 . S
C2828 C2819 1.429 . S
C2828 N2825 1.350 . S
C2828 C2827 1.434 . S
C2829 C2830 1.369 . S
C2829 C2831 1.419 . S
C2829 H2833 0.930 . S
C2830 C2829 1.369 . S
C2830 C2839 1.429 . S
C2831 C2829 1.419 . S
C2831 C2832 1.363 . S
C2831 H2834 0.929 . S
C2832 C2831 1.363 . S
C2832 C2838 1.428 . S
H2833 C2829 0.930 . S
H2834 C2831 0.929 . S
S2835 N2836 1.613 . S
S2835 N2837 1.610 . S
N2836 S2835 1.613 . S
N2836 C2839 1.350 . S
N2837 S2835 1.610 . S
N2837 C2838 1.351 . S
C2838 C2832 1.428 . S
C2838 N2837 1.351 . S
C2838 C2839 1.434 . S
C2839 C2830 1.429 . S
C2839 N2836 1.350 . S
C2839 C2838 1.434 . S
C1787 C1299 1.472 . S
C1785 C21 1.540 . S
C1798 C1310 1.410 . S
C1796 C42 1.542 . S
C1807 C82 1.532 . S
C1809 C1334 1.430 . S
C1820 C1355 1.400 . S
C1818 C135 1.550 . S
C1829 C175 1.510 . S
C1831 C1362 1.408 . S
C1840 C221 1.534 . S
C1842 C1292 1.423 . S
C1851 C255 1.549 . S
C1853 C1318 1.402 . S
C1864 C1341 1.481 . S
C1862 C301 1.594 . S
C1875 C1373 1.437 . S
C1873 C15 1.544 . S
C1884 C55 1.523 . S
C1886 C1394 1.399 . S
C1895 C101 1.551 . S
C1897 C1418 1.449 . S
C1908 C1436 1.433 . S
C1906 C141 1.564 . S
C1917 C162 1.502 . S
C1919 C1465 1.402 . S
C1930 C1486 1.418 . S
C1928 C215 1.561 . S
C1939 C261 1.581 . S
C1941 C1502 1.429 . S
C1952 C1523 1.411 . S
C1950 C282 1.567 . S
C1961 C2 1.517 . S
C1963 C1444 1.432 . S
C1972 C181 1.477 . S
C1974 C1478 1.407 . S
C1985 C1509 1.473 . S
C1983 C202 1.537 . S
C1994 C242 1.572 . S
C1996 C1530 1.462 . S
C2007 C1457 1.414 . S
C2005 C295 1.544 . S
C2018 C1402 1.438 . S
C2016 C95 1.574 . S
C2027 C122 1.557 . S
C2029 C1425 1.450 . S
C2040 C1381 1.393 . S
C2038 C61 1.553 . S
C2051 C1549 1.440 . S
C2049 C341 1.539 . S
C2060 C362 1.544 . S
C2062 C1565 1.379 . S
C2071 C402 1.523 . S
C2073 C1583 1.453 . S
C2084 C1604 1.444 . S
C2082 C455 1.563 . S
C2093 C495 1.517 . S
C2095 C1612 1.387 . S
C2104 C541 1.542 . S
C2106 C1541 1.471 . S
C2115 C575 1.544 . S
C2117 C1572 1.437 . S
C2126 C621 1.590 . S
C2128 C1591 1.452 . S
C2139 C1467 1.442 . S
C2137 C335 1.540 . S
C2148 C375 1.529 . S
C2150 C1625 1.406 . S
C2161 C1499 1.459 . S
C2159 C421 1.543 . S
C2170 C461 1.570 . S
C2172 C1654 1.416 . S
C2181 C482 1.501 . S
C2183 C1376 1.400 . S
C2194 C1670 1.422 . S
C2192 C535 1.567 . S
C2203 C581 1.567 . S
C2205 C1415 1.441 . S
C2216 C1698 1.460 . S
C2214 C602 1.562 . S
C2225 C322 1.523 . S
C2227 C1646 1.445 . S
C2238 C1677 1.417 . S
C2236 C501 1.489 . S
C2247 C522 1.547 . S
C2249 C1423 1.448 . S
C2260 C1691 1.408 . S
C2258 C562 1.565 . S
C2269 C615 1.543 . S
C2271 C1383 1.433 . S
C2280 C415 1.560 . S
C2282 C1633 1.416 . S
C2291 C442 1.573 . S
C2293 C1507 1.427 . S
C2302 C381 1.563 . S
C2304 C1460 1.390 . S
C2313 C661 1.541 . S
C2315 C1586 1.440 . S
C2326 C1607 1.381 . S
C2324 C682 1.543 . S
C2335 C722 1.529 . S
C2337 C1551 1.455 . S
C2346 C775 1.554 . S
C2348 C1562 1.433 . S
C2357 C815 1.514 . S
C2359 C1570 1.384 . S
C2368 C861 1.533 . S
C2370 C1593 1.466 . S
C2381 C1614 1.444 . S
C2379 C895 1.543 . S
C2390 C941 1.598 . S
C2392 C1544 1.453 . S
C2403 C1709 1.436 . S
C2401 C655 1.547 . S
C2412 C695 1.527 . S
C2414 C1488 1.409 . S
C2425 C1730 1.471 . S
C2423 C741 1.540 . S
C2434 C781 1.567 . S
C2436 C1520 1.434 . S
C2445 C802 1.502 . S
C2447 C1754 1.396 . S
C2456 C855 1.559 . S
C2458 C1397 1.410 . S
C2469 C1775 1.419 . S
C2467 C901 1.570 . S
C2478 C922 1.567 . S
C2480 C1439 1.406 . S
C2491 C1528 1.442 . S
C2489 C642 1.525 . S
C2502 C1404 1.424 . S
C2500 C821 1.489 . S
C2511 C842 1.535 . S
C2513 C1782 1.478 . S
C2522 C882 1.564 . S
C2524 C1446 1.454 . S
C2535 C1761 1.440 . S
C2533 C935 1.544 . S
C2546 C1481 1.415 . S
C2544 C735 1.560 . S
C2557 C1738 1.413 . S
C2555 C762 1.564 . S
C2568 C1717 1.385 . S
C2566 C701 1.559 . S
C2577 C981 1.536 . S
C2579 C1331 1.463 . S
C2588 C1002 1.539 . S
C2590 C1352 1.397 . S
C2601 C1297 1.427 . S
C2599 C1042 1.526 . S
C2612 C1313 1.409 . S
C2610 C1095 1.562 . S
C2623 C1320 1.401 . S
C2621 C1135 1.512 . S
C2634 C1339 1.431 . S
C2632 C1181 1.542 . S
C2645 C1360 1.403 . S
C2643 C1215 1.552 . S
C2654 C1261 1.588 . S
C2656 C1289 1.458 . S
C2665 C975 1.545 . S
C2667 C1751 1.432 . S
C2678 C1667 1.405 . S
C2676 C1015 1.524 . S
C2689 C1772 1.465 . S
C2687 C1061 1.550 . S
C2700 C1696 1.414 . S
C2698 C1101 1.571 . S
C2709 C1122 1.506 . S
C2711 C1712 1.390 . S
C2722 C1628 1.413 . S
C2720 C1175 1.559 . S
C2733 C1733 1.425 . S
C2731 C1221 1.579 . S
C2742 C1242 1.559 . S
C2744 C1656 1.447 . S
C2755 C1688 1.437 . S
C2753 C962 1.522 . S
C2766 C1635 1.421 . S
C2764 C1141 1.473 . S
C2777 C1740 1.473 . S
C2775 C1162 1.544 . S
C2786 C1202 1.578 . S
C2788 C1649 1.422 . S
C2797 C1255 1.535 . S
C2799 C1719 1.431 . S
C2808 C1055 1.568 . S
C2810 C1675 1.427 . S
C2819 C1082 1.570 . S
C2821 C1780 1.421 . S
C2832 C1759 1.386 . S
C2830 C1021 1.557 . S
