# Generated by pormake.
# Topology nom, (4,4)-cn, num edge types: 1
# Building blocks:
#     Node 0, Type 0, BuildingBlock: GIZVER_clean_linker_0, # of connection points: 4
#     Node 1, Type 0, BuildingBlock: GIZVER_clean_linker_0, # of connection points: 4
#     Node 2, Type 0, BuildingBlock: GIZVER_clean_linker_0, # of connection points: 4
#     Node 3, Type 0, BuildingBlock: GIZVER_clean_linker_0, # of connection points: 4
#     Node 4, Type 0, BuildingBlock: GIZVER_clean_linker_0, # of connection points: 4
#     Node 5, Type 0, BuildingBlock: GIZVER_clean_linker_0, # of connection points: 4
#     Node 6, Type 1, BuildingBlock: QUQFOY_clean_sbu_3, # of connection points: 4
#     Node 7, Type 1, BuildingBlock: QUQFOY_clean_sbu_3, # of connection points: 4
#     Node 8, Type 1, BuildingBlock: QUQFOY_clean_sbu_3, # of connection points: 4
#     Node 9, Type 1, BuildingBlock: QUQFOY_clean_sbu_3, # of connection points: 4
#     Node 10, Type 1, BuildingBlock: QUQFOY_clean_sbu_3, # of connection points: 4
#     Node 11, Type 1, BuildingBlock: QUQFOY_clean_sbu_3, # of connection points: 4
#     Edge 12, Type (0, 1), BuildingBlock: AJUNOK_clean_linker_0, # of connection points: 2
#     Edge 13, Type (0, 1), BuildingBlock: AJUNOK_clean_linker_0, # of connection points: 2
#     Edge 14, Type (0, 1), BuildingBlock: AJUNOK_clean_linker_0, # of connection points: 2
#     Edge 15, Type (0, 1), BuildingBlock: AJUNOK_clean_linker_0, # of connection points: 2
#     Edge 16, Type (0, 1), BuildingBlock: AJUNOK_clean_linker_0, # of connection points: 2
#     Edge 17, Type (0, 1), BuildingBlock: AJUNOK_clean_linker_0, # of connection points: 2
#     Edge 18, Type (0, 1), BuildingBlock: AJUNOK_clean_linker_0, # of connection points: 2
#     Edge 19, Type (0, 1), BuildingBlock: AJUNOK_clean_linker_0, # of connection points: 2
#     Edge 20, Type (0, 1), BuildingBlock: AJUNOK_clean_linker_0, # of connection points: 2
#     Edge 21, Type (0, 1), BuildingBlock: AJUNOK_clean_linker_0, # of connection points: 2
#     Edge 22, Type (0, 1), BuildingBlock: AJUNOK_clean_linker_0, # of connection points: 2
#     Edge 23, Type (0, 1), BuildingBlock: AJUNOK_clean_linker_0, # of connection points: 2
#     Edge 24, Type (0, 1), BuildingBlock: AJUNOK_clean_linker_0, # of connection points: 2
#     Edge 25, Type (0, 1), BuildingBlock: AJUNOK_clean_linker_0, # of connection points: 2
#     Edge 26, Type (0, 1), BuildingBlock: AJUNOK_clean_linker_0, # of connection points: 2
#     Edge 27, Type (0, 1), BuildingBlock: AJUNOK_clean_linker_0, # of connection points: 2
#     Edge 28, Type (0, 1), BuildingBlock: AJUNOK_clean_linker_0, # of connection points: 2
#     Edge 29, Type (0, 1), BuildingBlock: AJUNOK_clean_linker_0, # of connection points: 2
#     Edge 30, Type (0, 1), BuildingBlock: AJUNOK_clean_linker_0, # of connection points: 2
#     Edge 31, Type (0, 1), BuildingBlock: AJUNOK_clean_linker_0, # of connection points: 2
#     Edge 32, Type (0, 1), BuildingBlock: AJUNOK_clean_linker_0, # of connection points: 2
#     Edge 33, Type (0, 1), BuildingBlock: AJUNOK_clean_linker_0, # of connection points: 2
#     Edge 34, Type (0, 1), BuildingBlock: AJUNOK_clean_linker_0, # of connection points: 2
#     Edge 35, Type (0, 1), BuildingBlock: AJUNOK_clean_linker_0, # of connection points: 2
# Relax obj value: 0.003
# Max RMSD: 0.071
# Mean RMSD: 0.047
data_MOF--net-nom--node1-QUQFOY_clean_sbu_3--node2-GIZVER_clean_linker_0--edge1-AJUNOK_clean_linker_0
_symmetry_space_group_name_H-M    P1
_symmetry_Int_Tables_number       1
_symmetry_cell_setting            triclinic
loop_
_symmetry_equiv_pos_as_xyz
'x, y, z'
_cell_length_a     34.804394
_cell_length_b     35.430837
_cell_length_c     35.657674
_cell_angle_alpha  89.936121
_cell_angle_beta   90.030011
_cell_angle_gamma 120.09029
loop_
_atom_site_label
_atom_site_type_symbol
_atom_site_fract_x
_atom_site_fract_y
_atom_site_fract_z
_atom_type_partial_charge
H0 H 0.93318 0.5501 0.35658 0.0
H1 H 0.96724 0.56627 0.23972 0.0
H2 H 0.84606 0.45462 0.27685 0.0
H3 H 0.9909 0.61901 0.3338 0.0
H4 H 0.99759 0.62874 0.28456 0.0
H5 H 0.0275 0.58093 0.36547 0.0
H6 H 0.15573 0.6192 0.31923 0.0
H7 H 0.05942 0.63119 0.2528 0.0
C8 C 0.92636 0.53732 0.32824 0.0
C9 C 0.88619 0.49896 0.32035 0.0
C10 C 0.95613 0.56117 0.29925 0.0
C11 C 0.94579 0.54609 0.26217 0.0
C12 C 0.9062 0.50737 0.25385 0.0
C13 C 0.87742 0.48351 0.28333 0.0
C14 C 0.99536 0.60576 0.3069 0.0
C15 C 0.03816 0.60483 0.30854 0.0
C16 C 0.05025 0.59232 0.34191 0.0
C17 C 0.09261 0.59713 0.3457 0.0
C18 C 0.12208 0.61286 0.31537 0.0
C19 C 0.11049 0.62495 0.28165 0.0
C20 C 0.06817 0.6205 0.27826 0.0
H21 H 0.38336 0.92672 0.52553 0.0
H22 H 0.41311 0.9795 0.41347 0.0
H23 H 0.39953 0.85467 0.4362 0.0
H24 H 0.37703 0.98965 0.51078 0.0
H25 H 0.37063 0.99891 0.46258 0.0
H26 H 0.44882 0.0321 0.54208 0.0
H27 H 0.54493 0.15099 0.4889 0.0
H28 H 0.43392 0.05499 0.4255 0.0
C29 C 0.39171 0.92468 0.49661 0.0
C30 C 0.39308 0.88763 0.48434 0.0
C31 C 0.39935 0.95825 0.47112 0.0
C32 C 0.40855 0.95451 0.43342 0.0
C33 C 0.40982 0.91771 0.42092 0.0
C34 C 0.40195 0.88458 0.44647 0.0
C35 C 0.39327 0.99585 0.4828 0.0
C36 C 0.43698 0.03823 0.4835 0.0
C37 C 0.46117 0.05221 0.51714 0.0
C38 C 0.50014 0.09292 0.51908 0.0
C39 C 0.5158 0.11873 0.48684 0.0
C40 C 0.49249 0.10547 0.4529 0.0
C41 C 0.45286 0.06504 0.45131 0.0
H42 H 0.39812 0.44428 0.5936 0.0
H43 H 0.43979 0.46419 0.70879 0.0
H44 H 0.42492 0.56204 0.65032 0.0
H45 H 0.38649 0.38302 0.63407 0.0
H46 H 0.40514 0.39203 0.68152 0.0
H47 H 0.43943 0.39884 0.58168 0.0
H48 H 0.55623 0.3931 0.60964 0.0
H49 H 0.47882 0.40535 0.69741 0.0
C50 C 0.40998 0.4653 0.61799 0.0
C51 C 0.41056 0.50532 0.6177 0.0
C52 C 0.42148 0.45079 0.6506 0.0
C53 C 0.43369 0.47665 0.68305 0.0
C54 C 0.43423 0.51653 0.68326 0.0
C55 C 0.42493 0.5315 0.64996 0.0
C56 C 0.41457 0.40525 0.65256 0.0
C57 C 0.45572 0.40447 0.64073 0.0
C58 C 0.46304 0.40063 0.60245 0.0
C59 C 0.49903 0.39599 0.59133 0.0
C60 C 0.52886 0.3975 0.61837 0.0
C61 C 0.522 0.40072 0.65659 0.0
C62 C 0.48525 0.40428 0.66781 0.0
H63 H 0.96996 0.39461 0.75804 0.0
H64 H 0.99201 0.44026 0.87228 0.0
H65 H 0.87025 0.40874 0.81664 0.0
H66 H 0.02561 0.39039 0.79723 0.0
H67 H 0.03325 0.40763 0.84499 0.0
H68 H 0.04782 0.45396 0.74688 0.0
H69 H 0.18215 0.55373 0.76913 0.0
H70 H 0.10076 0.47122 0.85862 0.0
C71 C 0.95957 0.40527 0.78254 0.0
C72 C 0.91789 0.40252 0.78271 0.0
C73 C 0.98679 0.41942 0.81466 0.0
C74 C 0.97195 0.43088 0.84703 0.0
C75 C 0.93019 0.42784 0.84756 0.0
C76 C 0.90374 0.41405 0.8153 0.0
C77 C 0.02865 0.41672 0.81613 0.0
C78 C 0.06909 0.45889 0.80436 0.0
C79 C 0.0745 0.47204 0.76664 0.0
C80 C 0.11515 0.50657 0.75385 0.0
C81 C 0.14991 0.52901 0.77945 0.0
C82 C 0.14504 0.51687 0.81735 0.0
C83 C 0.10428 0.48192 0.8297 0.0
H84 H 0.62586 0.09481 0.02114 0.0
H85 H 0.61817 0.05941 0.90488 0.0
H86 H 0.61192 0.1731 0.93613 0.0
H87 H 0.64478 0.04034 0.00118 0.0
H88 H 0.64777 0.03059 0.95249 0.0
H89 H 0.57259 1.00248 0.03474 0.0
H90 H 0.47839 0.87732 -0.00979 0.0
H91 H 0.58512 0.96983 0.92064 0.0
C92 C 0.62059 0.09998 -0.00793 0.0
C93 C 0.61782 0.13699 -0.01791 0.0
C94 C 0.6191 0.07099 0.96422 0.0
C95 C 0.61588 0.07985 0.92632 0.0
C96 C 0.61358 0.11687 0.91606 0.0
C97 C 0.6126 0.14394 0.9442 0.0
C98 C 0.62653 0.03375 0.97414 0.0
C99 C 0.58312 0.99132 0.97709 0.0
C100 C 0.55998 0.98002 0.0113 0.0
C101 C 0.52203 0.93897 0.01592 0.0
C102 C 0.5064 0.90987 -0.01421 0.0
C103 C 0.5287 0.92033 0.95131 0.0
C104 C 0.56704 0.96153 0.9469 0.0
H105 H 0.63764 0.59456 0.10301 0.0
H106 H 0.60313 0.57611 0.22007 0.0
H107 H 0.62239 0.48144 0.16082 0.0
H108 H 0.64747 0.65595 0.14339 0.0
H109 H 0.62939 0.64659 0.19108 0.0
H110 H 0.58675 0.61986 0.09151 0.0
H111 H 0.47287 0.63171 0.11561 0.0
H112 H 0.56049 0.6426 0.20513 0.0
C113 C 0.62905 0.57467 0.12807 0.0
C114 C 0.63155 0.53626 0.12789 0.0
C115 C 0.61786 0.58877 0.16109 0.0
C116 C 0.60929 0.56411 0.19412 0.0
C117 C 0.61181 0.52579 0.19429 0.0
C118 C 0.62063 0.51111 0.16067 0.0
C119 C 0.62055 0.63268 0.16232 0.0
C120 C 0.57755 0.62954 0.15005 0.0
C121 C 0.56565 0.62328 0.11189 0.0
C122 C 0.52718 0.62278 0.09976 0.0
C123 C 0.50092 0.62918 0.1257 0.0
C124 C 0.51237 0.63621 0.16372 0.0
C125 C 0.55075 0.63613 0.17592 0.0
C126 C 0.71884 0.43488 0.39574 0.0
O127 O 0.7116 0.46169 0.41355 0.0
Cd128 Cd 0.63922 0.45062 0.42529 0.0
O129 O 0.6864 0.3988 0.38425 0.0
Cd130 Cd 0.60326 0.36048 0.38754 0.0
C131 C 0.60599 0.43903 0.33387 0.0
O132 O 0.59604 0.37924 0.45102 0.0
O133 O 0.53926 0.36245 0.41576 0.0
O134 O 0.60479 0.29355 0.39867 0.0
C135 C 0.55575 0.36905 0.4484 0.0
O136 O 0.61384 0.461 0.36396 0.0
C137 C 0.56954 0.26865 0.38067 0.0
O138 O 0.60413 0.40224 0.33352 0.0
O139 O 0.55125 0.28686 0.36335 0.0
C140 C 0.29298 0.54667 0.53771 0.0
O141 O 0.25702 0.5164 0.52396 0.0
Cd142 Cd 0.19274 0.52236 0.51187 0.0
O143 O 0.29727 0.5839 0.54485 0.0
Cd144 Cd 0.2516 0.62024 0.53825 0.0
C145 C 0.17713 0.54976 0.60056 0.0
O146 O 0.21606 0.58861 0.47806 0.0
O147 O 0.18746 0.61991 0.51008 0.0
O148 O 0.3187 0.68746 0.51955 0.0
C149 C 0.18855 0.60209 0.47967 0.0
O150 O 0.1631 0.52185 0.57414 0.0
C151 C 0.31129 0.71276 0.53958 0.0
O152 O 0.21063 0.58765 0.5957 0.0
O153 O 0.277 0.6949 0.56025 0.0
C154 C 0.75986 0.29279 0.69993 0.0
O155 O 0.75201 0.25597 0.68756 0.0
Cd156 Cd 0.67907 0.19506 0.67519 0.0
O157 O 0.72804 0.29982 0.70675 0.0
Cd158 Cd 0.64587 0.25981 0.70366 0.0
C159 C 0.64007 0.18347 0.7641 0.0
O160 O 0.63737 0.22261 0.64422 0.0
O161 O 0.57799 0.19953 0.67738 0.0
O162 O 0.64774 0.3277 0.68726 0.0
C163 C 0.59573 0.19768 0.64697 0.0
O164 O 0.648 0.16504 0.73697 0.0
C165 C 0.61752 0.32274 0.7101 0.0
O166 O 0.64147 0.21982 0.75993 0.0
O167 O 0.60146 0.28913 0.73092 0.0
C168 C 0.31652 0.58012 0.88725 0.0
O169 O 0.324 0.55113 0.90055 0.0
Cd170 Cd 0.39451 0.55994 0.91631 0.0
O171 O 0.34851 0.61893 0.8816 0.0
Cd172 Cd 0.43142 0.66014 0.89006 0.0
C173 C 0.43908 0.59115 0.82874 0.0
O174 O 0.42814 0.62669 0.94944 0.0
O175 O 0.49414 0.664 0.92729 0.0
O176 O 0.42516 0.72444 0.90386 0.0
C177 C 0.46916 0.64152 0.95404 0.0
O178 O 0.42792 0.56345 0.85519 0.0
C179 C 0.46108 0.75161 0.88767 0.0
O180 O 0.43989 0.62716 0.83333 0.0
O181 O 0.4822 0.736 0.87091 0.0
C182 C 0.73589 0.48412 0.04073 0.0
O183 O 0.77419 0.51193 0.02877 0.0
Cd184 Cd 0.83353 0.49899 0.01373 0.0
O185 O 0.72546 0.44429 0.04511 0.0
Cd186 Cd 0.76405 0.40119 0.03693 0.0
C187 C 0.84187 0.4649 0.10071 0.0
O188 O 0.80081 0.43371 -0.02225 0.0
O189 O 0.82514 0.39656 0.00652 0.0
O190 O 0.69406 0.33556 0.01947 0.0
C191 C 0.82579 0.41733 0.97736 0.0
O192 O 0.8623 0.49253 0.07477 0.0
C193 C 0.70047 0.30953 0.03955 0.0
O194 O 0.80406 0.43133 0.09499 0.0
O195 O 0.73535 0.32643 0.05952 0.0
C196 C 0.2728 0.74341 0.20627 0.0
O197 O 0.27825 0.77891 0.19265 0.0
Cd198 Cd 0.34917 0.84184 0.18048 0.0
O199 O 0.30622 0.739 0.21367 0.0
Cd200 Cd 0.38879 0.78197 0.2084 0.0
C201 C 0.39406 0.8579 0.26862 0.0
O202 O 0.39258 0.81689 0.14844 0.0
O203 O 0.45392 0.84247 0.17918 0.0
O204 O 0.38835 0.71475 0.19212 0.0
C205 C 0.43413 0.84292 0.14955 0.0
O206 O 0.37909 0.87152 0.2425 0.0
C207 C 0.42031 0.72138 0.21355 0.0
O208 O 0.39802 0.8244 0.26409 0.0
O209 O 0.43682 0.75562 0.23351 0.0
C210 C 0.15472 0.69117 0.24221 0.0
C211 C 0.14597 0.64959 0.25359 0.0
C212 C 0.19471 0.72029 0.22446 0.0
C213 C 0.22764 0.70908 0.21774 0.0
H214 H 0.1321 0.70261 0.24958 0.0
H215 H 0.20098 0.75285 0.21833 0.0
S216 S 0.21667 0.60078 0.23494 0.0
N217 N 0.17004 0.59601 0.25128 0.0
N218 N 0.24573 0.65106 0.21859 0.0
C219 C 0.21755 0.66622 0.2259 0.0
C220 C 0.17658 0.6364 0.24361 0.0
C221 C 0.55369 0.16087 0.41309 0.0
C222 C 0.50805 0.13768 0.42173 0.0
C223 C 0.57306 0.2019 0.39586 0.0
C224 C 0.54735 0.2208 0.38591 0.0
H225 H 0.57527 0.14919 0.42312 0.0
H226 H 0.60888 0.22039 0.39307 0.0
S227 S 0.42509 0.16937 0.39518 0.0
N228 N 0.43674 0.13364 0.41395 0.0
N229 N 0.47289 0.21013 0.38024 0.0
C230 C 0.50091 0.19543 0.38977 0.0
C231 C 0.48125 0.15386 0.40795 0.0
C232 C 0.34381 0.48262 0.57746 0.0
C233 C 0.38666 0.51537 0.58815 0.0
C234 C 0.31491 0.49289 0.55866 0.0
C235 C 0.3274 0.53639 0.5502 0.0
H236 H 0.33102 0.44914 0.58624 0.0
H237 H 0.28142 0.4667 0.55318 0.0
S238 S 0.43919 0.633 0.56442 0.0
N239 N 0.44291 0.59207 0.58267 0.0
N240 N 0.38786 0.61161 0.54854 0.0
C241 C 0.37142 0.56898 0.55762 0.0
C242 C 0.40121 0.55839 0.57622 0.0
C243 C 0.87493 0.33838 0.74085 0.0
C244 C 0.88518 0.38041 0.75216 0.0
C245 C 0.83588 0.31134 0.72093 0.0
C246 C 0.80551 0.32527 0.71195 0.0
H247 H 0.89522 0.32488 0.75009 0.0
H248 H 0.82789 0.27817 0.71521 0.0
S249 S 0.82238 0.4361 0.7277 0.0
N250 N 0.86617 0.43751 0.74712 0.0
N251 N 0.79229 0.38651 0.71026 0.0
C252 C 0.81773 0.3688 0.71972 0.0
C253 C 0.85771 0.39642 0.73966 0.0
C254 C 0.46841 0.85754 0.91627 0.0
C255 C 0.51417 0.88472 0.92317 0.0
C256 C 0.45157 0.8154 0.90181 0.0
C257 C 0.47993 0.79919 0.89284 0.0
H258 H 0.44508 0.8675 0.92524 0.0
H259 H 0.41589 0.79443 0.89986 0.0
S260 S 0.60294 0.86009 0.89907 0.0
N261 N 0.58794 0.89436 0.91547 0.0
N262 N 0.55647 0.8158 0.88677 0.0
C263 C 0.52608 0.82782 0.89538 0.0
C264 C 0.5432 0.87055 0.91081 0.0
C265 C 0.6361 0.48165 0.08614 0.0
C266 C 0.65288 0.52549 0.09666 0.0
C267 C 0.66201 0.46876 0.0657 0.0
C268 C 0.70554 0.49929 0.05451 0.0
H269 H 0.60376 0.45665 0.09595 0.0
H270 H 0.64861 0.43429 0.06042 0.0
S271 S 0.76245 0.61918 0.06974 0.0
N272 N 0.71406 0.60005 0.09088 0.0
N273 N 0.76194 0.57631 0.05118 0.0
C274 C 0.72095 0.54382 0.06153 0.0
C275 C 0.6948 0.55682 0.08285 0.0
C276 C 0.33732 0.8292 0.52638 0.0
C277 C 0.37897 0.84864 0.50855 0.0
C278 C 0.31709 0.78602 0.53948 0.0
C279 C 0.33763 0.76074 0.53479 0.0
H280 H 0.31861 0.84608 0.52743 0.0
H281 H 0.28367 0.77136 0.55058 0.0
S282 S 0.4509 0.7998 0.49758 0.0
N283 N 0.44337 0.84204 0.4931 0.0
N284 N 0.40485 0.76058 0.51667 0.0
C285 C 0.38105 0.78123 0.52042 0.0
C286 C 0.40187 0.82529 0.50764 0.0
C287 C 0.52811 0.35302 0.70451 0.0
C288 C 0.54907 0.39168 0.68331 0.0
C289 C 0.55184 0.33292 0.71684 0.0
C290 C 0.59713 0.3507 0.70798 0.0
H291 H 0.49237 0.33573 0.70806 0.0
H292 H 0.53355 0.30119 0.73007 0.0
S293 S 0.66926 0.45729 0.66195 0.0
N294 N 0.61915 0.45154 0.66094 0.0
N295 N 0.66367 0.41348 0.68344 0.0
C296 C 0.61947 0.39212 0.69113 0.0
C297 C 0.59544 0.41278 0.67908 0.0
C298 C 0.19565 0.50712 0.86072 0.0
C299 C 0.18512 0.53548 0.84167 0.0
C300 C 0.23737 0.52246 0.87716 0.0
C301 C 0.27055 0.56682 0.87506 0.0
H302 H 0.17254 0.47231 0.86097 0.0
H303 H 0.24421 0.49872 0.88998 0.0
S304 S 0.25675 0.65559 0.8338 0.0
N305 N 0.20882 0.61079 0.82589 0.0
N306 N 0.28775 0.63977 0.85631 0.0
C307 C 0.25929 0.59607 0.85847 0.0
C308 C 0.21653 0.58037 0.84187 0.0
C309 C 0.67112 0.19215 0.02728 0.0
C310 C 0.63005 0.1738 0.00855 0.0
C311 C 0.69196 0.23521 0.0406 0.0
C312 C 0.67269 0.26155 0.03524 0.0
H313 H 0.68934 0.17479 0.02844 0.0
H314 H 0.72512 0.24902 0.05211 0.0
S315 S 0.56049 0.22514 -0.00324 0.0
N316 N 0.56684 0.18216 -0.00752 0.0
N317 N 0.60665 0.26355 0.01635 0.0
C318 C 0.62947 0.24197 0.02053 0.0
C319 C 0.60793 0.19791 0.0076 0.0
C320 C 0.51012 0.69167 0.20532 0.0
C321 C 0.48742 0.65047 0.18808 0.0
C322 C 0.48734 0.713 0.2169 0.0
C323 C 0.44127 0.69399 0.21116 0.0
H324 H 0.54606 0.70925 0.20672 0.0
H325 H 0.50656 0.74607 0.22733 0.0
S326 S 0.36553 0.5824 0.17564 0.0
N327 N 0.41552 0.58809 0.17261 0.0
N328 N 0.37289 0.62864 0.19333 0.0
C329 C 0.41771 0.65095 0.19781 0.0
C330 C 0.44076 0.62902 0.18663 0.0
C331 C 0.8383 0.50896 0.36661 0.0
C332 C 0.84908 0.48051 0.34798 0.0
C333 C 0.79725 0.49336 0.3844 0.0
C334 C 0.76499 0.44868 0.38396 0.0
H335 H 0.86022 0.54395 0.36502 0.0
H336 H 0.78976 0.51705 0.39629 0.0
S337 S 0.7807 0.35972 0.34632 0.0
N338 N 0.8274 0.40485 0.33596 0.0
N339 N 0.74948 0.37549 0.3685 0.0
C340 C 0.77688 0.41945 0.36847 0.0
C341 C 0.81908 0.43537 0.35074 0.0
C342 C 0.13298 0.56941 0.38448 0.0
C343 C 0.10949 0.59209 0.38241 0.0
C344 C 0.15723 0.57165 0.41656 0.0
C345 C 0.15889 0.59664 0.44781 0.0
H346 H 0.13405 0.55121 0.36049 0.0
H347 H 0.17584 0.55466 0.41637 0.0
S348 S 0.10116 0.66036 0.45715 0.0
N349 N 0.08798 0.63901 0.41473 0.0
N350 N 0.13286 0.64266 0.47538 0.0
C351 C 0.13373 0.61774 0.4468 0.0
C352 C 0.10914 0.61555 0.41403 0.0
C353 C 0.56902 0.13198 0.55742 0.0
C354 C 0.52254 0.11195 0.55512 0.0
C355 C 0.59227 0.15863 0.58781 0.0
C356 C 0.56988 0.16615 0.6171 0.0
H357 H 0.5877 0.1285 0.53471 0.0
H358 H 0.62817 0.17436 0.58778 0.0
S359 S 0.44794 0.11919 0.62529 0.0
N360 N 0.45469 0.09986 0.58526 0.0
N361 N 0.49825 0.14937 0.64289 0.0
C362 C 0.52317 0.14447 0.61609 0.0
C363 C 0.49951 0.11743 0.585 0.0
C364 C 0.46964 0.54406 0.74643 0.0
C365 C 0.43802 0.53929 0.7193 0.0
C366 C 0.47102 0.56219 0.78175 0.0
C367 C 0.44163 0.57715 0.7906 0.0
H368 H 0.49295 0.53303 0.74055 0.0
H369 H 0.49481 0.56411 0.80237 0.0
S370 S 0.35055 0.56938 0.73139 0.0
N371 N 0.37434 0.54824 0.70552 0.0
N372 N 0.37931 0.58487 0.77074 0.0
C373 C 0.41041 0.57323 0.76381 0.0
C374 C 0.40802 0.5537 0.72842 0.0
C375 C 0.90725 0.40638 0.91404 0.0
C376 C 0.91042 0.43215 0.8829 0.0
C377 C 0.88079 0.40279 0.94497 0.0
C378 C 0.85651 0.42478 0.94583 0.0
H379 H 0.92338 0.387 0.91365 0.0
H380 H 0.87815 0.38136 0.96775 0.0
S381 S 0.85833 0.50075 0.873 0.0
N382 N 0.89075 0.48322 0.85612 0.0
N383 N 0.84081 0.47652 0.91407 0.0
C384 C 0.86142 0.45257 0.91566 0.0
C385 C 0.88844 0.45625 0.88427 0.0
C386 C 0.45492 0.9015 0.05652 0.0
C387 C 0.50139 0.92291 0.05309 0.0
C388 C 0.43355 0.87695 0.08845 0.0
C389 C 0.4579 0.87296 0.11816 0.0
H390 H 0.43483 0.90208 0.03354 0.0
H391 H 0.3976 0.85987 0.08926 0.0
S392 S 0.58067 0.92532 0.12385 0.0
N393 N 0.57132 0.94048 0.08266 0.0
N394 N 0.53133 0.89496 0.14313 0.0
C395 C 0.50459 0.8963 0.11599 0.0
C396 C 0.52631 0.9212 0.08335 0.0
C397 C 0.5773 0.49473 0.25708 0.0
C398 C 0.61025 0.50347 0.23005 0.0
C399 C 0.57568 0.47354 0.29086 0.0
C400 C 0.60637 0.45972 0.29815 0.0
H401 H 0.55254 0.50411 0.252 0.0
H402 H 0.55012 0.46756 0.31121 0.0
S403 S 0.70208 0.47907 0.2392 0.0
N404 N 0.67715 0.50056 0.21521 0.0
N405 N 0.67211 0.45853 0.27753 0.0
C406 C 0.6397 0.4687 0.27183 0.0
C407 C 0.64215 0.49114 0.23804 0.0
C408 C 0.38493 0.91489 0.35481 0.0
C409 C 0.41305 0.91034 0.38048 0.0
C410 C 0.38075 0.8999 0.3179 0.0
C411 C 0.40416 0.87942 0.30559 0.0
H412 H 0.36403 0.92775 0.36384 0.0
H413 H 0.35713 0.90217 0.2996 0.0
S414 S 0.48781 0.86662 0.36003 0.0
N415 N 0.46922 0.88959 0.38963 0.0
N416 N 0.46058 0.86036 0.32046 0.0
C417 C 0.43462 0.87737 0.33022 0.0
C418 C 0.43927 0.89313 0.36762 0.0
C419 C 0.51131 0.34968 0.54628 0.0
C420 C 0.50425 0.38503 0.55235 0.0
C421 C 0.52565 0.34333 0.51157 0.0
C422 C 0.53215 0.37129 0.48146 0.0
H423 H 0.50799 0.3281 0.56918 0.0
H424 H 0.53337 0.3174 0.50866 0.0
S425 S 0.51413 0.46578 0.4813 0.0
N426 N 0.502 0.44657 0.52457 0.0
N427 N 0.52764 0.43349 0.45848 0.0
C428 C 0.52212 0.40474 0.48608 0.0
C429 C 0.50821 0.41177 0.52178 0.0
C430 C 0.14684 0.55964 0.70074 0.0
C431 C 0.12418 0.51611 0.71324 0.0
C432 C 0.16251 0.57012 0.66387 0.0
C433 C 0.15589 0.53743 0.63799 0.0
H434 H 0.15376 0.58594 0.72 0.0
H435 H 0.18085 0.6042 0.65588 0.0
S436 S 0.09746 0.41821 0.65647 0.0
N437 N 0.09527 0.44 0.69672 0.0
N438 N 0.12364 0.45949 0.62715 0.0
C439 C 0.13155 0.49359 0.64967 0.0
C440 C 0.11594 0.48297 0.68735 0.0
C441 C 0.64918 0.17612 0.8685 0.0
C442 C 0.61942 0.13182 0.87648 0.0
C443 C 0.65517 0.19228 0.83204 0.0
C444 C 0.63276 0.16461 0.80187 0.0
H445 H 0.66836 0.19871 0.89062 0.0
H446 H 0.67814 0.22668 0.82736 0.0
S447 S 0.55183 0.04616 0.80683 0.0
N448 N 0.5669 0.06057 0.85084 0.0
N449 N 0.58021 0.09093 0.78154 0.0
C450 C 0.60383 0.1201 0.80891 0.0
C451 C 0.59677 0.10367 0.84639 0.0
C452 C 0.54504 0.65333 0.03491 0.0
C453 C 0.51581 0.62051 0.05963 0.0
C454 C 0.53047 0.65856 -0.0004 0.0
C455 C 0.48619 0.63131 -0.01178 0.0
H456 H 0.57837 0.67687 0.0439 0.0
H457 H 0.55324 0.68566 -0.01786 0.0
S458 S 0.39929 0.53587 0.0405 0.0
N459 N 0.44281 0.55705 0.06864 0.0
N460 N 0.41513 0.56674 0.00254 0.0
C461 C 0.45782 0.59628 0.01162 0.0
C462 C 0.47274 0.59089 0.04728 0.0
C463 C 0.84651 0.48129 0.20519 0.0
C464 C 0.89108 0.49519 0.21435 0.0
C465 C 0.83092 0.47048 0.16848 0.0
C466 C 0.85948 0.47441 0.13914 0.0
H467 H 0.8234 0.47957 0.22639 0.0
H468 H 0.79644 0.46025 0.16284 0.0
S469 S 0.97846 0.50789 0.14736 0.0
N470 N 0.96307 0.51022 0.19072 0.0
N471 N 0.93396 0.49237 0.12099 0.0
C472 C 0.90407 0.48847 0.14741 0.0
C473 C 0.91984 0.49836 0.18516 0.0
loop_
_geom_bond_atom_site_label_1
_geom_bond_atom_site_label_2
_geom_bond_distance
_geom_bond_site_symmetry_2
_ccdc_geom_bond_type
H0 C8 0.930 . S
H1 C11 0.930 . S
H2 C13 0.930 . S
H3 C14 0.970 . S
H4 C14 0.970 . S
H5 C16 0.930 . S
H6 C18 0.930 . S
H7 C20 0.930 . S
C8 H0 0.930 . S
C8 C9 1.382 . S
C8 C10 1.426 . S
C9 C8 1.382 . S
C9 C13 1.389 . S
C10 C8 1.426 . S
C10 C11 1.375 . S
C10 C14 1.532 1_655 S
C11 H1 0.930 . S
C11 C10 1.375 . S
C11 C12 1.416 . S
C12 C11 1.416 . S
C12 C13 1.371 . S
C13 H2 0.930 . S
C13 C9 1.389 . S
C13 C12 1.371 . S
C14 H3 0.970 . S
C14 H4 0.970 . S
C14 C10 1.532 1_455 S
C14 C15 1.499 . S
C15 C14 1.499 . S
C15 C16 1.370 . S
C15 C20 1.415 . S
C16 H5 0.930 . S
C16 C15 1.370 . S
C16 C17 1.407 . S
C17 C16 1.407 . S
C17 C18 1.365 . S
C18 H6 0.930 . S
C18 C17 1.365 . S
C18 C19 1.393 . S
C19 C18 1.393 . S
C19 C20 1.387 . S
C20 H7 0.930 . S
C20 C15 1.415 . S
C20 C19 1.387 . S
H21 C29 0.930 . S
H22 C32 0.930 . S
H23 C34 0.930 . S
H24 C35 0.969 . S
H25 C35 0.970 . S
H26 C37 0.930 . S
H27 C39 0.930 . S
H28 C41 0.930 . S
C29 H21 0.930 . S
C29 C30 1.382 . S
C29 C31 1.426 . S
C30 C29 1.382 . S
C30 C34 1.389 . S
C31 C29 1.426 . S
C31 C32 1.375 . S
C31 C35 1.532 1_565 S
C32 H22 0.930 . S
C32 C31 1.375 . S
C32 C33 1.416 . S
C33 C32 1.416 . S
C33 C34 1.371 . S
C34 H23 0.930 . S
C34 C30 1.389 . S
C34 C33 1.371 . S
C35 H24 0.969 . S
C35 H25 0.970 . S
C35 C31 1.532 1_545 S
C35 C36 1.499 . S
C36 C35 1.499 . S
C36 C37 1.370 . S
C36 C41 1.415 . S
C37 H26 0.930 . S
C37 C36 1.370 . S
C37 C38 1.407 . S
C38 C37 1.407 . S
C38 C39 1.365 . S
C39 H27 0.930 . S
C39 C38 1.365 . S
C39 C40 1.393 . S
C40 C39 1.393 . S
C40 C41 1.387 . S
C41 H28 0.930 . S
C41 C36 1.415 . S
C41 C40 1.387 . S
H42 C50 0.930 . S
H43 C53 0.930 . S
H44 C55 0.930 . S
H45 C56 0.970 . S
H46 C56 0.970 . S
H47 C58 0.930 . S
H48 C60 0.930 . S
H49 C62 0.930 . S
C50 H42 0.930 . S
C50 C51 1.382 . S
C50 C52 1.426 . S
C51 C50 1.382 . S
C51 C55 1.389 . S
C52 C50 1.426 . S
C52 C53 1.375 . S
C52 C56 1.532 . S
C53 H43 0.930 . S
C53 C52 1.375 . S
C53 C54 1.416 . S
C54 C53 1.416 . S
C54 C55 1.371 . S
C55 H44 0.930 . S
C55 C51 1.389 . S
C55 C54 1.371 . S
C56 H45 0.970 . S
C56 H46 0.970 . S
C56 C52 1.532 . S
C56 C57 1.499 . S
C57 C56 1.499 . S
C57 C58 1.370 . S
C57 C62 1.415 . S
C58 H47 0.930 . S
C58 C57 1.370 . S
C58 C59 1.407 . S
C59 C58 1.407 . S
C59 C60 1.365 . S
C60 H48 0.930 . S
C60 C59 1.365 . S
C60 C61 1.393 . S
C61 C60 1.393 . S
C61 C62 1.387 . S
C62 H49 0.930 . S
C62 C57 1.415 . S
C62 C61 1.387 . S
H63 C71 0.930 . S
H64 C74 0.930 . S
H65 C76 0.930 . S
H66 C77 0.968 . S
H67 C77 0.970 . S
H68 C79 0.930 . S
H69 C81 0.930 . S
H70 C83 0.930 . S
C71 H63 0.930 . S
C71 C72 1.382 . S
C71 C73 1.426 . S
C72 C71 1.382 . S
C72 C76 1.389 . S
C73 C71 1.426 . S
C73 C74 1.375 . S
C73 C77 1.532 1_655 S
C74 H64 0.930 . S
C74 C73 1.375 . S
C74 C75 1.416 . S
C75 C74 1.416 . S
C75 C76 1.371 . S
C76 H65 0.930 . S
C76 C72 1.389 . S
C76 C75 1.371 . S
C77 H66 0.968 . S
C77 H67 0.970 . S
C77 C73 1.532 1_455 S
C77 C78 1.499 . S
C78 C77 1.499 . S
C78 C79 1.370 . S
C78 C83 1.415 . S
C79 H68 0.930 . S
C79 C78 1.370 . S
C79 C80 1.407 . S
C80 C79 1.407 . S
C80 C81 1.365 . S
C81 H69 0.930 . S
C81 C80 1.365 . S
C81 C82 1.393 . S
C82 C81 1.393 . S
C82 C83 1.387 . S
C83 H70 0.930 . S
C83 C78 1.415 . S
C83 C82 1.387 . S
H84 C92 0.930 . S
H85 C95 0.930 . S
H86 C97 0.930 . S
H87 C98 0.970 1_554 S
H88 C98 0.970 1_565 S
H89 C100 0.930 . S
H90 C102 0.930 . S
H91 C104 0.930 . S
C92 H84 0.930 . S
C92 C93 1.382 . S
C92 C94 1.426 1_554 S
C93 C92 1.382 . S
C93 C97 1.389 1_554 S
C94 C92 1.426 1_556 S
C94 C95 1.375 . S
C94 C98 1.532 . S
C95 H85 0.930 . S
C95 C94 1.375 . S
C95 C96 1.416 . S
C96 C95 1.416 . S
C96 C97 1.371 . S
C97 H86 0.930 . S
C97 C93 1.389 1_556 S
C97 C96 1.371 . S
C98 H87 0.970 1_556 S
C98 H88 0.970 1_545 S
C98 C94 1.532 . S
C98 C99 1.499 1_546 S
C99 C98 1.499 1_564 S
C99 C100 1.370 . S
C99 C104 1.415 1_554 S
C100 H89 0.930 . S
C100 C99 1.370 . S
C100 C101 1.407 . S
C101 C100 1.407 . S
C101 C102 1.365 . S
C102 H90 0.930 . S
C102 C101 1.365 . S
C102 C103 1.393 1_554 S
C103 C102 1.393 1_556 S
C103 C104 1.387 . S
C104 H91 0.930 . S
C104 C99 1.415 1_556 S
C104 C103 1.387 . S
H105 C113 0.930 . S
H106 C116 0.930 . S
H107 C118 0.930 . S
H108 C119 0.970 . S
H109 C119 0.970 . S
H110 C121 0.930 . S
H111 C123 0.930 . S
H112 C125 0.930 . S
C113 H105 0.930 . S
C113 C114 1.382 . S
C113 C115 1.426 . S
C114 C113 1.382 . S
C114 C118 1.389 . S
C115 C113 1.426 . S
C115 C116 1.375 . S
C115 C119 1.532 . S
C116 H106 0.930 . S
C116 C115 1.375 . S
C116 C117 1.416 . S
C117 C116 1.416 . S
C117 C118 1.371 . S
C118 H107 0.930 . S
C118 C114 1.389 . S
C118 C117 1.371 . S
C119 H108 0.970 . S
C119 H109 0.970 . S
C119 C115 1.532 . S
C119 C120 1.499 . S
C120 C119 1.499 . S
C120 C121 1.370 . S
C120 C125 1.415 . S
C121 H110 0.930 . S
C121 C120 1.370 . S
C121 C122 1.407 . S
C122 C121 1.407 . S
C122 C123 1.365 . S
C123 H111 0.930 . S
C123 C122 1.365 . S
C123 C124 1.393 . S
C124 C123 1.393 . S
C124 C125 1.387 . S
C125 H112 0.930 . S
C125 C120 1.415 . S
C125 C124 1.387 . S
C126 O127 1.306 . S
C126 O129 1.160 . S
O127 C126 1.306 . S
O127 Cd128 2.228 . S
Cd128 O127 2.228 . S
Cd128 O132 2.273 . S
Cd128 O136 2.277 . S
O129 C126 1.160 . S
O129 Cd130 2.203 . S
Cd130 O129 2.203 . S
Cd130 O132 2.411 . S
Cd130 O133 2.333 . S
Cd130 O134 2.352 . S
Cd130 O138 2.277 . S
Cd130 O139 2.356 . S
C131 O136 1.209 . S
C131 O138 1.226 . S
O132 Cd128 2.273 . S
O132 Cd130 2.411 . S
O132 C135 1.320 . S
O133 Cd130 2.333 . S
O133 C135 1.214 . S
O134 Cd130 2.352 . S
O134 C137 1.258 . S
C135 O132 1.320 . S
C135 O133 1.214 . S
O136 Cd128 2.277 . S
O136 C131 1.209 . S
C137 O134 1.258 . S
C137 O139 1.282 . S
O138 Cd130 2.277 . S
O138 C131 1.226 . S
O139 Cd130 2.356 . S
O139 C137 1.282 . S
C140 O141 1.306 . S
C140 O143 1.160 . S
O141 C140 1.306 . S
O141 Cd142 2.228 . S
Cd142 O141 2.228 . S
Cd142 O146 2.273 . S
Cd142 O150 2.277 . S
O143 C140 1.160 . S
O143 Cd144 2.203 . S
Cd144 O143 2.203 . S
Cd144 O146 2.411 . S
Cd144 O147 2.333 . S
Cd144 O148 2.352 . S
Cd144 O152 2.277 . S
Cd144 O153 2.356 . S
C145 O150 1.209 . S
C145 O152 1.226 . S
O146 Cd142 2.273 . S
O146 Cd144 2.411 . S
O146 C149 1.320 . S
O147 Cd144 2.333 . S
O147 C149 1.214 . S
O148 Cd144 2.352 . S
O148 C151 1.258 . S
C149 O146 1.320 . S
C149 O147 1.214 . S
O150 Cd142 2.277 . S
O150 C145 1.209 . S
C151 O148 1.258 . S
C151 O153 1.282 . S
O152 Cd144 2.277 . S
O152 C145 1.226 . S
O153 Cd144 2.356 . S
O153 C151 1.282 . S
C154 O155 1.306 . S
C154 O157 1.160 . S
O155 C154 1.306 . S
O155 Cd156 2.228 . S
Cd156 O155 2.228 . S
Cd156 O160 2.273 . S
Cd156 O164 2.277 . S
O157 C154 1.160 . S
O157 Cd158 2.203 . S
Cd158 O157 2.203 . S
Cd158 O160 2.411 . S
Cd158 O161 2.333 . S
Cd158 O162 2.352 . S
Cd158 O166 2.277 . S
Cd158 O167 2.356 . S
C159 O164 1.209 . S
C159 O166 1.226 . S
O160 Cd156 2.273 . S
O160 Cd158 2.411 . S
O160 C163 1.320 . S
O161 Cd158 2.333 . S
O161 C163 1.214 . S
O162 Cd158 2.352 . S
O162 C165 1.258 . S
C163 O160 1.320 . S
C163 O161 1.214 . S
O164 Cd156 2.277 . S
O164 C159 1.209 . S
C165 O162 1.258 . S
C165 O167 1.282 . S
O166 Cd158 2.277 . S
O166 C159 1.226 . S
O167 Cd158 2.356 . S
O167 C165 1.282 . S
C168 O169 1.306 . S
C168 O171 1.160 . S
O169 C168 1.306 . S
O169 Cd170 2.228 . S
Cd170 O169 2.228 . S
Cd170 O174 2.273 . S
Cd170 O178 2.277 . S
O171 C168 1.160 . S
O171 Cd172 2.203 . S
Cd172 O171 2.203 . S
Cd172 O174 2.411 . S
Cd172 O175 2.333 . S
Cd172 O176 2.352 . S
Cd172 O180 2.277 . S
Cd172 O181 2.356 . S
C173 O178 1.209 . S
C173 O180 1.226 . S
O174 Cd170 2.273 . S
O174 Cd172 2.411 . S
O174 C177 1.320 . S
O175 Cd172 2.333 . S
O175 C177 1.214 . S
O176 Cd172 2.352 . S
O176 C179 1.258 . S
C177 O174 1.320 . S
C177 O175 1.214 . S
O178 Cd170 2.277 . S
O178 C173 1.209 . S
C179 O176 1.258 . S
C179 O181 1.282 . S
O180 Cd172 2.277 . S
O180 C173 1.226 . S
O181 Cd172 2.356 . S
O181 C179 1.282 . S
C182 O183 1.306 . S
C182 O185 1.160 . S
O183 C182 1.306 . S
O183 Cd184 2.228 . S
Cd184 O183 2.228 . S
Cd184 O188 2.273 . S
Cd184 O192 2.277 . S
O185 C182 1.160 . S
O185 Cd186 2.203 . S
Cd186 O185 2.203 . S
Cd186 O188 2.411 . S
Cd186 O189 2.333 . S
Cd186 O190 2.352 . S
Cd186 O194 2.277 . S
Cd186 O195 2.356 . S
C187 O192 1.209 . S
C187 O194 1.226 . S
O188 Cd184 2.273 . S
O188 Cd186 2.411 . S
O188 C191 1.320 . S
O189 Cd186 2.333 . S
O189 C191 1.214 . S
O190 Cd186 2.352 . S
O190 C193 1.258 . S
C191 O188 1.320 . S
C191 O189 1.214 . S
O192 Cd184 2.277 . S
O192 C187 1.209 . S
C193 O190 1.258 . S
C193 O195 1.282 . S
O194 Cd186 2.277 . S
O194 C187 1.226 . S
O195 Cd186 2.356 . S
O195 C193 1.282 . S
C196 O197 1.306 . S
C196 O199 1.160 . S
O197 C196 1.306 . S
O197 Cd198 2.228 . S
Cd198 O197 2.228 . S
Cd198 O202 2.273 . S
Cd198 O206 2.277 . S
O199 C196 1.160 . S
O199 Cd200 2.203 . S
Cd200 O199 2.203 . S
Cd200 O202 2.411 . S
Cd200 O203 2.333 . S
Cd200 O204 2.352 . S
Cd200 O208 2.277 . S
Cd200 O209 2.356 . S
C201 O206 1.209 . S
C201 O208 1.226 . S
O202 Cd198 2.273 . S
O202 Cd200 2.411 . S
O202 C205 1.320 . S
O203 Cd200 2.333 . S
O203 C205 1.214 . S
O204 Cd200 2.352 . S
O204 C207 1.258 . S
C205 O202 1.320 . S
C205 O203 1.214 . S
O206 Cd198 2.277 . S
O206 C201 1.209 . S
C207 O204 1.258 . S
C207 O209 1.282 . S
O208 Cd200 2.277 . S
O208 C201 1.226 . S
O209 Cd200 2.356 . S
O209 C207 1.282 . S
C210 C211 1.369 . S
C210 C212 1.419 . S
C210 H214 0.930 . S
C211 C210 1.369 . S
C211 C220 1.429 . S
C212 C210 1.419 . S
C212 C213 1.363 . S
C212 H215 0.929 . S
C213 C212 1.363 . S
C213 C219 1.428 . S
H214 C210 0.930 . S
H215 C212 0.929 . S
S216 N217 1.613 . S
S216 N218 1.610 . S
N217 S216 1.613 . S
N217 C220 1.350 . S
N218 S216 1.610 . S
N218 C219 1.351 . S
C219 C213 1.428 . S
C219 N218 1.351 . S
C219 C220 1.434 . S
C220 C211 1.429 . S
C220 N217 1.350 . S
C220 C219 1.434 . S
C221 C222 1.369 . S
C221 C223 1.419 . S
C221 H225 0.930 . S
C222 C221 1.369 . S
C222 C231 1.429 . S
C223 C221 1.419 . S
C223 C224 1.363 . S
C223 H226 0.929 . S
C224 C223 1.363 . S
C224 C230 1.428 . S
H225 C221 0.930 . S
H226 C223 0.929 . S
S227 N228 1.613 . S
S227 N229 1.610 . S
N228 S227 1.613 . S
N228 C231 1.350 . S
N229 S227 1.610 . S
N229 C230 1.351 . S
C230 C224 1.428 . S
C230 N229 1.351 . S
C230 C231 1.434 . S
C231 C222 1.429 . S
C231 N228 1.350 . S
C231 C230 1.434 . S
C232 C233 1.369 . S
C232 C234 1.419 . S
C232 H236 0.930 . S
C233 C232 1.369 . S
C233 C242 1.429 . S
C234 C232 1.419 . S
C234 C235 1.363 . S
C234 H237 0.929 . S
C235 C234 1.363 . S
C235 C241 1.428 . S
H236 C232 0.930 . S
H237 C234 0.929 . S
S238 N239 1.613 . S
S238 N240 1.610 . S
N239 S238 1.613 . S
N239 C242 1.350 . S
N240 S238 1.610 . S
N240 C241 1.351 . S
C241 C235 1.428 . S
C241 N240 1.351 . S
C241 C242 1.434 . S
C242 C233 1.429 . S
C242 N239 1.350 . S
C242 C241 1.434 . S
C243 C244 1.369 . S
C243 C245 1.419 . S
C243 H247 0.930 . S
C244 C243 1.369 . S
C244 C253 1.429 . S
C245 C243 1.419 . S
C245 C246 1.363 . S
C245 H248 0.929 . S
C246 C245 1.363 . S
C246 C252 1.428 . S
H247 C243 0.930 . S
H248 C245 0.929 . S
S249 N250 1.613 . S
S249 N251 1.610 . S
N250 S249 1.613 . S
N250 C253 1.350 . S
N251 S249 1.610 . S
N251 C252 1.351 . S
C252 C246 1.428 . S
C252 N251 1.351 . S
C252 C253 1.434 . S
C253 C244 1.429 . S
C253 N250 1.350 . S
C253 C252 1.434 . S
C254 C255 1.369 . S
C254 C256 1.419 . S
C254 H258 0.930 . S
C255 C254 1.369 . S
C255 C264 1.429 . S
C256 C254 1.419 . S
C256 C257 1.363 . S
C256 H259 0.929 . S
C257 C256 1.363 . S
C257 C263 1.428 . S
H258 C254 0.930 . S
H259 C256 0.929 . S
S260 N261 1.613 . S
S260 N262 1.610 . S
N261 S260 1.613 . S
N261 C264 1.350 . S
N262 S260 1.610 . S
N262 C263 1.351 . S
C263 C257 1.428 . S
C263 N262 1.351 . S
C263 C264 1.434 . S
C264 C255 1.429 . S
C264 N261 1.350 . S
C264 C263 1.434 . S
C265 C266 1.369 . S
C265 C267 1.419 . S
C265 H269 0.930 . S
C266 C265 1.369 . S
C266 C275 1.429 . S
C267 C265 1.419 . S
C267 C268 1.363 . S
C267 H270 0.929 . S
C268 C267 1.363 . S
C268 C274 1.428 . S
H269 C265 0.930 . S
H270 C267 0.929 . S
S271 N272 1.613 . S
S271 N273 1.610 . S
N272 S271 1.613 . S
N272 C275 1.350 . S
N273 S271 1.610 . S
N273 C274 1.351 . S
C274 C268 1.428 . S
C274 N273 1.351 . S
C274 C275 1.434 . S
C275 C266 1.429 . S
C275 N272 1.350 . S
C275 C274 1.434 . S
C276 C277 1.369 . S
C276 C278 1.419 . S
C276 H280 0.930 . S
C277 C276 1.369 . S
C277 C286 1.429 . S
C278 C276 1.419 . S
C278 C279 1.363 . S
C278 H281 0.929 . S
C279 C278 1.363 . S
C279 C285 1.428 . S
H280 C276 0.930 . S
H281 C278 0.929 . S
S282 N283 1.613 . S
S282 N284 1.610 . S
N283 S282 1.613 . S
N283 C286 1.350 . S
N284 S282 1.610 . S
N284 C285 1.351 . S
C285 C279 1.428 . S
C285 N284 1.351 . S
C285 C286 1.434 . S
C286 C277 1.429 . S
C286 N283 1.350 . S
C286 C285 1.434 . S
C287 C288 1.369 . S
C287 C289 1.419 . S
C287 H291 0.930 . S
C288 C287 1.369 . S
C288 C297 1.429 . S
C289 C287 1.419 . S
C289 C290 1.363 . S
C289 H292 0.929 . S
C290 C289 1.363 . S
C290 C296 1.428 . S
H291 C287 0.930 . S
H292 C289 0.929 . S
S293 N294 1.613 . S
S293 N295 1.610 . S
N294 S293 1.613 . S
N294 C297 1.350 . S
N295 S293 1.610 . S
N295 C296 1.351 . S
C296 C290 1.428 . S
C296 N295 1.351 . S
C296 C297 1.434 . S
C297 C288 1.429 . S
C297 N294 1.350 . S
C297 C296 1.434 . S
C298 C299 1.369 . S
C298 C300 1.419 . S
C298 H302 0.930 . S
C299 C298 1.369 . S
C299 C308 1.429 . S
C300 C298 1.419 . S
C300 C301 1.363 . S
C300 H303 0.929 . S
C301 C300 1.363 . S
C301 C307 1.428 . S
H302 C298 0.930 . S
H303 C300 0.929 . S
S304 N305 1.613 . S
S304 N306 1.610 . S
N305 S304 1.613 . S
N305 C308 1.350 . S
N306 S304 1.610 . S
N306 C307 1.351 . S
C307 C301 1.428 . S
C307 N306 1.351 . S
C307 C308 1.434 . S
C308 C299 1.429 . S
C308 N305 1.350 . S
C308 C307 1.434 . S
C309 C310 1.369 . S
C309 C311 1.419 . S
C309 H313 0.930 . S
C310 C309 1.369 . S
C310 C319 1.429 . S
C311 C309 1.419 . S
C311 C312 1.363 . S
C311 H314 0.929 . S
C312 C311 1.363 . S
C312 C318 1.428 . S
H313 C309 0.930 . S
H314 C311 0.929 . S
S315 N316 1.613 . S
S315 N317 1.610 1_556 S
N316 S315 1.613 . S
N316 C319 1.350 1_556 S
N317 S315 1.610 1_554 S
N317 C318 1.351 . S
C318 C312 1.428 . S
C318 N317 1.351 . S
C318 C319 1.434 . S
C319 C310 1.429 . S
C319 N316 1.350 1_554 S
C319 C318 1.434 . S
C320 C321 1.369 . S
C320 C322 1.419 . S
C320 H324 0.930 . S
C321 C320 1.369 . S
C321 C330 1.429 . S
C322 C320 1.419 . S
C322 C323 1.363 . S
C322 H325 0.929 . S
C323 C322 1.363 . S
C323 C329 1.428 . S
H324 C320 0.930 . S
H325 C322 0.929 . S
S326 N327 1.613 . S
S326 N328 1.610 . S
N327 S326 1.613 . S
N327 C330 1.350 . S
N328 S326 1.610 . S
N328 C329 1.351 . S
C329 C323 1.428 . S
C329 N328 1.351 . S
C329 C330 1.434 . S
C330 C321 1.429 . S
C330 N327 1.350 . S
C330 C329 1.434 . S
C331 C332 1.369 . S
C331 C333 1.419 . S
C331 H335 0.930 . S
C332 C331 1.369 . S
C332 C341 1.429 . S
C333 C331 1.419 . S
C333 C334 1.363 . S
C333 H336 0.929 . S
C334 C333 1.363 . S
C334 C340 1.428 . S
H335 C331 0.930 . S
H336 C333 0.929 . S
S337 N338 1.613 . S
S337 N339 1.610 . S
N338 S337 1.613 . S
N338 C341 1.350 . S
N339 S337 1.610 . S
N339 C340 1.351 . S
C340 C334 1.428 . S
C340 N339 1.351 . S
C340 C341 1.434 . S
C341 C332 1.429 . S
C341 N338 1.350 . S
C341 C340 1.434 . S
C342 C343 1.369 . S
C342 C344 1.419 . S
C342 H346 0.930 . S
C343 C342 1.369 . S
C343 C352 1.429 . S
C344 C342 1.419 . S
C344 C345 1.363 . S
C344 H347 0.929 . S
C345 C344 1.363 . S
C345 C351 1.428 . S
H346 C342 0.930 . S
H347 C344 0.929 . S
S348 N349 1.613 . S
S348 N350 1.610 . S
N349 S348 1.613 . S
N349 C352 1.350 . S
N350 S348 1.610 . S
N350 C351 1.351 . S
C351 C345 1.428 . S
C351 N350 1.351 . S
C351 C352 1.434 . S
C352 C343 1.429 . S
C352 N349 1.350 . S
C352 C351 1.434 . S
C353 C354 1.369 . S
C353 C355 1.419 . S
C353 H357 0.930 . S
C354 C353 1.369 . S
C354 C363 1.429 . S
C355 C353 1.419 . S
C355 C356 1.363 . S
C355 H358 0.929 . S
C356 C355 1.363 . S
C356 C362 1.428 . S
H357 C353 0.930 . S
H358 C355 0.929 . S
S359 N360 1.613 . S
S359 N361 1.610 . S
N360 S359 1.613 . S
N360 C363 1.350 . S
N361 S359 1.610 . S
N361 C362 1.351 . S
C362 C356 1.428 . S
C362 N361 1.351 . S
C362 C363 1.434 . S
C363 C354 1.429 . S
C363 N360 1.350 . S
C363 C362 1.434 . S
C364 C365 1.369 . S
C364 C366 1.419 . S
C364 H368 0.930 . S
C365 C364 1.369 . S
C365 C374 1.429 . S
C366 C364 1.419 . S
C366 C367 1.363 . S
C366 H369 0.929 . S
C367 C366 1.363 . S
C367 C373 1.428 . S
H368 C364 0.930 . S
H369 C366 0.929 . S
S370 N371 1.613 . S
S370 N372 1.610 . S
N371 S370 1.613 . S
N371 C374 1.350 . S
N372 S370 1.610 . S
N372 C373 1.351 . S
C373 C367 1.428 . S
C373 N372 1.351 . S
C373 C374 1.434 . S
C374 C365 1.429 . S
C374 N371 1.350 . S
C374 C373 1.434 . S
C375 C376 1.369 . S
C375 C377 1.419 . S
C375 H379 0.930 . S
C376 C375 1.369 . S
C376 C385 1.429 . S
C377 C375 1.419 . S
C377 C378 1.363 . S
C377 H380 0.929 . S
C378 C377 1.363 . S
C378 C384 1.428 . S
H379 C375 0.930 . S
H380 C377 0.929 . S
S381 N382 1.613 . S
S381 N383 1.610 . S
N382 S381 1.613 . S
N382 C385 1.350 . S
N383 S381 1.610 . S
N383 C384 1.351 . S
C384 C378 1.428 . S
C384 N383 1.351 . S
C384 C385 1.434 . S
C385 C376 1.429 . S
C385 N382 1.350 . S
C385 C384 1.434 . S
C386 C387 1.369 . S
C386 C388 1.419 . S
C386 H390 0.930 . S
C387 C386 1.369 . S
C387 C396 1.429 . S
C388 C386 1.419 . S
C388 C389 1.363 . S
C388 H391 0.929 . S
C389 C388 1.363 . S
C389 C395 1.428 . S
H390 C386 0.930 . S
H391 C388 0.929 . S
S392 N393 1.613 . S
S392 N394 1.610 . S
N393 S392 1.613 . S
N393 C396 1.350 . S
N394 S392 1.610 . S
N394 C395 1.351 . S
C395 C389 1.428 . S
C395 N394 1.351 . S
C395 C396 1.434 . S
C396 C387 1.429 . S
C396 N393 1.350 . S
C396 C395 1.434 . S
C397 C398 1.369 . S
C397 C399 1.419 . S
C397 H401 0.930 . S
C398 C397 1.369 . S
C398 C407 1.429 . S
C399 C397 1.419 . S
C399 C400 1.363 . S
C399 H402 0.929 . S
C400 C399 1.363 . S
C400 C406 1.428 . S
H401 C397 0.930 . S
H402 C399 0.929 . S
S403 N404 1.613 . S
S403 N405 1.610 . S
N404 S403 1.613 . S
N404 C407 1.350 . S
N405 S403 1.610 . S
N405 C406 1.351 . S
C406 C400 1.428 . S
C406 N405 1.351 . S
C406 C407 1.434 . S
C407 C398 1.429 . S
C407 N404 1.350 . S
C407 C406 1.434 . S
C408 C409 1.369 . S
C408 C410 1.419 . S
C408 H412 0.930 . S
C409 C408 1.369 . S
C409 C418 1.429 . S
C410 C408 1.419 . S
C410 C411 1.363 . S
C410 H413 0.929 . S
C411 C410 1.363 . S
C411 C417 1.428 . S
H412 C408 0.930 . S
H413 C410 0.929 . S
S414 N415 1.613 . S
S414 N416 1.610 . S
N415 S414 1.613 . S
N415 C418 1.350 . S
N416 S414 1.610 . S
N416 C417 1.351 . S
C417 C411 1.428 . S
C417 N416 1.351 . S
C417 C418 1.434 . S
C418 C409 1.429 . S
C418 N415 1.350 . S
C418 C417 1.434 . S
C419 C420 1.369 . S
C419 C421 1.419 . S
C419 H423 0.930 . S
C420 C419 1.369 . S
C420 C429 1.429 . S
C421 C419 1.419 . S
C421 C422 1.363 . S
C421 H424 0.929 . S
C422 C421 1.363 . S
C422 C428 1.428 . S
H423 C419 0.930 . S
H424 C421 0.929 . S
S425 N426 1.613 . S
S425 N427 1.610 . S
N426 S425 1.613 . S
N426 C429 1.350 . S
N427 S425 1.610 . S
N427 C428 1.351 . S
C428 C422 1.428 . S
C428 N427 1.351 . S
C428 C429 1.434 . S
C429 C420 1.429 . S
C429 N426 1.350 . S
C429 C428 1.434 . S
C430 C431 1.369 . S
C430 C432 1.419 . S
C430 H434 0.930 . S
C431 C430 1.369 . S
C431 C440 1.429 . S
C432 C430 1.419 . S
C432 C433 1.363 . S
C432 H435 0.929 . S
C433 C432 1.363 . S
C433 C439 1.428 . S
H434 C430 0.930 . S
H435 C432 0.929 . S
S436 N437 1.613 . S
S436 N438 1.610 . S
N437 S436 1.613 . S
N437 C440 1.350 . S
N438 S436 1.610 . S
N438 C439 1.351 . S
C439 C433 1.428 . S
C439 N438 1.351 . S
C439 C440 1.434 . S
C440 C431 1.429 . S
C440 N437 1.350 . S
C440 C439 1.434 . S
C441 C442 1.369 . S
C441 C443 1.419 . S
C441 H445 0.930 . S
C442 C441 1.369 . S
C442 C451 1.429 . S
C443 C441 1.419 . S
C443 C444 1.363 . S
C443 H446 0.929 . S
C444 C443 1.363 . S
C444 C450 1.428 . S
H445 C441 0.930 . S
H446 C443 0.929 . S
S447 N448 1.613 . S
S447 N449 1.610 . S
N448 S447 1.613 . S
N448 C451 1.350 . S
N449 S447 1.610 . S
N449 C450 1.351 . S
C450 C444 1.428 . S
C450 N449 1.351 . S
C450 C451 1.434 . S
C451 C442 1.429 . S
C451 N448 1.350 . S
C451 C450 1.434 . S
C452 C453 1.369 . S
C452 C454 1.419 . S
C452 H456 0.930 . S
C453 C452 1.369 . S
C453 C462 1.429 . S
C454 C452 1.419 . S
C454 C455 1.363 1_554 S
C454 H457 0.929 . S
C455 C454 1.363 1_556 S
C455 C461 1.428 . S
H456 C452 0.930 . S
H457 C454 0.929 . S
S458 N459 1.613 1_556 S
S458 N460 1.610 . S
N459 S458 1.613 1_554 S
N459 C462 1.350 . S
N460 S458 1.610 . S
N460 C461 1.351 . S
C461 C455 1.428 . S
C461 N460 1.351 . S
C461 C462 1.434 1_556 S
C462 C453 1.429 . S
C462 N459 1.350 . S
C462 C461 1.434 1_554 S
C463 C464 1.369 . S
C463 C465 1.419 . S
C463 H467 0.930 . S
C464 C463 1.369 . S
C464 C473 1.429 . S
C465 C463 1.419 . S
C465 C466 1.363 . S
C465 H468 0.929 . S
C466 C465 1.363 . S
C466 C472 1.428 . S
H467 C463 0.930 . S
H468 C465 0.929 . S
S469 N470 1.613 . S
S469 N471 1.610 . S
N470 S469 1.613 . S
N470 C473 1.350 . S
N471 S469 1.610 . S
N471 C472 1.351 . S
C472 C466 1.428 . S
C472 N471 1.351 . S
C472 C473 1.434 . S
C473 C464 1.429 . S
C473 N470 1.350 . S
C473 C472 1.434 . S
C213 C196 1.577 . S
C211 C19 1.489 . S
C222 C40 1.473 . S
C224 C137 1.576 . S
C233 C51 1.463 . S
C235 C140 1.576 . S
C244 C72 1.481 . S
C246 C154 1.581 . S
C257 C179 1.574 . S
C255 C103 1.479 . S
C266 C114 1.455 . S
C268 C182 1.568 . S
C277 C30 1.447 . S
C279 C151 1.564 . S
C288 C61 1.471 . S
C290 C165 1.565 . S
C299 C82 1.470 . S
C301 C168 1.553 . S
C312 C193 1.558 . S
C310 C93 1.443 . S
C323 C207 1.564 . S
C321 C124 1.472 . S
C334 C126 1.558 . S
C332 C9 1.456 . S
C343 C17 1.433 . S
C345 C149 1.507 . S
C354 C38 1.416 . S
C356 C163 1.511 . S
C367 C173 1.511 . S
C365 C54 1.416 . S
C376 C75 1.429 . S
C378 C191 1.507 1_556 S
C389 C205 1.511 . S
C387 C101 1.416 . S
C400 C131 1.512 . S
C398 C117 1.419 . S
C411 C201 1.528 . S
C409 C33 1.429 . S
C420 C59 1.433 . S
C422 C135 1.519 . S
C433 C145 1.528 . S
C431 C80 1.440 . S
C442 C96 1.427 . S
C444 C159 1.529 . S
C453 C122 1.435 . S
C455 C177 1.519 . S
C464 C12 1.440 . S
C466 C187 1.526 . S
