# Generated by pormake.
# Topology sit, (3,6)-cn, num edge types: 1
# Building blocks:
#     Node 0, Type 0, BuildingBlock: INOVEN_clean_linker_0, # of connection points: 3
#     Node 1, Type 0, BuildingBlock: INOVEN_clean_linker_0, # of connection points: 3
#     Node 2, Type 0, BuildingBlock: INOVEN_clean_linker_0, # of connection points: 3
#     Node 3, Type 0, BuildingBlock: INOVEN_clean_linker_0, # of connection points: 3
#     Node 4, Type 1, BuildingBlock: MIDCAF_clean_sbu_0, # of connection points: 6
#     Node 5, Type 1, BuildingBlock: MIDCAF_clean_sbu_0, # of connection points: 6
#     Edge 6, Type (0, 1), BuildingBlock: EZIPEK_clean_linker_0, # of connection points: 2
#     Edge 7, Type (0, 1), BuildingBlock: EZIPEK_clean_linker_0, # of connection points: 2
#     Edge 8, Type (0, 1), BuildingBlock: EZIPEK_clean_linker_0, # of connection points: 2
#     Edge 9, Type (0, 1), BuildingBlock: EZIPEK_clean_linker_0, # of connection points: 2
#     Edge 10, Type (0, 1), BuildingBlock: EZIPEK_clean_linker_0, # of connection points: 2
#     Edge 11, Type (0, 1), BuildingBlock: EZIPEK_clean_linker_0, # of connection points: 2
#     Edge 12, Type (0, 1), BuildingBlock: EZIPEK_clean_linker_0, # of connection points: 2
#     Edge 13, Type (0, 1), BuildingBlock: EZIPEK_clean_linker_0, # of connection points: 2
#     Edge 14, Type (0, 1), BuildingBlock: EZIPEK_clean_linker_0, # of connection points: 2
#     Edge 15, Type (0, 1), BuildingBlock: EZIPEK_clean_linker_0, # of connection points: 2
#     Edge 16, Type (0, 1), BuildingBlock: EZIPEK_clean_linker_0, # of connection points: 2
#     Edge 17, Type (0, 1), BuildingBlock: EZIPEK_clean_linker_0, # of connection points: 2
# Relax obj value: 0.072
# Max RMSD: 0.182
# Mean RMSD: 0.104
data_MOF--net-sit--node1-MIDCAF_clean_sbu_0--node2-INOVEN_clean_linker_0--edge1-EZIPEK_clean_linker_0
_symmetry_space_group_name_H-M    P1
_symmetry_Int_Tables_number       1
_symmetry_cell_setting            triclinic
loop_
_symmetry_equiv_pos_as_xyz
'x, y, z'
_cell_length_a     16.627749
_cell_length_b     21.325731
_cell_length_c     28.186736
_cell_angle_alpha  89.581127
_cell_angle_beta   85.858506
_cell_angle_gamma 82.791149
loop_
_atom_site_label
_atom_site_type_symbol
_atom_site_fract_x
_atom_site_fract_y
_atom_site_fract_z
_atom_type_partial_charge
H0 H 0.91735 0.38081 0.01723 0.0
H1 H 0.08389 0.5026 0.95506 0.0
H2 H 0.17378 0.33685 0.03216 0.0
N3 N 0.02541 0.30211 0.0584 0.0
N4 N 0.07842 0.25758 0.06707 0.0
C5 C -0.02136 0.39294 0.01106 0.0
C6 C -0.00697 0.44619 -0.01642 0.0
C7 C 0.04301 0.35397 0.02946 0.0
C8 C 0.12291 0.3679 0.01979 0.0
C9 C 0.13733 0.42137 -0.00716 0.0
C10 C 0.07222 0.4619 0.97663 0.0
H11 H 0.85577 0.81468 0.0421 0.0
H12 H -0.02474 0.65856 0.95746 0.0
H13 H 0.11684 0.78045 0.02756 0.0
N14 N -0.01196 0.85198 0.07279 0.0
N15 N 0.05231 0.87318 0.08085 0.0
C16 C 0.91115 0.78607 0.02868 0.0
C17 C 0.9073 0.7352 -0.00183 0.0
C18 C -0.01359 0.8019 0.04025 0.0
C19 C 0.05817 0.76722 0.02014 0.0
C20 C 0.05447 0.71528 -0.00972 0.0
C21 C -0.02135 0.69787 -0.01884 0.0
H22 H 0.36533 0.88009 0.54723 0.0
H23 H 0.47435 1.01148 0.45458 0.0
H24 H 0.62549 0.87728 0.53402 0.0
N25 N 0.50027 0.82364 0.57898 0.0
N26 N 0.56564 0.79122 0.58701 0.0
C27 C 0.41879 0.90031 0.53319 0.0
C28 C 0.41107 0.94935 0.49997 0.0
C29 C 0.49567 0.87419 0.54591 0.0
C30 C 0.56549 0.89803 0.52533 0.0
C31 C 0.55764 0.94856 0.4929 0.0
C32 C 0.48015 0.97468 0.48125 0.0
H33 H 0.31364 0.31324 0.54458 0.0
H34 H 0.44231 0.22574 0.41876 0.0
H35 H 0.56859 0.32577 0.51433 0.0
N36 N 0.43804 0.36586 0.57385 0.0
N37 N 0.50195 0.38253 0.58738 0.0
C38 C 0.36859 0.30313 0.52141 0.0
C39 C 0.36808 0.2675 0.47948 0.0
C40 C 0.43965 0.32703 0.533 0.0
C41 C 0.51219 0.31041 0.50475 0.0
C42 C 0.51325 0.27184 0.46482 0.0
C43 C 0.44091 0.25346 0.45098 0.0
Zn44 Zn -0.02671 0.21705 0.32793 0.0
Zn45 Zn -0.00183 0.96665 0.35253 0.0
Zn46 Zn -0.01267 0.09272 0.34426 0.0
C47 C 0.02276 0.99067 0.25709 0.0
C48 C 0.84726 1.0152 0.39328 0.0
O49 O 0.07973 0.1311 0.38424 0.0
O50 O 0.06276 0.23305 0.36648 0.0
C51 C 0.00644 0.16177 0.24052 0.0
O52 O 0.01189 1.04751 0.27362 0.0
O53 O 0.0204 0.94391 0.28456 0.0
O54 O 0.88962 0.96298 0.38378 0.0
O55 O 0.87312 1.06781 0.38076 0.0
O56 O -0.00748 0.21632 0.25846 0.0
O57 O 0.00621 0.11222 0.26697 0.0
O58 O 0.8659 0.13338 0.37185 0.0
O59 O 0.86088 0.23575 0.35567 0.0
C60 C 0.82771 0.18979 0.37293 0.0
O61 O 0.08819 1.06424 0.38886 0.0
O62 O 0.0896 0.96021 0.39334 0.0
C63 C 0.09917 0.18737 0.38836 0.0
C64 C 0.11817 1.00986 0.40414 0.0
Zn65 Zn 0.48927 0.70909 0.85461 0.0
Zn66 Zn 0.58968 0.45753 0.853 0.0
Zn67 Zn 0.53752 0.58202 0.85342 0.0
C68 C 0.55304 0.4951 0.76025 0.0
C69 C 0.44474 0.47634 0.90879 0.0
O70 O 0.62297 0.6294 0.89087 0.0
O71 O 0.57157 0.73053 0.89715 0.0
C72 C 0.53131 0.67088 0.76004 0.0
O73 O 0.54273 0.55051 0.77915 0.0
O74 O 0.57267 0.44662 0.78483 0.0
O75 O 0.50333 0.43362 0.89943 0.0
O76 O 0.44635 0.53284 0.89274 0.0
O77 O 0.51151 0.7199 0.78513 0.0
O78 O 0.53949 0.61565 0.77918 0.0
O79 O 0.41775 0.59757 0.89149 0.0
O80 O 0.37868 0.70002 0.88229 0.0
C81 C 0.36463 0.6465 0.8978 0.0
O82 O 0.65336 0.56538 0.88721 0.0
O83 O 0.69827 0.46409 0.87487 0.0
C84 C 0.62527 0.68574 0.90625 0.0
C85 C 0.70782 0.5175 0.89094 0.0
C86 C -0.01907 0.19705 0.11215 0.0
C87 C 0.06165 0.20907 0.1 0.0
C88 C 0.10648 0.15139 0.17049 0.0
C89 C 0.02432 0.15694 0.18867 0.0
N90 N 0.8819 0.17643 0.17594 0.0
N91 N 0.20382 0.18692 0.1107 0.0
C92 C -0.0391 0.17568 0.15872 0.0
C93 C 0.12559 0.18082 0.12638 0.0
N94 N 0.92488 0.20521 0.07891 0.0
N95 N 0.16543 0.12058 0.19646 0.0
H96 H 0.21792 0.20736 0.07783 0.0
H97 H 0.25391 0.17331 0.13017 0.0
H98 H 0.1517 0.09943 0.22905 0.0
H99 H 0.22636 0.11161 0.18432 0.0
H100 H 0.86601 0.1935 0.08464 0.0
H101 H -0.05903 0.21678 0.04373 0.0
H102 H 0.83263 0.19635 0.15776 0.0
H103 H 0.86625 0.15884 0.20956 0.0
C104 C 0.12154 0.91488 0.14444 0.0
C105 C 0.05378 0.91962 0.11663 0.0
C106 C -0.02665 0.98937 0.17532 0.0
C107 C 0.03813 0.9788 0.20562 0.0
N108 N 0.18071 0.94973 0.21456 0.0
N109 N 0.93176 0.98242 0.09493 0.0
C110 C 0.11496 0.94784 0.18843 0.0
C111 C -0.01529 0.96394 0.12863 0.0
N112 N 0.18987 0.87543 0.12992 0.0
N113 N 0.89977 1.02 0.19202 0.0
H114 H -0.05745 0.9668 0.05976 0.0
H115 H 0.8834 1.01831 0.10032 0.0
H116 H 0.88953 1.03984 0.22595 0.0
H117 H 0.84783 1.0228 0.17317 0.0
H118 H 0.23886 0.86387 0.15067 0.0
H119 H 0.19596 0.85245 0.09701 0.0
H120 H 0.23982 0.93189 0.20274 0.0
H121 H 0.17672 0.97425 0.24674 0.0
C122 C 0.63349 0.73673 0.65207 0.0
C123 C 0.56831 0.74295 0.62226 0.0
C124 C 0.49159 0.67797 0.67614 0.0
C125 C 0.55194 0.6793 0.70886 0.0
N126 N 0.68997 0.69047 0.72353 0.0
N127 N 0.45379 0.69853 0.59524 0.0
C128 C 0.62671 0.7018 0.69499 0.0
C129 C 0.5029 0.70665 0.63087 0.0
N130 N 0.69905 0.76793 0.6405 0.0
N131 N 0.4224 0.65193 0.68928 0.0
H132 H 0.46512 0.71599 0.56104 0.0
H133 H 0.40808 0.66925 0.59795 0.0
H134 H 0.41486 0.62819 0.7215 0.0
H135 H 0.37194 0.65552 0.66916 0.0
H136 H 0.74564 0.77129 0.66271 0.0
H137 H 0.7053 0.79233 0.60845 0.0
H138 H 0.74799 0.70226 0.71462 0.0
H139 H 0.68568 0.66429 0.75487 0.0
C140 C 0.56808 0.45938 0.62875 0.0
C141 C 0.50532 0.4199 0.6287 0.0
C142 C 0.45671 0.45684 0.70861 0.0
C143 C 0.52833 0.48517 0.71202 0.0
N144 N 0.65176 0.51709 0.67577 0.0
N145 N 0.4014 0.36999 0.67468 0.0
C146 C 0.58352 0.48845 0.67191 0.0
C147 C 0.45135 0.41621 0.66987 0.0
N148 N 0.6129 0.46849 0.5873 0.0
N149 N 0.39489 0.46756 0.74326 0.0
H150 H 0.40325 0.33283 0.65079 0.0
H151 H 0.36613 0.36328 0.70596 0.0
H152 H 0.39748 0.49846 0.77154 0.0
H153 H 0.33847 0.45178 0.74082 0.0
H154 H 0.65498 0.50078 0.58367 0.0
H155 H 0.60342 0.4468 0.55544 0.0
H156 H 0.69916 0.51539 0.64941 0.0
H157 H 0.66191 0.54091 0.70658 0.0
C158 C 0.27083 0.46216 0.00125 0.0
C159 C 0.22051 0.42957 0.97427 0.0
C160 C 0.31799 0.42708 0.9051 0.0
C161 C 0.36926 0.45855 0.93223 0.0
N162 N 0.40473 0.49434 0.00785 0.0
N163 N 0.20394 0.367 0.90546 0.0
C164 C 0.34882 0.4726 -0.01903 0.0
C165 C 0.24654 0.4077 0.92765 0.0
N166 N 0.24322 0.48412 0.04564 0.0
N167 N 0.33643 0.41736 0.85742 0.0
H168 H 0.1515 0.35104 0.92112 0.0
H169 H 0.22448 0.34428 0.87349 0.0
H170 H 0.39007 0.4285 0.83979 0.0
H171 H 0.29621 0.40223 0.8346 0.0
H172 H 0.274 0.51284 0.06569 0.0
H173 H 0.18691 0.47603 0.06168 0.0
H174 H 0.39678 0.49994 0.0446 0.0
H175 H 0.46204 0.50291 -0.00636 0.0
C176 C 0.8209 0.74753 0.9297 0.0
C177 C 0.83053 0.72719 0.97716 0.0
C178 C 0.69835 0.68793 -0.01953 0.0
C179 C 0.69534 0.69979 0.93104 0.0
N180 N 0.75786 0.733 0.85666 0.0
N181 N 0.78188 0.67564 0.04794 0.0
C182 C 0.7578 0.72736 0.90504 0.0
C183 C 0.76999 0.69689 0.00283 0.0
N184 N 0.87007 0.78829 0.90892 0.0
N185 N 0.63226 0.6695 0.00596 0.0
H186 H 0.83348 0.68221 0.06535 0.0
H187 H 0.74312 0.64844 0.06712 0.0
H188 H 0.57948 0.6615 -0.00973 0.0
H189 H 0.62752 0.66606 0.04288 0.0
H190 H 0.86093 0.80922 0.87592 0.0
H191 H 0.9146 0.80667 0.92689 0.0
H192 H 0.80688 0.74622 0.83547 0.0
H193 H 0.71189 0.71938 0.83718 0.0
C194 C 0.85447 0.50802 -0.01261 0.0
C195 C 0.92517 0.4822 0.95952 0.0
C196 C 0.85674 0.51247 0.88735 0.0
C197 C 0.78225 0.52283 0.91496 0.0
N198 N 0.70759 0.52983 -0.00836 0.0
N199 N -0.00943 0.45401 0.88136 0.0
C200 C 0.78032 0.52188 0.96525 0.0
C201 C 0.92652 0.48417 0.90893 0.0
N202 N 0.85837 0.51819 0.0349 0.0
N203 N 0.85967 0.52768 0.84018 0.0
H204 H 0.04107 0.42847 0.89507 0.0
H205 H -0.01003 0.44889 0.84466 0.0
H206 H 0.80837 0.54838 0.82392 0.0
H207 H 0.91387 0.52607 0.81893 0.0
H208 H 0.8098 0.53996 0.05667 0.0
H209 H 0.91278 0.50993 0.05155 0.0
H210 H 0.7019 0.52243 0.02823 0.0
H211 H 0.65221 0.54077 0.97643 0.0
C212 C 0.14201 0.68051 0.91576 0.0
C213 C 0.13037 0.68203 0.96633 0.0
C214 C 0.27407 0.64306 0.97217 0.0
C215 C 0.28448 0.64164 0.92193 0.0
N216 N 0.22552 0.63653 0.84706 0.0
N217 N 0.17889 0.64603 0.0417 0.0
C218 C 0.2169 0.65191 0.89426 0.0
C219 C 0.19439 0.65663 -0.00573 0.0
N220 N 0.08552 0.71149 0.88815 0.0
N221 N 0.34035 0.63533 -0.00148 0.0
H222 H 0.12036 0.65357 0.05836 0.0
H223 H 0.22237 0.62446 0.06336 0.0
H224 H 0.39942 0.62432 -0.01681 0.0
H225 H 0.33706 0.64301 0.0351 0.0
H226 H 0.09547 0.71659 0.85148 0.0
H227 H 0.03259 0.73818 0.90197 0.0
H228 H 0.17648 0.6382 0.82585 0.0
H229 H 0.28072 0.61565 0.83075 0.0
C230 C 0.64112 0.96668 0.41719 0.0
C231 C 0.63015 0.97134 0.46764 0.0
C232 C 0.75979 1.01433 0.46914 0.0
C233 C 0.76718 1.01345 0.41872 0.0
N234 N 0.70631 1.00443 0.34474 0.0
N235 N 0.6699 1.01293 0.54067 0.0
C236 C 0.70442 0.99529 0.39282 0.0
C237 C 0.68668 0.99941 0.49341 0.0
N238 N 0.5949 0.93118 0.39278 0.0
N239 N 0.82385 1.02669 0.49378 0.0
H240 H 0.6161 1.00394 0.55934 0.0
H241 H 0.7058 1.03825 0.56023 0.0
H242 H 0.87738 1.03962 0.47707 0.0
H243 H 0.82556 1.02075 0.53042 0.0
H244 H 0.60552 0.92156 0.35653 0.0
H245 H 0.55196 0.90531 0.40954 0.0
H246 H 0.65827 0.99723 0.32447 0.0
H247 H 0.75249 1.02543 0.32611 0.0
C248 C 0.29949 0.18032 0.44663 0.0
C249 C 0.29324 0.24298 0.46466 0.0
C250 C 0.15032 0.25668 0.44742 0.0
C251 C 0.1635 0.2011 0.41905 0.0
N252 N 0.26156 0.11899 0.38238 0.0
N253 N 0.21275 0.34629 0.47087 0.0
C254 C 0.24091 0.16471 0.41625 0.0
C255 C 0.21833 0.28283 0.46261 0.0
N256 N 0.36151 0.13597 0.45796 0.0
N257 N 0.07331 0.28483 0.45954 0.0
H258 H 0.2626 0.36949 0.47675 0.0
H259 H 0.16011 0.37697 0.4658 0.0
H260 H 0.02181 0.26532 0.45073 0.0
H261 H 0.06132 0.32311 0.48291 0.0
H262 H 0.36668 0.08958 0.44588 0.0
H263 H 0.40204 0.14416 0.48317 0.0
H264 H 0.32038 0.09549 0.3769 0.0
H265 H 0.22293 0.10938 0.3566 0.0
C266 C 0.27131 1.01045 0.49824 0.0
C267 C 0.33387 0.96566 0.47727 0.0
C268 C 0.26148 0.96349 0.40532 0.0
C269 C 0.19446 1.00194 0.42814 0.0
N270 N 0.1312 1.05914 0.49726 0.0
N271 N 0.38056 0.88908 0.41545 0.0
C272 C 0.19811 1.02508 0.47487 0.0
C273 C 0.32668 0.93916 0.4321 0.0
N274 N 0.28291 1.03997 0.53959 0.0
N275 N 0.26379 0.95177 0.35755 0.0
H276 H 0.42771 0.86802 0.4349 0.0
H277 H 0.37327 0.86415 0.38472 0.0
H278 H 0.21795 0.97071 0.33626 0.0
H279 H 0.31494 0.92922 0.33822 0.0
H280 H 0.24354 1.07802 0.55395 0.0
H281 H 0.33524 1.02912 0.55788 0.0
H282 H 0.12726 1.07185 0.53301 0.0
H283 H 0.07744 1.07163 0.48064 0.0
C284 C 0.64836 0.20568 0.46462 0.0
C285 C 0.59147 0.24616 0.43974 0.0
C286 C 0.68289 0.23366 0.36779 0.0
C287 C 0.74447 0.2026 0.39496 0.0
N288 N 0.79039 0.16952 0.47169 0.0
N289 N 0.55848 0.30598 0.36913 0.0
C290 C 0.72853 0.19089 0.44403 0.0
C291 C 0.60944 0.26194 0.39154 0.0
N292 N 0.62547 0.18033 0.50741 0.0
N293 N 0.69424 0.23523 0.31931 0.0
H294 H 0.50493 0.32903 0.38576 0.0
H295 H 0.57303 0.32382 0.33552 0.0
H296 H 0.74694 0.21364 0.30074 0.0
H297 H 0.64841 0.25218 0.29747 0.0
H298 H 0.6632 0.1465 0.52495 0.0
H299 H 0.56623 0.18816 0.52299 0.0
H300 H 0.78279 0.16705 0.50865 0.0
H301 H 0.85074 0.15952 0.45834 0.0
loop_
_geom_bond_atom_site_label_1
_geom_bond_atom_site_label_2
_geom_bond_distance
_geom_bond_site_symmetry_2
_ccdc_geom_bond_type
H0 C5 0.929 1_655 S
H1 C10 0.931 . S
H2 C8 0.930 . S
N3 N4 1.234 . S
N3 C7 1.453 . S
N4 N3 1.234 . S
C5 H0 0.929 1_455 S
C5 C6 1.373 1_554 S
C5 C7 1.368 . S
C6 C5 1.373 1_556 S
C6 C10 1.397 . S
C7 N3 1.453 . S
C7 C5 1.368 . S
C7 C8 1.373 . S
C8 H2 0.930 . S
C8 C7 1.373 . S
C8 C9 1.371 1_554 S
C9 C8 1.371 1_556 S
C9 C10 1.383 . S
C10 H1 0.931 . S
C10 C6 1.397 . S
C10 C9 1.383 . S
H11 C16 0.929 . S
H12 C21 0.931 . S
H13 C19 0.930 . S
N14 N15 1.234 1_655 S
N14 C18 1.453 . S
N15 N14 1.234 1_455 S
C16 H11 0.929 . S
C16 C17 1.373 1_554 S
C16 C18 1.368 . S
C17 C16 1.373 1_556 S
C17 C21 1.397 1_655 S
C18 N14 1.453 . S
C18 C16 1.368 . S
C18 C19 1.373 1_655 S
C19 H13 0.930 . S
C19 C18 1.373 1_455 S
C19 C20 1.359 1_554 S
C20 C19 1.359 1_556 S
C20 C21 1.391 . S
C21 H12 0.931 . S
C21 C17 1.397 1_455 S
C21 C20 1.391 . S
H22 C27 0.929 . S
H23 C32 0.931 . S
H24 C30 0.930 . S
N25 N26 1.234 . S
N25 C29 1.453 . S
N26 N25 1.234 . S
C27 H22 0.929 . S
C27 C28 1.373 . S
C27 C29 1.368 . S
C28 C27 1.373 . S
C28 C32 1.397 . S
C29 N25 1.453 . S
C29 C27 1.368 . S
C29 C30 1.373 . S
C30 H24 0.930 . S
C30 C29 1.373 . S
C30 C31 1.371 . S
C31 C30 1.371 . S
C31 C32 1.383 . S
C32 H23 0.931 . S
C32 C28 1.397 . S
C32 C31 1.383 . S
H33 C38 0.929 . S
H34 C43 0.931 . S
H35 C41 0.930 . S
N36 N37 1.234 . S
N36 C40 1.453 . S
N37 N36 1.234 . S
C38 H33 0.929 . S
C38 C39 1.373 . S
C38 C40 1.368 . S
C39 C38 1.373 . S
C39 C43 1.397 . S
C40 N36 1.453 . S
C40 C38 1.368 . S
C40 C41 1.373 . S
C41 H35 0.930 . S
C41 C40 1.373 . S
C41 C42 1.371 . S
C42 C41 1.371 . S
C42 C43 1.383 . S
C43 H34 0.931 . S
C43 C39 1.397 . S
C43 C42 1.383 . S
Zn44 O50 1.920 . S
Zn44 O56 1.898 . S
Zn44 O59 1.905 1_455 S
Zn45 O53 1.905 . S
Zn45 O54 1.898 1_455 S
Zn45 O62 1.920 . S
Zn46 O49 2.080 . S
Zn46 O52 2.114 1_545 S
Zn46 O55 2.120 1_545 S
Zn46 O57 2.120 . S
Zn46 O58 2.114 1_455 S
Zn46 O61 2.080 1_545 S
C47 O52 1.166 . S
C47 O53 1.182 . S
C48 O54 1.167 . S
C48 O55 1.299 1_655 S
O49 Zn46 2.080 . S
O49 C63 1.305 . S
O50 Zn44 1.920 . S
O50 C63 1.234 . S
C51 O56 1.167 . S
C51 O57 1.299 . S
O52 Zn46 2.114 1_565 S
O52 C47 1.166 . S
O53 Zn45 1.905 . S
O53 C47 1.182 . S
O54 Zn45 1.898 1_655 S
O54 C48 1.167 . S
O55 Zn46 2.120 1_565 S
O55 C48 1.299 1_455 S
O56 Zn44 1.898 . S
O56 C51 1.167 . S
O57 Zn46 2.120 . S
O57 C51 1.299 . S
O58 Zn46 2.114 1_655 S
O58 C60 1.166 . S
O59 Zn44 1.905 1_655 S
O59 C60 1.182 . S
C60 O58 1.166 . S
C60 O59 1.182 . S
O61 Zn46 2.080 1_565 S
O61 C64 1.305 . S
O62 Zn45 1.920 . S
O62 C64 1.234 . S
C63 O49 1.305 . S
C63 O50 1.234 . S
C64 O61 1.305 . S
C64 O62 1.234 . S
Zn65 O71 1.920 . S
Zn65 O77 1.898 . S
Zn65 O80 1.905 . S
Zn66 O74 1.905 . S
Zn66 O75 1.898 . S
Zn66 O83 1.920 . S
Zn67 O70 2.080 . S
Zn67 O73 2.114 . S
Zn67 O76 2.120 . S
Zn67 O78 2.120 . S
Zn67 O79 2.114 . S
Zn67 O82 2.080 . S
C68 O73 1.166 . S
C68 O74 1.182 . S
C69 O75 1.167 . S
C69 O76 1.299 . S
O70 Zn67 2.080 . S
O70 C84 1.305 . S
O71 Zn65 1.920 . S
O71 C84 1.234 . S
C72 O77 1.167 . S
C72 O78 1.299 . S
O73 Zn67 2.114 . S
O73 C68 1.166 . S
O74 Zn66 1.905 . S
O74 C68 1.182 . S
O75 Zn66 1.898 . S
O75 C69 1.167 . S
O76 Zn67 2.120 . S
O76 C69 1.299 . S
O77 Zn65 1.898 . S
O77 C72 1.167 . S
O78 Zn67 2.120 . S
O78 C72 1.299 . S
O79 Zn67 2.114 . S
O79 C81 1.166 . S
O80 Zn65 1.905 . S
O80 C81 1.182 . S
C81 O79 1.166 . S
C81 O80 1.182 . S
O82 Zn67 2.080 . S
O82 C85 1.305 . S
O83 Zn66 1.920 . S
O83 C85 1.234 . S
C84 O70 1.305 . S
C84 O71 1.234 . S
C85 O82 1.305 . S
C85 O83 1.234 . S
C86 C87 1.363 . S
C86 C92 1.379 . S
C86 N94 1.356 . S
C87 C86 1.363 . S
C87 C93 1.363 . S
C88 C89 1.363 . S
C88 C93 1.379 . S
C88 N95 1.356 . S
C89 C88 1.363 . S
C89 C92 1.363 . S
N90 C92 1.356 . S
N90 H102 0.984 1_455 S
N90 H103 0.985 . S
N91 C93 1.356 . S
N91 H96 0.984 . S
N91 H97 0.985 . S
C92 C86 1.379 . S
C92 C89 1.363 . S
C92 N90 1.356 . S
C93 C87 1.363 . S
C93 C88 1.379 . S
C93 N91 1.356 . S
N94 C86 1.356 . S
N94 H100 0.984 . S
N94 H101 0.984 . S
N95 C88 1.356 . S
N95 H98 0.984 . S
N95 H99 0.985 . S
H96 N91 0.984 . S
H97 N91 0.985 . S
H98 N95 0.984 . S
H99 N95 0.985 . S
H100 N94 0.984 . S
H101 N94 0.984 . S
H102 N90 0.984 1_655 S
H103 N90 0.985 . S
C104 C105 1.363 . S
C104 C110 1.379 . S
C104 N112 1.356 . S
C105 C104 1.363 . S
C105 C111 1.363 1_455 S
C106 C107 1.363 . S
C106 C111 1.379 1_455 S
C106 N113 1.356 1_455 S
C107 C106 1.363 . S
C107 C110 1.363 . S
N108 C110 1.356 . S
N108 H120 0.984 . S
N108 H121 0.985 . S
N109 C111 1.356 . S
N109 H114 0.984 . S
N109 H115 0.985 . S
C110 C104 1.379 . S
C110 C107 1.363 . S
C110 N108 1.356 . S
C111 C105 1.363 1_655 S
C111 C106 1.379 1_655 S
C111 N109 1.356 . S
N112 C104 1.356 . S
N112 H118 0.984 . S
N112 H119 0.984 . S
N113 C106 1.356 1_655 S
N113 H116 0.984 1_655 S
N113 H117 0.985 1_565 S
H114 N109 0.984 . S
H115 N109 0.985 . S
H116 N113 0.984 1_455 S
H117 N113 0.985 1_545 S
H118 N112 0.984 . S
H119 N112 0.984 . S
H120 N108 0.984 . S
H121 N108 0.985 . S
C122 C123 1.363 . S
C122 C128 1.379 . S
C122 N130 1.356 . S
C123 C122 1.363 . S
C123 C129 1.363 . S
C124 C125 1.363 . S
C124 C129 1.379 . S
C124 N131 1.356 . S
C125 C124 1.363 . S
C125 C128 1.363 . S
N126 C128 1.356 . S
N126 H138 0.984 . S
N126 H139 0.985 . S
N127 C129 1.356 . S
N127 H132 0.984 . S
N127 H133 0.985 . S
C128 C122 1.379 . S
C128 C125 1.363 . S
C128 N126 1.356 . S
C129 C123 1.363 . S
C129 C124 1.379 . S
C129 N127 1.356 . S
N130 C122 1.356 . S
N130 H136 0.984 . S
N130 H137 0.984 . S
N131 C124 1.356 . S
N131 H134 0.984 . S
N131 H135 0.985 . S
H132 N127 0.984 . S
H133 N127 0.985 . S
H134 N131 0.984 . S
H135 N131 0.985 . S
H136 N130 0.984 . S
H137 N130 0.984 . S
H138 N126 0.984 . S
H139 N126 0.985 . S
C140 C141 1.363 . S
C140 C146 1.379 . S
C140 N148 1.356 . S
C141 C140 1.363 . S
C141 C147 1.363 . S
C142 C143 1.363 . S
C142 C147 1.379 . S
C142 N149 1.356 . S
C143 C142 1.363 . S
C143 C146 1.363 . S
N144 C146 1.356 . S
N144 H156 0.984 . S
N144 H157 0.985 . S
N145 C147 1.356 . S
N145 H150 0.984 . S
N145 H151 0.985 . S
C146 C140 1.379 . S
C146 C143 1.363 . S
C146 N144 1.356 . S
C147 C141 1.363 . S
C147 C142 1.379 . S
C147 N145 1.356 . S
N148 C140 1.356 . S
N148 H154 0.984 . S
N148 H155 0.984 . S
N149 C142 1.356 . S
N149 H152 0.984 . S
N149 H153 0.985 . S
H150 N145 0.984 . S
H151 N145 0.985 . S
H152 N149 0.984 . S
H153 N149 0.985 . S
H154 N148 0.984 . S
H155 N148 0.984 . S
H156 N144 0.984 . S
H157 N144 0.985 . S
C158 C159 1.363 1_554 S
C158 C164 1.379 . S
C158 N166 1.356 . S
C159 C158 1.363 1_556 S
C159 C165 1.363 . S
C160 C161 1.363 . S
C160 C165 1.379 . S
C160 N167 1.356 . S
C161 C160 1.363 . S
C161 C164 1.363 1_556 S
N162 C164 1.356 . S
N162 H174 0.984 . S
N162 H175 0.985 . S
N163 C165 1.356 . S
N163 H168 0.984 . S
N163 H169 0.985 . S
C164 C158 1.379 . S
C164 C161 1.363 1_554 S
C164 N162 1.356 . S
C165 C159 1.363 . S
C165 C160 1.379 . S
C165 N163 1.356 . S
N166 C158 1.356 . S
N166 H172 0.984 . S
N166 H173 0.984 . S
N167 C160 1.356 . S
N167 H170 0.984 . S
N167 H171 0.985 . S
H168 N163 0.984 . S
H169 N163 0.985 . S
H170 N167 0.984 . S
H171 N167 0.985 . S
H172 N166 0.984 . S
H173 N166 0.984 . S
H174 N162 0.984 . S
H175 N162 0.985 . S
C176 C177 1.363 . S
C176 C182 1.379 . S
C176 N184 1.356 . S
C177 C176 1.363 . S
C177 C183 1.363 1_556 S
C178 C179 1.363 . S
C178 C183 1.379 1_556 S
C178 N185 1.356 1_556 S
C179 C178 1.363 . S
C179 C182 1.363 . S
N180 C182 1.356 . S
N180 H192 0.984 . S
N180 H193 0.985 . S
N181 C183 1.356 . S
N181 H186 0.984 . S
N181 H187 0.985 . S
C182 C176 1.379 . S
C182 C179 1.363 . S
C182 N180 1.356 . S
C183 C177 1.363 1_554 S
C183 C178 1.379 1_554 S
C183 N181 1.356 . S
N184 C176 1.356 . S
N184 H190 0.984 . S
N184 H191 0.984 . S
N185 C178 1.356 1_554 S
N185 H188 0.984 1_554 S
N185 H189 0.985 . S
H186 N181 0.984 . S
H187 N181 0.985 . S
H188 N185 0.984 1_556 S
H189 N185 0.985 . S
H190 N184 0.984 . S
H191 N184 0.984 . S
H192 N180 0.984 . S
H193 N180 0.985 . S
C194 C195 1.363 . S
C194 C200 1.379 . S
C194 N202 1.356 1_556 S
C195 C194 1.363 . S
C195 C201 1.363 . S
C196 C197 1.363 . S
C196 C201 1.379 . S
C196 N203 1.356 . S
C197 C196 1.363 . S
C197 C200 1.363 . S
N198 C200 1.356 . S
N198 H210 0.984 1_556 S
N198 H211 0.985 . S
N199 C201 1.356 1_455 S
N199 H204 0.984 . S
N199 H205 0.985 . S
C200 C194 1.379 . S
C200 C197 1.363 . S
C200 N198 1.356 . S
C201 C195 1.363 . S
C201 C196 1.379 . S
C201 N199 1.356 1_655 S
N202 C194 1.356 1_554 S
N202 H208 0.984 . S
N202 H209 0.984 . S
N203 C196 1.356 . S
N203 H206 0.984 . S
N203 H207 0.985 . S
H204 N199 0.984 . S
H205 N199 0.985 . S
H206 N203 0.984 . S
H207 N203 0.985 . S
H208 N202 0.984 . S
H209 N202 0.984 . S
H210 N198 0.984 1_554 S
H211 N198 0.985 . S
C212 C213 1.363 . S
C212 C218 1.379 . S
C212 N220 1.356 . S
C213 C212 1.363 . S
C213 C219 1.363 . S
C214 C215 1.363 . S
C214 C219 1.379 . S
C214 N221 1.356 . S
C215 C214 1.363 . S
C215 C218 1.363 . S
N216 C218 1.356 . S
N216 H228 0.984 . S
N216 H229 0.985 . S
N217 C219 1.356 1_554 S
N217 H222 0.984 . S
N217 H223 0.985 . S
C218 C212 1.379 . S
C218 C215 1.363 . S
C218 N216 1.356 . S
C219 C213 1.363 . S
C219 C214 1.379 . S
C219 N217 1.356 1_556 S
N220 C212 1.356 . S
N220 H226 0.984 . S
N220 H227 0.984 . S
N221 C214 1.356 . S
N221 H224 0.984 . S
N221 H225 0.985 1_556 S
H222 N217 0.984 . S
H223 N217 0.985 . S
H224 N221 0.984 . S
H225 N221 0.985 1_554 S
H226 N220 0.984 . S
H227 N220 0.984 . S
H228 N216 0.984 . S
H229 N216 0.985 . S
C230 C231 1.363 . S
C230 C236 1.379 . S
C230 N238 1.356 . S
C231 C230 1.363 . S
C231 C237 1.363 . S
C232 C233 1.363 . S
C232 C237 1.379 . S
C232 N239 1.356 . S
C233 C232 1.363 . S
C233 C236 1.363 . S
N234 C236 1.356 . S
N234 H246 0.984 . S
N234 H247 0.985 . S
N235 C237 1.356 . S
N235 H240 0.984 . S
N235 H241 0.985 . S
C236 C230 1.379 . S
C236 C233 1.363 . S
C236 N234 1.356 . S
C237 C231 1.363 . S
C237 C232 1.379 . S
C237 N235 1.356 . S
N238 C230 1.356 . S
N238 H244 0.984 . S
N238 H245 0.984 . S
N239 C232 1.356 . S
N239 H242 0.984 . S
N239 H243 0.985 . S
H240 N235 0.984 . S
H241 N235 0.985 . S
H242 N239 0.984 . S
H243 N239 0.985 . S
H244 N238 0.984 . S
H245 N238 0.984 . S
H246 N234 0.984 . S
H247 N234 0.985 . S
C248 C249 1.363 . S
C248 C254 1.379 . S
C248 N256 1.356 . S
C249 C248 1.363 . S
C249 C255 1.363 . S
C250 C251 1.363 . S
C250 C255 1.379 . S
C250 N257 1.356 . S
C251 C250 1.363 . S
C251 C254 1.363 . S
N252 C254 1.356 . S
N252 H264 0.984 . S
N252 H265 0.985 . S
N253 C255 1.356 . S
N253 H258 0.984 . S
N253 H259 0.985 . S
C254 C248 1.379 . S
C254 C251 1.363 . S
C254 N252 1.356 . S
C255 C249 1.363 . S
C255 C250 1.379 . S
C255 N253 1.356 . S
N256 C248 1.356 . S
N256 H262 0.984 . S
N256 H263 0.984 . S
N257 C250 1.356 . S
N257 H260 0.984 . S
N257 H261 0.985 . S
H258 N253 0.984 . S
H259 N253 0.985 . S
H260 N257 0.984 . S
H261 N257 0.985 . S
H262 N256 0.984 . S
H263 N256 0.984 . S
H264 N252 0.984 . S
H265 N252 0.985 . S
C266 C267 1.363 . S
C266 C272 1.379 . S
C266 N274 1.356 . S
C267 C266 1.363 . S
C267 C273 1.363 . S
C268 C269 1.363 . S
C268 C273 1.379 . S
C268 N275 1.356 . S
C269 C268 1.363 . S
C269 C272 1.363 . S
N270 C272 1.356 . S
N270 H282 0.984 . S
N270 H283 0.985 . S
N271 C273 1.356 . S
N271 H276 0.984 . S
N271 H277 0.985 . S
C272 C266 1.379 . S
C272 C269 1.363 . S
C272 N270 1.356 . S
C273 C267 1.363 . S
C273 C268 1.379 . S
C273 N271 1.356 . S
N274 C266 1.356 . S
N274 H280 0.984 . S
N274 H281 0.984 . S
N275 C268 1.356 . S
N275 H278 0.984 . S
N275 H279 0.985 . S
H276 N271 0.984 . S
H277 N271 0.985 . S
H278 N275 0.984 . S
H279 N275 0.985 . S
H280 N274 0.984 . S
H281 N274 0.984 . S
H282 N270 0.984 . S
H283 N270 0.985 . S
C284 C285 1.363 . S
C284 C290 1.379 . S
C284 N292 1.356 . S
C285 C284 1.363 . S
C285 C291 1.363 . S
C286 C287 1.363 . S
C286 C291 1.379 . S
C286 N293 1.356 . S
C287 C286 1.363 . S
C287 C290 1.363 . S
N288 C290 1.356 . S
N288 H300 0.984 . S
N288 H301 0.985 . S
N289 C291 1.356 . S
N289 H294 0.984 . S
N289 H295 0.985 . S
C290 C284 1.379 . S
C290 C287 1.363 . S
C290 N288 1.356 . S
C291 C285 1.363 . S
C291 C286 1.379 . S
C291 N289 1.356 . S
N292 C284 1.356 . S
N292 H298 0.984 . S
N292 H299 0.984 . S
N293 C286 1.356 . S
N293 H296 0.984 . S
N293 H297 0.985 . S
H294 N289 0.984 . S
H295 N289 0.985 . S
H296 N293 0.984 . S
H297 N293 0.985 . S
H298 N292 0.984 . S
H299 N292 0.984 . S
H300 N288 0.984 . S
H301 N288 0.985 . S
C89 C51 1.433 . S
C87 N4 1.539 . S
C107 C47 1.415 . S
C105 N15 1.497 . S
C125 C72 1.433 . S
C123 N26 1.539 . S
C141 N37 1.497 . S
C143 C68 1.415 . S
C159 C9 1.355 . S
C161 C69 1.189 . S
C179 C84 1.196 . S
C177 C17 1.368 . S
C195 C6 1.675 1_655 S
C197 C85 1.534 . S
C215 C81 1.562 . S
C213 C20 1.698 . S
C233 C48 1.189 . S
C231 C31 1.355 . S
C249 C39 1.368 . S
C251 C63 1.196 . S
C269 C64 1.534 . S
C267 C28 1.675 . S
C287 C60 1.562 . S
C285 C42 1.691 . S
