# Generated by pormake.
# Topology sqc, (4,8)-cn, num edge types: 1
# Building blocks:
#     Node 0, Type 0, BuildingBlock: GIZVER_clean_linker_0, # of connection points: 4
#     Node 1, Type 0, BuildingBlock: GIZVER_clean_linker_0, # of connection points: 4
#     Node 2, Type 0, BuildingBlock: GIZVER_clean_linker_0, # of connection points: 4
#     Node 3, Type 0, BuildingBlock: GIZVER_clean_linker_0, # of connection points: 4
#     Node 4, Type 0, BuildingBlock: GIZVER_clean_linker_0, # of connection points: 4
#     Node 5, Type 0, BuildingBlock: GIZVER_clean_linker_0, # of connection points: 4
#     Node 6, Type 0, BuildingBlock: GIZVER_clean_linker_0, # of connection points: 4
#     Node 7, Type 0, BuildingBlock: GIZVER_clean_linker_0, # of connection points: 4
#     Node 8, Type 1, BuildingBlock: TAGTUT_clean_sbu_3, # of connection points: 8
#     Node 9, Type 1, BuildingBlock: TAGTUT_clean_sbu_3, # of connection points: 8
#     Node 10, Type 1, BuildingBlock: TAGTUT_clean_sbu_3, # of connection points: 8
#     Node 11, Type 1, BuildingBlock: TAGTUT_clean_sbu_3, # of connection points: 8
#     Edge 12, Type (0, 1), BuildingBlock: UVAHIK_clean_linker_0, # of connection points: 2
#     Edge 13, Type (0, 1), BuildingBlock: UVAHIK_clean_linker_0, # of connection points: 2
#     Edge 14, Type (0, 1), BuildingBlock: UVAHIK_clean_linker_0, # of connection points: 2
#     Edge 15, Type (0, 1), BuildingBlock: UVAHIK_clean_linker_0, # of connection points: 2
#     Edge 16, Type (0, 1), BuildingBlock: UVAHIK_clean_linker_0, # of connection points: 2
#     Edge 17, Type (0, 1), BuildingBlock: UVAHIK_clean_linker_0, # of connection points: 2
#     Edge 18, Type (0, 1), BuildingBlock: UVAHIK_clean_linker_0, # of connection points: 2
#     Edge 19, Type (0, 1), BuildingBlock: UVAHIK_clean_linker_0, # of connection points: 2
#     Edge 20, Type (0, 1), BuildingBlock: UVAHIK_clean_linker_0, # of connection points: 2
#     Edge 21, Type (0, 1), BuildingBlock: UVAHIK_clean_linker_0, # of connection points: 2
#     Edge 22, Type (0, 1), BuildingBlock: UVAHIK_clean_linker_0, # of connection points: 2
#     Edge 23, Type (0, 1), BuildingBlock: UVAHIK_clean_linker_0, # of connection points: 2
#     Edge 24, Type (0, 1), BuildingBlock: UVAHIK_clean_linker_0, # of connection points: 2
#     Edge 25, Type (0, 1), BuildingBlock: UVAHIK_clean_linker_0, # of connection points: 2
#     Edge 26, Type (0, 1), BuildingBlock: UVAHIK_clean_linker_0, # of connection points: 2
#     Edge 27, Type (0, 1), BuildingBlock: UVAHIK_clean_linker_0, # of connection points: 2
#     Edge 28, Type (0, 1), BuildingBlock: UVAHIK_clean_linker_0, # of connection points: 2
#     Edge 29, Type (0, 1), BuildingBlock: UVAHIK_clean_linker_0, # of connection points: 2
#     Edge 30, Type (0, 1), BuildingBlock: UVAHIK_clean_linker_0, # of connection points: 2
#     Edge 31, Type (0, 1), BuildingBlock: UVAHIK_clean_linker_0, # of connection points: 2
#     Edge 32, Type (0, 1), BuildingBlock: UVAHIK_clean_linker_0, # of connection points: 2
#     Edge 33, Type (0, 1), BuildingBlock: UVAHIK_clean_linker_0, # of connection points: 2
#     Edge 34, Type (0, 1), BuildingBlock: UVAHIK_clean_linker_0, # of connection points: 2
#     Edge 35, Type (0, 1), BuildingBlock: UVAHIK_clean_linker_0, # of connection points: 2
#     Edge 36, Type (0, 1), BuildingBlock: UVAHIK_clean_linker_0, # of connection points: 2
#     Edge 37, Type (0, 1), BuildingBlock: UVAHIK_clean_linker_0, # of connection points: 2
#     Edge 38, Type (0, 1), BuildingBlock: UVAHIK_clean_linker_0, # of connection points: 2
#     Edge 39, Type (0, 1), BuildingBlock: UVAHIK_clean_linker_0, # of connection points: 2
#     Edge 40, Type (0, 1), BuildingBlock: UVAHIK_clean_linker_0, # of connection points: 2
#     Edge 41, Type (0, 1), BuildingBlock: UVAHIK_clean_linker_0, # of connection points: 2
#     Edge 42, Type (0, 1), BuildingBlock: UVAHIK_clean_linker_0, # of connection points: 2
#     Edge 43, Type (0, 1), BuildingBlock: UVAHIK_clean_linker_0, # of connection points: 2
# Relax obj value: 0.182
# Max RMSD: 0.274
# Mean RMSD: 0.224
data_MOF--net-sqc--node1-TAGTUT_clean_sbu_3--node2-GIZVER_clean_linker_0--edge1-UVAHIK_clean_linker_0
_symmetry_space_group_name_H-M    P1
_symmetry_Int_Tables_number       1
_symmetry_cell_setting            triclinic
loop_
_symmetry_equiv_pos_as_xyz
'x, y, z'
_cell_length_a     31.405781
_cell_length_b     31.397519
_cell_length_c     89.085792
_cell_angle_alpha  90.618481
_cell_angle_beta   89.856601
_cell_angle_gamma 89.985387
loop_
_atom_site_label
_atom_site_type_symbol
_atom_site_fract_x
_atom_site_fract_y
_atom_site_fract_z
_atom_type_partial_charge
H0 H 0.99771 0.03098 0.45226 0.0
H1 H 0.01592 0.10147 0.49358 0.0
H2 H 0.90881 0.01774 0.4886 0.0
H3 H 0.04977 0.08708 0.4533 0.0
H4 H 0.05107 0.12236 0.46917 0.0
H5 H 0.08106 0.00914 0.45793 0.0
H6 H 0.20078 0.0163 0.48097 0.0
H7 H 0.11421 0.12211 0.48329 0.0
C8 C 0.98837 0.03809 0.46374 0.0
C9 C 0.95105 0.02005 0.46958 0.0
C10 C 0.01274 0.0666 0.4725 0.0
C11 C 0.99875 0.07774 0.48707 0.0
C12 C 0.96159 0.05946 0.49295 0.0
C13 C 0.93873 0.02998 0.4843 0.0
C14 C 0.05116 0.08815 0.46578 0.0
C15 C 0.09206 0.0672 0.47068 0.0
C16 C 0.1027 0.02613 0.46532 0.0
C17 C 0.14173 0.00748 0.46921 0.0
C18 C 0.17023 0.03036 0.47826 0.0
C19 C 0.16113 0.07197 0.48312 0.0
C20 C 0.12143 0.08987 0.47964 0.0
H21 H 0.45263 0.75496 0.73864 0.0
H22 H 0.36586 0.76102 0.77615 0.0
H23 H 0.34587 0.83972 0.73753 0.0
H24 H 0.47223 0.72549 0.76379 0.0
H25 H 0.43378 0.72434 0.77867 0.0
H26 H 0.46071 0.67923 0.74053 0.0
H27 H 0.38808 0.56527 0.74705 0.0
H28 H 0.38695 0.66351 0.78104 0.0
C29 C 0.42398 0.76746 0.74385 0.0
C30 C 0.39935 0.79743 0.73621 0.0
C31 C 0.41163 0.75363 0.7582 0.0
C32 C 0.37508 0.77121 0.76503 0.0
C33 C 0.35101 0.80242 0.75765 0.0
C34 C 0.36314 0.81464 0.74316 0.0
C35 C 0.43784 0.72082 0.76631 0.0
C36 C 0.42499 0.67663 0.7613 0.0
C37 C 0.43922 0.66063 0.74736 0.0
C38 C 0.42521 0.62092 0.74209 0.0
C39 C 0.39774 0.59667 0.75095 0.0
C40 C 0.3843 0.61138 0.76508 0.0
C41 C 0.39774 0.65164 0.77021 0.0
H42 H 0.64761 0.05619 0.02826 0.0
H43 H 0.67687 0.13577 0.9906 0.0
H44 H 0.75951 0.03167 0.00163 0.0
H45 H 0.61792 0.13302 0.02512 0.0
H46 H 0.61955 0.15549 0.00675 0.0
H47 H 0.56576 0.08042 0.03124 0.0
H48 H 0.47822 0.03665 -0.00253 0.0
H49 H 0.58527 0.11417 0.98504 0.0
C50 C 0.66793 0.06374 0.01881 0.0
C51 C 0.70446 0.03918 0.0159 0.0
C52 C 0.6576 0.09831 0.0096 0.0
C53 C 0.68426 0.1085 -0.00252 0.0
C54 C 0.7213 0.08477 -0.00537 0.0
C55 C 0.7307 0.04981 0.00373 0.0
C56 C 0.61875 0.1249 0.01294 0.0
C57 C 0.57928 0.10055 0.00864 0.0
C58 C 0.55571 0.07899 0.01961 0.0
C59 C 0.51949 0.05539 0.01562 0.0
C60 C 0.50721 0.05335 0.00051 0.0
C61 C 0.53063 0.07433 0.98937 0.0
C62 C 0.56676 0.09794 -0.00647 0.0
H63 H 0.21603 0.23907 0.23576 0.0
H64 H 0.2882 0.25476 0.27656 0.0
H65 H 0.30292 0.14152 0.25002 0.0
H66 H 0.19973 0.2976 0.25264 0.0
H67 H 0.22104 0.29759 0.27121 0.0
H68 H 0.22513 0.34925 0.23529 0.0
H69 H 0.33015 0.43043 0.24713 0.0
H70 H 0.29751 0.32597 0.2755 0.0
C71 C 0.2398 0.2276 0.24353 0.0
C72 C 0.25839 0.18722 0.24121 0.0
C73 C 0.25118 0.2528 0.25611 0.0
C74 C 0.28079 0.2369 0.26645 0.0
C75 C 0.30052 0.19755 0.26393 0.0
C76 C 0.2893 0.17308 0.25135 0.0
C77 C 0.22984 0.29518 0.25913 0.0
C78 C 0.25903 0.332 0.25546 0.0
C79 C 0.25163 0.35675 0.24263 0.0
C80 C 0.27664 0.39289 0.23984 0.0
C81 C 0.31083 0.40251 0.24931 0.0
C82 C 0.319 0.37802 0.26201 0.0
C83 C 0.29243 0.34342 0.26526 0.0
H84 H 0.74934 0.26839 0.2553 0.0
H85 H 0.801 0.23744 0.21173 0.0
H86 H 0.82319 0.36079 0.23127 0.0
H87 H 0.72338 0.20692 0.24196 0.0
H88 H 0.73801 0.19794 0.22283 0.0
H89 H 0.75444 0.1634 0.26091 0.0
H90 H 0.84635 0.06839 0.24768 0.0
H91 H 0.81094 0.16585 0.21689 0.0
C92 C 0.76842 0.27707 0.24565 0.0
C93 C 0.78607 0.31811 0.24483 0.0
C94 C 0.77391 0.2476 0.23382 0.0
C95 C 0.7978 0.25934 0.22113 0.0
C96 C 0.81687 0.29968 0.2204 0.0
C97 C 0.81079 0.32873 0.23228 0.0
C98 C 0.75107 0.20532 0.23416 0.0
C99 C 0.78049 0.16956 0.2386 0.0
C100 C 0.77698 0.15062 0.25281 0.0
C101 C 0.80087 0.11405 0.25627 0.0
C102 C 0.82958 0.09786 0.24553 0.0
C103 C 0.83368 0.11656 0.2314 0.0
C104 C 0.80908 0.1524 0.22801 0.0
H105 H 0.69909 0.73069 0.74239 0.0
H106 H 0.76946 0.75048 0.78337 0.0
H107 H 0.77957 0.6316 0.75956 0.0
H108 H 0.68086 0.78996 0.75958 0.0
H109 H 0.7086 0.79704 0.77693 0.0
H110 H 0.70466 0.82575 0.73732 0.0
H111 H 0.81158 0.91032 0.74008 0.0
H112 H 0.78149 0.82963 0.77734 0.0
C113 C 0.72117 0.71912 0.75074 0.0
C114 C 0.73851 0.67795 0.74927 0.0
C115 C 0.73231 0.74549 0.76302 0.0
C116 C 0.76099 0.7305 0.77384 0.0
C117 C 0.7788 0.6898 0.77236 0.0
C118 C 0.76722 0.66382 0.76018 0.0
C119 C 0.71298 0.78916 0.76482 0.0
C120 C 0.74134 0.82226 0.7578 0.0
C121 C 0.73224 0.83752 0.74337 0.0
C122 C 0.75763 0.8693 0.73699 0.0
C123 C 0.7926 0.88511 0.74496 0.0
C124 C 0.80083 0.87212 0.75968 0.0
C125 C 0.77579 0.83968 0.76592 0.0
H126 H 0.50775 0.47725 0.0239 0.0
H127 H 0.5133 0.40625 0.98224 0.0
H128 H 0.41293 0.49659 0.98995 0.0
H129 H 0.55686 0.41891 0.0214 0.0
H130 H 0.55007 0.38187 0.00626 0.0
H131 H 0.60474 0.48196 0.01848 0.0
H132 H 0.70331 0.46858 0.98529 0.0
H133 H 0.5968 0.38305 0.98453 0.0
C134 C 0.49566 0.47083 0.01272 0.0
C135 C 0.45847 0.49141 0.00787 0.0
C136 C 0.51636 0.4408 0.00335 0.0
C137 C 0.49894 0.43091 0.9892 0.0
C138 C 0.46204 0.45162 0.98428 0.0
C139 C 0.44269 0.48235 -0.0065 0.0
C140 C 0.55436 0.41628 0.00897 0.0
C141 C 0.5952 0.43189 0.00193 0.0
C142 C 0.61726 0.46653 0.00846 0.0
C143 C 0.65681 0.47919 0.00265 0.0
C144 C 0.67272 0.45882 0.98977 0.0
C145 C 0.65165 0.42412 0.98321 0.0
C146 C 0.61281 0.41052 0.98934 0.0
H147 H 0.17556 0.56766 0.53506 0.0
H148 H 0.15946 0.63733 0.49412 0.0
H149 H 0.25043 0.53539 0.4961 0.0
H150 H 0.13576 0.63659 0.53478 0.0
H151 H 0.12639 0.66323 0.51736 0.0
H152 H 0.09818 0.56882 0.54054 0.0
H153 H 0.98836 0.5363 0.51437 0.0
H154 H 0.06836 0.64056 0.50095 0.0
C155 C 0.18424 0.573 0.52346 0.0
C156 C 0.21495 0.5469 0.51649 0.0
C157 C 0.16398 0.60553 0.51542 0.0
C158 C 0.17503 0.61232 0.50036 0.0
C159 C 0.2058 0.58666 0.4933 0.0
C160 C 0.22541 0.55404 0.5014 0.0
C161 C 0.12899 0.63138 0.52264 0.0
C162 C 0.0878 0.6074 0.52092 0.0
C163 C 0.07784 0.57469 0.53097 0.0
C164 C 0.04233 0.5488 0.52848 0.0
C165 C 0.01602 0.5564 0.51614 0.0
C166 C 0.02423 0.5901 0.50635 0.0
C167 C 0.06093 0.61499 0.5086 0.0
C168 C 0.12768 0.67523 0.12958 0.0
C169 C 0.97707 0.60507 0.12309 0.0
C170 C 0.9676 0.68951 0.08515 0.0
Mg171 Mg 0.16151 0.7688 0.1203 0.0
Mg172 Mg 0.09869 0.84955 0.11213 0.0
O173 O 0.11079 0.79187 0.10936 0.0
Mg174 Mg 0.06908 0.74619 0.11419 0.0
O175 O 0.03139 0.69699 0.11881 0.0
Mg176 Mg 0.05546 0.6549 0.10385 0.0
Mg177 Mg 0.97228 0.70306 0.11902 0.0
C178 C 0.01126 0.81992 0.09755 0.0
O179 O 0.03642 0.78358 0.13346 0.0
O180 O 0.20021 0.82261 0.10911 0.0
O181 O 0.96848 0.75988 0.13293 0.0
O182 O 0.15196 0.8144 0.14121 0.0
O183 O 0.15573 0.87464 0.10186 0.0
O184 O 0.10238 0.86252 0.13549 0.0
O185 O 0.09902 0.70792 0.09488 0.0
O186 O 0.16716 0.72537 0.09966 0.0
C187 C 0.13911 0.7047 0.09209 0.0
C188 C 0.19315 0.85843 0.10273 0.0
O189 O 0.01982 0.78017 0.09913 0.0
O190 O 0.01129 0.60474 0.11513 0.0
O191 O 0.03556 0.84994 0.10238 0.0
O192 O 0.00214 0.66781 0.08604 0.0
O193 O 0.9571 0.63963 0.12634 0.0
O194 O 0.95228 0.70933 0.09646 0.0
O195 O 0.11823 0.71516 0.12955 0.0
O196 O 0.10732 0.64784 0.12152 0.0
C197 C 0.1285 0.84648 0.14476 0.0
C198 C 0.99731 0.78561 0.13771 0.0
C199 C 0.63405 0.79786 0.3947 0.0
C200 C 0.70707 0.65132 0.3929 0.0
C201 C 0.65704 0.64483 0.34751 0.0
Mg202 Mg 0.55309 0.83618 0.37714 0.0
Mg203 Mg 0.48205 0.77858 0.35852 0.0
O204 O 0.53935 0.78822 0.36282 0.0
Mg205 Mg 0.57874 0.74421 0.37096 0.0
O206 O 0.62183 0.70463 0.37941 0.0
Mg207 Mg 0.67411 0.73039 0.37023 0.0
Mg208 Mg 0.61675 0.64531 0.37914 0.0
C209 C 0.52155 0.69347 0.34478 0.0
O210 O 0.52859 0.70999 0.38515 0.0
O211 O 0.51197 0.87943 0.3621 0.0
O212 O 0.55096 0.64179 0.38708 0.0
O213 O 0.49274 0.8228 0.39198 0.0
O214 O 0.46826 0.83862 0.34813 0.0
O215 O 0.44997 0.77773 0.37959 0.0
O216 O 0.63101 0.77646 0.35702 0.0
O217 O 0.61143 0.84399 0.36229 0.0
C218 C 0.63706 0.81696 0.35622 0.0
C219 C 0.48344 0.87509 0.3519 0.0
O220 O 0.55678 0.69828 0.35195 0.0
O221 O 0.71304 0.68482 0.38504 0.0
O222 O 0.48995 0.71924 0.34612 0.0
O223 O 0.67578 0.68006 0.35072 0.0
O224 O 0.67139 0.63142 0.39308 0.0
O225 O 0.63099 0.62729 0.35655 0.0
O226 O 0.5963 0.78996 0.38992 0.0
O227 O 0.66695 0.77859 0.38942 0.0
C228 C 0.45867 0.80026 0.39118 0.0
C229 C 0.52304 0.67122 0.38921 0.0
C230 C 0.62995 0.17571 0.63341 0.0
C231 C 0.48301 0.11233 0.62859 0.0
C232 C 0.47387 0.19076 0.58832 0.0
Mg233 Mg 0.67178 0.2628 0.62304 0.0
Mg234 Mg 0.62048 0.34615 0.6094 0.0
O235 O 0.62688 0.28717 0.60954 0.0
Mg236 Mg 0.5802 0.24696 0.6147 0.0
O237 O 0.53835 0.20229 0.62015 0.0
Mg238 Mg 0.56096 0.15527 0.60703 0.0
Mg239 Mg 0.47966 0.20893 0.62248 0.0
C240 C 0.53562 0.31942 0.59244 0.0
O241 O 0.54828 0.29114 0.63192 0.0
O242 O 0.71889 0.30907 0.61191 0.0
O243 O 0.48056 0.26859 0.63534 0.0
O244 O 0.65914 0.31414 0.64195 0.0
O245 O 0.68289 0.36224 0.601 0.0
O246 O 0.61711 0.36464 0.63242 0.0
O247 O 0.60989 0.20242 0.59709 0.0
O248 O 0.67801 0.2141 0.60397 0.0
C249 C 0.65008 0.19483 0.59587 0.0
C250 C 0.7178 0.34303 0.60405 0.0
O251 O 0.53744 0.28114 0.59742 0.0
O252 O 0.51448 0.11008 0.61938 0.0
O253 O 0.5629 0.34832 0.59595 0.0
O254 O 0.50908 0.1699 0.58884 0.0
O255 O 0.46543 0.14786 0.63218 0.0
O256 O 0.45799 0.20908 0.5999 0.0
O257 O 0.62265 0.21581 0.63219 0.0
O258 O 0.61027 0.14768 0.62547 0.0
C259 C 0.63744 0.34866 0.64338 0.0
C260 C 0.51105 0.29507 0.63771 0.0
C261 C 0.16526 0.29093 0.88103 0.0
C262 C 0.2311 0.14028 0.87699 0.0
C263 C 0.15236 0.12876 0.83735 0.0
Mg264 Mg 0.07659 0.32903 0.86961 0.0
Mg265 Mg 0.9937 0.27144 0.85897 0.0
O266 O 0.05235 0.28024 0.85752 0.0
Mg267 Mg 0.09451 0.23576 0.86349 0.0
O268 O 0.14086 0.196 0.86949 0.0
Mg269 Mg 0.18706 0.21761 0.85587 0.0
Mg270 Mg 0.13392 0.13723 0.8711 0.0
C271 C 0.02173 0.18467 0.84303 0.0
O272 O 0.05177 0.2052 0.88139 0.0
O273 O 0.02746 0.37181 0.85794 0.0
O274 O 0.07586 0.13792 0.8845 0.0
O275 O 0.02766 0.32066 0.88925 0.0
O276 O 0.97271 0.33171 0.84986 0.0
O277 O 0.97949 0.27169 0.88244 0.0
O278 O 0.13816 0.2633 0.84548 0.0
O279 O 0.12379 0.33248 0.85007 0.0
C280 C 0.14416 0.30311 0.84293 0.0
C281 C 0.99149 0.36783 0.85128 0.0
O282 O 0.06063 0.18884 0.84731 0.0
O283 O 0.23317 0.17314 0.86856 0.0
O284 O 0.99217 0.2113 0.84658 0.0
O285 O 0.17458 0.16308 0.83812 0.0
O286 O 0.19584 0.12155 0.87994 0.0
O287 O 0.13135 0.11505 0.84857 0.0
O288 O 0.12528 0.28288 0.87981 0.0
O289 O 0.19364 0.2699 0.87368 0.0
C290 C 0.99537 0.29714 0.89217 0.0
C291 C 0.04907 0.16799 0.88718 0.0
C292 C 0.17489 0.93563 0.4716 0.0
C293 C 0.15655 0.96682 0.46246 0.0
C294 C 0.20057 0.90371 0.46534 0.0
C295 C 0.2825 0.87207 0.4514 0.0
H296 H 0.27359 0.82731 0.41085 0.0
C297 C 0.42842 0.83597 0.41423 0.0
C298 C 0.42548 0.80435 0.403 0.0
C299 C 0.39347 0.84515 0.42349 0.0
C300 C 0.27648 0.83878 0.4223 0.0
H301 H 0.1476 0.98715 0.43956 0.0
H302 H 0.19266 0.93184 0.42856 0.0
H303 H 0.21158 0.85966 0.42277 0.0
H304 H 0.38452 0.75516 0.39358 0.0
H305 H 0.32428 0.77052 0.40992 0.0
H306 H 0.3475 0.8516 0.45088 0.0
C307 C 0.18699 0.93147 0.44055 0.0
C308 C 0.24095 0.85781 0.42908 0.0
C309 C 0.16101 0.9632 0.44683 0.0
C310 C 0.38785 0.78013 0.40198 0.0
C311 C 0.3531 0.78907 0.4113 0.0
C312 C 0.31797 0.8529 0.44465 0.0
C313 C 0.20875 0.90263 0.44981 0.0
C314 C 0.24384 0.87583 0.44355 0.0
C315 C 0.35491 0.82272 0.4218 0.0
C316 C 0.31578 0.83715 0.42985 0.0
H317 H 0.17172 0.93772 0.4837 0.0
H318 H 0.21595 0.88138 0.47275 0.0
H319 H 0.28618 0.88594 0.4625 0.0
H320 H 0.45682 0.8553 0.41532 0.0
H321 H 0.39598 0.87152 0.43137 0.0
C322 C 0.45168 0.83463 0.71976 0.0
C323 C 0.41232 0.81411 0.72144 0.0
C324 C 0.45983 0.85905 0.70703 0.0
C325 C 0.47403 0.90246 0.67706 0.0
H326 H 0.37735 0.97255 0.66622 0.0
C327 C 0.48796 0.03346 0.63241 0.0
C328 C 0.46947 0.07293 0.63628 0.0
C329 C 0.47905 0.99712 0.64077 0.0
C330 C 0.40468 0.95329 0.66912 0.0
H331 H 0.35213 0.79969 0.71076 0.0
H332 H 0.3668 0.84103 0.68829 0.0
H333 H 0.36815 0.91598 0.68433 0.0
H334 H 0.42582 0.10464 0.65166 0.0
H335 H 0.41071 0.0415 0.66632 0.0
H336 H 0.51099 0.94144 0.6624 0.0
C337 C 0.3909 0.83952 0.69694 0.0
C338 C 0.39931 0.92037 0.67935 0.0
C339 C 0.38263 0.81554 0.70971 0.0
C340 C 0.44055 0.0748 0.64833 0.0
C341 C 0.43175 0.03848 0.65671 0.0
C342 C 0.47943 0.93554 0.66684 0.0
C343 C 0.42882 0.86305 0.69573 0.0
C344 C 0.43404 0.89493 0.68363 0.0
C345 C 0.45148 0.99938 0.6532 0.0
C346 C 0.44494 0.9618 0.66295 0.0
H347 H 0.47486 0.83429 0.72875 0.0
H348 H 0.48925 0.87695 0.70654 0.0
H349 H 0.50135 0.88325 0.68 0.0
H350 H 0.51017 0.03073 0.62313 0.0
H351 H 0.49421 0.96735 0.63761 0.0
C352 C 0.5125 0.11095 0.96532 0.0
C353 C 0.51521 0.07327 0.97364 0.0
C354 C 0.49065 0.11133 0.95166 0.0
C355 C 0.3998 0.05851 0.9352 0.0
H356 H 0.42708 0.12328 0.89966 0.0
C357 C 0.27308 0.084 0.89009 0.0
C358 C 0.27047 0.12533 0.88431 0.0
C359 C 0.30885 0.07137 0.89821 0.0
C360 C 0.41887 0.10524 0.90954 0.0
H361 H 0.50105 0.00566 0.97349 0.0
H362 H 0.46245 0.00653 0.94976 0.0
H363 H 0.48128 0.11307 0.91895 0.0
H364 H 0.30388 0.18539 0.88204 0.0
H365 H 0.3652 0.16417 0.8967 0.0
H366 H 0.33695 0.05273 0.9265 0.0
C367 C 0.47665 0.03581 0.95389 0.0
C368 C 0.45001 0.09924 0.92052 0.0
C369 C 0.49862 0.03537 0.96748 0.0
C370 C 0.30499 0.15324 0.88632 0.0
C371 C 0.3404 0.1409 0.89466 0.0
C372 C 0.36859 0.06496 0.92437 0.0
C373 C 0.4711 0.07409 0.94614 0.0
C374 C 0.44051 0.07635 0.93356 0.0
C375 C 0.34243 0.10009 0.90098 0.0
C376 C 0.37741 0.08906 0.91151 0.0
H377 H 0.52478 0.14068 0.96981 0.0
H378 H 0.48662 0.14135 0.94596 0.0
H379 H 0.39133 0.04135 0.94526 0.0
H380 H 0.24722 0.06158 0.88853 0.0
H381 H 0.30971 0.03935 0.90258 0.0
C382 C 0.19988 0.15087 0.2267 0.0
C383 C 0.24356 0.15735 0.22923 0.0
C384 C 0.18593 0.11678 0.2177 0.0
C385 C 0.22441 0.03241 0.19078 0.0
H386 H 0.12302 0.9731 0.20409 0.0
C387 C 0.17712 0.87001 0.16555 0.0
C388 C 0.13687 0.87128 0.1587 0.0
C389 C 0.18909 0.90183 0.17584 0.0
C390 C 0.15149 0.98931 0.20032 0.0
H391 H 0.30686 0.13518 0.22331 0.0
H392 H 0.28288 0.07524 0.20823 0.0
H393 H 0.14572 0.03788 0.21721 0.0
H394 H 0.07674 0.90524 0.15814 0.0
H395 H 0.09679 0.95902 0.17662 0.0
H396 H 0.23051 0.98308 0.17412 0.0
C397 C 0.25908 0.09642 0.21298 0.0
C398 C 0.16427 0.02677 0.20769 0.0
C399 C 0.27294 0.1307 0.22178 0.0
C400 C 0.10765 0.90276 0.16338 0.0
C401 C 0.11924 0.93386 0.17391 0.0
C402 C 0.21205 0.9946 0.18362 0.0
C403 C 0.21535 0.08822 0.21112 0.0
C404 C 0.20085 0.04899 0.20298 0.0
C405 C 0.16068 0.93482 0.17971 0.0
C406 C 0.17542 0.97276 0.18828 0.0
H407 H 0.17638 0.17069 0.23231 0.0
H408 H 0.15202 0.11225 0.21623 0.0
H409 H 0.25219 0.04887 0.18658 0.0
H410 H 0.20054 0.84651 0.1621 0.0
H411 H 0.22119 0.90176 0.18027 0.0
C412 C 0.237 0.09467 0.48572 0.0
C413 C 0.19473 0.09685 0.49095 0.0
C414 C 0.26996 0.1133 0.4939 0.0
C415 C 0.29748 0.1901 0.52361 0.0
H416 H 0.38642 0.10897 0.533 0.0
C417 C 0.40795 0.21035 0.57436 0.0
C418 C 0.44851 0.19129 0.57431 0.0
C419 C 0.38101 0.20613 0.56203 0.0
C420 C 0.36263 0.13255 0.53023 0.0
H421 H 0.15352 0.12292 0.50829 0.0
H422 H 0.21156 0.15614 0.52263 0.0
H423 H 0.33061 0.08902 0.5155 0.0
H424 H 0.49383 0.15576 0.56071 0.0
H425 H 0.44714 0.14934 0.53893 0.0
H426 H 0.3295 0.23375 0.53832 0.0
C427 C 0.21893 0.13965 0.5122 0.0
C428 C 0.3304 0.12093 0.52026 0.0
C429 C 0.18578 0.12066 0.50402 0.0
C430 C 0.46259 0.17033 0.5612 0.0
C431 C 0.43566 0.16643 0.54876 0.0
C432 C 0.33015 0.20203 0.53344 0.0
C433 C 0.26142 0.13499 0.50741 0.0
C434 C 0.29711 0.14926 0.51707 0.0
C435 C 0.39398 0.18307 0.54922 0.0
C436 C 0.36265 0.17303 0.53715 0.0
H437 H 0.24477 0.07757 0.47545 0.0
H438 H 0.30234 0.10989 0.48984 0.0
H439 H 0.27239 0.21267 0.52118 0.0
H440 H 0.39599 0.22705 0.5842 0.0
H441 H 0.34915 0.21906 0.56295 0.0
C442 C 0.32099 0.83972 0.78036 0.0
C443 C 0.31609 0.82601 0.76539 0.0
C444 C 0.29252 0.86902 0.78671 0.0
C445 C 0.2282 0.9586 0.77566 0.0
H446 H 0.18497 0.95416 0.8164 0.0
C447 C 0.13008 0.06349 0.82325 0.0
C448 C 0.15598 0.1 0.82412 0.0
C449 C 0.14009 0.03019 0.81341 0.0
C450 C 0.19624 0.95568 0.80492 0.0
H451 H 0.27513 0.82934 0.74584 0.0
H452 H 0.22617 0.88151 0.75685 0.0
H453 H 0.21973 0.89165 0.80542 0.0
H454 H 0.21021 0.13193 0.81417 0.0
H455 H 0.22789 0.07339 0.79695 0.0
H456 H 0.2063 0.02336 0.77542 0.0
C457 C 0.25231 0.8698 0.76356 0.0
C458 C 0.21638 0.92001 0.7987 0.0
C459 C 0.28038 0.84002 0.75729 0.0
C460 C 0.18966 0.10425 0.81381 0.0
C461 C 0.19977 0.07071 0.80394 0.0
C462 C 0.20853 0.99457 0.78196 0.0
C463 C 0.25886 0.88545 0.77817 0.0
C464 C 0.23311 0.92134 0.78411 0.0
C465 C 0.17629 0.03257 0.80422 0.0
C466 C 0.19285 0.99359 0.79672 0.0
H467 H 0.3483 0.83 0.78689 0.0
H468 H 0.29836 0.88076 0.798 0.0
H469 H 0.24122 0.96052 0.76442 0.0
H470 H 0.10381 0.05912 0.83095 0.0
H471 H 0.12099 0.00147 0.81364 0.0
C472 C 0.47656 0.99319 0.02432 0.0
C473 C 0.49322 0.034 0.02716 0.0
C474 C 0.44828 0.97463 0.03441 0.0
C475 C 0.37069 0.0038 0.06366 0.0
H476 H 0.36898 0.88192 0.07015 0.0
C477 C 0.22314 0.91602 0.0865 0.0
C478 C 0.22964 0.88121 0.09601 0.0
C479 C 0.25773 0.93615 0.07968 0.0
C480 C 0.36926 0.9161 0.06865 0.0
H481 H 0.49449 0.08676 0.04305 0.0
H482 H 0.44569 0.05386 0.0609 0.0
H483 H 0.42725 0.91332 0.05605 0.0
H484 H 0.27775 0.8413 0.10625 0.0
H485 H 0.33788 0.87685 0.0946 0.0
H486 H 0.31285 0.00659 0.07638 0.0
C487 C 0.45402 0.03654 0.05073 0.0
C488 C 0.40244 0.93402 0.06041 0.0
C489 C 0.48234 0.05517 0.04061 0.0
C490 C 0.27152 0.86771 0.09885 0.0
C491 C 0.30605 0.88799 0.09212 0.0
C492 C 0.33756 0.98588 0.07196 0.0
C493 C 0.43612 0.99637 0.04762 0.0
C494 C 0.40317 0.97797 0.0576 0.0
C495 C 0.29956 0.92209 0.08231 0.0
C496 C 0.33613 0.94172 0.07436 0.0
H497 H 0.48478 0.97589 0.01413 0.0
H498 H 0.43481 0.94384 0.03158 0.0
H499 H 0.37008 0.03772 0.06159 0.0
H500 H 0.1913 0.92718 0.08404 0.0
H501 H 0.25155 0.96198 0.07202 0.0
C502 C 0.31723 0.17351 0.28987 0.0
C503 C 0.33024 0.17944 0.27496 0.0
C504 C 0.34119 0.14785 0.29939 0.0
C505 C 0.41136 0.05573 0.29566 0.0
H506 H 0.41942 0.06528 0.33899 0.0
C507 C 0.48404 0.95408 0.34796 0.0
C508 C 0.4684 0.91347 0.34401 0.0
C509 C 0.47085 0.99012 0.34017 0.0
C510 C 0.41778 0.06239 0.32688 0.0
H511 H 0.38008 0.1671 0.25866 0.0
H512 H 0.42264 0.1232 0.27538 0.0
H513 H 0.39366 0.12586 0.32452 0.0
H514 H 0.42596 0.87914 0.32897 0.0
H515 H 0.40286 0.94197 0.31549 0.0
H516 H 0.43513 0.9924 0.29794 0.0
C517 C 0.39343 0.13724 0.27963 0.0
C518 C 0.4028 0.09692 0.31862 0.0
C519 C 0.36929 0.1625 0.27009 0.0
C520 C 0.43884 0.90983 0.33226 0.0
C521 C 0.42578 0.94581 0.32447 0.0
C522 C 0.42621 0.02135 0.30388 0.0
C523 C 0.37863 0.128 0.29414 0.0
C524 C 0.39891 0.09372 0.30293 0.0
C525 C 0.44193 0.98625 0.32825 0.0
C526 C 0.42886 0.02402 0.31959 0.0
H527 H 0.28704 0.18611 0.29381 0.0
H528 H 0.32879 0.14118 0.31047 0.0
H529 H 0.40815 0.05187 0.28362 0.0
H530 H 0.50682 0.95807 0.35697 0.0
H531 H 0.48398 0.02087 0.34327 0.0
C532 C 0.93022 0.04725 0.51824 0.0
C533 C 0.94109 0.07568 0.50679 0.0
C534 C 0.89908 0.05823 0.52884 0.0
C535 C 0.80092 0.11684 0.53014 0.0
H536 H 0.80623 0.10738 0.57341 0.0
C537 C 0.67065 0.18377 0.56942 0.0
C538 C 0.6668 0.16725 0.5839 0.0
C539 C 0.70077 0.16691 0.55942 0.0
C540 C 0.80372 0.1092 0.56132 0.0
H541 H 0.92989 0.13842 0.49779 0.0
H542 H 0.87512 0.15761 0.51629 0.0
H543 H 0.86955 0.09262 0.55835 0.0
H544 H 0.68832 0.11841 0.59901 0.0
H545 H 0.73873 0.08672 0.58123 0.0
H546 H 0.73502 0.13209 0.53288 0.0
C547 C 0.89089 0.12704 0.51712 0.0
C548 C 0.84027 0.10125 0.55274 0.0
C549 C 0.92258 0.11635 0.50671 0.0
C550 C 0.69043 0.13117 0.58778 0.0
C551 C 0.71994 0.11371 0.57769 0.0
C552 C 0.76415 0.12399 0.53867 0.0
C553 C 0.87779 0.09745 0.52791 0.0
C554 C 0.83933 0.10569 0.53711 0.0
C555 C 0.72726 0.13289 0.5637 0.0
C556 C 0.76512 0.12088 0.55441 0.0
H557 H 0.9436 0.01544 0.51832 0.0
H558 H 0.88944 0.03489 0.53704 0.0
H559 H 0.79922 0.11956 0.51804 0.0
H560 H 0.65349 0.21234 0.56638 0.0
H561 H 0.70549 0.18291 0.54885 0.0
C562 C 0.8255 0.06655 0.27713 0.0
C563 C 0.79236 0.08894 0.27007 0.0
C564 C 0.81658 0.03644 0.28814 0.0
C565 C 0.7367 0.0015 0.31527 0.0
H566 H 0.77981 0.88734 0.30762 0.0
C567 C 0.68102 0.82649 0.33312 0.0
C568 C 0.67412 0.83494 0.34843 0.0
C569 C 0.7057 0.85454 0.32457 0.0
C570 C 0.76785 0.91911 0.30993 0.0
H571 H 0.72392 0.09871 0.2698 0.0
H572 H 0.70869 0.04754 0.28947 0.0
H573 H 0.80143 0.94605 0.29129 0.0
H574 H 0.69103 0.87588 0.3672 0.0
H575 H 0.73453 0.92415 0.35241 0.0
H576 H 0.70256 0.9748 0.33369 0.0
C577 C 0.74153 0.05301 0.28628 0.0
C578 C 0.78035 0.95268 0.30068 0.0
C579 C 0.75034 0.08262 0.27508 0.0
C580 C 0.69583 0.86887 0.35538 0.0
C581 C 0.72041 0.89667 0.3469 0.0
C582 C 0.72476 0.96819 0.32463 0.0
C583 C 0.77443 0.02874 0.29257 0.0
C584 C 0.76434 0.99404 0.30314 0.0
C585 C 0.7236 0.89117 0.33129 0.0
C586 C 0.73979 0.92656 0.32196 0.0
H587 H 0.85833 0.07122 0.27377 0.0
H588 H 0.84256 0.01863 0.29301 0.0
H589 H 0.72396 0.03306 0.31742 0.0
H590 H 0.66414 0.8008 0.32752 0.0
H591 H 0.70768 0.84957 0.31254 0.0
C592 C 0.71842 0.01281 0.04185 0.0
C593 C 0.71818 0.00519 0.02628 0.0
C594 C 0.73974 0.98506 0.0514 0.0
C595 C 0.79629 0.88124 0.05405 0.0
H596 H 0.87533 0.94766 0.07806 0.0
C597 C 0.95458 0.81405 0.07786 0.0
C598 C 0.96999 0.8323 0.09121 0.0
C599 C 0.91708 0.82955 0.07139 0.0
C600 C 0.853 0.92831 0.07174 0.0
H601 H 0.73607 0.96029 0.00871 0.0
H602 H 0.77398 0.91223 0.02537 0.0
H603 H 0.81902 0.98337 0.06473 0.0
H604 H 0.957 0.87789 0.10905 0.0
H605 H 0.89096 0.90355 0.09824 0.0
H606 H 0.83117 0.82607 0.06096 0.0
C607 C 0.75773 0.93957 0.0302 0.0
C608 C 0.82058 0.94893 0.06407 0.0
C609 C 0.73639 0.96732 0.02064 0.0
C610 C 0.94618 0.86412 0.09852 0.0
C611 C 0.90844 0.87887 0.09228 0.0
C612 C 0.82871 0.8604 0.06189 0.0
C613 C 0.76125 0.9492 0.04558 0.0
C614 C 0.79213 0.9258 0.055 0.0
C615 C 0.89416 0.86296 0.07836 0.0
C616 C 0.85773 0.88382 0.07072 0.0
H617 H 0.70474 0.0417 0.04655 0.0
H618 H 0.74137 0.99291 0.06326 0.0
H619 H 0.77475 0.86261 0.04714 0.0
H620 H 0.97244 0.78921 0.07212 0.0
H621 H 0.90713 0.81659 0.06065 0.0
C622 C 0.8319 0.94155 0.76783 0.0
C623 C 0.83169 0.89691 0.76888 0.0
C624 C 0.86148 0.96585 0.77568 0.0
C625 C 0.92741 0.97078 0.80873 0.0
H626 H 0.97907 0.06437 0.78715 0.0
C627 C 0.02516 0.10651 0.83759 0.0
C628 C 0.00994 0.14715 0.83393 0.0
C629 C 0.01158 0.07058 0.82948 0.0
C630 C 0.96513 0.03824 0.79331 0.0
H631 H 0.86119 0.84291 0.77969 0.0
H632 H 0.9131 0.88619 0.79389 0.0
H633 H 0.94046 0.00919 0.77335 0.0
H634 H 0.96912 0.18251 0.819 0.0
H635 H 0.94618 0.12006 0.8046 0.0
H636 H 0.95079 0.00108 0.82879 0.0
C637 C 0.8905 0.90188 0.78664 0.0
C638 C 0.94312 0.00667 0.78543 0.0
C639 C 0.86083 0.87723 0.77858 0.0
C640 C 0.98147 0.15149 0.82196 0.0
C641 C 0.96859 0.11582 0.81369 0.0
C642 C 0.94967 0.00245 0.81665 0.0
C643 C 0.89148 0.94639 0.78501 0.0
C644 C 0.92248 0.97367 0.79311 0.0
C645 C 0.98328 0.07498 0.81742 0.0
C646 C 0.96718 0.03736 0.80904 0.0
H647 H 0.80892 0.95795 0.76091 0.0
H648 H 0.86055 0.00018 0.77457 0.0
H649 H 0.91171 0.94573 0.81491 0.0
H650 H 0.04643 0.10239 0.84701 0.0
H651 H 0.02313 0.03942 0.83263 0.0
C652 C 0.90494 0.01487 0.44686 0.0
C653 C 0.92073 0.99625 0.45999 0.0
C654 C 0.86865 0.99827 0.43987 0.0
C655 C 0.77338 0.93493 0.44921 0.0
H656 H 0.75899 0.92613 0.4061 0.0
C657 C 0.65821 0.82139 0.41959 0.0
C658 C 0.6423 0.83227 0.40547 0.0
C659 C 0.68339 0.85016 0.42764 0.0
C660 C 0.76206 0.92937 0.41817 0.0
H661 H 0.91325 0.94403 0.47545 0.0
H662 H 0.85072 0.91419 0.46299 0.0
H663 H 0.82485 0.9553 0.41629 0.0
H664 H 0.6367 0.8824 0.38915 0.0
H665 H 0.68061 0.93319 0.40328 0.0
H666 H 0.71112 0.90763 0.45106 0.0
C667 C 0.86545 0.94235 0.45835 0.0
C668 C 0.79997 0.9458 0.424 0.0
C669 C 0.90154 0.95901 0.46536 0.0
C670 C 0.64817 0.87371 0.40015 0.0
C671 C 0.67375 0.90246 0.40814 0.0
C672 C 0.73553 0.91842 0.44338 0.0
C673 C 0.84766 0.96271 0.44587 0.0
C674 C 0.80646 0.94781 0.43958 0.0
C675 C 0.69353 0.89002 0.42155 0.0
C676 C 0.72982 0.9146 0.4278 0.0
H677 H 0.91879 0.04398 0.44263 0.0
H678 H 0.85574 0.01469 0.43027 0.0
H679 H 0.77694 0.93714 0.46128 0.0
H680 H 0.65475 0.78921 0.4237 0.0
H681 H 0.69832 0.83945 0.43788 0.0
C682 C 0.84034 0.08542 0.20561 0.0
C683 C 0.85887 0.09437 0.21962 0.0
C684 C 0.85983 0.05688 0.19566 0.0
C685 C 0.95737 0.99666 0.18664 0.0
H686 H 0.87733 0.90822 0.17507 0.0
C687 C 0.01024 0.83757 0.15871 0.0
C688 C 0.9838 0.82143 0.14733 0.0
C689 C 0.99696 0.87233 0.1675 0.0
C690 C 0.90004 0.93289 0.17798 0.0
H691 H 0.91399 0.08357 0.23367 0.0
H692 H 0.94809 0.03338 0.21622 0.0
H693 H 0.85236 0.96985 0.1892 0.0
H694 H 0.92369 0.82938 0.13579 0.0
H695 H 0.90139 0.89088 0.15059 0.0
H696 H 0.0051 0.95959 0.17528 0.0
C697 C 0.9185 0.0484 0.21298 0.0
C698 C 0.88569 0.96823 0.18608 0.0
C699 C 0.8989 0.07687 0.22298 0.0
C700 C 0.9443 0.84078 0.14471 0.0
C701 C 0.93152 0.87596 0.15322 0.0
C702 C 0.97176 0.96133 0.17837 0.0
C703 C 0.89821 0.03686 0.19952 0.0
C704 C 0.9141 0.00053 0.19043 0.0
C705 C 0.95756 0.89207 0.16477 0.0
C706 C 0.94313 0.92915 0.1739 0.0
H707 H 0.80939 0.09816 0.20274 0.0
H708 H 0.84384 0.04887 0.18524 0.0
H709 H 0.97989 0.02115 0.18992 0.0
H710 H 0.04083 0.823 0.16092 0.0
H711 H 0.01739 0.88354 0.17648 0.0
C712 C 0.79564 0.09844 0.98595 0.0
C713 C 0.75183 0.09782 0.98283 0.0
C714 C 0.8249 0.10962 0.97491 0.0
C715 C 0.83883 0.11427 0.93408 0.0
H716 H 0.93934 0.17924 0.94503 0.0
C717 C 0.97123 0.16616 0.89219 0.0
C718 C 0.01302 0.15927 0.89713 0.0
C719 C 0.93684 0.15922 0.90185 0.0
C720 C 0.91153 0.16085 0.94185 0.0
H721 H 0.7042 0.10919 0.96577 0.0
H722 H 0.75566 0.1294 0.94639 0.0
H723 H 0.88281 0.16921 0.96344 0.0
H724 H 0.05224 0.13891 0.91564 0.0
H725 H 0.99223 0.12835 0.93281 0.0
H726 H 0.86793 0.106 0.91244 0.0
C727 C 0.76723 0.12069 0.95738 0.0
C728 C 0.87917 0.15514 0.95237 0.0
C729 C 0.73781 0.10947 0.96848 0.0
C730 C 0.02015 0.14464 0.9117 0.0
C731 C 0.98594 0.13882 0.92148 0.0
C732 C 0.87119 0.12026 0.9235 0.0
C733 C 0.81112 0.12072 0.96048 0.0
C734 C 0.84293 0.13091 0.94873 0.0
C735 C 0.94403 0.14661 0.91671 0.0
C736 C 0.90824 0.14275 0.92742 0.0
H737 H 0.8074 0.09031 -0.00302 0.0
H738 H 0.85849 0.10875 0.97763 0.0
H739 H 0.81144 0.09521 0.93097 0.0
H740 H 0.96525 0.17715 0.8809 0.0
H741 H 0.90487 0.16551 0.89792 0.0
C742 C 0.7055 0.91515 0.72394 0.0
C743 C 0.74402 0.8925 0.72351 0.0
C744 C 0.69757 0.94701 0.71351 0.0
C745 C 0.7234 0.98983 0.67708 0.0
H746 H 0.70399 0.10032 0.69581 0.0
C747 C 0.6933 0.13382 0.64024 0.0
C748 C 0.65912 0.15961 0.64478 0.0
C749 C 0.71214 0.10591 0.65034 0.0
C750 C 0.70899 0.06974 0.69037 0.0
H751 H 0.80311 0.88304 0.71135 0.0
H752 H 0.78831 0.93777 0.69261 0.0
H753 H 0.71496 0.03792 0.71142 0.0
H754 H 0.61912 0.17874 0.66343 0.0
H755 H 0.65077 0.12929 0.68104 0.0
H756 H 0.71525 0.02057 0.65606 0.0
C757 C 0.76467 0.93121 0.70115 0.0
C758 C 0.7153 0.03406 0.69932 0.0
C759 C 0.77298 0.89984 0.71177 0.0
C760 C 0.64612 0.15969 0.65982 0.0
C761 C 0.66429 0.13111 0.66987 0.0
C762 C 0.71626 0.02532 0.6681 0.0
C763 C 0.72771 0.95617 0.70234 0.0
C764 C 0.72205 0.99379 0.69274 0.0
C765 C 0.69613 0.10235 0.66505 0.0
C766 C 0.7085 0.06575 0.67462 0.0
H767 H 0.68304 0.91052 0.73303 0.0
H768 H 0.66867 0.96569 0.71452 0.0
H769 H 0.72859 0.95902 0.67179 0.0
H770 H 0.70344 0.13312 0.6286 0.0
H771 H 0.73747 0.0853 0.64634 0.0
C772 C 0.69233 0.42265 0.95925 0.0
C773 C 0.67444 0.40013 0.97126 0.0
C774 C 0.72615 0.40537 0.95105 0.0
C775 C 0.7884 0.31292 0.94034 0.0
H776 H 0.88506 0.38883 0.94512 0.0
C777 C 0.94986 0.27159 0.91321 0.0
C778 C 0.97013 0.30529 0.90587 0.0
C779 C 0.91668 0.27945 0.92336 0.0
C780 C 0.85844 0.36738 0.94351 0.0
H781 H 0.67474 0.34024 0.98309 0.0
H782 H 0.73336 0.30925 0.96828 0.0
H783 H 0.8168 0.40777 0.95633 0.0
H784 H 0.97372 0.37384 0.90405 0.0
H785 H 0.91561 0.38795 0.92144 0.0
H786 H 0.82922 0.27342 0.92691 0.0
C787 C 0.72142 0.3405 0.96542 0.0
C788 C 0.81937 0.37822 0.94999 0.0
C789 C 0.68769 0.35804 0.97378 0.0
C790 C 0.95899 0.34724 0.90971 0.0
C791 C 0.92545 0.35523 0.91969 0.0
C792 C 0.82741 0.30235 0.9336 0.0
C793 C 0.74231 0.36504 0.95456 0.0
C794 C 0.78384 0.35152 0.94824 0.0
C795 C 0.90275 0.32137 0.92623 0.0
C796 C 0.86279 0.32987 0.93487 0.0
H797 H 0.68265 0.45514 0.95709 0.0
H798 H 0.74142 0.42461 0.94256 0.0
H799 H 0.76142 0.29178 0.93892 0.0
H800 H 0.95861 0.23916 0.9106 0.0
H801 H 0.90097 0.25259 0.9285 0.0
C802 C 0.87831 0.33671 0.20837 0.0
C803 C 0.8402 0.31371 0.20683 0.0
C804 C 0.89634 0.35711 0.19606 0.0
C805 C 0.86155 0.40649 0.1613 0.0
H806 H 0.98197 0.43132 0.15734 0.0
C807 C 0.92285 0.56371 0.13758 0.0
C808 C 0.96077 0.56438 0.12917 0.0
C809 C 0.90859 0.52605 0.14408 0.0
C810 C 0.94828 0.42424 0.15807 0.0
H811 H 0.79267 0.29145 0.19101 0.0
H812 H 0.82458 0.32667 0.16936 0.0
H813 H 0.95879 0.3741 0.17374 0.0
H814 H 0.01275 0.52539 0.12063 0.0
H815 H 0.98764 0.45953 0.13197 0.0
H816 H 0.85098 0.45705 0.14584 0.0
C817 C 0.84017 0.32942 0.18015 0.0
C818 C 0.93498 0.3917 0.16759 0.0
C819 C 0.82213 0.3089 0.19251 0.0
C820 C 0.9835 0.52612 0.12708 0.0
C821 C 0.96922 0.48837 0.13363 0.0
C822 C 0.87486 0.43894 0.15177 0.0
C823 C 0.87668 0.35497 0.18191 0.0
C824 C 0.89138 0.38342 0.1697 0.0
C825 C 0.93182 0.48803 0.14233 0.0
C826 C 0.91827 0.44917 0.15044 0.0
H827 H 0.89313 0.34057 0.21927 0.0
H828 H 0.92423 0.37675 0.19789 0.0
H829 H 0.82771 0.40124 0.16271 0.0
H830 H 0.90445 0.59248 0.13942 0.0
H831 H 0.88003 0.52714 0.15091 0.0
C832 C 0.00727 0.60995 0.47964 0.0
C833 C 0.99348 0.59924 0.49414 0.0
C834 C 0.97768 0.6158 0.46809 0.0
C835 C 0.86159 0.63307 0.46159 0.0
H836 H 0.88739 0.59098 0.42151 0.0
C837 C 0.73273 0.6159 0.41625 0.0
C838 C 0.74179 0.63782 0.40295 0.0
C839 C 0.76481 0.60882 0.42678 0.0
C840 C 0.87991 0.60288 0.43266 0.0
H841 H 0.93769 0.58832 0.50801 0.0
H842 H 0.88678 0.59636 0.48794 0.0
H843 H 0.9412 0.58604 0.44121 0.0
H844 H 0.79197 0.66707 0.38982 0.0
H845 H 0.8481 0.65377 0.40811 0.0
H846 H 0.79993 0.64879 0.4531 0.0
C847 C 0.92018 0.60099 0.4854 0.0
C848 C 0.91078 0.60043 0.44392 0.0
C849 C 0.94954 0.59567 0.49691 0.0
C850 C 0.78399 0.6503 0.40001 0.0
C851 C 0.81615 0.64257 0.41043 0.0
C852 C 0.83062 0.63485 0.45043 0.0
C853 C 0.93375 0.61094 0.47081 0.0
C854 C 0.90191 0.61532 0.45856 0.0
C855 C 0.8066 0.62283 0.42408 0.0
C856 C 0.83942 0.61965 0.43589 0.0
H857 H 0.04089 0.61282 0.47712 0.0
H858 H 0.98927 0.62407 0.45704 0.0
H859 H 0.85387 0.64586 0.4726 0.0
H860 H 0.70053 0.60602 0.41884 0.0
H861 H 0.7568 0.59321 0.4372 0.0
C862 C 0.68322 0.6442 0.73244 0.0
C863 C 0.72594 0.64827 0.73691 0.0
C864 C 0.67103 0.61181 0.72238 0.0
C865 C 0.71629 0.52946 0.69594 0.0
H866 H 0.60741 0.47407 0.7022 0.0
C867 C 0.67501 0.37033 0.66711 0.0
C868 C 0.64018 0.3745 0.65736 0.0
C869 C 0.68259 0.40125 0.67824 0.0
C870 C 0.63798 0.48921 0.70044 0.0
H871 H 0.7897 0.62333 0.73349 0.0
H872 H 0.7685 0.56607 0.71684 0.0
H873 H 0.62669 0.53597 0.71762 0.0
H874 H 0.58488 0.41288 0.65228 0.0
H875 H 0.59694 0.46541 0.67208 0.0
H876 H 0.72787 0.48173 0.67908 0.0
C877 C 0.74417 0.58798 0.72075 0.0
C878 C 0.6489 0.52503 0.70911 0.0
C879 C 0.75636 0.62063 0.73054 0.0
C880 C 0.61143 0.40828 0.65975 0.0
C881 C 0.61844 0.43853 0.67105 0.0
C882 C 0.70576 0.4932 0.68756 0.0
C883 C 0.70124 0.58256 0.71668 0.0
C884 C 0.68834 0.54563 0.70701 0.0
C885 C 0.65493 0.43617 0.68 0.0
C886 C 0.66662 0.47272 0.68975 0.0
H887 H 0.65893 0.66488 0.73716 0.0
H888 H 0.63781 0.60937 0.71928 0.0
H889 H 0.74633 0.54494 0.69361 0.0
H890 H 0.69797 0.34494 0.6655 0.0
H891 H 0.71097 0.39884 0.68506 0.0
C892 C 0.66991 0.55061 0.01515 0.0
C893 C 0.68461 0.51023 0.01056 0.0
C894 C 0.6985 0.58073 0.02109 0.0
C895 C 0.81295 0.60659 0.02089 0.0
H896 H 0.79378 0.66048 0.05963 0.0
C897 C 0.94724 0.65336 0.06101 0.0
C898 C 0.94057 0.68618 0.07159 0.0
C899 C 0.9156 0.64307 0.05058 0.0
C900 C 0.79936 0.64666 0.04861 0.0
H901 H 0.73975 0.4686 0.00963 0.0
H902 H 0.78912 0.52078 0.01977 0.0
H903 H 0.73633 0.62048 0.04768 0.0
H904 H 0.89747 0.737 0.07839 0.0
H905 H 0.84303 0.71975 0.05995 0.0
H906 H 0.87636 0.63132 0.02201 0.0
C907 C 0.75605 0.52979 0.01843 0.0
C908 C 0.76639 0.62366 0.04181 0.0
C909 C 0.7277 0.49987 0.01268 0.0
C910 C 0.90352 0.71121 0.0705 0.0
C911 C 0.87207 0.70112 0.06001 0.0
C912 C 0.84582 0.6297 0.02764 0.0
C913 C 0.74204 0.57078 0.02241 0.0
C914 C 0.77346 0.60204 0.02817 0.0
C915 C 0.87684 0.66563 0.05044 0.0
C916 C 0.83993 0.64865 0.04184 0.0
H917 H 0.63682 0.55928 0.01367 0.0
H918 H 0.68689 0.61205 0.02426 0.0
H919 H 0.81895 0.59077 0.01023 0.0
H920 H 0.97537 0.63346 0.06153 0.0
H921 H 0.92033 0.61541 0.0434 0.0
C922 C 0.80602 0.38189 0.26057 0.0
C923 C 0.7754 0.35162 0.25613 0.0
C924 C 0.79447 0.41697 0.26945 0.0
C925 C 0.69962 0.48065 0.28009 0.0
H926 H 0.77294 0.52527 0.31148 0.0
C927 C 0.64223 0.58775 0.32857 0.0
C928 C 0.66854 0.62106 0.33367 0.0
C929 C 0.65564 0.56043 0.31709 0.0
C930 C 0.75251 0.51364 0.30256 0.0
H931 H 0.7089 0.33373 0.25805 0.0
H932 H 0.68917 0.39382 0.27407 0.0
H933 H 0.79609 0.46391 0.29655 0.0
H934 H 0.72899 0.65293 0.33023 0.0
H935 H 0.75294 0.60432 0.31022 0.0
H936 H 0.65539 0.52951 0.28653 0.0
C937 C 0.72191 0.39111 0.27033 0.0
C938 C 0.76568 0.4784 0.29403 0.0
C939 C 0.73339 0.35618 0.26137 0.0
C940 C 0.7079 0.62768 0.32651 0.0
C941 C 0.72173 0.59975 0.31515 0.0
C942 C 0.68634 0.51564 0.2887 0.0
C943 C 0.75208 0.42245 0.27419 0.0
C944 C 0.73908 0.46105 0.28286 0.0
C945 C 0.69605 0.56531 0.31058 0.0
C946 C 0.71238 0.53208 0.30016 0.0
H947 H 0.83877 0.37902 0.25686 0.0
H948 H 0.81852 0.4405 0.27218 0.0
H949 H 0.6788 0.46882 0.27132 0.0
H950 H 0.61195 0.58155 0.3339 0.0
H951 H 0.63532 0.53396 0.31391 0.0
C952 C 0.01973 0.52647 0.55398 0.0
C953 C 0.03011 0.51539 0.53913 0.0
C954 C 0.99644 0.49828 0.56282 0.0
C955 C 0.94709 0.43053 0.57995 0.0
H956 H 0.85159 0.39376 0.55548 0.0
C957 C 0.79748 0.34316 0.60294 0.0
C958 C 0.75829 0.35948 0.59795 0.0
C959 C 0.83572 0.35725 0.59671 0.0
C960 C 0.87809 0.40372 0.56244 0.0
H961 H 0.02941 0.46495 0.52238 0.0
H962 H 0.98963 0.41515 0.53794 0.0
H963 H 0.91423 0.4235 0.5435 0.0
H964 H 0.72864 0.40393 0.58268 0.0
H965 H 0.79544 0.42834 0.57178 0.0
H966 H 0.90956 0.41214 0.59896 0.0
C967 C 0.99835 0.44587 0.54265 0.0
C968 C 0.91429 0.42016 0.55559 0.0
C969 C 0.02123 0.47417 0.53379 0.0
C970 C 0.75822 0.39066 0.58677 0.0
C971 C 0.79642 0.40443 0.58046 0.0
C972 C 0.91079 0.41375 0.58683 0.0
C973 C 0.98351 0.45864 0.5569 0.0
C974 C 0.94881 0.43465 0.56426 0.0
C975 C 0.83545 0.38757 0.58527 0.0
C976 C 0.87557 0.40131 0.57813 0.0
H977 H 0.02619 0.55823 0.55827 0.0
H978 H 0.98538 0.50911 0.57373 0.0
H979 H 0.97328 0.44134 0.5869 0.0
H980 H 0.79866 0.31923 0.6116 0.0
H981 H 0.86542 0.34373 0.60058 0.0
C982 C 0.79516 0.66987 0.79883 0.0
C983 C 0.80792 0.67247 0.78376 0.0
C984 C 0.81846 0.64512 0.80887 0.0
C985 C 0.91977 0.58525 0.81355 0.0
H986 H 0.84826 0.50392 0.83424 0.0
C987 C 0.99027 0.44672 0.84747 0.0
C988 C 0.97104 0.40664 0.84532 0.0
C989 C 0.97116 0.48353 0.842 0.0
C990 C 0.86865 0.52638 0.82852 0.0
H991 H 0.85645 0.65455 0.76759 0.0
H992 H 0.8971 0.61148 0.78501 0.0
H993 H 0.81567 0.56397 0.82151 0.0
H994 H 0.91638 0.37401 0.83577 0.0
H995 H 0.88337 0.43828 0.82601 0.0
H996 H 0.97257 0.54649 0.81991 0.0
C997 C 0.86934 0.62837 0.78918 0.0
C998 C 0.85004 0.56117 0.82143 0.0
C999 C 0.84598 0.65282 0.77917 0.0
C1000 C 0.93207 0.40432 0.83764 0.0
C1001 C 0.91297 0.44121 0.83215 0.0
C1002 C 0.93837 0.55048 0.82064 0.0
C1003 C 0.85498 0.62294 0.80399 0.0
C1004 C 0.87532 0.59042 0.81356 0.0
C1005 C 0.93238 0.4812 0.83424 0.0
C1006 C 0.91292 0.52013 0.82791 0.0
H1007 H 0.76579 0.68466 0.80259 0.0
H1008 H 0.80695 0.6419 0.82027 0.0
H1009 H 0.94009 0.60745 0.80767 0.0
H1010 H 0.02016 0.44983 0.85342 0.0
H1011 H 0.98668 0.5139 0.84395 0.0
C1012 C 0.41397 0.55595 0.01312 0.0
C1013 C 0.432 0.51776 0.01818 0.0
C1014 C 0.38139 0.57589 0.02125 0.0
C1015 C 0.29539 0.54962 0.04763 0.0
H1016 H 0.28346 0.67218 0.05111 0.0
C1017 C 0.17067 0.63505 0.08539 0.0
C1018 C 0.15543 0.67475 0.08076 0.0
C1019 C 0.20039 0.61276 0.07661 0.0
C1020 C 0.28587 0.63788 0.05 0.0
H1021 H 0.43169 0.4717 0.03611 0.0
H1022 H 0.3752 0.50704 0.05053 0.0
H1023 H 0.34713 0.64208 0.03954 0.0
H1024 H 0.15699 0.72146 0.06312 0.0
H1025 H 0.20769 0.68191 0.04744 0.0
H1026 H 0.2341 0.54551 0.05816 0.0
C1027 C 0.38586 0.5212 0.04014 0.0
C1028 C 0.32257 0.62064 0.04345 0.0
C1029 C 0.41866 0.50134 0.03202 0.0
C1030 C 0.1677 0.6904 0.06673 0.0
C1031 C 0.1973 0.66811 0.05792 0.0
C1032 C 0.2586 0.5669 0.05418 0.0
C1033 C 0.366 0.55799 0.03461 0.0
C1034 C 0.3278 0.57632 0.04218 0.0
C1035 C 0.21556 0.63008 0.06311 0.0
C1036 C 0.25336 0.61126 0.05542 0.0
H1037 H 0.42365 0.56922 0.00247 0.0
H1038 H 0.36673 0.60407 0.01663 0.0
H1039 H 0.29807 0.51533 0.04658 0.0
H1040 H 0.16236 0.62301 0.09636 0.0
H1041 H 0.21391 0.58372 0.08101 0.0
C1042 C 0.37194 0.57068 0.78871 0.0
C1043 C 0.35799 0.58288 0.77443 0.0
C1044 C 0.35172 0.53734 0.79623 0.0
C1045 C 0.28474 0.44262 0.78808 0.0
H1046 H 0.26702 0.44198 0.83114 0.0
C1047 C 0.1676 0.33112 0.81848 0.0
C1048 C 0.17816 0.31733 0.8329 0.0
C1049 C 0.1952 0.35786 0.81064 0.0
C1050 C 0.27245 0.44132 0.81912 0.0
H1051 H 0.31053 0.57203 0.75723 0.0
H1052 H 0.27434 0.51496 0.77051 0.0
H1053 H 0.30118 0.50314 0.81956 0.0
H1054 H 0.22605 0.31881 0.8503 0.0
H1055 H 0.27482 0.36508 0.83653 0.0
H1056 H 0.25493 0.38124 0.78763 0.0
C1057 C 0.30166 0.52997 0.77573 0.0
C1058 C 0.29191 0.47648 0.81248 0.0
C1059 C 0.32202 0.56297 0.7682 0.0
C1060 C 0.21777 0.32838 0.83903 0.0
C1061 C 0.2453 0.35533 0.83124 0.0
C1062 C 0.26509 0.40758 0.79471 0.0
C1063 C 0.31704 0.51581 0.78962 0.0
C1064 C 0.29776 0.47784 0.79685 0.0
C1065 C 0.23351 0.37174 0.81723 0.0
C1066 C 0.25831 0.40672 0.81029 0.0
H1067 H 0.39993 0.58524 0.79365 0.0
H1068 H 0.3645 0.52719 0.80689 0.0
H1069 H 0.28969 0.44209 0.77605 0.0
H1070 H 0.13664 0.32387 0.81376 0.0
H1071 H 0.18499 0.37023 0.79993 0.0
C1072 C 0.24814 0.47434 0.51798 0.0
C1073 C 0.23786 0.51345 0.52495 0.0
C1074 C 0.27457 0.44515 0.52512 0.0
C1075 C 0.32195 0.4159 0.56147 0.0
H1076 H 0.41862 0.38009 0.53723 0.0
C1077 C 0.45895 0.31369 0.58517 0.0
C1078 C 0.49936 0.33172 0.58292 0.0
C1079 C 0.42367 0.32868 0.57727 0.0
C1080 C 0.39164 0.38956 0.54409 0.0
H1081 H 0.24557 0.5515 0.54523 0.0
H1082 H 0.29129 0.50021 0.55778 0.0
H1083 H 0.36057 0.41966 0.52568 0.0
H1084 H 0.53496 0.37854 0.57035 0.0
H1085 H 0.47349 0.40442 0.55642 0.0
H1086 H 0.35382 0.38689 0.57999 0.0
C1087 C 0.27879 0.49219 0.54678 0.0
C1088 C 0.35828 0.41191 0.53748 0.0
C1089 C 0.25256 0.52156 0.5396 0.0
C1090 C 0.50416 0.36403 0.57228 0.0
C1091 C 0.46906 0.37864 0.56425 0.0
C1092 C 0.35514 0.39311 0.56806 0.0
C1093 C 0.29098 0.45423 0.53944 0.0
C1094 C 0.32355 0.42614 0.54617 0.0
C1095 C 0.42835 0.36166 0.56687 0.0
C1096 C 0.39075 0.38062 0.55949 0.0
H1097 H 0.23656 0.46672 0.50683 0.0
H1098 H 0.28293 0.41583 0.5193 0.0
H1099 H 0.29544 0.42625 0.5684 0.0
H1100 H 0.45423 0.28943 0.59353 0.0
H1101 H 0.39263 0.31503 0.57947 0.0
C1102 C 0.34328 0.40361 0.2872 0.0
C1103 C 0.35311 0.39192 0.27235 0.0
C1104 C 0.37265 0.42668 0.29581 0.0
C1105 C 0.44325 0.47155 0.31315 0.0
H1106 H 0.49028 0.56351 0.28956 0.0
C1107 C 0.53012 0.61528 0.34043 0.0
C1108 C 0.51533 0.65491 0.33549 0.0
C1109 C 0.51945 0.5779 0.33262 0.0
C1110 C 0.47758 0.53793 0.2963 0.0
H1111 H 0.40233 0.39114 0.2553 0.0
H1112 H 0.45419 0.43024 0.27047 0.0
H1113 H 0.4551 0.50429 0.27698 0.0
H1114 H 0.47847 0.68692 0.31849 0.0
H1115 H 0.46011 0.62192 0.30475 0.0
H1116 H 0.46372 0.50685 0.33254 0.0
C1117 C 0.4235 0.42283 0.27535 0.0
C1118 C 0.45785 0.50362 0.28909 0.0
C1119 C 0.39401 0.4002 0.26671 0.0
C1120 C 0.49061 0.65675 0.32243 0.0
C1121 C 0.48033 0.61954 0.31454 0.0
C1122 C 0.46306 0.50598 0.32038 0.0
C1123 C 0.41242 0.43814 0.28973 0.0
C1124 C 0.43939 0.47056 0.29743 0.0
C1125 C 0.49407 0.57963 0.31967 0.0
C1126 C 0.47927 0.54013 0.31203 0.0
H1127 H 0.31178 0.39785 0.29172 0.0
H1128 H 0.36289 0.43817 0.3068 0.0
H1129 H 0.42978 0.44639 0.31989 0.0
H1130 H 0.54834 0.61298 0.35069 0.0
H1131 H 0.53054 0.54763 0.33683 0.0
C1132 C 0.42729 0.46633 0.95971 0.0
C1133 C 0.43884 0.43706 0.9708 0.0
C1134 C 0.39678 0.4554 0.94893 0.0
C1135 C 0.30004 0.39844 0.94587 0.0
H1136 H 0.31663 0.38931 0.90286 0.0
C1137 C 0.18054 0.31365 0.90706 0.0
C1138 C 0.18074 0.32294 0.89174 0.0
C1139 C 0.20786 0.33542 0.91684 0.0
C1140 C 0.31093 0.39281 0.91479 0.0
H1141 H 0.42886 0.37338 0.97918 0.0
H1142 H 0.3748 0.35451 0.96045 0.0
H1143 H 0.3761 0.40999 0.91889 0.0
H1144 H 0.20631 0.36411 0.87464 0.0
H1145 H 0.25182 0.4044 0.89181 0.0
H1146 H 0.23487 0.38244 0.94197 0.0
C1147 C 0.38982 0.38554 0.96 0.0
C1148 C 0.34526 0.40417 0.92395 0.0
C1149 C 0.42096 0.39612 0.97056 0.0
C1150 C 0.20554 0.35679 0.8865 0.0
C1151 C 0.23214 0.37924 0.89631 0.0
C1152 C 0.26546 0.388 0.93672 0.0
C1153 C 0.3768 0.41549 0.94937 0.0
C1154 C 0.34023 0.40611 0.93955 0.0
C1155 C 0.23545 0.36726 0.91145 0.0
C1156 C 0.27059 0.38406 0.92107 0.0
H1157 H 0.44032 0.49827 0.95986 0.0
H1158 H 0.38704 0.4789 0.94081 0.0
H1159 H 0.29548 0.40044 0.95792 0.0
H1160 H 0.16228 0.28696 0.91123 0.0
H1161 H 0.20958 0.32483 0.92834 0.0
C1162 C 0.41001 0.58743 0.71729 0.0
C1163 C 0.43995 0.60312 0.72761 0.0
C1164 C 0.42309 0.56268 0.70506 0.0
C1165 C 0.50571 0.48616 0.6963 0.0
H1166 H 0.44847 0.48051 0.6578 0.0
C1167 C 0.49428 0.33083 0.66204 0.0
C1168 C 0.50265 0.33348 0.64665 0.0
C1169 C 0.49003 0.368 0.67067 0.0
C1170 C 0.46506 0.4819 0.66844 0.0
H1171 H 0.50707 0.60802 0.73282 0.0
H1172 H 0.53025 0.56436 0.71131 0.0
H1173 H 0.43854 0.54285 0.67407 0.0
H1174 H 0.51191 0.37586 0.62793 0.0
H1175 H 0.50273 0.44108 0.6429 0.0
H1176 H 0.53156 0.42486 0.69081 0.0
C1177 C 0.49664 0.57111 0.71274 0.0
C1178 C 0.45929 0.51748 0.67775 0.0
C1179 C 0.48349 0.59628 0.72495 0.0
C1180 C 0.50529 0.37342 0.63983 0.0
C1181 C 0.49989 0.41056 0.64837 0.0
C1182 C 0.51129 0.45051 0.68703 0.0
C1183 C 0.46638 0.55289 0.70298 0.0
C1184 C 0.47866 0.51945 0.69195 0.0
C1185 C 0.49328 0.40823 0.66394 0.0
C1186 C 0.49015 0.44756 0.67318 0.0
H1187 H 0.37626 0.59248 0.71915 0.0
H1188 H 0.39897 0.54883 0.69784 0.0
H1189 H 0.52082 0.48657 0.70722 0.0
H1190 H 0.49224 0.30013 0.66743 0.0
H1191 H 0.48415 0.3653 0.68261 0.0
C1192 C 0.23343 0.63656 0.47397 0.0
C1193 C 0.22035 0.59539 0.47785 0.0
C1194 C 0.25572 0.64321 0.46062 0.0
C1195 C 0.32903 0.58342 0.43668 0.0
H1196 H 0.33317 0.68875 0.41443 0.0
C1197 C 0.46498 0.61945 0.39507 0.0
C1198 C 0.48268 0.66031 0.39666 0.0
C1199 C 0.4264 0.60963 0.40207 0.0
C1200 C 0.33231 0.65914 0.42054 0.0
H1201 H 0.21609 0.52977 0.47025 0.0
H1202 H 0.25442 0.54145 0.44678 0.0
H1203 H 0.27336 0.67531 0.43131 0.0
H1204 H 0.47492 0.7224 0.40712 0.0
H1205 H 0.40827 0.705 0.41967 0.0
H1206 H 0.38869 0.56795 0.42642 0.0
C1207 C 0.24853 0.56838 0.4542 0.0
C1208 C 0.29807 0.65142 0.43018 0.0
C1209 C 0.22653 0.5617 0.46759 0.0
C1210 C 0.46139 0.69101 0.40543 0.0
C1211 C 0.42314 0.68111 0.41253 0.0
C1212 C 0.36317 0.59112 0.42705 0.0
C1213 C 0.26505 0.60882 0.4509 0.0
C1214 C 0.29672 0.61401 0.43868 0.0
C1215 C 0.40512 0.6404 0.41089 0.0
C1216 C 0.36582 0.6296 0.41924 0.0
H1217 H 0.22923 0.66302 0.48174 0.0
H1218 H 0.26826 0.67471 0.45849 0.0
H1219 H 0.32941 0.55457 0.44323 0.0
H1220 H 0.48073 0.59528 0.38829 0.0
H1221 H 0.41322 0.57799 0.4006 0.0
C1222 C 0.25927 0.46637 0.2317 0.0
C1223 C 0.26533 0.42325 0.22795 0.0
C1224 C 0.25038 0.49605 0.22062 0.0
C1225 C 0.21216 0.50426 0.18147 0.0
H1226 H 0.25511 0.61984 0.18522 0.0
C1227 C 0.18325 0.62191 0.13499 0.0
C1228 C 0.16047 0.65822 0.13965 0.0
C1229 C 0.20465 0.59714 0.1454 0.0
C1230 C 0.24298 0.58768 0.18407 0.0
H1231 H 0.26693 0.37705 0.20978 0.0
H1232 H 0.25255 0.42913 0.19018 0.0
H1233 H 0.27462 0.56682 0.20392 0.0
H1234 H 0.14568 0.69971 0.15852 0.0
H1235 H 0.18354 0.65605 0.17692 0.0
H1236 H 0.18095 0.52501 0.16157 0.0
C1237 C 0.25372 0.44 0.20174 0.0
C1238 C 0.25386 0.55732 0.19479 0.0
C1239 C 0.26204 0.41013 0.21291 0.0
C1240 C 0.16318 0.67191 0.15467 0.0
C1241 C 0.18467 0.64687 0.16517 0.0
C1242 C 0.20183 0.53436 0.17069 0.0
C1243 C 0.24786 0.4834 0.20546 0.0
C1244 C 0.23823 0.51529 0.1937 0.0
C1245 C 0.20362 0.60813 0.16069 0.0
C1246 C 0.21693 0.57639 0.17191 0.0
H1247 H 0.2612 0.4771 0.24328 0.0
H1248 H 0.245 0.52885 0.22399 0.0
H1249 H 0.19873 0.47262 0.18039 0.0
H1250 H 0.18205 0.61097 0.12342 0.0
H1251 H 0.21978 0.5679 0.14162 0.0
loop_
_geom_bond_atom_site_label_1
_geom_bond_atom_site_label_2
_geom_bond_distance
_geom_bond_site_symmetry_2
_ccdc_geom_bond_type
H0 C8 0.930 . S
H1 C11 0.930 . S
H2 C13 0.919 1_565 S
H3 C14 0.970 . S
H4 C14 0.970 . S
H5 C16 0.930 1_565 S
H6 C18 0.930 . S
H7 C20 0.930 . S
C8 H0 0.930 . S
C8 C9 1.382 1_545 S
C8 C10 1.426 . S
C9 C8 1.382 1_565 S
C9 C13 1.383 1_565 S
C10 C8 1.426 . S
C10 C11 1.375 . S
C10 C14 1.532 1_655 S
C11 H1 0.930 . S
C11 C10 1.375 . S
C11 C12 1.416 . S
C12 C11 1.416 . S
C12 C13 1.388 . S
C13 H2 0.919 1_545 S
C13 C9 1.383 1_545 S
C13 C12 1.388 . S
C14 H3 0.970 . S
C14 H4 0.970 . S
C14 C10 1.532 1_455 S
C14 C15 1.499 . S
C15 C14 1.499 . S
C15 C16 1.370 . S
C15 C20 1.415 . S
C16 H5 0.930 1_545 S
C16 C15 1.370 . S
C16 C17 1.407 1_545 S
C17 C16 1.407 1_565 S
C17 C18 1.364 . S
C18 H6 0.930 . S
C18 C17 1.364 . S
C18 C19 1.394 1_565 S
C19 C18 1.394 1_545 S
C19 C20 1.387 . S
C20 H7 0.930 . S
C20 C15 1.415 . S
C20 C19 1.387 . S
H21 C29 0.930 . S
H22 C32 0.930 . S
H23 C34 0.930 . S
H24 C35 0.970 . S
H25 C35 0.970 . S
H26 C37 0.930 . S
H27 C39 0.930 . S
H28 C41 0.930 . S
C29 H21 0.930 . S
C29 C30 1.382 . S
C29 C31 1.426 . S
C30 C29 1.382 . S
C30 C34 1.389 . S
C31 C29 1.426 . S
C31 C32 1.375 . S
C31 C35 1.532 . S
C32 H22 0.930 . S
C32 C31 1.375 . S
C32 C33 1.416 . S
C33 C32 1.416 . S
C33 C34 1.371 . S
C34 H23 0.930 . S
C34 C30 1.389 . S
C34 C33 1.371 . S
C35 H24 0.970 . S
C35 H25 0.970 . S
C35 C31 1.532 . S
C35 C36 1.499 . S
C36 C35 1.499 . S
C36 C37 1.370 . S
C36 C41 1.415 . S
C37 H26 0.930 . S
C37 C36 1.370 . S
C37 C38 1.407 . S
C38 C37 1.407 . S
C38 C39 1.365 . S
C39 H27 0.930 . S
C39 C38 1.365 . S
C39 C40 1.393 . S
C40 C39 1.393 . S
C40 C41 1.387 . S
C41 H28 0.930 . S
C41 C36 1.415 . S
C41 C40 1.387 . S
H42 C50 0.930 1_565 S
H43 C53 0.930 . S
H44 C55 0.930 1_556 S
H45 C56 0.970 . S
H46 C56 0.970 . S
H47 C58 0.930 1_565 S
H48 C60 0.916 1_556 S
H49 C62 0.930 . S
C50 H42 0.930 1_545 S
C50 C51 1.382 1_545 S
C50 C52 1.426 . S
C51 C50 1.382 1_565 S
C51 C55 1.389 . S
C52 C50 1.426 . S
C52 C53 1.375 1_554 S
C52 C56 1.532 . S
C53 H43 0.930 . S
C53 C52 1.375 1_556 S
C53 C54 1.416 . S
C54 C53 1.416 . S
C54 C55 1.371 1_546 S
C55 H44 0.930 1_554 S
C55 C51 1.389 . S
C55 C54 1.371 1_564 S
C56 H45 0.970 . S
C56 H46 0.970 . S
C56 C52 1.532 . S
C56 C57 1.499 . S
C57 C56 1.499 . S
C57 C58 1.370 . S
C57 C62 1.415 1_554 S
C58 H47 0.930 1_545 S
C58 C57 1.370 . S
C58 C59 1.407 1_545 S
C59 C58 1.407 1_565 S
C59 C60 1.402 . S
C60 H48 0.916 1_554 S
C60 C59 1.402 . S
C60 C61 1.371 1_564 S
C61 C60 1.371 1_546 S
C61 C62 1.387 . S
C62 H49 0.930 . S
C62 C57 1.415 1_556 S
C62 C61 1.387 . S
H63 C71 0.930 . S
H64 C74 0.930 . S
H65 C76 0.930 . S
H66 C77 0.970 . S
H67 C77 0.970 . S
H68 C79 0.930 . S
H69 C81 0.930 . S
H70 C83 0.930 . S
C71 H63 0.930 . S
C71 C72 1.382 . S
C71 C73 1.426 . S
C72 C71 1.382 . S
C72 C76 1.389 . S
C73 C71 1.426 . S
C73 C74 1.375 . S
C73 C77 1.532 . S
C74 H64 0.930 . S
C74 C73 1.375 . S
C74 C75 1.416 . S
C75 C74 1.416 . S
C75 C76 1.371 . S
C76 H65 0.930 . S
C76 C72 1.389 . S
C76 C75 1.371 . S
C77 H66 0.970 . S
C77 H67 0.970 . S
C77 C73 1.532 . S
C77 C78 1.499 . S
C78 C77 1.499 . S
C78 C79 1.370 . S
C78 C83 1.415 . S
C79 H68 0.930 . S
C79 C78 1.370 . S
C79 C80 1.407 . S
C80 C79 1.407 . S
C80 C81 1.365 . S
C81 H69 0.930 . S
C81 C80 1.365 . S
C81 C82 1.393 . S
C82 C81 1.393 . S
C82 C83 1.387 . S
C83 H70 0.930 . S
C83 C78 1.415 . S
C83 C82 1.387 . S
H84 C92 0.930 . S
H85 C95 0.930 . S
H86 C97 0.930 . S
H87 C98 0.970 . S
H88 C98 0.970 . S
H89 C100 0.930 . S
H90 C102 0.930 . S
H91 C104 0.930 . S
C92 H84 0.930 . S
C92 C93 1.382 . S
C92 C94 1.426 . S
C93 C92 1.382 . S
C93 C97 1.389 . S
C94 C92 1.426 . S
C94 C95 1.375 . S
C94 C98 1.532 . S
C95 H85 0.930 . S
C95 C94 1.375 . S
C95 C96 1.416 . S
C96 C95 1.416 . S
C96 C97 1.371 . S
C97 H86 0.930 . S
C97 C93 1.389 . S
C97 C96 1.371 . S
C98 H87 0.970 . S
C98 H88 0.970 . S
C98 C94 1.532 . S
C98 C99 1.499 . S
C99 C98 1.499 . S
C99 C100 1.370 . S
C99 C104 1.415 . S
C100 H89 0.930 . S
C100 C99 1.370 . S
C100 C101 1.407 . S
C101 C100 1.407 . S
C101 C102 1.365 . S
C102 H90 0.930 . S
C102 C101 1.365 . S
C102 C103 1.393 . S
C103 C102 1.393 . S
C103 C104 1.387 . S
C104 H91 0.930 . S
C104 C99 1.415 . S
C104 C103 1.387 . S
H105 C113 0.930 . S
H106 C116 0.930 . S
H107 C118 0.930 . S
H108 C119 0.970 . S
H109 C119 0.970 . S
H110 C121 0.930 . S
H111 C123 0.930 . S
H112 C125 0.930 . S
C113 H105 0.930 . S
C113 C114 1.382 . S
C113 C115 1.426 . S
C114 C113 1.382 . S
C114 C118 1.389 . S
C115 C113 1.426 . S
C115 C116 1.375 . S
C115 C119 1.532 . S
C116 H106 0.930 . S
C116 C115 1.375 . S
C116 C117 1.416 . S
C117 C116 1.416 . S
C117 C118 1.371 . S
C118 H107 0.930 . S
C118 C114 1.389 . S
C118 C117 1.371 . S
C119 H108 0.970 . S
C119 H109 0.970 . S
C119 C115 1.532 . S
C119 C120 1.499 . S
C120 C119 1.499 . S
C120 C121 1.370 . S
C120 C125 1.415 . S
C121 H110 0.930 . S
C121 C120 1.370 . S
C121 C122 1.407 . S
C122 C121 1.407 . S
C122 C123 1.365 . S
C123 H111 0.930 . S
C123 C122 1.365 . S
C123 C124 1.393 . S
C124 C123 1.393 . S
C124 C125 1.387 . S
C125 H112 0.930 . S
C125 C120 1.415 . S
C125 C124 1.387 . S
H126 C134 0.930 . S
H127 C137 0.930 . S
H128 C139 0.930 1_556 S
H129 C140 0.970 . S
H130 C140 0.970 . S
H131 C142 0.930 . S
H132 C144 0.930 1_556 S
H133 C146 0.930 . S
C134 H126 0.930 . S
C134 C135 1.382 . S
C134 C136 1.426 . S
C135 C134 1.382 . S
C135 C139 1.389 . S
C136 C134 1.426 . S
C136 C137 1.375 1_554 S
C136 C140 1.532 . S
C137 H127 0.930 . S
C137 C136 1.375 1_556 S
C137 C138 1.416 . S
C138 C137 1.416 . S
C138 C139 1.371 1_556 S
C139 H128 0.930 1_554 S
C139 C135 1.389 . S
C139 C138 1.371 1_554 S
C140 H129 0.970 . S
C140 H130 0.970 . S
C140 C136 1.532 . S
C140 C141 1.499 . S
C141 C140 1.499 . S
C141 C142 1.370 . S
C141 C146 1.415 1_554 S
C142 H131 0.930 . S
C142 C141 1.370 . S
C142 C143 1.407 . S
C143 C142 1.407 . S
C143 C144 1.365 . S
C144 H132 0.930 1_554 S
C144 C143 1.365 . S
C144 C145 1.393 1_554 S
C145 C144 1.393 1_556 S
C145 C146 1.387 . S
C146 H133 0.930 . S
C146 C141 1.415 1_556 S
C146 C145 1.387 . S
H147 C155 0.930 . S
H148 C158 0.930 . S
H149 C160 0.930 . S
H150 C161 0.970 . S
H151 C161 0.970 . S
H152 C163 0.930 . S
H153 C165 0.930 . S
H154 C167 0.930 . S
C155 H147 0.930 . S
C155 C156 1.382 . S
C155 C157 1.426 . S
C156 C155 1.382 . S
C156 C160 1.389 . S
C157 C155 1.426 . S
C157 C158 1.375 . S
C157 C161 1.532 . S
C158 H148 0.930 . S
C158 C157 1.375 . S
C158 C159 1.416 . S
C159 C158 1.416 . S
C159 C160 1.371 . S
C160 H149 0.930 . S
C160 C156 1.389 . S
C160 C159 1.371 . S
C161 H150 0.970 . S
C161 H151 0.970 . S
C161 C157 1.532 . S
C161 C162 1.499 . S
C162 C161 1.499 . S
C162 C163 1.370 . S
C162 C167 1.415 . S
C163 H152 0.930 . S
C163 C162 1.370 . S
C163 C164 1.407 . S
C164 C163 1.407 . S
C164 C165 1.365 . S
C165 H153 0.930 . S
C165 C164 1.365 . S
C165 C166 1.393 . S
C166 C165 1.393 . S
C166 C167 1.387 . S
C167 H154 0.930 . S
C167 C162 1.415 . S
C167 C166 1.387 . S
C168 O195 1.312 . S
C168 O196 1.208 . S
C169 O190 1.331 1_655 S
C169 O193 1.244 . S
C170 O192 1.264 1_655 S
C170 O194 1.273 . S
Mg171 O173 1.936 . S
Mg171 O180 2.081 . S
Mg171 O182 2.023 . S
Mg171 O186 2.031 . S
Mg171 O195 2.291 . S
Mg172 O173 1.963 . S
Mg172 O183 1.942 . S
Mg172 O184 1.955 . S
Mg172 O191 1.986 . S
O173 Mg171 1.936 . S
O173 Mg172 1.963 . S
O173 Mg174 1.915 . S
Mg174 O173 1.915 . S
Mg174 O175 1.915 . S
Mg174 O179 2.013 . S
Mg174 O185 2.114 . S
Mg174 O189 2.013 . S
Mg174 O195 2.114 . S
O175 Mg174 1.915 . S
O175 Mg176 1.936 . S
O175 Mg177 1.963 1_455 S
Mg176 O175 1.936 . S
Mg176 O185 2.291 . S
Mg176 O190 2.081 . S
Mg176 O192 2.023 . S
Mg176 O196 2.031 . S
Mg177 O175 1.963 1_655 S
Mg177 O181 1.986 . S
Mg177 O193 1.942 . S
Mg177 O194 1.955 . S
C178 O189 1.191 . S
C178 O191 1.307 . S
O179 Mg174 2.013 . S
O179 C198 1.191 . S
O180 Mg171 2.081 . S
O180 C188 1.331 . S
O181 Mg177 1.986 . S
O181 C198 1.307 1_655 S
O182 Mg171 2.023 . S
O182 C197 1.264 . S
O183 Mg172 1.942 . S
O183 C188 1.244 . S
O184 Mg172 1.955 . S
O184 C197 1.273 . S
O185 Mg174 2.114 . S
O185 Mg176 2.291 . S
O185 C187 1.312 . S
O186 Mg171 2.031 . S
O186 C187 1.208 . S
C187 O185 1.312 . S
C187 O186 1.208 . S
C188 O180 1.331 . S
C188 O183 1.244 . S
O189 Mg174 2.013 . S
O189 C178 1.191 . S
O190 C169 1.331 1_455 S
O190 Mg176 2.081 . S
O191 Mg172 1.986 . S
O191 C178 1.307 . S
O192 C170 1.264 1_455 S
O192 Mg176 2.023 . S
O193 C169 1.244 . S
O193 Mg177 1.942 . S
O194 C170 1.273 . S
O194 Mg177 1.955 . S
O195 C168 1.312 . S
O195 Mg171 2.291 . S
O195 Mg174 2.114 . S
O196 C168 1.208 . S
O196 Mg176 2.031 . S
C197 O182 1.264 . S
C197 O184 1.273 . S
C198 O179 1.191 . S
C198 O181 1.307 1_455 S
C199 O226 1.312 . S
C199 O227 1.208 . S
C200 O221 1.331 . S
C200 O224 1.244 . S
C201 O223 1.264 . S
C201 O225 1.273 . S
Mg202 O204 1.936 . S
Mg202 O211 2.081 . S
Mg202 O213 2.023 . S
Mg202 O217 2.031 . S
Mg202 O226 2.291 . S
Mg203 O204 1.963 . S
Mg203 O214 1.942 . S
Mg203 O215 1.955 . S
Mg203 O222 1.986 . S
O204 Mg202 1.936 . S
O204 Mg203 1.963 . S
O204 Mg205 1.915 . S
Mg205 O204 1.915 . S
Mg205 O206 1.915 . S
Mg205 O210 2.013 . S
Mg205 O216 2.114 . S
Mg205 O220 2.013 . S
Mg205 O226 2.114 . S
O206 Mg205 1.915 . S
O206 Mg207 1.936 . S
O206 Mg208 1.963 . S
Mg207 O206 1.936 . S
Mg207 O216 2.291 . S
Mg207 O221 2.081 . S
Mg207 O223 2.023 . S
Mg207 O227 2.031 . S
Mg208 O206 1.963 . S
Mg208 O212 1.986 . S
Mg208 O224 1.942 . S
Mg208 O225 1.955 . S
C209 O220 1.191 . S
C209 O222 1.307 . S
O210 Mg205 2.013 . S
O210 C229 1.191 . S
O211 Mg202 2.081 . S
O211 C219 1.331 . S
O212 Mg208 1.986 . S
O212 C229 1.307 . S
O213 Mg202 2.023 . S
O213 C228 1.264 . S
O214 Mg203 1.942 . S
O214 C219 1.244 . S
O215 Mg203 1.955 . S
O215 C228 1.273 . S
O216 Mg205 2.114 . S
O216 Mg207 2.291 . S
O216 C218 1.312 . S
O217 Mg202 2.031 . S
O217 C218 1.208 . S
C218 O216 1.312 . S
C218 O217 1.208 . S
C219 O211 1.331 . S
C219 O214 1.244 . S
O220 Mg205 2.013 . S
O220 C209 1.191 . S
O221 C200 1.331 . S
O221 Mg207 2.081 . S
O222 Mg203 1.986 . S
O222 C209 1.307 . S
O223 C201 1.264 . S
O223 Mg207 2.023 . S
O224 C200 1.244 . S
O224 Mg208 1.942 . S
O225 C201 1.273 . S
O225 Mg208 1.955 . S
O226 C199 1.312 . S
O226 Mg202 2.291 . S
O226 Mg205 2.114 . S
O227 C199 1.208 . S
O227 Mg207 2.031 . S
C228 O213 1.264 . S
C228 O215 1.273 . S
C229 O210 1.191 . S
C229 O212 1.307 . S
C230 O257 1.312 . S
C230 O258 1.208 . S
C231 O252 1.331 . S
C231 O255 1.244 . S
C232 O254 1.264 . S
C232 O256 1.273 . S
Mg233 O235 1.936 . S
Mg233 O242 2.081 . S
Mg233 O244 2.023 . S
Mg233 O248 2.031 . S
Mg233 O257 2.291 . S
Mg234 O235 1.963 . S
Mg234 O245 1.942 . S
Mg234 O246 1.955 . S
Mg234 O253 1.986 . S
O235 Mg233 1.936 . S
O235 Mg234 1.963 . S
O235 Mg236 1.915 . S
Mg236 O235 1.915 . S
Mg236 O237 1.915 . S
Mg236 O241 2.013 . S
Mg236 O247 2.114 . S
Mg236 O251 2.013 . S
Mg236 O257 2.114 . S
O237 Mg236 1.915 . S
O237 Mg238 1.936 . S
O237 Mg239 1.963 . S
Mg238 O237 1.936 . S
Mg238 O247 2.291 . S
Mg238 O252 2.081 . S
Mg238 O254 2.023 . S
Mg238 O258 2.031 . S
Mg239 O237 1.963 . S
Mg239 O243 1.986 . S
Mg239 O255 1.942 . S
Mg239 O256 1.955 . S
C240 O251 1.191 . S
C240 O253 1.307 . S
O241 Mg236 2.013 . S
O241 C260 1.191 . S
O242 Mg233 2.081 . S
O242 C250 1.331 . S
O243 Mg239 1.986 . S
O243 C260 1.307 . S
O244 Mg233 2.023 . S
O244 C259 1.264 . S
O245 Mg234 1.942 . S
O245 C250 1.244 . S
O246 Mg234 1.955 . S
O246 C259 1.273 . S
O247 Mg236 2.114 . S
O247 Mg238 2.291 . S
O247 C249 1.312 . S
O248 Mg233 2.031 . S
O248 C249 1.208 . S
C249 O247 1.312 . S
C249 O248 1.208 . S
C250 O242 1.331 . S
C250 O245 1.244 . S
O251 Mg236 2.013 . S
O251 C240 1.191 . S
O252 C231 1.331 . S
O252 Mg238 2.081 . S
O253 Mg234 1.986 . S
O253 C240 1.307 . S
O254 C232 1.264 . S
O254 Mg238 2.023 . S
O255 C231 1.244 . S
O255 Mg239 1.942 . S
O256 C232 1.273 . S
O256 Mg239 1.955 . S
O257 C230 1.312 . S
O257 Mg233 2.291 . S
O257 Mg236 2.114 . S
O258 C230 1.208 . S
O258 Mg238 2.031 . S
C259 O244 1.264 . S
C259 O246 1.273 . S
C260 O241 1.191 . S
C260 O243 1.307 . S
C261 O288 1.312 . S
C261 O289 1.208 . S
C262 O283 1.331 . S
C262 O286 1.244 . S
C263 O285 1.264 . S
C263 O287 1.273 . S
Mg264 O266 1.936 . S
Mg264 O273 2.081 . S
Mg264 O275 2.023 . S
Mg264 O279 2.031 . S
Mg264 O288 2.291 . S
Mg265 O266 1.963 1_655 S
Mg265 O276 1.942 . S
Mg265 O277 1.955 . S
Mg265 O284 1.986 . S
O266 Mg264 1.936 . S
O266 Mg265 1.963 1_455 S
O266 Mg267 1.915 . S
Mg267 O266 1.915 . S
Mg267 O268 1.915 . S
Mg267 O272 2.013 . S
Mg267 O278 2.114 . S
Mg267 O282 2.013 . S
Mg267 O288 2.114 . S
O268 Mg267 1.915 . S
O268 Mg269 1.936 . S
O268 Mg270 1.963 . S
Mg269 O268 1.936 . S
Mg269 O278 2.291 . S
Mg269 O283 2.081 . S
Mg269 O285 2.023 . S
Mg269 O289 2.031 . S
Mg270 O268 1.963 . S
Mg270 O274 1.986 . S
Mg270 O286 1.942 . S
Mg270 O287 1.955 . S
C271 O282 1.191 . S
C271 O284 1.307 1_455 S
O272 Mg267 2.013 . S
O272 C291 1.191 . S
O273 Mg264 2.081 . S
O273 C281 1.331 1_455 S
O274 Mg270 1.986 . S
O274 C291 1.307 . S
O275 Mg264 2.023 . S
O275 C290 1.264 1_455 S
O276 Mg265 1.942 . S
O276 C281 1.244 . S
O277 Mg265 1.955 . S
O277 C290 1.273 . S
O278 Mg267 2.114 . S
O278 Mg269 2.291 . S
O278 C280 1.312 . S
O279 Mg264 2.031 . S
O279 C280 1.208 . S
C280 O278 1.312 . S
C280 O279 1.208 . S
C281 O273 1.331 1_655 S
C281 O276 1.244 . S
O282 Mg267 2.013 . S
O282 C271 1.191 . S
O283 C262 1.331 . S
O283 Mg269 2.081 . S
O284 Mg265 1.986 . S
O284 C271 1.307 1_655 S
O285 C263 1.264 . S
O285 Mg269 2.023 . S
O286 C262 1.244 . S
O286 Mg270 1.942 . S
O287 C263 1.273 . S
O287 Mg270 1.955 . S
O288 C261 1.312 . S
O288 Mg264 2.291 . S
O288 Mg267 2.114 . S
O289 C261 1.208 . S
O289 Mg269 2.031 . S
C290 O275 1.264 1_655 S
C290 O277 1.273 . S
C291 O272 1.191 . S
C291 O274 1.307 . S
C292 C293 1.349 . S
C292 C294 1.327 . S
C292 H317 0.950 . S
C293 C292 1.349 . S
C293 C309 1.349 . S
C294 C292 1.327 . S
C294 C313 1.429 . S
C294 H318 0.950 . S
C295 C312 1.574 . S
C295 C314 1.368 . S
C295 H319 0.949 . S
H296 C300 0.949 . S
C297 C298 1.349 . S
C297 C299 1.327 . S
C297 H320 0.950 . S
C298 C297 1.349 . S
C298 C310 1.349 . S
C299 C297 1.327 . S
C299 C315 1.429 . S
C299 H321 0.950 . S
C300 H296 0.949 . S
C300 C308 1.574 . S
C300 C316 1.368 . S
H301 C309 0.950 1_545 S
H302 C307 0.950 . S
H303 C308 0.949 . S
H304 C310 0.950 . S
H305 C311 0.950 . S
H306 C312 0.949 . S
C307 H302 0.950 . S
C307 C309 1.327 . S
C307 C313 1.429 . S
C308 C300 1.574 . S
C308 H303 0.949 . S
C308 C314 1.368 . S
C309 C293 1.349 . S
C309 H301 0.950 1_565 S
C309 C307 1.327 . S
C310 C298 1.349 . S
C310 H304 0.950 . S
C310 C311 1.327 . S
C311 H305 0.950 . S
C311 C310 1.327 . S
C311 C315 1.429 . S
C312 C295 1.574 . S
C312 H306 0.949 . S
C312 C316 1.368 . S
C313 C294 1.429 . S
C313 C307 1.429 . S
C313 C314 1.523 . S
C314 C295 1.368 . S
C314 C308 1.368 . S
C314 C313 1.523 . S
C315 C299 1.429 . S
C315 C311 1.429 . S
C315 C316 1.523 . S
C316 C300 1.368 . S
C316 C312 1.368 . S
C316 C315 1.523 . S
H317 C292 0.950 . S
H318 C294 0.950 . S
H319 C295 0.949 . S
H320 C297 0.950 . S
H321 C299 0.950 . S
C322 C323 1.349 . S
C322 C324 1.327 . S
C322 H347 0.950 . S
C323 C322 1.349 . S
C323 C339 1.349 . S
C324 C322 1.327 . S
C324 C343 1.429 . S
C324 H348 0.950 . S
C325 C342 1.574 . S
C325 C344 1.368 . S
C325 H349 0.949 . S
H326 C330 0.949 . S
C327 C328 1.349 . S
C327 C329 1.327 . S
C327 H350 0.950 . S
C328 C327 1.349 . S
C328 C340 1.349 . S
C329 C327 1.327 . S
C329 C345 1.429 . S
C329 H351 0.950 . S
C330 H326 0.949 . S
C330 C338 1.574 1_545 S
C330 C346 1.368 . S
H331 C339 0.950 . S
H332 C337 0.950 . S
H333 C338 0.949 . S
H334 C340 0.950 . S
H335 C341 0.950 . S
H336 C342 0.949 . S
C337 H332 0.950 . S
C337 C339 1.327 . S
C337 C343 1.429 . S
C338 C330 1.574 1_565 S
C338 H333 0.949 . S
C338 C344 1.368 . S
C339 C323 1.349 . S
C339 H331 0.950 . S
C339 C337 1.327 . S
C340 C328 1.349 . S
C340 H334 0.950 . S
C340 C341 1.327 . S
C341 H335 0.950 . S
C341 C340 1.327 . S
C341 C345 1.429 . S
C342 C325 1.574 . S
C342 H336 0.949 . S
C342 C346 1.368 1_565 S
C343 C324 1.429 . S
C343 C337 1.429 . S
C343 C344 1.523 . S
C344 C325 1.368 . S
C344 C338 1.368 . S
C344 C343 1.523 . S
C345 C329 1.429 . S
C345 C341 1.429 . S
C345 C346 1.523 . S
C346 C330 1.368 . S
C346 C342 1.368 1_545 S
C346 C345 1.523 . S
H347 C322 0.950 . S
H348 C324 0.950 . S
H349 C325 0.949 . S
H350 C327 0.950 . S
H351 C329 0.950 . S
C352 C353 1.349 . S
C352 C354 1.327 . S
C352 H377 0.950 . S
C353 C352 1.349 . S
C353 C369 1.349 . S
C354 C352 1.327 . S
C354 C373 1.429 . S
C354 H378 0.950 . S
C355 C372 1.574 . S
C355 C374 1.368 . S
C355 H379 0.949 . S
H356 C360 0.949 . S
C357 C358 1.349 . S
C357 C359 1.327 . S
C357 H380 0.950 . S
C358 C357 1.349 . S
C358 C370 1.349 . S
C359 C357 1.327 . S
C359 C375 1.429 . S
C359 H381 0.950 . S
C360 H356 0.949 . S
C360 C368 1.574 . S
C360 C376 1.368 . S
H361 C369 0.950 1_565 S
H362 C367 0.950 . S
H363 C368 0.949 . S
H364 C370 0.950 . S
H365 C371 0.950 . S
H366 C372 0.949 . S
C367 H362 0.950 . S
C367 C369 1.327 . S
C367 C373 1.429 . S
C368 C360 1.574 . S
C368 H363 0.949 . S
C368 C374 1.368 . S
C369 C353 1.349 . S
C369 H361 0.950 1_545 S
C369 C367 1.327 . S
C370 C358 1.349 . S
C370 H364 0.950 . S
C370 C371 1.327 . S
C371 H365 0.950 . S
C371 C370 1.327 . S
C371 C375 1.429 . S
C372 C355 1.574 . S
C372 H366 0.949 . S
C372 C376 1.368 . S
C373 C354 1.429 . S
C373 C367 1.429 . S
C373 C374 1.523 . S
C374 C355 1.368 . S
C374 C368 1.368 . S
C374 C373 1.523 . S
C375 C359 1.429 . S
C375 C371 1.429 . S
C375 C376 1.523 . S
C376 C360 1.368 . S
C376 C372 1.368 . S
C376 C375 1.523 . S
H377 C352 0.950 . S
H378 C354 0.950 . S
H379 C355 0.949 . S
H380 C357 0.950 . S
H381 C359 0.950 . S
C382 C383 1.349 . S
C382 C384 1.327 . S
C382 H407 0.950 . S
C383 C382 1.349 . S
C383 C399 1.349 . S
C384 C382 1.327 . S
C384 C403 1.429 . S
C384 H408 0.950 . S
C385 C402 1.574 . S
C385 C404 1.368 . S
C385 H409 0.949 . S
H386 C390 0.949 . S
C387 C388 1.349 . S
C387 C389 1.327 . S
C387 H410 0.950 . S
C388 C387 1.349 . S
C388 C400 1.349 . S
C389 C387 1.327 . S
C389 C405 1.429 . S
C389 H411 0.950 . S
C390 H386 0.949 . S
C390 C398 1.574 1_565 S
C390 C406 1.368 . S
H391 C399 0.950 . S
H392 C397 0.950 . S
H393 C398 0.949 . S
H394 C400 0.950 . S
H395 C401 0.950 . S
H396 C402 0.949 . S
C397 H392 0.950 . S
C397 C399 1.327 . S
C397 C403 1.429 . S
C398 C390 1.574 1_545 S
C398 H393 0.949 . S
C398 C404 1.368 . S
C399 C383 1.349 . S
C399 H391 0.950 . S
C399 C397 1.327 . S
C400 C388 1.349 . S
C400 H394 0.950 . S
C400 C401 1.327 . S
C401 H395 0.950 . S
C401 C400 1.327 . S
C401 C405 1.429 . S
C402 C385 1.574 . S
C402 H396 0.949 . S
C402 C406 1.368 1_545 S
C403 C384 1.429 . S
C403 C397 1.429 . S
C403 C404 1.523 . S
C404 C385 1.368 . S
C404 C398 1.368 . S
C404 C403 1.523 . S
C405 C389 1.429 . S
C405 C401 1.429 . S
C405 C406 1.523 . S
C406 C390 1.368 . S
C406 C402 1.368 1_565 S
C406 C405 1.523 . S
H407 C382 0.950 . S
H408 C384 0.950 . S
H409 C385 0.949 . S
H410 C387 0.950 . S
H411 C389 0.950 . S
C412 C413 1.349 . S
C412 C414 1.327 . S
C412 H437 0.950 . S
C413 C412 1.349 . S
C413 C429 1.349 . S
C414 C412 1.327 . S
C414 C433 1.429 . S
C414 H438 0.950 . S
C415 C432 1.574 . S
C415 C434 1.368 . S
C415 H439 0.949 . S
H416 C420 0.949 . S
C417 C418 1.349 . S
C417 C419 1.327 . S
C417 H440 0.950 . S
C418 C417 1.349 . S
C418 C430 1.349 . S
C419 C417 1.327 . S
C419 C435 1.429 . S
C419 H441 0.950 . S
C420 H416 0.949 . S
C420 C428 1.574 . S
C420 C436 1.368 . S
H421 C429 0.950 . S
H422 C427 0.950 . S
H423 C428 0.949 . S
H424 C430 0.950 . S
H425 C431 0.950 . S
H426 C432 0.949 . S
C427 H422 0.950 . S
C427 C429 1.327 . S
C427 C433 1.429 . S
C428 C420 1.574 . S
C428 H423 0.949 . S
C428 C434 1.368 . S
C429 C413 1.349 . S
C429 H421 0.950 . S
C429 C427 1.327 . S
C430 C418 1.349 . S
C430 H424 0.950 . S
C430 C431 1.327 . S
C431 H425 0.950 . S
C431 C430 1.327 . S
C431 C435 1.429 . S
C432 C415 1.574 . S
C432 H426 0.949 . S
C432 C436 1.368 . S
C433 C414 1.429 . S
C433 C427 1.429 . S
C433 C434 1.523 . S
C434 C415 1.368 . S
C434 C428 1.368 . S
C434 C433 1.523 . S
C435 C419 1.429 . S
C435 C431 1.429 . S
C435 C436 1.523 . S
C436 C420 1.368 . S
C436 C432 1.368 . S
C436 C435 1.523 . S
H437 C412 0.950 . S
H438 C414 0.950 . S
H439 C415 0.949 . S
H440 C417 0.950 . S
H441 C419 0.950 . S
C442 C443 1.349 . S
C442 C444 1.327 . S
C442 H467 0.950 . S
C443 C442 1.349 . S
C443 C459 1.349 . S
C444 C442 1.327 . S
C444 C463 1.429 . S
C444 H468 0.950 . S
C445 C462 1.574 1_565 S
C445 C464 1.368 . S
C445 H469 0.949 . S
H446 C450 0.949 . S
C447 C448 1.349 . S
C447 C449 1.327 . S
C447 H470 0.950 . S
C448 C447 1.349 . S
C448 C460 1.349 . S
C449 C447 1.327 . S
C449 C465 1.429 . S
C449 H471 0.950 . S
C450 H446 0.949 . S
C450 C458 1.574 . S
C450 C466 1.368 1_565 S
H451 C459 0.950 . S
H452 C457 0.950 . S
H453 C458 0.949 . S
H454 C460 0.950 . S
H455 C461 0.950 . S
H456 C462 0.949 . S
C457 H452 0.950 . S
C457 C459 1.327 . S
C457 C463 1.429 . S
C458 C450 1.574 . S
C458 H453 0.949 . S
C458 C464 1.368 . S
C459 C443 1.349 . S
C459 H451 0.950 . S
C459 C457 1.327 . S
C460 C448 1.349 . S
C460 H454 0.950 . S
C460 C461 1.327 . S
C461 H455 0.950 . S
C461 C460 1.327 . S
C461 C465 1.429 . S
C462 C445 1.574 1_545 S
C462 H456 0.949 . S
C462 C466 1.368 . S
C463 C444 1.429 . S
C463 C457 1.429 . S
C463 C464 1.523 . S
C464 C445 1.368 . S
C464 C458 1.368 . S
C464 C463 1.523 . S
C465 C449 1.429 . S
C465 C461 1.429 . S
C465 C466 1.523 . S
C466 C450 1.368 1_545 S
C466 C462 1.368 . S
C466 C465 1.523 . S
H467 C442 0.950 . S
H468 C444 0.950 . S
H469 C445 0.949 . S
H470 C447 0.950 . S
H471 C449 0.950 . S
C472 C473 1.349 . S
C472 C474 1.327 . S
C472 H497 0.950 . S
C473 C472 1.349 . S
C473 C489 1.349 . S
C474 C472 1.327 . S
C474 C493 1.429 . S
C474 H498 0.950 . S
C475 C492 1.574 . S
C475 C494 1.368 . S
C475 H499 0.949 . S
H476 C480 0.949 . S
C477 C478 1.349 . S
C477 C479 1.327 . S
C477 H500 0.950 . S
C478 C477 1.349 . S
C478 C490 1.349 . S
C479 C477 1.327 . S
C479 C495 1.429 . S
C479 H501 0.950 . S
C480 H476 0.949 . S
C480 C488 1.574 . S
C480 C496 1.368 . S
H481 C489 0.950 1_545 S
H482 C487 0.950 . S
H483 C488 0.949 . S
H484 C490 0.950 . S
H485 C491 0.950 . S
H486 C492 0.949 . S
C487 H482 0.950 . S
C487 C489 1.327 . S
C487 C493 1.429 . S
C488 C480 1.574 . S
C488 H483 0.949 . S
C488 C494 1.368 . S
C489 C473 1.349 . S
C489 H481 0.950 1_565 S
C489 C487 1.327 . S
C490 C478 1.349 . S
C490 H484 0.950 . S
C490 C491 1.327 . S
C491 H485 0.950 . S
C491 C490 1.327 . S
C491 C495 1.429 . S
C492 C475 1.574 . S
C492 H486 0.949 . S
C492 C496 1.368 . S
C493 C474 1.429 . S
C493 C487 1.429 . S
C493 C494 1.523 . S
C494 C475 1.368 . S
C494 C488 1.368 . S
C494 C493 1.523 . S
C495 C479 1.429 . S
C495 C491 1.429 . S
C495 C496 1.523 . S
C496 C480 1.368 . S
C496 C492 1.368 . S
C496 C495 1.523 . S
H497 C472 0.950 . S
H498 C474 0.950 . S
H499 C475 0.949 . S
H500 C477 0.950 . S
H501 C479 0.950 . S
C502 C503 1.349 . S
C502 C504 1.327 . S
C502 H527 0.950 . S
C503 C502 1.349 . S
C503 C519 1.349 . S
C504 C502 1.327 . S
C504 C523 1.429 . S
C504 H528 0.950 . S
C505 C522 1.574 . S
C505 C524 1.368 . S
C505 H529 0.949 . S
H506 C510 0.949 . S
C507 C508 1.349 . S
C507 C509 1.327 . S
C507 H530 0.950 . S
C508 C507 1.349 . S
C508 C520 1.349 . S
C509 C507 1.327 . S
C509 C525 1.429 . S
C509 H531 0.950 . S
C510 H506 0.949 . S
C510 C518 1.574 . S
C510 C526 1.368 . S
H511 C519 0.950 . S
H512 C517 0.950 . S
H513 C518 0.949 . S
H514 C520 0.950 . S
H515 C521 0.950 . S
H516 C522 0.949 1_565 S
C517 H512 0.950 . S
C517 C519 1.327 . S
C517 C523 1.429 . S
C518 C510 1.574 . S
C518 H513 0.949 . S
C518 C524 1.368 . S
C519 C503 1.349 . S
C519 H511 0.950 . S
C519 C517 1.327 . S
C520 C508 1.349 . S
C520 H514 0.950 . S
C520 C521 1.327 . S
C521 H515 0.950 . S
C521 C520 1.327 . S
C521 C525 1.429 . S
C522 C505 1.574 . S
C522 H516 0.949 1_545 S
C522 C526 1.368 . S
C523 C504 1.429 . S
C523 C517 1.429 . S
C523 C524 1.523 . S
C524 C505 1.368 . S
C524 C518 1.368 . S
C524 C523 1.523 . S
C525 C509 1.429 . S
C525 C521 1.429 . S
C525 C526 1.523 1_565 S
C526 C510 1.368 . S
C526 C522 1.368 . S
C526 C525 1.523 1_545 S
H527 C502 0.950 . S
H528 C504 0.950 . S
H529 C505 0.949 . S
H530 C507 0.950 . S
H531 C509 0.950 . S
C532 C533 1.349 . S
C532 C534 1.327 . S
C532 H557 0.950 1_545 S
C533 C532 1.349 . S
C533 C549 1.349 . S
C534 C532 1.327 . S
C534 C553 1.429 . S
C534 H558 0.950 . S
C535 C552 1.574 . S
C535 C554 1.368 . S
C535 H559 0.949 . S
H536 C540 0.949 . S
C537 C538 1.349 . S
C537 C539 1.327 . S
C537 H560 0.950 . S
C538 C537 1.349 . S
C538 C550 1.349 . S
C539 C537 1.327 . S
C539 C555 1.429 . S
C539 H561 0.950 . S
C540 H536 0.949 . S
C540 C548 1.574 . S
C540 C556 1.368 . S
H541 C549 0.950 . S
H542 C547 0.950 . S
H543 C548 0.949 . S
H544 C550 0.950 . S
H545 C551 0.950 . S
H546 C552 0.949 . S
C547 H542 0.950 . S
C547 C549 1.327 . S
C547 C553 1.429 . S
C548 C540 1.574 . S
C548 H543 0.949 . S
C548 C554 1.368 . S
C549 C533 1.349 . S
C549 H541 0.950 . S
C549 C547 1.327 . S
C550 C538 1.349 . S
C550 H544 0.950 . S
C550 C551 1.327 . S
C551 H545 0.950 . S
C551 C550 1.327 . S
C551 C555 1.429 . S
C552 C535 1.574 . S
C552 H546 0.949 . S
C552 C556 1.368 . S
C553 C534 1.429 . S
C553 C547 1.429 . S
C553 C554 1.523 . S
C554 C535 1.368 . S
C554 C548 1.368 . S
C554 C553 1.523 . S
C555 C539 1.429 . S
C555 C551 1.429 . S
C555 C556 1.523 . S
C556 C540 1.368 . S
C556 C552 1.368 . S
C556 C555 1.523 . S
H557 C532 0.950 1_565 S
H558 C534 0.950 . S
H559 C535 0.949 . S
H560 C537 0.950 . S
H561 C539 0.950 . S
C562 C563 1.349 . S
C562 C564 1.327 . S
C562 H587 0.950 . S
C563 C562 1.349 . S
C563 C579 1.349 . S
C564 C562 1.327 . S
C564 C583 1.429 . S
C564 H588 0.950 1_545 S
C565 C582 1.574 . S
C565 C584 1.368 . S
C565 H589 0.949 1_565 S
H566 C570 0.949 . S
C567 C568 1.349 . S
C567 C569 1.327 . S
C567 H590 0.950 . S
C568 C567 1.349 . S
C568 C580 1.349 . S
C569 C567 1.327 . S
C569 C585 1.429 . S
C569 H591 0.950 . S
C570 H566 0.949 . S
C570 C578 1.574 . S
C570 C586 1.368 . S
H571 C579 0.950 . S
H572 C577 0.950 . S
H573 C578 0.949 . S
H574 C580 0.950 . S
H575 C581 0.950 . S
H576 C582 0.949 . S
C577 H572 0.950 . S
C577 C579 1.327 . S
C577 C583 1.429 . S
C578 C570 1.574 . S
C578 H573 0.949 . S
C578 C584 1.368 . S
C579 C563 1.349 . S
C579 H571 0.950 . S
C579 C577 1.327 . S
C580 C568 1.349 . S
C580 H574 0.950 . S
C580 C581 1.327 . S
C581 H575 0.950 . S
C581 C580 1.327 . S
C581 C585 1.429 . S
C582 C565 1.574 . S
C582 H576 0.949 . S
C582 C586 1.368 . S
C583 C564 1.429 . S
C583 C577 1.429 . S
C583 C584 1.523 1_545 S
C584 C565 1.368 . S
C584 C578 1.368 . S
C584 C583 1.523 1_565 S
C585 C569 1.429 . S
C585 C581 1.429 . S
C585 C586 1.523 . S
C586 C570 1.368 . S
C586 C582 1.368 . S
C586 C585 1.523 . S
H587 C562 0.950 . S
H588 C564 0.950 1_565 S
H589 C565 0.949 1_545 S
H590 C567 0.950 . S
H591 C569 0.950 . S
C592 C593 1.349 . S
C592 C594 1.327 . S
C592 H617 0.950 1_565 S
C593 C592 1.349 . S
C593 C609 1.349 . S
C594 C592 1.327 . S
C594 C613 1.429 . S
C594 H618 0.950 . S
C595 C612 1.574 . S
C595 C614 1.368 . S
C595 H619 0.949 . S
H596 C600 0.949 . S
C597 C598 1.352 . S
C597 C599 1.319 1_455 S
C597 H620 0.954 . S
C598 C597 1.352 . S
C598 C610 1.349 1_455 S
C599 C597 1.319 1_655 S
C599 C615 1.429 . S
C599 H621 0.950 . S
C600 H596 0.949 . S
C600 C608 1.574 . S
C600 C616 1.368 . S
H601 C609 0.950 . S
H602 C607 0.950 . S
H603 C608 0.949 . S
H604 C610 0.950 1_455 S
H605 C611 0.950 . S
H606 C612 0.949 . S
C607 H602 0.950 . S
C607 C609 1.327 . S
C607 C613 1.429 . S
C608 C600 1.574 . S
C608 H603 0.949 . S
C608 C614 1.368 . S
C609 C593 1.349 . S
C609 H601 0.950 . S
C609 C607 1.327 . S
C610 C598 1.349 1_655 S
C610 H604 0.950 1_655 S
C610 C611 1.327 . S
C611 H605 0.950 . S
C611 C610 1.327 . S
C611 C615 1.429 . S
C612 C595 1.574 . S
C612 H606 0.949 . S
C612 C616 1.368 . S
C613 C594 1.429 . S
C613 C607 1.429 . S
C613 C614 1.523 . S
C614 C595 1.368 . S
C614 C608 1.368 . S
C614 C613 1.523 . S
C615 C599 1.429 . S
C615 C611 1.429 . S
C615 C616 1.523 . S
C616 C600 1.368 . S
C616 C612 1.368 . S
C616 C615 1.523 . S
H617 C592 0.950 1_545 S
H618 C594 0.950 . S
H619 C595 0.949 . S
H620 C597 0.954 . S
H621 C599 0.950 . S
C622 C623 1.349 . S
C622 C624 1.327 . S
C622 H647 0.950 . S
C623 C622 1.349 . S
C623 C639 1.349 . S
C624 C622 1.327 . S
C624 C643 1.429 . S
C624 H648 0.950 1_565 S
C625 C642 1.574 . S
C625 C644 1.368 . S
C625 H649 0.949 1_545 S
H626 C630 0.949 . S
C627 C628 1.349 . S
C627 C629 1.327 1_455 S
C627 H650 0.950 . S
C628 C627 1.349 . S
C628 C640 1.349 . S
C629 C627 1.327 1_655 S
C629 C645 1.429 . S
C629 H651 0.950 . S
C630 H626 0.949 . S
C630 C638 1.574 . S
C630 C646 1.368 . S
H631 C639 0.950 . S
H632 C637 0.950 . S
H633 C638 0.949 . S
H634 C640 0.950 . S
H635 C641 0.950 . S
H636 C642 0.949 . S
C637 H632 0.950 . S
C637 C639 1.327 . S
C637 C643 1.429 . S
C638 C630 1.574 . S
C638 H633 0.949 . S
C638 C644 1.368 . S
C639 C623 1.349 . S
C639 H631 0.950 . S
C639 C637 1.327 . S
C640 C628 1.349 . S
C640 H634 0.950 . S
C640 C641 1.327 1_455 S
C641 H635 0.950 . S
C641 C640 1.327 1_655 S
C641 C645 1.429 . S
C642 C625 1.574 . S
C642 H636 0.949 . S
C642 C646 1.368 . S
C643 C624 1.429 . S
C643 C637 1.429 . S
C643 C644 1.523 1_565 S
C644 C625 1.368 . S
C644 C638 1.368 . S
C644 C643 1.523 1_545 S
C645 C629 1.429 . S
C645 C641 1.429 . S
C645 C646 1.523 . S
C646 C630 1.368 . S
C646 C642 1.368 . S
C646 C645 1.523 . S
H647 C622 0.950 . S
H648 C624 0.950 1_545 S
H649 C625 0.949 1_565 S
H650 C627 0.950 . S
H651 C629 0.950 . S
C652 C653 1.349 . S
C652 C654 1.327 . S
C652 H677 0.950 . S
C653 C652 1.349 . S
C653 C669 1.349 . S
C654 C652 1.327 . S
C654 C673 1.429 . S
C654 H678 0.950 . S
C655 C672 1.574 . S
C655 C674 1.368 . S
C655 H679 0.949 . S
H656 C660 0.949 . S
C657 C658 1.349 . S
C657 C659 1.327 . S
C657 H680 0.950 . S
C658 C657 1.349 . S
C658 C670 1.349 . S
C659 C657 1.327 . S
C659 C675 1.429 . S
C659 H681 0.950 . S
C660 H656 0.949 . S
C660 C668 1.574 . S
C660 C676 1.368 . S
H661 C669 0.950 . S
H662 C667 0.950 . S
H663 C668 0.949 . S
H664 C670 0.950 . S
H665 C671 0.950 . S
H666 C672 0.949 . S
C667 H662 0.950 . S
C667 C669 1.327 . S
C667 C673 1.429 . S
C668 C660 1.574 . S
C668 H663 0.949 . S
C668 C674 1.368 . S
C669 C653 1.349 . S
C669 H661 0.950 . S
C669 C667 1.327 . S
C670 C658 1.349 . S
C670 H664 0.950 . S
C670 C671 1.327 . S
C671 H665 0.950 . S
C671 C670 1.327 . S
C671 C675 1.429 . S
C672 C655 1.574 . S
C672 H666 0.949 . S
C672 C676 1.368 . S
C673 C654 1.429 . S
C673 C667 1.429 . S
C673 C674 1.523 . S
C674 C655 1.368 . S
C674 C668 1.368 . S
C674 C673 1.523 . S
C675 C659 1.429 . S
C675 C671 1.429 . S
C675 C676 1.523 . S
C676 C660 1.368 . S
C676 C672 1.368 . S
C676 C675 1.523 . S
H677 C652 0.950 . S
H678 C654 0.950 . S
H679 C655 0.949 . S
H680 C657 0.950 . S
H681 C659 0.950 . S
C682 C683 1.349 . S
C682 C684 1.327 . S
C682 H707 0.950 . S
C683 C682 1.349 . S
C683 C699 1.349 . S
C684 C682 1.327 . S
C684 C703 1.429 . S
C684 H708 0.950 . S
C685 C702 1.574 . S
C685 C704 1.368 . S
C685 H709 0.949 . S
H686 C690 0.949 . S
C687 C688 1.349 . S
C687 C689 1.327 . S
C687 H710 0.950 . S
C688 C687 1.349 . S
C688 C700 1.349 1_455 S
C689 C687 1.327 . S
C689 C705 1.429 1_455 S
C689 H711 0.950 . S
C690 H686 0.949 . S
C690 C698 1.574 . S
C690 C706 1.368 . S
H691 C699 0.950 . S
H692 C697 0.950 . S
H693 C698 0.949 . S
H694 C700 0.950 . S
H695 C701 0.950 . S
H696 C702 0.949 1_455 S
C697 H692 0.950 . S
C697 C699 1.327 . S
C697 C703 1.429 . S
C698 C690 1.574 . S
C698 H693 0.949 . S
C698 C704 1.368 . S
C699 C683 1.349 . S
C699 H691 0.950 . S
C699 C697 1.327 . S
C700 C688 1.349 1_655 S
C700 H694 0.950 . S
C700 C701 1.327 . S
C701 H695 0.950 . S
C701 C700 1.327 . S
C701 C705 1.429 . S
C702 C685 1.574 . S
C702 H696 0.949 1_655 S
C702 C706 1.368 . S
C703 C684 1.429 . S
C703 C697 1.429 . S
C703 C704 1.523 1_545 S
C704 C685 1.368 . S
C704 C698 1.368 . S
C704 C703 1.523 1_565 S
C705 C689 1.429 1_655 S
C705 C701 1.429 . S
C705 C706 1.523 . S
C706 C690 1.368 . S
C706 C702 1.368 . S
C706 C705 1.523 . S
H707 C682 0.950 . S
H708 C684 0.950 . S
H709 C685 0.949 . S
H710 C687 0.950 . S
H711 C689 0.950 . S
C712 C713 1.349 . S
C712 C714 1.327 . S
C712 H737 0.950 . S
C713 C712 1.349 . S
C713 C729 1.349 . S
C714 C712 1.327 . S
C714 C733 1.429 . S
C714 H738 0.950 . S
C715 C732 1.574 . S
C715 C734 1.368 . S
C715 H739 0.949 . S
H716 C720 0.949 . S
C717 C718 1.349 1_655 S
C717 C719 1.327 . S
C717 H740 0.950 . S
C718 C717 1.349 1_455 S
C718 C730 1.349 . S
C719 C717 1.327 . S
C719 C735 1.429 . S
C719 H741 0.950 . S
C720 H716 0.949 . S
C720 C728 1.574 . S
C720 C736 1.368 . S
H721 C729 0.950 . S
H722 C727 0.950 . S
H723 C728 0.949 . S
H724 C730 0.950 . S
H725 C731 0.950 . S
H726 C732 0.949 . S
C727 H722 0.950 . S
C727 C729 1.327 . S
C727 C733 1.429 . S
C728 C720 1.574 . S
C728 H723 0.949 . S
C728 C734 1.368 . S
C729 C713 1.349 . S
C729 H721 0.950 . S
C729 C727 1.327 . S
C730 C718 1.349 . S
C730 H724 0.950 . S
C730 C731 1.327 1_455 S
C731 H725 0.950 . S
C731 C730 1.327 1_655 S
C731 C735 1.429 . S
C732 C715 1.574 . S
C732 H726 0.949 . S
C732 C736 1.368 . S
C733 C714 1.429 . S
C733 C727 1.429 . S
C733 C734 1.523 . S
C734 C715 1.368 . S
C734 C728 1.368 . S
C734 C733 1.523 . S
C735 C719 1.429 . S
C735 C731 1.429 . S
C735 C736 1.523 . S
C736 C720 1.368 . S
C736 C732 1.368 . S
C736 C735 1.523 . S
H737 C712 0.950 . S
H738 C714 0.950 . S
H739 C715 0.949 . S
H740 C717 0.950 . S
H741 C719 0.950 . S
C742 C743 1.349 . S
C742 C744 1.342 . S
C742 H767 0.950 . S
C743 C742 1.349 . S
C743 C759 1.349 . S
C744 C742 1.342 . S
C744 C763 1.432 . S
C744 H768 0.931 1_565 S
C745 C762 1.574 . S
C745 C764 1.368 . S
C745 H769 0.949 1_545 S
H746 C750 0.949 . S
C747 C748 1.349 . S
C747 C749 1.327 . S
C747 H770 0.950 . S
C748 C747 1.349 . S
C748 C760 1.349 . S
C749 C747 1.327 . S
C749 C765 1.429 . S
C749 H771 0.950 . S
C750 H746 0.949 . S
C750 C758 1.574 . S
C750 C766 1.368 . S
H751 C759 0.950 . S
H752 C757 0.950 . S
H753 C758 0.949 . S
H754 C760 0.950 . S
H755 C761 0.950 . S
H756 C762 0.949 . S
C757 H752 0.950 . S
C757 C759 1.327 . S
C757 C763 1.429 . S
C758 C750 1.574 . S
C758 H753 0.949 . S
C758 C764 1.368 . S
C759 C743 1.349 . S
C759 H751 0.950 . S
C759 C757 1.327 . S
C760 C748 1.349 . S
C760 H754 0.950 . S
C760 C761 1.327 . S
C761 H755 0.950 . S
C761 C760 1.327 . S
C761 C765 1.429 . S
C762 C745 1.574 . S
C762 H756 0.949 . S
C762 C766 1.368 . S
C763 C744 1.432 . S
C763 C757 1.429 . S
C763 C764 1.523 1_565 S
C764 C745 1.368 . S
C764 C758 1.368 . S
C764 C763 1.523 1_545 S
C765 C749 1.429 . S
C765 C761 1.429 . S
C765 C766 1.523 . S
C766 C750 1.368 . S
C766 C762 1.368 . S
C766 C765 1.523 . S
H767 C742 0.950 . S
H768 C744 0.931 1_545 S
H769 C745 0.949 1_565 S
H770 C747 0.950 . S
H771 C749 0.950 . S
C772 C773 1.349 . S
C772 C774 1.327 . S
C772 H797 0.950 . S
C773 C772 1.349 . S
C773 C789 1.349 . S
C774 C772 1.327 . S
C774 C793 1.429 . S
C774 H798 0.950 . S
C775 C792 1.574 . S
C775 C794 1.368 . S
C775 H799 0.949 . S
H776 C780 0.949 . S
C777 C778 1.349 . S
C777 C779 1.327 . S
C777 H800 0.950 . S
C778 C777 1.349 . S
C778 C790 1.349 . S
C779 C777 1.327 . S
C779 C795 1.429 . S
C779 H801 0.950 . S
C780 H776 0.949 . S
C780 C788 1.574 . S
C780 C796 1.368 . S
H781 C789 0.950 . S
H782 C787 0.950 . S
H783 C788 0.949 . S
H784 C790 0.950 . S
H785 C791 0.950 . S
H786 C792 0.949 . S
C787 H782 0.950 . S
C787 C789 1.327 . S
C787 C793 1.429 . S
C788 C780 1.574 . S
C788 H783 0.949 . S
C788 C794 1.368 . S
C789 C773 1.349 . S
C789 H781 0.950 . S
C789 C787 1.327 . S
C790 C778 1.349 . S
C790 H784 0.950 . S
C790 C791 1.327 . S
C791 H785 0.950 . S
C791 C790 1.327 . S
C791 C795 1.429 . S
C792 C775 1.574 . S
C792 H786 0.949 . S
C792 C796 1.368 . S
C793 C774 1.429 . S
C793 C787 1.429 . S
C793 C794 1.523 . S
C794 C775 1.368 . S
C794 C788 1.368 . S
C794 C793 1.523 . S
C795 C779 1.429 . S
C795 C791 1.429 . S
C795 C796 1.523 . S
C796 C780 1.368 . S
C796 C792 1.368 . S
C796 C795 1.523 . S
H797 C772 0.950 . S
H798 C774 0.950 . S
H799 C775 0.949 . S
H800 C777 0.950 . S
H801 C779 0.950 . S
C802 C803 1.349 . S
C802 C804 1.327 . S
C802 H827 0.950 . S
C803 C802 1.349 . S
C803 C819 1.349 . S
C804 C802 1.327 . S
C804 C823 1.429 . S
C804 H828 0.950 . S
C805 C822 1.574 . S
C805 C824 1.368 . S
C805 H829 0.949 . S
H806 C810 0.949 . S
C807 C808 1.349 . S
C807 C809 1.327 . S
C807 H830 0.950 . S
C808 C807 1.349 . S
C808 C820 1.349 . S
C809 C807 1.327 . S
C809 C825 1.429 . S
C809 H831 0.950 . S
C810 H806 0.949 . S
C810 C818 1.574 . S
C810 C826 1.368 . S
H811 C819 0.950 . S
H812 C817 0.950 . S
H813 C818 0.949 . S
H814 C820 0.950 1_455 S
H815 C821 0.950 1_455 S
H816 C822 0.949 . S
C817 H812 0.950 . S
C817 C819 1.327 . S
C817 C823 1.429 . S
C818 C810 1.574 . S
C818 H813 0.949 . S
C818 C824 1.368 . S
C819 C803 1.349 . S
C819 H811 0.950 . S
C819 C817 1.327 . S
C820 C808 1.349 . S
C820 H814 0.950 1_655 S
C820 C821 1.327 . S
C821 H815 0.950 1_655 S
C821 C820 1.327 . S
C821 C825 1.429 . S
C822 C805 1.574 . S
C822 H816 0.949 . S
C822 C826 1.368 . S
C823 C804 1.429 . S
C823 C817 1.429 . S
C823 C824 1.523 . S
C824 C805 1.368 . S
C824 C818 1.368 . S
C824 C823 1.523 . S
C825 C809 1.429 . S
C825 C821 1.429 . S
C825 C826 1.523 . S
C826 C810 1.368 . S
C826 C822 1.368 . S
C826 C825 1.523 . S
H827 C802 0.950 . S
H828 C804 0.950 . S
H829 C805 0.949 . S
H830 C807 0.950 . S
H831 C809 0.950 . S
C832 C833 1.349 . S
C832 C834 1.327 1_455 S
C832 H857 0.950 . S
C833 C832 1.349 . S
C833 C849 1.349 1_455 S
C834 C832 1.327 1_655 S
C834 C853 1.429 . S
C834 H858 0.950 . S
C835 C852 1.574 . S
C835 C854 1.368 . S
C835 H859 0.949 . S
H836 C840 0.949 . S
C837 C838 1.349 . S
C837 C839 1.327 . S
C837 H860 0.950 . S
C838 C837 1.349 . S
C838 C850 1.349 . S
C839 C837 1.327 . S
C839 C855 1.429 . S
C839 H861 0.950 . S
C840 H836 0.949 . S
C840 C848 1.574 . S
C840 C856 1.368 . S
H841 C849 0.950 . S
H842 C847 0.950 . S
H843 C848 0.949 . S
H844 C850 0.950 . S
H845 C851 0.950 . S
H846 C852 0.949 . S
C847 H842 0.950 . S
C847 C849 1.327 . S
C847 C853 1.429 . S
C848 C840 1.574 . S
C848 H843 0.949 . S
C848 C854 1.368 . S
C849 C833 1.349 1_655 S
C849 H841 0.950 . S
C849 C847 1.327 . S
C850 C838 1.349 . S
C850 H844 0.950 . S
C850 C851 1.327 . S
C851 H845 0.950 . S
C851 C850 1.327 . S
C851 C855 1.429 . S
C852 C835 1.574 . S
C852 H846 0.949 . S
C852 C856 1.368 . S
C853 C834 1.429 . S
C853 C847 1.429 . S
C853 C854 1.523 . S
C854 C835 1.368 . S
C854 C848 1.368 . S
C854 C853 1.523 . S
C855 C839 1.429 . S
C855 C851 1.429 . S
C855 C856 1.523 . S
C856 C840 1.368 . S
C856 C852 1.368 . S
C856 C855 1.523 . S
H857 C832 0.950 . S
H858 C834 0.950 . S
H859 C835 0.949 . S
H860 C837 0.950 . S
H861 C839 0.950 . S
C862 C863 1.349 . S
C862 C864 1.327 . S
C862 H887 0.950 . S
C863 C862 1.349 . S
C863 C879 1.349 . S
C864 C862 1.327 . S
C864 C883 1.429 . S
C864 H888 0.950 . S
C865 C882 1.574 . S
C865 C884 1.368 . S
C865 H889 0.949 . S
H866 C870 0.949 . S
C867 C868 1.349 . S
C867 C869 1.327 . S
C867 H890 0.950 . S
C868 C867 1.349 . S
C868 C880 1.349 . S
C869 C867 1.327 . S
C869 C885 1.429 . S
C869 H891 0.950 . S
C870 H866 0.949 . S
C870 C878 1.574 . S
C870 C886 1.368 . S
H871 C879 0.950 . S
H872 C877 0.950 . S
H873 C878 0.949 . S
H874 C880 0.950 . S
H875 C881 0.950 . S
H876 C882 0.949 . S
C877 H872 0.950 . S
C877 C879 1.327 . S
C877 C883 1.429 . S
C878 C870 1.574 . S
C878 H873 0.949 . S
C878 C884 1.368 . S
C879 C863 1.349 . S
C879 H871 0.950 . S
C879 C877 1.327 . S
C880 C868 1.349 . S
C880 H874 0.950 . S
C880 C881 1.327 . S
C881 H875 0.950 . S
C881 C880 1.327 . S
C881 C885 1.429 . S
C882 C865 1.574 . S
C882 H876 0.949 . S
C882 C886 1.368 . S
C883 C864 1.429 . S
C883 C877 1.429 . S
C883 C884 1.523 . S
C884 C865 1.368 . S
C884 C878 1.368 . S
C884 C883 1.523 . S
C885 C869 1.429 . S
C885 C881 1.429 . S
C885 C886 1.523 . S
C886 C870 1.368 . S
C886 C882 1.368 . S
C886 C885 1.523 . S
H887 C862 0.950 . S
H888 C864 0.950 . S
H889 C865 0.949 . S
H890 C867 0.950 . S
H891 C869 0.950 . S
C892 C893 1.349 . S
C892 C894 1.327 . S
C892 H917 0.950 . S
C893 C892 1.349 . S
C893 C909 1.349 . S
C894 C892 1.327 . S
C894 C913 1.429 . S
C894 H918 0.950 . S
C895 C912 1.574 . S
C895 C914 1.368 . S
C895 H919 0.949 . S
H896 C900 0.949 . S
C897 C898 1.349 . S
C897 C899 1.327 . S
C897 H920 0.950 . S
C898 C897 1.349 . S
C898 C910 1.349 . S
C899 C897 1.327 . S
C899 C915 1.429 . S
C899 H921 0.950 . S
C900 H896 0.949 . S
C900 C908 1.574 . S
C900 C916 1.368 . S
H901 C909 0.950 . S
H902 C907 0.950 . S
H903 C908 0.949 . S
H904 C910 0.950 . S
H905 C911 0.950 . S
H906 C912 0.949 . S
C907 H902 0.950 . S
C907 C909 1.327 . S
C907 C913 1.429 . S
C908 C900 1.574 . S
C908 H903 0.949 . S
C908 C914 1.368 . S
C909 C893 1.349 . S
C909 H901 0.950 . S
C909 C907 1.327 . S
C910 C898 1.349 . S
C910 H904 0.950 . S
C910 C911 1.327 . S
C911 H905 0.950 . S
C911 C910 1.327 . S
C911 C915 1.429 . S
C912 C895 1.574 . S
C912 H906 0.949 . S
C912 C916 1.368 . S
C913 C894 1.429 . S
C913 C907 1.429 . S
C913 C914 1.523 . S
C914 C895 1.368 . S
C914 C908 1.368 . S
C914 C913 1.523 . S
C915 C899 1.429 . S
C915 C911 1.429 . S
C915 C916 1.523 . S
C916 C900 1.368 . S
C916 C912 1.368 . S
C916 C915 1.523 . S
H917 C892 0.950 . S
H918 C894 0.950 . S
H919 C895 0.949 . S
H920 C897 0.950 . S
H921 C899 0.950 . S
C922 C923 1.349 . S
C922 C924 1.327 . S
C922 H947 0.950 . S
C923 C922 1.349 . S
C923 C939 1.349 . S
C924 C922 1.327 . S
C924 C943 1.429 . S
C924 H948 0.950 . S
C925 C942 1.574 . S
C925 C944 1.368 . S
C925 H949 0.949 . S
H926 C930 0.949 . S
C927 C928 1.349 . S
C927 C929 1.327 . S
C927 H950 0.950 . S
C928 C927 1.349 . S
C928 C940 1.349 . S
C929 C927 1.327 . S
C929 C945 1.429 . S
C929 H951 0.950 . S
C930 H926 0.949 . S
C930 C938 1.574 . S
C930 C946 1.368 . S
H931 C939 0.950 . S
H932 C937 0.950 . S
H933 C938 0.949 . S
H934 C940 0.950 . S
H935 C941 0.950 . S
H936 C942 0.949 . S
C937 H932 0.950 . S
C937 C939 1.327 . S
C937 C943 1.429 . S
C938 C930 1.574 . S
C938 H933 0.949 . S
C938 C944 1.368 . S
C939 C923 1.349 . S
C939 H931 0.950 . S
C939 C937 1.327 . S
C940 C928 1.349 . S
C940 H934 0.950 . S
C940 C941 1.327 . S
C941 H935 0.950 . S
C941 C940 1.327 . S
C941 C945 1.429 . S
C942 C925 1.574 . S
C942 H936 0.949 . S
C942 C946 1.368 . S
C943 C924 1.429 . S
C943 C937 1.429 . S
C943 C944 1.523 . S
C944 C925 1.368 . S
C944 C938 1.368 . S
C944 C943 1.523 . S
C945 C929 1.429 . S
C945 C941 1.429 . S
C945 C946 1.523 . S
C946 C930 1.368 . S
C946 C942 1.368 . S
C946 C945 1.523 . S
H947 C922 0.950 . S
H948 C924 0.950 . S
H949 C925 0.949 . S
H950 C927 0.950 . S
H951 C929 0.950 . S
C952 C953 1.349 1_655 S
C952 C954 1.327 . S
C952 H977 0.950 . S
C953 C952 1.349 1_455 S
C953 C969 1.349 . S
C954 C952 1.327 . S
C954 C973 1.429 . S
C954 H978 0.950 . S
C955 C972 1.574 . S
C955 C974 1.368 . S
C955 H979 0.949 . S
H956 C960 0.949 . S
C957 C958 1.349 . S
C957 C959 1.327 . S
C957 H980 0.950 . S
C958 C957 1.349 . S
C958 C970 1.349 . S
C959 C957 1.327 . S
C959 C975 1.429 . S
C959 H981 0.950 . S
C960 H956 0.949 . S
C960 C968 1.574 . S
C960 C976 1.368 . S
H961 C969 0.950 . S
H962 C967 0.950 . S
H963 C968 0.949 . S
H964 C970 0.950 . S
H965 C971 0.950 . S
H966 C972 0.949 . S
C967 H962 0.950 . S
C967 C969 1.327 1_655 S
C967 C973 1.429 . S
C968 C960 1.574 . S
C968 H963 0.949 . S
C968 C974 1.368 . S
C969 C953 1.349 . S
C969 H961 0.950 . S
C969 C967 1.327 1_455 S
C970 C958 1.349 . S
C970 H964 0.950 . S
C970 C971 1.327 . S
C971 H965 0.950 . S
C971 C970 1.327 . S
C971 C975 1.429 . S
C972 C955 1.574 . S
C972 H966 0.949 . S
C972 C976 1.368 . S
C973 C954 1.429 . S
C973 C967 1.429 . S
C973 C974 1.523 . S
C974 C955 1.368 . S
C974 C968 1.368 . S
C974 C973 1.523 . S
C975 C959 1.429 . S
C975 C971 1.429 . S
C975 C976 1.523 . S
C976 C960 1.368 . S
C976 C972 1.368 . S
C976 C975 1.523 . S
H977 C952 0.950 . S
H978 C954 0.950 . S
H979 C955 0.949 . S
H980 C957 0.950 . S
H981 C959 0.950 . S
C982 C983 1.349 . S
C982 C984 1.327 . S
C982 H1007 0.950 . S
C983 C982 1.349 . S
C983 C999 1.349 . S
C984 C982 1.327 . S
C984 C1003 1.429 . S
C984 H1008 0.950 . S
C985 C1002 1.574 . S
C985 C1004 1.368 . S
C985 H1009 0.949 . S
H986 C990 0.949 . S
C987 C988 1.349 . S
C987 C989 1.327 . S
C987 H1010 0.950 1_655 S
C988 C987 1.349 . S
C988 C1000 1.349 . S
C989 C987 1.327 . S
C989 C1005 1.429 . S
C989 H1011 0.950 . S
C990 H986 0.949 . S
C990 C998 1.574 . S
C990 C1006 1.368 . S
H991 C999 0.950 . S
H992 C997 0.950 . S
H993 C998 0.949 . S
H994 C1000 0.950 . S
H995 C1001 0.950 . S
H996 C1002 0.949 . S
C997 H992 0.950 . S
C997 C999 1.327 . S
C997 C1003 1.429 . S
C998 C990 1.574 . S
C998 H993 0.949 . S
C998 C1004 1.368 . S
C999 C983 1.349 . S
C999 H991 0.950 . S
C999 C997 1.327 . S
C1000 C988 1.349 . S
C1000 H994 0.950 . S
C1000 C1001 1.327 . S
C1001 H995 0.950 . S
C1001 C1000 1.327 . S
C1001 C1005 1.429 . S
C1002 C985 1.574 . S
C1002 H996 0.949 . S
C1002 C1006 1.368 . S
C1003 C984 1.429 . S
C1003 C997 1.429 . S
C1003 C1004 1.523 . S
C1004 C985 1.368 . S
C1004 C998 1.368 . S
C1004 C1003 1.523 . S
C1005 C989 1.429 . S
C1005 C1001 1.429 . S
C1005 C1006 1.523 . S
C1006 C990 1.368 . S
C1006 C1002 1.368 . S
C1006 C1005 1.523 . S
H1007 C982 0.950 . S
H1008 C984 0.950 . S
H1009 C985 0.949 . S
H1010 C987 0.950 1_455 S
H1011 C989 0.950 . S
C1012 C1013 1.349 . S
C1012 C1014 1.327 . S
C1012 H1037 0.950 . S
C1013 C1012 1.349 . S
C1013 C1029 1.349 . S
C1014 C1012 1.327 . S
C1014 C1033 1.429 . S
C1014 H1038 0.950 . S
C1015 C1032 1.574 . S
C1015 C1034 1.368 . S
C1015 H1039 0.949 . S
H1016 C1020 0.949 . S
C1017 C1018 1.349 . S
C1017 C1019 1.327 . S
C1017 H1040 0.950 . S
C1018 C1017 1.349 . S
C1018 C1030 1.349 . S
C1019 C1017 1.327 . S
C1019 C1035 1.429 . S
C1019 H1041 0.950 . S
C1020 H1016 0.949 . S
C1020 C1028 1.574 . S
C1020 C1036 1.368 . S
H1021 C1029 0.950 . S
H1022 C1027 0.950 . S
H1023 C1028 0.949 . S
H1024 C1030 0.950 . S
H1025 C1031 0.950 . S
H1026 C1032 0.949 . S
C1027 H1022 0.950 . S
C1027 C1029 1.327 . S
C1027 C1033 1.429 . S
C1028 C1020 1.574 . S
C1028 H1023 0.949 . S
C1028 C1034 1.368 . S
C1029 C1013 1.349 . S
C1029 H1021 0.950 . S
C1029 C1027 1.327 . S
C1030 C1018 1.349 . S
C1030 H1024 0.950 . S
C1030 C1031 1.327 . S
C1031 H1025 0.950 . S
C1031 C1030 1.327 . S
C1031 C1035 1.429 . S
C1032 C1015 1.574 . S
C1032 H1026 0.949 . S
C1032 C1036 1.368 . S
C1033 C1014 1.429 . S
C1033 C1027 1.429 . S
C1033 C1034 1.523 . S
C1034 C1015 1.368 . S
C1034 C1028 1.368 . S
C1034 C1033 1.523 . S
C1035 C1019 1.429 . S
C1035 C1031 1.429 . S
C1035 C1036 1.523 . S
C1036 C1020 1.368 . S
C1036 C1032 1.368 . S
C1036 C1035 1.523 . S
H1037 C1012 0.950 . S
H1038 C1014 0.950 . S
H1039 C1015 0.949 . S
H1040 C1017 0.950 . S
H1041 C1019 0.950 . S
C1042 C1043 1.349 . S
C1042 C1044 1.327 . S
C1042 H1067 0.950 . S
C1043 C1042 1.349 . S
C1043 C1059 1.349 . S
C1044 C1042 1.327 . S
C1044 C1063 1.429 . S
C1044 H1068 0.950 . S
C1045 C1062 1.574 . S
C1045 C1064 1.368 . S
C1045 H1069 0.949 . S
H1046 C1050 0.949 . S
C1047 C1048 1.349 . S
C1047 C1049 1.327 . S
C1047 H1070 0.950 . S
C1048 C1047 1.349 . S
C1048 C1060 1.349 . S
C1049 C1047 1.327 . S
C1049 C1065 1.429 . S
C1049 H1071 0.950 . S
C1050 H1046 0.949 . S
C1050 C1058 1.574 . S
C1050 C1066 1.368 . S
H1051 C1059 0.950 . S
H1052 C1057 0.950 . S
H1053 C1058 0.949 . S
H1054 C1060 0.950 . S
H1055 C1061 0.950 . S
H1056 C1062 0.949 . S
C1057 H1052 0.950 . S
C1057 C1059 1.327 . S
C1057 C1063 1.429 . S
C1058 C1050 1.574 . S
C1058 H1053 0.949 . S
C1058 C1064 1.368 . S
C1059 C1043 1.349 . S
C1059 H1051 0.950 . S
C1059 C1057 1.327 . S
C1060 C1048 1.349 . S
C1060 H1054 0.950 . S
C1060 C1061 1.327 . S
C1061 H1055 0.950 . S
C1061 C1060 1.327 . S
C1061 C1065 1.429 . S
C1062 C1045 1.574 . S
C1062 H1056 0.949 . S
C1062 C1066 1.368 . S
C1063 C1044 1.429 . S
C1063 C1057 1.429 . S
C1063 C1064 1.523 . S
C1064 C1045 1.368 . S
C1064 C1058 1.368 . S
C1064 C1063 1.523 . S
C1065 C1049 1.429 . S
C1065 C1061 1.429 . S
C1065 C1066 1.523 . S
C1066 C1050 1.368 . S
C1066 C1062 1.368 . S
C1066 C1065 1.523 . S
H1067 C1042 0.950 . S
H1068 C1044 0.950 . S
H1069 C1045 0.949 . S
H1070 C1047 0.950 . S
H1071 C1049 0.950 . S
C1072 C1073 1.349 . S
C1072 C1074 1.327 . S
C1072 H1097 0.950 . S
C1073 C1072 1.349 . S
C1073 C1089 1.349 . S
C1074 C1072 1.327 . S
C1074 C1093 1.429 . S
C1074 H1098 0.950 . S
C1075 C1092 1.574 . S
C1075 C1094 1.368 . S
C1075 H1099 0.949 . S
H1076 C1080 0.949 . S
C1077 C1078 1.349 . S
C1077 C1079 1.327 . S
C1077 H1100 0.950 . S
C1078 C1077 1.349 . S
C1078 C1090 1.349 . S
C1079 C1077 1.327 . S
C1079 C1095 1.429 . S
C1079 H1101 0.950 . S
C1080 H1076 0.949 . S
C1080 C1088 1.574 . S
C1080 C1096 1.368 . S
H1081 C1089 0.950 . S
H1082 C1087 0.950 . S
H1083 C1088 0.949 . S
H1084 C1090 0.950 . S
H1085 C1091 0.950 . S
H1086 C1092 0.949 . S
C1087 H1082 0.950 . S
C1087 C1089 1.327 . S
C1087 C1093 1.429 . S
C1088 C1080 1.574 . S
C1088 H1083 0.949 . S
C1088 C1094 1.368 . S
C1089 C1073 1.349 . S
C1089 H1081 0.950 . S
C1089 C1087 1.327 . S
C1090 C1078 1.349 . S
C1090 H1084 0.950 . S
C1090 C1091 1.327 . S
C1091 H1085 0.950 . S
C1091 C1090 1.327 . S
C1091 C1095 1.429 . S
C1092 C1075 1.574 . S
C1092 H1086 0.949 . S
C1092 C1096 1.368 . S
C1093 C1074 1.429 . S
C1093 C1087 1.429 . S
C1093 C1094 1.523 . S
C1094 C1075 1.368 . S
C1094 C1088 1.368 . S
C1094 C1093 1.523 . S
C1095 C1079 1.429 . S
C1095 C1091 1.429 . S
C1095 C1096 1.523 . S
C1096 C1080 1.368 . S
C1096 C1092 1.368 . S
C1096 C1095 1.523 . S
H1097 C1072 0.950 . S
H1098 C1074 0.950 . S
H1099 C1075 0.949 . S
H1100 C1077 0.950 . S
H1101 C1079 0.950 . S
C1102 C1103 1.349 . S
C1102 C1104 1.327 . S
C1102 H1127 0.950 . S
C1103 C1102 1.349 . S
C1103 C1119 1.349 . S
C1104 C1102 1.327 . S
C1104 C1123 1.429 . S
C1104 H1128 0.950 . S
C1105 C1122 1.574 . S
C1105 C1124 1.368 . S
C1105 H1129 0.949 . S
H1106 C1110 0.949 . S
C1107 C1108 1.349 . S
C1107 C1109 1.327 . S
C1107 H1130 0.950 . S
C1108 C1107 1.349 . S
C1108 C1120 1.349 . S
C1109 C1107 1.327 . S
C1109 C1125 1.429 . S
C1109 H1131 0.950 . S
C1110 H1106 0.949 . S
C1110 C1118 1.574 . S
C1110 C1126 1.368 . S
H1111 C1119 0.950 . S
H1112 C1117 0.950 . S
H1113 C1118 0.949 . S
H1114 C1120 0.950 . S
H1115 C1121 0.950 . S
H1116 C1122 0.949 . S
C1117 H1112 0.950 . S
C1117 C1119 1.327 . S
C1117 C1123 1.429 . S
C1118 C1110 1.574 . S
C1118 H1113 0.949 . S
C1118 C1124 1.368 . S
C1119 C1103 1.349 . S
C1119 H1111 0.950 . S
C1119 C1117 1.327 . S
C1120 C1108 1.349 . S
C1120 H1114 0.950 . S
C1120 C1121 1.327 . S
C1121 H1115 0.950 . S
C1121 C1120 1.327 . S
C1121 C1125 1.429 . S
C1122 C1105 1.574 . S
C1122 H1116 0.949 . S
C1122 C1126 1.368 . S
C1123 C1104 1.429 . S
C1123 C1117 1.429 . S
C1123 C1124 1.523 . S
C1124 C1105 1.368 . S
C1124 C1118 1.368 . S
C1124 C1123 1.523 . S
C1125 C1109 1.429 . S
C1125 C1121 1.429 . S
C1125 C1126 1.523 . S
C1126 C1110 1.368 . S
C1126 C1122 1.368 . S
C1126 C1125 1.523 . S
H1127 C1102 0.950 . S
H1128 C1104 0.950 . S
H1129 C1105 0.949 . S
H1130 C1107 0.950 . S
H1131 C1109 0.950 . S
C1132 C1133 1.349 . S
C1132 C1134 1.327 . S
C1132 H1157 0.950 . S
C1133 C1132 1.349 . S
C1133 C1149 1.349 . S
C1134 C1132 1.327 . S
C1134 C1153 1.429 . S
C1134 H1158 0.950 . S
C1135 C1152 1.574 . S
C1135 C1154 1.368 . S
C1135 H1159 0.949 . S
H1136 C1140 0.949 . S
C1137 C1138 1.349 . S
C1137 C1139 1.327 . S
C1137 H1160 0.950 . S
C1138 C1137 1.349 . S
C1138 C1150 1.349 . S
C1139 C1137 1.327 . S
C1139 C1155 1.429 . S
C1139 H1161 0.950 . S
C1140 H1136 0.949 . S
C1140 C1148 1.574 . S
C1140 C1156 1.368 . S
H1141 C1149 0.950 . S
H1142 C1147 0.950 . S
H1143 C1148 0.949 . S
H1144 C1150 0.950 . S
H1145 C1151 0.950 . S
H1146 C1152 0.949 . S
C1147 H1142 0.950 . S
C1147 C1149 1.327 . S
C1147 C1153 1.429 . S
C1148 C1140 1.574 . S
C1148 H1143 0.949 . S
C1148 C1154 1.368 . S
C1149 C1133 1.349 . S
C1149 H1141 0.950 . S
C1149 C1147 1.327 . S
C1150 C1138 1.349 . S
C1150 H1144 0.950 . S
C1150 C1151 1.327 . S
C1151 H1145 0.950 . S
C1151 C1150 1.327 . S
C1151 C1155 1.429 . S
C1152 C1135 1.574 . S
C1152 H1146 0.949 . S
C1152 C1156 1.368 . S
C1153 C1134 1.429 . S
C1153 C1147 1.429 . S
C1153 C1154 1.523 . S
C1154 C1135 1.368 . S
C1154 C1148 1.368 . S
C1154 C1153 1.523 . S
C1155 C1139 1.429 . S
C1155 C1151 1.429 . S
C1155 C1156 1.523 . S
C1156 C1140 1.368 . S
C1156 C1152 1.368 . S
C1156 C1155 1.523 . S
H1157 C1132 0.950 . S
H1158 C1134 0.950 . S
H1159 C1135 0.949 . S
H1160 C1137 0.950 . S
H1161 C1139 0.950 . S
C1162 C1163 1.349 . S
C1162 C1164 1.327 . S
C1162 H1187 0.950 . S
C1163 C1162 1.349 . S
C1163 C1179 1.349 . S
C1164 C1162 1.327 . S
C1164 C1183 1.429 . S
C1164 H1188 0.950 . S
C1165 C1182 1.574 . S
C1165 C1184 1.368 . S
C1165 H1189 0.949 . S
H1166 C1170 0.949 . S
C1167 C1168 1.349 . S
C1167 C1169 1.327 . S
C1167 H1190 0.950 . S
C1168 C1167 1.349 . S
C1168 C1180 1.349 . S
C1169 C1167 1.327 . S
C1169 C1185 1.429 . S
C1169 H1191 0.950 . S
C1170 H1166 0.949 . S
C1170 C1178 1.574 . S
C1170 C1186 1.368 . S
H1171 C1179 0.950 . S
H1172 C1177 0.950 . S
H1173 C1178 0.949 . S
H1174 C1180 0.950 . S
H1175 C1181 0.950 . S
H1176 C1182 0.949 . S
C1177 H1172 0.950 . S
C1177 C1179 1.327 . S
C1177 C1183 1.429 . S
C1178 C1170 1.574 . S
C1178 H1173 0.949 . S
C1178 C1184 1.368 . S
C1179 C1163 1.349 . S
C1179 H1171 0.950 . S
C1179 C1177 1.327 . S
C1180 C1168 1.349 . S
C1180 H1174 0.950 . S
C1180 C1181 1.327 . S
C1181 H1175 0.950 . S
C1181 C1180 1.327 . S
C1181 C1185 1.429 . S
C1182 C1165 1.574 . S
C1182 H1176 0.949 . S
C1182 C1186 1.368 . S
C1183 C1164 1.429 . S
C1183 C1177 1.429 . S
C1183 C1184 1.523 . S
C1184 C1165 1.368 . S
C1184 C1178 1.368 . S
C1184 C1183 1.523 . S
C1185 C1169 1.429 . S
C1185 C1181 1.429 . S
C1185 C1186 1.523 . S
C1186 C1170 1.368 . S
C1186 C1182 1.368 . S
C1186 C1185 1.523 . S
H1187 C1162 0.950 . S
H1188 C1164 0.950 . S
H1189 C1165 0.949 . S
H1190 C1167 0.950 . S
H1191 C1169 0.950 . S
C1192 C1193 1.349 . S
C1192 C1194 1.327 . S
C1192 H1217 0.950 . S
C1193 C1192 1.349 . S
C1193 C1209 1.349 . S
C1194 C1192 1.327 . S
C1194 C1213 1.429 . S
C1194 H1218 0.950 . S
C1195 C1212 1.574 . S
C1195 C1214 1.368 . S
C1195 H1219 0.949 . S
H1196 C1200 0.949 . S
C1197 C1198 1.349 . S
C1197 C1199 1.327 . S
C1197 H1220 0.950 . S
C1198 C1197 1.349 . S
C1198 C1210 1.349 . S
C1199 C1197 1.327 . S
C1199 C1215 1.429 . S
C1199 H1221 0.950 . S
C1200 H1196 0.949 . S
C1200 C1208 1.574 . S
C1200 C1216 1.368 . S
H1201 C1209 0.950 . S
H1202 C1207 0.950 . S
H1203 C1208 0.949 . S
H1204 C1210 0.950 . S
H1205 C1211 0.950 . S
H1206 C1212 0.949 . S
C1207 H1202 0.950 . S
C1207 C1209 1.327 . S
C1207 C1213 1.429 . S
C1208 C1200 1.574 . S
C1208 H1203 0.949 . S
C1208 C1214 1.368 . S
C1209 C1193 1.349 . S
C1209 H1201 0.950 . S
C1209 C1207 1.327 . S
C1210 C1198 1.349 . S
C1210 H1204 0.950 . S
C1210 C1211 1.327 . S
C1211 H1205 0.950 . S
C1211 C1210 1.327 . S
C1211 C1215 1.429 . S
C1212 C1195 1.574 . S
C1212 H1206 0.949 . S
C1212 C1216 1.368 . S
C1213 C1194 1.429 . S
C1213 C1207 1.429 . S
C1213 C1214 1.523 . S
C1214 C1195 1.368 . S
C1214 C1208 1.368 . S
C1214 C1213 1.523 . S
C1215 C1199 1.429 . S
C1215 C1211 1.429 . S
C1215 C1216 1.523 . S
C1216 C1200 1.368 . S
C1216 C1212 1.368 . S
C1216 C1215 1.523 . S
H1217 C1192 0.950 . S
H1218 C1194 0.950 . S
H1219 C1195 0.949 . S
H1220 C1197 0.950 . S
H1221 C1199 0.950 . S
C1222 C1223 1.349 . S
C1222 C1224 1.327 . S
C1222 H1247 0.950 . S
C1223 C1222 1.349 . S
C1223 C1239 1.349 . S
C1224 C1222 1.327 . S
C1224 C1243 1.429 . S
C1224 H1248 0.950 . S
C1225 C1242 1.574 . S
C1225 C1244 1.368 . S
C1225 H1249 0.949 . S
H1226 C1230 0.949 . S
C1227 C1228 1.349 . S
C1227 C1229 1.327 . S
C1227 H1250 0.950 . S
C1228 C1227 1.349 . S
C1228 C1240 1.349 . S
C1229 C1227 1.327 . S
C1229 C1245 1.429 . S
C1229 H1251 0.950 . S
C1230 H1226 0.949 . S
C1230 C1238 1.574 . S
C1230 C1246 1.368 . S
H1231 C1239 0.950 . S
H1232 C1237 0.950 . S
H1233 C1238 0.949 . S
H1234 C1240 0.950 . S
H1235 C1241 0.950 . S
H1236 C1242 0.949 . S
C1237 H1232 0.950 . S
C1237 C1239 1.327 . S
C1237 C1243 1.429 . S
C1238 C1230 1.574 . S
C1238 H1233 0.949 . S
C1238 C1244 1.368 . S
C1239 C1223 1.349 . S
C1239 H1231 0.950 . S
C1239 C1237 1.327 . S
C1240 C1228 1.349 . S
C1240 H1234 0.950 . S
C1240 C1241 1.327 . S
C1241 H1235 0.950 . S
C1241 C1240 1.327 . S
C1241 C1245 1.429 . S
C1242 C1225 1.574 . S
C1242 H1236 0.949 . S
C1242 C1246 1.368 . S
C1243 C1224 1.429 . S
C1243 C1237 1.429 . S
C1243 C1244 1.523 . S
C1244 C1225 1.368 . S
C1244 C1238 1.368 . S
C1244 C1243 1.523 . S
C1245 C1229 1.429 . S
C1245 C1241 1.429 . S
C1245 C1246 1.523 . S
C1246 C1230 1.368 . S
C1246 C1242 1.368 . S
C1246 C1245 1.523 . S
H1247 C1222 0.950 . S
H1248 C1224 0.950 . S
H1249 C1225 0.949 . S
H1250 C1227 0.950 . S
H1251 C1229 0.950 . S
C298 C228 1.819 . S
C293 C17 1.783 . S
C323 C30 1.704 . S
C328 C231 1.719 . S
C353 C61 1.680 . S
C358 C262 1.686 . S
C388 C197 1.790 . S
C383 C72 1.789 . S
C418 C232 1.803 . S
C413 C19 1.813 . S
C448 C263 1.818 . S
C443 C33 1.770 . S
C478 C188 1.761 . S
C473 C59 1.709 . S
C508 C219 1.751 . S
C503 C75 1.690 . S
C533 C12 1.260 . S
C538 C249 1.214 . S
C563 C101 1.249 . S
C568 C218 1.196 . S
C593 C51 1.148 . S
C598 C178 1.154 . S
C628 C271 1.168 . S
C623 C124 1.168 . S
C658 C199 1.218 . S
C653 C9 1.281 . S
C683 C103 1.197 . S
C688 C198 1.197 . S
C713 C54 1.192 . S
C718 C291 1.214 . S
C748 C230 1.228 . S
C743 C122 1.283 . S
C773 C145 1.784 . S
C778 C290 1.775 . S
C803 C96 1.684 . S
C808 C169 1.746 . S
C833 C166 1.711 . S
C838 C200 1.717 . S
C863 C114 1.761 . S
C868 C259 1.763 . S
C898 C170 1.845 . S
C893 C143 1.809 . S
C923 C93 1.786 . S
C928 C201 1.787 . S
C953 C164 1.681 . S
C958 C250 1.732 . S
C988 C281 1.782 . S
C983 C117 1.719 . S
C1013 C135 1.253 . S
C1018 C187 1.192 . S
C1043 C40 1.226 . S
C1048 C280 1.160 . S
C1073 C156 1.179 . S
C1078 C240 1.185 . S
C1108 C209 1.202 . S
C1103 C82 1.202 . S
C1138 C261 1.244 . S
C1133 C138 1.292 . S
C1168 C260 1.233 . S
C1163 C38 1.217 . S
C1198 C229 1.179 . S
C1193 C159 1.159 . S
C1228 C168 1.199 . S
C1223 C80 1.253 . S
