# Generated by pormake.
# Topology ptr, (4,4)-cn, num edge types: 1
# Building blocks:
#     Node 0, Type 0, BuildingBlock: CEKHIL_clean_sbu_0, # of connection points: 4
#     Node 1, Type 0, BuildingBlock: CEKHIL_clean_sbu_0, # of connection points: 4
#     Node 2, Type 0, BuildingBlock: CEKHIL_clean_sbu_0, # of connection points: 4
#     Node 3, Type 0, BuildingBlock: CEKHIL_clean_sbu_0, # of connection points: 4
#     Node 4, Type 0, BuildingBlock: CEKHIL_clean_sbu_0, # of connection points: 4
#     Node 5, Type 0, BuildingBlock: CEKHIL_clean_sbu_0, # of connection points: 4
#     Node 6, Type 0, BuildingBlock: CEKHIL_clean_sbu_0, # of connection points: 4
#     Node 7, Type 0, BuildingBlock: CEKHIL_clean_sbu_0, # of connection points: 4
#     Node 8, Type 0, BuildingBlock: CEKHIL_clean_sbu_0, # of connection points: 4
#     Node 9, Type 0, BuildingBlock: CEKHIL_clean_sbu_0, # of connection points: 4
#     Node 10, Type 0, BuildingBlock: CEKHIL_clean_sbu_0, # of connection points: 4
#     Node 11, Type 0, BuildingBlock: CEKHIL_clean_sbu_0, # of connection points: 4
#     Node 12, Type 0, BuildingBlock: CEKHIL_clean_sbu_0, # of connection points: 4
#     Node 13, Type 0, BuildingBlock: CEKHIL_clean_sbu_0, # of connection points: 4
#     Node 14, Type 0, BuildingBlock: CEKHIL_clean_sbu_0, # of connection points: 4
#     Node 15, Type 0, BuildingBlock: CEKHIL_clean_sbu_0, # of connection points: 4
#     Node 16, Type 0, BuildingBlock: CEKHIL_clean_sbu_0, # of connection points: 4
#     Node 17, Type 0, BuildingBlock: CEKHIL_clean_sbu_0, # of connection points: 4
#     Node 18, Type 1, BuildingBlock: NAHDIM_clean_linker_0, # of connection points: 4
#     Node 19, Type 1, BuildingBlock: NAHDIM_clean_linker_0, # of connection points: 4
#     Node 20, Type 1, BuildingBlock: NAHDIM_clean_linker_0, # of connection points: 4
#     Node 21, Type 1, BuildingBlock: NAHDIM_clean_linker_0, # of connection points: 4
#     Node 22, Type 1, BuildingBlock: NAHDIM_clean_linker_0, # of connection points: 4
#     Node 23, Type 1, BuildingBlock: NAHDIM_clean_linker_0, # of connection points: 4
#     Node 24, Type 1, BuildingBlock: NAHDIM_clean_linker_0, # of connection points: 4
#     Node 25, Type 1, BuildingBlock: NAHDIM_clean_linker_0, # of connection points: 4
#     Node 26, Type 1, BuildingBlock: NAHDIM_clean_linker_0, # of connection points: 4
#     Node 27, Type 1, BuildingBlock: NAHDIM_clean_linker_0, # of connection points: 4
#     Node 28, Type 1, BuildingBlock: NAHDIM_clean_linker_0, # of connection points: 4
#     Node 29, Type 1, BuildingBlock: NAHDIM_clean_linker_0, # of connection points: 4
#     Node 30, Type 1, BuildingBlock: NAHDIM_clean_linker_0, # of connection points: 4
#     Node 31, Type 1, BuildingBlock: NAHDIM_clean_linker_0, # of connection points: 4
#     Node 32, Type 1, BuildingBlock: NAHDIM_clean_linker_0, # of connection points: 4
#     Node 33, Type 1, BuildingBlock: NAHDIM_clean_linker_0, # of connection points: 4
#     Node 34, Type 1, BuildingBlock: NAHDIM_clean_linker_0, # of connection points: 4
#     Node 35, Type 1, BuildingBlock: NAHDIM_clean_linker_0, # of connection points: 4
#     Edge 36, Type (0, 1), BuildingBlock: XUDNAN_clean_linker_2, # of connection points: 2
#     Edge 37, Type (0, 1), BuildingBlock: XUDNAN_clean_linker_2, # of connection points: 2
#     Edge 38, Type (0, 1), BuildingBlock: XUDNAN_clean_linker_2, # of connection points: 2
#     Edge 39, Type (0, 1), BuildingBlock: XUDNAN_clean_linker_2, # of connection points: 2
#     Edge 40, Type (0, 1), BuildingBlock: XUDNAN_clean_linker_2, # of connection points: 2
#     Edge 41, Type (0, 1), BuildingBlock: XUDNAN_clean_linker_2, # of connection points: 2
#     Edge 42, Type (0, 1), BuildingBlock: XUDNAN_clean_linker_2, # of connection points: 2
#     Edge 43, Type (0, 1), BuildingBlock: XUDNAN_clean_linker_2, # of connection points: 2
#     Edge 44, Type (0, 1), BuildingBlock: XUDNAN_clean_linker_2, # of connection points: 2
#     Edge 45, Type (0, 1), BuildingBlock: XUDNAN_clean_linker_2, # of connection points: 2
#     Edge 46, Type (0, 1), BuildingBlock: XUDNAN_clean_linker_2, # of connection points: 2
#     Edge 47, Type (0, 1), BuildingBlock: XUDNAN_clean_linker_2, # of connection points: 2
#     Edge 48, Type (0, 1), BuildingBlock: XUDNAN_clean_linker_2, # of connection points: 2
#     Edge 49, Type (0, 1), BuildingBlock: XUDNAN_clean_linker_2, # of connection points: 2
#     Edge 50, Type (0, 1), BuildingBlock: XUDNAN_clean_linker_2, # of connection points: 2
#     Edge 51, Type (0, 1), BuildingBlock: XUDNAN_clean_linker_2, # of connection points: 2
#     Edge 52, Type (0, 1), BuildingBlock: XUDNAN_clean_linker_2, # of connection points: 2
#     Edge 53, Type (0, 1), BuildingBlock: XUDNAN_clean_linker_2, # of connection points: 2
#     Edge 54, Type (0, 1), BuildingBlock: XUDNAN_clean_linker_2, # of connection points: 2
#     Edge 55, Type (0, 1), BuildingBlock: XUDNAN_clean_linker_2, # of connection points: 2
#     Edge 56, Type (0, 1), BuildingBlock: XUDNAN_clean_linker_2, # of connection points: 2
#     Edge 57, Type (0, 1), BuildingBlock: XUDNAN_clean_linker_2, # of connection points: 2
#     Edge 58, Type (0, 1), BuildingBlock: XUDNAN_clean_linker_2, # of connection points: 2
#     Edge 59, Type (0, 1), BuildingBlock: XUDNAN_clean_linker_2, # of connection points: 2
#     Edge 60, Type (0, 1), BuildingBlock: XUDNAN_clean_linker_2, # of connection points: 2
#     Edge 61, Type (0, 1), BuildingBlock: XUDNAN_clean_linker_2, # of connection points: 2
#     Edge 62, Type (0, 1), BuildingBlock: XUDNAN_clean_linker_2, # of connection points: 2
#     Edge 63, Type (0, 1), BuildingBlock: XUDNAN_clean_linker_2, # of connection points: 2
#     Edge 64, Type (0, 1), BuildingBlock: XUDNAN_clean_linker_2, # of connection points: 2
#     Edge 65, Type (0, 1), BuildingBlock: XUDNAN_clean_linker_2, # of connection points: 2
#     Edge 66, Type (0, 1), BuildingBlock: XUDNAN_clean_linker_2, # of connection points: 2
#     Edge 67, Type (0, 1), BuildingBlock: XUDNAN_clean_linker_2, # of connection points: 2
#     Edge 68, Type (0, 1), BuildingBlock: XUDNAN_clean_linker_2, # of connection points: 2
#     Edge 69, Type (0, 1), BuildingBlock: XUDNAN_clean_linker_2, # of connection points: 2
#     Edge 70, Type (0, 1), BuildingBlock: XUDNAN_clean_linker_2, # of connection points: 2
#     Edge 71, Type (0, 1), BuildingBlock: XUDNAN_clean_linker_2, # of connection points: 2
#     Edge 72, Type (0, 1), BuildingBlock: XUDNAN_clean_linker_2, # of connection points: 2
#     Edge 73, Type (0, 1), BuildingBlock: XUDNAN_clean_linker_2, # of connection points: 2
#     Edge 74, Type (0, 1), BuildingBlock: XUDNAN_clean_linker_2, # of connection points: 2
#     Edge 75, Type (0, 1), BuildingBlock: XUDNAN_clean_linker_2, # of connection points: 2
#     Edge 76, Type (0, 1), BuildingBlock: XUDNAN_clean_linker_2, # of connection points: 2
#     Edge 77, Type (0, 1), BuildingBlock: XUDNAN_clean_linker_2, # of connection points: 2
#     Edge 78, Type (0, 1), BuildingBlock: XUDNAN_clean_linker_2, # of connection points: 2
#     Edge 79, Type (0, 1), BuildingBlock: XUDNAN_clean_linker_2, # of connection points: 2
#     Edge 80, Type (0, 1), BuildingBlock: XUDNAN_clean_linker_2, # of connection points: 2
#     Edge 81, Type (0, 1), BuildingBlock: XUDNAN_clean_linker_2, # of connection points: 2
#     Edge 82, Type (0, 1), BuildingBlock: XUDNAN_clean_linker_2, # of connection points: 2
#     Edge 83, Type (0, 1), BuildingBlock: XUDNAN_clean_linker_2, # of connection points: 2
#     Edge 84, Type (0, 1), BuildingBlock: XUDNAN_clean_linker_2, # of connection points: 2
#     Edge 85, Type (0, 1), BuildingBlock: XUDNAN_clean_linker_2, # of connection points: 2
#     Edge 86, Type (0, 1), BuildingBlock: XUDNAN_clean_linker_2, # of connection points: 2
#     Edge 87, Type (0, 1), BuildingBlock: XUDNAN_clean_linker_2, # of connection points: 2
#     Edge 88, Type (0, 1), BuildingBlock: XUDNAN_clean_linker_2, # of connection points: 2
#     Edge 89, Type (0, 1), BuildingBlock: XUDNAN_clean_linker_2, # of connection points: 2
#     Edge 90, Type (0, 1), BuildingBlock: XUDNAN_clean_linker_2, # of connection points: 2
#     Edge 91, Type (0, 1), BuildingBlock: XUDNAN_clean_linker_2, # of connection points: 2
#     Edge 92, Type (0, 1), BuildingBlock: XUDNAN_clean_linker_2, # of connection points: 2
#     Edge 93, Type (0, 1), BuildingBlock: XUDNAN_clean_linker_2, # of connection points: 2
#     Edge 94, Type (0, 1), BuildingBlock: XUDNAN_clean_linker_2, # of connection points: 2
#     Edge 95, Type (0, 1), BuildingBlock: XUDNAN_clean_linker_2, # of connection points: 2
#     Edge 96, Type (0, 1), BuildingBlock: XUDNAN_clean_linker_2, # of connection points: 2
#     Edge 97, Type (0, 1), BuildingBlock: XUDNAN_clean_linker_2, # of connection points: 2
#     Edge 98, Type (0, 1), BuildingBlock: XUDNAN_clean_linker_2, # of connection points: 2
#     Edge 99, Type (0, 1), BuildingBlock: XUDNAN_clean_linker_2, # of connection points: 2
#     Edge 100, Type (0, 1), BuildingBlock: XUDNAN_clean_linker_2, # of connection points: 2
#     Edge 101, Type (0, 1), BuildingBlock: XUDNAN_clean_linker_2, # of connection points: 2
#     Edge 102, Type (0, 1), BuildingBlock: XUDNAN_clean_linker_2, # of connection points: 2
#     Edge 103, Type (0, 1), BuildingBlock: XUDNAN_clean_linker_2, # of connection points: 2
#     Edge 104, Type (0, 1), BuildingBlock: XUDNAN_clean_linker_2, # of connection points: 2
#     Edge 105, Type (0, 1), BuildingBlock: XUDNAN_clean_linker_2, # of connection points: 2
#     Edge 106, Type (0, 1), BuildingBlock: XUDNAN_clean_linker_2, # of connection points: 2
#     Edge 107, Type (0, 1), BuildingBlock: XUDNAN_clean_linker_2, # of connection points: 2
# Relax obj value: 0.030
# Max RMSD: 0.167
# Mean RMSD: 0.058
data_MOF--net-ptr--node1-CEKHIL_clean_sbu_0--node2-NAHDIM_clean_linker_0--edge1-XUDNAN_clean_linker_2
_symmetry_space_group_name_H-M    P1
_symmetry_Int_Tables_number       1
_symmetry_cell_setting            triclinic
loop_
_symmetry_equiv_pos_as_xyz
'x, y, z'
_cell_length_a     95.153712
_cell_length_b     93.547056
_cell_length_c     80.724872
_cell_angle_alpha  91.857218
_cell_angle_beta   89.811094
_cell_angle_gamma 121.14356
loop_
_atom_site_label
_atom_site_type_symbol
_atom_site_fract_x
_atom_site_fract_y
_atom_site_fract_z
_atom_type_partial_charge
Co0 Co 0.99954 0.33229 0.01151 0.0
O1 O 0.00801 0.32228 0.02541 0.0
O2 O 0.02349 0.34529 0.01166 0.0
C3 C 0.9808 0.30797 0.99868 0.0
O4 O 0.99458 0.34564 0.99545 0.0
Co5 Co 0.96334 0.32234 0.01571 0.0
O6 O 0.96732 0.33523 0.99548 0.0
C7 C 0.98812 0.34615 0.03985 0.0
C8 C 0.02257 0.33418 0.02167 0.0
C9 C 0.9816 0.34507 0.9899 0.0
O10 O 0.99941 0.34631 0.03092 0.0
O11 O 0.97279 0.33643 0.0366 0.0
O12 O 0.99582 0.3162 0.99353 0.0
O13 O 0.97794 0.31398 0.01202 0.0
Co14 Co 0.65959 0.658 0.0148 0.0
O15 O 0.67394 0.67178 0.9977 0.0
O16 O 0.66732 0.64576 0.00197 0.0
C17 C 0.67123 0.67799 0.03512 0.0
O18 O 0.64626 0.64008 0.03132 0.0
Co19 Co 0.63632 0.66596 0.03418 0.0
O20 O 0.63403 0.64868 0.04945 0.0
C21 C 0.62821 0.65282 0.9995 0.0
C22 C 0.67576 0.65928 0.9937 0.0
C23 C 0.63814 0.63827 0.04463 0.0
O24 O 0.63989 0.64969 -0.00037 0.0
O25 O 0.62569 0.66045 0.01154 0.0
O26 O 0.67765 0.66909 0.03091 0.0
O27 O 0.65859 0.67514 0.02646 0.0
Co28 Co 0.3368 0.00401 0.00839 0.0
O29 O 0.3224 0.00435 0.99206 0.0
O30 O 0.34589 0.02655 0.00065 0.0
C31 C 0.31731 0.98913 0.02695 0.0
O32 O 0.35448 0.00831 0.02545 0.0
Co33 Co 0.33333 0.97046 0.0166 0.0
O34 O 0.34868 0.98361 0.03516 0.0
C35 C 0.34979 0.98646 0.98593 0.0
C36 C 0.33286 0.02023 0.99114 0.0
C37 C 0.35711 0.99953 0.03558 0.0
O38 O 0.34859 0.99909 0.99042 0.0
O39 O 0.34351 0.97309 0.99414 0.0
O40 O 0.3237 0.00516 0.02621 0.0
O41 O 0.32154 0.98225 0.01535 0.0
Co42 Co 0.99559 0.66756 0.00625 0.0
O43 O 0.99107 0.67896 0.98963 0.0
O44 O 0.97221 0.65616 0.00181 0.0
C45 C 0.01282 0.69097 0.02124 0.0
O46 O 0.99527 0.65275 0.02442 0.0
Co47 Co 0.03028 0.67384 0.01235 0.0
O48 O 0.02099 0.66144 0.03286 0.0
C49 C 0.01071 0.65276 0.98347 0.0
C50 C 0.97566 0.66788 0.99146 0.0
C51 C 0.0055 0.65228 0.03444 0.0
O52 O 0.99828 0.6535 0.9886 0.0
O53 O 0.02486 0.66086 0.99062 0.0
O54 O 0.99705 0.68358 0.02312 0.0
O55 O 0.01769 0.68462 0.00976 0.0
Co56 Co 0.3454 0.35147 0.00012 0.0
O57 O 0.33073 0.33668 0.0164 0.0
O58 O 0.33226 0.36006 0.00906 0.0
C59 C 0.33971 0.33073 0.98133 0.0
O60 O 0.3581 0.36957 0.98356 0.0
Co61 Co 0.37514 0.35031 0.98721 0.0
O62 O 0.37631 0.36544 0.9699 0.0
C63 C 0.37602 0.36382 0.02105 0.0
C64 C 0.32521 0.34676 0.01784 0.0
C65 C 0.36864 0.37316 0.97202 0.0
O66 O 0.36283 0.36387 0.01776 0.0
O67 O 0.38215 0.35769 0.01099 0.0
O68 O 0.33039 0.33708 0.98252 0.0
O69 O 0.35185 0.33668 0.99183 0.0
Co70 Co 0.67113 0.00711 0.00676 0.0
O71 O 0.6825 0.00226 0.02333 0.0
O72 O 0.65911 0.98352 0.01086 0.0
C73 C 0.69349 0.02359 0.99171 0.0
O74 O 0.65611 0.00688 0.98872 0.0
Co75 Co 0.67865 0.04305 0.0013 0.0
O76 O 0.66452 0.03297 0.98117 0.0
C77 C 0.65982 0.02491 0.03045 0.0
C78 C 0.67082 0.98673 0.02134 0.0
C79 C 0.65519 0.01718 0.97924 0.0
O80 O 0.65859 0.01136 0.02451 0.0
O81 O 0.66852 0.0391 0.02383 0.0
O82 O 0.68601 0.00743 0.9898 0.0
O83 O 0.68805 0.02912 0.0034 0.0
Co84 Co 0.67202 0.68231 0.33526 0.0
O85 O 0.67578 0.6691 0.35042 0.0
O86 O 0.69463 0.69445 0.34279 0.0
C87 C 0.65793 0.66164 0.31609 0.0
O88 O 0.67307 0.69953 0.31965 0.0
Co89 Co 0.63637 0.67349 0.32647 0.0
O90 O 0.64757 0.69275 0.31182 0.0
C91 C 0.65145 0.68974 0.35885 0.0
C92 C 0.69093 0.68141 0.35129 0.0
C93 C 0.66314 0.70225 0.31148 0.0
O94 O 0.66553 0.69238 0.35413 0.0
O95 O 0.6382 0.6809 0.35031 0.0
O96 O 0.67388 0.66959 0.31641 0.0
O97 O 0.65123 0.66536 0.328 0.0
Co98 Co 0.32833 0.98842 0.35693 0.0
O99 O 0.34503 0.9979 0.34046 0.0
O100 O 0.33481 0.9726 0.35019 0.0
C101 C 0.33975 0.01121 0.37416 0.0
O102 O 0.31148 0.97468 0.37436 0.0
Co103 Co 0.30683 0.00369 0.36487 0.0
O104 O 0.29961 0.98871 0.38387 0.0
C105 C 0.30026 0.98295 0.33429 0.0
C106 C 0.34506 0.98405 0.34038 0.0
C107 C 0.30197 0.97651 0.38447 0.0
O108 O 0.31081 0.9792 0.33905 0.0
O109 O 0.2977 0.99343 0.34227 0.0
O110 O 0.3447 0.00063 0.37445 0.0
O111 O 0.32909 0.0084 0.36269 0.0
Co112 Co 0.01171 0.33331 0.33854 0.0
O113 O 0.0012 0.33329 0.31809 0.0
O114 O 0.0221 0.35563 0.33049 0.0
C115 C 0.98804 0.31706 0.35184 0.0
O116 O 0.02556 0.33919 0.35962 0.0
Co117 Co 0.0077 0.30204 0.35483 0.0
O118 O 0.0201 0.31692 0.3741 0.0
C119 C 0.02879 0.31564 0.32539 0.0
C120 C 0.01148 0.34934 0.31832 0.0
C121 C 0.02758 0.33266 0.37249 0.0
O122 O 0.02724 0.32854 0.32578 0.0
O123 O 0.02119 0.30349 0.33515 0.0
O124 O 0.99401 0.33307 0.35126 0.0
O125 O 0.99614 0.31138 0.34415 0.0
Co126 Co 0.66763 0.98613 0.34756 0.0
O127 O 0.66693 0.99803 0.32875 0.0
O128 O 0.64742 0.97251 0.33526 0.0
C129 C 0.67655 0.00813 0.36569 0.0
O130 O 0.66274 0.9699 0.36592 0.0
Co131 Co 0.69856 0.99533 0.36782 0.0
O132 O 0.68365 0.97903 0.38403 0.0
C133 C 0.69326 0.97868 0.33471 0.0
C134 C 0.65252 0.98497 0.32551 0.0
C135 C 0.66889 0.96862 0.37954 0.0
O136 O 0.67876 0.97648 0.33391 0.0
O137 O 0.70335 0.98678 0.34671 0.0
O138 O 0.66102 0.99872 0.36193 0.0
O139 O 0.68623 0.00436 0.35804 0.0
Co140 Co 0.01886 0.68728 0.33829 0.0
O141 O 0.00256 0.67456 0.35461 0.0
O142 O 0.00531 0.69673 0.34246 0.0
C143 C 0.01532 0.66494 0.3231 0.0
O144 O 0.03309 0.70314 0.32041 0.0
Co145 Co 0.04987 0.68512 0.33243 0.0
O146 O 0.05186 0.69696 0.31183 0.0
C147 C 0.04777 0.70287 0.36243 0.0
C148 C 0.99737 0.68482 0.35276 0.0
C149 C 0.04428 0.70478 0.3103 0.0
O150 O 0.0348 0.70202 0.35647 0.0
O151 O 0.0548 0.69584 0.35529 0.0
O152 O 0.00539 0.67043 0.3211 0.0
O153 O 0.02622 0.67235 0.33479 0.0
Co154 Co 0.32664 0.33904 0.34653 0.0
O155 O 0.3414 0.34092 0.3638 0.0
O156 O 0.31924 0.31726 0.35525 0.0
C157 C 0.34669 0.3548 0.32875 0.0
O158 O 0.30891 0.33189 0.3287 0.0
Co159 Co 0.3265 0.36969 0.33426 0.0
O160 O 0.31091 0.35425 0.31688 0.0
C161 C 0.31208 0.35618 0.36657 0.0
C162 C 0.33216 0.32485 0.36493 0.0
C163 C 0.30442 0.33851 0.31777 0.0
O164 O 0.31344 0.3434 0.36333 0.0
O165 O 0.31776 0.36868 0.35714 0.0
O166 O 0.34132 0.33897 0.32978 0.0
O167 O 0.34049 0.36085 0.33906 0.0
Co168 Co 0.33717 0.01073 0.67486 0.0
O169 O 0.33806 0.99899 0.6937 0.0
O170 O 0.35689 0.02495 0.68768 0.0
C171 C 0.3298 0.98951 0.65616 0.0
O172 O 0.34163 0.02692 0.6566 0.0
Co173 Co 0.30583 0.0002 0.65453 0.0
O174 O 0.32022 0.01789 0.63911 0.0
C175 C 0.30993 0.01552 0.68799 0.0
C176 C 0.35206 0.01246 0.69735 0.0
C177 C 0.33504 0.02839 0.64339 0.0
O178 O 0.325 0.01934 0.68822 0.0
O179 O 0.29982 0.00663 0.67627 0.0
O180 O 0.34507 0.99922 0.66073 0.0
O181 O 0.31932 0.99219 0.66372 0.0
Co182 Co 0.98954 0.32164 0.67156 0.0
O183 O 0.00192 0.338 0.65534 0.0
O184 O 0.00834 0.32017 0.66495 0.0
C185 C 0.98632 0.3391 0.68887 0.0
O186 O 0.98031 0.30354 0.68881 0.0
Co187 Co 0.95383 0.31162 0.68079 0.0
O188 O 0.95846 0.3027 0.7006 0.0
C189 C 0.96031 0.29915 0.64913 0.0
C190 C 0.01193 0.33246 0.65534 0.0
C191 C 0.96948 0.29885 0.70026 0.0
O192 O 0.97545 0.3051 0.65332 0.0
O193 O 0.95031 0.30137 0.6579 0.0
O194 O 0.99984 0.33884 0.6894 0.0
O195 O 0.97595 0.32982 0.67736 0.0
Co196 Co 0.67904 0.67591 0.67104 0.0
O197 O 0.66631 0.67944 0.65469 0.0
O198 O 0.68855 0.69935 0.66796 0.0
C199 C 0.65735 0.65671 0.68534 0.0
O200 O 0.69502 0.67837 0.68901 0.0
Co201 Co 0.6774 0.6427 0.67725 0.0
O202 O 0.69202 0.65426 0.6969 0.0
C203 C 0.69338 0.66152 0.64725 0.0
C204 C 0.67665 0.69533 0.65749 0.0
C205 C 0.69881 0.67007 0.69848 0.0
O206 O 0.69319 0.67437 0.65321 0.0
O207 O 0.68625 0.64736 0.65415 0.0
O208 O 0.66287 0.67256 0.68796 0.0
O209 O 0.66447 0.65304 0.67379 0.0
Co210 Co 0.33189 0.33304 0.68432 0.0
O211 O 0.33183 0.34772 0.66818 0.0
O212 O 0.30995 0.32402 0.67558 0.0
C213 C 0.34698 0.35356 0.70343 0.0
O214 O 0.3265 0.31497 0.70075 0.0
Co215 Co 0.36311 0.33454 0.69603 0.0
O216 O 0.34914 0.31741 0.71207 0.0
C217 C 0.34948 0.3199 0.66293 0.0
C218 C 0.31612 0.33726 0.66674 0.0
C219 C 0.3336 0.31036 0.71095 0.0
O220 O 0.33671 0.32072 0.66641 0.0
O221 O 0.36203 0.32593 0.67264 0.0
O222 O 0.3312 0.34702 0.70216 0.0
O223 O 0.3534 0.34818 0.69259 0.0
Co224 Co 0.68045 0.02161 0.66368 0.0
O225 O 0.66528 0.0135 0.68184 0.0
O226 O 0.67186 0.03604 0.66781 0.0
C227 C 0.67024 0.99634 0.65077 0.0
O228 O 0.69448 0.03361 0.64385 0.0
Co229 Co 0.70515 0.01036 0.6558 0.0
O230 O 0.70819 0.02148 0.6345 0.0
C231 C 0.71121 0.03354 0.68445 0.0
C232 C 0.66327 0.02601 0.67944 0.0
C233 C 0.70352 0.03191 0.63302 0.0
O234 O 0.69929 0.03529 0.67974 0.0
O235 O 0.71466 0.02336 0.67722 0.0
O236 O 0.66328 0.00501 0.64863 0.0
O237 O 0.68251 0.00279 0.66108 0.0
Co238 Co 0.98083 0.66441 0.67623 0.0
O239 O 0.99146 0.66268 0.69582 0.0
O240 O 0.96765 0.64262 0.6852 0.0
C241 C 0.00371 0.67609 0.66075 0.0
O242 O 0.9661 0.66029 0.65624 0.0
Co243 Co 0.98973 0.69708 0.65941 0.0
O244 O 0.97536 0.68275 0.64073 0.0
C245 C 0.9702 0.6878 0.69017 0.0
C246 C 0.9792 0.64735 0.6963 0.0
C247 C 0.96539 0.66734 0.64313 0.0
O248 O 0.9693 0.67357 0.69006 0.0
O249 O 0.97844 0.69901 0.67964 0.0
O250 O 0.99509 0.66 0.66233 0.0
O251 O 0.99869 0.68464 0.669 0.0
C252 C 0.21957 0.27011 0.08165 0.0
C253 C 0.22173 0.28718 0.07823 0.0
C254 C 0.21076 0.29733 0.09995 0.0
C255 C 0.21521 0.31202 0.10908 0.0
C256 C 0.20327 0.31462 0.11635 0.0
C257 C 0.18652 0.30181 0.11506 0.0
C258 C 0.18196 0.28674 0.10607 0.0
C259 C 0.19413 0.28473 0.09845 0.0
C260 C 0.20859 0.33107 0.12538 0.0
C261 C 0.16425 0.27272 0.10462 0.0
C262 C 0.09053 0.32231 0.06343 0.0
C263 C 0.09736 0.31441 0.07376 0.0
C264 C 0.12305 0.31997 0.08634 0.0
C265 C 0.11656 0.30409 0.09305 0.0
C266 C 0.12599 0.30075 0.1038 0.0
C267 C 0.14204 0.3137 0.10846 0.0
C268 C 0.14859 0.32971 0.1018 0.0
C269 C 0.13907 0.33255 0.09064 0.0
C270 C 0.11877 0.28331 0.11007 0.0
C271 C 0.16563 0.34386 0.10652 0.0
C272 C 0.10195 0.30771 0.21232 0.0
C273 C 0.09834 0.29317 0.20304 0.0
C274 C 0.11089 0.29166 0.19563 0.0
C275 C 0.12732 0.30518 0.19698 0.0
C276 C 0.13094 0.32001 0.20589 0.0
C277 C 0.11819 0.32102 0.2135 0.0
C278 C 0.10656 0.27558 0.18637 0.0
C279 C 0.14828 0.33476 0.20744 0.0
C280 C 0.1907 0.27706 0.26006 0.0
C281 C 0.20452 0.28254 0.24744 0.0
C282 C 0.19574 0.29564 0.22696 0.0
C283 C 0.18195 0.28095 0.22046 0.0
C284 C 0.17124 0.28176 0.20908 0.0
C285 C 0.17453 0.29752 0.20398 0.0
C286 C 0.18865 0.31226 0.21018 0.0
C287 C 0.19905 0.31109 0.22157 0.0
C288 C 0.15639 0.26582 0.20252 0.0
C289 C 0.19266 0.32929 0.20489 0.0
C290 C 0.17377 0.30411 0.12316 0.0
C291 C 0.16427 0.30795 0.1132 0.0
C292 C 0.15208 0.31035 0.11998 0.0
C293 C 0.14934 0.30906 0.13726 0.0
C294 C 0.13747 0.31179 0.14459 0.0
C295 C 0.1346 0.31008 0.16153 0.0
C296 C 0.14361 0.30574 0.17183 0.0
C297 C 0.14069 0.3038 0.18903 0.0
C298 C 0.15056 0.30049 0.19906 0.0
C299 C 0.16321 0.29881 0.19234 0.0
C300 C 0.1657 0.29975 0.17504 0.0
C301 C 0.17773 0.29723 0.16778 0.0
C302 C 0.1802 0.29835 0.15076 0.0
C303 C 0.17104 0.30247 0.14041 0.0
C304 C 0.15879 0.30499 0.14747 0.0
C305 C 0.15599 0.30343 0.16478 0.0
C306 C 0.06262 0.29672 0.21009 0.0
C307 C 0.07428 0.29713 0.22342 0.0
O308 O 0.22286 0.29564 0.09302 0.0
O309 O 0.20618 0.2957 0.23845 0.0
O310 O 0.09029 0.30952 0.22025 0.0
O311 O 0.1143 0.32359 0.07574 0.0
H312 H 0.21078 0.28474 0.07084 0.0
H313 H 0.20724 0.2617 0.08679 0.0
H314 H 0.22882 0.27138 0.09088 0.0
H315 H 0.22063 0.26411 0.06999 0.0
H316 H 0.22809 0.32164 0.11019 0.0
H317 H 0.19061 0.2732 0.09161 0.0
H318 H 0.20068 0.33597 0.12164 0.0
H319 H 0.22159 0.34062 0.12293 0.0
H320 H 0.20726 0.32918 0.13892 0.0
H321 H 0.16295 0.26115 0.09883 0.0
H322 H 0.15728 0.27666 0.09693 0.0
H323 H 0.1586 0.26984 0.11705 0.0
H324 H 0.09227 0.30091 0.07062 0.0
H325 H 0.08472 0.3135 0.05234 0.0
H326 H 0.1011 0.3322 0.05625 0.0
H327 H 0.07671 0.32791 0.08048 0.0
H328 H 0.10423 0.29413 0.08981 0.0
H329 H 0.144 0.34474 0.08541 0.0
H330 H 0.12776 0.27915 0.10892 0.0
H331 H 0.10732 0.27411 0.10325 0.0
H332 H 0.11585 0.28328 0.12339 0.0
H333 H 0.16814 0.35601 0.10191 0.0
H334 H 0.17483 0.34116 0.10122 0.0
H335 H 0.1673 0.34498 0.12021 0.0
H336 H 0.07294 0.28459 0.223 0.0
H337 H 0.0858 0.28295 0.20141 0.0
H338 H 0.12087 0.33225 0.22052 0.0
H339 H 0.10829 0.2778 0.1729 0.0
H340 H 0.09364 0.26551 0.18834 0.0
H341 H 0.11482 0.27118 0.19034 0.0
H342 H 0.14876 0.34605 0.21294 0.0
H343 H 0.15412 0.33777 0.19509 0.0
H344 H 0.15562 0.33153 0.21546 0.0
H345 H 0.20181 0.27185 0.23884 0.0
H346 H 0.18975 0.26684 0.26755 0.0
H347 H 0.17868 0.2723 0.25373 0.0
H348 H 0.1931 0.28773 0.26851 0.0
H349 H 0.17942 0.26886 0.22424 0.0
H350 H 0.2098 0.32233 0.22654 0.0
H351 H 0.15679 0.2651 0.18879 0.0
H352 H 0.14506 0.26586 0.20581 0.0
H353 H 0.1556 0.25452 0.20753 0.0
H354 H 0.20419 0.33954 0.21078 0.0
H355 H 0.18246 0.33129 0.2082 0.0
H356 H 0.19396 0.33001 0.19122 0.0
H357 H 0.16633 0.30898 0.09995 0.0
H358 H 0.1302 0.31522 0.1373 0.0
H359 H 0.12526 0.31227 0.16646 0.0
H360 H 0.14857 0.29953 0.21232 0.0
H361 H 0.18526 0.29421 0.17515 0.0
H362 H 0.18949 0.29608 0.14585 0.0
H363 H 0.04963 0.28803 0.21345 0.0
H364 H 0.0649 0.29226 0.19805 0.0
H365 H 0.06462 0.30937 0.20839 0.0
C366 C 0.71627 0.91465 0.05169 0.0
C367 C 0.7036 0.91164 0.06496 0.0
C368 C 0.71108 0.90727 0.09216 0.0
C369 C 0.69617 0.89384 0.09746 0.0
C370 C 0.69591 0.8828 0.10899 0.0
C371 C 0.71092 0.88524 0.11524 0.0
C372 C 0.72598 0.89915 0.11032 0.0
C373 C 0.72584 0.91017 0.099 0.0
C374 C 0.67962 0.86832 0.11421 0.0
C375 C 0.74219 0.90207 0.11664 0.0
C376 C 0.72855 0.79856 0.07452 0.0
C377 C 0.71997 0.78841 0.08979 0.0
C378 C 0.70797 0.80402 0.10235 0.0
C379 C 0.72286 0.81796 0.10814 0.0
C380 C 0.72316 0.83163 0.1162 0.0
C381 C 0.70828 0.83132 0.11869 0.0
C382 C 0.69328 0.81733 0.11294 0.0
C383 C 0.69335 0.80386 0.10483 0.0
C384 C 0.73939 0.84642 0.12212 0.0
C385 C 0.67721 0.81658 0.11547 0.0
C386 C 0.6968 0.80823 0.22637 0.0
C387 C 0.71303 0.81837 0.22108 0.0
C388 C 0.71759 0.83279 0.21218 0.0
C389 C 0.70561 0.83689 0.20826 0.0
C390 C 0.68932 0.82672 0.21374 0.0
C391 C 0.68519 0.81259 0.22281 0.0
C392 C 0.73512 0.8435 0.20671 0.0
C393 C 0.6762 0.83064 0.20983 0.0
C394 C 0.73236 0.96711 0.22095 0.0
C395 C 0.7231 0.9496 0.2279 0.0
C396 C 0.72789 0.92688 0.21954 0.0
C397 C 0.74013 0.92403 0.21385 0.0
C398 C 0.73621 0.90855 0.2066 0.0
C399 C 0.71956 0.89559 0.20503 0.0
C400 C 0.70711 0.89814 0.21138 0.0
C401 C 0.71141 0.91373 0.21873 0.0
C402 C 0.74984 0.90616 0.20033 0.0
C403 C 0.68927 0.88444 0.21021 0.0
C404 C 0.71079 0.87261 0.12604 0.0
C405 C 0.70946 0.85835 0.11834 0.0
C406 C 0.70848 0.84554 0.12764 0.0
C407 C 0.70845 0.84672 0.14513 0.0
C408 C 0.7065 0.83361 0.15482 0.0
C409 C 0.70663 0.83494 0.17203 0.0
C410 C 0.70922 0.84963 0.18022 0.0
C411 C 0.70971 0.85124 0.19773 0.0
C412 C 0.71301 0.86628 0.20546 0.0
C413 C 0.71524 0.87965 0.19615 0.0
C414 C 0.71386 0.87792 0.17866 0.0
C415 C 0.71505 0.89072 0.16895 0.0
C416 C 0.71375 0.88891 0.15173 0.0
C417 C 0.71168 0.87444 0.14354 0.0
C418 C 0.71043 0.86138 0.1531 0.0
C419 C 0.71119 0.86299 0.17068 0.0
C420 C 0.6924 0.77492 0.25285 0.0
C421 C 0.70069 0.78711 0.23964 0.0
O422 O 0.71151 0.91739 0.08026 0.0
O423 O 0.73263 0.94243 0.22578 0.0
O424 O 0.69167 0.79418 0.23496 0.0
O425 O 0.70708 0.79056 0.0943 0.0
H426 H 0.69479 0.89788 0.0649 0.0
H427 H 0.7224 0.9076 0.05452 0.0
H428 H 0.72582 0.92813 0.05129 0.0
H429 H 0.71019 0.91025 0.0393 0.0
H430 H 0.68474 0.89194 0.09248 0.0
H431 H 0.73728 0.92072 0.09492 0.0
H432 H 0.67828 0.85644 0.1093 0.0
H433 H 0.66909 0.86915 0.10961 0.0
H434 H 0.67914 0.86782 0.12794 0.0
H435 H 0.75283 0.91321 0.11126 0.0
H436 H 0.74315 0.89094 0.1136 0.0
H437 H 0.7429 0.90383 0.13034 0.0
H438 H 0.72895 0.7925 0.10027 0.0
H439 H 0.73876 0.79668 0.07081 0.0
H440 H 0.7338 0.8121 0.07722 0.0
H441 H 0.71971 0.79467 0.06396 0.0
H442 H 0.73432 0.81835 0.10642 0.0
H443 H 0.68192 0.79308 0.10035 0.0
H444 H 0.74106 0.85807 0.117 0.0
H445 H 0.74997 0.84516 0.11846 0.0
H446 H 0.73944 0.84776 0.13584 0.0
H447 H 0.66654 0.80463 0.11061 0.0
H448 H 0.67747 0.82707 0.10912 0.0
H449 H 0.67547 0.81809 0.12888 0.0
H450 H 0.70531 0.78288 0.229 0.0
H451 H 0.72211 0.81508 0.2238 0.0
H452 H 0.67274 0.80471 0.22704 0.0
H453 H 0.73562 0.84244 0.19301 0.0
H454 H 0.74333 0.83974 0.21229 0.0
H455 H 0.73983 0.85683 0.21013 0.0
H456 H 0.66392 0.82098 0.21424 0.0
H457 H 0.6754 0.8317 0.19624 0.0
H458 H 0.67949 0.84286 0.21579 0.0
H459 H 0.71137 0.94247 0.22071 0.0
H460 H 0.72495 0.97316 0.2222 0.0
H461 H 0.73478 0.96628 0.20758 0.0
H462 H 0.74431 0.97504 0.22759 0.0
H463 H 0.75283 0.93414 0.21482 0.0
H464 H 0.70186 0.91551 0.22382 0.0
H465 H 0.74888 0.90445 0.18662 0.0
H466 H 0.74862 0.89469 0.20545 0.0
H467 H 0.76219 0.91697 0.20372 0.0
H468 H 0.68099 0.8886 0.21511 0.0
H469 H 0.68738 0.87364 0.21733 0.0
H470 H 0.68579 0.88004 0.1971 0.0
H471 H 0.70922 0.85722 0.1049 0.0
H472 H 0.70471 0.8221 0.14921 0.0
H473 H 0.7049 0.82437 0.17881 0.0
H474 H 0.71368 0.86755 0.21889 0.0
H475 H 0.71684 0.90223 0.17456 0.0
H476 H 0.71464 0.89911 0.1449 0.0
H477 H 0.7084 0.78603 0.27397 0.0
H478 H 0.68943 0.76255 0.24696 0.0
H479 H 0.67918 0.77156 0.25294 0.0
C480 C 0.20221 0.91722 0.06682 0.0
C481 C 0.21315 0.92273 0.0825 0.0
C482 C 0.19701 0.89993 0.10151 0.0
C483 C 0.1851 0.90419 0.10509 0.0
C484 C 0.17182 0.89435 0.11535 0.0
C485 C 0.17022 0.87982 0.12206 0.0
C486 C 0.18221 0.87553 0.11863 0.0
C487 C 0.19549 0.88571 0.10848 0.0
C488 C 0.15933 0.89938 0.11885 0.0
C489 C 0.18084 0.86007 0.12553 0.0
C490 C 0.04983 0.8031 0.08344 0.0
C491 C 0.06409 0.80011 0.08065 0.0
C492 C 0.08379 0.81034 0.10381 0.0
C493 C 0.09261 0.80522 0.11315 0.0
C494 C 0.107 0.8169 0.1218 0.0
C495 C 0.11216 0.83407 0.1218 0.0
C496 C 0.10313 0.83932 0.1125 0.0
C497 C 0.08916 0.8274 0.10341 0.0
C498 C 0.1166 0.81078 0.13097 0.0
C499 C 0.10814 0.85748 0.11222 0.0
C500 C 0.08322 0.81402 0.22709 0.0
C501 C 0.09392 0.80943 0.22015 0.0
C502 C 0.10842 0.82123 0.21248 0.0
C503 C 0.11215 0.83793 0.21148 0.0
C504 C 0.10172 0.84274 0.21907 0.0
C505 C 0.08747 0.83073 0.227 0.0
C506 C 0.11959 0.81575 0.20519 0.0
C507 C 0.10536 0.86044 0.21839 0.0
C508 C 0.22794 0.94532 0.22553 0.0
C509 C 0.22083 0.93486 0.24094 0.0
C510 C 0.19951 0.90737 0.22914 0.0
C511 C 0.19583 0.8911 0.22542 0.0
C512 C 0.18128 0.8795 0.21693 0.0
C513 C 0.17013 0.88436 0.21211 0.0
C514 C 0.17354 0.90068 0.21618 0.0
C515 C 0.18822 0.91206 0.22464 0.0
C516 C 0.17797 0.86216 0.21285 0.0
C517 C 0.16179 0.90617 0.21131 0.0
C518 C 0.15557 0.86873 0.13197 0.0
C519 C 0.14131 0.85687 0.12338 0.0
C520 C 0.1268 0.84649 0.13173 0.0
C521 C 0.12644 0.84789 0.14921 0.0
C522 C 0.11193 0.83802 0.15799 0.0
C523 C 0.11189 0.83884 0.17522 0.0
C524 C 0.12632 0.84972 0.18435 0.0
C525 C 0.12658 0.85009 0.20189 0.0
C526 C 0.14097 0.86157 0.21056 0.0
C527 C 0.15524 0.87259 0.20217 0.0
C528 C 0.15536 0.87202 0.18464 0.0
C529 C 0.16962 0.88265 0.17581 0.0
C530 C 0.16971 0.88171 0.15856 0.0
C531 C 0.15555 0.87007 0.14948 0.0
C532 C 0.14095 0.85949 0.15812 0.0
C533 C 0.14086 0.86046 0.17571 0.0
C534 C 0.04095 0.78303 0.2259 0.0
C535 C 0.05846 0.78643 0.22758 0.0
O536 O 0.20997 0.90894 0.09137 0.0
O537 O 0.21413 0.91804 0.23688 0.0
O538 O 0.0687 0.80263 0.23379 0.0
O539 O 0.07 0.79844 0.09565 0.0
H540 H 0.21027 0.93099 0.09011 0.0
H541 H 0.1892 0.91216 0.07022 0.0
H542 H 0.20286 0.90724 0.05968 0.0
H543 H 0.20596 0.92802 0.05881 0.0
H544 H 0.18588 0.91507 0.09989 0.0
H545 H 0.20469 0.88247 0.10573 0.0
H546 H 0.14733 0.88989 0.11315 0.0
H547 H 0.16301 0.91176 0.11389 0.0
H548 H 0.15754 0.8998 0.13242 0.0
H549 H 0.19105 0.85832 0.12153 0.0
H550 H 0.16901 0.84888 0.12143 0.0
H551 H 0.18086 0.86089 0.13928 0.0
H552 H 0.07385 0.81109 0.0741 0.0
H553 H 0.04371 0.80227 0.07144 0.0
H554 H 0.05446 0.81576 0.08908 0.0
H555 H 0.04065 0.79392 0.09197 0.0
H556 H 0.08835 0.79201 0.11335 0.0
H557 H 0.0823 0.83146 0.09633 0.0
H558 H 0.1141 0.81061 0.14442 0.0
H559 H 0.13 0.81924 0.12929 0.0
H560 H 0.11312 0.79793 0.12674 0.0
H561 H 0.09844 0.85915 0.10666 0.0
H562 H 0.11941 0.86436 0.10479 0.0
H563 H 0.111 0.86319 0.12496 0.0
H564 H 0.06206 0.78503 0.21474 0.0
H565 H 0.09097 0.79663 0.22071 0.0
H566 H 0.07925 0.83419 0.23263 0.0
H567 H 0.1185 0.8151 0.19146 0.0
H568 H 0.11645 0.80325 0.20939 0.0
H569 H 0.1326 0.82494 0.20861 0.0
H570 H 0.09552 0.86194 0.22405 0.0
H571 H 0.10685 0.86426 0.20532 0.0
H572 H 0.11711 0.86903 0.22507 0.0
H573 H 0.21121 0.93695 0.24626 0.0
H574 H 0.23357 0.95882 0.22889 0.0
H575 H 0.21813 0.94188 0.21611 0.0
H576 H 0.23743 0.94323 0.21988 0.0
H577 H 0.20456 0.88757 0.229 0.0
H578 H 0.19077 0.92455 0.2275 0.0
H579 H 0.17698 0.8599 0.1992 0.0
H580 H 0.16605 0.85273 0.21815 0.0
H581 H 0.18776 0.86025 0.21771 0.0
H582 H 0.16582 0.91902 0.21605 0.0
H583 H 0.14938 0.89741 0.21613 0.0
H584 H 0.1607 0.90576 0.19759 0.0
H585 H 0.14147 0.85576 0.10996 0.0
H586 H 0.10044 0.82939 0.15166 0.0
H587 H 0.1004 0.83079 0.18129 0.0
H588 H 0.14114 0.8618 0.22401 0.0
H589 H 0.18094 0.89175 0.18214 0.0
H590 H 0.18105 0.89012 0.15244 0.0
H591 H 0.03242 0.7699 0.22152 0.0
H592 H 0.04066 0.79145 0.21668 0.0
H593 H 0.03658 0.78536 0.23787 0.0
C594 C 0.29746 0.10159 0.96116 0.0
C595 C 0.2994 0.09372 0.94499 0.0
C596 C 0.30626 0.11468 0.9238 0.0
C597 C 0.29033 0.11195 0.92186 0.0
C598 C 0.28706 0.12088 0.91041 0.0
C599 C 0.30002 0.13316 0.90102 0.0
C600 C 0.31612 0.13625 0.90321 0.0
C601 C 0.31897 0.12682 0.91443 0.0
C602 C 0.26973 0.11725 0.90846 0.0
C603 C 0.33037 0.14958 0.89378 0.0
C604 C 0.26142 0.21898 0.91729 0.0
C605 C 0.27762 0.22085 0.92321 0.0
C606 C 0.28756 0.20674 0.90489 0.0
C607 C 0.30217 0.2099 0.8976 0.0
C608 C 0.30424 0.19677 0.89201 0.0
C609 C 0.29101 0.18007 0.89304 0.0
C610 C 0.27618 0.17678 0.90047 0.0
C611 C 0.27467 0.19017 0.9065 0.0
C612 C 0.32046 0.20081 0.8847 0.0
C613 C 0.26179 0.15916 0.90175 0.0
C614 C 0.28961 0.18999 0.78261 0.0
C615 C 0.30432 0.19248 0.78911 0.0
C616 C 0.30449 0.18112 0.79987 0.0
C617 C 0.2895 0.16683 0.80423 0.0
C618 C 0.27451 0.16418 0.79774 0.0
C619 C 0.27468 0.17582 0.78703 0.0
C620 C 0.32071 0.18441 0.80664 0.0
C621 C 0.25832 0.14911 0.80225 0.0
C622 C 0.29916 0.05786 0.80415 0.0
C623 C 0.29184 0.06337 0.7907 0.0
C624 C 0.29874 0.09231 0.7967 0.0
C625 C 0.31243 0.10808 0.80043 0.0
C626 C 0.31074 0.12083 0.80797 0.0
C627 C 0.29488 0.11771 0.81171 0.0
C628 C 0.28092 0.10192 0.80759 0.0
C629 C 0.28296 0.0894 0.80002 0.0
C630 C 0.32588 0.13763 0.81192 0.0
C631 C 0.26382 0.09836 0.81108 0.0
C632 C 0.29676 0.14305 0.88923 0.0
C633 C 0.29532 0.15628 0.89572 0.0
C634 C 0.29234 0.16616 0.88539 0.0
C635 C 0.29094 0.16297 0.86805 0.0
C636 C 0.28799 0.17272 0.8573 0.0
C637 C 0.28751 0.17008 0.84022 0.0
C638 C 0.28953 0.15732 0.83322 0.0
C639 C 0.28962 0.15492 0.81586 0.0
C640 C 0.29114 0.1418 0.80928 0.0
C641 C 0.29289 0.13109 0.81962 0.0
C642 C 0.29329 0.13357 0.83704 0.0
C643 C 0.29537 0.12326 0.84781 0.0
C644 C 0.29632 0.1262 0.86492 0.0
C645 C 0.29524 0.13957 0.8719 0.0
C646 C 0.29257 0.14975 0.86128 0.0
C647 C 0.29169 0.1468 0.84384 0.0
C648 C 0.27224 0.18938 0.74872 0.0
C649 C 0.27794 0.20163 0.76375 0.0
O650 O 0.31 0.1061 0.93452 0.0
O651 O 0.30135 0.08058 0.78942 0.0
O652 O 0.29057 0.20155 0.77215 0.0
O653 O 0.2862 0.21999 0.90971 0.0
H654 H 0.28699 0.08612 0.93917 0.0
H655 H 0.2907 0.10805 0.95867 0.0
H656 H 0.30961 0.11098 0.96666 0.0
H657 H 0.29037 0.09179 0.97026 0.0
H658 H 0.28031 0.10293 0.92918 0.0
H659 H 0.33123 0.12898 0.91605 0.0
H660 H 0.26902 0.12792 0.91385 0.0
H661 H 0.26067 0.10575 0.9148 0.0
H662 H 0.26622 0.11582 0.89514 0.0
H663 H 0.34236 0.15175 0.89829 0.0
H664 H 0.33053 0.16154 0.89487 0.0
H665 H 0.32892 0.14579 0.88043 0.0
H666 H 0.27445 0.21047 0.9317 0.0
H667 H 0.25489 0.22067 0.9279 0.0
H668 H 0.25328 0.20629 0.91168 0.0
H669 H 0.26367 0.22817 0.90772 0.0
H670 H 0.31205 0.22275 0.89645 0.0
H671 H 0.26326 0.18765 0.912 0.0
H672 H 0.31918 0.19921 0.871 0.0
H673 H 0.32424 0.19218 0.88921 0.0
H674 H 0.33035 0.21387 0.88782 0.0
H675 H 0.25062 0.15881 0.90641 0.0
H676 H 0.26506 0.15227 0.91033 0.0
H677 H 0.25889 0.15251 0.88944 0.0
H678 H 0.26746 0.19808 0.77221 0.0
H679 H 0.31575 0.20345 0.78566 0.0
H680 H 0.26316 0.17373 0.7822 0.0
H681 H 0.32082 0.18544 0.82039 0.0
H682 H 0.3313 0.19606 0.80195 0.0
H683 H 0.32232 0.17377 0.80316 0.0
H684 H 0.24772 0.14868 0.79602 0.0
H685 H 0.25671 0.14924 0.81587 0.0
H686 H 0.25832 0.13752 0.79877 0.0
H687 H 0.27915 0.05931 0.79452 0.0
H688 H 0.29197 0.04404 0.80499 0.0
H689 H 0.29875 0.06348 0.81635 0.0
H690 H 0.31216 0.06198 0.80153 0.0
H691 H 0.32453 0.11033 0.79755 0.0
H692 H 0.27214 0.07761 0.79642 0.0
H693 H 0.32649 0.14069 0.82541 0.0
H694 H 0.32518 0.14746 0.80528 0.0
H695 H 0.33735 0.13802 0.80836 0.0
H696 H 0.2542 0.08533 0.80744 0.0
H697 H 0.26155 0.10709 0.80424 0.0
H698 H 0.26271 0.10051 0.82451 0.0
H699 H 0.29657 0.15894 0.90899 0.0
H700 H 0.28625 0.18268 0.86193 0.0
H701 H 0.28551 0.17818 0.83256 0.0
H702 H 0.29129 0.1401 0.79593 0.0
H703 H 0.29645 0.1129 0.84313 0.0
H704 H 0.29803 0.11792 0.87259 0.0
H705 H 0.2826 0.19276 0.74016 0.0
H706 H 0.26221 0.18956 0.7419 0.0
H707 H 0.26748 0.17644 0.75269 0.0
C708 C 0.80872 0.07557 0.94995 0.0
C709 C 0.80084 0.08317 0.93971 0.0
C710 C 0.81019 0.0907 0.91179 0.0
C711 C 0.80857 0.10457 0.90954 0.0
C712 C 0.81898 0.11715 0.89881 0.0
C713 C 0.83146 0.11593 0.89047 0.0
C714 C 0.83282 0.10168 0.89247 0.0
C715 C 0.82188 0.08905 0.90287 0.0
C716 C 0.81688 0.13191 0.89672 0.0
C717 C 0.84618 0.10005 0.88415 0.0
C718 C 0.91967 0.22179 0.95362 0.0
C719 C 0.91197 0.2068 0.94234 0.0
C720 C 0.90186 0.19811 0.9143 0.0
C721 C 0.90272 0.1836 0.91294 0.0
C722 C 0.8927 0.17065 0.90152 0.0
C723 C 0.88124 0.17204 0.89162 0.0
C724 C 0.88062 0.18687 0.89275 0.0
C725 C 0.89129 0.19991 0.90381 0.0
C726 C 0.8941 0.15529 0.90037 0.0
C727 C 0.86827 0.18871 0.8828 0.0
C728 C 0.9125 0.19371 0.78632 0.0
C729 C 0.91257 0.17944 0.79077 0.0
C730 C 0.89902 0.16629 0.79851 0.0
C731 C 0.885 0.16742 0.80171 0.0
C732 C 0.88451 0.18146 0.79651 0.0
C733 C 0.89823 0.19442 0.78875 0.0
C734 C 0.89982 0.15135 0.80362 0.0
C735 C 0.86958 0.18285 0.7994 0.0
C736 C 0.76608 0.04593 0.794 0.0
C737 C 0.77461 0.06368 0.78766 0.0
C738 C 0.80419 0.08382 0.78839 0.0
C739 C 0.81913 0.08463 0.79065 0.0
C740 C 0.83301 0.09931 0.79689 0.0
C741 C 0.83186 0.11354 0.8007 0.0
C742 C 0.81716 0.11322 0.79708 0.0
C743 C 0.80344 0.09833 0.79094 0.0
C744 C 0.84861 0.09935 0.80029 0.0
C745 C 0.81572 0.12835 0.8005 0.0
C746 C 0.84386 0.13008 0.8807 0.0
C747 C 0.85617 0.14411 0.88946 0.0
C748 C 0.86896 0.15747 0.88127 0.0
C749 C 0.86974 0.15673 0.86379 0.0
C750 C 0.88291 0.16946 0.85518 0.0
C751 C 0.88342 0.1687 0.83795 0.0
C752 C 0.87078 0.15516 0.82867 0.0
C753 C 0.87114 0.15428 0.81114 0.0
C754 C 0.85831 0.14068 0.8023 0.0
C755 C 0.84512 0.12779 0.81055 0.0
C756 C 0.84463 0.12836 0.82807 0.0
C757 C 0.83161 0.11546 0.83675 0.0
C758 C 0.83127 0.11604 0.85396 0.0
C759 C 0.84394 0.12953 0.86319 0.0
C760 C 0.85703 0.14282 0.85472 0.0
C761 C 0.85747 0.14213 0.83714 0.0
C762 C 0.93936 0.23253 0.76573 0.0
C763 C 0.93156 0.22322 0.7809 0.0
O764 O 0.80105 0.07918 0.92306 0.0
O765 O 0.79077 0.06878 0.7841 0.0
O766 O 0.9263 0.20634 0.77961 0.0
O767 O 0.91061 0.21022 0.92605 0.0
H768 H 0.80856 0.09696 0.9421 0.0
H769 H 0.82182 0.0812 0.94656 0.0
H770 H 0.80247 0.06184 0.94758 0.0
H771 H 0.80818 0.07818 0.96339 0.0
H772 H 0.79927 0.10559 0.91635 0.0
H773 H 0.82294 0.07822 0.90472 0.0
H774 H 0.82702 0.14303 0.90339 0.0
H775 H 0.80503 0.12963 0.90173 0.0
H776 H 0.81751 0.13484 0.88342 0.0
H777 H 0.84679 0.08927 0.88862 0.0
H778 H 0.85831 0.11163 0.88641 0.0
H779 H 0.84389 0.0983 0.87056 0.0
H780 H 0.90051 0.19582 0.94697 0.0
H781 H 0.94186 0.22353 0.9617 0.0
H782 H 0.90968 0.21987 0.96243 0.0
H783 H 0.91949 0.23208 0.94687 0.0
H784 H 0.91117 0.18236 0.92085 0.0
H785 H 0.8908 0.21122 0.90495 0.0
H786 H 0.88358 0.14495 0.90676 0.0
H787 H 0.90563 0.15752 0.90626 0.0
H788 H 0.89367 0.15118 0.88722 0.0
H789 H 0.86786 0.19996 0.88684 0.0
H790 H 0.8558 0.17751 0.88392 0.0
H791 H 0.87154 0.1898 0.86951 0.0
H792 H 0.92303 0.22628 0.78737 0.0
H793 H 0.9235 0.17884 0.78854 0.0
H794 H 0.89766 0.20497 0.78454 0.0
H795 H 0.89896 0.15046 0.81731 0.0
H796 H 0.91136 0.15206 0.79968 0.0
H797 H 0.88921 0.13972 0.79815 0.0
H798 H 0.87093 0.19435 0.79423 0.0
H799 H 0.86739 0.18293 0.81291 0.0
H800 H 0.85858 0.1718 0.79365 0.0
H801 H 0.77404 0.07166 0.79788 0.0
H802 H 0.75309 0.04154 0.797 0.0
H803 H 0.77242 0.04573 0.80545 0.0
H804 H 0.76639 0.03717 0.78458 0.0
H805 H 0.81967 0.07346 0.78827 0.0
H806 H 0.79209 0.098 0.78846 0.0
H807 H 0.85118 0.10087 0.81385 0.0
H808 H 0.85912 0.11011 0.79432 0.0
H809 H 0.84784 0.08764 0.7957 0.0
H810 H 0.80428 0.12681 0.79506 0.0
H811 H 0.82645 0.13963 0.79545 0.0
H812 H 0.8157 0.13052 0.81411 0.0
H813 H 0.85587 0.14459 0.9029 0.0
H814 H 0.893 0.18014 0.86168 0.0
H815 H 0.89385 0.17889 0.832 0.0
H816 H 0.85864 0.14008 0.78888 0.0
H817 H 0.82153 0.10469 0.83035 0.0
H818 H 0.82094 0.10579 0.85995 0.0
H819 H 0.96442 0.24909 0.77307 0.0
H820 H 0.93111 0.23708 0.76153 0.0
H821 H 0.93558 0.2229 0.75525 0.0
C822 C 0.79047 0.70439 0.95189 0.0
C823 C 0.7793 0.69888 0.9364 0.0
C824 C 0.79635 0.69396 0.91667 0.0
C825 C 0.80838 0.71082 0.91443 0.0
C826 C 0.82266 0.71512 0.90552 0.0
C827 C 0.8249 0.70233 0.89868 0.0
C828 C 0.81265 0.68538 0.90061 0.0
C829 C 0.79849 0.68145 0.9095 0.0
C830 C 0.83544 0.73331 0.90351 0.0
C831 C 0.81465 0.67143 0.89347 0.0
C832 C 0.91679 0.72792 0.96957 0.0
C833 C 0.91037 0.71438 0.95571 0.0
C834 C 0.90478 0.71923 0.92784 0.0
C835 C 0.89216 0.70306 0.92307 0.0
C836 C 0.88066 0.70056 0.91075 0.0
C837 C 0.88167 0.71456 0.9033 0.0
C838 C 0.89477 0.73086 0.90772 0.0
C839 C 0.90638 0.73293 0.91973 0.0
C840 C 0.86714 0.68298 0.9061 0.0
C841 C 0.89613 0.74613 0.9003 0.0
C842 C 0.91957 0.72764 0.80085 0.0
C843 C 0.90657 0.71097 0.80158 0.0
C844 C 0.89135 0.70717 0.80808 0.0
C845 C 0.88907 0.7203 0.81376 0.0
C846 C 0.90187 0.73709 0.81224 0.0
C847 C 0.91695 0.74052 0.80575 0.0
C848 C 0.87779 0.68915 0.80924 0.0
C849 C 0.89976 0.7514 0.81789 0.0
C850 C 0.7777 0.71509 0.80155 0.0
C851 C 0.78617 0.71671 0.78494 0.0
C852 C 0.806 0.70836 0.79215 0.0
C853 C 0.80839 0.69483 0.79231 0.0
C854 C 0.82161 0.69584 0.80108 0.0
C855 C 0.83292 0.71093 0.80967 0.0
C856 C 0.83103 0.72494 0.80897 0.0
C857 C 0.81751 0.72347 0.8004 0.0
C858 C 0.82327 0.68067 0.80156 0.0
C859 C 0.84311 0.74139 0.8176 0.0
C860 C 0.84026 0.70661 0.88996 0.0
C861 C 0.85359 0.70904 0.89949 0.0
C862 C 0.8682 0.71221 0.89213 0.0
C863 C 0.86961 0.71299 0.87468 0.0
C864 C 0.88392 0.71569 0.86679 0.0
C865 C 0.88529 0.71677 0.84964 0.0
C866 C 0.87235 0.71511 0.83971 0.0
C867 C 0.87373 0.71651 0.8223 0.0
C868 C 0.86067 0.71489 0.81281 0.0
C869 C 0.84611 0.7118 0.82027 0.0
C870 C 0.84444 0.71018 0.83764 0.0
C871 C 0.82987 0.70683 0.84552 0.0
C872 C 0.82847 0.70565 0.86264 0.0
C873 C 0.84155 0.70772 0.87256 0.0
C874 C 0.85629 0.71093 0.86489 0.0
C875 C 0.85768 0.71204 0.8474 0.0
C876 C 0.95929 0.73205 0.80049 0.0
C877 C 0.94153 0.72191 0.79407 0.0
O878 O 0.78263 0.68912 0.92572 0.0
O879 O 0.79242 0.7062 0.7841 0.0
O880 O 0.93478 0.73195 0.79552 0.0
O881 O 0.91523 0.72194 0.94057 0.0
H882 H 0.78122 0.71006 0.92992 0.0
H883 H 0.80356 0.71226 0.94853 0.0
H884 H 0.78884 0.69332 0.95833 0.0
H885 H 0.78752 0.71189 0.96059 0.0
H886 H 0.80679 0.72067 0.91966 0.0
H887 H 0.7891 0.6685 0.9112 0.0
H888 H 0.84707 0.73623 0.90972 0.0
H889 H 0.83153 0.74178 0.90886 0.0
H890 H 0.83804 0.73585 0.89016 0.0
H891 H 0.80408 0.65889 0.89627 0.0
H892 H 0.82604 0.6726 0.89854 0.0
H893 H 0.8159 0.67241 0.87982 0.0
H894 H 0.89671 0.70733 0.95656 0.0
H895 H 0.91307 0.72215 0.98185 0.0
H896 H 0.91155 0.73601 0.96797 0.0
H897 H 0.9304 0.73589 0.96931 0.0
H898 H 0.89123 0.69244 0.92911 0.0
H899 H 0.91629 0.74535 0.92345 0.0
H900 H 0.86533 0.6813 0.89243 0.0
H901 H 0.85547 0.68065 0.91161 0.0
H902 H 0.86977 0.67351 0.91066 0.0
H903 H 0.90621 0.75793 0.90612 0.0
H904 H 0.8844 0.7459 0.90176 0.0
H905 H 0.89847 0.74611 0.88683 0.0
H906 H 0.93501 0.7109 0.80202 0.0
H907 H 0.90821 0.70089 0.79715 0.0
H908 H 0.92696 0.75334 0.80485 0.0
H909 H 0.87474 0.68617 0.82245 0.0
H910 H 0.88124 0.68038 0.80368 0.0
H911 H 0.86655 0.6871 0.80285 0.0
H912 H 0.91058 0.76375 0.81502 0.0
H913 H 0.89785 0.75099 0.83148 0.0
H914 H 0.8887 0.75015 0.81185 0.0
H915 H 0.7963 0.72987 0.78368 0.0
H916 H 0.77251 0.72335 0.80212 0.0
H917 H 0.78666 0.71888 0.81197 0.0
H918 H 0.76765 0.70197 0.8032 0.0
H919 H 0.79955 0.68326 0.78585 0.0
H920 H 0.81607 0.73419 0.80039 0.0
H921 H 0.82324 0.67726 0.81461 0.0
H922 H 0.83519 0.68361 0.79618 0.0
H923 H 0.81321 0.66973 0.79458 0.0
H924 H 0.84131 0.75168 0.81393 0.0
H925 H 0.8559 0.74485 0.81478 0.0
H926 H 0.8416 0.74014 0.83122 0.0
H927 H 0.85251 0.70828 0.91287 0.0
H928 H 0.89426 0.71706 0.87379 0.0
H929 H 0.89666 0.71898 0.84427 0.0
H930 H 0.86193 0.71625 0.79951 0.0
H931 H 0.81938 0.70511 0.83855 0.0
H932 H 0.81701 0.70316 0.86802 0.0
H933 H 0.96663 0.7432 0.79291 0.0
H934 H 0.96504 0.72431 0.80012 0.0
H935 H 0.95956 0.73634 0.81355 0.0
C936 C 0.8775 0.62739 0.38051 0.0
C937 C 0.88609 0.64115 0.39403 0.0
C938 C 0.87276 0.63399 0.42045 0.0
C939 C 0.87478 0.64905 0.42678 0.0
C940 C 0.86303 0.64913 0.43727 0.0
C941 C 0.84884 0.63379 0.44126 0.0
C942 C 0.84704 0.61853 0.43521 0.0
C943 C 0.85922 0.61884 0.42507 0.0
C944 C 0.86557 0.66564 0.44371 0.0
C945 C 0.83201 0.60197 0.439 0.0
C946 C 0.76588 0.63908 0.38548 0.0
C947 C 0.76058 0.64489 0.40101 0.0
C948 C 0.7826 0.65041 0.42094 0.0
C949 C 0.77776 0.63363 0.42322 0.0
C950 C 0.78735 0.62958 0.43292 0.0
C951 C 0.80199 0.64252 0.44057 0.0
C952 C 0.80672 0.65939 0.43856 0.0
C953 C 0.79693 0.66309 0.42878 0.0
C954 C 0.78193 0.61146 0.43493 0.0
C955 C 0.82219 0.6735 0.44665 0.0
C956 C 0.77415 0.64251 0.5469 0.0
C957 C 0.76844 0.6261 0.54083 0.0
C958 C 0.77901 0.62213 0.53239 0.0
C959 C 0.79549 0.63482 0.52979 0.0
C960 C 0.80129 0.65126 0.53607 0.0
C961 C 0.79056 0.65482 0.54467 0.0
C962 C 0.77254 0.60442 0.52605 0.0
C963 C 0.81876 0.66515 0.53345 0.0
C964 C 0.89302 0.60601 0.53784 0.0
C965 C 0.88855 0.61723 0.54783 0.0
C966 C 0.86112 0.61304 0.54421 0.0
C967 C 0.84543 0.60034 0.53909 0.0
C968 C 0.8344 0.60407 0.53177 0.0
C969 C 0.83918 0.62096 0.5298 0.0
C970 C 0.85466 0.63389 0.53597 0.0
C971 C 0.86547 0.62979 0.54318 0.0
C972 C 0.81787 0.58999 0.52561 0.0
C973 C 0.85992 0.65202 0.53451 0.0
C974 C 0.83549 0.63387 0.45081 0.0
C975 C 0.82477 0.63716 0.44224 0.0
C976 C 0.81251 0.63845 0.45047 0.0
C977 C 0.81075 0.63636 0.46776 0.0
C978 C 0.79877 0.63793 0.47648 0.0
C979 C 0.79738 0.63625 0.49356 0.0
C980 C 0.80776 0.63267 0.50257 0.0
C981 C 0.80661 0.63118 0.51999 0.0
C982 C 0.81685 0.6272 0.5285 0.0
C983 C 0.82857 0.62507 0.52012 0.0
C984 C 0.83028 0.62708 0.50279 0.0
C985 C 0.84238 0.62568 0.49408 0.0
C986 C 0.8442 0.62801 0.47709 0.0
C987 C 0.83375 0.63148 0.46808 0.0
C988 C 0.82136 0.63277 0.47658 0.0
C989 C 0.81974 0.63075 0.49398 0.0
C990 C 0.73991 0.63825 0.53891 0.0
C991 C 0.74741 0.63831 0.55572 0.0
O992 O 0.88346 0.63394 0.40935 0.0
O993 O 0.87169 0.60866 0.55007 0.0
O994 O 0.76441 0.64714 0.55487 0.0
O995 O 0.77405 0.65504 0.41124 0.0
H996 H 0.88044 0.64902 0.3935 0.0
H997 H 0.86405 0.62026 0.38262 0.0
H998 H 0.88198 0.61853 0.38064 0.0
H999 H 0.87969 0.63293 0.36811 0.0
H1000 H 0.88546 0.66072 0.4233 0.0
H1001 H 0.85786 0.60728 0.4201 0.0
H1002 H 0.85688 0.66821 0.43724 0.0
H1003 H 0.87827 0.67615 0.44165 0.0
H1004 H 0.86299 0.66517 0.45718 0.0
H1005 H 0.83208 0.59128 0.43266 0.0
H1006 H 0.82077 0.60185 0.43511 0.0
H1007 H 0.83132 0.60017 0.45256 0.0
H1008 H 0.75142 0.63383 0.40786 0.0
H1009 H 0.7551 0.6312 0.37717 0.0
H1010 H 0.77128 0.63151 0.38885 0.0
H1011 H 0.7752 0.65 0.37859 0.0
H1012 H 0.7666 0.62362 0.41744 0.0
H1013 H 0.80053 0.67598 0.42704 0.0
H1014 H 0.79147 0.60907 0.43002 0.0
H1015 H 0.7701 0.60282 0.42839 0.0
H1016 H 0.78056 0.60863 0.4483 0.0
H1017 H 0.82404 0.68595 0.44407 0.0
H1018 H 0.83297 0.67303 0.44209 0.0
H1019 H 0.82172 0.67205 0.46027 0.0
H1020 H 0.74294 0.62525 0.55919 0.0
H1021 H 0.75582 0.61635 0.54256 0.0
H1022 H 0.79487 0.66741 0.54943 0.0
H1023 H 0.7731 0.60412 0.51232 0.0
H1024 H 0.75966 0.59578 0.52978 0.0
H1025 H 0.78038 0.59984 0.53082 0.0
H1026 H 0.82133 0.6773 0.53902 0.0
H1027 H 0.82125 0.6666 0.51997 0.0
H1028 H 0.82737 0.66191 0.53902 0.0
H1029 H 0.89262 0.6285 0.54039 0.0
H1030 H 0.9065 0.61258 0.53598 0.0
H1031 H 0.88684 0.60282 0.52548 0.0
H1032 H 0.88903 0.59421 0.54427 0.0
H1033 H 0.84207 0.58744 0.54028 0.0
H1034 H 0.8773 0.63968 0.54792 0.0
H1035 H 0.81709 0.59034 0.51192 0.0
H1036 H 0.80797 0.5916 0.53094 0.0
H1037 H 0.81565 0.57755 0.52887 0.0
H1038 H 0.87196 0.66058 0.54071 0.0
H1039 H 0.85054 0.65431 0.54008 0.0
H1040 H 0.86082 0.65506 0.52122 0.0
H1041 H 0.82617 0.63902 0.429 0.0
H1042 H 0.79041 0.64063 0.4702 0.0
H1043 H 0.78802 0.63774 0.49961 0.0
H1044 H 0.81588 0.62602 0.54184 0.0
H1045 H 0.85072 0.62293 0.50031 0.0
H1046 H 0.85385 0.62699 0.4711 0.0
H1047 H 0.72628 0.63105 0.53943 0.0
H1048 H 0.74358 0.63226 0.52913 0.0
H1049 H 0.74413 0.65123 0.53538 0.0
C1050 C 0.3749 0.24939 0.39476 0.0
C1051 C 0.36454 0.2497 0.40915 0.0
C1052 C 0.37226 0.24088 0.43396 0.0
C1053 C 0.35716 0.22694 0.43817 0.0
C1054 C 0.35657 0.21489 0.44854 0.0
C1055 C 0.37137 0.21689 0.45482 0.0
C1056 C 0.38658 0.23116 0.45091 0.0
C1057 C 0.38679 0.24311 0.44069 0.0
C1058 C 0.34014 0.19999 0.45277 0.0
C1059 C 0.4026 0.23365 0.45734 0.0
C1060 C 0.39139 0.13431 0.40697 0.0
C1061 C 0.38402 0.12423 0.42257 0.0
C1062 C 0.3712 0.13817 0.43695 0.0
C1063 C 0.38592 0.15271 0.4421 0.0
C1064 C 0.3857 0.16552 0.4514 0.0
C1065 C 0.37048 0.1638 0.45566 0.0
C1066 C 0.35565 0.14923 0.4505 0.0
C1067 C 0.35623 0.13661 0.44121 0.0
C1068 C 0.40174 0.18098 0.45662 0.0
C1069 C 0.33923 0.14705 0.45481 0.0
C1070 C 0.37178 0.1413 0.56136 0.0
C1071 C 0.38654 0.15455 0.55532 0.0
C1072 C 0.38686 0.1679 0.54751 0.0
C1073 C 0.37209 0.1679 0.54545 0.0
C1074 C 0.35732 0.15484 0.5519 0.0
C1075 C 0.3574 0.14177 0.55989 0.0
C1076 C 0.40291 0.18182 0.54108 0.0
C1077 C 0.34137 0.15447 0.54995 0.0
C1078 C 0.38601 0.29024 0.55363 0.0
C1079 C 0.37338 0.27432 0.56212 0.0
C1080 C 0.37871 0.25147 0.56047 0.0
C1081 C 0.3924 0.24994 0.55794 0.0
C1082 C 0.39083 0.2356 0.54999 0.0
C1083 C 0.37509 0.22235 0.54484 0.0
C1084 C 0.36106 0.22344 0.54826 0.0
C1085 C 0.36303 0.23804 0.55602 0.0
C1086 C 0.40603 0.23479 0.54671 0.0
C1087 C 0.34405 0.2093 0.54347 0.0
C1088 C 0.37097 0.20377 0.465 0.0
C1089 C 0.37041 0.19015 0.45668 0.0
C1090 C 0.37015 0.17736 0.46537 0.0
C1091 C 0.37025 0.17798 0.48289 0.0
C1092 C 0.36974 0.16517 0.49201 0.0
C1093 C 0.37007 0.166 0.50924 0.0
C1094 C 0.37114 0.17978 0.51805 0.0
C1095 C 0.37195 0.18094 0.53557 0.0
C1096 C 0.37303 0.19481 0.54394 0.0
C1097 C 0.37339 0.2077 0.53525 0.0
C1098 C 0.37259 0.20674 0.5177 0.0
C1099 C 0.37295 0.21947 0.50854 0.0
C1100 C 0.37222 0.21845 0.4913 0.0
C1101 C 0.37136 0.20478 0.48253 0.0
C1102 C 0.37099 0.19181 0.4915 0.0
C1103 C 0.37151 0.19275 0.5091 0.0
C1104 C 0.38407 0.11665 0.55185 0.0
C1105 C 0.38268 0.1235 0.5689 0.0
O1106 O 0.37324 0.25268 0.42389 0.0
O1107 O 0.381 0.26597 0.56737 0.0
O1108 O 0.37074 0.12778 0.56848 0.0
O1109 O 0.37079 0.12546 0.42782 0.0
H1110 H 0.35287 0.23739 0.40905 0.0
H1111 H 0.37764 0.23934 0.39642 0.0
H1112 H 0.38669 0.26153 0.39424 0.0
H1113 H 0.36813 0.24686 0.38279 0.0
H1114 H 0.34582 0.22557 0.43363 0.0
H1115 H 0.39835 0.25408 0.43756 0.0
H1116 H 0.33924 0.1884 0.44758 0.0
H1117 H 0.3297 0.2008 0.44781 0.0
H1118 H 0.33902 0.19891 0.46644 0.0
H1119 H 0.41341 0.24515 0.45269 0.0
H1120 H 0.40365 0.22273 0.45356 0.0
H1121 H 0.40287 0.23451 0.47109 0.0
H1122 H 0.39361 0.12912 0.43253 0.0
H1123 H 0.4018 0.13305 0.4026 0.0
H1124 H 0.39611 0.14776 0.40963 0.0
H1125 H 0.38199 0.12988 0.39688 0.0
H1126 H 0.39766 0.15427 0.43889 0.0
H1127 H 0.34493 0.1254 0.43718 0.0
H1128 H 0.40245 0.19215 0.45135 0.0
H1129 H 0.41256 0.18035 0.4525 0.0
H1130 H 0.40233 0.18269 0.47033 0.0
H1131 H 0.3288 0.13497 0.44988 0.0
H1132 H 0.33827 0.15741 0.44973 0.0
H1133 H 0.3382 0.14767 0.46849 0.0
H1134 H 0.39473 0.13468 0.57251 0.0
H1135 H 0.39787 0.15458 0.55643 0.0
H1136 H 0.3461 0.13159 0.56467 0.0
H1137 H 0.40259 0.18113 0.52733 0.0
H1138 H 0.41358 0.18111 0.54544 0.0
H1139 H 0.40474 0.19416 0.54508 0.0
H1140 H 0.33089 0.14335 0.55553 0.0
H1141 H 0.33862 0.15444 0.53658 0.0
H1142 H 0.34254 0.16591 0.55591 0.0
H1143 H 0.3636 0.26662 0.55269 0.0
H1144 H 0.38018 0.29717 0.54936 0.0
H1145 H 0.39096 0.28692 0.54265 0.0
H1146 H 0.39639 0.2985 0.56222 0.0
H1147 H 0.40441 0.26027 0.56172 0.0
H1148 H 0.35233 0.23893 0.55864 0.0
H1149 H 0.40697 0.23275 0.53323 0.0
H1150 H 0.40513 0.22402 0.5531 0.0
H1151 H 0.41743 0.24636 0.55105 0.0
H1152 H 0.33433 0.21138 0.54846 0.0
H1153 H 0.34208 0.19735 0.54807 0.0
H1154 H 0.34278 0.208 0.52976 0.0
H1155 H 0.37036 0.18959 0.44322 0.0
H1156 H 0.36905 0.15434 0.48591 0.0
H1157 H 0.36958 0.15573 0.51557 0.0
H1158 H 0.37377 0.19568 0.55738 0.0
H1159 H 0.37379 0.23039 0.5146 0.0
H1160 H 0.37248 0.22858 0.48492 0.0
H1161 H 0.37206 0.10564 0.54783 0.0
H1162 H 0.3934 0.11291 0.5523 0.0
H1163 H 0.38793 0.12634 0.54244 0.0
C1164 C 0.90212 0.25561 0.44176 0.0
C1165 C 0.89606 0.24729 0.42448 0.0
C1166 C 0.86606 0.23339 0.4268 0.0
C1167 C 0.85374 0.23723 0.42845 0.0
C1168 C 0.83853 0.22594 0.43537 0.0
C1169 C 0.83549 0.21026 0.44042 0.0
C1170 C 0.8475 0.20585 0.43779 0.0
C1171 C 0.86269 0.21748 0.43113 0.0
C1172 C 0.82594 0.23099 0.43784 0.0
C1173 C 0.84447 0.189 0.4425 0.0
C1174 C 0.73075 0.1328 0.379 0.0
C1175 C 0.73658 0.127 0.39356 0.0
C1176 C 0.74935 0.14475 0.41834 0.0
C1177 C 0.76104 0.1403 0.42168 0.0
C1178 C 0.77475 0.15061 0.43192 0.0
C1179 C 0.77678 0.16564 0.43894 0.0
C1180 C 0.76476 0.1699 0.43596 0.0
C1181 C 0.75106 0.15924 0.42584 0.0
C1182 C 0.78714 0.14552 0.43518 0.0
C1183 C 0.76654 0.18581 0.44325 0.0
C1184 C 0.74944 0.13817 0.54397 0.0
C1185 C 0.76003 0.13341 0.53703 0.0
C1186 C 0.77461 0.14515 0.52942 0.0
C1187 C 0.77859 0.16193 0.52862 0.0
C1188 C 0.7683 0.16689 0.53628 0.0
C1189 C 0.75392 0.15494 0.54404 0.0
C1190 C 0.78563 0.13956 0.52195 0.0
C1191 C 0.77228 0.18472 0.53586 0.0
C1192 C 0.9007 0.26324 0.53084 0.0
C1193 C 0.89451 0.25596 0.54793 0.0
C1194 C 0.86955 0.22858 0.5417 0.0
C1195 C 0.86372 0.21157 0.53911 0.0
C1196 C 0.84782 0.20055 0.53283 0.0
C1197 C 0.83739 0.2067 0.52934 0.0
C1198 C 0.84278 0.22368 0.533 0.0
C1199 C 0.85888 0.23452 0.53888 0.0
C1200 C 0.84245 0.18249 0.52916 0.0
C1201 C 0.83179 0.23055 0.52986 0.0
C1202 C 0.82045 0.19908 0.44978 0.0
C1203 C 0.80591 0.18833 0.44097 0.0
C1204 C 0.79161 0.17702 0.44918 0.0
C1205 C 0.79174 0.17638 0.46667 0.0
C1206 C 0.77762 0.16512 0.47532 0.0
C1207 C 0.77797 0.16448 0.49252 0.0
C1208 C 0.79249 0.17493 0.50173 0.0
C1209 C 0.79311 0.17409 0.51919 0.0
C1210 C 0.80779 0.18468 0.52792 0.0
C1211 C 0.82196 0.19609 0.51966 0.0
C1212 C 0.82157 0.19708 0.50224 0.0
C1213 C 0.83565 0.2084 0.49358 0.0
C1214 C 0.83522 0.20928 0.47648 0.0
C1215 C 0.82079 0.19865 0.46726 0.0
C1216 C 0.80642 0.1872 0.47572 0.0
C1217 C 0.8068 0.18645 0.49325 0.0
C1218 C 0.7073 0.10744 0.54182 0.0
C1219 C 0.72459 0.11059 0.54464 0.0
O1220 O 0.88088 0.24533 0.42099 0.0
O1221 O 0.88553 0.23867 0.54658 0.0
O1222 O 0.7348 0.1269 0.55055 0.0
O1223 O 0.73633 0.13537 0.40795 0.0
H1224 H 0.89523 0.23503 0.42477 0.0
H1225 H 0.89404 0.24699 0.45134 0.0
H1226 H 0.90176 0.26728 0.44302 0.0
H1227 H 0.91482 0.25845 0.44416 0.0
H1228 H 0.8563 0.2494 0.42482 0.0
H1229 H 0.87171 0.21388 0.42932 0.0
H1230 H 0.81437 0.22186 0.43118 0.0
H1231 H 0.8302 0.24367 0.4333 0.0
H1232 H 0.8231 0.2308 0.45121 0.0
H1233 H 0.8538 0.18644 0.43728 0.0
H1234 H 0.8321 0.17891 0.43813 0.0
H1235 H 0.84488 0.18856 0.45621 0.0
H1236 H 0.74936 0.13033 0.39066 0.0
H1237 H 0.73083 0.12625 0.3673 0.0
H1238 H 0.73913 0.14645 0.37761 0.0
H1239 H 0.71814 0.13031 0.38106 0.0
H1240 H 0.75942 0.12876 0.41636 0.0
H1241 H 0.74185 0.16243 0.42334 0.0
H1242 H 0.79913 0.15477 0.42989 0.0
H1243 H 0.78327 0.13295 0.42967 0.0
H1244 H 0.78903 0.14546 0.44874 0.0
H1245 H 0.75641 0.18761 0.43927 0.0
H1246 H 0.77841 0.19671 0.43949 0.0
H1247 H 0.76669 0.18559 0.45699 0.0
H1248 H 0.72864 0.10865 0.53223 0.0
H1249 H 0.75692 0.12055 0.53753 0.0
H1250 H 0.74579 0.15852 0.54968 0.0
H1251 H 0.7854 0.14015 0.50825 0.0
H1252 H 0.78176 0.12658 0.52516 0.0
H1253 H 0.7985 0.14807 0.52628 0.0
H1254 H 0.76283 0.1865 0.54208 0.0
H1255 H 0.77329 0.1885 0.52281 0.0
H1256 H 0.78434 0.19315 0.54207 0.0
H1257 H 0.88679 0.26089 0.55262 0.0
H1258 H 0.90894 0.27704 0.53198 0.0
H1259 H 0.89013 0.26047 0.52271 0.0
H1260 H 0.9073 0.25761 0.52478 0.0
H1261 H 0.87194 0.20705 0.54147 0.0
H1262 H 0.86297 0.24758 0.54087 0.0
H1263 H 0.83979 0.17954 0.51569 0.0
H1264 H 0.83094 0.17424 0.53582 0.0
H1265 H 0.85191 0.17959 0.53287 0.0
H1266 H 0.83653 0.24301 0.53611 0.0
H1267 H 0.81918 0.22185 0.53425 0.0
H1268 H 0.83098 0.23185 0.51634 0.0
H1269 H 0.80577 0.18861 0.42755 0.0
H1270 H 0.76615 0.15666 0.46888 0.0
H1271 H 0.76671 0.15559 0.49848 0.0
H1272 H 0.80823 0.18392 0.54128 0.0
H1273 H 0.84724 0.21675 0.49987 0.0
H1274 H 0.84644 0.21835 0.47059 0.0
H1275 H 0.6988 0.09428 0.5375 0.0
H1276 H 0.70761 0.11579 0.53216 0.0
H1277 H 0.70247 0.11004 0.55335 0.0
C1278 C 0.0279 0.4417 0.23663 0.0
C1279 C 0.01811 0.43951 0.25248 0.0
C1280 C 0.0014 0.45135 0.24404 0.0
C1281 C 0.98574 0.44716 0.23864 0.0
C1282 C 0.98282 0.45924 0.23244 0.0
C1283 C 0.99596 0.47598 0.23159 0.0
C1284 C 0.0117 0.4805 0.23771 0.0
C1285 C 0.01425 0.46816 0.24397 0.0
C1286 C 0.96582 0.45402 0.22626 0.0
C1287 C 0.02592 0.49828 0.23713 0.0
C1288 C 0.95937 0.54264 0.2969 0.0
C1289 C 0.97393 0.55012 0.28511 0.0
C1290 C 0.97311 0.53802 0.25781 0.0
C1291 C 0.98966 0.54273 0.25656 0.0
C1292 C 0.99444 0.53411 0.2456 0.0
C1293 C 0.98236 0.52037 0.23584 0.0
C1294 C 0.96569 0.51583 0.23685 0.0
C1295 C 0.96135 0.52497 0.24762 0.0
C1296 C 0.01236 0.53955 0.24458 0.0
C1297 C 0.95241 0.50111 0.22686 0.0
C1298 C 0.98362 0.55155 0.13098 0.0
C1299 C 0.99938 0.55616 0.13681 0.0
C1300 C 0.00213 0.54455 0.1445 0.0
C1301 C 0.98888 0.52804 0.14643 0.0
C1302 C 0.97312 0.52323 0.14016 0.0
C1303 C 0.97075 0.53504 0.13235 0.0
C1304 C 0.0192 0.54992 0.1506 0.0
C1305 C 0.95874 0.50568 0.14187 0.0
C1306 C 0.00357 0.42607 0.14348 0.0
C1307 C 0.99703 0.42698 0.12646 0.0
C1308 C 0.00249 0.45557 0.12755 0.0
C1309 C 0.016 0.47177 0.12983 0.0
C1310 C 0.01429 0.48449 0.13745 0.0
C1311 C 0.99859 0.48087 0.14259 0.0
C1312 C 0.98469 0.46483 0.13916 0.0
C1313 C 0.98678 0.45233 0.13168 0.0
C1314 C 0.02931 0.50154 0.14074 0.0
C1315 C 0.96768 0.46072 0.14397 0.0
C1316 C 0.99356 0.48841 0.22303 0.0
C1317 C 0.98961 0.4986 0.23248 0.0
C1318 C 0.98708 0.51041 0.22503 0.0
C1319 C 0.98861 0.51222 0.20766 0.0
C1320 C 0.98645 0.52416 0.19977 0.0
C1321 C 0.98746 0.52544 0.18262 0.0
C1322 C 0.99076 0.51491 0.17269 0.0
C1323 C 0.99148 0.51586 0.1552 0.0
C1324 C 0.99442 0.50492 0.1457 0.0
C1325 C 0.99685 0.4931 0.15322 0.0
C1326 C 0.9966 0.49227 0.17069 0.0
C1327 C 0.9994 0.48078 0.17863 0.0
C1328 C 0.99863 0.47965 0.19576 0.0
C1329 C 0.99489 0.48987 0.20564 0.0
C1330 C 0.99233 0.50176 0.19793 0.0
C1331 C 0.99332 0.50304 0.18043 0.0
C1332 C 0.97855 0.58171 0.14229 0.0
C1333 C 0.98748 0.57935 0.12761 0.0
O1334 O 0.00349 0.43876 0.24888 0.0
O1335 O 0.0051 0.4434 0.1215 0.0
O1336 O 0.9804 0.56245 0.1236 0.0
O1337 O 0.96813 0.54564 0.26891 0.0
H1338 H 0.02559 0.4502 0.26133 0.0
H1339 H 0.03155 0.45375 0.23094 0.0
H1340 H 0.02046 0.43144 0.22738 0.0
H1341 H 0.0393 0.44168 0.23955 0.0
H1342 H 0.97585 0.43422 0.23892 0.0
H1343 H 0.02637 0.47175 0.24847 0.0
H1344 H 0.96193 0.46244 0.23178 0.0
H1345 H 0.95661 0.44093 0.22925 0.0
H1346 H 0.96598 0.45515 0.2126 0.0
H1347 H 0.03734 0.49989 0.24271 0.0
H1348 H 0.02277 0.50677 0.24384 0.0
H1349 H 0.02833 0.50213 0.22406 0.0
H1350 H 0.98134 0.54447 0.28844 0.0
H1351 H 0.96373 0.5466 0.30994 0.0
H1352 H 0.95284 0.52877 0.29585 0.0
H1353 H 0.95049 0.54652 0.29383 0.0
H1354 H 0.99885 0.55315 0.26414 0.0
H1355 H 0.94862 0.52154 0.2486 0.0
H1356 H 0.01426 0.52991 0.25001 0.0
H1357 H 0.0204 0.55166 0.25136 0.0
H1358 H 0.01616 0.54073 0.23143 0.0
H1359 H 0.93991 0.49811 0.23043 0.0
H1360 H 0.95337 0.4899 0.22852 0.0
H1361 H 0.954 0.5039 0.2135 0.0
H1362 H 0.00055 0.58502 0.13135 0.0
H1363 H 0.00968 0.56863 0.13513 0.0
H1364 H 0.95871 0.53151 0.12757 0.0
H1365 H 0.01921 0.54911 0.16429 0.0
H1366 H 0.0284 0.56292 0.14729 0.0
H1367 H 0.023 0.54136 0.14527 0.0
H1368 H 0.94711 0.50412 0.13697 0.0
H1369 H 0.95712 0.50239 0.15512 0.0
H1370 H 0.96123 0.49674 0.13506 0.0
H1371 H 0.98367 0.42199 0.1276 0.0
H1372 H 0.99754 0.41288 0.14724 0.0
H1373 H 0.00086 0.43317 0.15293 0.0
H1374 H 0.01707 0.43151 0.14325 0.0
H1375 H 0.02804 0.47425 0.12629 0.0
H1376 H 0.97607 0.44011 0.12917 0.0
H1377 H 0.03136 0.50407 0.15432 0.0
H1378 H 0.02735 0.51127 0.13564 0.0
H1379 H 0.04051 0.50263 0.13519 0.0
H1380 H 0.95797 0.44836 0.13874 0.0
H1381 H 0.96535 0.47047 0.13967 0.0
H1382 H 0.96676 0.46056 0.15769 0.0
H1383 H 0.98837 0.49723 0.24579 0.0
H1384 H 0.98385 0.53258 0.20677 0.0
H1385 H 0.9855 0.53474 0.17723 0.0
H1386 H 0.99461 0.50546 0.13229 0.0
H1387 H 0.0022 0.47247 0.17171 0.0
H1388 H 0.00087 0.47054 0.20112 0.0
H1389 H 0.98387 0.59523 0.14534 0.0
H1390 H 0.97997 0.57578 0.15335 0.0
H1391 H 0.96524 0.57587 0.13944 0.0
C1392 C 0.44777 0.38709 0.25636 0.0
C1393 C 0.44794 0.40235 0.26429 0.0
C1394 C 0.46156 0.42522 0.24482 0.0
C1395 C 0.45925 0.43622 0.23557 0.0
C1396 C 0.47231 0.44928 0.22725 0.0
C1397 C 0.48798 0.45099 0.22773 0.0
C1398 C 0.4905 0.44007 0.23728 0.0
C1399 C 0.47731 0.42741 0.24589 0.0
C1400 C 0.46924 0.46105 0.21771 0.0
C1401 C 0.50705 0.44155 0.23809 0.0
C1402 C 0.57793 0.54418 0.27869 0.0
C1403 C 0.58482 0.5534 0.26254 0.0
C1404 C 0.56162 0.53586 0.24321 0.0
C1405 C 0.56382 0.52212 0.24193 0.0
C1406 C 0.55243 0.50743 0.2331 0.0
C1407 C 0.53862 0.50651 0.22542 0.0
C1408 C 0.53645 0.52036 0.22662 0.0
C1409 C 0.54807 0.53489 0.23542 0.0
C1410 C 0.55508 0.49286 0.23199 0.0
C1411 C 0.52179 0.51975 0.2187 0.0
C1412 C 0.56455 0.52062 0.11696 0.0
C1413 C 0.5655 0.5068 0.12119 0.0
C1414 C 0.55341 0.49432 0.13092 0.0
C1415 C 0.53979 0.49551 0.13603 0.0
C1416 C 0.53847 0.50919 0.13122 0.0
C1417 C 0.55096 0.5217 0.12181 0.0
C1418 C 0.55528 0.47999 0.13594 0.0
C1419 C 0.52387 0.51059 0.13602 0.0
C1420 C 0.4255 0.36905 0.13482 0.0
C1421 C 0.4335 0.38674 0.12838 0.0
C1422 C 0.46271 0.40823 0.12856 0.0
C1423 C 0.47824 0.41039 0.13089 0.0
C1424 C 0.49164 0.42592 0.13623 0.0
C1425 C 0.4894 0.43961 0.13905 0.0
C1426 C 0.47402 0.43783 0.13541 0.0
C1427 C 0.4608 0.42213 0.13019 0.0
C1428 C 0.50794 0.42747 0.13972 0.0
C1429 C 0.47137 0.45232 0.13782 0.0
C1430 C 0.50145 0.46361 0.21753 0.0
C1431 C 0.51362 0.47845 0.22535 0.0
C1432 C 0.52632 0.491 0.2163 0.0
C1433 C 0.52686 0.48887 0.19893 0.0
C1434 C 0.53938 0.50131 0.18942 0.0
C1435 C 0.53955 0.49922 0.17228 0.0
C1436 C 0.5272 0.48463 0.16397 0.0
C1437 C 0.52703 0.4825 0.14651 0.0
C1438 C 0.5146 0.46778 0.13869 0.0
C1439 C 0.50234 0.45498 0.14788 0.0
C1440 C 0.50234 0.45685 0.16533 0.0
C1441 C 0.49026 0.44411 0.17494 0.0
C1442 C 0.49009 0.44619 0.19203 0.0
C1443 C 0.50193 0.46114 0.20022 0.0
C1444 C 0.51453 0.47392 0.19086 0.0
C1445 C 0.51471 0.4718 0.17338 0.0
C1446 C 0.59349 0.56041 0.09808 0.0
C1447 C 0.58498 0.54945 0.1121 0.0
O1448 O 0.4482 0.41257 0.25212 0.0
O1449 O 0.44986 0.39253 0.12513 0.0
O1450 O 0.57666 0.53253 0.10784 0.0
O1451 O 0.57209 0.55024 0.25182 0.0
H1452 H 0.45913 0.40922 0.27236 0.0
H1453 H 0.4597 0.39093 0.25049 0.0
H1454 H 0.43809 0.38096 0.24655 0.0
H1455 H 0.4457 0.37795 0.26593 0.0
H1456 H 0.4471 0.43452 0.2349 0.0
H1457 H 0.47939 0.41911 0.25309 0.0
H1458 H 0.47931 0.47419 0.22008 0.0
H1459 H 0.45738 0.45995 0.22102 0.0
H1460 H 0.46892 0.45814 0.20424 0.0
H1461 H 0.50671 0.43129 0.24501 0.0
H1462 H 0.51609 0.45365 0.2443 0.0
H1463 H 0.51149 0.44141 0.22537 0.0
H1464 H 0.59276 0.5493 0.25654 0.0
H1465 H 0.56996 0.5482 0.28477 0.0
H1466 H 0.58809 0.54681 0.28737 0.0
H1467 H 0.57053 0.53048 0.27621 0.0
H1468 H 0.57433 0.52271 0.24778 0.0
H1469 H 0.54652 0.54558 0.23645 0.0
H1470 H 0.54482 0.482 0.23811 0.0
H1471 H 0.56682 0.49581 0.23796 0.0
H1472 H 0.55505 0.4891 0.2188 0.0
H1473 H 0.52154 0.53134 0.22138 0.0
H1474 H 0.51028 0.50893 0.22324 0.0
H1475 H 0.52202 0.51796 0.20507 0.0
H1476 H 0.57816 0.55345 0.12044 0.0
H1477 H 0.57599 0.50605 0.11718 0.0
H1478 H 0.55002 0.53219 0.11803 0.0
H1479 H 0.55466 0.47907 0.14963 0.0
H1480 H 0.56706 0.4814 0.13177 0.0
H1481 H 0.54501 0.46808 0.13053 0.0
H1482 H 0.52407 0.52131 0.13026 0.0
H1483 H 0.52374 0.51217 0.1497 0.0
H1484 H 0.51231 0.49891 0.13225 0.0
H1485 H 0.43243 0.3945 0.13851 0.0
H1486 H 0.41232 0.36411 0.13742 0.0
H1487 H 0.43172 0.36925 0.14652 0.0
H1488 H 0.42649 0.3605 0.12565 0.0
H1489 H 0.47965 0.39966 0.12925 0.0
H1490 H 0.44898 0.42074 0.12771 0.0
H1491 H 0.5109 0.4301 0.15318 0.0
H1492 H 0.51781 0.43814 0.13301 0.0
H1493 H 0.50796 0.41595 0.13598 0.0
H1494 H 0.45942 0.44952 0.13251 0.0
H1495 H 0.48141 0.46359 0.13198 0.0
H1496 H 0.47166 0.45534 0.15128 0.0
H1497 H 0.51313 0.48032 0.23863 0.0
H1498 H 0.54914 0.51284 0.19512 0.0
H1499 H 0.54944 0.50925 0.1656 0.0
H1500 H 0.51449 0.46624 0.1253 0.0
H1501 H 0.48073 0.43237 0.16937 0.0
H1502 H 0.48048 0.43594 0.19873 0.0
H1503 H 0.61896 0.57147 0.10417 0.0
H1504 H 0.58746 0.56799 0.09672 0.0
H1505 H 0.58774 0.55261 0.08636 0.0
C1506 C 0.45322 0.00553 0.29156 0.0
C1507 C 0.4404 0.00057 0.27762 0.0
C1508 C 0.45228 0.99161 0.25537 0.0
C1509 C 0.46545 0.00766 0.25188 0.0
C1510 C 0.47771 0.00974 0.24079 0.0
C1511 C 0.47672 0.99554 0.23286 0.0
C1512 C 0.46324 0.97943 0.23592 0.0
C1513 C 0.45119 0.9777 0.24713 0.0
C1514 C 0.49191 0.02711 0.23773 0.0
C1515 C 0.46174 0.96403 0.22756 0.0
C1516 C 0.59225 0.01011 0.233 0.0
C1517 C 0.58422 0.00517 0.25001 0.0
C1518 C 0.55535 0.99487 0.24232 0.0
C1519 C 0.54043 0.98038 0.2381 0.0
C1520 C 0.52738 0.98121 0.23116 0.0
C1521 C 0.52925 0.99699 0.22863 0.0
C1522 C 0.54408 0.01173 0.23351 0.0
C1523 C 0.55703 0.01055 0.2402 0.0
C1524 C 0.51174 0.96523 0.22616 0.0
C1525 C 0.54634 0.02876 0.23133 0.0
C1526 C 0.55784 0.01159 0.12392 0.0
C1527 C 0.54363 0.99598 0.12644 0.0
C1528 C 0.53009 0.99489 0.13465 0.0
C1529 C 0.53084 0.00967 0.1406 0.0
C1530 C 0.54486 0.02541 0.13751 0.0
C1531 C 0.55813 0.02614 0.12909 0.0
C1532 C 0.51517 0.97791 0.13743 0.0
C1533 C 0.54604 0.04142 0.1436 0.0
C1534 C 0.4356 0.03331 0.13808 0.0
C1535 C 0.44302 0.0323 0.12152 0.0
C1536 C 0.45679 0.01702 0.12883 0.0
C1537 C 0.45542 0.0014 0.12788 0.0
C1538 C 0.46686 0.99866 0.13586 0.0
C1539 C 0.48013 0.01197 0.1449 0.0
C1540 C 0.48178 0.0279 0.14574 0.0
C1541 C 0.47005 0.03026 0.13779 0.0
C1542 C 0.46474 0.98152 0.13468 0.0
C1543 C 0.49595 0.04246 0.15506 0.0
C1544 C 0.49022 0.99747 0.22205 0.0
C1545 C 0.50298 0.99651 0.22941 0.0
C1546 C 0.51606 0.99808 0.22007 0.0
C1547 C 0.51646 0.00061 0.20286 0.0
C1548 C 0.5293 0.00195 0.19305 0.0
C1549 C 0.5297 0.00458 0.17617 0.0
C1550 C 0.51725 0.00593 0.1684 0.0
C1551 C 0.51758 0.0086 0.15122 0.0
C1552 C 0.50527 0.01037 0.14395 0.0
C1553 C 0.49241 0.00931 0.15336 0.0
C1554 C 0.49161 0.00615 0.17048 0.0
C1555 C 0.47859 0.00447 0.18024 0.0
C1556 C 0.47803 0.00153 0.19711 0.0
C1557 C 0.49053 0.00027 0.20489 0.0
C1558 C 0.50372 0.00183 0.19527 0.0
C1559 C 0.50418 0.00462 0.17803 0.0
C1560 C 0.57903 0.99553 0.1302 0.0
C1561 C 0.57542 0.00101 0.11384 0.0
O1562 O 0.44056 0.98891 0.26668 0.0
O1563 O 0.44505 0.01863 0.12099 0.0
O1564 O 0.57158 0.01328 0.11681 0.0
O1565 O 0.5677 0.99305 0.24818 0.0
H1566 H 0.44319 0.01188 0.27082 0.0
H1567 H 0.4658 0.0116 0.28652 0.0
H1568 H 0.45091 0.99435 0.29828 0.0
H1569 H 0.45275 0.01456 0.3005 0.0
H1570 H 0.46643 0.01865 0.25789 0.0
H1571 H 0.44095 0.96538 0.24976 0.0
H1572 H 0.50361 0.02807 0.24139 0.0
H1573 H 0.49084 0.03692 0.24473 0.0
H1574 H 0.49255 0.02957 0.2243 0.0
H1575 H 0.45002 0.95248 0.23048 0.0
H1576 H 0.47211 0.96266 0.23162 0.0
H1577 H 0.46253 0.96535 0.21392 0.0
H1578 H 0.58556 0.01637 0.25678 0.0
H1579 H 0.60553 0.01965 0.23447 0.0
H1580 H 0.58647 0.01556 0.2256 0.0
H1581 H 0.59087 0.999 0.22603 0.0
H1582 H 0.53919 0.96835 0.23991 0.0
H1583 H 0.56839 0.02191 0.24362 0.0
H1584 H 0.5091 0.96525 0.21277 0.0
H1585 H 0.50131 0.96443 0.23316 0.0
H1586 H 0.51239 0.95395 0.22852 0.0
H1587 H 0.55784 0.03891 0.23735 0.0
H1588 H 0.53577 0.0292 0.23661 0.0
H1589 H 0.54673 0.03116 0.21791 0.0
H1590 H 0.565 0.99006 0.10721 0.0
H1591 H 0.54304 0.98458 0.12225 0.0
H1592 H 0.56906 0.03813 0.12693 0.0
H1593 H 0.51431 0.97525 0.15082 0.0
H1594 H 0.51564 0.96779 0.13035 0.0
H1595 H 0.50384 0.97774 0.13377 0.0
H1596 H 0.55781 0.05267 0.1402 0.0
H1597 H 0.54493 0.04145 0.1573 0.0
H1598 H 0.53573 0.04222 0.13829 0.0
H1599 H 0.45509 0.04397 0.11998 0.0
H1600 H 0.43382 0.04416 0.13847 0.0
H1601 H 0.44388 0.03494 0.14856 0.0
H1602 H 0.42355 0.02169 0.13984 0.0
H1603 H 0.4452 0.99127 0.12093 0.0
H1604 H 0.47141 0.04247 0.13865 0.0
H1605 H 0.46463 0.97708 0.1473 0.0
H1606 H 0.4753 0.98219 0.12807 0.0
H1607 H 0.45323 0.97223 0.12801 0.0
H1608 H 0.49614 0.05433 0.15359 0.0
H1609 H 0.50776 0.04413 0.15065 0.0
H1610 H 0.49508 0.03984 0.16846 0.0
H1611 H 0.50272 0.9945 0.2426 0.0
H1612 H 0.53922 0.00099 0.1983 0.0
H1613 H 0.53995 0.00559 0.16932 0.0
H1614 H 0.50575 0.01267 0.13081 0.0
H1615 H 0.46867 0.00539 0.17492 0.0
H1616 H 0.46772 0.00034 0.204 0.0
H1617 H 0.58251 0.98601 0.12775 0.0
H1618 H 0.568 0.98986 0.13811 0.0
H1619 H 0.5892 0.0064 0.13716 0.0
C1620 C 0.55131 0.99925 0.71793 0.0
C1621 C 0.56356 0.0116 0.73101 0.0
C1622 C 0.55046 0.00365 0.7576 0.0
C1623 C 0.55215 0.01856 0.76404 0.0
C1624 C 0.5407 0.01828 0.77524 0.0
C1625 C 0.52725 0.00275 0.77997 0.0
C1626 C 0.52588 0.98769 0.77393 0.0
C1627 C 0.53769 0.98835 0.76297 0.0
C1628 C 0.54279 0.03458 0.78174 0.0
C1629 C 0.51171 0.97091 0.7787 0.0
C1630 C 0.41551 0.00591 0.74737 0.0
C1631 C 0.42486 0.99896 0.75482 0.0
C1632 C 0.45263 0.00837 0.76506 0.0
C1633 C 0.44912 0.99265 0.77021 0.0
C1634 C 0.46108 0.9909 0.77848 0.0
C1635 C 0.47668 0.00522 0.78213 0.0
C1636 C 0.48021 0.02106 0.77699 0.0
C1637 C 0.46817 0.02236 0.76836 0.0
C1638 C 0.45701 0.97373 0.78333 0.0
C1639 C 0.49667 0.03662 0.78065 0.0
C1640 C 0.44604 0.9929 0.88765 0.0
C1641 C 0.44533 0.97835 0.88128 0.0
C1642 C 0.45873 0.97929 0.87289 0.0
C1643 C 0.47317 0.99503 0.87096 0.0
C1644 C 0.47414 0.00961 0.87785 0.0
C1645 C 0.46053 0.00833 0.8861 0.0
C1646 C 0.45733 0.96348 0.86577 0.0
C1647 C 0.4894 0.02657 0.87615 0.0
C1648 C 0.5801 0.98856 0.87288 0.0
C1649 C 0.5771 0.9964 0.88841 0.0
C1650 C 0.54889 0.98999 0.88482 0.0
C1651 C 0.53364 0.9759 0.88071 0.0
C1652 C 0.52138 0.97738 0.87276 0.0
C1653 C 0.52437 0.99344 0.86922 0.0
C1654 C 0.53951 0.00781 0.8741 0.0
C1655 C 0.55163 0.00594 0.88183 0.0
C1656 C 0.50532 0.9618 0.8679 0.0
C1657 C 0.54289 0.02513 0.87102 0.0
C1658 C 0.51414 0.0023 0.79041 0.0
C1659 C 0.50188 0.0037 0.78248 0.0
C1660 C 0.48926 0.00367 0.79142 0.0
C1661 C 0.48876 0.00215 0.80882 0.0
C1662 C 0.47636 0.00227 0.81824 0.0
C1663 C 0.4757 0.00034 0.83528 0.0
C1664 C 0.48757 0.99846 0.84363 0.0
C1665 C 0.48687 0.99628 0.86094 0.0
C1666 C 0.49904 0.99477 0.86891 0.0
C1667 C 0.51188 0.99518 0.86001 0.0
C1668 C 0.51263 0.99708 0.84265 0.0
C1669 C 0.52524 0.99732 0.83326 0.0
C1670 C 0.52584 0.99915 0.81618 0.0
C1671 C 0.51377 0.00065 0.80779 0.0
C1672 C 0.50098 0.00051 0.81701 0.0
C1673 C 0.50042 0.99872 0.83445 0.0
C1674 C 0.40799 0.97472 0.8799 0.0
C1675 C 0.41722 0.97924 0.89661 0.0
O1676 O 0.56085 0.00377 0.74598 0.0
O1677 O 0.56049 0.98774 0.89196 0.0
O1678 O 0.4331 0.99273 0.89513 0.0
O1679 O 0.44148 0.0106 0.75686 0.0
H1680 H 0.56147 0.02225 0.73222 0.0
H1681 H 0.53858 0.99513 0.72177 0.0
H1682 H 0.55246 0.98805 0.71642 0.0
H1683 H 0.55345 0.00529 0.7058 0.0
H1684 H 0.56238 0.0304 0.76023 0.0
H1685 H 0.53663 0.97692 0.75802 0.0
H1686 H 0.5329 0.03611 0.77652 0.0
H1687 H 0.55483 0.04551 0.7784 0.0
H1688 H 0.54168 0.0345 0.79545 0.0
H1689 H 0.5122 0.96036 0.77262 0.0
H1690 H 0.49992 0.96987 0.77524 0.0
H1691 H 0.5118 0.96978 0.79234 0.0
H1692 H 0.42214 0.98671 0.74924 0.0
H1693 H 0.41066 0.99876 0.73518 0.0
H1694 H 0.42478 0.0179 0.74146 0.0
H1695 H 0.39982 0.00508 0.76677 0.0
H1696 H 0.43716 0.98168 0.76772 0.0
H1697 H 0.47078 0.03442 0.7643 0.0
H1698 H 0.45584 0.97283 0.79699 0.0
H1699 H 0.46704 0.97155 0.77968 0.0
H1700 H 0.44532 0.96367 0.77752 0.0
H1701 H 0.49678 0.04817 0.77763 0.0
H1702 H 0.5062 0.03603 0.77321 0.0
H1703 H 0.50007 0.03739 0.79394 0.0
H1704 H 0.41762 0.96828 0.90091 0.0
H1705 H 0.43435 0.96625 0.88257 0.0
H1706 H 0.46105 0.01947 0.89115 0.0
H1707 H 0.45862 0.96422 0.8521 0.0
H1708 H 0.44542 0.95214 0.86864 0.0
H1709 H 0.46745 0.96216 0.87075 0.0
H1710 H 0.48853 0.03661 0.8829 0.0
H1711 H 0.4915 0.02957 0.86284 0.0
H1712 H 0.50025 0.02642 0.88095 0.0
H1713 H 0.58147 0.00964 0.88587 0.0
H1714 H 0.59342 0.99522 0.87009 0.0
H1715 H 0.57348 0.98955 0.86209 0.0
H1716 H 0.57562 0.97514 0.8746 0.0
H1717 H 0.53153 0.96366 0.88336 0.0
H1718 H 0.56307 0.01698 0.88573 0.0
H1719 H 0.50292 0.96159 0.85442 0.0
H1720 H 0.49513 0.96187 0.87457 0.0
H1721 H 0.5052 0.95021 0.87082 0.0
H1722 H 0.55465 0.03504 0.87684 0.0
H1723 H 0.53274 0.02655 0.87593 0.0
H1724 H 0.54345 0.02702 0.85747 0.0
H1725 H 0.50219 0.00487 0.76913 0.0
H1726 H 0.46693 0.00376 0.81253 0.0
H1727 H 0.46576 0.00036 0.84183 0.0
H1728 H 0.49845 0.99313 0.88219 0.0
H1729 H 0.5348 0.99607 0.83901 0.0
H1730 H 0.53585 0.99929 0.80962 0.0
H1731 H 0.39514 0.96424 0.88128 0.0
H1732 H 0.41394 0.97071 0.87055 0.0
H1733 H 0.40782 0.98564 0.87513 0.0
C1734 C 0.02046 0.59256 0.7781 0.0
C1735 C 0.00784 0.58054 0.76494 0.0
C1736 C 0.99589 0.55318 0.77801 0.0
C1737 C 0.98189 0.54072 0.78567 0.0
C1738 C 0.98156 0.52689 0.79232 0.0
C1739 C 0.99568 0.52555 0.79136 0.0
C1740 C 0.00974 0.53781 0.78315 0.0
C1741 C 0.00972 0.5515 0.77652 0.0
C1742 C 0.96628 0.51396 0.80084 0.0
C1743 C 0.02495 0.53667 0.78185 0.0
C1744 C 0.97044 0.40175 0.79113 0.0
C1745 C 0.97869 0.41124 0.7755 0.0
C1746 C 0.97658 0.43614 0.77619 0.0
C1747 C 0.9932 0.44883 0.77673 0.0
C1748 C 0.99805 0.46482 0.78328 0.0
C1749 C 0.986 0.46809 0.78942 0.0
C1750 C 0.96917 0.45563 0.78786 0.0
C1751 C 0.96467 0.43981 0.78106 0.0
C1752 C 0.01607 0.47805 0.78422 0.0
C1753 C 0.956 0.4588 0.79402 0.0
C1754 C 0.00078 0.44709 0.89268 0.0
C1755 C 0.0162 0.45911 0.88668 0.0
C1756 C 0.01828 0.47329 0.87888 0.0
C1757 C 0.00471 0.47547 0.87709 0.0
C1758 C 0.98929 0.46355 0.88342 0.0
C1759 C 0.98755 0.44951 0.8911 0.0
C1760 C 0.03487 0.4858 0.87221 0.0
C1761 C 0.97454 0.46545 0.88177 0.0
C1762 C 0.03223 0.60284 0.87793 0.0
C1763 C 0.02004 0.58904 0.88906 0.0
C1764 C 0.02328 0.56503 0.89114 0.0
C1765 C 0.0358 0.5618 0.88778 0.0
C1766 C 0.03216 0.54612 0.88134 0.0
C1767 C 0.01557 0.53336 0.87862 0.0
C1768 C 0.00284 0.53613 0.88348 0.0
C1769 C 0.00684 0.552 0.88965 0.0
C1770 C 0.04601 0.54345 0.8766 0.0
C1771 C 0.98501 0.52259 0.88134 0.0
C1772 C 0.99613 0.51206 0.80009 0.0
C1773 C 0.9916 0.49712 0.79131 0.0
C1774 C 0.99108 0.48375 0.79919 0.0
C1775 C 0.99508 0.4852 0.81627 0.0
C1776 C 0.99435 0.47185 0.82462 0.0
C1777 C 0.99816 0.47333 0.84144 0.0
C1778 C 0.00277 0.48819 0.85062 0.0
C1779 C 0.00632 0.48969 0.86782 0.0
C1780 C 0.01064 0.50456 0.87663 0.0
C1781 C 0.01155 0.51807 0.86867 0.0
C1782 C 0.00821 0.51684 0.85144 0.0
C1783 C 0.00918 0.53027 0.84303 0.0
C1784 C 0.00534 0.52878 0.82623 0.0
C1785 C 1.00046 0.51383 0.81711 0.0
C1786 C 0.99981 0.5003 0.82524 0.0
C1787 C 0.00367 0.5018 0.84243 0.0
C1788 C 0.0109 0.41935 0.88737 0.0
C1789 C 0.00856 0.42743 0.90316 0.0
O1790 O 0.99554 0.56666 0.7727 0.0
O1791 O 0.02739 0.58086 0.89549 0.0
O1792 O 0.99783 0.43286 0.89981 0.0
O1793 O 0.97162 0.42032 0.77088 0.0
H1794 H 0.01411 0.57669 0.75576 0.0
H1795 H 0.02435 0.58581 0.78617 0.0
H1796 H 0.0151 0.59838 0.78609 0.0
H1797 H 0.03168 0.60244 0.7721 0.0
H1798 H 0.97125 0.54205 0.78668 0.0
H1799 H 0.02065 0.56095 0.77056 0.0
H1800 H 0.96246 0.50127 0.79575 0.0
H1801 H 0.9559 0.51608 0.79938 0.0
H1802 H 0.96894 0.51429 0.81427 0.0
H1803 H 0.03472 0.5469 0.77461 0.0
H1804 H 0.02181 0.52449 0.77586 0.0
H1805 H 0.02986 0.53721 0.79446 0.0
H1806 H 0.992 0.41963 0.77839 0.0
H1807 H 0.95702 0.39325 0.78896 0.0
H1808 H 0.97234 0.41075 0.80145 0.0
H1809 H 0.97587 0.39429 0.7949 0.0
H1810 H 0.00241 0.44629 0.7721 0.0
H1811 H 0.95184 0.43001 0.78017 0.0
H1812 H 0.01808 0.48999 0.77954 0.0
H1813 H 0.02367 0.4743 0.77699 0.0
H1814 H 0.02032 0.48036 0.79736 0.0
H1815 H 0.94344 0.44792 0.79153 0.0
H1816 H 0.95718 0.46985 0.78797 0.0
H1817 H 0.95761 0.46166 0.80758 0.0
H1818 H 0.02061 0.43813 0.90761 0.0
H1819 H 0.02657 0.45741 0.88781 0.0
H1820 H 0.97572 0.44018 0.89579 0.0
H1821 H 0.03391 0.48637 0.85857 0.0
H1822 H 0.04434 0.48262 0.87498 0.0
H1823 H 0.03895 0.49845 0.87763 0.0
H1824 H 0.9636 0.45546 0.88804 0.0
H1825 H 0.97145 0.46505 0.86844 0.0
H1826 H 0.97745 0.47777 0.88714 0.0
H1827 H 0.0092 0.58037 0.88109 0.0
H1828 H 0.02661 0.60961 0.8727 0.0
H1829 H 0.03565 0.59725 0.86749 0.0
H1830 H 0.04359 0.61189 0.88499 0.0
H1831 H 0.04846 0.57189 0.88936 0.0
H1832 H 0.99715 0.55433 0.89301 0.0
H1833 H 0.04563 0.54108 0.86299 0.0
H1834 H 0.04448 0.53226 0.88268 0.0
H1835 H 0.05823 0.55439 0.88014 0.0
H1836 H 0.97676 0.52579 0.88811 0.0
H1837 H 0.98298 0.51056 0.88579 0.0
H1838 H 0.98159 0.52075 0.86797 0.0
H1839 H 0.98829 0.49582 0.77827 0.0
H1840 H 0.99075 0.46005 0.81829 0.0
H1841 H 0.99735 0.46263 0.84716 0.0
H1842 H 0.01307 0.50555 0.88987 0.0
H1843 H 0.01284 0.5421 0.84934 0.0
H1844 H 0.00621 0.5395 0.8205 0.0
H1845 H 0.02009 0.41565 0.88952 0.0
H1846 H 0.01541 0.4283 0.87719 0.0
H1847 H 0.99907 0.40812 0.88332 0.0
C1848 C 0.58533 0.58921 0.78159 0.0
C1849 C 0.57557 0.58226 0.76525 0.0
C1850 C 0.54703 0.57319 0.77249 0.0
C1851 C 0.53495 0.57744 0.77212 0.0
C1852 C 0.51953 0.5673 0.77928 0.0
C1853 C 0.51602 0.55234 0.78672 0.0
C1854 C 0.52802 0.54772 0.78682 0.0
C1855 C 0.54347 0.55832 0.78003 0.0
C1856 C 0.50707 0.57268 0.77905 0.0
C1857 C 0.52461 0.53162 0.79423 0.0
C1858 C 0.41414 0.47639 0.7172 0.0
C1859 C 0.41947 0.47086 0.73236 0.0
C1860 C 0.4315 0.48878 0.75735 0.0
C1861 C 0.44285 0.4841 0.76151 0.0
C1862 C 0.45576 0.49391 0.77283 0.0
C1863 C 0.45733 0.50866 0.78007 0.0
C1864 C 0.44568 0.51318 0.77614 0.0
C1865 C 0.43277 0.50301 0.76499 0.0
C1866 C 0.46775 0.48853 0.77706 0.0
C1867 C 0.44698 0.52884 0.78356 0.0
C1868 C 0.41861 0.48116 0.88171 0.0
C1869 C 0.43056 0.47682 0.87903 0.0
C1870 C 0.44605 0.48847 0.87289 0.0
C1871 C 0.44966 0.50478 0.86954 0.0
C1872 C 0.43797 0.50943 0.8731 0.0
C1873 C 0.4226 0.49755 0.87924 0.0
C1874 C 0.45843 0.48327 0.86963 0.0
C1875 C 0.44155 0.52681 0.86998 0.0
C1876 C 0.57248 0.60504 0.88416 0.0
C1877 C 0.5604 0.60222 0.89806 0.0
C1878 C 0.53652 0.57411 0.89344 0.0
C1879 C 0.53356 0.55814 0.8894 0.0
C1880 C 0.51932 0.54637 0.88055 0.0
C1881 C 0.50771 0.5507 0.87585 0.0
C1882 C 0.51015 0.56647 0.88081 0.0
C1883 C 0.5245 0.578 0.88965 0.0
C1884 C 0.51694 0.52954 0.8757 0.0
C1885 C 0.49778 0.57128 0.87639 0.0
C1886 C 0.49997 0.54162 0.79477 0.0
C1887 C 0.48639 0.53082 0.78471 0.0
C1888 C 0.47126 0.51952 0.79158 0.0
C1889 C 0.46962 0.51872 0.809 0.0
C1890 C 0.45476 0.50713 0.81635 0.0
C1891 C 0.45329 0.50645 0.83351 0.0
C1892 C 0.46664 0.51731 0.844 0.0
C1893 C 0.46529 0.51669 0.86147 0.0
C1894 C 0.47883 0.52763 0.87154 0.0
C1895 C 0.49377 0.53931 0.86461 0.0
C1896 C 0.49533 0.54017 0.84718 0.0
C1897 C 0.51015 0.55187 0.83982 0.0
C1898 C 0.51164 0.5525 0.82268 0.0
C1899 C 0.4984 0.54141 0.81221 0.0
C1900 C 0.48324 0.52977 0.81934 0.0
C1901 C 0.48173 0.52908 0.83685 0.0
C1902 C 0.37819 0.4478 0.87509 0.0
C1903 C 0.39453 0.45288 0.88362 0.0
O1904 O 0.5618 0.58374 0.76551 0.0
O1905 O 0.55098 0.58531 0.90112 0.0
O1906 O 0.40319 0.47003 0.88673 0.0
O1907 O 0.41908 0.47981 0.74621 0.0
H1908 H 0.57186 0.5689 0.76387 0.0
H1909 H 0.57796 0.58145 0.792 0.0
H1910 H 0.5884 0.60223 0.7843 0.0
H1911 H 0.59686 0.58893 0.78102 0.0
H1912 H 0.53772 0.58889 0.76634 0.0
H1913 H 0.55257 0.55475 0.78078 0.0
H1914 H 0.49627 0.56357 0.77137 0.0
H1915 H 0.51215 0.58529 0.77396 0.0
H1916 H 0.5027 0.57278 0.79181 0.0
H1917 H 0.53403 0.52846 0.79082 0.0
H1918 H 0.51237 0.52109 0.79008 0.0
H1919 H 0.52451 0.53283 0.80794 0.0
H1920 H 0.43221 0.47374 0.73003 0.0
H1921 H 0.41465 0.46972 0.70578 0.0
H1922 H 0.42252 0.49002 0.7157 0.0
H1923 H 0.40143 0.47382 0.71866 0.0
H1924 H 0.44155 0.47273 0.75609 0.0
H1925 H 0.4238 0.50636 0.76184 0.0
H1926 H 0.48012 0.49785 0.77258 0.0
H1927 H 0.46411 0.47609 0.77139 0.0
H1928 H 0.4687 0.48807 0.79072 0.0
H1929 H 0.4376 0.5312 0.77835 0.0
H1930 H 0.45937 0.5398 0.78134 0.0
H1931 H 0.44539 0.52775 0.79718 0.0
H1932 H 0.40118 0.44912 0.87482 0.0
H1933 H 0.42789 0.46441 0.88172 0.0
H1934 H 0.41342 0.50087 0.88168 0.0
H1935 H 0.46103 0.48385 0.85617 0.0
H1936 H 0.45407 0.4704 0.87364 0.0
H1937 H 0.47016 0.49209 0.87622 0.0
H1938 H 0.43135 0.52861 0.87389 0.0
H1939 H 0.44369 0.52926 0.85656 0.0
H1940 H 0.45293 0.53617 0.87678 0.0
H1941 H 0.55267 0.60709 0.89367 0.0
H1942 H 0.58065 0.61862 0.88216 0.0
H1943 H 0.56558 0.59894 0.87243 0.0
H1944 H 0.58011 0.5996 0.8871 0.0
H1945 H 0.54273 0.55512 0.89272 0.0
H1946 H 0.52618 0.58995 0.89359 0.0
H1947 H 0.51731 0.52836 0.862 0.0
H1948 H 0.50469 0.51944 0.87969 0.0
H1949 H 0.52653 0.52768 0.88123 0.0
H1950 H 0.50108 0.58372 0.88181 0.0
H1951 H 0.48546 0.56178 0.88084 0.0
H1952 H 0.49688 0.57153 0.8627 0.0
H1953 H 0.48766 0.53109 0.77134 0.0
H1954 H 0.44409 0.49841 0.80891 0.0
H1955 H 0.44154 0.49726 0.83843 0.0
H1956 H 0.47771 0.5271 0.88491 0.0
H1957 H 0.52081 0.56067 0.84721 0.0
H1958 H 0.52334 0.56179 0.81775 0.0
H1959 H 0.37084 0.45142 0.88295 0.0
H1960 H 0.37098 0.43407 0.87251 0.0
H1961 H 0.38052 0.45414 0.86312 0.0
C1962 C 0.65364 0.7597 0.62284 0.0
C1963 C 0.64427 0.76807 0.61989 0.0
C1964 C 0.62978 0.76938 0.59591 0.0
C1965 C 0.61367 0.7641 0.59115 0.0
C1966 C 0.61032 0.7735 0.58036 0.0
C1967 C 0.62348 0.78834 0.574 0.0
C1968 C 0.63986 0.79325 0.5781 0.0
C1969 C 0.64284 0.78368 0.58898 0.0
C1970 C 0.59274 0.76779 0.57601 0.0
C1971 C 0.65419 0.80875 0.57117 0.0
C1972 C 0.59509 0.88286 0.58658 0.0
C1973 C 0.60911 0.88372 0.5968 0.0
C1974 C 0.61871 0.86698 0.58196 0.0
C1975 C 0.63264 0.86808 0.57494 0.0
C1976 C 0.63261 0.85375 0.56923 0.0
C1977 C 0.61802 0.83793 0.5701 0.0
C1978 C 0.60398 0.83662 0.57763 0.0
C1979 C 0.60449 0.85116 0.58363 0.0
C1980 C 0.64802 0.85565 0.56176 0.0
C1981 C 0.58826 0.81993 0.57876 0.0
C1982 C 0.61105 0.85347 0.46492 0.0
C1983 C 0.62653 0.85673 0.47016 0.0
C1984 C 0.62811 0.84459 0.47829 0.0
C1985 C 0.61393 0.82886 0.48113 0.0
C1986 C 0.59847 0.82523 0.47502 0.0
C1987 C 0.59727 0.83758 0.46684 0.0
C1988 C 0.64485 0.8487 0.48423 0.0
C1989 C 0.58317 0.80851 0.47764 0.0
C1990 C 0.63289 0.73135 0.43596 0.0
C1991 C 0.62364 0.73669 0.44672 0.0
C1992 C 0.6293 0.75857 0.46751 0.0
C1993 C 0.64195 0.77283 0.47563 0.0
C1994 C 0.63896 0.78444 0.48378 0.0
C1995 C 0.62273 0.78132 0.48429 0.0
C1996 C 0.60979 0.76676 0.47631 0.0
C1997 C 0.61322 0.75558 0.46788 0.0
C1998 C 0.65318 0.80007 0.49174 0.0
C1999 C 0.59234 0.76299 0.47672 0.0
C2000 C 0.62018 0.79895 0.56332 0.0
C2001 C 0.61925 0.81209 0.57096 0.0
C2002 C 0.6171 0.82314 0.56159 0.0
C2003 C 0.61551 0.82092 0.54415 0.0
C2004 C 0.61288 0.83154 0.53441 0.0
C2005 C 0.61245 0.83002 0.51722 0.0
C2006 C 0.61465 0.81781 0.50908 0.0
C2007 C 0.61513 0.81677 0.4916 0.0
C2008 C 0.61752 0.80461 0.4839 0.0
C2009 C 0.61932 0.79329 0.49323 0.0
C2010 C 0.61864 0.794 0.51073 0.0
C2011 C 0.62014 0.78264 0.52049 0.0
C2012 C 0.62041 0.78407 0.53772 0.0
C2013 C 0.61909 0.79684 0.54584 0.0
C2014 C 0.6169 0.80798 0.53624 0.0
C2015 C 0.61659 0.8065 0.51867 0.0
C2016 C 0.60468 0.8847 0.47322 0.0
C2017 C 0.61664 0.88195 0.46289 0.0
O2018 O 0.63238 0.76068 0.60742 0.0
O2019 O 0.63312 0.74817 0.45923 0.0
O2020 O 0.60903 0.86524 0.45779 0.0
O2021 O 0.61947 0.8815 0.58639 0.0
H2022 H 0.65149 0.78201 0.62005 0.0
H2023 H 0.66669 0.76921 0.61966 0.0
H2024 H 0.65152 0.75133 0.61156 0.0
H2025 H 0.64666 0.75044 0.64715 0.0
H2026 H 0.60369 0.7529 0.59637 0.0
H2027 H 0.65537 0.78741 0.59211 0.0
H2028 H 0.59 0.77753 0.58012 0.0
H2029 H 0.58389 0.75586 0.58182 0.0
H2030 H 0.5909 0.76609 0.56235 0.0
H2031 H 0.6662 0.81053 0.57507 0.0
H2032 H 0.65372 0.8199 0.57541 0.0
H2033 H 0.6534 0.80802 0.55742 0.0
H2034 H 0.60359 0.87367 0.60597 0.0
H2035 H 0.58689 0.88502 0.59474 0.0
H2036 H 0.58758 0.87032 0.58043 0.0
H2037 H 0.60004 0.89223 0.57676 0.0
H2038 H 0.64359 0.8803 0.57382 0.0
H2039 H 0.5936 0.85009 0.58907 0.0
H2040 H 0.64654 0.8541 0.54807 0.0
H2041 H 0.65025 0.84587 0.56619 0.0
H2042 H 0.65898 0.86813 0.56481 0.0
H2043 H 0.57837 0.82098 0.58494 0.0
H2044 H 0.59056 0.81131 0.58578 0.0
H2045 H 0.58393 0.81426 0.56612 0.0
H2046 H 0.62752 0.88567 0.47097 0.0
H2047 H 0.63739 0.86871 0.46789 0.0
H2048 H 0.58544 0.83508 0.46241 0.0
H2049 H 0.64524 0.84912 0.49799 0.0
H2050 H 0.65482 0.86091 0.47984 0.0
H2051 H 0.64724 0.83877 0.47988 0.0
H2052 H 0.57214 0.80745 0.47169 0.0
H2053 H 0.58098 0.80661 0.49113 0.0
H2054 H 0.58486 0.79835 0.47252 0.0
H2055 H 0.61153 0.72641 0.45098 0.0
H2056 H 0.62699 0.71754 0.43789 0.0
H2057 H 0.64454 0.73479 0.44294 0.0
H2058 H 0.63294 0.74122 0.41244 0.0
H2059 H 0.65431 0.77503 0.47521 0.0
H2060 H 0.60329 0.74451 0.46172 0.0
H2061 H 0.65228 0.79931 0.50542 0.0
H2062 H 0.65277 0.81124 0.48826 0.0
H2063 H 0.66522 0.80181 0.4881 0.0
H2064 H 0.58346 0.75037 0.47132 0.0
H2065 H 0.59139 0.77242 0.4696 0.0
H2066 H 0.58882 0.76384 0.48968 0.0
H2067 H 0.62068 0.814 0.58432 0.0
H2068 H 0.61127 0.84129 0.53995 0.0
H2069 H 0.61058 0.83869 0.5104 0.0
H2070 H 0.61823 0.80412 0.47049 0.0
H2071 H 0.62133 0.77265 0.51491 0.0
H2072 H 0.62185 0.77515 0.54459 0.0
H2073 H 0.61051 0.89806 0.4773 0.0
H2074 H 0.60124 0.87705 0.48441 0.0
H2075 H 0.59332 0.88098 0.46596 0.0
C2076 C 0.1264 0.75203 0.63912 0.0
C2077 C 0.11617 0.75201 0.62451 0.0
C2078 C 0.13497 0.76295 0.60132 0.0
C2079 C 0.13513 0.77777 0.59856 0.0
C2080 C 0.1479 0.79068 0.58976 0.0
C2081 C 0.16072 0.78867 0.58353 0.0
C2082 C 0.16045 0.77363 0.58606 0.0
C2083 C 0.14744 0.76087 0.59477 0.0
C2084 C 0.1476 0.80638 0.58692 0.0
C2085 C 0.17385 0.77104 0.57949 0.0
C2086 C 0.28407 0.90135 0.61552 0.0
C2087 C 0.27204 0.88498 0.60744 0.0
C2088 C 0.24258 0.86711 0.60184 0.0
C2089 C 0.24347 0.85426 0.59331 0.0
C2090 C 0.2297 0.84121 0.58485 0.0
C2091 C 0.21486 0.84128 0.58443 0.0
C2092 C 0.21387 0.85409 0.59317 0.0
C2093 C 0.2277 0.86672 0.60195 0.0
C2094 C 0.23108 0.82744 0.57621 0.0
C2095 C 0.19827 0.85459 0.59302 0.0
C2096 C 0.23259 0.87364 0.47837 0.0
C2097 C 0.23221 0.85846 0.4767 0.0
C2098 C 0.22061 0.8444 0.48524 0.0
C2099 C 0.20888 0.84545 0.49525 0.0
C2100 C 0.20896 0.86064 0.49646 0.0
C2101 C 0.2211 0.87463 0.48834 0.0
C2102 C 0.221 0.82849 0.48371 0.0
C2103 C 0.19626 0.86216 0.50633 0.0
C2104 C 0.09404 0.72601 0.48072 0.0
C2105 C 0.10122 0.74263 0.47206 0.0
C2106 C 0.13057 0.76277 0.47721 0.0
C2107 C 0.14508 0.76284 0.48002 0.0
C2108 C 0.15849 0.77636 0.48841 0.0
C2109 C 0.15737 0.79022 0.49396 0.0
C2110 C 0.14301 0.7906 0.49046 0.0
C2111 C 0.12977 0.77691 0.48201 0.0
C2112 C 0.17375 0.77569 0.49166 0.0
C2113 C 0.14159 0.80539 0.49587 0.0
C2114 C 0.17414 0.80214 0.57395 0.0
C2115 C 0.18778 0.81492 0.58267 0.0
C2116 C 0.20059 0.82824 0.57444 0.0
C2117 C 0.19977 0.82893 0.557 0.0
C2118 C 0.21227 0.84227 0.54832 0.0
C2119 C 0.21141 0.84279 0.53117 0.0
C2120 C 0.19789 0.83014 0.52201 0.0
C2121 C 0.19666 0.83081 0.50461 0.0
C2122 C 0.1833 0.8177 0.49585 0.0
C2123 C 0.17095 0.80397 0.50402 0.0
C2124 C 0.17166 0.80339 0.52147 0.0
C2125 C 0.15913 0.79007 0.53014 0.0
C2126 C 0.15986 0.78966 0.54731 0.0
C2127 C 0.17327 0.80246 0.55649 0.0
C2128 C 0.18611 0.81594 0.548 0.0
C2129 C 0.18523 0.81648 0.53048 0.0
C2130 C 0.25877 0.90461 0.44807 0.0
C2131 C 0.25163 0.8882 0.45597 0.0
O2132 O 0.12277 0.75025 0.60977 0.0
O2133 O 0.11784 0.74902 0.46957 0.0
O2134 O 0.24389 0.88764 0.47074 0.0
O2135 O 0.25574 0.88005 0.61001 0.0
H2136 H 0.1165 0.76405 0.62518 0.0
H2137 H 0.13921 0.76273 0.63834 0.0
H2138 H 0.12662 0.74027 0.63899 0.0
H2139 H 0.12123 0.75336 0.65104 0.0
H2140 H 0.12512 0.77918 0.6029 0.0
H2141 H 0.14707 0.74928 0.59675 0.0
H2142 H 0.15882 0.81735 0.59247 0.0
H2143 H 0.13666 0.80595 0.59238 0.0
H2144 H 0.14766 0.8083 0.57341 0.0
H2145 H 0.17225 0.75894 0.58314 0.0
H2146 H 0.186 0.78135 0.58415 0.0
H2147 H 0.17395 0.77136 0.56575 0.0
H2148 H 0.27479 0.8749 0.6092 0.0
H2149 H 0.29586 0.91719 0.59521 0.0
H2150 H 0.29097 0.89841 0.62479 0.0
H2151 H 0.27712 0.90404 0.62525 0.0
H2152 H 0.25481 0.85422 0.59326 0.0
H2153 H 0.22709 0.87662 0.60862 0.0
H2154 H 0.22035 0.81503 0.57909 0.0
H2155 H 0.24249 0.82776 0.57984 0.0
H2156 H 0.23112 0.82877 0.5626 0.0
H2157 H 0.19992 0.86616 0.5992 0.0
H2158 H 0.18852 0.84365 0.59951 0.0
H2159 H 0.19395 0.85376 0.58006 0.0
H2160 H 0.25977 0.88294 0.45656 0.0
H2161 H 0.24116 0.85765 0.46906 0.0
H2162 H 0.22147 0.8864 0.48947 0.0
H2163 H 0.22067 0.82364 0.49618 0.0
H2164 H 0.2321 0.83032 0.47722 0.0
H2165 H 0.20998 0.81883 0.47665 0.0
H2166 H 0.19588 0.87342 0.50314 0.0
H2167 H 0.19926 0.86315 0.51975 0.0
H2168 H 0.18385 0.85095 0.50417 0.0
H2169 H 0.09912 0.75102 0.48038 0.0
H2170 H 0.08069 0.72058 0.48281 0.0
H2171 H 0.10025 0.72808 0.49295 0.0
H2172 H 0.09583 0.71694 0.47318 0.0
H2173 H 0.14571 0.75203 0.47594 0.0
H2174 H 0.11894 0.77739 0.47907 0.0
H2175 H 0.17566 0.77576 0.50523 0.0
H2176 H 0.18465 0.78694 0.4868 0.0
H2177 H 0.17298 0.76436 0.48587 0.0
H2178 H 0.12973 0.80394 0.49192 0.0
H2179 H 0.15179 0.81695 0.49061 0.0
H2180 H 0.14272 0.80702 0.50958 0.0
H2181 H 0.18841 0.81451 0.59605 0.0
H2182 H 0.22289 0.8525 0.55469 0.0
H2183 H 0.22149 0.8533 0.52519 0.0
H2184 H 0.18245 0.81821 0.4825 0.0
H2185 H 0.14852 0.77983 0.52375 0.0
H2186 H 0.14979 0.77914 0.55329 0.0
H2187 H 0.27239 0.90961 0.44786 0.0
H2188 H 0.25984 0.9139 0.45799 0.0
H2189 H 0.2443 0.89924 0.426 0.0
C2190 C 0.13266 0.3857 0.62504 0.0
C2191 C 0.12247 0.38038 0.60889 0.0
C2192 C 0.13624 0.37006 0.59041 0.0
C2193 C 0.15019 0.38581 0.58751 0.0
C2194 C 0.16275 0.3873 0.57721 0.0
C2195 C 0.16146 0.37279 0.56971 0.0
C2196 C 0.1475 0.35694 0.57258 0.0
C2197 C 0.13505 0.35581 0.58287 0.0
C2198 C 0.17751 0.4044 0.57442 0.0
C2199 C 0.14579 0.34121 0.56484 0.0
C2200 C 0.28089 0.40037 0.58937 0.0
C2201 C 0.26673 0.38636 0.59895 0.0
C2202 C 0.24172 0.37578 0.58172 0.0
C2203 C 0.22938 0.36155 0.57325 0.0
C2204 C 0.21585 0.36133 0.56614 0.0
C2205 C 0.2149 0.37593 0.56717 0.0
C2206 C 0.22722 0.39035 0.57593 0.0
C2207 C 0.24046 0.3901 0.58324 0.0
C2208 C 0.20277 0.34559 0.55721 0.0
C2209 C 0.22659 0.40614 0.57724 0.0
C2210 C 0.2458 0.38958 0.46469 0.0
C2211 C 0.23243 0.37356 0.46757 0.0
C2212 C 0.21796 0.37147 0.4745 0.0
C2213 C 0.21695 0.38572 0.4787 0.0
C2214 C 0.23003 0.4018 0.47481 0.0
C2215 C 0.24426 0.40349 0.46765 0.0
C2216 C 0.20402 0.35409 0.47795 0.0
C2217 C 0.22927 0.41723 0.47892 0.0
C2218 C 0.10954 0.3895 0.47332 0.0
C2219 C 0.1164 0.38821 0.4565 0.0
C2220 C 0.13509 0.37853 0.46435 0.0
C2221 C 0.13651 0.36443 0.46505 0.0
C2222 C 0.14995 0.36515 0.47303 0.0
C2223 C 0.1624 0.38048 0.48033 0.0
C2224 C 0.16134 0.39496 0.47925 0.0
C2225 C 0.14765 0.39384 0.47137 0.0
C2226 C 0.15072 0.34948 0.47391 0.0
C2227 C 0.17458 0.41157 0.48665 0.0
C2228 C 0.17497 0.37424 0.55924 0.0
C2229 C 0.18805 0.37426 0.56711 0.0
C2230 C 0.20158 0.37642 0.55818 0.0
C2231 C 0.20222 0.37876 0.54092 0.0
C2232 C 0.21591 0.38154 0.53168 0.0
C2233 C 0.21627 0.38338 0.51465 0.0
C2234 C 0.20295 0.38251 0.50616 0.0
C2235 C 0.20305 0.38392 0.48876 0.0
C2236 C 0.18975 0.3833 0.48072 0.0
C2237 C 0.17621 0.38122 0.48963 0.0
C2238 C 0.17581 0.37959 0.50703 0.0
C2239 C 0.16233 0.37732 0.51637 0.0
C2240 C 0.16206 0.37569 0.53348 0.0
C2241 C 0.17517 0.37606 0.54188 0.0
C2242 C 0.18886 0.37833 0.53271 0.0
C2243 C 0.18922 0.38018 0.51529 0.0
C2244 C 0.28385 0.39653 0.4742 0.0
C2245 C 0.26804 0.38386 0.46487 0.0
O2246 O 0.12378 0.36799 0.60041 0.0
O2247 O 0.12139 0.37667 0.45693 0.0
O2248 O 0.26035 0.392 0.45921 0.0
O2249 O 0.2547 0.37519 0.58782 0.0
H2250 H 0.12713 0.3915 0.60111 0.0
H2251 H 0.14589 0.39131 0.62233 0.0
H2252 H 0.12886 0.37481 0.63293 0.0
H2253 H 0.13113 0.3952 0.63209 0.0
H2254 H 0.15152 0.39704 0.59326 0.0
H2255 H 0.12431 0.34371 0.58516 0.0
H2256 H 0.18873 0.40505 0.57931 0.0
H2257 H 0.17638 0.41456 0.58055 0.0
H2258 H 0.17919 0.4066 0.56093 0.0
H2259 H 0.13424 0.32981 0.56839 0.0
H2260 H 0.15637 0.34008 0.56868 0.0
H2261 H 0.14602 0.34191 0.55113 0.0
H2262 H 0.2617 0.3921 0.60754 0.0
H2263 H 0.29031 0.40991 0.59811 0.0
H2264 H 0.2763 0.40676 0.58166 0.0
H2265 H 0.28658 0.39519 0.58098 0.0
H2266 H 0.23043 0.35056 0.57219 0.0
H2267 H 0.24991 0.40126 0.58973 0.0
H2268 H 0.20369 0.34748 0.54366 0.0
H2269 H 0.19036 0.34271 0.56101 0.0
H2270 H 0.20401 0.33468 0.55966 0.0
H2271 H 0.23762 0.4166 0.58363 0.0
H2272 H 0.21554 0.40372 0.58422 0.0
H2273 H 0.22553 0.41003 0.56468 0.0
H2274 H 0.26023 0.37425 0.47391 0.0
H2275 H 0.23335 0.3627 0.46456 0.0
H2276 H 0.25455 0.41578 0.46504 0.0
H2277 H 0.20317 0.35232 0.49153 0.0
H2278 H 0.20575 0.34428 0.4719 0.0
H2279 H 0.19219 0.3524 0.47357 0.0
H2280 H 0.24032 0.4288 0.47476 0.0
H2281 H 0.22815 0.4184 0.49253 0.0
H2282 H 0.21821 0.41609 0.47298 0.0
H2283 H 0.12699 0.40065 0.45342 0.0
H2284 H 0.10533 0.39857 0.47289 0.0
H2285 H 0.11915 0.39392 0.48317 0.0
H2286 H 0.09904 0.37712 0.47669 0.0
H2287 H 0.12683 0.35271 0.45954 0.0
H2288 H 0.14688 0.40494 0.47087 0.0
H2289 H 0.15156 0.34683 0.48706 0.0
H2290 H 0.16194 0.35136 0.46766 0.0
H2291 H 0.13983 0.33844 0.46798 0.0
H2292 H 0.17267 0.42194 0.48358 0.0
H2293 H 0.18679 0.41451 0.48212 0.0
H2294 H 0.17477 0.41086 0.50034 0.0
H2295 H 0.18773 0.37266 0.58039 0.0
H2296 H 0.22653 0.3823 0.53749 0.0
H2297 H 0.22715 0.38544 0.50825 0.0
H2298 H 0.1899 0.38438 0.46737 0.0
H2299 H 0.15182 0.37678 0.51057 0.0
H2300 H 0.15138 0.37401 0.54002 0.0
H2301 H 0.29026 0.39029 0.47882 0.0
H2302 H 0.28087 0.40208 0.48501 0.0
H2303 H 0.29224 0.40676 0.46603 0.0
H2304 H 0.96808 0.35038 0.06143 0.0
H2305 H 0.01941 0.37034 0.04977 0.0
H2306 H 0.02746 0.39268 0.07128 0.0
H2307 H 0.97056 0.3889 0.06739 0.0
H2308 H 0.95639 0.38243 0.08431 0.0
H2309 H 0.9547 0.36725 0.06892 0.0
H2310 H 0.95691 0.3497 0.09185 0.0
H2311 H 0.95845 0.36476 0.10736 0.0
H2312 H 0.97413 0.35943 0.10616 0.0
H2313 H 0.02975 0.41411 0.09273 0.0
H2314 H 0.02604 0.43204 0.11335 0.0
H2315 H 0.97334 0.39767 0.111 0.0
C2316 C 0.98104 0.35927 0.06352 0.0
C2317 C 0.99309 0.35856 0.05385 0.0
C2318 C 0.00992 0.37056 0.057 0.0
C2319 C 0.01463 0.38333 0.06919 0.0
C2320 C 0.00239 0.38386 0.07821 0.0
C2321 C 0.98596 0.37205 0.07563 0.0
C2322 C 0.97517 0.37568 0.0866 0.0
C2323 C 0.96352 0.37875 0.07618 0.0
C2324 C 0.9656 0.36155 0.09871 0.0
C2325 C 0.98808 0.39154 0.09556 0.0
C2326 C 0.00372 0.39607 0.0906 0.0
C2327 C 0.01757 0.4106 0.09681 0.0
C2328 C 0.01536 0.42072 0.10846 0.0
C2329 C 0.99942 0.41624 0.11373 0.0
C2330 C 0.98567 0.40141 0.1072 0.0
H2331 H 0.6291 0.63377 0.0771 0.0
H2332 H 0.63578 0.60903 0.03414 0.0
H2333 H 0.62692 0.58384 0.05017 0.0
H2334 H 0.64445 0.61827 0.10748 0.0
H2335 H 0.63051 0.61765 0.12303 0.0
H2336 H 0.63724 0.63268 0.10698 0.0
H2337 H 0.6071 0.62182 0.09877 0.0
H2338 H 0.60006 0.60657 0.11461 0.0
H2339 H 0.59358 0.59998 0.09335 0.0
H2340 H 0.61818 0.55695 0.07035 0.0
H2341 H 0.60593 0.53495 0.09819 0.0
H2342 H 0.60473 0.58257 0.13135 0.0
C2343 C 0.62859 0.62296 0.07116 0.0
C2344 C 0.63301 0.62326 0.05441 0.0
C2345 C 0.63248 0.60908 0.04698 0.0
C2346 C 0.62744 0.5947 0.05597 0.0
C2347 C 0.62308 0.59467 0.07244 0.0
C2348 C 0.6237 0.60867 0.08029 0.0
C2349 C 0.61898 0.60706 0.09874 0.0
C2350 C 0.63366 0.61966 0.1097 0.0
C2351 C 0.60405 0.60897 0.10152 0.0
C2352 C 0.61469 0.58965 0.10202 0.0
C2353 C 0.61758 0.58123 0.08368 0.0
C2354 C 0.61543 0.56109 0.08191 0.0
C2355 C 0.60871 0.54771 0.09935 0.0
C2356 C 0.60119 0.5554 0.11701 0.0
C2357 C 0.60799 0.57794 0.12045 0.0
H2358 H 0.36637 0.98494 0.0586 0.0
H2359 H 0.37911 0.03333 0.04035 0.0
H2360 H 0.40255 0.04704 0.06021 0.0
H2361 H 0.37628 0.99779 0.10152 0.0
H2362 H 0.38434 0.98439 0.10485 0.0
H2363 H 0.36853 0.97859 0.08938 0.0
H2364 H 0.38701 0.97621 0.06714 0.0
H2365 H 0.40293 0.98212 0.08252 0.0
H2366 H 0.40733 0.99385 0.06397 0.0
H2367 H 0.42494 0.05533 0.08196 0.0
H2368 H 0.444 0.05752 0.10408 0.0
H2369 H 0.41612 0.00363 0.10789 0.0
C2370 C 0.37399 0.99844 0.05876 0.0
C2371 C 0.37085 0.00804 0.04786 0.0
C2372 C 0.38123 0.02568 0.04856 0.0
C2373 C 0.39459 0.03358 0.05978 0.0
C2374 C 0.39739 0.02367 0.07022 0.0
C2375 C 0.38732 0.00649 0.06983 0.0
C2376 C 0.39296 0.99862 0.08222 0.0
C2377 C 0.37974 0.9893 0.09527 0.0
C2378 C 0.39785 0.98702 0.07344 0.0
C2379 C 0.40779 0.01406 0.08972 0.0
C2380 C 0.4102 0.0284 0.08262 0.0
C2381 C 0.4232 0.04418 0.08754 0.0
C2382 C 0.43398 0.0453 0.10005 0.0
C2383 C 0.43177 0.03074 0.10742 0.0
C2384 C 0.41835 0.01496 0.10225 0.0
H2385 H 0.35721 0.96356 0.97286 0.0
H2386 H 0.36493 0.0129 0.96536 0.0
H2387 H 0.38281 0.01636 0.94182 0.0
H2388 H 0.39786 0.97369 0.96401 0.0
H2389 H 0.39179 0.95407 0.95332 0.0
H2390 H 0.37897 0.95504 0.96922 0.0
H2391 H 0.3543 0.94235 0.94855 0.0
H2392 H 0.36702 0.94121 0.93262 0.0
H2393 H 0.35641 0.95219 0.92911 0.0
H2394 H 0.40068 0.01498 0.91967 0.0
H2395 H 0.41647 0.00827 0.89981 0.0
H2396 H 0.39707 0.95988 0.92152 0.0
C2397 C 0.36252 0.97503 0.96619 0.0
C2398 C 0.35962 0.98795 0.97105 0.0
C2399 C 0.36691 0.00279 0.96196 0.0
C2400 C 0.37713 0.00491 0.94854 0.0
C2401 C 0.37992 0.99206 0.94428 0.0
C2402 C 0.37274 0.97736 0.95274 0.0
C2403 C 0.37791 0.96558 0.94572 0.0
C2404 C 0.38719 0.96188 0.95885 0.0
C2405 C 0.36302 0.94938 0.93857 0.0
C2406 C 0.38925 0.97603 0.93213 0.0
C2407 C 0.39023 0.99126 0.9315 0.0
C2408 C 0.40002 0.00309 0.92004 0.0
C2409 C 0.40899 0.99922 0.90888 0.0
C2410 C 0.40819 0.98368 0.9093 0.0
C2411 C 0.39809 0.97194 0.92105 0.0
H2412 H 0.00768 0.36403 0.96916 0.0
H2413 H 0.95879 0.3531 0.98215 0.0
H2414 H 0.96064 0.37289 0.96184 0.0
H2415 H 0.02547 0.40796 0.96291 0.0
H2416 H 0.03726 0.40847 0.94517 0.0
H2417 H 0.03233 0.39328 0.96075 0.0
H2418 H 0.01892 0.36943 0.93826 0.0
H2419 H 0.02382 0.38457 0.92261 0.0
H2420 H 0.0029 0.36781 0.92502 0.0
H2421 H 0.96714 0.39328 0.94032 0.0
H2422 H 0.97804 0.41357 0.91843 0.0
H2423 H 0.02329 0.41263 0.91905 0.0
C2424 C 0.99739 0.36582 0.96771 0.0
C2425 C 0.98306 0.35691 0.97726 0.0
C2426 C 0.96984 0.35959 0.97493 0.0
C2427 C 0.97076 0.37087 0.96343 0.0
C2428 C 0.98495 0.37939 0.95423 0.0
C2429 C 0.99804 0.37703 0.95613 0.0
C2430 C 0.01171 0.38774 0.94433 0.0
C2431 C 0.02763 0.4001 0.95387 0.0
C2432 C 0.0145 0.37673 0.93182 0.0
C2433 C 0.00434 0.3967 0.93588 0.0
C2434 C 0.98884 0.3915 0.94172 0.0
C2435 C 0.97929 0.39752 0.93563 0.0
C2436 C 0.9857 0.40914 0.92314 0.0
C2437 C 0.00167 0.41487 0.91689 0.0
C2438 C 0.01108 0.40855 0.92352 0.0
H2439 H 0.62356 0.62962 0.97488 0.0
H2440 H 0.60749 0.66358 0.99106 0.0
H2441 H 0.58862 0.65443 0.96695 0.0
H2442 H 0.62222 0.63485 0.93098 0.0
H2443 H 0.61454 0.61317 0.92554 0.0
H2444 H 0.62709 0.6226 0.94393 0.0
H2445 H 0.60429 0.59967 0.96163 0.0
H2446 H 0.59166 0.59017 0.94331 0.0
H2447 H 0.58383 0.59624 0.96079 0.0
H2448 H 0.5717 0.64191 0.94107 0.0
H2449 H 0.55726 0.62619 0.91532 0.0
H2450 H 0.58334 0.59949 0.91654 0.0
C2451 C 0.61614 0.6352 0.97332 0.0
C2452 C 0.61705 0.64735 0.98487 0.0
C2453 C 0.60699 0.65421 0.98243 0.0
C2454 C 0.59625 0.64913 0.96875 0.0
C2455 C 0.5956 0.63709 0.95766 0.0
C2456 C 0.6052 0.63014 0.95981 0.0
C2457 C 0.60184 0.61715 0.94623 0.0
C2458 C 0.61735 0.62225 0.93607 0.0
C2459 C 0.595 0.59978 0.95342 0.0
C2460 C 0.58891 0.61795 0.9361 0.0
C2461 C 0.58556 0.6296 0.94287 0.0
C2462 C 0.5742 0.63274 0.93564 0.0
C2463 C 0.56607 0.62377 0.92103 0.0
C2464 C 0.56931 0.61176 0.91384 0.0
C2465 C 0.58076 0.60873 0.92164 0.0
H2466 H 0.0326 0.64445 0.97127 0.0
H2467 H 0.98396 0.63638 0.96236 0.0
H2468 H 0.98057 0.61832 0.93784 0.0
H2469 H 0.04417 0.64671 0.92907 0.0
H2470 H 0.05506 0.63589 0.93185 0.0
H2471 H 0.05342 0.64781 0.9489 0.0
H2472 H 0.04061 0.6216 0.96684 0.0
H2473 H 0.04216 0.60957 0.94982 0.0
H2474 H 0.02259 0.60262 0.95932 0.0
H2475 H 0.98291 0.60185 0.91373 0.0
H2476 H 0.99086 0.58826 0.89193 0.0
H2477 H 0.0377 0.60692 0.91702 0.0
C2478 C 0.02121 0.63891 0.9642 0.0
C2479 C 0.00856 0.64188 0.96876 0.0
C2480 C 0.99383 0.63429 0.95916 0.0
C2481 C 0.99178 0.62399 0.94521 0.0
C2482 C 0.00451 0.62135 0.9411 0.0
C2483 C 0.01892 0.62856 0.95034 0.0
C2484 C 0.03081 0.6239 0.94322 0.0
C2485 C 0.04681 0.63951 0.93795 0.0
C2486 C 0.03424 0.61383 0.95553 0.0
C2487 C 0.02094 0.61312 0.92837 0.0
C2488 C 0.00577 0.61173 0.92738 0.0
C2489 C 0.99469 0.60273 0.91446 0.0
C2490 C 0.99928 0.59504 0.90217 0.0
C2491 C 0.01477 0.59635 0.90296 0.0
C2492 C 0.02568 0.6055 0.91627 0.0
H2493 H 0.38221 0.37911 0.94104 0.0
H2494 H 0.36319 0.39872 0.97858 0.0
H2495 H 0.36919 0.42208 0.96073 0.0
H2496 H 0.41502 0.41884 0.92682 0.0
H2497 H 0.41211 0.41192 0.90533 0.0
H2498 H 0.40708 0.39712 0.92136 0.0
H2499 H 0.3775 0.37899 0.90931 0.0
H2500 H 0.38246 0.39368 0.89321 0.0
H2501 H 0.36526 0.38836 0.90644 0.0
H2502 H 0.37676 0.44302 0.9387 0.0
H2503 H 0.38405 0.45927 0.91324 0.0
H2504 H 0.39743 0.42571 0.88976 0.0
C2505 C 0.37944 0.3884 0.94556 0.0
C2506 C 0.37231 0.38714 0.96124 0.0
C2507 C 0.36862 0.3994 0.9666 0.0
C2508 C 0.37206 0.41277 0.95659 0.0
C2509 C 0.37906 0.41363 0.9412 0.0
C2510 C 0.3826 0.40172 0.93564 0.0
C2511 C 0.38933 0.40512 0.91824 0.0
C2512 C 0.40693 0.40845 0.91793 0.0
C2513 C 0.37796 0.39068 0.90609 0.0
C2514 C 0.38903 0.4208 0.91491 0.0
C2515 C 0.38317 0.42557 0.92836 0.0
C2516 C 0.38145 0.43947 0.92812 0.0
C2517 C 0.38565 0.44864 0.91366 0.0
C2518 C 0.3915 0.44387 0.89965 0.0
C2519 C 0.39323 0.42978 0.90037 0.0
H2520 H 0.65121 0.0344 0.95457 0.0
H2521 H 0.62985 0.98475 0.97409 0.0
H2522 H 0.60763 0.97391 0.95298 0.0
H2523 H 0.61377 0.0326 0.94594 0.0
H2524 H 0.62077 0.04383 0.92704 0.0
H2525 H 0.63529 0.0476 0.94334 0.0
H2526 H 0.65209 0.0406 0.92282 0.0
H2527 H 0.63768 0.03692 0.90643 0.0
H2528 H 0.64201 0.02089 0.91129 0.0
H2529 H 0.5872 0.96866 0.93016 0.0
H2530 H 0.57071 0.96938 0.90687 0.0
H2531 H 0.60568 0.02234 0.90235 0.0
C2532 C 0.64192 0.02122 0.9544 0.0
C2533 C 0.6423 0.01046 0.96605 0.0
C2534 C 0.62989 0.99328 0.9653 0.0
C2535 C 0.61719 0.98699 0.95337 0.0
C2536 C 0.61711 0.998 0.9422 0.0
C2537 C 0.62922 0.01473 0.94255 0.0
C2538 C 0.62631 0.02396 0.92922 0.0
C2539 C 0.62389 0.03781 0.93685 0.0
C2540 C 0.64036 0.031 0.9167 0.0
C2541 C 0.61054 0.00988 0.92146 0.0
C2542 C 0.60542 0.99498 0.92909 0.0
C2543 C 0.5911 0.98025 0.92409 0.0
C2544 C 0.58179 0.98078 0.91093 0.0
C2545 C 0.58681 0.99595 0.90298 0.0
C2546 C 0.60144 0.01061 0.90831 0.0
H2547 H 0.632 0.99753 0.04196 0.0
H2548 H 0.66559 0.0506 0.05196 0.0
H2549 H 0.64839 0.04996 0.07517 0.0
H2550 H 0.59578 0.99809 0.04887 0.0
H2551 H 0.58489 0.97814 0.05849 0.0
H2552 H 0.60063 0.98224 0.0437 0.0
H2553 H 0.61594 0.97507 0.0653 0.0
H2554 H 0.60016 0.9708 0.08014 0.0
H2555 H 0.62134 0.98582 0.08531 0.0
H2556 H 0.62711 0.04392 0.09654 0.0
H2557 H 0.60267 0.03296 0.11421 0.0
H2558 H 0.58228 0.98412 0.08969 0.0
C2559 C 0.6359 0.00895 0.04924 0.0
C2560 C 0.65019 0.0241 0.0452 0.0
C2561 C 0.65469 0.03884 0.05481 0.0
C2562 C 0.64503 0.0386 0.06806 0.0
C2563 C 0.63087 0.02354 0.07151 0.0
C2564 C 0.62629 0.00897 0.0624 0.0
C2565 C 0.60996 0.99469 0.06807 0.0
C2566 C 0.59706 0.9879 0.05394 0.0
C2567 C 0.61198 0.98077 0.07513 0.0
C2568 C 0.60595 0.0036 0.08157 0.0
C2569 C 0.61827 0.02018 0.08348 0.0
C2570 C 0.61734 0.03097 0.09512 0.0
C2571 C 0.60338 0.02467 0.10502 0.0
C2572 C 0.59038 0.00781 0.10298 0.0
C2573 C 0.59188 0.99713 0.09127 0.0
H2574 H 0.02288 0.6502 0.06034 0.0
H2575 H 0.97375 0.62665 0.03888 0.0
H2576 H 0.9636 0.60552 0.06044 0.0
H2577 H 0.02164 0.613 0.07063 0.0
H2578 H 0.03303 0.62155 0.08982 0.0
H2579 H 0.03629 0.63511 0.07304 0.0
H2580 H 0.02958 0.65342 0.09234 0.0
H2581 H 0.02639 0.63998 0.10922 0.0
H2582 H 0.01042 0.64381 0.10324 0.0
H2583 H 0.95909 0.58623 0.08385 0.0
H2584 H 0.9605 0.57114 0.10786 0.0
H2585 H 0.01244 0.6078 0.11397 0.0
C2586 C 0.00996 0.64066 0.06017 0.0
C2587 C 0.99913 0.64009 0.04785 0.0
C2588 C 0.9823 0.6274 0.04819 0.0
C2589 C 0.97641 0.61531 0.06037 0.0
C2590 C 0.98748 0.61616 0.07219 0.0
C2591 C 0.00388 0.62859 0.07225 0.0
C2592 C 0.01329 0.62673 0.08624 0.0
C2593 C 0.02686 0.62393 0.07952 0.0
C2594 C 0.02033 0.64188 0.09848 0.0
C2595 C 0.99968 0.61117 0.09396 0.0
C2596 C 0.98487 0.60523 0.0857 0.0
C2597 C 0.97061 0.59082 0.09045 0.0
C2598 C 0.97152 0.58233 0.10405 0.0
C2599 C 0.98658 0.58828 0.11271 0.0
C2600 C 0.00078 0.60293 0.10756 0.0
H2601 H 0.4004 0.36062 0.03506 0.0
H2602 H 0.36987 0.38197 0.0443 0.0
H2603 H 0.38248 0.39174 0.07222 0.0
H2604 H 0.39722 0.3453 0.07507 0.0
H2605 H 0.41798 0.34958 0.07588 0.0
H2606 H 0.40749 0.34544 0.05621 0.0
H2607 H 0.43109 0.37362 0.04568 0.0
H2608 H 0.44168 0.37784 0.06533 0.0
H2609 H 0.43699 0.39271 0.05736 0.0
H2610 H 0.39731 0.39769 0.09977 0.0
H2611 H 0.41311 0.3992 0.12477 0.0
H2612 H 0.43374 0.37395 0.09726 0.0
C2613 C 0.39651 0.36758 0.04281 0.0
C2614 C 0.3842 0.37061 0.03742 0.0
C2615 C 0.37931 0.37952 0.04813 0.0
C2616 C 0.38642 0.38515 0.06399 0.0
C2617 C 0.39839 0.38176 0.06897 0.0
C2618 C 0.40339 0.37319 0.05868 0.0
C2619 C 0.41581 0.37035 0.06726 0.0
C2620 C 0.40923 0.35156 0.06869 0.0
C2621 C 0.43237 0.37916 0.05838 0.0
C2622 C 0.41697 0.37859 0.08402 0.0
C2623 C 0.40688 0.38515 0.08478 0.0
C2624 C 0.40539 0.39275 0.09927 0.0
C2625 C 0.41438 0.39355 0.11338 0.0
C2626 C 0.42473 0.38684 0.11284 0.0
C2627 C 0.42607 0.37937 0.09792 0.0
H2628 H 0.6238 0.68364 0.37482 0.0
H2629 H 0.67674 0.71619 0.37646 0.0
H2630 H 0.67428 0.73382 0.3983 0.0
H2631 H 0.61344 0.71313 0.37642 0.0
H2632 H 0.5952 0.70128 0.38843 0.0
H2633 H 0.60248 0.69061 0.37536 0.0
H2634 H 0.60402 0.67472 0.40014 0.0
H2635 H 0.59622 0.68484 0.41341 0.0
H2636 H 0.6153 0.6862 0.41864 0.0
H2637 H 0.66901 0.75606 0.41707 0.0
H2638 H 0.65293 0.77092 0.4352 0.0
H2639 H 0.5975 0.71752 0.41964 0.0
C2640 C 0.63487 0.69433 0.38004 0.0
C2641 C 0.65045 0.69861 0.37393 0.0
C2642 C 0.66468 0.71261 0.38102 0.0
C2643 C 0.66339 0.72273 0.39338 0.0
C2644 C 0.64783 0.71867 0.39865 0.0
C2645 C 0.63347 0.70444 0.39224 0.0
C2646 C 0.61695 0.7019 0.39827 0.0
C2647 C 0.60641 0.70172 0.38376 0.0
C2648 C 0.60757 0.68597 0.4082 0.0
C2649 C 0.62235 0.717 0.40927 0.0
C2650 C 0.64377 0.7284 0.40964 0.0
C2651 C 0.65582 0.74917 0.4184 0.0
C2652 C 0.64594 0.7589 0.42873 0.0
C2653 C 0.62345 0.74427 0.43215 0.0
C2654 C 0.61074 0.72494 0.41898 0.0
H2655 H 0.30046 0.94657 0.38798 0.0
H2656 H 0.28149 0.97674 0.40813 0.0
H2657 H 0.26327 0.95408 0.42626 0.0
H2658 H 0.26395 0.90832 0.38554 0.0
H2659 H 0.27315 0.8963 0.39066 0.0
H2660 H 0.28516 0.91598 0.38082 0.0
H2661 H 0.3067 0.92692 0.40457 0.0
H2662 H 0.295 0.90722 0.41452 0.0
H2663 H 0.30029 0.9264 0.42569 0.0
H2664 H 0.23969 0.92599 0.44136 0.0
H2665 H 0.22137 0.89257 0.45409 0.0
H2666 H 0.26086 0.87949 0.42206 0.0
C2667 C 0.29261 0.9484 0.39642 0.0
C2668 C 0.29235 0.96339 0.39656 0.0
C2669 C 0.2819 0.96538 0.40769 0.0
C2670 C 0.27148 0.95257 0.41807 0.0
C2671 C 0.27163 0.93781 0.4174 0.0
C2672 C 0.28217 0.93548 0.40686 0.0
C2673 C 0.28059 0.91819 0.40715 0.0
C2674 C 0.27541 0.90917 0.39003 0.0
C2675 C 0.2966 0.91978 0.41335 0.0
C2676 C 0.26717 0.90915 0.41934 0.0
C2677 C 0.26113 0.92297 0.42624 0.0
C2678 C 0.24339 0.91705 0.43849 0.0
C2679 C 0.23139 0.89611 0.44561 0.0
C2680 C 0.24121 0.88334 0.44207 0.0
C2681 C 0.25654 0.88785 0.42539 0.0
H2682 H 0.0392 0.32393 0.39916 0.0
H2683 H 0.04441 0.36689 0.3743 0.0
H2684 H 0.06693 0.38568 0.39365 0.0
H2685 H 0.0484 0.34296 0.44128 0.0
H2686 H 0.05954 0.33301 0.44693 0.0
H2687 H 0.04296 0.32296 0.43191 0.0
H2688 H 0.06261 0.32111 0.41082 0.0
H2689 H 0.07928 0.33131 0.4257 0.0
H2690 H 0.08135 0.33991 0.40555 0.0
H2691 H 0.09001 0.39983 0.41455 0.0
H2692 H 0.11159 0.40824 0.43609 0.0
H2693 H 0.09128 0.3562 0.4474 0.0
C2694 C 0.04486 0.33729 0.39794 0.0
C2695 C 0.03997 0.34389 0.38518 0.0
C2696 C 0.04789 0.36148 0.38395 0.0
C2697 C 0.06071 0.37229 0.3949 0.0
C2698 C 0.06545 0.36535 0.40707 0.0
C2699 C 0.0577 0.34827 0.40875 0.0
C2700 C 0.0656 0.34403 0.4225 0.0
C2701 C 0.0534 0.33522 0.43648 0.0
C2702 C 0.07262 0.33347 0.41573 0.0
C2703 C 0.07916 0.36138 0.42808 0.0
C2704 C 0.07883 0.37351 0.41907 0.0
C2705 C 0.09038 0.39045 0.42172 0.0
C2706 C 0.10262 0.3951 0.43389 0.0
C2707 C 0.10331 0.38287 0.44315 0.0
C2708 C 0.09123 0.36581 0.44033 0.0
H2709 H 0.03732 0.32968 0.29472 0.0
H2710 H 0.04375 0.29769 0.32774 0.0
H2711 H 0.05826 0.2917 0.30591 0.0
H2712 H 0.02817 0.30426 0.25943 0.0
H2713 H 0.03899 0.32071 0.24503 0.0
H2714 H 0.03125 0.32471 0.26388 0.0
H2715 H 0.06036 0.34929 0.27192 0.0
H2716 H 0.0682 0.3455 0.25297 0.0
H2717 H 0.07726 0.34576 0.27263 0.0
H2718 H 0.06911 0.28651 0.28007 0.0
H2719 H 0.07633 0.28292 0.25151 0.0
H2720 H 0.06346 0.31848 0.23492 0.0
C2721 C 0.04222 0.32182 0.29747 0.0
C2722 C 0.03944 0.31418 0.31293 0.0
C2723 C 0.0457 0.30364 0.31597 0.0
C2724 C 0.05402 0.30021 0.30368 0.0
C2725 C 0.05609 0.30745 0.28841 0.0
C2726 C 0.05054 0.31817 0.28525 0.0
C2727 C 0.05329 0.3232 0.26732 0.0
C2728 C 0.03695 0.3179 0.2584 0.0
C2729 C 0.06551 0.34206 0.26615 0.0
C2730 C 0.06066 0.31314 0.26082 0.0
C2731 C 0.06232 0.30431 0.27326 0.0
C2732 C 0.068 0.29345 0.27021 0.0
C2733 C 0.07195 0.29141 0.25394 0.0
C2734 C 0.07001 0.29999 0.24084 0.0
C2735 C 0.06474 0.31139 0.24449 0.0
H2736 H 0.68966 0.71727 0.29086 0.0
H2737 H 0.65146 0.72296 0.31358 0.0
H2738 H 0.66258 0.75036 0.30108 0.0
H2739 H 0.72295 0.75922 0.29367 0.0
H2740 H 0.73105 0.75808 0.27377 0.0
H2741 H 0.71954 0.7395 0.28549 0.0
H2742 H 0.6996 0.72475 0.26075 0.0
H2743 H 0.71086 0.74319 0.24877 0.0
H2744 H 0.68915 0.73421 0.25185 0.0
H2745 H 0.67717 0.78134 0.2881 0.0
H2746 H 0.69609 0.80882 0.26643 0.0
H2747 H 0.72724 0.77928 0.24812 0.0
C2748 C 0.68379 0.72445 0.29306 0.0
C2749 C 0.66978 0.71819 0.30312 0.0
C2750 C 0.66213 0.72757 0.30578 0.0
C2751 C 0.6684 0.74315 0.29884 0.0
C2752 C 0.68216 0.74911 0.28897 0.0
C2753 C 0.68989 0.73993 0.28563 0.0
C2754 C 0.70453 0.74791 0.27363 0.0
C2755 C 0.72045 0.75138 0.28215 0.0
C2756 C 0.70082 0.73686 0.25782 0.0
C2757 C 0.7056 0.764 0.26965 0.0
C2758 C 0.69002 0.7645 0.28051 0.0
C2759 C 0.68667 0.78159 0.28051 0.0
C2760 C 0.69885 0.79906 0.26776 0.0
C2761 C 0.7119 0.79562 0.25271 0.0
C2762 C 0.71883 0.78046 0.25627 0.0
H2763 H 0.27422 0.98449 0.32195 0.0
H2764 H 0.30373 0.96206 0.31222 0.0
H2765 H 0.28681 0.94748 0.28725 0.0
H2766 H 0.23567 0.94876 0.30963 0.0
H2767 H 0.228 0.96074 0.30038 0.0
H2768 H 0.24269 0.96975 0.31727 0.0
H2769 H 0.26208 0.99476 0.2993 0.0
H2770 H 0.24743 0.98585 0.28236 0.0
H2771 H 0.26826 0.99086 0.27934 0.0
H2772 H 0.26669 0.93536 0.26331 0.0
H2773 H 0.24445 0.9262 0.2424 0.0
H2774 H 0.22795 0.95623 0.26807 0.0
C2775 C 0.27722 0.9766 0.31456 0.0
C2776 C 0.29036 0.97447 0.31908 0.0
C2777 C 0.29374 0.96391 0.30906 0.0
C2778 C 0.28421 0.95558 0.29483 0.0
C2779 C 0.27133 0.95791 0.2908 0.0
C2780 C 0.26782 0.96815 0.30037 0.0
C2781 C 0.25315 0.96835 0.29347 0.0
C2782 C 0.23905 0.96149 0.30593 0.0
C2783 C 0.25803 0.986 0.28831 0.0
C2784 C 0.24892 0.95657 0.27853 0.0
C2785 C 0.25958 0.95072 0.27718 0.0
C2786 C 0.25819 0.93976 0.2643 0.0
C2787 C 0.24552 0.93459 0.25254 0.0
C2788 C 0.23428 0.94022 0.25385 0.0
C2789 C 0.23618 0.9515 0.26694 0.0
H2790 H 0.67946 0.96756 0.30352 0.0
H2791 H 0.71987 0.97483 0.3348 0.0
H2792 H 0.73042 0.96556 0.31154 0.0
H2793 H 0.67391 0.93066 0.27949 0.0
H2794 H 0.66965 0.93735 0.26045 0.0
H2795 H 0.66425 0.94292 0.28002 0.0
H2796 H 0.68123 0.97421 0.27297 0.0
H2797 H 0.68668 0.96876 0.25342 0.0
H2798 H 0.70255 0.98337 0.26769 0.0
H2799 H 0.73815 0.95826 0.28443 0.0
H2800 H 0.74238 0.95316 0.25518 0.0
H2801 H 0.69688 0.95014 0.24138 0.0
C2802 C 0.69035 0.96689 0.30558 0.0
C2803 C 0.6988 0.97189 0.32103 0.0
C2804 C 0.71318 0.97111 0.3231 0.0
C2805 C 0.71924 0.96578 0.30997 0.0
C2806 C 0.71079 0.96123 0.29485 0.0
C2807 C 0.69663 0.96167 0.29258 0.0
C2808 C 0.69054 0.9572 0.27475 0.0
C2809 C 0.67358 0.94107 0.27362 0.0
C2810 C 0.69024 0.97176 0.26674 0.0
C2811 C 0.70368 0.95453 0.26731 0.0
C2812 C 0.71517 0.95679 0.27916 0.0
C2813 C 0.72905 0.9561 0.27509 0.0
C2814 C 0.73133 0.95314 0.25845 0.0
C2815 C 0.71968 0.95074 0.24608 0.0
C2816 C 0.70568 0.95141 0.25066 0.0
H2817 H 0.0387 0.73069 0.3076 0.0
H2818 H 0.05979 0.70494 0.28166 0.0
H2819 H 0.06665 0.72368 0.25827 0.0
H2820 H 0.0208 0.73754 0.27238 0.0
H2821 H 0.02555 0.75808 0.27937 0.0
H2822 H 0.02254 0.74284 0.29425 0.0
H2823 H 0.05121 0.7635 0.30729 0.0
H2824 H 0.0543 0.7788 0.29244 0.0
H2825 H 0.06905 0.77232 0.29434 0.0
H2826 H 0.06972 0.74402 0.23702 0.0
H2827 H 0.06977 0.76539 0.21979 0.0
H2828 H 0.04855 0.77931 0.26023 0.0
C2829 C 0.04479 0.72901 0.29701 0.0
C2830 C 0.04867 0.7163 0.29645 0.0
C2831 C 0.05674 0.71461 0.28241 0.0
C2832 C 0.06068 0.72518 0.26905 0.0
C2833 C 0.05667 0.73754 0.26998 0.0
C2834 C 0.04904 0.73962 0.28366 0.0
C2835 C 0.04611 0.75392 0.28153 0.0
C2836 C 0.02765 0.74772 0.2819 0.0
C2837 C 0.05574 0.76797 0.29468 0.0
C2838 C 0.05301 0.75935 0.2644 0.0
C2839 C 0.05899 0.7497 0.25795 0.0
C2840 C 0.06524 0.75179 0.242 0.0
C2841 C 0.06522 0.76395 0.23232 0.0
C2842 C 0.05912 0.77397 0.23863 0.0
C2843 C 0.05323 0.7718 0.25503 0.0
H2844 H 0.28458 0.34636 0.30095 0.0
H2845 H 0.2927 0.30554 0.30909 0.0
H2846 H 0.2688 0.28693 0.29085 0.0
H2847 H 0.24119 0.32195 0.30251 0.0
H2848 H 0.23794 0.33338 0.28695 0.0
H2849 H 0.25633 0.34363 0.29961 0.0
H2850 H 0.27406 0.35195 0.27318 0.0
H2851 H 0.2557 0.34171 0.26043 0.0
H2852 H 0.27101 0.33596 0.25804 0.0
H2853 H 0.24331 0.27263 0.27214 0.0
H2854 H 0.21806 0.26377 0.2555 0.0
H2855 H 0.22645 0.31388 0.26106 0.0
C2856 C 0.28151 0.33358 0.29873 0.0
C2857 C 0.2906 0.32744 0.30633 0.0
C2858 C 0.28592 0.31052 0.30336 0.0
C2859 C 0.2724 0.29988 0.29299 0.0
C2860 C 0.26362 0.30633 0.28581 0.0
C2861 C 0.26797 0.32278 0.28864 0.0
C2862 C 0.25605 0.32647 0.28027 0.0
C2863 C 0.24736 0.33166 0.2931 0.0
C2864 C 0.26473 0.33981 0.2672 0.0
C2865 C 0.2443 0.30954 0.27226 0.0
C2866 C 0.24889 0.29808 0.27545 0.0
C2867 C 0.23968 0.28155 0.26947 0.0
C2868 C 0.22542 0.27663 0.26002 0.0
C2869 C 0.22052 0.28821 0.25664 0.0
C2870 C 0.23007 0.30482 0.26304 0.0
H2871 H 0.30775 0.38149 0.37829 0.0
H2872 H 0.29728 0.33184 0.38962 0.0
H2873 H 0.2836 0.33289 0.4153 0.0
H2874 H 0.31715 0.39835 0.4195 0.0
H2875 H 0.30792 0.41085 0.41729 0.0
H2876 H 0.31618 0.40582 0.39947 0.0
H2877 H 0.28808 0.39301 0.38419 0.0
H2878 H 0.27971 0.39797 0.40199 0.0
H2879 H 0.26986 0.37678 0.39374 0.0
H2880 H 0.272 0.33988 0.44033 0.0
H2881 H 0.2637 0.35244 0.46287 0.0
H2882 H 0.28176 0.39733 0.43494 0.0
C2883 C 0.3025 0.37075 0.38607 0.0
C2884 C 0.30358 0.35656 0.38187 0.0
C2885 C 0.29661 0.34286 0.39253 0.0
C2886 C 0.28878 0.34331 0.40713 0.0
C2887 C 0.288 0.35753 0.41089 0.0
C2888 C 0.29468 0.371 0.40066 0.0
C2889 C 0.29267 0.38501 0.40773 0.0
C2890 C 0.30948 0.40094 0.4112 0.0
C2891 C 0.28194 0.38838 0.39622 0.0
C2892 C 0.28394 0.3774 0.42364 0.0
C2893 C 0.28128 0.36152 0.42521 0.0
C2894 C 0.27387 0.35223 0.43915 0.0
C2895 C 0.26918 0.35944 0.45186 0.0
C2896 C 0.27185 0.37572 0.4505 0.0
C2897 C 0.2793 0.38475 0.43616 0.0
H2898 H 0.67644 0.96176 0.41012 0.0
H2899 H 0.63765 0.94266 0.3726 0.0
H2900 H 0.62037 0.91835 0.38951 0.0
H2901 H 0.67045 0.92204 0.42096 0.0
H2902 H 0.67446 0.92751 0.44276 0.0
H2903 H 0.68392 0.94353 0.42773 0.0
H2904 H 0.67168 0.95974 0.44218 0.0
H2905 H 0.66224 0.9438 0.45729 0.0
H2906 H 0.64984 0.94929 0.44537 0.0
H2907 H 0.6072 0.89603 0.41039 0.0
H2908 H 0.59895 0.87755 0.43427 0.0
H2909 H 0.64608 0.91113 0.45821 0.0
C2910 C 0.66432 0.95249 0.40543 0.0
C2911 C 0.65846 0.95417 0.38998 0.0
C2912 C 0.64247 0.94172 0.38438 0.0
C2913 C 0.63253 0.92782 0.39389 0.0
C2914 C 0.63871 0.92652 0.409 0.0
C2915 C 0.65419 0.93853 0.41479 0.0
C2916 C 0.6578 0.93419 0.43154 0.0
C2917 C 0.67253 0.93167 0.43069 0.0
C2918 C 0.66055 0.94755 0.44488 0.0
C2919 C 0.64194 0.91785 0.43423 0.0
C2920 C 0.6311 0.91364 0.42106 0.0
C2921 C 0.6156 0.89916 0.42075 0.0
C2922 C 0.61104 0.88873 0.43431 0.0
C2923 C 0.62197 0.89281 0.44794 0.0
C2924 C 0.63758 0.90761 0.44786 0.0
H2925 H 0.07451 0.70662 0.37924 0.0
H2926 H 0.03653 0.71919 0.38245 0.0
H2927 H 0.04718 0.73242 0.41019 0.0
H2928 H 0.07272 0.69543 0.42056 0.0
H2929 H 0.09449 0.70389 0.42282 0.0
H2930 H 0.08473 0.69672 0.40273 0.0
H2931 H 0.105 0.7257 0.39095 0.0
H2932 H 0.11486 0.73297 0.41102 0.0
H2933 H 0.10692 0.74423 0.40078 0.0
H2934 H 0.06096 0.7426 0.43845 0.0
H2935 H 0.07678 0.74896 0.46473 0.0
H2936 H 0.10539 0.72946 0.44271 0.0
C2937 C 0.0685 0.71233 0.38562 0.0
C2938 C 0.05468 0.71188 0.37858 0.0
C2939 C 0.04717 0.71941 0.38751 0.0
C2940 C 0.05314 0.72698 0.40328 0.0
C2941 C 0.06666 0.72696 0.4099 0.0
C2942 C 0.07426 0.71988 0.40131 0.0
C2943 C 0.08807 0.72076 0.41142 0.0
C2944 C 0.0848 0.70316 0.41457 0.0
C2945 C 0.10469 0.73156 0.40304 0.0
C2946 C 0.0869 0.72921 0.42719 0.0
C2947 C 0.07456 0.73281 0.42607 0.0
C2948 C 0.07079 0.74005 0.43938 0.0
C2949 C 0.07983 0.74363 0.45423 0.0
C2950 C 0.0925 0.74001 0.45561 0.0
C2951 C 0.09602 0.7327 0.44187 0.0
H2952 H 0.3283 0.03925 0.71232 0.0
H2953 H 0.27802 0.00526 0.69548 0.0
H2954 H 0.268 0.0144 0.71937 0.0
H2955 H 0.32127 0.03342 0.75539 0.0
H2956 H 0.33539 0.05499 0.7614 0.0
H2957 H 0.33869 0.04623 0.74266 0.0
H2958 H 0.33904 0.06951 0.72579 0.0
H2959 H 0.33578 0.07838 0.7445 0.0
H2960 H 0.32192 0.07268 0.72703 0.0
H2961 H 0.26335 0.02614 0.74581 0.0
H2962 H 0.26451 0.04042 0.77252 0.0
H2963 H 0.31775 0.06741 0.77163 0.0
C2964 C 0.31518 0.03376 0.71359 0.0
C2965 C 0.30395 0.02149 0.702 0.0
C2966 C 0.28688 0.01471 0.70413 0.0
C2967 C 0.28105 0.0198 0.71768 0.0
C2968 C 0.29244 0.03181 0.72891 0.0
C2969 C 0.30914 0.03881 0.72694 0.0
C2970 C 0.31878 0.05143 0.74085 0.0
C2971 C 0.32914 0.0462 0.75065 0.0
C2972 C 0.32951 0.06904 0.73414 0.0
C2973 C 0.30486 0.05018 0.75111 0.0
C2974 C 0.28977 0.03882 0.74399 0.0
C2975 C 0.2751 0.03516 0.75144 0.0
C2976 C 0.27587 0.04332 0.7666 0.0
C2977 C 0.29121 0.05501 0.77412 0.0
C2978 C 0.30586 0.05853 0.76615 0.0
H2979 H 0.96026 0.29808 0.73217 0.0
H2980 H 0.97761 0.27479 0.6972 0.0
H2981 H 0.97421 0.25454 0.71816 0.0
H2982 H 0.98032 0.29566 0.76845 0.0
H2983 H 0.96385 0.29291 0.78167 0.0
H2984 H 0.96808 0.30448 0.76304 0.0
H2985 H 0.93809 0.28506 0.75323 0.0
H2986 H 0.93355 0.27305 0.77157 0.0
H2987 H 0.9297 0.26284 0.75135 0.0
H2988 H 0.96902 0.23223 0.74316 0.0
H2989 H 0.95879 0.21454 0.77395 0.0
H2990 H 0.9442 0.25814 0.79471 0.0
C2991 C 0.96338 0.2887 0.72909 0.0
C2992 C 0.96904 0.28779 0.71315 0.0
C2993 C 0.9733 0.27566 0.70941 0.0
C2994 C 0.97132 0.26409 0.72119 0.0
C2995 C 0.96537 0.26499 0.73674 0.0
C2996 C 0.96169 0.27741 0.74102 0.0
C2997 C 0.95569 0.27735 0.75882 0.0
C2998 C 0.9677 0.29356 0.76856 0.0
C2999 C 0.93823 0.2744 0.75873 0.0
C3000 C 0.95572 0.26282 0.76589 0.0
C3001 C 0.96206 0.25413 0.75034 0.0
C3002 C 0.96437 0.23657 0.75312 0.0
C3003 C 0.95888 0.22604 0.77245 0.0
C3004 C 0.94773 0.23287 0.78677 0.0
C3005 C 0.94984 0.25385 0.78579 0.0
H3006 H 0.71081 0.65808 0.72222 0.0
H3007 H 0.71696 0.70395 0.70331 0.0
H3008 H 0.73963 0.7204 0.72313 0.0
H3009 H 0.71965 0.67291 0.76548 0.0
H3010 H 0.73048 0.66228 0.76964 0.0
H3011 H 0.71433 0.65381 0.75413 0.0
H3012 H 0.73446 0.65389 0.73238 0.0
H3013 H 0.75069 0.66246 0.74779 0.0
H3014 H 0.75345 0.67309 0.72874 0.0
H3015 H 0.76193 0.73217 0.74432 0.0
H3016 H 0.78234 0.73851 0.76649 0.0
H3017 H 0.76213 0.68544 0.77226 0.0
C3018 C 0.71688 0.67157 0.72229 0.0
C3019 C 0.71204 0.67965 0.7111 0.0
C3020 C 0.72033 0.69737 0.71168 0.0
C3021 C 0.73329 0.70689 0.72292 0.0
C3022 C 0.73784 0.69859 0.73362 0.0
C3023 C 0.72987 0.68135 0.73354 0.0
C3024 C 0.73733 0.67569 0.74647 0.0
C3025 C 0.72469 0.66557 0.75972 0.0
C3026 C 0.7444 0.66569 0.73835 0.0
C3027 C 0.75085 0.69244 0.75358 0.0
C3028 C 0.75086 0.70546 0.74598 0.0
C3029 C 0.76211 0.72211 0.75035 0.0
C3030 C 0.77369 0.72558 0.76289 0.0
C3031 C 0.77405 0.71249 0.77083 0.0
C3032 C 0.76234 0.69569 0.76617 0.0
H3033 H 0.68539 0.63784 0.62277 0.0
H3034 H 0.72295 0.68823 0.63831 0.0
H3035 H 0.74061 0.68867 0.61543 0.0
H3036 H 0.71006 0.62228 0.61317 0.0
H3037 H 0.69882 0.61016 0.59491 0.0
H3038 H 0.68842 0.61461 0.61103 0.0
H3039 H 0.67853 0.62797 0.58993 0.0
H3040 H 0.68872 0.62333 0.57362 0.0
H3041 H 0.69335 0.64444 0.57729 0.0
H3042 H 0.75504 0.68233 0.59241 0.0
H3043 H 0.76463 0.67042 0.57058 0.0
H3044 H 0.71746 0.62401 0.5705 0.0
C3045 C 0.69721 0.64909 0.62113 0.0
C3046 C 0.70286 0.66302 0.63223 0.0
C3047 C 0.71835 0.67753 0.62977 0.0
C3048 C 0.72846 0.67785 0.61686 0.0
C3049 C 0.72269 0.66369 0.60638 0.0
C3050 C 0.70728 0.6497 0.6082 0.0
C3051 C 0.7041 0.63592 0.59568 0.0
C3052 C 0.70013 0.6198 0.60422 0.0
C3053 C 0.69036 0.63273 0.5834 0.0
C3054 C 0.72054 0.64387 0.58724 0.0
C3055 C 0.73099 0.66001 0.59331 0.0
C3056 C 0.74692 0.66974 0.5875 0.0
C3057 C 0.75229 0.66279 0.57517 0.0
C3058 C 0.74187 0.64611 0.56903 0.0
C3059 C 0.72575 0.6367 0.5751 0.0
H3060 H 0.32468 0.03985 0.61787 0.0
H3061 H 0.36814 0.05046 0.64592 0.0
H3062 H 0.38486 0.07564 0.6299 0.0
H3063 H 0.34468 0.05384 0.57833 0.0
H3064 H 0.3327 0.06287 0.57266 0.0
H3065 H 0.32414 0.04531 0.58599 0.0
H3066 H 0.31832 0.06224 0.60809 0.0
H3067 H 0.32696 0.07989 0.59487 0.0
H3068 H 0.33492 0.08228 0.61566 0.0
H3069 H 0.39691 0.09982 0.61123 0.0
H3070 H 0.40346 0.12156 0.59092 0.0
H3071 H 0.35232 0.09562 0.57513 0.0
C3072 C 0.33773 0.04738 0.62056 0.0
C3073 C 0.34507 0.04312 0.63317 0.0
C3074 C 0.36218 0.05344 0.63637 0.0
C3075 C 0.37182 0.06778 0.62732 0.0
C3076 C 0.36418 0.07171 0.61512 0.0
C3077 C 0.34755 0.06182 0.61169 0.0
C3078 C 0.34239 0.06909 0.59813 0.0
C3079 C 0.33558 0.05706 0.58288 0.0
C3080 C 0.32991 0.07364 0.60458 0.0
C3081 C 0.35872 0.0846 0.59454 0.0
C3082 C 0.37112 0.08584 0.60447 0.0
C3083 C 0.38729 0.09905 0.60343 0.0
C3084 C 0.39089 0.11135 0.59193 0.0
C3085 C 0.37836 0.11045 0.58172 0.0
C3086 C 0.36209 0.09678 0.58299 0.0
H3087 H 0.92839 0.27803 0.64018 0.0
H3088 H 0.97791 0.30026 0.62149 0.0
H3089 H 0.96655 0.28883 0.59334 0.0
H3090 H 0.909 0.24013 0.61174 0.0
H3091 H 0.89047 0.24082 0.61009 0.0
H3092 H 0.90261 0.24808 0.62896 0.0
H3093 H 0.90442 0.27659 0.62693 0.0
H3094 H 0.89257 0.26958 0.60797 0.0
H3095 H 0.91255 0.28839 0.60848 0.0
H3096 H 0.94944 0.27797 0.56665 0.0
H3097 H 0.92866 0.26861 0.54431 0.0
H3098 H 0.89065 0.25456 0.58102 0.0
C3099 C 0.9369 0.28017 0.63027 0.0
C3100 C 0.95403 0.29004 0.63301 0.0
C3101 C 0.96473 0.29259 0.61969 0.0
C3102 C 0.95838 0.28617 0.60367 0.0
C3103 C 0.94135 0.27708 0.6013 0.0
C3104 C 0.9308 0.27391 0.61434 0.0
C3105 C 0.9131 0.26521 0.60852 0.0
C3106 C 0.90322 0.24751 0.61522 0.0
C3107 C 0.90522 0.27557 0.61325 0.0
C3108 C 0.91534 0.26467 0.59005 0.0
C3109 C 0.93164 0.27125 0.58608 0.0
C3110 C 0.93664 0.2727 0.56965 0.0
C3111 C 0.92468 0.26745 0.55701 0.0
C3112 C 0.90795 0.26123 0.56091 0.0
C3113 C 0.90334 0.25949 0.57767 0.0
H3114 H 0.37408 0.31539 0.6509 0.0
H3115 H 0.32524 0.30538 0.6389 0.0
H3116 H 0.32556 0.29158 0.61247 0.0
H3117 H 0.38986 0.32487 0.61005 0.0
H3118 H 0.40186 0.3151 0.61178 0.0
H3119 H 0.39756 0.32369 0.63002 0.0
H3120 H 0.38488 0.29504 0.64382 0.0
H3121 H 0.38911 0.28635 0.62558 0.0
H3122 H 0.36849 0.27666 0.63331 0.0
H3123 H 0.33152 0.27964 0.58691 0.0
H3124 H 0.34289 0.2707 0.56398 0.0
H3125 H 0.38767 0.28834 0.59272 0.0
C3126 C 0.3634 0.31026 0.64278 0.0
C3127 C 0.34962 0.31149 0.64706 0.0
C3128 C 0.33595 0.30461 0.63597 0.0
C3129 C 0.33599 0.29671 0.62092 0.0
C3130 C 0.34977 0.29574 0.61711 0.0
C3131 C 0.36322 0.30233 0.62772 0.0
C3132 C 0.37664 0.29997 0.62052 0.0
C3133 C 0.39241 0.31692 0.61794 0.0
C3134 C 0.37997 0.28884 0.63146 0.0
C3135 C 0.36869 0.29115 0.60414 0.0
C3136 C 0.35316 0.28877 0.60244 0.0
C3137 C 0.3436 0.2813 0.58816 0.0
C3138 C 0.35013 0.27624 0.57524 0.0
C3139 C 0.36603 0.2786 0.5767 0.0
C3140 C 0.37537 0.28613 0.59139 0.0
H3141 H 0.70144 0.05973 0.62819 0.0
H3142 H 0.71777 0.02846 0.60478 0.0
H3143 H 0.72626 0.04604 0.5803 0.0
H3144 H 0.68504 0.06663 0.59199 0.0
H3145 H 0.69176 0.08806 0.59759 0.0
H3146 H 0.6875 0.07337 0.61352 0.0
H3147 H 0.71678 0.0927 0.62588 0.0
H3148 H 0.72114 0.10744 0.60995 0.0
H3149 H 0.73433 0.09915 0.61282 0.0
H3150 H 0.73156 0.06604 0.55774 0.0
H3151 H 0.73359 0.08731 0.53888 0.0
H3152 H 0.71505 0.10633 0.57744 0.0
C3153 C 0.70684 0.05659 0.61795 0.0
C3154 C 0.7089 0.04266 0.61843 0.0
C3155 C 0.7161 0.03907 0.60476 0.0
C3156 C 0.72097 0.04898 0.59079 0.0
C3157 C 0.71873 0.06257 0.59072 0.0
C3158 C 0.71193 0.06644 0.60398 0.0
C3159 C 0.71066 0.0816 0.60068 0.0
C3160 C 0.69267 0.07714 0.60096 0.0
C3161 C 0.72137 0.09608 0.61307 0.0
C3162 C 0.71752 0.08544 0.58336 0.0
C3163 C 0.72213 0.07433 0.57785 0.0
C3164 C 0.72813 0.0749 0.56196 0.0
C3165 C 0.72923 0.08701 0.55135 0.0
C3166 C 0.72442 0.09841 0.55667 0.0
C3167 C 0.71879 0.09776 0.57302 0.0
H3168 H 0.96032 0.67677 0.61277 0.0
H3169 H 0.94031 0.63484 0.64545 0.0
H3170 H 0.91797 0.61794 0.62523 0.0
H3171 H 0.92136 0.66972 0.59781 0.0
H3172 H 0.92839 0.67556 0.57698 0.0
H3173 H 0.94271 0.68463 0.59418 0.0
H3174 H 0.96092 0.6745 0.5806 0.0
H3175 H 0.9467 0.66549 0.56332 0.0
H3176 H 0.95197 0.65268 0.57484 0.0
H3177 H 0.89792 0.60539 0.60141 0.0
H3178 H 0.88215 0.59784 0.575 0.0
H3179 H 0.91525 0.64768 0.55773 0.0
C3180 C 0.95123 0.66406 0.61572 0.0
C3181 C 0.95211 0.65719 0.63076 0.0
C3182 C 0.93997 0.64044 0.63404 0.0
C3183 C 0.92717 0.63072 0.62265 0.0
C3184 C 0.92666 0.63789 0.608 0.0
C3185 C 0.93838 0.65414 0.60446 0.0
C3186 C 0.93519 0.65869 0.58762 0.0
C3187 C 0.9317 0.673 0.58925 0.0
C3188 C 0.94955 0.66309 0.5759 0.0
C3189 C 0.91992 0.64241 0.58221 0.0
C3190 C 0.91513 0.63061 0.5942 0.0
C3191 C 0.9015 0.61454 0.59195 0.0
C3192 C 0.89261 0.61038 0.57697 0.0
C3193 C 0.8974 0.62223 0.56444 0.0
C3194 C 0.91121 0.63845 0.56717 0.0
H3195 H 0.9628 0.67624 0.72188 0.0
H3196 H 0.95889 0.70906 0.68787 0.0
H3197 H 0.94772 0.71876 0.71012 0.0
H3198 H 0.92567 0.66609 0.74682 0.0
H3199 H 0.93563 0.66658 0.76596 0.0
H3200 H 0.94098 0.66022 0.74681 0.0
H3201 H 0.97155 0.68295 0.75203 0.0
H3202 H 0.9663 0.68941 0.77112 0.0
H3203 H 0.97716 0.70442 0.75543 0.0
H3204 H 0.94084 0.72787 0.73642 0.0
H3205 H 0.93801 0.73536 0.76521 0.0
H3206 H 0.94559 0.6964 0.78264 0.0
C3207 C 0.95913 0.68509 0.71903 0.0
C3208 C 0.96165 0.69185 0.70313 0.0
C3209 C 0.9571 0.70374 0.69997 0.0
C3210 C 0.95066 0.70927 0.7125 0.0
C3211 C 0.94878 0.70277 0.72816 0.0
C3212 C 0.95277 0.69087 0.73149 0.0
C3213 C 0.951 0.68715 0.74978 0.0
C3214 C 0.93751 0.66893 0.7525 0.0
C3215 C 0.96748 0.69123 0.75754 0.0
C3216 C 0.94588 0.69919 0.75622 0.0
C3217 C 0.94453 0.70794 0.7435 0.0
C3218 C 0.94143 0.7208 0.74647 0.0
C3219 C 0.93982 0.72496 0.76291 0.0
C3220 C 0.94115 0.71616 0.7762 0.0
C3221 C 0.94404 0.703 0.7727 0.0
H3222 H 0.34168 0.2888 0.72392 0.0
H3223 H 0.3018 0.29836 0.72008 0.0
H3224 H 0.28367 0.27251 0.73486 0.0
H3225 H 0.31738 0.24551 0.7155 0.0
H3226 H 0.32845 0.24004 0.72949 0.0
H3227 H 0.33876 0.26016 0.72025 0.0
H3228 H 0.34717 0.27473 0.74943 0.0
H3229 H 0.3369 0.25462 0.75877 0.0
H3230 H 0.33156 0.26995 0.76464 0.0
H3231 H 0.26946 0.24475 0.74867 0.0
H3232 H 0.26018 0.21696 0.75992 0.0
H3233 H 0.30906 0.22517 0.75344 0.0
C3234 C 0.32924 0.28565 0.7265 0.0
C3235 C 0.32319 0.29567 0.72101 0.0
C3236 C 0.3067 0.29088 0.72424 0.0
C3237 C 0.29633 0.27625 0.73265 0.0
C3238 C 0.3026 0.26649 0.73765 0.0
C3239 C 0.31866 0.27098 0.73466 0.0
C3240 C 0.32205 0.25773 0.74021 0.0
C3241 C 0.32694 0.25043 0.72548 0.0
C3242 C 0.3352 0.26468 0.75409 0.0
C3243 C 0.30535 0.24503 0.74666 0.0
C3244 C 0.29433 0.25037 0.74525 0.0
C3245 C 0.27803 0.24052 0.75001 0.0
C3246 C 0.27287 0.2248 0.75639 0.0
C3247 C 0.28397 0.21908 0.75793 0.0
C3248 C 0.30039 0.22935 0.75283 0.0
H3249 H 0.73948 0.03608 0.69575 0.0
H3250 H 0.70479 0.05181 0.70739 0.0
H3251 H 0.71937 0.06431 0.73408 0.0
H3252 H 0.74135 0.02309 0.73448 0.0
H3253 H 0.7629 0.03008 0.73414 0.0
H3254 H 0.75135 0.02472 0.71503 0.0
H3255 H 0.77185 0.05404 0.70407 0.0
H3256 H 0.78355 0.05948 0.72317 0.0
H3257 H 0.77603 0.07244 0.71612 0.0
H3258 H 0.73558 0.07175 0.76098 0.0
H3259 H 0.75241 0.07403 0.7854 0.0
H3260 H 0.77618 0.05332 0.75581 0.0
C3261 C 0.7351 0.04245 0.70371 0.0
C3262 C 0.72098 0.04296 0.69944 0.0
C3263 C 0.71565 0.05135 0.71032 0.0
C3264 C 0.72385 0.05849 0.72551 0.0
C3265 C 0.73746 0.05731 0.72952 0.0
C3266 C 0.74312 0.04963 0.71883 0.0
C3267 C 0.75716 0.04881 0.72648 0.0
C3268 C 0.75293 0.03059 0.7276 0.0
C3269 C 0.77309 0.05932 0.71689 0.0
C3270 C 0.75812 0.05662 0.74342 0.0
C3271 C 0.74683 0.06167 0.74491 0.0
C3272 C 0.7447 0.06818 0.75985 0.0
C3273 C 0.75428 0.06941 0.77363 0.0
C3274 C 0.76579 0.06416 0.77235 0.0
C3275 C 0.76777 0.05782 0.757 0.0
H3276 H 0.02332 0.30833 0.03417 0.0
H3277 H 0.05398 0.36133 0.02642 0.0
H3278 H 0.07647 0.36212 0.04271 0.0
H3279 H 0.03222 0.30795 0.07467 0.0
H3280 H 0.03085 0.28799 0.0731 0.0
H3281 H 0.01929 0.29261 0.05896 0.0
H3282 H 0.03254 0.28656 0.03387 0.0
H3283 H 0.04392 0.28141 0.04777 0.0
H3284 H 0.05458 0.29714 0.03264 0.0
H3285 H 0.0978 0.36172 0.0668 0.0
H3286 H 0.11186 0.35002 0.09109 0.0
H3287 H 0.06128 0.29075 0.08079 0.0
C3288 C 0.03489 0.32004 0.03577 0.0
C3289 C 0.03701 0.33478 0.02918 0.0
C3290 C 0.05223 0.34988 0.03131 0.0
C3291 C 0.06499 0.35042 0.04059 0.0
C3292 C 0.0624 0.33575 0.04747 0.0
C3293 C 0.04747 0.32045 0.04502 0.0
C3294 C 0.04566 0.30525 0.05386 0.0
C3295 C 0.03115 0.29804 0.06585 0.0
C3296 C 0.04408 0.2918 0.04129 0.0
C3297 C 0.06146 0.31274 0.06327 0.0
C3298 C 0.07316 0.33383 0.05858 0.0
C3299 C 0.09178 0.34859 0.06941 0.0
C3300 C 0.10005 0.34167 0.08522 0.0
C3301 C 0.0895 0.31831 0.08617 0.0
C3302 C 0.068 0.304 0.07861 0.0
H3303 H 0.66229 0.70078 0.04262 0.0
H3304 H 0.69819 0.68727 0.05493 0.0
H3305 H 0.71316 0.71289 0.07284 0.0
H3306 H 0.68999 0.74278 0.03818 0.0
H3307 H 0.67712 0.74996 0.0468 0.0
H3308 H 0.66794 0.72946 0.03709 0.0
H3309 H 0.65193 0.71631 0.06387 0.0
H3310 H 0.661 0.73684 0.07367 0.0
H3311 H 0.66298 0.72084 0.0833 0.0
H3312 H 0.72581 0.74152 0.08678 0.0
H3313 H 0.73496 0.77063 0.09578 0.0
H3314 H 0.69099 0.76539 0.07369 0.0
C3315 C 0.67308 0.70298 0.0494 0.0
C3316 C 0.67905 0.69201 0.04748 0.0
C3317 C 0.69336 0.69548 0.05632 0.0
C3318 C 0.70192 0.70998 0.06653 0.0
C3319 C 0.69594 0.7208 0.06778 0.0
C3320 C 0.68178 0.7174 0.05952 0.0
C3321 C 0.67866 0.73164 0.06174 0.0
C3322 C 0.67843 0.73888 0.04496 0.0
C3323 C 0.6627 0.72607 0.07121 0.0
C3324 C 0.69355 0.74384 0.07213 0.0
C3325 C 0.70326 0.73729 0.0757 0.0
C3326 C 0.71814 0.74665 0.08434 0.0
C3327 C 0.72323 0.76314 0.08941 0.0
C3328 C 0.71348 0.7701 0.08582 0.0
C3329 C 0.69846 0.76025 0.07705 0.0
H3330 H 0.29186 0.95641 0.0248 0.0
H3331 H 0.31473 0.00074 0.05726 0.0
H3332 H 0.29217 0.98668 0.07701 0.0
H3333 H 0.25247 0.94815 0.02909 0.0
H3334 H 0.24235 0.92568 0.0288 0.0
H3335 H 0.2617 0.93775 0.01867 0.0
H3336 H 0.27414 0.92407 0.03609 0.0
H3337 H 0.25473 0.91182 0.04621 0.0
H3338 H 0.27317 0.92483 0.05839 0.0
H3339 H 0.26578 0.96975 0.09122 0.0
H3340 H 0.23689 0.9511 0.09881 0.0
H3341 H 0.23062 0.91731 0.05748 0.0
C3342 C 0.29235 0.96288 0.03635 0.0
C3343 C 0.30508 0.97958 0.03963 0.0
C3344 C 0.30511 0.98791 0.05458 0.0
C3345 C 0.29239 0.98 0.06591 0.0
C3346 C 0.27971 0.96374 0.06211 0.0
C3347 C 0.27959 0.95519 0.04775 0.0
C3348 C 0.26357 0.93854 0.04581 0.0
C3349 C 0.25449 0.93748 0.02964 0.0
C3350 C 0.26659 0.92395 0.04668 0.0
C3351 C 0.2545 0.93943 0.06092 0.0
C3352 C 0.26416 0.95396 0.07028 0.0
C3353 C 0.25814 0.95823 0.08411 0.0
C3354 C 0.24169 0.9476 0.08828 0.0
C3355 C 0.23131 0.93295 0.07854 0.0
C3356 C 0.23807 0.92853 0.06506 0.0
H3357 H 0.34312 0.05367 0.99443 0.0
H3358 H 0.3144 0.00922 0.96297 0.0
H3359 H 0.30557 0.02453 0.94579 0.0
H3360 H 0.31417 0.06552 0.99563 0.0
H3361 H 0.32839 0.08775 0.99525 0.0
H3362 H 0.33485 0.0744 0.00354 0.0
H3363 H 0.35897 0.08577 0.98301 0.0
H3364 H 0.35265 0.09928 0.97472 0.0
H3365 H 0.35485 0.08493 0.96111 0.0
H3366 H 0.29729 0.04317 0.93398 0.0
H3367 H 0.28957 0.06402 0.92856 0.0
H3368 H 0.32346 0.09678 0.96745 0.0
C3369 C 0.33539 0.04737 0.98362 0.0
C3370 C 0.32954 0.03032 0.97991 0.0
C3371 C 0.31904 0.0223 0.96598 0.0
C3372 C 0.31402 0.03091 0.9561 0.0
C3373 C 0.31957 0.04756 0.96031 0.0
C3374 C 0.33008 0.05578 0.97368 0.0
C3375 C 0.33284 0.07319 0.97641 0.0
C3376 C 0.32722 0.07533 0.99373 0.0
C3377 C 0.3509 0.08659 0.97364 0.0
C3378 C 0.32179 0.07317 0.96288 0.0
C3379 C 0.31448 0.05834 0.95361 0.0
C3380 C 0.30303 0.0549 0.94107 0.0
C3381 C 0.29866 0.06678 0.93814 0.0
C3382 C 0.3055 0.08185 0.94785 0.0
C3383 C 0.3177 0.08529 0.95999 0.0
H3384 H 0.97835 0.29594 0.96693 0.0
H3385 H 0.95682 0.28221 0.01545 0.0
H3386 H 0.93938 0.25291 0.00547 0.0
H3387 H 0.94078 0.26836 0.94267 0.0
H3388 H 0.95219 0.26528 0.92653 0.0
H3389 H 0.96157 0.28463 0.93866 0.0
H3390 H 0.98556 0.28061 0.94639 0.0
H3391 H 0.97625 0.26109 0.93465 0.0
H3392 H 0.98134 0.26182 0.95628 0.0
H3393 H 0.92598 0.22006 0.99449 0.0
H3394 H 0.91453 0.19055 0.97288 0.0
H3395 H 0.94632 0.23013 0.92551 0.0
C3396 C 0.96972 0.28667 0.97523 0.0
C3397 C 0.96887 0.29114 0.9919 0.0
C3398 C 0.95751 0.27897 0.00259 0.0
C3399 C 0.94764 0.26231 0.99707 0.0
C3400 C 0.94892 0.25806 0.98071 0.0
C3401 C 0.95953 0.27005 0.96948 0.0
C3402 C 0.95955 0.26348 0.95167 0.0
C3403 C 0.95314 0.27088 0.93915 0.0
C3404 C 0.97669 0.26696 0.94699 0.0
C3405 C 0.94779 0.2451 0.95281 0.0
C3406 C 0.94066 0.2416 0.97307 0.0
C3407 C 0.92902 0.2213 0.9815 0.0
C3408 C 0.92278 0.20295 0.96849 0.0
C3409 C 0.92655 0.20727 0.94592 0.0
C3410 C 0.94261 0.22812 0.93832 0.0
H3411 H 0.69855 0.68765 0.97856 0.0
H3412 H 0.68154 0.63497 0.98221 0.0
H3413 H 0.70486 0.63881 0.96532 0.0
H3414 H 0.71504 0.69264 0.93584 0.0
H3415 H 0.73228 0.71317 0.94101 0.0
H3416 H 0.71301 0.70577 0.95131 0.0
H3417 H 0.72784 0.71151 0.97977 0.0
H3418 H 0.7471 0.71877 0.96958 0.0
H3419 H 0.73979 0.70204 0.98386 0.0
H3420 H 0.73186 0.64908 0.95156 0.0
H3421 H 0.75993 0.66477 0.94062 0.0
H3422 H 0.75924 0.71072 0.94545 0.0
C3423 C 0.69946 0.67682 0.97542 0.0
C3424 C 0.68818 0.66098 0.98161 0.0
C3425 C 0.68999 0.64719 0.97751 0.0
C3426 C 0.70319 0.64925 0.96792 0.0
C3427 C 0.71438 0.66515 0.96244 0.0
C3428 C 0.71257 0.67867 0.9659 0.0
C3429 C 0.72701 0.69467 0.95971 0.0
C3430 C 0.7215 0.70199 0.94616 0.0
C3431 C 0.73596 0.70749 0.97409 0.0
C3432 C 0.73744 0.68812 0.95263 0.0
C3433 C 0.72988 0.67104 0.95423 0.0
C3434 C 0.7377 0.66238 0.94981 0.0
C3435 C 0.75364 0.67139 0.94358 0.0
C3436 C 0.76155 0.68889 0.94164 0.0
C3437 C 0.75327 0.69728 0.94627 0.0
H3438 H 0.97997 0.69349 0.97261 0.0
H3439 H 0.94225 0.64679 0.9928 0.0
H3440 H 0.92092 0.65204 0.98253 0.0
H3441 H 0.96279 0.71658 0.98466 0.0
H3442 H 0.96856 0.72919 0.96662 0.0
H3443 H 0.98058 0.7205 0.97303 0.0
H3444 H 0.97661 0.70618 0.94397 0.0
H3445 H 0.96462 0.71494 0.93741 0.0
H3446 H 0.95615 0.69269 0.93561 0.0
H3447 H 0.90416 0.66417 0.97342 0.0
H3448 H 0.89324 0.68208 0.96603 0.0
H3449 H 0.94193 0.72084 0.95182 0.0
C3450 C 0.9672 0.68412 0.97447 0.0
C3451 C 0.96274 0.66966 0.9834 0.0
C3452 C 0.94593 0.65789 0.98588 0.0
C3453 C 0.93374 0.66076 0.98006 0.0
C3454 C 0.93859 0.6754 0.97172 0.0
C3455 C 0.95493 0.68683 0.96882 0.0
C3456 C 0.95706 0.70231 0.96098 0.0
C3457 C 0.96788 0.71806 0.97198 0.0
C3458 C 0.96402 0.70413 0.94345 0.0
C3459 C 0.93942 0.69807 0.96043 0.0
C3460 C 0.92892 0.68241 0.96648 0.0
C3461 C 0.91221 0.6763 0.96835 0.0
C3462 C 0.90612 0.68655 0.96414 0.0
C3463 C 0.91671 0.70272 0.95815 0.0
C3464 C 0.93352 0.7084 0.95606 0.0
H3465 H 0.31409 0.31493 0.95903 0.0
H3466 H 0.35322 0.31112 0.98187 0.0
H3467 H 0.34185 0.28294 0.96893 0.0
H3468 H 0.2826 0.27392 0.96457 0.0
H3469 H 0.27235 0.27121 0.94496 0.0
H3470 H 0.28435 0.29173 0.95461 0.0
H3471 H 0.30192 0.30262 0.92824 0.0
H3472 H 0.28977 0.28218 0.91838 0.0
H3473 H 0.31177 0.29194 0.91988 0.0
H3474 H 0.32464 0.25416 0.95597 0.0
H3475 H 0.30432 0.22775 0.94142 0.0
H3476 H 0.27707 0.25092 0.92637 0.0
C3477 C 0.32048 0.30832 0.96101 0.0
C3478 C 0.33453 0.3152 0.97145 0.0
C3479 C 0.34248 0.30612 0.97385 0.0
C3480 C 0.33608 0.29008 0.9666 0.0
C3481 C 0.32188 0.28342 0.95684 0.0
C3482 C 0.31434 0.29236 0.95377 0.0
C3483 C 0.29895 0.28214 0.94321 0.0
C3484 C 0.28367 0.2796 0.95239 0.0
C3485 C 0.30072 0.2902 0.92643 0.0
C3486 C 0.2988 0.26592 0.94116 0.0
C3487 C 0.31211 0.26691 0.94914 0.0
C3488 C 0.31426 0.2533 0.94953 0.0
C3489 C 0.30261 0.23834 0.94135 0.0
C3490 C 0.28895 0.23704 0.93289 0.0
C3491 C 0.28716 0.25117 0.93276 0.0
H3492 H 0.71151 0.01571 0.9708 0.0
H3493 H 0.70808 0.05742 0.99078 0.0
H3494 H 0.73364 0.07706 0.97671 0.0
H3495 H 0.75349 0.03423 0.97671 0.0
H3496 H 0.75719 0.02575 0.95797 0.0
H3497 H 0.7374 0.01475 0.9675 0.0
H3498 H 0.72346 0.01496 0.94008 0.0
H3499 H 0.74324 0.02592 0.93041 0.0
H3500 H 0.73011 0.03453 0.93042 0.0
H3501 H 0.76096 0.09225 0.96347 0.0
H3502 H 0.78837 0.102 0.95187 0.0
H3503 H 0.77421 0.05067 0.9399 0.0
C3504 C 0.71594 0.02895 0.97186 0.0
C3505 C 0.70779 0.03506 0.98181 0.0
C3506 C 0.71411 0.05248 0.98318 0.0
C3507 C 0.72859 0.06373 0.97519 0.0
C3508 C 0.73656 0.05737 0.96579 0.0
C3509 C 0.73044 0.04039 0.96399 0.0
C3510 C 0.74214 0.03694 0.95434 0.0
C3511 C 0.7479 0.02736 0.96476 0.0
C3512 C 0.73426 0.02753 0.93783 0.0
C3513 C 0.75603 0.05463 0.95155 0.0
C3514 C 0.75246 0.06621 0.95808 0.0
C3515 C 0.76382 0.08332 0.95809 0.0
C3516 C 0.77936 0.08874 0.95152 0.0
C3517 C 0.78345 0.0771 0.9451 0.0
C3518 C 0.77143 0.05985 0.94474 0.0
H3519 H 0.69611 0.98935 0.03996 0.0
H3520 H 0.64705 0.95355 0.02127 0.0
H3521 H 0.64908 0.93063 0.03306 0.0
H3522 H 0.71328 0.96517 0.03029 0.0
H3523 H 0.72646 0.9715 0.0484 0.0
H3524 H 0.72041 0.98528 0.0404 0.0
H3525 H 0.70875 0.98682 0.06902 0.0
H3526 H 0.71482 0.97305 0.07714 0.0
H3527 H 0.69377 0.96778 0.07854 0.0
H3528 H 0.65747 0.91145 0.04428 0.0
H3529 H 0.67164 0.89735 0.05411 0.0
H3530 H 0.71522 0.94554 0.06563 0.0
C3531 C 0.68565 0.97673 0.03867 0.0
C3532 C 0.67138 0.97323 0.02978 0.0
C3533 C 0.65808 0.95652 0.02809 0.0
C3534 C 0.6591 0.94343 0.03478 0.0
C3535 C 0.67348 0.94726 0.04318 0.0
C3536 C 0.68649 0.96351 0.04522 0.0
C3537 C 0.70102 0.96415 0.05367 0.0
C3538 C 0.71618 0.97198 0.04252 0.0
C3539 C 0.7048 0.9735 0.0706 0.0
C3540 C 0.6943 0.94568 0.05565 0.0
C3541 C 0.67832 0.93617 0.04969 0.0
C3542 C 0.66987 0.91876 0.04924 0.0
C3543 C 0.67801 0.91087 0.05484 0.0
C3544 C 0.69444 0.92036 0.06081 0.0
C3545 C 0.70257 0.938 0.0614 0.0
H3546 H 0.00646 0.70508 0.04814 0.0
H3547 H 0.04465 0.71338 0.01341 0.0
H3548 H 0.06234 0.74197 0.0254 0.0
H3549 H 0.01129 0.7445 0.04704 0.0
H3550 H 0.00792 0.74628 0.0688 0.0
H3551 H 0.99879 0.72598 0.05859 0.0
H3552 H 0.01267 0.71682 0.07991 0.0
H3553 H 0.02162 0.73702 0.09039 0.0
H3554 H 0.03458 0.72934 0.0833 0.0
H3555 H 0.07465 0.77053 0.03933 0.0
H3556 H 0.08165 0.79616 0.05585 0.0
H3557 H 0.0359 0.76851 0.08228 0.0
C3558 C 0.01866 0.71281 0.04326 0.0
C3559 C 0.0242 0.70708 0.02984 0.0
C3560 C 0.04021 0.71753 0.02376 0.0
C3561 C 0.05032 0.73379 0.03044 0.0
C3562 C 0.0443 0.73926 0.04336 0.0
C3563 C 0.02896 0.72897 0.04992 0.0
C3564 C 0.02524 0.73797 0.06355 0.0
C3565 C 0.00991 0.73872 0.05923 0.0
C3566 C 0.02342 0.7298 0.08028 0.0
C3567 C 0.04066 0.75507 0.06328 0.0
C3568 C 0.0515 0.75558 0.05156 0.0
C3569 C 0.06629 0.77025 0.04862 0.0
C3570 C 0.0701 0.78475 0.05795 0.0
C3571 C 0.05913 0.78453 0.07 0.0
C3572 C 0.04437 0.76933 0.07287 0.0
H3573 H 0.31202 0.32367 0.0418 0.0
H3574 H 0.30491 0.35926 0.01557 0.0
H3575 H 0.27803 0.34854 0.02898 0.0
H3576 H 0.27205 0.29012 0.03846 0.0
H3577 H 0.27129 0.28254 0.05888 0.0
H3578 H 0.29064 0.29406 0.04859 0.0
H3579 H 0.30267 0.31543 0.07345 0.0
H3580 H 0.28343 0.3038 0.08397 0.0
H3581 H 0.29205 0.32573 0.08061 0.0
H3582 H 0.2507 0.3318 0.04294 0.0
H3583 H 0.22605 0.31205 0.0584 0.0
H3584 H 0.25193 0.28847 0.07628 0.0
C3585 C 0.30495 0.32944 0.03914 0.0
C3586 C 0.3105 0.34228 0.02767 0.0
C3587 C 0.30092 0.3495 0.02444 0.0
C3588 C 0.28562 0.34344 0.03193 0.0
C3589 C 0.28027 0.33039 0.0428 0.0
C3590 C 0.2898 0.32371 0.04665 0.0
C3591 C 0.28109 0.30949 0.05838 0.0
C3592 C 0.27863 0.29309 0.0506 0.0
C3593 C 0.29036 0.31388 0.07509 0.0
C3594 C 0.26494 0.30882 0.06009 0.0
C3595 C 0.26469 0.32098 0.05104 0.0
C3596 C 0.2508 0.32231 0.05017 0.0
C3597 C 0.23684 0.31097 0.05886 0.0
C3598 C 0.23678 0.29837 0.0682 0.0
C3599 C 0.25123 0.29758 0.06902 0.0
H3600 H 0.68715 0.65409 0.36678 0.0
H3601 H 0.72322 0.70566 0.35664 0.0
H3602 H 0.74471 0.70264 0.37032 0.0
H3603 H 0.70422 0.65284 0.40721 0.0
H3604 H 0.69961 0.63175 0.40336 0.0
H3605 H 0.68684 0.63851 0.39427 0.0
H3606 H 0.69171 0.62961 0.36509 0.0
H3607 H 0.70452 0.62289 0.37407 0.0
H3608 H 0.71243 0.63798 0.35804 0.0
H3609 H 0.76264 0.69321 0.38276 0.0
H3610 H 0.7756 0.67823 0.3935 0.0
H3611 H 0.72778 0.63288 0.39559 0.0
C3612 C 0.6995 0.66485 0.36771 0.0
C3613 C 0.70351 0.68014 0.36072 0.0
C3614 C 0.71987 0.69385 0.36196 0.0
C3615 C 0.73214 0.69226 0.36973 0.0
C3616 C 0.72783 0.6769 0.37622 0.0
C3617 C 0.71189 0.66346 0.37535 0.0
C3618 C 0.71064 0.64803 0.38237 0.0
C3619 C 0.69968 0.64246 0.39772 0.0
C3620 C 0.70446 0.6338 0.3691 0.0
C3621 C 0.72844 0.6548 0.38704 0.0
C3622 C 0.73814 0.67151 0.3835 0.0
C3623 C 0.75512 0.68022 0.38589 0.0
C3624 C 0.76237 0.67163 0.39202 0.0
C3625 C 0.75262 0.65452 0.39583 0.0
C3626 C 0.73545 0.64607 0.39323 0.0
H3627 H 0.33113 0.03494 0.37602 0.0
H3628 H 0.3649 0.02188 0.3967 0.0
H3629 H 0.37877 0.04863 0.41295 0.0
H3630 H 0.3597 0.07711 0.37073 0.0
H3631 H 0.34613 0.08451 0.37634 0.0
H3632 H 0.33782 0.06367 0.36766 0.0
H3633 H 0.31921 0.05151 0.39317 0.0
H3634 H 0.32739 0.07235 0.4019 0.0
H3635 H 0.32831 0.05681 0.41368 0.0
H3636 H 0.39059 0.07787 0.42472 0.0
H3637 H 0.39879 0.10706 0.4321 0.0
H3638 H 0.35702 0.1008 0.40412 0.0
C3639 C 0.34126 0.03757 0.38419 0.0
C3640 C 0.34694 0.02635 0.38514 0.0
C3641 C 0.36031 0.03028 0.39586 0.0
C3642 C 0.36826 0.04544 0.40512 0.0
C3643 C 0.36258 0.05641 0.40364 0.0
C3644 C 0.34928 0.05259 0.39356 0.0
C3645 C 0.34607 0.06685 0.39357 0.0
C3646 C 0.34753 0.07342 0.37603 0.0
C3647 C 0.32925 0.06156 0.40103 0.0
C3648 C 0.35993 0.07947 0.40484 0.0
C3649 C 0.36925 0.07317 0.41062 0.0
C3650 C 0.38322 0.08284 0.42052 0.0
C3651 C 0.38779 0.09938 0.42464 0.0
C3652 C 0.37838 0.10607 0.41892 0.0
C3653 C 0.36425 0.0959 0.40892 0.0
H3654 H 0.97465 0.32218 0.38017 0.0
H3655 H 0.96621 0.28564 0.34099 0.0
H3656 H 0.94046 0.26498 0.35405 0.0
H3657 H 0.96165 0.29358 0.41237 0.0
H3658 H 0.95213 0.30273 0.42447 0.0
H3659 H 0.96886 0.31551 0.41105 0.0
H3660 H 0.95075 0.32455 0.39617 0.0
H3661 H 0.93396 0.31181 0.40958 0.0
H3662 H 0.93113 0.30882 0.3874 0.0
H3663 H 0.91686 0.24775 0.37187 0.0
H3664 H 0.89731 0.23429 0.3945 0.0
H3665 H 0.92103 0.28152 0.42278 0.0
C3666 C 0.96715 0.30993 0.37423 0.0
C3667 C 0.97227 0.30548 0.35953 0.0
C3668 C 0.96245 0.28924 0.35227 0.0
C3669 C 0.94777 0.27746 0.35953 0.0
C3670 C 0.94315 0.28206 0.37417 0.0
C3671 C 0.95253 0.29785 0.38153 0.0
C3672 C 0.94543 0.29893 0.39806 0.0
C3673 C 0.95775 0.30292 0.41232 0.0
C3674 C 0.93999 0.31179 0.39778 0.0
C3675 C 0.93078 0.28125 0.39885 0.0
C3676 C 0.92963 0.27183 0.38484 0.0
C3677 C 0.91758 0.25499 0.38292 0.0
C3678 C 0.90658 0.24745 0.39584 0.0
C3679 C 0.90778 0.25661 0.41062 0.0
C3680 C 0.9198 0.27393 0.41187 0.0
H3681 H 0.03037 0.38344 0.31705 0.0
H3682 H 0.9905 0.33964 0.29156 0.0
H3683 H 0.98798 0.35784 0.27176 0.0
H3684 H 0.01356 0.40939 0.31382 0.0
H3685 H 0.03299 0.42822 0.31054 0.0
H3686 H 0.03222 0.41175 0.3222 0.0
H3687 H 0.05305 0.41052 0.30233 0.0
H3688 H 0.05398 0.42708 0.29068 0.0
H3689 H 0.04873 0.40753 0.28034 0.0
H3690 H 0.98926 0.38091 0.2553 0.0
H3691 H 0.99467 0.40715 0.24301 0.0
H3692 H 0.03359 0.43578 0.27938 0.0
C3693 C 0.02121 0.37764 0.30721 0.0
C3694 C 0.01064 0.36011 0.30582 0.0
C3695 C 0.99875 0.35304 0.29283 0.0
C3696 C 0.99722 0.36328 0.28154 0.0
C3697 C 0.00768 0.38053 0.28341 0.0
C3698 C 0.01951 0.38766 0.29587 0.0
C3699 C 0.02901 0.40656 0.29536 0.0
C3700 C 0.02681 0.41443 0.31144 0.0
C3701 C 0.04727 0.41331 0.29197 0.0
C3702 C 0.02059 0.40896 0.28077 0.0
C3703 C 0.00834 0.3938 0.27403 0.0
C3704 C 0.9988 0.39285 0.26049 0.0
C3705 C 0.0019 0.40779 0.25366 0.0
C3706 C 0.01434 0.42348 0.26044 0.0
C3707 C 0.02385 0.42398 0.2741 0.0
H3708 H 0.66085 0.63564 0.30419 0.0
H3709 H 0.63147 0.65859 0.30034 0.0
H3710 H 0.61113 0.63464 0.28291 0.0
H3711 H 0.65035 0.61367 0.26203 0.0
H3712 H 0.64927 0.5954 0.27013 0.0
H3713 H 0.66317 0.61575 0.27945 0.0
H3714 H 0.65 0.60511 0.30799 0.0
H3715 H 0.63594 0.58483 0.29876 0.0
H3716 H 0.62817 0.59611 0.31019 0.0
H3717 H 0.59206 0.60687 0.27027 0.0
H3718 H 0.57567 0.57713 0.26183 0.0
H3719 H 0.61692 0.57135 0.27352 0.0
C3720 C 0.65046 0.63585 0.29905 0.0
C3721 C 0.64777 0.64898 0.30328 0.0
C3722 C 0.63374 0.64865 0.29704 0.0
C3723 C 0.62216 0.63513 0.28712 0.0
C3724 C 0.62476 0.62201 0.28366 0.0
C3725 C 0.6386 0.62225 0.28932 0.0
C3726 C 0.63735 0.60564 0.28553 0.0
C3727 C 0.65084 0.60775 0.27357 0.0
C3728 C 0.63789 0.59745 0.30157 0.0
C3729 C 0.62052 0.59597 0.27726 0.0
C3730 C 0.61357 0.60573 0.2762 0.0
C3731 C 0.59752 0.59921 0.27053 0.0
C3732 C 0.5883 0.58227 0.26575 0.0
C3733 C 0.59522 0.57201 0.26645 0.0
C3734 C 0.61155 0.57903 0.27231 0.0
H3735 H 0.36803 0.0068 0.31996 0.0
H3736 H 0.34874 0.95675 0.33756 0.0
H3737 H 0.36968 0.95441 0.32137 0.0
H3738 H 0.37865 0.99921 0.27825 0.0
H3739 H 0.39703 0.0196 0.27796 0.0
H3740 H 0.3796 0.01658 0.28968 0.0
H3741 H 0.39795 0.02864 0.31616 0.0
H3742 H 0.41541 0.03169 0.30455 0.0
H3743 H 0.40951 0.01945 0.32285 0.0
H3744 H 0.39425 0.95861 0.30482 0.0
H3745 H 0.4203 0.96904 0.28972 0.0
H3746 H 0.42318 0.01633 0.28343 0.0
C3747 C 0.36802 0.99522 0.32025 0.0
C3748 C 0.35672 0.98192 0.32998 0.0
C3749 C 0.35725 0.96707 0.33013 0.0
C3750 C 0.36907 0.96563 0.32096 0.0
C3751 C 0.38019 0.97912 0.31167 0.0
C3752 C 0.37969 0.9936 0.31124 0.0
C3753 C 0.39353 0.00669 0.30113 0.0
C3754 C 0.38679 0.01075 0.28585 0.0
C3755 C 0.40476 0.02254 0.31181 0.0
C3756 C 0.40216 0.99747 0.29621 0.0
C3757 C 0.39422 0.98152 0.30222 0.0
C3758 C 0.40041 0.97098 0.29984 0.0
C3759 C 0.41517 0.97698 0.29123 0.0
C3760 C 0.42355 0.99336 0.28511 0.0
C3761 C 0.41685 0.00363 0.28763 0.0
H3762 H 0.65261 0.01163 0.31259 0.0
H3763 H 0.62801 0.95757 0.30885 0.0
H3764 H 0.60858 0.95685 0.28807 0.0
H3765 H 0.61637 0.01316 0.31133 0.0
H3766 H 0.62497 0.03187 0.29961 0.0
H3767 H 0.63807 0.02835 0.31274 0.0
H3768 H 0.65654 0.03155 0.28776 0.0
H3769 H 0.64357 0.03523 0.27457 0.0
H3770 H 0.64745 0.01874 0.2692 0.0
H3771 H 0.59147 0.96201 0.26827 0.0
H3772 H 0.57699 0.97248 0.2519 0.0
H3773 H 0.61158 0.02304 0.27006 0.0
C3774 C 0.64335 0.99969 0.30711 0.0
C3775 C 0.64189 0.98466 0.3121 0.0
C3776 C 0.62935 0.96922 0.30506 0.0
C3777 C 0.6183 0.96869 0.29326 0.0
C3778 C 0.61986 0.98372 0.28881 0.0
C3779 C 0.63203 0.99892 0.29556 0.0
C3780 C 0.63028 0.01313 0.28961 0.0
C3781 C 0.62724 0.02215 0.30419 0.0
C3782 C 0.64536 0.02538 0.27969 0.0
C3783 C 0.61518 0.00352 0.27853 0.0
C3784 C 0.60948 0.9866 0.27808 0.0
C3785 C 0.59574 0.97522 0.26862 0.0
C3786 C 0.58753 0.98127 0.25946 0.0
C3787 C 0.59287 0.99853 0.26012 0.0
C3788 C 0.60703 0.00975 0.26962 0.0
H3789 H 0.98861 0.64094 0.30499 0.0
H3790 H 0.03784 0.65539 0.321 0.0
H3791 H 0.03375 0.62883 0.30929 0.0
H3792 H 0.97009 0.60017 0.31605 0.0
H3793 H 0.95579 0.59112 0.29881 0.0
H3794 H 0.96343 0.61243 0.30556 0.0
H3795 H 0.97384 0.62234 0.27601 0.0
H3796 H 0.96609 0.60099 0.2691 0.0
H3797 H 0.98736 0.61662 0.26615 0.0
H3798 H 0.0231 0.59943 0.30007 0.0
H3799 H 0.00667 0.56916 0.29333 0.0
H3800 H 0.96444 0.57348 0.2824 0.0
C3801 C 0.9987 0.63872 0.30551 0.0
C3802 C 0.01358 0.65024 0.31381 0.0
C3803 C 0.02636 0.64675 0.31466 0.0
C3804 C 0.02417 0.63172 0.30799 0.0
C3805 C 0.00917 0.62034 0.3004 0.0
C3806 C 0.99668 0.62369 0.29896 0.0
C3807 C 0.9812 0.60862 0.29174 0.0
C3808 C 0.96679 0.60274 0.30376 0.0
C3809 C 0.97687 0.61237 0.27473 0.0
C3810 C 0.98674 0.59609 0.29008 0.0
C3811 C 0.00299 0.6032 0.29493 0.0
C3812 C 0.01047 0.59379 0.29592 0.0
C3813 C 0.00103 0.5766 0.29212 0.0
C3814 C 0.98427 0.56896 0.28743 0.0
C3815 C 0.97722 0.57898 0.28594 0.0
H3816 H 0.35755 0.34609 0.30109 0.0
H3817 H 0.36907 0.38782 0.33495 0.0
H3818 H 0.39583 0.40485 0.32144 0.0
H3819 H 0.39609 0.35097 0.29958 0.0
H3820 H 0.3956 0.34601 0.27774 0.0
H3821 H 0.37673 0.33756 0.28896 0.0
H3822 H 0.36569 0.35032 0.2684 0.0
H3823 H 0.38444 0.35859 0.25693 0.0
H3824 H 0.37771 0.37235 0.2646 0.0
H3825 H 0.42252 0.41605 0.30644 0.0
H3826 H 0.44612 0.42174 0.28894 0.0
H3827 H 0.41623 0.37326 0.26377 0.0
C3828 C 0.36558 0.35893 0.30541 0.0
C3829 C 0.36132 0.36568 0.31903 0.0
C3830 C 0.37209 0.38249 0.32441 0.0
C3831 C 0.38732 0.39222 0.31687 0.0
C3832 C 0.39138 0.38505 0.30375 0.0
C3833 C 0.38067 0.36892 0.29779 0.0
C3834 C 0.3881 0.36412 0.28367 0.0
C3835 C 0.38919 0.34876 0.28775 0.0
C3836 C 0.37841 0.36117 0.26744 0.0
C3837 C 0.40494 0.37976 0.28314 0.0
C3838 C 0.40659 0.3917 0.29479 0.0
C3839 C 0.42131 0.40686 0.29714 0.0
C3840 C 0.43467 0.40992 0.28726 0.0
C3841 C 0.4333 0.39789 0.27521 0.0
C3842 C 0.41804 0.38272 0.27299 0.0
H3843 H 0.31982 0.29103 0.36496 0.0
H3844 H 0.35596 0.33816 0.38901 0.0
H3845 H 0.3667 0.32364 0.40481 0.0
H3846 H 0.31273 0.2644 0.40095 0.0
H3847 H 0.31096 0.24746 0.38799 0.0
H3848 H 0.30478 0.2612 0.38005 0.0
H3849 H 0.32442 0.26767 0.35535 0.0
H3850 H 0.33075 0.25408 0.36327 0.0
H3851 H 0.34587 0.27553 0.35939 0.0
H3852 H 0.37573 0.30487 0.41531 0.0
H3853 H 0.38153 0.28267 0.421 0.0
H3854 H 0.33926 0.24743 0.39076 0.0
C3855 C 0.32971 0.2982 0.37387 0.0
C3856 C 0.33701 0.3157 0.37583 0.0
C3857 C 0.35015 0.32473 0.38735 0.0
C3858 C 0.35633 0.3166 0.3964 0.0
C3859 C 0.34918 0.29941 0.39386 0.0
C3860 C 0.33607 0.29027 0.38299 0.0
C3861 C 0.3314 0.27213 0.38173 0.0
C3862 C 0.31393 0.26062 0.38806 0.0
C3863 C 0.33323 0.26707 0.36388 0.0
C3864 C 0.34416 0.27262 0.39329 0.0
C3865 C 0.35424 0.28846 0.4002 0.0
C3866 C 0.36767 0.2923 0.41032 0.0
C3867 C 0.37085 0.2796 0.4135 0.0
C3868 C 0.36051 0.26317 0.40676 0.0
C3869 C 0.34704 0.25974 0.39649 0.0
H3870 H 0.70858 0.03316 0.36893 0.0
H3871 H 0.65938 0.01929 0.38373 0.0
H3872 H 0.67025 0.04763 0.39631 0.0
H3873 H 0.73131 0.0626 0.40485 0.0
H3874 H 0.74771 0.07669 0.39171 0.0
H3875 H 0.73655 0.05454 0.38681 0.0
H3876 H 0.72973 0.06009 0.35753 0.0
H3877 H 0.74074 0.08217 0.36235 0.0
H3878 H 0.71957 0.07175 0.35556 0.0
H3879 H 0.68593 0.07848 0.40382 0.0
H3880 H 0.7049 0.10917 0.40512 0.0
H3881 H 0.74351 0.1028 0.38453 0.0
C3882 C 0.70015 0.03589 0.37528 0.0
C3883 C 0.68315 0.02399 0.37549 0.0
C3884 C 0.67247 0.02819 0.38355 0.0
C3885 C 0.67855 0.04424 0.39075 0.0
C3886 C 0.69533 0.05589 0.38982 0.0
C3887 C 0.70598 0.05186 0.38235 0.0
C3888 C 0.7231 0.06704 0.38124 0.0
C3889 C 0.73539 0.0651 0.39179 0.0
C3890 C 0.72859 0.07046 0.36309 0.0
C3891 C 0.72029 0.0804 0.38865 0.0
C3892 C 0.70429 0.0737 0.39385 0.0
C3893 C 0.69856 0.08381 0.40008 0.0
C3894 C 0.70939 0.1012 0.40078 0.0
C3895 C 0.72571 0.1083 0.39513 0.0
C3896 C 0.73121 0.09769 0.38923 0.0
H3897 H 0.9746 0.6576 0.36962 0.0
H3898 H 0.98643 0.70667 0.35452 0.0
H3899 H 0.96048 0.70193 0.36639 0.0
H3900 H 0.93307 0.63706 0.35896 0.0
H3901 H 0.92601 0.62322 0.37608 0.0
H3902 H 0.94644 0.63125 0.36844 0.0
H3903 H 0.95852 0.64315 0.39783 0.0
H3904 H 0.93808 0.6351 0.40559 0.0
H3905 H 0.95332 0.65698 0.40851 0.0
H3906 H 0.93221 0.69088 0.37719 0.0
H3907 H 0.90336 0.67412 0.38586 0.0
H3908 H 0.90967 0.63218 0.39416 0.0
C3909 C 0.9719 0.6675 0.36916 0.0
C3910 C 0.98258 0.68256 0.36125 0.0
C3911 C 0.97846 0.69506 0.36057 0.0
C3912 C 0.96377 0.69251 0.36733 0.0
C3913 C 0.95335 0.67739 0.37475 0.0
C3914 C 0.95723 0.66511 0.37576 0.0
C3915 C 0.94329 0.64948 0.38318 0.0
C3916 C 0.93683 0.63437 0.37093 0.0
C3917 C 0.94863 0.64598 0.39977 0.0
C3918 C 0.93079 0.65475 0.38574 0.0
C3919 C 0.93693 0.67097 0.38098 0.0
C3920 C 0.92734 0.67826 0.38119 0.0
C3921 C 0.91097 0.66864 0.38612 0.0
C3922 C 0.90431 0.65189 0.39076 0.0
C3923 C 0.9145 0.64501 0.39085 0.0
H3924 H 0.35085 0.98635 0.71265 0.0
H3925 H 0.37713 0.04041 0.71277 0.0
H3926 H 0.39609 0.04184 0.73447 0.0
H3927 H 0.35391 0.98067 0.75614 0.0
H3928 H 0.35579 0.96267 0.75199 0.0
H3929 H 0.34445 0.96761 0.7378 0.0
H3930 H 0.36257 0.96789 0.71389 0.0
H3931 H 0.37436 0.96334 0.72783 0.0
H3932 H 0.38453 0.98159 0.71541 0.0
H3933 H 0.41661 0.04131 0.75879 0.0
H3934 H 0.43415 0.0298 0.77839 0.0
H3935 H 0.3904 0.96955 0.75892 0.0
C3936 C 0.36048 0.99842 0.71752 0.0
C3937 C 0.36254 0.01326 0.71122 0.0
C3938 C 0.37536 0.0289 0.71752 0.0
C3939 C 0.38615 0.02983 0.72984 0.0
C3940 C 0.38412 0.01504 0.73564 0.0
C3941 C 0.37144 0.99925 0.72962 0.0
C3942 C 0.37116 0.98389 0.73649 0.0
C3943 C 0.35539 0.97308 0.74618 0.0
C3944 C 0.37328 0.97358 0.72258 0.0
C3945 C 0.38577 0.99176 0.74792 0.0
C3946 C 0.39452 0.01333 0.74727 0.0
C3947 C 0.41213 0.02811 0.75936 0.0
C3948 C 0.42263 0.02106 0.77218 0.0
C3949 C 0.41563 0.99841 0.76855 0.0
C3950 C 0.39477 0.98276 0.76002 0.0
H3951 H 0.00545 0.36003 0.71485 0.0
H3952 H 0.95786 0.33919 0.69044 0.0
H3953 H 0.95059 0.35475 0.71026 0.0
H3954 H 0.99114 0.35964 0.75687 0.0
H3955 H 0.00919 0.37917 0.7632 0.0
H3956 H 0.01061 0.36591 0.74744 0.0
H3957 H 0.02307 0.39041 0.72731 0.0
H3958 H 0.02167 0.40374 0.74299 0.0
H3959 H 0.01209 0.40086 0.72295 0.0
H3960 H 0.94835 0.37255 0.73226 0.0
H3961 H 0.95171 0.39238 0.75506 0.0
H3962 H 0.00081 0.40231 0.76511 0.0
C3963 C 0.99349 0.35869 0.71376 0.0
C3964 C 0.98221 0.34837 0.70113 0.0
C3965 C 0.96669 0.34699 0.70004 0.0
C3966 C 0.96242 0.35576 0.71125 0.0
C3967 C 0.97379 0.36588 0.72349 0.0
C3968 C 0.989 0.36743 0.72486 0.0
C3969 C 0.99902 0.37948 0.73901 0.0
C3970 C 0.0027 0.37051 0.75243 0.0
C3971 C 0.0149 0.39451 0.73268 0.0
C3972 C 0.98712 0.3846 0.74516 0.0
C3973 C 0.9726 0.37649 0.7361 0.0
C3974 C 0.9597 0.37907 0.73942 0.0
C3975 C 0.96173 0.39039 0.75231 0.0
C3976 C 0.97665 0.39914 0.76155 0.0
C3977 C 0.98939 0.396 0.75804 0.0
H3978 H 0.64178 0.66002 0.71296 0.0
H3979 H 0.64278 0.62328 0.67947 0.0
H3980 H 0.62085 0.60063 0.69518 0.0
H3981 H 0.63571 0.63762 0.7498 0.0
H3982 H 0.62208 0.64343 0.75919 0.0
H3983 H 0.63727 0.65703 0.74478 0.0
H3984 H 0.61445 0.65642 0.7268 0.0
H3985 H 0.59918 0.64278 0.74115 0.0
H3986 H 0.59731 0.63661 0.7195 0.0
H3987 H 0.59992 0.58193 0.71478 0.0
H3988 H 0.58148 0.56803 0.73801 0.0
H3989 H 0.59315 0.61634 0.75903 0.0
C3990 C 0.63727 0.64721 0.70889 0.0
C3991 C 0.64399 0.64343 0.69497 0.0
C3992 C 0.63786 0.62651 0.6901 0.0
C3993 C 0.62534 0.61352 0.6989 0.0
C3994 C 0.61902 0.61761 0.71257 0.0
C3995 C 0.62473 0.634 0.71761 0.0
C3996 C 0.61615 0.63478 0.7332 0.0
C3997 C 0.62854 0.64375 0.74759 0.0
C3998 C 0.60618 0.64314 0.72996 0.0
C3999 C 0.60497 0.61629 0.73621 0.0
C4000 C 0.6068 0.60666 0.72406 0.0
C4001 C 0.59832 0.5893 0.72436 0.0
C4002 C 0.58788 0.58153 0.73762 0.0
C4003 C 0.58604 0.59108 0.75049 0.0
C4004 C 0.59443 0.6087 0.7495 0.0
H4005 H 0.64993 0.69144 0.64031 0.0
H4006 H 0.69809 0.72882 0.65961 0.0
H4007 H 0.69298 0.75108 0.65255 0.0
H4008 H 0.64769 0.71606 0.60584 0.0
H4009 H 0.62586 0.70654 0.60852 0.0
H4010 H 0.63577 0.69503 0.61295 0.0
H4011 H 0.6237 0.68994 0.6423 0.0
H4012 H 0.61418 0.70184 0.63835 0.0
H4013 H 0.62809 0.70755 0.65579 0.0
H4014 H 0.68256 0.77288 0.65345 0.0
H4015 H 0.66222 0.78753 0.65105 0.0
H4016 H 0.61598 0.73048 0.62696 0.0
C4017 C 0.65947 0.70438 0.64256 0.0
C4018 C 0.67436 0.70844 0.65052 0.0
C4019 C 0.68658 0.72541 0.65353 0.0
C4020 C 0.68382 0.73817 0.64953 0.0
C4021 C 0.66885 0.73391 0.64232 0.0
C4022 C 0.65659 0.71718 0.63855 0.0
C4023 C 0.64014 0.71436 0.63172 0.0
C4024 C 0.63719 0.7076 0.61369 0.0
C4025 C 0.62569 0.70274 0.64269 0.0
C4026 C 0.64284 0.73165 0.63256 0.0
C4027 C 0.66297 0.74504 0.63969 0.0
C4028 C 0.67048 0.76583 0.64774 0.0
C4029 C 0.65755 0.77458 0.64747 0.0
C4030 C 0.63798 0.76162 0.63532 0.0
C4031 C 0.62844 0.73853 0.6315 0.0
H4032 H 0.30091 0.97188 0.63861 0.0
H4033 H 0.34679 0.97419 0.64835 0.0
H4034 H 0.33725 0.94834 0.63135 0.0
H4035 H 0.27369 0.92851 0.63947 0.0
H4036 H 0.26061 0.92799 0.62306 0.0
H4037 H 0.27213 0.94658 0.63606 0.0
H4038 H 0.28557 0.96416 0.61046 0.0
H4039 H 0.27402 0.94581 0.59714 0.0
H4040 H 0.2961 0.95802 0.59596 0.0
H4041 H 0.32504 0.91941 0.61187 0.0
H4042 H 0.30306 0.88959 0.59209 0.0
H4043 H 0.26084 0.90872 0.59427 0.0
C4044 C 0.30886 0.96686 0.63699 0.0
C4045 C 0.3245 0.97487 0.64478 0.0
C4046 C 0.33478 0.96825 0.64241 0.0
C4047 C 0.32945 0.95354 0.63285 0.0
C4048 C 0.3139 0.94569 0.62551 0.0
C4049 C 0.30356 0.95227 0.62711 0.0
C4050 C 0.28687 0.94251 0.61773 0.0
C4051 C 0.27248 0.93602 0.6298 0.0
C4052 C 0.28556 0.95327 0.60455 0.0
C4053 C 0.28751 0.92823 0.60966 0.0
C4054 C 0.30616 0.93048 0.61552 0.0
C4055 C 0.31299 0.91686 0.60831 0.0
C4056 C 0.29985 0.89888 0.59522 0.0
C4057 C 0.27836 0.89441 0.59331 0.0
C4058 C 0.27303 0.91099 0.59663 0.0
H4059 H 0.03619 0.32471 0.65363 0.0
H4060 H 0.02187 0.35832 0.63462 0.0
H4061 H 0.04773 0.37295 0.61927 0.0
H4062 H 0.07811 0.35487 0.66009 0.0
H4063 H 0.08557 0.34136 0.65373 0.0
H4064 H 0.06538 0.3326 0.66228 0.0
H4065 H 0.05276 0.3133 0.63603 0.0
H4066 H 0.07295 0.32199 0.62742 0.0
H4067 H 0.05695 0.32236 0.61591 0.0
H4068 H 0.07584 0.38534 0.6078 0.0
H4069 H 0.10436 0.39436 0.60038 0.0
H4070 H 0.10045 0.35239 0.62598 0.0
C4071 C 0.0384 0.33499 0.64605 0.0
C4072 C 0.02698 0.34035 0.64531 0.0
C4073 C 0.0304 0.35396 0.63536 0.0
C4074 C 0.04506 0.36235 0.62657 0.0
C4075 C 0.05614 0.35692 0.62774 0.0
C4076 C 0.05298 0.3435 0.63712 0.0
C4077 C 0.0673 0.34066 0.63674 0.0
C4078 C 0.07451 0.34249 0.65425 0.0
C4079 C 0.06218 0.32356 0.62853 0.0
C4080 C 0.07911 0.35482 0.62599 0.0
C4081 C 0.07238 0.36398 0.62088 0.0
C4082 C 0.08119 0.37815 0.61153 0.0
C4083 C 0.09737 0.38317 0.60739 0.0
C4084 C 0.1046 0.37405 0.61254 0.0
C4085 C 0.09521 0.35955 0.62179 0.0
H4086 H 0.32612 0.36171 0.64414 0.0
H4087 H 0.28257 0.32124 0.66621 0.0
H4088 H 0.2653 0.32909 0.6508 0.0
H4089 H 0.3139 0.39131 0.64547 0.0
H4090 H 0.32251 0.40004 0.62577 0.0
H4091 H 0.33135 0.39064 0.63773 0.0
H4092 H 0.32741 0.37063 0.61283 0.0
H4093 H 0.3187 0.38009 0.60073 0.0
H4094 H 0.30734 0.35783 0.60338 0.0
H4095 H 0.25309 0.34275 0.63468 0.0
H4096 H 0.24654 0.35985 0.61729 0.0
H4097 H 0.29822 0.39076 0.60534 0.0
C4098 C 0.31294 0.35437 0.64559 0.0
C4099 C 0.30567 0.34088 0.65637 0.0
C4100 C 0.28838 0.33158 0.65794 0.0
C4101 C 0.27848 0.33597 0.64928 0.0
C4102 C 0.28607 0.34955 0.63899 0.0
C4103 C 0.30288 0.35847 0.63694 0.0
C4104 C 0.30801 0.37267 0.62531 0.0
C4105 C 0.31962 0.38967 0.6341 0.0
C4106 C 0.31582 0.37015 0.60963 0.0
C4107 C 0.29148 0.37057 0.62142 0.0
C4108 C 0.27899 0.35717 0.62942 0.0
C4109 C 0.26275 0.35313 0.62816 0.0
C4110 C 0.25916 0.36293 0.61829 0.0
C4111 C 0.27169 0.37655 0.60966 0.0
C4112 C 0.28813 0.38041 0.61143 0.0
H4113 H 0.6452 0.97959 0.62766 0.0
H4114 H 0.68059 0.97484 0.6571 0.0
H4115 H 0.66865 0.94578 0.64659 0.0
H4116 H 0.61121 0.93864 0.63314 0.0
H4117 H 0.60331 0.9357 0.61224 0.0
H4118 H 0.61492 0.95642 0.62159 0.0
H4119 H 0.63526 0.96594 0.59722 0.0
H4120 H 0.62361 0.94529 0.58771 0.0
H4121 H 0.64525 0.9545 0.59193 0.0
H4122 H 0.652 0.91686 0.63432 0.0
H4123 H 0.63306 0.89043 0.61901 0.0
H4124 H 0.60919 0.91429 0.5967 0.0
C4125 C 0.65052 0.97247 0.63175 0.0
C4126 C 0.66379 0.97945 0.64323 0.0
C4127 C 0.67043 0.96976 0.6483 0.0
C4128 C 0.66371 0.95321 0.64244 0.0
C4129 C 0.65045 0.94659 0.63139 0.0
C4130 C 0.64405 0.95594 0.62589 0.0
C4131 C 0.62979 0.94574 0.61391 0.0
C4132 C 0.61387 0.94403 0.62063 0.0
C4133 C 0.63372 0.95332 0.59667 0.0
C4134 C 0.62907 0.92917 0.61373 0.0
C4135 C 0.64105 0.92993 0.62397 0.0
C4136 C 0.64263 0.91613 0.62616 0.0
C4137 C 0.63178 0.90117 0.61749 0.0
C4138 C 0.61954 0.90006 0.60665 0.0
C4139 C 0.61824 0.91438 0.60482 0.0
H4140 H 0.02494 0.7096 0.65833 0.0
H4141 H 0.01771 0.66142 0.64265 0.0
H4142 H 0.045 0.67565 0.62953 0.0
H4143 H 0.0477 0.7327 0.62195 0.0
H4144 H 0.06113 0.75131 0.63428 0.0
H4145 H 0.04041 0.73732 0.64082 0.0
H4146 H 0.05149 0.7347 0.66915 0.0
H4147 H 0.07221 0.74859 0.66269 0.0
H4148 H 0.06625 0.72812 0.66963 0.0
H4149 H 0.07421 0.69525 0.62043 0.0
H4150 H 0.10258 0.7185 0.61575 0.0
H4151 H 0.09035 0.75359 0.63757 0.0
C4152 C 0.02893 0.70202 0.65186 0.0
C4153 C 0.01918 0.6844 0.65142 0.0
C4154 C 0.02496 0.67494 0.64305 0.0
C4155 C 0.04043 0.68292 0.63557 0.0
C4156 C 0.0499 0.70034 0.63654 0.0
C4157 C 0.0443 0.70976 0.64442 0.0
C4158 C 0.05718 0.72821 0.6447 0.0
C4159 C 0.05125 0.73795 0.63485 0.0
C4160 C 0.06207 0.73531 0.6626 0.0
C4161 C 0.07103 0.72772 0.63601 0.0
C4162 C 0.06659 0.71156 0.63128 0.0
C4163 C 0.07771 0.70797 0.62382 0.0
C4164 C 0.09377 0.72123 0.62117 0.0
C4165 C 0.09852 0.73788 0.62592 0.0
C4166 C 0.08694 0.74105 0.63343 0.0
H4167 H 0.00225 0.65316 0.72021 0.0
H4168 H 0.95641 0.61404 0.69763 0.0
H4169 H 0.9581 0.59305 0.71379 0.0
H4170 H 0.02241 0.63092 0.7198 0.0
H4171 H 0.03268 0.63898 0.73961 0.0
H4172 H 0.02711 0.65123 0.7276 0.0
H4173 H 0.01074 0.65335 0.75231 0.0
H4174 H 0.01638 0.64121 0.76447 0.0
H4175 H 0.99505 0.63452 0.76158 0.0
H4176 H 0.96623 0.57602 0.73002 0.0
H4177 H 0.97913 0.56429 0.7469 0.0
H4178 H 0.01947 0.61463 0.7592 0.0
C4179 C 0.99239 0.64023 0.71893 0.0
C4180 C 0.97917 0.63526 0.70769 0.0
C4181 C 0.96661 0.61818 0.70623 0.0
C4182 C 0.96747 0.60614 0.71535 0.0
C4183 C 0.98087 0.61139 0.72599 0.0
C4184 C 0.993 0.62805 0.72801 0.0
C4185 C 0.00642 0.63027 0.73978 0.0
C4186 C 0.02314 0.63832 0.73117 0.0
C4187 C 0.00719 0.64044 0.75546 0.0
C4188 C 1.00018 0.61222 0.74364 0.0
C4189 C 0.98538 0.60156 0.73565 0.0
C4190 C 0.97762 0.58428 0.73668 0.0
C4191 C 0.98505 0.57774 0.74634 0.0
C4192 C 1.00003 0.5884 0.7551 0.0
C4193 C 0.00777 0.60592 0.75334 0.0
H4194 H 0.37974 0.37656 0.70053 0.0
H4195 H 0.33679 0.36552 0.72908 0.0
H4196 H 0.35229 0.39347 0.74293 0.0
H4197 H 0.41159 0.40402 0.73304 0.0
H4198 H 0.42501 0.41793 0.71762 0.0
H4199 H 0.41165 0.396 0.71244 0.0
H4200 H 0.39939 0.40345 0.6879 0.0
H4201 H 0.41256 0.42533 0.69307 0.0
H4202 H 0.39064 0.41631 0.6918 0.0
H4203 H 0.37062 0.42391 0.74993 0.0
H4204 H 0.39074 0.45424 0.75027 0.0
H4205 H 0.42197 0.44564 0.71742 0.0
C4206 C 0.3738 0.37979 0.71015 0.0
C4207 C 0.35711 0.36884 0.71385 0.0
C4208 C 0.3496 0.3737 0.72615 0.0
C4209 C 0.35833 0.38954 0.7341 0.0
C4210 C 0.37457 0.40033 0.72969 0.0
C4211 C 0.38231 0.39561 0.71812 0.0
C4212 C 0.39918 0.41016 0.71418 0.0
C4213 C 0.41266 0.40682 0.71966 0.0
C4214 C 0.4005 0.41403 0.69565 0.0
C4215 C 0.39947 0.42393 0.72484 0.0
C4216 C 0.38526 0.41797 0.73386 0.0
C4217 C 0.38202 0.42865 0.74332 0.0
C4218 C 0.39353 0.44587 0.74346 0.0
C4219 C 0.40818 0.45224 0.73428 0.0
C4220 C 0.41116 0.44104 0.725 0.0
H4221 H 0.63888 0.00344 0.6992 0.0
H4222 H 0.65978 0.05323 0.6803 0.0
H4223 H 0.63793 0.05594 0.69388 0.0
H4224 H 0.59787 0.99114 0.6922 0.0
H4225 H 0.5901 0.9791 0.71056 0.0
H4226 H 0.60845 0.9818 0.70114 0.0
H4227 H 0.62438 0.99399 0.72897 0.0
H4228 H 0.60604 0.99128 0.73851 0.0
H4229 H 0.6246 0.01156 0.73914 0.0
H4230 H 0.6126 0.05231 0.7072 0.0
H4231 H 0.58531 0.04249 0.71919 0.0
H4232 H 0.58062 0.99498 0.72933 0.0
C4233 C 0.63906 0.01505 0.69822 0.0
C4234 C 0.65109 0.02818 0.6888 0.0
C4235 C 0.65072 0.04304 0.68752 0.0
C4236 C 0.63839 0.04472 0.69522 0.0
C4237 C 0.62653 0.03142 0.70416 0.0
C4238 C 0.62677 0.01688 0.70574 0.0
C4239 C 0.61189 0.004 0.71497 0.0
C4240 C 0.60147 0.98808 0.70406 0.0
C4241 C 0.61704 0.99997 0.73137 0.0
C4242 C 0.60306 0.01343 0.718 0.0
C4243 C 0.61182 0.02929 0.71183 0.0
C4244 C 0.60575 0.04003 0.71232 0.0
C4245 C 0.59026 0.03435 0.71916 0.0
C4246 C 0.58099 0.0181 0.72543 0.0
C4247 C 0.58759 0.00759 0.72494 0.0
loop_
_geom_bond_atom_site_label_1
_geom_bond_atom_site_label_2
_geom_bond_distance
_geom_bond_site_symmetry_2
_ccdc_geom_bond_type
Co0 O1 2.216 . S
Co0 O2 2.091 . S
Co0 O4 2.004 1_554 S
Co0 O10 2.021 . S
Co0 O12 2.138 1_454 S
Co0 O13 2.243 1_455 S
O1 Co0 2.216 . S
O1 C8 1.247 . S
O2 Co0 2.091 . S
O2 C8 1.261 . S
C3 O12 1.248 . S
C3 O13 1.275 1_556 S
O4 Co0 2.004 1_556 S
O4 C9 1.259 . S
Co5 O6 2.091 . S
Co5 O11 2.006 1_556 S
Co5 O13 2.133 1_556 S
O6 Co5 2.091 . S
O6 C9 1.235 1_655 S
C7 O10 1.238 1_655 S
C7 O11 1.241 . S
C8 O1 1.247 . S
C8 O2 1.261 . S
C9 O4 1.259 . S
C9 O6 1.235 1_455 S
O10 Co0 2.021 . S
O10 C7 1.238 1_455 S
O11 Co5 2.006 1_554 S
O11 C7 1.241 . S
O12 Co0 2.138 1_656 S
O12 C3 1.248 . S
O13 Co0 2.243 1_655 S
O13 C3 1.275 1_554 S
O13 Co5 2.133 1_554 S
Co14 O15 2.216 1_554 S
Co14 O16 2.091 . S
Co14 O18 2.004 . S
Co14 O24 2.021 1_554 S
Co14 O26 2.137 . S
Co14 O27 2.244 . S
O15 Co14 2.216 1_556 S
O15 C22 1.247 . S
O16 Co14 2.091 . S
O16 C22 1.261 1_554 S
C17 O26 1.247 . S
C17 O27 1.272 . S
O18 Co14 2.004 . S
O18 C23 1.259 . S
Co19 O20 2.061 . S
Co19 O25 2.052 . S
Co19 O27 2.135 . S
O20 Co19 2.061 . S
O20 C23 1.235 . S
C21 O24 1.238 . S
C21 O25 1.241 1_556 S
C22 O15 1.247 . S
C22 O16 1.261 1_556 S
C23 O18 1.259 . S
C23 O20 1.235 . S
O24 Co14 2.021 1_556 S
O24 C21 1.238 . S
O25 Co19 2.052 . S
O25 C21 1.241 1_554 S
O26 Co14 2.137 . S
O26 C17 1.247 . S
O27 Co14 2.244 . S
O27 C17 1.272 . S
O27 Co19 2.135 . S
Co28 O29 2.216 1_554 S
Co28 O30 2.091 . S
Co28 O32 2.004 . S
Co28 O38 2.021 1_554 S
Co28 O40 2.137 . S
Co28 O41 2.244 1_545 S
O29 Co28 2.216 1_556 S
O29 C36 1.247 . S
O30 Co28 2.091 . S
O30 C36 1.261 1_554 S
C31 O40 1.247 1_565 S
C31 O41 1.272 . S
O32 Co28 2.004 . S
O32 C37 1.259 . S
Co33 O34 2.061 . S
Co33 O39 2.052 1_554 S
Co33 O41 2.135 . S
O34 Co33 2.061 . S
O34 C37 1.235 1_565 S
C35 O38 1.238 1_565 S
C35 O39 1.241 . S
C36 O29 1.247 . S
C36 O30 1.261 1_556 S
C37 O32 1.259 . S
C37 O34 1.235 1_545 S
O38 Co28 2.021 1_556 S
O38 C35 1.238 1_545 S
O39 Co33 2.052 1_556 S
O39 C35 1.241 . S
O40 Co28 2.137 . S
O40 C31 1.247 1_545 S
O41 Co28 2.244 1_565 S
O41 C31 1.272 . S
O41 Co33 2.135 . S
Co42 O43 2.216 1_554 S
Co42 O44 2.091 . S
Co42 O46 2.004 . S
Co42 O52 2.021 1_554 S
Co42 O54 2.137 1_655 S
Co42 O55 2.244 1_655 S
O43 Co42 2.216 1_556 S
O43 C50 1.247 . S
O44 Co42 2.091 . S
O44 C50 1.261 1_554 S
C45 O54 1.247 . S
C45 O55 1.272 . S
O46 Co42 2.004 . S
O46 C51 1.259 . S
Co47 O48 2.061 . S
Co47 O53 2.052 1_554 S
Co47 O55 2.135 . S
O48 Co47 2.061 . S
O48 C51 1.235 1_455 S
C49 O52 1.238 1_455 S
C49 O53 1.241 . S
C50 O43 1.247 . S
C50 O44 1.261 1_556 S
C51 O46 1.259 . S
C51 O48 1.235 1_655 S
O52 Co42 2.021 1_556 S
O52 C49 1.238 1_655 S
O53 Co47 2.052 1_556 S
O53 C49 1.241 . S
O54 Co42 2.137 1_455 S
O54 C45 1.247 . S
O55 Co42 2.244 1_455 S
O55 C45 1.272 . S
O55 Co47 2.135 . S
Co56 O57 2.216 . S
Co56 O58 2.091 . S
Co56 O60 2.004 1_554 S
Co56 O66 2.021 . S
Co56 O68 2.137 1_554 S
Co56 O69 2.244 1_554 S
O57 Co56 2.216 . S
O57 C64 1.247 . S
O58 Co56 2.091 . S
O58 C64 1.261 . S
C59 O68 1.247 . S
C59 O69 1.272 . S
O60 Co56 2.004 1_556 S
O60 C65 1.259 . S
Co61 O62 2.061 . S
Co61 O67 2.052 1_556 S
Co61 O69 2.135 . S
O62 Co61 2.061 . S
O62 C65 1.235 . S
C63 O66 1.238 . S
C63 O67 1.241 . S
C64 O57 1.247 . S
C64 O58 1.261 . S
C65 O60 1.259 . S
C65 O62 1.235 . S
O66 Co56 2.021 . S
O66 C63 1.238 . S
O67 Co61 2.052 1_554 S
O67 C63 1.241 . S
O68 Co56 2.137 1_556 S
O68 C59 1.247 . S
O69 Co56 2.244 1_556 S
O69 C59 1.272 . S
O69 Co61 2.135 . S
Co70 O71 2.216 . S
Co70 O72 2.091 . S
Co70 O74 2.004 1_554 S
Co70 O80 2.021 . S
Co70 O82 2.137 1_564 S
Co70 O83 2.244 1_565 S
O71 Co70 2.216 . S
O71 C78 1.247 . S
O72 Co70 2.091 . S
O72 C78 1.261 . S
C73 O82 1.247 . S
C73 O83 1.272 1_556 S
O74 Co70 2.004 1_556 S
O74 C79 1.259 . S
Co75 O76 2.061 1_554 S
Co75 O81 2.052 . S
Co75 O83 2.135 . S
O76 Co75 2.061 1_556 S
O76 C79 1.235 1_545 S
C77 O80 1.238 1_545 S
C77 O81 1.241 . S
C78 O71 1.247 . S
C78 O72 1.261 . S
C79 O74 1.259 . S
C79 O76 1.235 1_565 S
O80 Co70 2.021 . S
O80 C77 1.238 1_565 S
O81 Co75 2.052 . S
O81 C77 1.241 . S
O82 Co70 2.137 1_546 S
O82 C73 1.247 . S
O83 Co70 2.244 1_545 S
O83 C73 1.272 1_554 S
O83 Co75 2.135 . S
Co84 O85 2.216 . S
Co84 O86 2.091 . S
Co84 O88 2.004 . S
Co84 O94 2.021 . S
Co84 O96 2.137 . S
Co84 O97 2.244 . S
O85 Co84 2.216 . S
O85 C92 1.247 . S
O86 Co84 2.091 . S
O86 C92 1.261 . S
C87 O96 1.247 . S
C87 O97 1.272 . S
O88 Co84 2.004 . S
O88 C93 1.259 . S
Co89 O90 2.061 . S
Co89 O95 2.052 . S
Co89 O97 2.135 . S
O90 Co89 2.061 . S
O90 C93 1.235 . S
C91 O94 1.238 . S
C91 O95 1.241 . S
C92 O85 1.247 . S
C92 O86 1.261 . S
C93 O88 1.259 . S
C93 O90 1.235 . S
O94 Co84 2.021 . S
O94 C91 1.238 . S
O95 Co89 2.052 . S
O95 C91 1.241 . S
O96 Co84 2.137 . S
O96 C87 1.247 . S
O97 Co84 2.244 . S
O97 C87 1.272 . S
O97 Co89 2.135 . S
Co98 O99 2.216 . S
Co98 O100 2.091 . S
Co98 O102 2.004 . S
Co98 O108 2.021 . S
Co98 O110 2.137 1_565 S
Co98 O111 2.227 1_565 S
O99 Co98 2.216 . S
O99 C106 1.247 . S
O100 Co98 2.091 . S
O100 C106 1.261 . S
C101 O110 1.247 . S
C101 O111 1.273 . S
O102 Co98 2.004 . S
O102 C107 1.259 . S
Co103 O104 2.061 . S
Co103 O109 2.052 . S
Co103 O111 2.134 1_565 S
O104 Co103 2.061 . S
O104 C107 1.235 . S
C105 O108 1.238 . S
C105 O109 1.241 . S
C106 O99 1.247 . S
C106 O100 1.261 . S
C107 O102 1.259 . S
C107 O104 1.235 . S
O108 Co98 2.021 . S
O108 C105 1.238 . S
O109 Co103 2.052 . S
O109 C105 1.241 . S
O110 Co98 2.137 1_545 S
O110 C101 1.247 . S
O111 Co98 2.227 1_545 S
O111 C101 1.273 . S
O111 Co103 2.134 1_545 S
Co112 O113 2.216 . S
Co112 O114 2.091 . S
Co112 O116 2.004 . S
Co112 O122 2.021 . S
Co112 O124 2.137 . S
Co112 O125 2.244 . S
O113 Co112 2.216 . S
O113 C120 1.247 . S
O114 Co112 2.091 . S
O114 C120 1.261 . S
C115 O124 1.247 1_655 S
C115 O125 1.272 1_655 S
O116 Co112 2.004 . S
O116 C121 1.259 . S
Co117 O118 2.061 . S
Co117 O123 2.052 . S
Co117 O125 2.135 . S
O118 Co117 2.061 . S
O118 C121 1.235 . S
C119 O122 1.238 . S
C119 O123 1.241 . S
C120 O113 1.247 . S
C120 O114 1.261 . S
C121 O116 1.259 . S
C121 O118 1.235 . S
O122 Co112 2.021 . S
O122 C119 1.238 . S
O123 Co117 2.052 . S
O123 C119 1.241 . S
O124 Co112 2.137 . S
O124 C115 1.247 1_455 S
O125 Co112 2.244 . S
O125 C115 1.272 1_455 S
O125 Co117 2.135 . S
Co126 O127 2.216 . S
Co126 O128 2.091 . S
Co126 O130 2.004 . S
Co126 O136 2.021 . S
Co126 O138 2.137 1_565 S
Co126 O139 2.233 1_565 S
O127 Co126 2.216 . S
O127 C134 1.247 . S
O128 Co126 2.091 . S
O128 C134 1.261 . S
C129 O138 1.247 . S
C129 O139 1.340 . S
O130 Co126 2.004 . S
O130 C135 1.259 . S
Co131 O132 2.061 . S
Co131 O137 2.052 . S
Co131 O139 2.058 1_565 S
O132 Co131 2.061 . S
O132 C135 1.235 . S
C133 O136 1.238 . S
C133 O137 1.241 . S
C134 O127 1.247 . S
C134 O128 1.261 . S
C135 O130 1.259 . S
C135 O132 1.235 . S
O136 Co126 2.021 . S
O136 C133 1.238 . S
O137 Co131 2.052 . S
O137 C133 1.241 . S
O138 Co126 2.137 1_545 S
O138 C129 1.247 . S
O139 Co126 2.233 1_545 S
O139 C129 1.340 . S
O139 Co131 2.058 1_545 S
Co140 O141 2.216 1_455 S
Co140 O142 2.091 1_455 S
Co140 O144 2.004 . S
Co140 O150 2.021 . S
Co140 O152 2.137 1_455 S
Co140 O153 2.244 . S
O141 Co140 2.216 1_655 S
O141 C148 1.247 . S
O142 Co140 2.091 1_655 S
O142 C148 1.261 . S
C143 O152 1.247 1_455 S
C143 O153 1.272 . S
O144 Co140 2.004 . S
O144 C149 1.259 . S
Co145 O146 2.061 . S
Co145 O151 2.052 . S
Co145 O153 2.135 . S
O146 Co145 2.061 . S
O146 C149 1.235 . S
C147 O150 1.238 . S
C147 O151 1.241 . S
C148 O141 1.247 . S
C148 O142 1.261 . S
C149 O144 1.259 . S
C149 O146 1.235 . S
O150 Co140 2.021 . S
O150 C147 1.238 . S
O151 Co145 2.052 . S
O151 C147 1.241 . S
O152 Co140 2.137 1_655 S
O152 C143 1.247 1_655 S
O153 Co140 2.244 . S
O153 C143 1.272 . S
O153 Co145 2.135 . S
Co154 O155 2.216 . S
Co154 O156 2.091 . S
Co154 O158 2.004 . S
Co154 O164 2.021 . S
Co154 O166 2.137 . S
Co154 O167 2.244 . S
O155 Co154 2.216 . S
O155 C162 1.247 . S
O156 Co154 2.091 . S
O156 C162 1.261 . S
C157 O166 1.247 . S
C157 O167 1.272 . S
O158 Co154 2.004 . S
O158 C163 1.259 . S
Co159 O160 2.061 . S
Co159 O165 2.052 . S
Co159 O167 2.135 . S
O160 Co159 2.061 . S
O160 C163 1.235 . S
C161 O164 1.238 . S
C161 O165 1.241 . S
C162 O155 1.247 . S
C162 O156 1.261 . S
C163 O158 1.259 . S
C163 O160 1.235 . S
O164 Co154 2.021 . S
O164 C161 1.238 . S
O165 Co159 2.052 . S
O165 C161 1.241 . S
O166 Co154 2.137 . S
O166 C157 1.247 . S
O167 Co154 2.244 . S
O167 C157 1.272 . S
O167 Co159 2.135 . S
Co168 O169 2.216 . S
Co168 O170 2.091 . S
Co168 O172 2.004 . S
Co168 O178 2.021 . S
Co168 O180 2.088 1_545 S
Co168 O181 2.244 . S
O169 Co168 2.216 . S
O169 C176 1.247 . S
O170 Co168 2.091 . S
O170 C176 1.261 . S
C171 O180 1.233 . S
C171 O181 1.272 1_565 S
O172 Co168 2.004 . S
O172 C177 1.259 . S
Co173 O174 2.061 . S
Co173 O179 2.052 . S
Co173 O181 2.135 . S
O174 Co173 2.061 . S
O174 C177 1.235 . S
C175 O178 1.238 . S
C175 O179 1.241 . S
C176 O169 1.247 . S
C176 O170 1.261 . S
C177 O172 1.259 . S
C177 O174 1.235 . S
O178 Co168 2.021 . S
O178 C175 1.238 . S
O179 Co173 2.052 . S
O179 C175 1.241 . S
O180 Co168 2.088 1_565 S
O180 C171 1.233 . S
O181 Co168 2.244 . S
O181 C171 1.272 1_545 S
O181 Co173 2.135 . S
Co182 O183 2.216 1_655 S
Co182 O184 2.091 1_655 S
Co182 O186 2.004 . S
Co182 O192 2.021 . S
Co182 O194 2.137 1_655 S
Co182 O195 2.244 . S
O183 Co182 2.216 1_455 S
O183 C190 1.247 . S
O184 Co182 2.091 1_455 S
O184 C190 1.261 . S
C185 O194 1.247 1_655 S
C185 O195 1.272 . S
O186 Co182 2.004 . S
O186 C191 1.259 . S
Co187 O188 2.061 . S
Co187 O193 2.052 . S
Co187 O195 2.135 . S
O188 Co187 2.061 . S
O188 C191 1.235 . S
C189 O192 1.238 . S
C189 O193 1.241 . S
C190 O183 1.247 . S
C190 O184 1.261 . S
C191 O186 1.259 . S
C191 O188 1.235 . S
O192 Co182 2.021 . S
O192 C189 1.238 . S
O193 Co187 2.052 . S
O193 C189 1.241 . S
O194 Co182 2.137 1_455 S
O194 C185 1.247 1_455 S
O195 Co182 2.244 . S
O195 C185 1.272 . S
O195 Co187 2.135 . S
Co196 O197 2.216 . S
Co196 O198 2.091 . S
Co196 O200 2.004 . S
Co196 O206 2.021 . S
Co196 O208 2.137 . S
Co196 O209 2.244 . S
O197 Co196 2.216 . S
O197 C204 1.247 . S
O198 Co196 2.091 . S
O198 C204 1.261 . S
C199 O208 1.247 . S
C199 O209 1.272 . S
O200 Co196 2.004 . S
O200 C205 1.259 . S
Co201 O202 2.061 . S
Co201 O207 2.052 . S
Co201 O209 2.135 . S
O202 Co201 2.061 . S
O202 C205 1.235 . S
C203 O206 1.238 . S
C203 O207 1.241 . S
C204 O197 1.247 . S
C204 O198 1.261 . S
C205 O200 1.259 . S
C205 O202 1.235 . S
O206 Co196 2.021 . S
O206 C203 1.238 . S
O207 Co201 2.052 . S
O207 C203 1.241 . S
O208 Co196 2.137 . S
O208 C199 1.247 . S
O209 Co196 2.244 . S
O209 C199 1.272 . S
O209 Co201 2.135 . S
Co210 O211 2.216 . S
Co210 O212 2.091 . S
Co210 O214 2.004 . S
Co210 O220 2.021 . S
Co210 O222 2.137 . S
Co210 O223 2.244 . S
O211 Co210 2.216 . S
O211 C218 1.247 . S
O212 Co210 2.091 . S
O212 C218 1.261 . S
C213 O222 1.247 . S
C213 O223 1.272 . S
O214 Co210 2.004 . S
O214 C219 1.259 . S
Co215 O216 2.061 . S
Co215 O221 2.052 . S
Co215 O223 2.135 . S
O216 Co215 2.061 . S
O216 C219 1.235 . S
C217 O220 1.238 . S
C217 O221 1.241 . S
C218 O211 1.247 . S
C218 O212 1.261 . S
C219 O214 1.259 . S
C219 O216 1.235 . S
O220 Co210 2.021 . S
O220 C217 1.238 . S
O221 Co215 2.052 . S
O221 C217 1.241 . S
O222 Co210 2.137 . S
O222 C213 1.247 . S
O223 Co210 2.244 . S
O223 C213 1.272 . S
O223 Co215 2.135 . S
Co224 O225 2.216 . S
Co224 O226 2.091 . S
Co224 O228 2.004 . S
Co224 O234 2.021 . S
Co224 O236 2.145 . S
Co224 O237 2.244 . S
O225 Co224 2.216 . S
O225 C232 1.247 . S
O226 Co224 2.091 . S
O226 C232 1.261 . S
C227 O236 1.237 1_565 S
C227 O237 1.272 1_565 S
O228 Co224 2.004 . S
O228 C233 1.259 . S
Co229 O230 2.061 . S
Co229 O235 2.052 . S
Co229 O237 2.135 . S
O230 Co229 2.061 . S
O230 C233 1.235 . S
C231 O234 1.238 . S
C231 O235 1.241 . S
C232 O225 1.247 . S
C232 O226 1.261 . S
C233 O228 1.259 . S
C233 O230 1.235 . S
O234 Co224 2.021 . S
O234 C231 1.238 . S
O235 Co229 2.052 . S
O235 C231 1.241 . S
O236 Co224 2.145 . S
O236 C227 1.237 1_545 S
O237 Co224 2.244 . S
O237 C227 1.272 1_545 S
O237 Co229 2.135 . S
Co238 O239 2.216 . S
Co238 O240 2.091 . S
Co238 O242 2.004 . S
Co238 O248 2.021 . S
Co238 O250 2.137 . S
Co238 O251 2.244 . S
O239 Co238 2.216 . S
O239 C246 1.247 . S
O240 Co238 2.091 . S
O240 C246 1.261 . S
C241 O250 1.247 1_455 S
C241 O251 1.272 1_455 S
O242 Co238 2.004 . S
O242 C247 1.259 . S
Co243 O244 2.061 . S
Co243 O249 2.052 . S
Co243 O251 2.135 . S
O244 Co243 2.061 . S
O244 C247 1.235 . S
C245 O248 1.238 . S
C245 O249 1.241 . S
C246 O239 1.247 . S
C246 O240 1.261 . S
C247 O242 1.259 . S
C247 O244 1.235 . S
O248 Co238 2.021 . S
O248 C245 1.238 . S
O249 Co243 2.052 . S
O249 C245 1.241 . S
O250 Co238 2.137 . S
O250 C241 1.247 1_655 S
O251 Co238 2.244 . S
O251 C241 1.272 1_655 S
O251 Co243 2.135 . S
C252 C253 1.560 . S
C252 H313 0.959 . S
C252 H314 0.959 . S
C252 H315 0.960 . S
C253 C252 1.560 . S
C253 O308 1.426 . S
C253 H312 0.980 . S
C254 C255 1.407 . S
C254 C259 1.418 . S
C254 O308 1.334 . S
C255 C254 1.407 . S
C255 C256 1.360 . S
C255 H316 0.929 . S
C256 C255 1.360 . S
C256 C257 1.401 . S
C256 C260 1.527 . S
C257 C256 1.401 . S
C257 C258 1.405 . S
C257 C290 1.587 . S
C258 C257 1.405 . S
C258 C259 1.332 . S
C258 C261 1.496 . S
C259 C254 1.418 . S
C259 C258 1.332 . S
C259 H317 0.929 . S
C260 C256 1.527 . S
C260 H318 0.959 . S
C260 H319 0.961 . S
C260 H320 0.961 . S
C261 C258 1.496 . S
C261 H321 0.960 . S
C261 H322 0.960 . S
C261 H323 0.961 . S
C262 C263 1.517 . S
C262 H325 0.961 . S
C262 H326 0.960 . S
C262 H327 0.959 . S
C263 C262 1.517 . S
C263 O311 1.468 . S
C263 H324 0.980 . S
C264 C265 1.349 . S
C264 C269 1.367 . S
C264 O311 1.408 . S
C265 C264 1.349 . S
C265 C266 1.407 . S
C265 H328 0.930 . S
C266 C265 1.407 . S
C266 C267 1.449 . S
C266 C270 1.535 . S
C267 C266 1.449 . S
C267 C268 1.384 . S
C267 C292 1.553 . S
C268 C267 1.384 . S
C268 C269 1.364 . S
C268 C271 1.450 . S
C269 C264 1.367 . S
C269 C268 1.364 . S
C269 H329 0.931 . S
C270 C266 1.535 . S
C270 H330 0.959 . S
C270 H331 0.961 . S
C270 H332 0.959 . S
C271 C268 1.450 . S
C271 H333 0.960 . S
C271 H334 0.960 . S
C271 H335 0.960 . S
C272 C273 1.309 . S
C272 C277 1.304 . S
C272 O310 1.435 . S
C273 C272 1.309 . S
C273 C274 1.476 . S
C273 H337 0.930 . S
C274 C273 1.476 . S
C274 C275 1.400 . S
C274 C278 1.567 . S
C275 C274 1.400 . S
C275 C276 1.373 . S
C275 C297 1.432 . S
C276 C275 1.373 . S
C276 C277 1.339 . S
C276 C279 1.530 . S
C277 C272 1.304 . S
C277 C276 1.339 . S
C277 H338 0.930 . S
C278 C274 1.567 . S
C278 H339 0.961 . S
C278 H340 0.960 . S
C278 H341 0.958 . S
C279 C276 1.530 . S
C279 H342 0.961 . S
C279 H343 0.960 . S
C279 H344 0.960 . S
C280 C281 1.530 . S
C280 H346 0.961 . S
C280 H347 0.961 . S
C280 H348 0.959 . S
C281 C280 1.530 . S
C281 O309 1.412 . S
C281 H345 0.980 . S
C282 C283 1.288 . S
C282 C287 1.377 . S
C282 O309 1.393 . S
C283 C282 1.288 . S
C283 C284 1.369 . S
C283 H349 0.932 . S
C284 C283 1.369 . S
C284 C285 1.398 . S
C284 C288 1.527 . S
C285 C284 1.398 . S
C285 C286 1.380 . S
C285 C299 1.497 . S
C286 C285 1.380 . S
C286 C287 1.383 . S
C286 C289 1.603 . S
C287 C282 1.377 . S
C287 C286 1.383 . S
C287 H350 0.929 . S
C288 C284 1.527 . S
C288 H351 0.961 . S
C288 H352 0.959 . S
C288 H353 0.959 . S
C289 C286 1.603 . S
C289 H354 0.960 . S
C289 H355 0.962 . S
C289 H356 0.961 . S
C290 C257 1.587 . S
C290 C291 1.360 . S
C290 C303 1.412 . S
C291 C290 1.360 . S
C291 C292 1.365 . S
C291 H357 0.929 . S
C292 C267 1.553 . S
C292 C291 1.365 . S
C292 C293 1.404 . S
C293 C292 1.404 . S
C293 C294 1.395 . S
C293 C304 1.451 . S
C294 C293 1.395 . S
C294 C295 1.322 . S
C294 H358 0.930 . S
C295 C294 1.322 . S
C295 C296 1.459 . S
C295 H359 0.929 . S
C296 C295 1.459 . S
C296 C297 1.445 . S
C296 C305 1.395 . S
C297 C275 1.432 . S
C297 C296 1.445 . S
C297 C298 1.370 . S
C298 C297 1.370 . S
C298 C299 1.438 . S
C298 H360 0.930 . S
C299 C285 1.497 . S
C299 C298 1.438 . S
C299 C300 1.360 . S
C300 C299 1.360 . S
C300 C301 1.401 . S
C300 C305 1.446 . S
C301 C300 1.401 . S
C301 C302 1.347 . S
C301 H361 0.929 . S
C302 C301 1.347 . S
C302 C303 1.455 . S
C302 H362 0.930 . S
C303 C290 1.412 . S
C303 C302 1.455 . S
C303 C304 1.331 . S
C304 C293 1.451 . S
C304 C303 1.331 . S
C304 C305 1.497 . S
C305 C296 1.395 . S
C305 C300 1.446 . S
C305 C304 1.497 . S
C306 C307 1.582 . S
C306 H363 0.962 . S
C306 H364 0.959 . S
C306 H365 0.958 . S
C307 C306 1.582 . S
C307 O310 1.458 . S
C307 H336 0.980 . S
O308 C253 1.426 . S
O308 C254 1.334 . S
O309 C281 1.412 . S
O309 C282 1.393 . S
O310 C272 1.435 . S
O310 C307 1.458 . S
O311 C263 1.468 . S
O311 C264 1.408 . S
H312 C253 0.980 . S
H313 C252 0.959 . S
H314 C252 0.959 . S
H315 C252 0.960 . S
H316 C255 0.929 . S
H317 C259 0.929 . S
H318 C260 0.959 . S
H319 C260 0.961 . S
H320 C260 0.961 . S
H321 C261 0.960 . S
H322 C261 0.960 . S
H323 C261 0.961 . S
H324 C263 0.980 . S
H325 C262 0.961 . S
H326 C262 0.960 . S
H327 C262 0.959 . S
H328 C265 0.930 . S
H329 C269 0.931 . S
H330 C270 0.959 . S
H331 C270 0.961 . S
H332 C270 0.959 . S
H333 C271 0.960 . S
H334 C271 0.960 . S
H335 C271 0.960 . S
H336 C307 0.980 . S
H337 C273 0.930 . S
H338 C277 0.930 . S
H339 C278 0.961 . S
H340 C278 0.960 . S
H341 C278 0.958 . S
H342 C279 0.961 . S
H343 C279 0.960 . S
H344 C279 0.960 . S
H345 C281 0.980 . S
H346 C280 0.961 . S
H347 C280 0.961 . S
H348 C280 0.959 . S
H349 C283 0.932 . S
H350 C287 0.929 . S
H351 C288 0.961 . S
H352 C288 0.959 . S
H353 C288 0.959 . S
H354 C289 0.960 . S
H355 C289 0.962 . S
H356 C289 0.961 . S
H357 C291 0.929 . S
H358 C294 0.930 . S
H359 C295 0.929 . S
H360 C298 0.930 . S
H361 C301 0.929 . S
H362 C302 0.930 . S
H363 C306 0.962 . S
H364 C306 0.959 . S
H365 C306 0.958 . S
C366 C367 1.560 . S
C366 H427 0.959 . S
C366 H428 0.959 . S
C366 H429 0.960 . S
C367 C366 1.560 . S
C367 O422 1.426 . S
C367 H426 0.980 . S
C368 C369 1.407 . S
C368 C373 1.418 . S
C368 O422 1.334 . S
C369 C368 1.407 . S
C369 C370 1.360 . S
C369 H430 0.929 . S
C370 C369 1.360 . S
C370 C371 1.401 . S
C370 C374 1.527 . S
C371 C370 1.401 . S
C371 C372 1.405 . S
C371 C404 1.587 . S
C372 C371 1.405 . S
C372 C373 1.332 . S
C372 C375 1.496 . S
C373 C368 1.418 . S
C373 C372 1.332 . S
C373 H431 0.929 . S
C374 C370 1.527 . S
C374 H432 0.959 . S
C374 H433 0.961 . S
C374 H434 0.961 . S
C375 C372 1.496 . S
C375 H435 0.960 . S
C375 H436 0.960 . S
C375 H437 0.961 . S
C376 C377 1.517 . S
C376 H439 0.961 . S
C376 H440 0.960 . S
C376 H441 0.959 . S
C377 C376 1.517 . S
C377 O425 1.468 . S
C377 H438 0.980 . S
C378 C379 1.349 . S
C378 C383 1.367 . S
C378 O425 1.408 . S
C379 C378 1.349 . S
C379 C380 1.407 . S
C379 H442 0.930 . S
C380 C379 1.407 . S
C380 C381 1.449 . S
C380 C384 1.535 . S
C381 C380 1.449 . S
C381 C382 1.384 . S
C381 C406 1.553 . S
C382 C381 1.384 . S
C382 C383 1.364 . S
C382 C385 1.450 . S
C383 C378 1.367 . S
C383 C382 1.364 . S
C383 H443 0.931 . S
C384 C380 1.535 . S
C384 H444 0.959 . S
C384 H445 0.961 . S
C384 H446 0.959 . S
C385 C382 1.450 . S
C385 H447 0.960 . S
C385 H448 0.960 . S
C385 H449 0.960 . S
C386 C387 1.309 . S
C386 C391 1.304 . S
C386 O424 1.435 . S
C387 C386 1.309 . S
C387 C388 1.476 . S
C387 H451 0.930 . S
C388 C387 1.476 . S
C388 C389 1.400 . S
C388 C392 1.567 . S
C389 C388 1.400 . S
C389 C390 1.373 . S
C389 C411 1.432 . S
C390 C389 1.373 . S
C390 C391 1.339 . S
C390 C393 1.530 . S
C391 C386 1.304 . S
C391 C390 1.339 . S
C391 H452 0.930 . S
C392 C388 1.567 . S
C392 H453 0.961 . S
C392 H454 0.960 . S
C392 H455 0.958 . S
C393 C390 1.530 . S
C393 H456 0.961 . S
C393 H457 0.960 . S
C393 H458 0.960 . S
C394 C395 1.530 . S
C394 H460 0.961 . S
C394 H461 0.961 . S
C394 H462 0.959 . S
C395 C394 1.530 . S
C395 O423 1.412 . S
C395 H459 0.980 . S
C396 C397 1.288 . S
C396 C401 1.377 . S
C396 O423 1.393 . S
C397 C396 1.288 . S
C397 C398 1.369 . S
C397 H463 0.932 . S
C398 C397 1.369 . S
C398 C399 1.398 . S
C398 C402 1.527 . S
C399 C398 1.398 . S
C399 C400 1.380 . S
C399 C413 1.497 . S
C400 C399 1.380 . S
C400 C401 1.383 . S
C400 C403 1.603 . S
C401 C396 1.377 . S
C401 C400 1.383 . S
C401 H464 0.929 . S
C402 C398 1.527 . S
C402 H465 0.961 . S
C402 H466 0.959 . S
C402 H467 0.959 . S
C403 C400 1.603 . S
C403 H468 0.960 . S
C403 H469 0.962 . S
C403 H470 0.961 . S
C404 C371 1.587 . S
C404 C405 1.360 . S
C404 C417 1.412 . S
C405 C404 1.360 . S
C405 C406 1.365 . S
C405 H471 0.929 . S
C406 C381 1.553 . S
C406 C405 1.365 . S
C406 C407 1.404 . S
C407 C406 1.404 . S
C407 C408 1.395 . S
C407 C418 1.451 . S
C408 C407 1.395 . S
C408 C409 1.322 . S
C408 H472 0.930 . S
C409 C408 1.322 . S
C409 C410 1.459 . S
C409 H473 0.929 . S
C410 C409 1.459 . S
C410 C411 1.445 . S
C410 C419 1.395 . S
C411 C389 1.432 . S
C411 C410 1.445 . S
C411 C412 1.370 . S
C412 C411 1.370 . S
C412 C413 1.438 . S
C412 H474 0.930 . S
C413 C399 1.497 . S
C413 C412 1.438 . S
C413 C414 1.360 . S
C414 C413 1.360 . S
C414 C415 1.401 . S
C414 C419 1.446 . S
C415 C414 1.401 . S
C415 C416 1.347 . S
C415 H475 0.929 . S
C416 C415 1.347 . S
C416 C417 1.455 . S
C416 H476 0.930 . S
C417 C404 1.412 . S
C417 C416 1.455 . S
C417 C418 1.331 . S
C418 C407 1.451 . S
C418 C417 1.331 . S
C418 C419 1.497 . S
C419 C410 1.395 . S
C419 C414 1.446 . S
C419 C418 1.497 . S
C420 C421 1.582 . S
C420 H477 0.962 . S
C420 H478 0.959 . S
C420 H479 0.958 . S
C421 C420 1.582 . S
C421 O424 1.458 . S
C421 H450 0.980 . S
O422 C367 1.426 . S
O422 C368 1.334 . S
O423 C395 1.412 . S
O423 C396 1.393 . S
O424 C386 1.435 . S
O424 C421 1.458 . S
O425 C377 1.468 . S
O425 C378 1.408 . S
H426 C367 0.980 . S
H427 C366 0.959 . S
H428 C366 0.959 . S
H429 C366 0.960 . S
H430 C369 0.929 . S
H431 C373 0.929 . S
H432 C374 0.959 . S
H433 C374 0.961 . S
H434 C374 0.961 . S
H435 C375 0.960 . S
H436 C375 0.960 . S
H437 C375 0.961 . S
H438 C377 0.980 . S
H439 C376 0.961 . S
H440 C376 0.960 . S
H441 C376 0.959 . S
H442 C379 0.930 . S
H443 C383 0.931 . S
H444 C384 0.959 . S
H445 C384 0.961 . S
H446 C384 0.959 . S
H447 C385 0.960 . S
H448 C385 0.960 . S
H449 C385 0.960 . S
H450 C421 0.980 . S
H451 C387 0.930 . S
H452 C391 0.930 . S
H453 C392 0.961 . S
H454 C392 0.960 . S
H455 C392 0.958 . S
H456 C393 0.961 . S
H457 C393 0.960 . S
H458 C393 0.960 . S
H459 C395 0.980 . S
H460 C394 0.961 . S
H461 C394 0.961 . S
H462 C394 0.959 . S
H463 C397 0.932 . S
H464 C401 0.929 . S
H465 C402 0.961 . S
H466 C402 0.959 . S
H467 C402 0.959 . S
H468 C403 0.960 . S
H469 C403 0.962 . S
H470 C403 0.961 . S
H471 C405 0.929 . S
H472 C408 0.930 . S
H473 C409 0.929 . S
H474 C412 0.930 . S
H475 C415 0.929 . S
H476 C416 0.930 . S
H477 C420 0.962 . S
H478 C420 0.959 . S
H479 C420 0.958 . S
C480 C481 1.560 . S
C480 H541 0.959 . S
C480 H542 0.959 . S
C480 H543 0.960 . S
C481 C480 1.560 . S
C481 O536 1.426 . S
C481 H540 0.980 . S
C482 C483 1.407 . S
C482 C487 1.418 . S
C482 O536 1.334 . S
C483 C482 1.407 . S
C483 C484 1.360 . S
C483 H544 0.929 . S
C484 C483 1.360 . S
C484 C485 1.401 . S
C484 C488 1.527 . S
C485 C484 1.401 . S
C485 C486 1.405 . S
C485 C518 1.587 . S
C486 C485 1.405 . S
C486 C487 1.332 . S
C486 C489 1.496 . S
C487 C482 1.418 . S
C487 C486 1.332 . S
C487 H545 0.929 . S
C488 C484 1.527 . S
C488 H546 0.959 . S
C488 H547 0.961 . S
C488 H548 0.961 . S
C489 C486 1.496 . S
C489 H549 0.960 . S
C489 H550 0.960 . S
C489 H551 0.961 . S
C490 C491 1.517 . S
C490 H553 0.961 . S
C490 H554 0.960 . S
C490 H555 0.959 . S
C491 C490 1.517 . S
C491 O539 1.468 . S
C491 H552 0.980 . S
C492 C493 1.349 . S
C492 C497 1.367 . S
C492 O539 1.408 . S
C493 C492 1.349 . S
C493 C494 1.407 . S
C493 H556 0.930 . S
C494 C493 1.407 . S
C494 C495 1.449 . S
C494 C498 1.535 . S
C495 C494 1.449 . S
C495 C496 1.384 . S
C495 C520 1.553 . S
C496 C495 1.384 . S
C496 C497 1.364 . S
C496 C499 1.450 . S
C497 C492 1.367 . S
C497 C496 1.364 . S
C497 H557 0.931 . S
C498 C494 1.535 . S
C498 H558 0.959 . S
C498 H559 0.961 . S
C498 H560 0.959 . S
C499 C496 1.450 . S
C499 H561 0.960 . S
C499 H562 0.960 . S
C499 H563 0.960 . S
C500 C501 1.309 . S
C500 C505 1.304 . S
C500 O538 1.435 . S
C501 C500 1.309 . S
C501 C502 1.476 . S
C501 H565 0.930 . S
C502 C501 1.476 . S
C502 C503 1.400 . S
C502 C506 1.567 . S
C503 C502 1.400 . S
C503 C504 1.373 . S
C503 C525 1.432 . S
C504 C503 1.373 . S
C504 C505 1.339 . S
C504 C507 1.530 . S
C505 C500 1.304 . S
C505 C504 1.339 . S
C505 H566 0.930 . S
C506 C502 1.567 . S
C506 H567 0.961 . S
C506 H568 0.960 . S
C506 H569 0.958 . S
C507 C504 1.530 . S
C507 H570 0.961 . S
C507 H571 0.960 . S
C507 H572 0.960 . S
C508 C509 1.530 . S
C508 H574 0.961 . S
C508 H575 0.961 . S
C508 H576 0.959 . S
C509 C508 1.530 . S
C509 O537 1.412 . S
C509 H573 0.980 . S
C510 C511 1.288 . S
C510 C515 1.377 . S
C510 O537 1.393 . S
C511 C510 1.288 . S
C511 C512 1.369 . S
C511 H577 0.932 . S
C512 C511 1.369 . S
C512 C513 1.398 . S
C512 C516 1.527 . S
C513 C512 1.398 . S
C513 C514 1.380 . S
C513 C527 1.497 . S
C514 C513 1.380 . S
C514 C515 1.383 . S
C514 C517 1.603 . S
C515 C510 1.377 . S
C515 C514 1.383 . S
C515 H578 0.929 . S
C516 C512 1.527 . S
C516 H579 0.961 . S
C516 H580 0.959 . S
C516 H581 0.959 . S
C517 C514 1.603 . S
C517 H582 0.960 . S
C517 H583 0.962 . S
C517 H584 0.961 . S
C518 C485 1.587 . S
C518 C519 1.360 . S
C518 C531 1.412 . S
C519 C518 1.360 . S
C519 C520 1.365 . S
C519 H585 0.929 . S
C520 C495 1.553 . S
C520 C519 1.365 . S
C520 C521 1.404 . S
C521 C520 1.404 . S
C521 C522 1.395 . S
C521 C532 1.451 . S
C522 C521 1.395 . S
C522 C523 1.322 . S
C522 H586 0.930 . S
C523 C522 1.322 . S
C523 C524 1.459 . S
C523 H587 0.929 . S
C524 C523 1.459 . S
C524 C525 1.445 . S
C524 C533 1.395 . S
C525 C503 1.432 . S
C525 C524 1.445 . S
C525 C526 1.370 . S
C526 C525 1.370 . S
C526 C527 1.438 . S
C526 H588 0.930 . S
C527 C513 1.497 . S
C527 C526 1.438 . S
C527 C528 1.360 . S
C528 C527 1.360 . S
C528 C529 1.401 . S
C528 C533 1.446 . S
C529 C528 1.401 . S
C529 C530 1.347 . S
C529 H589 0.929 . S
C530 C529 1.347 . S
C530 C531 1.455 . S
C530 H590 0.930 . S
C531 C518 1.412 . S
C531 C530 1.455 . S
C531 C532 1.331 . S
C532 C521 1.451 . S
C532 C531 1.331 . S
C532 C533 1.497 . S
C533 C524 1.395 . S
C533 C528 1.446 . S
C533 C532 1.497 . S
C534 C535 1.582 . S
C534 H591 0.962 . S
C534 H592 0.959 . S
C534 H593 0.958 . S
C535 C534 1.582 . S
C535 O538 1.458 . S
C535 H564 0.980 . S
O536 C481 1.426 . S
O536 C482 1.334 . S
O537 C509 1.412 . S
O537 C510 1.393 . S
O538 C500 1.435 . S
O538 C535 1.458 . S
O539 C491 1.468 . S
O539 C492 1.408 . S
H540 C481 0.980 . S
H541 C480 0.959 . S
H542 C480 0.959 . S
H543 C480 0.960 . S
H544 C483 0.929 . S
H545 C487 0.929 . S
H546 C488 0.959 . S
H547 C488 0.961 . S
H548 C488 0.961 . S
H549 C489 0.960 . S
H550 C489 0.960 . S
H551 C489 0.961 . S
H552 C491 0.980 . S
H553 C490 0.961 . S
H554 C490 0.960 . S
H555 C490 0.959 . S
H556 C493 0.930 . S
H557 C497 0.931 . S
H558 C498 0.959 . S
H559 C498 0.961 . S
H560 C498 0.959 . S
H561 C499 0.960 . S
H562 C499 0.960 . S
H563 C499 0.960 . S
H564 C535 0.980 . S
H565 C501 0.930 . S
H566 C505 0.930 . S
H567 C506 0.961 . S
H568 C506 0.960 . S
H569 C506 0.958 . S
H570 C507 0.961 . S
H571 C507 0.960 . S
H572 C507 0.960 . S
H573 C509 0.980 . S
H574 C508 0.961 . S
H575 C508 0.961 . S
H576 C508 0.959 . S
H577 C511 0.932 . S
H578 C515 0.929 . S
H579 C516 0.961 . S
H580 C516 0.959 . S
H581 C516 0.959 . S
H582 C517 0.960 . S
H583 C517 0.962 . S
H584 C517 0.961 . S
H585 C519 0.929 . S
H586 C522 0.930 . S
H587 C523 0.929 . S
H588 C526 0.930 . S
H589 C529 0.929 . S
H590 C530 0.930 . S
H591 C534 0.962 . S
H592 C534 0.959 . S
H593 C534 0.958 . S
C594 C595 1.560 . S
C594 H655 0.959 . S
C594 H656 0.959 . S
C594 H657 0.960 . S
C595 C594 1.560 . S
C595 O650 1.426 . S
C595 H654 0.980 . S
C596 C597 1.407 . S
C596 C601 1.418 . S
C596 O650 1.334 . S
C597 C596 1.407 . S
C597 C598 1.360 . S
C597 H658 0.929 . S
C598 C597 1.360 . S
C598 C599 1.401 . S
C598 C602 1.527 . S
C599 C598 1.401 . S
C599 C600 1.405 . S
C599 C632 1.587 . S
C600 C599 1.405 . S
C600 C601 1.332 . S
C600 C603 1.496 . S
C601 C596 1.418 . S
C601 C600 1.332 . S
C601 H659 0.929 . S
C602 C598 1.527 . S
C602 H660 0.959 . S
C602 H661 0.961 . S
C602 H662 0.961 . S
C603 C600 1.496 . S
C603 H663 0.960 . S
C603 H664 0.960 . S
C603 H665 0.961 . S
C604 C605 1.517 . S
C604 H667 0.961 . S
C604 H668 0.960 . S
C604 H669 0.959 . S
C605 C604 1.517 . S
C605 O653 1.468 . S
C605 H666 0.980 . S
C606 C607 1.349 . S
C606 C611 1.367 . S
C606 O653 1.408 . S
C607 C606 1.349 . S
C607 C608 1.407 . S
C607 H670 0.930 . S
C608 C607 1.407 . S
C608 C609 1.449 . S
C608 C612 1.535 . S
C609 C608 1.449 . S
C609 C610 1.384 . S
C609 C634 1.553 . S
C610 C609 1.384 . S
C610 C611 1.364 . S
C610 C613 1.450 . S
C611 C606 1.367 . S
C611 C610 1.364 . S
C611 H671 0.931 . S
C612 C608 1.535 . S
C612 H672 0.959 . S
C612 H673 0.961 . S
C612 H674 0.959 . S
C613 C610 1.450 . S
C613 H675 0.960 . S
C613 H676 0.960 . S
C613 H677 0.960 . S
C614 C615 1.309 . S
C614 C619 1.304 . S
C614 O652 1.435 . S
C615 C614 1.309 . S
C615 C616 1.476 . S
C615 H679 0.930 . S
C616 C615 1.476 . S
C616 C617 1.400 . S
C616 C620 1.567 . S
C617 C616 1.400 . S
C617 C618 1.373 . S
C617 C639 1.432 . S
C618 C617 1.373 . S
C618 C619 1.339 . S
C618 C621 1.530 . S
C619 C614 1.304 . S
C619 C618 1.339 . S
C619 H680 0.930 . S
C620 C616 1.567 . S
C620 H681 0.961 . S
C620 H682 0.960 . S
C620 H683 0.958 . S
C621 C618 1.530 . S
C621 H684 0.961 . S
C621 H685 0.960 . S
C621 H686 0.960 . S
C622 C623 1.530 . S
C622 H688 0.961 . S
C622 H689 0.961 . S
C622 H690 0.959 . S
C623 C622 1.530 . S
C623 O651 1.412 . S
C623 H687 0.980 . S
C624 C625 1.288 . S
C624 C629 1.377 . S
C624 O651 1.393 . S
C625 C624 1.288 . S
C625 C626 1.369 . S
C625 H691 0.932 . S
C626 C625 1.369 . S
C626 C627 1.398 . S
C626 C630 1.527 . S
C627 C626 1.398 . S
C627 C628 1.380 . S
C627 C641 1.497 . S
C628 C627 1.380 . S
C628 C629 1.383 . S
C628 C631 1.603 . S
C629 C624 1.377 . S
C629 C628 1.383 . S
C629 H692 0.929 . S
C630 C626 1.527 . S
C630 H693 0.961 . S
C630 H694 0.959 . S
C630 H695 0.959 . S
C631 C628 1.603 . S
C631 H696 0.960 . S
C631 H697 0.962 . S
C631 H698 0.961 . S
C632 C599 1.587 . S
C632 C633 1.360 . S
C632 C645 1.412 . S
C633 C632 1.360 . S
C633 C634 1.365 . S
C633 H699 0.929 . S
C634 C609 1.553 . S
C634 C633 1.365 . S
C634 C635 1.404 . S
C635 C634 1.404 . S
C635 C636 1.395 . S
C635 C646 1.451 . S
C636 C635 1.395 . S
C636 C637 1.322 . S
C636 H700 0.930 . S
C637 C636 1.322 . S
C637 C638 1.459 . S
C637 H701 0.929 . S
C638 C637 1.459 . S
C638 C639 1.445 . S
C638 C647 1.395 . S
C639 C617 1.432 . S
C639 C638 1.445 . S
C639 C640 1.370 . S
C640 C639 1.370 . S
C640 C641 1.438 . S
C640 H702 0.930 . S
C641 C627 1.497 . S
C641 C640 1.438 . S
C641 C642 1.360 . S
C642 C641 1.360 . S
C642 C643 1.401 . S
C642 C647 1.446 . S
C643 C642 1.401 . S
C643 C644 1.347 . S
C643 H703 0.929 . S
C644 C643 1.347 . S
C644 C645 1.455 . S
C644 H704 0.930 . S
C645 C632 1.412 . S
C645 C644 1.455 . S
C645 C646 1.331 . S
C646 C635 1.451 . S
C646 C645 1.331 . S
C646 C647 1.497 . S
C647 C638 1.395 . S
C647 C642 1.446 . S
C647 C646 1.497 . S
C648 C649 1.582 . S
C648 H705 0.962 . S
C648 H706 0.959 . S
C648 H707 0.958 . S
C649 C648 1.582 . S
C649 O652 1.458 . S
C649 H678 0.980 . S
O650 C595 1.426 . S
O650 C596 1.334 . S
O651 C623 1.412 . S
O651 C624 1.393 . S
O652 C614 1.435 . S
O652 C649 1.458 . S
O653 C605 1.468 . S
O653 C606 1.408 . S
H654 C595 0.980 . S
H655 C594 0.959 . S
H656 C594 0.959 . S
H657 C594 0.960 . S
H658 C597 0.929 . S
H659 C601 0.929 . S
H660 C602 0.959 . S
H661 C602 0.961 . S
H662 C602 0.961 . S
H663 C603 0.960 . S
H664 C603 0.960 . S
H665 C603 0.961 . S
H666 C605 0.980 . S
H667 C604 0.961 . S
H668 C604 0.960 . S
H669 C604 0.959 . S
H670 C607 0.930 . S
H671 C611 0.931 . S
H672 C612 0.959 . S
H673 C612 0.961 . S
H674 C612 0.959 . S
H675 C613 0.960 . S
H676 C613 0.960 . S
H677 C613 0.960 . S
H678 C649 0.980 . S
H679 C615 0.930 . S
H680 C619 0.930 . S
H681 C620 0.961 . S
H682 C620 0.960 . S
H683 C620 0.958 . S
H684 C621 0.961 . S
H685 C621 0.960 . S
H686 C621 0.960 . S
H687 C623 0.980 . S
H688 C622 0.961 . S
H689 C622 0.961 . S
H690 C622 0.959 . S
H691 C625 0.932 . S
H692 C629 0.929 . S
H693 C630 0.961 . S
H694 C630 0.959 . S
H695 C630 0.959 . S
H696 C631 0.960 . S
H697 C631 0.962 . S
H698 C631 0.961 . S
H699 C633 0.929 . S
H700 C636 0.930 . S
H701 C637 0.929 . S
H702 C640 0.930 . S
H703 C643 0.929 . S
H704 C644 0.930 . S
H705 C648 0.962 . S
H706 C648 0.959 . S
H707 C648 0.958 . S
C708 C709 1.560 . S
C708 H769 0.959 . S
C708 H770 0.959 . S
C708 H771 0.960 . S
C709 C708 1.560 . S
C709 O764 1.426 . S
C709 H768 0.980 . S
C710 C711 1.407 . S
C710 C715 1.418 . S
C710 O764 1.334 . S
C711 C710 1.407 . S
C711 C712 1.360 . S
C711 H772 0.929 . S
C712 C711 1.360 . S
C712 C713 1.401 . S
C712 C716 1.527 . S
C713 C712 1.401 . S
C713 C714 1.405 . S
C713 C746 1.587 . S
C714 C713 1.405 . S
C714 C715 1.332 . S
C714 C717 1.496 . S
C715 C710 1.418 . S
C715 C714 1.332 . S
C715 H773 0.929 . S
C716 C712 1.527 . S
C716 H774 0.959 . S
C716 H775 0.961 . S
C716 H776 0.961 . S
C717 C714 1.496 . S
C717 H777 0.960 . S
C717 H778 0.960 . S
C717 H779 0.961 . S
C718 C719 1.517 . S
C718 H781 0.961 . S
C718 H782 0.960 . S
C718 H783 0.959 . S
C719 C718 1.517 . S
C719 O767 1.468 . S
C719 H780 0.980 . S
C720 C721 1.349 . S
C720 C725 1.367 . S
C720 O767 1.408 . S
C721 C720 1.349 . S
C721 C722 1.407 . S
C721 H784 0.930 . S
C722 C721 1.407 . S
C722 C723 1.449 . S
C722 C726 1.535 . S
C723 C722 1.449 . S
C723 C724 1.384 . S
C723 C748 1.553 . S
C724 C723 1.384 . S
C724 C725 1.364 . S
C724 C727 1.450 . S
C725 C720 1.367 . S
C725 C724 1.364 . S
C725 H785 0.931 . S
C726 C722 1.535 . S
C726 H786 0.959 . S
C726 H787 0.961 . S
C726 H788 0.959 . S
C727 C724 1.450 . S
C727 H789 0.960 . S
C727 H790 0.960 . S
C727 H791 0.960 . S
C728 C729 1.309 . S
C728 C733 1.304 . S
C728 O766 1.435 . S
C729 C728 1.309 . S
C729 C730 1.476 . S
C729 H793 0.930 . S
C730 C729 1.476 . S
C730 C731 1.400 . S
C730 C734 1.567 . S
C731 C730 1.400 . S
C731 C732 1.373 . S
C731 C753 1.432 . S
C732 C731 1.373 . S
C732 C733 1.339 . S
C732 C735 1.530 . S
C733 C728 1.304 . S
C733 C732 1.339 . S
C733 H794 0.930 . S
C734 C730 1.567 . S
C734 H795 0.961 . S
C734 H796 0.960 . S
C734 H797 0.958 . S
C735 C732 1.530 . S
C735 H798 0.961 . S
C735 H799 0.960 . S
C735 H800 0.960 . S
C736 C737 1.530 . S
C736 H802 0.961 . S
C736 H803 0.961 . S
C736 H804 0.959 . S
C737 C736 1.530 . S
C737 O765 1.412 . S
C737 H801 0.980 . S
C738 C739 1.288 . S
C738 C743 1.377 . S
C738 O765 1.393 . S
C739 C738 1.288 . S
C739 C740 1.369 . S
C739 H805 0.932 . S
C740 C739 1.369 . S
C740 C741 1.398 . S
C740 C744 1.527 . S
C741 C740 1.398 . S
C741 C742 1.380 . S
C741 C755 1.497 . S
C742 C741 1.380 . S
C742 C743 1.383 . S
C742 C745 1.603 . S
C743 C738 1.377 . S
C743 C742 1.383 . S
C743 H806 0.929 . S
C744 C740 1.527 . S
C744 H807 0.961 . S
C744 H808 0.959 . S
C744 H809 0.959 . S
C745 C742 1.603 . S
C745 H810 0.960 . S
C745 H811 0.962 . S
C745 H812 0.961 . S
C746 C713 1.587 . S
C746 C747 1.360 . S
C746 C759 1.412 . S
C747 C746 1.360 . S
C747 C748 1.365 . S
C747 H813 0.929 . S
C748 C723 1.553 . S
C748 C747 1.365 . S
C748 C749 1.404 . S
C749 C748 1.404 . S
C749 C750 1.395 . S
C749 C760 1.451 . S
C750 C749 1.395 . S
C750 C751 1.322 . S
C750 H814 0.930 . S
C751 C750 1.322 . S
C751 C752 1.459 . S
C751 H815 0.929 . S
C752 C751 1.459 . S
C752 C753 1.445 . S
C752 C761 1.395 . S
C753 C731 1.432 . S
C753 C752 1.445 . S
C753 C754 1.370 . S
C754 C753 1.370 . S
C754 C755 1.438 . S
C754 H816 0.930 . S
C755 C741 1.497 . S
C755 C754 1.438 . S
C755 C756 1.360 . S
C756 C755 1.360 . S
C756 C757 1.401 . S
C756 C761 1.446 . S
C757 C756 1.401 . S
C757 C758 1.347 . S
C757 H817 0.929 . S
C758 C757 1.347 . S
C758 C759 1.455 . S
C758 H818 0.930 . S
C759 C746 1.412 . S
C759 C758 1.455 . S
C759 C760 1.331 . S
C760 C749 1.451 . S
C760 C759 1.331 . S
C760 C761 1.497 . S
C761 C752 1.395 . S
C761 C756 1.446 . S
C761 C760 1.497 . S
C762 C763 1.582 . S
C762 H819 0.962 . S
C762 H820 0.959 . S
C762 H821 0.958 . S
C763 C762 1.582 . S
C763 O766 1.458 . S
C763 H792 0.980 . S
O764 C709 1.426 . S
O764 C710 1.334 . S
O765 C737 1.412 . S
O765 C738 1.393 . S
O766 C728 1.435 . S
O766 C763 1.458 . S
O767 C719 1.468 . S
O767 C720 1.408 . S
H768 C709 0.980 . S
H769 C708 0.959 . S
H770 C708 0.959 . S
H771 C708 0.960 . S
H772 C711 0.929 . S
H773 C715 0.929 . S
H774 C716 0.959 . S
H775 C716 0.961 . S
H776 C716 0.961 . S
H777 C717 0.960 . S
H778 C717 0.960 . S
H779 C717 0.961 . S
H780 C719 0.980 . S
H781 C718 0.961 . S
H782 C718 0.960 . S
H783 C718 0.959 . S
H784 C721 0.930 . S
H785 C725 0.931 . S
H786 C726 0.959 . S
H787 C726 0.961 . S
H788 C726 0.959 . S
H789 C727 0.960 . S
H790 C727 0.960 . S
H791 C727 0.960 . S
H792 C763 0.980 . S
H793 C729 0.930 . S
H794 C733 0.930 . S
H795 C734 0.961 . S
H796 C734 0.960 . S
H797 C734 0.958 . S
H798 C735 0.961 . S
H799 C735 0.960 . S
H800 C735 0.960 . S
H801 C737 0.980 . S
H802 C736 0.961 . S
H803 C736 0.961 . S
H804 C736 0.959 . S
H805 C739 0.932 . S
H806 C743 0.929 . S
H807 C744 0.961 . S
H808 C744 0.959 . S
H809 C744 0.959 . S
H810 C745 0.960 . S
H811 C745 0.962 . S
H812 C745 0.961 . S
H813 C747 0.929 . S
H814 C750 0.930 . S
H815 C751 0.929 . S
H816 C754 0.930 . S
H817 C757 0.929 . S
H818 C758 0.930 . S
H819 C762 0.962 . S
H820 C762 0.959 . S
H821 C762 0.958 . S
C822 C823 1.560 . S
C822 H883 0.959 . S
C822 H884 0.959 . S
C822 H885 0.960 . S
C823 C822 1.560 . S
C823 O878 1.426 . S
C823 H882 0.980 . S
C824 C825 1.407 . S
C824 C829 1.418 . S
C824 O878 1.334 . S
C825 C824 1.407 . S
C825 C826 1.360 . S
C825 H886 0.929 . S
C826 C825 1.360 . S
C826 C827 1.401 . S
C826 C830 1.527 . S
C827 C826 1.401 . S
C827 C828 1.405 . S
C827 C860 1.587 . S
C828 C827 1.405 . S
C828 C829 1.332 . S
C828 C831 1.496 . S
C829 C824 1.418 . S
C829 C828 1.332 . S
C829 H887 0.929 . S
C830 C826 1.527 . S
C830 H888 0.959 . S
C830 H889 0.961 . S
C830 H890 0.961 . S
C831 C828 1.496 . S
C831 H891 0.960 . S
C831 H892 0.960 . S
C831 H893 0.961 . S
C832 C833 1.517 . S
C832 H895 0.961 . S
C832 H896 0.960 . S
C832 H897 0.959 . S
C833 C832 1.517 . S
C833 O881 1.468 . S
C833 H894 0.980 . S
C834 C835 1.349 . S
C834 C839 1.367 . S
C834 O881 1.408 . S
C835 C834 1.349 . S
C835 C836 1.407 . S
C835 H898 0.930 . S
C836 C835 1.407 . S
C836 C837 1.449 . S
C836 C840 1.535 . S
C837 C836 1.449 . S
C837 C838 1.384 . S
C837 C862 1.553 . S
C838 C837 1.384 . S
C838 C839 1.364 . S
C838 C841 1.450 . S
C839 C834 1.367 . S
C839 C838 1.364 . S
C839 H899 0.931 . S
C840 C836 1.535 . S
C840 H900 0.959 . S
C840 H901 0.961 . S
C840 H902 0.959 . S
C841 C838 1.450 . S
C841 H903 0.960 . S
C841 H904 0.960 . S
C841 H905 0.960 . S
C842 C843 1.309 . S
C842 C847 1.304 . S
C842 O880 1.435 . S
C843 C842 1.309 . S
C843 C844 1.476 . S
C843 H907 0.930 . S
C844 C843 1.476 . S
C844 C845 1.400 . S
C844 C848 1.567 . S
C845 C844 1.400 . S
C845 C846 1.373 . S
C845 C867 1.432 . S
C846 C845 1.373 . S
C846 C847 1.339 . S
C846 C849 1.530 . S
C847 C842 1.304 . S
C847 C846 1.339 . S
C847 H908 0.930 . S
C848 C844 1.567 . S
C848 H909 0.961 . S
C848 H910 0.960 . S
C848 H911 0.958 . S
C849 C846 1.530 . S
C849 H912 0.961 . S
C849 H913 0.960 . S
C849 H914 0.960 . S
C850 C851 1.530 . S
C850 H916 0.961 . S
C850 H917 0.961 . S
C850 H918 0.959 . S
C851 C850 1.530 . S
C851 O879 1.412 . S
C851 H915 0.980 . S
C852 C853 1.288 . S
C852 C857 1.377 . S
C852 O879 1.393 . S
C853 C852 1.288 . S
C853 C854 1.369 . S
C853 H919 0.932 . S
C854 C853 1.369 . S
C854 C855 1.398 . S
C854 C858 1.527 . S
C855 C854 1.398 . S
C855 C856 1.380 . S
C855 C869 1.497 . S
C856 C855 1.380 . S
C856 C857 1.383 . S
C856 C859 1.603 . S
C857 C852 1.377 . S
C857 C856 1.383 . S
C857 H920 0.929 . S
C858 C854 1.527 . S
C858 H921 0.961 . S
C858 H922 0.959 . S
C858 H923 0.959 . S
C859 C856 1.603 . S
C859 H924 0.960 . S
C859 H925 0.962 . S
C859 H926 0.961 . S
C860 C827 1.587 . S
C860 C861 1.360 . S
C860 C873 1.412 . S
C861 C860 1.360 . S
C861 C862 1.365 . S
C861 H927 0.929 . S
C862 C837 1.553 . S
C862 C861 1.365 . S
C862 C863 1.404 . S
C863 C862 1.404 . S
C863 C864 1.395 . S
C863 C874 1.451 . S
C864 C863 1.395 . S
C864 C865 1.322 . S
C864 H928 0.930 . S
C865 C864 1.322 . S
C865 C866 1.459 . S
C865 H929 0.929 . S
C866 C865 1.459 . S
C866 C867 1.445 . S
C866 C875 1.395 . S
C867 C845 1.432 . S
C867 C866 1.445 . S
C867 C868 1.370 . S
C868 C867 1.370 . S
C868 C869 1.438 . S
C868 H930 0.930 . S
C869 C855 1.497 . S
C869 C868 1.438 . S
C869 C870 1.360 . S
C870 C869 1.360 . S
C870 C871 1.401 . S
C870 C875 1.446 . S
C871 C870 1.401 . S
C871 C872 1.347 . S
C871 H931 0.929 . S
C872 C871 1.347 . S
C872 C873 1.455 . S
C872 H932 0.930 . S
C873 C860 1.412 . S
C873 C872 1.455 . S
C873 C874 1.331 . S
C874 C863 1.451 . S
C874 C873 1.331 . S
C874 C875 1.497 . S
C875 C866 1.395 . S
C875 C870 1.446 . S
C875 C874 1.497 . S
C876 C877 1.582 . S
C876 H933 0.962 . S
C876 H934 0.959 . S
C876 H935 0.958 . S
C877 C876 1.582 . S
C877 O880 1.458 . S
C877 H906 0.980 . S
O878 C823 1.426 . S
O878 C824 1.334 . S
O879 C851 1.412 . S
O879 C852 1.393 . S
O880 C842 1.435 . S
O880 C877 1.458 . S
O881 C833 1.468 . S
O881 C834 1.408 . S
H882 C823 0.980 . S
H883 C822 0.959 . S
H884 C822 0.959 . S
H885 C822 0.960 . S
H886 C825 0.929 . S
H887 C829 0.929 . S
H888 C830 0.959 . S
H889 C830 0.961 . S
H890 C830 0.961 . S
H891 C831 0.960 . S
H892 C831 0.960 . S
H893 C831 0.961 . S
H894 C833 0.980 . S
H895 C832 0.961 . S
H896 C832 0.960 . S
H897 C832 0.959 . S
H898 C835 0.930 . S
H899 C839 0.931 . S
H900 C840 0.959 . S
H901 C840 0.961 . S
H902 C840 0.959 . S
H903 C841 0.960 . S
H904 C841 0.960 . S
H905 C841 0.960 . S
H906 C877 0.980 . S
H907 C843 0.930 . S
H908 C847 0.930 . S
H909 C848 0.961 . S
H910 C848 0.960 . S
H911 C848 0.958 . S
H912 C849 0.961 . S
H913 C849 0.960 . S
H914 C849 0.960 . S
H915 C851 0.980 . S
H916 C850 0.961 . S
H917 C850 0.961 . S
H918 C850 0.959 . S
H919 C853 0.932 . S
H920 C857 0.929 . S
H921 C858 0.961 . S
H922 C858 0.959 . S
H923 C858 0.959 . S
H924 C859 0.960 . S
H925 C859 0.962 . S
H926 C859 0.961 . S
H927 C861 0.929 . S
H928 C864 0.930 . S
H929 C865 0.929 . S
H930 C868 0.930 . S
H931 C871 0.929 . S
H932 C872 0.930 . S
H933 C876 0.962 . S
H934 C876 0.959 . S
H935 C876 0.958 . S
C936 C937 1.560 . S
C936 H997 0.959 . S
C936 H998 0.959 . S
C936 H999 0.960 . S
C937 C936 1.560 . S
C937 O992 1.426 . S
C937 H996 0.980 . S
C938 C939 1.407 . S
C938 C943 1.418 . S
C938 O992 1.334 . S
C939 C938 1.407 . S
C939 C940 1.360 . S
C939 H1000 0.929 . S
C940 C939 1.360 . S
C940 C941 1.401 . S
C940 C944 1.527 . S
C941 C940 1.401 . S
C941 C942 1.405 . S
C941 C974 1.587 . S
C942 C941 1.405 . S
C942 C943 1.332 . S
C942 C945 1.496 . S
C943 C938 1.418 . S
C943 C942 1.332 . S
C943 H1001 0.929 . S
C944 C940 1.527 . S
C944 H1002 0.959 . S
C944 H1003 0.961 . S
C944 H1004 0.961 . S
C945 C942 1.496 . S
C945 H1005 0.960 . S
C945 H1006 0.960 . S
C945 H1007 0.961 . S
C946 C947 1.517 . S
C946 H1009 0.961 . S
C946 H1010 0.960 . S
C946 H1011 0.959 . S
C947 C946 1.517 . S
C947 O995 1.468 . S
C947 H1008 0.980 . S
C948 C949 1.349 . S
C948 C953 1.367 . S
C948 O995 1.408 . S
C949 C948 1.349 . S
C949 C950 1.407 . S
C949 H1012 0.930 . S
C950 C949 1.407 . S
C950 C951 1.449 . S
C950 C954 1.535 . S
C951 C950 1.449 . S
C951 C952 1.384 . S
C951 C976 1.553 . S
C952 C951 1.384 . S
C952 C953 1.364 . S
C952 C955 1.450 . S
C953 C948 1.367 . S
C953 C952 1.364 . S
C953 H1013 0.931 . S
C954 C950 1.535 . S
C954 H1014 0.959 . S
C954 H1015 0.961 . S
C954 H1016 0.959 . S
C955 C952 1.450 . S
C955 H1017 0.960 . S
C955 H1018 0.960 . S
C955 H1019 0.960 . S
C956 C957 1.309 . S
C956 C961 1.304 . S
C956 O994 1.435 . S
C957 C956 1.309 . S
C957 C958 1.476 . S
C957 H1021 0.930 . S
C958 C957 1.476 . S
C958 C959 1.400 . S
C958 C962 1.567 . S
C959 C958 1.400 . S
C959 C960 1.373 . S
C959 C981 1.432 . S
C960 C959 1.373 . S
C960 C961 1.339 . S
C960 C963 1.530 . S
C961 C956 1.304 . S
C961 C960 1.339 . S
C961 H1022 0.930 . S
C962 C958 1.567 . S
C962 H1023 0.961 . S
C962 H1024 0.960 . S
C962 H1025 0.958 . S
C963 C960 1.530 . S
C963 H1026 0.961 . S
C963 H1027 0.960 . S
C963 H1028 0.960 . S
C964 C965 1.530 . S
C964 H1030 0.961 . S
C964 H1031 0.961 . S
C964 H1032 0.959 . S
C965 C964 1.530 . S
C965 O993 1.412 . S
C965 H1029 0.980 . S
C966 C967 1.288 . S
C966 C971 1.377 . S
C966 O993 1.393 . S
C967 C966 1.288 . S
C967 C968 1.369 . S
C967 H1033 0.932 . S
C968 C967 1.369 . S
C968 C969 1.398 . S
C968 C972 1.527 . S
C969 C968 1.398 . S
C969 C970 1.380 . S
C969 C983 1.497 . S
C970 C969 1.380 . S
C970 C971 1.383 . S
C970 C973 1.603 . S
C971 C966 1.377 . S
C971 C970 1.383 . S
C971 H1034 0.929 . S
C972 C968 1.527 . S
C972 H1035 0.961 . S
C972 H1036 0.959 . S
C972 H1037 0.959 . S
C973 C970 1.603 . S
C973 H1038 0.960 . S
C973 H1039 0.962 . S
C973 H1040 0.961 . S
C974 C941 1.587 . S
C974 C975 1.360 . S
C974 C987 1.412 . S
C975 C974 1.360 . S
C975 C976 1.365 . S
C975 H1041 0.929 . S
C976 C951 1.553 . S
C976 C975 1.365 . S
C976 C977 1.404 . S
C977 C976 1.404 . S
C977 C978 1.395 . S
C977 C988 1.451 . S
C978 C977 1.395 . S
C978 C979 1.322 . S
C978 H1042 0.930 . S
C979 C978 1.322 . S
C979 C980 1.459 . S
C979 H1043 0.929 . S
C980 C979 1.459 . S
C980 C981 1.445 . S
C980 C989 1.395 . S
C981 C959 1.432 . S
C981 C980 1.445 . S
C981 C982 1.370 . S
C982 C981 1.370 . S
C982 C983 1.438 . S
C982 H1044 0.930 . S
C983 C969 1.497 . S
C983 C982 1.438 . S
C983 C984 1.360 . S
C984 C983 1.360 . S
C984 C985 1.401 . S
C984 C989 1.446 . S
C985 C984 1.401 . S
C985 C986 1.347 . S
C985 H1045 0.929 . S
C986 C985 1.347 . S
C986 C987 1.455 . S
C986 H1046 0.930 . S
C987 C974 1.412 . S
C987 C986 1.455 . S
C987 C988 1.331 . S
C988 C977 1.451 . S
C988 C987 1.331 . S
C988 C989 1.497 . S
C989 C980 1.395 . S
C989 C984 1.446 . S
C989 C988 1.497 . S
C990 C991 1.582 . S
C990 H1047 0.962 . S
C990 H1048 0.959 . S
C990 H1049 0.958 . S
C991 C990 1.582 . S
C991 O994 1.458 . S
C991 H1020 0.980 . S
O992 C937 1.426 . S
O992 C938 1.334 . S
O993 C965 1.412 . S
O993 C966 1.393 . S
O994 C956 1.435 . S
O994 C991 1.458 . S
O995 C947 1.468 . S
O995 C948 1.408 . S
H996 C937 0.980 . S
H997 C936 0.959 . S
H998 C936 0.959 . S
H999 C936 0.960 . S
H1000 C939 0.929 . S
H1001 C943 0.929 . S
H1002 C944 0.959 . S
H1003 C944 0.961 . S
H1004 C944 0.961 . S
H1005 C945 0.960 . S
H1006 C945 0.960 . S
H1007 C945 0.961 . S
H1008 C947 0.980 . S
H1009 C946 0.961 . S
H1010 C946 0.960 . S
H1011 C946 0.959 . S
H1012 C949 0.930 . S
H1013 C953 0.931 . S
H1014 C954 0.959 . S
H1015 C954 0.961 . S
H1016 C954 0.959 . S
H1017 C955 0.960 . S
H1018 C955 0.960 . S
H1019 C955 0.960 . S
H1020 C991 0.980 . S
H1021 C957 0.930 . S
H1022 C961 0.930 . S
H1023 C962 0.961 . S
H1024 C962 0.960 . S
H1025 C962 0.958 . S
H1026 C963 0.961 . S
H1027 C963 0.960 . S
H1028 C963 0.960 . S
H1029 C965 0.980 . S
H1030 C964 0.961 . S
H1031 C964 0.961 . S
H1032 C964 0.959 . S
H1033 C967 0.932 . S
H1034 C971 0.929 . S
H1035 C972 0.961 . S
H1036 C972 0.959 . S
H1037 C972 0.959 . S
H1038 C973 0.960 . S
H1039 C973 0.962 . S
H1040 C973 0.961 . S
H1041 C975 0.929 . S
H1042 C978 0.930 . S
H1043 C979 0.929 . S
H1044 C982 0.930 . S
H1045 C985 0.929 . S
H1046 C986 0.930 . S
H1047 C990 0.962 . S
H1048 C990 0.959 . S
H1049 C990 0.958 . S
C1050 C1051 1.560 . S
C1050 H1111 0.959 . S
C1050 H1112 0.959 . S
C1050 H1113 0.960 . S
C1051 C1050 1.560 . S
C1051 O1106 1.426 . S
C1051 H1110 0.980 . S
C1052 C1053 1.407 . S
C1052 C1057 1.418 . S
C1052 O1106 1.334 . S
C1053 C1052 1.407 . S
C1053 C1054 1.360 . S
C1053 H1114 0.929 . S
C1054 C1053 1.360 . S
C1054 C1055 1.401 . S
C1054 C1058 1.527 . S
C1055 C1054 1.401 . S
C1055 C1056 1.405 . S
C1055 C1088 1.587 . S
C1056 C1055 1.405 . S
C1056 C1057 1.332 . S
C1056 C1059 1.496 . S
C1057 C1052 1.418 . S
C1057 C1056 1.332 . S
C1057 H1115 0.929 . S
C1058 C1054 1.527 . S
C1058 H1116 0.959 . S
C1058 H1117 0.961 . S
C1058 H1118 0.961 . S
C1059 C1056 1.496 . S
C1059 H1119 0.960 . S
C1059 H1120 0.960 . S
C1059 H1121 0.961 . S
C1060 C1061 1.517 . S
C1060 H1123 0.961 . S
C1060 H1124 0.960 . S
C1060 H1125 0.959 . S
C1061 C1060 1.517 . S
C1061 O1109 1.468 . S
C1061 H1122 0.980 . S
C1062 C1063 1.349 . S
C1062 C1067 1.367 . S
C1062 O1109 1.408 . S
C1063 C1062 1.349 . S
C1063 C1064 1.407 . S
C1063 H1126 0.930 . S
C1064 C1063 1.407 . S
C1064 C1065 1.449 . S
C1064 C1068 1.535 . S
C1065 C1064 1.449 . S
C1065 C1066 1.384 . S
C1065 C1090 1.553 . S
C1066 C1065 1.384 . S
C1066 C1067 1.364 . S
C1066 C1069 1.450 . S
C1067 C1062 1.367 . S
C1067 C1066 1.364 . S
C1067 H1127 0.931 . S
C1068 C1064 1.535 . S
C1068 H1128 0.959 . S
C1068 H1129 0.961 . S
C1068 H1130 0.959 . S
C1069 C1066 1.450 . S
C1069 H1131 0.960 . S
C1069 H1132 0.960 . S
C1069 H1133 0.960 . S
C1070 C1071 1.309 . S
C1070 C1075 1.304 . S
C1070 O1108 1.435 . S
C1071 C1070 1.309 . S
C1071 C1072 1.476 . S
C1071 H1135 0.930 . S
C1072 C1071 1.476 . S
C1072 C1073 1.400 . S
C1072 C1076 1.567 . S
C1073 C1072 1.400 . S
C1073 C1074 1.373 . S
C1073 C1095 1.432 . S
C1074 C1073 1.373 . S
C1074 C1075 1.339 . S
C1074 C1077 1.530 . S
C1075 C1070 1.304 . S
C1075 C1074 1.339 . S
C1075 H1136 0.930 . S
C1076 C1072 1.567 . S
C1076 H1137 0.961 . S
C1076 H1138 0.960 . S
C1076 H1139 0.958 . S
C1077 C1074 1.530 . S
C1077 H1140 0.961 . S
C1077 H1141 0.960 . S
C1077 H1142 0.960 . S
C1078 C1079 1.530 . S
C1078 H1144 0.961 . S
C1078 H1145 0.961 . S
C1078 H1146 0.959 . S
C1079 C1078 1.530 . S
C1079 O1107 1.412 . S
C1079 H1143 0.980 . S
C1080 C1081 1.288 . S
C1080 C1085 1.377 . S
C1080 O1107 1.393 . S
C1081 C1080 1.288 . S
C1081 C1082 1.369 . S
C1081 H1147 0.932 . S
C1082 C1081 1.369 . S
C1082 C1083 1.398 . S
C1082 C1086 1.527 . S
C1083 C1082 1.398 . S
C1083 C1084 1.380 . S
C1083 C1097 1.497 . S
C1084 C1083 1.380 . S
C1084 C1085 1.383 . S
C1084 C1087 1.603 . S
C1085 C1080 1.377 . S
C1085 C1084 1.383 . S
C1085 H1148 0.929 . S
C1086 C1082 1.527 . S
C1086 H1149 0.961 . S
C1086 H1150 0.959 . S
C1086 H1151 0.959 . S
C1087 C1084 1.603 . S
C1087 H1152 0.960 . S
C1087 H1153 0.962 . S
C1087 H1154 0.961 . S
C1088 C1055 1.587 . S
C1088 C1089 1.360 . S
C1088 C1101 1.412 . S
C1089 C1088 1.360 . S
C1089 C1090 1.365 . S
C1089 H1155 0.929 . S
C1090 C1065 1.553 . S
C1090 C1089 1.365 . S
C1090 C1091 1.404 . S
C1091 C1090 1.404 . S
C1091 C1092 1.395 . S
C1091 C1102 1.451 . S
C1092 C1091 1.395 . S
C1092 C1093 1.322 . S
C1092 H1156 0.930 . S
C1093 C1092 1.322 . S
C1093 C1094 1.459 . S
C1093 H1157 0.929 . S
C1094 C1093 1.459 . S
C1094 C1095 1.445 . S
C1094 C1103 1.395 . S
C1095 C1073 1.432 . S
C1095 C1094 1.445 . S
C1095 C1096 1.370 . S
C1096 C1095 1.370 . S
C1096 C1097 1.438 . S
C1096 H1158 0.930 . S
C1097 C1083 1.497 . S
C1097 C1096 1.438 . S
C1097 C1098 1.360 . S
C1098 C1097 1.360 . S
C1098 C1099 1.401 . S
C1098 C1103 1.446 . S
C1099 C1098 1.401 . S
C1099 C1100 1.347 . S
C1099 H1159 0.929 . S
C1100 C1099 1.347 . S
C1100 C1101 1.455 . S
C1100 H1160 0.930 . S
C1101 C1088 1.412 . S
C1101 C1100 1.455 . S
C1101 C1102 1.331 . S
C1102 C1091 1.451 . S
C1102 C1101 1.331 . S
C1102 C1103 1.497 . S
C1103 C1094 1.395 . S
C1103 C1098 1.446 . S
C1103 C1102 1.497 . S
C1104 C1105 1.582 . S
C1104 H1161 0.962 . S
C1104 H1162 0.959 . S
C1104 H1163 0.958 . S
C1105 C1104 1.582 . S
C1105 O1108 1.458 . S
C1105 H1134 0.980 . S
O1106 C1051 1.426 . S
O1106 C1052 1.334 . S
O1107 C1079 1.412 . S
O1107 C1080 1.393 . S
O1108 C1070 1.435 . S
O1108 C1105 1.458 . S
O1109 C1061 1.468 . S
O1109 C1062 1.408 . S
H1110 C1051 0.980 . S
H1111 C1050 0.959 . S
H1112 C1050 0.959 . S
H1113 C1050 0.960 . S
H1114 C1053 0.929 . S
H1115 C1057 0.929 . S
H1116 C1058 0.959 . S
H1117 C1058 0.961 . S
H1118 C1058 0.961 . S
H1119 C1059 0.960 . S
H1120 C1059 0.960 . S
H1121 C1059 0.961 . S
H1122 C1061 0.980 . S
H1123 C1060 0.961 . S
H1124 C1060 0.960 . S
H1125 C1060 0.959 . S
H1126 C1063 0.930 . S
H1127 C1067 0.931 . S
H1128 C1068 0.959 . S
H1129 C1068 0.961 . S
H1130 C1068 0.959 . S
H1131 C1069 0.960 . S
H1132 C1069 0.960 . S
H1133 C1069 0.960 . S
H1134 C1105 0.980 . S
H1135 C1071 0.930 . S
H1136 C1075 0.930 . S
H1137 C1076 0.961 . S
H1138 C1076 0.960 . S
H1139 C1076 0.958 . S
H1140 C1077 0.961 . S
H1141 C1077 0.960 . S
H1142 C1077 0.960 . S
H1143 C1079 0.980 . S
H1144 C1078 0.961 . S
H1145 C1078 0.961 . S
H1146 C1078 0.959 . S
H1147 C1081 0.932 . S
H1148 C1085 0.929 . S
H1149 C1086 0.961 . S
H1150 C1086 0.959 . S
H1151 C1086 0.959 . S
H1152 C1087 0.960 . S
H1153 C1087 0.962 . S
H1154 C1087 0.961 . S
H1155 C1089 0.929 . S
H1156 C1092 0.930 . S
H1157 C1093 0.929 . S
H1158 C1096 0.930 . S
H1159 C1099 0.929 . S
H1160 C1100 0.930 . S
H1161 C1104 0.962 . S
H1162 C1104 0.959 . S
H1163 C1104 0.958 . S
C1164 C1165 1.560 . S
C1164 H1225 0.959 . S
C1164 H1226 0.959 . S
C1164 H1227 0.960 . S
C1165 C1164 1.560 . S
C1165 O1220 1.426 . S
C1165 H1224 0.980 . S
C1166 C1167 1.407 . S
C1166 C1171 1.418 . S
C1166 O1220 1.334 . S
C1167 C1166 1.407 . S
C1167 C1168 1.360 . S
C1167 H1228 0.929 . S
C1168 C1167 1.360 . S
C1168 C1169 1.401 . S
C1168 C1172 1.527 . S
C1169 C1168 1.401 . S
C1169 C1170 1.405 . S
C1169 C1202 1.587 . S
C1170 C1169 1.405 . S
C1170 C1171 1.332 . S
C1170 C1173 1.496 . S
C1171 C1166 1.418 . S
C1171 C1170 1.332 . S
C1171 H1229 0.929 . S
C1172 C1168 1.527 . S
C1172 H1230 0.959 . S
C1172 H1231 0.961 . S
C1172 H1232 0.961 . S
C1173 C1170 1.496 . S
C1173 H1233 0.960 . S
C1173 H1234 0.960 . S
C1173 H1235 0.961 . S
C1174 C1175 1.517 . S
C1174 H1237 0.961 . S
C1174 H1238 0.960 . S
C1174 H1239 0.959 . S
C1175 C1174 1.517 . S
C1175 O1223 1.468 . S
C1175 H1236 0.980 . S
C1176 C1177 1.349 . S
C1176 C1181 1.367 . S
C1176 O1223 1.408 . S
C1177 C1176 1.349 . S
C1177 C1178 1.407 . S
C1177 H1240 0.930 . S
C1178 C1177 1.407 . S
C1178 C1179 1.449 . S
C1178 C1182 1.535 . S
C1179 C1178 1.449 . S
C1179 C1180 1.384 . S
C1179 C1204 1.553 . S
C1180 C1179 1.384 . S
C1180 C1181 1.364 . S
C1180 C1183 1.450 . S
C1181 C1176 1.367 . S
C1181 C1180 1.364 . S
C1181 H1241 0.931 . S
C1182 C1178 1.535 . S
C1182 H1242 0.959 . S
C1182 H1243 0.961 . S
C1182 H1244 0.959 . S
C1183 C1180 1.450 . S
C1183 H1245 0.960 . S
C1183 H1246 0.960 . S
C1183 H1247 0.960 . S
C1184 C1185 1.309 . S
C1184 C1189 1.304 . S
C1184 O1222 1.435 . S
C1185 C1184 1.309 . S
C1185 C1186 1.476 . S
C1185 H1249 0.930 . S
C1186 C1185 1.476 . S
C1186 C1187 1.400 . S
C1186 C1190 1.567 . S
C1187 C1186 1.400 . S
C1187 C1188 1.373 . S
C1187 C1209 1.432 . S
C1188 C1187 1.373 . S
C1188 C1189 1.339 . S
C1188 C1191 1.530 . S
C1189 C1184 1.304 . S
C1189 C1188 1.339 . S
C1189 H1250 0.930 . S
C1190 C1186 1.567 . S
C1190 H1251 0.961 . S
C1190 H1252 0.960 . S
C1190 H1253 0.958 . S
C1191 C1188 1.530 . S
C1191 H1254 0.961 . S
C1191 H1255 0.960 . S
C1191 H1256 0.960 . S
C1192 C1193 1.530 . S
C1192 H1258 0.961 . S
C1192 H1259 0.961 . S
C1192 H1260 0.959 . S
C1193 C1192 1.530 . S
C1193 O1221 1.412 . S
C1193 H1257 0.980 . S
C1194 C1195 1.288 . S
C1194 C1199 1.377 . S
C1194 O1221 1.393 . S
C1195 C1194 1.288 . S
C1195 C1196 1.369 . S
C1195 H1261 0.932 . S
C1196 C1195 1.369 . S
C1196 C1197 1.398 . S
C1196 C1200 1.527 . S
C1197 C1196 1.398 . S
C1197 C1198 1.380 . S
C1197 C1211 1.497 . S
C1198 C1197 1.380 . S
C1198 C1199 1.383 . S
C1198 C1201 1.603 . S
C1199 C1194 1.377 . S
C1199 C1198 1.383 . S
C1199 H1262 0.929 . S
C1200 C1196 1.527 . S
C1200 H1263 0.961 . S
C1200 H1264 0.959 . S
C1200 H1265 0.959 . S
C1201 C1198 1.603 . S
C1201 H1266 0.960 . S
C1201 H1267 0.962 . S
C1201 H1268 0.961 . S
C1202 C1169 1.587 . S
C1202 C1203 1.360 . S
C1202 C1215 1.412 . S
C1203 C1202 1.360 . S
C1203 C1204 1.365 . S
C1203 H1269 0.929 . S
C1204 C1179 1.553 . S
C1204 C1203 1.365 . S
C1204 C1205 1.404 . S
C1205 C1204 1.404 . S
C1205 C1206 1.395 . S
C1205 C1216 1.451 . S
C1206 C1205 1.395 . S
C1206 C1207 1.322 . S
C1206 H1270 0.930 . S
C1207 C1206 1.322 . S
C1207 C1208 1.459 . S
C1207 H1271 0.929 . S
C1208 C1207 1.459 . S
C1208 C1209 1.445 . S
C1208 C1217 1.395 . S
C1209 C1187 1.432 . S
C1209 C1208 1.445 . S
C1209 C1210 1.370 . S
C1210 C1209 1.370 . S
C1210 C1211 1.438 . S
C1210 H1272 0.930 . S
C1211 C1197 1.497 . S
C1211 C1210 1.438 . S
C1211 C1212 1.360 . S
C1212 C1211 1.360 . S
C1212 C1213 1.401 . S
C1212 C1217 1.446 . S
C1213 C1212 1.401 . S
C1213 C1214 1.347 . S
C1213 H1273 0.929 . S
C1214 C1213 1.347 . S
C1214 C1215 1.455 . S
C1214 H1274 0.930 . S
C1215 C1202 1.412 . S
C1215 C1214 1.455 . S
C1215 C1216 1.331 . S
C1216 C1205 1.451 . S
C1216 C1215 1.331 . S
C1216 C1217 1.497 . S
C1217 C1208 1.395 . S
C1217 C1212 1.446 . S
C1217 C1216 1.497 . S
C1218 C1219 1.582 . S
C1218 H1275 0.962 . S
C1218 H1276 0.959 . S
C1218 H1277 0.958 . S
C1219 C1218 1.582 . S
C1219 O1222 1.458 . S
C1219 H1248 0.980 . S
O1220 C1165 1.426 . S
O1220 C1166 1.334 . S
O1221 C1193 1.412 . S
O1221 C1194 1.393 . S
O1222 C1184 1.435 . S
O1222 C1219 1.458 . S
O1223 C1175 1.468 . S
O1223 C1176 1.408 . S
H1224 C1165 0.980 . S
H1225 C1164 0.959 . S
H1226 C1164 0.959 . S
H1227 C1164 0.960 . S
H1228 C1167 0.929 . S
H1229 C1171 0.929 . S
H1230 C1172 0.959 . S
H1231 C1172 0.961 . S
H1232 C1172 0.961 . S
H1233 C1173 0.960 . S
H1234 C1173 0.960 . S
H1235 C1173 0.961 . S
H1236 C1175 0.980 . S
H1237 C1174 0.961 . S
H1238 C1174 0.960 . S
H1239 C1174 0.959 . S
H1240 C1177 0.930 . S
H1241 C1181 0.931 . S
H1242 C1182 0.959 . S
H1243 C1182 0.961 . S
H1244 C1182 0.959 . S
H1245 C1183 0.960 . S
H1246 C1183 0.960 . S
H1247 C1183 0.960 . S
H1248 C1219 0.980 . S
H1249 C1185 0.930 . S
H1250 C1189 0.930 . S
H1251 C1190 0.961 . S
H1252 C1190 0.960 . S
H1253 C1190 0.958 . S
H1254 C1191 0.961 . S
H1255 C1191 0.960 . S
H1256 C1191 0.960 . S
H1257 C1193 0.980 . S
H1258 C1192 0.961 . S
H1259 C1192 0.961 . S
H1260 C1192 0.959 . S
H1261 C1195 0.932 . S
H1262 C1199 0.929 . S
H1263 C1200 0.961 . S
H1264 C1200 0.959 . S
H1265 C1200 0.959 . S
H1266 C1201 0.960 . S
H1267 C1201 0.962 . S
H1268 C1201 0.961 . S
H1269 C1203 0.929 . S
H1270 C1206 0.930 . S
H1271 C1207 0.929 . S
H1272 C1210 0.930 . S
H1273 C1213 0.929 . S
H1274 C1214 0.930 . S
H1275 C1218 0.962 . S
H1276 C1218 0.959 . S
H1277 C1218 0.958 . S
C1278 C1279 1.560 . S
C1278 H1339 0.959 . S
C1278 H1340 0.959 . S
C1278 H1341 0.960 . S
C1279 C1278 1.560 . S
C1279 O1334 1.426 . S
C1279 H1338 0.980 . S
C1280 C1281 1.407 1_455 S
C1280 C1285 1.418 . S
C1280 O1334 1.334 . S
C1281 C1280 1.407 1_655 S
C1281 C1282 1.360 . S
C1281 H1342 0.929 . S
C1282 C1281 1.360 . S
C1282 C1283 1.401 1_655 S
C1282 C1286 1.527 . S
C1283 C1282 1.401 1_455 S
C1283 C1284 1.405 . S
C1283 C1316 1.587 1_455 S
C1284 C1283 1.405 . S
C1284 C1285 1.332 . S
C1284 C1287 1.496 . S
C1285 C1280 1.418 . S
C1285 C1284 1.332 . S
C1285 H1343 0.929 . S
C1286 C1282 1.527 . S
C1286 H1344 0.959 . S
C1286 H1345 0.961 . S
C1286 H1346 0.961 . S
C1287 C1284 1.496 . S
C1287 H1347 0.960 . S
C1287 H1348 0.960 . S
C1287 H1349 0.961 . S
C1288 C1289 1.517 . S
C1288 H1351 0.961 . S
C1288 H1352 0.960 . S
C1288 H1353 0.959 . S
C1289 C1288 1.517 . S
C1289 O1337 1.468 . S
C1289 H1350 0.980 1_655 S
C1290 C1291 1.349 . S
C1290 C1295 1.367 . S
C1290 O1337 1.408 . S
C1291 C1290 1.349 . S
C1291 C1292 1.374 1_655 S
C1291 H1354 0.930 1_655 S
C1292 C1291 1.374 1_455 S
C1292 C1293 1.422 1_455 S
C1292 C1296 1.591 . S
C1293 C1292 1.422 1_655 S
C1293 C1294 1.384 . S
C1293 C1318 1.553 . S
C1294 C1293 1.384 . S
C1294 C1295 1.364 . S
C1294 C1297 1.450 . S
C1295 C1290 1.367 . S
C1295 C1294 1.364 . S
C1295 H1355 0.931 . S
C1296 C1292 1.591 . S
C1296 H1356 0.959 . S
C1296 H1357 0.961 . S
C1296 H1358 0.959 . S
C1297 C1294 1.450 . S
C1297 H1359 0.960 . S
C1297 H1360 0.960 . S
C1297 H1361 0.960 . S
C1298 C1299 1.309 . S
C1298 C1303 1.304 . S
C1298 O1336 1.435 . S
C1299 C1298 1.309 . S
C1299 C1300 1.472 . S
C1299 H1363 0.930 1_655 S
C1300 C1299 1.472 . S
C1300 C1301 1.398 . S
C1300 C1304 1.572 1_655 S
C1301 C1300 1.398 . S
C1301 C1302 1.373 . S
C1301 C1323 1.432 . S
C1302 C1301 1.373 . S
C1302 C1303 1.339 . S
C1302 C1305 1.530 . S
C1303 C1298 1.304 . S
C1303 C1302 1.339 . S
C1303 H1364 0.930 . S
C1304 C1300 1.572 1_455 S
C1304 H1365 0.961 . S
C1304 H1366 0.960 . S
C1304 H1367 0.958 . S
C1305 C1302 1.530 . S
C1305 H1368 0.961 . S
C1305 H1369 0.960 . S
C1305 H1370 0.960 . S
C1306 C1307 1.547 . S
C1306 H1372 0.961 . S
C1306 H1373 0.961 . S
C1306 H1374 0.959 . S
C1307 C1306 1.547 . S
C1307 O1335 1.415 . S
C1307 H1371 0.976 1_455 S
C1308 C1309 1.288 . S
C1308 C1313 1.377 1_455 S
C1308 O1335 1.393 . S
C1309 C1308 1.288 . S
C1309 C1310 1.369 . S
C1309 H1375 0.932 . S
C1310 C1309 1.369 . S
C1310 C1311 1.398 1_455 S
C1310 C1314 1.527 . S
C1311 C1310 1.398 1_655 S
C1311 C1312 1.380 . S
C1311 C1325 1.497 . S
C1312 C1311 1.380 . S
C1312 C1313 1.383 . S
C1312 C1315 1.603 . S
C1313 C1308 1.377 1_655 S
C1313 C1312 1.383 . S
C1313 H1376 0.929 . S
C1314 C1310 1.527 . S
C1314 H1377 0.961 . S
C1314 H1378 0.959 . S
C1314 H1379 0.959 . S
C1315 C1312 1.603 . S
C1315 H1380 0.960 . S
C1315 H1381 0.962 . S
C1315 H1382 0.961 . S
C1316 C1283 1.587 1_655 S
C1316 C1317 1.360 . S
C1316 C1329 1.412 . S
C1317 C1316 1.360 . S
C1317 C1318 1.365 . S
C1317 H1383 0.929 . S
C1318 C1293 1.553 . S
C1318 C1317 1.365 . S
C1318 C1319 1.404 . S
C1319 C1318 1.404 . S
C1319 C1320 1.395 . S
C1319 C1330 1.451 . S
C1320 C1319 1.395 . S
C1320 C1321 1.322 . S
C1320 H1384 0.930 . S
C1321 C1320 1.322 . S
C1321 C1322 1.459 . S
C1321 H1385 0.929 . S
C1322 C1321 1.459 . S
C1322 C1323 1.445 . S
C1322 C1331 1.395 . S
C1323 C1301 1.432 . S
C1323 C1322 1.445 . S
C1323 C1324 1.370 . S
C1324 C1323 1.370 . S
C1324 C1325 1.438 . S
C1324 H1386 0.930 . S
C1325 C1311 1.497 . S
C1325 C1324 1.438 . S
C1325 C1326 1.360 . S
C1326 C1325 1.360 . S
C1326 C1327 1.401 . S
C1326 C1331 1.446 . S
C1327 C1326 1.401 . S
C1327 C1328 1.347 . S
C1327 H1387 0.929 . S
C1328 C1327 1.347 . S
C1328 C1329 1.455 . S
C1328 H1388 0.930 . S
C1329 C1316 1.412 . S
C1329 C1328 1.455 . S
C1329 C1330 1.331 . S
C1330 C1319 1.451 . S
C1330 C1329 1.331 . S
C1330 C1331 1.497 . S
C1331 C1322 1.395 . S
C1331 C1326 1.446 . S
C1331 C1330 1.497 . S
C1332 C1333 1.582 . S
C1332 H1389 0.962 . S
C1332 H1390 0.959 . S
C1332 H1391 0.958 . S
C1333 C1332 1.582 . S
C1333 O1336 1.458 . S
C1333 H1362 0.980 . S
O1334 C1279 1.426 . S
O1334 C1280 1.334 . S
O1335 C1307 1.415 . S
O1335 C1308 1.393 . S
O1336 C1298 1.435 . S
O1336 C1333 1.458 . S
O1337 C1289 1.468 . S
O1337 C1290 1.408 . S
H1338 C1279 0.980 . S
H1339 C1278 0.959 . S
H1340 C1278 0.959 . S
H1341 C1278 0.960 . S
H1342 C1281 0.929 . S
H1343 C1285 0.929 . S
H1344 C1286 0.959 . S
H1345 C1286 0.961 . S
H1346 C1286 0.961 . S
H1347 C1287 0.960 . S
H1348 C1287 0.960 . S
H1349 C1287 0.961 . S
H1350 C1289 0.980 1_455 S
H1351 C1288 0.961 . S
H1352 C1288 0.960 . S
H1353 C1288 0.959 . S
H1354 C1291 0.930 1_455 S
H1355 C1295 0.931 . S
H1356 C1296 0.959 . S
H1357 C1296 0.961 . S
H1358 C1296 0.959 . S
H1359 C1297 0.960 . S
H1360 C1297 0.960 . S
H1361 C1297 0.960 . S
H1362 C1333 0.980 . S
H1363 C1299 0.930 1_455 S
H1364 C1303 0.930 . S
H1365 C1304 0.961 . S
H1366 C1304 0.960 . S
H1367 C1304 0.958 . S
H1368 C1305 0.961 . S
H1369 C1305 0.960 . S
H1370 C1305 0.960 . S
H1371 C1307 0.976 1_655 S
H1372 C1306 0.961 . S
H1373 C1306 0.961 . S
H1374 C1306 0.959 . S
H1375 C1309 0.932 . S
H1376 C1313 0.929 . S
H1377 C1314 0.961 . S
H1378 C1314 0.959 . S
H1379 C1314 0.959 . S
H1380 C1315 0.960 . S
H1381 C1315 0.962 . S
H1382 C1315 0.961 . S
H1383 C1317 0.929 . S
H1384 C1320 0.930 . S
H1385 C1321 0.929 . S
H1386 C1324 0.930 . S
H1387 C1327 0.929 . S
H1388 C1328 0.930 . S
H1389 C1332 0.962 . S
H1390 C1332 0.959 . S
H1391 C1332 0.958 . S
C1392 C1393 1.560 . S
C1392 H1453 0.959 . S
C1392 H1454 0.959 . S
C1392 H1455 0.960 . S
C1393 C1392 1.560 . S
C1393 O1448 1.426 . S
C1393 H1452 0.980 . S
C1394 C1395 1.407 . S
C1394 C1399 1.418 . S
C1394 O1448 1.334 . S
C1395 C1394 1.407 . S
C1395 C1396 1.360 . S
C1395 H1456 0.929 . S
C1396 C1395 1.360 . S
C1396 C1397 1.401 . S
C1396 C1400 1.527 . S
C1397 C1396 1.401 . S
C1397 C1398 1.405 . S
C1397 C1430 1.587 . S
C1398 C1397 1.405 . S
C1398 C1399 1.332 . S
C1398 C1401 1.496 . S
C1399 C1394 1.418 . S
C1399 C1398 1.332 . S
C1399 H1457 0.929 . S
C1400 C1396 1.527 . S
C1400 H1458 0.959 . S
C1400 H1459 0.961 . S
C1400 H1460 0.961 . S
C1401 C1398 1.496 . S
C1401 H1461 0.960 . S
C1401 H1462 0.960 . S
C1401 H1463 0.961 . S
C1402 C1403 1.517 . S
C1402 H1465 0.961 . S
C1402 H1466 0.960 . S
C1402 H1467 0.959 . S
C1403 C1402 1.517 . S
C1403 O1451 1.468 . S
C1403 H1464 0.980 . S
C1404 C1405 1.349 . S
C1404 C1409 1.367 . S
C1404 O1451 1.408 . S
C1405 C1404 1.349 . S
C1405 C1406 1.407 . S
C1405 H1468 0.930 . S
C1406 C1405 1.407 . S
C1406 C1407 1.449 . S
C1406 C1410 1.535 . S
C1407 C1406 1.449 . S
C1407 C1408 1.384 . S
C1407 C1432 1.553 . S
C1408 C1407 1.384 . S
C1408 C1409 1.364 . S
C1408 C1411 1.450 . S
C1409 C1404 1.367 . S
C1409 C1408 1.364 . S
C1409 H1469 0.931 . S
C1410 C1406 1.535 . S
C1410 H1470 0.959 . S
C1410 H1471 0.961 . S
C1410 H1472 0.959 . S
C1411 C1408 1.450 . S
C1411 H1473 0.960 . S
C1411 H1474 0.960 . S
C1411 H1475 0.960 . S
C1412 C1413 1.309 . S
C1412 C1417 1.304 . S
C1412 O1450 1.435 . S
C1413 C1412 1.309 . S
C1413 C1414 1.476 . S
C1413 H1477 0.930 . S
C1414 C1413 1.476 . S
C1414 C1415 1.400 . S
C1414 C1418 1.567 . S
C1415 C1414 1.400 . S
C1415 C1416 1.373 . S
C1415 C1437 1.432 . S
C1416 C1415 1.373 . S
C1416 C1417 1.339 . S
C1416 C1419 1.530 . S
C1417 C1412 1.304 . S
C1417 C1416 1.339 . S
C1417 H1478 0.930 . S
C1418 C1414 1.567 . S
C1418 H1479 0.961 . S
C1418 H1480 0.960 . S
C1418 H1481 0.958 . S
C1419 C1416 1.530 . S
C1419 H1482 0.961 . S
C1419 H1483 0.960 . S
C1419 H1484 0.960 . S
C1420 C1421 1.530 . S
C1420 H1486 0.961 . S
C1420 H1487 0.961 . S
C1420 H1488 0.959 . S
C1421 C1420 1.530 . S
C1421 O1449 1.412 . S
C1421 H1485 0.980 . S
C1422 C1423 1.288 . S
C1422 C1427 1.377 . S
C1422 O1449 1.393 . S
C1423 C1422 1.288 . S
C1423 C1424 1.369 . S
C1423 H1489 0.932 . S
C1424 C1423 1.369 . S
C1424 C1425 1.398 . S
C1424 C1428 1.527 . S
C1425 C1424 1.398 . S
C1425 C1426 1.380 . S
C1425 C1439 1.497 . S
C1426 C1425 1.380 . S
C1426 C1427 1.383 . S
C1426 C1429 1.603 . S
C1427 C1422 1.377 . S
C1427 C1426 1.383 . S
C1427 H1490 0.929 . S
C1428 C1424 1.527 . S
C1428 H1491 0.961 . S
C1428 H1492 0.959 . S
C1428 H1493 0.959 . S
C1429 C1426 1.603 . S
C1429 H1494 0.960 . S
C1429 H1495 0.962 . S
C1429 H1496 0.961 . S
C1430 C1397 1.587 . S
C1430 C1431 1.360 . S
C1430 C1443 1.412 . S
C1431 C1430 1.360 . S
C1431 C1432 1.365 . S
C1431 H1497 0.929 . S
C1432 C1407 1.553 . S
C1432 C1431 1.365 . S
C1432 C1433 1.404 . S
C1433 C1432 1.404 . S
C1433 C1434 1.395 . S
C1433 C1444 1.451 . S
C1434 C1433 1.395 . S
C1434 C1435 1.322 . S
C1434 H1498 0.930 . S
C1435 C1434 1.322 . S
C1435 C1436 1.459 . S
C1435 H1499 0.929 . S
C1436 C1435 1.459 . S
C1436 C1437 1.445 . S
C1436 C1445 1.395 . S
C1437 C1415 1.432 . S
C1437 C1436 1.445 . S
C1437 C1438 1.370 . S
C1438 C1437 1.370 . S
C1438 C1439 1.438 . S
C1438 H1500 0.930 . S
C1439 C1425 1.497 . S
C1439 C1438 1.438 . S
C1439 C1440 1.360 . S
C1440 C1439 1.360 . S
C1440 C1441 1.401 . S
C1440 C1445 1.446 . S
C1441 C1440 1.401 . S
C1441 C1442 1.347 . S
C1441 H1501 0.929 . S
C1442 C1441 1.347 . S
C1442 C1443 1.455 . S
C1442 H1502 0.930 . S
C1443 C1430 1.412 . S
C1443 C1442 1.455 . S
C1443 C1444 1.331 . S
C1444 C1433 1.451 . S
C1444 C1443 1.331 . S
C1444 C1445 1.497 . S
C1445 C1436 1.395 . S
C1445 C1440 1.446 . S
C1445 C1444 1.497 . S
C1446 C1447 1.582 . S
C1446 H1503 0.962 . S
C1446 H1504 0.959 . S
C1446 H1505 0.958 . S
C1447 C1446 1.582 . S
C1447 O1450 1.458 . S
C1447 H1476 0.980 . S
O1448 C1393 1.426 . S
O1448 C1394 1.334 . S
O1449 C1421 1.412 . S
O1449 C1422 1.393 . S
O1450 C1412 1.435 . S
O1450 C1447 1.458 . S
O1451 C1403 1.468 . S
O1451 C1404 1.408 . S
H1452 C1393 0.980 . S
H1453 C1392 0.959 . S
H1454 C1392 0.959 . S
H1455 C1392 0.960 . S
H1456 C1395 0.929 . S
H1457 C1399 0.929 . S
H1458 C1400 0.959 . S
H1459 C1400 0.961 . S
H1460 C1400 0.961 . S
H1461 C1401 0.960 . S
H1462 C1401 0.960 . S
H1463 C1401 0.961 . S
H1464 C1403 0.980 . S
H1465 C1402 0.961 . S
H1466 C1402 0.960 . S
H1467 C1402 0.959 . S
H1468 C1405 0.930 . S
H1469 C1409 0.931 . S
H1470 C1410 0.959 . S
H1471 C1410 0.961 . S
H1472 C1410 0.959 . S
H1473 C1411 0.960 . S
H1474 C1411 0.960 . S
H1475 C1411 0.960 . S
H1476 C1447 0.980 . S
H1477 C1413 0.930 . S
H1478 C1417 0.930 . S
H1479 C1418 0.961 . S
H1480 C1418 0.960 . S
H1481 C1418 0.958 . S
H1482 C1419 0.961 . S
H1483 C1419 0.960 . S
H1484 C1419 0.960 . S
H1485 C1421 0.980 . S
H1486 C1420 0.961 . S
H1487 C1420 0.961 . S
H1488 C1420 0.959 . S
H1489 C1423 0.932 . S
H1490 C1427 0.929 . S
H1491 C1428 0.961 . S
H1492 C1428 0.959 . S
H1493 C1428 0.959 . S
H1494 C1429 0.960 . S
H1495 C1429 0.962 . S
H1496 C1429 0.961 . S
H1497 C1431 0.929 . S
H1498 C1434 0.930 . S
H1499 C1435 0.929 . S
H1500 C1438 0.930 . S
H1501 C1441 0.929 . S
H1502 C1442 0.930 . S
H1503 C1446 0.962 . S
H1504 C1446 0.959 . S
H1505 C1446 0.958 . S
C1506 C1507 1.560 . S
C1506 H1567 0.959 . S
C1506 H1568 0.959 . S
C1506 H1569 0.960 . S
C1507 C1506 1.560 . S
C1507 O1562 1.426 . S
C1507 H1566 0.980 . S
C1508 C1509 1.407 1_565 S
C1508 C1513 1.418 . S
C1508 O1562 1.334 . S
C1509 C1508 1.407 1_545 S
C1509 C1510 1.360 . S
C1509 H1570 0.929 . S
C1510 C1509 1.360 . S
C1510 C1511 1.401 1_545 S
C1510 C1514 1.527 . S
C1511 C1510 1.401 1_565 S
C1511 C1512 1.405 . S
C1511 C1544 1.587 1_565 S
C1512 C1511 1.405 . S
C1512 C1513 1.332 . S
C1512 C1515 1.496 . S
C1513 C1508 1.418 . S
C1513 C1512 1.332 . S
C1513 H1571 0.929 . S
C1514 C1510 1.527 . S
C1514 H1572 0.959 . S
C1514 H1573 0.961 . S
C1514 H1574 0.961 . S
C1515 C1512 1.496 . S
C1515 H1575 0.960 . S
C1515 H1576 0.960 . S
C1515 H1577 0.961 . S
C1516 C1517 1.517 . S
C1516 H1579 0.961 1_545 S
C1516 H1580 0.960 . S
C1516 H1581 0.959 . S
C1517 C1516 1.517 . S
C1517 O1565 1.468 . S
C1517 H1578 0.980 1_545 S
C1518 C1519 1.362 . S
C1518 C1523 1.367 . S
C1518 O1565 1.408 . S
C1519 C1518 1.362 . S
C1519 C1520 1.416 1_545 S
C1519 H1582 0.908 1_545 S
C1520 C1519 1.416 1_565 S
C1520 C1521 1.449 1_565 S
C1520 C1524 1.535 . S
C1521 C1520 1.449 1_545 S
C1521 C1522 1.384 . S
C1521 C1546 1.553 . S
C1522 C1521 1.384 . S
C1522 C1523 1.364 . S
C1522 C1525 1.450 . S
C1523 C1518 1.367 . S
C1523 C1522 1.364 . S
C1523 H1583 0.931 . S
C1524 C1520 1.535 . S
C1524 H1584 0.959 . S
C1524 H1585 0.961 . S
C1524 H1586 0.959 . S
C1525 C1522 1.450 . S
C1525 H1587 0.960 . S
C1525 H1588 0.960 . S
C1525 H1589 0.960 . S
C1526 C1527 1.309 . S
C1526 C1531 1.304 . S
C1526 O1564 1.435 . S
C1527 C1526 1.309 . S
C1527 C1528 1.492 1_545 S
C1527 H1591 0.930 1_545 S
C1528 C1527 1.492 1_565 S
C1528 C1529 1.348 1_565 S
C1528 C1532 1.603 . S
C1529 C1528 1.348 1_545 S
C1529 C1530 1.373 . S
C1529 C1551 1.432 . S
C1530 C1529 1.373 . S
C1530 C1531 1.339 . S
C1530 C1533 1.530 . S
C1531 C1526 1.304 . S
C1531 C1530 1.339 . S
C1531 H1592 0.930 . S
C1532 C1528 1.603 . S
C1532 H1593 0.961 . S
C1532 H1594 0.960 . S
C1532 H1595 0.958 . S
C1533 C1530 1.530 . S
C1533 H1596 0.961 . S
C1533 H1597 0.960 . S
C1533 H1598 0.960 . S
C1534 C1535 1.530 1_565 S
C1534 H1600 0.961 . S
C1534 H1601 0.961 . S
C1534 H1602 0.959 . S
C1535 C1534 1.530 1_545 S
C1535 O1563 1.412 1_545 S
C1535 H1599 0.980 . S
C1536 C1537 1.288 . S
C1536 C1541 1.377 1_565 S
C1536 O1563 1.393 . S
C1537 C1536 1.288 . S
C1537 C1538 1.369 . S
C1537 H1603 0.932 . S
C1538 C1537 1.369 . S
C1538 C1539 1.398 1_565 S
C1538 C1542 1.527 . S
C1539 C1538 1.398 1_545 S
C1539 C1540 1.380 . S
C1539 C1553 1.497 . S
C1540 C1539 1.380 . S
C1540 C1541 1.383 . S
C1540 C1543 1.603 . S
C1541 C1536 1.377 1_545 S
C1541 C1540 1.383 . S
C1541 H1604 0.929 . S
C1542 C1538 1.527 . S
C1542 H1605 0.961 . S
C1542 H1606 0.959 . S
C1542 H1607 0.959 . S
C1543 C1540 1.603 . S
C1543 H1608 0.960 . S
C1543 H1609 0.962 . S
C1543 H1610 0.961 . S
C1544 C1511 1.587 1_545 S
C1544 C1545 1.360 . S
C1544 C1557 1.412 . S
C1545 C1544 1.360 . S
C1545 C1546 1.365 . S
C1545 H1611 0.929 . S
C1546 C1521 1.553 . S
C1546 C1545 1.365 . S
C1546 C1547 1.404 . S
C1547 C1546 1.404 . S
C1547 C1548 1.395 . S
C1547 C1558 1.451 . S
C1548 C1547 1.395 . S
C1548 C1549 1.322 . S
C1548 H1612 0.930 . S
C1549 C1548 1.322 . S
C1549 C1550 1.459 . S
C1549 H1613 0.929 . S
C1550 C1549 1.459 . S
C1550 C1551 1.445 . S
C1550 C1559 1.395 . S
C1551 C1529 1.432 . S
C1551 C1550 1.445 . S
C1551 C1552 1.370 . S
C1552 C1551 1.370 . S
C1552 C1553 1.438 . S
C1552 H1614 0.930 . S
C1553 C1539 1.497 . S
C1553 C1552 1.438 . S
C1553 C1554 1.360 . S
C1554 C1553 1.360 . S
C1554 C1555 1.401 . S
C1554 C1559 1.446 . S
C1555 C1554 1.401 . S
C1555 C1556 1.347 . S
C1555 H1615 0.929 . S
C1556 C1555 1.347 . S
C1556 C1557 1.455 . S
C1556 H1616 0.930 . S
C1557 C1544 1.412 . S
C1557 C1556 1.455 . S
C1557 C1558 1.331 . S
C1558 C1547 1.451 . S
C1558 C1557 1.331 . S
C1558 C1559 1.497 . S
C1559 C1550 1.395 . S
C1559 C1554 1.446 . S
C1559 C1558 1.497 . S
C1560 C1561 1.582 . S
C1560 H1617 0.962 . S
C1560 H1618 0.959 . S
C1560 H1619 0.958 . S
C1561 C1560 1.582 . S
C1561 O1564 1.458 . S
C1561 H1590 0.980 . S
O1562 C1507 1.426 . S
O1562 C1508 1.334 . S
O1563 C1535 1.412 1_565 S
O1563 C1536 1.393 . S
O1564 C1526 1.435 . S
O1564 C1561 1.458 . S
O1565 C1517 1.468 . S
O1565 C1518 1.408 . S
H1566 C1507 0.980 . S
H1567 C1506 0.959 . S
H1568 C1506 0.959 . S
H1569 C1506 0.960 . S
H1570 C1509 0.929 . S
H1571 C1513 0.929 . S
H1572 C1514 0.959 . S
H1573 C1514 0.961 . S
H1574 C1514 0.961 . S
H1575 C1515 0.960 . S
H1576 C1515 0.960 . S
H1577 C1515 0.961 . S
H1578 C1517 0.980 1_565 S
H1579 C1516 0.961 1_565 S
H1580 C1516 0.960 . S
H1581 C1516 0.959 . S
H1582 C1519 0.908 1_565 S
H1583 C1523 0.931 . S
H1584 C1524 0.959 . S
H1585 C1524 0.961 . S
H1586 C1524 0.959 . S
H1587 C1525 0.960 . S
H1588 C1525 0.960 . S
H1589 C1525 0.960 . S
H1590 C1561 0.980 . S
H1591 C1527 0.930 1_565 S
H1592 C1531 0.930 . S
H1593 C1532 0.961 . S
H1594 C1532 0.960 . S
H1595 C1532 0.958 . S
H1596 C1533 0.961 . S
H1597 C1533 0.960 . S
H1598 C1533 0.960 . S
H1599 C1535 0.980 . S
H1600 C1534 0.961 . S
H1601 C1534 0.961 . S
H1602 C1534 0.959 . S
H1603 C1537 0.932 . S
H1604 C1541 0.929 . S
H1605 C1542 0.961 . S
H1606 C1542 0.959 . S
H1607 C1542 0.959 . S
H1608 C1543 0.960 . S
H1609 C1543 0.962 . S
H1610 C1543 0.961 . S
H1611 C1545 0.929 . S
H1612 C1548 0.930 . S
H1613 C1549 0.929 . S
H1614 C1552 0.930 . S
H1615 C1555 0.929 . S
H1616 C1556 0.930 . S
H1617 C1560 0.962 . S
H1618 C1560 0.959 . S
H1619 C1560 0.958 . S
C1620 C1621 1.560 . S
C1620 H1681 0.959 . S
C1620 H1682 0.959 . S
C1620 H1683 0.960 . S
C1621 C1620 1.560 . S
C1621 O1676 1.426 . S
C1621 H1680 0.980 1_565 S
C1622 C1623 1.407 1_565 S
C1622 C1627 1.418 . S
C1622 O1676 1.334 . S
C1623 C1622 1.407 1_545 S
C1623 C1624 1.360 . S
C1623 H1684 0.929 . S
C1624 C1623 1.360 . S
C1624 C1625 1.401 . S
C1624 C1628 1.527 . S
C1625 C1624 1.401 . S
C1625 C1626 1.405 1_545 S
C1625 C1658 1.587 . S
C1626 C1625 1.405 1_565 S
C1626 C1627 1.332 . S
C1626 C1629 1.496 . S
C1627 C1622 1.418 . S
C1627 C1626 1.332 . S
C1627 H1685 0.929 . S
C1628 C1624 1.527 . S
C1628 H1686 0.959 . S
C1628 H1687 0.961 . S
C1628 H1688 0.961 . S
C1629 C1626 1.496 . S
C1629 H1689 0.960 . S
C1629 H1690 0.960 . S
C1629 H1691 0.961 . S
C1630 C1631 1.517 . S
C1630 H1693 0.961 . S
C1630 H1694 0.960 . S
C1630 H1695 0.959 . S
C1631 C1630 1.517 . S
C1631 O1679 1.468 . S
C1631 H1692 0.980 . S
C1632 C1633 1.349 . S
C1632 C1637 1.367 . S
C1632 O1679 1.408 . S
C1633 C1632 1.349 . S
C1633 C1634 1.407 . S
C1633 H1696 0.933 . S
C1634 C1633 1.407 . S
C1634 C1635 1.449 . S
C1634 C1638 1.535 1_545 S
C1635 C1634 1.449 . S
C1635 C1636 1.384 . S
C1635 C1660 1.553 . S
C1636 C1635 1.384 . S
C1636 C1637 1.364 . S
C1636 C1639 1.450 . S
C1637 C1632 1.367 . S
C1637 C1636 1.364 . S
C1637 H1697 0.931 . S
C1638 C1634 1.535 1_565 S
C1638 H1698 0.959 . S
C1638 H1699 0.961 . S
C1638 H1700 0.959 . S
C1639 C1636 1.450 . S
C1639 H1701 0.960 . S
C1639 H1702 0.960 . S
C1639 H1703 0.960 . S
C1640 C1641 1.309 1_545 S
C1640 C1645 1.304 . S
C1640 O1678 1.435 . S
C1641 C1640 1.309 1_565 S
C1641 C1642 1.476 . S
C1641 H1705 0.930 . S
C1642 C1641 1.476 . S
C1642 C1643 1.400 1_565 S
C1642 C1646 1.567 . S
C1643 C1642 1.400 1_545 S
C1643 C1644 1.373 . S
C1643 C1665 1.432 . S
C1644 C1643 1.373 . S
C1644 C1645 1.339 . S
C1644 C1647 1.530 . S
C1645 C1640 1.304 . S
C1645 C1644 1.339 . S
C1645 H1706 0.930 . S
C1646 C1642 1.567 . S
C1646 H1707 0.961 . S
C1646 H1708 0.960 . S
C1646 H1709 0.958 . S
C1647 C1644 1.530 . S
C1647 H1710 0.961 . S
C1647 H1711 0.960 . S
C1647 H1712 0.960 . S
C1648 C1649 1.530 . S
C1648 H1714 0.961 . S
C1648 H1715 0.961 . S
C1648 H1716 0.959 . S
C1649 C1648 1.530 . S
C1649 O1677 1.412 . S
C1649 H1713 0.980 . S
C1650 C1651 1.288 . S
C1650 C1655 1.377 1_565 S
C1650 O1677 1.393 . S
C1651 C1650 1.288 . S
C1651 C1652 1.369 . S
C1651 H1717 0.932 . S
C1652 C1651 1.369 . S
C1652 C1653 1.398 . S
C1652 C1656 1.527 . S
C1653 C1652 1.398 . S
C1653 C1654 1.380 1_565 S
C1653 C1667 1.497 1_565 S
C1654 C1653 1.380 1_545 S
C1654 C1655 1.383 . S
C1654 C1657 1.603 . S
C1655 C1650 1.377 1_545 S
C1655 C1654 1.383 . S
C1655 H1718 0.929 . S
C1656 C1652 1.527 . S
C1656 H1719 0.961 . S
C1656 H1720 0.959 . S
C1656 H1721 0.959 . S
C1657 C1654 1.603 . S
C1657 H1722 0.960 . S
C1657 H1723 0.962 . S
C1657 H1724 0.961 . S
C1658 C1625 1.587 . S
C1658 C1659 1.360 . S
C1658 C1671 1.412 . S
C1659 C1658 1.360 . S
C1659 C1660 1.365 . S
C1659 H1725 0.929 . S
C1660 C1635 1.553 . S
C1660 C1659 1.365 . S
C1660 C1661 1.404 . S
C1661 C1660 1.404 . S
C1661 C1662 1.395 . S
C1661 C1672 1.451 . S
C1662 C1661 1.395 . S
C1662 C1663 1.322 . S
C1662 H1726 0.930 . S
C1663 C1662 1.322 . S
C1663 C1664 1.459 . S
C1663 H1727 0.929 . S
C1664 C1663 1.459 . S
C1664 C1665 1.445 . S
C1664 C1673 1.395 . S
C1665 C1643 1.432 . S
C1665 C1664 1.445 . S
C1665 C1666 1.370 . S
C1666 C1665 1.370 . S
C1666 C1667 1.438 . S
C1666 H1728 0.930 . S
C1667 C1653 1.497 1_545 S
C1667 C1666 1.438 . S
C1667 C1668 1.360 . S
C1668 C1667 1.360 . S
C1668 C1669 1.401 . S
C1668 C1673 1.446 . S
C1669 C1668 1.401 . S
C1669 C1670 1.347 . S
C1669 H1729 0.953 . S
C1670 C1669 1.347 . S
C1670 C1671 1.455 . S
C1670 H1730 0.930 . S
C1671 C1658 1.412 . S
C1671 C1670 1.455 . S
C1671 C1672 1.331 . S
C1672 C1661 1.451 . S
C1672 C1671 1.331 . S
C1672 C1673 1.497 . S
C1673 C1664 1.395 . S
C1673 C1668 1.446 . S
C1673 C1672 1.497 . S
C1674 C1675 1.582 . S
C1674 H1731 0.962 . S
C1674 H1732 0.959 . S
C1674 H1733 0.958 . S
C1675 C1674 1.582 . S
C1675 O1678 1.458 . S
C1675 H1704 0.980 1_545 S
O1676 C1621 1.426 . S
O1676 C1622 1.334 . S
O1677 C1649 1.412 . S
O1677 C1650 1.393 . S
O1678 C1640 1.435 . S
O1678 C1675 1.458 . S
O1679 C1631 1.468 . S
O1679 C1632 1.408 . S
H1680 C1621 0.980 1_545 S
H1681 C1620 0.959 . S
H1682 C1620 0.959 . S
H1683 C1620 0.960 . S
H1684 C1623 0.929 . S
H1685 C1627 0.929 . S
H1686 C1628 0.959 . S
H1687 C1628 0.961 . S
H1688 C1628 0.961 . S
H1689 C1629 0.960 . S
H1690 C1629 0.960 . S
H1691 C1629 0.961 . S
H1692 C1631 0.980 . S
H1693 C1630 0.961 . S
H1694 C1630 0.960 . S
H1695 C1630 0.959 . S
H1696 C1633 0.933 . S
H1697 C1637 0.931 . S
H1698 C1638 0.959 . S
H1699 C1638 0.961 . S
H1700 C1638 0.959 . S
H1701 C1639 0.960 . S
H1702 C1639 0.960 . S
H1703 C1639 0.960 . S
H1704 C1675 0.980 1_565 S
H1705 C1641 0.930 . S
H1706 C1645 0.930 . S
H1707 C1646 0.961 . S
H1708 C1646 0.960 . S
H1709 C1646 0.958 . S
H1710 C1647 0.961 . S
H1711 C1647 0.960 . S
H1712 C1647 0.960 . S
H1713 C1649 0.980 . S
H1714 C1648 0.961 . S
H1715 C1648 0.961 . S
H1716 C1648 0.959 . S
H1717 C1651 0.932 . S
H1718 C1655 0.929 . S
H1719 C1656 0.961 . S
H1720 C1656 0.959 . S
H1721 C1656 0.959 . S
H1722 C1657 0.960 . S
H1723 C1657 0.962 . S
H1724 C1657 0.961 . S
H1725 C1659 0.929 . S
H1726 C1662 0.930 . S
H1727 C1663 0.929 . S
H1728 C1666 0.930 . S
H1729 C1669 0.953 . S
H1730 C1670 0.930 . S
H1731 C1674 0.962 . S
H1732 C1674 0.959 . S
H1733 C1674 0.958 . S
C1734 C1735 1.560 . S
C1734 H1795 0.959 . S
C1734 H1796 0.959 . S
C1734 H1797 0.960 . S
C1735 C1734 1.560 . S
C1735 O1790 1.426 . S
C1735 H1794 0.980 1_455 S
C1736 C1737 1.407 1_455 S
C1736 C1741 1.418 . S
C1736 O1790 1.334 . S
C1737 C1736 1.407 1_655 S
C1737 C1738 1.360 . S
C1737 H1798 0.929 . S
C1738 C1737 1.360 . S
C1738 C1739 1.401 . S
C1738 C1742 1.527 . S
C1739 C1738 1.401 . S
C1739 C1740 1.405 1_655 S
C1739 C1772 1.587 . S
C1740 C1739 1.405 1_455 S
C1740 C1741 1.332 . S
C1740 C1743 1.496 . S
C1741 C1736 1.418 . S
C1741 C1740 1.332 . S
C1741 H1799 0.929 . S
C1742 C1738 1.527 . S
C1742 H1800 0.959 . S
C1742 H1801 0.961 . S
C1742 H1802 0.961 . S
C1743 C1740 1.496 . S
C1743 H1803 0.960 . S
C1743 H1804 0.960 . S
C1743 H1805 0.961 . S
C1744 C1745 1.517 . S
C1744 H1807 0.961 . S
C1744 H1808 0.960 . S
C1744 H1809 0.959 . S
C1745 C1744 1.517 . S
C1745 O1793 1.468 . S
C1745 H1806 0.980 . S
C1746 C1747 1.349 . S
C1746 C1751 1.367 . S
C1746 O1793 1.408 . S
C1747 C1746 1.349 . S
C1747 C1748 1.407 . S
C1747 H1810 0.896 1_655 S
C1748 C1747 1.407 . S
C1748 C1749 1.449 . S
C1748 C1752 1.535 1_655 S
C1749 C1748 1.449 . S
C1749 C1750 1.384 . S
C1749 C1774 1.553 . S
C1750 C1749 1.384 . S
C1750 C1751 1.364 . S
C1750 C1753 1.450 . S
C1751 C1746 1.367 . S
C1751 C1750 1.364 . S
C1751 H1811 0.931 . S
C1752 C1748 1.535 1_455 S
C1752 H1812 0.959 . S
C1752 H1813 0.961 . S
C1752 H1814 0.959 . S
C1753 C1750 1.450 . S
C1753 H1815 0.960 . S
C1753 H1816 0.960 . S
C1753 H1817 0.960 . S
C1754 C1755 1.309 1_655 S
C1754 C1759 1.304 . S
C1754 O1792 1.435 . S
C1755 C1754 1.309 1_455 S
C1755 C1756 1.476 . S
C1755 H1819 0.930 . S
C1756 C1755 1.476 . S
C1756 C1757 1.400 1_455 S
C1756 C1760 1.567 . S
C1757 C1756 1.400 1_655 S
C1757 C1758 1.373 . S
C1757 C1779 1.432 . S
C1758 C1757 1.373 . S
C1758 C1759 1.339 . S
C1758 C1761 1.530 . S
C1759 C1754 1.304 . S
C1759 C1758 1.339 . S
C1759 H1820 0.930 . S
C1760 C1756 1.567 . S
C1760 H1821 0.961 . S
C1760 H1822 0.960 . S
C1760 H1823 0.958 . S
C1761 C1758 1.530 . S
C1761 H1824 0.961 . S
C1761 H1825 0.960 . S
C1761 H1826 0.960 . S
C1762 C1763 1.530 . S
C1762 H1828 0.961 . S
C1762 H1829 0.961 . S
C1762 H1830 0.959 . S
C1763 C1762 1.530 . S
C1763 O1791 1.412 . S
C1763 H1827 0.966 1_455 S
C1764 C1765 1.288 . S
C1764 C1769 1.377 1_455 S
C1764 O1791 1.393 . S
C1765 C1764 1.288 . S
C1765 C1766 1.369 . S
C1765 H1831 0.932 . S
C1766 C1765 1.369 . S
C1766 C1767 1.398 . S
C1766 C1770 1.527 . S
C1767 C1766 1.398 . S
C1767 C1768 1.380 1_455 S
C1767 C1781 1.497 1_455 S
C1768 C1767 1.380 1_655 S
C1768 C1769 1.383 . S
C1768 C1771 1.603 . S
C1769 C1764 1.377 1_655 S
C1769 C1768 1.383 . S
C1769 H1832 0.929 . S
C1770 C1766 1.527 . S
C1770 H1833 0.961 . S
C1770 H1834 0.959 . S
C1770 H1835 0.959 . S
C1771 C1768 1.603 . S
C1771 H1836 0.960 . S
C1771 H1837 0.962 . S
C1771 H1838 0.961 . S
C1772 C1739 1.587 . S
C1772 C1773 1.360 . S
C1772 C1785 1.412 . S
C1773 C1772 1.360 . S
C1773 C1774 1.365 . S
C1773 H1839 0.929 . S
C1774 C1749 1.553 . S
C1774 C1773 1.365 . S
C1774 C1775 1.404 . S
C1775 C1774 1.404 . S
C1775 C1776 1.395 . S
C1775 C1786 1.451 . S
C1776 C1775 1.395 . S
C1776 C1777 1.322 . S
C1776 H1840 0.930 . S
C1777 C1776 1.322 . S
C1777 C1778 1.459 . S
C1777 H1841 0.929 . S
C1778 C1777 1.459 . S
C1778 C1779 1.445 . S
C1778 C1787 1.395 . S
C1779 C1757 1.432 . S
C1779 C1778 1.445 . S
C1779 C1780 1.370 . S
C1780 C1779 1.370 . S
C1780 C1781 1.438 . S
C1780 H1842 0.930 . S
C1781 C1767 1.497 1_655 S
C1781 C1780 1.438 . S
C1781 C1782 1.360 . S
C1782 C1781 1.360 . S
C1782 C1783 1.401 . S
C1782 C1787 1.446 . S
C1783 C1782 1.401 . S
C1783 C1784 1.347 . S
C1783 H1843 0.929 . S
C1784 C1783 1.347 . S
C1784 C1785 1.455 . S
C1784 H1844 0.930 . S
C1785 C1772 1.412 . S
C1785 C1784 1.455 . S
C1785 C1786 1.331 . S
C1786 C1775 1.451 . S
C1786 C1785 1.331 . S
C1786 C1787 1.497 . S
C1787 C1778 1.395 . S
C1787 C1782 1.446 . S
C1787 C1786 1.497 . S
C1788 C1789 1.582 1_655 S
C1788 H1845 0.916 1_655 S
C1788 H1846 0.959 . S
C1788 H1847 0.958 . S
C1789 C1788 1.582 1_455 S
C1789 O1792 1.458 1_455 S
C1789 H1818 0.980 . S
O1790 C1735 1.426 . S
O1790 C1736 1.334 . S
O1791 C1763 1.412 . S
O1791 C1764 1.393 . S
O1792 C1754 1.435 . S
O1792 C1789 1.458 1_655 S
O1793 C1745 1.468 . S
O1793 C1746 1.408 . S
H1794 C1735 0.980 1_655 S
H1795 C1734 0.959 . S
H1796 C1734 0.959 . S
H1797 C1734 0.960 . S
H1798 C1737 0.929 . S
H1799 C1741 0.929 . S
H1800 C1742 0.959 . S
H1801 C1742 0.961 . S
H1802 C1742 0.961 . S
H1803 C1743 0.960 . S
H1804 C1743 0.960 . S
H1805 C1743 0.961 . S
H1806 C1745 0.980 . S
H1807 C1744 0.961 . S
H1808 C1744 0.960 . S
H1809 C1744 0.959 . S
H1810 C1747 0.896 1_455 S
H1811 C1751 0.931 . S
H1812 C1752 0.959 . S
H1813 C1752 0.961 . S
H1814 C1752 0.959 . S
H1815 C1753 0.960 . S
H1816 C1753 0.960 . S
H1817 C1753 0.960 . S
H1818 C1789 0.980 . S
H1819 C1755 0.930 . S
H1820 C1759 0.930 . S
H1821 C1760 0.961 . S
H1822 C1760 0.960 . S
H1823 C1760 0.958 . S
H1824 C1761 0.961 . S
H1825 C1761 0.960 . S
H1826 C1761 0.960 . S
H1827 C1763 0.966 1_655 S
H1828 C1762 0.961 . S
H1829 C1762 0.961 . S
H1830 C1762 0.959 . S
H1831 C1765 0.932 . S
H1832 C1769 0.929 . S
H1833 C1770 0.961 . S
H1834 C1770 0.959 . S
H1835 C1770 0.959 . S
H1836 C1771 0.960 . S
H1837 C1771 0.962 . S
H1838 C1771 0.961 . S
H1839 C1773 0.929 . S
H1840 C1776 0.930 . S
H1841 C1777 0.929 . S
H1842 C1780 0.930 . S
H1843 C1783 0.929 . S
H1844 C1784 0.930 . S
H1845 C1788 0.916 1_455 S
H1846 C1788 0.959 . S
H1847 C1788 0.958 . S
C1848 C1849 1.560 . S
C1848 H1909 0.959 . S
C1848 H1910 0.959 . S
C1848 H1911 0.960 . S
C1849 C1848 1.560 . S
C1849 O1904 1.426 . S
C1849 H1908 0.980 . S
C1850 C1851 1.407 . S
C1850 C1855 1.418 . S
C1850 O1904 1.334 . S
C1851 C1850 1.407 . S
C1851 C1852 1.360 . S
C1851 H1912 0.929 . S
C1852 C1851 1.360 . S
C1852 C1853 1.401 . S
C1852 C1856 1.527 . S
C1853 C1852 1.401 . S
C1853 C1854 1.405 . S
C1853 C1886 1.587 . S
C1854 C1853 1.405 . S
C1854 C1855 1.332 . S
C1854 C1857 1.496 . S
C1855 C1850 1.418 . S
C1855 C1854 1.332 . S
C1855 H1913 0.929 . S
C1856 C1852 1.527 . S
C1856 H1914 0.959 . S
C1856 H1915 0.961 . S
C1856 H1916 0.961 . S
C1857 C1854 1.496 . S
C1857 H1917 0.960 . S
C1857 H1918 0.960 . S
C1857 H1919 0.961 . S
C1858 C1859 1.517 . S
C1858 H1921 0.961 . S
C1858 H1922 0.960 . S
C1858 H1923 0.959 . S
C1859 C1858 1.517 . S
C1859 O1907 1.468 . S
C1859 H1920 0.980 . S
C1860 C1861 1.349 . S
C1860 C1865 1.367 . S
C1860 O1907 1.408 . S
C1861 C1860 1.349 . S
C1861 C1862 1.407 . S
C1861 H1924 0.930 . S
C1862 C1861 1.407 . S
C1862 C1863 1.449 . S
C1862 C1866 1.535 . S
C1863 C1862 1.449 . S
C1863 C1864 1.384 . S
C1863 C1888 1.553 . S
C1864 C1863 1.384 . S
C1864 C1865 1.364 . S
C1864 C1867 1.450 . S
C1865 C1860 1.367 . S
C1865 C1864 1.364 . S
C1865 H1925 0.931 . S
C1866 C1862 1.535 . S
C1866 H1926 0.959 . S
C1866 H1927 0.961 . S
C1866 H1928 0.959 . S
C1867 C1864 1.450 . S
C1867 H1929 0.960 . S
C1867 H1930 0.960 . S
C1867 H1931 0.960 . S
C1868 C1869 1.309 . S
C1868 C1873 1.304 . S
C1868 O1906 1.435 . S
C1869 C1868 1.309 . S
C1869 C1870 1.476 . S
C1869 H1933 0.930 . S
C1870 C1869 1.476 . S
C1870 C1871 1.400 . S
C1870 C1874 1.567 . S
C1871 C1870 1.400 . S
C1871 C1872 1.373 . S
C1871 C1893 1.432 . S
C1872 C1871 1.373 . S
C1872 C1873 1.339 . S
C1872 C1875 1.530 . S
C1873 C1868 1.304 . S
C1873 C1872 1.339 . S
C1873 H1934 0.930 . S
C1874 C1870 1.567 . S
C1874 H1935 0.961 . S
C1874 H1936 0.960 . S
C1874 H1937 0.958 . S
C1875 C1872 1.530 . S
C1875 H1938 0.961 . S
C1875 H1939 0.960 . S
C1875 H1940 0.960 . S
C1876 C1877 1.530 . S
C1876 H1942 0.961 . S
C1876 H1943 0.961 . S
C1876 H1944 0.959 . S
C1877 C1876 1.530 . S
C1877 O1905 1.412 . S
C1877 H1941 0.980 . S
C1878 C1879 1.288 . S
C1878 C1883 1.377 . S
C1878 O1905 1.393 . S
C1879 C1878 1.288 . S
C1879 C1880 1.369 . S
C1879 H1945 0.932 . S
C1880 C1879 1.369 . S
C1880 C1881 1.398 . S
C1880 C1884 1.527 . S
C1881 C1880 1.398 . S
C1881 C1882 1.380 . S
C1881 C1895 1.497 . S
C1882 C1881 1.380 . S
C1882 C1883 1.383 . S
C1882 C1885 1.603 . S
C1883 C1878 1.377 . S
C1883 C1882 1.383 . S
C1883 H1946 0.929 . S
C1884 C1880 1.527 . S
C1884 H1947 0.961 . S
C1884 H1948 0.959 . S
C1884 H1949 0.959 . S
C1885 C1882 1.603 . S
C1885 H1950 0.960 . S
C1885 H1951 0.962 . S
C1885 H1952 0.961 . S
C1886 C1853 1.587 . S
C1886 C1887 1.360 . S
C1886 C1899 1.412 . S
C1887 C1886 1.360 . S
C1887 C1888 1.365 . S
C1887 H1953 0.929 . S
C1888 C1863 1.553 . S
C1888 C1887 1.365 . S
C1888 C1889 1.404 . S
C1889 C1888 1.404 . S
C1889 C1890 1.395 . S
C1889 C1900 1.451 . S
C1890 C1889 1.395 . S
C1890 C1891 1.322 . S
C1890 H1954 0.930 . S
C1891 C1890 1.322 . S
C1891 C1892 1.459 . S
C1891 H1955 0.929 . S
C1892 C1891 1.459 . S
C1892 C1893 1.445 . S
C1892 C1901 1.395 . S
C1893 C1871 1.432 . S
C1893 C1892 1.445 . S
C1893 C1894 1.370 . S
C1894 C1893 1.370 . S
C1894 C1895 1.438 . S
C1894 H1956 0.930 . S
C1895 C1881 1.497 . S
C1895 C1894 1.438 . S
C1895 C1896 1.360 . S
C1896 C1895 1.360 . S
C1896 C1897 1.401 . S
C1896 C1901 1.446 . S
C1897 C1896 1.401 . S
C1897 C1898 1.347 . S
C1897 H1957 0.929 . S
C1898 C1897 1.347 . S
C1898 C1899 1.455 . S
C1898 H1958 0.930 . S
C1899 C1886 1.412 . S
C1899 C1898 1.455 . S
C1899 C1900 1.331 . S
C1900 C1889 1.451 . S
C1900 C1899 1.331 . S
C1900 C1901 1.497 . S
C1901 C1892 1.395 . S
C1901 C1896 1.446 . S
C1901 C1900 1.497 . S
C1902 C1903 1.582 . S
C1902 H1959 0.962 . S
C1902 H1960 0.959 . S
C1902 H1961 0.958 . S
C1903 C1902 1.582 . S
C1903 O1906 1.458 . S
C1903 H1932 0.980 . S
O1904 C1849 1.426 . S
O1904 C1850 1.334 . S
O1905 C1877 1.412 . S
O1905 C1878 1.393 . S
O1906 C1868 1.435 . S
O1906 C1903 1.458 . S
O1907 C1859 1.468 . S
O1907 C1860 1.408 . S
H1908 C1849 0.980 . S
H1909 C1848 0.959 . S
H1910 C1848 0.959 . S
H1911 C1848 0.960 . S
H1912 C1851 0.929 . S
H1913 C1855 0.929 . S
H1914 C1856 0.959 . S
H1915 C1856 0.961 . S
H1916 C1856 0.961 . S
H1917 C1857 0.960 . S
H1918 C1857 0.960 . S
H1919 C1857 0.961 . S
H1920 C1859 0.980 . S
H1921 C1858 0.961 . S
H1922 C1858 0.960 . S
H1923 C1858 0.959 . S
H1924 C1861 0.930 . S
H1925 C1865 0.931 . S
H1926 C1866 0.959 . S
H1927 C1866 0.961 . S
H1928 C1866 0.959 . S
H1929 C1867 0.960 . S
H1930 C1867 0.960 . S
H1931 C1867 0.960 . S
H1932 C1903 0.980 . S
H1933 C1869 0.930 . S
H1934 C1873 0.930 . S
H1935 C1874 0.961 . S
H1936 C1874 0.960 . S
H1937 C1874 0.958 . S
H1938 C1875 0.961 . S
H1939 C1875 0.960 . S
H1940 C1875 0.960 . S
H1941 C1877 0.980 . S
H1942 C1876 0.961 . S
H1943 C1876 0.961 . S
H1944 C1876 0.959 . S
H1945 C1879 0.932 . S
H1946 C1883 0.929 . S
H1947 C1884 0.961 . S
H1948 C1884 0.959 . S
H1949 C1884 0.959 . S
H1950 C1885 0.960 . S
H1951 C1885 0.962 . S
H1952 C1885 0.961 . S
H1953 C1887 0.929 . S
H1954 C1890 0.930 . S
H1955 C1891 0.929 . S
H1956 C1894 0.930 . S
H1957 C1897 0.929 . S
H1958 C1898 0.930 . S
H1959 C1902 0.962 . S
H1960 C1902 0.959 . S
H1961 C1902 0.958 . S
C1962 C1963 1.560 . S
C1962 H2023 0.959 . S
C1962 H2024 0.959 . S
C1962 H2025 0.960 . S
C1963 C1962 1.560 . S
C1963 O2018 1.426 . S
C1963 H2022 0.980 . S
C1964 C1965 1.407 . S
C1964 C1969 1.418 . S
C1964 O2018 1.334 . S
C1965 C1964 1.407 . S
C1965 C1966 1.360 . S
C1965 H2026 0.929 . S
C1966 C1965 1.360 . S
C1966 C1967 1.401 . S
C1966 C1970 1.527 . S
C1967 C1966 1.401 . S
C1967 C1968 1.405 . S
C1967 C2000 1.587 . S
C1968 C1967 1.405 . S
C1968 C1969 1.332 . S
C1968 C1971 1.496 . S
C1969 C1964 1.418 . S
C1969 C1968 1.332 . S
C1969 H2027 0.929 . S
C1970 C1966 1.527 . S
C1970 H2028 0.959 . S
C1970 H2029 0.961 . S
C1970 H2030 0.961 . S
C1971 C1968 1.496 . S
C1971 H2031 0.960 . S
C1971 H2032 0.960 . S
C1971 H2033 0.961 . S
C1972 C1973 1.517 . S
C1972 H2035 0.961 . S
C1972 H2036 0.960 . S
C1972 H2037 0.959 . S
C1973 C1972 1.517 . S
C1973 O2021 1.468 . S
C1973 H2034 0.980 . S
C1974 C1975 1.349 . S
C1974 C1979 1.367 . S
C1974 O2021 1.408 . S
C1975 C1974 1.349 . S
C1975 C1976 1.407 . S
C1975 H2038 0.930 . S
C1976 C1975 1.407 . S
C1976 C1977 1.449 . S
C1976 C1980 1.535 . S
C1977 C1976 1.449 . S
C1977 C1978 1.384 . S
C1977 C2002 1.553 . S
C1978 C1977 1.384 . S
C1978 C1979 1.364 . S
C1978 C1981 1.450 . S
C1979 C1974 1.367 . S
C1979 C1978 1.364 . S
C1979 H2039 0.931 . S
C1980 C1976 1.535 . S
C1980 H2040 0.959 . S
C1980 H2041 0.961 . S
C1980 H2042 0.959 . S
C1981 C1978 1.450 . S
C1981 H2043 0.960 . S
C1981 H2044 0.960 . S
C1981 H2045 0.960 . S
C1982 C1983 1.309 . S
C1982 C1987 1.304 . S
C1982 O2020 1.435 . S
C1983 C1982 1.309 . S
C1983 C1984 1.476 . S
C1983 H2047 0.930 . S
C1984 C1983 1.476 . S
C1984 C1985 1.400 . S
C1984 C1988 1.567 . S
C1985 C1984 1.400 . S
C1985 C1986 1.373 . S
C1985 C2007 1.432 . S
C1986 C1985 1.373 . S
C1986 C1987 1.339 . S
C1986 C1989 1.530 . S
C1987 C1982 1.304 . S
C1987 C1986 1.339 . S
C1987 H2048 0.930 . S
C1988 C1984 1.567 . S
C1988 H2049 0.961 . S
C1988 H2050 0.960 . S
C1988 H2051 0.958 . S
C1989 C1986 1.530 . S
C1989 H2052 0.961 . S
C1989 H2053 0.960 . S
C1989 H2054 0.960 . S
C1990 C1991 1.530 . S
C1990 H2056 0.961 . S
C1990 H2057 0.961 . S
C1990 H2058 0.959 . S
C1991 C1990 1.530 . S
C1991 O2019 1.412 . S
C1991 H2055 0.980 . S
C1992 C1993 1.288 . S
C1992 C1997 1.377 . S
C1992 O2019 1.393 . S
C1993 C1992 1.288 . S
C1993 C1994 1.369 . S
C1993 H2059 0.932 . S
C1994 C1993 1.369 . S
C1994 C1995 1.398 . S
C1994 C1998 1.527 . S
C1995 C1994 1.398 . S
C1995 C1996 1.380 . S
C1995 C2009 1.497 . S
C1996 C1995 1.380 . S
C1996 C1997 1.383 . S
C1996 C1999 1.603 . S
C1997 C1992 1.377 . S
C1997 C1996 1.383 . S
C1997 H2060 0.929 . S
C1998 C1994 1.527 . S
C1998 H2061 0.961 . S
C1998 H2062 0.959 . S
C1998 H2063 0.959 . S
C1999 C1996 1.603 . S
C1999 H2064 0.960 . S
C1999 H2065 0.962 . S
C1999 H2066 0.961 . S
C2000 C1967 1.587 . S
C2000 C2001 1.360 . S
C2000 C2013 1.412 . S
C2001 C2000 1.360 . S
C2001 C2002 1.365 . S
C2001 H2067 0.929 . S
C2002 C1977 1.553 . S
C2002 C2001 1.365 . S
C2002 C2003 1.404 . S
C2003 C2002 1.404 . S
C2003 C2004 1.395 . S
C2003 C2014 1.451 . S
C2004 C2003 1.395 . S
C2004 C2005 1.322 . S
C2004 H2068 0.930 . S
C2005 C2004 1.322 . S
C2005 C2006 1.459 . S
C2005 H2069 0.929 . S
C2006 C2005 1.459 . S
C2006 C2007 1.445 . S
C2006 C2015 1.395 . S
C2007 C1985 1.432 . S
C2007 C2006 1.445 . S
C2007 C2008 1.370 . S
C2008 C2007 1.370 . S
C2008 C2009 1.438 . S
C2008 H2070 0.930 . S
C2009 C1995 1.497 . S
C2009 C2008 1.438 . S
C2009 C2010 1.360 . S
C2010 C2009 1.360 . S
C2010 C2011 1.401 . S
C2010 C2015 1.446 . S
C2011 C2010 1.401 . S
C2011 C2012 1.347 . S
C2011 H2071 0.929 . S
C2012 C2011 1.347 . S
C2012 C2013 1.455 . S
C2012 H2072 0.930 . S
C2013 C2000 1.412 . S
C2013 C2012 1.455 . S
C2013 C2014 1.331 . S
C2014 C2003 1.451 . S
C2014 C2013 1.331 . S
C2014 C2015 1.497 . S
C2015 C2006 1.395 . S
C2015 C2010 1.446 . S
C2015 C2014 1.497 . S
C2016 C2017 1.582 . S
C2016 H2073 0.962 . S
C2016 H2074 0.959 . S
C2016 H2075 0.958 . S
C2017 C2016 1.582 . S
C2017 O2020 1.458 . S
C2017 H2046 0.980 . S
O2018 C1963 1.426 . S
O2018 C1964 1.334 . S
O2019 C1991 1.412 . S
O2019 C1992 1.393 . S
O2020 C1982 1.435 . S
O2020 C2017 1.458 . S
O2021 C1973 1.468 . S
O2021 C1974 1.408 . S
H2022 C1963 0.980 . S
H2023 C1962 0.959 . S
H2024 C1962 0.959 . S
H2025 C1962 0.960 . S
H2026 C1965 0.929 . S
H2027 C1969 0.929 . S
H2028 C1970 0.959 . S
H2029 C1970 0.961 . S
H2030 C1970 0.961 . S
H2031 C1971 0.960 . S
H2032 C1971 0.960 . S
H2033 C1971 0.961 . S
H2034 C1973 0.980 . S
H2035 C1972 0.961 . S
H2036 C1972 0.960 . S
H2037 C1972 0.959 . S
H2038 C1975 0.930 . S
H2039 C1979 0.931 . S
H2040 C1980 0.959 . S
H2041 C1980 0.961 . S
H2042 C1980 0.959 . S
H2043 C1981 0.960 . S
H2044 C1981 0.960 . S
H2045 C1981 0.960 . S
H2046 C2017 0.980 . S
H2047 C1983 0.930 . S
H2048 C1987 0.930 . S
H2049 C1988 0.961 . S
H2050 C1988 0.960 . S
H2051 C1988 0.958 . S
H2052 C1989 0.961 . S
H2053 C1989 0.960 . S
H2054 C1989 0.960 . S
H2055 C1991 0.980 . S
H2056 C1990 0.961 . S
H2057 C1990 0.961 . S
H2058 C1990 0.959 . S
H2059 C1993 0.932 . S
H2060 C1997 0.929 . S
H2061 C1998 0.961 . S
H2062 C1998 0.959 . S
H2063 C1998 0.959 . S
H2064 C1999 0.960 . S
H2065 C1999 0.962 . S
H2066 C1999 0.961 . S
H2067 C2001 0.929 . S
H2068 C2004 0.930 . S
H2069 C2005 0.929 . S
H2070 C2008 0.930 . S
H2071 C2011 0.929 . S
H2072 C2012 0.930 . S
H2073 C2016 0.962 . S
H2074 C2016 0.959 . S
H2075 C2016 0.958 . S
C2076 C2077 1.560 . S
C2076 H2137 0.959 . S
C2076 H2138 0.959 . S
C2076 H2139 0.960 . S
C2077 C2076 1.560 . S
C2077 O2132 1.426 . S
C2077 H2136 0.980 . S
C2078 C2079 1.407 . S
C2078 C2083 1.418 . S
C2078 O2132 1.334 . S
C2079 C2078 1.407 . S
C2079 C2080 1.360 . S
C2079 H2140 0.929 . S
C2080 C2079 1.360 . S
C2080 C2081 1.401 . S
C2080 C2084 1.527 . S
C2081 C2080 1.401 . S
C2081 C2082 1.405 . S
C2081 C2114 1.587 . S
C2082 C2081 1.405 . S
C2082 C2083 1.332 . S
C2082 C2085 1.496 . S
C2083 C2078 1.418 . S
C2083 C2082 1.332 . S
C2083 H2141 0.929 . S
C2084 C2080 1.527 . S
C2084 H2142 0.959 . S
C2084 H2143 0.961 . S
C2084 H2144 0.961 . S
C2085 C2082 1.496 . S
C2085 H2145 0.960 . S
C2085 H2146 0.960 . S
C2085 H2147 0.961 . S
C2086 C2087 1.517 . S
C2086 H2149 0.961 . S
C2086 H2150 0.960 . S
C2086 H2151 0.959 . S
C2087 C2086 1.517 . S
C2087 O2135 1.468 . S
C2087 H2148 0.980 . S
C2088 C2089 1.349 . S
C2088 C2093 1.367 . S
C2088 O2135 1.408 . S
C2089 C2088 1.349 . S
C2089 C2090 1.407 . S
C2089 H2152 0.930 . S
C2090 C2089 1.407 . S
C2090 C2091 1.449 . S
C2090 C2094 1.535 . S
C2091 C2090 1.449 . S
C2091 C2092 1.384 . S
C2091 C2116 1.553 . S
C2092 C2091 1.384 . S
C2092 C2093 1.364 . S
C2092 C2095 1.450 . S
C2093 C2088 1.367 . S
C2093 C2092 1.364 . S
C2093 H2153 0.931 . S
C2094 C2090 1.535 . S
C2094 H2154 0.959 . S
C2094 H2155 0.961 . S
C2094 H2156 0.959 . S
C2095 C2092 1.450 . S
C2095 H2157 0.960 . S
C2095 H2158 0.960 . S
C2095 H2159 0.960 . S
C2096 C2097 1.309 . S
C2096 C2101 1.304 . S
C2096 O2134 1.435 . S
C2097 C2096 1.309 . S
C2097 C2098 1.476 . S
C2097 H2161 0.930 . S
C2098 C2097 1.476 . S
C2098 C2099 1.400 . S
C2098 C2102 1.567 . S
C2099 C2098 1.400 . S
C2099 C2100 1.373 . S
C2099 C2121 1.432 . S
C2100 C2099 1.373 . S
C2100 C2101 1.339 . S
C2100 C2103 1.530 . S
C2101 C2096 1.304 . S
C2101 C2100 1.339 . S
C2101 H2162 0.930 . S
C2102 C2098 1.567 . S
C2102 H2163 0.961 . S
C2102 H2164 0.960 . S
C2102 H2165 0.958 . S
C2103 C2100 1.530 . S
C2103 H2166 0.961 . S
C2103 H2167 0.960 . S
C2103 H2168 0.960 . S
C2104 C2105 1.530 . S
C2104 H2170 0.961 . S
C2104 H2171 0.961 . S
C2104 H2172 0.959 . S
C2105 C2104 1.530 . S
C2105 O2133 1.412 . S
C2105 H2169 0.980 . S
C2106 C2107 1.288 . S
C2106 C2111 1.377 . S
C2106 O2133 1.393 . S
C2107 C2106 1.288 . S
C2107 C2108 1.369 . S
C2107 H2173 0.932 . S
C2108 C2107 1.369 . S
C2108 C2109 1.398 . S
C2108 C2112 1.527 . S
C2109 C2108 1.398 . S
C2109 C2110 1.380 . S
C2109 C2123 1.497 . S
C2110 C2109 1.380 . S
C2110 C2111 1.383 . S
C2110 C2113 1.603 . S
C2111 C2106 1.377 . S
C2111 C2110 1.383 . S
C2111 H2174 0.929 . S
C2112 C2108 1.527 . S
C2112 H2175 0.961 . S
C2112 H2176 0.959 . S
C2112 H2177 0.959 . S
C2113 C2110 1.603 . S
C2113 H2178 0.960 . S
C2113 H2179 0.962 . S
C2113 H2180 0.961 . S
C2114 C2081 1.587 . S
C2114 C2115 1.360 . S
C2114 C2127 1.412 . S
C2115 C2114 1.360 . S
C2115 C2116 1.365 . S
C2115 H2181 0.929 . S
C2116 C2091 1.553 . S
C2116 C2115 1.365 . S
C2116 C2117 1.404 . S
C2117 C2116 1.404 . S
C2117 C2118 1.395 . S
C2117 C2128 1.451 . S
C2118 C2117 1.395 . S
C2118 C2119 1.322 . S
C2118 H2182 0.930 . S
C2119 C2118 1.322 . S
C2119 C2120 1.459 . S
C2119 H2183 0.929 . S
C2120 C2119 1.459 . S
C2120 C2121 1.445 . S
C2120 C2129 1.395 . S
C2121 C2099 1.432 . S
C2121 C2120 1.445 . S
C2121 C2122 1.370 . S
C2122 C2121 1.370 . S
C2122 C2123 1.438 . S
C2122 H2184 0.930 . S
C2123 C2109 1.497 . S
C2123 C2122 1.438 . S
C2123 C2124 1.360 . S
C2124 C2123 1.360 . S
C2124 C2125 1.401 . S
C2124 C2129 1.446 . S
C2125 C2124 1.401 . S
C2125 C2126 1.347 . S
C2125 H2185 0.929 . S
C2126 C2125 1.347 . S
C2126 C2127 1.455 . S
C2126 H2186 0.930 . S
C2127 C2114 1.412 . S
C2127 C2126 1.455 . S
C2127 C2128 1.331 . S
C2128 C2117 1.451 . S
C2128 C2127 1.331 . S
C2128 C2129 1.497 . S
C2129 C2120 1.395 . S
C2129 C2124 1.446 . S
C2129 C2128 1.497 . S
C2130 C2131 1.582 . S
C2130 H2187 0.962 . S
C2130 H2188 0.959 . S
C2130 H2189 0.958 . S
C2131 C2130 1.582 . S
C2131 O2134 1.458 . S
C2131 H2160 0.980 . S
O2132 C2077 1.426 . S
O2132 C2078 1.334 . S
O2133 C2105 1.412 . S
O2133 C2106 1.393 . S
O2134 C2096 1.435 . S
O2134 C2131 1.458 . S
O2135 C2087 1.468 . S
O2135 C2088 1.408 . S
H2136 C2077 0.980 . S
H2137 C2076 0.959 . S
H2138 C2076 0.959 . S
H2139 C2076 0.960 . S
H2140 C2079 0.929 . S
H2141 C2083 0.929 . S
H2142 C2084 0.959 . S
H2143 C2084 0.961 . S
H2144 C2084 0.961 . S
H2145 C2085 0.960 . S
H2146 C2085 0.960 . S
H2147 C2085 0.961 . S
H2148 C2087 0.980 . S
H2149 C2086 0.961 . S
H2150 C2086 0.960 . S
H2151 C2086 0.959 . S
H2152 C2089 0.930 . S
H2153 C2093 0.931 . S
H2154 C2094 0.959 . S
H2155 C2094 0.961 . S
H2156 C2094 0.959 . S
H2157 C2095 0.960 . S
H2158 C2095 0.960 . S
H2159 C2095 0.960 . S
H2160 C2131 0.980 . S
H2161 C2097 0.930 . S
H2162 C2101 0.930 . S
H2163 C2102 0.961 . S
H2164 C2102 0.960 . S
H2165 C2102 0.958 . S
H2166 C2103 0.961 . S
H2167 C2103 0.960 . S
H2168 C2103 0.960 . S
H2169 C2105 0.980 . S
H2170 C2104 0.961 . S
H2171 C2104 0.961 . S
H2172 C2104 0.959 . S
H2173 C2107 0.932 . S
H2174 C2111 0.929 . S
H2175 C2112 0.961 . S
H2176 C2112 0.959 . S
H2177 C2112 0.959 . S
H2178 C2113 0.960 . S
H2179 C2113 0.962 . S
H2180 C2113 0.961 . S
H2181 C2115 0.929 . S
H2182 C2118 0.930 . S
H2183 C2119 0.929 . S
H2184 C2122 0.930 . S
H2185 C2125 0.929 . S
H2186 C2126 0.930 . S
H2187 C2130 0.962 . S
H2188 C2130 0.959 . S
H2189 C2130 0.958 . S
C2190 C2191 1.560 . S
C2190 H2251 0.959 . S
C2190 H2252 0.959 . S
C2190 H2253 0.960 . S
C2191 C2190 1.560 . S
C2191 O2246 1.426 . S
C2191 H2250 0.980 . S
C2192 C2193 1.407 . S
C2192 C2197 1.418 . S
C2192 O2246 1.334 . S
C2193 C2192 1.407 . S
C2193 C2194 1.360 . S
C2193 H2254 0.929 . S
C2194 C2193 1.360 . S
C2194 C2195 1.401 . S
C2194 C2198 1.527 . S
C2195 C2194 1.401 . S
C2195 C2196 1.405 . S
C2195 C2228 1.587 . S
C2196 C2195 1.405 . S
C2196 C2197 1.332 . S
C2196 C2199 1.496 . S
C2197 C2192 1.418 . S
C2197 C2196 1.332 . S
C2197 H2255 0.929 . S
C2198 C2194 1.527 . S
C2198 H2256 0.959 . S
C2198 H2257 0.961 . S
C2198 H2258 0.961 . S
C2199 C2196 1.496 . S
C2199 H2259 0.960 . S
C2199 H2260 0.960 . S
C2199 H2261 0.961 . S
C2200 C2201 1.517 . S
C2200 H2263 0.961 . S
C2200 H2264 0.960 . S
C2200 H2265 0.959 . S
C2201 C2200 1.517 . S
C2201 O2249 1.468 . S
C2201 H2262 0.980 . S
C2202 C2203 1.349 . S
C2202 C2207 1.367 . S
C2202 O2249 1.408 . S
C2203 C2202 1.349 . S
C2203 C2204 1.407 . S
C2203 H2266 0.930 . S
C2204 C2203 1.407 . S
C2204 C2205 1.449 . S
C2204 C2208 1.535 . S
C2205 C2204 1.449 . S
C2205 C2206 1.384 . S
C2205 C2230 1.553 . S
C2206 C2205 1.384 . S
C2206 C2207 1.364 . S
C2206 C2209 1.450 . S
C2207 C2202 1.367 . S
C2207 C2206 1.364 . S
C2207 H2267 0.931 . S
C2208 C2204 1.535 . S
C2208 H2268 0.959 . S
C2208 H2269 0.961 . S
C2208 H2270 0.959 . S
C2209 C2206 1.450 . S
C2209 H2271 0.960 . S
C2209 H2272 0.960 . S
C2209 H2273 0.960 . S
C2210 C2211 1.309 . S
C2210 C2215 1.304 . S
C2210 O2248 1.435 . S
C2211 C2210 1.309 . S
C2211 C2212 1.476 . S
C2211 H2275 0.930 . S
C2212 C2211 1.476 . S
C2212 C2213 1.400 . S
C2212 C2216 1.567 . S
C2213 C2212 1.400 . S
C2213 C2214 1.373 . S
C2213 C2235 1.432 . S
C2214 C2213 1.373 . S
C2214 C2215 1.339 . S
C2214 C2217 1.530 . S
C2215 C2210 1.304 . S
C2215 C2214 1.339 . S
C2215 H2276 0.930 . S
C2216 C2212 1.567 . S
C2216 H2277 0.961 . S
C2216 H2278 0.960 . S
C2216 H2279 0.958 . S
C2217 C2214 1.530 . S
C2217 H2280 0.961 . S
C2217 H2281 0.960 . S
C2217 H2282 0.960 . S
C2218 C2219 1.530 . S
C2218 H2284 0.961 . S
C2218 H2285 0.961 . S
C2218 H2286 0.959 . S
C2219 C2218 1.530 . S
C2219 O2247 1.412 . S
C2219 H2283 0.980 . S
C2220 C2221 1.288 . S
C2220 C2225 1.377 . S
C2220 O2247 1.393 . S
C2221 C2220 1.288 . S
C2221 C2222 1.369 . S
C2221 H2287 0.932 . S
C2222 C2221 1.369 . S
C2222 C2223 1.398 . S
C2222 C2226 1.527 . S
C2223 C2222 1.398 . S
C2223 C2224 1.380 . S
C2223 C2237 1.497 . S
C2224 C2223 1.380 . S
C2224 C2225 1.383 . S
C2224 C2227 1.603 . S
C2225 C2220 1.377 . S
C2225 C2224 1.383 . S
C2225 H2288 0.929 . S
C2226 C2222 1.527 . S
C2226 H2289 0.961 . S
C2226 H2290 0.959 . S
C2226 H2291 0.959 . S
C2227 C2224 1.603 . S
C2227 H2292 0.960 . S
C2227 H2293 0.962 . S
C2227 H2294 0.961 . S
C2228 C2195 1.587 . S
C2228 C2229 1.360 . S
C2228 C2241 1.412 . S
C2229 C2228 1.360 . S
C2229 C2230 1.365 . S
C2229 H2295 0.929 . S
C2230 C2205 1.553 . S
C2230 C2229 1.365 . S
C2230 C2231 1.404 . S
C2231 C2230 1.404 . S
C2231 C2232 1.395 . S
C2231 C2242 1.451 . S
C2232 C2231 1.395 . S
C2232 C2233 1.322 . S
C2232 H2296 0.930 . S
C2233 C2232 1.322 . S
C2233 C2234 1.459 . S
C2233 H2297 0.929 . S
C2234 C2233 1.459 . S
C2234 C2235 1.445 . S
C2234 C2243 1.395 . S
C2235 C2213 1.432 . S
C2235 C2234 1.445 . S
C2235 C2236 1.370 . S
C2236 C2235 1.370 . S
C2236 C2237 1.438 . S
C2236 H2298 0.930 . S
C2237 C2223 1.497 . S
C2237 C2236 1.438 . S
C2237 C2238 1.360 . S
C2238 C2237 1.360 . S
C2238 C2239 1.401 . S
C2238 C2243 1.446 . S
C2239 C2238 1.401 . S
C2239 C2240 1.347 . S
C2239 H2299 0.929 . S
C2240 C2239 1.347 . S
C2240 C2241 1.455 . S
C2240 H2300 0.930 . S
C2241 C2228 1.412 . S
C2241 C2240 1.455 . S
C2241 C2242 1.331 . S
C2242 C2231 1.451 . S
C2242 C2241 1.331 . S
C2242 C2243 1.497 . S
C2243 C2234 1.395 . S
C2243 C2238 1.446 . S
C2243 C2242 1.497 . S
C2244 C2245 1.582 . S
C2244 H2301 0.962 . S
C2244 H2302 0.959 . S
C2244 H2303 0.958 . S
C2245 C2244 1.582 . S
C2245 O2248 1.458 . S
C2245 H2274 0.980 . S
O2246 C2191 1.426 . S
O2246 C2192 1.334 . S
O2247 C2219 1.412 . S
O2247 C2220 1.393 . S
O2248 C2210 1.435 . S
O2248 C2245 1.458 . S
O2249 C2201 1.468 . S
O2249 C2202 1.408 . S
H2250 C2191 0.980 . S
H2251 C2190 0.959 . S
H2252 C2190 0.959 . S
H2253 C2190 0.960 . S
H2254 C2193 0.929 . S
H2255 C2197 0.929 . S
H2256 C2198 0.959 . S
H2257 C2198 0.961 . S
H2258 C2198 0.961 . S
H2259 C2199 0.960 . S
H2260 C2199 0.960 . S
H2261 C2199 0.961 . S
H2262 C2201 0.980 . S
H2263 C2200 0.961 . S
H2264 C2200 0.960 . S
H2265 C2200 0.959 . S
H2266 C2203 0.930 . S
H2267 C2207 0.931 . S
H2268 C2208 0.959 . S
H2269 C2208 0.961 . S
H2270 C2208 0.959 . S
H2271 C2209 0.960 . S
H2272 C2209 0.960 . S
H2273 C2209 0.960 . S
H2274 C2245 0.980 . S
H2275 C2211 0.930 . S
H2276 C2215 0.930 . S
H2277 C2216 0.961 . S
H2278 C2216 0.960 . S
H2279 C2216 0.958 . S
H2280 C2217 0.961 . S
H2281 C2217 0.960 . S
H2282 C2217 0.960 . S
H2283 C2219 0.980 . S
H2284 C2218 0.961 . S
H2285 C2218 0.961 . S
H2286 C2218 0.959 . S
H2287 C2221 0.932 . S
H2288 C2225 0.929 . S
H2289 C2226 0.961 . S
H2290 C2226 0.959 . S
H2291 C2226 0.959 . S
H2292 C2227 0.960 . S
H2293 C2227 0.962 . S
H2294 C2227 0.961 . S
H2295 C2229 0.929 . S
H2296 C2232 0.930 . S
H2297 C2233 0.929 . S
H2298 C2236 0.930 . S
H2299 C2239 0.929 . S
H2300 C2240 0.930 . S
H2301 C2244 0.962 . S
H2302 C2244 0.959 . S
H2303 C2244 0.958 . S
H2304 C2316 0.930 . S
H2305 C2318 0.930 . S
H2306 C2319 0.930 . S
H2307 C2323 0.959 . S
H2308 C2323 0.959 . S
H2309 C2323 0.961 . S
H2310 C2324 0.960 . S
H2311 C2324 0.961 . S
H2312 C2324 0.959 . S
H2313 C2327 0.929 . S
H2314 C2328 0.931 . S
H2315 C2330 0.930 . S
C2316 H2304 0.930 . S
C2316 C2317 1.451 . S
C2316 C2321 1.399 . S
C2317 C2316 1.451 . S
C2317 C2318 1.339 1_655 S
C2318 H2305 0.930 . S
C2318 C2317 1.339 1_455 S
C2318 C2319 1.388 . S
C2319 H2306 0.930 . S
C2319 C2318 1.388 . S
C2319 C2320 1.390 . S
C2320 C2319 1.390 . S
C2320 C2321 1.394 1_455 S
C2320 C2326 1.465 . S
C2321 C2316 1.399 . S
C2321 C2320 1.394 1_655 S
C2321 C2322 1.516 . S
C2322 C2321 1.516 . S
C2322 C2323 1.502 . S
C2322 C2324 1.561 . S
C2322 C2325 1.526 . S
C2323 H2307 0.959 . S
C2323 H2308 0.959 . S
C2323 H2309 0.961 . S
C2323 C2322 1.502 . S
C2324 H2310 0.960 . S
C2324 H2311 0.961 . S
C2324 H2312 0.959 . S
C2324 C2322 1.561 . S
C2325 C2322 1.526 . S
C2325 C2326 1.396 1_655 S
C2325 C2330 1.390 . S
C2326 C2320 1.465 . S
C2326 C2325 1.396 1_455 S
C2326 C2327 1.399 . S
C2327 H2313 0.929 . S
C2327 C2326 1.399 . S
C2327 C2328 1.385 . S
C2328 H2314 0.931 . S
C2328 C2327 1.385 . S
C2328 C2329 1.389 1_455 S
C2329 C2328 1.389 1_655 S
C2329 C2330 1.387 . S
C2330 H2315 0.930 . S
C2330 C2325 1.390 . S
C2330 C2329 1.387 . S
H2331 C2343 0.930 . S
H2332 C2345 0.930 . S
H2333 C2346 0.930 . S
H2334 C2350 0.959 . S
H2335 C2350 0.959 . S
H2336 C2350 0.961 . S
H2337 C2351 0.960 . S
H2338 C2351 0.961 . S
H2339 C2351 0.959 . S
H2340 C2354 0.929 . S
H2341 C2355 0.931 . S
H2342 C2357 0.930 . S
C2343 H2331 0.930 . S
C2343 C2344 1.399 . S
C2343 C2348 1.399 . S
C2344 C2343 1.399 . S
C2344 C2345 1.376 . S
C2345 H2332 0.930 . S
C2345 C2344 1.376 . S
C2345 C2346 1.388 . S
C2346 H2333 0.930 . S
C2346 C2345 1.388 . S
C2346 C2347 1.390 . S
C2347 C2346 1.390 . S
C2347 C2348 1.394 . S
C2347 C2353 1.465 . S
C2348 C2343 1.399 . S
C2348 C2347 1.394 . S
C2348 C2349 1.516 . S
C2349 C2348 1.516 . S
C2349 C2350 1.502 . S
C2349 C2351 1.561 . S
C2349 C2352 1.526 . S
C2350 H2334 0.959 . S
C2350 H2335 0.959 . S
C2350 H2336 0.961 . S
C2350 C2349 1.502 . S
C2351 H2337 0.960 . S
C2351 H2338 0.961 . S
C2351 H2339 0.959 . S
C2351 C2349 1.561 . S
C2352 C2349 1.526 . S
C2352 C2353 1.396 . S
C2352 C2357 1.390 . S
C2353 C2347 1.465 . S
C2353 C2352 1.396 . S
C2353 C2354 1.399 . S
C2354 H2340 0.929 . S
C2354 C2353 1.399 . S
C2354 C2355 1.385 . S
C2355 H2341 0.931 . S
C2355 C2354 1.385 . S
C2355 C2356 1.389 . S
C2356 C2355 1.389 . S
C2356 C2357 1.387 . S
C2357 H2342 0.930 . S
C2357 C2352 1.390 . S
C2357 C2356 1.387 . S
H2358 C2370 0.930 1_565 S
H2359 C2372 0.930 . S
H2360 C2373 0.930 . S
H2361 C2377 0.959 . S
H2362 C2377 0.959 . S
H2363 C2377 0.961 . S
H2364 C2378 0.960 . S
H2365 C2378 0.961 . S
H2366 C2378 0.959 . S
H2367 C2381 0.929 . S
H2368 C2382 0.931 . S
H2369 C2384 0.930 . S
C2370 H2358 0.930 1_545 S
C2370 C2371 1.399 . S
C2370 C2375 1.399 . S
C2371 C2370 1.399 . S
C2371 C2372 1.376 . S
C2372 H2359 0.930 . S
C2372 C2371 1.376 . S
C2372 C2373 1.388 . S
C2373 H2360 0.930 . S
C2373 C2372 1.388 . S
C2373 C2374 1.390 . S
C2374 C2373 1.390 . S
C2374 C2375 1.394 . S
C2374 C2380 1.465 . S
C2375 C2370 1.399 . S
C2375 C2374 1.394 . S
C2375 C2376 1.516 1_545 S
C2376 C2375 1.516 1_565 S
C2376 C2377 1.502 . S
C2376 C2378 1.561 . S
C2376 C2379 1.526 1_565 S
C2377 H2361 0.959 . S
C2377 H2362 0.959 . S
C2377 H2363 0.961 . S
C2377 C2376 1.502 . S
C2378 H2364 0.960 . S
C2378 H2365 0.961 . S
C2378 H2366 0.959 . S
C2378 C2376 1.561 . S
C2379 C2376 1.526 1_545 S
C2379 C2380 1.396 . S
C2379 C2384 1.390 1_545 S
C2380 C2374 1.465 . S
C2380 C2379 1.396 . S
C2380 C2381 1.399 . S
C2381 H2367 0.929 . S
C2381 C2380 1.399 . S
C2381 C2382 1.385 . S
C2382 H2368 0.931 . S
C2382 C2381 1.385 . S
C2382 C2383 1.389 . S
C2383 C2382 1.389 . S
C2383 C2384 1.387 1_545 S
C2384 H2369 0.930 . S
C2384 C2379 1.390 1_565 S
C2384 C2383 1.387 1_565 S
H2385 C2397 0.930 . S
H2386 C2399 0.930 . S
H2387 C2400 0.930 . S
H2388 C2404 0.959 . S
H2389 C2404 0.959 . S
H2390 C2404 0.961 . S
H2391 C2405 0.960 . S
H2392 C2405 0.961 . S
H2393 C2405 0.959 . S
H2394 C2408 0.929 . S
H2395 C2409 0.931 . S
H2396 C2411 0.930 . S
C2397 H2385 0.930 . S
C2397 C2398 1.385 1_565 S
C2397 C2402 1.399 . S
C2398 C2397 1.385 1_545 S
C2398 C2399 1.388 . S
C2399 H2386 0.930 . S
C2399 C2398 1.388 . S
C2399 C2400 1.388 . S
C2400 H2387 0.930 . S
C2400 C2399 1.388 . S
C2400 C2401 1.390 . S
C2401 C2400 1.390 . S
C2401 C2402 1.394 1_545 S
C2401 C2407 1.465 . S
C2402 C2397 1.399 . S
C2402 C2401 1.394 1_565 S
C2402 C2403 1.516 . S
C2403 C2402 1.516 . S
C2403 C2404 1.502 . S
C2403 C2405 1.561 . S
C2403 C2406 1.526 . S
C2404 H2388 0.959 . S
C2404 H2389 0.959 . S
C2404 H2390 0.961 . S
C2404 C2403 1.502 . S
C2405 H2391 0.960 . S
C2405 H2392 0.961 . S
C2405 H2393 0.959 . S
C2405 C2403 1.561 . S
C2406 C2403 1.526 . S
C2406 C2407 1.396 1_565 S
C2406 C2411 1.390 . S
C2407 C2401 1.465 . S
C2407 C2406 1.396 1_545 S
C2407 C2408 1.399 . S
C2408 H2394 0.929 . S
C2408 C2407 1.399 . S
C2408 C2409 1.385 . S
C2409 H2395 0.931 . S
C2409 C2408 1.385 . S
C2409 C2410 1.389 1_545 S
C2410 C2409 1.389 1_565 S
C2410 C2411 1.387 . S
C2411 H2396 0.930 . S
C2411 C2406 1.390 . S
C2411 C2410 1.387 . S
H2412 C2424 0.930 . S
H2413 C2426 0.930 . S
H2414 C2427 0.930 . S
H2415 C2431 0.959 . S
H2416 C2431 0.959 . S
H2417 C2431 0.961 . S
H2418 C2432 0.960 . S
H2419 C2432 0.961 . S
H2420 C2432 0.959 . S
H2421 C2435 0.929 . S
H2422 C2436 0.931 . S
H2423 C2438 0.930 . S
C2424 H2412 0.930 . S
C2424 C2425 1.399 . S
C2424 C2429 1.399 . S
C2425 C2424 1.399 . S
C2425 C2426 1.376 1_455 S
C2426 H2413 0.930 . S
C2426 C2425 1.376 1_655 S
C2426 C2427 1.388 . S
C2427 H2414 0.930 . S
C2427 C2426 1.388 . S
C2427 C2428 1.390 1_655 S
C2428 C2427 1.390 1_455 S
C2428 C2429 1.394 . S
C2428 C2434 1.465 . S
C2429 C2424 1.399 . S
C2429 C2428 1.394 . S
C2429 C2430 1.516 . S
C2430 C2429 1.516 . S
C2430 C2431 1.502 . S
C2430 C2432 1.561 . S
C2430 C2433 1.526 . S
C2431 H2415 0.959 . S
C2431 H2416 0.959 . S
C2431 H2417 0.961 . S
C2431 C2430 1.502 . S
C2432 H2418 0.960 . S
C2432 H2419 0.961 . S
C2432 H2420 0.959 . S
C2432 C2430 1.561 . S
C2433 C2430 1.526 . S
C2433 C2434 1.396 . S
C2433 C2438 1.390 . S
C2434 C2428 1.465 . S
C2434 C2433 1.396 . S
C2434 C2435 1.399 1_455 S
C2435 H2421 0.929 . S
C2435 C2434 1.399 1_655 S
C2435 C2436 1.385 . S
C2436 H2422 0.931 . S
C2436 C2435 1.385 . S
C2436 C2437 1.389 1_655 S
C2437 C2436 1.389 1_455 S
C2437 C2438 1.387 . S
C2438 H2423 0.930 . S
C2438 C2433 1.390 . S
C2438 C2437 1.387 . S
H2439 C2451 0.930 . S
H2440 C2453 0.930 . S
H2441 C2454 0.930 . S
H2442 C2458 0.959 . S
H2443 C2458 0.959 . S
H2444 C2458 0.961 . S
H2445 C2459 0.960 . S
H2446 C2459 0.961 . S
H2447 C2459 0.959 . S
H2448 C2462 0.929 . S
H2449 C2463 0.931 . S
H2450 C2465 0.930 . S
C2451 H2439 0.930 . S
C2451 C2452 1.399 . S
C2451 C2456 1.399 . S
C2452 C2451 1.399 . S
C2452 C2453 1.376 . S
C2453 H2440 0.930 . S
C2453 C2452 1.376 . S
C2453 C2454 1.388 . S
C2454 H2441 0.930 . S
C2454 C2453 1.388 . S
C2454 C2455 1.390 . S
C2455 C2454 1.390 . S
C2455 C2456 1.394 . S
C2455 C2461 1.465 . S
C2456 C2451 1.399 . S
C2456 C2455 1.394 . S
C2456 C2457 1.516 . S
C2457 C2456 1.516 . S
C2457 C2458 1.502 . S
C2457 C2459 1.561 . S
C2457 C2460 1.526 . S
C2458 H2442 0.959 . S
C2458 H2443 0.959 . S
C2458 H2444 0.961 . S
C2458 C2457 1.502 . S
C2459 H2445 0.960 . S
C2459 H2446 0.961 . S
C2459 H2447 0.959 . S
C2459 C2457 1.561 . S
C2460 C2457 1.526 . S
C2460 C2461 1.396 . S
C2460 C2465 1.390 . S
C2461 C2455 1.465 . S
C2461 C2460 1.396 . S
C2461 C2462 1.399 . S
C2462 H2448 0.929 . S
C2462 C2461 1.399 . S
C2462 C2463 1.385 . S
C2463 H2449 0.931 . S
C2463 C2462 1.385 . S
C2463 C2464 1.389 . S
C2464 C2463 1.389 . S
C2464 C2465 1.387 . S
C2465 H2450 0.930 . S
C2465 C2460 1.390 . S
C2465 C2464 1.387 . S
H2466 C2478 0.930 . S
H2467 C2480 0.985 . S
H2468 C2481 0.930 . S
H2469 C2485 0.959 . S
H2470 C2485 0.959 . S
H2471 C2485 0.961 . S
H2472 C2486 0.960 . S
H2473 C2486 0.961 . S
H2474 C2486 0.959 . S
H2475 C2489 0.929 . S
H2476 C2490 0.931 . S
H2477 C2492 0.930 . S
C2478 H2466 0.930 . S
C2478 C2479 1.399 . S
C2478 C2483 1.399 . S
C2479 C2478 1.399 . S
C2479 C2480 1.341 1_455 S
C2480 H2467 0.985 . S
C2480 C2479 1.341 1_655 S
C2480 C2481 1.375 . S
C2481 H2468 0.930 . S
C2481 C2480 1.375 . S
C2481 C2482 1.392 . S
C2482 C2481 1.392 . S
C2482 C2483 1.392 1_655 S
C2482 C2488 1.491 . S
C2483 C2478 1.399 . S
C2483 C2482 1.392 1_455 S
C2483 C2484 1.516 . S
C2484 C2483 1.516 . S
C2484 C2485 1.502 . S
C2484 C2486 1.561 1_455 S
C2484 C2487 1.526 . S
C2485 H2469 0.959 . S
C2485 H2470 0.959 . S
C2485 H2471 0.961 . S
C2485 C2484 1.502 . S
C2486 H2472 0.960 . S
C2486 H2473 0.961 . S
C2486 H2474 0.959 . S
C2486 C2484 1.561 1_655 S
C2487 C2484 1.526 . S
C2487 C2488 1.348 1_455 S
C2487 C2492 1.390 . S
C2488 C2482 1.491 . S
C2488 C2487 1.348 1_655 S
C2488 C2489 1.416 . S
C2489 H2475 0.929 . S
C2489 C2488 1.416 . S
C2489 C2490 1.385 . S
C2490 H2476 0.931 . S
C2490 C2489 1.385 . S
C2490 C2491 1.373 1_655 S
C2491 C2490 1.373 1_455 S
C2491 C2492 1.392 . S
C2492 H2477 0.930 . S
C2492 C2487 1.390 . S
C2492 C2491 1.392 . S
H2493 C2505 0.930 . S
H2494 C2507 0.930 . S
H2495 C2508 0.930 . S
H2496 C2512 0.959 . S
H2497 C2512 0.959 . S
H2498 C2512 0.961 . S
H2499 C2513 0.960 . S
H2500 C2513 0.961 . S
H2501 C2513 0.959 . S
H2502 C2516 0.929 . S
H2503 C2517 0.931 . S
H2504 C2519 0.930 . S
C2505 H2493 0.930 . S
C2505 C2506 1.399 . S
C2505 C2510 1.399 . S
C2506 C2505 1.399 . S
C2506 C2507 1.376 . S
C2507 H2494 0.930 . S
C2507 C2506 1.376 . S
C2507 C2508 1.388 . S
C2508 H2495 0.930 . S
C2508 C2507 1.388 . S
C2508 C2509 1.390 . S
C2509 C2508 1.390 . S
C2509 C2510 1.394 . S
C2509 C2515 1.465 . S
C2510 C2505 1.399 . S
C2510 C2509 1.394 . S
C2510 C2511 1.516 . S
C2511 C2510 1.516 . S
C2511 C2512 1.502 . S
C2511 C2513 1.561 . S
C2511 C2514 1.526 . S
C2512 H2496 0.959 . S
C2512 H2497 0.959 . S
C2512 H2498 0.961 . S
C2512 C2511 1.502 . S
C2513 H2499 0.960 . S
C2513 H2500 0.961 . S
C2513 H2501 0.959 . S
C2513 C2511 1.561 . S
C2514 C2511 1.526 . S
C2514 C2515 1.396 . S
C2514 C2519 1.390 . S
C2515 C2509 1.465 . S
C2515 C2514 1.396 . S
C2515 C2516 1.399 . S
C2516 H2502 0.929 . S
C2516 C2515 1.399 . S
C2516 C2517 1.385 . S
C2517 H2503 0.931 . S
C2517 C2516 1.385 . S
C2517 C2518 1.389 . S
C2518 C2517 1.389 . S
C2518 C2519 1.387 . S
C2519 H2504 0.930 . S
C2519 C2514 1.390 . S
C2519 C2518 1.387 . S
H2520 C2532 0.930 1_545 S
H2521 C2534 0.930 . S
H2522 C2535 0.930 . S
H2523 C2539 0.959 . S
H2524 C2539 0.959 . S
H2525 C2539 0.961 . S
H2526 C2540 0.960 . S
H2527 C2540 0.961 . S
H2528 C2540 0.959 . S
H2529 C2543 0.929 . S
H2530 C2544 0.931 . S
H2531 C2546 0.930 . S
C2532 H2520 0.930 1_565 S
C2532 C2533 1.399 . S
C2532 C2537 1.399 . S
C2533 C2532 1.399 . S
C2533 C2534 1.376 . S
C2534 H2521 0.930 . S
C2534 C2533 1.376 . S
C2534 C2535 1.388 . S
C2535 H2522 0.930 . S
C2535 C2534 1.388 . S
C2535 C2536 1.390 . S
C2536 C2535 1.390 . S
C2536 C2537 1.394 . S
C2536 C2542 1.465 . S
C2537 C2532 1.399 . S
C2537 C2536 1.394 . S
C2537 C2538 1.518 . S
C2538 C2537 1.518 . S
C2538 C2539 1.497 1_565 S
C2538 C2540 1.567 . S
C2538 C2541 1.523 . S
C2539 H2523 0.959 . S
C2539 H2524 0.959 . S
C2539 H2525 0.961 . S
C2539 C2538 1.497 1_545 S
C2540 H2526 0.960 . S
C2540 H2527 0.961 . S
C2540 H2528 0.959 . S
C2540 C2538 1.567 . S
C2541 C2538 1.523 . S
C2541 C2542 1.396 . S
C2541 C2546 1.389 1_565 S
C2542 C2536 1.465 . S
C2542 C2541 1.396 . S
C2542 C2543 1.399 . S
C2543 H2529 0.929 . S
C2543 C2542 1.399 . S
C2543 C2544 1.385 . S
C2544 H2530 0.931 . S
C2544 C2543 1.385 . S
C2544 C2545 1.389 . S
C2545 C2544 1.389 . S
C2545 C2546 1.387 1_565 S
C2546 H2531 0.930 . S
C2546 C2541 1.389 1_545 S
C2546 C2545 1.387 1_545 S
H2547 C2559 0.930 . S
H2548 C2561 0.930 . S
H2549 C2562 0.930 . S
H2550 C2566 0.959 . S
H2551 C2566 0.959 . S
H2552 C2566 0.961 . S
H2553 C2567 0.960 . S
H2554 C2567 0.961 . S
H2555 C2567 0.959 . S
H2556 C2570 0.929 . S
H2557 C2571 0.931 . S
H2558 C2573 0.930 . S
C2559 H2547 0.930 . S
C2559 C2560 1.399 1_565 S
C2559 C2564 1.399 . S
C2560 C2559 1.399 1_545 S
C2560 C2561 1.376 . S
C2561 H2548 0.930 . S
C2561 C2560 1.376 . S
C2561 C2562 1.388 . S
C2562 H2549 0.930 . S
C2562 C2561 1.388 . S
C2562 C2563 1.390 . S
C2563 C2562 1.390 . S
C2563 C2564 1.394 1_545 S
C2563 C2569 1.465 . S
C2564 C2559 1.399 . S
C2564 C2563 1.394 1_565 S
C2564 C2565 1.516 . S
C2565 C2564 1.516 . S
C2565 C2566 1.502 . S
C2565 C2567 1.561 . S
C2565 C2568 1.526 . S
C2566 H2550 0.959 . S
C2566 H2551 0.959 . S
C2566 H2552 0.961 . S
C2566 C2565 1.502 . S
C2567 H2553 0.960 . S
C2567 H2554 0.961 . S
C2567 H2555 0.959 . S
C2567 C2565 1.561 . S
C2568 C2565 1.526 . S
C2568 C2569 1.396 1_565 S
C2568 C2573 1.390 . S
C2569 C2563 1.465 . S
C2569 C2568 1.396 1_545 S
C2569 C2570 1.399 . S
C2570 H2556 0.929 . S
C2570 C2569 1.399 . S
C2570 C2571 1.385 . S
C2571 H2557 0.931 . S
C2571 C2570 1.385 . S
C2571 C2572 1.389 . S
C2572 C2571 1.389 . S
C2572 C2573 1.387 1_545 S
C2573 H2558 0.930 . S
C2573 C2568 1.390 . S
C2573 C2572 1.387 1_565 S
H2574 C2586 0.932 . S
H2575 C2588 0.930 . S
H2576 C2589 0.930 . S
H2577 C2593 0.959 . S
H2578 C2593 0.959 . S
H2579 C2593 0.961 . S
H2580 C2594 0.960 . S
H2581 C2594 0.961 . S
H2582 C2594 0.959 . S
H2583 C2597 0.929 . S
H2584 C2598 0.931 . S
H2585 C2600 0.930 . S
C2586 H2574 0.932 . S
C2586 C2587 1.387 1_455 S
C2586 C2591 1.410 1_455 S
C2587 C2586 1.387 1_655 S
C2587 C2588 1.376 . S
C2588 H2575 0.930 . S
C2588 C2587 1.376 . S
C2588 C2589 1.388 . S
C2589 H2576 0.930 . S
C2589 C2588 1.388 . S
C2589 C2590 1.390 . S
C2590 C2589 1.390 . S
C2590 C2591 1.394 . S
C2590 C2596 1.465 . S
C2591 C2586 1.410 1_655 S
C2591 C2590 1.394 . S
C2591 C2592 1.516 1_655 S
C2592 C2591 1.516 1_455 S
C2592 C2593 1.502 . S
C2592 C2594 1.561 1_455 S
C2592 C2595 1.536 1_455 S
C2593 H2577 0.959 . S
C2593 H2578 0.959 . S
C2593 H2579 0.961 . S
C2593 C2592 1.502 . S
C2594 H2580 0.960 . S
C2594 H2581 0.961 . S
C2594 H2582 0.959 . S
C2594 C2592 1.561 1_655 S
C2595 C2592 1.536 1_655 S
C2595 C2596 1.407 . S
C2595 C2600 1.373 1_655 S
C2596 C2590 1.465 . S
C2596 C2595 1.407 . S
C2596 C2597 1.399 . S
C2597 H2583 0.929 . S
C2597 C2596 1.399 . S
C2597 C2598 1.385 . S
C2598 H2584 0.931 . S
C2598 C2597 1.385 . S
C2598 C2599 1.389 . S
C2599 C2598 1.389 . S
C2599 C2600 1.387 1_655 S
C2600 H2585 0.930 . S
C2600 C2595 1.373 1_455 S
C2600 C2599 1.387 1_455 S
H2601 C2613 0.930 . S
H2602 C2615 0.930 . S
H2603 C2616 0.930 . S
H2604 C2620 0.959 . S
H2605 C2620 0.959 . S
H2606 C2620 0.961 . S
H2607 C2621 0.960 . S
H2608 C2621 0.961 . S
H2609 C2621 0.959 . S
H2610 C2624 0.929 . S
H2611 C2625 0.931 . S
H2612 C2627 0.930 . S
C2613 H2601 0.930 . S
C2613 C2614 1.399 . S
C2613 C2618 1.399 . S
C2614 C2613 1.399 . S
C2614 C2615 1.376 . S
C2615 H2602 0.930 . S
C2615 C2614 1.376 . S
C2615 C2616 1.388 . S
C2616 H2603 0.930 . S
C2616 C2615 1.388 . S
C2616 C2617 1.390 . S
C2617 C2616 1.390 . S
C2617 C2618 1.394 . S
C2617 C2623 1.465 . S
C2618 C2613 1.399 . S
C2618 C2617 1.394 . S
C2618 C2619 1.516 . S
C2619 C2618 1.516 . S
C2619 C2620 1.502 . S
C2619 C2621 1.561 . S
C2619 C2622 1.526 . S
C2620 H2604 0.959 . S
C2620 H2605 0.959 . S
C2620 H2606 0.961 . S
C2620 C2619 1.502 . S
C2621 H2607 0.960 . S
C2621 H2608 0.961 . S
C2621 H2609 0.959 . S
C2621 C2619 1.561 . S
C2622 C2619 1.526 . S
C2622 C2623 1.396 . S
C2622 C2627 1.390 . S
C2623 C2617 1.465 . S
C2623 C2622 1.396 . S
C2623 C2624 1.399 . S
C2624 H2610 0.929 . S
C2624 C2623 1.399 . S
C2624 C2625 1.385 . S
C2625 H2611 0.931 . S
C2625 C2624 1.385 . S
C2625 C2626 1.389 . S
C2626 C2625 1.389 . S
C2626 C2627 1.387 . S
C2627 H2612 0.930 . S
C2627 C2622 1.390 . S
C2627 C2626 1.387 . S
H2628 C2640 0.930 . S
H2629 C2642 0.930 . S
H2630 C2643 0.930 . S
H2631 C2647 0.959 . S
H2632 C2647 0.959 . S
H2633 C2647 0.961 . S
H2634 C2648 0.960 . S
H2635 C2648 0.961 . S
H2636 C2648 0.959 . S
H2637 C2651 0.929 . S
H2638 C2652 0.931 . S
H2639 C2654 0.930 . S
C2640 H2628 0.930 . S
C2640 C2641 1.399 . S
C2640 C2645 1.399 . S
C2641 C2640 1.399 . S
C2641 C2642 1.376 . S
C2642 H2629 0.930 . S
C2642 C2641 1.376 . S
C2642 C2643 1.388 . S
C2643 H2630 0.930 . S
C2643 C2642 1.388 . S
C2643 C2644 1.390 . S
C2644 C2643 1.390 . S
C2644 C2645 1.394 . S
C2644 C2650 1.465 . S
C2645 C2640 1.399 . S
C2645 C2644 1.394 . S
C2645 C2646 1.516 . S
C2646 C2645 1.516 . S
C2646 C2647 1.502 . S
C2646 C2648 1.561 . S
C2646 C2649 1.526 . S
C2647 H2631 0.959 . S
C2647 H2632 0.959 . S
C2647 H2633 0.961 . S
C2647 C2646 1.502 . S
C2648 H2634 0.960 . S
C2648 H2635 0.961 . S
C2648 H2636 0.959 . S
C2648 C2646 1.561 . S
C2649 C2646 1.526 . S
C2649 C2650 1.396 . S
C2649 C2654 1.390 . S
C2650 C2644 1.465 . S
C2650 C2649 1.396 . S
C2650 C2651 1.399 . S
C2651 H2637 0.929 . S
C2651 C2650 1.399 . S
C2651 C2652 1.385 . S
C2652 H2638 0.931 . S
C2652 C2651 1.385 . S
C2652 C2653 1.389 . S
C2653 C2652 1.389 . S
C2653 C2654 1.387 . S
C2654 H2639 0.930 . S
C2654 C2649 1.390 . S
C2654 C2653 1.387 . S
H2655 C2667 0.930 . S
H2656 C2669 0.930 . S
H2657 C2670 0.930 . S
H2658 C2674 0.959 . S
H2659 C2674 0.959 . S
H2660 C2674 0.961 . S
H2661 C2675 0.960 . S
H2662 C2675 0.961 . S
H2663 C2675 0.959 . S
H2664 C2678 0.929 . S
H2665 C2679 0.931 . S
H2666 C2681 0.930 . S
C2667 H2655 0.930 . S
C2667 C2668 1.399 . S
C2667 C2672 1.399 . S
C2668 C2667 1.399 . S
C2668 C2669 1.376 . S
C2669 H2656 0.930 . S
C2669 C2668 1.376 . S
C2669 C2670 1.388 . S
C2670 H2657 0.930 . S
C2670 C2669 1.388 . S
C2670 C2671 1.390 . S
C2671 C2670 1.390 . S
C2671 C2672 1.394 . S
C2671 C2677 1.465 . S
C2672 C2667 1.399 . S
C2672 C2671 1.394 . S
C2672 C2673 1.516 . S
C2673 C2672 1.516 . S
C2673 C2674 1.502 . S
C2673 C2675 1.561 . S
C2673 C2676 1.526 . S
C2674 H2658 0.959 . S
C2674 H2659 0.959 . S
C2674 H2660 0.961 . S
C2674 C2673 1.502 . S
C2675 H2661 0.960 . S
C2675 H2662 0.961 . S
C2675 H2663 0.959 . S
C2675 C2673 1.561 . S
C2676 C2673 1.526 . S
C2676 C2677 1.396 . S
C2676 C2681 1.390 . S
C2677 C2671 1.465 . S
C2677 C2676 1.396 . S
C2677 C2678 1.399 . S
C2678 H2664 0.929 . S
C2678 C2677 1.399 . S
C2678 C2679 1.385 . S
C2679 H2665 0.931 . S
C2679 C2678 1.385 . S
C2679 C2680 1.389 . S
C2680 C2679 1.389 . S
C2680 C2681 1.387 . S
C2681 H2666 0.930 . S
C2681 C2676 1.390 . S
C2681 C2680 1.387 . S
H2682 C2694 0.930 . S
H2683 C2696 0.930 . S
H2684 C2697 0.930 . S
H2685 C2701 0.959 . S
H2686 C2701 0.959 . S
H2687 C2701 0.961 . S
H2688 C2702 0.960 . S
H2689 C2702 0.961 . S
H2690 C2702 0.959 . S
H2691 C2705 0.929 . S
H2692 C2706 0.931 . S
H2693 C2708 0.930 . S
C2694 H2682 0.930 . S
C2694 C2695 1.399 . S
C2694 C2699 1.399 . S
C2695 C2694 1.399 . S
C2695 C2696 1.376 . S
C2696 H2683 0.930 . S
C2696 C2695 1.376 . S
C2696 C2697 1.388 . S
C2697 H2684 0.930 . S
C2697 C2696 1.388 . S
C2697 C2698 1.390 . S
C2698 C2697 1.390 . S
C2698 C2699 1.394 . S
C2698 C2704 1.465 . S
C2699 C2694 1.399 . S
C2699 C2698 1.394 . S
C2699 C2700 1.516 . S
C2700 C2699 1.516 . S
C2700 C2701 1.502 . S
C2700 C2702 1.561 . S
C2700 C2703 1.526 . S
C2701 H2685 0.959 . S
C2701 H2686 0.959 . S
C2701 H2687 0.961 . S
C2701 C2700 1.502 . S
C2702 H2688 0.960 . S
C2702 H2689 0.961 . S
C2702 H2690 0.959 . S
C2702 C2700 1.561 . S
C2703 C2700 1.526 . S
C2703 C2704 1.396 . S
C2703 C2708 1.390 . S
C2704 C2698 1.465 . S
C2704 C2703 1.396 . S
C2704 C2705 1.399 . S
C2705 H2691 0.929 . S
C2705 C2704 1.399 . S
C2705 C2706 1.385 . S
C2706 H2692 0.931 . S
C2706 C2705 1.385 . S
C2706 C2707 1.389 . S
C2707 C2706 1.389 . S
C2707 C2708 1.387 . S
C2708 H2693 0.930 . S
C2708 C2703 1.390 . S
C2708 C2707 1.387 . S
H2709 C2721 0.930 . S
H2710 C2723 0.930 . S
H2711 C2724 0.930 . S
H2712 C2728 0.959 . S
H2713 C2728 0.959 . S
H2714 C2728 0.961 . S
H2715 C2729 0.960 . S
H2716 C2729 0.961 . S
H2717 C2729 0.959 . S
H2718 C2732 0.929 . S
H2719 C2733 0.931 . S
H2720 C2735 0.930 . S
C2721 H2709 0.930 . S
C2721 C2722 1.399 . S
C2721 C2726 1.399 . S
C2722 C2721 1.399 . S
C2722 C2723 1.376 . S
C2723 H2710 0.930 . S
C2723 C2722 1.376 . S
C2723 C2724 1.388 . S
C2724 H2711 0.930 . S
C2724 C2723 1.388 . S
C2724 C2725 1.390 . S
C2725 C2724 1.390 . S
C2725 C2726 1.394 . S
C2725 C2731 1.465 . S
C2726 C2721 1.399 . S
C2726 C2725 1.394 . S
C2726 C2727 1.516 . S
C2727 C2726 1.516 . S
C2727 C2728 1.502 . S
C2727 C2729 1.561 . S
C2727 C2730 1.526 . S
C2728 H2712 0.959 . S
C2728 H2713 0.959 . S
C2728 H2714 0.961 . S
C2728 C2727 1.502 . S
C2729 H2715 0.960 . S
C2729 H2716 0.961 . S
C2729 H2717 0.959 . S
C2729 C2727 1.561 . S
C2730 C2727 1.526 . S
C2730 C2731 1.396 . S
C2730 C2735 1.390 . S
C2731 C2725 1.465 . S
C2731 C2730 1.396 . S
C2731 C2732 1.399 . S
C2732 H2718 0.929 . S
C2732 C2731 1.399 . S
C2732 C2733 1.385 . S
C2733 H2719 0.931 . S
C2733 C2732 1.385 . S
C2733 C2734 1.389 . S
C2734 C2733 1.389 . S
C2734 C2735 1.387 . S
C2735 H2720 0.930 . S
C2735 C2730 1.390 . S
C2735 C2734 1.387 . S
H2736 C2748 0.930 . S
H2737 C2750 0.930 . S
H2738 C2751 0.930 . S
H2739 C2755 0.959 . S
H2740 C2755 0.959 . S
H2741 C2755 0.961 . S
H2742 C2756 0.960 . S
H2743 C2756 0.961 . S
H2744 C2756 0.959 . S
H2745 C2759 0.929 . S
H2746 C2760 0.931 . S
H2747 C2762 0.930 . S
C2748 H2736 0.930 . S
C2748 C2749 1.399 . S
C2748 C2753 1.399 . S
C2749 C2748 1.399 . S
C2749 C2750 1.376 . S
C2750 H2737 0.930 . S
C2750 C2749 1.376 . S
C2750 C2751 1.388 . S
C2751 H2738 0.930 . S
C2751 C2750 1.388 . S
C2751 C2752 1.390 . S
C2752 C2751 1.390 . S
C2752 C2753 1.394 . S
C2752 C2758 1.465 . S
C2753 C2748 1.399 . S
C2753 C2752 1.394 . S
C2753 C2754 1.516 . S
C2754 C2753 1.516 . S
C2754 C2755 1.502 . S
C2754 C2756 1.561 . S
C2754 C2757 1.526 . S
C2755 H2739 0.959 . S
C2755 H2740 0.959 . S
C2755 H2741 0.961 . S
C2755 C2754 1.502 . S
C2756 H2742 0.960 . S
C2756 H2743 0.961 . S
C2756 H2744 0.959 . S
C2756 C2754 1.561 . S
C2757 C2754 1.526 . S
C2757 C2758 1.396 . S
C2757 C2762 1.390 . S
C2758 C2752 1.465 . S
C2758 C2757 1.396 . S
C2758 C2759 1.399 . S
C2759 H2745 0.929 . S
C2759 C2758 1.399 . S
C2759 C2760 1.385 . S
C2760 H2746 0.931 . S
C2760 C2759 1.385 . S
C2760 C2761 1.389 . S
C2761 C2760 1.389 . S
C2761 C2762 1.387 . S
C2762 H2747 0.930 . S
C2762 C2757 1.390 . S
C2762 C2761 1.387 . S
H2763 C2775 0.930 . S
H2764 C2777 0.930 . S
H2765 C2778 0.930 . S
H2766 C2782 0.959 . S
H2767 C2782 0.959 . S
H2768 C2782 0.961 . S
H2769 C2783 0.960 . S
H2770 C2783 0.961 . S
H2771 C2783 0.959 . S
H2772 C2786 0.929 . S
H2773 C2787 0.931 . S
H2774 C2789 0.930 . S
C2775 H2763 0.930 . S
C2775 C2776 1.399 . S
C2775 C2780 1.399 . S
C2776 C2775 1.399 . S
C2776 C2777 1.376 . S
C2777 H2764 0.930 . S
C2777 C2776 1.376 . S
C2777 C2778 1.388 . S
C2778 H2765 0.930 . S
C2778 C2777 1.388 . S
C2778 C2779 1.390 . S
C2779 C2778 1.390 . S
C2779 C2780 1.394 . S
C2779 C2785 1.465 . S
C2780 C2775 1.399 . S
C2780 C2779 1.394 . S
C2780 C2781 1.516 . S
C2781 C2780 1.516 . S
C2781 C2782 1.502 . S
C2781 C2783 1.561 . S
C2781 C2784 1.526 . S
C2782 H2766 0.959 . S
C2782 H2767 0.959 . S
C2782 H2768 0.961 . S
C2782 C2781 1.502 . S
C2783 H2769 0.960 . S
C2783 H2770 0.961 . S
C2783 H2771 0.959 . S
C2783 C2781 1.561 . S
C2784 C2781 1.526 . S
C2784 C2785 1.396 . S
C2784 C2789 1.390 . S
C2785 C2779 1.465 . S
C2785 C2784 1.396 . S
C2785 C2786 1.399 . S
C2786 H2772 0.929 . S
C2786 C2785 1.399 . S
C2786 C2787 1.385 . S
C2787 H2773 0.931 . S
C2787 C2786 1.385 . S
C2787 C2788 1.389 . S
C2788 C2787 1.389 . S
C2788 C2789 1.387 . S
C2789 H2774 0.930 . S
C2789 C2784 1.390 . S
C2789 C2788 1.387 . S
H2790 C2802 0.930 . S
H2791 C2804 0.930 . S
H2792 C2805 0.930 . S
H2793 C2809 0.959 . S
H2794 C2809 0.959 . S
H2795 C2809 0.961 . S
H2796 C2810 0.960 . S
H2797 C2810 0.961 . S
H2798 C2810 0.959 . S
H2799 C2813 0.929 . S
H2800 C2814 0.931 . S
H2801 C2816 0.930 . S
C2802 H2790 0.930 . S
C2802 C2803 1.399 . S
C2802 C2807 1.399 . S
C2803 C2802 1.399 . S
C2803 C2804 1.376 . S
C2804 H2791 0.930 . S
C2804 C2803 1.376 . S
C2804 C2805 1.388 . S
C2805 H2792 0.930 . S
C2805 C2804 1.388 . S
C2805 C2806 1.390 . S
C2806 C2805 1.390 . S
C2806 C2807 1.394 . S
C2806 C2812 1.465 . S
C2807 C2802 1.399 . S
C2807 C2806 1.394 . S
C2807 C2808 1.516 . S
C2808 C2807 1.516 . S
C2808 C2809 1.502 . S
C2808 C2810 1.561 . S
C2808 C2811 1.526 . S
C2809 H2793 0.959 . S
C2809 H2794 0.959 . S
C2809 H2795 0.961 . S
C2809 C2808 1.502 . S
C2810 H2796 0.960 . S
C2810 H2797 0.961 . S
C2810 H2798 0.959 . S
C2810 C2808 1.561 . S
C2811 C2808 1.526 . S
C2811 C2812 1.396 . S
C2811 C2816 1.390 . S
C2812 C2806 1.465 . S
C2812 C2811 1.396 . S
C2812 C2813 1.399 . S
C2813 H2799 0.929 . S
C2813 C2812 1.399 . S
C2813 C2814 1.385 . S
C2814 H2800 0.931 . S
C2814 C2813 1.385 . S
C2814 C2815 1.389 . S
C2815 C2814 1.389 . S
C2815 C2816 1.387 . S
C2816 H2801 0.930 . S
C2816 C2811 1.390 . S
C2816 C2815 1.387 . S
H2817 C2829 0.930 . S
H2818 C2831 0.930 . S
H2819 C2832 0.930 . S
H2820 C2836 0.959 . S
H2821 C2836 0.959 . S
H2822 C2836 0.961 . S
H2823 C2837 0.960 . S
H2824 C2837 0.961 . S
H2825 C2837 0.959 . S
H2826 C2840 0.929 . S
H2827 C2841 0.931 . S
H2828 C2843 0.930 . S
C2829 H2817 0.930 . S
C2829 C2830 1.399 . S
C2829 C2834 1.399 . S
C2830 C2829 1.399 . S
C2830 C2831 1.376 . S
C2831 H2818 0.930 . S
C2831 C2830 1.376 . S
C2831 C2832 1.388 . S
C2832 H2819 0.930 . S
C2832 C2831 1.388 . S
C2832 C2833 1.390 . S
C2833 C2832 1.390 . S
C2833 C2834 1.394 . S
C2833 C2839 1.465 . S
C2834 C2829 1.399 . S
C2834 C2833 1.394 . S
C2834 C2835 1.516 . S
C2835 C2834 1.516 . S
C2835 C2836 1.502 . S
C2835 C2837 1.561 . S
C2835 C2838 1.526 . S
C2836 H2820 0.959 . S
C2836 H2821 0.959 . S
C2836 H2822 0.961 . S
C2836 C2835 1.502 . S
C2837 H2823 0.960 . S
C2837 H2824 0.961 . S
C2837 H2825 0.959 . S
C2837 C2835 1.561 . S
C2838 C2835 1.526 . S
C2838 C2839 1.396 . S
C2838 C2843 1.390 . S
C2839 C2833 1.465 . S
C2839 C2838 1.396 . S
C2839 C2840 1.399 . S
C2840 H2826 0.929 . S
C2840 C2839 1.399 . S
C2840 C2841 1.385 . S
C2841 H2827 0.931 . S
C2841 C2840 1.385 . S
C2841 C2842 1.389 . S
C2842 C2841 1.389 . S
C2842 C2843 1.387 . S
C2843 H2828 0.930 . S
C2843 C2838 1.390 . S
C2843 C2842 1.387 . S
H2844 C2856 0.930 . S
H2845 C2858 0.930 . S
H2846 C2859 0.930 . S
H2847 C2863 0.959 . S
H2848 C2863 0.959 . S
H2849 C2863 0.961 . S
H2850 C2864 0.960 . S
H2851 C2864 0.961 . S
H2852 C2864 0.959 . S
H2853 C2867 0.929 . S
H2854 C2868 0.931 . S
H2855 C2870 0.930 . S
C2856 H2844 0.930 . S
C2856 C2857 1.399 . S
C2856 C2861 1.399 . S
C2857 C2856 1.399 . S
C2857 C2858 1.376 . S
C2858 H2845 0.930 . S
C2858 C2857 1.376 . S
C2858 C2859 1.388 . S
C2859 H2846 0.930 . S
C2859 C2858 1.388 . S
C2859 C2860 1.390 . S
C2860 C2859 1.390 . S
C2860 C2861 1.394 . S
C2860 C2866 1.465 . S
C2861 C2856 1.399 . S
C2861 C2860 1.394 . S
C2861 C2862 1.516 . S
C2862 C2861 1.516 . S
C2862 C2863 1.502 . S
C2862 C2864 1.561 . S
C2862 C2865 1.526 . S
C2863 H2847 0.959 . S
C2863 H2848 0.959 . S
C2863 H2849 0.961 . S
C2863 C2862 1.502 . S
C2864 H2850 0.960 . S
C2864 H2851 0.961 . S
C2864 H2852 0.959 . S
C2864 C2862 1.561 . S
C2865 C2862 1.526 . S
C2865 C2866 1.396 . S
C2865 C2870 1.390 . S
C2866 C2860 1.465 . S
C2866 C2865 1.396 . S
C2866 C2867 1.399 . S
C2867 H2853 0.929 . S
C2867 C2866 1.399 . S
C2867 C2868 1.385 . S
C2868 H2854 0.931 . S
C2868 C2867 1.385 . S
C2868 C2869 1.389 . S
C2869 C2868 1.389 . S
C2869 C2870 1.387 . S
C2870 H2855 0.930 . S
C2870 C2865 1.390 . S
C2870 C2869 1.387 . S
H2871 C2883 0.930 . S
H2872 C2885 0.930 . S
H2873 C2886 0.930 . S
H2874 C2890 0.959 . S
H2875 C2890 0.959 . S
H2876 C2890 0.961 . S
H2877 C2891 0.960 . S
H2878 C2891 0.961 . S
H2879 C2891 0.959 . S
H2880 C2894 0.929 . S
H2881 C2895 0.931 . S
H2882 C2897 0.930 . S
C2883 H2871 0.930 . S
C2883 C2884 1.399 . S
C2883 C2888 1.399 . S
C2884 C2883 1.399 . S
C2884 C2885 1.376 . S
C2885 H2872 0.930 . S
C2885 C2884 1.376 . S
C2885 C2886 1.388 . S
C2886 H2873 0.930 . S
C2886 C2885 1.388 . S
C2886 C2887 1.390 . S
C2887 C2886 1.390 . S
C2887 C2888 1.394 . S
C2887 C2893 1.465 . S
C2888 C2883 1.399 . S
C2888 C2887 1.394 . S
C2888 C2889 1.516 . S
C2889 C2888 1.516 . S
C2889 C2890 1.502 . S
C2889 C2891 1.561 . S
C2889 C2892 1.526 . S
C2890 H2874 0.959 . S
C2890 H2875 0.959 . S
C2890 H2876 0.961 . S
C2890 C2889 1.502 . S
C2891 H2877 0.960 . S
C2891 H2878 0.961 . S
C2891 H2879 0.959 . S
C2891 C2889 1.561 . S
C2892 C2889 1.526 . S
C2892 C2893 1.396 . S
C2892 C2897 1.390 . S
C2893 C2887 1.465 . S
C2893 C2892 1.396 . S
C2893 C2894 1.399 . S
C2894 H2880 0.929 . S
C2894 C2893 1.399 . S
C2894 C2895 1.385 . S
C2895 H2881 0.931 . S
C2895 C2894 1.385 . S
C2895 C2896 1.389 . S
C2896 C2895 1.389 . S
C2896 C2897 1.387 . S
C2897 H2882 0.930 . S
C2897 C2892 1.390 . S
C2897 C2896 1.387 . S
H2898 C2910 0.930 . S
H2899 C2912 0.930 . S
H2900 C2913 0.930 . S
H2901 C2917 0.959 . S
H2902 C2917 0.959 . S
H2903 C2917 0.961 . S
H2904 C2918 0.960 . S
H2905 C2918 0.961 . S
H2906 C2918 0.959 . S
H2907 C2921 0.929 . S
H2908 C2922 0.931 . S
H2909 C2924 0.930 . S
C2910 H2898 0.930 . S
C2910 C2911 1.399 . S
C2910 C2915 1.399 . S
C2911 C2910 1.399 . S
C2911 C2912 1.376 . S
C2912 H2899 0.930 . S
C2912 C2911 1.376 . S
C2912 C2913 1.388 . S
C2913 H2900 0.930 . S
C2913 C2912 1.388 . S
C2913 C2914 1.390 . S
C2914 C2913 1.390 . S
C2914 C2915 1.394 . S
C2914 C2920 1.465 . S
C2915 C2910 1.399 . S
C2915 C2914 1.394 . S
C2915 C2916 1.516 . S
C2916 C2915 1.516 . S
C2916 C2917 1.502 . S
C2916 C2918 1.561 . S
C2916 C2919 1.526 . S
C2917 H2901 0.959 . S
C2917 H2902 0.959 . S
C2917 H2903 0.961 . S
C2917 C2916 1.502 . S
C2918 H2904 0.960 . S
C2918 H2905 0.961 . S
C2918 H2906 0.959 . S
C2918 C2916 1.561 . S
C2919 C2916 1.526 . S
C2919 C2920 1.396 . S
C2919 C2924 1.390 . S
C2920 C2914 1.465 . S
C2920 C2919 1.396 . S
C2920 C2921 1.399 . S
C2921 H2907 0.929 . S
C2921 C2920 1.399 . S
C2921 C2922 1.385 . S
C2922 H2908 0.931 . S
C2922 C2921 1.385 . S
C2922 C2923 1.389 . S
C2923 C2922 1.389 . S
C2923 C2924 1.387 . S
C2924 H2909 0.930 . S
C2924 C2919 1.390 . S
C2924 C2923 1.387 . S
H2925 C2937 0.930 . S
H2926 C2939 0.930 . S
H2927 C2940 0.930 . S
H2928 C2944 0.959 . S
H2929 C2944 0.959 . S
H2930 C2944 0.961 . S
H2931 C2945 0.960 . S
H2932 C2945 0.961 . S
H2933 C2945 0.959 . S
H2934 C2948 0.929 . S
H2935 C2949 0.931 . S
H2936 C2951 0.930 . S
C2937 H2925 0.930 . S
C2937 C2938 1.399 . S
C2937 C2942 1.399 . S
C2938 C2937 1.399 . S
C2938 C2939 1.376 . S
C2939 H2926 0.930 . S
C2939 C2938 1.376 . S
C2939 C2940 1.388 . S
C2940 H2927 0.930 . S
C2940 C2939 1.388 . S
C2940 C2941 1.390 . S
C2941 C2940 1.390 . S
C2941 C2942 1.394 . S
C2941 C2947 1.465 . S
C2942 C2937 1.399 . S
C2942 C2941 1.394 . S
C2942 C2943 1.516 . S
C2943 C2942 1.516 . S
C2943 C2944 1.502 . S
C2943 C2945 1.561 . S
C2943 C2946 1.526 . S
C2944 H2928 0.959 . S
C2944 H2929 0.959 . S
C2944 H2930 0.961 . S
C2944 C2943 1.502 . S
C2945 H2931 0.960 . S
C2945 H2932 0.961 . S
C2945 H2933 0.959 . S
C2945 C2943 1.561 . S
C2946 C2943 1.526 . S
C2946 C2947 1.396 . S
C2946 C2951 1.390 . S
C2947 C2941 1.465 . S
C2947 C2946 1.396 . S
C2947 C2948 1.399 . S
C2948 H2934 0.929 . S
C2948 C2947 1.399 . S
C2948 C2949 1.385 . S
C2949 H2935 0.931 . S
C2949 C2948 1.385 . S
C2949 C2950 1.389 . S
C2950 C2949 1.389 . S
C2950 C2951 1.387 . S
C2951 H2936 0.930 . S
C2951 C2946 1.390 . S
C2951 C2950 1.387 . S
H2952 C2964 0.930 . S
H2953 C2966 0.930 . S
H2954 C2967 0.930 . S
H2955 C2971 0.959 . S
H2956 C2971 0.959 . S
H2957 C2971 0.961 . S
H2958 C2972 0.960 . S
H2959 C2972 0.961 . S
H2960 C2972 0.959 . S
H2961 C2975 0.929 . S
H2962 C2976 0.931 . S
H2963 C2978 0.930 . S
C2964 H2952 0.930 . S
C2964 C2965 1.399 . S
C2964 C2969 1.399 . S
C2965 C2964 1.399 . S
C2965 C2966 1.376 . S
C2966 H2953 0.930 . S
C2966 C2965 1.376 . S
C2966 C2967 1.388 . S
C2967 H2954 0.930 . S
C2967 C2966 1.388 . S
C2967 C2968 1.390 . S
C2968 C2967 1.390 . S
C2968 C2969 1.394 . S
C2968 C2974 1.465 . S
C2969 C2964 1.399 . S
C2969 C2968 1.394 . S
C2969 C2970 1.516 . S
C2970 C2969 1.516 . S
C2970 C2971 1.502 . S
C2970 C2972 1.561 . S
C2970 C2973 1.526 . S
C2971 H2955 0.959 . S
C2971 H2956 0.959 . S
C2971 H2957 0.961 . S
C2971 C2970 1.502 . S
C2972 H2958 0.960 . S
C2972 H2959 0.961 . S
C2972 H2960 0.959 . S
C2972 C2970 1.561 . S
C2973 C2970 1.526 . S
C2973 C2974 1.396 . S
C2973 C2978 1.390 . S
C2974 C2968 1.465 . S
C2974 C2973 1.396 . S
C2974 C2975 1.399 . S
C2975 H2961 0.929 . S
C2975 C2974 1.399 . S
C2975 C2976 1.385 . S
C2976 H2962 0.931 . S
C2976 C2975 1.385 . S
C2976 C2977 1.389 . S
C2977 C2976 1.389 . S
C2977 C2978 1.387 . S
C2978 H2963 0.930 . S
C2978 C2973 1.390 . S
C2978 C2977 1.387 . S
H2979 C2991 0.930 . S
H2980 C2993 0.930 . S
H2981 C2994 0.930 . S
H2982 C2998 0.959 . S
H2983 C2998 0.959 . S
H2984 C2998 0.961 . S
H2985 C2999 0.960 . S
H2986 C2999 0.961 . S
H2987 C2999 0.959 . S
H2988 C3002 0.929 . S
H2989 C3003 0.931 . S
H2990 C3005 0.930 . S
C2991 H2979 0.930 . S
C2991 C2992 1.399 . S
C2991 C2996 1.399 . S
C2992 C2991 1.399 . S
C2992 C2993 1.376 . S
C2993 H2980 0.930 . S
C2993 C2992 1.376 . S
C2993 C2994 1.388 . S
C2994 H2981 0.930 . S
C2994 C2993 1.388 . S
C2994 C2995 1.390 . S
C2995 C2994 1.390 . S
C2995 C2996 1.394 . S
C2995 C3001 1.465 . S
C2996 C2991 1.399 . S
C2996 C2995 1.394 . S
C2996 C2997 1.516 . S
C2997 C2996 1.516 . S
C2997 C2998 1.502 . S
C2997 C2999 1.561 . S
C2997 C3000 1.526 . S
C2998 H2982 0.959 . S
C2998 H2983 0.959 . S
C2998 H2984 0.961 . S
C2998 C2997 1.502 . S
C2999 H2985 0.960 . S
C2999 H2986 0.961 . S
C2999 H2987 0.959 . S
C2999 C2997 1.561 . S
C3000 C2997 1.526 . S
C3000 C3001 1.396 . S
C3000 C3005 1.390 . S
C3001 C2995 1.465 . S
C3001 C3000 1.396 . S
C3001 C3002 1.399 . S
C3002 H2988 0.929 . S
C3002 C3001 1.399 . S
C3002 C3003 1.385 . S
C3003 H2989 0.931 . S
C3003 C3002 1.385 . S
C3003 C3004 1.389 . S
C3004 C3003 1.389 . S
C3004 C3005 1.387 . S
C3005 H2990 0.930 . S
C3005 C3000 1.390 . S
C3005 C3004 1.387 . S
H3006 C3018 0.930 . S
H3007 C3020 0.930 . S
H3008 C3021 0.930 . S
H3009 C3025 0.959 . S
H3010 C3025 0.959 . S
H3011 C3025 0.961 . S
H3012 C3026 0.960 . S
H3013 C3026 0.961 . S
H3014 C3026 0.959 . S
H3015 C3029 0.929 . S
H3016 C3030 0.931 . S
H3017 C3032 0.930 . S
C3018 H3006 0.930 . S
C3018 C3019 1.399 . S
C3018 C3023 1.399 . S
C3019 C3018 1.399 . S
C3019 C3020 1.376 . S
C3020 H3007 0.930 . S
C3020 C3019 1.376 . S
C3020 C3021 1.388 . S
C3021 H3008 0.930 . S
C3021 C3020 1.388 . S
C3021 C3022 1.390 . S
C3022 C3021 1.390 . S
C3022 C3023 1.394 . S
C3022 C3028 1.465 . S
C3023 C3018 1.399 . S
C3023 C3022 1.394 . S
C3023 C3024 1.516 . S
C3024 C3023 1.516 . S
C3024 C3025 1.502 . S
C3024 C3026 1.561 . S
C3024 C3027 1.526 . S
C3025 H3009 0.959 . S
C3025 H3010 0.959 . S
C3025 H3011 0.961 . S
C3025 C3024 1.502 . S
C3026 H3012 0.960 . S
C3026 H3013 0.961 . S
C3026 H3014 0.959 . S
C3026 C3024 1.561 . S
C3027 C3024 1.526 . S
C3027 C3028 1.396 . S
C3027 C3032 1.390 . S
C3028 C3022 1.465 . S
C3028 C3027 1.396 . S
C3028 C3029 1.399 . S
C3029 H3015 0.929 . S
C3029 C3028 1.399 . S
C3029 C3030 1.385 . S
C3030 H3016 0.931 . S
C3030 C3029 1.385 . S
C3030 C3031 1.389 . S
C3031 C3030 1.389 . S
C3031 C3032 1.387 . S
C3032 H3017 0.930 . S
C3032 C3027 1.390 . S
C3032 C3031 1.387 . S
H3033 C3045 0.930 . S
H3034 C3047 0.930 . S
H3035 C3048 0.930 . S
H3036 C3052 0.959 . S
H3037 C3052 0.959 . S
H3038 C3052 0.961 . S
H3039 C3053 0.960 . S
H3040 C3053 0.961 . S
H3041 C3053 0.959 . S
H3042 C3056 0.929 . S
H3043 C3057 0.931 . S
H3044 C3059 0.930 . S
C3045 H3033 0.930 . S
C3045 C3046 1.399 . S
C3045 C3050 1.399 . S
C3046 C3045 1.399 . S
C3046 C3047 1.376 . S
C3047 H3034 0.930 . S
C3047 C3046 1.376 . S
C3047 C3048 1.388 . S
C3048 H3035 0.930 . S
C3048 C3047 1.388 . S
C3048 C3049 1.390 . S
C3049 C3048 1.390 . S
C3049 C3050 1.394 . S
C3049 C3055 1.465 . S
C3050 C3045 1.399 . S
C3050 C3049 1.394 . S
C3050 C3051 1.516 . S
C3051 C3050 1.516 . S
C3051 C3052 1.502 . S
C3051 C3053 1.561 . S
C3051 C3054 1.526 . S
C3052 H3036 0.959 . S
C3052 H3037 0.959 . S
C3052 H3038 0.961 . S
C3052 C3051 1.502 . S
C3053 H3039 0.960 . S
C3053 H3040 0.961 . S
C3053 H3041 0.959 . S
C3053 C3051 1.561 . S
C3054 C3051 1.526 . S
C3054 C3055 1.396 . S
C3054 C3059 1.390 . S
C3055 C3049 1.465 . S
C3055 C3054 1.396 . S
C3055 C3056 1.399 . S
C3056 H3042 0.929 . S
C3056 C3055 1.399 . S
C3056 C3057 1.385 . S
C3057 H3043 0.931 . S
C3057 C3056 1.385 . S
C3057 C3058 1.389 . S
C3058 C3057 1.389 . S
C3058 C3059 1.387 . S
C3059 H3044 0.930 . S
C3059 C3054 1.390 . S
C3059 C3058 1.387 . S
H3060 C3072 0.930 . S
H3061 C3074 0.930 . S
H3062 C3075 0.930 . S
H3063 C3079 0.959 . S
H3064 C3079 0.959 . S
H3065 C3079 0.961 . S
H3066 C3080 0.960 . S
H3067 C3080 0.961 . S
H3068 C3080 0.959 . S
H3069 C3083 0.929 . S
H3070 C3084 0.931 . S
H3071 C3086 0.930 . S
C3072 H3060 0.930 . S
C3072 C3073 1.399 . S
C3072 C3077 1.399 . S
C3073 C3072 1.399 . S
C3073 C3074 1.376 . S
C3074 H3061 0.930 . S
C3074 C3073 1.376 . S
C3074 C3075 1.388 . S
C3075 H3062 0.930 . S
C3075 C3074 1.388 . S
C3075 C3076 1.390 . S
C3076 C3075 1.390 . S
C3076 C3077 1.394 . S
C3076 C3082 1.465 . S
C3077 C3072 1.399 . S
C3077 C3076 1.394 . S
C3077 C3078 1.516 . S
C3078 C3077 1.516 . S
C3078 C3079 1.502 . S
C3078 C3080 1.561 . S
C3078 C3081 1.526 . S
C3079 H3063 0.959 . S
C3079 H3064 0.959 . S
C3079 H3065 0.961 . S
C3079 C3078 1.502 . S
C3080 H3066 0.960 . S
C3080 H3067 0.961 . S
C3080 H3068 0.959 . S
C3080 C3078 1.561 . S
C3081 C3078 1.526 . S
C3081 C3082 1.396 . S
C3081 C3086 1.390 . S
C3082 C3076 1.465 . S
C3082 C3081 1.396 . S
C3082 C3083 1.399 . S
C3083 H3069 0.929 . S
C3083 C3082 1.399 . S
C3083 C3084 1.385 . S
C3084 H3070 0.931 . S
C3084 C3083 1.385 . S
C3084 C3085 1.389 . S
C3085 C3084 1.389 . S
C3085 C3086 1.387 . S
C3086 H3071 0.930 . S
C3086 C3081 1.390 . S
C3086 C3085 1.387 . S
H3087 C3099 0.930 . S
H3088 C3101 0.930 . S
H3089 C3102 0.930 . S
H3090 C3106 0.959 . S
H3091 C3106 0.959 . S
H3092 C3106 0.961 . S
H3093 C3107 0.960 . S
H3094 C3107 0.961 . S
H3095 C3107 0.959 . S
H3096 C3110 0.929 . S
H3097 C3111 0.931 . S
H3098 C3113 0.930 . S
C3099 H3087 0.930 . S
C3099 C3100 1.399 . S
C3099 C3104 1.399 . S
C3100 C3099 1.399 . S
C3100 C3101 1.376 . S
C3101 H3088 0.930 . S
C3101 C3100 1.376 . S
C3101 C3102 1.388 . S
C3102 H3089 0.930 . S
C3102 C3101 1.388 . S
C3102 C3103 1.390 . S
C3103 C3102 1.390 . S
C3103 C3104 1.394 . S
C3103 C3109 1.465 . S
C3104 C3099 1.399 . S
C3104 C3103 1.394 . S
C3104 C3105 1.516 . S
C3105 C3104 1.516 . S
C3105 C3106 1.502 . S
C3105 C3107 1.561 . S
C3105 C3108 1.526 . S
C3106 H3090 0.959 . S
C3106 H3091 0.959 . S
C3106 H3092 0.961 . S
C3106 C3105 1.502 . S
C3107 H3093 0.960 . S
C3107 H3094 0.961 . S
C3107 H3095 0.959 . S
C3107 C3105 1.561 . S
C3108 C3105 1.526 . S
C3108 C3109 1.396 . S
C3108 C3113 1.390 . S
C3109 C3103 1.465 . S
C3109 C3108 1.396 . S
C3109 C3110 1.399 . S
C3110 H3096 0.929 . S
C3110 C3109 1.399 . S
C3110 C3111 1.385 . S
C3111 H3097 0.931 . S
C3111 C3110 1.385 . S
C3111 C3112 1.389 . S
C3112 C3111 1.389 . S
C3112 C3113 1.387 . S
C3113 H3098 0.930 . S
C3113 C3108 1.390 . S
C3113 C3112 1.387 . S
H3114 C3126 0.930 . S
H3115 C3128 0.930 . S
H3116 C3129 0.930 . S
H3117 C3133 0.959 . S
H3118 C3133 0.959 . S
H3119 C3133 0.961 . S
H3120 C3134 0.960 . S
H3121 C3134 0.961 . S
H3122 C3134 0.959 . S
H3123 C3137 0.929 . S
H3124 C3138 0.931 . S
H3125 C3140 0.930 . S
C3126 H3114 0.930 . S
C3126 C3127 1.399 . S
C3126 C3131 1.399 . S
C3127 C3126 1.399 . S
C3127 C3128 1.376 . S
C3128 H3115 0.930 . S
C3128 C3127 1.376 . S
C3128 C3129 1.388 . S
C3129 H3116 0.930 . S
C3129 C3128 1.388 . S
C3129 C3130 1.390 . S
C3130 C3129 1.390 . S
C3130 C3131 1.394 . S
C3130 C3136 1.465 . S
C3131 C3126 1.399 . S
C3131 C3130 1.394 . S
C3131 C3132 1.516 . S
C3132 C3131 1.516 . S
C3132 C3133 1.502 . S
C3132 C3134 1.561 . S
C3132 C3135 1.526 . S
C3133 H3117 0.959 . S
C3133 H3118 0.959 . S
C3133 H3119 0.961 . S
C3133 C3132 1.502 . S
C3134 H3120 0.960 . S
C3134 H3121 0.961 . S
C3134 H3122 0.959 . S
C3134 C3132 1.561 . S
C3135 C3132 1.526 . S
C3135 C3136 1.396 . S
C3135 C3140 1.390 . S
C3136 C3130 1.465 . S
C3136 C3135 1.396 . S
C3136 C3137 1.399 . S
C3137 H3123 0.929 . S
C3137 C3136 1.399 . S
C3137 C3138 1.385 . S
C3138 H3124 0.931 . S
C3138 C3137 1.385 . S
C3138 C3139 1.389 . S
C3139 C3138 1.389 . S
C3139 C3140 1.387 . S
C3140 H3125 0.930 . S
C3140 C3135 1.390 . S
C3140 C3139 1.387 . S
H3141 C3153 0.930 . S
H3142 C3155 0.930 . S
H3143 C3156 0.930 . S
H3144 C3160 0.959 . S
H3145 C3160 0.959 . S
H3146 C3160 0.961 . S
H3147 C3161 0.960 . S
H3148 C3161 0.961 . S
H3149 C3161 0.959 . S
H3150 C3164 0.929 . S
H3151 C3165 0.931 . S
H3152 C3167 0.930 . S
C3153 H3141 0.930 . S
C3153 C3154 1.399 . S
C3153 C3158 1.399 . S
C3154 C3153 1.399 . S
C3154 C3155 1.376 . S
C3155 H3142 0.930 . S
C3155 C3154 1.376 . S
C3155 C3156 1.388 . S
C3156 H3143 0.930 . S
C3156 C3155 1.388 . S
C3156 C3157 1.390 . S
C3157 C3156 1.390 . S
C3157 C3158 1.394 . S
C3157 C3163 1.465 . S
C3158 C3153 1.399 . S
C3158 C3157 1.394 . S
C3158 C3159 1.516 . S
C3159 C3158 1.516 . S
C3159 C3160 1.502 . S
C3159 C3161 1.561 . S
C3159 C3162 1.526 . S
C3160 H3144 0.959 . S
C3160 H3145 0.959 . S
C3160 H3146 0.961 . S
C3160 C3159 1.502 . S
C3161 H3147 0.960 . S
C3161 H3148 0.961 . S
C3161 H3149 0.959 . S
C3161 C3159 1.561 . S
C3162 C3159 1.526 . S
C3162 C3163 1.396 . S
C3162 C3167 1.390 . S
C3163 C3157 1.465 . S
C3163 C3162 1.396 . S
C3163 C3164 1.399 . S
C3164 H3150 0.929 . S
C3164 C3163 1.399 . S
C3164 C3165 1.385 . S
C3165 H3151 0.931 . S
C3165 C3164 1.385 . S
C3165 C3166 1.389 . S
C3166 C3165 1.389 . S
C3166 C3167 1.387 . S
C3167 H3152 0.930 . S
C3167 C3162 1.390 . S
C3167 C3166 1.387 . S
H3168 C3180 0.930 . S
H3169 C3182 0.930 . S
H3170 C3183 0.930 . S
H3171 C3187 0.959 . S
H3172 C3187 0.959 . S
H3173 C3187 0.961 . S
H3174 C3188 0.960 . S
H3175 C3188 0.961 . S
H3176 C3188 0.959 . S
H3177 C3191 0.929 . S
H3178 C3192 0.931 . S
H3179 C3194 0.930 . S
C3180 H3168 0.930 . S
C3180 C3181 1.399 . S
C3180 C3185 1.399 . S
C3181 C3180 1.399 . S
C3181 C3182 1.376 . S
C3182 H3169 0.930 . S
C3182 C3181 1.376 . S
C3182 C3183 1.388 . S
C3183 H3170 0.930 . S
C3183 C3182 1.388 . S
C3183 C3184 1.390 . S
C3184 C3183 1.390 . S
C3184 C3185 1.394 . S
C3184 C3190 1.465 . S
C3185 C3180 1.399 . S
C3185 C3184 1.394 . S
C3185 C3186 1.516 . S
C3186 C3185 1.516 . S
C3186 C3187 1.502 . S
C3186 C3188 1.561 . S
C3186 C3189 1.526 . S
C3187 H3171 0.959 . S
C3187 H3172 0.959 . S
C3187 H3173 0.961 . S
C3187 C3186 1.502 . S
C3188 H3174 0.960 . S
C3188 H3175 0.961 . S
C3188 H3176 0.959 . S
C3188 C3186 1.561 . S
C3189 C3186 1.526 . S
C3189 C3190 1.396 . S
C3189 C3194 1.390 . S
C3190 C3184 1.465 . S
C3190 C3189 1.396 . S
C3190 C3191 1.399 . S
C3191 H3177 0.929 . S
C3191 C3190 1.399 . S
C3191 C3192 1.385 . S
C3192 H3178 0.931 . S
C3192 C3191 1.385 . S
C3192 C3193 1.389 . S
C3193 C3192 1.389 . S
C3193 C3194 1.387 . S
C3194 H3179 0.930 . S
C3194 C3189 1.390 . S
C3194 C3193 1.387 . S
H3195 C3207 0.930 . S
H3196 C3209 0.930 . S
H3197 C3210 0.930 . S
H3198 C3214 0.959 . S
H3199 C3214 0.959 . S
H3200 C3214 0.961 . S
H3201 C3215 0.960 . S
H3202 C3215 0.961 . S
H3203 C3215 0.959 . S
H3204 C3218 0.929 . S
H3205 C3219 0.931 . S
H3206 C3221 0.930 . S
C3207 H3195 0.930 . S
C3207 C3208 1.399 . S
C3207 C3212 1.399 . S
C3208 C3207 1.399 . S
C3208 C3209 1.376 . S
C3209 H3196 0.930 . S
C3209 C3208 1.376 . S
C3209 C3210 1.388 . S
C3210 H3197 0.930 . S
C3210 C3209 1.388 . S
C3210 C3211 1.390 . S
C3211 C3210 1.390 . S
C3211 C3212 1.394 . S
C3211 C3217 1.465 . S
C3212 C3207 1.399 . S
C3212 C3211 1.394 . S
C3212 C3213 1.516 . S
C3213 C3212 1.516 . S
C3213 C3214 1.502 . S
C3213 C3215 1.561 . S
C3213 C3216 1.526 . S
C3214 H3198 0.959 . S
C3214 H3199 0.959 . S
C3214 H3200 0.961 . S
C3214 C3213 1.502 . S
C3215 H3201 0.960 . S
C3215 H3202 0.961 . S
C3215 H3203 0.959 . S
C3215 C3213 1.561 . S
C3216 C3213 1.526 . S
C3216 C3217 1.396 . S
C3216 C3221 1.390 . S
C3217 C3211 1.465 . S
C3217 C3216 1.396 . S
C3217 C3218 1.399 . S
C3218 H3204 0.929 . S
C3218 C3217 1.399 . S
C3218 C3219 1.385 . S
C3219 H3205 0.931 . S
C3219 C3218 1.385 . S
C3219 C3220 1.389 . S
C3220 C3219 1.389 . S
C3220 C3221 1.387 . S
C3221 H3206 0.930 . S
C3221 C3216 1.390 . S
C3221 C3220 1.387 . S
H3222 C3234 0.930 . S
H3223 C3236 0.930 . S
H3224 C3237 0.930 . S
H3225 C3241 0.959 . S
H3226 C3241 0.959 . S
H3227 C3241 0.961 . S
H3228 C3242 0.960 . S
H3229 C3242 0.961 . S
H3230 C3242 0.959 . S
H3231 C3245 0.929 . S
H3232 C3246 0.931 . S
H3233 C3248 0.930 . S
C3234 H3222 0.930 . S
C3234 C3235 1.399 . S
C3234 C3239 1.399 . S
C3235 C3234 1.399 . S
C3235 C3236 1.376 . S
C3236 H3223 0.930 . S
C3236 C3235 1.376 . S
C3236 C3237 1.388 . S
C3237 H3224 0.930 . S
C3237 C3236 1.388 . S
C3237 C3238 1.390 . S
C3238 C3237 1.390 . S
C3238 C3239 1.394 . S
C3238 C3244 1.465 . S
C3239 C3234 1.399 . S
C3239 C3238 1.394 . S
C3239 C3240 1.516 . S
C3240 C3239 1.516 . S
C3240 C3241 1.502 . S
C3240 C3242 1.561 . S
C3240 C3243 1.526 . S
C3241 H3225 0.959 . S
C3241 H3226 0.959 . S
C3241 H3227 0.961 . S
C3241 C3240 1.502 . S
C3242 H3228 0.960 . S
C3242 H3229 0.961 . S
C3242 H3230 0.959 . S
C3242 C3240 1.561 . S
C3243 C3240 1.526 . S
C3243 C3244 1.396 . S
C3243 C3248 1.390 . S
C3244 C3238 1.465 . S
C3244 C3243 1.396 . S
C3244 C3245 1.399 . S
C3245 H3231 0.929 . S
C3245 C3244 1.399 . S
C3245 C3246 1.385 . S
C3246 H3232 0.931 . S
C3246 C3245 1.385 . S
C3246 C3247 1.389 . S
C3247 C3246 1.389 . S
C3247 C3248 1.387 . S
C3248 H3233 0.930 . S
C3248 C3243 1.390 . S
C3248 C3247 1.387 . S
H3249 C3261 0.930 . S
H3250 C3263 0.930 . S
H3251 C3264 0.930 . S
H3252 C3268 0.959 . S
H3253 C3268 0.959 . S
H3254 C3268 0.961 . S
H3255 C3269 0.960 . S
H3256 C3269 0.961 . S
H3257 C3269 0.959 . S
H3258 C3272 0.929 . S
H3259 C3273 0.931 . S
H3260 C3275 0.930 . S
C3261 H3249 0.930 . S
C3261 C3262 1.399 . S
C3261 C3266 1.399 . S
C3262 C3261 1.399 . S
C3262 C3263 1.376 . S
C3263 H3250 0.930 . S
C3263 C3262 1.376 . S
C3263 C3264 1.388 . S
C3264 H3251 0.930 . S
C3264 C3263 1.388 . S
C3264 C3265 1.390 . S
C3265 C3264 1.390 . S
C3265 C3266 1.394 . S
C3265 C3271 1.465 . S
C3266 C3261 1.399 . S
C3266 C3265 1.394 . S
C3266 C3267 1.516 . S
C3267 C3266 1.516 . S
C3267 C3268 1.502 . S
C3267 C3269 1.561 . S
C3267 C3270 1.526 . S
C3268 H3252 0.959 . S
C3268 H3253 0.959 . S
C3268 H3254 0.961 . S
C3268 C3267 1.502 . S
C3269 H3255 0.960 . S
C3269 H3256 0.961 . S
C3269 H3257 0.959 . S
C3269 C3267 1.561 . S
C3270 C3267 1.526 . S
C3270 C3271 1.396 . S
C3270 C3275 1.390 . S
C3271 C3265 1.465 . S
C3271 C3270 1.396 . S
C3271 C3272 1.399 . S
C3272 H3258 0.929 . S
C3272 C3271 1.399 . S
C3272 C3273 1.385 . S
C3273 H3259 0.931 . S
C3273 C3272 1.385 . S
C3273 C3274 1.389 . S
C3274 C3273 1.389 . S
C3274 C3275 1.387 . S
C3275 H3260 0.930 . S
C3275 C3270 1.390 . S
C3275 C3274 1.387 . S
H3276 C3288 0.930 . S
H3277 C3290 0.930 . S
H3278 C3291 0.930 . S
H3279 C3295 0.959 . S
H3280 C3295 0.959 . S
H3281 C3295 0.961 . S
H3282 C3296 0.960 . S
H3283 C3296 0.961 . S
H3284 C3296 0.959 . S
H3285 C3299 0.929 . S
H3286 C3300 0.931 . S
H3287 C3302 0.930 . S
C3288 H3276 0.930 . S
C3288 C3289 1.399 . S
C3288 C3293 1.399 . S
C3289 C3288 1.399 . S
C3289 C3290 1.376 . S
C3290 H3277 0.930 . S
C3290 C3289 1.376 . S
C3290 C3291 1.388 . S
C3291 H3278 0.930 . S
C3291 C3290 1.388 . S
C3291 C3292 1.390 . S
C3292 C3291 1.390 . S
C3292 C3293 1.394 . S
C3292 C3298 1.465 . S
C3293 C3288 1.399 . S
C3293 C3292 1.394 . S
C3293 C3294 1.516 . S
C3294 C3293 1.516 . S
C3294 C3295 1.502 . S
C3294 C3296 1.561 . S
C3294 C3297 1.526 . S
C3295 H3279 0.959 . S
C3295 H3280 0.959 . S
C3295 H3281 0.961 . S
C3295 C3294 1.502 . S
C3296 H3282 0.960 . S
C3296 H3283 0.961 . S
C3296 H3284 0.959 . S
C3296 C3294 1.561 . S
C3297 C3294 1.526 . S
C3297 C3298 1.396 . S
C3297 C3302 1.390 . S
C3298 C3292 1.465 . S
C3298 C3297 1.396 . S
C3298 C3299 1.399 . S
C3299 H3285 0.929 . S
C3299 C3298 1.399 . S
C3299 C3300 1.385 . S
C3300 H3286 0.931 . S
C3300 C3299 1.385 . S
C3300 C3301 1.389 . S
C3301 C3300 1.389 . S
C3301 C3302 1.387 . S
C3302 H3287 0.930 . S
C3302 C3297 1.390 . S
C3302 C3301 1.387 . S
H3303 C3315 0.930 . S
H3304 C3317 0.930 . S
H3305 C3318 0.930 . S
H3306 C3322 0.959 . S
H3307 C3322 0.959 . S
H3308 C3322 0.961 . S
H3309 C3323 0.960 . S
H3310 C3323 0.961 . S
H3311 C3323 0.959 . S
H3312 C3326 0.929 . S
H3313 C3327 0.931 . S
H3314 C3329 0.930 . S
C3315 H3303 0.930 . S
C3315 C3316 1.399 . S
C3315 C3320 1.399 . S
C3316 C3315 1.399 . S
C3316 C3317 1.376 . S
C3317 H3304 0.930 . S
C3317 C3316 1.376 . S
C3317 C3318 1.388 . S
C3318 H3305 0.930 . S
C3318 C3317 1.388 . S
C3318 C3319 1.390 . S
C3319 C3318 1.390 . S
C3319 C3320 1.394 . S
C3319 C3325 1.465 . S
C3320 C3315 1.399 . S
C3320 C3319 1.394 . S
C3320 C3321 1.516 . S
C3321 C3320 1.516 . S
C3321 C3322 1.502 . S
C3321 C3323 1.561 . S
C3321 C3324 1.526 . S
C3322 H3306 0.959 . S
C3322 H3307 0.959 . S
C3322 H3308 0.961 . S
C3322 C3321 1.502 . S
C3323 H3309 0.960 . S
C3323 H3310 0.961 . S
C3323 H3311 0.959 . S
C3323 C3321 1.561 . S
C3324 C3321 1.526 . S
C3324 C3325 1.396 . S
C3324 C3329 1.390 . S
C3325 C3319 1.465 . S
C3325 C3324 1.396 . S
C3325 C3326 1.399 . S
C3326 H3312 0.929 . S
C3326 C3325 1.399 . S
C3326 C3327 1.385 . S
C3327 H3313 0.931 . S
C3327 C3326 1.385 . S
C3327 C3328 1.389 . S
C3328 C3327 1.389 . S
C3328 C3329 1.387 . S
C3329 H3314 0.930 . S
C3329 C3324 1.390 . S
C3329 C3328 1.387 . S
H3330 C3342 0.930 . S
H3331 C3344 0.930 1_545 S
H3332 C3345 0.930 . S
H3333 C3349 0.959 . S
H3334 C3349 0.959 . S
H3335 C3349 0.961 . S
H3336 C3350 0.960 . S
H3337 C3350 0.961 . S
H3338 C3350 0.959 . S
H3339 C3353 0.929 . S
H3340 C3354 0.931 . S
H3341 C3356 0.930 . S
C3342 H3330 0.930 . S
C3342 C3343 1.399 . S
C3342 C3347 1.399 . S
C3343 C3342 1.399 . S
C3343 C3344 1.376 . S
C3344 H3331 0.930 1_565 S
C3344 C3343 1.376 . S
C3344 C3345 1.388 . S
C3345 H3332 0.930 . S
C3345 C3344 1.388 . S
C3345 C3346 1.390 . S
C3346 C3345 1.390 . S
C3346 C3347 1.394 . S
C3346 C3352 1.465 . S
C3347 C3342 1.399 . S
C3347 C3346 1.394 . S
C3347 C3348 1.516 . S
C3348 C3347 1.516 . S
C3348 C3349 1.502 . S
C3348 C3350 1.561 . S
C3348 C3351 1.526 . S
C3349 H3333 0.959 . S
C3349 H3334 0.959 . S
C3349 H3335 0.961 . S
C3349 C3348 1.502 . S
C3350 H3336 0.960 . S
C3350 H3337 0.961 . S
C3350 H3338 0.959 . S
C3350 C3348 1.561 . S
C3351 C3348 1.526 . S
C3351 C3352 1.396 . S
C3351 C3356 1.390 . S
C3352 C3346 1.465 . S
C3352 C3351 1.396 . S
C3352 C3353 1.399 . S
C3353 H3339 0.929 . S
C3353 C3352 1.399 . S
C3353 C3354 1.385 . S
C3354 H3340 0.931 . S
C3354 C3353 1.385 . S
C3354 C3355 1.389 . S
C3355 C3354 1.389 . S
C3355 C3356 1.387 . S
C3356 H3341 0.930 . S
C3356 C3351 1.390 . S
C3356 C3355 1.387 . S
H3357 C3369 0.930 . S
H3358 C3371 0.930 . S
H3359 C3372 0.930 . S
H3360 C3376 0.959 . S
H3361 C3376 0.959 . S
H3362 C3376 0.961 . S
H3363 C3377 0.960 . S
H3364 C3377 0.961 . S
H3365 C3377 0.959 . S
H3366 C3380 0.929 . S
H3367 C3381 0.931 . S
H3368 C3383 0.930 . S
C3369 H3357 0.930 . S
C3369 C3370 1.399 . S
C3369 C3374 1.399 . S
C3370 C3369 1.399 . S
C3370 C3371 1.376 . S
C3371 H3358 0.930 . S
C3371 C3370 1.376 . S
C3371 C3372 1.388 . S
C3372 H3359 0.930 . S
C3372 C3371 1.388 . S
C3372 C3373 1.390 . S
C3373 C3372 1.390 . S
C3373 C3374 1.394 . S
C3373 C3379 1.465 . S
C3374 C3369 1.399 . S
C3374 C3373 1.394 . S
C3374 C3375 1.516 . S
C3375 C3374 1.516 . S
C3375 C3376 1.502 . S
C3375 C3377 1.561 . S
C3375 C3378 1.526 . S
C3376 H3360 0.959 . S
C3376 H3361 0.959 . S
C3376 H3362 0.961 . S
C3376 C3375 1.502 . S
C3377 H3363 0.960 . S
C3377 H3364 0.961 . S
C3377 H3365 0.959 . S
C3377 C3375 1.561 . S
C3378 C3375 1.526 . S
C3378 C3379 1.396 . S
C3378 C3383 1.390 . S
C3379 C3373 1.465 . S
C3379 C3378 1.396 . S
C3379 C3380 1.399 . S
C3380 H3366 0.929 . S
C3380 C3379 1.399 . S
C3380 C3381 1.385 . S
C3381 H3367 0.931 . S
C3381 C3380 1.385 . S
C3381 C3382 1.389 . S
C3382 C3381 1.389 . S
C3382 C3383 1.387 . S
C3383 H3368 0.930 . S
C3383 C3378 1.390 . S
C3383 C3382 1.387 . S
H3384 C3396 0.930 . S
H3385 C3398 0.930 1_554 S
H3386 C3399 0.930 . S
H3387 C3403 0.959 . S
H3388 C3403 0.959 . S
H3389 C3403 0.961 . S
H3390 C3404 0.960 . S
H3391 C3404 0.961 . S
H3392 C3404 0.959 . S
H3393 C3407 0.929 . S
H3394 C3408 0.931 . S
H3395 C3410 0.930 . S
C3396 H3384 0.930 . S
C3396 C3397 1.399 . S
C3396 C3401 1.399 . S
C3397 C3396 1.399 . S
C3397 C3398 1.376 . S
C3398 H3385 0.930 1_556 S
C3398 C3397 1.376 . S
C3398 C3399 1.388 . S
C3399 H3386 0.930 . S
C3399 C3398 1.388 . S
C3399 C3400 1.390 . S
C3400 C3399 1.390 . S
C3400 C3401 1.394 . S
C3400 C3406 1.465 . S
C3401 C3396 1.399 . S
C3401 C3400 1.394 . S
C3401 C3402 1.516 . S
C3402 C3401 1.516 . S
C3402 C3403 1.502 . S
C3402 C3404 1.561 . S
C3402 C3405 1.526 . S
C3403 H3387 0.959 . S
C3403 H3388 0.959 . S
C3403 H3389 0.961 . S
C3403 C3402 1.502 . S
C3404 H3390 0.960 . S
C3404 H3391 0.961 . S
C3404 H3392 0.959 . S
C3404 C3402 1.561 . S
C3405 C3402 1.526 . S
C3405 C3406 1.396 . S
C3405 C3410 1.390 . S
C3406 C3400 1.465 . S
C3406 C3405 1.396 . S
C3406 C3407 1.399 . S
C3407 H3393 0.929 . S
C3407 C3406 1.399 . S
C3407 C3408 1.385 . S
C3408 H3394 0.931 . S
C3408 C3407 1.385 . S
C3408 C3409 1.389 . S
C3409 C3408 1.389 . S
C3409 C3410 1.387 . S
C3410 H3395 0.930 . S
C3410 C3405 1.390 . S
C3410 C3409 1.387 . S
H3411 C3423 0.930 . S
H3412 C3425 0.930 . S
H3413 C3426 0.930 . S
H3414 C3430 0.959 . S
H3415 C3430 0.959 . S
H3416 C3430 0.961 . S
H3417 C3431 0.960 1_554 S
H3418 C3431 0.961 . S
H3419 C3431 0.959 . S
H3420 C3434 0.929 . S
H3421 C3435 0.931 . S
H3422 C3437 0.930 . S
C3423 H3411 0.930 . S
C3423 C3424 1.399 . S
C3423 C3428 1.399 . S
C3424 C3423 1.399 . S
C3424 C3425 1.376 . S
C3425 H3412 0.930 . S
C3425 C3424 1.376 . S
C3425 C3426 1.388 . S
C3426 H3413 0.930 . S
C3426 C3425 1.388 . S
C3426 C3427 1.390 . S
C3427 C3426 1.390 . S
C3427 C3428 1.394 . S
C3427 C3433 1.465 . S
C3428 C3423 1.399 . S
C3428 C3427 1.394 . S
C3428 C3429 1.516 . S
C3429 C3428 1.516 . S
C3429 C3430 1.502 . S
C3429 C3431 1.561 . S
C3429 C3432 1.526 . S
C3430 H3414 0.959 . S
C3430 H3415 0.959 . S
C3430 H3416 0.961 . S
C3430 C3429 1.502 . S
C3431 H3417 0.960 1_556 S
C3431 H3418 0.961 . S
C3431 H3419 0.959 . S
C3431 C3429 1.561 . S
C3432 C3429 1.526 . S
C3432 C3433 1.396 . S
C3432 C3437 1.390 . S
C3433 C3427 1.465 . S
C3433 C3432 1.396 . S
C3433 C3434 1.399 . S
C3434 H3420 0.929 . S
C3434 C3433 1.399 . S
C3434 C3435 1.385 . S
C3435 H3421 0.931 . S
C3435 C3434 1.385 . S
C3435 C3436 1.389 . S
C3436 C3435 1.389 . S
C3436 C3437 1.387 . S
C3437 H3422 0.930 . S
C3437 C3432 1.390 . S
C3437 C3436 1.387 . S
H3438 C3450 0.930 . S
H3439 C3452 0.930 . S
H3440 C3453 0.930 . S
H3441 C3457 0.959 . S
H3442 C3457 0.959 . S
H3443 C3457 0.961 . S
H3444 C3458 0.960 . S
H3445 C3458 0.961 . S
H3446 C3458 0.959 . S
H3447 C3461 0.929 . S
H3448 C3462 0.931 . S
H3449 C3464 0.930 . S
C3450 H3438 0.930 . S
C3450 C3451 1.399 . S
C3450 C3455 1.399 . S
C3451 C3450 1.399 . S
C3451 C3452 1.376 . S
C3452 H3439 0.930 . S
C3452 C3451 1.376 . S
C3452 C3453 1.388 . S
C3453 H3440 0.930 . S
C3453 C3452 1.388 . S
C3453 C3454 1.390 . S
C3454 C3453 1.390 . S
C3454 C3455 1.394 . S
C3454 C3460 1.465 . S
C3455 C3450 1.399 . S
C3455 C3454 1.394 . S
C3455 C3456 1.516 . S
C3456 C3455 1.516 . S
C3456 C3457 1.502 . S
C3456 C3458 1.561 . S
C3456 C3459 1.526 . S
C3457 H3441 0.959 . S
C3457 H3442 0.959 . S
C3457 H3443 0.961 . S
C3457 C3456 1.502 . S
C3458 H3444 0.960 . S
C3458 H3445 0.961 . S
C3458 H3446 0.959 . S
C3458 C3456 1.561 . S
C3459 C3456 1.526 . S
C3459 C3460 1.396 . S
C3459 C3464 1.390 . S
C3460 C3454 1.465 . S
C3460 C3459 1.396 . S
C3460 C3461 1.399 . S
C3461 H3447 0.929 . S
C3461 C3460 1.399 . S
C3461 C3462 1.385 . S
C3462 H3448 0.931 . S
C3462 C3461 1.385 . S
C3462 C3463 1.389 . S
C3463 C3462 1.389 . S
C3463 C3464 1.387 . S
C3464 H3449 0.930 . S
C3464 C3459 1.390 . S
C3464 C3463 1.387 . S
H3465 C3477 0.930 . S
H3466 C3479 0.930 . S
H3467 C3480 0.930 . S
H3468 C3484 0.959 . S
H3469 C3484 0.959 . S
H3470 C3484 0.961 . S
H3471 C3485 0.960 . S
H3472 C3485 0.961 . S
H3473 C3485 0.959 . S
H3474 C3488 0.929 . S
H3475 C3489 0.931 . S
H3476 C3491 0.930 . S
C3477 H3465 0.930 . S
C3477 C3478 1.399 . S
C3477 C3482 1.399 . S
C3478 C3477 1.399 . S
C3478 C3479 1.376 . S
C3479 H3466 0.930 . S
C3479 C3478 1.376 . S
C3479 C3480 1.388 . S
C3480 H3467 0.930 . S
C3480 C3479 1.388 . S
C3480 C3481 1.390 . S
C3481 C3480 1.390 . S
C3481 C3482 1.394 . S
C3481 C3487 1.465 . S
C3482 C3477 1.399 . S
C3482 C3481 1.394 . S
C3482 C3483 1.516 . S
C3483 C3482 1.516 . S
C3483 C3484 1.502 . S
C3483 C3485 1.561 . S
C3483 C3486 1.526 . S
C3484 H3468 0.959 . S
C3484 H3469 0.959 . S
C3484 H3470 0.961 . S
C3484 C3483 1.502 . S
C3485 H3471 0.960 . S
C3485 H3472 0.961 . S
C3485 H3473 0.959 . S
C3485 C3483 1.561 . S
C3486 C3483 1.526 . S
C3486 C3487 1.396 . S
C3486 C3491 1.390 . S
C3487 C3481 1.465 . S
C3487 C3486 1.396 . S
C3487 C3488 1.399 . S
C3488 H3474 0.929 . S
C3488 C3487 1.399 . S
C3488 C3489 1.385 . S
C3489 H3475 0.931 . S
C3489 C3488 1.385 . S
C3489 C3490 1.389 . S
C3490 C3489 1.389 . S
C3490 C3491 1.387 . S
C3491 H3476 0.930 . S
C3491 C3486 1.390 . S
C3491 C3490 1.387 . S
H3492 C3504 0.930 . S
H3493 C3506 0.930 . S
H3494 C3507 0.930 . S
H3495 C3511 0.959 . S
H3496 C3511 0.959 . S
H3497 C3511 0.961 . S
H3498 C3512 0.960 . S
H3499 C3512 0.961 . S
H3500 C3512 0.959 . S
H3501 C3515 0.929 . S
H3502 C3516 0.931 . S
H3503 C3518 0.930 . S
C3504 H3492 0.930 . S
C3504 C3505 1.399 . S
C3504 C3509 1.399 . S
C3505 C3504 1.399 . S
C3505 C3506 1.376 . S
C3506 H3493 0.930 . S
C3506 C3505 1.376 . S
C3506 C3507 1.388 . S
C3507 H3494 0.930 . S
C3507 C3506 1.388 . S
C3507 C3508 1.390 . S
C3508 C3507 1.390 . S
C3508 C3509 1.394 . S
C3508 C3514 1.465 . S
C3509 C3504 1.399 . S
C3509 C3508 1.394 . S
C3509 C3510 1.516 . S
C3510 C3509 1.516 . S
C3510 C3511 1.502 . S
C3510 C3512 1.561 . S
C3510 C3513 1.526 . S
C3511 H3495 0.959 . S
C3511 H3496 0.959 . S
C3511 H3497 0.961 . S
C3511 C3510 1.502 . S
C3512 H3498 0.960 . S
C3512 H3499 0.961 . S
C3512 H3500 0.959 . S
C3512 C3510 1.561 . S
C3513 C3510 1.526 . S
C3513 C3514 1.396 . S
C3513 C3518 1.390 . S
C3514 C3508 1.465 . S
C3514 C3513 1.396 . S
C3514 C3515 1.399 . S
C3515 H3501 0.929 . S
C3515 C3514 1.399 . S
C3515 C3516 1.385 . S
C3516 H3502 0.931 . S
C3516 C3515 1.385 . S
C3516 C3517 1.389 . S
C3517 C3516 1.389 . S
C3517 C3518 1.387 . S
C3518 H3503 0.930 . S
C3518 C3513 1.390 . S
C3518 C3517 1.387 . S
H3519 C3531 0.930 . S
H3520 C3533 0.930 . S
H3521 C3534 0.930 . S
H3522 C3538 0.959 . S
H3523 C3538 0.959 . S
H3524 C3538 0.961 . S
H3525 C3539 0.960 . S
H3526 C3539 0.961 . S
H3527 C3539 0.959 . S
H3528 C3542 0.929 . S
H3529 C3543 0.931 . S
H3530 C3545 0.930 . S
C3531 H3519 0.930 . S
C3531 C3532 1.399 . S
C3531 C3536 1.399 . S
C3532 C3531 1.399 . S
C3532 C3533 1.376 . S
C3533 H3520 0.930 . S
C3533 C3532 1.376 . S
C3533 C3534 1.388 . S
C3534 H3521 0.930 . S
C3534 C3533 1.388 . S
C3534 C3535 1.390 . S
C3535 C3534 1.390 . S
C3535 C3536 1.394 . S
C3535 C3541 1.465 . S
C3536 C3531 1.399 . S
C3536 C3535 1.394 . S
C3536 C3537 1.516 . S
C3537 C3536 1.516 . S
C3537 C3538 1.502 . S
C3537 C3539 1.561 . S
C3537 C3540 1.526 . S
C3538 H3522 0.959 . S
C3538 H3523 0.959 . S
C3538 H3524 0.961 . S
C3538 C3537 1.502 . S
C3539 H3525 0.960 . S
C3539 H3526 0.961 . S
C3539 H3527 0.959 . S
C3539 C3537 1.561 . S
C3540 C3537 1.526 . S
C3540 C3541 1.396 . S
C3540 C3545 1.390 . S
C3541 C3535 1.465 . S
C3541 C3540 1.396 . S
C3541 C3542 1.399 . S
C3542 H3528 0.929 . S
C3542 C3541 1.399 . S
C3542 C3543 1.385 . S
C3543 H3529 0.931 . S
C3543 C3542 1.385 . S
C3543 C3544 1.389 . S
C3544 C3543 1.389 . S
C3544 C3545 1.387 . S
C3545 H3530 0.930 . S
C3545 C3540 1.390 . S
C3545 C3544 1.387 . S
H3546 C3558 0.930 . S
H3547 C3560 0.930 . S
H3548 C3561 0.930 . S
H3549 C3565 0.959 . S
H3550 C3565 0.959 . S
H3551 C3565 0.961 . S
H3552 C3566 0.960 . S
H3553 C3566 0.961 . S
H3554 C3566 0.959 . S
H3555 C3569 0.929 . S
H3556 C3570 0.931 . S
H3557 C3572 0.930 . S
C3558 H3546 0.930 . S
C3558 C3559 1.399 . S
C3558 C3563 1.399 . S
C3559 C3558 1.399 . S
C3559 C3560 1.376 . S
C3560 H3547 0.930 . S
C3560 C3559 1.376 . S
C3560 C3561 1.388 . S
C3561 H3548 0.930 . S
C3561 C3560 1.388 . S
C3561 C3562 1.390 . S
C3562 C3561 1.390 . S
C3562 C3563 1.394 . S
C3562 C3568 1.465 . S
C3563 C3558 1.399 . S
C3563 C3562 1.394 . S
C3563 C3564 1.516 . S
C3564 C3563 1.516 . S
C3564 C3565 1.502 . S
C3564 C3566 1.561 . S
C3564 C3567 1.526 . S
C3565 H3549 0.959 . S
C3565 H3550 0.959 . S
C3565 H3551 0.961 . S
C3565 C3564 1.502 . S
C3566 H3552 0.960 . S
C3566 H3553 0.961 . S
C3566 H3554 0.959 . S
C3566 C3564 1.561 . S
C3567 C3564 1.526 . S
C3567 C3568 1.396 . S
C3567 C3572 1.390 . S
C3568 C3562 1.465 . S
C3568 C3567 1.396 . S
C3568 C3569 1.399 . S
C3569 H3555 0.929 . S
C3569 C3568 1.399 . S
C3569 C3570 1.385 . S
C3570 H3556 0.931 . S
C3570 C3569 1.385 . S
C3570 C3571 1.389 . S
C3571 C3570 1.389 . S
C3571 C3572 1.387 . S
C3572 H3557 0.930 . S
C3572 C3567 1.390 . S
C3572 C3571 1.387 . S
H3573 C3585 0.930 . S
H3574 C3587 0.930 . S
H3575 C3588 0.930 . S
H3576 C3592 0.959 . S
H3577 C3592 0.959 . S
H3578 C3592 0.961 . S
H3579 C3593 0.960 . S
H3580 C3593 0.961 . S
H3581 C3593 0.959 . S
H3582 C3596 0.929 . S
H3583 C3597 0.931 . S
H3584 C3599 0.930 . S
C3585 H3573 0.930 . S
C3585 C3586 1.399 . S
C3585 C3590 1.399 . S
C3586 C3585 1.399 . S
C3586 C3587 1.376 . S
C3587 H3574 0.930 . S
C3587 C3586 1.376 . S
C3587 C3588 1.388 . S
C3588 H3575 0.930 . S
C3588 C3587 1.388 . S
C3588 C3589 1.390 . S
C3589 C3588 1.390 . S
C3589 C3590 1.394 . S
C3589 C3595 1.465 . S
C3590 C3585 1.399 . S
C3590 C3589 1.394 . S
C3590 C3591 1.516 . S
C3591 C3590 1.516 . S
C3591 C3592 1.502 . S
C3591 C3593 1.561 . S
C3591 C3594 1.526 . S
C3592 H3576 0.959 . S
C3592 H3577 0.959 . S
C3592 H3578 0.961 . S
C3592 C3591 1.502 . S
C3593 H3579 0.960 . S
C3593 H3580 0.961 . S
C3593 H3581 0.959 . S
C3593 C3591 1.561 . S
C3594 C3591 1.526 . S
C3594 C3595 1.396 . S
C3594 C3599 1.390 . S
C3595 C3589 1.465 . S
C3595 C3594 1.396 . S
C3595 C3596 1.399 . S
C3596 H3582 0.929 . S
C3596 C3595 1.399 . S
C3596 C3597 1.385 . S
C3597 H3583 0.931 . S
C3597 C3596 1.385 . S
C3597 C3598 1.389 . S
C3598 C3597 1.389 . S
C3598 C3599 1.387 . S
C3599 H3584 0.930 . S
C3599 C3594 1.390 . S
C3599 C3598 1.387 . S
H3600 C3612 0.930 . S
H3601 C3614 0.930 . S
H3602 C3615 0.930 . S
H3603 C3619 0.959 . S
H3604 C3619 0.959 . S
H3605 C3619 0.961 . S
H3606 C3620 0.960 . S
H3607 C3620 0.961 . S
H3608 C3620 0.959 . S
H3609 C3623 0.929 . S
H3610 C3624 0.931 . S
H3611 C3626 0.930 . S
C3612 H3600 0.930 . S
C3612 C3613 1.399 . S
C3612 C3617 1.399 . S
C3613 C3612 1.399 . S
C3613 C3614 1.376 . S
C3614 H3601 0.930 . S
C3614 C3613 1.376 . S
C3614 C3615 1.388 . S
C3615 H3602 0.930 . S
C3615 C3614 1.388 . S
C3615 C3616 1.390 . S
C3616 C3615 1.390 . S
C3616 C3617 1.394 . S
C3616 C3622 1.465 . S
C3617 C3612 1.399 . S
C3617 C3616 1.394 . S
C3617 C3618 1.516 . S
C3618 C3617 1.516 . S
C3618 C3619 1.502 . S
C3618 C3620 1.561 . S
C3618 C3621 1.526 . S
C3619 H3603 0.959 . S
C3619 H3604 0.959 . S
C3619 H3605 0.961 . S
C3619 C3618 1.502 . S
C3620 H3606 0.960 . S
C3620 H3607 0.961 . S
C3620 H3608 0.959 . S
C3620 C3618 1.561 . S
C3621 C3618 1.526 . S
C3621 C3622 1.396 . S
C3621 C3626 1.390 . S
C3622 C3616 1.465 . S
C3622 C3621 1.396 . S
C3622 C3623 1.399 . S
C3623 H3609 0.929 . S
C3623 C3622 1.399 . S
C3623 C3624 1.385 . S
C3624 H3610 0.931 . S
C3624 C3623 1.385 . S
C3624 C3625 1.389 . S
C3625 C3624 1.389 . S
C3625 C3626 1.387 . S
C3626 H3611 0.930 . S
C3626 C3621 1.390 . S
C3626 C3625 1.387 . S
H3627 C3639 0.930 . S
H3628 C3641 0.930 . S
H3629 C3642 0.930 . S
H3630 C3646 0.959 . S
H3631 C3646 0.959 . S
H3632 C3646 0.961 . S
H3633 C3647 0.960 . S
H3634 C3647 0.961 . S
H3635 C3647 0.959 . S
H3636 C3650 0.929 . S
H3637 C3651 0.931 . S
H3638 C3653 0.930 . S
C3639 H3627 0.930 . S
C3639 C3640 1.399 . S
C3639 C3644 1.399 . S
C3640 C3639 1.399 . S
C3640 C3641 1.376 . S
C3641 H3628 0.930 . S
C3641 C3640 1.376 . S
C3641 C3642 1.388 . S
C3642 H3629 0.930 . S
C3642 C3641 1.388 . S
C3642 C3643 1.390 . S
C3643 C3642 1.390 . S
C3643 C3644 1.394 . S
C3643 C3649 1.465 . S
C3644 C3639 1.399 . S
C3644 C3643 1.394 . S
C3644 C3645 1.516 . S
C3645 C3644 1.516 . S
C3645 C3646 1.502 . S
C3645 C3647 1.561 . S
C3645 C3648 1.526 . S
C3646 H3630 0.959 . S
C3646 H3631 0.959 . S
C3646 H3632 0.961 . S
C3646 C3645 1.502 . S
C3647 H3633 0.960 . S
C3647 H3634 0.961 . S
C3647 H3635 0.959 . S
C3647 C3645 1.561 . S
C3648 C3645 1.526 . S
C3648 C3649 1.396 . S
C3648 C3653 1.390 . S
C3649 C3643 1.465 . S
C3649 C3648 1.396 . S
C3649 C3650 1.399 . S
C3650 H3636 0.929 . S
C3650 C3649 1.399 . S
C3650 C3651 1.385 . S
C3651 H3637 0.931 . S
C3651 C3650 1.385 . S
C3651 C3652 1.389 . S
C3652 C3651 1.389 . S
C3652 C3653 1.387 . S
C3653 H3638 0.930 . S
C3653 C3648 1.390 . S
C3653 C3652 1.387 . S
H3654 C3666 0.930 . S
H3655 C3668 0.930 . S
H3656 C3669 0.930 . S
H3657 C3673 0.959 . S
H3658 C3673 0.959 . S
H3659 C3673 0.961 . S
H3660 C3674 0.960 . S
H3661 C3674 0.961 . S
H3662 C3674 0.959 . S
H3663 C3677 0.929 . S
H3664 C3678 0.931 . S
H3665 C3680 0.930 . S
C3666 H3654 0.930 . S
C3666 C3667 1.399 . S
C3666 C3671 1.399 . S
C3667 C3666 1.399 . S
C3667 C3668 1.376 . S
C3668 H3655 0.930 . S
C3668 C3667 1.376 . S
C3668 C3669 1.388 . S
C3669 H3656 0.930 . S
C3669 C3668 1.388 . S
C3669 C3670 1.390 . S
C3670 C3669 1.390 . S
C3670 C3671 1.394 . S
C3670 C3676 1.465 . S
C3671 C3666 1.399 . S
C3671 C3670 1.394 . S
C3671 C3672 1.516 . S
C3672 C3671 1.516 . S
C3672 C3673 1.502 . S
C3672 C3674 1.561 . S
C3672 C3675 1.526 . S
C3673 H3657 0.959 . S
C3673 H3658 0.959 . S
C3673 H3659 0.961 . S
C3673 C3672 1.502 . S
C3674 H3660 0.960 . S
C3674 H3661 0.961 . S
C3674 H3662 0.959 . S
C3674 C3672 1.561 . S
C3675 C3672 1.526 . S
C3675 C3676 1.396 . S
C3675 C3680 1.390 . S
C3676 C3670 1.465 . S
C3676 C3675 1.396 . S
C3676 C3677 1.399 . S
C3677 H3663 0.929 . S
C3677 C3676 1.399 . S
C3677 C3678 1.385 . S
C3678 H3664 0.931 . S
C3678 C3677 1.385 . S
C3678 C3679 1.389 . S
C3679 C3678 1.389 . S
C3679 C3680 1.387 . S
C3680 H3665 0.930 . S
C3680 C3675 1.390 . S
C3680 C3679 1.387 . S
H3681 C3693 0.930 . S
H3682 C3695 0.931 . S
H3683 C3696 0.930 1_655 S
H3684 C3700 0.959 . S
H3685 C3700 0.959 . S
H3686 C3700 0.961 . S
H3687 C3701 0.960 . S
H3688 C3701 0.961 . S
H3689 C3701 0.959 . S
H3690 C3704 0.929 . S
H3691 C3705 0.931 . S
H3692 C3707 0.930 . S
C3693 H3681 0.930 . S
C3693 C3694 1.399 . S
C3693 C3698 1.399 . S
C3694 C3693 1.399 . S
C3694 C3695 1.376 . S
C3695 H3682 0.931 . S
C3695 C3694 1.376 . S
C3695 C3696 1.388 . S
C3696 H3683 0.930 1_455 S
C3696 C3695 1.388 . S
C3696 C3697 1.390 . S
C3697 C3696 1.390 . S
C3697 C3698 1.394 . S
C3697 C3703 1.465 . S
C3698 C3693 1.399 . S
C3698 C3697 1.394 . S
C3698 C3699 1.516 . S
C3699 C3698 1.516 . S
C3699 C3700 1.502 . S
C3699 C3701 1.561 . S
C3699 C3702 1.526 . S
C3700 H3684 0.959 . S
C3700 H3685 0.959 . S
C3700 H3686 0.961 . S
C3700 C3699 1.502 . S
C3701 H3687 0.960 . S
C3701 H3688 0.961 . S
C3701 H3689 0.959 . S
C3701 C3699 1.561 . S
C3702 C3699 1.526 . S
C3702 C3703 1.396 . S
C3702 C3707 1.390 . S
C3703 C3697 1.465 . S
C3703 C3702 1.396 . S
C3703 C3704 1.399 1_455 S
C3704 H3690 0.929 . S
C3704 C3703 1.399 1_655 S
C3704 C3705 1.385 . S
C3705 H3691 0.931 . S
C3705 C3704 1.385 . S
C3705 C3706 1.389 1_655 S
C3706 C3705 1.389 1_455 S
C3706 C3707 1.387 . S
C3707 H3692 0.930 . S
C3707 C3702 1.390 . S
C3707 C3706 1.387 . S
H3708 C3720 0.930 . S
H3709 C3722 0.930 . S
H3710 C3723 0.930 . S
H3711 C3727 0.959 . S
H3712 C3727 0.959 . S
H3713 C3727 0.961 . S
H3714 C3728 0.960 . S
H3715 C3728 0.961 . S
H3716 C3728 0.959 . S
H3717 C3731 0.929 . S
H3718 C3732 0.931 . S
H3719 C3734 0.930 . S
C3720 H3708 0.930 . S
C3720 C3721 1.399 . S
C3720 C3725 1.399 . S
C3721 C3720 1.399 . S
C3721 C3722 1.376 . S
C3722 H3709 0.930 . S
C3722 C3721 1.376 . S
C3722 C3723 1.388 . S
C3723 H3710 0.930 . S
C3723 C3722 1.388 . S
C3723 C3724 1.390 . S
C3724 C3723 1.390 . S
C3724 C3725 1.394 . S
C3724 C3730 1.465 . S
C3725 C3720 1.399 . S
C3725 C3724 1.394 . S
C3725 C3726 1.516 . S
C3726 C3725 1.516 . S
C3726 C3727 1.502 . S
C3726 C3728 1.561 . S
C3726 C3729 1.526 . S
C3727 H3711 0.959 . S
C3727 H3712 0.959 . S
C3727 H3713 0.961 . S
C3727 C3726 1.502 . S
C3728 H3714 0.960 . S
C3728 H3715 0.961 . S
C3728 H3716 0.959 . S
C3728 C3726 1.561 . S
C3729 C3726 1.526 . S
C3729 C3730 1.396 . S
C3729 C3734 1.390 . S
C3730 C3724 1.465 . S
C3730 C3729 1.396 . S
C3730 C3731 1.399 . S
C3731 H3717 0.929 . S
C3731 C3730 1.399 . S
C3731 C3732 1.385 . S
C3732 H3718 0.931 . S
C3732 C3731 1.385 . S
C3732 C3733 1.389 . S
C3733 C3732 1.389 . S
C3733 C3734 1.387 . S
C3734 H3719 0.930 . S
C3734 C3729 1.390 . S
C3734 C3733 1.387 . S
H3735 C3747 0.930 . S
H3736 C3749 0.930 . S
H3737 C3750 0.930 . S
H3738 C3754 0.959 . S
H3739 C3754 0.959 . S
H3740 C3754 0.961 . S
H3741 C3755 0.960 . S
H3742 C3755 0.961 . S
H3743 C3755 0.959 . S
H3744 C3758 0.929 . S
H3745 C3759 0.931 . S
H3746 C3761 0.930 . S
C3747 H3735 0.930 . S
C3747 C3748 1.399 1_545 S
C3747 C3752 1.399 1_545 S
C3748 C3747 1.399 1_565 S
C3748 C3749 1.376 . S
C3749 H3736 0.930 . S
C3749 C3748 1.376 . S
C3749 C3750 1.388 . S
C3750 H3737 0.930 . S
C3750 C3749 1.388 . S
C3750 C3751 1.390 . S
C3751 C3750 1.390 . S
C3751 C3752 1.394 . S
C3751 C3757 1.465 . S
C3752 C3747 1.399 1_565 S
C3752 C3751 1.394 . S
C3752 C3753 1.516 1_565 S
C3753 C3752 1.516 1_545 S
C3753 C3754 1.502 . S
C3753 C3755 1.561 . S
C3753 C3756 1.482 1_545 S
C3754 H3738 0.959 . S
C3754 H3739 0.959 . S
C3754 H3740 0.961 . S
C3754 C3753 1.502 . S
C3755 H3741 0.960 . S
C3755 H3742 0.961 . S
C3755 H3743 0.959 . S
C3755 C3753 1.561 . S
C3756 C3753 1.482 1_565 S
C3756 C3757 1.434 . S
C3756 C3761 1.400 1_565 S
C3757 C3751 1.465 . S
C3757 C3756 1.434 . S
C3757 C3758 1.399 . S
C3758 H3744 0.929 . S
C3758 C3757 1.399 . S
C3758 C3759 1.385 . S
C3759 H3745 0.931 . S
C3759 C3758 1.385 . S
C3759 C3760 1.389 . S
C3760 C3759 1.389 . S
C3760 C3761 1.387 1_565 S
C3761 H3746 0.930 . S
C3761 C3756 1.400 1_545 S
C3761 C3760 1.387 1_545 S
H3762 C3774 0.930 . S
H3763 C3776 0.930 . S
H3764 C3777 0.930 . S
H3765 C3781 0.959 . S
H3766 C3781 0.959 . S
H3767 C3781 0.961 . S
H3768 C3782 0.960 . S
H3769 C3782 0.961 . S
H3770 C3782 0.959 . S
H3771 C3785 0.929 . S
H3772 C3786 0.931 . S
H3773 C3788 0.930 . S
C3774 H3762 0.930 . S
C3774 C3775 1.399 1_545 S
C3774 C3779 1.378 . S
C3775 C3774 1.399 1_565 S
C3775 C3776 1.376 . S
C3776 H3763 0.930 . S
C3776 C3775 1.376 . S
C3776 C3777 1.388 . S
C3777 H3764 0.930 . S
C3777 C3776 1.388 . S
C3777 C3778 1.390 . S
C3778 C3777 1.390 . S
C3778 C3779 1.350 1_565 S
C3778 C3784 1.465 . S
C3779 C3774 1.378 . S
C3779 C3778 1.350 1_545 S
C3779 C3780 1.581 . S
C3780 C3779 1.581 . S
C3780 C3781 1.502 . S
C3780 C3782 1.561 . S
C3780 C3783 1.526 . S
C3781 H3765 0.959 . S
C3781 H3766 0.959 . S
C3781 H3767 0.961 . S
C3781 C3780 1.502 . S
C3782 H3768 0.960 . S
C3782 H3769 0.961 . S
C3782 H3770 0.959 . S
C3782 C3780 1.561 . S
C3783 C3780 1.526 . S
C3783 C3784 1.396 1_545 S
C3783 C3788 1.390 . S
C3784 C3778 1.465 . S
C3784 C3783 1.396 1_565 S
C3784 C3785 1.399 . S
C3785 H3771 0.929 . S
C3785 C3784 1.399 . S
C3785 C3786 1.385 . S
C3786 H3772 0.931 . S
C3786 C3785 1.385 . S
C3786 C3787 1.389 . S
C3787 C3786 1.389 . S
C3787 C3788 1.387 1_565 S
C3788 H3773 0.930 . S
C3788 C3783 1.390 . S
C3788 C3787 1.387 1_545 S
H3789 C3801 0.976 . S
H3790 C3803 0.930 . S
H3791 C3804 0.930 . S
H3792 C3808 0.959 . S
H3793 C3808 0.959 . S
H3794 C3808 0.961 . S
H3795 C3809 0.960 . S
H3796 C3809 0.961 . S
H3797 C3809 0.959 1_455 S
H3798 C3812 0.929 . S
H3799 C3813 0.931 . S
H3800 C3815 0.930 . S
C3801 H3789 0.976 . S
C3801 C3802 1.379 1_655 S
C3801 C3806 1.339 1_655 S
C3802 C3801 1.379 1_455 S
C3802 C3803 1.376 . S
C3803 H3790 0.930 . S
C3803 C3802 1.376 . S
C3803 C3804 1.388 . S
C3804 H3791 0.930 . S
C3804 C3803 1.388 . S
C3804 C3805 1.390 . S
C3805 C3804 1.390 . S
C3805 C3806 1.463 . S
C3805 C3811 1.465 . S
C3806 C3801 1.339 1_455 S
C3806 C3805 1.463 . S
C3806 C3807 1.498 1_455 S
C3807 C3806 1.498 1_655 S
C3807 C3808 1.502 . S
C3807 C3809 1.561 . S
C3807 C3810 1.526 . S
C3808 H3792 0.959 . S
C3808 H3793 0.959 . S
C3808 H3794 0.961 . S
C3808 C3807 1.502 . S
C3809 H3795 0.960 . S
C3809 H3796 0.961 . S
C3809 H3797 0.959 1_655 S
C3809 C3807 1.561 . S
C3810 C3807 1.526 . S
C3810 C3811 1.396 1_655 S
C3810 C3815 1.390 . S
C3811 C3805 1.465 . S
C3811 C3810 1.396 1_455 S
C3811 C3812 1.399 . S
C3812 H3798 0.929 . S
C3812 C3811 1.399 . S
C3812 C3813 1.385 . S
C3813 H3799 0.931 . S
C3813 C3812 1.385 . S
C3813 C3814 1.389 . S
C3814 C3813 1.389 . S
C3814 C3815 1.387 1_455 S
C3815 H3800 0.930 . S
C3815 C3810 1.390 . S
C3815 C3814 1.387 1_655 S
H3816 C3828 0.930 . S
H3817 C3830 0.930 . S
H3818 C3831 0.930 . S
H3819 C3835 0.959 . S
H3820 C3835 0.959 . S
H3821 C3835 0.961 . S
H3822 C3836 0.960 . S
H3823 C3836 0.961 . S
H3824 C3836 0.959 . S
H3825 C3839 0.929 . S
H3826 C3840 0.931 . S
H3827 C3842 0.930 . S
C3828 H3816 0.930 . S
C3828 C3829 1.399 . S
C3828 C3833 1.399 . S
C3829 C3828 1.399 . S
C3829 C3830 1.376 . S
C3830 H3817 0.930 . S
C3830 C3829 1.376 . S
C3830 C3831 1.388 . S
C3831 H3818 0.930 . S
C3831 C3830 1.388 . S
C3831 C3832 1.390 . S
C3832 C3831 1.390 . S
C3832 C3833 1.394 . S
C3832 C3838 1.465 . S
C3833 C3828 1.399 . S
C3833 C3832 1.394 . S
C3833 C3834 1.516 . S
C3834 C3833 1.516 . S
C3834 C3835 1.502 . S
C3834 C3836 1.561 . S
C3834 C3837 1.526 . S
C3835 H3819 0.959 . S
C3835 H3820 0.959 . S
C3835 H3821 0.961 . S
C3835 C3834 1.502 . S
C3836 H3822 0.960 . S
C3836 H3823 0.961 . S
C3836 H3824 0.959 . S
C3836 C3834 1.561 . S
C3837 C3834 1.526 . S
C3837 C3838 1.396 . S
C3837 C3842 1.390 . S
C3838 C3832 1.465 . S
C3838 C3837 1.396 . S
C3838 C3839 1.399 . S
C3839 H3825 0.929 . S
C3839 C3838 1.399 . S
C3839 C3840 1.385 . S
C3840 H3826 0.931 . S
C3840 C3839 1.385 . S
C3840 C3841 1.389 . S
C3841 C3840 1.389 . S
C3841 C3842 1.387 . S
C3842 H3827 0.930 . S
C3842 C3837 1.390 . S
C3842 C3841 1.387 . S
H3843 C3855 0.930 . S
H3844 C3857 0.930 . S
H3845 C3858 0.930 . S
H3846 C3862 0.959 . S
H3847 C3862 0.959 . S
H3848 C3862 0.961 . S
H3849 C3863 0.960 . S
H3850 C3863 0.961 . S
H3851 C3863 0.959 . S
H3852 C3866 0.929 . S
H3853 C3867 0.931 . S
H3854 C3869 0.930 . S
C3855 H3843 0.930 . S
C3855 C3856 1.399 . S
C3855 C3860 1.399 . S
C3856 C3855 1.399 . S
C3856 C3857 1.376 . S
C3857 H3844 0.930 . S
C3857 C3856 1.376 . S
C3857 C3858 1.388 . S
C3858 H3845 0.930 . S
C3858 C3857 1.388 . S
C3858 C3859 1.390 . S
C3859 C3858 1.390 . S
C3859 C3860 1.394 . S
C3859 C3865 1.465 . S
C3860 C3855 1.399 . S
C3860 C3859 1.394 . S
C3860 C3861 1.516 . S
C3861 C3860 1.516 . S
C3861 C3862 1.502 . S
C3861 C3863 1.561 . S
C3861 C3864 1.526 . S
C3862 H3846 0.959 . S
C3862 H3847 0.959 . S
C3862 H3848 0.961 . S
C3862 C3861 1.502 . S
C3863 H3849 0.960 . S
C3863 H3850 0.961 . S
C3863 H3851 0.959 . S
C3863 C3861 1.561 . S
C3864 C3861 1.526 . S
C3864 C3865 1.396 . S
C3864 C3869 1.390 . S
C3865 C3859 1.465 . S
C3865 C3864 1.396 . S
C3865 C3866 1.399 . S
C3866 H3852 0.929 . S
C3866 C3865 1.399 . S
C3866 C3867 1.385 . S
C3867 H3853 0.931 . S
C3867 C3866 1.385 . S
C3867 C3868 1.389 . S
C3868 C3867 1.389 . S
C3868 C3869 1.387 . S
C3869 H3854 0.930 . S
C3869 C3864 1.390 . S
C3869 C3868 1.387 . S
H3870 C3882 0.930 . S
H3871 C3884 0.930 . S
H3872 C3885 0.930 . S
H3873 C3889 0.959 . S
H3874 C3889 0.959 . S
H3875 C3889 0.961 . S
H3876 C3890 0.960 . S
H3877 C3890 0.961 . S
H3878 C3890 0.959 . S
H3879 C3893 0.929 . S
H3880 C3894 0.931 . S
H3881 C3896 0.930 . S
C3882 H3870 0.930 . S
C3882 C3883 1.399 . S
C3882 C3887 1.399 . S
C3883 C3882 1.399 . S
C3883 C3884 1.376 . S
C3884 H3871 0.930 . S
C3884 C3883 1.376 . S
C3884 C3885 1.388 . S
C3885 H3872 0.930 . S
C3885 C3884 1.388 . S
C3885 C3886 1.390 . S
C3886 C3885 1.390 . S
C3886 C3887 1.394 . S
C3886 C3892 1.465 . S
C3887 C3882 1.399 . S
C3887 C3886 1.394 . S
C3887 C3888 1.516 . S
C3888 C3887 1.516 . S
C3888 C3889 1.502 . S
C3888 C3890 1.561 . S
C3888 C3891 1.526 . S
C3889 H3873 0.959 . S
C3889 H3874 0.959 . S
C3889 H3875 0.961 . S
C3889 C3888 1.502 . S
C3890 H3876 0.960 . S
C3890 H3877 0.961 . S
C3890 H3878 0.959 . S
C3890 C3888 1.561 . S
C3891 C3888 1.526 . S
C3891 C3892 1.396 . S
C3891 C3896 1.390 . S
C3892 C3886 1.465 . S
C3892 C3891 1.396 . S
C3892 C3893 1.399 . S
C3893 H3879 0.929 . S
C3893 C3892 1.399 . S
C3893 C3894 1.385 . S
C3894 H3880 0.931 . S
C3894 C3893 1.385 . S
C3894 C3895 1.389 . S
C3895 C3894 1.389 . S
C3895 C3896 1.387 . S
C3896 H3881 0.930 . S
C3896 C3891 1.390 . S
C3896 C3895 1.387 . S
H3897 C3909 0.930 . S
H3898 C3911 0.930 . S
H3899 C3912 0.930 . S
H3900 C3916 0.959 . S
H3901 C3916 0.959 . S
H3902 C3916 0.961 . S
H3903 C3917 0.960 . S
H3904 C3917 0.961 . S
H3905 C3917 0.959 . S
H3906 C3920 0.929 . S
H3907 C3921 0.931 . S
H3908 C3923 0.930 . S
C3909 H3897 0.930 . S
C3909 C3910 1.399 . S
C3909 C3914 1.399 . S
C3910 C3909 1.399 . S
C3910 C3911 1.376 . S
C3911 H3898 0.930 . S
C3911 C3910 1.376 . S
C3911 C3912 1.388 . S
C3912 H3899 0.930 . S
C3912 C3911 1.388 . S
C3912 C3913 1.390 . S
C3913 C3912 1.390 . S
C3913 C3914 1.394 . S
C3913 C3919 1.465 . S
C3914 C3909 1.399 . S
C3914 C3913 1.394 . S
C3914 C3915 1.516 . S
C3915 C3914 1.516 . S
C3915 C3916 1.502 . S
C3915 C3917 1.561 . S
C3915 C3918 1.526 . S
C3916 H3900 0.959 . S
C3916 H3901 0.959 . S
C3916 H3902 0.961 . S
C3916 C3915 1.502 . S
C3917 H3903 0.960 . S
C3917 H3904 0.961 . S
C3917 H3905 0.959 . S
C3917 C3915 1.561 . S
C3918 C3915 1.526 . S
C3918 C3919 1.396 . S
C3918 C3923 1.390 . S
C3919 C3913 1.465 . S
C3919 C3918 1.396 . S
C3919 C3920 1.399 . S
C3920 H3906 0.929 . S
C3920 C3919 1.399 . S
C3920 C3921 1.385 . S
C3921 H3907 0.931 . S
C3921 C3920 1.385 . S
C3921 C3922 1.389 . S
C3922 C3921 1.389 . S
C3922 C3923 1.387 . S
C3923 H3908 0.930 . S
C3923 C3918 1.390 . S
C3923 C3922 1.387 . S
H3924 C3936 0.912 1_565 S
H3925 C3938 0.930 . S
H3926 C3939 0.930 . S
H3927 C3943 0.959 . S
H3928 C3943 0.959 . S
H3929 C3943 0.961 . S
H3930 C3944 0.960 . S
H3931 C3944 0.961 . S
H3932 C3944 0.959 . S
H3933 C3947 0.929 . S
H3934 C3948 0.931 . S
H3935 C3950 0.930 . S
C3936 H3924 0.912 1_545 S
C3936 C3937 1.431 . S
C3936 C3941 1.386 . S
C3937 C3936 1.431 . S
C3937 C3938 1.376 . S
C3938 H3925 0.930 . S
C3938 C3937 1.376 . S
C3938 C3939 1.388 . S
C3939 H3926 0.930 . S
C3939 C3938 1.388 . S
C3939 C3940 1.390 . S
C3940 C3939 1.390 . S
C3940 C3941 1.394 . S
C3940 C3946 1.465 . S
C3941 C3936 1.386 . S
C3941 C3940 1.394 . S
C3941 C3942 1.516 1_545 S
C3942 C3941 1.516 1_565 S
C3942 C3943 1.502 . S
C3942 C3944 1.561 . S
C3942 C3945 1.526 1_565 S
C3943 H3927 0.959 . S
C3943 H3928 0.959 . S
C3943 H3929 0.961 . S
C3943 C3942 1.502 . S
C3944 H3930 0.960 . S
C3944 H3931 0.961 . S
C3944 H3932 0.959 . S
C3944 C3942 1.561 . S
C3945 C3942 1.526 1_545 S
C3945 C3946 1.396 . S
C3945 C3950 1.390 1_545 S
C3946 C3940 1.465 . S
C3946 C3945 1.396 . S
C3946 C3947 1.399 . S
C3947 H3933 0.929 . S
C3947 C3946 1.399 . S
C3947 C3948 1.385 . S
C3948 H3934 0.931 . S
C3948 C3947 1.385 . S
C3948 C3949 1.389 . S
C3949 C3948 1.389 . S
C3949 C3950 1.387 1_545 S
C3950 H3935 0.930 . S
C3950 C3945 1.390 1_565 S
C3950 C3949 1.387 1_565 S
H3951 C3963 0.934 . S
H3952 C3965 0.930 . S
H3953 C3966 0.930 . S
H3954 C3970 0.959 1_655 S
H3955 C3970 0.959 . S
H3956 C3970 0.961 . S
H3957 C3971 0.960 . S
H3958 C3971 0.961 . S
H3959 C3971 0.959 . S
H3960 C3974 0.929 . S
H3961 C3975 0.931 . S
H3962 C3977 0.974 . S
C3963 H3951 0.934 . S
C3963 C3964 1.398 1_455 S
C3963 C3968 1.396 1_455 S
C3964 C3963 1.398 1_655 S
C3964 C3965 1.376 . S
C3965 H3952 0.930 . S
C3965 C3964 1.376 . S
C3965 C3966 1.388 . S
C3966 H3953 0.930 . S
C3966 C3965 1.388 . S
C3966 C3967 1.390 . S
C3967 C3966 1.390 . S
C3967 C3968 1.394 . S
C3967 C3973 1.465 . S
C3968 C3963 1.396 1_655 S
C3968 C3967 1.394 . S
C3968 C3969 1.516 1_655 S
C3969 C3968 1.516 1_455 S
C3969 C3970 1.502 . S
C3969 C3971 1.561 . S
C3969 C3972 1.469 1_455 S
C3970 H3954 0.959 1_455 S
C3970 H3955 0.959 . S
C3970 H3956 0.961 . S
C3970 C3969 1.502 . S
C3971 H3957 0.960 . S
C3971 H3958 0.961 . S
C3971 H3959 0.959 . S
C3971 C3969 1.561 . S
C3972 C3969 1.469 1_655 S
C3972 C3973 1.437 . S
C3972 C3977 1.437 1_655 S
C3973 C3967 1.465 . S
C3973 C3972 1.437 . S
C3973 C3974 1.399 . S
C3974 H3960 0.929 . S
C3974 C3973 1.399 . S
C3974 C3975 1.385 . S
C3975 H3961 0.931 . S
C3975 C3974 1.385 . S
C3975 C3976 1.389 . S
C3976 C3975 1.389 . S
C3976 C3977 1.324 1_655 S
C3977 H3962 0.974 . S
C3977 C3972 1.437 1_455 S
C3977 C3976 1.324 1_455 S
H3978 C3990 0.930 . S
H3979 C3992 0.930 . S
H3980 C3993 0.930 . S
H3981 C3997 0.959 . S
H3982 C3997 0.959 . S
H3983 C3997 0.961 . S
H3984 C3998 0.960 . S
H3985 C3998 0.961 . S
H3986 C3998 0.959 . S
H3987 C4001 0.929 . S
H3988 C4002 0.931 . S
H3989 C4004 0.930 . S
C3990 H3978 0.930 . S
C3990 C3991 1.399 . S
C3990 C3995 1.399 . S
C3991 C3990 1.399 . S
C3991 C3992 1.376 . S
C3992 H3979 0.930 . S
C3992 C3991 1.376 . S
C3992 C3993 1.388 . S
C3993 H3980 0.930 . S
C3993 C3992 1.388 . S
C3993 C3994 1.390 . S
C3994 C3993 1.390 . S
C3994 C3995 1.394 . S
C3994 C4000 1.465 . S
C3995 C3990 1.399 . S
C3995 C3994 1.394 . S
C3995 C3996 1.516 . S
C3996 C3995 1.516 . S
C3996 C3997 1.502 . S
C3996 C3998 1.561 . S
C3996 C3999 1.526 . S
C3997 H3981 0.959 . S
C3997 H3982 0.959 . S
C3997 H3983 0.961 . S
C3997 C3996 1.502 . S
C3998 H3984 0.960 . S
C3998 H3985 0.961 . S
C3998 H3986 0.959 . S
C3998 C3996 1.561 . S
C3999 C3996 1.526 . S
C3999 C4000 1.396 . S
C3999 C4004 1.390 . S
C4000 C3994 1.465 . S
C4000 C3999 1.396 . S
C4000 C4001 1.399 . S
C4001 H3987 0.929 . S
C4001 C4000 1.399 . S
C4001 C4002 1.385 . S
C4002 H3988 0.931 . S
C4002 C4001 1.385 . S
C4002 C4003 1.389 . S
C4003 C4002 1.389 . S
C4003 C4004 1.387 . S
C4004 H3989 0.930 . S
C4004 C3999 1.390 . S
C4004 C4003 1.387 . S
H4005 C4017 0.930 . S
H4006 C4019 0.930 . S
H4007 C4020 0.930 . S
H4008 C4024 0.959 . S
H4009 C4024 0.959 . S
H4010 C4024 0.961 . S
H4011 C4025 0.960 . S
H4012 C4025 0.961 . S
H4013 C4025 0.959 . S
H4014 C4028 0.929 . S
H4015 C4029 0.931 . S
H4016 C4031 0.930 . S
C4017 H4005 0.930 . S
C4017 C4018 1.399 . S
C4017 C4022 1.399 . S
C4018 C4017 1.399 . S
C4018 C4019 1.376 . S
C4019 H4006 0.930 . S
C4019 C4018 1.376 . S
C4019 C4020 1.388 . S
C4020 H4007 0.930 . S
C4020 C4019 1.388 . S
C4020 C4021 1.390 . S
C4021 C4020 1.390 . S
C4021 C4022 1.394 . S
C4021 C4027 1.465 . S
C4022 C4017 1.399 . S
C4022 C4021 1.394 . S
C4022 C4023 1.516 . S
C4023 C4022 1.516 . S
C4023 C4024 1.502 . S
C4023 C4025 1.561 . S
C4023 C4026 1.526 . S
C4024 H4008 0.959 . S
C4024 H4009 0.959 . S
C4024 H4010 0.961 . S
C4024 C4023 1.502 . S
C4025 H4011 0.960 . S
C4025 H4012 0.961 . S
C4025 H4013 0.959 . S
C4025 C4023 1.561 . S
C4026 C4023 1.526 . S
C4026 C4027 1.396 . S
C4026 C4031 1.390 . S
C4027 C4021 1.465 . S
C4027 C4026 1.396 . S
C4027 C4028 1.399 . S
C4028 H4014 0.929 . S
C4028 C4027 1.399 . S
C4028 C4029 1.385 . S
C4029 H4015 0.931 . S
C4029 C4028 1.385 . S
C4029 C4030 1.389 . S
C4030 C4029 1.389 . S
C4030 C4031 1.387 . S
C4031 H4016 0.930 . S
C4031 C4026 1.390 . S
C4031 C4030 1.387 . S
H4032 C4044 0.930 . S
H4033 C4046 0.930 . S
H4034 C4047 0.930 . S
H4035 C4051 0.959 . S
H4036 C4051 0.959 . S
H4037 C4051 0.961 . S
H4038 C4052 0.960 . S
H4039 C4052 0.961 . S
H4040 C4052 0.959 . S
H4041 C4055 0.929 . S
H4042 C4056 0.931 . S
H4043 C4058 0.930 . S
C4044 H4032 0.930 . S
C4044 C4045 1.399 . S
C4044 C4049 1.399 . S
C4045 C4044 1.399 . S
C4045 C4046 1.376 . S
C4046 H4033 0.930 . S
C4046 C4045 1.376 . S
C4046 C4047 1.388 . S
C4047 H4034 0.930 . S
C4047 C4046 1.388 . S
C4047 C4048 1.390 . S
C4048 C4047 1.390 . S
C4048 C4049 1.394 . S
C4048 C4054 1.465 . S
C4049 C4044 1.399 . S
C4049 C4048 1.394 . S
C4049 C4050 1.516 . S
C4050 C4049 1.516 . S
C4050 C4051 1.502 . S
C4050 C4052 1.561 . S
C4050 C4053 1.526 . S
C4051 H4035 0.959 . S
C4051 H4036 0.959 . S
C4051 H4037 0.961 . S
C4051 C4050 1.502 . S
C4052 H4038 0.960 . S
C4052 H4039 0.961 . S
C4052 H4040 0.959 . S
C4052 C4050 1.561 . S
C4053 C4050 1.526 . S
C4053 C4054 1.396 . S
C4053 C4058 1.390 . S
C4054 C4048 1.465 . S
C4054 C4053 1.396 . S
C4054 C4055 1.399 . S
C4055 H4041 0.929 . S
C4055 C4054 1.399 . S
C4055 C4056 1.385 . S
C4056 H4042 0.931 . S
C4056 C4055 1.385 . S
C4056 C4057 1.389 . S
C4057 C4056 1.389 . S
C4057 C4058 1.387 . S
C4058 H4043 0.930 . S
C4058 C4053 1.390 . S
C4058 C4057 1.387 . S
H4059 C4071 0.930 . S
H4060 C4073 0.930 . S
H4061 C4074 0.930 . S
H4062 C4078 0.959 . S
H4063 C4078 0.959 . S
H4064 C4078 0.961 . S
H4065 C4079 0.960 . S
H4066 C4079 0.961 . S
H4067 C4079 0.959 . S
H4068 C4082 0.929 . S
H4069 C4083 0.931 . S
H4070 C4085 0.930 . S
C4071 H4059 0.930 . S
C4071 C4072 1.399 . S
C4071 C4076 1.399 . S
C4072 C4071 1.399 . S
C4072 C4073 1.376 . S
C4073 H4060 0.930 . S
C4073 C4072 1.376 . S
C4073 C4074 1.388 . S
C4074 H4061 0.930 . S
C4074 C4073 1.388 . S
C4074 C4075 1.390 . S
C4075 C4074 1.390 . S
C4075 C4076 1.394 . S
C4075 C4081 1.465 . S
C4076 C4071 1.399 . S
C4076 C4075 1.394 . S
C4076 C4077 1.516 . S
C4077 C4076 1.516 . S
C4077 C4078 1.502 . S
C4077 C4079 1.561 . S
C4077 C4080 1.526 . S
C4078 H4062 0.959 . S
C4078 H4063 0.959 . S
C4078 H4064 0.961 . S
C4078 C4077 1.502 . S
C4079 H4065 0.960 . S
C4079 H4066 0.961 . S
C4079 H4067 0.959 . S
C4079 C4077 1.561 . S
C4080 C4077 1.526 . S
C4080 C4081 1.396 . S
C4080 C4085 1.390 . S
C4081 C4075 1.465 . S
C4081 C4080 1.396 . S
C4081 C4082 1.399 . S
C4082 H4068 0.929 . S
C4082 C4081 1.399 . S
C4082 C4083 1.385 . S
C4083 H4069 0.931 . S
C4083 C4082 1.385 . S
C4083 C4084 1.389 . S
C4084 C4083 1.389 . S
C4084 C4085 1.387 . S
C4085 H4070 0.930 . S
C4085 C4080 1.390 . S
C4085 C4084 1.387 . S
H4086 C4098 0.930 . S
H4087 C4100 0.930 . S
H4088 C4101 0.930 . S
H4089 C4105 0.959 . S
H4090 C4105 0.959 . S
H4091 C4105 0.961 . S
H4092 C4106 0.960 . S
H4093 C4106 0.961 . S
H4094 C4106 0.959 . S
H4095 C4109 0.929 . S
H4096 C4110 0.931 . S
H4097 C4112 0.930 . S
C4098 H4086 0.930 . S
C4098 C4099 1.399 . S
C4098 C4103 1.399 . S
C4099 C4098 1.399 . S
C4099 C4100 1.376 . S
C4100 H4087 0.930 . S
C4100 C4099 1.376 . S
C4100 C4101 1.388 . S
C4101 H4088 0.930 . S
C4101 C4100 1.388 . S
C4101 C4102 1.390 . S
C4102 C4101 1.390 . S
C4102 C4103 1.394 . S
C4102 C4108 1.465 . S
C4103 C4098 1.399 . S
C4103 C4102 1.394 . S
C4103 C4104 1.516 . S
C4104 C4103 1.516 . S
C4104 C4105 1.502 . S
C4104 C4106 1.561 . S
C4104 C4107 1.526 . S
C4105 H4089 0.959 . S
C4105 H4090 0.959 . S
C4105 H4091 0.961 . S
C4105 C4104 1.502 . S
C4106 H4092 0.960 . S
C4106 H4093 0.961 . S
C4106 H4094 0.959 . S
C4106 C4104 1.561 . S
C4107 C4104 1.526 . S
C4107 C4108 1.396 . S
C4107 C4112 1.390 . S
C4108 C4102 1.465 . S
C4108 C4107 1.396 . S
C4108 C4109 1.399 . S
C4109 H4095 0.929 . S
C4109 C4108 1.399 . S
C4109 C4110 1.385 . S
C4110 H4096 0.931 . S
C4110 C4109 1.385 . S
C4110 C4111 1.389 . S
C4111 C4110 1.389 . S
C4111 C4112 1.387 . S
C4112 H4097 0.930 . S
C4112 C4107 1.390 . S
C4112 C4111 1.387 . S
H4113 C4125 0.930 . S
H4114 C4127 0.930 . S
H4115 C4128 0.930 . S
H4116 C4132 0.959 . S
H4117 C4132 0.959 . S
H4118 C4132 0.961 . S
H4119 C4133 0.960 . S
H4120 C4133 0.961 . S
H4121 C4133 0.959 . S
H4122 C4136 0.929 . S
H4123 C4137 0.931 . S
H4124 C4139 0.930 . S
C4125 H4113 0.930 . S
C4125 C4126 1.399 . S
C4125 C4130 1.399 . S
C4126 C4125 1.399 . S
C4126 C4127 1.376 . S
C4127 H4114 0.930 . S
C4127 C4126 1.376 . S
C4127 C4128 1.388 . S
C4128 H4115 0.930 . S
C4128 C4127 1.388 . S
C4128 C4129 1.390 . S
C4129 C4128 1.390 . S
C4129 C4130 1.394 . S
C4129 C4135 1.465 . S
C4130 C4125 1.399 . S
C4130 C4129 1.394 . S
C4130 C4131 1.516 . S
C4131 C4130 1.516 . S
C4131 C4132 1.502 . S
C4131 C4133 1.561 . S
C4131 C4134 1.526 . S
C4132 H4116 0.959 . S
C4132 H4117 0.959 . S
C4132 H4118 0.961 . S
C4132 C4131 1.502 . S
C4133 H4119 0.960 . S
C4133 H4120 0.961 . S
C4133 H4121 0.959 . S
C4133 C4131 1.561 . S
C4134 C4131 1.526 . S
C4134 C4135 1.396 . S
C4134 C4139 1.390 . S
C4135 C4129 1.465 . S
C4135 C4134 1.396 . S
C4135 C4136 1.399 . S
C4136 H4122 0.929 . S
C4136 C4135 1.399 . S
C4136 C4137 1.385 . S
C4137 H4123 0.931 . S
C4137 C4136 1.385 . S
C4137 C4138 1.389 . S
C4138 C4137 1.389 . S
C4138 C4139 1.387 . S
C4139 H4124 0.930 . S
C4139 C4134 1.390 . S
C4139 C4138 1.387 . S
H4140 C4152 0.930 . S
H4141 C4154 0.930 . S
H4142 C4155 0.930 . S
H4143 C4159 0.959 . S
H4144 C4159 0.959 . S
H4145 C4159 0.961 . S
H4146 C4160 0.960 . S
H4147 C4160 0.961 . S
H4148 C4160 0.959 . S
H4149 C4163 0.929 . S
H4150 C4164 0.931 . S
H4151 C4166 0.930 . S
C4152 H4140 0.930 . S
C4152 C4153 1.399 . S
C4152 C4157 1.399 . S
C4153 C4152 1.399 . S
C4153 C4154 1.376 . S
C4154 H4141 0.930 . S
C4154 C4153 1.376 . S
C4154 C4155 1.388 . S
C4155 H4142 0.930 . S
C4155 C4154 1.388 . S
C4155 C4156 1.390 . S
C4156 C4155 1.390 . S
C4156 C4157 1.394 . S
C4156 C4162 1.465 . S
C4157 C4152 1.399 . S
C4157 C4156 1.394 . S
C4157 C4158 1.516 . S
C4158 C4157 1.516 . S
C4158 C4159 1.502 . S
C4158 C4160 1.561 . S
C4158 C4161 1.526 . S
C4159 H4143 0.959 . S
C4159 H4144 0.959 . S
C4159 H4145 0.961 . S
C4159 C4158 1.502 . S
C4160 H4146 0.960 . S
C4160 H4147 0.961 . S
C4160 H4148 0.959 . S
C4160 C4158 1.561 . S
C4161 C4158 1.526 . S
C4161 C4162 1.396 . S
C4161 C4166 1.390 . S
C4162 C4156 1.465 . S
C4162 C4161 1.396 . S
C4162 C4163 1.399 . S
C4163 H4149 0.929 . S
C4163 C4162 1.399 . S
C4163 C4164 1.385 . S
C4164 H4150 0.931 . S
C4164 C4163 1.385 . S
C4164 C4165 1.389 . S
C4165 C4164 1.389 . S
C4165 C4166 1.387 . S
C4166 H4151 0.930 . S
C4166 C4161 1.390 . S
C4166 C4165 1.387 . S
H4167 C4179 0.930 . S
H4168 C4181 0.930 . S
H4169 C4182 0.930 1_455 S
H4170 C4186 0.959 . S
H4171 C4186 0.959 . S
H4172 C4186 0.961 . S
H4173 C4187 0.960 . S
H4174 C4187 0.961 . S
H4175 C4187 0.959 . S
H4176 C4190 0.929 . S
H4177 C4191 0.931 . S
H4178 C4193 0.930 . S
C4179 H4167 0.930 . S
C4179 C4180 1.399 . S
C4179 C4184 1.399 . S
C4180 C4179 1.399 . S
C4180 C4181 1.376 . S
C4181 H4168 0.930 . S
C4181 C4180 1.376 . S
C4181 C4182 1.388 . S
C4182 H4169 0.930 1_655 S
C4182 C4181 1.388 . S
C4182 C4183 1.390 . S
C4183 C4182 1.390 . S
C4183 C4184 1.394 . S
C4183 C4189 1.465 . S
C4184 C4179 1.399 . S
C4184 C4183 1.394 . S
C4184 C4185 1.516 . S
C4185 C4184 1.516 . S
C4185 C4186 1.502 . S
C4185 C4187 1.561 . S
C4185 C4188 1.526 . S
C4186 H4170 0.959 . S
C4186 H4171 0.959 . S
C4186 H4172 0.961 . S
C4186 C4185 1.502 . S
C4187 H4173 0.960 . S
C4187 H4174 0.961 . S
C4187 H4175 0.959 . S
C4187 C4185 1.561 . S
C4188 C4185 1.526 . S
C4188 C4189 1.396 . S
C4188 C4193 1.390 . S
C4189 C4183 1.465 . S
C4189 C4188 1.396 . S
C4189 C4190 1.399 1_655 S
C4190 H4176 0.929 . S
C4190 C4189 1.399 1_455 S
C4190 C4191 1.385 . S
C4191 H4177 0.931 . S
C4191 C4190 1.385 . S
C4191 C4192 1.389 1_455 S
C4192 C4191 1.389 1_655 S
C4192 C4193 1.387 . S
C4193 H4178 0.930 . S
C4193 C4188 1.390 . S
C4193 C4192 1.387 . S
H4194 C4206 0.930 . S
H4195 C4208 0.930 . S
H4196 C4209 0.930 . S
H4197 C4213 0.959 . S
H4198 C4213 0.959 . S
H4199 C4213 0.961 . S
H4200 C4214 0.960 . S
H4201 C4214 0.961 . S
H4202 C4214 0.959 . S
H4203 C4217 0.929 . S
H4204 C4218 0.931 . S
H4205 C4220 0.930 . S
C4206 H4194 0.930 . S
C4206 C4207 1.399 . S
C4206 C4211 1.399 . S
C4207 C4206 1.399 . S
C4207 C4208 1.376 . S
C4208 H4195 0.930 . S
C4208 C4207 1.376 . S
C4208 C4209 1.388 . S
C4209 H4196 0.930 . S
C4209 C4208 1.388 . S
C4209 C4210 1.390 . S
C4210 C4209 1.390 . S
C4210 C4211 1.394 . S
C4210 C4216 1.465 . S
C4211 C4206 1.399 . S
C4211 C4210 1.394 . S
C4211 C4212 1.516 . S
C4212 C4211 1.516 . S
C4212 C4213 1.502 . S
C4212 C4214 1.561 . S
C4212 C4215 1.526 . S
C4213 H4197 0.959 . S
C4213 H4198 0.959 . S
C4213 H4199 0.961 . S
C4213 C4212 1.502 . S
C4214 H4200 0.960 . S
C4214 H4201 0.961 . S
C4214 H4202 0.959 . S
C4214 C4212 1.561 . S
C4215 C4212 1.526 . S
C4215 C4216 1.396 . S
C4215 C4220 1.390 . S
C4216 C4210 1.465 . S
C4216 C4215 1.396 . S
C4216 C4217 1.399 . S
C4217 H4203 0.929 . S
C4217 C4216 1.399 . S
C4217 C4218 1.385 . S
C4218 H4204 0.931 . S
C4218 C4217 1.385 . S
C4218 C4219 1.389 . S
C4219 C4218 1.389 . S
C4219 C4220 1.387 . S
C4220 H4205 0.930 . S
C4220 C4215 1.390 . S
C4220 C4219 1.387 . S
H4221 C4233 0.896 1_565 S
H4222 C4235 0.930 . S
H4223 C4236 0.930 . S
H4224 C4240 0.959 . S
H4225 C4240 0.959 . S
H4226 C4240 0.961 . S
H4227 C4241 0.960 . S
H4228 C4241 0.961 . S
H4229 C4241 0.959 . S
H4230 C4244 0.929 . S
H4231 C4245 0.931 . S
H4232 C4247 0.930 . S
C4233 H4221 0.896 1_545 S
C4233 C4234 1.415 . S
C4233 C4238 1.421 . S
C4234 C4233 1.415 . S
C4234 C4235 1.376 . S
C4235 H4222 0.930 . S
C4235 C4234 1.376 . S
C4235 C4236 1.388 . S
C4236 H4223 0.930 . S
C4236 C4235 1.388 . S
C4236 C4237 1.390 . S
C4237 C4236 1.390 . S
C4237 C4238 1.394 . S
C4237 C4243 1.465 . S
C4238 C4233 1.421 . S
C4238 C4237 1.394 . S
C4238 C4239 1.516 1_545 S
C4239 C4238 1.516 1_565 S
C4239 C4240 1.502 . S
C4239 C4241 1.561 . S
C4239 C4242 1.526 . S
C4240 H4224 0.959 . S
C4240 H4225 0.959 . S
C4240 H4226 0.961 . S
C4240 C4239 1.502 . S
C4241 H4227 0.960 . S
C4241 H4228 0.961 . S
C4241 H4229 0.959 . S
C4241 C4239 1.561 . S
C4242 C4239 1.526 . S
C4242 C4243 1.396 1_565 S
C4242 C4247 1.390 . S
C4243 C4237 1.465 . S
C4243 C4242 1.396 1_545 S
C4243 C4244 1.399 . S
C4244 H4230 0.929 . S
C4244 C4243 1.399 . S
C4244 C4245 1.385 . S
C4245 H4231 0.931 . S
C4245 C4244 1.385 . S
C4245 C4246 1.389 . S
C4246 C4245 1.389 . S
C4246 C4247 1.387 1_545 S
C4247 H4232 0.930 . S
C4247 C4242 1.390 . S
C4247 C4246 1.387 1_565 S
C2317 C7 1.325 . S
C2329 C1307 0.983 1_655 S
C2344 C23 1.746 . S
C2356 C1447 1.174 . S
C2383 C1535 1.195 . S
C2371 C37 1.375 . S
C2398 C35 1.444 1_545 S
C2410 C1675 0.950 1_565 S
C2425 C9 1.343 . S
C2437 C1789 1.019 . S
C2452 C21 1.699 . S
C2464 C1877 1.380 . S
C2479 C49 1.316 . S
C2491 C1763 1.038 . S
C2518 C1903 1.444 . S
C2506 C65 1.644 . S
C2545 C1649 1.187 . S
C2533 C79 1.376 . S
C2560 C77 1.401 . S
C2572 C1561 0.946 . S
C2599 C1333 1.079 . S
C2587 C51 1.410 . S
C2614 C63 1.612 . S
C2626 C1421 1.572 . S
C2641 C91 1.819 . S
C2653 C1991 1.274 . S
C2668 C107 1.837 . S
C2680 C2131 1.118 . S
C2707 C2219 1.391 . S
C2695 C121 1.808 . S
C2722 C119 1.798 . S
C2734 C307 1.291 . S
C2749 C93 1.884 . S
C2761 C421 1.246 . S
C2776 C105 1.825 . S
C2788 C509 1.367 . S
C2803 C133 1.496 . S
C2815 C395 1.470 . S
C2830 C149 1.711 . S
C2842 C535 1.546 . S
C2869 C281 1.503 . S
C2857 C163 1.718 . S
C2896 C2245 1.729 . S
C2884 C161 1.883 . S
C2923 C2017 1.486 . S
C2911 C135 1.743 . S
C2950 C2105 1.654 . S
C2938 C147 1.741 . S
C2965 C175 1.609 . S
C2977 C623 1.258 . S
C2992 C191 1.825 . S
C3004 C763 1.246 . S
C3019 C205 1.828 . S
C3031 C851 1.406 . S
C3046 C203 1.971 . S
C3058 C991 1.368 . S
C3085 C1105 1.187 . S
C3073 C177 1.870 . S
C3112 C1193 1.430 . S
C3100 C189 1.799 . S
C3139 C1079 1.599 . S
C3127 C217 1.721 . S
C3166 C1219 1.542 . S
C3154 C233 1.732 . S
C3181 C247 1.685 . S
C3193 C965 1.472 . S
C3220 C877 1.570 . S
C3208 C245 1.690 . S
C3235 C219 1.776 . S
C3247 C649 1.467 . S
C3274 C737 1.569 . S
C3262 C231 1.720 . S
C3301 C263 0.918 . S
C3289 C8 1.853 . S
C3316 C17 1.605 . S
C3328 C377 0.914 . S
C3355 C481 1.357 . S
C3343 C31 1.721 . S
C3382 C595 1.319 . S
C3370 C36 1.687 . S
C3409 C719 0.929 . S
C3397 C3 1.777 . S
C3436 C823 1.149 . S
C3424 C22 1.678 . S
C3451 C50 1.964 . S
C3463 C833 1.533 . S
C3478 C59 1.727 . S
C3490 C605 1.270 . S
C3505 C73 1.861 . S
C3517 C709 1.627 . S
C3532 C78 1.848 . S
C3544 C367 1.624 . S
C3571 C491 1.426 . S
C3559 C45 1.894 . S
C3586 C64 1.771 . S
C3598 C253 1.514 . S
C3625 C947 1.004 . S
C3613 C92 1.766 . S
C3640 C101 1.805 . S
C3652 C1061 1.034 . S
C3667 C115 1.798 . S
C3679 C1165 1.302 . S
C3706 C1279 1.147 . S
C3694 C120 1.287 . S
C3721 C87 1.711 . S
C3733 C1403 1.007 . S
C3748 C106 1.313 . S
C3760 C1507 0.989 . S
C3775 C134 1.442 . S
C3787 C1517 1.027 1_565 S
C3802 C143 1.351 . S
C3814 C1289 0.912 1_455 S
C3841 C1393 1.514 . S
C3829 C157 1.774 . S
C3856 C162 1.733 . S
C3868 C1051 1.578 . S
C3883 C129 1.905 . S
C3895 C1175 1.540 . S
C3922 C937 1.748 . S
C3910 C148 1.945 . S
C3949 C1631 0.814 . S
C3937 C176 1.438 . S
C3964 C185 1.340 . S
C3976 C1745 0.766 . S
C3991 C199 1.677 . S
C4003 C1849 1.170 . S
C4030 C1963 1.123 . S
C4018 C204 1.611 . S
C4057 C2087 1.049 . S
C4045 C171 1.817 . S
C4072 C190 1.822 . S
C4084 C2191 1.398 . S
C4099 C218 1.860 . S
C4111 C2201 1.348 . S
C4126 C227 1.915 . S
C4138 C1973 1.433 . S
C4165 C2077 1.704 . S
C4153 C241 1.865 . S
C4192 C1735 0.972 1_655 S
C4180 C246 1.262 . S
C4219 C1859 1.460 . S
C4207 C213 1.797 . S
C4234 C232 1.352 . S
C4246 C1621 1.195 1_545 S
