# Generated by pormake.
# Topology pto, (3,4)-cn, num edge types: 1
# Building blocks:
#     Node 0, Type 0, BuildingBlock: WUSLED_clean_sbu_0, # of connection points: 3
#     Node 1, Type 0, BuildingBlock: WUSLED_clean_sbu_0, # of connection points: 3
#     Node 2, Type 0, BuildingBlock: WUSLED_clean_sbu_0, # of connection points: 3
#     Node 3, Type 0, BuildingBlock: WUSLED_clean_sbu_0, # of connection points: 3
#     Node 4, Type 0, BuildingBlock: WUSLED_clean_sbu_0, # of connection points: 3
#     Node 5, Type 0, BuildingBlock: WUSLED_clean_sbu_0, # of connection points: 3
#     Node 6, Type 0, BuildingBlock: WUSLED_clean_sbu_0, # of connection points: 3
#     Node 7, Type 0, BuildingBlock: WUSLED_clean_sbu_0, # of connection points: 3
#     Node 8, Type 1, BuildingBlock: MUDLON_clean_linker_0, # of connection points: 4
#     Node 9, Type 1, BuildingBlock: MUDLON_clean_linker_0, # of connection points: 4
#     Node 10, Type 1, BuildingBlock: MUDLON_clean_linker_0, # of connection points: 4
#     Node 11, Type 1, BuildingBlock: MUDLON_clean_linker_0, # of connection points: 4
#     Node 12, Type 1, BuildingBlock: MUDLON_clean_linker_0, # of connection points: 4
#     Node 13, Type 1, BuildingBlock: MUDLON_clean_linker_0, # of connection points: 4
#     Edge 14, Type (0, 1), BuildingBlock: XIVTED_clean_linker_0, # of connection points: 2
#     Edge 15, Type (0, 1), BuildingBlock: XIVTED_clean_linker_0, # of connection points: 2
#     Edge 16, Type (0, 1), BuildingBlock: XIVTED_clean_linker_0, # of connection points: 2
#     Edge 17, Type (0, 1), BuildingBlock: XIVTED_clean_linker_0, # of connection points: 2
#     Edge 18, Type (0, 1), BuildingBlock: XIVTED_clean_linker_0, # of connection points: 2
#     Edge 19, Type (0, 1), BuildingBlock: XIVTED_clean_linker_0, # of connection points: 2
#     Edge 20, Type (0, 1), BuildingBlock: XIVTED_clean_linker_0, # of connection points: 2
#     Edge 21, Type (0, 1), BuildingBlock: XIVTED_clean_linker_0, # of connection points: 2
#     Edge 22, Type (0, 1), BuildingBlock: XIVTED_clean_linker_0, # of connection points: 2
#     Edge 23, Type (0, 1), BuildingBlock: XIVTED_clean_linker_0, # of connection points: 2
#     Edge 24, Type (0, 1), BuildingBlock: XIVTED_clean_linker_0, # of connection points: 2
#     Edge 25, Type (0, 1), BuildingBlock: XIVTED_clean_linker_0, # of connection points: 2
#     Edge 26, Type (0, 1), BuildingBlock: XIVTED_clean_linker_0, # of connection points: 2
#     Edge 27, Type (0, 1), BuildingBlock: XIVTED_clean_linker_0, # of connection points: 2
#     Edge 28, Type (0, 1), BuildingBlock: XIVTED_clean_linker_0, # of connection points: 2
#     Edge 29, Type (0, 1), BuildingBlock: XIVTED_clean_linker_0, # of connection points: 2
#     Edge 30, Type (0, 1), BuildingBlock: XIVTED_clean_linker_0, # of connection points: 2
#     Edge 31, Type (0, 1), BuildingBlock: XIVTED_clean_linker_0, # of connection points: 2
#     Edge 32, Type (0, 1), BuildingBlock: XIVTED_clean_linker_0, # of connection points: 2
#     Edge 33, Type (0, 1), BuildingBlock: XIVTED_clean_linker_0, # of connection points: 2
#     Edge 34, Type (0, 1), BuildingBlock: XIVTED_clean_linker_0, # of connection points: 2
#     Edge 35, Type (0, 1), BuildingBlock: XIVTED_clean_linker_0, # of connection points: 2
#     Edge 36, Type (0, 1), BuildingBlock: XIVTED_clean_linker_0, # of connection points: 2
#     Edge 37, Type (0, 1), BuildingBlock: XIVTED_clean_linker_0, # of connection points: 2
# Relax obj value: 0.005
# Max RMSD: 0.037
# Mean RMSD: 0.021
data_MOF--net-pto--node1-WUSLED_clean_sbu_0--node2-MUDLON_clean_linker_0--edge1-XIVTED_clean_linker_0
_symmetry_space_group_name_H-M    P1
_symmetry_Int_Tables_number       1
_symmetry_cell_setting            triclinic
loop_
_symmetry_equiv_pos_as_xyz
'x, y, z'
_cell_length_a     49.669759
_cell_length_b     83.23229
_cell_length_c     66.927482
_cell_angle_alpha  89.544746
_cell_angle_beta   90.580626
_cell_angle_gamma 90.611694
loop_
_atom_site_label
_atom_site_type_symbol
_atom_site_fract_x
_atom_site_fract_y
_atom_site_fract_z
_atom_type_partial_charge
C0 C 0.22581 0.23253 0.36194 0.0
C1 C 0.23719 0.21875 0.3537 0.0
C2 C 0.22112 0.20263 0.38181 0.0
C3 C 0.2349 0.20391 0.36357 0.0
C4 C 0.21017 0.21659 0.39009 0.0
C5 C 0.21248 0.23138 0.38022 0.0
U6 U 0.24941 0.25907 0.31863 0.0
O7 O 0.22716 0.27724 0.30122 0.0
O8 O 0.26331 0.28423 0.31832 0.0
C9 C 0.24249 0.28911 0.30769 0.0
C10 C 0.22708 0.24809 0.35146 0.0
C11 C 0.22805 0.303 0.31557 0.0
C12 C 0.20888 0.31768 0.34317 0.0
C13 C 0.22277 0.30439 0.33604 0.0
C14 C 0.20513 0.32822 0.30943 0.0
C15 C 0.19984 0.32977 0.32995 0.0
C16 C 0.21913 0.31498 0.30234 0.0
C17 C 0.2932 0.2419 0.27771 0.0
C18 C 0.29943 0.25448 0.24515 0.0
C19 C 0.33076 0.23433 0.25696 0.0
C20 C 0.31618 0.23267 0.27463 0.0
C21 C 0.32256 0.24524 0.24196 0.0
C22 C 0.28497 0.25289 0.26289 0.0
C23 C 0.27832 0.24008 0.29651 0.0
O24 O 0.25086 0.25516 0.35119 0.0
O25 O 0.2145 0.2486 0.3341 0.0
O26 O 0.25196 0.24098 0.29501 0.0
O27 O 0.28835 0.24808 0.31177 0.0
H28 H 0.24754 0.21945 0.33954 0.0
H29 H 0.24337 0.19339 0.35671 0.0
H30 H 0.19986 0.2161 0.40427 0.0
H31 H 0.20368 0.24193 0.38682 0.0
H32 H 0.20547 0.31854 0.35908 0.0
H33 H 0.2294 0.29522 0.3465 0.0
H34 H 0.19806 0.33709 0.29874 0.0
H35 H 0.22286 0.31404 0.28647 0.0
H36 H 0.29231 0.26286 0.23387 0.0
H37 H 0.34873 0.22724 0.25523 0.0
H38 H 0.32295 0.22423 0.28597 0.0
H39 H 0.26735 0.26021 0.26502 0.0
C40 C 0.22132 0.7883 0.66221 0.0
C41 C 0.23078 0.80252 0.67109 0.0
C42 C 0.21642 0.81795 0.64182 0.0
C43 C 0.22834 0.81724 0.66098 0.0
C44 C 0.20727 0.80358 0.63297 0.0
C45 C 0.20968 0.78891 0.64309 0.0
U46 U 0.24765 0.76209 0.70505 0.0
O47 O 0.22713 0.74325 0.72256 0.0
O48 O 0.26238 0.73726 0.7047 0.0
C49 C 0.24254 0.73182 0.7158 0.0
C50 C 0.22338 0.77275 0.67263 0.0
C51 C 0.22814 0.71759 0.70818 0.0
C52 C 0.19909 0.70468 0.68354 0.0
C53 C 0.21356 0.71819 0.69013 0.0
C54 C 0.21388 0.68986 0.71291 0.0
C55 C 0.19888 0.6904 0.69497 0.0
C56 C 0.22836 0.70335 0.71944 0.0
C57 C 0.2928 0.78003 0.74608 0.0
C58 C 0.33249 0.77093 0.76441 0.0
C59 C 0.29835 0.786 0.78145 0.0
C60 C 0.28346 0.78709 0.76366 0.0
C61 C 0.3231 0.77794 0.78205 0.0
C62 C 0.31754 0.77195 0.74664 0.0
C63 C 0.27688 0.78151 0.72731 0.0
O64 O 0.24732 0.76618 0.67253 0.0
O65 O 0.21169 0.7719 0.69015 0.0
O66 O 0.25064 0.77994 0.7291 0.0
O67 O 0.28628 0.7742 0.71152 0.0
H68 H 0.23988 0.80224 0.68587 0.0
H69 H 0.23539 0.82807 0.6683 0.0
H70 H 0.19846 0.80362 0.6181 0.0
H71 H 0.20244 0.77802 0.63597 0.0
H72 H 0.18753 0.70554 0.66978 0.0
H73 H 0.21311 0.72916 0.6813 0.0
H74 H 0.21445 0.679 0.72191 0.0
H75 H 0.23956 0.70269 0.73339 0.0
H76 H 0.35168 0.76489 0.7642 0.0
H77 H 0.29032 0.79139 0.79478 0.0
H78 H 0.26457 0.79348 0.76366 0.0
H79 H 0.32551 0.76649 0.73335 0.0
C80 C 0.73418 0.77962 0.27786 0.0
C81 C 0.72793 0.76429 0.27048 0.0
C82 C 0.70366 0.77624 0.24232 0.0
C83 C 0.71274 0.76261 0.2529 0.0
C84 C 0.7102 0.79158 0.24977 0.0
C85 C 0.72531 0.79324 0.2674 0.0
U86 U 0.78055 0.76221 0.31771 0.0
O87 O 0.8166 0.77267 0.33222 0.0
O88 O 0.78173 0.76547 0.35025 0.0
C89 C 0.80534 0.77276 0.3499 0.0
C90 C 0.75025 0.78152 0.29625 0.0
C91 C 0.80721 0.78806 0.3607 0.0
C92 C 0.78872 0.81385 0.37005 0.0
C93 C 0.78685 0.7996 0.35911 0.0
C94 C 0.83162 0.80533 0.3838 0.0
C95 C 0.81103 0.81682 0.38269 0.0
C96 C 0.82966 0.7911 0.37295 0.0
C97 C 0.80108 0.71821 0.31379 0.0
C98 C 0.82849 0.70481 0.33903 0.0
C99 C 0.8172 0.69122 0.30812 0.0
C100 C 0.80268 0.70462 0.30168 0.0
C101 C 0.83039 0.69117 0.32683 0.0
C102 C 0.81401 0.71825 0.33253 0.0
C103 C 0.78627 0.7323 0.30647 0.0
O104 O 0.7414 0.77349 0.3119 0.0
O105 O 0.77642 0.78048 0.29396 0.0
O106 O 0.80128 0.74421 0.29973 0.0
O107 O 0.76647 0.73707 0.3178 0.0
H108 H 0.73472 0.75363 0.27835 0.0
H109 H 0.70779 0.75062 0.24778 0.0
H110 H 0.70391 0.80233 0.24188 0.0
H111 H 0.73015 0.80517 0.27282 0.0
H112 H 0.77242 0.82236 0.36895 0.0
H113 H 0.76939 0.7975 0.34962 0.0
H114 H 0.84934 0.80735 0.39303 0.0
H115 H 0.84567 0.78239 0.37421 0.0
H116 H 0.83866 0.70523 0.35341 0.0
H117 H 0.81797 0.68085 0.29848 0.0
H118 H 0.79277 0.70439 0.28719 0.0
H119 H 0.81307 0.72871 0.34202 0.0
C120 C 0.76558 0.20953 0.69051 0.0
C121 C 0.77321 0.21289 0.67076 0.0
C122 C 0.77371 0.18425 0.66345 0.0
C123 C 0.77713 0.20036 0.65732 0.0
C124 C 0.76637 0.18098 0.68333 0.0
C125 C 0.76229 0.19352 0.69671 0.0
U126 U 0.77636 0.25263 0.70843 0.0
O127 O 0.74761 0.26954 0.72121 0.0
O128 O 0.78266 0.26178 0.73887 0.0
C129 C 0.75989 0.26969 0.73869 0.0
C130 C 0.76094 0.22253 0.7048 0.0
C131 C 0.74248 0.26686 0.75599 0.0
C132 C 0.71548 0.24904 0.77681 0.0
C133 C 0.73225 0.25147 0.76035 0.0
C134 C 0.71906 0.27737 0.78463 0.0
C135 C 0.70859 0.26199 0.78909 0.0
C136 C 0.73585 0.27976 0.76822 0.0
C137 C 0.82115 0.28196 0.67962 0.0
C138 C 0.82004 0.31107 0.6825 0.0
C139 C 0.86016 0.29815 0.67045 0.0
C140 C 0.84752 0.28314 0.67246 0.0
C141 C 0.84658 0.31228 0.67546 0.0
C142 C 0.80749 0.29603 0.68469 0.0
C143 C 0.80858 0.26595 0.68212 0.0
O144 O 0.78203 0.22699 0.71548 0.0
O145 O 0.74677 0.23469 0.69799 0.0
O146 O 0.78227 0.2652 0.67977 0.0
O147 O 0.81734 0.25756 0.69753 0.0
H148 H 0.77609 0.22519 0.66574 0.0
H149 H 0.78312 0.20326 0.64219 0.0
H150 H 0.76333 0.16873 0.68846 0.0
H151 H 0.75643 0.19071 0.7119 0.0
H152 H 0.70752 0.23709 0.7797 0.0
H153 H 0.73713 0.24137 0.75098 0.0
H154 H 0.71446 0.28755 0.79392 0.0
H155 H 0.74365 0.29172 0.76507 0.0
H156 H 0.80919 0.32172 0.68669 0.0
H157 H 0.88051 0.2987 0.6648 0.0
H158 H 0.85841 0.27243 0.6685 0.0
H159 H 0.78721 0.2954 0.69046 0.0
C160 C 0.79976 0.71479 0.71246 0.0
C161 C 0.82094 0.71662 0.69889 0.0
C162 C 0.8277 0.68763 0.699 0.0
C163 C 0.83483 0.70317 0.69226 0.0
C164 C 0.8061 0.68591 0.71233 0.0
C165 C 0.79231 0.69937 0.71901 0.0
U166 U 0.7798 0.75894 0.70916 0.0
O167 O 0.74127 0.77044 0.71552 0.0
O168 O 0.7774 0.77699 0.73294 0.0
C169 C 0.75122 0.77846 0.7308 0.0
C170 C 0.78556 0.72883 0.72016 0.0
C171 C 0.73561 0.77749 0.74932 0.0
C172 C 0.70911 0.7624 0.77353 0.0
C173 C 0.72486 0.76285 0.75629 0.0
C174 C 0.71542 0.79114 0.77724 0.0
C175 C 0.70393 0.77659 0.78408 0.0
C176 C 0.73104 0.79157 0.76002 0.0
C177 C 0.80295 0.78563 0.66622 0.0
C178 C 0.79676 0.81457 0.66641 0.0
C179 C 0.80923 0.80128 0.63583 0.0
C180 C 0.80925 0.78649 0.64589 0.0
C181 C 0.80296 0.81549 0.64596 0.0
C182 C 0.79663 0.79975 0.67643 0.0
C183 C 0.80237 0.76992 0.67644 0.0
O184 O 0.80106 0.74058 0.72678 0.0
O185 O 0.76518 0.73386 0.70921 0.0
O186 O 0.77877 0.76265 0.67656 0.0
O187 O 0.81495 0.76928 0.69381 0.0
H188 H 0.82694 0.72846 0.69363 0.0
H189 H 0.85154 0.70499 0.68219 0.0
H190 H 0.79975 0.67413 0.71757 0.0
H191 H 0.77589 0.69774 0.72939 0.0
H192 H 0.70042 0.75103 0.77827 0.0
H193 H 0.72832 0.75182 0.74826 0.0
H194 H 0.71233 0.80223 0.7852 0.0
H195 H 0.73938 0.80295 0.75493 0.0
H196 H 0.79156 0.82526 0.67457 0.0
H197 H 0.8144 0.80161 0.62015 0.0
H198 H 0.81412 0.77571 0.63777 0.0
H199 H 0.79144 0.79929 0.69211 0.0
C200 C 0.73308 0.23927 0.2783 0.0
C201 C 0.71548 0.25229 0.27612 0.0
C202 C 0.70222 0.24314 0.24288 0.0
C203 C 0.70012 0.25414 0.25865 0.0
C204 C 0.72002 0.23018 0.24512 0.0
C205 C 0.73519 0.22825 0.26267 0.0
U206 U 0.78086 0.2559 0.31815 0.0
O207 O 0.78285 0.25174 0.35058 0.0
O208 O 0.81703 0.24521 0.33187 0.0
C209 C 0.80615 0.24444 0.34968 0.0
C210 C 0.74968 0.23712 0.29653 0.0
C211 C 0.8074 0.22865 0.35967 0.0
C212 C 0.78796 0.20237 0.36711 0.0
C213 C 0.78663 0.21724 0.35725 0.0
C214 C 0.83112 0.21003 0.38152 0.0
C215 C 0.81022 0.19861 0.37938 0.0
C216 C 0.82968 0.22492 0.37178 0.0
C217 C 0.8018 0.30029 0.31446 0.0
C218 C 0.83025 0.31368 0.33908 0.0
C219 C 0.81773 0.32755 0.30845 0.0
C220 C 0.80292 0.31407 0.30234 0.0
C221 C 0.83169 0.3275 0.32684 0.0
C222 C 0.81548 0.30015 0.3329 0.0
C223 C 0.78671 0.28614 0.30738 0.0
O224 O 0.77582 0.23832 0.29394 0.0
O225 O 0.74143 0.24444 0.31267 0.0
O226 O 0.76726 0.28095 0.31903 0.0
O227 O 0.80143 0.27452 0.30027 0.0
H228 H 0.71352 0.26104 0.28789 0.0
H229 H 0.68635 0.26412 0.25764 0.0
H230 H 0.72252 0.22161 0.23321 0.0
H231 H 0.74877 0.21819 0.26399 0.0
H232 H 0.77169 0.19377 0.36498 0.0
H233 H 0.76935 0.21985 0.3478 0.0
H234 H 0.84838 0.20757 0.39104 0.0
H235 H 0.84591 0.23358 0.37379 0.0
H236 H 0.841 0.3132 0.35323 0.0
H237 H 0.81812 0.33806 0.2988 0.0
H238 H 0.79243 0.31437 0.28806 0.0
H239 H 0.8149 0.28956 0.3424 0.0
C240 C 0.2244 0.22993 0.66077 0.0
C241 C 0.24547 0.21892 0.66308 0.0
C242 C 0.22122 0.19961 0.64227 0.0
C243 C 0.24396 0.20393 0.65381 0.0
C244 C 0.2001 0.21065 0.64015 0.0
C245 C 0.20172 0.22568 0.64929 0.0
U246 U 0.24998 0.25684 0.70257 0.0
O247 O 0.26408 0.28198 0.70215 0.0
O248 O 0.22913 0.27502 0.72019 0.0
C249 C 0.24403 0.28688 0.71317 0.0
C250 C 0.22555 0.2457 0.67056 0.0
C251 C 0.22897 0.30063 0.70513 0.0
C252 C 0.20234 0.31307 0.67872 0.0
C253 C 0.21732 0.3001 0.68596 0.0
C254 C 0.21057 0.32724 0.70972 0.0
C255 C 0.19861 0.32677 0.69057 0.0
C256 C 0.22561 0.31428 0.71691 0.0
C257 C 0.29626 0.23823 0.74245 0.0
C258 C 0.32053 0.25348 0.76782 0.0
C259 C 0.31973 0.22438 0.76934 0.0
C260 C 0.30381 0.22395 0.75204 0.0
C261 C 0.32851 0.23913 0.77736 0.0
C262 C 0.3045 0.25303 0.75049 0.0
C263 C 0.27989 0.23735 0.7241 0.0
O264 O 0.214 0.24627 0.68811 0.0
O265 O 0.249 0.25317 0.67008 0.0
O266 O 0.28904 0.24556 0.70869 0.0
O267 O 0.2538 0.23872 0.72652 0.0
H268 H 0.26304 0.22191 0.67209 0.0
H269 H 0.26041 0.19562 0.6559 0.0
H270 H 0.18246 0.20775 0.63118 0.0
H271 H 0.18525 0.234 0.64739 0.0
H272 H 0.19374 0.31238 0.66382 0.0
H273 H 0.2197 0.28962 0.67666 0.0
H274 H 0.2078 0.33746 0.71936 0.0
H275 H 0.23436 0.31483 0.73179 0.0
H276 H 0.3271 0.26504 0.77349 0.0
H277 H 0.32504 0.21312 0.77649 0.0
H278 H 0.29743 0.21243 0.74611 0.0
H279 H 0.29872 0.26419 0.74328 0.0
C280 C 0.20739 0.73361 0.3507 0.0
C281 C 0.21708 0.72015 0.34064 0.0
C282 C 0.18402 0.70298 0.35732 0.0
C283 C 0.20554 0.70496 0.34395 0.0
C284 C 0.17438 0.71659 0.36727 0.0
C285 C 0.186 0.73174 0.364 0.0
U286 U 0.24965 0.76236 0.31936 0.0
O287 O 0.24281 0.78766 0.31105 0.0
O288 O 0.27904 0.781 0.32812 0.0
C289 C 0.2641 0.79274 0.32106 0.0
C290 C 0.21904 0.74967 0.34717 0.0
C291 C 0.25948 0.80618 0.33476 0.0
C292 C 0.25188 0.81654 0.36807 0.0
C293 C 0.256 0.80357 0.35533 0.0
C294 C 0.2541 0.83484 0.33979 0.0
C295 C 0.25088 0.83233 0.36044 0.0
C296 C 0.25844 0.82189 0.32709 0.0
C297 C 0.28201 0.7467 0.27191 0.0
C298 C 0.31039 0.76351 0.25085 0.0
C299 C 0.3021 0.73566 0.24218 0.0
C300 C 0.28597 0.73378 0.25904 0.0
C301 C 0.31459 0.75053 0.23791 0.0
C302 C 0.29421 0.7616 0.26771 0.0
C303 C 0.26539 0.74437 0.28973 0.0
O304 O 0.24541 0.75074 0.34879 0.0
O305 O 0.20938 0.75735 0.33148 0.0
O306 O 0.24242 0.75206 0.2896 0.0
O307 O 0.27837 0.7453 0.3069 0.0
H308 H 0.23355 0.7214 0.33023 0.0
H309 H 0.21366 0.69476 0.33619 0.0
H310 H 0.15753 0.7156 0.37736 0.0
H311 H 0.17814 0.74203 0.37176 0.0
H312 H 0.24911 0.8142 0.38387 0.0
H313 H 0.25646 0.79151 0.36154 0.0
H314 H 0.25366 0.84687 0.33349 0.0
H315 H 0.26105 0.82413 0.31126 0.0
H316 H 0.31946 0.77516 0.24788 0.0
H317 H 0.30523 0.72536 0.23273 0.0
H318 H 0.27675 0.72217 0.26213 0.0
H319 H 0.29127 0.77172 0.27752 0.0
H320 H 0.99243 0.42676 0.41068 0.0
N321 N 0.01615 0.44937 0.38874 0.0
H322 H 0.95624 0.4084 0.40048 0.0
H323 H 0.98674 0.45151 0.35408 0.0
H324 H 0.95002 0.4334 0.34377 0.0
H325 H 0.03378 0.44257 0.35117 0.0
H326 H 0.07042 0.42454 0.34296 0.0
H327 H 0.05276 0.43743 0.41383 0.0
H328 H 0.08984 0.41946 0.40575 0.0
H329 H 0.98355 0.46822 0.40891 0.0
H330 H 0.04542 0.47 0.36408 0.0
H331 H 0.98069 0.4974 0.40782 0.0
H332 H 0.04383 0.4991 0.36383 0.0
H333 H 0.98721 0.59111 0.41286 0.0
H334 H 0.95134 0.60942 0.40277 0.0
H335 H 0.94614 0.58612 0.34534 0.0
H336 H 0.98247 0.56825 0.35538 0.0
H337 H 0.02885 0.58133 0.35405 0.0
H338 H 0.06496 0.60087 0.34881 0.0
H339 H 0.08727 0.59704 0.4113 0.0
H340 H 0.04995 0.57812 0.41652 0.0
H341 H 0.00368 0.54916 0.41977 0.0
H342 H 0.00452 0.51991 0.41852 0.0
H343 H 0.02038 0.52254 0.35511 0.0
N344 N 0.01188 0.5699 0.39031 0.0
H345 H 0.02114 0.55187 0.35696 0.0
C346 C 0.99223 0.44043 0.3832 0.0
C347 C 0.98285 0.42842 0.39621 0.0
C348 C 0.96211 0.41799 0.39035 0.0
C349 C 0.95024 0.41936 0.37125 0.0
C350 C 0.95897 0.43186 0.35846 0.0
C351 C 0.97981 0.4423 0.36437 0.0
C352 C 0.0406 0.44139 0.38319 0.0
C353 C 0.04627 0.43787 0.36314 0.0
C354 C 0.06731 0.42758 0.35846 0.0
C355 C 0.08292 0.42046 0.37372 0.0
C356 C 0.07797 0.42459 0.39368 0.0
C357 C 0.05702 0.43497 0.39832 0.0
C358 C 0.01462 0.46669 0.38672 0.0
C359 C 0.99655 0.47488 0.39884 0.0
C360 C 0.99518 0.49163 0.39834 0.0
C361 C 0.01231 0.50076 0.38594 0.0
C362 C 0.0301 0.49255 0.37344 0.0
C363 C 0.03115 0.47572 0.3737 0.0
C364 C 0.98754 0.57829 0.385 0.0
C365 C 0.97785 0.58975 0.39827 0.0
C366 C 0.95731 0.60018 0.39246 0.0
C367 C 0.94595 0.59935 0.37315 0.0
C368 C 0.95475 0.58729 0.3602 0.0
C369 C 0.9754 0.57689 0.36602 0.0
C370 C 0.03645 0.57848 0.38582 0.0
C371 C 0.04177 0.58448 0.36655 0.0
C372 C 0.06263 0.59564 0.36356 0.0
C373 C 0.0788 0.60084 0.37972 0.0
C374 C 0.07478 0.5937 0.39861 0.0
C375 C 0.0537 0.58272 0.40161 0.0
C376 C 0.01199 0.55268 0.38851 0.0
C377 C 0.0073 0.54337 0.40563 0.0
C378 C 0.00755 0.52662 0.40479 0.0
C379 C 0.01217 0.51871 0.38663 0.0
C380 C 0.01695 0.52813 0.3694 0.0
C381 C 0.01708 0.54495 0.37036 0.0
H382 H 0.99819 0.43937 0.67449 0.0
N383 N 0.01126 0.4477 0.63611 0.0
H384 H 0.96458 0.41929 0.68429 0.0
H385 H 0.97258 0.43528 0.61304 0.0
H386 H 0.93894 0.41502 0.62266 0.0
H387 H 0.03339 0.42727 0.61105 0.0
H388 H 0.07026 0.40876 0.61809 0.0
H389 H 0.04413 0.44843 0.66913 0.0
H390 H 0.08055 0.42961 0.67665 0.0
H391 H 0.98356 0.46662 0.66295 0.0
H392 H 0.04155 0.46813 0.61533 0.0
H393 H 0.98421 0.49571 0.66428 0.0
H394 H 0.0434 0.49732 0.61737 0.0
H395 H 0.99848 0.57678 0.67737 0.0
H396 H 0.96203 0.59442 0.68681 0.0
H397 H 0.93328 0.59504 0.62562 0.0
H398 H 0.97059 0.57776 0.61622 0.0
H399 H 0.03255 0.59128 0.61657 0.0
H400 H 0.06915 0.60984 0.62536 0.0
H401 H 0.08209 0.58357 0.68055 0.0
H402 H 0.04502 0.56548 0.67191 0.0
H403 H 0.00617 0.54867 0.67229 0.0
H404 H 0.00803 0.51938 0.67285 0.0
H405 H 0.0175 0.51954 0.60867 0.0
N406 N 0.01135 0.56826 0.63924 0.0
H407 H 0.01712 0.54884 0.60854 0.0
C408 C 0.98792 0.43882 0.64294 0.0
C409 C 0.98493 0.43442 0.66315 0.0
C410 C 0.9658 0.42284 0.66872 0.0
C411 C 0.94933 0.41538 0.65422 0.0
C412 C 0.95114 0.4206 0.63423 0.0
C413 C 0.97032 0.43218 0.62868 0.0
C414 C 0.03595 0.4391 0.63956 0.0
C415 C 0.04409 0.42807 0.6252 0.0
C416 C 0.06493 0.41741 0.62936 0.0
C417 C 0.07804 0.4175 0.64808 0.0
C418 C 0.07094 0.42924 0.66207 0.0
C419 C 0.05006 0.43996 0.65784 0.0
C420 C 0.01257 0.46495 0.63888 0.0
C421 C 0.99684 0.47306 0.65295 0.0
C422 C 0.99732 0.48988 0.65381 0.0
C423 C 0.01368 0.49901 0.64083 0.0
C424 C 0.03003 0.49081 0.62731 0.0
C425 C 0.02925 0.47407 0.62625 0.0
C426 C 0.98733 0.57602 0.64598 0.0
C427 C 0.98405 0.58042 0.66605 0.0
C428 C 0.96306 0.59052 0.67145 0.0
C429 C 0.94485 0.59636 0.65693 0.0
C430 C 0.94725 0.59107 0.63711 0.0
C431 C 0.96834 0.58105 0.63173 0.0
C432 C 0.036 0.57697 0.64346 0.0
C433 C 0.04373 0.58935 0.63035 0.0
C434 C 0.0647 0.59992 0.63541 0.0
C435 C 0.07849 0.59831 0.65377 0.0
C436 C 0.07161 0.58536 0.66646 0.0
C437 C 0.05051 0.57484 0.66141 0.0
C438 C 0.01189 0.55097 0.64032 0.0
C439 C 0.00899 0.54242 0.65839 0.0
C440 C 0.00977 0.52559 0.65865 0.0
C441 C 0.01311 0.51696 0.64082 0.0
C442 C 0.01559 0.52566 0.62278 0.0
C443 C 0.01515 0.54243 0.62261 0.0
H444 H 0.15313 0.08711 0.52862 0.0
N445 N 0.18929 0.06911 0.51096 0.0
H446 H 0.16077 0.10601 0.55582 0.0
H447 H 0.23521 0.0714 0.53352 0.0
H448 H 0.24318 0.09015 0.56114 0.0
H449 H 0.23751 0.08147 0.49861 0.0
H450 H 0.24375 0.10118 0.47182 0.0
H451 H 0.15362 0.07664 0.4827 0.0
H452 H 0.15978 0.09585 0.45522 0.0
H453 H 0.15137 0.04813 0.52095 0.0
H454 H 0.23396 0.05154 0.50235 0.0
H455 H 0.15373 0.01886 0.52075 0.0
H456 H 0.23639 0.0221 0.50133 0.0
H457 H 0.15263 0.93935 0.53042 0.0
H458 H 0.15529 0.92023 0.5583 0.0
H459 H 0.24175 0.91866 0.55172 0.0
H460 H 0.23885 0.93831 0.52459 0.0
H461 H 0.24241 0.9473 0.49052 0.0
H462 H 0.25519 0.92992 0.46279 0.0
H463 H 0.17209 0.91496 0.45566 0.0
H464 H 0.15971 0.93221 0.48347 0.0
H465 H 0.15436 0.96904 0.49536 0.0
H466 H 0.15523 0.99835 0.49632 0.0
H467 H 0.23601 0.99723 0.52096 0.0
N468 N 0.1925 0.94904 0.50696 0.0
H469 H 0.23512 0.96775 0.51922 0.0
C470 C 0.19352 0.07793 0.52912 0.0
C471 C 0.17263 0.08749 0.53601 0.0
C472 C 0.17707 0.09825 0.5516 0.0
C473 C 0.20265 0.09968 0.56067 0.0
C474 C 0.22334 0.08951 0.55431 0.0
C475 C 0.21881 0.0787 0.53865 0.0
C476 C 0.19495 0.07775 0.49275 0.0
C477 C 0.2206 0.0843 0.48895 0.0
C478 C 0.22414 0.09556 0.47353 0.0
C479 C 0.20214 0.10036 0.46156 0.0
C480 C 0.17702 0.09275 0.46445 0.0
C481 C 0.17348 0.08163 0.47997 0.0
C482 C 0.19227 0.05195 0.51146 0.0
C483 C 0.17002 0.04248 0.51679 0.0
C484 C 0.17139 0.02576 0.51649 0.0
C485 C 0.19512 0.01806 0.51066 0.0
C486 C 0.21782 0.02761 0.50592 0.0
C487 C 0.21644 0.04444 0.50637 0.0
C488 C 0.1954 0.94012 0.52534 0.0
C489 C 0.17217 0.93516 0.53541 0.0
C490 C 0.17375 0.92409 0.55116 0.0
C491 C 0.1987 0.9176 0.55703 0.0
C492 C 0.22221 0.9234 0.54771 0.0
C493 C 0.22058 0.93462 0.53206 0.0
C494 C 0.2001 0.94091 0.48905 0.0
C495 C 0.22698 0.9404 0.48282 0.0
C496 C 0.23424 0.93043 0.46703 0.0
C497 C 0.21466 0.921 0.4571 0.0
C498 C 0.18761 0.92218 0.46284 0.0
C499 C 0.18047 0.93199 0.47871 0.0
C500 C 0.19445 0.96628 0.50739 0.0
C501 C 0.17225 0.97516 0.50089 0.0
C502 C 0.17277 0.9919 0.50162 0.0
C503 C 0.19555 1.0002 0.50904 0.0
C504 C 0.21817 0.99125 0.51511 0.0
C505 C 0.21766 0.9744 0.51425 0.0
H506 H 0.54007 0.72878 0.10904 0.0
N507 N 0.51323 0.74957 0.08643 0.0
H508 H 0.57731 0.7345 0.13217 0.0
H509 H 0.54075 0.77817 0.08929 0.0
H510 H 0.57812 0.78404 0.11235 0.0
H511 H 0.49614 0.77719 0.10428 0.0
H512 H 0.45867 0.77951 0.12716 0.0
H513 H 0.4763 0.72725 0.09493 0.0
H514 H 0.43892 0.72935 0.11833 0.0
H515 H 0.53738 0.73443 0.05699 0.0
H516 H 0.48934 0.77608 0.0688 0.0
H517 H 0.53879 0.74184 0.02165 0.0
H518 H 0.48907 0.78296 0.03359 0.0
H519 H 0.53088 0.75328 0.92315 0.0
H520 H 0.56751 0.7515 0.89919 0.0
H521 H 0.58791 0.80135 0.90972 0.0
H522 H 0.55074 0.80307 0.93331 0.0
H523 H 0.48912 0.80518 0.92367 0.0
H524 H 0.45158 0.80403 0.89984 0.0
H525 H 0.44554 0.75265 0.90904 0.0
H526 H 0.48351 0.75391 0.9323 0.0
H527 H 0.51528 0.75017 0.95678 0.0
H528 H 0.51409 0.74281 0.99204 0.0
H529 H 0.51448 0.79319 0.00757 0.0
N530 N 0.51389 0.78072 0.94115 0.0
H531 H 0.51362 0.80029 0.97211 0.0
C532 C 0.53763 0.75299 0.09753 0.0
C533 C 0.54871 0.74078 0.10943 0.0
C534 C 0.57 0.74408 0.12259 0.0
C535 C 0.58059 0.75976 0.12418 0.0
C536 C 0.57017 0.77189 0.11164 0.0
C537 C 0.54893 0.76854 0.09837 0.0
C538 C 0.48905 0.75197 0.09779 0.0
C539 C 0.48352 0.76674 0.10691 0.0
C540 C 0.46215 0.76803 0.12018 0.0
C541 C 0.44594 0.75457 0.12478 0.0
C542 C 0.45081 0.74 0.115 0.0
C543 C 0.47217 0.73875 0.10165 0.0
C544 C 0.51312 0.75449 0.06566 0.0
C545 C 0.52689 0.74507 0.05192 0.0
C546 C 0.52744 0.74927 0.03166 0.0
C547 C 0.51387 0.76297 0.02456 0.0
C548 C 0.50012 0.77246 0.03842 0.0
C549 C 0.5 0.76839 0.05874 0.0
C550 C 0.53804 0.7784 0.92991 0.0
C551 C 0.54356 0.76372 0.92062 0.0
C552 C 0.56459 0.76271 0.90693 0.0
C553 C 0.5804 0.77635 0.90232 0.0
C554 C 0.57578 0.79071 0.91263 0.0
C555 C 0.55477 0.7917 0.92624 0.0
C556 C 0.48911 0.77972 0.92985 0.0
C557 C 0.47928 0.79374 0.92081 0.0
C558 C 0.45777 0.79304 0.90723 0.0
C559 C 0.44556 0.77822 0.9024 0.0
C560 C 0.45472 0.76423 0.91216 0.0
C561 C 0.47635 0.76496 0.92569 0.0
C562 C 0.51393 0.77583 0.96182 0.0
C563 C 0.51458 0.75962 0.96773 0.0
C564 C 0.51435 0.75543 0.98803 0.0
C565 C 0.51407 0.76737 1.00286 0.0
C566 C 0.51401 0.7836 0.99674 0.0
C567 C 0.51375 0.78773 0.97646 0.0
H568 H 0.77941 0.07534 0.52668 0.0
N569 N 0.83068 0.06828 0.51579 0.0
H570 H 0.76665 0.09243 0.5546 0.0
H571 H 0.86266 0.07906 0.54479 0.0
H572 H 0.85021 0.09614 0.57277 0.0
H573 H 0.86909 0.08653 0.5 0.0
H574 H 0.86455 0.10598 0.47268 0.0
H575 H 0.78665 0.07144 0.49122 0.0
H576 H 0.78201 0.09048 0.4635 0.0
H577 H 0.78633 0.0487 0.5115 0.0
H578 H 0.87252 0.04904 0.51884 0.0
H579 H 0.78623 0.01935 0.50972 0.0
H580 H 0.87269 0.01976 0.51833 0.0
H581 H 0.78663 0.93758 0.52601 0.0
H582 H 0.77541 0.91822 0.55229 0.0
H583 H 0.85825 0.91914 0.57268 0.0
H584 H 0.86909 0.93878 0.5465 0.0
H585 H 0.8765 0.93036 0.50222 0.0
H586 H 0.87279 0.90993 0.47627 0.0
H587 H 0.79006 0.92328 0.46541 0.0
H588 H 0.79435 0.9441 0.49113 0.0
H589 H 0.79454 0.96619 0.52917 0.0
H590 H 0.79192 0.9954 0.52836 0.0
H591 H 0.86786 0.99779 0.49736 0.0
N592 N 0.83727 0.94805 0.51652 0.0
H593 H 0.87105 0.96863 0.49941 0.0
C594 C 0.82205 0.07601 0.5337 0.0
C595 C 0.79487 0.0796 0.53688 0.0
C596 C 0.78765 0.08945 0.55277 0.0
C597 C 0.80744 0.09574 0.56582 0.0
C598 C 0.83444 0.09138 0.56313 0.0
C599 C 0.84162 0.08166 0.54718 0.0
C600 C 0.82836 0.07752 0.49761 0.0
C601 C 0.85023 0.08714 0.49177 0.0
C602 C 0.84757 0.09821 0.47611 0.0
C603 C 0.82284 0.09989 0.46589 0.0
C604 C 0.80122 0.08969 0.47122 0.0
C605 C 0.80392 0.07865 0.48698 0.0
C606 C 0.82959 0.05103 0.51493 0.0
C607 C 0.80525 0.04246 0.51265 0.0
C608 C 0.80523 0.02562 0.51189 0.0
C609 C 0.82949 0.01705 0.51367 0.0
C610 C 0.85367 0.02582 0.51632 0.0
C611 C 0.85366 0.04257 0.51681 0.0
C612 C 0.82878 0.93967 0.53435 0.0
C613 C 0.80219 0.93401 0.5365 0.0
C614 C 0.79586 0.92279 0.55143 0.0
C615 C 0.816 0.91694 0.56443 0.0
C616 C 0.84218 0.92346 0.56306 0.0
C617 C 0.84845 0.9347 0.54814 0.0
C618 C 0.83571 0.93857 0.49866 0.0
C619 C 0.85782 0.92913 0.49384 0.0
C620 C 0.85554 0.91738 0.47919 0.0
C621 C 0.83095 0.91475 0.46908 0.0
C622 C 0.80926 0.925 0.47294 0.0
C623 C 0.81162 0.93685 0.48766 0.0
C624 C 0.83335 0.96515 0.51462 0.0
C625 C 0.81066 0.97293 0.52221 0.0
C626 C 0.80906 0.98975 0.52158 0.0
C627 C 0.82988 0.9991 0.51307 0.0
C628 C 0.8518 0.99112 0.50459 0.0
C629 C 0.85357 0.97441 0.50553 0.0
H630 H 0.52321 0.23806 0.10625 0.0
N631 N 0.51125 0.26577 0.0858 0.0
H632 H 0.56017 0.23431 0.12984 0.0
H633 H 0.55299 0.28553 0.09188 0.0
H634 H 0.59111 0.28161 0.11484 0.0
H635 H 0.4896 0.28733 0.10955 0.0
H636 H 0.45246 0.28333 0.13271 0.0
H637 H 0.47833 0.23918 0.08766 0.0
H638 H 0.44047 0.23515 0.11035 0.0
H639 H 0.53564 0.23946 0.0689 0.0
H640 H 0.48473 0.27999 0.05605 0.0
H641 H 0.5359 0.2327 0.03381 0.0
H642 H 0.48302 0.27253 0.02091 0.0
H643 H 0.54214 0.21388 0.92239 0.0
H644 H 0.57946 0.21816 0.89931 0.0
H645 H 0.57817 0.26902 0.91175 0.0
H646 H 0.54065 0.26468 0.93421 0.0
H647 H 0.49381 0.26343 0.92314 0.0
H648 H 0.45793 0.26462 0.89803 0.0
H649 H 0.44384 0.2136 0.90534 0.0
H650 H 0.48019 0.21251 0.93029 0.0
H651 H 0.51579 0.21596 0.97141 0.0
H652 H 0.51307 0.22222 0.00689 0.0
H653 H 0.50697 0.27274 0.99183 0.0
N654 N 0.51368 0.23608 0.94061 0.0
H655 H 0.50726 0.26611 0.95662 0.0
C656 C 0.53514 0.26223 0.09745 0.0
C657 C 0.538 0.2476 0.10792 0.0
C658 C 0.5594 0.24541 0.12132 0.0
C659 C 0.5786 0.25772 0.12446 0.0
C660 C 0.57643 0.272 0.11315 0.0
C661 C 0.55485 0.27422 0.09986 0.0
C662 C 0.48668 0.26365 0.09689 0.0
C663 C 0.47857 0.27604 0.10942 0.0
C664 C 0.45726 0.27371 0.1226 0.0
C665 C 0.44344 0.25888 0.12348 0.0
C666 C 0.45089 0.24664 0.11028 0.0
C667 C 0.47236 0.24898 0.09713 0.0
C668 C 0.51046 0.26052 0.06524 0.0
C669 C 0.52423 0.24688 0.05864 0.0
C670 C 0.52409 0.24286 0.03838 0.0
C671 C 0.50962 0.25208 0.02424 0.0
C672 C 0.49505 0.26534 0.03108 0.0
C673 C 0.49572 0.26956 0.05126 0.0
C674 C 0.53854 0.23885 0.93013 0.0
C675 C 0.55037 0.22588 0.92044 0.0
C676 C 0.57171 0.22837 0.90728 0.0
C677 C 0.58168 0.24397 0.90352 0.0
C678 C 0.57068 0.25688 0.91402 0.0
C679 C 0.54927 0.25437 0.92713 0.0
C680 C 0.4897 0.23781 0.92858 0.0
C681 C 0.48262 0.25258 0.91974 0.0
C682 C 0.46202 0.25325 0.90535 0.0
C683 C 0.44824 0.23917 0.8995 0.0
C684 C 0.45438 0.22461 0.90925 0.0
C685 C 0.47493 0.22397 0.92363 0.0
C686 C 0.51232 0.24051 0.96134 0.0
C687 C 0.51378 0.22836 0.97588 0.0
C688 C 0.51246 0.23203 0.99619 0.0
C689 C 0.51009 0.24806 1.00249 0.0
C690 C 0.50844 0.26023 0.98775 0.0
C691 C 0.50914 0.25648 0.96742 0.0
H692 H 0.20269 0.36126 0.31723 0.0
H693 H 0.09098 0.39181 0.39307 0.0
H694 H 0.16211 0.33038 0.35973 0.0
H695 H 0.11953 0.42013 0.34317 0.0
H696 H 0.12113 0.37025 0.38359 0.0
H697 H 0.17604 0.38382 0.32874 0.0
C698 C 0.18815 0.35918 0.32893 0.0
C699 C 0.18459 0.3438 0.33741 0.0
C700 C 0.12092 0.38121 0.37476 0.0
C701 C 0.15429 0.36973 0.35089 0.0
C702 C 0.10388 0.3936 0.38027 0.0
C703 C 0.10272 0.40783 0.3689 0.0
C704 C 0.13707 0.38304 0.35778 0.0
C705 C 0.11958 0.40931 0.35225 0.0
C706 C 0.17304 0.37211 0.33557 0.0
C707 C 0.16583 0.342 0.35287 0.0
N708 N 0.13603 0.39707 0.34718 0.0
N709 N 0.15138 0.35478 0.35906 0.0
H710 H 0.19262 0.67804 0.65718 0.0
H711 H 0.0859 0.61077 0.69124 0.0
H712 H 0.16766 0.67055 0.71816 0.0
H713 H 0.11616 0.61459 0.63111 0.0
H714 H 0.1164 0.63239 0.7013 0.0
H715 H 0.16481 0.65495 0.64714 0.0
C716 C 0.18126 0.67156 0.66845 0.0
C717 C 0.18252 0.67625 0.68856 0.0
C718 C 0.11652 0.62845 0.68592 0.0
C719 C 0.15077 0.64975 0.67719 0.0
C720 C 0.09923 0.61597 0.68018 0.0
C721 C 0.09842 0.61076 0.66027 0.0
C722 C 0.13312 0.63592 0.67167 0.0
C723 C 0.1158 0.61831 0.64656 0.0
C724 C 0.16552 0.65832 0.66273 0.0
C725 C 0.16761 0.66728 0.70254 0.0
N726 N 0.13234 0.63054 0.6525 0.0
N727 N 0.15233 0.65453 0.69659 0.0
H728 H 0.86462 0.67323 0.30447 0.0
H729 H 0.90502 0.61346 0.39404 0.0
H730 H 0.83291 0.67697 0.36403 0.0
H731 H 0.94301 0.61389 0.33629 0.0
H732 H 0.87606 0.63541 0.38279 0.0
H733 H 0.89097 0.65012 0.31532 0.0
C734 C 0.86304 0.66912 0.31981 0.0
C735 C 0.84647 0.67706 0.33335 0.0
C736 C 0.89065 0.63063 0.37256 0.0
C737 C 0.87686 0.65061 0.34595 0.0
C738 C 0.90726 0.61812 0.37899 0.0
C739 C 0.92658 0.61178 0.36612 0.0
C740 C 0.89331 0.63687 0.35311 0.0
C741 C 0.9282 0.61818 0.34667 0.0
C742 C 0.87823 0.65596 0.32603 0.0
C743 C 0.84562 0.67133 0.35314 0.0
N744 N 0.91189 0.63037 0.34081 0.0
N745 N 0.86057 0.65845 0.35884 0.0
H746 H 0.82633 0.34028 0.65974 0.0
H747 H 0.96264 0.39033 0.6789 0.0
H748 H 0.8979 0.32046 0.68691 0.0
H749 H 0.89794 0.4077 0.64129 0.0
H750 H 0.93658 0.36592 0.68548 0.0
H751 H 0.84988 0.36617 0.65607 0.0
C752 C 0.84693 0.34141 0.66505 0.0
C753 C 0.86023 0.32817 0.67354 0.0
C754 C 0.92797 0.3751 0.67588 0.0
C755 C 0.88724 0.35771 0.6694 0.0
C756 C 0.94275 0.38914 0.67226 0.0
C757 C 0.93245 0.40114 0.65954 0.0
C758 C 0.90262 0.37297 0.66677 0.0
C759 C 0.90676 0.39871 0.65105 0.0
C760 C 0.86038 0.35616 0.66286 0.0
C761 C 0.88699 0.33028 0.68002 0.0
N762 N 0.89272 0.38489 0.65479 0.0
N763 N 0.89958 0.34474 0.67783 0.0
H764 H 0.17628 0.19079 0.40051 0.0
H765 H 0.24462 0.1087 0.43706 0.0
H766 H 0.25802 0.17835 0.38639 0.0
H767 H 0.16562 0.12419 0.45453 0.0
H768 H 0.24914 0.13303 0.41642 0.0
H769 H 0.17126 0.16534 0.41837 0.0
C770 C 0.19325 0.18273 0.40124 0.0
C771 C 0.21771 0.18683 0.39209 0.0
C772 C 0.23076 0.13101 0.42468 0.0
C773 C 0.21197 0.15743 0.4124 0.0
C774 C 0.22818 0.11714 0.43651 0.0
C775 C 0.20466 0.11431 0.44756 0.0
C776 C 0.20969 0.14214 0.42391 0.0
C777 C 0.18394 0.12563 0.44605 0.0
C778 C 0.19031 0.16812 0.41136 0.0
C779 C 0.23875 0.17568 0.39314 0.0
N780 N 0.18699 0.13901 0.43455 0.0
N781 N 0.23545 0.16152 0.4032 0.0
H782 H 0.35293 0.75269 0.7966 0.0
H783 H 0.40465 0.79938 0.89411 0.0
H784 H 0.33033 0.80125 0.81056 0.0
H785 H 0.439 0.75506 0.87371 0.0
H786 H 0.37333 0.79881 0.86572 0.0
H787 H 0.38085 0.75201 0.82684 0.0
C788 C 0.35386 0.76323 0.80596 0.0
C789 C 0.33931 0.77709 0.80088 0.0
C790 C 0.38764 0.78917 0.86753 0.0
C791 C 0.37099 0.77627 0.83577 0.0
C792 C 0.4056 0.78951 0.88371 0.0
C793 C 0.42467 0.7773 0.88631 0.0
C794 C 0.38862 0.77651 0.85382 0.0
C795 C 0.42451 0.76465 0.87252 0.0
C796 C 0.3697 0.76279 0.82331 0.0
C797 C 0.3409 0.79024 0.81391 0.0
N798 N 0.40688 0.76462 0.85685 0.0
N799 N 0.3565 0.78952 0.8307 0.0
H800 H 0.79621 0.84772 0.37255 0.0
H801 H 0.84837 0.88433 0.47633 0.0
H802 H 0.82945 0.81966 0.42122 0.0
H803 H 0.80523 0.91254 0.43239 0.0
H804 H 0.84295 0.86083 0.45527 0.0
H805 H 0.79999 0.87178 0.39335 0.0
C806 C 0.80416 0.84658 0.38761 0.0
C807 C 0.81271 0.83161 0.39506 0.0
C808 C 0.83465 0.87213 0.45015 0.0
C809 C 0.81735 0.85913 0.41882 0.0
C810 C 0.83795 0.88562 0.46212 0.0
C811 C 0.82752 0.9005 0.45602 0.0
C812 C 0.82082 0.87341 0.43182 0.0
C813 C 0.81357 0.9013 0.43768 0.0
C814 C 0.80642 0.86034 0.39943 0.0
C815 C 0.82312 0.83094 0.41463 0.0
N816 N 0.81072 0.88795 0.42616 0.0
N817 N 0.82519 0.84447 0.42575 0.0
H818 H 0.66763 0.28135 0.80107 0.0
H819 H 0.62595 0.22585 0.8944 0.0
H820 H 0.70777 0.23713 0.81639 0.0
H821 H 0.58352 0.26862 0.87618 0.0
H822 H 0.65731 0.23021 0.86685 0.0
H823 H 0.63795 0.27737 0.82953 0.0
C824 C 0.67033 0.27084 0.8105 0.0
C825 C 0.6903 0.25958 0.80634 0.0
C826 C 0.6412 0.23867 0.86896 0.0
C827 C 0.65611 0.25486 0.83895 0.0
C828 C 0.62323 0.23617 0.88465 0.0
C829 C 0.60204 0.2469 0.88768 0.0
C830 C 0.63796 0.25198 0.85616 0.0
C831 C 0.59975 0.26016 0.87468 0.0
C832 C 0.65325 0.26853 0.82671 0.0
C833 C 0.69249 0.24604 0.81891 0.0
N834 N 0.61741 0.26229 0.8595 0.0
N835 N 0.67563 0.24407 0.83466 0.0
H836 H 0.25219 0.84343 0.63998 0.0
H837 H 0.16322 0.89234 0.56062 0.0
H838 H 0.17358 0.82814 0.61908 0.0
H839 H 0.23718 0.9112 0.58607 0.0
H840 H 0.16655 0.86909 0.58264 0.0
H841 H 0.24707 0.86854 0.62107 0.0
C842 C 0.23377 0.84539 0.63157 0.0
C843 C 0.21337 0.83356 0.63103 0.0
C844 C 0.18199 0.87835 0.58355 0.0
C845 C 0.20752 0.86221 0.60917 0.0
C846 C 0.17998 0.89176 0.57105 0.0
C847 C 0.19989 0.90388 0.57147 0.0
C848 C 0.20419 0.87685 0.59655 0.0
C849 C 0.2215 0.90211 0.58502 0.0
C850 C 0.23092 0.8597 0.6207 0.0
C851 C 0.19008 0.83672 0.61966 0.0
N852 N 0.22314 0.88882 0.59695 0.0
N853 N 0.18786 0.85068 0.60915 0.0
H854 H 0.7094 0.75424 0.21226 0.0
H855 H 0.58256 0.78578 0.14896 0.0
H856 H 0.66036 0.79414 0.22988 0.0
H857 H 0.62487 0.74223 0.13544 0.0
H858 H 0.61396 0.79064 0.17663 0.0
H859 H 0.68118 0.75099 0.18243 0.0
C860 C 0.69266 0.7623 0.20992 0.0
C861 C 0.68722 0.77444 0.22372 0.0
C862 C 0.61649 0.78007 0.16755 0.0
C863 C 0.65502 0.77091 0.18937 0.0
C864 C 0.5987 0.77735 0.15162 0.0
C865 C 0.60104 0.76355 0.13987 0.0
C866 C 0.63685 0.76893 0.17178 0.0
C867 C 0.62211 0.75293 0.14426 0.0
C868 C 0.67665 0.76049 0.1928 0.0
C869 C 0.66556 0.78472 0.21961 0.0
N870 N 0.63914 0.75581 0.15988 0.0
N871 N 0.65024 0.78269 0.20285 0.0
H872 H 0.75662 0.18239 0.62445 0.0
H873 H 0.82584 0.09764 0.60458 0.0
H874 H 0.79968 0.15571 0.6699 0.0
H875 H 0.77353 0.12132 0.56202 0.0
H876 H 0.8169 0.11885 0.62867 0.0
H877 H 0.76339 0.16035 0.60116 0.0
C878 C 0.7676 0.17192 0.62951 0.0
C879 C 0.77764 0.17092 0.64916 0.0
C880 C 0.80723 0.11935 0.61411 0.0
C881 C 0.78531 0.14555 0.6226 0.0
C882 C 0.81238 0.10727 0.60034 0.0
C883 C 0.80042 0.1077 0.58124 0.0
C884 C 0.79018 0.13207 0.60872 0.0
C885 C 0.78295 0.12039 0.57663 0.0
C886 C 0.7713 0.15928 0.61624 0.0
C887 C 0.79137 0.15694 0.65496 0.0
N888 N 0.77851 0.13211 0.59021 0.0
N889 N 0.7949 0.14485 0.64173 0.0
H890 H 0.33331 0.2729 0.22059 0.0
H891 H 0.43422 0.23135 0.14541 0.0
H892 H 0.34783 0.22183 0.22046 0.0
H893 H 0.40552 0.2798 0.13743 0.0
H894 H 0.40285 0.22758 0.17291 0.0
H895 H 0.36002 0.27573 0.19035 0.0
C896 C 0.34186 0.26224 0.21413 0.0
C897 C 0.33828 0.24709 0.22321 0.0
C898 C 0.40327 0.239 0.16504 0.0
C899 C 0.36939 0.25033 0.18866 0.0
C900 C 0.42107 0.24113 0.1492 0.0
C901 C 0.42269 0.25596 0.13905 0.0
C902 C 0.38707 0.2518 0.17096 0.0
C903 C 0.40539 0.26826 0.145 0.0
C904 C 0.35725 0.26389 0.19688 0.0
C905 C 0.35037 0.23379 0.21426 0.0
N906 N 0.38848 0.26594 0.16063 0.0
N907 N 0.36547 0.23574 0.19757 0.0
H908 H 0.84225 0.66117 0.72125 0.0
H909 H 0.92948 0.62255 0.63461 0.0
H910 H 0.84837 0.68147 0.66188 0.0
H911 H 0.91504 0.59899 0.69127 0.0
H912 H 0.89921 0.64394 0.64416 0.0
H913 H 0.86835 0.63817 0.71049 0.0
C914 C 0.84883 0.66074 0.70589 0.0
C915 C 0.84306 0.67335 0.69248 0.0
C916 C 0.9025 0.63404 0.65447 0.0
C917 C 0.87342 0.64707 0.68013 0.0
C918 C 0.91966 0.62171 0.64896 0.0
C919 C 0.92488 0.60886 0.66213 0.0
C920 C 0.89052 0.63365 0.67337 0.0
C921 C 0.91195 0.60873 0.68072 0.0
C922 C 0.86388 0.64762 0.69979 0.0
C923 C 0.85264 0.6722 0.67286 0.0
N924 N 0.89549 0.62096 0.68581 0.0
N925 N 0.86738 0.65934 0.66732 0.0
H926 H 0.86505 0.34611 0.30371 0.0
H927 H 0.90942 0.40492 0.3926 0.0
H928 H 0.83571 0.34129 0.36396 0.0
H929 H 0.94558 0.40566 0.3342 0.0
H930 H 0.87958 0.38307 0.38172 0.0
H931 H 0.89193 0.3694 0.31398 0.0
C932 C 0.86411 0.35002 0.31908 0.0
C933 C 0.84806 0.34172 0.33299 0.0
C934 C 0.89396 0.38807 0.37127 0.0
C935 C 0.87903 0.36836 0.34491 0.0
C936 C 0.91107 0.40053 0.37747 0.0
C937 C 0.93019 0.40713 0.36434 0.0
C938 C 0.8959 0.38214 0.35175 0.0
C939 C 0.931 0.40111 0.3448 0.0
C940 C 0.87959 0.36328 0.32496 0.0
C941 C 0.848 0.3472 0.35278 0.0
N942 N 0.91421 0.38894 0.33915 0.0
N943 N 0.86323 0.36018 0.35815 0.0
H944 H 0.15145 0.32516 0.66896 0.0
H945 H 0.12589 0.42005 0.66914 0.0
H946 H 0.20694 0.35928 0.69555 0.0
H947 H 0.07407 0.38549 0.63963 0.0
H948 H 0.15613 0.39819 0.67889 0.0
H949 H 0.12338 0.34735 0.65769 0.0
C950 C 0.15791 0.33732 0.67228 0.0
C951 C 0.18168 0.3403 0.68323 0.0
C952 C 0.13821 0.39543 0.67018 0.0
C953 C 0.14924 0.36588 0.6706 0.0
C954 C 0.12089 0.40789 0.66468 0.0
C955 C 0.09744 0.40464 0.65346 0.0
C956 C 0.13194 0.37958 0.66454 0.0
C957 C 0.09211 0.38865 0.64797 0.0
C958 C 0.14174 0.35001 0.66594 0.0
C959 C 0.18863 0.35636 0.68739 0.0
N960 N 0.10914 0.37676 0.65361 0.0
N961 N 0.17247 0.36854 0.68111 0.0
H962 H 0.17364 0.67911 0.32995 0.0
H963 H 0.08982 0.62493 0.40639 0.0
H964 H 0.16555 0.69006 0.39254 0.0
H965 H 0.11077 0.60878 0.34743 0.0
H966 H 0.11799 0.64864 0.4015 0.0
H967 H 0.15113 0.65326 0.33583 0.0
C968 C 0.1674 0.67605 0.34497 0.0
C969 C 0.17139 0.68689 0.36074 0.0
C970 C 0.11665 0.63986 0.38967 0.0
C971 C 0.14521 0.65736 0.3675 0.0
C972 C 0.10069 0.62617 0.39252 0.0
C973 C 0.09785 0.61469 0.37733 0.0
C974 C 0.12975 0.6423 0.37141 0.0
C975 C 0.11198 0.61735 0.35948 0.0
C976 C 0.15443 0.66129 0.34828 0.0
C977 C 0.16248 0.68228 0.37982 0.0
N978 N 0.12716 0.63092 0.35696 0.0
N979 N 0.14971 0.66794 0.38262 0.0
H980 H 0.82311 0.8446 0.65861 0.0
H981 H 0.78577 0.89007 0.55627 0.0
H982 H 0.78237 0.82214 0.60872 0.0
H983 H 0.83427 0.91165 0.60296 0.0
H984 H 0.78026 0.8661 0.57699 0.0
H985 H 0.8237 0.87007 0.64002 0.0
C986 C 0.81411 0.84505 0.64381 0.0
C987 C 0.80281 0.83118 0.63516 0.0
C988 C 0.79197 0.8761 0.58279 0.0
C989 C 0.80352 0.86027 0.61378 0.0
C990 C 0.79492 0.8899 0.57102 0.0
C991 C 0.81051 0.90296 0.57785 0.0
C992 C 0.80472 0.87525 0.60158 0.0
C993 C 0.82231 0.90182 0.59698 0.0
C994 C 0.81457 0.85958 0.63317 0.0
C995 C 0.79167 0.83245 0.61586 0.0
N996 N 0.81925 0.88819 0.60814 0.0
N997 N 0.79234 0.8467 0.60584 0.0
H998 H 0.67842 0.21967 0.21974 0.0
H999 H 0.59845 0.28092 0.14978 0.0
H1000 H 0.68842 0.27118 0.22346 0.0
H1001 H 0.60651 0.23062 0.13584 0.0
H1002 H 0.63037 0.27754 0.17734 0.0
H1003 H 0.65084 0.2233 0.18968 0.0
C1004 C 0.67507 0.23174 0.21418 0.0
C1005 C 0.6858 0.24513 0.22428 0.0
C1006 C 0.6253 0.26727 0.16816 0.0
C1007 C 0.65371 0.24936 0.18997 0.0
C1008 C 0.60719 0.2692 0.15227 0.0
C1009 C 0.59962 0.25603 0.14037 0.0
C1010 C 0.6358 0.25201 0.1724 0.0
C1011 C 0.61129 0.24108 0.14476 0.0
C1012 C 0.65919 0.23379 0.19703 0.0
C1013 C 0.68023 0.26049 0.21647 0.0
N1014 N 0.62862 0.23945 0.16049 0.0
N1015 N 0.66448 0.26217 0.19987 0.0
H1016 H 0.17802 0.17893 0.64031 0.0
H1017 H 0.24759 0.11899 0.56445 0.0
H1018 H 0.26058 0.18408 0.62167 0.0
H1019 H 0.16965 0.1101 0.59055 0.0
H1020 H 0.25359 0.14219 0.58623 0.0
H1021 H 0.17497 0.15338 0.62265 0.0
C1022 C 0.19551 0.17468 0.63248 0.0
C1023 C 0.21954 0.18371 0.63236 0.0
C1024 C 0.23528 0.13507 0.58733 0.0
C1025 C 0.21625 0.1544 0.61215 0.0
C1026 C 0.23191 0.12172 0.57499 0.0
C1027 C 0.20796 0.11259 0.57552 0.0
C1028 C 0.2145 0.13943 0.60023 0.0
C1029 C 0.18822 0.11694 0.58931 0.0
C1030 C 0.19382 0.16004 0.62251 0.0
C1031 C 0.24171 0.17748 0.62225 0.0
N1032 N 0.19183 0.1301 0.60097 0.0
N1033 N 0.23947 0.16328 0.61242 0.0
H1034 H 0.30714 0.73829 0.20023 0.0
H1035 H 0.44965 0.77022 0.16057 0.0
H1036 H 0.3628 0.7668 0.2354 0.0
H1037 H 0.3953 0.74078 0.12545 0.0
H1038 H 0.41667 0.77052 0.18727 0.0
H1039 H 0.33794 0.74022 0.17204 0.0
C1040 C 0.32584 0.74495 0.20205 0.0
C1041 C 0.33242 0.75233 0.22029 0.0
C1042 C 0.41186 0.76405 0.17369 0.0
C1043 C 0.36772 0.75469 0.18797 0.0
C1044 C 0.43063 0.76398 0.15834 0.0
C1045 C 0.42527 0.75547 0.14067 0.0
C1046 C 0.38748 0.75553 0.17147 0.0
C1047 C 0.40045 0.74733 0.13888 0.0
C1048 C 0.34336 0.74611 0.1859 0.0
C1049 C 0.35673 0.76105 0.22161 0.0
N1050 N 0.38252 0.74753 0.1541 0.0
N1051 N 0.37352 0.76191 0.20572 0.0
H1052 H 0.85352 0.17871 0.38401 0.0
H1053 H 0.77872 0.11901 0.45982 0.0
H1054 H 0.7698 0.18291 0.39951 0.0
H1055 H 0.85881 0.11093 0.43777 0.0
H1056 H 0.7746 0.14192 0.4371 0.0
H1057 H 0.8557 0.15366 0.40328 0.0
C1058 C 0.83559 0.17436 0.39147 0.0
C1059 C 0.81148 0.18297 0.39022 0.0
C1060 C 0.79301 0.13507 0.43712 0.0
C1061 C 0.81378 0.15425 0.41227 0.0
C1062 C 0.79532 0.12187 0.45 0.0
C1063 C 0.81922 0.11299 0.45082 0.0
C1064 C 0.8148 0.13955 0.42501 0.0
C1065 C 0.84018 0.11755 0.43795 0.0
C1066 C 0.8368 0.16 0.40237 0.0
C1067 C 0.78876 0.17662 0.39994 0.0
N1068 N 0.83755 0.13056 0.42569 0.0
N1069 N 0.79052 0.16272 0.41066 0.0
H1070 H 0.37037 0.21916 0.78648 0.0
H1071 H 0.4095 0.26151 0.88996 0.0
H1072 H 0.32742 0.25982 0.80931 0.0
H1073 H 0.4443 0.21745 0.86924 0.0
H1074 H 0.3802 0.26193 0.86023 0.0
H1075 H 0.3986 0.21916 0.81641 0.0
C1076 C 0.36672 0.22804 0.79786 0.0
C1077 C 0.34628 0.23942 0.7954 0.0
C1078 C 0.39417 0.25214 0.86228 0.0
C1079 C 0.37896 0.23963 0.82976 0.0
C1080 C 0.41094 0.25192 0.8792 0.0
C1081 C 0.42928 0.23937 0.88218 0.0
C1082 C 0.39593 0.23979 0.84816 0.0
C1083 C 0.43017 0.22721 0.86779 0.0
C1084 C 0.38298 0.22808 0.81494 0.0
C1085 C 0.34304 0.25088 0.81048 0.0
N1086 N 0.41384 0.22776 0.85143 0.0
N1087 N 0.35918 0.25068 0.82704 0.0
H1088 H 0.21762 0.85804 0.35449 0.0
H1089 H 0.25688 0.90012 0.4582 0.0
H1090 H 0.27403 0.83805 0.39711 0.0
H1091 H 0.18977 0.91476 0.42116 0.0
H1092 H 0.26699 0.87914 0.43408 0.0
H1093 H 0.21041 0.88056 0.37703 0.0
C1094 C 0.22861 0.85844 0.36854 0.0
C1095 C 0.24642 0.84612 0.37394 0.0
C1096 C 0.25013 0.88699 0.43118 0.0
C1097 C 0.23822 0.87186 0.39984 0.0
C1098 C 0.24449 0.89906 0.44485 0.0
C1099 C 0.22241 0.9092 0.4417 0.0
C1100 C 0.23367 0.88508 0.41415 0.0
C1101 C 0.20681 0.90711 0.42428 0.0
C1102 C 0.22439 0.87126 0.38144 0.0
C1103 C 0.25988 0.84718 0.39245 0.0
N1104 N 0.21272 0.89529 0.41118 0.0
N1105 N 0.25554 0.85982 0.4047 0.0
H1106 H 0.66612 0.79874 0.79401 0.0
H1107 H 0.6162 0.75259 0.8926 0.0
H1108 H 0.70049 0.754 0.81436 0.0
H1109 H 0.58867 0.79937 0.87369 0.0
H1110 H 0.64665 0.7523 0.86396 0.0
H1111 H 0.63716 0.79866 0.82309 0.0
C1112 C 0.66777 0.78894 0.80469 0.0
C1113 C 0.686 0.77643 0.80176 0.0
C1114 C 0.63402 0.76265 0.86617 0.0
C1115 C 0.65236 0.77612 0.83513 0.0
C1116 C 0.61659 0.7628 0.88247 0.0
C1117 C 0.59997 0.77607 0.88566 0.0
C1118 C 0.63466 0.77581 0.85289 0.0
C1119 C 0.60143 0.789 0.8721 0.0
C1120 C 0.65106 0.78886 0.82128 0.0
C1121 C 0.68663 0.76385 0.81591 0.0
N1122 N 0.61837 0.78852 0.85634 0.0
N1123 N 0.67007 0.76402 0.832 0.0
loop_
_geom_bond_atom_site_label_1
_geom_bond_atom_site_label_2
_geom_bond_distance
_geom_bond_site_symmetry_2
_ccdc_geom_bond_type
C0 C1 1.264 . S
C0 C5 1.479 . S
C0 C10 1.465 . S
C1 C0 1.264 . S
C1 C3 1.339 . S
C1 H28 0.931 . S
C2 C3 1.395 . S
C2 C4 1.320 . S
C3 C1 1.339 . S
C3 C2 1.395 . S
C3 H29 0.929 . S
C4 C2 1.320 . S
C4 C5 1.405 . S
C4 H30 0.930 . S
C5 C0 1.479 . S
C5 C4 1.405 . S
C5 H31 0.931 . S
U6 O7 2.454 . S
U6 O8 2.458 . S
U6 C9 2.984 . S
U6 C10 2.847 . S
U6 C23 2.882 . S
U6 O24 2.441 . S
U6 O25 2.420 . S
U6 O26 2.455 . S
U6 O27 2.449 . S
O7 U6 2.454 . S
O7 C9 1.353 . S
O8 U6 2.458 . S
O8 C9 1.286 . S
C9 U6 2.984 . S
C9 O7 1.353 . S
C9 O8 1.286 . S
C9 C11 1.363 . S
C10 C0 1.465 . S
C10 U6 2.847 . S
C10 O24 1.249 . S
C10 O25 1.202 . S
C11 C9 1.363 . S
C11 C13 1.408 . S
C11 C16 1.342 . S
C12 C13 1.310 . S
C12 C15 1.461 . S
C12 H32 0.932 . S
C13 C11 1.408 . S
C13 C12 1.310 . S
C13 H33 0.930 . S
C14 C15 1.474 . S
C14 C16 1.285 . S
C14 H34 0.929 . S
C15 C12 1.461 . S
C15 C14 1.474 . S
C16 C11 1.342 . S
C16 C14 1.285 . S
C16 H35 0.930 . S
C17 C20 1.424 . S
C17 C22 1.245 . S
C17 C23 1.428 . S
C18 C21 1.260 . S
C18 C22 1.477 . S
C18 H36 0.932 . S
C19 C20 1.384 . S
C19 C21 1.479 . S
C19 H37 0.929 . S
C20 C17 1.424 . S
C20 C19 1.384 . S
C20 H38 0.928 . S
C21 C18 1.260 . S
C21 C19 1.479 . S
C22 C17 1.245 . S
C22 C18 1.477 . S
C22 H39 0.932 . S
C23 U6 2.882 . S
C23 C17 1.428 . S
C23 O26 1.301 . S
C23 O27 1.282 . S
O24 U6 2.441 . S
O24 C10 1.249 . S
O25 U6 2.420 . S
O25 C10 1.202 . S
O26 U6 2.455 . S
O26 C23 1.301 . S
O27 U6 2.449 . S
O27 C23 1.282 . S
H28 C1 0.931 . S
H29 C3 0.929 . S
H30 C4 0.930 . S
H31 C5 0.931 . S
H32 C12 0.932 . S
H33 C13 0.930 . S
H34 C14 0.929 . S
H35 C16 0.930 . S
H36 C18 0.932 . S
H37 C19 0.929 . S
H38 C20 0.928 . S
H39 C22 0.932 . S
C40 C41 1.264 . S
C40 C45 1.479 . S
C40 C50 1.465 . S
C41 C40 1.264 . S
C41 C43 1.339 . S
C41 H68 0.931 . S
C42 C43 1.395 . S
C42 C44 1.320 . S
C43 C41 1.339 . S
C43 C42 1.395 . S
C43 H69 0.929 . S
C44 C42 1.320 . S
C44 C45 1.405 . S
C44 H70 0.930 . S
C45 C40 1.479 . S
C45 C44 1.405 . S
C45 H71 0.931 . S
U46 O47 2.454 . S
U46 O48 2.458 . S
U46 C49 2.984 . S
U46 C50 2.847 . S
U46 C63 2.882 . S
U46 O64 2.441 . S
U46 O65 2.420 . S
U46 O66 2.455 . S
U46 O67 2.449 . S
O47 U46 2.454 . S
O47 C49 1.353 . S
O48 U46 2.458 . S
O48 C49 1.286 . S
C49 U46 2.984 . S
C49 O47 1.353 . S
C49 O48 1.286 . S
C49 C51 1.363 . S
C50 C40 1.465 . S
C50 U46 2.847 . S
C50 O64 1.249 . S
C50 O65 1.202 . S
C51 C49 1.363 . S
C51 C53 1.408 . S
C51 C56 1.342 . S
C52 C53 1.310 . S
C52 C55 1.461 . S
C52 H72 0.932 . S
C53 C51 1.408 . S
C53 C52 1.310 . S
C53 H73 0.930 . S
C54 C55 1.474 . S
C54 C56 1.285 . S
C54 H74 0.929 . S
C55 C52 1.461 . S
C55 C54 1.474 . S
C56 C51 1.342 . S
C56 C54 1.285 . S
C56 H75 0.930 . S
C57 C60 1.424 . S
C57 C62 1.245 . S
C57 C63 1.428 . S
C58 C61 1.260 . S
C58 C62 1.477 . S
C58 H76 0.932 . S
C59 C60 1.384 . S
C59 C61 1.479 . S
C59 H77 0.929 . S
C60 C57 1.424 . S
C60 C59 1.384 . S
C60 H78 0.928 . S
C61 C58 1.260 . S
C61 C59 1.479 . S
C62 C57 1.245 . S
C62 C58 1.477 . S
C62 H79 0.932 . S
C63 U46 2.882 . S
C63 C57 1.428 . S
C63 O66 1.301 . S
C63 O67 1.282 . S
O64 U46 2.441 . S
O64 C50 1.249 . S
O65 U46 2.420 . S
O65 C50 1.202 . S
O66 U46 2.455 . S
O66 C63 1.301 . S
O67 U46 2.449 . S
O67 C63 1.282 . S
H68 C41 0.931 . S
H69 C43 0.929 . S
H70 C44 0.930 . S
H71 C45 0.931 . S
H72 C52 0.932 . S
H73 C53 0.930 . S
H74 C54 0.929 . S
H75 C56 0.930 . S
H76 C58 0.932 . S
H77 C59 0.929 . S
H78 C60 0.928 . S
H79 C62 0.932 . S
C80 C81 1.264 . S
C80 C85 1.479 . S
C80 C90 1.465 . S
C81 C80 1.264 . S
C81 C83 1.339 . S
C81 H108 0.931 . S
C82 C83 1.395 . S
C82 C84 1.320 . S
C83 C81 1.339 . S
C83 C82 1.395 . S
C83 H109 0.929 . S
C84 C82 1.320 . S
C84 C85 1.405 . S
C84 H110 0.930 . S
C85 C80 1.479 . S
C85 C84 1.405 . S
C85 H111 0.931 . S
U86 O87 2.454 . S
U86 O88 2.458 . S
U86 C89 2.984 . S
U86 C90 2.847 . S
U86 C103 2.882 . S
U86 O104 2.441 . S
U86 O105 2.420 . S
U86 O106 2.455 . S
U86 O107 2.449 . S
O87 U86 2.454 . S
O87 C89 1.353 . S
O88 U86 2.458 . S
O88 C89 1.286 . S
C89 U86 2.984 . S
C89 O87 1.353 . S
C89 O88 1.286 . S
C89 C91 1.363 . S
C90 C80 1.465 . S
C90 U86 2.847 . S
C90 O104 1.249 . S
C90 O105 1.202 . S
C91 C89 1.363 . S
C91 C93 1.408 . S
C91 C96 1.342 . S
C92 C93 1.310 . S
C92 C95 1.461 . S
C92 H112 0.932 . S
C93 C91 1.408 . S
C93 C92 1.310 . S
C93 H113 0.930 . S
C94 C95 1.474 . S
C94 C96 1.285 . S
C94 H114 0.929 . S
C95 C92 1.461 . S
C95 C94 1.474 . S
C96 C91 1.342 . S
C96 C94 1.285 . S
C96 H115 0.930 . S
C97 C100 1.424 . S
C97 C102 1.245 . S
C97 C103 1.428 . S
C98 C101 1.260 . S
C98 C102 1.477 . S
C98 H116 0.932 . S
C99 C100 1.384 . S
C99 C101 1.479 . S
C99 H117 0.929 . S
C100 C97 1.424 . S
C100 C99 1.384 . S
C100 H118 0.928 . S
C101 C98 1.260 . S
C101 C99 1.479 . S
C102 C97 1.245 . S
C102 C98 1.477 . S
C102 H119 0.932 . S
C103 U86 2.882 . S
C103 C97 1.428 . S
C103 O106 1.301 . S
C103 O107 1.282 . S
O104 U86 2.441 . S
O104 C90 1.249 . S
O105 U86 2.420 . S
O105 C90 1.202 . S
O106 U86 2.455 . S
O106 C103 1.301 . S
O107 U86 2.449 . S
O107 C103 1.282 . S
H108 C81 0.931 . S
H109 C83 0.929 . S
H110 C84 0.930 . S
H111 C85 0.931 . S
H112 C92 0.932 . S
H113 C93 0.930 . S
H114 C94 0.929 . S
H115 C96 0.930 . S
H116 C98 0.932 . S
H117 C99 0.929 . S
H118 C100 0.928 . S
H119 C102 0.932 . S
C120 C121 1.264 . S
C120 C125 1.479 . S
C120 C130 1.465 . S
C121 C120 1.264 . S
C121 C123 1.339 . S
C121 H148 0.931 . S
C122 C123 1.395 . S
C122 C124 1.320 . S
C123 C121 1.339 . S
C123 C122 1.395 . S
C123 H149 0.929 . S
C124 C122 1.320 . S
C124 C125 1.405 . S
C124 H150 0.930 . S
C125 C120 1.479 . S
C125 C124 1.405 . S
C125 H151 0.931 . S
U126 O127 2.454 . S
U126 O128 2.458 . S
U126 C129 2.984 . S
U126 C130 2.847 . S
U126 C143 2.882 . S
U126 O144 2.441 . S
U126 O145 2.420 . S
U126 O146 2.455 . S
U126 O147 2.449 . S
O127 U126 2.454 . S
O127 C129 1.353 . S
O128 U126 2.458 . S
O128 C129 1.286 . S
C129 U126 2.984 . S
C129 O127 1.353 . S
C129 O128 1.286 . S
C129 C131 1.363 . S
C130 C120 1.465 . S
C130 U126 2.847 . S
C130 O144 1.249 . S
C130 O145 1.202 . S
C131 C129 1.363 . S
C131 C133 1.408 . S
C131 C136 1.342 . S
C132 C133 1.310 . S
C132 C135 1.461 . S
C132 H152 0.932 . S
C133 C131 1.408 . S
C133 C132 1.310 . S
C133 H153 0.930 . S
C134 C135 1.474 . S
C134 C136 1.285 . S
C134 H154 0.929 . S
C135 C132 1.461 . S
C135 C134 1.474 . S
C136 C131 1.342 . S
C136 C134 1.285 . S
C136 H155 0.930 . S
C137 C140 1.424 . S
C137 C142 1.245 . S
C137 C143 1.428 . S
C138 C141 1.260 . S
C138 C142 1.477 . S
C138 H156 0.932 . S
C139 C140 1.384 . S
C139 C141 1.479 . S
C139 H157 0.929 . S
C140 C137 1.424 . S
C140 C139 1.384 . S
C140 H158 0.928 . S
C141 C138 1.260 . S
C141 C139 1.479 . S
C142 C137 1.245 . S
C142 C138 1.477 . S
C142 H159 0.932 . S
C143 U126 2.882 . S
C143 C137 1.428 . S
C143 O146 1.301 . S
C143 O147 1.282 . S
O144 U126 2.441 . S
O144 C130 1.249 . S
O145 U126 2.420 . S
O145 C130 1.202 . S
O146 U126 2.455 . S
O146 C143 1.301 . S
O147 U126 2.449 . S
O147 C143 1.282 . S
H148 C121 0.931 . S
H149 C123 0.929 . S
H150 C124 0.930 . S
H151 C125 0.931 . S
H152 C132 0.932 . S
H153 C133 0.930 . S
H154 C134 0.929 . S
H155 C136 0.930 . S
H156 C138 0.932 . S
H157 C139 0.929 . S
H158 C140 0.928 . S
H159 C142 0.932 . S
C160 C161 1.264 . S
C160 C165 1.479 . S
C160 C170 1.465 . S
C161 C160 1.264 . S
C161 C163 1.339 . S
C161 H188 0.931 . S
C162 C163 1.395 . S
C162 C164 1.320 . S
C163 C161 1.339 . S
C163 C162 1.395 . S
C163 H189 0.929 . S
C164 C162 1.320 . S
C164 C165 1.405 . S
C164 H190 0.930 . S
C165 C160 1.479 . S
C165 C164 1.405 . S
C165 H191 0.931 . S
U166 O167 2.454 . S
U166 O168 2.458 . S
U166 C169 2.984 . S
U166 C170 2.847 . S
U166 C183 2.882 . S
U166 O184 2.441 . S
U166 O185 2.420 . S
U166 O186 2.455 . S
U166 O187 2.449 . S
O167 U166 2.454 . S
O167 C169 1.353 . S
O168 U166 2.458 . S
O168 C169 1.286 . S
C169 U166 2.984 . S
C169 O167 1.353 . S
C169 O168 1.286 . S
C169 C171 1.363 . S
C170 C160 1.465 . S
C170 U166 2.847 . S
C170 O184 1.249 . S
C170 O185 1.202 . S
C171 C169 1.363 . S
C171 C173 1.408 . S
C171 C176 1.342 . S
C172 C173 1.310 . S
C172 C175 1.461 . S
C172 H192 0.932 . S
C173 C171 1.408 . S
C173 C172 1.310 . S
C173 H193 0.930 . S
C174 C175 1.474 . S
C174 C176 1.285 . S
C174 H194 0.929 . S
C175 C172 1.461 . S
C175 C174 1.474 . S
C176 C171 1.342 . S
C176 C174 1.285 . S
C176 H195 0.930 . S
C177 C180 1.424 . S
C177 C182 1.245 . S
C177 C183 1.428 . S
C178 C181 1.260 . S
C178 C182 1.477 . S
C178 H196 0.932 . S
C179 C180 1.384 . S
C179 C181 1.479 . S
C179 H197 0.929 . S
C180 C177 1.424 . S
C180 C179 1.384 . S
C180 H198 0.928 . S
C181 C178 1.260 . S
C181 C179 1.479 . S
C182 C177 1.245 . S
C182 C178 1.477 . S
C182 H199 0.932 . S
C183 U166 2.882 . S
C183 C177 1.428 . S
C183 O186 1.301 . S
C183 O187 1.282 . S
O184 U166 2.441 . S
O184 C170 1.249 . S
O185 U166 2.420 . S
O185 C170 1.202 . S
O186 U166 2.455 . S
O186 C183 1.301 . S
O187 U166 2.449 . S
O187 C183 1.282 . S
H188 C161 0.931 . S
H189 C163 0.929 . S
H190 C164 0.930 . S
H191 C165 0.931 . S
H192 C172 0.932 . S
H193 C173 0.930 . S
H194 C174 0.929 . S
H195 C176 0.930 . S
H196 C178 0.932 . S
H197 C179 0.929 . S
H198 C180 0.928 . S
H199 C182 0.932 . S
C200 C201 1.264 . S
C200 C205 1.479 . S
C200 C210 1.465 . S
C201 C200 1.264 . S
C201 C203 1.339 . S
C201 H228 0.931 . S
C202 C203 1.395 . S
C202 C204 1.320 . S
C203 C201 1.339 . S
C203 C202 1.395 . S
C203 H229 0.929 . S
C204 C202 1.320 . S
C204 C205 1.405 . S
C204 H230 0.930 . S
C205 C200 1.479 . S
C205 C204 1.405 . S
C205 H231 0.931 . S
U206 O207 2.454 . S
U206 O208 2.458 . S
U206 C209 2.984 . S
U206 C210 2.847 . S
U206 C223 2.882 . S
U206 O224 2.441 . S
U206 O225 2.420 . S
U206 O226 2.455 . S
U206 O227 2.449 . S
O207 U206 2.454 . S
O207 C209 1.353 . S
O208 U206 2.458 . S
O208 C209 1.286 . S
C209 U206 2.984 . S
C209 O207 1.353 . S
C209 O208 1.286 . S
C209 C211 1.363 . S
C210 C200 1.465 . S
C210 U206 2.847 . S
C210 O224 1.249 . S
C210 O225 1.202 . S
C211 C209 1.363 . S
C211 C213 1.408 . S
C211 C216 1.342 . S
C212 C213 1.310 . S
C212 C215 1.461 . S
C212 H232 0.932 . S
C213 C211 1.408 . S
C213 C212 1.310 . S
C213 H233 0.930 . S
C214 C215 1.474 . S
C214 C216 1.285 . S
C214 H234 0.929 . S
C215 C212 1.461 . S
C215 C214 1.474 . S
C216 C211 1.342 . S
C216 C214 1.285 . S
C216 H235 0.930 . S
C217 C220 1.424 . S
C217 C222 1.245 . S
C217 C223 1.428 . S
C218 C221 1.260 . S
C218 C222 1.477 . S
C218 H236 0.932 . S
C219 C220 1.384 . S
C219 C221 1.479 . S
C219 H237 0.929 . S
C220 C217 1.424 . S
C220 C219 1.384 . S
C220 H238 0.928 . S
C221 C218 1.260 . S
C221 C219 1.479 . S
C222 C217 1.245 . S
C222 C218 1.477 . S
C222 H239 0.932 . S
C223 U206 2.882 . S
C223 C217 1.428 . S
C223 O226 1.301 . S
C223 O227 1.282 . S
O224 U206 2.441 . S
O224 C210 1.249 . S
O225 U206 2.420 . S
O225 C210 1.202 . S
O226 U206 2.455 . S
O226 C223 1.301 . S
O227 U206 2.449 . S
O227 C223 1.282 . S
H228 C201 0.931 . S
H229 C203 0.929 . S
H230 C204 0.930 . S
H231 C205 0.931 . S
H232 C212 0.932 . S
H233 C213 0.930 . S
H234 C214 0.929 . S
H235 C216 0.930 . S
H236 C218 0.932 . S
H237 C219 0.929 . S
H238 C220 0.928 . S
H239 C222 0.932 . S
C240 C241 1.264 . S
C240 C245 1.479 . S
C240 C250 1.465 . S
C241 C240 1.264 . S
C241 C243 1.339 . S
C241 H268 0.931 . S
C242 C243 1.395 . S
C242 C244 1.320 . S
C243 C241 1.339 . S
C243 C242 1.395 . S
C243 H269 0.929 . S
C244 C242 1.320 . S
C244 C245 1.405 . S
C244 H270 0.930 . S
C245 C240 1.479 . S
C245 C244 1.405 . S
C245 H271 0.931 . S
U246 O247 2.454 . S
U246 O248 2.458 . S
U246 C249 2.984 . S
U246 C250 2.847 . S
U246 C263 2.882 . S
U246 O264 2.441 . S
U246 O265 2.420 . S
U246 O266 2.455 . S
U246 O267 2.449 . S
O247 U246 2.454 . S
O247 C249 1.353 . S
O248 U246 2.458 . S
O248 C249 1.286 . S
C249 U246 2.984 . S
C249 O247 1.353 . S
C249 O248 1.286 . S
C249 C251 1.363 . S
C250 C240 1.465 . S
C250 U246 2.847 . S
C250 O264 1.249 . S
C250 O265 1.202 . S
C251 C249 1.363 . S
C251 C253 1.408 . S
C251 C256 1.342 . S
C252 C253 1.310 . S
C252 C255 1.461 . S
C252 H272 0.932 . S
C253 C251 1.408 . S
C253 C252 1.310 . S
C253 H273 0.930 . S
C254 C255 1.474 . S
C254 C256 1.285 . S
C254 H274 0.929 . S
C255 C252 1.461 . S
C255 C254 1.474 . S
C256 C251 1.342 . S
C256 C254 1.285 . S
C256 H275 0.930 . S
C257 C260 1.424 . S
C257 C262 1.245 . S
C257 C263 1.428 . S
C258 C261 1.260 . S
C258 C262 1.477 . S
C258 H276 0.932 . S
C259 C260 1.384 . S
C259 C261 1.479 . S
C259 H277 0.929 . S
C260 C257 1.424 . S
C260 C259 1.384 . S
C260 H278 0.928 . S
C261 C258 1.260 . S
C261 C259 1.479 . S
C262 C257 1.245 . S
C262 C258 1.477 . S
C262 H279 0.932 . S
C263 U246 2.882 . S
C263 C257 1.428 . S
C263 O266 1.301 . S
C263 O267 1.282 . S
O264 U246 2.441 . S
O264 C250 1.249 . S
O265 U246 2.420 . S
O265 C250 1.202 . S
O266 U246 2.455 . S
O266 C263 1.301 . S
O267 U246 2.449 . S
O267 C263 1.282 . S
H268 C241 0.931 . S
H269 C243 0.929 . S
H270 C244 0.930 . S
H271 C245 0.931 . S
H272 C252 0.932 . S
H273 C253 0.930 . S
H274 C254 0.929 . S
H275 C256 0.930 . S
H276 C258 0.932 . S
H277 C259 0.929 . S
H278 C260 0.928 . S
H279 C262 0.932 . S
C280 C281 1.264 . S
C280 C285 1.479 . S
C280 C290 1.465 . S
C281 C280 1.264 . S
C281 C283 1.339 . S
C281 H308 0.931 . S
C282 C283 1.395 . S
C282 C284 1.320 . S
C283 C281 1.339 . S
C283 C282 1.395 . S
C283 H309 0.929 . S
C284 C282 1.320 . S
C284 C285 1.405 . S
C284 H310 0.930 . S
C285 C280 1.479 . S
C285 C284 1.405 . S
C285 H311 0.931 . S
U286 O287 2.454 . S
U286 O288 2.458 . S
U286 C289 2.984 . S
U286 C290 2.847 . S
U286 C303 2.882 . S
U286 O304 2.441 . S
U286 O305 2.420 . S
U286 O306 2.455 . S
U286 O307 2.449 . S
O287 U286 2.454 . S
O287 C289 1.353 . S
O288 U286 2.458 . S
O288 C289 1.286 . S
C289 U286 2.984 . S
C289 O287 1.353 . S
C289 O288 1.286 . S
C289 C291 1.363 . S
C290 C280 1.465 . S
C290 U286 2.847 . S
C290 O304 1.249 . S
C290 O305 1.202 . S
C291 C289 1.363 . S
C291 C293 1.408 . S
C291 C296 1.342 . S
C292 C293 1.310 . S
C292 C295 1.461 . S
C292 H312 0.932 . S
C293 C291 1.408 . S
C293 C292 1.310 . S
C293 H313 0.930 . S
C294 C295 1.474 . S
C294 C296 1.285 . S
C294 H314 0.929 . S
C295 C292 1.461 . S
C295 C294 1.474 . S
C296 C291 1.342 . S
C296 C294 1.285 . S
C296 H315 0.930 . S
C297 C300 1.424 . S
C297 C302 1.245 . S
C297 C303 1.428 . S
C298 C301 1.260 . S
C298 C302 1.477 . S
C298 H316 0.932 . S
C299 C300 1.384 . S
C299 C301 1.479 . S
C299 H317 0.929 . S
C300 C297 1.424 . S
C300 C299 1.384 . S
C300 H318 0.928 . S
C301 C298 1.260 . S
C301 C299 1.479 . S
C302 C297 1.245 . S
C302 C298 1.477 . S
C302 H319 0.932 . S
C303 U286 2.882 . S
C303 C297 1.428 . S
C303 O306 1.301 . S
C303 O307 1.282 . S
O304 U286 2.441 . S
O304 C290 1.249 . S
O305 U286 2.420 . S
O305 C290 1.202 . S
O306 U286 2.455 . S
O306 C303 1.301 . S
O307 U286 2.449 . S
O307 C303 1.282 . S
H308 C281 0.931 . S
H309 C283 0.929 . S
H310 C284 0.930 . S
H311 C285 0.931 . S
H312 C292 0.932 . S
H313 C293 0.930 . S
H314 C294 0.929 . S
H315 C296 0.930 . S
H316 C298 0.932 . S
H317 C299 0.929 . S
H318 C300 0.928 . S
H319 C302 0.932 . S
H320 C347 0.929 . S
N321 C346 1.433 1_455 S
N321 C352 1.435 . S
N321 C358 1.423 . S
H322 C348 0.930 . S
H323 C351 0.931 . S
H324 C350 0.929 . S
H325 C353 0.930 . S
H326 C354 0.932 . S
H327 C357 0.929 . S
H328 C356 0.931 . S
H329 C359 0.928 1_655 S
H330 C363 0.932 . S
H331 C360 0.931 1_655 S
H332 C362 0.929 . S
H333 C365 0.929 . S
H334 C366 0.930 . S
H335 C368 0.929 . S
H336 C369 0.931 . S
H337 C371 0.930 . S
H338 C372 0.932 . S
H339 C374 0.931 . S
H340 C375 0.929 . S
H341 C377 0.927 1_655 S
H342 C378 0.931 1_655 S
H343 C380 0.929 . S
N344 C364 1.433 1_455 S
N344 C370 1.435 . S
N344 C376 1.423 . S
H345 C381 0.932 . S
C346 N321 1.433 1_655 S
C346 C347 1.363 . S
C346 C351 1.370 . S
C347 H320 0.929 . S
C347 C346 1.363 . S
C347 C348 1.385 . S
C348 H322 0.930 . S
C348 C347 1.385 . S
C348 C349 1.357 . S
C349 C348 1.357 . S
C349 C350 1.406 . S
C350 H324 0.929 . S
C350 C349 1.406 . S
C350 C351 1.391 . S
C351 H323 0.931 . S
C351 C346 1.370 . S
C351 C350 1.391 . S
C352 N321 1.435 . S
C352 C353 1.358 . S
C352 C357 1.371 . S
C353 H325 0.930 . S
C353 C352 1.358 . S
C353 C354 1.405 . S
C354 H326 0.932 . S
C354 C353 1.405 . S
C354 C355 1.383 . S
C355 C354 1.383 . S
C355 C356 1.393 . S
C356 H328 0.931 . S
C356 C355 1.393 . S
C356 C357 1.382 . S
C357 H327 0.929 . S
C357 C352 1.371 . S
C357 C356 1.382 . S
C358 N321 1.423 . S
C358 C359 1.363 . S
C358 C363 1.388 . S
C359 H329 0.928 1_455 S
C359 C358 1.363 . S
C359 C360 1.376 . S
C360 H331 0.931 1_455 S
C360 C359 1.376 . S
C360 C361 1.396 . S
C361 C360 1.396 . S
C361 C362 1.348 . S
C361 C379 1.472 . S
C362 H332 0.929 . S
C362 C361 1.348 . S
C362 C363 1.443 . S
C363 H330 0.932 . S
C363 C358 1.388 . S
C363 C362 1.443 . S
C364 N344 1.433 1_655 S
C364 C365 1.363 . S
C364 C369 1.370 . S
C365 H333 0.929 . S
C365 C364 1.363 . S
C365 C366 1.385 . S
C366 H334 0.930 . S
C366 C365 1.385 . S
C366 C367 1.357 . S
C367 C366 1.357 . S
C367 C368 1.406 . S
C368 H335 0.929 . S
C368 C367 1.406 . S
C368 C369 1.391 . S
C369 H336 0.931 . S
C369 C364 1.370 . S
C369 C368 1.391 . S
C370 N344 1.435 . S
C370 C371 1.358 . S
C370 C375 1.371 . S
C371 H337 0.930 . S
C371 C370 1.358 . S
C371 C372 1.405 . S
C372 H338 0.932 . S
C372 C371 1.405 . S
C372 C373 1.383 . S
C373 C372 1.383 . S
C373 C374 1.393 . S
C374 H339 0.931 . S
C374 C373 1.393 . S
C374 C375 1.382 . S
C375 H340 0.929 . S
C375 C370 1.371 . S
C375 C374 1.382 . S
C376 N344 1.423 . S
C376 C377 1.364 . S
C376 C381 1.388 . S
C377 H341 0.927 1_455 S
C377 C376 1.364 . S
C377 C378 1.377 . S
C378 H342 0.931 1_455 S
C378 C377 1.377 . S
C378 C379 1.396 . S
C379 C361 1.472 . S
C379 C378 1.396 . S
C379 C380 1.348 . S
C380 H343 0.929 . S
C380 C379 1.348 . S
C380 C381 1.443 . S
C381 H345 0.932 . S
C381 C376 1.388 . S
C381 C380 1.443 . S
H382 C409 0.929 . S
N383 C408 1.433 1_455 S
N383 C414 1.435 . S
N383 C420 1.423 . S
H384 C410 0.930 . S
H385 C413 0.931 . S
H386 C412 0.929 . S
H387 C415 0.930 . S
H388 C416 0.932 . S
H389 C419 0.929 . S
H390 C418 0.931 . S
H391 C421 0.938 . S
H392 C425 0.932 . S
H393 C422 0.931 1_655 S
H394 C424 0.929 . S
H395 C427 0.929 . S
H396 C428 0.930 . S
H397 C430 0.929 . S
H398 C431 0.931 . S
H399 C433 0.930 . S
H400 C434 0.932 . S
H401 C436 0.931 . S
H402 C437 0.929 . S
H403 C439 0.935 . S
H404 C440 0.931 1_655 S
H405 C442 0.929 . S
N406 C426 1.433 1_455 S
N406 C432 1.435 . S
N406 C438 1.423 . S
H407 C443 0.932 . S
C408 N383 1.433 1_655 S
C408 C409 1.363 . S
C408 C413 1.370 . S
C409 H382 0.929 . S
C409 C408 1.363 . S
C409 C410 1.385 . S
C410 H384 0.930 . S
C410 C409 1.385 . S
C410 C411 1.357 . S
C411 C410 1.357 . S
C411 C412 1.406 . S
C412 H386 0.929 . S
C412 C411 1.406 . S
C412 C413 1.391 . S
C413 H385 0.931 . S
C413 C408 1.370 . S
C413 C412 1.391 . S
C414 N383 1.435 . S
C414 C415 1.358 . S
C414 C419 1.371 . S
C415 H387 0.930 . S
C415 C414 1.358 . S
C415 C416 1.405 . S
C416 H388 0.932 . S
C416 C415 1.405 . S
C416 C417 1.383 . S
C417 C416 1.383 . S
C417 C418 1.393 . S
C418 H390 0.931 . S
C418 C417 1.393 . S
C418 C419 1.382 . S
C419 H389 0.929 . S
C419 C414 1.371 . S
C419 C418 1.382 . S
C420 N383 1.423 . S
C420 C421 1.354 1_455 S
C420 C425 1.388 . S
C421 H391 0.938 . S
C421 C420 1.354 1_655 S
C421 C422 1.375 1_655 S
C422 H393 0.931 1_455 S
C422 C421 1.375 1_455 S
C422 C423 1.396 . S
C423 C422 1.396 . S
C423 C424 1.348 . S
C423 C441 1.472 . S
C424 H394 0.929 . S
C424 C423 1.348 . S
C424 C425 1.443 . S
C425 H392 0.932 . S
C425 C420 1.388 . S
C425 C424 1.443 . S
C426 N406 1.433 1_655 S
C426 C427 1.363 . S
C426 C431 1.370 . S
C427 H395 0.929 . S
C427 C426 1.363 . S
C427 C428 1.385 . S
C428 H396 0.930 . S
C428 C427 1.385 . S
C428 C429 1.357 . S
C429 C428 1.357 . S
C429 C430 1.406 . S
C430 H397 0.929 . S
C430 C429 1.406 . S
C430 C431 1.391 . S
C431 H398 0.931 . S
C431 C426 1.370 . S
C431 C430 1.391 . S
C432 N406 1.435 . S
C432 C433 1.358 . S
C432 C437 1.371 . S
C433 H399 0.930 . S
C433 C432 1.358 . S
C433 C434 1.405 . S
C434 H400 0.932 . S
C434 C433 1.405 . S
C434 C435 1.383 . S
C435 C434 1.383 . S
C435 C436 1.393 . S
C436 H401 0.931 . S
C436 C435 1.393 . S
C436 C437 1.382 . S
C437 H402 0.929 . S
C437 C432 1.371 . S
C437 C436 1.382 . S
C438 N406 1.423 . S
C438 C439 1.358 1_455 S
C438 C443 1.388 . S
C439 H403 0.935 . S
C439 C438 1.358 1_655 S
C439 C440 1.376 1_655 S
C440 H404 0.931 1_455 S
C440 C439 1.376 1_455 S
C440 C441 1.396 . S
C441 C423 1.472 . S
C441 C440 1.396 . S
C441 C442 1.348 . S
C442 H405 0.929 . S
C442 C441 1.348 . S
C442 C443 1.443 . S
C443 H407 0.932 . S
C443 C438 1.388 . S
C443 C442 1.443 . S
H444 C471 0.929 . S
N445 C470 1.433 . S
N445 C476 1.435 . S
N445 C482 1.423 . S
H446 C472 0.930 . S
H447 C475 0.931 . S
H448 C474 0.929 . S
H449 C477 0.930 . S
H450 C478 0.932 . S
H451 C481 0.929 . S
H452 C480 0.931 . S
H453 C483 0.929 . S
H454 C487 0.932 . S
H455 C484 0.931 . S
H456 C486 0.929 . S
H457 C489 0.929 . S
H458 C490 0.930 . S
H459 C492 0.929 . S
H460 C493 0.931 . S
H461 C495 0.930 . S
H462 C496 0.932 . S
H463 C498 0.931 . S
H464 C499 0.929 . S
H465 C501 0.929 . S
H466 C502 0.931 . S
H467 C504 0.929 . S
N468 C488 1.433 . S
N468 C494 1.435 . S
N468 C500 1.423 . S
H469 C505 0.932 . S
C470 N445 1.433 . S
C470 C471 1.363 . S
C470 C475 1.370 . S
C471 H444 0.929 . S
C471 C470 1.363 . S
C471 C472 1.385 . S
C472 H446 0.930 . S
C472 C471 1.385 . S
C472 C473 1.357 . S
C473 C472 1.357 . S
C473 C474 1.406 . S
C474 H448 0.929 . S
C474 C473 1.406 . S
C474 C475 1.391 . S
C475 H447 0.931 . S
C475 C470 1.370 . S
C475 C474 1.391 . S
C476 N445 1.435 . S
C476 C477 1.358 . S
C476 C481 1.371 . S
C477 H449 0.930 . S
C477 C476 1.358 . S
C477 C478 1.405 . S
C478 H450 0.932 . S
C478 C477 1.405 . S
C478 C479 1.383 . S
C479 C478 1.383 . S
C479 C480 1.393 . S
C480 H452 0.931 . S
C480 C479 1.393 . S
C480 C481 1.382 . S
C481 H451 0.929 . S
C481 C476 1.371 . S
C481 C480 1.382 . S
C482 N445 1.423 . S
C482 C483 1.362 . S
C482 C487 1.388 . S
C483 H453 0.929 . S
C483 C482 1.362 . S
C483 C484 1.376 . S
C484 H455 0.931 . S
C484 C483 1.376 . S
C484 C485 1.396 . S
C485 C484 1.396 . S
C485 C486 1.348 . S
C485 C503 1.472 1_545 S
C486 H456 0.929 . S
C486 C485 1.348 . S
C486 C487 1.443 . S
C487 H454 0.932 . S
C487 C482 1.388 . S
C487 C486 1.443 . S
C488 N468 1.433 . S
C488 C489 1.363 . S
C488 C493 1.370 . S
C489 H457 0.929 . S
C489 C488 1.363 . S
C489 C490 1.385 . S
C490 H458 0.930 . S
C490 C489 1.385 . S
C490 C491 1.357 . S
C491 C490 1.357 . S
C491 C492 1.406 . S
C492 H459 0.929 . S
C492 C491 1.406 . S
C492 C493 1.391 . S
C493 H460 0.931 . S
C493 C488 1.370 . S
C493 C492 1.391 . S
C494 N468 1.435 . S
C494 C495 1.358 . S
C494 C499 1.371 . S
C495 H461 0.930 . S
C495 C494 1.358 . S
C495 C496 1.405 . S
C496 H462 0.932 . S
C496 C495 1.405 . S
C496 C497 1.383 . S
C497 C496 1.383 . S
C497 C498 1.393 . S
C498 H463 0.931 . S
C498 C497 1.393 . S
C498 C499 1.382 . S
C499 H464 0.929 . S
C499 C494 1.371 . S
C499 C498 1.382 . S
C500 N468 1.423 . S
C500 C501 1.362 . S
C500 C505 1.388 . S
C501 H465 0.929 . S
C501 C500 1.362 . S
C501 C502 1.376 . S
C502 H466 0.931 . S
C502 C501 1.376 . S
C502 C503 1.396 . S
C503 C485 1.472 1_565 S
C503 C502 1.396 . S
C503 C504 1.348 . S
C504 H467 0.929 . S
C504 C503 1.348 . S
C504 C505 1.443 . S
C505 H469 0.932 . S
C505 C500 1.388 . S
C505 C504 1.443 . S
H506 C533 0.929 . S
N507 C532 1.433 . S
N507 C538 1.435 . S
N507 C544 1.423 . S
H508 C534 0.930 . S
H509 C537 0.931 . S
H510 C536 0.929 . S
H511 C539 0.930 . S
H512 C540 0.932 . S
H513 C543 0.929 . S
H514 C542 0.931 . S
H515 C545 0.929 . S
H516 C549 0.932 . S
H517 C546 0.931 . S
H518 C548 0.929 . S
H519 C551 0.929 . S
H520 C552 0.930 . S
H521 C554 0.929 . S
H522 C555 0.931 . S
H523 C557 0.930 . S
H524 C558 0.932 . S
H525 C560 0.931 . S
H526 C561 0.929 . S
H527 C563 0.929 . S
H528 C564 0.931 . S
H529 C566 0.929 . S
N530 C550 1.433 . S
N530 C556 1.435 . S
N530 C562 1.423 . S
H531 C567 0.932 . S
C532 N507 1.433 . S
C532 C533 1.363 . S
C532 C537 1.370 . S
C533 H506 0.929 . S
C533 C532 1.363 . S
C533 C534 1.385 . S
C534 H508 0.930 . S
C534 C533 1.385 . S
C534 C535 1.357 . S
C535 C534 1.357 . S
C535 C536 1.406 . S
C536 H510 0.929 . S
C536 C535 1.406 . S
C536 C537 1.391 . S
C537 H509 0.931 . S
C537 C532 1.370 . S
C537 C536 1.391 . S
C538 N507 1.435 . S
C538 C539 1.358 . S
C538 C543 1.371 . S
C539 H511 0.930 . S
C539 C538 1.358 . S
C539 C540 1.405 . S
C540 H512 0.932 . S
C540 C539 1.405 . S
C540 C541 1.383 . S
C541 C540 1.383 . S
C541 C542 1.393 . S
C542 H514 0.931 . S
C542 C541 1.393 . S
C542 C543 1.382 . S
C543 H513 0.929 . S
C543 C538 1.371 . S
C543 C542 1.382 . S
C544 N507 1.423 . S
C544 C545 1.362 . S
C544 C549 1.388 . S
C545 H515 0.929 . S
C545 C544 1.362 . S
C545 C546 1.376 . S
C546 H517 0.931 . S
C546 C545 1.376 . S
C546 C547 1.396 . S
C547 C546 1.396 . S
C547 C548 1.348 . S
C547 C565 1.472 1_554 S
C548 H518 0.929 . S
C548 C547 1.348 . S
C548 C549 1.443 . S
C549 H516 0.932 . S
C549 C544 1.388 . S
C549 C548 1.443 . S
C550 N530 1.433 . S
C550 C551 1.363 . S
C550 C555 1.370 . S
C551 H519 0.929 . S
C551 C550 1.363 . S
C551 C552 1.385 . S
C552 H520 0.930 . S
C552 C551 1.385 . S
C552 C553 1.357 . S
C553 C552 1.357 . S
C553 C554 1.406 . S
C554 H521 0.929 . S
C554 C553 1.406 . S
C554 C555 1.391 . S
C555 H522 0.931 . S
C555 C550 1.370 . S
C555 C554 1.391 . S
C556 N530 1.435 . S
C556 C557 1.358 . S
C556 C561 1.371 . S
C557 H523 0.930 . S
C557 C556 1.358 . S
C557 C558 1.405 . S
C558 H524 0.932 . S
C558 C557 1.405 . S
C558 C559 1.383 . S
C559 C558 1.383 . S
C559 C560 1.393 . S
C560 H525 0.931 . S
C560 C559 1.393 . S
C560 C561 1.382 . S
C561 H526 0.929 . S
C561 C556 1.371 . S
C561 C560 1.382 . S
C562 N530 1.423 . S
C562 C563 1.362 . S
C562 C567 1.388 . S
C563 H527 0.929 . S
C563 C562 1.362 . S
C563 C564 1.376 . S
C564 H528 0.931 . S
C564 C563 1.376 . S
C564 C565 1.396 . S
C565 C547 1.472 1_556 S
C565 C564 1.396 . S
C565 C566 1.348 . S
C566 H529 0.929 . S
C566 C565 1.348 . S
C566 C567 1.443 . S
C567 H531 0.932 . S
C567 C562 1.388 . S
C567 C566 1.443 . S
H568 C595 0.929 . S
N569 C594 1.433 . S
N569 C600 1.435 . S
N569 C606 1.423 . S
H570 C596 0.930 . S
H571 C599 0.931 . S
H572 C598 0.929 . S
H573 C601 0.930 . S
H574 C602 0.932 . S
H575 C605 0.929 . S
H576 C604 0.931 . S
H577 C607 0.929 . S
H578 C611 0.932 . S
H579 C608 0.931 . S
H580 C610 0.929 . S
H581 C613 0.929 . S
H582 C614 0.930 . S
H583 C616 0.929 . S
H584 C617 0.931 . S
H585 C619 0.930 . S
H586 C620 0.932 . S
H587 C622 0.931 . S
H588 C623 0.929 . S
H589 C625 0.929 . S
H590 C626 0.931 . S
H591 C628 0.929 . S
N592 C612 1.433 . S
N592 C618 1.435 . S
N592 C624 1.423 . S
H593 C629 0.932 . S
C594 N569 1.433 . S
C594 C595 1.363 . S
C594 C599 1.370 . S
C595 H568 0.929 . S
C595 C594 1.363 . S
C595 C596 1.385 . S
C596 H570 0.930 . S
C596 C595 1.385 . S
C596 C597 1.357 . S
C597 C596 1.357 . S
C597 C598 1.406 . S
C598 H572 0.929 . S
C598 C597 1.406 . S
C598 C599 1.391 . S
C599 H571 0.931 . S
C599 C594 1.370 . S
C599 C598 1.391 . S
C600 N569 1.435 . S
C600 C601 1.358 . S
C600 C605 1.371 . S
C601 H573 0.930 . S
C601 C600 1.358 . S
C601 C602 1.405 . S
C602 H574 0.932 . S
C602 C601 1.405 . S
C602 C603 1.383 . S
C603 C602 1.383 . S
C603 C604 1.393 . S
C604 H576 0.931 . S
C604 C603 1.393 . S
C604 C605 1.382 . S
C605 H575 0.929 . S
C605 C600 1.371 . S
C605 C604 1.382 . S
C606 N569 1.423 . S
C606 C607 1.362 . S
C606 C611 1.388 . S
C607 H577 0.929 . S
C607 C606 1.362 . S
C607 C608 1.376 . S
C608 H579 0.931 . S
C608 C607 1.376 . S
C608 C609 1.396 . S
C609 C608 1.396 . S
C609 C610 1.348 . S
C609 C627 1.472 1_545 S
C610 H580 0.929 . S
C610 C609 1.348 . S
C610 C611 1.443 . S
C611 H578 0.932 . S
C611 C606 1.388 . S
C611 C610 1.443 . S
C612 N592 1.433 . S
C612 C613 1.363 . S
C612 C617 1.370 . S
C613 H581 0.929 . S
C613 C612 1.363 . S
C613 C614 1.385 . S
C614 H582 0.930 . S
C614 C613 1.385 . S
C614 C615 1.357 . S
C615 C614 1.357 . S
C615 C616 1.406 . S
C616 H583 0.929 . S
C616 C615 1.406 . S
C616 C617 1.391 . S
C617 H584 0.931 . S
C617 C612 1.370 . S
C617 C616 1.391 . S
C618 N592 1.435 . S
C618 C619 1.358 . S
C618 C623 1.371 . S
C619 H585 0.930 . S
C619 C618 1.358 . S
C619 C620 1.405 . S
C620 H586 0.932 . S
C620 C619 1.405 . S
C620 C621 1.383 . S
C621 C620 1.383 . S
C621 C622 1.393 . S
C622 H587 0.931 . S
C622 C621 1.393 . S
C622 C623 1.382 . S
C623 H588 0.929 . S
C623 C618 1.371 . S
C623 C622 1.382 . S
C624 N592 1.423 . S
C624 C625 1.362 . S
C624 C629 1.388 . S
C625 H589 0.929 . S
C625 C624 1.362 . S
C625 C626 1.376 . S
C626 H590 0.931 . S
C626 C625 1.376 . S
C626 C627 1.396 . S
C627 C609 1.472 1_565 S
C627 C626 1.396 . S
C627 C628 1.348 . S
C628 H591 0.929 . S
C628 C627 1.348 . S
C628 C629 1.443 . S
C629 H593 0.932 . S
C629 C624 1.388 . S
C629 C628 1.443 . S
H630 C657 0.929 . S
N631 C656 1.433 . S
N631 C662 1.435 . S
N631 C668 1.423 . S
H632 C658 0.930 . S
H633 C661 0.931 . S
H634 C660 0.929 . S
H635 C663 0.930 . S
H636 C664 0.932 . S
H637 C667 0.929 . S
H638 C666 0.931 . S
H639 C669 0.929 . S
H640 C673 0.932 . S
H641 C670 0.931 . S
H642 C672 0.929 . S
H643 C675 0.929 . S
H644 C676 0.930 . S
H645 C678 0.929 . S
H646 C679 0.931 . S
H647 C681 0.930 . S
H648 C682 0.932 . S
H649 C684 0.931 . S
H650 C685 0.929 . S
H651 C687 0.929 . S
H652 C688 0.931 . S
H653 C690 0.929 . S
N654 C674 1.433 . S
N654 C680 1.435 . S
N654 C686 1.423 . S
H655 C691 0.932 . S
C656 N631 1.433 . S
C656 C657 1.363 . S
C656 C661 1.370 . S
C657 H630 0.929 . S
C657 C656 1.363 . S
C657 C658 1.385 . S
C658 H632 0.930 . S
C658 C657 1.385 . S
C658 C659 1.357 . S
C659 C658 1.357 . S
C659 C660 1.406 . S
C660 H634 0.929 . S
C660 C659 1.406 . S
C660 C661 1.391 . S
C661 H633 0.931 . S
C661 C656 1.370 . S
C661 C660 1.391 . S
C662 N631 1.435 . S
C662 C663 1.358 . S
C662 C667 1.371 . S
C663 H635 0.930 . S
C663 C662 1.358 . S
C663 C664 1.405 . S
C664 H636 0.932 . S
C664 C663 1.405 . S
C664 C665 1.383 . S
C665 C664 1.383 . S
C665 C666 1.393 . S
C666 H638 0.931 . S
C666 C665 1.393 . S
C666 C667 1.382 . S
C667 H637 0.929 . S
C667 C662 1.371 . S
C667 C666 1.382 . S
C668 N631 1.423 . S
C668 C669 1.362 . S
C668 C673 1.388 . S
C669 H639 0.929 . S
C669 C668 1.362 . S
C669 C670 1.376 . S
C670 H641 0.931 . S
C670 C669 1.376 . S
C670 C671 1.396 . S
C671 C670 1.396 . S
C671 C672 1.348 . S
C671 C689 1.472 1_554 S
C672 H642 0.929 . S
C672 C671 1.348 . S
C672 C673 1.443 . S
C673 H640 0.932 . S
C673 C668 1.388 . S
C673 C672 1.443 . S
C674 N654 1.433 . S
C674 C675 1.363 . S
C674 C679 1.370 . S
C675 H643 0.929 . S
C675 C674 1.363 . S
C675 C676 1.385 . S
C676 H644 0.930 . S
C676 C675 1.385 . S
C676 C677 1.357 . S
C677 C676 1.357 . S
C677 C678 1.406 . S
C678 H645 0.929 . S
C678 C677 1.406 . S
C678 C679 1.391 . S
C679 H646 0.931 . S
C679 C674 1.370 . S
C679 C678 1.391 . S
C680 N654 1.435 . S
C680 C681 1.358 . S
C680 C685 1.371 . S
C681 H647 0.930 . S
C681 C680 1.358 . S
C681 C682 1.405 . S
C682 H648 0.932 . S
C682 C681 1.405 . S
C682 C683 1.383 . S
C683 C682 1.383 . S
C683 C684 1.393 . S
C684 H649 0.931 . S
C684 C683 1.393 . S
C684 C685 1.382 . S
C685 H650 0.929 . S
C685 C680 1.371 . S
C685 C684 1.382 . S
C686 N654 1.423 . S
C686 C687 1.362 . S
C686 C691 1.388 . S
C687 H651 0.929 . S
C687 C686 1.362 . S
C687 C688 1.376 . S
C688 H652 0.931 . S
C688 C687 1.376 . S
C688 C689 1.396 . S
C689 C671 1.472 1_556 S
C689 C688 1.396 . S
C689 C690 1.348 . S
C690 H653 0.929 . S
C690 C689 1.348 . S
C690 C691 1.443 . S
C691 H655 0.932 . S
C691 C686 1.388 . S
C691 C690 1.443 . S
H692 C698 0.930 . S
H693 C702 0.930 . S
H694 C707 0.929 . S
H695 C705 0.929 . S
H696 C700 0.929 . S
H697 C706 0.929 . S
C698 H692 0.930 . S
C698 C699 1.367 . S
C698 C706 1.378 . S
C699 C698 1.367 . S
C699 C707 1.433 . S
C700 H696 0.929 . S
C700 C702 1.378 . S
C700 C704 1.350 . S
C701 C704 1.463 . S
C701 C706 1.350 . S
C701 N709 1.427 . S
C702 H693 0.930 . S
C702 C700 1.378 . S
C702 C703 1.367 . S
C703 C702 1.367 . S
C703 C705 1.433 . S
C704 C700 1.350 . S
C704 C701 1.463 . S
C704 N708 1.427 . S
C705 H695 0.929 . S
C705 C703 1.433 . S
C705 N708 1.384 . S
C706 H697 0.929 . S
C706 C698 1.378 . S
C706 C701 1.350 . S
C707 H694 0.929 . S
C707 C699 1.433 . S
C707 N709 1.384 . S
N708 C704 1.427 . S
N708 C705 1.384 . S
N709 C701 1.427 . S
N709 C707 1.384 . S
H710 C716 0.930 . S
H711 C720 0.930 . S
H712 C725 0.929 . S
H713 C723 0.929 . S
H714 C718 0.929 . S
H715 C724 0.929 . S
C716 H710 0.930 . S
C716 C717 1.367 . S
C716 C724 1.378 . S
C717 C716 1.367 . S
C717 C725 1.433 . S
C718 H714 0.929 . S
C718 C720 1.378 . S
C718 C722 1.350 . S
C719 C722 1.463 . S
C719 C724 1.350 . S
C719 N727 1.427 . S
C720 H711 0.930 . S
C720 C718 1.378 . S
C720 C721 1.367 . S
C721 C720 1.367 . S
C721 C723 1.433 . S
C722 C718 1.350 . S
C722 C719 1.463 . S
C722 N726 1.427 . S
C723 H713 0.929 . S
C723 C721 1.433 . S
C723 N726 1.384 . S
C724 H715 0.929 . S
C724 C716 1.378 . S
C724 C719 1.350 . S
C725 H712 0.929 . S
C725 C717 1.433 . S
C725 N727 1.384 . S
N726 C722 1.427 . S
N726 C723 1.384 . S
N727 C719 1.427 . S
N727 C725 1.384 . S
H728 C734 0.930 . S
H729 C738 0.930 . S
H730 C743 0.929 . S
H731 C741 0.929 . S
H732 C736 0.929 . S
H733 C742 0.929 . S
C734 H728 0.930 . S
C734 C735 1.367 . S
C734 C742 1.378 . S
C735 C734 1.367 . S
C735 C743 1.433 . S
C736 H732 0.929 . S
C736 C738 1.378 . S
C736 C740 1.350 . S
C737 C740 1.463 . S
C737 C742 1.350 . S
C737 N745 1.427 . S
C738 H729 0.930 . S
C738 C736 1.378 . S
C738 C739 1.367 . S
C739 C738 1.367 . S
C739 C741 1.433 . S
C740 C736 1.350 . S
C740 C737 1.463 . S
C740 N744 1.427 . S
C741 H731 0.929 . S
C741 C739 1.433 . S
C741 N744 1.384 . S
C742 H733 0.929 . S
C742 C734 1.378 . S
C742 C737 1.350 . S
C743 H730 0.929 . S
C743 C735 1.433 . S
C743 N745 1.384 . S
N744 C740 1.427 . S
N744 C741 1.384 . S
N745 C737 1.427 . S
N745 C743 1.384 . S
H746 C752 0.930 . S
H747 C756 0.930 . S
H748 C761 0.929 . S
H749 C759 0.929 . S
H750 C754 0.929 . S
H751 C760 0.929 . S
C752 H746 0.930 . S
C752 C753 1.367 . S
C752 C760 1.378 . S
C753 C752 1.367 . S
C753 C761 1.433 . S
C754 H750 0.929 . S
C754 C756 1.378 . S
C754 C758 1.350 . S
C755 C758 1.463 . S
C755 C760 1.350 . S
C755 N763 1.427 . S
C756 H747 0.930 . S
C756 C754 1.378 . S
C756 C757 1.367 . S
C757 C756 1.367 . S
C757 C759 1.433 . S
C758 C754 1.350 . S
C758 C755 1.463 . S
C758 N762 1.427 . S
C759 H749 0.929 . S
C759 C757 1.433 . S
C759 N762 1.384 . S
C760 H751 0.929 . S
C760 C752 1.378 . S
C760 C755 1.350 . S
C761 H748 0.929 . S
C761 C753 1.433 . S
C761 N763 1.384 . S
N762 C758 1.427 . S
N762 C759 1.384 . S
N763 C755 1.427 . S
N763 C761 1.384 . S
H764 C770 0.930 . S
H765 C774 0.930 . S
H766 C779 0.929 . S
H767 C777 0.929 . S
H768 C772 0.929 . S
H769 C778 0.929 . S
C770 H764 0.930 . S
C770 C771 1.367 . S
C770 C778 1.378 . S
C771 C770 1.367 . S
C771 C779 1.433 . S
C772 H768 0.929 . S
C772 C774 1.378 . S
C772 C776 1.350 . S
C773 C776 1.463 . S
C773 C778 1.350 . S
C773 N781 1.427 . S
C774 H765 0.930 . S
C774 C772 1.378 . S
C774 C775 1.367 . S
C775 C774 1.367 . S
C775 C777 1.433 . S
C776 C772 1.350 . S
C776 C773 1.463 . S
C776 N780 1.427 . S
C777 H767 0.929 . S
C777 C775 1.433 . S
C777 N780 1.384 . S
C778 H769 0.929 . S
C778 C770 1.378 . S
C778 C773 1.350 . S
C779 H766 0.929 . S
C779 C771 1.433 . S
C779 N781 1.384 . S
N780 C776 1.427 . S
N780 C777 1.384 . S
N781 C773 1.427 . S
N781 C779 1.384 . S
H782 C788 0.930 . S
H783 C792 0.930 . S
H784 C797 0.929 . S
H785 C795 0.929 . S
H786 C790 0.929 . S
H787 C796 0.929 . S
C788 H782 0.930 . S
C788 C789 1.367 . S
C788 C796 1.378 . S
C789 C788 1.367 . S
C789 C797 1.433 . S
C790 H786 0.929 . S
C790 C792 1.378 . S
C790 C794 1.350 . S
C791 C794 1.463 . S
C791 C796 1.350 . S
C791 N799 1.427 . S
C792 H783 0.930 . S
C792 C790 1.378 . S
C792 C793 1.367 . S
C793 C792 1.367 . S
C793 C795 1.433 . S
C794 C790 1.350 . S
C794 C791 1.463 . S
C794 N798 1.427 . S
C795 H785 0.929 . S
C795 C793 1.433 . S
C795 N798 1.384 . S
C796 H787 0.929 . S
C796 C788 1.378 . S
C796 C791 1.350 . S
C797 H784 0.929 . S
C797 C789 1.433 . S
C797 N799 1.384 . S
N798 C794 1.427 . S
N798 C795 1.384 . S
N799 C791 1.427 . S
N799 C797 1.384 . S
H800 C806 0.930 . S
H801 C810 0.930 . S
H802 C815 0.929 . S
H803 C813 0.929 . S
H804 C808 0.929 . S
H805 C814 0.929 . S
C806 H800 0.930 . S
C806 C807 1.367 . S
C806 C814 1.378 . S
C807 C806 1.367 . S
C807 C815 1.433 . S
C808 H804 0.929 . S
C808 C810 1.378 . S
C808 C812 1.350 . S
C809 C812 1.463 . S
C809 C814 1.350 . S
C809 N817 1.427 . S
C810 H801 0.930 . S
C810 C808 1.378 . S
C810 C811 1.367 . S
C811 C810 1.367 . S
C811 C813 1.433 . S
C812 C808 1.350 . S
C812 C809 1.463 . S
C812 N816 1.427 . S
C813 H803 0.929 . S
C813 C811 1.433 . S
C813 N816 1.384 . S
C814 H805 0.929 . S
C814 C806 1.378 . S
C814 C809 1.350 . S
C815 H802 0.929 . S
C815 C807 1.433 . S
C815 N817 1.384 . S
N816 C812 1.427 . S
N816 C813 1.384 . S
N817 C809 1.427 . S
N817 C815 1.384 . S
H818 C824 0.930 . S
H819 C828 0.930 . S
H820 C833 0.929 . S
H821 C831 0.929 . S
H822 C826 0.929 . S
H823 C832 0.929 . S
C824 H818 0.930 . S
C824 C825 1.367 . S
C824 C832 1.378 . S
C825 C824 1.367 . S
C825 C833 1.433 . S
C826 H822 0.929 . S
C826 C828 1.378 . S
C826 C830 1.350 . S
C827 C830 1.463 . S
C827 C832 1.350 . S
C827 N835 1.427 . S
C828 H819 0.930 . S
C828 C826 1.378 . S
C828 C829 1.367 . S
C829 C828 1.367 . S
C829 C831 1.433 . S
C830 C826 1.350 . S
C830 C827 1.463 . S
C830 N834 1.427 . S
C831 H821 0.929 . S
C831 C829 1.433 . S
C831 N834 1.384 . S
C832 H823 0.929 . S
C832 C824 1.378 . S
C832 C827 1.350 . S
C833 H820 0.929 . S
C833 C825 1.433 . S
C833 N835 1.384 . S
N834 C830 1.427 . S
N834 C831 1.384 . S
N835 C827 1.427 . S
N835 C833 1.384 . S
H836 C842 0.930 . S
H837 C846 0.930 . S
H838 C851 0.929 . S
H839 C849 0.929 . S
H840 C844 0.929 . S
H841 C850 0.929 . S
C842 H836 0.930 . S
C842 C843 1.367 . S
C842 C850 1.378 . S
C843 C842 1.367 . S
C843 C851 1.433 . S
C844 H840 0.929 . S
C844 C846 1.378 . S
C844 C848 1.350 . S
C845 C848 1.463 . S
C845 C850 1.350 . S
C845 N853 1.427 . S
C846 H837 0.930 . S
C846 C844 1.378 . S
C846 C847 1.367 . S
C847 C846 1.367 . S
C847 C849 1.433 . S
C848 C844 1.350 . S
C848 C845 1.463 . S
C848 N852 1.427 . S
C849 H839 0.929 . S
C849 C847 1.433 . S
C849 N852 1.384 . S
C850 H841 0.929 . S
C850 C842 1.378 . S
C850 C845 1.350 . S
C851 H838 0.929 . S
C851 C843 1.433 . S
C851 N853 1.384 . S
N852 C848 1.427 . S
N852 C849 1.384 . S
N853 C845 1.427 . S
N853 C851 1.384 . S
H854 C860 0.930 . S
H855 C864 0.930 . S
H856 C869 0.929 . S
H857 C867 0.929 . S
H858 C862 0.929 . S
H859 C868 0.929 . S
C860 H854 0.930 . S
C860 C861 1.367 . S
C860 C868 1.378 . S
C861 C860 1.367 . S
C861 C869 1.433 . S
C862 H858 0.929 . S
C862 C864 1.378 . S
C862 C866 1.350 . S
C863 C866 1.463 . S
C863 C868 1.350 . S
C863 N871 1.427 . S
C864 H855 0.930 . S
C864 C862 1.378 . S
C864 C865 1.367 . S
C865 C864 1.367 . S
C865 C867 1.433 . S
C866 C862 1.350 . S
C866 C863 1.463 . S
C866 N870 1.427 . S
C867 H857 0.929 . S
C867 C865 1.433 . S
C867 N870 1.384 . S
C868 H859 0.929 . S
C868 C860 1.378 . S
C868 C863 1.350 . S
C869 H856 0.929 . S
C869 C861 1.433 . S
C869 N871 1.384 . S
N870 C866 1.427 . S
N870 C867 1.384 . S
N871 C863 1.427 . S
N871 C869 1.384 . S
H872 C878 0.930 . S
H873 C882 0.930 . S
H874 C887 0.929 . S
H875 C885 0.929 . S
H876 C880 0.929 . S
H877 C886 0.929 . S
C878 H872 0.930 . S
C878 C879 1.367 . S
C878 C886 1.378 . S
C879 C878 1.367 . S
C879 C887 1.433 . S
C880 H876 0.929 . S
C880 C882 1.378 . S
C880 C884 1.350 . S
C881 C884 1.463 . S
C881 C886 1.350 . S
C881 N889 1.427 . S
C882 H873 0.930 . S
C882 C880 1.378 . S
C882 C883 1.367 . S
C883 C882 1.367 . S
C883 C885 1.433 . S
C884 C880 1.350 . S
C884 C881 1.463 . S
C884 N888 1.427 . S
C885 H875 0.929 . S
C885 C883 1.433 . S
C885 N888 1.384 . S
C886 H877 0.929 . S
C886 C878 1.378 . S
C886 C881 1.350 . S
C887 H874 0.929 . S
C887 C879 1.433 . S
C887 N889 1.384 . S
N888 C884 1.427 . S
N888 C885 1.384 . S
N889 C881 1.427 . S
N889 C887 1.384 . S
H890 C896 0.930 . S
H891 C900 0.930 . S
H892 C905 0.929 . S
H893 C903 0.929 . S
H894 C898 0.929 . S
H895 C904 0.929 . S
C896 H890 0.930 . S
C896 C897 1.367 . S
C896 C904 1.378 . S
C897 C896 1.367 . S
C897 C905 1.433 . S
C898 H894 0.929 . S
C898 C900 1.378 . S
C898 C902 1.350 . S
C899 C902 1.463 . S
C899 C904 1.350 . S
C899 N907 1.427 . S
C900 H891 0.930 . S
C900 C898 1.378 . S
C900 C901 1.367 . S
C901 C900 1.367 . S
C901 C903 1.433 . S
C902 C898 1.350 . S
C902 C899 1.463 . S
C902 N906 1.427 . S
C903 H893 0.929 . S
C903 C901 1.433 . S
C903 N906 1.384 . S
C904 H895 0.929 . S
C904 C896 1.378 . S
C904 C899 1.350 . S
C905 H892 0.929 . S
C905 C897 1.433 . S
C905 N907 1.384 . S
N906 C902 1.427 . S
N906 C903 1.384 . S
N907 C899 1.427 . S
N907 C905 1.384 . S
H908 C914 0.930 . S
H909 C918 0.930 . S
H910 C923 0.929 . S
H911 C921 0.929 . S
H912 C916 0.929 . S
H913 C922 0.929 . S
C914 H908 0.930 . S
C914 C915 1.367 . S
C914 C922 1.378 . S
C915 C914 1.367 . S
C915 C923 1.433 . S
C916 H912 0.929 . S
C916 C918 1.378 . S
C916 C920 1.350 . S
C917 C920 1.463 . S
C917 C922 1.350 . S
C917 N925 1.427 . S
C918 H909 0.930 . S
C918 C916 1.378 . S
C918 C919 1.367 . S
C919 C918 1.367 . S
C919 C921 1.433 . S
C920 C916 1.350 . S
C920 C917 1.463 . S
C920 N924 1.427 . S
C921 H911 0.929 . S
C921 C919 1.433 . S
C921 N924 1.384 . S
C922 H913 0.929 . S
C922 C914 1.378 . S
C922 C917 1.350 . S
C923 H910 0.929 . S
C923 C915 1.433 . S
C923 N925 1.384 . S
N924 C920 1.427 . S
N924 C921 1.384 . S
N925 C917 1.427 . S
N925 C923 1.384 . S
H926 C932 0.930 . S
H927 C936 0.930 . S
H928 C941 0.929 . S
H929 C939 0.929 . S
H930 C934 0.929 . S
H931 C940 0.929 . S
C932 H926 0.930 . S
C932 C933 1.367 . S
C932 C940 1.378 . S
C933 C932 1.367 . S
C933 C941 1.433 . S
C934 H930 0.929 . S
C934 C936 1.378 . S
C934 C938 1.350 . S
C935 C938 1.463 . S
C935 C940 1.350 . S
C935 N943 1.427 . S
C936 H927 0.930 . S
C936 C934 1.378 . S
C936 C937 1.367 . S
C937 C936 1.367 . S
C937 C939 1.433 . S
C938 C934 1.350 . S
C938 C935 1.463 . S
C938 N942 1.427 . S
C939 H929 0.929 . S
C939 C937 1.433 . S
C939 N942 1.384 . S
C940 H931 0.929 . S
C940 C932 1.378 . S
C940 C935 1.350 . S
C941 H928 0.929 . S
C941 C933 1.433 . S
C941 N943 1.384 . S
N942 C938 1.427 . S
N942 C939 1.384 . S
N943 C935 1.427 . S
N943 C941 1.384 . S
H944 C950 0.930 . S
H945 C954 0.930 . S
H946 C959 0.929 . S
H947 C957 0.929 . S
H948 C952 0.929 . S
H949 C958 0.929 . S
C950 H944 0.930 . S
C950 C951 1.367 . S
C950 C958 1.378 . S
C951 C950 1.367 . S
C951 C959 1.433 . S
C952 H948 0.929 . S
C952 C954 1.378 . S
C952 C956 1.350 . S
C953 C956 1.463 . S
C953 C958 1.350 . S
C953 N961 1.427 . S
C954 H945 0.930 . S
C954 C952 1.378 . S
C954 C955 1.367 . S
C955 C954 1.367 . S
C955 C957 1.433 . S
C956 C952 1.350 . S
C956 C953 1.463 . S
C956 N960 1.427 . S
C957 H947 0.929 . S
C957 C955 1.433 . S
C957 N960 1.384 . S
C958 H949 0.929 . S
C958 C950 1.378 . S
C958 C953 1.350 . S
C959 H946 0.929 . S
C959 C951 1.433 . S
C959 N961 1.384 . S
N960 C956 1.427 . S
N960 C957 1.384 . S
N961 C953 1.427 . S
N961 C959 1.384 . S
H962 C968 0.930 . S
H963 C972 0.930 . S
H964 C977 0.929 . S
H965 C975 0.929 . S
H966 C970 0.929 . S
H967 C976 0.929 . S
C968 H962 0.930 . S
C968 C969 1.367 . S
C968 C976 1.378 . S
C969 C968 1.367 . S
C969 C977 1.433 . S
C970 H966 0.929 . S
C970 C972 1.378 . S
C970 C974 1.350 . S
C971 C974 1.463 . S
C971 C976 1.350 . S
C971 N979 1.427 . S
C972 H963 0.930 . S
C972 C970 1.378 . S
C972 C973 1.367 . S
C973 C972 1.367 . S
C973 C975 1.433 . S
C974 C970 1.350 . S
C974 C971 1.463 . S
C974 N978 1.427 . S
C975 H965 0.929 . S
C975 C973 1.433 . S
C975 N978 1.384 . S
C976 H967 0.929 . S
C976 C968 1.378 . S
C976 C971 1.350 . S
C977 H964 0.929 . S
C977 C969 1.433 . S
C977 N979 1.384 . S
N978 C974 1.427 . S
N978 C975 1.384 . S
N979 C971 1.427 . S
N979 C977 1.384 . S
H980 C986 0.930 . S
H981 C990 0.930 . S
H982 C995 0.929 . S
H983 C993 0.929 . S
H984 C988 0.929 . S
H985 C994 0.929 . S
C986 H980 0.930 . S
C986 C987 1.367 . S
C986 C994 1.378 . S
C987 C986 1.367 . S
C987 C995 1.433 . S
C988 H984 0.929 . S
C988 C990 1.378 . S
C988 C992 1.350 . S
C989 C992 1.463 . S
C989 C994 1.350 . S
C989 N997 1.427 . S
C990 H981 0.930 . S
C990 C988 1.378 . S
C990 C991 1.367 . S
C991 C990 1.367 . S
C991 C993 1.433 . S
C992 C988 1.350 . S
C992 C989 1.463 . S
C992 N996 1.427 . S
C993 H983 0.929 . S
C993 C991 1.433 . S
C993 N996 1.384 . S
C994 H985 0.929 . S
C994 C986 1.378 . S
C994 C989 1.350 . S
C995 H982 0.929 . S
C995 C987 1.433 . S
C995 N997 1.384 . S
N996 C992 1.427 . S
N996 C993 1.384 . S
N997 C989 1.427 . S
N997 C995 1.384 . S
H998 C1004 0.930 . S
H999 C1008 0.930 . S
H1000 C1013 0.929 . S
H1001 C1011 0.929 . S
H1002 C1006 0.929 . S
H1003 C1012 0.929 . S
C1004 H998 0.930 . S
C1004 C1005 1.367 . S
C1004 C1012 1.378 . S
C1005 C1004 1.367 . S
C1005 C1013 1.433 . S
C1006 H1002 0.929 . S
C1006 C1008 1.378 . S
C1006 C1010 1.350 . S
C1007 C1010 1.463 . S
C1007 C1012 1.350 . S
C1007 N1015 1.427 . S
C1008 H999 0.930 . S
C1008 C1006 1.378 . S
C1008 C1009 1.367 . S
C1009 C1008 1.367 . S
C1009 C1011 1.433 . S
C1010 C1006 1.350 . S
C1010 C1007 1.463 . S
C1010 N1014 1.427 . S
C1011 H1001 0.929 . S
C1011 C1009 1.433 . S
C1011 N1014 1.384 . S
C1012 H1003 0.929 . S
C1012 C1004 1.378 . S
C1012 C1007 1.350 . S
C1013 H1000 0.929 . S
C1013 C1005 1.433 . S
C1013 N1015 1.384 . S
N1014 C1010 1.427 . S
N1014 C1011 1.384 . S
N1015 C1007 1.427 . S
N1015 C1013 1.384 . S
H1016 C1022 0.930 . S
H1017 C1026 0.930 . S
H1018 C1031 0.929 . S
H1019 C1029 0.929 . S
H1020 C1024 0.929 . S
H1021 C1030 0.929 . S
C1022 H1016 0.930 . S
C1022 C1023 1.367 . S
C1022 C1030 1.378 . S
C1023 C1022 1.367 . S
C1023 C1031 1.433 . S
C1024 H1020 0.929 . S
C1024 C1026 1.378 . S
C1024 C1028 1.350 . S
C1025 C1028 1.463 . S
C1025 C1030 1.350 . S
C1025 N1033 1.427 . S
C1026 H1017 0.930 . S
C1026 C1024 1.378 . S
C1026 C1027 1.367 . S
C1027 C1026 1.367 . S
C1027 C1029 1.433 . S
C1028 C1024 1.350 . S
C1028 C1025 1.463 . S
C1028 N1032 1.427 . S
C1029 H1019 0.929 . S
C1029 C1027 1.433 . S
C1029 N1032 1.384 . S
C1030 H1021 0.929 . S
C1030 C1022 1.378 . S
C1030 C1025 1.350 . S
C1031 H1018 0.929 . S
C1031 C1023 1.433 . S
C1031 N1033 1.384 . S
N1032 C1028 1.427 . S
N1032 C1029 1.384 . S
N1033 C1025 1.427 . S
N1033 C1031 1.384 . S
H1034 C1040 0.930 . S
H1035 C1044 0.930 . S
H1036 C1049 0.929 . S
H1037 C1047 0.929 . S
H1038 C1042 0.929 . S
H1039 C1048 0.929 . S
C1040 H1034 0.930 . S
C1040 C1041 1.367 . S
C1040 C1048 1.378 . S
C1041 C1040 1.367 . S
C1041 C1049 1.433 . S
C1042 H1038 0.929 . S
C1042 C1044 1.378 . S
C1042 C1046 1.350 . S
C1043 C1046 1.463 . S
C1043 C1048 1.350 . S
C1043 N1051 1.427 . S
C1044 H1035 0.930 . S
C1044 C1042 1.378 . S
C1044 C1045 1.367 . S
C1045 C1044 1.367 . S
C1045 C1047 1.433 . S
C1046 C1042 1.350 . S
C1046 C1043 1.463 . S
C1046 N1050 1.427 . S
C1047 H1037 0.929 . S
C1047 C1045 1.433 . S
C1047 N1050 1.384 . S
C1048 H1039 0.929 . S
C1048 C1040 1.378 . S
C1048 C1043 1.350 . S
C1049 H1036 0.929 . S
C1049 C1041 1.433 . S
C1049 N1051 1.384 . S
N1050 C1046 1.427 . S
N1050 C1047 1.384 . S
N1051 C1043 1.427 . S
N1051 C1049 1.384 . S
H1052 C1058 0.930 . S
H1053 C1062 0.930 . S
H1054 C1067 0.929 . S
H1055 C1065 0.929 . S
H1056 C1060 0.929 . S
H1057 C1066 0.929 . S
C1058 H1052 0.930 . S
C1058 C1059 1.367 . S
C1058 C1066 1.378 . S
C1059 C1058 1.367 . S
C1059 C1067 1.433 . S
C1060 H1056 0.929 . S
C1060 C1062 1.378 . S
C1060 C1064 1.350 . S
C1061 C1064 1.463 . S
C1061 C1066 1.350 . S
C1061 N1069 1.427 . S
C1062 H1053 0.930 . S
C1062 C1060 1.378 . S
C1062 C1063 1.367 . S
C1063 C1062 1.367 . S
C1063 C1065 1.433 . S
C1064 C1060 1.350 . S
C1064 C1061 1.463 . S
C1064 N1068 1.427 . S
C1065 H1055 0.929 . S
C1065 C1063 1.433 . S
C1065 N1068 1.384 . S
C1066 H1057 0.929 . S
C1066 C1058 1.378 . S
C1066 C1061 1.350 . S
C1067 H1054 0.929 . S
C1067 C1059 1.433 . S
C1067 N1069 1.384 . S
N1068 C1064 1.427 . S
N1068 C1065 1.384 . S
N1069 C1061 1.427 . S
N1069 C1067 1.384 . S
H1070 C1076 0.930 . S
H1071 C1080 0.930 . S
H1072 C1085 0.929 . S
H1073 C1083 0.929 . S
H1074 C1078 0.929 . S
H1075 C1084 0.929 . S
C1076 H1070 0.930 . S
C1076 C1077 1.367 . S
C1076 C1084 1.378 . S
C1077 C1076 1.367 . S
C1077 C1085 1.433 . S
C1078 H1074 0.929 . S
C1078 C1080 1.378 . S
C1078 C1082 1.350 . S
C1079 C1082 1.463 . S
C1079 C1084 1.350 . S
C1079 N1087 1.427 . S
C1080 H1071 0.930 . S
C1080 C1078 1.378 . S
C1080 C1081 1.367 . S
C1081 C1080 1.367 . S
C1081 C1083 1.433 . S
C1082 C1078 1.350 . S
C1082 C1079 1.463 . S
C1082 N1086 1.427 . S
C1083 H1073 0.929 . S
C1083 C1081 1.433 . S
C1083 N1086 1.384 . S
C1084 H1075 0.929 . S
C1084 C1076 1.378 . S
C1084 C1079 1.350 . S
C1085 H1072 0.929 . S
C1085 C1077 1.433 . S
C1085 N1087 1.384 . S
N1086 C1082 1.427 . S
N1086 C1083 1.384 . S
N1087 C1079 1.427 . S
N1087 C1085 1.384 . S
H1088 C1094 0.930 . S
H1089 C1098 0.930 . S
H1090 C1103 0.929 . S
H1091 C1101 0.929 . S
H1092 C1096 0.929 . S
H1093 C1102 0.929 . S
C1094 H1088 0.930 . S
C1094 C1095 1.367 . S
C1094 C1102 1.378 . S
C1095 C1094 1.367 . S
C1095 C1103 1.433 . S
C1096 H1092 0.929 . S
C1096 C1098 1.378 . S
C1096 C1100 1.350 . S
C1097 C1100 1.463 . S
C1097 C1102 1.350 . S
C1097 N1105 1.427 . S
C1098 H1089 0.930 . S
C1098 C1096 1.378 . S
C1098 C1099 1.367 . S
C1099 C1098 1.367 . S
C1099 C1101 1.433 . S
C1100 C1096 1.350 . S
C1100 C1097 1.463 . S
C1100 N1104 1.427 . S
C1101 H1091 0.929 . S
C1101 C1099 1.433 . S
C1101 N1104 1.384 . S
C1102 H1093 0.929 . S
C1102 C1094 1.378 . S
C1102 C1097 1.350 . S
C1103 H1090 0.929 . S
C1103 C1095 1.433 . S
C1103 N1105 1.384 . S
N1104 C1100 1.427 . S
N1104 C1101 1.384 . S
N1105 C1097 1.427 . S
N1105 C1103 1.384 . S
H1106 C1112 0.930 . S
H1107 C1116 0.930 . S
H1108 C1121 0.929 . S
H1109 C1119 0.929 . S
H1110 C1114 0.929 . S
H1111 C1120 0.929 . S
C1112 H1106 0.930 . S
C1112 C1113 1.367 . S
C1112 C1120 1.378 . S
C1113 C1112 1.367 . S
C1113 C1121 1.433 . S
C1114 H1110 0.929 . S
C1114 C1116 1.378 . S
C1114 C1118 1.350 . S
C1115 C1118 1.463 . S
C1115 C1120 1.350 . S
C1115 N1123 1.427 . S
C1116 H1107 0.930 . S
C1116 C1114 1.378 . S
C1116 C1117 1.367 . S
C1117 C1116 1.367 . S
C1117 C1119 1.433 . S
C1118 C1114 1.350 . S
C1118 C1115 1.463 . S
C1118 N1122 1.427 . S
C1119 H1109 0.929 . S
C1119 C1117 1.433 . S
C1119 N1122 1.384 . S
C1120 H1111 0.929 . S
C1120 C1112 1.378 . S
C1120 C1115 1.350 . S
C1121 H1108 0.929 . S
C1121 C1113 1.433 . S
C1121 N1123 1.384 . S
N1122 C1118 1.427 . S
N1122 C1119 1.384 . S
N1123 C1115 1.427 . S
N1123 C1121 1.384 . S
C703 C355 1.502 . S
C699 C15 1.515 . S
C721 C435 1.662 . S
C717 C55 1.722 . S
C739 C367 1.632 . S
C735 C101 1.714 . S
C757 C411 1.794 . S
C753 C141 1.977 . S
C775 C479 1.456 . S
C771 C2 1.436 . S
C793 C559 1.475 . S
C789 C61 1.494 . S
C807 C95 1.824 . S
C811 C621 1.756 . S
C829 C677 1.501 . S
C825 C135 1.622 . S
C847 C491 1.523 . S
C843 C42 1.610 . S
C861 C82 1.609 . S
C865 C535 1.496 . S
C883 C597 1.845 . S
C879 C122 2.042 . S
C901 C665 1.484 . S
C897 C21 1.496 . S
C915 C162 1.978 . S
C919 C429 1.805 . S
C937 C349 1.619 . S
C933 C221 1.719 . S
C951 C255 1.723 . S
C955 C417 1.669 . S
C969 C282 1.483 . S
C973 C373 1.502 . S
C991 C615 1.835 . S
C987 C181 2.054 . S
C1009 C659 1.517 . S
C1005 C202 1.632 . S
C1027 C473 1.526 . S
C1023 C242 1.664 . S
C1041 C301 1.487 . S
C1045 C541 1.466 . S
C1063 C603 1.750 . S
C1059 C215 1.822 . S
C1081 C683 1.489 . S
C1077 C261 1.519 . S
C1099 C497 1.438 . S
C1095 C295 1.472 . S
C1113 C175 1.623 . S
C1117 C553 1.484 . S
