# Generated by pormake.
# Topology cml, (3,6)-cn, num edge types: 1
# Building blocks:
#     Node 0, Type 0, BuildingBlock: MIDCAF_clean_linker_0, # of connection points: 3
#     Node 1, Type 0, BuildingBlock: MIDCAF_clean_linker_0, # of connection points: 3
#     Node 2, Type 0, BuildingBlock: MIDCAF_clean_linker_0, # of connection points: 3
#     Node 3, Type 0, BuildingBlock: MIDCAF_clean_linker_0, # of connection points: 3
#     Node 4, Type 0, BuildingBlock: MIDCAF_clean_linker_0, # of connection points: 3
#     Node 5, Type 0, BuildingBlock: MIDCAF_clean_linker_0, # of connection points: 3
#     Node 6, Type 0, BuildingBlock: MIDCAF_clean_linker_0, # of connection points: 3
#     Node 7, Type 0, BuildingBlock: MIDCAF_clean_linker_0, # of connection points: 3
#     Node 8, Type 1, BuildingBlock: IZENUY_clean_sbu_0, # of connection points: 6
#     Node 9, Type 1, BuildingBlock: IZENUY_clean_sbu_0, # of connection points: 6
#     Node 10, Type 1, BuildingBlock: IZENUY_clean_sbu_0, # of connection points: 6
#     Node 11, Type 1, BuildingBlock: IZENUY_clean_sbu_0, # of connection points: 6
#     Edge 12, Type (0, 1), BuildingBlock: KIFKEQ_clean_linker_1, # of connection points: 2
#     Edge 13, Type (0, 1), BuildingBlock: KIFKEQ_clean_linker_1, # of connection points: 2
#     Edge 14, Type (0, 1), BuildingBlock: KIFKEQ_clean_linker_1, # of connection points: 2
#     Edge 15, Type (0, 1), BuildingBlock: KIFKEQ_clean_linker_1, # of connection points: 2
#     Edge 16, Type (0, 1), BuildingBlock: KIFKEQ_clean_linker_1, # of connection points: 2
#     Edge 17, Type (0, 1), BuildingBlock: KIFKEQ_clean_linker_1, # of connection points: 2
#     Edge 18, Type (0, 1), BuildingBlock: KIFKEQ_clean_linker_1, # of connection points: 2
#     Edge 19, Type (0, 1), BuildingBlock: KIFKEQ_clean_linker_1, # of connection points: 2
#     Edge 20, Type (0, 1), BuildingBlock: KIFKEQ_clean_linker_1, # of connection points: 2
#     Edge 21, Type (0, 1), BuildingBlock: KIFKEQ_clean_linker_1, # of connection points: 2
#     Edge 22, Type (0, 1), BuildingBlock: KIFKEQ_clean_linker_1, # of connection points: 2
#     Edge 23, Type (0, 1), BuildingBlock: KIFKEQ_clean_linker_1, # of connection points: 2
#     Edge 24, Type (0, 1), BuildingBlock: KIFKEQ_clean_linker_1, # of connection points: 2
#     Edge 25, Type (0, 1), BuildingBlock: KIFKEQ_clean_linker_1, # of connection points: 2
#     Edge 26, Type (0, 1), BuildingBlock: KIFKEQ_clean_linker_1, # of connection points: 2
#     Edge 27, Type (0, 1), BuildingBlock: KIFKEQ_clean_linker_1, # of connection points: 2
#     Edge 28, Type (0, 1), BuildingBlock: KIFKEQ_clean_linker_1, # of connection points: 2
#     Edge 29, Type (0, 1), BuildingBlock: KIFKEQ_clean_linker_1, # of connection points: 2
#     Edge 30, Type (0, 1), BuildingBlock: KIFKEQ_clean_linker_1, # of connection points: 2
#     Edge 31, Type (0, 1), BuildingBlock: KIFKEQ_clean_linker_1, # of connection points: 2
#     Edge 32, Type (0, 1), BuildingBlock: KIFKEQ_clean_linker_1, # of connection points: 2
#     Edge 33, Type (0, 1), BuildingBlock: KIFKEQ_clean_linker_1, # of connection points: 2
#     Edge 34, Type (0, 1), BuildingBlock: KIFKEQ_clean_linker_1, # of connection points: 2
#     Edge 35, Type (0, 1), BuildingBlock: KIFKEQ_clean_linker_1, # of connection points: 2
# Relax obj value: 0.057
# Max RMSD: 0.072
# Mean RMSD: 0.069
data_MOF--net-cml--node1-IZENUY_clean_sbu_0--node2-MIDCAF_clean_linker_0--edge1-KIFKEQ_clean_linker_1
_symmetry_space_group_name_H-M    P1
_symmetry_Int_Tables_number       1
_symmetry_cell_setting            triclinic
loop_
_symmetry_equiv_pos_as_xyz
'x, y, z'
_cell_length_a     43.714521
_cell_length_b     50.804133
_cell_length_c     47.331457
_cell_angle_alpha  89.972374
_cell_angle_beta   90.066807
_cell_angle_gamma 90.299115
loop_
_atom_site_label
_atom_site_type_symbol
_atom_site_fract_x
_atom_site_fract_y
_atom_site_fract_z
_atom_type_partial_charge
C0 C 0.32343 0.39351 0.10959 0.0
C1 C 0.32591 0.36743 0.11913 0.0
C2 C 0.3142 0.34698 0.10224 0.0
C3 C 0.30071 0.3525 0.07608 0.0
H4 H 0.24073 0.32311 0.01437 0.0
H5 H 0.20588 0.29285 0.99048 0.0
H6 H 0.19659 0.34798 0.92158 0.0
H7 H 0.23112 0.37845 0.94548 0.0
H8 H 0.28751 0.42274 0.94074 0.0
H9 H 0.31075 0.46055 0.91694 0.0
H10 H 0.33478 0.49414 0.99778 0.0
H11 H 0.31169 0.45645 0.02165 0.0
H12 H 0.30945 0.41929 0.07636 0.0
H13 H 0.33251 0.40965 0.12205 0.0
H14 H 0.3157 0.32671 0.10919 0.0
H15 H 0.29235 0.33629 0.06331 0.0
N16 N 0.2692 0.36698 0.02353 0.0
N17 N 0.26834 0.39485 0.98394 0.0
N18 N 0.29602 0.40705 0.02432 0.0
C19 C 0.25929 0.37217 0.99684 0.0
C20 C 0.2867 0.4124 0.99758 0.0
C21 C 0.28748 0.38441 0.03743 0.0
C22 C 0.23874 0.35334 0.98196 0.0
C23 C 0.23134 0.32884 0.99411 0.0
C24 C 0.21148 0.31137 0.98034 0.0
C25 C 0.19842 0.31803 0.95416 0.0
C26 C 0.20598 0.3424 0.94189 0.0
C27 C 0.22595 0.35981 0.95557 0.0
C28 C 0.29795 0.43645 0.98311 0.0
C29 C 0.29738 0.43833 0.95347 0.0
C30 C 0.31082 0.4599 0.93982 0.0
C31 C 0.32468 0.4802 0.95552 0.0
C32 C 0.32408 0.47887 0.98514 0.0
C33 C 0.31103 0.45717 0.99879 0.0
C34 C 0.29919 0.37854 0.06611 0.0
C35 C 0.3104 0.39899 0.08331 0.0
C36 C 0.6697 0.61586 0.60452 0.0
C37 C 0.67269 0.64099 0.61662 0.0
C38 C 0.68812 0.66078 0.60144 0.0
C39 C 0.70029 0.6555 0.57468 0.0
H40 H 0.75824 0.68515 0.51292 0.0
H41 H 0.7945 0.71496 0.49037 0.0
H42 H 0.806 0.65952 0.42205 0.0
H43 H 0.76919 0.62999 0.44414 0.0
H44 H 0.71718 0.58483 0.43736 0.0
H45 H 0.69712 0.54637 0.4124 0.0
H46 H 0.65756 0.51761 0.49013 0.0
H47 H 0.67766 0.55575 0.51515 0.0
H48 H 0.67854 0.59109 0.56907 0.0
H49 H 0.65757 0.6003 0.61552 0.0
H50 H 0.69088 0.6803 0.6103 0.0
H51 H 0.71193 0.6712 0.56347 0.0
N52 N 0.72827 0.64182 0.5207 0.0
N53 N 0.72945 0.61453 0.48072 0.0
N54 N 0.69965 0.60269 0.51985 0.0
C55 C 0.73889 0.63674 0.49426 0.0
C56 C 0.70981 0.5974 0.49336 0.0
C57 C 0.70868 0.62484 0.53366 0.0
C58 C 0.76073 0.6551 0.4804 0.0
C59 C 0.76842 0.67929 0.49306 0.0
C60 C 0.78937 0.69636 0.48019 0.0
C61 C 0.80324 0.68964 0.45441 0.0
C62 C 0.79543 0.66552 0.44169 0.0
C63 C 0.7744 0.64849 0.45448 0.0
C64 C 0.69896 0.5735 0.47829 0.0
C65 C 0.70441 0.57022 0.4492 0.0
C66 C 0.6928 0.54826 0.43484 0.0
C67 C 0.67578 0.52897 0.44929 0.0
C68 C 0.6709 0.53196 0.47845 0.0
C69 C 0.68226 0.55398 0.49275 0.0
C70 C 0.6969 0.63041 0.56243 0.0
C71 C 0.68155 0.61065 0.57775 0.0
C72 C 0.67454 0.38669 0.10449 0.0
C73 C 0.67745 0.36131 0.11597 0.0
C74 C 0.69194 0.34173 0.09996 0.0
C75 C 0.70318 0.34742 0.07294 0.0
H76 H 0.76956 0.32515 0.01403 0.0
H77 H 0.80617 0.29669 0.99045 0.0
H78 H 0.79399 0.34027 0.91294 0.0
H79 H 0.75711 0.36869 0.93631 0.0
H80 H 0.71428 0.41825 0.93547 0.0
H81 H 0.69343 0.45645 0.91101 0.0
H82 H 0.65642 0.48502 0.98971 0.0
H83 H 0.67733 0.44706 0.01429 0.0
H84 H 0.68244 0.41201 0.06918 0.0
H85 H 0.66313 0.40211 0.11618 0.0
H86 H 0.69459 0.32203 0.10835 0.0
H87 H 0.71404 0.33185 0.06105 0.0
N88 N 0.72955 0.362 0.01854 0.0
N89 N 0.72834 0.38904 0.97837 0.0
N90 N 0.70019 0.40049 0.01858 0.0
C91 C 0.7388 0.36715 0.99167 0.0
C92 C 0.70906 0.40583 0.99168 0.0
C93 C 0.71023 0.37859 0.03214 0.0
C94 C 0.7604 0.34932 0.97713 0.0
C95 C 0.77453 0.32867 0.99193 0.0
C96 C 0.79566 0.31242 0.97848 0.0
C97 C 0.80303 0.31634 0.94989 0.0
C98 C 0.78858 0.33667 0.93493 0.0
C99 C 0.76757 0.35303 0.94842 0.0
C100 C 0.6974 0.42948 0.97688 0.0
C101 C 0.70187 0.43274 0.94764 0.0
C102 C 0.68983 0.45456 0.93356 0.0
C103 C 0.67333 0.47372 0.94844 0.0
C104 C 0.66935 0.47073 0.97772 0.0
C105 C 0.68116 0.44884 0.99177 0.0
C106 C 0.69973 0.37271 0.06125 0.0
C107 C 0.68542 0.3923 0.07743 0.0
C108 C 0.3168 0.60369 0.6134 0.0
C109 C 0.3238 0.62967 0.62152 0.0
C110 C 0.31493 0.65043 0.6036 0.0
C111 C 0.30082 0.64518 0.57758 0.0
H112 H 0.22756 0.66668 0.51908 0.0
H113 H 0.19259 0.69554 0.494 0.0
H114 H 0.20518 0.6502 0.4178 0.0
H115 H 0.24052 0.6213 0.44276 0.0
H116 H 0.27304 0.56327 0.44848 0.0
H117 H 0.29888 0.52676 0.42464 0.0
H118 H 0.35942 0.51824 0.49606 0.0
H119 H 0.33389 0.55419 0.51996 0.0
H120 H 0.29921 0.57816 0.58133 0.0
H121 H 0.32233 0.58722 0.62698 0.0
H122 H 0.32006 0.67067 0.60906 0.0
H123 H 0.29533 0.66145 0.5637 0.0
N124 N 0.2665 0.62941 0.52552 0.0
N125 N 0.26875 0.60157 0.48589 0.0
N126 N 0.29578 0.59097 0.52704 0.0
C127 C 0.25787 0.62371 0.49853 0.0
C128 C 0.28782 0.58513 0.50006 0.0
C129 C 0.28531 0.61295 0.53991 0.0
C130 C 0.23688 0.64154 0.48303 0.0
C131 C 0.22301 0.6628 0.49697 0.0
C132 C 0.20279 0.6793 0.48264 0.0
C133 C 0.19599 0.67507 0.45396 0.0
C134 C 0.21013 0.65407 0.43985 0.0
C135 C 0.23025 0.63743 0.45424 0.0
C136 C 0.30149 0.56187 0.48606 0.0
C137 C 0.29167 0.55346 0.45919 0.0
C138 C 0.30631 0.5325 0.4456 0.0
C139 C 0.33123 0.51991 0.45849 0.0
C140 C 0.34044 0.52782 0.48558 0.0
C141 C 0.32568 0.54842 0.49927 0.0
C142 C 0.29578 0.61909 0.56886 0.0
C143 C 0.30329 0.59847 0.5873 0.0
C144 C 0.83282 0.89001 0.1072 0.0
C145 C 0.83151 0.86431 0.11805 0.0
C146 C 0.81346 0.84539 0.10403 0.0
C147 C 0.79847 0.85178 0.07872 0.0
H148 H 0.71604 0.84105 0.02292 0.0
H149 H 0.6798 0.81172 0.99896 0.0
H150 H 0.71584 0.83605 0.91819 0.0
H151 H 0.75169 0.86584 0.94199 0.0
H152 H 0.77102 0.93577 0.94996 0.0
H153 H 0.79549 0.97291 0.92548 0.0
H154 H 0.86701 0.97427 0.98836 0.0
H155 H 0.84283 0.93769 0.01289 0.0
H156 H 0.82029 0.91625 0.07408 0.0
H157 H 0.84589 0.90521 0.1179 0.0
H158 H 0.81201 0.82542 0.11197 0.0
H159 H 0.78573 0.83656 0.06774 0.0
N160 N 0.76839 0.86778 0.02553 0.0
N161 N 0.7704 0.89485 0.98516 0.0
N162 N 0.80037 0.90488 0.02475 0.0
C163 C 0.75883 0.87338 0.99879 0.0
C164 C 0.79118 0.91076 0.99814 0.0
C165 C 0.78919 0.88357 0.03865 0.0
C166 C 0.73669 0.85579 0.98434 0.0
C167 C 0.71621 0.84019 1.00006 0.0
C168 C 0.6954 0.8235 0.98639 0.0
C169 C 0.69514 0.82166 0.95679 0.0
C170 C 0.71573 0.83706 0.94106 0.0
C171 C 0.73609 0.85418 0.95468 0.0
C172 C 0.80499 0.93365 0.98334 0.0
C173 C 0.79189 0.94408 0.9586 0.0
C174 C 0.80574 0.9654 0.94468 0.0
C175 C 0.83316 0.97631 0.95502 0.0
C176 C 0.846 0.96608 0.97985 0.0
C177 C 0.83202 0.94514 0.99393 0.0
C178 C 0.80133 0.87718 0.06709 0.0
C179 C 0.81801 0.89635 0.08207 0.0
C180 C 0.1643 0.11794 0.598 0.0
C181 C 0.16905 0.14294 0.6099 0.0
C182 C 0.19027 0.16012 0.5972 0.0
C183 C 0.20554 0.15271 0.57241 0.0
H184 H 0.27471 0.17365 0.51481 0.0
H185 H 0.3096 0.20326 0.49035 0.0
H186 H 0.30115 0.15618 0.41469 0.0
H187 H 0.26698 0.12606 0.43939 0.0
H188 H 0.24034 0.06593 0.44742 0.0
H189 H 0.22156 0.02576 0.42488 0.0
H190 H 0.15221 0.01815 0.48944 0.0
H191 H 0.17146 0.05744 0.51234 0.0
H192 H 0.17477 0.09118 0.56486 0.0
H193 H 0.14861 0.10402 0.60766 0.0
H194 H 0.1944 0.1795 0.60597 0.0
H195 H 0.22122 0.16657 0.56271 0.0
N196 N 0.23448 0.13636 0.51945 0.0
N197 N 0.23796 0.10621 0.48193 0.0
N198 N 0.20606 0.09718 0.52043 0.0
C199 C 0.24649 0.12945 0.49399 0.0
C200 C 0.21776 0.08993 0.4951 0.0
C201 C 0.21424 0.12024 0.53283 0.0
C202 C 0.26798 0.14741 0.47913 0.0
C203 C 0.28027 0.16955 0.49297 0.0
C204 C 0.30017 0.18668 0.47885 0.0
C205 C 0.30812 0.18223 0.45046 0.0
C206 C 0.29587 0.16005 0.43664 0.0
C207 C 0.27613 0.14281 0.45082 0.0
C208 C 0.20741 0.06503 0.48169 0.0
C209 C 0.22123 0.05555 0.4569 0.0
C210 C 0.21038 0.03255 0.44391 0.0
C211 C 0.18536 0.01862 0.45532 0.0
C212 C 0.1719 0.02797 0.48031 0.0
C213 C 0.18285 0.05075 0.49337 0.0
C214 C 0.19995 0.12793 0.56003 0.0
C215 C 0.17949 0.11054 0.57345 0.0
C216 C 0.15643 0.8845 0.0913 0.0
C217 C 0.17016 0.86624 0.10954 0.0
C218 C 0.19794 0.85461 0.1016 0.0
C219 C 0.21133 0.86068 0.07551 0.0
H220 H 0.27435 0.83327 0.01588 0.0
H221 H 0.31093 0.80361 0.99386 0.0
H222 H 0.29972 0.84417 0.91436 0.0
H223 H 0.263 0.87375 0.93614 0.0
H224 H 0.21887 0.92259 0.93179 0.0
H225 H 0.19811 0.95997 0.90564 0.0
H226 H 0.15859 0.99012 0.98259 0.0
H227 H 0.17928 0.95305 0.00875 0.0
H228 H 0.15856 0.90488 0.05192 0.0
H229 H 0.13518 0.89397 0.09706 0.0
H230 H 0.20893 0.84041 0.11529 0.0
H231 H 0.23253 0.85115 0.06976 0.0
N232 N 0.23202 0.86884 0.01731 0.0
N233 N 0.23293 0.89524 0.97659 0.0
N234 N 0.201 0.90624 0.01442 0.0
C235 C 0.24315 0.87386 0.991 0.0
C236 C 0.212 0.91161 0.98823 0.0
C237 C 0.21082 0.88493 0.0291 0.0
C238 C 0.26568 0.85594 0.97782 0.0
C239 C 0.27962 0.8359 0.9937 0.0
C240 C 0.30072 0.81897 0.98114 0.0
C241 C 0.30816 0.82157 0.95239 0.0
C242 C 0.29419 0.84153 0.93649 0.0
C243 C 0.27329 0.85858 0.94907 0.0
C244 C 0.20065 0.93474 0.97238 0.0
C245 C 0.20596 0.93729 0.94318 0.0
C246 C 0.19398 0.95862 0.92816 0.0
C247 C 0.17682 0.97796 0.94209 0.0
C248 C 0.17206 0.97569 0.97134 0.0
C249 C 0.18373 0.95429 0.98629 0.0
C250 C 0.19742 0.87883 0.05713 0.0
C251 C 0.16998 0.89085 0.0655 0.0
C252 C 0.84627 0.11907 0.59326 0.0
C253 C 0.83178 0.1367 0.61162 0.0
C254 C 0.80343 0.14742 0.60383 0.0
C255 C 0.79029 0.14118 0.5776 0.0
H256 H 0.71809 0.15866 0.51749 0.0
H257 H 0.68127 0.18821 0.49508 0.0
H258 H 0.71661 0.16741 0.41305 0.0
H259 H 0.75308 0.13743 0.43527 0.0
H260 H 0.79291 0.08133 0.43214 0.0
H261 H 0.81987 0.04616 0.40715 0.0
H262 H 0.85259 0.01599 0.48692 0.0
H263 H 0.82648 0.05098 0.51165 0.0
H264 H 0.84515 0.09906 0.55375 0.0
H265 H 0.86799 0.11033 0.59893 0.0
H266 H 0.79186 0.16108 0.6177 0.0
H267 H 0.76868 0.15005 0.57185 0.0
N268 N 0.77081 0.13304 0.51855 0.0
N269 N 0.77311 0.10755 0.47708 0.0
N270 N 0.80373 0.09695 0.51601 0.0
C271 C 0.76112 0.12816 0.49168 0.0
C272 C 0.79422 0.09165 0.48934 0.0
C273 C 0.79235 0.11754 0.53076 0.0
C274 C 0.73847 0.1457 0.47815 0.0
C275 C 0.71797 0.16033 0.49467 0.0
C276 C 0.69684 0.17714 0.48189 0.0
C277 C 0.69624 0.18006 0.4524 0.0
C278 C 0.71678 0.16556 0.43585 0.0
C279 C 0.73748 0.14833 0.44858 0.0
C280 C 0.8079 0.06925 0.47387 0.0
C281 C 0.80568 0.06705 0.44431 0.0
C282 C 0.82104 0.04688 0.43 0.0
C283 C 0.8388 0.02857 0.44503 0.0
C284 C 0.83979 0.03018 0.47464 0.0
C285 C 0.82467 0.05025 0.48884 0.0
C286 C 0.80506 0.12373 0.55906 0.0
C287 C 0.83301 0.11254 0.56742 0.0
Fe288 Fe 0.0062 0.81241 0.31996 0.0
Fe289 Fe 0.0089 0.84377 0.37548 0.0
O290 O 0.00855 0.84294 0.3381 0.0
Fe291 Fe 0.01061 0.87276 0.31886 0.0
O292 O 0.9874 0.86095 0.28925 0.0
O293 O 0.97097 0.82185 0.30219 0.0
O294 O 0.9822 0.79623 0.34683 0.0
C295 C 0.96562 0.80566 0.36628 0.0
C296 C 0.04855 0.84219 0.28722 0.0
O297 O 0.97196 0.82761 0.37733 0.0
C298 C 0.05156 0.88175 0.36431 0.0
O299 O 0.04124 0.80071 0.33636 0.0
O300 O 0.02924 0.81258 0.37957 0.0
O301 O 0.04581 0.86277 0.30188 0.0
O302 O 0.02974 0.82325 0.28985 0.0
C303 C 0.97135 0.88706 0.36083 0.0
O304 O 0.04601 0.86004 0.37622 0.0
O305 O 0.03422 0.89019 0.34494 0.0
C306 C 0.04588 0.79973 0.36266 0.0
O307 O 0.98846 0.87514 0.37821 0.0
O308 O 0.97547 0.88471 0.33459 0.0
C309 C 0.96814 0.84235 0.28737 0.0
Fe310 Fe 0.00123 0.15656 0.87294 0.0
Fe311 Fe 1.00003 0.12823 0.81591 0.0
O312 O 0.00108 0.15785 0.83555 0.0
Fe313 Fe 0.00188 0.18858 0.8177 0.0
O314 O 0.02558 0.20529 0.84442 0.0
O315 O 0.0373 0.1742 0.87484 0.0
O316 O 0.02344 0.12608 0.87493 0.0
C317 C 0.04091 0.11516 0.85714 0.0
C318 C 0.96208 0.19936 0.86086 0.0
O319 O 0.03609 0.11749 0.83096 0.0
C320 C 0.9599 0.15795 0.78551 0.0
O321 O 0.965 0.13873 0.87386 0.0
O322 O 0.97804 0.10955 0.84206 0.0
O323 O 0.96669 0.19898 0.83456 0.0
O324 O 0.97926 0.1868 0.8776 0.0
C325 C 0.04031 0.16033 0.784 0.0
O326 O 0.96394 0.13719 0.79967 0.0
O327 O 0.9782 0.17729 0.78787 0.0
C328 C 0.96056 0.11692 0.86176 0.0
O329 O 0.02183 0.1412 0.78603 0.0
O330 O 0.0372 0.18043 0.79936 0.0
C331 C 0.04257 0.1964 0.86389 0.0
Fe332 Fe 0.50421 0.31504 0.31909 0.0
Fe333 Fe 0.50527 0.34502 0.37548 0.0
O334 O 0.50516 0.34516 0.33808 0.0
Fe335 Fe 0.50601 0.37553 0.31975 0.0
O336 O 0.46992 0.36836 0.30253 0.0
O337 O 0.48143 0.32804 0.28953 0.0
O338 O 0.46832 0.30531 0.33541 0.0
C339 C 0.46395 0.30384 0.3617 0.0
C340 C 0.54502 0.34325 0.28716 0.0
O341 O 0.48203 0.31505 0.37885 0.0
C342 C 0.54654 0.38646 0.36203 0.0
O343 O 0.52666 0.29666 0.34539 0.0
O344 O 0.54068 0.32662 0.37643 0.0
O345 O 0.52783 0.36306 0.28972 0.0
O346 O 0.54009 0.32259 0.3013 0.0
C347 C 0.46617 0.3857 0.36555 0.0
O348 O 0.52855 0.37502 0.37909 0.0
O349 O 0.54226 0.38481 0.33574 0.0
C350 C 0.54447 0.30454 0.36482 0.0
O351 O 0.46978 0.36347 0.37693 0.0
O352 O 0.48424 0.39362 0.34644 0.0
C353 C 0.46463 0.34825 0.28766 0.0
Fe354 Fe 0.50387 0.65782 0.87815 0.0
Fe355 Fe 0.50154 0.62697 0.82263 0.0
O356 O 0.50228 0.65741 0.84075 0.0
Fe357 Fe 0.50147 0.68744 0.82152 0.0
O358 O 0.52519 0.70579 0.84706 0.0
O359 O 0.53981 0.67579 0.87767 0.0
O360 O 0.52633 0.6276 0.88134 0.0
C361 C 0.54321 0.61572 0.86384 0.0
C362 C 0.46306 0.69923 0.86519 0.0
O363 O 0.53792 0.61713 0.83769 0.0
C364 C 0.46013 0.65452 0.79125 0.0
O365 O 0.46805 0.63979 0.88113 0.0
O366 O 0.47978 0.60944 0.84994 0.0
O367 O 0.46638 0.6975 0.83878 0.0
O368 O 0.4816 0.6881 0.88187 0.0
C369 C 0.5405 0.65864 0.78873 0.0
O370 O 0.46521 0.6346 0.80638 0.0
O371 O 0.47751 0.67455 0.79254 0.0
C372 C 0.46285 0.61782 0.86963 0.0
O373 O 0.52296 0.63897 0.79197 0.0
O374 O 0.53657 0.67943 0.80284 0.0
C375 C 0.54358 0.69785 0.86594 0.0
H376 H 0.14448 0.33035 0.9282 0.0
H377 H 0.20285 0.26456 0.94807 0.0
H378 H 0.10807 0.30059 0.90565 0.0
H379 H 0.1666 0.23472 0.92516 0.0
H380 H 0.07825 0.18712 0.91048 0.0
H381 H 0.11639 0.2162 0.93154 0.0
H382 H 0.10116 0.27299 0.86506 0.0
H383 H 0.06241 0.24425 0.84443 0.0
C384 C 0.14972 0.30955 0.92743 0.0
C385 C 0.17657 0.29983 0.93992 0.0
C386 C 0.12886 0.29246 0.91445 0.0
C387 C 0.13438 0.26522 0.91351 0.0
C388 C 0.16137 0.25552 0.92586 0.0
C389 C 0.18218 0.27262 0.93896 0.0
C390 C 0.08309 0.20576 0.90027 0.0
C391 C 0.06706 0.2134 0.87585 0.0
C392 C 0.10513 0.2224 0.91228 0.0
C393 C 0.1118 0.24703 0.9001 0.0
C394 C 0.09623 0.25439 0.87532 0.0
C395 C 0.07411 0.23781 0.86338 0.0
H396 H 0.84825 0.71854 0.48036 0.0
H397 H 0.8101 0.70117 0.39814 0.0
H398 H 0.88616 0.74732 0.45845 0.0
H399 H 0.84834 0.72973 0.37623 0.0
H400 H 0.94429 0.758 0.34754 0.0
H401 H 0.90431 0.73063 0.36848 0.0
H402 H 0.88953 0.78954 0.43271 0.0
H403 H 0.92968 0.81684 0.41204 0.0
C404 C 0.84772 0.72107 0.45765 0.0
C405 C 0.82608 0.70752 0.44103 0.0
C406 C 0.86948 0.73755 0.44509 0.0
C407 C 0.87024 0.74081 0.41561 0.0
C408 C 0.84859 0.72736 0.39898 0.0
C409 C 0.82672 0.71095 0.41154 0.0
C410 C 0.93247 0.76518 0.36608 0.0
C411 C 0.94036 0.78957 0.37819 0.0
C412 C 0.90943 0.74955 0.37797 0.0
C413 C 0.89385 0.75788 0.40231 0.0
C414 C 0.90141 0.78242 0.41418 0.0
C415 C 0.92432 0.79812 0.40222 0.0
H416 H 0.85845 0.30142 0.97065 0.0
H417 H 0.79996 0.29358 0.89752 0.0
H418 H 0.89642 0.2735 0.94824 0.0
H419 H 0.83783 0.26521 0.87513 0.0
H420 H 0.92723 0.23648 0.83371 0.0
H421 H 0.88871 0.2652 0.85455 0.0
H422 H 0.90293 0.22819 0.93571 0.0
H423 H 0.94177 0.20013 0.91519 0.0
C424 C 0.85361 0.2935 0.94987 0.0
C425 C 0.82616 0.29954 0.93592 0.0
C426 C 0.87534 0.27747 0.93702 0.0
C427 C 0.87008 0.26693 0.90996 0.0
C428 C 0.84275 0.27323 0.89585 0.0
C429 C 0.82104 0.28942 0.90868 0.0
C430 C 0.92208 0.23449 0.85598 0.0
C431 C 0.93779 0.21619 0.87283 0.0
C432 C 0.8999 0.25086 0.8679 0.0
C433 C 0.89292 0.24916 0.89686 0.0
C434 C 0.90821 0.23045 0.91348 0.0
C435 C 0.9304 0.21424 0.90165 0.0
H436 H 0.14088 0.6923 0.4732 0.0
H437 H 0.20105 0.69675 0.40105 0.0
H438 H 0.10524 0.72187 0.44992 0.0
H439 H 0.16546 0.72677 0.37774 0.0
H440 H 0.0785 0.76113 0.33535 0.0
H441 H 0.1148 0.73022 0.35633 0.0
H442 H 0.10277 0.76751 0.43756 0.0
H443 H 0.06625 0.79773 0.41694 0.0
C444 C 0.14659 0.69977 0.45241 0.0
C445 C 0.17391 0.69238 0.43908 0.0
C446 C 0.12618 0.71677 0.43906 0.0
C447 C 0.13263 0.72697 0.41206 0.0
C448 C 0.15966 0.71912 0.39842 0.0
C449 C 0.18007 0.70197 0.41178 0.0
C450 C 0.0837 0.76272 0.35766 0.0
C451 C 0.06919 0.78172 0.37451 0.0
C452 C 0.10458 0.74508 0.36967 0.0
C453 C 0.11143 0.74616 0.39872 0.0
C454 C 0.0975 0.76566 0.41528 0.0
C455 C 0.07663 0.78312 0.40338 0.0
H456 H 0.70823 0.78341 0.91835 0.0
H457 H 0.63326 0.81948 0.96287 0.0
H458 H 0.67224 0.75317 0.89503 0.0
H459 H 0.59723 0.78965 0.93913 0.0
H460 H 0.54385 0.75155 0.86382 0.0
H461 H 0.58109 0.7817 0.88513 0.0
H462 H 0.63395 0.71559 0.91443 0.0
H463 H 0.59637 0.68528 0.89367 0.0
C464 C 0.68404 0.78493 0.92296 0.0
C465 C 0.67343 0.80369 0.94237 0.0
C466 C 0.66354 0.76762 0.90976 0.0
C467 C 0.63205 0.76919 0.91529 0.0
C468 C 0.62141 0.78818 0.93442 0.0
C469 C 0.64196 0.8051 0.94807 0.0
C470 C 0.56352 0.74343 0.87462 0.0
C471 C 0.56718 0.71605 0.87714 0.0
C472 C 0.58469 0.76069 0.88692 0.0
C473 C 0.61026 0.75091 0.90142 0.0
C474 C 0.61444 0.72357 0.90325 0.0
C475 C 0.59292 0.70629 0.89148 0.0
H476 H 0.31061 0.23603 0.45429 0.0
H477 H 0.35336 0.17015 0.41248 0.0
H478 H 0.34663 0.26596 0.43142 0.0
H479 H 0.38891 0.20027 0.38916 0.0
H480 H 0.42983 0.26647 0.33373 0.0
H481 H 0.39046 0.2375 0.35366 0.0
H482 H 0.40287 0.2741 0.43522 0.0
H483 H 0.44196 0.30298 0.41548 0.0
C484 C 0.32772 0.22789 0.44031 0.0
C485 C 0.3292 0.20061 0.43544 0.0
C486 C 0.34826 0.24508 0.42711 0.0
C487 C 0.37062 0.23544 0.40856 0.0
C488 C 0.37168 0.20829 0.4031 0.0
C489 C 0.35127 0.19105 0.41647 0.0
C490 C 0.42401 0.26842 0.35586 0.0
C491 C 0.43914 0.28695 0.37305 0.0
C492 C 0.40161 0.25175 0.36728 0.0
C493 C 0.39362 0.25355 0.39599 0.0
C494 C 0.40832 0.27242 0.41297 0.0
C495 C 0.43088 0.28885 0.40168 0.0
H496 H 0.36339 0.80603 0.97325 0.0
H497 H 0.30343 0.79664 0.90137 0.0
H498 H 0.40022 0.77652 0.9515 0.0
H499 H 0.34 0.76664 0.87972 0.0
H500 H 0.4273 0.73527 0.83746 0.0
H501 H 0.38977 0.76501 0.85811 0.0
H502 H 0.40657 0.73109 0.94041 0.0
H503 H 0.44457 0.70207 0.92 0.0
C504 C 0.35797 0.79743 0.95291 0.0
C505 C 0.33051 0.80358 0.93905 0.0
C506 C 0.37903 0.78046 0.94044 0.0
C507 C 0.37303 0.76906 0.9139 0.0
C508 C 0.34556 0.77533 0.89999 0.0
C509 C 0.32457 0.79246 0.9124 0.0
C510 C 0.4229 0.73415 0.85994 0.0
C511 C 0.43912 0.71646 0.87711 0.0
C512 C 0.40129 0.75112 0.87178 0.0
C513 C 0.39531 0.75061 0.90099 0.0
C514 C 0.41107 0.73246 0.91796 0.0
C515 C 0.43276 0.71568 0.9062 0.0
H516 H 0.63442 0.18145 0.45931 0.0
H517 H 0.70878 0.21968 0.41528 0.0
H518 H 0.59806 0.21164 0.43698 0.0
H519 H 0.67246 0.25023 0.39339 0.0
H520 H 0.59676 0.31714 0.39358 0.0
H521 H 0.6342 0.28683 0.41403 0.0
H522 H 0.58148 0.22072 0.38336 0.0
H523 H 0.54439 0.25087 0.36237 0.0
C524 C 0.64292 0.19639 0.44493 0.0
C525 C 0.67431 0.19829 0.43893 0.0
C526 C 0.62218 0.21352 0.4321 0.0
C527 C 0.63256 0.23319 0.41352 0.0
C528 C 0.66398 0.23527 0.40774 0.0
C529 C 0.68465 0.21777 0.42011 0.0
C530 C 0.59327 0.29614 0.39109 0.0
C531 C 0.56767 0.28637 0.37638 0.0
C532 C 0.61472 0.27885 0.40268 0.0
C533 C 0.61058 0.25151 0.40029 0.0
C534 C 0.58504 0.24174 0.38558 0.0
C535 C 0.56396 0.25899 0.37347 0.0
H536 H 0.32185 0.53314 0.9661 0.0
H537 H 0.36606 0.4758 0.91298 0.0
H538 H 0.35199 0.56819 0.94405 0.0
H539 H 0.39694 0.51038 0.89168 0.0
H540 H 0.43371 0.57801 0.84218 0.0
H541 H 0.39702 0.54662 0.86131 0.0
H542 H 0.40222 0.58549 0.94246 0.0
H543 H 0.43789 0.6177 0.92274 0.0
C544 C 0.33804 0.52808 0.9497 0.0
C545 C 0.34152 0.50179 0.94114 0.0
C546 C 0.35545 0.54811 0.93716 0.0
C547 C 0.377 0.54223 0.91602 0.0
C548 C 0.38016 0.51586 0.90739 0.0
C549 C 0.36251 0.49595 0.91965 0.0
C550 C 0.42681 0.57995 0.86406 0.0
C551 C 0.43889 0.60015 0.88105 0.0
C552 C 0.4059 0.56184 0.87511 0.0
C553 C 0.39691 0.56317 0.90361 0.0
C554 C 0.40831 0.58394 0.92037 0.0
C555 C 0.4289 0.60236 0.90913 0.0
H556 H 0.67465 0.47729 0.46541 0.0
H557 H 0.64547 0.52951 0.39874 0.0
H558 H 0.64769 0.44087 0.44266 0.0
H559 H 0.61812 0.49323 0.37615 0.0
H560 H 0.58585 0.4187 0.33251 0.0
H561 H 0.62142 0.45133 0.35182 0.0
H562 H 0.595 0.42882 0.43643 0.0
H563 H 0.56025 0.39598 0.41732 0.0
C564 C 0.66253 0.48095 0.44584 0.0
C565 C 0.66197 0.50631 0.434 0.0
C566 C 0.64705 0.46011 0.43281 0.0
C567 C 0.63047 0.46416 0.4077 0.0
C568 C 0.63094 0.48931 0.39527 0.0
C569 C 0.64657 0.51014 0.40825 0.0
C570 C 0.58791 0.42054 0.35524 0.0
C571 C 0.57 0.40483 0.37335 0.0
C572 C 0.60817 0.43934 0.36629 0.0
C573 C 0.61101 0.44279 0.39568 0.0
C574 C 0.59377 0.4265 0.41371 0.0
C575 C 0.5736 0.40775 0.4027 0.0
H576 H 0.67336 0.52543 0.96425 0.0
H577 H 0.64122 0.47283 0.8989 0.0
H578 H 0.6462 0.56176 0.94193 0.0
H579 H 0.61363 0.50899 0.87679 0.0
H580 H 0.58097 0.5832 0.83345 0.0
H581 H 0.61676 0.55068 0.852 0.0
H582 H 0.59349 0.57376 0.93714 0.0
H583 H 0.55856 0.60649 0.91877 0.0
C584 C 0.66053 0.52168 0.94507 0.0
C585 C 0.6592 0.49626 0.93345 0.0
C586 C 0.64494 0.54245 0.93229 0.0
C587 C 0.62749 0.53825 0.9077 0.0
C588 C 0.62714 0.51301 0.8955 0.0
C589 C 0.64289 0.49226 0.90821 0.0
C590 C 0.58377 0.5815 0.85611 0.0
C591 C 0.5667 0.59733 0.87461 0.0
C592 C 0.60416 0.56278 0.86674 0.0
C593 C 0.60794 0.55954 0.89606 0.0
C594 C 0.59152 0.57594 0.91445 0.0
C595 C 0.57124 0.59461 0.90387 0.0
H596 H 0.39252 0.51916 0.45055 0.0
H597 H 0.31006 0.47517 0.43239 0.0
H598 H 0.42284 0.48575 0.42663 0.0
H599 H 0.34068 0.44134 0.40845 0.0
H600 H 0.41951 0.37566 0.40307 0.0
H601 H 0.38438 0.4077 0.42401 0.0
H602 H 0.42648 0.46964 0.37499 0.0
H603 H 0.46123 0.43802 0.35397 0.0
C604 C 0.38093 0.50226 0.44146 0.0
C605 C 0.34901 0.49966 0.44332 0.0
C606 C 0.39823 0.48325 0.42766 0.0
C607 C 0.38405 0.46104 0.4157 0.0
C608 C 0.35211 0.45827 0.41763 0.0
C609 C 0.33465 0.47762 0.4311 0.0
C610 C 0.42108 0.39608 0.39662 0.0
C611 C 0.44338 0.40431 0.37706 0.0
C612 C 0.40088 0.41433 0.40847 0.0
C613 C 0.40295 0.4411 0.40121 0.0
C614 C 0.42463 0.44915 0.38112 0.0
C615 C 0.44448 0.43096 0.36906 0.0
H616 H 0.8102 0.02336 0.93635 0.0
H617 H 0.89268 0.97709 0.93914 0.0
H618 H 0.83838 0.05899 0.91237 0.0
H619 H 0.92057 0.0123 0.91521 0.0
H620 H 0.95124 0.06629 0.84483 0.0
H621 H 0.91797 0.0333 0.86593 0.0
H622 H 0.88481 0.09074 0.92546 0.0
H623 H 0.91851 0.12417 0.90441 0.0
C624 C 0.83424 0.02079 0.93164 0.0
C625 C 0.84934 0.99756 0.93957 0.0
C626 C 0.85035 0.04116 0.91816 0.0
C627 C 0.88159 0.03831 0.91192 0.0
C628 C 0.89645 0.01492 0.91957 0.0
C629 C 0.88055 0.99485 0.93337 0.0
C630 C 0.93675 0.07211 0.86227 0.0
C631 C 0.93788 0.09787 0.87316 0.0
C632 C 0.91773 0.05313 0.87436 0.0
C633 C 0.89908 0.05942 0.89745 0.0
C634 C 0.89896 0.08543 0.9076 0.0
C635 C 0.91834 0.10449 0.89564 0.0
H636 H 0.17862 0.01077 0.3983 0.0
H637 H 0.16174 0.97353 0.47895 0.0
H638 H 0.15181 0.975 0.37462 0.0
H639 H 0.13312 0.93873 0.45545 0.0
H640 H 0.09471 0.871 0.40499 0.0
H641 H 0.13235 0.90138 0.42514 0.0
H642 H 0.09996 0.96284 0.36962 0.0
H643 H 0.06344 0.93248 0.34896 0.0
C644 C 0.16955 0.99482 0.411 0.0
C645 C 0.17205 0.99528 0.44061 0.0
C646 C 0.15375 0.97444 0.39742 0.0
C647 C 0.13978 0.95415 0.41311 0.0
C648 C 0.14364 0.95391 0.4426 0.0
C649 C 0.1597 0.97414 0.45616 0.0
C650 C 0.09591 0.89093 0.39692 0.0
C651 C 0.0759 0.89932 0.37549 0.0
C652 C 0.11739 0.90839 0.40855 0.0
C653 C 0.11921 0.93464 0.3991 0.0
C654 C 0.09969 0.94271 0.37715 0.0
C655 C 0.07847 0.92528 0.36543 0.0
H656 H 0.17617 0.03003 0.95617 0.0
H657 H 0.14515 0.97531 0.89238 0.0
H658 H 0.14755 0.06519 0.93327 0.0
H659 H 0.11608 0.01034 0.86967 0.0
H660 H 0.0792 0.08353 0.82617 0.0
H661 H 0.11675 0.0522 0.84425 0.0
H662 H 0.0938 0.07453 0.92968 0.0
H663 H 0.05708 0.106 0.91182 0.0
C664 C 0.16335 0.02559 0.93714 0.0
C665 C 0.1626 0.9999 0.92622 0.0
C666 C 0.14692 0.04569 0.92405 0.0
C667 C 0.1292 0.0405 0.89985 0.0
C668 C 0.1297 0.01507 0.88812 0.0
C669 C 0.14631 0.99498 0.90115 0.0
C670 C 0.08241 0.08189 0.8488 0.0
C671 C 0.06497 0.09715 0.86754 0.0
C672 C 0.10382 0.06387 0.85914 0.0
C673 C 0.10829 0.06087 0.8884 0.0
C674 C 0.09133 0.07661 0.90702 0.0
C675 C 0.07001 0.09453 0.89674 0.0
H676 H 0.89727 0.0142 0.45686 0.0
H677 H 0.8226 0.9976 0.3996 0.0
H678 H 0.92715 0.97943 0.43531 0.0
H679 H 0.85292 0.96262 0.37769 0.0
H680 H 0.93474 0.92085 0.33058 0.0
H681 H 0.9013 0.95516 0.34938 0.0
H682 H 0.92384 0.93096 0.43432 0.0
H683 H 0.95727 0.89709 0.41581 0.0
C684 C 0.88714 0.00299 0.43975 0.0
C685 C 0.85734 0.00838 0.43027 0.0
C686 C 0.9043 0.98307 0.42738 0.0
C687 C 0.8922 0.96801 0.40511 0.0
C688 C 0.86283 0.97394 0.39482 0.0
C689 C 0.84552 0.99395 0.40733 0.0
C690 C 0.93238 0.92276 0.35326 0.0
C691 C 0.94904 0.90645 0.37168 0.0
C692 C 0.91313 0.94233 0.36399 0.0
C693 C 0.91031 0.94597 0.39331 0.0
C694 C 0.92605 0.92899 0.41162 0.0
C695 C 0.94514 0.90949 0.40097 0.0
H696 H 0.31841 0.39121 0.17038 0.0
H697 H 0.37057 0.33112 0.12807 0.0
H698 H 0.34859 0.38469 0.21319 0.0
H699 H 0.40151 0.32512 0.17041 0.0
H700 H 0.44126 0.30767 0.25617 0.0
H701 H 0.40428 0.31018 0.21768 0.0
H702 H 0.39834 0.39439 0.22952 0.0
H703 H 0.43425 0.39168 0.26857 0.0
C704 C 0.33632 0.37656 0.17032 0.0
C705 C 0.34222 0.36173 0.14591 0.0
C706 C 0.35375 0.3729 0.19477 0.0
C707 C 0.37776 0.35455 0.19527 0.0
C708 C 0.38297 0.33915 0.17103 0.0
C709 C 0.36529 0.34261 0.14669 0.0
C710 C 0.43184 0.32668 0.25067 0.0
C711 C 0.44085 0.34949 0.26536 0.0
C712 C 0.41075 0.32815 0.22849 0.0
C713 C 0.39836 0.35251 0.22029 0.0
C714 C 0.40693 0.37521 0.23544 0.0
C715 C 0.42776 0.3737 0.25778 0.0
H716 H 0.6753 0.61071 0.66417 0.0
H717 H 0.63843 0.68357 0.63218 0.0
H718 H 0.6474 0.61681 0.70821 0.0
H719 H 0.61014 0.68957 0.67621 0.0
H720 H 0.57561 0.69917 0.76715 0.0
H721 H 0.61193 0.69691 0.72781 0.0
H722 H 0.59367 0.61361 0.71966 0.0
H723 H 0.5582 0.61569 0.75883 0.0
C724 C 0.66133 0.6281 0.66663 0.0
C725 C 0.65873 0.64648 0.64459 0.0
C726 C 0.64533 0.6316 0.69185 0.0
C727 C 0.62619 0.65349 0.69558 0.0
C728 C 0.62484 0.67259 0.6741 0.0
C729 C 0.64101 0.66914 0.64886 0.0
C730 C 0.57963 0.68036 0.75708 0.0
C731 C 0.56385 0.65765 0.76606 0.0
C732 C 0.6003 0.6791 0.73448 0.0
C733 C 0.60577 0.65507 0.72064 0.0
C734 C 0.59043 0.63236 0.73009 0.0
C735 C 0.56981 0.63362 0.75246 0.0
H736 H 0.68263 0.3902 0.16431 0.0
H737 H 0.64209 0.31901 0.13102 0.0
H738 H 0.65537 0.3836 0.20868 0.0
H739 H 0.61434 0.31257 0.1753 0.0
H740 H 0.5786 0.30215 0.26544 0.0
H741 H 0.61568 0.30414 0.22664 0.0
H742 H 0.60203 0.38811 0.22036 0.0
H743 H 0.56588 0.38626 0.25898 0.0
C744 C 0.66803 0.37304 0.16659 0.0
C745 C 0.66416 0.35532 0.14409 0.0
C746 C 0.6524 0.36925 0.19197 0.0
C747 C 0.63231 0.34777 0.19538 0.0
C748 C 0.62979 0.32921 0.17345 0.0
C749 C 0.64562 0.33293 0.14806 0.0
C750 C 0.58386 0.32103 0.25593 0.0
C751 C 0.5691 0.344 0.26517 0.0
C752 C 0.60496 0.32215 0.23365 0.0
C753 C 0.61187 0.34629 0.22043 0.0
C754 C 0.59768 0.36925 0.2303 0.0
C755 C 0.57664 0.36813 0.25234 0.0
H756 H 0.37082 0.60034 0.64255 0.0
H757 H 0.31859 0.67063 0.65956 0.0
H758 H 0.40029 0.60756 0.68531 0.0
H759 H 0.34924 0.67829 0.7022 0.0
H760 H 0.4417 0.69301 0.75425 0.0
H761 H 0.40627 0.68823 0.71446 0.0
H762 H 0.38947 0.60738 0.73808 0.0
H763 H 0.42458 0.61198 0.77771 0.0
C764 C 0.36528 0.61718 0.65556 0.0
C765 C 0.34189 0.63466 0.64771 0.0
C766 C 0.38234 0.62136 0.68004 0.0
C767 C 0.37683 0.64333 0.6972 0.0
C768 C 0.35395 0.6612 0.68926 0.0
C769 C 0.33651 0.65684 0.66482 0.0
C770 C 0.43018 0.6743 0.75115 0.0
C771 C 0.43632 0.65278 0.76898 0.0
C772 C 0.4098 0.67164 0.72846 0.0
C773 C 0.39543 0.64736 0.72307 0.0
C774 C 0.40059 0.62622 0.74155 0.0
C775 C 0.42066 0.62892 0.76431 0.0
H776 H 0.8909 0.87739 0.12703 0.0
H777 H 0.81537 0.83528 0.16504 0.0
H778 H 0.92152 0.87015 0.16912 0.0
H779 H 0.84644 0.82788 0.20766 0.0
H780 H 0.93094 0.80277 0.26641 0.0
H781 H 0.89612 0.80562 0.22573 0.0
H782 H 0.91711 0.88842 0.21774 0.0
H783 H 0.95164 0.88568 0.25771 0.0
C784 C 0.8808 0.86661 0.14447 0.0
C785 C 0.8505 0.85741 0.14298 0.0
C786 C 0.89837 0.86244 0.16858 0.0
C787 C 0.88615 0.84891 0.19189 0.0
C788 C 0.85637 0.83844 0.18999 0.0
C789 C 0.83864 0.84267 0.16567 0.0
C790 C 0.92782 0.8216 0.25609 0.0
C791 C 0.94449 0.84389 0.26498 0.0
C792 C 0.90787 0.82322 0.23289 0.0
C793 C 0.9044 0.84713 0.21827 0.0
C794 C 0.91988 0.86958 0.22815 0.0
C795 C 0.93965 0.868 0.25115 0.0
H796 H 0.1081 0.13627 0.61814 0.0
H797 H 0.18925 0.16745 0.65841 0.0
H798 H 0.07921 0.1432 0.66136 0.0
H799 H 0.15989 0.17467 0.70202 0.0
H800 H 0.07799 0.20055 0.76504 0.0
H801 H 0.11084 0.19992 0.72286 0.0
H802 H 0.08601 0.11872 0.70837 0.0
H803 H 0.05374 0.11911 0.74991 0.0
C804 C 0.11972 0.14476 0.63623 0.0
C805 C 0.15109 0.15078 0.6351 0.0
C806 C 0.10316 0.14878 0.66093 0.0
C807 C 0.11748 0.15903 0.68512 0.0
C808 C 0.14837 0.16671 0.68361 0.0
C809 C 0.16511 0.16258 0.65873 0.0
C810 C 0.07986 0.18252 0.75297 0.0
C811 C 0.06282 0.16002 0.7606 0.0
C812 C 0.09866 0.18218 0.72892 0.0
C813 C 0.10043 0.15941 0.71215 0.0
C814 C 0.08453 0.1367 0.72059 0.0
C815 C 0.06607 0.13696 0.74449 0.0
H816 H 0.19541 0.86477 0.16246 0.0
H817 H 0.11074 0.85209 0.11734 0.0
H818 H 0.16908 0.8559 0.20727 0.0
H819 H 0.08452 0.84329 0.16186 0.0
H820 H 0.05169 0.80722 0.24343 0.0
H821 H 0.08391 0.8101 0.20152 0.0
H822 H 0.1276 0.87976 0.23515 0.0
H823 H 0.09539 0.87698 0.2772 0.0
C824 C 0.17129 0.85979 0.16215 0.0
C825 C 0.15503 0.85923 0.13652 0.0
C826 C 0.15622 0.85488 0.18772 0.0
C827 C 0.12478 0.84888 0.18801 0.0
C828 C 0.10882 0.84759 0.16227 0.0
C829 C 0.12374 0.85284 0.13683 0.0
C830 C 0.06844 0.82295 0.24214 0.0
C831 C 0.07071 0.84205 0.26355 0.0
C832 C 0.0868 0.82464 0.21806 0.0
C833 C 0.10806 0.84526 0.21499 0.0
C834 C 0.1115 0.86357 0.23702 0.0
C835 C 0.09292 0.86205 0.26101 0.0
H836 H 0.8897 0.1549 0.61831 0.0
H837 H 0.80831 0.13462 0.66519 0.0
H838 H 0.91711 0.16295 0.66238 0.0
H839 H 0.83589 0.14266 0.70967 0.0
H840 H 0.9151 0.12124 0.77484 0.0
H841 H 0.88059 0.11951 0.73422 0.0
H842 H 0.91726 0.19344 0.70422 0.0
H843 H 0.95176 0.19528 0.74464 0.0
C844 C 0.87763 0.15244 0.63813 0.0
C845 C 0.84699 0.14405 0.63844 0.0
C846 C 0.89323 0.15721 0.66333 0.0
C847 C 0.87862 0.15343 0.68945 0.0
C848 C 0.84771 0.14561 0.68981 0.0
C849 C 0.83191 0.14118 0.66446 0.0
C850 C 0.91555 0.13729 0.75977 0.0
C851 C 0.93651 0.15821 0.76281 0.0
C852 C 0.89563 0.13637 0.73663 0.0
C853 C 0.89643 0.15624 0.71598 0.0
C854 C 0.9164 0.17771 0.71967 0.0
C855 C 0.93611 0.17876 0.74289 0.0
loop_
_geom_bond_atom_site_label_1
_geom_bond_atom_site_label_2
_geom_bond_distance
_geom_bond_site_symmetry_2
_ccdc_geom_bond_type
C0 C1 1.384 . S
C0 H13 0.947 . S
C0 C35 1.382 . S
C1 C0 1.384 . S
C1 C2 1.378 . S
C2 C1 1.378 . S
C2 C3 1.378 . S
C2 H14 0.952 . S
C3 C2 1.378 . S
C3 H15 0.950 . S
C3 C34 1.383 . S
H4 C23 0.946 . S
H5 C24 0.946 1_554 S
H6 C26 0.953 . S
H7 C27 0.945 . S
H8 C29 0.952 . S
H9 C30 0.949 . S
H10 C32 0.950 . S
H11 C33 0.948 1_554 S
H12 C35 0.951 . S
H13 C0 0.947 . S
H14 C2 0.952 . S
H15 C3 0.950 . S
N16 C19 1.382 1_554 S
N16 C21 1.363 . S
N17 C19 1.371 . S
N17 C20 1.372 . S
N18 C20 1.361 1_554 S
N18 C21 1.377 . S
C19 N16 1.382 1_556 S
C19 N17 1.371 . S
C19 C22 1.480 . S
C20 N17 1.372 . S
C20 N18 1.361 1_556 S
C20 C28 1.457 . S
C21 N16 1.363 . S
C21 N18 1.377 . S
C21 C34 1.479 . S
C22 C19 1.480 . S
C22 C23 1.384 1_556 S
C22 C27 1.385 . S
C23 H4 0.946 . S
C23 C22 1.384 1_554 S
C23 C24 1.389 1_554 S
C24 H5 0.946 1_556 S
C24 C23 1.389 1_556 S
C24 C25 1.384 . S
C25 C24 1.384 . S
C25 C26 1.377 . S
C26 H6 0.953 . S
C26 C25 1.377 . S
C26 C27 1.369 . S
C27 H7 0.945 . S
C27 C22 1.385 . S
C27 C26 1.369 . S
C28 C20 1.457 . S
C28 C29 1.372 . S
C28 C33 1.364 . S
C29 H8 0.952 . S
C29 C28 1.372 . S
C29 C30 1.389 . S
C30 H9 0.949 . S
C30 C29 1.389 . S
C30 C31 1.387 . S
C31 C30 1.387 . S
C31 C32 1.372 . S
C32 H10 0.950 . S
C32 C31 1.372 . S
C32 C33 1.379 . S
C33 H11 0.948 1_556 S
C33 C28 1.364 . S
C33 C32 1.379 . S
C34 C3 1.383 . S
C34 C21 1.479 . S
C34 C35 1.398 . S
C35 C0 1.382 . S
C35 H12 0.951 . S
C35 C34 1.398 . S
C36 C37 1.384 . S
C36 H49 0.947 . S
C36 C71 1.382 . S
C37 C36 1.384 . S
C37 C38 1.378 . S
C38 C37 1.378 . S
C38 C39 1.378 . S
C38 H50 0.952 . S
C39 C38 1.378 . S
C39 H51 0.950 . S
C39 C70 1.383 . S
H40 C59 0.947 . S
H41 C60 0.946 . S
H42 C62 0.953 . S
H43 C63 0.945 . S
H44 C65 0.952 . S
H45 C66 0.949 . S
H46 C68 0.950 . S
H47 C69 0.948 . S
H48 C71 0.951 . S
H49 C36 0.947 . S
H50 C38 0.952 . S
H51 C39 0.950 . S
N52 C55 1.382 . S
N52 C57 1.363 . S
N53 C55 1.371 . S
N53 C56 1.372 . S
N54 C56 1.361 . S
N54 C57 1.377 . S
C55 N52 1.382 . S
C55 N53 1.371 . S
C55 C58 1.480 . S
C56 N53 1.372 . S
C56 N54 1.361 . S
C56 C64 1.457 . S
C57 N52 1.363 . S
C57 N54 1.377 . S
C57 C70 1.479 . S
C58 C55 1.480 . S
C58 C59 1.383 . S
C58 C63 1.385 . S
C59 H40 0.947 . S
C59 C58 1.383 . S
C59 C60 1.388 . S
C60 H41 0.946 . S
C60 C59 1.388 . S
C60 C61 1.384 . S
C61 C60 1.384 . S
C61 C62 1.377 . S
C62 H42 0.953 . S
C62 C61 1.377 . S
C62 C63 1.369 . S
C63 H43 0.945 . S
C63 C58 1.385 . S
C63 C62 1.369 . S
C64 C56 1.457 . S
C64 C65 1.372 . S
C64 C69 1.364 . S
C65 H44 0.952 . S
C65 C64 1.372 . S
C65 C66 1.389 . S
C66 H45 0.949 . S
C66 C65 1.389 . S
C66 C67 1.387 . S
C67 C66 1.387 . S
C67 C68 1.372 . S
C68 H46 0.950 . S
C68 C67 1.372 . S
C68 C69 1.379 . S
C69 H47 0.948 . S
C69 C64 1.364 . S
C69 C68 1.379 . S
C70 C39 1.383 . S
C70 C57 1.479 . S
C70 C71 1.398 . S
C71 C36 1.382 . S
C71 H48 0.951 . S
C71 C70 1.398 . S
C72 C73 1.384 . S
C72 H85 0.947 . S
C72 C107 1.382 . S
C73 C72 1.384 . S
C73 C74 1.378 . S
C74 C73 1.378 . S
C74 C75 1.378 . S
C74 H86 0.952 . S
C75 C74 1.378 . S
C75 H87 0.950 . S
C75 C106 1.383 . S
H76 C95 0.964 . S
H77 C96 0.946 . S
H78 C98 0.953 . S
H79 C99 0.945 . S
H80 C101 0.952 . S
H81 C102 0.949 . S
H82 C104 0.950 . S
H83 C105 0.948 1_554 S
H84 C107 0.951 . S
H85 C72 0.947 . S
H86 C74 0.952 . S
H87 C75 0.950 . S
N88 C91 1.346 1_554 S
N88 C93 1.363 . S
N89 C91 1.394 . S
N89 C92 1.372 . S
N90 C92 1.361 1_554 S
N90 C93 1.377 . S
C91 N88 1.346 1_556 S
C91 N89 1.394 . S
C91 C94 1.497 . S
C92 N89 1.372 . S
C92 N90 1.361 1_556 S
C92 C100 1.457 . S
C93 N88 1.363 . S
C93 N90 1.377 . S
C93 C106 1.479 . S
C94 C91 1.497 . S
C94 C95 1.374 1_556 S
C94 C99 1.385 . S
C95 H76 0.964 . S
C95 C94 1.374 1_554 S
C95 C96 1.380 1_554 S
C96 H77 0.946 . S
C96 C95 1.380 1_556 S
C96 C97 1.384 . S
C97 C96 1.384 . S
C97 C98 1.377 . S
C98 H78 0.953 . S
C98 C97 1.377 . S
C98 C99 1.369 . S
C99 H79 0.945 . S
C99 C94 1.385 . S
C99 C98 1.369 . S
C100 C92 1.457 . S
C100 C101 1.372 . S
C100 C105 1.364 . S
C101 H80 0.952 . S
C101 C100 1.372 . S
C101 C102 1.389 . S
C102 H81 0.949 . S
C102 C101 1.389 . S
C102 C103 1.387 . S
C103 C102 1.387 . S
C103 C104 1.372 . S
C104 H82 0.950 . S
C104 C103 1.372 . S
C104 C105 1.379 . S
C105 H83 0.948 1_556 S
C105 C100 1.364 . S
C105 C104 1.379 . S
C106 C75 1.383 . S
C106 C93 1.479 . S
C106 C107 1.398 . S
C107 C72 1.382 . S
C107 H84 0.951 . S
C107 C106 1.398 . S
C108 C109 1.384 . S
C108 H121 0.947 . S
C108 C143 1.382 . S
C109 C108 1.384 . S
C109 C110 1.378 . S
C110 C109 1.378 . S
C110 C111 1.378 . S
C110 H122 0.952 . S
C111 C110 1.378 . S
C111 H123 0.950 . S
C111 C142 1.383 . S
H112 C131 0.947 . S
H113 C132 0.946 . S
H114 C134 0.953 . S
H115 C135 0.945 . S
H116 C137 0.952 . S
H117 C138 0.949 . S
H118 C140 0.950 . S
H119 C141 0.948 . S
H120 C143 0.951 . S
H121 C108 0.947 . S
H122 C110 0.952 . S
H123 C111 0.950 . S
N124 C127 1.382 . S
N124 C129 1.363 . S
N125 C127 1.371 . S
N125 C128 1.372 . S
N126 C128 1.361 . S
N126 C129 1.377 . S
C127 N124 1.382 . S
C127 N125 1.371 . S
C127 C130 1.480 . S
C128 N125 1.372 . S
C128 N126 1.361 . S
C128 C136 1.457 . S
C129 N124 1.363 . S
C129 N126 1.377 . S
C129 C142 1.479 . S
C130 C127 1.480 . S
C130 C131 1.383 . S
C130 C135 1.385 . S
C131 H112 0.947 . S
C131 C130 1.383 . S
C131 C132 1.388 . S
C132 H113 0.946 . S
C132 C131 1.388 . S
C132 C133 1.384 . S
C133 C132 1.384 . S
C133 C134 1.377 . S
C134 H114 0.953 . S
C134 C133 1.377 . S
C134 C135 1.369 . S
C135 H115 0.945 . S
C135 C130 1.385 . S
C135 C134 1.369 . S
C136 C128 1.457 . S
C136 C137 1.372 . S
C136 C141 1.364 . S
C137 H116 0.952 . S
C137 C136 1.372 . S
C137 C138 1.389 . S
C138 H117 0.949 . S
C138 C137 1.389 . S
C138 C139 1.387 . S
C139 C138 1.387 . S
C139 C140 1.372 . S
C140 H118 0.950 . S
C140 C139 1.372 . S
C140 C141 1.379 . S
C141 H119 0.948 . S
C141 C136 1.364 . S
C141 C140 1.379 . S
C142 C111 1.383 . S
C142 C129 1.479 . S
C142 C143 1.398 . S
C143 C108 1.382 . S
C143 H120 0.951 . S
C143 C142 1.398 . S
C144 C145 1.384 . S
C144 H157 0.947 . S
C144 C179 1.382 . S
C145 C144 1.384 . S
C145 C146 1.378 . S
C146 C145 1.378 . S
C146 C147 1.378 . S
C146 H158 0.952 . S
C147 C146 1.378 . S
C147 H159 0.950 . S
C147 C178 1.383 . S
H148 C167 0.946 . S
H149 C168 0.946 1_554 S
H150 C170 0.953 . S
H151 C171 0.945 . S
H152 C173 0.952 . S
H153 C174 0.949 . S
H154 C176 0.950 . S
H155 C177 0.948 1_554 S
H156 C179 0.951 . S
H157 C144 0.947 . S
H158 C146 0.952 . S
H159 C147 0.950 . S
N160 C163 1.382 1_554 S
N160 C165 1.363 . S
N161 C163 1.371 . S
N161 C164 1.372 . S
N162 C164 1.361 1_554 S
N162 C165 1.377 . S
C163 N160 1.382 1_556 S
C163 N161 1.371 . S
C163 C166 1.480 . S
C164 N161 1.372 . S
C164 N162 1.361 1_556 S
C164 C172 1.457 . S
C165 N160 1.363 . S
C165 N162 1.377 . S
C165 C178 1.479 . S
C166 C163 1.480 . S
C166 C167 1.383 1_556 S
C166 C171 1.385 . S
C167 H148 0.946 . S
C167 C166 1.383 1_554 S
C167 C168 1.389 1_554 S
C168 H149 0.946 1_556 S
C168 C167 1.389 1_556 S
C168 C169 1.384 . S
C169 C168 1.384 . S
C169 C170 1.377 . S
C170 H150 0.953 . S
C170 C169 1.377 . S
C170 C171 1.369 . S
C171 H151 0.945 . S
C171 C166 1.385 . S
C171 C170 1.369 . S
C172 C164 1.457 . S
C172 C173 1.372 . S
C172 C177 1.364 . S
C173 H152 0.952 . S
C173 C172 1.372 . S
C173 C174 1.389 . S
C174 H153 0.949 . S
C174 C173 1.389 . S
C174 C175 1.387 . S
C175 C174 1.387 . S
C175 C176 1.372 . S
C176 H154 0.950 . S
C176 C175 1.372 . S
C176 C177 1.379 . S
C177 H155 0.948 1_556 S
C177 C172 1.364 . S
C177 C176 1.379 . S
C178 C147 1.383 . S
C178 C165 1.479 . S
C178 C179 1.398 . S
C179 C144 1.382 . S
C179 H156 0.951 . S
C179 C178 1.398 . S
C180 C181 1.384 . S
C180 H193 0.947 . S
C180 C215 1.382 . S
C181 C180 1.384 . S
C181 C182 1.378 . S
C182 C181 1.378 . S
C182 C183 1.378 . S
C182 H194 0.952 . S
C183 C182 1.378 . S
C183 H195 0.950 . S
C183 C214 1.383 . S
H184 C203 0.947 . S
H185 C204 0.946 . S
H186 C206 0.953 . S
H187 C207 0.945 . S
H188 C209 0.952 . S
H189 C210 0.949 . S
H190 C212 0.950 . S
H191 C213 0.948 . S
H192 C215 0.951 . S
H193 C180 0.947 . S
H194 C182 0.952 . S
H195 C183 0.950 . S
N196 C199 1.382 . S
N196 C201 1.363 . S
N197 C199 1.371 . S
N197 C200 1.372 . S
N198 C200 1.361 . S
N198 C201 1.377 . S
C199 N196 1.382 . S
C199 N197 1.371 . S
C199 C202 1.480 . S
C200 N197 1.372 . S
C200 N198 1.361 . S
C200 C208 1.457 . S
C201 N196 1.363 . S
C201 N198 1.377 . S
C201 C214 1.479 . S
C202 C199 1.480 . S
C202 C203 1.383 . S
C202 C207 1.385 . S
C203 H184 0.947 . S
C203 C202 1.383 . S
C203 C204 1.388 . S
C204 H185 0.946 . S
C204 C203 1.388 . S
C204 C205 1.384 . S
C205 C204 1.384 . S
C205 C206 1.377 . S
C206 H186 0.953 . S
C206 C205 1.377 . S
C206 C207 1.369 . S
C207 H187 0.945 . S
C207 C202 1.385 . S
C207 C206 1.369 . S
C208 C200 1.457 . S
C208 C209 1.372 . S
C208 C213 1.364 . S
C209 H188 0.952 . S
C209 C208 1.372 . S
C209 C210 1.389 . S
C210 H189 0.949 . S
C210 C209 1.389 . S
C210 C211 1.387 . S
C211 C210 1.387 . S
C211 C212 1.372 . S
C212 H190 0.950 . S
C212 C211 1.372 . S
C212 C213 1.379 . S
C213 H191 0.948 . S
C213 C208 1.364 . S
C213 C212 1.379 . S
C214 C183 1.383 . S
C214 C201 1.479 . S
C214 C215 1.398 . S
C215 C180 1.382 . S
C215 H192 0.951 . S
C215 C214 1.398 . S
C216 C217 1.384 . S
C216 H229 0.947 . S
C216 C251 1.382 . S
C217 C216 1.384 . S
C217 C218 1.378 . S
C218 C217 1.378 . S
C218 C219 1.378 . S
C218 H230 0.952 . S
C219 C218 1.378 . S
C219 H231 0.950 . S
C219 C250 1.383 . S
H220 C239 0.964 . S
H221 C240 0.946 . S
H222 C242 0.953 . S
H223 C243 0.945 . S
H224 C245 0.952 . S
H225 C246 0.949 . S
H226 C248 0.950 . S
H227 C249 0.948 1_554 S
H228 C251 0.951 . S
H229 C216 0.947 . S
H230 C218 0.952 . S
H231 C219 0.950 . S
N232 C235 1.346 1_554 S
N232 C237 1.363 . S
N233 C235 1.394 . S
N233 C236 1.372 . S
N234 C236 1.361 1_554 S
N234 C237 1.377 . S
C235 N232 1.346 1_556 S
C235 N233 1.394 . S
C235 C238 1.497 . S
C236 N233 1.372 . S
C236 N234 1.361 1_556 S
C236 C244 1.457 . S
C237 N232 1.363 . S
C237 N234 1.377 . S
C237 C250 1.479 . S
C238 C235 1.497 . S
C238 C239 1.374 1_556 S
C238 C243 1.385 . S
C239 H220 0.964 . S
C239 C238 1.374 1_554 S
C239 C240 1.380 1_554 S
C240 H221 0.946 . S
C240 C239 1.380 1_556 S
C240 C241 1.384 . S
C241 C240 1.384 . S
C241 C242 1.377 . S
C242 H222 0.953 . S
C242 C241 1.377 . S
C242 C243 1.369 . S
C243 H223 0.945 . S
C243 C238 1.385 . S
C243 C242 1.369 . S
C244 C236 1.457 . S
C244 C245 1.372 . S
C244 C249 1.364 . S
C245 H224 0.952 . S
C245 C244 1.372 . S
C245 C246 1.389 . S
C246 H225 0.949 . S
C246 C245 1.389 . S
C246 C247 1.387 . S
C247 C246 1.387 . S
C247 C248 1.372 . S
C248 H226 0.950 . S
C248 C247 1.372 . S
C248 C249 1.379 . S
C249 H227 0.948 1_556 S
C249 C244 1.364 . S
C249 C248 1.379 . S
C250 C219 1.383 . S
C250 C237 1.479 . S
C250 C251 1.398 . S
C251 C216 1.382 . S
C251 H228 0.951 . S
C251 C250 1.398 . S
C252 C253 1.384 . S
C252 H265 0.947 . S
C252 C287 1.382 . S
C253 C252 1.384 . S
C253 C254 1.378 . S
C254 C253 1.378 . S
C254 C255 1.378 . S
C254 H266 0.952 . S
C255 C254 1.378 . S
C255 H267 0.950 . S
C255 C286 1.383 . S
H256 C275 0.947 . S
H257 C276 0.946 . S
H258 C278 0.953 . S
H259 C279 0.945 . S
H260 C281 0.952 . S
H261 C282 0.949 . S
H262 C284 0.950 . S
H263 C285 0.948 . S
H264 C287 0.951 . S
H265 C252 0.947 . S
H266 C254 0.952 . S
H267 C255 0.950 . S
N268 C271 1.382 . S
N268 C273 1.363 . S
N269 C271 1.371 . S
N269 C272 1.372 . S
N270 C272 1.361 . S
N270 C273 1.377 . S
C271 N268 1.382 . S
C271 N269 1.371 . S
C271 C274 1.480 . S
C272 N269 1.372 . S
C272 N270 1.361 . S
C272 C280 1.457 . S
C273 N268 1.363 . S
C273 N270 1.377 . S
C273 C286 1.479 . S
C274 C271 1.480 . S
C274 C275 1.383 . S
C274 C279 1.385 . S
C275 H256 0.947 . S
C275 C274 1.383 . S
C275 C276 1.388 . S
C276 H257 0.946 . S
C276 C275 1.388 . S
C276 C277 1.384 . S
C277 C276 1.384 . S
C277 C278 1.377 . S
C278 H258 0.953 . S
C278 C277 1.377 . S
C278 C279 1.369 . S
C279 H259 0.945 . S
C279 C274 1.385 . S
C279 C278 1.369 . S
C280 C272 1.457 . S
C280 C281 1.372 . S
C280 C285 1.364 . S
C281 H260 0.952 . S
C281 C280 1.372 . S
C281 C282 1.389 . S
C282 H261 0.949 . S
C282 C281 1.389 . S
C282 C283 1.387 . S
C283 C282 1.387 . S
C283 C284 1.372 . S
C284 H262 0.950 . S
C284 C283 1.372 . S
C284 C285 1.379 . S
C285 H263 0.948 . S
C285 C280 1.364 . S
C285 C284 1.379 . S
C286 C255 1.383 . S
C286 C273 1.479 . S
C286 C287 1.398 . S
C287 C252 1.382 . S
C287 H264 0.951 . S
C287 C286 1.398 . S
Fe288 O290 1.918 . S
Fe288 O293 1.997 1_455 S
Fe288 O294 2.002 1_455 S
Fe288 O299 1.976 . S
Fe288 O302 1.996 . S
Fe289 O290 1.918 . S
Fe289 O297 1.997 1_455 S
Fe289 O300 1.996 . S
Fe289 O304 1.976 . S
Fe289 O307 2.002 1_455 S
O290 Fe288 1.918 . S
O290 Fe289 1.918 . S
O290 Fe291 1.918 . S
Fe291 O290 1.918 . S
Fe291 O292 2.002 1_455 S
Fe291 O301 1.976 . S
Fe291 O305 1.996 . S
Fe291 O308 1.997 1_455 S
O292 Fe291 2.002 1_655 S
O292 C309 1.295 . S
O293 Fe288 1.997 1_655 S
O293 C309 1.235 . S
O294 Fe288 2.002 1_655 S
O294 C295 1.295 . S
C295 O294 1.295 . S
C295 O297 1.235 . S
C296 O301 1.287 . S
C296 O302 1.255 . S
O297 Fe289 1.997 1_655 S
O297 C295 1.235 . S
C298 O304 1.287 . S
C298 O305 1.255 . S
O299 Fe288 1.976 . S
O299 C306 1.287 . S
O300 Fe289 1.996 . S
O300 C306 1.255 . S
O301 Fe291 1.976 . S
O301 C296 1.287 . S
O302 Fe288 1.996 . S
O302 C296 1.255 . S
C303 O307 1.295 . S
C303 O308 1.235 . S
O304 Fe289 1.976 . S
O304 C298 1.287 . S
O305 Fe291 1.996 . S
O305 C298 1.255 . S
C306 O299 1.287 . S
C306 O300 1.255 . S
O307 Fe289 2.002 1_655 S
O307 C303 1.295 . S
O308 Fe291 1.997 1_655 S
O308 C303 1.235 . S
C309 O292 1.295 . S
C309 O293 1.235 . S
Fe310 O312 1.919 . S
Fe310 O315 1.982 1_655 S
Fe310 O316 1.988 1_655 S
Fe310 O321 1.990 . S
Fe310 O324 2.010 . S
Fe311 O312 1.919 . S
Fe311 O319 1.983 1_655 S
Fe311 O322 2.009 . S
Fe311 O326 1.990 . S
Fe311 O329 1.988 1_655 S
O312 Fe310 1.919 . S
O312 Fe311 1.919 . S
O312 Fe313 1.919 . S
Fe313 O312 1.919 . S
Fe313 O314 1.989 1_655 S
Fe313 O323 1.989 . S
Fe313 O327 2.009 . S
Fe313 O330 1.983 1_655 S
O314 Fe313 1.989 1_455 S
O314 C331 1.295 . S
O315 Fe310 1.982 1_455 S
O315 C331 1.235 . S
O316 Fe310 1.988 1_455 S
O316 C317 1.295 . S
C317 O316 1.295 . S
C317 O319 1.235 . S
C318 O323 1.287 . S
C318 O324 1.255 . S
O319 Fe311 1.983 1_455 S
O319 C317 1.235 . S
C320 O326 1.287 . S
C320 O327 1.255 . S
O321 Fe310 1.990 . S
O321 C328 1.287 . S
O322 Fe311 2.009 . S
O322 C328 1.255 . S
O323 Fe313 1.989 . S
O323 C318 1.287 . S
O324 Fe310 2.010 . S
O324 C318 1.255 . S
C325 O329 1.295 . S
C325 O330 1.235 . S
O326 Fe311 1.990 . S
O326 C320 1.287 . S
O327 Fe313 2.009 . S
O327 C320 1.255 . S
C328 O321 1.287 . S
C328 O322 1.255 . S
O329 Fe311 1.988 1_455 S
O329 C325 1.295 . S
O330 Fe313 1.983 1_455 S
O330 C325 1.235 . S
C331 O314 1.295 . S
C331 O315 1.235 . S
Fe332 O334 1.918 . S
Fe332 O337 1.997 . S
Fe332 O338 2.002 . S
Fe332 O343 1.976 . S
Fe332 O346 1.996 . S
Fe333 O334 1.918 . S
Fe333 O341 1.997 . S
Fe333 O344 1.996 . S
Fe333 O348 1.976 . S
Fe333 O351 2.002 . S
O334 Fe332 1.918 . S
O334 Fe333 1.918 . S
O334 Fe335 1.918 . S
Fe335 O334 1.918 . S
Fe335 O336 2.002 . S
Fe335 O345 1.976 . S
Fe335 O349 1.996 . S
Fe335 O352 1.997 . S
O336 Fe335 2.002 . S
O336 C353 1.295 . S
O337 Fe332 1.997 . S
O337 C353 1.235 . S
O338 Fe332 2.002 . S
O338 C339 1.295 . S
C339 O338 1.295 . S
C339 O341 1.235 . S
C340 O345 1.287 . S
C340 O346 1.255 . S
O341 Fe333 1.997 . S
O341 C339 1.235 . S
C342 O348 1.287 . S
C342 O349 1.255 . S
O343 Fe332 1.976 . S
O343 C350 1.287 . S
O344 Fe333 1.996 . S
O344 C350 1.255 . S
O345 Fe335 1.976 . S
O345 C340 1.287 . S
O346 Fe332 1.996 . S
O346 C340 1.255 . S
C347 O351 1.295 . S
C347 O352 1.235 . S
O348 Fe333 1.976 . S
O348 C342 1.287 . S
O349 Fe335 1.996 . S
O349 C342 1.255 . S
C350 O343 1.287 . S
C350 O344 1.255 . S
O351 Fe333 2.002 . S
O351 C347 1.295 . S
O352 Fe335 1.997 . S
O352 C347 1.235 . S
C353 O336 1.295 . S
C353 O337 1.235 . S
Fe354 O356 1.918 . S
Fe354 O359 1.997 . S
Fe354 O360 2.002 . S
Fe354 O365 1.976 . S
Fe354 O368 1.996 . S
Fe355 O356 1.918 . S
Fe355 O363 1.997 . S
Fe355 O366 1.996 . S
Fe355 O370 1.976 . S
Fe355 O373 2.002 . S
O356 Fe354 1.918 . S
O356 Fe355 1.918 . S
O356 Fe357 1.918 . S
Fe357 O356 1.918 . S
Fe357 O358 2.002 . S
Fe357 O367 1.976 . S
Fe357 O371 1.996 . S
Fe357 O374 1.997 . S
O358 Fe357 2.002 . S
O358 C375 1.295 . S
O359 Fe354 1.997 . S
O359 C375 1.235 . S
O360 Fe354 2.002 . S
O360 C361 1.295 . S
C361 O360 1.295 . S
C361 O363 1.235 . S
C362 O367 1.287 . S
C362 O368 1.255 . S
O363 Fe355 1.997 . S
O363 C361 1.235 . S
C364 O370 1.287 . S
C364 O371 1.255 . S
O365 Fe354 1.976 . S
O365 C372 1.287 . S
O366 Fe355 1.996 . S
O366 C372 1.255 . S
O367 Fe357 1.976 . S
O367 C362 1.287 . S
O368 Fe354 1.996 . S
O368 C362 1.255 . S
C369 O373 1.295 . S
C369 O374 1.235 . S
O370 Fe355 1.976 . S
O370 C364 1.287 . S
O371 Fe357 1.996 . S
O371 C364 1.255 . S
C372 O365 1.287 . S
C372 O366 1.255 . S
O373 Fe355 2.002 . S
O373 C369 1.295 . S
O374 Fe357 1.997 . S
O374 C369 1.235 . S
C375 O358 1.295 . S
C375 O359 1.235 . S
H376 C384 0.950 . S
H377 C389 0.950 . S
H378 C386 0.950 . S
H379 C388 0.950 . S
H380 C390 0.950 . S
H381 C392 0.950 . S
H382 C394 0.950 . S
H383 C395 0.950 . S
C384 H376 0.950 . S
C384 C385 1.386 . S
C384 C386 1.391 . S
C385 C384 1.386 . S
C385 C389 1.393 . S
C386 H378 0.950 . S
C386 C384 1.391 . S
C386 C387 1.400 . S
C387 C386 1.400 . S
C387 C388 1.398 . S
C387 C393 1.491 . S
C388 H379 0.950 . S
C388 C387 1.398 . S
C388 C389 1.391 . S
C389 H377 0.950 . S
C389 C385 1.393 . S
C389 C388 1.391 . S
C390 H380 0.950 . S
C390 C391 1.386 . S
C390 C392 1.391 . S
C391 C390 1.386 . S
C391 C395 1.393 . S
C392 H381 0.950 . S
C392 C390 1.391 . S
C392 C393 1.400 . S
C393 C387 1.491 . S
C393 C392 1.400 . S
C393 C394 1.398 . S
C394 H382 0.950 . S
C394 C393 1.398 . S
C394 C395 1.391 . S
C395 H383 0.950 . S
C395 C391 1.393 . S
C395 C394 1.391 . S
H396 C404 0.950 . S
H397 C409 0.950 . S
H398 C406 0.950 . S
H399 C408 0.950 . S
H400 C410 0.950 . S
H401 C412 0.950 . S
H402 C414 0.950 . S
H403 C415 0.950 . S
C404 H396 0.950 . S
C404 C405 1.386 . S
C404 C406 1.391 . S
C405 C404 1.386 . S
C405 C409 1.393 . S
C406 H398 0.950 . S
C406 C404 1.391 . S
C406 C407 1.400 . S
C407 C406 1.400 . S
C407 C408 1.398 . S
C407 C413 1.491 . S
C408 H399 0.950 . S
C408 C407 1.398 . S
C408 C409 1.391 . S
C409 H397 0.950 . S
C409 C405 1.393 . S
C409 C408 1.391 . S
C410 H400 0.950 . S
C410 C411 1.386 . S
C410 C412 1.391 . S
C411 C410 1.386 . S
C411 C415 1.393 . S
C412 H401 0.950 . S
C412 C410 1.391 . S
C412 C413 1.400 . S
C413 C407 1.491 . S
C413 C412 1.400 . S
C413 C414 1.398 . S
C414 H402 0.950 . S
C414 C413 1.398 . S
C414 C415 1.391 . S
C415 H403 0.950 . S
C415 C411 1.393 . S
C415 C414 1.391 . S
H416 C424 0.950 . S
H417 C429 0.950 . S
H418 C426 0.950 . S
H419 C428 0.950 . S
H420 C430 0.950 . S
H421 C432 0.950 . S
H422 C434 0.950 . S
H423 C435 0.950 . S
C424 H416 0.950 . S
C424 C425 1.386 . S
C424 C426 1.391 . S
C425 C424 1.386 . S
C425 C429 1.393 . S
C426 H418 0.950 . S
C426 C424 1.391 . S
C426 C427 1.400 . S
C427 C426 1.400 . S
C427 C428 1.398 . S
C427 C433 1.491 . S
C428 H419 0.950 . S
C428 C427 1.398 . S
C428 C429 1.391 . S
C429 H417 0.950 . S
C429 C425 1.393 . S
C429 C428 1.391 . S
C430 H420 0.950 . S
C430 C431 1.386 . S
C430 C432 1.391 . S
C431 C430 1.386 . S
C431 C435 1.393 . S
C432 H421 0.950 . S
C432 C430 1.391 . S
C432 C433 1.400 . S
C433 C427 1.491 . S
C433 C432 1.400 . S
C433 C434 1.398 . S
C434 H422 0.950 . S
C434 C433 1.398 . S
C434 C435 1.391 . S
C435 H423 0.950 . S
C435 C431 1.393 . S
C435 C434 1.391 . S
H436 C444 0.950 . S
H437 C449 0.950 . S
H438 C446 0.950 . S
H439 C448 0.950 . S
H440 C450 0.950 . S
H441 C452 0.950 . S
H442 C454 0.950 . S
H443 C455 0.950 . S
C444 H436 0.950 . S
C444 C445 1.386 . S
C444 C446 1.391 . S
C445 C444 1.386 . S
C445 C449 1.393 . S
C446 H438 0.950 . S
C446 C444 1.391 . S
C446 C447 1.400 . S
C447 C446 1.400 . S
C447 C448 1.398 . S
C447 C453 1.491 . S
C448 H439 0.950 . S
C448 C447 1.398 . S
C448 C449 1.391 . S
C449 H437 0.950 . S
C449 C445 1.393 . S
C449 C448 1.391 . S
C450 H440 0.950 . S
C450 C451 1.386 . S
C450 C452 1.391 . S
C451 C450 1.386 . S
C451 C455 1.393 . S
C452 H441 0.950 . S
C452 C450 1.391 . S
C452 C453 1.400 . S
C453 C447 1.491 . S
C453 C452 1.400 . S
C453 C454 1.398 . S
C454 H442 0.950 . S
C454 C453 1.398 . S
C454 C455 1.391 . S
C455 H443 0.950 . S
C455 C451 1.393 . S
C455 C454 1.391 . S
H456 C464 0.950 . S
H457 C469 0.950 . S
H458 C466 0.950 . S
H459 C468 0.950 . S
H460 C470 0.950 . S
H461 C472 0.950 . S
H462 C474 0.950 . S
H463 C475 0.950 . S
C464 H456 0.950 . S
C464 C465 1.386 . S
C464 C466 1.391 . S
C465 C464 1.386 . S
C465 C469 1.393 . S
C466 H458 0.950 . S
C466 C464 1.391 . S
C466 C467 1.400 . S
C467 C466 1.400 . S
C467 C468 1.398 . S
C467 C473 1.491 . S
C468 H459 0.950 . S
C468 C467 1.398 . S
C468 C469 1.391 . S
C469 H457 0.950 . S
C469 C465 1.393 . S
C469 C468 1.391 . S
C470 H460 0.950 . S
C470 C471 1.386 . S
C470 C472 1.391 . S
C471 C470 1.386 . S
C471 C475 1.393 . S
C472 H461 0.950 . S
C472 C470 1.391 . S
C472 C473 1.400 . S
C473 C467 1.491 . S
C473 C472 1.400 . S
C473 C474 1.398 . S
C474 H462 0.950 . S
C474 C473 1.398 . S
C474 C475 1.391 . S
C475 H463 0.950 . S
C475 C471 1.393 . S
C475 C474 1.391 . S
H476 C484 0.950 . S
H477 C489 0.950 . S
H478 C486 0.950 . S
H479 C488 0.950 . S
H480 C490 0.950 . S
H481 C492 0.950 . S
H482 C494 0.950 . S
H483 C495 0.950 . S
C484 H476 0.950 . S
C484 C485 1.386 . S
C484 C486 1.391 . S
C485 C484 1.386 . S
C485 C489 1.393 . S
C486 H478 0.950 . S
C486 C484 1.391 . S
C486 C487 1.400 . S
C487 C486 1.400 . S
C487 C488 1.398 . S
C487 C493 1.491 . S
C488 H479 0.950 . S
C488 C487 1.398 . S
C488 C489 1.391 . S
C489 H477 0.950 . S
C489 C485 1.393 . S
C489 C488 1.391 . S
C490 H480 0.950 . S
C490 C491 1.386 . S
C490 C492 1.391 . S
C491 C490 1.386 . S
C491 C495 1.393 . S
C492 H481 0.950 . S
C492 C490 1.391 . S
C492 C493 1.400 . S
C493 C487 1.491 . S
C493 C492 1.400 . S
C493 C494 1.398 . S
C494 H482 0.950 . S
C494 C493 1.398 . S
C494 C495 1.391 . S
C495 H483 0.950 . S
C495 C491 1.393 . S
C495 C494 1.391 . S
H496 C504 0.950 . S
H497 C509 0.950 . S
H498 C506 0.950 . S
H499 C508 0.950 . S
H500 C510 0.950 . S
H501 C512 0.950 . S
H502 C514 0.950 . S
H503 C515 0.950 . S
C504 H496 0.950 . S
C504 C505 1.386 . S
C504 C506 1.391 . S
C505 C504 1.386 . S
C505 C509 1.393 . S
C506 H498 0.950 . S
C506 C504 1.391 . S
C506 C507 1.400 . S
C507 C506 1.400 . S
C507 C508 1.398 . S
C507 C513 1.491 . S
C508 H499 0.950 . S
C508 C507 1.398 . S
C508 C509 1.391 . S
C509 H497 0.950 . S
C509 C505 1.393 . S
C509 C508 1.391 . S
C510 H500 0.950 . S
C510 C511 1.386 . S
C510 C512 1.391 . S
C511 C510 1.386 . S
C511 C515 1.393 . S
C512 H501 0.950 . S
C512 C510 1.391 . S
C512 C513 1.400 . S
C513 C507 1.491 . S
C513 C512 1.400 . S
C513 C514 1.398 . S
C514 H502 0.950 . S
C514 C513 1.398 . S
C514 C515 1.391 . S
C515 H503 0.950 . S
C515 C511 1.393 . S
C515 C514 1.391 . S
H516 C524 0.950 . S
H517 C529 0.950 . S
H518 C526 0.950 . S
H519 C528 0.950 . S
H520 C530 0.950 . S
H521 C532 0.950 . S
H522 C534 0.950 . S
H523 C535 0.950 . S
C524 H516 0.950 . S
C524 C525 1.386 . S
C524 C526 1.391 . S
C525 C524 1.386 . S
C525 C529 1.393 . S
C526 H518 0.950 . S
C526 C524 1.391 . S
C526 C527 1.400 . S
C527 C526 1.400 . S
C527 C528 1.398 . S
C527 C533 1.491 . S
C528 H519 0.950 . S
C528 C527 1.398 . S
C528 C529 1.391 . S
C529 H517 0.950 . S
C529 C525 1.393 . S
C529 C528 1.391 . S
C530 H520 0.950 . S
C530 C531 1.386 . S
C530 C532 1.391 . S
C531 C530 1.386 . S
C531 C535 1.393 . S
C532 H521 0.950 . S
C532 C530 1.391 . S
C532 C533 1.400 . S
C533 C527 1.491 . S
C533 C532 1.400 . S
C533 C534 1.398 . S
C534 H522 0.950 . S
C534 C533 1.398 . S
C534 C535 1.391 . S
C535 H523 0.950 . S
C535 C531 1.393 . S
C535 C534 1.391 . S
H536 C544 0.950 . S
H537 C549 0.950 . S
H538 C546 0.950 . S
H539 C548 0.950 . S
H540 C550 0.950 . S
H541 C552 0.950 . S
H542 C554 0.950 . S
H543 C555 0.950 . S
C544 H536 0.950 . S
C544 C545 1.386 . S
C544 C546 1.391 . S
C545 C544 1.386 . S
C545 C549 1.393 . S
C546 H538 0.950 . S
C546 C544 1.391 . S
C546 C547 1.400 . S
C547 C546 1.400 . S
C547 C548 1.398 . S
C547 C553 1.491 . S
C548 H539 0.950 . S
C548 C547 1.398 . S
C548 C549 1.391 . S
C549 H537 0.950 . S
C549 C545 1.393 . S
C549 C548 1.391 . S
C550 H540 0.950 . S
C550 C551 1.386 . S
C550 C552 1.391 . S
C551 C550 1.386 . S
C551 C555 1.393 . S
C552 H541 0.950 . S
C552 C550 1.391 . S
C552 C553 1.400 . S
C553 C547 1.491 . S
C553 C552 1.400 . S
C553 C554 1.398 . S
C554 H542 0.950 . S
C554 C553 1.398 . S
C554 C555 1.391 . S
C555 H543 0.950 . S
C555 C551 1.393 . S
C555 C554 1.391 . S
H556 C564 0.950 . S
H557 C569 0.950 . S
H558 C566 0.950 . S
H559 C568 0.950 . S
H560 C570 0.950 . S
H561 C572 0.950 . S
H562 C574 0.950 . S
H563 C575 0.950 . S
C564 H556 0.950 . S
C564 C565 1.386 . S
C564 C566 1.391 . S
C565 C564 1.386 . S
C565 C569 1.393 . S
C566 H558 0.950 . S
C566 C564 1.391 . S
C566 C567 1.400 . S
C567 C566 1.400 . S
C567 C568 1.398 . S
C567 C573 1.491 . S
C568 H559 0.950 . S
C568 C567 1.398 . S
C568 C569 1.391 . S
C569 H557 0.950 . S
C569 C565 1.393 . S
C569 C568 1.391 . S
C570 H560 0.950 . S
C570 C571 1.386 . S
C570 C572 1.391 . S
C571 C570 1.386 . S
C571 C575 1.393 . S
C572 H561 0.950 . S
C572 C570 1.391 . S
C572 C573 1.400 . S
C573 C567 1.491 . S
C573 C572 1.400 . S
C573 C574 1.398 . S
C574 H562 0.950 . S
C574 C573 1.398 . S
C574 C575 1.391 . S
C575 H563 0.950 . S
C575 C571 1.393 . S
C575 C574 1.391 . S
H576 C584 0.950 . S
H577 C589 0.950 . S
H578 C586 0.950 . S
H579 C588 0.950 . S
H580 C590 0.950 . S
H581 C592 0.950 . S
H582 C594 0.950 . S
H583 C595 0.950 . S
C584 H576 0.950 . S
C584 C585 1.386 . S
C584 C586 1.391 . S
C585 C584 1.386 . S
C585 C589 1.393 . S
C586 H578 0.950 . S
C586 C584 1.391 . S
C586 C587 1.400 . S
C587 C586 1.400 . S
C587 C588 1.398 . S
C587 C593 1.491 . S
C588 H579 0.950 . S
C588 C587 1.398 . S
C588 C589 1.391 . S
C589 H577 0.950 . S
C589 C585 1.393 . S
C589 C588 1.391 . S
C590 H580 0.950 . S
C590 C591 1.386 . S
C590 C592 1.391 . S
C591 C590 1.386 . S
C591 C595 1.393 . S
C592 H581 0.950 . S
C592 C590 1.391 . S
C592 C593 1.400 . S
C593 C587 1.491 . S
C593 C592 1.400 . S
C593 C594 1.398 . S
C594 H582 0.950 . S
C594 C593 1.398 . S
C594 C595 1.391 . S
C595 H583 0.950 . S
C595 C591 1.393 . S
C595 C594 1.391 . S
H596 C604 0.950 . S
H597 C609 0.950 . S
H598 C606 0.950 . S
H599 C608 0.950 . S
H600 C610 0.950 . S
H601 C612 0.950 . S
H602 C614 0.950 . S
H603 C615 0.950 . S
C604 H596 0.950 . S
C604 C605 1.386 . S
C604 C606 1.391 . S
C605 C604 1.386 . S
C605 C609 1.393 . S
C606 H598 0.950 . S
C606 C604 1.391 . S
C606 C607 1.400 . S
C607 C606 1.400 . S
C607 C608 1.398 . S
C607 C613 1.491 . S
C608 H599 0.950 . S
C608 C607 1.398 . S
C608 C609 1.391 . S
C609 H597 0.950 . S
C609 C605 1.393 . S
C609 C608 1.391 . S
C610 H600 0.950 . S
C610 C611 1.386 . S
C610 C612 1.391 . S
C611 C610 1.386 . S
C611 C615 1.393 . S
C612 H601 0.950 . S
C612 C610 1.391 . S
C612 C613 1.400 . S
C613 C607 1.491 . S
C613 C612 1.400 . S
C613 C614 1.398 . S
C614 H602 0.950 . S
C614 C613 1.398 . S
C614 C615 1.391 . S
C615 H603 0.950 . S
C615 C611 1.393 . S
C615 C614 1.391 . S
H616 C624 0.950 . S
H617 C629 0.950 . S
H618 C626 0.950 . S
H619 C628 0.950 . S
H620 C630 0.950 . S
H621 C632 0.950 . S
H622 C634 0.950 . S
H623 C635 0.950 . S
C624 H616 0.950 . S
C624 C625 1.386 . S
C624 C626 1.391 . S
C625 C624 1.386 . S
C625 C629 1.393 1_545 S
C626 H618 0.950 . S
C626 C624 1.391 . S
C626 C627 1.400 . S
C627 C626 1.400 . S
C627 C628 1.398 . S
C627 C633 1.491 . S
C628 H619 0.950 . S
C628 C627 1.398 . S
C628 C629 1.391 1_545 S
C629 H617 0.950 . S
C629 C625 1.393 1_565 S
C629 C628 1.391 1_565 S
C630 H620 0.950 . S
C630 C631 1.386 . S
C630 C632 1.391 . S
C631 C630 1.386 . S
C631 C635 1.393 . S
C632 H621 0.950 . S
C632 C630 1.391 . S
C632 C633 1.400 . S
C633 C627 1.491 . S
C633 C632 1.400 . S
C633 C634 1.398 . S
C634 H622 0.950 . S
C634 C633 1.398 . S
C634 C635 1.391 . S
C635 H623 0.950 . S
C635 C631 1.393 . S
C635 C634 1.391 . S
H636 C644 0.950 . S
H637 C649 0.950 . S
H638 C646 0.950 . S
H639 C648 0.950 . S
H640 C650 0.950 . S
H641 C652 0.950 . S
H642 C654 0.950 . S
H643 C655 0.950 . S
C644 H636 0.950 . S
C644 C645 1.386 1_545 S
C644 C646 1.391 1_545 S
C645 C644 1.386 1_565 S
C645 C649 1.393 . S
C646 H638 0.950 . S
C646 C644 1.391 1_565 S
C646 C647 1.400 . S
C647 C646 1.400 . S
C647 C648 1.398 . S
C647 C653 1.491 . S
C648 H639 0.950 . S
C648 C647 1.398 . S
C648 C649 1.391 . S
C649 H637 0.950 . S
C649 C645 1.393 . S
C649 C648 1.391 . S
C650 H640 0.950 . S
C650 C651 1.386 . S
C650 C652 1.391 . S
C651 C650 1.386 . S
C651 C655 1.393 . S
C652 H641 0.950 . S
C652 C650 1.391 . S
C652 C653 1.400 . S
C653 C647 1.491 . S
C653 C652 1.400 . S
C653 C654 1.398 . S
C654 H642 0.950 . S
C654 C653 1.398 . S
C654 C655 1.391 . S
C655 H643 0.950 . S
C655 C651 1.393 . S
C655 C654 1.391 . S
H656 C664 0.950 . S
H657 C669 0.950 1_565 S
H658 C666 0.950 . S
H659 C668 0.950 . S
H660 C670 0.950 . S
H661 C672 0.950 . S
H662 C674 0.950 . S
H663 C675 0.950 . S
C664 H656 0.950 . S
C664 C665 1.386 . S
C664 C666 1.391 . S
C665 C664 1.386 . S
C665 C669 1.393 . S
C666 H658 0.950 . S
C666 C664 1.391 . S
C666 C667 1.400 . S
C667 C666 1.400 . S
C667 C668 1.398 . S
C667 C673 1.491 . S
C668 H659 0.950 . S
C668 C667 1.398 . S
C668 C669 1.391 . S
C669 H657 0.950 1_545 S
C669 C665 1.393 . S
C669 C668 1.391 . S
C670 H660 0.950 . S
C670 C671 1.386 . S
C670 C672 1.391 . S
C671 C670 1.386 . S
C671 C675 1.393 . S
C672 H661 0.950 . S
C672 C670 1.391 . S
C672 C673 1.400 . S
C673 C667 1.491 . S
C673 C672 1.400 . S
C673 C674 1.398 . S
C674 H662 0.950 . S
C674 C673 1.398 . S
C674 C675 1.391 . S
C675 H663 0.950 . S
C675 C671 1.393 . S
C675 C674 1.391 . S
H676 C684 0.950 1_545 S
H677 C689 0.950 . S
H678 C686 0.950 . S
H679 C688 0.950 . S
H680 C690 0.950 . S
H681 C692 0.950 . S
H682 C694 0.950 . S
H683 C695 0.950 . S
C684 H676 0.950 1_565 S
C684 C685 1.386 . S
C684 C686 1.391 . S
C685 C684 1.386 . S
C685 C689 1.393 . S
C686 H678 0.950 . S
C686 C684 1.391 . S
C686 C687 1.400 . S
C687 C686 1.400 . S
C687 C688 1.398 . S
C687 C693 1.491 . S
C688 H679 0.950 . S
C688 C687 1.398 . S
C688 C689 1.391 . S
C689 H677 0.950 . S
C689 C685 1.393 . S
C689 C688 1.391 . S
C690 H680 0.950 . S
C690 C691 1.386 . S
C690 C692 1.391 . S
C691 C690 1.386 . S
C691 C695 1.393 . S
C692 H681 0.950 . S
C692 C690 1.391 . S
C692 C693 1.400 . S
C693 C687 1.491 . S
C693 C692 1.400 . S
C693 C694 1.398 . S
C694 H682 0.950 . S
C694 C693 1.398 . S
C694 C695 1.391 . S
C695 H683 0.950 . S
C695 C691 1.393 . S
C695 C694 1.391 . S
H696 C704 0.950 . S
H697 C709 0.950 . S
H698 C706 0.950 . S
H699 C708 0.950 . S
H700 C710 0.950 . S
H701 C712 0.950 . S
H702 C714 0.950 . S
H703 C715 0.950 . S
C704 H696 0.950 . S
C704 C705 1.386 . S
C704 C706 1.391 . S
C705 C704 1.386 . S
C705 C709 1.393 . S
C706 H698 0.950 . S
C706 C704 1.391 . S
C706 C707 1.400 . S
C707 C706 1.400 . S
C707 C708 1.398 . S
C707 C713 1.491 . S
C708 H699 0.950 . S
C708 C707 1.398 . S
C708 C709 1.391 . S
C709 H697 0.950 . S
C709 C705 1.393 . S
C709 C708 1.391 . S
C710 H700 0.950 . S
C710 C711 1.386 . S
C710 C712 1.391 . S
C711 C710 1.386 . S
C711 C715 1.393 . S
C712 H701 0.950 . S
C712 C710 1.391 . S
C712 C713 1.400 . S
C713 C707 1.491 . S
C713 C712 1.400 . S
C713 C714 1.398 . S
C714 H702 0.950 . S
C714 C713 1.398 . S
C714 C715 1.391 . S
C715 H703 0.950 . S
C715 C711 1.393 . S
C715 C714 1.391 . S
H716 C724 0.950 . S
H717 C729 0.950 . S
H718 C726 0.950 . S
H719 C728 0.950 . S
H720 C730 0.950 . S
H721 C732 0.950 . S
H722 C734 0.950 . S
H723 C735 0.950 . S
C724 H716 0.950 . S
C724 C725 1.386 . S
C724 C726 1.391 . S
C725 C724 1.386 . S
C725 C729 1.393 . S
C726 H718 0.950 . S
C726 C724 1.391 . S
C726 C727 1.400 . S
C727 C726 1.400 . S
C727 C728 1.398 . S
C727 C733 1.491 . S
C728 H719 0.950 . S
C728 C727 1.398 . S
C728 C729 1.391 . S
C729 H717 0.950 . S
C729 C725 1.393 . S
C729 C728 1.391 . S
C730 H720 0.950 . S
C730 C731 1.386 . S
C730 C732 1.391 . S
C731 C730 1.386 . S
C731 C735 1.393 . S
C732 H721 0.950 . S
C732 C730 1.391 . S
C732 C733 1.400 . S
C733 C727 1.491 . S
C733 C732 1.400 . S
C733 C734 1.398 . S
C734 H722 0.950 . S
C734 C733 1.398 . S
C734 C735 1.391 . S
C735 H723 0.950 . S
C735 C731 1.393 . S
C735 C734 1.391 . S
H736 C744 0.950 . S
H737 C749 0.950 . S
H738 C746 0.950 . S
H739 C748 0.950 . S
H740 C750 0.950 . S
H741 C752 0.950 . S
H742 C754 0.950 . S
H743 C755 0.950 . S
C744 H736 0.950 . S
C744 C745 1.386 . S
C744 C746 1.391 . S
C745 C744 1.386 . S
C745 C749 1.393 . S
C746 H738 0.950 . S
C746 C744 1.391 . S
C746 C747 1.400 . S
C747 C746 1.400 . S
C747 C748 1.398 . S
C747 C753 1.491 . S
C748 H739 0.950 . S
C748 C747 1.398 . S
C748 C749 1.391 . S
C749 H737 0.950 . S
C749 C745 1.393 . S
C749 C748 1.391 . S
C750 H740 0.950 . S
C750 C751 1.386 . S
C750 C752 1.391 . S
C751 C750 1.386 . S
C751 C755 1.393 . S
C752 H741 0.950 . S
C752 C750 1.391 . S
C752 C753 1.400 . S
C753 C747 1.491 . S
C753 C752 1.400 . S
C753 C754 1.398 . S
C754 H742 0.950 . S
C754 C753 1.398 . S
C754 C755 1.391 . S
C755 H743 0.950 . S
C755 C751 1.393 . S
C755 C754 1.391 . S
H756 C764 0.950 . S
H757 C769 0.950 . S
H758 C766 0.950 . S
H759 C768 0.950 . S
H760 C770 0.950 . S
H761 C772 0.950 . S
H762 C774 0.950 . S
H763 C775 0.950 . S
C764 H756 0.950 . S
C764 C765 1.386 . S
C764 C766 1.391 . S
C765 C764 1.386 . S
C765 C769 1.393 . S
C766 H758 0.950 . S
C766 C764 1.391 . S
C766 C767 1.400 . S
C767 C766 1.400 . S
C767 C768 1.398 . S
C767 C773 1.491 . S
C768 H759 0.950 . S
C768 C767 1.398 . S
C768 C769 1.391 . S
C769 H757 0.950 . S
C769 C765 1.393 . S
C769 C768 1.391 . S
C770 H760 0.950 . S
C770 C771 1.386 . S
C770 C772 1.391 . S
C771 C770 1.386 . S
C771 C775 1.393 . S
C772 H761 0.950 . S
C772 C770 1.391 . S
C772 C773 1.400 . S
C773 C767 1.491 . S
C773 C772 1.400 . S
C773 C774 1.398 . S
C774 H762 0.950 . S
C774 C773 1.398 . S
C774 C775 1.391 . S
C775 H763 0.950 . S
C775 C771 1.393 . S
C775 C774 1.391 . S
H776 C784 0.950 . S
H777 C789 0.950 . S
H778 C786 0.950 . S
H779 C788 0.950 . S
H780 C790 0.950 . S
H781 C792 0.950 . S
H782 C794 0.950 . S
H783 C795 0.950 . S
C784 H776 0.950 . S
C784 C785 1.386 . S
C784 C786 1.391 . S
C785 C784 1.386 . S
C785 C789 1.393 . S
C786 H778 0.950 . S
C786 C784 1.391 . S
C786 C787 1.400 . S
C787 C786 1.400 . S
C787 C788 1.398 . S
C787 C793 1.491 . S
C788 H779 0.950 . S
C788 C787 1.398 . S
C788 C789 1.391 . S
C789 H777 0.950 . S
C789 C785 1.393 . S
C789 C788 1.391 . S
C790 H780 0.950 . S
C790 C791 1.386 . S
C790 C792 1.391 . S
C791 C790 1.386 . S
C791 C795 1.393 . S
C792 H781 0.950 . S
C792 C790 1.391 . S
C792 C793 1.400 . S
C793 C787 1.491 . S
C793 C792 1.400 . S
C793 C794 1.398 . S
C794 H782 0.950 . S
C794 C793 1.398 . S
C794 C795 1.391 . S
C795 H783 0.950 . S
C795 C791 1.393 . S
C795 C794 1.391 . S
H796 C804 0.950 . S
H797 C809 0.950 . S
H798 C806 0.950 . S
H799 C808 0.950 . S
H800 C810 0.950 . S
H801 C812 0.950 . S
H802 C814 0.950 . S
H803 C815 0.950 . S
C804 H796 0.950 . S
C804 C805 1.386 . S
C804 C806 1.391 . S
C805 C804 1.386 . S
C805 C809 1.393 . S
C806 H798 0.950 . S
C806 C804 1.391 . S
C806 C807 1.400 . S
C807 C806 1.400 . S
C807 C808 1.398 . S
C807 C813 1.491 . S
C808 H799 0.950 . S
C808 C807 1.398 . S
C808 C809 1.391 . S
C809 H797 0.950 . S
C809 C805 1.393 . S
C809 C808 1.391 . S
C810 H800 0.950 . S
C810 C811 1.386 . S
C810 C812 1.391 . S
C811 C810 1.386 . S
C811 C815 1.393 . S
C812 H801 0.950 . S
C812 C810 1.391 . S
C812 C813 1.400 . S
C813 C807 1.491 . S
C813 C812 1.400 . S
C813 C814 1.398 . S
C814 H802 0.950 . S
C814 C813 1.398 . S
C814 C815 1.391 . S
C815 H803 0.950 . S
C815 C811 1.393 . S
C815 C814 1.391 . S
H816 C824 0.950 . S
H817 C829 0.950 . S
H818 C826 0.950 . S
H819 C828 0.950 . S
H820 C830 0.950 . S
H821 C832 0.950 . S
H822 C834 0.950 . S
H823 C835 0.950 . S
C824 H816 0.950 . S
C824 C825 1.386 . S
C824 C826 1.391 . S
C825 C824 1.386 . S
C825 C829 1.393 . S
C826 H818 0.950 . S
C826 C824 1.391 . S
C826 C827 1.400 . S
C827 C826 1.400 . S
C827 C828 1.398 . S
C827 C833 1.491 . S
C828 H819 0.950 . S
C828 C827 1.398 . S
C828 C829 1.391 . S
C829 H817 0.950 . S
C829 C825 1.393 . S
C829 C828 1.391 . S
C830 H820 0.950 . S
C830 C831 1.386 . S
C830 C832 1.391 . S
C831 C830 1.386 . S
C831 C835 1.393 . S
C832 H821 0.950 . S
C832 C830 1.391 . S
C832 C833 1.400 . S
C833 C827 1.491 . S
C833 C832 1.400 . S
C833 C834 1.398 . S
C834 H822 0.950 . S
C834 C833 1.398 . S
C834 C835 1.391 . S
C835 H823 0.950 . S
C835 C831 1.393 . S
C835 C834 1.391 . S
H836 C844 0.950 . S
H837 C849 0.950 . S
H838 C846 0.950 . S
H839 C848 0.950 . S
H840 C850 0.950 . S
H841 C852 0.950 . S
H842 C854 0.950 . S
H843 C855 0.950 . S
C844 H836 0.950 . S
C844 C845 1.386 . S
C844 C846 1.391 . S
C845 C844 1.386 . S
C845 C849 1.393 . S
C846 H838 0.950 . S
C846 C844 1.391 . S
C846 C847 1.400 . S
C847 C846 1.400 . S
C847 C848 1.398 . S
C847 C853 1.491 . S
C848 H839 0.950 . S
C848 C847 1.398 . S
C848 C849 1.391 . S
C849 H837 0.950 . S
C849 C845 1.393 . S
C849 C848 1.391 . S
C850 H840 0.950 . S
C850 C851 1.386 . S
C850 C852 1.391 . S
C851 C850 1.386 . S
C851 C855 1.393 . S
C852 H841 0.950 . S
C852 C850 1.391 . S
C852 C853 1.400 . S
C853 C847 1.491 . S
C853 C852 1.400 . S
C853 C854 1.398 . S
C854 H842 0.950 . S
C854 C853 1.398 . S
C854 C855 1.391 . S
C855 H843 0.950 . S
C855 C851 1.393 . S
C855 C854 1.391 . S
C385 C25 1.524 . S
C391 C331 1.531 . S
C411 C295 1.542 . S
C405 C61 1.537 . S
C431 C318 1.529 . S
C425 C97 1.539 . S
C451 C306 1.525 . S
C445 C133 1.536 . S
C471 C375 1.537 . S
C465 C169 1.531 . S
C491 C339 1.544 . S
C485 C205 1.539 . S
C505 C241 1.536 . S
C511 C362 1.525 . S
C531 C350 1.528 . S
C525 C277 1.538 . S
C545 C31 1.480 . S
C551 C372 1.530 . S
C571 C342 1.531 . S
C565 C67 1.482 . S
C585 C103 1.552 . S
C591 C361 1.553 . S
C605 C139 1.541 . S
C611 C347 1.558 . S
C631 C328 1.529 . S
C625 C175 1.482 1_545 S
C645 C211 1.499 1_565 S
C651 C298 1.529 . S
C671 C317 1.553 . S
C665 C247 1.551 1_545 S
C691 C303 1.556 . S
C685 C283 1.545 1_565 S
C711 C353 1.522 . S
C705 C1 1.518 . S
C731 C369 1.525 . S
C725 C37 1.519 . S
C745 C73 1.490 . S
C751 C340 1.501 . S
C771 C364 1.500 . S
C765 C109 1.492 . S
C791 C309 1.526 . S
C785 C145 1.518 . S
C805 C181 1.513 . S
C811 C325 1.530 . S
C825 C217 1.492 . S
C831 C296 1.504 . S
C845 C253 1.498 . S
C851 C320 1.499 . S
