# Generated by pormake.
# Topology eea, (3,6)-cn, num edge types: 1
# Building blocks:
#     Node 0, Type 0, BuildingBlock: VETTIZ_charged_linker_0, # of connection points: 3
#     Node 1, Type 0, BuildingBlock: VETTIZ_charged_linker_0, # of connection points: 3
#     Node 2, Type 0, BuildingBlock: VETTIZ_charged_linker_0, # of connection points: 3
#     Node 3, Type 0, BuildingBlock: VETTIZ_charged_linker_0, # of connection points: 3
#     Node 4, Type 0, BuildingBlock: VETTIZ_charged_linker_0, # of connection points: 3
#     Node 5, Type 0, BuildingBlock: VETTIZ_charged_linker_0, # of connection points: 3
#     Node 6, Type 0, BuildingBlock: VETTIZ_charged_linker_0, # of connection points: 3
#     Node 7, Type 0, BuildingBlock: VETTIZ_charged_linker_0, # of connection points: 3
#     Node 8, Type 0, BuildingBlock: VETTIZ_charged_linker_0, # of connection points: 3
#     Node 9, Type 0, BuildingBlock: VETTIZ_charged_linker_0, # of connection points: 3
#     Node 10, Type 0, BuildingBlock: VETTIZ_charged_linker_0, # of connection points: 3
#     Node 11, Type 0, BuildingBlock: VETTIZ_charged_linker_0, # of connection points: 3
#     Node 12, Type 0, BuildingBlock: VETTIZ_charged_linker_0, # of connection points: 3
#     Node 13, Type 0, BuildingBlock: VETTIZ_charged_linker_0, # of connection points: 3
#     Node 14, Type 0, BuildingBlock: VETTIZ_charged_linker_0, # of connection points: 3
#     Node 15, Type 0, BuildingBlock: VETTIZ_charged_linker_0, # of connection points: 3
#     Node 16, Type 0, BuildingBlock: VETTIZ_charged_linker_0, # of connection points: 3
#     Node 17, Type 0, BuildingBlock: VETTIZ_charged_linker_0, # of connection points: 3
#     Node 18, Type 1, BuildingBlock: KUMBOL_clean_sbu_0, # of connection points: 6
#     Node 19, Type 1, BuildingBlock: KUMBOL_clean_sbu_0, # of connection points: 6
#     Node 20, Type 1, BuildingBlock: KUMBOL_clean_sbu_0, # of connection points: 6
#     Node 21, Type 1, BuildingBlock: KUMBOL_clean_sbu_0, # of connection points: 6
#     Node 22, Type 1, BuildingBlock: KUMBOL_clean_sbu_0, # of connection points: 6
#     Node 23, Type 1, BuildingBlock: KUMBOL_clean_sbu_0, # of connection points: 6
#     Node 24, Type 1, BuildingBlock: KUMBOL_clean_sbu_0, # of connection points: 6
#     Node 25, Type 1, BuildingBlock: KUMBOL_clean_sbu_0, # of connection points: 6
#     Node 26, Type 1, BuildingBlock: KUMBOL_clean_sbu_0, # of connection points: 6
#     Edge 27, Type (0, 1), BuildingBlock: OJICUG_clean_linker_0, # of connection points: 2
#     Edge 28, Type (0, 1), BuildingBlock: OJICUG_clean_linker_0, # of connection points: 2
#     Edge 29, Type (0, 1), BuildingBlock: OJICUG_clean_linker_0, # of connection points: 2
#     Edge 30, Type (0, 1), BuildingBlock: OJICUG_clean_linker_0, # of connection points: 2
#     Edge 31, Type (0, 1), BuildingBlock: OJICUG_clean_linker_0, # of connection points: 2
#     Edge 32, Type (0, 1), BuildingBlock: OJICUG_clean_linker_0, # of connection points: 2
#     Edge 33, Type (0, 1), BuildingBlock: OJICUG_clean_linker_0, # of connection points: 2
#     Edge 34, Type (0, 1), BuildingBlock: OJICUG_clean_linker_0, # of connection points: 2
#     Edge 35, Type (0, 1), BuildingBlock: OJICUG_clean_linker_0, # of connection points: 2
#     Edge 36, Type (0, 1), BuildingBlock: OJICUG_clean_linker_0, # of connection points: 2
#     Edge 37, Type (0, 1), BuildingBlock: OJICUG_clean_linker_0, # of connection points: 2
#     Edge 38, Type (0, 1), BuildingBlock: OJICUG_clean_linker_0, # of connection points: 2
#     Edge 39, Type (0, 1), BuildingBlock: OJICUG_clean_linker_0, # of connection points: 2
#     Edge 40, Type (0, 1), BuildingBlock: OJICUG_clean_linker_0, # of connection points: 2
#     Edge 41, Type (0, 1), BuildingBlock: OJICUG_clean_linker_0, # of connection points: 2
#     Edge 42, Type (0, 1), BuildingBlock: OJICUG_clean_linker_0, # of connection points: 2
#     Edge 43, Type (0, 1), BuildingBlock: OJICUG_clean_linker_0, # of connection points: 2
#     Edge 44, Type (0, 1), BuildingBlock: OJICUG_clean_linker_0, # of connection points: 2
#     Edge 45, Type (0, 1), BuildingBlock: OJICUG_clean_linker_0, # of connection points: 2
#     Edge 46, Type (0, 1), BuildingBlock: OJICUG_clean_linker_0, # of connection points: 2
#     Edge 47, Type (0, 1), BuildingBlock: OJICUG_clean_linker_0, # of connection points: 2
#     Edge 48, Type (0, 1), BuildingBlock: OJICUG_clean_linker_0, # of connection points: 2
#     Edge 49, Type (0, 1), BuildingBlock: OJICUG_clean_linker_0, # of connection points: 2
#     Edge 50, Type (0, 1), BuildingBlock: OJICUG_clean_linker_0, # of connection points: 2
#     Edge 51, Type (0, 1), BuildingBlock: OJICUG_clean_linker_0, # of connection points: 2
#     Edge 52, Type (0, 1), BuildingBlock: OJICUG_clean_linker_0, # of connection points: 2
#     Edge 53, Type (0, 1), BuildingBlock: OJICUG_clean_linker_0, # of connection points: 2
#     Edge 54, Type (0, 1), BuildingBlock: OJICUG_clean_linker_0, # of connection points: 2
#     Edge 55, Type (0, 1), BuildingBlock: OJICUG_clean_linker_0, # of connection points: 2
#     Edge 56, Type (0, 1), BuildingBlock: OJICUG_clean_linker_0, # of connection points: 2
#     Edge 57, Type (0, 1), BuildingBlock: OJICUG_clean_linker_0, # of connection points: 2
#     Edge 58, Type (0, 1), BuildingBlock: OJICUG_clean_linker_0, # of connection points: 2
#     Edge 59, Type (0, 1), BuildingBlock: OJICUG_clean_linker_0, # of connection points: 2
#     Edge 60, Type (0, 1), BuildingBlock: OJICUG_clean_linker_0, # of connection points: 2
#     Edge 61, Type (0, 1), BuildingBlock: OJICUG_clean_linker_0, # of connection points: 2
#     Edge 62, Type (0, 1), BuildingBlock: OJICUG_clean_linker_0, # of connection points: 2
#     Edge 63, Type (0, 1), BuildingBlock: OJICUG_clean_linker_0, # of connection points: 2
#     Edge 64, Type (0, 1), BuildingBlock: OJICUG_clean_linker_0, # of connection points: 2
#     Edge 65, Type (0, 1), BuildingBlock: OJICUG_clean_linker_0, # of connection points: 2
#     Edge 66, Type (0, 1), BuildingBlock: OJICUG_clean_linker_0, # of connection points: 2
#     Edge 67, Type (0, 1), BuildingBlock: OJICUG_clean_linker_0, # of connection points: 2
#     Edge 68, Type (0, 1), BuildingBlock: OJICUG_clean_linker_0, # of connection points: 2
#     Edge 69, Type (0, 1), BuildingBlock: OJICUG_clean_linker_0, # of connection points: 2
#     Edge 70, Type (0, 1), BuildingBlock: OJICUG_clean_linker_0, # of connection points: 2
#     Edge 71, Type (0, 1), BuildingBlock: OJICUG_clean_linker_0, # of connection points: 2
#     Edge 72, Type (0, 1), BuildingBlock: OJICUG_clean_linker_0, # of connection points: 2
#     Edge 73, Type (0, 1), BuildingBlock: OJICUG_clean_linker_0, # of connection points: 2
#     Edge 74, Type (0, 1), BuildingBlock: OJICUG_clean_linker_0, # of connection points: 2
#     Edge 75, Type (0, 1), BuildingBlock: OJICUG_clean_linker_0, # of connection points: 2
#     Edge 76, Type (0, 1), BuildingBlock: OJICUG_clean_linker_0, # of connection points: 2
#     Edge 77, Type (0, 1), BuildingBlock: OJICUG_clean_linker_0, # of connection points: 2
#     Edge 78, Type (0, 1), BuildingBlock: OJICUG_clean_linker_0, # of connection points: 2
#     Edge 79, Type (0, 1), BuildingBlock: OJICUG_clean_linker_0, # of connection points: 2
#     Edge 80, Type (0, 1), BuildingBlock: OJICUG_clean_linker_0, # of connection points: 2
# Relax obj value: 0.008
# Max RMSD: 0.090
# Mean RMSD: 0.072
data_MOF--net-eea--node1-KUMBOL_clean_sbu_0--node2-VETTIZ_charged_linker_0--edge1-OJICUG_clean_linker_0
_symmetry_space_group_name_H-M    P1
_symmetry_Int_Tables_number       1
_symmetry_cell_setting            triclinic
loop_
_symmetry_equiv_pos_as_xyz
'x, y, z'
_cell_length_a     47.534572
_cell_length_b     49.338733
_cell_length_c     71.31442
_cell_angle_alpha  89.939557
_cell_angle_beta   89.791202
_cell_angle_gamma 119.90747
loop_
_atom_site_label
_atom_site_type_symbol
_atom_site_fract_x
_atom_site_fract_y
_atom_site_fract_z
_atom_type_partial_charge
C0 C 0.22615 0.18128 0.38658 0.0
C1 C 0.23117 0.20945 0.3945 0.0
C2 C 0.24821 0.21943 0.41161 0.0
C3 C 0.25322 0.17295 0.41292 0.0
C4 C 0.2376 0.16372 0.39587 0.0
C5 C 0.23475 0.13365 0.38908 0.0
H6 H 0.25736 0.01084 0.40422 0.0
C7 C 0.26096 0.14882 0.41915 0.0
C8 C 0.2505 0.12594 0.4051 0.0
H9 H 0.2135 0.0286 0.35614 0.0
H10 H 0.22465 0.07779 0.36945 0.0
H11 H 0.31768 0.08349 0.40998 0.0
H12 H 0.22189 0.02848 0.43343 0.0
H13 H 0.24611 0.0531 0.45145 0.0
H14 H 0.25542 0.02473 0.44162 0.0
H15 H 0.30602 0.05048 0.42517 0.0
H16 H 0.32017 0.08907 0.43445 0.0
C17 C 0.25448 0.14052 0.37059 0.0
C18 C 0.1982 0.10919 0.38725 0.0
C19 C 0.30968 0.15593 0.4837 0.0
C20 C 0.31689 0.13565 0.49379 0.0
C21 C 0.31147 0.10767 0.4853 0.0
C22 C 0.29922 0.10005 0.46704 0.0
C23 C 0.29191 0.12042 0.45716 0.0
C24 C 0.29697 0.14774 0.46554 0.0
C25 C 0.28669 0.16595 0.45313 0.0
C26 C 0.27473 0.14508 0.43594 0.0
C27 C 0.27808 0.11858 0.43835 0.0
C28 C 0.31695 0.19803 0.44868 0.0
C29 C 0.25892 0.16803 0.46322 0.0
C30 C 0.2501 0.02526 0.39651 0.0
C31 C 0.23436 0.01558 0.37907 0.0
C32 C 0.22597 0.03551 0.36945 0.0
C33 C 0.23218 0.06399 0.37732 0.0
C34 C 0.24675 0.07265 0.39508 0.0
C35 C 0.25571 0.05353 0.40428 0.0
C36 C 0.26981 0.06587 0.42332 0.0
C37 C 0.26825 0.09584 0.42392 0.0
C38 C 0.25468 0.09961 0.40736 0.0
C39 C 0.30525 0.07248 0.42343 0.0
C40 C 0.24746 0.04188 0.43833 0.0
H41 H 0.27173 0.21015 0.43384 0.0
H42 H 0.2131 0.17264 0.37354 0.0
H43 H 0.18396 0.1118 0.39882 0.0
H44 H 0.1931 0.08485 0.38839 0.0
H45 H 0.18828 0.11207 0.37379 0.0
H46 H 0.27577 0.16463 0.37054 0.0
H47 H 0.23938 0.13843 0.35823 0.0
H48 H 0.26503 0.12518 0.36862 0.0
H49 H 0.31334 0.17747 0.48993 0.0
H50 H 0.31716 0.09186 0.49273 0.0
H51 H 0.29586 0.07853 0.46135 0.0
H52 H 0.33921 0.19601 0.4478 0.0
H53 H 0.32095 0.21544 0.45972 0.0
H54 H 0.31546 0.20747 0.43489 0.0
H55 H 0.24193 0.1454 0.47013 0.0
H56 H 0.24373 0.17273 0.45362 0.0
H57 H 0.26866 0.18634 0.47423 0.0
H58 H 0.25337 0.24142 0.41785 0.0
C59 C 0.25913 0.20133 0.42086 0.0
C60 C 0.98398 0.18281 0.38796 0.0
C61 C 0.0049 0.21309 0.39468 0.0
C62 C 0.9988 0.22163 0.41247 0.0
C63 C 0.95117 0.17043 0.41639 0.0
C64 C 0.95716 0.16205 0.39894 0.0
C65 C 0.93129 0.12967 0.39344 0.0
H66 H 0.78986 -0.00209 0.41387 0.0
C67 C 0.92098 0.14379 0.42403 0.0
C68 C 0.90916 0.11986 0.41055 0.0
H69 H 0.84694 0.01957 0.36297 0.0
H70 H 0.88687 0.0691 0.37598 0.0
H71 H 0.84861 0.02302 0.44207 0.0
H72 H 0.79675 0.06522 0.41819 0.0
H73 H 0.80329 0.07626 0.44186 0.0
H74 H 0.77973 0.03541 0.43594 0.0
H75 H 0.80927 0.01411 0.45041 0.0
H76 H 0.84599 0.0463 0.45979 0.0
C77 C 0.94742 0.1093 0.39096 0.0
C78 C 0.91421 0.13236 0.37562 0.0
C79 C 0.87713 0.15112 0.48831 0.0
C80 C 0.84916 0.13008 0.49853 0.0
C81 C 0.82877 0.10005 0.49111 0.0
C82 C 0.83542 0.09133 0.47372 0.0
C83 C 0.86279 0.11281 0.46341 0.0
C84 C 0.8834 0.14201 0.4708 0.0
C85 C 0.9113 0.16159 0.45768 0.0
C86 C 0.90384 0.13934 0.44124 0.0
C87 C 0.87527 0.1109 0.44472 0.0
C88 C 0.94319 0.16887 0.46762 0.0
C89 C 0.9093 0.19092 0.45206 0.0
C90 C 0.81078 0.01339 0.40541 0.0
C91 C 0.81503 0.00474 0.38729 0.0
C92 C 0.8431 0.02545 0.37701 0.0
C93 C 0.86619 0.05435 0.38455 0.0
C94 C 0.86124 0.06281 0.40257 0.0
C95 C 0.83395 0.04234 0.41269 0.0
C96 C 0.83242 0.05517 0.43153 0.0
C97 C 0.86311 0.0869 0.431 0.0
C98 C 0.87995 0.0913 0.41403 0.0
C99 C 0.8339 0.03357 0.44685 0.0
C100 C 0.8014 0.05807 0.43212 0.0
H101 H 0.96895 0.20845 0.43675 0.0
H102 H 0.98786 0.17578 0.37425 0.0
H103 H 0.91339 0.15451 0.37563 0.0
H104 H 0.88855 0.11375 0.3747 0.0
H105 H 0.92722 0.13216 0.3627 0.0
H106 H 0.96593 0.11469 0.40201 0.0
H107 H 0.95982 0.11372 0.37713 0.0
H108 H 0.9301 0.08404 0.39241 0.0
H109 H 0.89324 0.17441 0.49356 0.0
H110 H 0.80747 0.08316 0.4988 0.0
H111 H 0.81871 0.06822 0.4689 0.0
H112 H 0.94004 0.14804 0.47548 0.0
H113 H 0.95067 0.18828 0.4778 0.0
H114 H 0.9634 0.17479 0.45776 0.0
H115 H 0.88359 0.18525 0.45089 0.0
H116 H 0.92002 0.20025 0.43814 0.0
H117 H 0.92123 0.20973 0.46266 0.0
H118 H 0.01475 0.2448 0.41796 0.0
C119 C 0.97223 0.20047 0.42337 0.0
C120 C 0.97631 0.7878 0.38455 0.0
C121 C 1.00139 0.78372 0.39188 0.0
C122 C 0.99851 0.77239 0.41033 0.0
C123 C 0.94585 0.76878 0.41384 0.0
C124 C 0.94894 0.78042 0.3958 0.0
C125 C 0.92039 0.78418 0.39049 0.0
H126 H 0.77103 0.76251 0.41197 0.0
C127 C 0.91437 0.76309 0.42175 0.0
C128 C 0.89939 0.77224 0.40807 0.0
H129 H 0.82745 0.80487 0.36189 0.0
H130 H 0.87124 0.79813 0.37402 0.0
H131 H 0.78873 0.70749 0.41627 0.0
H132 H 0.82838 0.79944 0.43977 0.0
H133 H 0.83094 0.7761 0.45748 0.0
H134 H 0.79164 0.76691 0.44858 0.0
H135 H 0.76793 0.71747 0.43358 0.0
H136 H 0.79596 0.70457 0.44012 0.0
C137 C 0.90368 0.76315 0.37333 0.0
C138 C 0.93282 0.81937 0.38703 0.0
C139 C 0.87645 0.71357 0.48694 0.0
C140 C 0.8476 0.70429 0.49727 0.0
C141 C 0.82398 0.71037 0.48958 0.0
C142 C 0.82836 0.72447 0.47194 0.0
C143 C 0.85673 0.73279 0.46158 0.0
C144 C 0.88041 0.72764 0.46913 0.0
C145 C 0.90895 0.73819 0.45589 0.0
C146 C 0.89831 0.75029 0.43921 0.0
C147 C 0.86761 0.74692 0.44268 0.0
C148 C 0.91191 0.70927 0.45067 0.0
C149 C 0.93937 0.76467 0.46553 0.0
C150 C 0.79272 0.77009 0.40354 0.0
C151 C 0.79565 0.7839 0.38586 0.0
C152 C 0.82462 0.79415 0.37555 0.0
C153 C 0.84996 0.79014 0.38261 0.0
C154 C 0.84654 0.77606 0.40032 0.0
C155 C 0.81837 0.76671 0.41052 0.0
C156 C 0.81928 0.75352 0.42938 0.0
C157 C 0.85246 0.75605 0.42882 0.0
C158 C 0.8683 0.76894 0.41169 0.0
C159 C 0.79148 0.71902 0.43009 0.0
C160 C 0.81723 0.77479 0.4447 0.0
H161 H 0.97019 0.75614 0.43521 0.0
H162 H 0.97813 0.79678 0.37046 0.0
H163 H 0.95345 0.83416 0.39647 0.0
H164 H 0.91432 0.82604 0.3902 0.0
H165 H 0.94143 0.82614 0.37236 0.0
H166 H 0.9017 0.73987 0.37517 0.0
H167 H 0.91781 0.77381 0.36029 0.0
H168 H 0.87863 0.75835 0.37126 0.0
H169 H 0.8951 0.70921 0.49234 0.0
H170 H 0.80186 0.70413 0.49726 0.0
H171 H 0.80921 0.72809 0.46699 0.0
H172 H 0.8875 0.68852 0.44841 0.0
H173 H 0.9239 0.7034 0.46204 0.0
H174 H 0.92526 0.71228 0.43745 0.0
H175 H 0.93294 0.77976 0.47399 0.0
H176 H 0.95784 0.78074 0.45542 0.0
H177 H 0.95058 0.75501 0.47511 0.0
H178 H 0.01763 0.76917 0.41622 0.0
C179 C 0.97093 0.76482 0.42131 0.0
C180 C 0.18888 0.20463 0.63731 0.0
C181 C 0.21964 0.21241 0.62996 0.0
C182 C 0.2282 0.22568 0.61189 0.0
C183 C 0.17676 0.22436 0.6089 0.0
C184 C 0.16797 0.21114 0.6266 0.0
C185 C 0.13502 0.20614 0.63233 0.0
H186 H 0.00675 0.22739 0.61294 0.0
C187 C 0.15042 0.2291 0.60154 0.0
C188 C 0.1258 0.21867 0.61523 0.0
H189 H 0.02014 0.18438 0.66229 0.0
H190 H 0.07055 0.19101 0.64937 0.0
H191 H 0.08156 0.28272 0.60775 0.0
H192 H 0.02709 0.19046 0.58405 0.0
H193 H 0.05242 0.21544 0.56628 0.0
H194 H 0.02157 0.22216 0.57641 0.0
H195 H 0.04902 0.27205 0.59144 0.0
H196 H 0.08988 0.28527 0.58354 0.0
C197 C 0.13944 0.22593 0.65004 0.0
C198 C 0.11183 0.17068 0.63515 0.0
C199 C 0.16342 0.27797 0.5368 0.0
C200 C 0.14416 0.28648 0.52607 0.0
C201 C 0.11401 0.2804 0.53357 0.0
C202 C 0.10354 0.26665 0.5514 0.0
C203 C 0.12333 0.25873 0.56202 0.0
C204 C 0.15261 0.26425 0.55457 0.0
C205 C 0.17062 0.25451 0.56776 0.0
C206 C 0.1473 0.24202 0.58434 0.0
C207 C 0.11966 0.24463 0.58098 0.0
C208 C 0.20311 0.28409 0.57297 0.0
C209 C 0.17442 0.22836 0.55812 0.0
C210 C 0.02069 0.21965 0.62104 0.0
C211 C 0.00966 0.20575 0.63879 0.0
C212 C 0.02813 0.19522 0.64863 0.0
C213 C 0.05746 0.19923 0.64112 0.0
C214 C 0.06843 0.21368 0.62347 0.0
C215 C 0.04973 0.22311 0.61364 0.0
C216 C 0.06406 0.23663 0.59473 0.0
C217 C 0.09492 0.23463 0.59494 0.0
C218 C 0.09767 0.22139 0.6119 0.0
C219 C 0.07143 0.27093 0.59414 0.0
C220 C 0.04012 0.21536 0.57947 0.0
H221 H 0.21527 0.24169 0.58774 0.0
H222 H 0.18171 0.19454 0.65121 0.0
H223 H 0.11636 0.15704 0.62434 0.0
H224 H 0.08606 0.16389 0.63355 0.0
H225 H 0.11535 0.1629 0.64914 0.0
H226 H 0.16132 0.2495 0.64861 0.0
H227 H 0.14261 0.21461 0.66271 0.0
H228 H 0.11906 0.23018 0.6525 0.0
H229 H 0.18651 0.28183 0.5315 0.0
H230 H 0.09874 0.28696 0.52584 0.0
H231 H 0.08055 0.26303 0.55632 0.0
H232 H 0.20094 0.30551 0.5724 0.0
H233 H 0.2229 0.28765 0.56318 0.0
H234 H 0.21072 0.28345 0.58752 0.0
H235 H 0.1522 0.21245 0.55009 0.0
H236 H 0.17749 0.21301 0.56818 0.0
H237 H 0.19519 0.23836 0.54814 0.0
H238 H 0.25153 0.23156 0.60585 0.0
C239 C 0.20703 0.23152 0.60135 0.0
C240 C 0.79328 0.81542 0.63265 0.0
C241 C 0.7851 0.78577 0.62563 0.0
C242 C 0.76747 0.77573 0.60871 0.0
C243 C 0.76769 0.82478 0.60594 0.0
C244 C 0.78415 0.83425 0.62274 0.0
C245 C 0.79024 0.8659 0.62868 0.0
H246 H 0.77971 0.99474 0.61042 0.0
C247 C 0.76265 0.85028 0.59901 0.0
C248 C 0.77566 0.87432 0.61237 0.0
H249 H 0.8154 0.9728 0.66063 0.0
H250 H 0.8047 0.92388 0.64713 0.0
H251 H 0.81192 0.97042 0.58129 0.0
H252 H 0.71692 0.92636 0.60643 0.0
H253 H 0.71185 0.91633 0.58256 0.0
H254 H 0.73008 0.95685 0.58917 0.0
H255 H 0.78106 0.97862 0.57356 0.0
H256 H 0.7849 0.94682 0.56384 0.0
C257 C 0.82742 0.88806 0.62995 0.0
C258 C 0.77153 0.86207 0.64729 0.0
C259 C 0.70953 0.84156 0.53567 0.0
C260 C 0.70382 0.8626 0.52528 0.0
C261 C 0.71336 0.89235 0.53277 0.0
C262 C 0.72815 0.90101 0.55035 0.0
C263 C 0.73364 0.87978 0.56061 0.0
C264 C 0.72468 0.85073 0.55319 0.0
C265 C 0.73358 0.83177 0.5659 0.0
C266 C 0.74894 0.85413 0.58222 0.0
C267 C 0.74866 0.88208 0.57904 0.0
C268 C 0.7584 0.82559 0.5554 0.0
C269 C 0.70198 0.80181 0.57181 0.0
C270 C 0.78493 0.9793 0.61862 0.0
C271 C 0.79843 0.98776 0.63666 0.0
C272 C 0.8054 0.96712 0.64663 0.0
C273 C 0.79889 0.93854 0.63883 0.0
C274 C 0.7851 0.93034 0.62088 0.0
C275 C 0.77828 0.95055 0.61112 0.0
C276 C 0.76297 0.93765 0.59243 0.0
C277 C 0.76136 0.90615 0.59268 0.0
C278 C 0.77458 0.90216 0.6093 0.0
C279 C 0.78611 0.95946 0.57688 0.0
C280 C 0.72872 0.93421 0.59244 0.0
H281 H 0.74557 0.78611 0.58605 0.0
H282 H 0.80693 0.82414 0.6455 0.0
H283 H 0.75006 0.83819 0.64865 0.0
H284 H 0.76133 0.87787 0.64813 0.0
H285 H 0.78723 0.86596 0.65965 0.0
H286 H 0.84003 0.88405 0.61801 0.0
H287 H 0.83718 0.88401 0.64313 0.0
H288 H 0.83461 0.91302 0.62909 0.0
H289 H 0.7028 0.81868 0.53016 0.0
H290 H 0.70894 0.90882 0.5251 0.0
H291 H 0.73467 0.92392 0.55527 0.0
H292 H 0.77586 0.8466 0.54726 0.0
H293 H 0.746 0.8059 0.54539 0.0
H294 H 0.77356 0.82064 0.56489 0.0
H295 H 0.68169 0.80672 0.57363 0.0
H296 H 0.70405 0.79249 0.58551 0.0
H297 H 0.69453 0.78324 0.56105 0.0
H298 H 0.76003 0.75273 0.60314 0.0
C299 C 0.75885 0.79507 0.59883 0.0
C300 C 0.02459 0.80826 0.63815 0.0
C301 C 1.00319 0.77791 0.63167 0.0
C302 C 0.00846 0.76891 0.61384 0.0
C303 C 0.05617 0.81977 0.6093 0.0
C304 C 0.05109 0.82865 0.62682 0.0
C305 C 0.07746 0.86112 0.63188 0.0
H306 H 0.21831 0.99189 0.60849 0.0
C307 C 0.08603 0.84604 0.60118 0.0
C308 C 0.09876 0.87035 0.61439 0.0
H309 H 0.16417 0.97227 0.6604 0.0
H310 H 0.12349 0.92224 0.64836 0.0
H311 H 0.21021 0.92331 0.60417 0.0
H312 H 0.15802 0.96622 0.5816 0.0
H313 H 0.15905 0.94214 0.56385 0.0
H314 H 0.19661 0.9744 0.57233 0.0
H315 H 0.22686 0.95351 0.58664 0.0
H316 H 0.20281 0.91287 0.5804 0.0
C317 C 0.0953 0.8587 0.6494 0.0
C318 C 0.06176 0.8818 0.6346 0.0
C319 C 0.12455 0.83616 0.53601 0.0
C320 C 0.15114 0.85686 0.52478 0.0
C321 C 0.17253 0.88707 0.53165 0.0
C322 C 0.16786 0.8964 0.54938 0.0
C323 C 0.14147 0.87537 0.56053 0.0
C324 C 0.12013 0.84594 0.55372 0.0
C325 C 0.09316 0.82698 0.56746 0.0
C326 C 0.10203 0.84983 0.58366 0.0
C327 C 0.13047 0.87802 0.57953 0.0
C328 C 0.09532 0.79769 0.57302 0.0
C329 C 0.06065 0.81968 0.55828 0.0
C330 C 0.1979 0.97671 0.61737 0.0
C331 C 0.19463 0.98612 0.63547 0.0
C332 C 0.16721 0.9658 0.64635 0.0
C333 C 0.14368 0.93663 0.63937 0.0
C334 C 0.14751 0.92748 0.62132 0.0
C335 C 0.17424 0.9475 0.61064 0.0
C336 C 0.17442 0.93404 0.59177 0.0
C337 C 0.14365 0.90244 0.59297 0.0
C338 C 0.12791 0.89867 0.61029 0.0
C339 C 0.20521 0.93085 0.59047 0.0
C340 C 0.17215 0.95525 0.57649 0.0
H341 H 0.03727 0.78129 0.58921 0.0
H342 H 0.02127 0.81561 0.65189 0.0
H343 H 0.04287 0.8764 0.6238 0.0
H344 H 0.07921 0.90699 0.63297 0.0
H345 H 0.04991 0.87769 0.64859 0.0
H346 H 0.09611 0.83655 0.64931 0.0
H347 H 0.08284 0.8591 0.66252 0.0
H348 H 0.12099 0.87733 0.64998 0.0
H349 H 0.10745 0.8129 0.5311 0.0
H350 H 0.19342 0.90337 0.52344 0.0
H351 H 0.18521 0.91959 0.55379 0.0
H352 H 0.121 0.80304 0.57325 0.0
H353 H 0.08203 0.77834 0.56292 0.0
H354 H 0.08614 0.78924 0.58733 0.0
H355 H 0.06363 0.84004 0.54994 0.0
H356 H 0.04143 0.81513 0.56861 0.0
H357 H 0.05181 0.79939 0.54865 0.0
H358 H 0.99211 0.74569 0.60855 0.0
C359 C 0.03466 0.78965 0.60262 0.0
C360 C 0.878 0.5096 0.72525 0.0
C361 C 0.88274 0.5376 0.73322 0.0
C362 C 0.89542 0.54545 0.75154 0.0
C363 C 0.89885 0.49818 0.7534 0.0
C364 C 0.88602 0.4903 0.73557 0.0
C365 C 0.88198 0.45955 0.72922 0.0
H366 H 0.89446 0.33171 0.74768 0.0
C367 C 0.90446 0.47303 0.76028 0.0
C368 C 0.89435 0.45022 0.74621 0.0
H369 H 0.86074 0.35407 0.69684 0.0
H370 H 0.87004 0.40249 0.71044 0.0
H371 H 0.95597 0.40096 0.75283 0.0
H372 H 0.85966 0.35409 0.77634 0.0
H373 H 0.88593 0.37653 0.79441 0.0
H374 H 0.89052 0.34571 0.78386 0.0
H375 H 0.94321 0.37063 0.77015 0.0
H376 H 0.95962 0.41103 0.77664 0.0
C377 C 0.9039 0.46562 0.71176 0.0
C378 C 0.84534 0.43685 0.72585 0.0
C379 C 0.95696 0.48244 0.8238 0.0
C380 C 0.96444 0.46235 0.83388 0.0
C381 C 0.95609 0.43294 0.82629 0.0
C382 C 0.94108 0.42387 0.80878 0.0
C383 C 0.93421 0.44436 0.79871 0.0
C384 C 0.94169 0.47291 0.80635 0.0
C385 C 0.93142 0.49106 0.79389 0.0
C386 C 0.91748 0.46908 0.77729 0.0
C387 C 0.91939 0.4419 0.78019 0.0
C388 C 0.96208 0.52215 0.78839 0.0
C389 C 0.90515 0.49514 0.80439 0.0
C390 C 0.88937 0.34715 0.73938 0.0
C391 C 0.87673 0.33894 0.72116 0.0
C392 C 0.87002 0.35958 0.711 0.0
C393 C 0.87562 0.38781 0.71889 0.0
C394 C 0.88815 0.3956 0.73714 0.0
C395 C 0.89498 0.3755 0.74701 0.0
C396 C 0.90882 0.38791 0.76606 0.0
C397 C 0.90889 0.41869 0.76605 0.0
C398 C 0.89666 0.42297 0.74911 0.0
C399 C 0.94365 0.39278 0.76666 0.0
C400 C 0.8853 0.36492 0.78105 0.0
H401 H 0.91314 0.53327 0.77546 0.0
H402 H 0.86862 0.50294 0.71117 0.0
H403 H 0.83027 0.44074 0.73629 0.0
H404 H 0.83833 0.41203 0.72758 0.0
H405 H 0.838 0.44031 0.71168 0.0
H406 H 0.92648 0.48877 0.71267 0.0
H407 H 0.89121 0.46548 0.69869 0.0
H408 H 0.9125 0.44863 0.71041 0.0
H409 H 0.96263 0.50497 0.82945 0.0
H410 H 0.96178 0.41716 0.83377 0.0
H411 H 0.93561 0.40131 0.80372 0.0
H412 H 0.9825 0.51807 0.78488 0.0
H413 H 0.97003 0.53915 0.80012 0.0
H414 H 0.95864 0.53317 0.77581 0.0
H415 H 0.89096 0.47538 0.81424 0.0
H416 H 0.88678 0.49497 0.79484 0.0
H417 H 0.91622 0.51705 0.81271 0.0
H418 H 0.89879 0.56658 0.7582 0.0
C419 C 0.90354 0.52596 0.76163 0.0
C420 C 0.6484 0.51875 0.71909 0.0
C421 C 0.66931 0.54912 0.7257 0.0
C422 C 0.66326 0.55781 0.74345 0.0
C423 C 0.61598 0.50646 0.74768 0.0
C424 C 0.62176 0.498 0.73019 0.0
C425 C 0.59593 0.46548 0.72486 0.0
H426 H 0.45603 0.33279 0.74641 0.0
C427 C 0.5862 0.47966 0.75557 0.0
C428 C 0.57424 0.45562 0.74218 0.0
H429 H 0.51135 0.35543 0.69478 0.0
H430 H 0.55124 0.40505 0.70761 0.0
H431 H 0.51574 0.35819 0.77373 0.0
H432 H 0.4629 0.40088 0.75179 0.0
H433 H 0.4692 0.40975 0.77581 0.0
H434 H 0.44615 0.36953 0.76859 0.0
H435 H 0.47705 0.34947 0.78312 0.0
H436 H 0.51448 0.38178 0.79173 0.0
C437 C 0.61228 0.44535 0.72217 0.0
C438 C 0.57828 0.46787 0.70723 0.0
C439 C 0.54529 0.48663 0.82076 0.0
C440 C 0.51886 0.46504 0.8318 0.0
C441 C 0.4985 0.43478 0.82467 0.0
C442 C 0.50393 0.42626 0.80686 0.0
C443 C 0.53008 0.44814 0.7959 0.0
C444 C 0.55054 0.47762 0.80297 0.0
C445 C 0.57759 0.49742 0.78943 0.0
C446 C 0.56972 0.47506 0.77303 0.0
C447 C 0.54167 0.44635 0.77689 0.0
C448 C 0.61018 0.50545 0.79878 0.0
C449 C 0.57455 0.52628 0.78403 0.0
C450 C 0.47654 0.34853 0.73777 0.0
C451 C 0.48034 0.34007 0.71949 0.0
C452 C 0.50789 0.36112 0.70895 0.0
C453 C 0.53095 0.39009 0.71639 0.0
C454 C 0.52653 0.39833 0.73457 0.0
C455 C 0.49973 0.3776 0.74496 0.0
C456 C 0.49888 0.39026 0.764 0.0
C457 C 0.52926 0.42226 0.76321 0.0
C458 C 0.54542 0.42685 0.74596 0.0
C459 C 0.50142 0.36885 0.77903 0.0
C460 C 0.46763 0.39264 0.76532 0.0
H461 H 0.6337 0.54476 0.76784 0.0
H462 H 0.65224 0.51161 0.7054 0.0
H463 H 0.57792 0.49025 0.70703 0.0
H464 H 0.55243 0.44956 0.70677 0.0
H465 H 0.59052 0.46688 0.69416 0.0
H466 H 0.63082 0.45069 0.7332 0.0
H467 H 0.62469 0.45006 0.70834 0.0
H468 H 0.59509 0.42003 0.72347 0.0
H469 H 0.56162 0.50996 0.82588 0.0
H470 H 0.47778 0.41779 0.83272 0.0
H471 H 0.48729 0.40298 0.80225 0.0
H472 H 0.6078 0.48502 0.80676 0.0
H473 H 0.61802 0.52518 0.80875 0.0
H474 H 0.62987 0.51124 0.78856 0.0
H475 H 0.54863 0.52006 0.78331 0.0
H476 H 0.58451 0.53558 0.76997 0.0
H477 H 0.58665 0.54526 0.79451 0.0
H478 H 0.67918 0.58106 0.74885 0.0
C479 C 0.63689 0.53667 0.75448 0.0
C480 C 0.64446 0.1224 0.71782 0.0
C481 C 0.66723 0.1145 0.72475 0.0
C482 C 0.6623 0.10105 0.74277 0.0
C483 C 0.61238 0.10256 0.74652 0.0
C484 C 0.61703 0.1159 0.72887 0.0
C485 C 0.58924 0.12099 0.72352 0.0
H486 H 0.43962 0.10037 0.74456 0.0
C487 C 0.58133 0.09801 0.7543 0.0
C488 C 0.56742 0.10861 0.74084 0.0
H489 H 0.49651 0.14271 0.69463 0.0
H490 H 0.54031 0.13617 0.70704 0.0
H491 H 0.45748 0.045 0.74972 0.0
H492 H 0.49726 0.13768 0.77237 0.0
H493 H 0.50049 0.11473 0.79011 0.0
H494 H 0.46085 0.10537 0.78169 0.0
H495 H 0.436 0.05626 0.7658 0.0
H496 H 0.46298 0.04316 0.774 0.0
C497 C 0.57277 0.10113 0.70592 0.0
C498 C 0.60281 0.15645 0.72071 0.0
C499 C 0.54387 0.0495 0.81941 0.0
C500 C 0.51635 0.04234 0.83048 0.0
C501 C 0.49315 0.04945 0.82326 0.0
C502 C 0.49696 0.06289 0.80539 0.0
C503 C 0.52436 0.06956 0.79444 0.0
C504 C 0.54744 0.0632 0.8016 0.0
C505 C 0.57527 0.0724 0.7881 0.0
C506 C 0.5651 0.08532 0.77168 0.0
C507 C 0.5351 0.08332 0.77541 0.0
C508 C 0.57627 0.04245 0.78269 0.0
C509 C 0.60658 0.09806 0.79752 0.0
C510 C 0.4614 0.10795 0.73622 0.0
C511 C 0.46442 0.12162 0.71847 0.0
C512 C 0.49356 0.132 0.70831 0.0
C513 C 0.51888 0.12805 0.71551 0.0
C514 C 0.51524 0.11383 0.73319 0.0
C515 C 0.48699 0.10458 0.74332 0.0
C516 C 0.48775 0.09147 0.76224 0.0
C517 C 0.5206 0.09333 0.76165 0.0
C518 C 0.53668 0.10621 0.74453 0.0
C519 C 0.45953 0.05721 0.76318 0.0
C520 C 0.48629 0.11315 0.77749 0.0
H521 H 0.63313 0.08488 0.7672 0.0
H522 H 0.64749 0.13256 0.70398 0.0
H523 H 0.62164 0.1701 0.73138 0.0
H524 H 0.58414 0.16332 0.72253 0.0
H525 H 0.61417 0.16416 0.70663 0.0
H526 H 0.5704 0.0776 0.70721 0.0
H527 H 0.58729 0.11247 0.6931 0.0
H528 H 0.54788 0.09674 0.70384 0.0
H529 H 0.56237 0.04469 0.82453 0.0
H530 H 0.47154 0.04391 0.83129 0.0
H531 H 0.47817 0.06727 0.80071 0.0
H532 H 0.55145 0.02162 0.78263 0.0
H533 H 0.59105 0.0377 0.79278 0.0
H534 H 0.58559 0.04346 0.76834 0.0
H535 H 0.60148 0.11427 0.80578 0.0
H536 H 0.6255 0.11318 0.78733 0.0
H537 H 0.6168 0.08765 0.80727 0.0
H538 H 0.67957 0.09502 0.74849 0.0
C539 C 0.63526 0.09521 0.75366 0.0
C540 C 0.85214 0.53798 0.97191 0.0
C541 C 0.88306 0.54608 0.96472 0.0
C542 C 0.8916 0.55907 0.94657 0.0
C543 C 0.83977 0.55693 0.94323 0.0
C544 C 0.83105 0.54395 0.961 0.0
C545 C 0.79798 0.53867 0.96665 0.0
H546 H 0.66932 0.55911 0.94721 0.0
C547 C 0.81326 0.56135 0.93575 0.0
C548 C 0.78866 0.55093 0.94948 0.0
H549 H 0.68241 0.5155 0.99636 0.0
H550 H 0.73315 0.52266 0.98356 0.0
H551 H 0.74326 0.61443 0.94251 0.0
H552 H 0.68977 0.52263 0.91833 0.0
H553 H 0.71515 0.54764 0.90059 0.0
H554 H 0.68433 0.5544 0.91074 0.0
H555 H 0.71194 0.60427 0.92542 0.0
H556 H 0.75341 0.61781 0.91857 0.0
C557 C 0.8021 0.55848 0.98431 0.0
C558 C 0.77505 0.50317 0.96951 0.0
C559 C 0.82475 0.60917 0.87057 0.0
C560 C 0.80545 0.61823 0.86033 0.0
C561 C 0.77586 0.61281 0.8683 0.0
C562 C 0.76582 0.59902 0.8861 0.0
C563 C 0.78558 0.59058 0.8963 0.0
C564 C 0.81448 0.59564 0.88849 0.0
C565 C 0.83285 0.58618 0.90166 0.0
C566 C 0.80994 0.57406 0.91849 0.0
C567 C 0.78229 0.57671 0.91526 0.0
C568 C 0.86552 0.61581 0.90651 0.0
C569 C 0.83641 0.55983 0.89218 0.0
C570 C 0.68327 0.55135 0.9553 0.0
C571 C 0.67209 0.53715 0.97294 0.0
C572 C 0.69056 0.5266 0.98277 0.0
C573 C 0.72005 0.5309 0.97533 0.0
C574 C 0.73115 0.54562 0.95776 0.0
C575 C 0.71241 0.55503 0.94795 0.0
C576 C 0.72679 0.56874 0.9291 0.0
C577 C 0.75766 0.56677 0.92927 0.0
C578 C 0.76046 0.55352 0.94619 0.0
C579 C 0.73413 0.60306 0.92868 0.0
C580 C 0.70285 0.54755 0.91379 0.0
H581 H 0.87838 0.57433 0.92215 0.0
H582 H 0.84498 0.52812 0.98586 0.0
H583 H 0.78001 0.48957 0.95888 0.0
H584 H 0.74924 0.49609 0.96765 0.0
H585 H 0.77836 0.49558 0.9836 0.0
H586 H 0.82374 0.58221 0.98282 0.0
H587 H 0.80553 0.5474 0.99701 0.0
H588 H 0.78146 0.56234 0.98675 0.0
H589 H 0.84785 0.6134 0.86503 0.0
H590 H 0.76037 0.61927 0.86071 0.0
H591 H 0.74313 0.59574 0.89131 0.0
H592 H 0.8636 0.63734 0.90551 0.0
H593 H 0.88517 0.61875 0.8968 0.0
H594 H 0.87317 0.61569 0.92112 0.0
H595 H 0.81345 0.54296 0.8851 0.0
H596 H 0.84134 0.54571 0.90224 0.0
H597 H 0.85596 0.56951 0.8814 0.0
H598 H 0.91509 0.56521 0.94067 0.0
C599 C 0.8702 0.56435 0.93581 0.0
C600 C 0.46231 0.14954 0.96298 0.0
C601 C 0.45432 0.11988 0.95609 0.0
C602 C 0.43735 0.10992 0.93894 0.0
C603 C 0.43715 0.1588 0.93599 0.0
C604 C 0.45327 0.16828 0.9529 0.0
C605 C 0.45877 0.19968 0.9589 0.0
H606 H 0.44385 0.32639 0.94185 0.0
C607 C 0.43151 0.184 0.92912 0.0
C608 C 0.44399 0.20788 0.9426 0.0
H609 H 0.48187 0.30536 0.99139 0.0
H610 H 0.47257 0.2572 0.97749 0.0
H611 H 0.4771 0.30369 0.91202 0.0
H612 H 0.38268 0.25771 0.93786 0.0
H613 H 0.37709 0.24697 0.91414 0.0
H614 H 0.39434 0.28759 0.92034 0.0
H615 H 0.44552 0.31133 0.90496 0.0
H616 H 0.44988 0.28022 0.8946 0.0
C617 C 0.49586 0.22228 0.96024 0.0
C618 C 0.43984 0.19539 0.97749 0.0
C619 C 0.37632 0.17447 0.86627 0.0
C620 C 0.36846 0.19467 0.85652 0.0
C621 C 0.37751 0.22417 0.86427 0.0
C622 C 0.39339 0.23319 0.88152 0.0
C623 C 0.40043 0.21259 0.89127 0.0
C624 C 0.39229 0.18391 0.88358 0.0
C625 C 0.40215 0.16535 0.89603 0.0
C626 C 0.41731 0.18761 0.91244 0.0
C627 C 0.41603 0.21513 0.90954 0.0
C628 C 0.42737 0.16014 0.88525 0.0
C629 C 0.37116 0.13483 0.90194 0.0
C630 C 0.44989 0.31129 0.9498 0.0
C631 C 0.46364 0.31981 0.96778 0.0
C632 C 0.47167 0.29964 0.97744 0.0
C633 C 0.46597 0.27149 0.96939 0.0
C634 C 0.4519 0.26319 0.95152 0.0
C635 C 0.44409 0.28295 0.94205 0.0
C636 C 0.42867 0.26999 0.92338 0.0
C637 C 0.42823 0.23901 0.92331 0.0
C638 C 0.44202 0.2353 0.93976 0.0
C639 C 0.45115 0.29241 0.90783 0.0
C640 C 0.39395 0.26543 0.92374 0.0
H641 H 0.41601 0.12031 0.91595 0.0
H642 H 0.47556 0.15828 0.97595 0.0
H643 H 0.41851 0.1714 0.97871 0.0
H644 H 0.42937 0.21096 0.97842 0.0
H645 H 0.45547 0.19923 0.98988 0.0
H646 H 0.50877 0.21833 0.94844 0.0
H647 H 0.50566 0.21864 0.97353 0.0
H648 H 0.50267 0.24713 0.95916 0.0
H649 H 0.36963 0.15161 0.86075 0.0
H650 H 0.37244 0.24047 0.85691 0.0
H651 H 0.39942 0.25589 0.88661 0.0
H652 H 0.44478 0.18171 0.87753 0.0
H653 H 0.4153 0.14104 0.87484 0.0
H654 H 0.44245 0.15476 0.89454 0.0
H655 H 0.35039 0.13898 0.90398 0.0
H656 H 0.37376 0.12557 0.91553 0.0
H657 H 0.36409 0.11646 0.89108 0.0
H658 H 0.43014 0.08697 0.93339 0.0
C659 C 0.42889 0.12924 0.92885 0.0
C660 C 0.69066 0.14183 0.97289 0.0
C661 C 0.66961 0.1115 0.96614 0.0
C662 C 0.67571 0.10301 0.94836 0.0
C663 C 0.72321 0.15426 0.94433 0.0
C664 C 0.71748 0.16267 0.96184 0.0
C665 C 0.74351 0.19524 0.96714 0.0
H666 H 0.88369 0.32791 0.94434 0.0
C667 C 0.75304 0.18098 0.93642 0.0
C668 C 0.76521 0.20512 0.94978 0.0
H669 H 0.82936 0.30717 0.99624 0.0
H670 H 0.78923 0.25693 0.98406 0.0
H671 H 0.87669 0.25966 0.93973 0.0
H672 H 0.8238 0.30211 0.91756 0.0
H673 H 0.8245 0.27798 0.89973 0.0
H674 H 0.86221 0.31033 0.90798 0.0
H675 H 0.89315 0.29039 0.92252 0.0
H676 H 0.86977 0.2499 0.91585 0.0
C677 C 0.76118 0.19279 0.9847 0.0
C678 C 0.72736 0.2155 0.96994 0.0
C679 C 0.79306 0.17306 0.87118 0.0
C680 C 0.81944 0.1944 0.86002 0.0
C681 C 0.84009 0.22468 0.86703 0.0
C682 C 0.83496 0.23346 0.88484 0.0
C683 C 0.80882 0.21183 0.89592 0.0
C684 C 0.78812 0.18233 0.88896 0.0
C685 C 0.76115 0.1628 0.90259 0.0
C686 C 0.76934 0.18535 0.91892 0.0
C687 C 0.79745 0.2139 0.91495 0.0
C688 C 0.76401 0.13386 0.90805 0.0
C689 C 0.72855 0.15495 0.89331 0.0
C690 C 0.86339 0.31247 0.95321 0.0
C691 C 0.85995 0.32167 0.97135 0.0
C692 C 0.8326 0.30092 0.98216 0.0
C693 C 0.80938 0.2716 0.97511 0.0
C694 C 0.81341 0.2627 0.95702 0.0
C695 C 0.84006 0.28313 0.9464 0.0
C696 C 0.84054 0.27002 0.92747 0.0
C697 C 0.8101 0.23812 0.92854 0.0
C698 C 0.79416 0.23384 0.94586 0.0
C699 C 0.87168 0.26744 0.92611 0.0
C700 C 0.83787 0.29116 0.9123 0.0
H701 H 0.70533 0.11614 0.92404 0.0
H702 H 0.68677 0.14886 0.98659 0.0
H703 H 0.70891 0.2104 0.9589 0.0
H704 H 0.7447 0.24079 0.96877 0.0
H705 H 0.7149 0.21067 0.98377 0.0
H706 H 0.76299 0.17116 0.98428 0.0
H707 H 0.74796 0.19202 0.99775 0.0
H708 H 0.78652 0.21205 0.98569 0.0
H709 H 0.77652 0.14972 0.86616 0.0
H710 H 0.86077 0.24147 0.85888 0.0
H711 H 0.85182 0.25674 0.88935 0.0
H712 H 0.78987 0.13983 0.90853 0.0
H713 H 0.75145 0.11469 0.89773 0.0
H714 H 0.75445 0.1249 0.92223 0.0
H715 H 0.73117 0.17517 0.88497 0.0
H716 H 0.70914 0.15003 0.90358 0.0
H717 H 0.72014 0.13473 0.88366 0.0
H718 H 0.65973 0.07987 0.94283 0.0
C719 C 0.70218 0.12416 0.93743 0.0
C720 C 0.54342 0.84163 0.05781 0.0
C721 C 0.55153 0.87132 0.06478 0.0
C722 C 0.56939 0.88155 0.08161 0.0
C723 C 0.56948 0.83265 0.08445 0.0
C724 C 0.55279 0.82294 0.06773 0.0
C725 C 0.54675 0.79121 0.06193 0.0
H726 H 0.55813 0.66283 0.081 0.0
C727 C 0.5748 0.80733 0.09145 0.0
C728 C 0.56167 0.78307 0.07822 0.0
H729 H 0.52128 0.68327 0.03074 0.0
H730 H 0.53218 0.73257 0.0438 0.0
H731 H 0.62082 0.73118 0.08416 0.0
H732 H 0.52642 0.68782 0.11002 0.0
H733 H 0.55388 0.71173 0.12722 0.0
H734 H 0.55744 0.67973 0.11759 0.0
H735 H 0.60828 0.70147 0.10188 0.0
H736 H 0.62655 0.74227 0.10785 0.0
C737 C 0.56518 0.79482 0.04325 0.0
C738 C 0.5096 0.76891 0.06085 0.0
C739 C 0.62933 0.81749 0.15452 0.0
C740 C 0.6355 0.79678 0.16494 0.0
C741 C 0.626 0.76695 0.15759 0.0
C742 C 0.6108 0.75789 0.14014 0.0
C743 C 0.60486 0.7788 0.12985 0.0
C744 C 0.61379 0.80793 0.13711 0.0
C745 C 0.60447 0.82654 0.12437 0.0
C746 C 0.58889 0.80387 0.10819 0.0
C747 C 0.58943 0.77608 0.11149 0.0
C748 C 0.63584 0.8565 0.1182 0.0
C749 C 0.57971 0.83269 0.13497 0.0
C750 C 0.5527 0.67801 0.07268 0.0
C751 C 0.53879 0.66898 0.05477 0.0
C752 C 0.53158 0.68935 0.04466 0.0
C753 C 0.5382 0.71815 0.0522 0.0
C754 C 0.55234 0.72687 0.07004 0.0
C755 C 0.55943 0.70695 0.07992 0.0
C756 C 0.57511 0.72034 0.09846 0.0
C757 C 0.57657 0.75176 0.098 0.0
C758 C 0.56298 0.75534 0.08141 0.0
C759 C 0.60942 0.72391 0.09829 0.0
C760 C 0.55234 0.69884 0.11424 0.0
H761 H 0.59172 0.87153 0.10419 0.0
H762 H 0.52965 0.8328 0.04501 0.0
H763 H 0.49713 0.77289 0.07288 0.0
H764 H 0.50257 0.74399 0.06169 0.0
H765 H 0.49958 0.77285 0.04774 0.0
H766 H 0.58688 0.81856 0.0419 0.0
H767 H 0.54943 0.79122 0.03095 0.0
H768 H 0.575 0.77872 0.04229 0.0
H769 H 0.63603 0.84044 0.15991 0.0
H770 H 0.63078 0.75072 0.16526 0.0
H771 H 0.60436 0.73494 0.13533 0.0
H772 H 0.65623 0.85175 0.11635 0.0
H773 H 0.64334 0.87527 0.12883 0.0
H774 H 0.63347 0.86549 0.10445 0.0
H775 H 0.56259 0.81182 0.14334 0.0
H776 H 0.56416 0.83721 0.12553 0.0
H777 H 0.5922 0.85265 0.14478 0.0
H778 H 0.57684 0.90457 0.08714 0.0
C779 C 0.57827 0.86239 0.09148 0.0
C780 C 0.31395 0.85371 0.0561 0.0
C781 C 0.33504 0.88454 0.06198 0.0
C782 C 0.32902 0.89446 0.07934 0.0
C783 C 0.28122 0.84366 0.08444 0.0
C784 C 0.28709 0.83389 0.06741 0.0
C785 C 0.26108 0.8011 0.06272 0.0
H786 H 0.11567 0.67404 0.08304 0.0
C787 C 0.25087 0.8177 0.09254 0.0
C788 C 0.23887 0.79275 0.07976 0.0
H789 H 0.17831 0.68865 0.03529 0.0
H790 H 0.2179 0.73855 0.04755 0.0
H791 H 0.17169 0.69576 0.11244 0.0
H792 H 0.12874 0.74539 0.08687 0.0
H793 H 0.13171 0.75234 0.11124 0.0
H794 H 0.10767 0.71303 0.10275 0.0
H795 H 0.13459 0.69222 0.12118 0.0
H796 H 0.17372 0.72259 0.12926 0.0
C797 C 0.27702 0.78038 0.06135 0.0
C798 C 0.24417 0.80254 0.04451 0.0
C799 C 0.20851 0.83008 0.15624 0.0
C800 C 0.18096 0.80994 0.16712 0.0
C801 C 0.15993 0.77956 0.16024 0.0
C802 C 0.16551 0.76974 0.14287 0.0
C803 C 0.19261 0.79028 0.13205 0.0
C804 C 0.21386 0.81975 0.13886 0.0
C805 C 0.24165 0.83812 0.12542 0.0
C806 C 0.23367 0.8147 0.10957 0.0
C807 C 0.20465 0.78682 0.11349 0.0
C808 C 0.27358 0.84569 0.13542 0.0
C809 C 0.24006 0.86728 0.1189 0.0
C810 C 0.13794 0.68774 0.07521 0.0
C811 C 0.14317 0.67718 0.05785 0.0
C812 C 0.1728 0.69625 0.04834 0.0
C813 C 0.19607 0.72529 0.05557 0.0
C814 C 0.19009 0.73568 0.07267 0.0
C815 C 0.1617 0.71672 0.08237 0.0
C816 C 0.16034 0.73088 0.10084 0.0
C817 C 0.19205 0.76191 0.10028 0.0
C818 C 0.20925 0.76472 0.08364 0.0
C819 C 0.15983 0.70931 0.11684 0.0
C820 C 0.13049 0.73559 0.10059 0.0
H821 H 0.29928 0.88331 0.10361 0.0
H822 H 0.31772 0.84553 0.04275 0.0
H823 H 0.24147 0.82368 0.04438 0.0
H824 H 0.21927 0.78271 0.04303 0.0
H825 H 0.25853 0.80364 0.03191 0.0
H826 H 0.29728 0.7881 0.07152 0.0
H827 H 0.28713 0.78161 0.0471 0.0
H828 H 0.26012 0.75567 0.065 0.0
H829 H 0.22517 0.85362 0.1609 0.0
H830 H 0.13898 0.76313 0.16835 0.0
H831 H 0.14831 0.74648 0.13849 0.0
H832 H 0.27032 0.82521 0.14373 0.0
H833 H 0.28132 0.86565 0.1452 0.0
H834 H 0.29366 0.85097 0.12559 0.0
H835 H 0.21446 0.86195 0.11778 0.0
H836 H 0.25043 0.87538 0.10476 0.0
H837 H 0.25257 0.88687 0.12896 0.0
H838 H 0.34505 0.91803 0.08424 0.0
C839 C 0.30244 0.87424 0.0906 0.0
C840 C 0.30731 0.45358 0.05237 0.0
C841 C 0.32958 0.44492 0.05918 0.0
C842 C 0.32418 0.43101 0.07709 0.0
C843 C 0.27478 0.43349 0.08091 0.0
C844 C 0.27991 0.44733 0.06339 0.0
C845 C 0.25265 0.45327 0.05812 0.0
H846 H 0.1037 0.43452 0.0792 0.0
C847 C 0.24381 0.42922 0.08865 0.0
C848 C 0.23046 0.4406 0.07527 0.0
H849 H 0.16149 0.4786 0.02984 0.0
H850 H 0.20462 0.47054 0.04188 0.0
H851 H 0.11934 0.37841 0.0826 0.0
H852 H 0.16074 0.46953 0.10747 0.0
H853 H 0.16285 0.44529 0.12473 0.0
H854 H 0.12372 0.43712 0.11608 0.0
H855 H 0.09877 0.38864 0.09992 0.0
H856 H 0.12554 0.37425 0.10646 0.0
C857 C 0.23621 0.43425 0.04027 0.0
C858 C 0.26692 0.48891 0.05578 0.0
C859 C 0.20386 0.37865 0.15328 0.0
C860 C 0.17533 0.37038 0.16367 0.0
C861 C 0.15249 0.37766 0.15611 0.0
C862 C 0.15743 0.39218 0.13856 0.0
C863 C 0.18559 0.39967 0.12817 0.0
C864 C 0.20839 0.39314 0.1356 0.0
C865 C 0.2366 0.40252 0.12231 0.0
C866 C 0.22709 0.41604 0.10586 0.0
C867 C 0.19711 0.41414 0.1094 0.0
C868 C 0.23757 0.37262 0.11675 0.0
C869 C 0.2677 0.42777 0.13209 0.0
C870 C 0.12554 0.44222 0.0709 0.0
C871 C 0.129 0.45679 0.05344 0.0
C872 C 0.15821 0.46722 0.04332 0.0
C873 C 0.18313 0.46239 0.05031 0.0
C874 C 0.17899 0.44722 0.06772 0.0
C875 C 0.15067 0.43797 0.07778 0.0
C876 C 0.15066 0.42364 0.09637 0.0
C877 C 0.18324 0.425 0.09576 0.0
C878 C 0.19984 0.43854 0.07887 0.0
C879 C 0.12203 0.3895 0.09655 0.0
C880 C 0.14919 0.44468 0.11207 0.0
H881 H 0.29468 0.41472 0.10142 0.0
H882 H 0.31068 0.46414 0.03862 0.0
H883 H 0.28549 0.5019 0.06669 0.0
H884 H 0.24853 0.49614 0.05757 0.0
H885 H 0.27877 0.497 0.04185 0.0
H886 H 0.23282 0.4103 0.04135 0.0
H887 H 0.2513 0.44563 0.02763 0.0
H888 H 0.21177 0.43093 0.03799 0.0
H889 H 0.22182 0.3732 0.15853 0.0
H890 H 0.13059 0.37209 0.16384 0.0
H891 H 0.13887 0.39673 0.13369 0.0
H892 H 0.21278 0.35177 0.11672 0.0
H893 H 0.25247 0.36782 0.12672 0.0
H894 H 0.24676 0.37375 0.10235 0.0
H895 H 0.26271 0.44447 0.13988 0.0
H896 H 0.28737 0.44233 0.12214 0.0
H897 H 0.27685 0.41702 0.14232 0.0
H898 H 0.34106 0.42443 0.08276 0.0
C899 C 0.29719 0.42542 0.08796 0.0
C900 C 0.5226 0.86734 0.30301 0.0
C901 C 0.55375 0.87625 0.2959 0.0
C902 C 0.5626 0.89039 0.27804 0.0
C903 C 0.5105 0.88765 0.27486 0.0
C904 C 0.50152 0.87357 0.29232 0.0
C905 C 0.46809 0.86726 0.29793 0.0
H906 H 0.33632 0.88241 0.27866 0.0
C907 C 0.48375 0.89175 0.26752 0.0
C908 C 0.45877 0.88003 0.28102 0.0
H909 H 0.35118 0.83852 0.3271 0.0
H910 H 0.40325 0.84913 0.3146 0.0
H911 H 0.41071 0.94096 0.27475 0.0
H912 H 0.36007 0.84981 0.24929 0.0
H913 H 0.38533 0.87612 0.232 0.0
H914 H 0.35327 0.88096 0.24216 0.0
H915 H 0.3784 0.92995 0.25822 0.0
H916 H 0.41976 0.94514 0.2506 0.0
C917 C 0.47139 0.88605 0.31594 0.0
C918 C 0.44576 0.8315 0.30012 0.0
C919 C 0.49592 0.94237 0.2034 0.0
C920 C 0.47605 0.95034 0.19284 0.0
C921 C 0.44561 0.94323 0.20041 0.0
C922 C 0.43537 0.92887 0.21808 0.0
C923 C 0.45568 0.92137 0.22849 0.0
C924 C 0.48533 0.92803 0.22104 0.0
C925 C 0.50389 0.91866 0.23407 0.0
C926 C 0.48041 0.90503 0.25052 0.0
C927 C 0.45223 0.90674 0.24723 0.0
C928 C 0.53576 0.94862 0.23961 0.0
C929 C 0.50889 0.89349 0.22409 0.0
C930 C 0.35101 0.87546 0.28668 0.0
C931 C 0.33986 0.86 0.30401 0.0
C932 C 0.35929 0.85053 0.31375 0.0
C933 C 0.38953 0.85678 0.30648 0.0
C934 C 0.40042 0.87239 0.28915 0.0
C935 C 0.38098 0.8811 0.27947 0.0
C936 C 0.39546 0.89593 0.26082 0.0
C937 C 0.42712 0.89539 0.26102 0.0
C938 C 0.43015 0.88182 0.27773 0.0
C939 C 0.4013 0.92974 0.26091 0.0
C940 C 0.37241 0.87491 0.24515 0.0
H941 H 0.54964 0.90686 0.25407 0.0
H942 H 0.5152 0.85659 0.31673 0.0
H943 H 0.45181 0.81871 0.28946 0.0
H944 H 0.41992 0.82386 0.29778 0.0
H945 H 0.44852 0.82343 0.31419 0.0
H946 H 0.49303 0.90988 0.31501 0.0
H947 H 0.47432 0.8743 0.32848 0.0
H948 H 0.45064 0.88978 0.31831 0.0
H949 H 0.51929 0.94708 0.19806 0.0
H950 H 0.42989 0.9494 0.19283 0.0
H951 H 0.4121 0.92442 0.22305 0.0
H952 H 0.53266 0.96953 0.23948 0.0
H953 H 0.55581 0.95326 0.22974 0.0
H954 H 0.54348 0.94763 0.25408 0.0
H955 H 0.48685 0.87715 0.21606 0.0
H956 H 0.51288 0.87846 0.23393 0.0
H957 H 0.52955 0.90436 0.21405 0.0
H958 H 0.58626 0.89713 0.27218 0.0
C959 C 0.54123 0.89599 0.26751 0.0
C960 C 0.12406 0.47905 0.29998 0.0
C961 C 0.11967 0.45126 0.29186 0.0
C962 C 0.1062 0.44311 0.27372 0.0
C963 C 0.10098 0.48944 0.27242 0.0
C964 C 0.11467 0.49771 0.29005 0.0
C965 C 0.11793 0.52806 0.29663 0.0
H966 H 0.09569 0.65098 0.28021 0.0
C967 C 0.09366 0.51373 0.26601 0.0
C968 C 0.10371 0.53649 0.28013 0.0
H969 H 0.14062 0.63511 0.32843 0.0
H970 H 0.13044 0.58589 0.31539 0.0
H971 H 0.13078 0.63274 0.25069 0.0
H972 H 0.03667 0.5799 0.27627 0.0
H973 H 0.03187 0.5703 0.25235 0.0
H974 H 0.04643 0.61023 0.25929 0.0
H975 H 0.09694 0.63661 0.24329 0.0
H976 H 0.10537 0.60789 0.23311 0.0
C977 C 0.15452 0.55183 0.29925 0.0
C978 C 0.09708 0.52147 0.31461 0.0
C979 C 0.03884 0.50345 0.20302 0.0
C980 C 0.03006 0.52306 0.19345 0.0
C981 C 0.03627 0.55137 0.20178 0.0
C982 C 0.05085 0.56004 0.21938 0.0
C983 C 0.05955 0.54031 0.22881 0.0
C984 C 0.05376 0.51265 0.22061 0.0
C985 C 0.06568 0.49527 0.23258 0.0
C986 C 0.07909 0.51691 0.24939 0.0
C987 C 0.0752 0.54308 0.24708 0.0
C988 C 0.09267 0.49307 0.2216 0.0
C989 C 0.03613 0.46327 0.23795 0.0
C990 C 0.10352 0.63703 0.28796 0.0
C991 C 0.11913 0.64706 0.30533 0.0
C992 C 0.1283 0.62781 0.31508 0.0
C993 C 0.12262 0.59936 0.3074 0.0
C994 C 0.10768 0.59009 0.28977 0.0
C995 C 0.09831 0.60881 0.28043 0.0
C996 C 0.0834 0.59578 0.26172 0.0
C997 C 0.08542 0.5661 0.26128 0.0
C998 C 0.09956 0.56282 0.27773 0.0
C999 C 0.10491 0.6194 0.24631 0.0
C1000 C 0.04778 0.58879 0.26223 0.0
H1001 H 0.08661 0.45443 0.25032 0.0
H1002 H 0.13408 0.48595 0.31392 0.0
H1003 H 0.07405 0.49874 0.31351 0.0
H1004 H 0.08947 0.53896 0.31709 0.0
H1005 H 0.11021 0.52027 0.32715 0.0
H1006 H 0.16953 0.54784 0.28881 0.0
H1007 H 0.16284 0.54974 0.31344 0.0
H1008 H 0.16056 0.57628 0.29688 0.0
H1009 H 0.03466 0.48171 0.19683 0.0
H1010 H 0.02944 0.56668 0.19472 0.0
H1011 H 0.05475 0.58181 0.22495 0.0
H1012 H 0.10661 0.51392 0.21246 0.0
H1013 H 0.08226 0.47208 0.21247 0.0
H1014 H 0.11109 0.49277 0.23087 0.0
H1015 H 0.0148 0.4659 0.24151 0.0
H1016 H 0.04034 0.45271 0.2505 0.0
H1017 H 0.0291 0.44649 0.22614 0.0
H1018 H 0.10311 0.42218 0.26694 0.0
C1019 C 0.09679 0.46198 0.26401 0.0
C1020 C 0.35718 0.47229 0.3042 0.0
C1021 C 0.33649 0.44183 0.29761 0.0
C1022 C 0.34288 0.43308 0.27998 0.0
C1023 C 0.39034 0.48431 0.27595 0.0
C1024 C 0.38413 0.49298 0.29325 0.0
C1025 C 0.40983 0.52562 0.29853 0.0
H1026 H 0.55458 0.65428 0.2787 0.0
C1027 C 0.4206 0.51075 0.2683 0.0
C1028 C 0.43232 0.53502 0.28157 0.0
H1029 H 0.49277 0.63871 0.32697 0.0
H1030 H 0.45329 0.5884 0.31472 0.0
H1031 H 0.54363 0.58506 0.27529 0.0
H1032 H 0.4988 0.63276 0.24976 0.0
H1033 H 0.49766 0.60675 0.23265 0.0
H1034 H 0.53636 0.63726 0.24113 0.0
H1035 H 0.56344 0.61579 0.25827 0.0
H1036 H 0.53906 0.57554 0.25133 0.0
C1037 C 0.42658 0.52352 0.31661 0.0
C1038 C 0.39357 0.54597 0.30043 0.0
C1039 C 0.46405 0.50208 0.20423 0.0
C1040 C 0.49222 0.52268 0.19403 0.0
C1041 C 0.5135 0.55234 0.20163 0.0
C1042 C 0.50736 0.56118 0.21911 0.0
C1043 C 0.47956 0.54023 0.22929 0.0
C1044 C 0.45827 0.51132 0.22181 0.0
C1045 C 0.43016 0.49218 0.23489 0.0
C1046 C 0.438 0.51461 0.25127 0.0
C1047 C 0.46705 0.54259 0.24787 0.0
C1048 C 0.4314 0.46247 0.24061 0.0
C1049 C 0.39853 0.48553 0.22488 0.0
C1050 C 0.53247 0.64037 0.28664 0.0
C1051 C 0.52721 0.65073 0.30398 0.0
C1052 C 0.49802 0.63126 0.31379 0.0
C1053 C 0.47492 0.60204 0.30658 0.0
C1054 C 0.48081 0.59205 0.2893 0.0
C1055 C 0.50902 0.6114 0.27955 0.0
C1056 C 0.51078 0.59785 0.26104 0.0
C1057 C 0.47931 0.5668 0.26143 0.0
C1058 C 0.46191 0.56328 0.27808 0.0
C1059 C 0.54085 0.59342 0.26129 0.0
C1060 C 0.51115 0.61972 0.24524 0.0
H1061 H 0.37296 0.44596 0.25584 0.0
H1062 H 0.35297 0.47953 0.31776 0.0
H1063 H 0.37403 0.53914 0.28986 0.0
H1064 H 0.41056 0.57101 0.29774 0.0
H1065 H 0.38245 0.54323 0.31454 0.0
H1066 H 0.43024 0.50294 0.31609 0.0
H1067 H 0.41158 0.5209 0.3292 0.0
H1068 H 0.45103 0.54384 0.3186 0.0
H1069 H 0.44732 0.47902 0.19888 0.0
H1070 H 0.53504 0.56888 0.19398 0.0
H1071 H 0.52473 0.58398 0.22406 0.0
H1072 H 0.45683 0.46709 0.24087 0.0
H1073 H 0.41768 0.44308 0.23058 0.0
H1074 H 0.42213 0.45436 0.25495 0.0
H1075 H 0.40204 0.50673 0.2173 0.0
H1076 H 0.37815 0.47933 0.23465 0.0
H1077 H 0.3911 0.4665 0.21443 0.0
H1078 H 0.32707 0.40982 0.27456 0.0
C1079 C 0.3695 0.45412 0.26911 0.0
Gd1080 Gd 0.51529 0.01979 0.03333 0.0
Gd1081 Gd 0.4872 0.97173 0.99022 0.0
C1082 C 0.38772 0.88304 0.98875 0.0
C1083 C 0.40214 0.84274 0.98378 0.0
C1084 C 0.44416 0.89741 0.98549 0.0
C1085 C 0.42094 0.90592 0.98847 0.0
C1086 C 0.43505 0.86583 0.98258 0.0
C1087 C 0.3785 0.85134 0.9869 0.0
C1088 C 0.36478 0.89283 0.9902 0.0
C1089 C 0.37519 0.92475 0.99046 0.0
N1090 N 0.43075 0.93677 0.98989 0.0
C1091 C 0.40842 0.94652 0.98994 0.0
H1092 H 0.41604 0.97109 0.99019 0.0
C1093 C 0.49897 0.91367 0.9786 0.0
N1094 N 0.4756 0.92035 0.98423 0.0
C1095 C 0.49121 0.88268 0.97564 0.0
C1096 C 0.45917 0.85858 0.97792 0.0
H1097 H 0.52379 0.93222 0.97688 0.0
H1098 H 0.35313 0.83339 0.98727 0.0
H1099 H 0.58442 0.01631 0.03493 0.0
H1100 H 0.33904 0.87601 0.99053 0.0
H1101 H 0.35764 0.93262 0.9911 0.0
H1102 H 0.39466 0.8183 0.98179 0.0
H1103 H 0.48176 0.06296 0.04431 0.0
H1104 H 0.66487 0.10956 0.03545 0.0
H1105 H 0.64329 0.05242 0.03509 0.0
H1106 H 0.61433 0.1724 0.04136 0.0
H1107 H 0.50994 0.87741 0.97163 0.0
H1108 H 0.45319 0.83461 0.97555 0.0
H1109 H 0.65381 0.15428 0.03755 0.0
H1110 H 0.49837 0.1187 0.0487 0.0
N1111 N 0.5722 0.05243 0.03463 0.0
C1112 C 0.63887 0.09378 0.03538 0.0
C1113 C 0.62678 0.06155 0.03523 0.0
C1114 C 0.61723 0.1052 0.03608 0.0
C1115 C 0.58362 0.08363 0.03584 0.0
C1116 C 0.59322 0.0411 0.03516 0.0
N1117 N 0.52962 0.07214 0.03854 0.0
C1118 C 0.56156 0.09383 0.03784 0.0
C1119 C 0.5164 0.11206 0.04554 0.0
C1120 C 0.54911 0.13488 0.04388 0.0
C1121 C 0.50709 0.08056 0.04309 0.0
C1122 C 0.57225 0.12586 0.04031 0.0
H1123 H 0.55631 0.15926 0.04587 0.0
O1124 O 0.49026 0.0154 0.05977 0.0
O1125 O 0.47525 0.97757 0.01975 0.0
O1126 O 0.47355 0.00964 0.9906 0.0
O1127 O 0.50785 0.0488 0.01147 0.0
O1128 O 0.46247 0.00545 0.03492 0.0
O1129 O 0.52998 0.00595 0.05876 0.0
O1130 O 0.51348 0.98103 0.96378 0.0
O1131 O 0.52686 0.01376 1.00401 0.0
O1132 O 0.52728 0.98062 0.0335 0.0
O1133 O 0.49587 0.94254 0.01123 0.0
O1134 O 0.54051 0.98735 0.98814 0.0
O1135 O 0.46839 0.98152 0.96486 0.0
C1136 C 0.45128 0.97964 0.02573 0.0
C1137 C 0.60563 0.14764 0.0397 0.0
C1138 C 0.6281 0.13732 0.03754 0.0
C1139 C 0.50858 0.00777 0.06933 0.0
C1140 C 0.5199 0.02286 0.08772 0.0
C1141 C 0.54162 0.05505 0.08891 0.0
C1142 C 0.50903 0.00479 0.10428 0.0
C1143 C 0.51988 0.01879 0.12203 0.0
C1144 C 0.55231 0.06913 0.10638 0.0
C1145 C 0.54158 0.05125 0.12279 0.0
C1146 C 0.48779 0.03866 0.99699 0.0
C1147 C 0.55118 0.0125 0.99794 0.0
C1148 C 0.49214 0.98445 0.95427 0.0
C1149 C 0.48359 0.96953 0.93566 0.0
C1150 C 0.46659 0.93689 0.93407 0.0
C1151 C 0.49332 0.98815 0.91927 0.0
C1152 C 0.48653 0.9742 0.90133 0.0
C1153 C 0.45963 0.92294 0.91641 0.0
C1154 C 0.46956 0.94135 0.90018 0.0
C1155 C 0.51486 0.95227 0.02616 0.0
H1156 H 0.55029 0.06927 0.07636 0.0
H1157 H 0.49255 0.97982 0.10327 0.0
H1158 H 0.56897 0.09404 0.10721 0.0
H1159 H 0.55001 0.06299 0.13613 0.0
H1160 H 0.45881 0.92223 0.94646 0.0
H1161 H 0.50664 0.01341 0.92051 0.0
H1162 H 0.44647 0.89771 0.91528 0.0
H1163 H 0.46352 0.92982 0.88668 0.0
Gd1164 Gd 0.97742 0.49229 0.03437 0.0
Gd1165 Gd 0.02708 0.50748 0.99166 0.0
C1166 C 0.11666 0.49563 0.99117 0.0
C1167 C 0.16021 0.54885 0.98567 0.0
C1168 C 0.10414 0.53717 0.98721 0.0
C1169 C 0.09395 0.50611 0.99057 0.0
C1170 C 0.13727 0.55876 0.98409 0.0
C1171 C 0.14991 0.51731 0.98924 0.0
C1172 C 0.1052 0.4636 0.99316 0.0
C1173 C 0.07183 0.44284 0.99377 0.0
N1174 N 0.06163 0.48585 0.99222 0.0
C1175 C 0.05028 0.45437 0.993 0.0
H1176 H 0.02462 0.43794 0.99361 0.0
C1177 C 0.08952 0.57484 0.97895 0.0
N1178 N 0.08129 0.54575 0.98549 0.0
C1179 C 0.12208 0.59722 0.97584 0.0
C1180 C 0.14615 0.58931 0.97874 0.0
H1181 H 0.07096 0.58103 0.9767 0.0
H1182 H 0.16775 0.50977 0.98992 0.0
H1183 H 0.97904 0.56122 0.03285 0.0
H1184 H 0.12184 0.45461 0.99378 0.0
H1185 H 0.06266 0.41795 0.99493 0.0
H1186 H 0.18582 0.56516 0.98356 0.0
H1187 H 0.93384 0.41681 0.04624 0.0
H1188 H 0.88116 0.54298 0.03179 0.0
H1189 H 0.9402 0.58044 0.03131 0.0
H1190 H 0.81832 0.43187 0.04013 0.0
H1191 H 0.12857 0.62052 0.97119 0.0
H1192 H 0.17134 0.60661 0.9762 0.0
H1193 H 0.83579 0.48738 0.03485 0.0
H1194 H 0.87615 0.37648 0.05056 0.0
N1195 N 0.94247 0.51319 0.03372 0.0
C1196 C 0.89812 0.53437 0.03249 0.0
C1197 C 0.93142 0.55559 0.03226 0.0
C1198 C 0.8871 0.50236 0.03416 0.0
C1199 C 0.9102 0.49238 0.03489 0.0
C1200 C 0.95339 0.54457 0.03317 0.0
N1201 N 0.92337 0.45271 0.03917 0.0
C1202 C 0.90032 0.46114 0.03769 0.0
C1203 C 0.88261 0.40017 0.04685 0.0
C1204 C 0.85844 0.40809 0.04438 0.0
C1205 C 0.9152 0.42301 0.04444 0.0
C1206 C 0.86716 0.439 0.04005 0.0
H1207 H 0.83321 0.39037 0.04631 0.0
O1208 O 0.98221 0.47537 0.06154 0.0
O1209 O 0.02152 0.4948 0.02181 0.0
O1210 O 0.98661 0.45632 0.99425 0.0
O1211 O 0.94645 0.45608 0.01316 0.0
O1212 O 0.99417 0.45716 0.03915 0.0
O1213 O 0.9859 0.52092 0.05914 0.0
O1214 O 0.02116 0.52297 0.96422 0.0
O1215 O 0.9837 0.50612 1.00441 0.0
O1216 O 0.01837 0.54307 0.03333 0.0
O1217 O 0.05737 0.54712 0.0115 0.0
O1218 O 0.0113 0.54324 0.98689 0.0
O1219 O 0.01461 0.47657 0.96765 0.0
C1220 C 0.0205 0.47118 0.02935 0.0
C1221 C 0.84395 0.44859 0.03855 0.0
C1222 C 0.85391 0.4802 0.03557 0.0
C1223 C 0.98529 0.49978 0.07041 0.0
C1224 C 0.9663 0.49333 0.08774 0.0
C1225 C 0.93245 0.47985 0.08741 0.0
C1226 C 0.98239 0.49965 0.10497 0.0
C1227 C 0.96485 0.49226 0.12191 0.0
C1228 C 0.91484 0.47236 0.10418 0.0
C1229 C 0.93088 0.47837 0.12137 0.0
C1230 C 0.95614 0.44309 1.00039 0.0
C1231 C 0.98526 0.53008 0.99697 0.0
C1232 C 0.01588 0.4974 0.95591 0.0
C1233 C 0.03375 0.50144 0.93836 0.0
C1234 C 0.0675 0.51401 0.93825 0.0
C1235 C 0.01677 0.49336 0.92138 0.0
C1236 C 0.03336 0.49814 0.90426 0.0
C1237 C 0.08415 0.51888 0.92129 0.0
C1238 C 0.06725 0.51115 0.90435 0.0
C1239 C 0.04778 0.55811 0.02562 0.0
H1240 H 0.91965 0.47496 0.07428 0.0
H1241 H 0.00856 0.50986 0.10518 0.0
H1242 H 0.8887 0.46188 0.10386 0.0
H1243 H 0.91681 0.47266 0.13422 0.0
H1244 H 0.08096 0.52015 0.95118 0.0
H1245 H 0.99069 0.48381 0.9215 0.0
H1246 H 0.11021 0.52866 0.92127 0.0
H1247 H 0.08059 0.51488 0.89136 0.0
Gd1248 Gd 0.48363 0.50015 0.99071 0.0
Gd1249 Gd 0.5149 0.48531 0.03454 0.0
C1250 C 0.61537 0.4947 0.03733 0.0
C1251 C 0.60216 0.44074 0.04169 0.0
C1252 C 0.55918 0.4537 0.03956 0.0
C1253 C 0.58197 0.4849 0.0372 0.0
C1254 C 0.56898 0.43132 0.04227 0.0
C1255 C 0.62532 0.47238 0.0392 0.0
C1256 C 0.63776 0.52669 0.03595 0.0
C1257 C 0.62663 0.54803 0.03507 0.0
N1258 N 0.57148 0.50582 0.03548 0.0
C1259 C 0.59324 0.53716 0.03508 0.0
H1260 H 0.58507 0.55395 0.03426 0.0
C1261 C 0.50421 0.41561 0.04477 0.0
N1262 N 0.52739 0.44548 0.04017 0.0
C1263 C 0.5127 0.39252 0.04744 0.0
C1264 C 0.5452 0.40032 0.04596 0.0
H1265 H 0.47903 0.40943 0.04582 0.0
H1266 H 0.65086 0.47943 0.03914 0.0
H1267 H 0.41274 0.4323 0.99169 0.0
H1268 H 0.66363 0.53517 0.0359 0.0
H1269 H 0.64373 0.57286 0.03428 0.0
H1270 H 0.61018 0.42386 0.04356 0.0
H1271 H 0.5208 0.57564 0.97834 0.0
H1272 H 0.33547 0.45291 0.98962 0.0
H1273 H 0.35428 0.41445 0.99186 0.0
H1274 H 0.39081 0.56391 0.98007 0.0
H1275 H 0.49419 0.36874 0.05063 0.0
H1276 H 0.55173 0.38241 0.0481 0.0
H1277 H 0.34935 0.50884 0.98538 0.0
H1278 H 0.50671 0.61686 0.9727 0.0
N1279 N 0.42724 0.48061 0.98988 0.0
C1280 C 0.36124 0.46093 0.98954 0.0
C1281 C 0.37176 0.43914 0.99076 0.0
C1282 C 0.3841 0.49272 0.98768 0.0
C1283 C 0.41735 0.5019 0.98776 0.0
C1284 C 0.40502 0.44941 0.99064 0.0
N1285 N 0.47218 0.54041 0.98424 0.0
C1286 C 0.44057 0.53281 0.98483 0.0
C1287 C 0.48788 0.59334 0.97617 0.0
C1288 C 0.45557 0.5862 0.97756 0.0
C1289 C 0.49577 0.56993 0.97932 0.0
C1290 C 0.43137 0.55552 0.98167 0.0
H1291 H 0.44951 0.60435 0.97507 0.0
O1292 O 0.50817 0.51478 0.96378 0.0
O1293 O 0.52475 0.49895 1.00461 0.0
O1294 O 0.52771 0.53625 0.03146 0.0
O1295 O 0.48905 0.53654 0.01149 0.0
O1296 O 0.53694 0.5357 0.98662 0.0
O1297 O 0.46434 0.46981 0.96638 0.0
O1298 O 0.4913 0.46888 0.06161 0.0
O1299 O 0.47359 0.48658 0.02078 0.0
O1300 O 0.47017 0.44917 0.99409 0.0
O1301 O 0.50986 0.44956 0.01335 0.0
O1302 O 0.46182 0.44943 0.03842 0.0
O1303 O 0.53305 0.51534 0.05904 0.0
C1304 C 0.54856 0.52258 0.99727 0.0
C1305 C 0.39837 0.54676 0.98229 0.0
C1306 C 0.37477 0.51541 0.98532 0.0
C1307 C 0.48676 0.48981 0.95508 0.0
C1308 C 0.47619 0.49505 0.93674 0.0
C1309 C 0.45526 0.50731 0.93552 0.0
C1310 C 0.48832 0.48894 0.92022 0.0
C1311 C 0.47985 0.49529 0.90247 0.0
C1312 C 0.44668 0.51357 0.91802 0.0
C1313 C 0.45891 0.50772 0.90161 0.0
C1314 C 0.51144 0.54945 0.02463 0.0
C1315 C 0.44995 0.4626 0.028 0.0
C1316 C 0.51202 0.4941 0.07041 0.0
C1317 C 0.52472 0.48916 0.0881 0.0
C1318 C 0.54638 0.47768 0.08795 0.0
C1319 C 0.5147 0.4955 0.10533 0.0
C1320 C 0.52644 0.49056 0.12239 0.0
C1321 C 0.55781 0.47239 0.10475 0.0
C1322 C 0.54795 0.47873 0.12185 0.0
C1323 C 0.48716 0.43643 1.0004 0.0
H1324 H 0.44572 0.51217 0.94806 0.0
H1325 H 0.50479 0.47978 0.92121 0.0
H1326 H 0.43049 0.52303 0.91716 0.0
H1327 H 0.45156 0.51248 0.88822 0.0
H1328 H 0.55442 0.47274 0.07489 0.0
H1329 H 0.49825 0.50475 0.10541 0.0
H1330 H 0.5744 0.46334 0.10452 0.0
H1331 H 0.55705 0.47421 0.13468 0.0
Gd1332 Gd 0.18459 0.35191 0.36595 0.0
Gd1333 Gd 0.15437 0.30265 0.32328 0.0
C1334 C 0.05556 0.21284 0.32316 0.0
C1335 C 0.07071 0.17307 0.31816 0.0
C1336 C 0.11208 0.22804 0.31916 0.0
C1337 C 0.08861 0.2361 0.32238 0.0
C1338 C 0.10341 0.19652 0.31648 0.0
C1339 C 0.04681 0.18122 0.32153 0.0
C1340 C 0.03228 0.22214 0.32491 0.0
C1341 C 0.04216 0.25394 0.32501 0.0
N1342 N 0.098 0.26688 0.3236 0.0
C1343 C 0.07525 0.2761 0.32401 0.0
H1344 H 0.08238 0.30052 0.3242 0.0
C1345 C 0.16676 0.24498 0.31154 0.0
N1346 N 0.14326 0.25132 0.31743 0.0
C1347 C 0.15947 0.21407 0.30882 0.0
C1348 C 0.12772 0.18967 0.31158 0.0
H1349 H 0.19135 0.26375 0.30942 0.0
H1350 H 0.02158 0.16299 0.3223 0.0
H1351 H 0.25495 0.35086 0.36712 0.0
H1352 H 0.00664 0.20502 0.32564 0.0
H1353 H 0.02433 0.26143 0.32592 0.0
H1354 H 0.06358 0.14867 0.31636 0.0
H1355 H 0.14859 0.39374 0.37511 0.0
H1356 H 0.33332 0.44522 0.36683 0.0
H1357 H 0.31353 0.38838 0.36683 0.0
H1358 H 0.27964 0.50536 0.37179 0.0
H1359 H 0.17833 0.20911 0.30461 0.0
H1360 H 0.12209 0.16575 0.30938 0.0
H1361 H 0.32043 0.48877 0.36851 0.0
H1362 H 0.16355 0.44922 0.37845 0.0
N1363 N 0.2412 0.38589 0.3668 0.0
C1364 C 0.30746 0.42881 0.36697 0.0
C1365 C 0.29638 0.39676 0.36702 0.0
C1366 C 0.28503 0.43929 0.36766 0.0
C1367 C 0.25164 0.41694 0.36771 0.0
C1368 C 0.26301 0.37551 0.36721 0.0
N1369 N 0.19707 0.40397 0.37023 0.0
C1370 C 0.22881 0.42628 0.36948 0.0
C1371 C 0.18215 0.4431 0.37586 0.0
C1372 C 0.21465 0.46649 0.37429 0.0
C1373 C 0.17377 0.41174 0.37403 0.0
C1374 C 0.23853 0.45821 0.37132 0.0
H1375 H 0.22111 0.49077 0.37576 0.0
O1376 O 0.16045 0.3478 0.39266 0.0
O1377 O 0.14437 0.30909 0.35305 0.0
O1378 O 0.13913 0.33946 0.32511 0.0
O1379 O 0.17756 0.38013 0.34341 0.0
O1380 O 0.13157 0.33645 0.36876 0.0
O1381 O 0.20098 0.33948 0.39127 0.0
O1382 O 0.17904 0.31131 0.2963 0.0
O1383 O 0.19458 0.34485 0.33653 0.0
O1384 O 0.19794 0.31372 0.36568 0.0
O1385 O 0.16529 0.27475 0.34409 0.0
O1386 O 0.20763 0.31872 0.31998 0.0
O1387 O 0.13507 0.31362 0.29856 0.0
C1388 C 0.12046 0.31063 0.35961 0.0
C1389 C 0.27169 0.48069 0.37057 0.0
C1390 C 0.2949 0.47124 0.36871 0.0
C1391 C 0.17953 0.34091 0.40204 0.0
C1392 C 0.19094 0.35631 0.42035 0.0
C1393 C 0.21325 0.38839 0.42133 0.0
C1394 C 0.17938 0.33869 0.43704 0.0
C1395 C 0.19018 0.35301 0.45473 0.0
C1396 C 0.2239 0.40277 0.43873 0.0
C1397 C 0.21253 0.38534 0.45527 0.0
C1398 C 0.15476 0.36913 0.33039 0.0
C1399 C 0.21865 0.3437 0.32995 0.0
C1400 C 0.15764 0.31539 0.28736 0.0
C1401 C 0.14705 0.29965 0.26906 0.0
C1402 C 0.12809 0.26701 0.26818 0.0
C1403 C 0.15602 0.31734 0.2523 0.0
C1404 C 0.14575 0.30245 0.23472 0.0
C1405 C 0.11822 0.25212 0.25088 0.0
C1406 C 0.12689 0.26959 0.2343 0.0
C1407 C 0.1855 0.28526 0.35849 0.0
H1408 H 0.22236 0.40226 0.40867 0.0
H1409 H 0.16237 0.31381 0.43621 0.0
H1410 H 0.24103 0.4276 0.4394 0.0
H1411 H 0.22097 0.39732 0.46853 0.0
H1412 H 0.12095 0.25306 0.28087 0.0
H1413 H 0.17041 0.34261 0.25299 0.0
H1414 H 0.1037 0.22688 0.25031 0.0
H1415 H 0.11897 0.25731 0.22109 0.0
Gd1416 Gd 0.64655 0.8226 0.36654 0.0
Gd1417 Gd 0.69535 0.83487 0.32358 0.0
C1418 C 0.78303 0.82042 0.32284 0.0
C1419 C 0.82761 0.87334 0.31786 0.0
C1420 C 0.77203 0.86308 0.31936 0.0
C1421 C 0.76097 0.83167 0.32232 0.0
C1422 C 0.80539 0.88418 0.31663 0.0
C1423 C 0.81645 0.84152 0.321 0.0
C1424 C 0.7708 0.78825 0.32487 0.0
C1425 C 0.7373 0.76811 0.32575 0.0
N1426 N 0.72852 0.81194 0.32405 0.0
C1427 C 0.71637 0.78037 0.32508 0.0
H1428 H 0.69058 0.7645 0.32591 0.0
C1429 C 0.75919 0.90266 0.3128 0.0
N1430 N 0.74992 0.87273 0.31815 0.0
C1431 C 0.79202 0.92451 0.31005 0.0
C1432 C 0.81528 0.91534 0.31222 0.0
H1433 H 0.74126 0.90986 0.31121 0.0
H1434 H 0.83379 0.83336 0.32158 0.0
H1435 H 0.64898 0.89186 0.36322 0.0
H1436 H 0.78694 0.77869 0.32544 0.0
H1437 H 0.72756 0.74314 0.32704 0.0
H1438 H 0.85338 0.88924 0.316 0.0
H1439 H 0.60278 0.75017 0.38345 0.0
H1440 H 0.55163 0.87481 0.36083 0.0
H1441 H 0.61082 0.91164 0.36032 0.0
H1442 H 0.4877 0.76483 0.3731 0.0
H1443 H 0.79936 0.9484 0.30628 0.0
H1444 H 0.8407 0.93228 0.31002 0.0
H1445 H 0.50571 0.81974 0.36525 0.0
H1446 H 0.5451 0.71087 0.38904 0.0
N1447 N 0.61197 0.84401 0.36478 0.0
C1448 C 0.5683 0.86595 0.36211 0.0
C1449 C 0.60168 0.88681 0.36188 0.0
C1450 C 0.55687 0.83402 0.36472 0.0
C1451 C 0.57963 0.82371 0.36619 0.0
C1452 C 0.62328 0.87544 0.36355 0.0
N1453 N 0.59239 0.78459 0.37304 0.0
C1454 C 0.56948 0.79291 0.37043 0.0
C1455 C 0.55158 0.73379 0.38366 0.0
C1456 C 0.52748 0.74131 0.37983 0.0
C1457 C 0.58417 0.75606 0.38051 0.0
C1458 C 0.53633 0.77143 0.37353 0.0
H1459 H 0.50226 0.72411 0.3824 0.0
O1460 O 0.65374 0.80923 0.39433 0.0
O1461 O 0.689 0.82246 0.35369 0.0
O1462 O 0.65347 0.78464 0.32564 0.0
O1463 O 0.61541 0.78227 0.34763 0.0
O1464 O 0.66258 0.78719 0.37258 0.0
O1465 O 0.65767 0.85442 0.38998 0.0
O1466 O 0.69072 0.85163 0.29629 0.0
O1467 O 0.6522 0.83439 0.33614 0.0
O1468 O 0.68751 0.87313 0.36307 0.0
O1469 O 0.72705 0.87161 0.34438 0.0
O1470 O 0.68096 0.87148 0.31868 0.0
O1471 O 0.68395 0.80496 0.29914 0.0
C1472 C 0.68787 0.79925 0.36187 0.0
C1473 C 0.51334 0.78108 0.37102 0.0
C1474 C 0.5236 0.81234 0.36658 0.0
C1475 C 0.65756 0.83465 0.40216 0.0
C1476 C 0.63922 0.83031 0.41957 0.0
C1477 C 0.60569 0.819 0.4193 0.0
C1478 C 0.65545 0.83663 0.43677 0.0
C1479 C 0.63831 0.83141 0.45374 0.0
C1480 C 0.58849 0.81363 0.4361 0.0
C1481 C 0.60461 0.81966 0.45325 0.0
C1482 C 0.62437 0.7704 0.33376 0.0
C1483 C 0.65453 0.8585 0.32842 0.0
C1484 C 0.6855 0.82629 0.28766 0.0
C1485 C 0.70344 0.83093 0.27006 0.0
C1486 C 0.73714 0.84321 0.26993 0.0
C1487 C 0.68659 0.82401 0.25304 0.0
C1488 C 0.70325 0.82959 0.23586 0.0
C1489 C 0.75386 0.84886 0.25294 0.0
C1490 C 0.7371 0.84223 0.23597 0.0
C1491 C 0.71787 0.88543 0.35692 0.0
H1492 H 0.59283 0.81424 0.40619 0.0
H1493 H 0.68135 0.8452 0.43694 0.0
H1494 H 0.56259 0.80483 0.43582 0.0
H1495 H 0.59086 0.81566 0.4661 0.0
H1496 H 0.7505 0.84859 0.28289 0.0
H1497 H 0.66056 0.81476 0.25318 0.0
H1498 H 0.77989 0.8584 0.25291 0.0
H1499 H 0.75052 0.84651 0.22296 0.0
Gd1500 Gd 0.15626 0.8358 0.32035 0.0
Gd1501 Gd 0.18249 0.82166 0.36562 0.0
C1502 C 0.28435 0.83417 0.36629 0.0
C1503 C 0.27335 0.78155 0.37333 0.0
C1504 C 0.22898 0.79253 0.37097 0.0
C1505 C 0.25075 0.82344 0.36694 0.0
C1506 C 0.24007 0.7714 0.37481 0.0
C1507 C 0.29547 0.81289 0.36904 0.0
C1508 C 0.30575 0.86605 0.36326 0.0
C1509 C 0.29351 0.88643 0.36148 0.0
N1510 N 0.23915 0.84331 0.36439 0.0
C1511 C 0.25995 0.87462 0.36219 0.0
H1512 H 0.25081 0.89056 0.36062 0.0
C1513 C 0.17546 0.755 0.37972 0.0
N1514 N 0.19711 0.78367 0.37248 0.0
C1515 C 0.18515 0.73304 0.38353 0.0
C1516 C 0.21752 0.74111 0.38075 0.0
H1517 H 0.15049 0.74889 0.38203 0.0
H1518 H 0.32115 0.8206 0.36835 0.0
H1519 H 0.13409 0.78398 0.28562 0.0
H1520 H 0.33173 0.87522 0.3626 0.0
H1521 H 0.30986 0.91119 0.35939 0.0
H1522 H 0.28232 0.76559 0.376 0.0
H1523 H 0.1361 0.88405 0.34277 0.0
H1524 H 0.03066 0.73733 0.28014 0.0
H1525 H 0.08373 0.74382 0.27039 0.0
H1526 H 1.00101 0.79655 0.32065 0.0
H1527 H 0.1677 0.71002 0.38869 0.0
H1528 H 0.22504 0.72417 0.38386 0.0
H1529 H 0.99988 0.757 0.29916 0.0
H1530 H 0.08724 0.88674 0.35043 0.0
N1531 N 0.10941 0.79791 0.30479 0.0
C1532 C 0.05263 0.75459 0.28701 0.0
C1533 C 0.08251 0.75817 0.28148 0.0
C1534 C 0.05169 0.77456 0.30061 0.0
C1535 C 0.08101 0.79666 0.3091 0.0
C1536 C 0.1109 0.78069 0.2902 0.0
N1537 N 0.11087 0.84132 0.32765 0.0
C1538 C 0.08178 0.81921 0.32083 0.0
C1539 C 0.08531 0.86753 0.34214 0.0
C1540 C 0.05505 0.84418 0.33592 0.0
C1541 C 0.11311 0.86584 0.33777 0.0
C1542 C 0.05303 0.81987 0.32488 0.0
H1543 H 0.03354 0.84547 0.3394 0.0
O1544 O 0.16019 0.87436 0.30343 0.0
O1545 O 0.19897 0.8419 0.33699 0.0
O1546 O 0.1916 0.87076 0.36503 0.0
O1547 O 0.18526 0.88307 0.33435 0.0
O1548 O 0.19207 0.82196 0.31042 0.0
O1549 O 0.17787 0.84502 0.29245 0.0
O1550 O 0.15688 0.80726 0.39236 0.0
O1551 O 0.14408 0.827 0.35085 0.0
O1552 O 0.1381 0.78386 0.32324 0.0
O1553 O 0.16856 0.77921 0.34765 0.0
O1554 O 0.12915 0.78731 0.36726 0.0
O1555 O 0.20334 0.84942 0.39074 0.0
C1556 C 0.21051 0.83104 0.32493 0.0
C1557 C 0.02339 0.79668 0.31748 0.0
C1558 C 0.02272 0.77409 0.30532 0.0
C1559 C 0.17093 0.86672 0.28866 0.0
C1560 C 0.15469 0.86398 0.27041 0.0
C1561 C 0.12961 0.87113 0.26909 0.0
C1562 C 0.16424 0.85422 0.25408 0.0
C1563 C 0.14868 0.85134 0.23672 0.0
C1564 C 0.11449 0.86875 0.25198 0.0
C1565 C 0.1239 0.85906 0.23596 0.0
C1566 C 0.19362 0.89072 0.35207 0.0
C1567 C 0.11929 0.80259 0.35714 0.0
C1568 C 0.17964 0.83039 0.40162 0.0
C1569 C 0.18849 0.82271 0.4198 0.0
C1570 C 0.20783 0.80869 0.4208 0.0
C1571 C 0.17719 0.82941 0.43642 0.0
C1572 C 0.18497 0.82201 0.45405 0.0
C1573 C 0.21546 0.80107 0.43819 0.0
C1574 C 0.20411 0.8076 0.45471 0.0
C1575 C 0.14885 0.76804 0.33308 0.0
H1576 H 0.12163 0.87862 0.28127 0.0
H1577 H 0.18333 0.84835 0.25499 0.0
H1578 H 0.09532 0.8745 0.25112 0.0
H1579 H 0.11184 0.85788 0.22288 0.0
H1580 H 0.21712 0.80373 0.40822 0.0
H1581 H 0.16214 0.84017 0.4356 0.0
H1582 H 0.23042 0.79025 0.43887 0.0
H1583 H 0.21091 0.80198 0.46801 0.0
Gd1584 Gd 0.85093 0.68727 0.70059 0.0
Gd1585 Gd 0.8227 0.63882 0.65749 0.0
C1586 C 0.72284 0.55096 0.65486 0.0
C1587 C 0.73679 0.50994 0.65218 0.0
C1588 C 0.77926 0.56447 0.65366 0.0
C1589 C 0.75615 0.57352 0.65514 0.0
C1590 C 0.7699 0.53263 0.65176 0.0
C1591 C 0.7133 0.51909 0.65375 0.0
C1592 C 0.70017 0.56116 0.65528 0.0
C1593 C 0.71096 0.59316 0.65531 0.0
N1594 N 0.76626 0.6045 0.65609 0.0
C1595 C 0.74427 0.61463 0.65544 0.0
H1596 H 0.75218 0.63926 0.65556 0.0
C1597 C 0.83457 0.57953 0.6497 0.0
N1598 N 0.81095 0.58699 0.65324 0.0
C1599 C 0.82653 0.54827 0.64783 0.0
C1600 C 0.79407 0.52467 0.64908 0.0
H1601 H 0.85971 0.5977 0.64885 0.0
H1602 H 0.68783 0.50139 0.65369 0.0
H1603 H 0.92293 0.68945 0.70106 0.0
H1604 H 0.67435 0.54458 0.65517 0.0
H1605 H 0.69363 0.60133 0.65529 0.0
H1606 H 0.7291 0.48533 0.65091 0.0
H1607 H 0.81302 0.72572 0.71364 0.0
H1608 H 0.99866 0.78498 0.70137 0.0
H1609 H 0.98104 0.7286 0.7006 0.0
H1610 H 0.94112 0.84097 0.70965 0.0
H1611 H 0.84536 0.5424 0.64545 0.0
H1612 H 0.78789 0.50047 0.64757 0.0
H1613 H 0.98349 0.82687 0.70452 0.0
H1614 H 0.82571 0.78014 0.71888 0.0
N1615 N 0.90726 0.72306 0.70141 0.0
C1616 C 0.973 0.76784 0.70153 0.0
C1617 C 0.96316 0.73605 0.70116 0.0
C1618 C 0.94961 0.77707 0.70284 0.0
C1619 C 0.91654 0.75378 0.7029 0.0
C1620 C 0.93004 0.71386 0.70145 0.0
N1621 N 0.86162 0.73837 0.70675 0.0
C1622 C 0.89288 0.76171 0.70569 0.0
C1623 C 0.84484 0.77532 0.71506 0.0
C1624 C 0.87674 0.79981 0.71303 0.0
C1625 C 0.83774 0.74452 0.71211 0.0
C1626 C 0.90135 0.79313 0.70861 0.0
H1627 H 0.88221 0.82364 0.7154 0.0
O1628 O 0.82495 0.67777 0.72718 0.0
O1629 O 0.81115 0.64538 0.68674 0.0
O1630 O 0.8095 0.67711 0.65751 0.0
O1631 O 0.84187 0.71587 0.67928 0.0
O1632 O 0.79771 0.6717 0.70285 0.0
O1633 O 0.86895 0.67539 0.72551 0.0
O1634 O 0.84851 0.64459 0.63121 0.0
O1635 O 0.86219 0.68123 0.67106 0.0
O1636 O 0.86628 0.65052 0.69896 0.0
O1637 O 0.8286 0.61018 0.68016 0.0
O1638 O 0.87594 0.65458 0.65538 0.0
O1639 O 0.80608 0.64993 0.6317 0.0
C1640 C 0.78692 0.64674 0.69287 0.0
C1641 C 0.93412 0.81664 0.70764 0.0
C1642 C 0.95823 0.80861 0.70473 0.0
C1643 C 0.84587 0.67331 0.73639 0.0
C1644 C 0.85558 0.68839 0.75492 0.0
C1645 C 0.87606 0.72082 0.75622 0.0
C1646 C 0.8436 0.67039 0.77147 0.0
C1647 C 0.85157 0.68487 0.78925 0.0
C1648 C 0.88427 0.73522 0.77374 0.0
C1649 C 0.87206 0.71749 0.79012 0.0
C1650 C 0.8223 0.70569 0.66456 0.0
C1651 C 0.88648 0.68002 0.66488 0.0
C1652 C 0.82878 0.64997 0.62135 0.0
C1653 C 0.8189 0.63418 0.60301 0.0
C1654 C 0.8007 0.6015 0.60212 0.0
C1655 C 0.82795 0.65188 0.58623 0.0
C1656 C 0.81851 0.63691 0.56861 0.0
C1657 C 0.79165 0.58656 0.58479 0.0
C1658 C 0.80041 0.60401 0.5682 0.0
C1659 C 0.85077 0.62092 0.69353 0.0
H1660 H 0.88555 0.73499 0.7437 0.0
H1661 H 0.82756 0.64533 0.7705 0.0
H1662 H 0.90008 0.76028 0.77464 0.0
H1663 H 0.87887 0.7293 0.80352 0.0
H1664 H 0.79357 0.58756 0.61481 0.0
H1665 H 0.84175 0.67718 0.58692 0.0
H1666 H 0.77772 0.56129 0.58421 0.0
H1667 H 0.79314 0.59165 0.55498 0.0
Gd1668 Gd 0.31336 0.15693 0.69775 0.0
Gd1669 Gd 0.36275 0.17029 0.65498 0.0
C1670 C 0.45347 0.16066 0.65502 0.0
C1671 C 0.49638 0.21437 0.65009 0.0
C1672 C 0.43995 0.2016 0.65116 0.0
C1673 C 0.43027 0.17052 0.65426 0.0
C1674 C 0.47304 0.22379 0.64857 0.0
C1675 C 0.48661 0.18286 0.65334 0.0
C1676 C 0.4426 0.12873 0.65706 0.0
C1677 C 0.40933 0.10748 0.65768 0.0
N1678 N 0.39805 0.14972 0.65576 0.0
C1679 C 0.38726 0.11839 0.65676 0.0
H1680 H 0.36166 0.10167 0.65739 0.0
C1681 C 0.42473 0.23936 0.64411 0.0
N1682 N 0.41675 0.20981 0.64961 0.0
C1683 C 0.45725 0.26227 0.64151 0.0
C1684 C 0.48156 0.25456 0.64399 0.0
H1685 H 0.40603 0.24547 0.64228 0.0
H1686 H 0.5048 0.17578 0.6541 0.0
H1687 H 0.31405 0.22541 0.69609 0.0
H1688 H 0.45963 0.12023 0.6578 0.0
H1689 H 0.40064 0.08268 0.65896 0.0
H1690 H 0.52196 0.23112 0.64834 0.0
H1691 H 0.27044 0.08159 0.7101 0.0
H1692 H 0.21587 0.20627 0.69527 0.0
H1693 H 0.27481 0.24411 0.69459 0.0
H1694 H 0.15404 0.0952 0.70408 0.0
H1695 H 0.46353 0.28584 0.63761 0.0
H1696 H 0.50673 0.27231 0.64189 0.0
H1697 H 0.1709 0.15053 0.69858 0.0
H1698 H 0.21298 0.04092 0.71462 0.0
N1699 N 0.27785 0.17726 0.69714 0.0
C1700 C 0.23302 0.19788 0.69595 0.0
C1701 C 0.26625 0.21932 0.69562 0.0
C1702 C 0.22232 0.16595 0.69772 0.0
C1703 C 0.24565 0.15627 0.69843 0.0
C1704 C 0.28846 0.20857 0.69649 0.0
N1705 N 0.25946 0.11714 0.70297 0.0
C1706 C 0.23613 0.12519 0.70143 0.0
C1707 C 0.21915 0.0645 0.71083 0.0
C1708 C 0.19472 0.07206 0.70838 0.0
C1709 C 0.25163 0.08757 0.70832 0.0
C1710 C 0.20307 0.10283 0.70392 0.0
H1711 H 0.16958 0.05418 0.71039 0.0
O1712 O 0.31836 0.14153 0.7254 0.0
O1713 O 0.35656 0.1578 0.68515 0.0
O1714 O 0.3223 0.1194 0.65815 0.0
O1715 O 0.28235 0.12043 0.6767 0.0
O1716 O 0.32986 0.12175 0.70347 0.0
O1717 O 0.32441 0.18777 0.72169 0.0
O1718 O 0.35703 0.18518 0.6273 0.0
O1719 O 0.31969 0.16976 0.66761 0.0
O1720 O 0.35367 0.20784 0.69478 0.0
O1721 O 0.39364 0.20747 0.67584 0.0
O1722 O 0.34698 0.20597 0.64945 0.0
O1723 O 0.35184 0.13935 0.63106 0.0
C1724 C 0.35565 0.1346 0.69319 0.0
C1725 C 0.1796 0.11208 0.70241 0.0
C1726 C 0.18921 0.14359 0.69929 0.0
C1727 C 0.32289 0.16697 0.7336 0.0
C1728 C 0.304 0.16246 0.75083 0.0
C1729 C 0.27066 0.15189 0.75009 0.0
C1730 C 0.31947 0.16814 0.76828 0.0
C1731 C 0.30177 0.16333 0.78504 0.0
C1732 C 0.25288 0.14684 0.7666 0.0
C1733 C 0.26824 0.15246 0.78398 0.0
C1734 C 0.29186 0.1068 0.66423 0.0
C1735 C 0.32124 0.19341 0.65978 0.0
C1736 C 0.35288 0.15987 0.61911 0.0
C1737 C 0.37185 0.16463 0.60185 0.0
C1738 C 0.40549 0.17669 0.6026 0.0
C1739 C 0.35638 0.15823 0.58434 0.0
C1740 C 0.37451 0.16441 0.56764 0.0
C1741 C 0.42358 0.18279 0.58611 0.0
C1742 C 0.40828 0.17689 0.56872 0.0
C1743 C 0.38405 0.22074 0.68855 0.0
H1744 H 0.25838 0.14748 0.73681 0.0
H1745 H 0.34536 0.17675 0.76876 0.0
H1746 H 0.22709 0.13851 0.76594 0.0
H1747 H 0.2538 0.14807 0.79658 0.0
H1748 H 0.41779 0.18154 0.61589 0.0
H1749 H 0.33038 0.14902 0.58371 0.0
H1750 H 0.44955 0.19219 0.58682 0.0
H1751 H 0.42276 0.18163 0.55609 0.0
Gd1752 Gd 0.82199 0.17041 0.65706 0.0
Gd1753 Gd 0.85314 0.15629 0.7012 0.0
C1754 C 0.95295 0.16436 0.70516 0.0
C1755 C 0.93891 0.11048 0.71092 0.0
C1756 C 0.89652 0.12409 0.70782 0.0
C1757 C 0.91965 0.155 0.70486 0.0
C1758 C 0.90585 0.10154 0.71128 0.0
C1759 C 0.96242 0.14184 0.70784 0.0
C1760 C 0.9757 0.19614 0.70311 0.0
C1761 C 0.96503 0.21775 0.70143 0.0
N1762 N 0.90961 0.17611 0.70234 0.0
C1763 C 0.93174 0.20732 0.70131 0.0
H1764 H 0.92395 0.22433 0.69988 0.0
C1765 C 0.84132 0.08678 0.71307 0.0
N1766 N 0.86486 0.11632 0.70813 0.0
C1767 C 0.84933 0.06354 0.71651 0.0
C1768 C 0.88172 0.07086 0.7154 0.0
H1769 H 0.81622 0.08091 0.71385 0.0
H1770 H 0.98787 0.14854 0.70794 0.0
H1771 H 0.75131 0.10235 0.65762 0.0
H1772 H 1.0015 0.20428 0.70317 0.0
H1773 H 0.98242 0.24244 0.70012 0.0
H1774 H 0.94657 0.09345 0.71338 0.0
H1775 H 0.85878 0.2459 0.64481 0.0
H1776 H 0.67368 0.12249 0.65589 0.0
H1777 H 0.69278 0.0842 0.65775 0.0
H1778 H 0.72854 0.23362 0.64698 0.0
H1779 H 0.83054 0.04001 0.71999 0.0
H1780 H 0.88788 0.05283 0.71812 0.0
H1781 H 0.68728 0.17841 0.65207 0.0
H1782 H 0.84442 0.28702 0.63938 0.0
N1783 N 0.76555 0.15062 0.65619 0.0
C1784 C 0.69948 0.13062 0.65582 0.0
C1785 C 0.71016 0.10894 0.65682 0.0
C1786 C 0.72222 0.16249 0.65418 0.0
C1787 C 0.75551 0.17183 0.65428 0.0
C1788 C 0.74345 0.11937 0.65672 0.0
N1789 N 0.81026 0.21055 0.6508 0.0
C1790 C 0.77862 0.20282 0.65148 0.0
C1791 C 0.82569 0.26346 0.64285 0.0
C1792 C 0.79335 0.25618 0.64436 0.0
C1793 C 0.83372 0.24012 0.64587 0.0
C1794 C 0.76926 0.22545 0.64844 0.0
H1795 H 0.78717 0.27428 0.64196 0.0
O1796 O 0.84551 0.1857 0.62989 0.0
O1797 O 0.863 0.16916 0.67109 0.0
O1798 O 0.86685 0.20722 0.69725 0.0
O1799 O 0.82728 0.20675 0.67785 0.0
O1800 O 0.87532 0.20557 0.65277 0.0
O1801 O 0.80334 0.1396 0.63293 0.0
O1802 O 0.82836 0.14196 0.72809 0.0
O1803 O 0.81188 0.15721 0.68713 0.0
O1804 O 0.80881 0.11952 0.66064 0.0
O1805 O 0.84754 0.11948 0.68067 0.0
O1806 O 0.80009 0.12036 0.70504 0.0
O1807 O 0.87185 0.18712 0.72536 0.0
C1808 C 0.88686 0.1925 0.66354 0.0
C1809 C 0.73622 0.21653 0.6491 0.0
C1810 C 0.71273 0.18509 0.652 0.0
C1811 C 0.82461 0.16023 0.62137 0.0
C1812 C 0.81228 0.1646 0.60339 0.0
C1813 C 0.79023 0.17562 0.60296 0.0
C1814 C 0.82306 0.15815 0.58645 0.0
C1815 C 0.81164 0.16244 0.56909 0.0
C1816 C 0.77909 0.18023 0.58585 0.0
C1817 C 0.78965 0.17371 0.56904 0.0
C1818 C 0.85014 0.22009 0.69068 0.0
C1819 C 0.78824 0.13324 0.69436 0.0
C1820 C 0.84953 0.16714 0.73671 0.0
C1821 C 0.86028 0.16229 0.75511 0.0
C1822 C 0.88128 0.15012 0.7564 0.0
C1823 C 0.84836 0.16875 0.7716 0.0
C1824 C 0.85709 0.16278 0.78937 0.0
C1825 C 0.89011 0.14423 0.77393 0.0
C1826 C 0.87807 0.1504 0.79031 0.0
C1827 C 0.8251 0.10642 0.66756 0.0
H1828 H 0.78169 0.18069 0.6158 0.0
H1829 H 0.83985 0.14931 0.58683 0.0
H1830 H 0.76217 0.18889 0.58561 0.0
H1831 H 0.78073 0.17769 0.55596 0.0
H1832 H 0.8907 0.14504 0.7439 0.0
H1833 H 0.83187 0.17788 0.77057 0.0
H1834 H 0.90634 0.13484 0.77484 0.0
H1835 H 0.88561 0.14592 0.80372 0.0
C1836 C 0.38618 0.89973 0.04331 0.0
C1837 C 0.36279 0.90693 0.05006 0.0
H1838 H 0.43308 0.91725 0.03031 0.0
C1839 C 0.36715 0.93676 0.04647 0.0
H1840 H 0.38342 0.87689 0.04589 0.0
C1841 C 0.39499 0.95945 0.03727 0.0
C1842 C 0.41939 0.95304 0.03154 0.0
H1843 H 0.34935 0.94285 0.05126 0.0
H1844 H 0.39813 0.98259 0.03536 0.0
C1845 C 0.41448 0.92274 0.0343 0.0
C1846 C 0.07008 0.43495 0.04587 0.0
C1847 C 0.10186 0.46059 0.04599 0.0
H1848 H 0.0198 0.41828 0.04018 0.0
C1849 C 0.10698 0.48988 0.03997 0.0
H1850 H 0.06535 0.41209 0.05041 0.0
C1851 C 0.08072 0.49352 0.03437 0.0
C1852 C 0.04898 0.46773 0.03411 0.0
H1853 H 0.13113 0.51014 0.04013 0.0
H1854 H 0.0852 0.51654 0.03044 0.0
C1855 C 0.04401 0.43848 0.04 0.0
C1856 C 0.50387 0.62044 0.03611 0.0
C1857 C 0.53204 0.63857 0.04669 0.0
H1858 H 0.47521 0.5781 0.02092 0.0
C1859 C 0.5536 0.62725 0.04969 0.0
H1860 H 0.48649 0.62818 0.03375 0.0
C1861 C 0.54693 0.59834 0.04252 0.0
C1862 C 0.51874 0.58023 0.03201 0.0
H1863 H 0.57583 0.64084 0.05747 0.0
H1864 H 0.56403 0.59033 0.04514 0.0
C1865 C 0.49734 0.59164 0.0288 0.0
C1866 C 0.91802 0.36479 0.97525 0.0
C1867 C 0.88472 0.35275 0.97887 0.0
H1868 H 0.96661 0.40251 0.97916 0.0
C1869 C 0.87526 0.37083 0.98955 0.0
H1870 H 0.92627 0.35139 0.96727 0.0
C1871 C 0.89842 0.40012 0.9964 0.0
C1872 C 0.93171 0.41208 0.99288 0.0
H1873 H 0.84985 0.36263 0.99234 0.0
H1874 H 0.89008 0.41352 1.00429 0.0
C1875 C 0.94122 0.3941 0.98214 0.0
C1876 C 0.63599 0.55914 0.9811 0.0
C1877 C 0.64128 0.53354 0.98087 0.0
H1878 H 0.60284 0.57569 0.98693 0.0
C1879 C 0.6163 0.50435 0.98724 0.0
H1880 H 0.65477 0.58194 0.97633 0.0
C1881 C 0.58629 0.50067 0.99304 0.0
C1882 C 0.58104 0.52633 0.9932 0.0
H1883 H 0.61952 0.48411 0.98704 0.0
H1884 H 0.56704 0.47761 0.99697 0.0
C1885 C 0.6063 0.55559 0.98722 0.0
C1886 C 0.47215 0.0797 0.95724 0.0
C1887 C 0.46358 0.09951 0.96675 0.0
H1888 H 0.48655 0.04507 0.95947 0.0
C1889 C 0.46406 0.09972 0.98653 0.0
H1890 H 0.47285 0.07932 0.94207 0.0
C1891 C 0.47284 0.08064 0.99648 0.0
C1892 C 0.48071 0.06055 0.98687 0.0
H1893 H 0.45697 0.11411 0.99442 0.0
H1894 H 0.47229 0.08077 0.01163 0.0
C1895 C 0.48029 0.06024 0.9672 0.0
C1896 C 0.63727 0.05815 0.98019 0.0
C1897 C 0.64145 0.08811 0.97736 0.0
H1898 H 0.60567 0.01114 0.98941 0.0
C1899 C 0.61698 0.09418 0.98352 0.0
H1900 H 0.6558 0.05287 0.97567 0.0
C1901 C 0.58795 0.07006 0.99121 0.0
C1902 C 0.58334 0.03973 0.99327 0.0
H1903 H 0.61952 0.11704 0.98139 0.0
H1904 H 0.56865 0.0748 0.99473 0.0
C1905 C 0.60862 0.0343 0.98807 0.0
C1906 C 0.9006 0.51272 0.98261 0.0
C1907 C 0.90731 0.54218 0.97587 0.0
H1908 H 0.92012 0.4854 0.99434 0.0
C1909 C 0.93883 0.56771 0.97798 0.0
H1910 H 0.8766 0.49258 0.98101 0.0
C1911 C 0.96344 0.56375 0.98585 0.0
C1912 C 0.95729 0.53415 0.99182 0.0
H1913 H 0.94471 0.59068 0.97295 0.0
H1914 H 0.98771 0.58376 0.9867 0.0
C1915 C 0.9255 0.50865 0.9903 0.0
C1916 C 0.44693 0.35984 0.97408 0.0
C1917 C 0.4694 0.34947 0.97645 0.0
H1918 H 0.43484 0.39537 0.9798 0.0
C1919 C 0.49747 0.36773 0.98708 0.0
H1920 H 0.42477 0.34608 0.96627 0.0
C1921 C 0.50301 0.39577 0.99506 0.0
C1922 C 0.4807 0.40626 0.9925 0.0
H1923 H 0.51552 0.36069 0.98895 0.0
H1924 H 0.52512 0.40949 1.00293 0.0
C1925 C 0.45259 0.38801 0.98194 0.0
C1926 C 0.09758 0.621 0.06115 0.0
C1927 C 0.1181 0.64663 0.04961 0.0
H1928 H 0.05916 0.57317 0.06258 0.0
C1929 C 0.11445 0.64273 0.03001 0.0
H1930 H 0.09975 0.62265 0.07626 0.0
C1931 C 0.09167 0.61406 0.02224 0.0
C1932 C 0.07151 0.58863 0.03379 0.0
H1933 H 0.12889 0.66196 0.02056 0.0
H1934 H 0.08932 0.61209 1.00718 0.0
C1935 C 0.07437 0.59249 0.05333 0.0
C1936 C 0.38173 0.47874 0.04111 0.0
C1937 C 0.35812 0.4492 0.04793 0.0
H1938 H 0.42978 0.50655 0.02953 0.0
C1939 C 0.36367 0.42393 0.04584 0.0
H1940 H 0.37822 0.4987 0.04262 0.0
C1941 C 0.39276 0.42829 0.03817 0.0
C1942 C 0.41722 0.45805 0.03236 0.0
H1943 H 0.34589 0.40085 0.05081 0.0
H1944 H 0.3967 0.40849 0.03749 0.0
C1945 C 0.4112 0.48321 0.03356 0.0
C1946 C 0.53999 0.89161 0.03494 0.0
C1947 C 0.54131 0.89146 0.05468 0.0
H1948 H 0.53058 0.91094 1.01043 0.0
C1949 C 0.53278 0.91083 0.06476 0.0
H1950 H 0.5469 0.87748 0.02664 0.0
C1951 C 0.52397 0.9303 0.05538 0.0
C1952 C 0.52284 0.93048 0.03572 0.0
H1953 H 0.53265 0.91087 0.07994 0.0
H1954 H 0.51773 0.94506 0.06356 0.0
C1955 C 0.5306 0.91077 0.02557 0.0
C1956 C 0.0564 0.22988 0.37627 0.0
C1957 C 0.0326 0.23633 0.3832 0.0
H1958 H 0.10352 0.24862 0.36345 0.0
C1959 C 0.03647 0.26612 0.38024 0.0
H1960 H 0.05398 0.20708 0.37842 0.0
C1961 C 0.06423 0.28947 0.37136 0.0
C1962 C 0.08892 0.28371 0.36536 0.0
H1963 H 0.01833 0.27159 0.38525 0.0
H1964 H 0.067 0.31254 0.36985 0.0
C1965 C 0.0846 0.25355 0.36762 0.0
C1966 C 0.73659 0.76232 0.37865 0.0
C1967 C 0.76854 0.78767 0.37841 0.0
H1968 H 0.68632 0.74616 0.37318 0.0
C1969 C 0.77403 0.81684 0.37191 0.0
H1970 H 0.7316 0.73956 0.38358 0.0
C1971 C 0.74801 0.82071 0.36623 0.0
C1972 C 0.71609 0.79525 0.36632 0.0
H1973 H 0.79833 0.8369 0.3718 0.0
H1974 H 0.75288 0.84373 0.36208 0.0
C1975 C 0.71071 0.76607 0.37266 0.0
C1976 C 0.22521 0.97832 0.35238 0.0
C1977 C 0.22466 0.98391 0.37172 0.0
H1978 H 0.21576 0.94439 0.33085 0.0
C1979 C 0.21371 0.9586 0.38423 0.0
H1980 H 0.23369 -0.00267 0.34236 0.0
C1981 C 0.20402 0.92868 0.37771 0.0
C1982 C 0.20455 0.92298 0.35843 0.0
H1983 H 0.21197 0.96169 0.39914 0.0
H1984 H 0.19554 0.90987 0.38788 0.0
C1985 C 0.21508 0.94807 0.34578 0.0
C1986 C 0.55745 0.68588 0.33118 0.0
C1987 C 0.5521 0.6816 0.31172 0.0
H1988 H 0.58491 0.71711 0.35332 0.0
C1989 C 0.57122 0.70699 0.29969 0.0
H1990 H 0.54389 0.66682 0.3409 0.0
C1991 C 0.59515 0.73561 0.30688 0.0
C1992 C 0.60002 0.73977 0.32627 0.0
H1993 H 0.56752 0.705 0.28467 0.0
H1994 H 0.60937 0.75474 0.29729 0.0
C1995 C 0.58101 0.71471 0.33835 0.0
C1996 C 0.28437 0.8226 0.31697 0.0
C1997 C 0.30767 0.85314 0.31152 0.0
H1998 H 0.23492 0.79162 0.32543 0.0
C1999 C 0.29929 0.87673 0.31217 0.0
H2000 H 0.29 0.80387 0.31639 0.0
C2001 C 0.26813 0.86984 0.31778 0.0
C2002 C 0.24473 0.83923 0.32286 0.0
H2003 H 0.31671 0.90044 0.30802 0.0
H2004 H 0.26194 0.8882 0.31756 0.0
C2005 C 0.25296 0.8156 0.3222 0.0
C2006 C 0.10872 0.39789 0.30114 0.0
C2007 C 0.12851 0.4305 0.30229 0.0
H2008 H 0.10133 0.35316 0.30909 0.0
C2009 C 0.15664 0.44292 0.31341 0.0
H2010 H 0.0865 0.38751 0.29309 0.0
C2011 C 0.165 0.42309 0.32289 0.0
C2012 C 0.14545 0.39048 0.32136 0.0
H2013 H 0.1726 0.46794 0.31447 0.0
H2014 H 0.18709 0.43331 0.33106 0.0
C2015 C 0.11714 0.37816 0.31047 0.0
C2016 C 0.28423 0.42495 0.31518 0.0
C2017 C 0.30846 0.41863 0.30891 0.0
H2018 H 0.23618 0.40592 0.32666 0.0
C2019 C 0.30436 0.38876 0.31195 0.0
H2020 H 0.28677 0.44778 0.31293 0.0
C2021 C 0.27589 0.36515 0.32011 0.0
C2022 C 0.25078 0.37079 0.32535 0.0
H2023 H 0.32279 0.38336 0.30741 0.0
H2024 H 0.27289 0.34198 0.32156 0.0
C2025 C 0.25538 0.40106 0.32313 0.0
C2026 C 0.57059 0.84232 0.31368 0.0
C2027 C 0.57784 0.87187 0.30683 0.0
H2028 H 0.58938 0.81454 0.32571 0.0
C2029 C 0.60958 0.89708 0.30882 0.0
H2030 H 0.54638 0.82243 0.3122 0.0
C2031 C 0.63387 0.89269 0.3167 0.0
C2032 C 0.62711 0.863 0.32285 0.0
H2033 H 0.61584 0.92015 0.30377 0.0
H2034 H 0.6583 0.91245 0.31752 0.0
C2035 C 0.59514 0.83782 0.32143 0.0
C2036 C 0.12342 0.68232 0.33197 0.0
C2037 C 0.12678 0.67802 0.31277 0.0
H2038 H 0.1273 0.71439 0.35346 0.0
C2039 C 0.13755 0.70367 0.3005 0.0
H2040 H 0.11492 0.66296 0.34174 0.0
C2041 C 0.14431 0.73278 0.3072 0.0
C2042 C 0.14063 0.73694 0.32628 0.0
H2043 H 0.14129 0.70141 0.28573 0.0
H2044 H 0.15335 0.75226 0.29752 0.0
C2045 C 0.13042 0.71164 0.33868 0.0
C2046 C 0.79936 0.95612 0.36848 0.0
C2047 C 0.79015 0.97439 0.37916 0.0
H2048 H 0.78393 0.91365 0.35333 0.0
C2049 C 0.75689 0.96328 0.38222 0.0
H2050 H 0.82474 0.96372 0.36608 0.0
C2051 C 0.73346 0.9345 0.37495 0.0
C2052 C 0.74268 0.91618 0.36436 0.0
H2053 H 0.74888 0.97696 0.39011 0.0
H2054 H 0.7081 0.92672 0.3776 0.0
C2055 C 0.77591 0.92734 0.36119 0.0
C2056 C 0.06043 0.81809 0.3843 0.0
C2057 C 0.03068 0.79104 0.38057 0.0
H2058 H 0.1119 0.84334 0.37928 0.0
C2059 C 0.02992 0.76941 0.36749 0.0
H2060 H 0.06167 0.83488 0.39452 0.0
C2061 C 0.05866 0.77409 0.35892 0.0
C2062 C 0.08849 0.80093 0.36285 0.0
H2063 H 0.00733 0.74817 0.36459 0.0
H2064 H 0.05776 0.75631 0.34963 0.0
C2065 C 0.08906 0.823 0.37552 0.0
C2066 C 0.20733 0.2449 0.39576 0.0
C2067 C 0.21854 0.2282 0.38508 0.0
H2068 H 0.18813 0.27601 0.3956 0.0
C2069 C 0.21752 0.2296 0.36536 0.0
H2070 H 0.20693 0.24388 0.41093 0.0
C2071 C 0.20579 0.24735 0.35662 0.0
C2072 C 0.19536 0.26444 0.36739 0.0
H2073 H 0.22651 0.21761 0.35661 0.0
H2074 H 0.20612 0.24869 0.34148 0.0
C2075 C 0.19623 0.26309 0.38701 0.0
C2076 C 0.72132 0.56571 0.70794 0.0
C2077 C 0.69724 0.5722 0.71429 0.0
H2078 H 0.7692 0.58447 0.69626 0.0
C2079 C 0.70135 0.60204 0.71113 0.0
H2080 H 0.71873 0.54288 0.71028 0.0
C2081 C 0.7297 0.62547 0.70276 0.0
C2082 C 0.75473 0.61971 0.69748 0.0
H2083 H 0.68304 0.60755 0.71574 0.0
H2084 H 0.73274 0.64864 0.70122 0.0
C2085 C 0.75007 0.58943 0.69981 0.0
C2086 C 0.44214 0.15384 0.70417 0.0
C2087 C 0.43711 0.12487 0.71077 0.0
H2088 H 0.42037 0.18 0.69394 0.0
C2089 C 0.40537 0.09914 0.7108 0.0
H2090 H 0.46625 0.17418 0.70419 0.0
C2091 C 0.37927 0.1023 0.70449 0.0
C2092 C 0.38418 0.13127 0.69806 0.0
H2093 H 0.40072 0.07652 0.71579 0.0
H2094 H 0.35508 0.08209 0.70485 0.0
C2095 C 0.41587 0.15712 0.69818 0.0
C2096 C 0.89205 0.29771 0.71585 0.0
C2097 C 0.8704 0.30888 0.71286 0.0
H2098 H 0.9027 0.26097 0.71119 0.0
C2099 C 0.84235 0.29085 0.70217 0.0
H2100 H 0.91414 0.31127 0.72376 0.0
C2101 C 0.83595 0.26216 0.6948 0.0
C2102 C 0.85743 0.25085 0.698 0.0
H2103 H 0.82493 0.29856 0.69984 0.0
H2104 H 0.81383 0.2486 0.68691 0.0
C2105 C 0.88557 0.26894 0.70856 0.0
C2106 C 0.21051 0.03554 0.65335 0.0
C2107 C 0.21965 0.01698 0.64293 0.0
H2108 H 0.22591 0.07847 0.66788 0.0
C2109 C 0.25288 0.02829 0.63954 0.0
H2110 H 0.18515 0.02783 0.65595 0.0
C2111 C 0.27636 0.05744 0.6464 0.0
C2112 C 0.26717 0.07591 0.65687 0.0
H2113 H 0.2608 0.01445 0.63175 0.0
H2114 H 0.30171 0.06535 0.64361 0.0
C2115 C 0.23395 0.06465 0.66018 0.0
C2116 C 0.95438 0.17376 0.65396 0.0
C2117 C 0.97908 0.20254 0.64686 0.0
H2118 H 0.90549 0.14761 0.66441 0.0
C2119 C 0.97376 0.22813 0.64662 0.0
H2120 H 0.95762 0.15354 0.65418 0.0
C2121 C 0.9443 0.22492 0.6529 0.0
C2122 C 0.91925 0.19603 0.65951 0.0
H2123 H 0.99235 0.25065 0.64136 0.0
H2124 H 0.94082 0.24499 0.65219 0.0
C2125 C 0.92458 0.17041 0.65994 0.0
C2126 C 0.79633 0.76554 0.65555 0.0
C2127 C 0.79514 0.76559 0.6358 0.0
H2128 H 0.80598 0.7466 0.68015 0.0
C2129 C 0.80388 0.74633 0.6258 0.0
H2130 H 0.78919 0.77955 0.66378 0.0
C2131 C 0.81293 0.72713 0.63526 0.0
C2132 C 0.81409 0.72718 0.65492 0.0
H2133 H 0.80406 0.74622 0.61062 0.0
H2134 H 0.81935 0.71242 0.62717 0.0
C2135 C 0.80599 0.7467 0.665 0.0
C2136 C 0.97187 0.72528 0.6465 0.0
C2137 C 0.97562 0.75497 0.6433 0.0
H2138 H 0.94085 0.67863 0.65639 0.0
C2139 C 0.95132 0.76119 0.64957 0.0
H2140 H 0.99037 0.72 0.64193 0.0
C2141 C 0.92267 0.7373 0.65769 0.0
C2142 C 0.91837 0.70715 0.66001 0.0
H2143 H 0.95365 0.7839 0.64718 0.0
H2144 H 0.90336 0.742 0.66129 0.0
C2145 C 0.94361 0.70168 0.6548 0.0
C2146 C 0.27554 0.2329 0.64269 0.0
C2147 C 0.24373 0.20778 0.64074 0.0
H2148 H 0.3246 0.24788 0.65056 0.0
C2149 C 0.23669 0.17797 0.64695 0.0
H2150 H 0.28167 0.25613 0.63802 0.0
C2151 C 0.26151 0.17316 0.65397 0.0
C2152 C 0.29357 0.19825 0.65529 0.0
H2153 H 0.21248 0.15812 0.64541 0.0
H2154 H 0.25586 0.14968 0.65763 0.0
C2155 C 0.30011 0.22819 0.64984 0.0
C2156 C 0.78326 0.02903 0.64219 0.0
C2157 C 0.80494 0.01784 0.64505 0.0
H2158 H 0.77258 0.06568 0.64705 0.0
C2159 C 0.83295 0.03575 0.6558 0.0
H2160 H 0.76113 0.01555 0.63431 0.0
C2161 C 0.83928 0.06433 0.66335 0.0
C2162 C 0.81784 0.07569 0.66021 0.0
H2163 H 0.85038 0.02803 0.65806 0.0
H2164 H 0.86133 0.07778 0.67132 0.0
C2165 C 0.78972 0.05771 0.6496 0.0
C2166 C 0.42232 0.29784 0.71476 0.0
C2167 C 0.45562 0.30957 0.71141 0.0
H2168 H 0.37369 0.26085 0.71015 0.0
C2169 C 0.46507 0.29187 0.70035 0.0
H2170 H 0.41412 0.31103 0.723 0.0
C2171 C 0.44185 0.26316 0.69288 0.0
C2172 C 0.40857 0.25144 0.69624 0.0
H2173 H 0.49049 0.29991 0.69772 0.0
H2174 H 0.45012 0.24997 0.6847 0.0
C2175 C 0.39909 0.26911 0.7073 0.0
C2176 C 0.71955 0.1488 0.70704 0.0
C2177 C 0.69585 0.11905 0.71353 0.0
H2178 H 0.7679 0.177 0.69596 0.0
C2179 C 0.70152 0.09388 0.71132 0.0
H2180 H 0.71593 0.16867 0.70869 0.0
C2181 C 0.73084 0.09853 0.70387 0.0
C2182 C 0.75537 0.12846 0.6984 0.0
H2183 H 0.68368 0.07069 0.7161 0.0
H2184 H 0.7349 0.0788 0.70312 0.0
C2185 C 0.74924 0.15354 0.69971 0.0
C2186 C 0.89495 0.59127 0.72371 0.0
C2187 C 0.87482 0.55872 0.72248 0.0
H2188 H 0.90329 0.63626 0.71555 0.0
C2189 C 0.84715 0.54666 0.71098 0.0
H2190 H 0.91682 0.60137 0.73207 0.0
C2191 C 0.83958 0.56678 0.70121 0.0
C2192 C 0.85942 0.59933 0.70284 0.0
H2193 H 0.83093 0.52169 0.70986 0.0
H2194 H 0.81781 0.55682 0.69276 0.0
C2195 C 0.88728 0.61131 0.71409 0.0
C2196 C 0.46572 0.95994 0.15931 0.0
C2197 C 0.48738 0.96681 0.17435 0.0
H2198 H 0.45878 0.97075 0.13115 0.0
C2199 C 0.51999 0.99012 0.17171 0.0
H2200 H 0.44053 0.94189 0.16071 0.0
C2201 C 0.53051 0.00641 0.15469 0.0
C2202 C 0.50877 -1e-05 0.13977 0.0
H2203 H 0.53738 -0.00365 0.18295 0.0
H2204 H 0.5558 0.02419 0.15327 0.0
C2205 C 0.47628 0.97625 0.14225 0.0
C2206 C 0.02543 0.53643 0.16021 0.0
C2207 C 0.01436 0.51436 0.17485 0.0
H2208 H 0.01839 0.54666 0.13202 0.0
C2209 C 0.98738 0.48459 0.17183 0.0
H2210 H 0.04631 0.55948 0.16215 0.0
C2211 C 0.97125 0.47731 0.15462 0.0
C2212 C 0.98213 0.49954 0.14006 0.0
H2213 H 0.97827 0.46725 0.18294 0.0
H2214 H 0.95032 0.4543 0.15267 0.0
C2215 C 0.00958 0.52904 0.14297 0.0
C2216 C 0.53237 0.5208 0.17196 0.0
C2217 C 0.50029 0.51346 0.17579 0.0
H2218 H 0.56573 0.51983 0.15219 0.0
C2219 C 0.47657 0.49814 0.16193 0.0
H2220 H 0.55117 0.53226 0.18239 0.0
C2221 C 0.48494 0.49081 0.14454 0.0
C2222 C 0.51713 0.49836 0.14073 0.0
H2223 H 0.45168 0.49233 0.16442 0.0
H2224 H 0.46617 0.47898 0.13414 0.0
C2225 C 0.54067 0.51338 0.15469 0.0
C2226 C 0.00919 0.50158 0.8541 0.0
C2227 C 0.98137 0.47203 0.85211 0.0
H2228 H 0.0476 0.53294 0.87218 0.0
C2229 C 0.97044 0.45138 0.86747 0.0
H2230 H 0.01825 0.51784 0.84243 0.0
C2231 C 0.98711 0.46004 0.88447 0.0
C2232 C 0.01527 0.48936 0.88636 0.0
H2233 H 0.94894 0.42853 0.86634 0.0
H2234 H 0.97833 0.44356 0.89604 0.0
C2235 C 0.02611 0.51009 0.87104 0.0
C2236 C 0.50188 0.45309 0.86569 0.0
C2237 C 0.5116 0.47397 0.85041 0.0
H2238 H 0.48436 0.44341 0.89403 0.0
C2239 C 0.51253 0.50269 0.85277 0.0
H2240 H 0.50122 0.4309 0.86441 0.0
C2241 C 0.50287 0.50986 0.86975 0.0
C2242 C 0.4923 0.4886 0.88486 0.0
H2243 H 0.51971 0.51923 0.84127 0.0
H2244 H 0.5034 0.53199 0.87101 0.0
C2245 C 0.49248 0.46036 0.88273 0.0
C2246 C 0.51702 0.00155 0.85152 0.0
C2247 C 0.51105 0.02654 0.84914 0.0
H2248 H 0.51423 0.96572 0.86976 0.0
C2249 C 0.49866 0.03534 0.8645 0.0
H2250 H 0.52634 0.99398 0.84001 0.0
C2251 C 0.49173 0.01911 0.88162 0.0
C2252 C 0.49664 0.99342 0.88376 0.0
H2253 H 0.49409 0.05468 0.86325 0.0
H2254 H 0.48152 0.02605 0.89299 0.0
C2255 C 0.50979 0.98516 0.86855 0.0
C2256 C 0.13452 0.29586 0.49232 0.0
C2257 C 0.15594 0.30249 0.50747 0.0
H2258 H 0.12833 0.30636 0.46392 0.0
C2259 C 0.18881 0.32509 0.50481 0.0
H2260 H 0.10912 0.27837 0.49373 0.0
C2261 C 0.19985 0.3409 0.48768 0.0
C2262 C 0.1784 0.33469 0.47262 0.0
H2263 H 0.20604 0.33114 0.51612 0.0
H2264 H 0.22534 0.35813 0.48625 0.0
C2265 C 0.14562 0.31167 0.47512 0.0
C2266 C 0.65931 0.82497 0.50423 0.0
C2267 C 0.68784 0.85381 0.50673 0.0
H2268 H 0.62113 0.79532 0.48547 0.0
C2269 C 0.70043 0.87478 0.49157 0.0
H2270 H 0.64899 0.80846 0.51573 0.0
C2271 C 0.6846 0.86726 0.4743 0.0
C2272 C 0.65567 0.83874 0.47189 0.0
H2273 H 0.72253 0.89707 0.49307 0.0
H2274 H 0.69462 0.88408 0.46294 0.0
C2275 C 0.64325 0.81759 0.487 0.0
C2276 C 0.16776 0.86762 0.49083 0.0
C2277 C 0.15737 0.84697 0.50623 0.0
H2278 H 0.18462 0.876 0.46238 0.0
C2279 C 0.1545 0.81739 0.50401 0.0
H2280 H 0.16988 0.89045 0.49201 0.0
C2281 C 0.16282 0.80905 0.48698 0.0
C2282 C 0.17401 0.83002 0.47174 0.0
H2283 H 0.14678 0.80101 0.51561 0.0
H2284 H 0.16071 0.78622 0.4858 0.0
C2285 C 0.1759 0.85922 0.47378 0.0
C2286 C 0.6803 0.8351 0.18562 0.0
C2287 C 0.65199 0.806 0.18336 0.0
H2288 H 0.71882 0.86535 0.20402 0.0
C2289 C 0.64016 0.78516 0.19862 0.0
H2290 H 0.69005 0.85153 0.17406 0.0
C2291 C 0.65655 0.79305 0.21572 0.0
C2292 C 0.68528 0.82184 0.21788 0.0
H2293 H 0.61824 0.76268 0.19732 0.0
H2294 H 0.64711 0.77631 0.22715 0.0
C2295 C 0.6969 0.84287 0.20269 0.0
C2296 C 0.19776 0.84 0.19785 0.0
C2297 C 0.17325 0.82043 0.18522 0.0
H2298 H 0.20946 0.86503 0.22394 0.0
C2299 C 0.14083 0.81071 0.19002 0.0
H2300 H 0.22299 0.84776 0.19477 0.0
C2301 C 0.13309 0.82017 0.20681 0.0
C2302 C 0.15749 0.84002 0.21935 0.0
H2303 H 0.12121 0.79605 0.18065 0.0
H2304 H 0.10776 0.81185 0.20993 0.0
C2305 C 0.18997 0.8496 0.21472 0.0
C2306 C 0.13704 0.32829 0.18582 0.0
C2307 C 0.16839 0.35325 0.18196 0.0
H2308 H 0.10535 0.29328 0.20533 0.0
C2309 C 0.19243 0.36172 0.19577 0.0
H2310 H 0.11797 0.32085 0.17548 0.0
C2311 C 0.18513 0.34576 0.21305 0.0
C2312 C 0.15374 0.32066 0.21679 0.0
H2313 H 0.21677 0.38095 0.19333 0.0
H2314 H 0.20418 0.35271 0.22335 0.0
C2315 C 0.12985 0.31226 0.20292 0.0
C2316 C 0.81413 0.66123 0.83798 0.0
C2317 C 0.81652 0.63448 0.8418 0.0
H2318 H 0.82312 0.69784 0.81852 0.0
C2319 C 0.82968 0.62375 0.82788 0.0
H2320 H 0.80438 0.67031 0.8484 0.0
C2321 C 0.84019 0.63945 0.81058 0.0
C2322 C 0.83836 0.66657 0.80698 0.0
H2323 H 0.83167 0.6031 0.83033 0.0
H2324 H 0.85049 0.63083 0.80021 0.0
C2325 C 0.82505 0.67714 0.82087 0.0
C2326 C 0.32604 0.19253 0.83481 0.0
C2327 C 0.35061 0.18529 0.83846 0.0
H2328 H 0.29185 0.19175 0.81515 0.0
C2329 C 0.35845 0.16992 0.82456 0.0
H2330 H 0.31908 0.20396 0.8453 0.0
C2331 C 0.3425 0.16256 0.80726 0.0
C2332 C 0.31828 0.17029 0.80354 0.0
H2333 H 0.37738 0.16418 0.82689 0.0
H2334 H 0.34908 0.15074 0.79683 0.0
C2335 C 0.31014 0.18518 0.81758 0.0
C2336 C 0.82512 0.15627 0.83916 0.0
C2337 C 0.82634 0.18514 0.84142 0.0
H2338 H 0.83371 0.12654 0.821 0.0
C2339 C 0.83595 0.20581 0.82604 0.0
H2340 H 0.81802 0.13989 0.85074 0.0
C2341 C 0.84498 0.19818 0.80899 0.0
C2342 C 0.8449 0.1698 0.80696 0.0
H2343 H 0.83683 0.2281 0.82725 0.0
H2344 H 0.85304 0.21497 0.79759 0.0
C2345 C 0.83443 0.14876 0.82217 0.0
C2346 C 0.3175 0.12131 0.5275 0.0
C2347 C 0.33042 0.14363 0.513 0.0
H2348 H 0.32111 0.11059 0.55625 0.0
C2349 C 0.35703 0.17328 0.51683 0.0
H2350 H 0.29683 0.09835 0.52496 0.0
C2351 C 0.37107 0.18016 0.53465 0.0
C2352 C 0.35845 0.15769 0.54907 0.0
H2353 H 0.36755 0.19086 0.5059 0.0
H2354 H 0.39193 0.20302 0.53714 0.0
C2355 C 0.33122 0.12837 0.54541 0.0
C2356 C 0.86347 0.1554 0.5305 0.0
C2357 C 0.84023 0.13926 0.51653 0.0
H2358 H 0.87271 0.17525 0.55813 0.0
C2359 C 0.80781 0.13113 0.51999 0.0
H2360 H 0.88861 0.16184 0.5283 0.0
C2361 C 0.79873 0.13865 0.53698 0.0
C2362 C 0.82179 0.15451 0.55106 0.0
H2363 H 0.78934 0.11902 0.50946 0.0
H2364 H 0.77344 0.13165 0.53918 0.0
C2365 C 0.8543 0.16278 0.54764 0.0
C2366 C 0.8648 0.69653 0.52964 0.0
C2367 C 0.84098 0.68725 0.5156 0.0
H2368 H 0.87641 0.68832 0.55747 0.0
C2369 C 0.80995 0.66164 0.51933 0.0
H2370 H 0.88887 0.71626 0.5273 0.0
C2371 C 0.80283 0.64582 0.53651 0.0
C2372 C 0.82646 0.65502 0.5506 0.0
H2373 H 0.79106 0.65354 0.50885 0.0
H2374 H 0.77856 0.62635 0.53878 0.0
C2375 C 0.85755 0.68074 0.547 0.0
loop_
_geom_bond_atom_site_label_1
_geom_bond_atom_site_label_2
_geom_bond_distance
_geom_bond_site_symmetry_2
_ccdc_geom_bond_type
C0 C1 1.391 . S
C0 C4 1.391 . S
C0 H42 0.948 . S
C1 C0 1.391 . S
C1 C2 1.391 . S
C2 C1 1.391 . S
C2 H58 0.947 . S
C2 C59 1.392 . S
C3 C4 1.391 . S
C3 C7 1.397 . S
C3 C59 1.419 . S
C4 C0 1.391 . S
C4 C3 1.391 . S
C4 C5 1.399 . S
C5 C4 1.399 . S
C5 C8 1.396 . S
C5 C17 1.453 . S
C5 C18 1.684 . S
H6 C30 0.948 . S
C7 C3 1.397 . S
C7 C8 1.394 . S
C7 C26 1.723 . S
C8 C5 1.396 . S
C8 C7 1.394 . S
C8 C38 1.723 . S
H9 C32 0.947 . S
H10 C33 0.948 . S
H11 C39 0.982 . S
H12 C40 0.979 . S
H13 C40 0.980 . S
H14 C40 0.983 . S
H15 C39 0.979 . S
H16 C39 0.977 . S
C17 C5 1.453 . S
C17 H46 0.982 . S
C17 H47 0.979 . S
C17 H48 0.977 . S
C18 C5 1.684 . S
C18 H43 0.979 . S
C18 H44 0.980 . S
C18 H45 0.983 . S
C19 C20 1.391 . S
C19 C24 1.391 . S
C19 H49 0.948 . S
C20 C19 1.391 . S
C20 C21 1.391 . S
C21 C20 1.391 . S
C21 C22 1.392 . S
C21 H50 0.947 . S
C22 C21 1.392 . S
C22 C23 1.419 . S
C22 H51 0.948 . S
C23 C22 1.419 . S
C23 C24 1.391 . S
C23 C27 1.397 . S
C24 C19 1.391 . S
C24 C23 1.391 . S
C24 C25 1.399 . S
C25 C24 1.399 . S
C25 C26 1.396 . S
C25 C28 1.453 . S
C25 C29 1.684 . S
C26 C7 1.723 . S
C26 C25 1.396 . S
C26 C27 1.394 . S
C27 C23 1.397 . S
C27 C26 1.394 . S
C27 C37 1.723 . S
C28 C25 1.453 . S
C28 H52 0.982 . S
C28 H53 0.979 . S
C28 H54 0.977 . S
C29 C25 1.684 . S
C29 H55 0.979 . S
C29 H56 0.980 . S
C29 H57 0.983 . S
C30 H6 0.948 . S
C30 C31 1.391 . S
C30 C35 1.391 . S
C31 C30 1.391 . S
C31 C32 1.391 . S
C32 H9 0.947 . S
C32 C31 1.391 . S
C32 C33 1.392 . S
C33 H10 0.948 . S
C33 C32 1.392 . S
C33 C34 1.419 . S
C34 C33 1.419 . S
C34 C35 1.391 . S
C34 C38 1.397 . S
C35 C30 1.391 . S
C35 C34 1.391 . S
C35 C36 1.399 . S
C36 C35 1.399 . S
C36 C37 1.396 . S
C36 C39 1.453 . S
C36 C40 1.684 . S
C37 C27 1.723 . S
C37 C36 1.396 . S
C37 C38 1.394 . S
C38 C8 1.723 . S
C38 C34 1.397 . S
C38 C37 1.394 . S
C39 H11 0.982 . S
C39 H15 0.979 . S
C39 H16 0.977 . S
C39 C36 1.453 . S
C40 H12 0.979 . S
C40 H13 0.980 . S
C40 H14 0.983 . S
C40 C36 1.684 . S
H41 C59 0.948 . S
H42 C0 0.948 . S
H43 C18 0.979 . S
H44 C18 0.980 . S
H45 C18 0.983 . S
H46 C17 0.982 . S
H47 C17 0.979 . S
H48 C17 0.977 . S
H49 C19 0.948 . S
H50 C21 0.947 . S
H51 C22 0.948 . S
H52 C28 0.982 . S
H53 C28 0.979 . S
H54 C28 0.977 . S
H55 C29 0.979 . S
H56 C29 0.980 . S
H57 C29 0.983 . S
H58 C2 0.947 . S
C59 C2 1.392 . S
C59 C3 1.419 . S
C59 H41 0.948 . S
C60 C61 1.391 . S
C60 C64 1.391 . S
C60 H102 0.948 . S
C61 C60 1.391 . S
C61 C62 1.391 . S
C62 C61 1.391 . S
C62 H118 0.947 1_655 S
C62 C119 1.392 . S
C63 C64 1.391 . S
C63 C67 1.397 . S
C63 C119 1.419 . S
C64 C60 1.391 . S
C64 C63 1.391 . S
C64 C65 1.399 . S
C65 C64 1.399 . S
C65 C68 1.396 . S
C65 C77 1.453 . S
C65 C78 1.684 . S
H66 C90 0.948 . S
C67 C63 1.397 . S
C67 C68 1.394 . S
C67 C86 1.723 . S
C68 C65 1.396 . S
C68 C67 1.394 . S
C68 C98 1.723 . S
H69 C92 0.947 . S
H70 C93 0.948 . S
H71 C99 0.982 . S
H72 C100 0.979 . S
H73 C100 0.980 . S
H74 C100 0.983 . S
H75 C99 0.979 . S
H76 C99 0.977 . S
C77 C65 1.453 . S
C77 H106 0.982 . S
C77 H107 0.979 . S
C77 H108 0.977 . S
C78 C65 1.684 . S
C78 H103 0.979 . S
C78 H104 0.980 . S
C78 H105 0.983 . S
C79 C80 1.391 . S
C79 C84 1.391 . S
C79 H109 0.948 . S
C80 C79 1.391 . S
C80 C81 1.391 . S
C81 C80 1.391 . S
C81 C82 1.392 . S
C81 H110 0.947 . S
C82 C81 1.392 . S
C82 C83 1.419 . S
C82 H111 0.948 . S
C83 C82 1.419 . S
C83 C84 1.391 . S
C83 C87 1.397 . S
C84 C79 1.391 . S
C84 C83 1.391 . S
C84 C85 1.399 . S
C85 C84 1.399 . S
C85 C86 1.396 . S
C85 C88 1.453 . S
C85 C89 1.684 . S
C86 C67 1.723 . S
C86 C85 1.396 . S
C86 C87 1.394 . S
C87 C83 1.397 . S
C87 C86 1.394 . S
C87 C97 1.723 . S
C88 C85 1.453 . S
C88 H112 0.982 . S
C88 H113 0.979 . S
C88 H114 0.977 . S
C89 C85 1.684 . S
C89 H115 0.979 . S
C89 H116 0.980 . S
C89 H117 0.983 . S
C90 H66 0.948 . S
C90 C91 1.391 . S
C90 C95 1.391 . S
C91 C90 1.391 . S
C91 C92 1.391 . S
C92 H69 0.947 . S
C92 C91 1.391 . S
C92 C93 1.392 . S
C93 H70 0.948 . S
C93 C92 1.392 . S
C93 C94 1.419 . S
C94 C93 1.419 . S
C94 C95 1.391 . S
C94 C98 1.397 . S
C95 C90 1.391 . S
C95 C94 1.391 . S
C95 C96 1.399 . S
C96 C95 1.399 . S
C96 C97 1.396 . S
C96 C99 1.453 . S
C96 C100 1.684 . S
C97 C87 1.723 . S
C97 C96 1.396 . S
C97 C98 1.394 . S
C98 C68 1.723 . S
C98 C94 1.397 . S
C98 C97 1.394 . S
C99 H71 0.982 . S
C99 H75 0.979 . S
C99 H76 0.977 . S
C99 C96 1.453 . S
C100 H72 0.979 . S
C100 H73 0.980 . S
C100 H74 0.983 . S
C100 C96 1.684 . S
H101 C119 0.948 . S
H102 C60 0.948 . S
H103 C78 0.979 . S
H104 C78 0.980 . S
H105 C78 0.983 . S
H106 C77 0.982 . S
H107 C77 0.979 . S
H108 C77 0.977 . S
H109 C79 0.948 . S
H110 C81 0.947 . S
H111 C82 0.948 . S
H112 C88 0.982 . S
H113 C88 0.979 . S
H114 C88 0.977 . S
H115 C89 0.979 . S
H116 C89 0.980 . S
H117 C89 0.983 . S
H118 C62 0.947 1_455 S
C119 C62 1.392 . S
C119 C63 1.419 . S
C119 H101 0.948 . S
C120 C121 1.420 . S
C120 C124 1.391 . S
C120 H162 0.948 . S
C121 C120 1.420 . S
C121 C122 1.389 . S
C122 C121 1.389 . S
C122 H178 0.947 1_655 S
C122 C179 1.392 . S
C123 C124 1.391 . S
C123 C127 1.397 . S
C123 C179 1.419 . S
C124 C120 1.391 . S
C124 C123 1.391 . S
C124 C125 1.399 . S
C125 C124 1.399 . S
C125 C128 1.396 . S
C125 C137 1.453 . S
C125 C138 1.684 . S
H126 C150 0.948 . S
C127 C123 1.397 . S
C127 C128 1.394 . S
C127 C146 1.723 . S
C128 C125 1.396 . S
C128 C127 1.394 . S
C128 C158 1.723 . S
H129 C152 0.947 . S
H130 C153 0.948 . S
H131 C159 0.982 . S
H132 C160 0.979 . S
H133 C160 0.980 . S
H134 C160 0.983 . S
H135 C159 0.979 . S
H136 C159 0.977 . S
C137 C125 1.453 . S
C137 H166 0.982 . S
C137 H167 0.979 . S
C137 H168 0.977 . S
C138 C125 1.684 . S
C138 H163 0.979 . S
C138 H164 0.980 . S
C138 H165 0.983 . S
C139 C140 1.391 . S
C139 C144 1.391 . S
C139 H169 0.948 . S
C140 C139 1.391 . S
C140 C141 1.391 . S
C141 C140 1.391 . S
C141 C142 1.392 . S
C141 H170 0.947 . S
C142 C141 1.392 . S
C142 C143 1.419 . S
C142 H171 0.948 . S
C143 C142 1.419 . S
C143 C144 1.391 . S
C143 C147 1.397 . S
C144 C139 1.391 . S
C144 C143 1.391 . S
C144 C145 1.399 . S
C145 C144 1.399 . S
C145 C146 1.396 . S
C145 C148 1.453 . S
C145 C149 1.684 . S
C146 C127 1.723 . S
C146 C145 1.396 . S
C146 C147 1.394 . S
C147 C143 1.397 . S
C147 C146 1.394 . S
C147 C157 1.723 . S
C148 C145 1.453 . S
C148 H172 0.982 . S
C148 H173 0.979 . S
C148 H174 0.977 . S
C149 C145 1.684 . S
C149 H175 0.979 . S
C149 H176 0.980 . S
C149 H177 0.983 . S
C150 H126 0.948 . S
C150 C151 1.391 . S
C150 C155 1.391 . S
C151 C150 1.391 . S
C151 C152 1.391 . S
C152 H129 0.947 . S
C152 C151 1.391 . S
C152 C153 1.392 . S
C153 H130 0.948 . S
C153 C152 1.392 . S
C153 C154 1.419 . S
C154 C153 1.419 . S
C154 C155 1.391 . S
C154 C158 1.397 . S
C155 C150 1.391 . S
C155 C154 1.391 . S
C155 C156 1.399 . S
C156 C155 1.399 . S
C156 C157 1.396 . S
C156 C159 1.453 . S
C156 C160 1.684 . S
C157 C147 1.723 . S
C157 C156 1.396 . S
C157 C158 1.394 . S
C158 C128 1.723 . S
C158 C154 1.397 . S
C158 C157 1.394 . S
C159 H131 0.982 . S
C159 H135 0.979 . S
C159 H136 0.977 . S
C159 C156 1.453 . S
C160 H132 0.979 . S
C160 H133 0.980 . S
C160 H134 0.983 . S
C160 C156 1.684 . S
H161 C179 0.948 . S
H162 C120 0.948 . S
H163 C138 0.979 . S
H164 C138 0.980 . S
H165 C138 0.983 . S
H166 C137 0.982 . S
H167 C137 0.979 . S
H168 C137 0.977 . S
H169 C139 0.948 . S
H170 C141 0.947 . S
H171 C142 0.948 . S
H172 C148 0.982 . S
H173 C148 0.979 . S
H174 C148 0.977 . S
H175 C149 0.979 . S
H176 C149 0.980 . S
H177 C149 0.983 . S
H178 C122 0.947 1_455 S
C179 C122 1.392 . S
C179 C123 1.419 . S
C179 H161 0.948 . S
C180 C181 1.391 . S
C180 C184 1.391 . S
C180 H222 0.948 . S
C181 C180 1.391 . S
C181 C182 1.391 . S
C182 C181 1.391 . S
C182 H238 0.947 . S
C182 C239 1.392 . S
C183 C184 1.391 . S
C183 C187 1.397 . S
C183 C239 1.419 . S
C184 C180 1.391 . S
C184 C183 1.391 . S
C184 C185 1.399 . S
C185 C184 1.399 . S
C185 C188 1.396 . S
C185 C197 1.453 . S
C185 C198 1.684 . S
H186 C210 0.948 1_655 S
C187 C183 1.397 . S
C187 C188 1.394 . S
C187 C206 1.723 . S
C188 C185 1.396 . S
C188 C187 1.394 . S
C188 C218 1.723 . S
H189 C212 0.947 . S
H190 C213 0.948 . S
H191 C219 0.982 . S
H192 C220 0.979 . S
H193 C220 0.980 . S
H194 C220 0.983 . S
H195 C219 0.979 . S
H196 C219 0.977 . S
C197 C185 1.453 . S
C197 H226 0.982 . S
C197 H227 0.979 . S
C197 H228 0.977 . S
C198 C185 1.684 . S
C198 H223 0.979 . S
C198 H224 0.980 . S
C198 H225 0.983 . S
C199 C200 1.391 . S
C199 C204 1.391 . S
C199 H229 0.948 . S
C200 C199 1.391 . S
C200 C201 1.391 . S
C201 C200 1.391 . S
C201 C202 1.392 . S
C201 H230 0.947 . S
C202 C201 1.392 . S
C202 C203 1.419 . S
C202 H231 0.948 . S
C203 C202 1.419 . S
C203 C204 1.391 . S
C203 C207 1.397 . S
C204 C199 1.391 . S
C204 C203 1.391 . S
C204 C205 1.399 . S
C205 C204 1.399 . S
C205 C206 1.396 . S
C205 C208 1.453 . S
C205 C209 1.684 . S
C206 C187 1.723 . S
C206 C205 1.396 . S
C206 C207 1.394 . S
C207 C203 1.397 . S
C207 C206 1.394 . S
C207 C217 1.723 . S
C208 C205 1.453 . S
C208 H232 0.982 . S
C208 H233 0.979 . S
C208 H234 0.977 . S
C209 C205 1.684 . S
C209 H235 0.979 . S
C209 H236 0.980 . S
C209 H237 0.983 . S
C210 H186 0.948 1_455 S
C210 C211 1.391 . S
C210 C215 1.391 . S
C211 C210 1.391 . S
C211 C212 1.391 . S
C212 H189 0.947 . S
C212 C211 1.391 . S
C212 C213 1.392 . S
C213 H190 0.948 . S
C213 C212 1.392 . S
C213 C214 1.419 . S
C214 C213 1.419 . S
C214 C215 1.391 . S
C214 C218 1.397 . S
C215 C210 1.391 . S
C215 C214 1.391 . S
C215 C216 1.399 . S
C216 C215 1.399 . S
C216 C217 1.396 . S
C216 C219 1.453 . S
C216 C220 1.684 . S
C217 C207 1.723 . S
C217 C216 1.396 . S
C217 C218 1.394 . S
C218 C188 1.723 . S
C218 C214 1.397 . S
C218 C217 1.394 . S
C219 H191 0.982 . S
C219 H195 0.979 . S
C219 H196 0.977 . S
C219 C216 1.453 . S
C220 H192 0.979 . S
C220 H193 0.980 . S
C220 H194 0.983 . S
C220 C216 1.684 . S
H221 C239 0.948 . S
H222 C180 0.948 . S
H223 C198 0.979 . S
H224 C198 0.980 . S
H225 C198 0.983 . S
H226 C197 0.982 . S
H227 C197 0.979 . S
H228 C197 0.977 . S
H229 C199 0.948 . S
H230 C201 0.947 . S
H231 C202 0.948 . S
H232 C208 0.982 . S
H233 C208 0.979 . S
H234 C208 0.977 . S
H235 C209 0.979 . S
H236 C209 0.980 . S
H237 C209 0.983 . S
H238 C182 0.947 . S
C239 C182 1.392 . S
C239 C183 1.419 . S
C239 H221 0.948 . S
C240 C241 1.391 . S
C240 C244 1.391 . S
C240 H282 0.948 . S
C241 C240 1.391 . S
C241 C242 1.391 . S
C242 C241 1.391 . S
C242 H298 0.947 . S
C242 C299 1.392 . S
C243 C244 1.391 . S
C243 C247 1.397 . S
C243 C299 1.419 . S
C244 C240 1.391 . S
C244 C243 1.391 . S
C244 C245 1.399 . S
C245 C244 1.399 . S
C245 C248 1.396 . S
C245 C257 1.453 . S
C245 C258 1.684 . S
H246 C270 0.948 . S
C247 C243 1.397 . S
C247 C248 1.394 . S
C247 C266 1.723 . S
C248 C245 1.396 . S
C248 C247 1.394 . S
C248 C278 1.723 . S
H249 C272 0.947 . S
H250 C273 0.948 . S
H251 C279 0.982 . S
H252 C280 0.979 . S
H253 C280 0.980 . S
H254 C280 0.983 . S
H255 C279 0.979 . S
H256 C279 0.977 . S
C257 C245 1.453 . S
C257 H286 0.982 . S
C257 H287 0.979 . S
C257 H288 0.977 . S
C258 C245 1.684 . S
C258 H283 0.979 . S
C258 H284 0.980 . S
C258 H285 0.983 . S
C259 C260 1.391 . S
C259 C264 1.391 . S
C259 H289 0.948 . S
C260 C259 1.391 . S
C260 C261 1.391 . S
C261 C260 1.391 . S
C261 C262 1.392 . S
C261 H290 0.947 . S
C262 C261 1.392 . S
C262 C263 1.419 . S
C262 H291 0.948 . S
C263 C262 1.419 . S
C263 C264 1.391 . S
C263 C267 1.397 . S
C264 C259 1.391 . S
C264 C263 1.391 . S
C264 C265 1.399 . S
C265 C264 1.399 . S
C265 C266 1.396 . S
C265 C268 1.453 . S
C265 C269 1.684 . S
C266 C247 1.723 . S
C266 C265 1.396 . S
C266 C267 1.394 . S
C267 C263 1.397 . S
C267 C266 1.394 . S
C267 C277 1.723 . S
C268 C265 1.453 . S
C268 H292 0.982 . S
C268 H293 0.979 . S
C268 H294 0.977 . S
C269 C265 1.684 . S
C269 H295 0.979 . S
C269 H296 0.980 . S
C269 H297 0.983 . S
C270 H246 0.948 . S
C270 C271 1.391 . S
C270 C275 1.391 . S
C271 C270 1.391 . S
C271 C272 1.391 . S
C272 H249 0.947 . S
C272 C271 1.391 . S
C272 C273 1.392 . S
C273 H250 0.948 . S
C273 C272 1.392 . S
C273 C274 1.419 . S
C274 C273 1.419 . S
C274 C275 1.391 . S
C274 C278 1.397 . S
C275 C270 1.391 . S
C275 C274 1.391 . S
C275 C276 1.399 . S
C276 C275 1.399 . S
C276 C277 1.396 . S
C276 C279 1.453 . S
C276 C280 1.684 . S
C277 C267 1.723 . S
C277 C276 1.396 . S
C277 C278 1.394 . S
C278 C248 1.723 . S
C278 C274 1.397 . S
C278 C277 1.394 . S
C279 H251 0.982 . S
C279 H255 0.979 . S
C279 H256 0.977 . S
C279 C276 1.453 . S
C280 H252 0.979 . S
C280 H253 0.980 . S
C280 H254 0.983 . S
C280 C276 1.684 . S
H281 C299 0.948 . S
H282 C240 0.948 . S
H283 C258 0.979 . S
H284 C258 0.980 . S
H285 C258 0.983 . S
H286 C257 0.982 . S
H287 C257 0.979 . S
H288 C257 0.977 . S
H289 C259 0.948 . S
H290 C261 0.947 . S
H291 C262 0.948 . S
H292 C268 0.982 . S
H293 C268 0.979 . S
H294 C268 0.977 . S
H295 C269 0.979 . S
H296 C269 0.980 . S
H297 C269 0.983 . S
H298 C242 0.947 . S
C299 C242 1.392 . S
C299 C243 1.419 . S
C299 H281 0.948 . S
C300 C301 1.391 . S
C300 C304 1.391 . S
C300 H342 0.948 . S
C301 C300 1.391 . S
C301 C302 1.391 . S
C302 C301 1.391 . S
C302 H358 0.947 1_455 S
C302 C359 1.392 . S
C303 C304 1.391 . S
C303 C307 1.397 . S
C303 C359 1.419 . S
C304 C300 1.391 . S
C304 C303 1.391 . S
C304 C305 1.399 . S
C305 C304 1.399 . S
C305 C308 1.396 . S
C305 C317 1.453 . S
C305 C318 1.684 . S
H306 C330 0.948 . S
C307 C303 1.397 . S
C307 C308 1.394 . S
C307 C326 1.723 . S
C308 C305 1.396 . S
C308 C307 1.394 . S
C308 C338 1.723 . S
H309 C332 0.947 . S
H310 C333 0.948 . S
H311 C339 0.982 . S
H312 C340 0.979 . S
H313 C340 0.980 . S
H314 C340 0.983 . S
H315 C339 0.979 . S
H316 C339 0.977 . S
C317 C305 1.453 . S
C317 H346 0.982 . S
C317 H347 0.979 . S
C317 H348 0.977 . S
C318 C305 1.684 . S
C318 H343 0.979 . S
C318 H344 0.980 . S
C318 H345 0.983 . S
C319 C320 1.391 . S
C319 C324 1.391 . S
C319 H349 0.948 . S
C320 C319 1.391 . S
C320 C321 1.391 . S
C321 C320 1.391 . S
C321 C322 1.392 . S
C321 H350 0.947 . S
C322 C321 1.392 . S
C322 C323 1.419 . S
C322 H351 0.948 . S
C323 C322 1.419 . S
C323 C324 1.391 . S
C323 C327 1.397 . S
C324 C319 1.391 . S
C324 C323 1.391 . S
C324 C325 1.399 . S
C325 C324 1.399 . S
C325 C326 1.396 . S
C325 C328 1.453 . S
C325 C329 1.684 . S
C326 C307 1.723 . S
C326 C325 1.396 . S
C326 C327 1.394 . S
C327 C323 1.397 . S
C327 C326 1.394 . S
C327 C337 1.723 . S
C328 C325 1.453 . S
C328 H352 0.982 . S
C328 H353 0.979 . S
C328 H354 0.977 . S
C329 C325 1.684 . S
C329 H355 0.979 . S
C329 H356 0.980 . S
C329 H357 0.983 . S
C330 H306 0.948 . S
C330 C331 1.391 . S
C330 C335 1.391 . S
C331 C330 1.391 . S
C331 C332 1.391 . S
C332 H309 0.947 . S
C332 C331 1.391 . S
C332 C333 1.392 . S
C333 H310 0.948 . S
C333 C332 1.392 . S
C333 C334 1.419 . S
C334 C333 1.419 . S
C334 C335 1.391 . S
C334 C338 1.397 . S
C335 C330 1.391 . S
C335 C334 1.391 . S
C335 C336 1.399 . S
C336 C335 1.399 . S
C336 C337 1.396 . S
C336 C339 1.453 . S
C336 C340 1.684 . S
C337 C327 1.723 . S
C337 C336 1.396 . S
C337 C338 1.394 . S
C338 C308 1.723 . S
C338 C334 1.397 . S
C338 C337 1.394 . S
C339 H311 0.982 . S
C339 H315 0.979 . S
C339 H316 0.977 . S
C339 C336 1.453 . S
C340 H312 0.979 . S
C340 H313 0.980 . S
C340 H314 0.983 . S
C340 C336 1.684 . S
H341 C359 0.948 . S
H342 C300 0.948 . S
H343 C318 0.979 . S
H344 C318 0.980 . S
H345 C318 0.983 . S
H346 C317 0.982 . S
H347 C317 0.979 . S
H348 C317 0.977 . S
H349 C319 0.948 . S
H350 C321 0.947 . S
H351 C322 0.948 . S
H352 C328 0.982 . S
H353 C328 0.979 . S
H354 C328 0.977 . S
H355 C329 0.979 . S
H356 C329 0.980 . S
H357 C329 0.983 . S
H358 C302 0.947 1_655 S
C359 C302 1.392 . S
C359 C303 1.419 . S
C359 H341 0.948 . S
C360 C361 1.391 . S
C360 C364 1.391 . S
C360 H402 0.948 . S
C361 C360 1.391 . S
C361 C362 1.391 . S
C362 C361 1.391 . S
C362 H418 0.947 . S
C362 C419 1.392 . S
C363 C364 1.391 . S
C363 C367 1.397 . S
C363 C419 1.419 . S
C364 C360 1.391 . S
C364 C363 1.391 . S
C364 C365 1.399 . S
C365 C364 1.399 . S
C365 C368 1.396 . S
C365 C377 1.453 . S
C365 C378 1.684 . S
H366 C390 0.948 . S
C367 C363 1.397 . S
C367 C368 1.394 . S
C367 C386 1.723 . S
C368 C365 1.396 . S
C368 C367 1.394 . S
C368 C398 1.723 . S
H369 C392 0.947 . S
H370 C393 0.948 . S
H371 C399 0.982 . S
H372 C400 0.979 . S
H373 C400 0.980 . S
H374 C400 0.983 . S
H375 C399 0.979 . S
H376 C399 0.977 . S
C377 C365 1.453 . S
C377 H406 0.982 . S
C377 H407 0.979 . S
C377 H408 0.977 . S
C378 C365 1.684 . S
C378 H403 0.979 . S
C378 H404 0.980 . S
C378 H405 0.983 . S
C379 C380 1.391 . S
C379 C384 1.391 . S
C379 H409 0.948 . S
C380 C379 1.391 . S
C380 C381 1.391 . S
C381 C380 1.391 . S
C381 C382 1.392 . S
C381 H410 0.947 . S
C382 C381 1.392 . S
C382 C383 1.419 . S
C382 H411 0.948 . S
C383 C382 1.419 . S
C383 C384 1.391 . S
C383 C387 1.397 . S
C384 C379 1.391 . S
C384 C383 1.391 . S
C384 C385 1.399 . S
C385 C384 1.399 . S
C385 C386 1.396 . S
C385 C388 1.453 . S
C385 C389 1.684 . S
C386 C367 1.723 . S
C386 C385 1.396 . S
C386 C387 1.394 . S
C387 C383 1.397 . S
C387 C386 1.394 . S
C387 C397 1.723 . S
C388 C385 1.453 . S
C388 H412 0.982 . S
C388 H413 0.979 . S
C388 H414 0.977 . S
C389 C385 1.684 . S
C389 H415 0.979 . S
C389 H416 0.980 . S
C389 H417 0.983 . S
C390 H366 0.948 . S
C390 C391 1.391 . S
C390 C395 1.391 . S
C391 C390 1.391 . S
C391 C392 1.391 . S
C392 H369 0.947 . S
C392 C391 1.391 . S
C392 C393 1.392 . S
C393 H370 0.948 . S
C393 C392 1.392 . S
C393 C394 1.419 . S
C394 C393 1.419 . S
C394 C395 1.391 . S
C394 C398 1.397 . S
C395 C390 1.391 . S
C395 C394 1.391 . S
C395 C396 1.399 . S
C396 C395 1.399 . S
C396 C397 1.396 . S
C396 C399 1.453 . S
C396 C400 1.684 . S
C397 C387 1.723 . S
C397 C396 1.396 . S
C397 C398 1.394 . S
C398 C368 1.723 . S
C398 C394 1.397 . S
C398 C397 1.394 . S
C399 H371 0.982 . S
C399 H375 0.979 . S
C399 H376 0.977 . S
C399 C396 1.453 . S
C400 H372 0.979 . S
C400 H373 0.980 . S
C400 H374 0.983 . S
C400 C396 1.684 . S
H401 C419 0.948 . S
H402 C360 0.948 . S
H403 C378 0.979 . S
H404 C378 0.980 . S
H405 C378 0.983 . S
H406 C377 0.982 . S
H407 C377 0.979 . S
H408 C377 0.977 . S
H409 C379 0.948 . S
H410 C381 0.947 . S
H411 C382 0.948 . S
H412 C388 0.982 . S
H413 C388 0.979 . S
H414 C388 0.977 . S
H415 C389 0.979 . S
H416 C389 0.980 . S
H417 C389 0.983 . S
H418 C362 0.947 . S
C419 C362 1.392 . S
C419 C363 1.419 . S
C419 H401 0.948 . S
C420 C421 1.391 . S
C420 C424 1.391 . S
C420 H462 0.948 . S
C421 C420 1.391 . S
C421 C422 1.391 . S
C422 C421 1.391 . S
C422 H478 0.947 . S
C422 C479 1.392 . S
C423 C424 1.391 . S
C423 C427 1.397 . S
C423 C479 1.419 . S
C424 C420 1.391 . S
C424 C423 1.391 . S
C424 C425 1.399 . S
C425 C424 1.399 . S
C425 C428 1.396 . S
C425 C437 1.453 . S
C425 C438 1.684 . S
H426 C450 0.948 . S
C427 C423 1.397 . S
C427 C428 1.394 . S
C427 C446 1.723 . S
C428 C425 1.396 . S
C428 C427 1.394 . S
C428 C458 1.723 . S
H429 C452 0.947 . S
H430 C453 0.948 . S
H431 C459 0.982 . S
H432 C460 0.979 . S
H433 C460 0.980 . S
H434 C460 0.983 . S
H435 C459 0.979 . S
H436 C459 0.977 . S
C437 C425 1.453 . S
C437 H466 0.982 . S
C437 H467 0.979 . S
C437 H468 0.977 . S
C438 C425 1.684 . S
C438 H463 0.979 . S
C438 H464 0.980 . S
C438 H465 0.983 . S
C439 C440 1.391 . S
C439 C444 1.391 . S
C439 H469 0.948 . S
C440 C439 1.391 . S
C440 C441 1.391 . S
C441 C440 1.391 . S
C441 C442 1.392 . S
C441 H470 0.947 . S
C442 C441 1.392 . S
C442 C443 1.419 . S
C442 H471 0.948 . S
C443 C442 1.419 . S
C443 C444 1.391 . S
C443 C447 1.397 . S
C444 C439 1.391 . S
C444 C443 1.391 . S
C444 C445 1.399 . S
C445 C444 1.399 . S
C445 C446 1.396 . S
C445 C448 1.453 . S
C445 C449 1.684 . S
C446 C427 1.723 . S
C446 C445 1.396 . S
C446 C447 1.394 . S
C447 C443 1.397 . S
C447 C446 1.394 . S
C447 C457 1.723 . S
C448 C445 1.453 . S
C448 H472 0.982 . S
C448 H473 0.979 . S
C448 H474 0.977 . S
C449 C445 1.684 . S
C449 H475 0.979 . S
C449 H476 0.980 . S
C449 H477 0.983 . S
C450 H426 0.948 . S
C450 C451 1.391 . S
C450 C455 1.391 . S
C451 C450 1.391 . S
C451 C452 1.391 . S
C452 H429 0.947 . S
C452 C451 1.391 . S
C452 C453 1.392 . S
C453 H430 0.948 . S
C453 C452 1.392 . S
C453 C454 1.419 . S
C454 C453 1.419 . S
C454 C455 1.391 . S
C454 C458 1.397 . S
C455 C450 1.391 . S
C455 C454 1.391 . S
C455 C456 1.399 . S
C456 C455 1.399 . S
C456 C457 1.396 . S
C456 C459 1.453 . S
C456 C460 1.684 . S
C457 C447 1.723 . S
C457 C456 1.396 . S
C457 C458 1.394 . S
C458 C428 1.723 . S
C458 C454 1.397 . S
C458 C457 1.394 . S
C459 H431 0.982 . S
C459 H435 0.979 . S
C459 H436 0.977 . S
C459 C456 1.453 . S
C460 H432 0.979 . S
C460 H433 0.980 . S
C460 H434 0.983 . S
C460 C456 1.684 . S
H461 C479 0.948 . S
H462 C420 0.948 . S
H463 C438 0.979 . S
H464 C438 0.980 . S
H465 C438 0.983 . S
H466 C437 0.982 . S
H467 C437 0.979 . S
H468 C437 0.977 . S
H469 C439 0.948 . S
H470 C441 0.947 . S
H471 C442 0.948 . S
H472 C448 0.982 . S
H473 C448 0.979 . S
H474 C448 0.977 . S
H475 C449 0.979 . S
H476 C449 0.980 . S
H477 C449 0.983 . S
H478 C422 0.947 . S
C479 C422 1.392 . S
C479 C423 1.419 . S
C479 H461 0.948 . S
C480 C481 1.391 . S
C480 C484 1.391 . S
C480 H522 0.948 . S
C481 C480 1.391 . S
C481 C482 1.391 . S
C482 C481 1.391 . S
C482 H538 0.947 . S
C482 C539 1.392 . S
C483 C484 1.391 . S
C483 C487 1.397 . S
C483 C539 1.419 . S
C484 C480 1.391 . S
C484 C483 1.391 . S
C484 C485 1.399 . S
C485 C484 1.399 . S
C485 C488 1.396 . S
C485 C497 1.453 . S
C485 C498 1.684 . S
H486 C510 0.948 . S
C487 C483 1.397 . S
C487 C488 1.394 . S
C487 C506 1.723 . S
C488 C485 1.396 . S
C488 C487 1.394 . S
C488 C518 1.723 . S
H489 C512 0.947 . S
H490 C513 0.948 . S
H491 C519 0.982 . S
H492 C520 0.979 . S
H493 C520 0.980 . S
H494 C520 0.983 . S
H495 C519 0.979 . S
H496 C519 0.977 . S
C497 C485 1.453 . S
C497 H526 0.982 . S
C497 H527 0.979 . S
C497 H528 0.977 . S
C498 C485 1.684 . S
C498 H523 0.979 . S
C498 H524 0.980 . S
C498 H525 0.983 . S
C499 C500 1.391 . S
C499 C504 1.391 . S
C499 H529 0.948 . S
C500 C499 1.391 . S
C500 C501 1.391 . S
C501 C500 1.391 . S
C501 C502 1.392 . S
C501 H530 0.947 . S
C502 C501 1.392 . S
C502 C503 1.419 . S
C502 H531 0.948 . S
C503 C502 1.419 . S
C503 C504 1.391 . S
C503 C507 1.397 . S
C504 C499 1.391 . S
C504 C503 1.391 . S
C504 C505 1.399 . S
C505 C504 1.399 . S
C505 C506 1.396 . S
C505 C508 1.453 . S
C505 C509 1.684 . S
C506 C487 1.723 . S
C506 C505 1.396 . S
C506 C507 1.394 . S
C507 C503 1.397 . S
C507 C506 1.394 . S
C507 C517 1.723 . S
C508 C505 1.453 . S
C508 H532 0.982 . S
C508 H533 0.979 . S
C508 H534 0.977 . S
C509 C505 1.684 . S
C509 H535 0.979 . S
C509 H536 0.980 . S
C509 H537 0.983 . S
C510 H486 0.948 . S
C510 C511 1.391 . S
C510 C515 1.391 . S
C511 C510 1.391 . S
C511 C512 1.391 . S
C512 H489 0.947 . S
C512 C511 1.391 . S
C512 C513 1.392 . S
C513 H490 0.948 . S
C513 C512 1.392 . S
C513 C514 1.419 . S
C514 C513 1.419 . S
C514 C515 1.391 . S
C514 C518 1.397 . S
C515 C510 1.391 . S
C515 C514 1.391 . S
C515 C516 1.399 . S
C516 C515 1.399 . S
C516 C517 1.396 . S
C516 C519 1.453 . S
C516 C520 1.684 . S
C517 C507 1.723 . S
C517 C516 1.396 . S
C517 C518 1.394 . S
C518 C488 1.723 . S
C518 C514 1.397 . S
C518 C517 1.394 . S
C519 H491 0.982 . S
C519 H495 0.979 . S
C519 H496 0.977 . S
C519 C516 1.453 . S
C520 H492 0.979 . S
C520 H493 0.980 . S
C520 H494 0.983 . S
C520 C516 1.684 . S
H521 C539 0.948 . S
H522 C480 0.948 . S
H523 C498 0.979 . S
H524 C498 0.980 . S
H525 C498 0.983 . S
H526 C497 0.982 . S
H527 C497 0.979 . S
H528 C497 0.977 . S
H529 C499 0.948 . S
H530 C501 0.947 . S
H531 C502 0.948 . S
H532 C508 0.982 . S
H533 C508 0.979 . S
H534 C508 0.977 . S
H535 C509 0.979 . S
H536 C509 0.980 . S
H537 C509 0.983 . S
H538 C482 0.947 . S
C539 C482 1.392 . S
C539 C483 1.419 . S
C539 H521 0.948 . S
C540 C541 1.391 . S
C540 C544 1.391 . S
C540 H582 0.948 . S
C541 C540 1.391 . S
C541 C542 1.391 . S
C542 C541 1.391 . S
C542 H598 0.947 . S
C542 C599 1.392 . S
C543 C544 1.391 . S
C543 C547 1.397 . S
C543 C599 1.419 . S
C544 C540 1.391 . S
C544 C543 1.391 . S
C544 C545 1.399 . S
C545 C544 1.399 . S
C545 C548 1.396 . S
C545 C557 1.453 . S
C545 C558 1.684 . S
H546 C570 0.948 . S
C547 C543 1.397 . S
C547 C548 1.394 . S
C547 C566 1.723 . S
C548 C545 1.396 . S
C548 C547 1.394 . S
C548 C578 1.723 . S
H549 C572 0.947 . S
H550 C573 0.948 . S
H551 C579 0.982 . S
H552 C580 0.979 . S
H553 C580 0.980 . S
H554 C580 0.983 . S
H555 C579 0.979 . S
H556 C579 0.977 . S
C557 C545 1.453 . S
C557 H586 0.982 . S
C557 H587 0.979 . S
C557 H588 0.977 . S
C558 C545 1.684 . S
C558 H583 0.979 . S
C558 H584 0.980 . S
C558 H585 0.983 . S
C559 C560 1.391 . S
C559 C564 1.391 . S
C559 H589 0.948 . S
C560 C559 1.391 . S
C560 C561 1.391 . S
C561 C560 1.391 . S
C561 C562 1.392 . S
C561 H590 0.947 . S
C562 C561 1.392 . S
C562 C563 1.419 . S
C562 H591 0.948 . S
C563 C562 1.419 . S
C563 C564 1.391 . S
C563 C567 1.397 . S
C564 C559 1.391 . S
C564 C563 1.391 . S
C564 C565 1.399 . S
C565 C564 1.399 . S
C565 C566 1.396 . S
C565 C568 1.453 . S
C565 C569 1.684 . S
C566 C547 1.723 . S
C566 C565 1.396 . S
C566 C567 1.394 . S
C567 C563 1.397 . S
C567 C566 1.394 . S
C567 C577 1.723 . S
C568 C565 1.453 . S
C568 H592 0.982 . S
C568 H593 0.979 . S
C568 H594 0.977 . S
C569 C565 1.684 . S
C569 H595 0.979 . S
C569 H596 0.980 . S
C569 H597 0.983 . S
C570 H546 0.948 . S
C570 C571 1.391 . S
C570 C575 1.391 . S
C571 C570 1.391 . S
C571 C572 1.391 . S
C572 H549 0.947 . S
C572 C571 1.391 . S
C572 C573 1.392 . S
C573 H550 0.948 . S
C573 C572 1.392 . S
C573 C574 1.419 . S
C574 C573 1.419 . S
C574 C575 1.391 . S
C574 C578 1.397 . S
C575 C570 1.391 . S
C575 C574 1.391 . S
C575 C576 1.399 . S
C576 C575 1.399 . S
C576 C577 1.396 . S
C576 C579 1.453 . S
C576 C580 1.684 . S
C577 C567 1.723 . S
C577 C576 1.396 . S
C577 C578 1.394 . S
C578 C548 1.723 . S
C578 C574 1.397 . S
C578 C577 1.394 . S
C579 H551 0.982 . S
C579 H555 0.979 . S
C579 H556 0.977 . S
C579 C576 1.453 . S
C580 H552 0.979 . S
C580 H553 0.980 . S
C580 H554 0.983 . S
C580 C576 1.684 . S
H581 C599 0.948 . S
H582 C540 0.948 . S
H583 C558 0.979 . S
H584 C558 0.980 . S
H585 C558 0.983 . S
H586 C557 0.982 . S
H587 C557 0.979 . S
H588 C557 0.977 . S
H589 C559 0.948 . S
H590 C561 0.947 . S
H591 C562 0.948 . S
H592 C568 0.982 . S
H593 C568 0.979 . S
H594 C568 0.977 . S
H595 C569 0.979 . S
H596 C569 0.980 . S
H597 C569 0.983 . S
H598 C542 0.947 . S
C599 C542 1.392 . S
C599 C543 1.419 . S
C599 H581 0.948 . S
C600 C601 1.391 . S
C600 C604 1.391 . S
C600 H642 0.948 . S
C601 C600 1.391 . S
C601 C602 1.391 . S
C602 C601 1.391 . S
C602 H658 0.947 . S
C602 C659 1.392 . S
C603 C604 1.391 . S
C603 C607 1.397 . S
C603 C659 1.419 . S
C604 C600 1.391 . S
C604 C603 1.391 . S
C604 C605 1.399 . S
C605 C604 1.399 . S
C605 C608 1.396 . S
C605 C617 1.453 . S
C605 C618 1.684 . S
H606 C630 0.948 . S
C607 C603 1.397 . S
C607 C608 1.394 . S
C607 C626 1.723 . S
C608 C605 1.396 . S
C608 C607 1.394 . S
C608 C638 1.723 . S
H609 C632 0.947 . S
H610 C633 0.948 . S
H611 C639 0.982 . S
H612 C640 0.979 . S
H613 C640 0.980 . S
H614 C640 0.983 . S
H615 C639 0.979 . S
H616 C639 0.977 . S
C617 C605 1.453 . S
C617 H646 0.982 . S
C617 H647 0.979 . S
C617 H648 0.977 . S
C618 C605 1.684 . S
C618 H643 0.979 . S
C618 H644 0.980 . S
C618 H645 0.983 . S
C619 C620 1.391 . S
C619 C624 1.391 . S
C619 H649 0.948 . S
C620 C619 1.391 . S
C620 C621 1.391 . S
C621 C620 1.391 . S
C621 C622 1.392 . S
C621 H650 0.947 . S
C622 C621 1.392 . S
C622 C623 1.419 . S
C622 H651 0.948 . S
C623 C622 1.419 . S
C623 C624 1.391 . S
C623 C627 1.397 . S
C624 C619 1.391 . S
C624 C623 1.391 . S
C624 C625 1.399 . S
C625 C624 1.399 . S
C625 C626 1.396 . S
C625 C628 1.453 . S
C625 C629 1.684 . S
C626 C607 1.723 . S
C626 C625 1.396 . S
C626 C627 1.394 . S
C627 C623 1.397 . S
C627 C626 1.394 . S
C627 C637 1.723 . S
C628 C625 1.453 . S
C628 H652 0.982 . S
C628 H653 0.979 . S
C628 H654 0.977 . S
C629 C625 1.684 . S
C629 H655 0.979 . S
C629 H656 0.980 . S
C629 H657 0.983 . S
C630 H606 0.948 . S
C630 C631 1.391 . S
C630 C635 1.391 . S
C631 C630 1.391 . S
C631 C632 1.391 . S
C632 H609 0.947 . S
C632 C631 1.391 . S
C632 C633 1.392 . S
C633 H610 0.948 . S
C633 C632 1.392 . S
C633 C634 1.419 . S
C634 C633 1.419 . S
C634 C635 1.391 . S
C634 C638 1.397 . S
C635 C630 1.391 . S
C635 C634 1.391 . S
C635 C636 1.399 . S
C636 C635 1.399 . S
C636 C637 1.396 . S
C636 C639 1.453 . S
C636 C640 1.684 . S
C637 C627 1.723 . S
C637 C636 1.396 . S
C637 C638 1.394 . S
C638 C608 1.723 . S
C638 C634 1.397 . S
C638 C637 1.394 . S
C639 H611 0.982 . S
C639 H615 0.979 . S
C639 H616 0.977 . S
C639 C636 1.453 . S
C640 H612 0.979 . S
C640 H613 0.980 . S
C640 H614 0.983 . S
C640 C636 1.684 . S
H641 C659 0.948 . S
H642 C600 0.948 . S
H643 C618 0.979 . S
H644 C618 0.980 . S
H645 C618 0.983 . S
H646 C617 0.982 . S
H647 C617 0.979 . S
H648 C617 0.977 . S
H649 C619 0.948 . S
H650 C621 0.947 . S
H651 C622 0.948 . S
H652 C628 0.982 . S
H653 C628 0.979 . S
H654 C628 0.977 . S
H655 C629 0.979 . S
H656 C629 0.980 . S
H657 C629 0.983 . S
H658 C602 0.947 . S
C659 C602 1.392 . S
C659 C603 1.419 . S
C659 H641 0.948 . S
C660 C661 1.391 . S
C660 C664 1.391 . S
C660 H702 0.948 . S
C661 C660 1.391 . S
C661 C662 1.391 . S
C662 C661 1.391 . S
C662 H718 0.947 . S
C662 C719 1.392 . S
C663 C664 1.391 . S
C663 C667 1.397 . S
C663 C719 1.419 . S
C664 C660 1.391 . S
C664 C663 1.391 . S
C664 C665 1.399 . S
C665 C664 1.399 . S
C665 C668 1.396 . S
C665 C677 1.453 . S
C665 C678 1.684 . S
H666 C690 0.948 . S
C667 C663 1.397 . S
C667 C668 1.394 . S
C667 C686 1.723 . S
C668 C665 1.396 . S
C668 C667 1.394 . S
C668 C698 1.723 . S
H669 C692 0.947 . S
H670 C693 0.948 . S
H671 C699 0.982 . S
H672 C700 0.979 . S
H673 C700 0.980 . S
H674 C700 0.983 . S
H675 C699 0.979 . S
H676 C699 0.977 . S
C677 C665 1.453 . S
C677 H706 0.982 . S
C677 H707 0.979 . S
C677 H708 0.977 . S
C678 C665 1.684 . S
C678 H703 0.979 . S
C678 H704 0.980 . S
C678 H705 0.983 . S
C679 C680 1.391 . S
C679 C684 1.391 . S
C679 H709 0.948 . S
C680 C679 1.391 . S
C680 C681 1.391 . S
C681 C680 1.391 . S
C681 C682 1.392 . S
C681 H710 0.947 . S
C682 C681 1.392 . S
C682 C683 1.419 . S
C682 H711 0.948 . S
C683 C682 1.419 . S
C683 C684 1.391 . S
C683 C687 1.397 . S
C684 C679 1.391 . S
C684 C683 1.391 . S
C684 C685 1.399 . S
C685 C684 1.399 . S
C685 C686 1.396 . S
C685 C688 1.453 . S
C685 C689 1.684 . S
C686 C667 1.723 . S
C686 C685 1.396 . S
C686 C687 1.394 . S
C687 C683 1.397 . S
C687 C686 1.394 . S
C687 C697 1.723 . S
C688 C685 1.453 . S
C688 H712 0.982 . S
C688 H713 0.979 . S
C688 H714 0.977 . S
C689 C685 1.684 . S
C689 H715 0.979 . S
C689 H716 0.980 . S
C689 H717 0.983 . S
C690 H666 0.948 . S
C690 C691 1.391 . S
C690 C695 1.391 . S
C691 C690 1.391 . S
C691 C692 1.391 . S
C692 H669 0.947 . S
C692 C691 1.391 . S
C692 C693 1.392 . S
C693 H670 0.948 . S
C693 C692 1.392 . S
C693 C694 1.419 . S
C694 C693 1.419 . S
C694 C695 1.391 . S
C694 C698 1.397 . S
C695 C690 1.391 . S
C695 C694 1.391 . S
C695 C696 1.399 . S
C696 C695 1.399 . S
C696 C697 1.396 . S
C696 C699 1.453 . S
C696 C700 1.684 . S
C697 C687 1.723 . S
C697 C696 1.396 . S
C697 C698 1.394 . S
C698 C668 1.723 . S
C698 C694 1.397 . S
C698 C697 1.394 . S
C699 H671 0.982 . S
C699 H675 0.979 . S
C699 H676 0.977 . S
C699 C696 1.453 . S
C700 H672 0.979 . S
C700 H673 0.980 . S
C700 H674 0.983 . S
C700 C696 1.684 . S
H701 C719 0.948 . S
H702 C660 0.948 . S
H703 C678 0.979 . S
H704 C678 0.980 . S
H705 C678 0.983 . S
H706 C677 0.982 . S
H707 C677 0.979 . S
H708 C677 0.977 . S
H709 C679 0.948 . S
H710 C681 0.947 . S
H711 C682 0.948 . S
H712 C688 0.982 . S
H713 C688 0.979 . S
H714 C688 0.977 . S
H715 C689 0.979 . S
H716 C689 0.980 . S
H717 C689 0.983 . S
H718 C662 0.947 . S
C719 C662 1.392 . S
C719 C663 1.419 . S
C719 H701 0.948 . S
C720 C721 1.391 . S
C720 C724 1.391 . S
C720 H762 0.948 . S
C721 C720 1.391 . S
C721 C722 1.391 . S
C722 C721 1.391 . S
C722 H778 0.947 . S
C722 C779 1.392 . S
C723 C724 1.391 . S
C723 C727 1.397 . S
C723 C779 1.419 . S
C724 C720 1.391 . S
C724 C723 1.391 . S
C724 C725 1.399 . S
C725 C724 1.399 . S
C725 C728 1.396 . S
C725 C737 1.453 . S
C725 C738 1.684 . S
H726 C750 0.948 . S
C727 C723 1.397 . S
C727 C728 1.394 . S
C727 C746 1.723 . S
C728 C725 1.396 . S
C728 C727 1.394 . S
C728 C758 1.723 . S
H729 C752 0.947 . S
H730 C753 0.948 . S
H731 C759 0.982 . S
H732 C760 0.979 . S
H733 C760 0.980 . S
H734 C760 0.983 . S
H735 C759 0.979 . S
H736 C759 0.977 . S
C737 C725 1.453 . S
C737 H766 0.982 . S
C737 H767 0.979 . S
C737 H768 0.977 . S
C738 C725 1.684 . S
C738 H763 0.979 . S
C738 H764 0.980 . S
C738 H765 0.983 . S
C739 C740 1.391 . S
C739 C744 1.391 . S
C739 H769 0.948 . S
C740 C739 1.391 . S
C740 C741 1.391 . S
C741 C740 1.391 . S
C741 C742 1.392 . S
C741 H770 0.947 . S
C742 C741 1.392 . S
C742 C743 1.419 . S
C742 H771 0.948 . S
C743 C742 1.419 . S
C743 C744 1.391 . S
C743 C747 1.397 . S
C744 C739 1.391 . S
C744 C743 1.391 . S
C744 C745 1.399 . S
C745 C744 1.399 . S
C745 C746 1.396 . S
C745 C748 1.453 . S
C745 C749 1.684 . S
C746 C727 1.723 . S
C746 C745 1.396 . S
C746 C747 1.394 . S
C747 C743 1.397 . S
C747 C746 1.394 . S
C747 C757 1.723 . S
C748 C745 1.453 . S
C748 H772 0.982 . S
C748 H773 0.979 . S
C748 H774 0.977 . S
C749 C745 1.684 . S
C749 H775 0.979 . S
C749 H776 0.980 . S
C749 H777 0.983 . S
C750 H726 0.948 . S
C750 C751 1.391 . S
C750 C755 1.391 . S
C751 C750 1.391 . S
C751 C752 1.391 . S
C752 H729 0.947 . S
C752 C751 1.391 . S
C752 C753 1.392 . S
C753 H730 0.948 . S
C753 C752 1.392 . S
C753 C754 1.419 . S
C754 C753 1.419 . S
C754 C755 1.391 . S
C754 C758 1.397 . S
C755 C750 1.391 . S
C755 C754 1.391 . S
C755 C756 1.399 . S
C756 C755 1.399 . S
C756 C757 1.396 . S
C756 C759 1.453 . S
C756 C760 1.684 . S
C757 C747 1.723 . S
C757 C756 1.396 . S
C757 C758 1.394 . S
C758 C728 1.723 . S
C758 C754 1.397 . S
C758 C757 1.394 . S
C759 H731 0.982 . S
C759 H735 0.979 . S
C759 H736 0.977 . S
C759 C756 1.453 . S
C760 H732 0.979 . S
C760 H733 0.980 . S
C760 H734 0.983 . S
C760 C756 1.684 . S
H761 C779 0.948 . S
H762 C720 0.948 . S
H763 C738 0.979 . S
H764 C738 0.980 . S
H765 C738 0.983 . S
H766 C737 0.982 . S
H767 C737 0.979 . S
H768 C737 0.977 . S
H769 C739 0.948 . S
H770 C741 0.947 . S
H771 C742 0.948 . S
H772 C748 0.982 . S
H773 C748 0.979 . S
H774 C748 0.977 . S
H775 C749 0.979 . S
H776 C749 0.980 . S
H777 C749 0.983 . S
H778 C722 0.947 . S
C779 C722 1.392 . S
C779 C723 1.419 . S
C779 H761 0.948 . S
C780 C781 1.391 . S
C780 C784 1.391 . S
C780 H822 0.948 . S
C781 C780 1.391 . S
C781 C782 1.391 . S
C782 C781 1.391 . S
C782 H838 0.947 . S
C782 C839 1.392 . S
C783 C784 1.391 . S
C783 C787 1.397 . S
C783 C839 1.419 . S
C784 C780 1.391 . S
C784 C783 1.391 . S
C784 C785 1.399 . S
C785 C784 1.399 . S
C785 C788 1.396 . S
C785 C797 1.453 . S
C785 C798 1.684 . S
H786 C810 0.948 . S
C787 C783 1.397 . S
C787 C788 1.394 . S
C787 C806 1.723 . S
C788 C785 1.396 . S
C788 C787 1.394 . S
C788 C818 1.723 . S
H789 C812 0.947 . S
H790 C813 0.948 . S
H791 C819 0.982 . S
H792 C820 0.979 . S
H793 C820 0.980 . S
H794 C820 0.983 . S
H795 C819 0.979 . S
H796 C819 0.977 . S
C797 C785 1.453 . S
C797 H826 0.982 . S
C797 H827 0.979 . S
C797 H828 0.977 . S
C798 C785 1.684 . S
C798 H823 0.979 . S
C798 H824 0.980 . S
C798 H825 0.983 . S
C799 C800 1.391 . S
C799 C804 1.391 . S
C799 H829 0.948 . S
C800 C799 1.391 . S
C800 C801 1.391 . S
C801 C800 1.391 . S
C801 C802 1.392 . S
C801 H830 0.947 . S
C802 C801 1.392 . S
C802 C803 1.419 . S
C802 H831 0.948 . S
C803 C802 1.419 . S
C803 C804 1.391 . S
C803 C807 1.397 . S
C804 C799 1.391 . S
C804 C803 1.391 . S
C804 C805 1.399 . S
C805 C804 1.399 . S
C805 C806 1.396 . S
C805 C808 1.453 . S
C805 C809 1.684 . S
C806 C787 1.723 . S
C806 C805 1.396 . S
C806 C807 1.394 . S
C807 C803 1.397 . S
C807 C806 1.394 . S
C807 C817 1.723 . S
C808 C805 1.453 . S
C808 H832 0.982 . S
C808 H833 0.979 . S
C808 H834 0.977 . S
C809 C805 1.684 . S
C809 H835 0.979 . S
C809 H836 0.980 . S
C809 H837 0.983 . S
C810 H786 0.948 . S
C810 C811 1.391 . S
C810 C815 1.391 . S
C811 C810 1.391 . S
C811 C812 1.391 . S
C812 H789 0.947 . S
C812 C811 1.391 . S
C812 C813 1.392 . S
C813 H790 0.948 . S
C813 C812 1.392 . S
C813 C814 1.419 . S
C814 C813 1.419 . S
C814 C815 1.391 . S
C814 C818 1.397 . S
C815 C810 1.391 . S
C815 C814 1.391 . S
C815 C816 1.399 . S
C816 C815 1.399 . S
C816 C817 1.396 . S
C816 C819 1.453 . S
C816 C820 1.684 . S
C817 C807 1.723 . S
C817 C816 1.396 . S
C817 C818 1.394 . S
C818 C788 1.723 . S
C818 C814 1.397 . S
C818 C817 1.394 . S
C819 H791 0.982 . S
C819 H795 0.979 . S
C819 H796 0.977 . S
C819 C816 1.453 . S
C820 H792 0.979 . S
C820 H793 0.980 . S
C820 H794 0.983 . S
C820 C816 1.684 . S
H821 C839 0.948 . S
H822 C780 0.948 . S
H823 C798 0.979 . S
H824 C798 0.980 . S
H825 C798 0.983 . S
H826 C797 0.982 . S
H827 C797 0.979 . S
H828 C797 0.977 . S
H829 C799 0.948 . S
H830 C801 0.947 . S
H831 C802 0.948 . S
H832 C808 0.982 . S
H833 C808 0.979 . S
H834 C808 0.977 . S
H835 C809 0.979 . S
H836 C809 0.980 . S
H837 C809 0.983 . S
H838 C782 0.947 . S
C839 C782 1.392 . S
C839 C783 1.419 . S
C839 H821 0.948 . S
C840 C841 1.391 . S
C840 C844 1.391 . S
C840 H882 0.948 . S
C841 C840 1.391 . S
C841 C842 1.391 . S
C842 C841 1.391 . S
C842 H898 0.947 . S
C842 C899 1.392 . S
C843 C844 1.391 . S
C843 C847 1.397 . S
C843 C899 1.419 . S
C844 C840 1.391 . S
C844 C843 1.391 . S
C844 C845 1.399 . S
C845 C844 1.399 . S
C845 C848 1.396 . S
C845 C857 1.453 . S
C845 C858 1.684 . S
H846 C870 0.948 . S
C847 C843 1.397 . S
C847 C848 1.394 . S
C847 C866 1.723 . S
C848 C845 1.396 . S
C848 C847 1.394 . S
C848 C878 1.723 . S
H849 C872 0.947 . S
H850 C873 0.948 . S
H851 C879 0.982 . S
H852 C880 0.979 . S
H853 C880 0.980 . S
H854 C880 0.983 . S
H855 C879 0.979 . S
H856 C879 0.977 . S
C857 C845 1.453 . S
C857 H886 0.982 . S
C857 H887 0.979 . S
C857 H888 0.977 . S
C858 C845 1.684 . S
C858 H883 0.979 . S
C858 H884 0.980 . S
C858 H885 0.983 . S
C859 C860 1.391 . S
C859 C864 1.391 . S
C859 H889 0.948 . S
C860 C859 1.391 . S
C860 C861 1.391 . S
C861 C860 1.391 . S
C861 C862 1.392 . S
C861 H890 0.947 . S
C862 C861 1.392 . S
C862 C863 1.419 . S
C862 H891 0.948 . S
C863 C862 1.419 . S
C863 C864 1.391 . S
C863 C867 1.397 . S
C864 C859 1.391 . S
C864 C863 1.391 . S
C864 C865 1.399 . S
C865 C864 1.399 . S
C865 C866 1.396 . S
C865 C868 1.453 . S
C865 C869 1.684 . S
C866 C847 1.723 . S
C866 C865 1.396 . S
C866 C867 1.394 . S
C867 C863 1.397 . S
C867 C866 1.394 . S
C867 C877 1.723 . S
C868 C865 1.453 . S
C868 H892 0.982 . S
C868 H893 0.979 . S
C868 H894 0.977 . S
C869 C865 1.684 . S
C869 H895 0.979 . S
C869 H896 0.980 . S
C869 H897 0.983 . S
C870 H846 0.948 . S
C870 C871 1.391 . S
C870 C875 1.391 . S
C871 C870 1.391 . S
C871 C872 1.391 . S
C872 H849 0.947 . S
C872 C871 1.391 . S
C872 C873 1.392 . S
C873 H850 0.948 . S
C873 C872 1.392 . S
C873 C874 1.419 . S
C874 C873 1.419 . S
C874 C875 1.391 . S
C874 C878 1.397 . S
C875 C870 1.391 . S
C875 C874 1.391 . S
C875 C876 1.399 . S
C876 C875 1.399 . S
C876 C877 1.396 . S
C876 C879 1.453 . S
C876 C880 1.684 . S
C877 C867 1.723 . S
C877 C876 1.396 . S
C877 C878 1.394 . S
C878 C848 1.723 . S
C878 C874 1.397 . S
C878 C877 1.394 . S
C879 H851 0.982 . S
C879 H855 0.979 . S
C879 H856 0.977 . S
C879 C876 1.453 . S
C880 H852 0.979 . S
C880 H853 0.980 . S
C880 H854 0.983 . S
C880 C876 1.684 . S
H881 C899 0.948 . S
H882 C840 0.948 . S
H883 C858 0.979 . S
H884 C858 0.980 . S
H885 C858 0.983 . S
H886 C857 0.982 . S
H887 C857 0.979 . S
H888 C857 0.977 . S
H889 C859 0.948 . S
H890 C861 0.947 . S
H891 C862 0.948 . S
H892 C868 0.982 . S
H893 C868 0.979 . S
H894 C868 0.977 . S
H895 C869 0.979 . S
H896 C869 0.980 . S
H897 C869 0.983 . S
H898 C842 0.947 . S
C899 C842 1.392 . S
C899 C843 1.419 . S
C899 H881 0.948 . S
C900 C901 1.391 . S
C900 C904 1.391 . S
C900 H942 0.948 . S
C901 C900 1.391 . S
C901 C902 1.391 . S
C902 C901 1.391 . S
C902 H958 0.947 . S
C902 C959 1.392 . S
C903 C904 1.391 . S
C903 C907 1.397 . S
C903 C959 1.419 . S
C904 C900 1.391 . S
C904 C903 1.391 . S
C904 C905 1.399 . S
C905 C904 1.399 . S
C905 C908 1.396 . S
C905 C917 1.453 . S
C905 C918 1.684 . S
H906 C930 0.948 . S
C907 C903 1.397 . S
C907 C908 1.394 . S
C907 C926 1.723 . S
C908 C905 1.396 . S
C908 C907 1.394 . S
C908 C938 1.723 . S
H909 C932 0.947 . S
H910 C933 0.948 . S
H911 C939 0.982 . S
H912 C940 0.979 . S
H913 C940 0.980 . S
H914 C940 0.983 . S
H915 C939 0.979 . S
H916 C939 0.977 . S
C917 C905 1.453 . S
C917 H946 0.982 . S
C917 H947 0.979 . S
C917 H948 0.977 . S
C918 C905 1.684 . S
C918 H943 0.979 . S
C918 H944 0.980 . S
C918 H945 0.983 . S
C919 C920 1.391 . S
C919 C924 1.391 . S
C919 H949 0.948 . S
C920 C919 1.391 . S
C920 C921 1.391 . S
C921 C920 1.391 . S
C921 C922 1.392 . S
C921 H950 0.947 . S
C922 C921 1.392 . S
C922 C923 1.419 . S
C922 H951 0.948 . S
C923 C922 1.419 . S
C923 C924 1.391 . S
C923 C927 1.397 . S
C924 C919 1.391 . S
C924 C923 1.391 . S
C924 C925 1.399 . S
C925 C924 1.399 . S
C925 C926 1.396 . S
C925 C928 1.453 . S
C925 C929 1.684 . S
C926 C907 1.723 . S
C926 C925 1.396 . S
C926 C927 1.394 . S
C927 C923 1.397 . S
C927 C926 1.394 . S
C927 C937 1.723 . S
C928 C925 1.453 . S
C928 H952 0.982 . S
C928 H953 0.979 . S
C928 H954 0.977 . S
C929 C925 1.684 . S
C929 H955 0.979 . S
C929 H956 0.980 . S
C929 H957 0.983 . S
C930 H906 0.948 . S
C930 C931 1.391 . S
C930 C935 1.391 . S
C931 C930 1.391 . S
C931 C932 1.391 . S
C932 H909 0.947 . S
C932 C931 1.391 . S
C932 C933 1.392 . S
C933 H910 0.948 . S
C933 C932 1.392 . S
C933 C934 1.419 . S
C934 C933 1.419 . S
C934 C935 1.391 . S
C934 C938 1.397 . S
C935 C930 1.391 . S
C935 C934 1.391 . S
C935 C936 1.399 . S
C936 C935 1.399 . S
C936 C937 1.396 . S
C936 C939 1.453 . S
C936 C940 1.684 . S
C937 C927 1.723 . S
C937 C936 1.396 . S
C937 C938 1.394 . S
C938 C908 1.723 . S
C938 C934 1.397 . S
C938 C937 1.394 . S
C939 H911 0.982 . S
C939 H915 0.979 . S
C939 H916 0.977 . S
C939 C936 1.453 . S
C940 H912 0.979 . S
C940 H913 0.980 . S
C940 H914 0.983 . S
C940 C936 1.684 . S
H941 C959 0.948 . S
H942 C900 0.948 . S
H943 C918 0.979 . S
H944 C918 0.980 . S
H945 C918 0.983 . S
H946 C917 0.982 . S
H947 C917 0.979 . S
H948 C917 0.977 . S
H949 C919 0.948 . S
H950 C921 0.947 . S
H951 C922 0.948 . S
H952 C928 0.982 . S
H953 C928 0.979 . S
H954 C928 0.977 . S
H955 C929 0.979 . S
H956 C929 0.980 . S
H957 C929 0.983 . S
H958 C902 0.947 . S
C959 C902 1.392 . S
C959 C903 1.419 . S
C959 H941 0.948 . S
C960 C961 1.391 . S
C960 C964 1.391 . S
C960 H1002 0.948 . S
C961 C960 1.391 . S
C961 C962 1.391 . S
C962 C961 1.391 . S
C962 H1018 0.947 . S
C962 C1019 1.392 . S
C963 C964 1.391 . S
C963 C967 1.397 . S
C963 C1019 1.419 . S
C964 C960 1.391 . S
C964 C963 1.391 . S
C964 C965 1.399 . S
C965 C964 1.399 . S
C965 C968 1.396 . S
C965 C977 1.453 . S
C965 C978 1.684 . S
H966 C990 0.948 . S
C967 C963 1.397 . S
C967 C968 1.394 . S
C967 C986 1.723 . S
C968 C965 1.396 . S
C968 C967 1.394 . S
C968 C998 1.723 . S
H969 C992 0.947 . S
H970 C993 0.948 . S
H971 C999 0.982 . S
H972 C1000 0.979 . S
H973 C1000 0.980 . S
H974 C1000 0.983 . S
H975 C999 0.979 . S
H976 C999 0.977 . S
C977 C965 1.453 . S
C977 H1006 0.982 . S
C977 H1007 0.979 . S
C977 H1008 0.977 . S
C978 C965 1.684 . S
C978 H1003 0.979 . S
C978 H1004 0.980 . S
C978 H1005 0.983 . S
C979 C980 1.391 . S
C979 C984 1.391 . S
C979 H1009 0.948 . S
C980 C979 1.391 . S
C980 C981 1.391 . S
C981 C980 1.391 . S
C981 C982 1.392 . S
C981 H1010 0.947 . S
C982 C981 1.392 . S
C982 C983 1.419 . S
C982 H1011 0.948 . S
C983 C982 1.419 . S
C983 C984 1.391 . S
C983 C987 1.397 . S
C984 C979 1.391 . S
C984 C983 1.391 . S
C984 C985 1.399 . S
C985 C984 1.399 . S
C985 C986 1.396 . S
C985 C988 1.453 . S
C985 C989 1.684 . S
C986 C967 1.723 . S
C986 C985 1.396 . S
C986 C987 1.394 . S
C987 C983 1.397 . S
C987 C986 1.394 . S
C987 C997 1.723 . S
C988 C985 1.453 . S
C988 H1012 0.982 . S
C988 H1013 0.979 . S
C988 H1014 0.977 . S
C989 C985 1.684 . S
C989 H1015 0.979 . S
C989 H1016 0.980 . S
C989 H1017 0.983 . S
C990 H966 0.948 . S
C990 C991 1.391 . S
C990 C995 1.391 . S
C991 C990 1.391 . S
C991 C992 1.391 . S
C992 H969 0.947 . S
C992 C991 1.391 . S
C992 C993 1.392 . S
C993 H970 0.948 . S
C993 C992 1.392 . S
C993 C994 1.419 . S
C994 C993 1.419 . S
C994 C995 1.391 . S
C994 C998 1.397 . S
C995 C990 1.391 . S
C995 C994 1.391 . S
C995 C996 1.399 . S
C996 C995 1.399 . S
C996 C997 1.396 . S
C996 C999 1.453 . S
C996 C1000 1.684 . S
C997 C987 1.723 . S
C997 C996 1.396 . S
C997 C998 1.394 . S
C998 C968 1.723 . S
C998 C994 1.397 . S
C998 C997 1.394 . S
C999 H971 0.982 . S
C999 H975 0.979 . S
C999 H976 0.977 . S
C999 C996 1.453 . S
C1000 H972 0.979 . S
C1000 H973 0.980 . S
C1000 H974 0.983 . S
C1000 C996 1.684 . S
H1001 C1019 0.948 . S
H1002 C960 0.948 . S
H1003 C978 0.979 . S
H1004 C978 0.980 . S
H1005 C978 0.983 . S
H1006 C977 0.982 . S
H1007 C977 0.979 . S
H1008 C977 0.977 . S
H1009 C979 0.948 . S
H1010 C981 0.947 . S
H1011 C982 0.948 . S
H1012 C988 0.982 . S
H1013 C988 0.979 . S
H1014 C988 0.977 . S
H1015 C989 0.979 . S
H1016 C989 0.980 . S
H1017 C989 0.983 . S
H1018 C962 0.947 . S
C1019 C962 1.392 . S
C1019 C963 1.419 . S
C1019 H1001 0.948 . S
C1020 C1021 1.391 . S
C1020 C1024 1.391 . S
C1020 H1062 0.948 . S
C1021 C1020 1.391 . S
C1021 C1022 1.391 . S
C1022 C1021 1.391 . S
C1022 H1078 0.947 . S
C1022 C1079 1.392 . S
C1023 C1024 1.391 . S
C1023 C1027 1.397 . S
C1023 C1079 1.419 . S
C1024 C1020 1.391 . S
C1024 C1023 1.391 . S
C1024 C1025 1.399 . S
C1025 C1024 1.399 . S
C1025 C1028 1.396 . S
C1025 C1037 1.453 . S
C1025 C1038 1.684 . S
H1026 C1050 0.948 . S
C1027 C1023 1.397 . S
C1027 C1028 1.394 . S
C1027 C1046 1.723 . S
C1028 C1025 1.396 . S
C1028 C1027 1.394 . S
C1028 C1058 1.723 . S
H1029 C1052 0.947 . S
H1030 C1053 0.948 . S
H1031 C1059 0.982 . S
H1032 C1060 0.979 . S
H1033 C1060 0.980 . S
H1034 C1060 0.983 . S
H1035 C1059 0.979 . S
H1036 C1059 0.977 . S
C1037 C1025 1.453 . S
C1037 H1066 0.982 . S
C1037 H1067 0.979 . S
C1037 H1068 0.977 . S
C1038 C1025 1.684 . S
C1038 H1063 0.979 . S
C1038 H1064 0.980 . S
C1038 H1065 0.983 . S
C1039 C1040 1.391 . S
C1039 C1044 1.391 . S
C1039 H1069 0.948 . S
C1040 C1039 1.391 . S
C1040 C1041 1.391 . S
C1041 C1040 1.391 . S
C1041 C1042 1.392 . S
C1041 H1070 0.947 . S
C1042 C1041 1.392 . S
C1042 C1043 1.419 . S
C1042 H1071 0.948 . S
C1043 C1042 1.419 . S
C1043 C1044 1.391 . S
C1043 C1047 1.397 . S
C1044 C1039 1.391 . S
C1044 C1043 1.391 . S
C1044 C1045 1.399 . S
C1045 C1044 1.399 . S
C1045 C1046 1.396 . S
C1045 C1048 1.453 . S
C1045 C1049 1.684 . S
C1046 C1027 1.723 . S
C1046 C1045 1.396 . S
C1046 C1047 1.394 . S
C1047 C1043 1.397 . S
C1047 C1046 1.394 . S
C1047 C1057 1.723 . S
C1048 C1045 1.453 . S
C1048 H1072 0.982 . S
C1048 H1073 0.979 . S
C1048 H1074 0.977 . S
C1049 C1045 1.684 . S
C1049 H1075 0.979 . S
C1049 H1076 0.980 . S
C1049 H1077 0.983 . S
C1050 H1026 0.948 . S
C1050 C1051 1.391 . S
C1050 C1055 1.391 . S
C1051 C1050 1.391 . S
C1051 C1052 1.391 . S
C1052 H1029 0.947 . S
C1052 C1051 1.391 . S
C1052 C1053 1.392 . S
C1053 H1030 0.948 . S
C1053 C1052 1.392 . S
C1053 C1054 1.419 . S
C1054 C1053 1.419 . S
C1054 C1055 1.391 . S
C1054 C1058 1.397 . S
C1055 C1050 1.391 . S
C1055 C1054 1.391 . S
C1055 C1056 1.399 . S
C1056 C1055 1.399 . S
C1056 C1057 1.396 . S
C1056 C1059 1.453 . S
C1056 C1060 1.684 . S
C1057 C1047 1.723 . S
C1057 C1056 1.396 . S
C1057 C1058 1.394 . S
C1058 C1028 1.723 . S
C1058 C1054 1.397 . S
C1058 C1057 1.394 . S
C1059 H1031 0.982 . S
C1059 H1035 0.979 . S
C1059 H1036 0.977 . S
C1059 C1056 1.453 . S
C1060 H1032 0.979 . S
C1060 H1033 0.980 . S
C1060 H1034 0.983 . S
C1060 C1056 1.684 . S
H1061 C1079 0.948 . S
H1062 C1020 0.948 . S
H1063 C1038 0.979 . S
H1064 C1038 0.980 . S
H1065 C1038 0.983 . S
H1066 C1037 0.982 . S
H1067 C1037 0.979 . S
H1068 C1037 0.977 . S
H1069 C1039 0.948 . S
H1070 C1041 0.947 . S
H1071 C1042 0.948 . S
H1072 C1048 0.982 . S
H1073 C1048 0.979 . S
H1074 C1048 0.977 . S
H1075 C1049 0.979 . S
H1076 C1049 0.980 . S
H1077 C1049 0.983 . S
H1078 C1022 0.947 . S
C1079 C1022 1.392 . S
C1079 C1023 1.419 . S
C1079 H1061 0.948 . S
Gd1080 N1111 2.661 . S
Gd1080 N1117 2.601 . S
Gd1080 O1124 2.545 . S
Gd1080 O1125 2.606 1_545 S
Gd1080 O1127 2.429 . S
Gd1080 O1128 2.545 1_545 S
Gd1080 O1129 2.412 . S
Gd1080 O1131 2.362 1_554 S
Gd1080 O1132 2.324 1_545 S
Gd1080 C1139 2.828 . S
Gd1081 N1090 2.661 . S
Gd1081 N1094 2.601 . S
Gd1081 O1125 2.362 1_556 S
Gd1081 O1126 2.324 1_565 S
Gd1081 O1130 2.545 . S
Gd1081 O1131 2.606 1_565 S
Gd1081 O1133 2.429 . S
Gd1081 O1134 2.545 1_565 S
Gd1081 O1135 2.412 . S
Gd1081 C1148 2.828 . S
C1082 C1085 1.417 . S
C1082 C1087 1.431 . S
C1082 C1088 1.412 . S
C1083 C1086 1.437 . S
C1083 C1087 1.317 . S
C1083 H1102 0.929 . S
C1084 C1085 1.426 . S
C1084 C1086 1.413 . S
C1084 N1094 1.359 . S
C1085 C1082 1.417 . S
C1085 C1084 1.426 . S
C1085 N1090 1.350 . S
C1086 C1083 1.437 . S
C1086 C1084 1.413 . S
C1086 C1096 1.391 . S
C1087 C1082 1.431 . S
C1087 C1083 1.317 . S
C1087 H1098 0.930 . S
C1088 C1082 1.412 . S
C1088 C1089 1.355 . S
C1088 H1100 0.930 . S
C1089 C1088 1.355 . S
C1089 C1091 1.402 . S
C1089 H1101 0.930 . S
N1090 Gd1081 2.661 . S
N1090 C1085 1.350 . S
N1090 C1091 1.307 . S
C1091 C1089 1.402 . S
C1091 N1090 1.307 . S
C1091 H1092 0.930 . S
H1092 C1091 0.930 . S
C1093 N1094 1.334 . S
C1093 C1095 1.394 . S
C1093 H1097 0.930 . S
N1094 Gd1081 2.601 . S
N1094 C1084 1.359 . S
N1094 C1093 1.334 . S
C1095 C1093 1.394 . S
C1095 C1096 1.359 . S
C1095 H1107 0.930 . S
C1096 C1086 1.391 . S
C1096 C1095 1.359 . S
C1096 H1108 0.929 . S
H1097 C1093 0.930 . S
H1098 C1087 0.930 . S
H1099 C1116 0.930 . S
H1100 C1088 0.930 . S
H1101 C1089 0.930 . S
H1102 C1083 0.929 . S
H1103 C1121 0.930 . S
H1104 C1112 0.930 . S
H1105 C1113 0.930 . S
H1106 C1137 0.929 . S
H1107 C1095 0.930 . S
H1108 C1096 0.929 . S
H1109 C1138 0.930 . S
H1110 C1119 0.930 . S
N1111 Gd1080 2.661 . S
N1111 C1115 1.350 . S
N1111 C1116 1.307 . S
C1112 H1104 0.930 . S
C1112 C1113 1.355 . S
C1112 C1114 1.412 . S
C1113 H1105 0.930 . S
C1113 C1112 1.355 . S
C1113 C1116 1.402 . S
C1114 C1112 1.412 . S
C1114 C1115 1.417 . S
C1114 C1138 1.431 . S
C1115 N1111 1.350 . S
C1115 C1114 1.417 . S
C1115 C1118 1.426 . S
C1116 H1099 0.930 . S
C1116 N1111 1.307 . S
C1116 C1113 1.402 . S
N1117 Gd1080 2.601 . S
N1117 C1118 1.359 . S
N1117 C1121 1.334 . S
C1118 C1115 1.426 . S
C1118 N1117 1.359 . S
C1118 C1122 1.413 . S
C1119 H1110 0.930 . S
C1119 C1120 1.359 . S
C1119 C1121 1.394 . S
C1120 C1119 1.359 . S
C1120 C1122 1.391 . S
C1120 H1123 0.929 . S
C1121 H1103 0.930 . S
C1121 N1117 1.334 . S
C1121 C1119 1.394 . S
C1122 C1118 1.413 . S
C1122 C1120 1.391 . S
C1122 C1137 1.437 . S
H1123 C1120 0.929 . S
O1124 Gd1080 2.545 . S
O1124 C1139 1.258 . S
O1125 Gd1080 2.606 1_565 S
O1125 Gd1081 2.362 1_554 S
O1125 C1136 1.284 . S
O1126 Gd1081 2.324 1_545 S
O1126 C1146 1.254 . S
O1127 Gd1080 2.429 . S
O1127 C1146 1.268 1_554 S
O1128 Gd1080 2.545 1_565 S
O1128 C1136 1.250 . S
O1129 Gd1080 2.412 . S
O1129 C1139 1.252 . S
O1130 Gd1081 2.545 . S
O1130 C1148 1.258 . S
O1131 Gd1080 2.362 1_556 S
O1131 Gd1081 2.606 1_545 S
O1131 C1147 1.284 . S
O1132 Gd1080 2.324 1_565 S
O1132 C1155 1.254 . S
O1133 Gd1081 2.429 . S
O1133 C1155 1.268 1_556 S
O1134 Gd1081 2.545 1_545 S
O1134 C1147 1.250 . S
O1135 Gd1081 2.412 . S
O1135 C1148 1.252 . S
C1136 O1125 1.284 . S
C1136 O1128 1.250 . S
C1137 H1106 0.929 . S
C1137 C1122 1.437 . S
C1137 C1138 1.317 . S
C1138 H1109 0.930 . S
C1138 C1114 1.431 . S
C1138 C1137 1.317 . S
C1139 Gd1080 2.828 . S
C1139 O1124 1.258 . S
C1139 O1129 1.252 . S
C1139 C1140 1.497 . S
C1140 C1139 1.497 . S
C1140 C1141 1.395 . S
C1140 C1142 1.380 1_545 S
C1141 C1140 1.395 . S
C1141 C1144 1.398 . S
C1141 H1156 0.930 . S
C1142 C1140 1.380 1_565 S
C1142 C1143 1.391 . S
C1142 H1157 0.930 . S
C1143 C1142 1.391 . S
C1143 C1145 1.387 1_565 S
C1144 C1141 1.398 . S
C1144 C1145 1.380 . S
C1144 H1158 0.930 . S
C1145 C1143 1.387 1_545 S
C1145 C1144 1.380 . S
C1145 H1159 0.930 . S
C1146 O1126 1.254 . S
C1146 O1127 1.268 1_556 S
C1147 O1131 1.284 . S
C1147 O1134 1.250 . S
C1148 Gd1081 2.828 . S
C1148 O1130 1.258 . S
C1148 O1135 1.252 . S
C1148 C1149 1.497 . S
C1149 C1148 1.497 . S
C1149 C1150 1.395 . S
C1149 C1151 1.380 1_565 S
C1150 C1149 1.395 . S
C1150 C1153 1.398 . S
C1150 H1160 0.930 . S
C1151 C1149 1.380 1_545 S
C1151 C1152 1.391 . S
C1151 H1161 0.930 . S
C1152 C1151 1.391 . S
C1152 C1154 1.387 1_545 S
C1153 C1150 1.398 . S
C1153 C1154 1.380 . S
C1153 H1162 0.930 . S
C1154 C1152 1.387 1_565 S
C1154 C1153 1.380 . S
C1154 H1163 0.930 . S
C1155 O1132 1.254 . S
C1155 O1133 1.268 1_554 S
H1156 C1141 0.930 . S
H1157 C1142 0.930 . S
H1158 C1144 0.930 . S
H1159 C1145 0.930 . S
H1160 C1150 0.930 . S
H1161 C1151 0.930 . S
H1162 C1153 0.930 . S
H1163 C1154 0.930 . S
Gd1164 N1195 2.661 . S
Gd1164 N1201 2.601 . S
Gd1164 O1208 2.545 . S
Gd1164 O1209 2.606 1_655 S
Gd1164 O1211 2.429 . S
Gd1164 O1212 2.545 1_655 S
Gd1164 O1213 2.412 . S
Gd1164 O1215 2.362 1_554 S
Gd1164 O1216 2.324 1_655 S
Gd1164 C1223 2.828 . S
Gd1165 N1174 2.661 . S
Gd1165 N1178 2.601 . S
Gd1165 O1209 2.362 1_556 S
Gd1165 O1210 2.324 1_455 S
Gd1165 O1214 2.545 . S
Gd1165 O1215 2.606 1_455 S
Gd1165 O1217 2.429 . S
Gd1165 O1218 2.545 1_455 S
Gd1165 O1219 2.412 . S
Gd1165 C1232 2.828 . S
C1166 C1169 1.417 . S
C1166 C1171 1.431 . S
C1166 C1172 1.412 . S
C1167 C1170 1.437 . S
C1167 C1171 1.317 . S
C1167 H1186 0.929 . S
C1168 C1169 1.426 . S
C1168 C1170 1.413 . S
C1168 N1178 1.359 . S
C1169 C1166 1.417 . S
C1169 C1168 1.426 . S
C1169 N1174 1.350 . S
C1170 C1167 1.437 . S
C1170 C1168 1.413 . S
C1170 C1180 1.391 . S
C1171 C1166 1.431 . S
C1171 C1167 1.317 . S
C1171 H1182 0.930 . S
C1172 C1166 1.412 . S
C1172 C1173 1.355 . S
C1172 H1184 0.930 . S
C1173 C1172 1.355 . S
C1173 C1175 1.402 . S
C1173 H1185 0.930 . S
N1174 Gd1165 2.661 . S
N1174 C1169 1.350 . S
N1174 C1175 1.307 . S
C1175 C1173 1.402 . S
C1175 N1174 1.307 . S
C1175 H1176 0.930 . S
H1176 C1175 0.930 . S
C1177 N1178 1.334 . S
C1177 C1179 1.394 . S
C1177 H1181 0.930 . S
N1178 Gd1165 2.601 . S
N1178 C1168 1.359 . S
N1178 C1177 1.334 . S
C1179 C1177 1.394 . S
C1179 C1180 1.359 . S
C1179 H1191 0.930 . S
C1180 C1170 1.391 . S
C1180 C1179 1.359 . S
C1180 H1192 0.929 . S
H1181 C1177 0.930 . S
H1182 C1171 0.930 . S
H1183 C1200 0.930 . S
H1184 C1172 0.930 . S
H1185 C1173 0.930 . S
H1186 C1167 0.929 . S
H1187 C1205 0.930 . S
H1188 C1196 0.930 . S
H1189 C1197 0.930 . S
H1190 C1221 0.929 . S
H1191 C1179 0.930 . S
H1192 C1180 0.929 . S
H1193 C1222 0.930 . S
H1194 C1203 0.930 . S
N1195 Gd1164 2.661 . S
N1195 C1199 1.350 . S
N1195 C1200 1.307 . S
C1196 H1188 0.930 . S
C1196 C1197 1.355 . S
C1196 C1198 1.412 . S
C1197 H1189 0.930 . S
C1197 C1196 1.355 . S
C1197 C1200 1.402 . S
C1198 C1196 1.412 . S
C1198 C1199 1.417 . S
C1198 C1222 1.431 . S
C1199 N1195 1.350 . S
C1199 C1198 1.417 . S
C1199 C1202 1.426 . S
C1200 H1183 0.930 . S
C1200 N1195 1.307 . S
C1200 C1197 1.402 . S
N1201 Gd1164 2.601 . S
N1201 C1202 1.359 . S
N1201 C1205 1.334 . S
C1202 C1199 1.426 . S
C1202 N1201 1.359 . S
C1202 C1206 1.413 . S
C1203 H1194 0.930 . S
C1203 C1204 1.359 . S
C1203 C1205 1.394 . S
C1204 C1203 1.359 . S
C1204 C1206 1.391 . S
C1204 H1207 0.929 . S
C1205 H1187 0.930 . S
C1205 N1201 1.334 . S
C1205 C1203 1.394 . S
C1206 C1202 1.413 . S
C1206 C1204 1.391 . S
C1206 C1221 1.437 . S
H1207 C1204 0.929 . S
O1208 Gd1164 2.545 . S
O1208 C1223 1.258 . S
O1209 Gd1164 2.606 1_455 S
O1209 Gd1165 2.362 1_554 S
O1209 C1220 1.284 . S
O1210 Gd1165 2.324 1_655 S
O1210 C1230 1.254 . S
O1211 Gd1164 2.429 . S
O1211 C1230 1.268 1_554 S
O1212 Gd1164 2.545 1_455 S
O1212 C1220 1.250 . S
O1213 Gd1164 2.412 . S
O1213 C1223 1.252 . S
O1214 Gd1165 2.545 . S
O1214 C1232 1.258 . S
O1215 Gd1164 2.362 1_556 S
O1215 Gd1165 2.606 1_655 S
O1215 C1231 1.284 . S
O1216 Gd1164 2.324 1_455 S
O1216 C1239 1.254 . S
O1217 Gd1165 2.429 . S
O1217 C1239 1.268 1_556 S
O1218 Gd1165 2.545 1_655 S
O1218 C1231 1.250 . S
O1219 Gd1165 2.412 . S
O1219 C1232 1.252 . S
C1220 O1209 1.284 . S
C1220 O1212 1.250 . S
C1221 H1190 0.929 . S
C1221 C1206 1.437 . S
C1221 C1222 1.317 . S
C1222 H1193 0.930 . S
C1222 C1198 1.431 . S
C1222 C1221 1.317 . S
C1223 Gd1164 2.828 . S
C1223 O1208 1.258 . S
C1223 O1213 1.252 . S
C1223 C1224 1.497 . S
C1224 C1223 1.497 . S
C1224 C1225 1.395 . S
C1224 C1226 1.380 1_655 S
C1225 C1224 1.395 . S
C1225 C1228 1.398 . S
C1225 H1240 0.930 . S
C1226 C1224 1.380 1_455 S
C1226 C1227 1.391 . S
C1226 H1241 0.930 . S
C1227 C1226 1.391 . S
C1227 C1229 1.387 1_455 S
C1228 C1225 1.398 . S
C1228 C1229 1.380 . S
C1228 H1242 0.930 . S
C1229 C1227 1.387 1_655 S
C1229 C1228 1.380 . S
C1229 H1243 0.930 . S
C1230 O1210 1.254 . S
C1230 O1211 1.268 1_556 S
C1231 O1215 1.284 . S
C1231 O1218 1.250 . S
C1232 Gd1165 2.828 . S
C1232 O1214 1.258 . S
C1232 O1219 1.252 . S
C1232 C1233 1.497 . S
C1233 C1232 1.497 . S
C1233 C1234 1.395 . S
C1233 C1235 1.380 1_455 S
C1234 C1233 1.395 . S
C1234 C1237 1.398 . S
C1234 H1244 0.930 . S
C1235 C1233 1.380 1_655 S
C1235 C1236 1.391 . S
C1235 H1245 0.930 . S
C1236 C1235 1.391 . S
C1236 C1238 1.387 1_655 S
C1237 C1234 1.398 . S
C1237 C1238 1.380 . S
C1237 H1246 0.930 . S
C1238 C1236 1.387 1_455 S
C1238 C1237 1.380 . S
C1238 H1247 0.930 . S
C1239 O1216 1.254 . S
C1239 O1217 1.268 1_554 S
H1240 C1225 0.930 . S
H1241 C1226 0.930 . S
H1242 C1228 0.930 . S
H1243 C1229 0.930 . S
H1244 C1234 0.930 . S
H1245 C1235 0.930 . S
H1246 C1237 0.930 . S
H1247 C1238 0.930 . S
Gd1248 N1279 2.661 . S
Gd1248 N1285 2.601 . S
Gd1248 O1292 2.545 . S
Gd1248 O1293 2.606 . S
Gd1248 O1295 2.429 . S
Gd1248 O1296 2.545 . S
Gd1248 O1297 2.412 . S
Gd1248 O1299 2.362 1_556 S
Gd1248 O1300 2.324 . S
Gd1248 C1307 2.828 . S
Gd1249 N1258 2.661 . S
Gd1249 N1262 2.601 . S
Gd1249 O1293 2.362 1_554 S
Gd1249 O1294 2.324 . S
Gd1249 O1298 2.545 . S
Gd1249 O1299 2.606 . S
Gd1249 O1301 2.429 . S
Gd1249 O1302 2.545 . S
Gd1249 O1303 2.412 . S
Gd1249 C1316 2.828 . S
C1250 C1253 1.417 . S
C1250 C1255 1.431 . S
C1250 C1256 1.412 . S
C1251 C1254 1.437 . S
C1251 C1255 1.317 . S
C1251 H1270 0.929 . S
C1252 C1253 1.426 . S
C1252 C1254 1.413 . S
C1252 N1262 1.359 . S
C1253 C1250 1.417 . S
C1253 C1252 1.426 . S
C1253 N1258 1.350 . S
C1254 C1251 1.437 . S
C1254 C1252 1.413 . S
C1254 C1264 1.391 . S
C1255 C1250 1.431 . S
C1255 C1251 1.317 . S
C1255 H1266 0.930 . S
C1256 C1250 1.412 . S
C1256 C1257 1.355 . S
C1256 H1268 0.930 . S
C1257 C1256 1.355 . S
C1257 C1259 1.402 . S
C1257 H1269 0.930 . S
N1258 Gd1249 2.661 . S
N1258 C1253 1.350 . S
N1258 C1259 1.307 . S
C1259 C1257 1.402 . S
C1259 N1258 1.307 . S
C1259 H1260 0.930 . S
H1260 C1259 0.930 . S
C1261 N1262 1.334 . S
C1261 C1263 1.394 . S
C1261 H1265 0.930 . S
N1262 Gd1249 2.601 . S
N1262 C1252 1.359 . S
N1262 C1261 1.334 . S
C1263 C1261 1.394 . S
C1263 C1264 1.359 . S
C1263 H1275 0.930 . S
C1264 C1254 1.391 . S
C1264 C1263 1.359 . S
C1264 H1276 0.929 . S
H1265 C1261 0.930 . S
H1266 C1255 0.930 . S
H1267 C1284 0.930 . S
H1268 C1256 0.930 . S
H1269 C1257 0.930 . S
H1270 C1251 0.929 . S
H1271 C1289 0.930 . S
H1272 C1280 0.930 . S
H1273 C1281 0.930 . S
H1274 C1305 0.929 . S
H1275 C1263 0.930 . S
H1276 C1264 0.929 . S
H1277 C1306 0.930 . S
H1278 C1287 0.930 . S
N1279 Gd1248 2.661 . S
N1279 C1283 1.350 . S
N1279 C1284 1.307 . S
C1280 H1272 0.930 . S
C1280 C1281 1.355 . S
C1280 C1282 1.412 . S
C1281 H1273 0.930 . S
C1281 C1280 1.355 . S
C1281 C1284 1.402 . S
C1282 C1280 1.412 . S
C1282 C1283 1.417 . S
C1282 C1306 1.431 . S
C1283 N1279 1.350 . S
C1283 C1282 1.417 . S
C1283 C1286 1.426 . S
C1284 H1267 0.930 . S
C1284 N1279 1.307 . S
C1284 C1281 1.402 . S
N1285 Gd1248 2.601 . S
N1285 C1286 1.359 . S
N1285 C1289 1.334 . S
C1286 C1283 1.426 . S
C1286 N1285 1.359 . S
C1286 C1290 1.413 . S
C1287 H1278 0.930 . S
C1287 C1288 1.359 . S
C1287 C1289 1.394 . S
C1288 C1287 1.359 . S
C1288 C1290 1.391 . S
C1288 H1291 0.929 . S
C1289 H1271 0.930 . S
C1289 N1285 1.334 . S
C1289 C1287 1.394 . S
C1290 C1286 1.413 . S
C1290 C1288 1.391 . S
C1290 C1305 1.437 . S
H1291 C1288 0.929 . S
O1292 Gd1248 2.545 . S
O1292 C1307 1.258 . S
O1293 Gd1248 2.606 . S
O1293 Gd1249 2.362 1_556 S
O1293 C1304 1.284 . S
O1294 Gd1249 2.324 . S
O1294 C1314 1.254 . S
O1295 Gd1248 2.429 . S
O1295 C1314 1.268 1_556 S
O1296 Gd1248 2.545 . S
O1296 C1304 1.250 . S
O1297 Gd1248 2.412 . S
O1297 C1307 1.252 . S
O1298 Gd1249 2.545 . S
O1298 C1316 1.258 . S
O1299 Gd1248 2.362 1_554 S
O1299 Gd1249 2.606 . S
O1299 C1315 1.284 . S
O1300 Gd1248 2.324 . S
O1300 C1323 1.254 . S
O1301 Gd1249 2.429 . S
O1301 C1323 1.268 1_554 S
O1302 Gd1249 2.545 . S
O1302 C1315 1.250 . S
O1303 Gd1249 2.412 . S
O1303 C1316 1.252 . S
C1304 O1293 1.284 . S
C1304 O1296 1.250 . S
C1305 H1274 0.929 . S
C1305 C1290 1.437 . S
C1305 C1306 1.317 . S
C1306 H1277 0.930 . S
C1306 C1282 1.431 . S
C1306 C1305 1.317 . S
C1307 Gd1248 2.828 . S
C1307 O1292 1.258 . S
C1307 O1297 1.252 . S
C1307 C1308 1.497 . S
C1308 C1307 1.497 . S
C1308 C1309 1.395 . S
C1308 C1310 1.380 . S
C1309 C1308 1.395 . S
C1309 C1312 1.398 . S
C1309 H1324 0.930 . S
C1310 C1308 1.380 . S
C1310 C1311 1.391 . S
C1310 H1325 0.930 . S
C1311 C1310 1.391 . S
C1311 C1313 1.387 . S
C1312 C1309 1.398 . S
C1312 C1313 1.380 . S
C1312 H1326 0.930 . S
C1313 C1311 1.387 . S
C1313 C1312 1.380 . S
C1313 H1327 0.930 . S
C1314 O1294 1.254 . S
C1314 O1295 1.268 1_554 S
C1315 O1299 1.284 . S
C1315 O1302 1.250 . S
C1316 Gd1249 2.828 . S
C1316 O1298 1.258 . S
C1316 O1303 1.252 . S
C1316 C1317 1.497 . S
C1317 C1316 1.497 . S
C1317 C1318 1.395 . S
C1317 C1319 1.380 . S
C1318 C1317 1.395 . S
C1318 C1321 1.398 . S
C1318 H1328 0.930 . S
C1319 C1317 1.380 . S
C1319 C1320 1.391 . S
C1319 H1329 0.930 . S
C1320 C1319 1.391 . S
C1320 C1322 1.387 . S
C1321 C1318 1.398 . S
C1321 C1322 1.380 . S
C1321 H1330 0.930 . S
C1322 C1320 1.387 . S
C1322 C1321 1.380 . S
C1322 H1331 0.930 . S
C1323 O1300 1.254 . S
C1323 O1301 1.268 1_556 S
H1324 C1309 0.930 . S
H1325 C1310 0.930 . S
H1326 C1312 0.930 . S
H1327 C1313 0.930 . S
H1328 C1318 0.930 . S
H1329 C1319 0.930 . S
H1330 C1321 0.930 . S
H1331 C1322 0.930 . S
Gd1332 N1363 2.661 . S
Gd1332 N1369 2.601 . S
Gd1332 O1376 2.545 . S
Gd1332 O1377 2.606 . S
Gd1332 O1379 2.429 . S
Gd1332 O1380 2.545 . S
Gd1332 O1381 2.412 . S
Gd1332 O1383 2.362 . S
Gd1332 O1384 2.324 . S
Gd1332 C1391 2.828 . S
Gd1333 N1342 2.661 . S
Gd1333 N1346 2.601 . S
Gd1333 O1377 2.362 . S
Gd1333 O1378 2.324 . S
Gd1333 O1382 2.545 . S
Gd1333 O1383 2.606 . S
Gd1333 O1385 2.429 . S
Gd1333 O1386 2.545 . S
Gd1333 O1387 2.412 . S
Gd1333 C1400 2.828 . S
C1334 C1337 1.417 . S
C1334 C1339 1.431 . S
C1334 C1340 1.412 . S
C1335 C1338 1.437 . S
C1335 C1339 1.317 . S
C1335 H1354 0.929 . S
C1336 C1337 1.426 . S
C1336 C1338 1.413 . S
C1336 N1346 1.359 . S
C1337 C1334 1.417 . S
C1337 C1336 1.426 . S
C1337 N1342 1.350 . S
C1338 C1335 1.437 . S
C1338 C1336 1.413 . S
C1338 C1348 1.391 . S
C1339 C1334 1.431 . S
C1339 C1335 1.317 . S
C1339 H1350 0.930 . S
C1340 C1334 1.412 . S
C1340 C1341 1.355 . S
C1340 H1352 0.930 . S
C1341 C1340 1.355 . S
C1341 C1343 1.402 . S
C1341 H1353 0.930 . S
N1342 Gd1333 2.661 . S
N1342 C1337 1.350 . S
N1342 C1343 1.307 . S
C1343 C1341 1.402 . S
C1343 N1342 1.307 . S
C1343 H1344 0.930 . S
H1344 C1343 0.930 . S
C1345 N1346 1.334 . S
C1345 C1347 1.394 . S
C1345 H1349 0.930 . S
N1346 Gd1333 2.601 . S
N1346 C1336 1.359 . S
N1346 C1345 1.334 . S
C1347 C1345 1.394 . S
C1347 C1348 1.359 . S
C1347 H1359 0.930 . S
C1348 C1338 1.391 . S
C1348 C1347 1.359 . S
C1348 H1360 0.929 . S
H1349 C1345 0.930 . S
H1350 C1339 0.930 . S
H1351 C1368 0.930 . S
H1352 C1340 0.930 . S
H1353 C1341 0.930 . S
H1354 C1335 0.929 . S
H1355 C1373 0.930 . S
H1356 C1364 0.930 . S
H1357 C1365 0.930 . S
H1358 C1389 0.929 . S
H1359 C1347 0.930 . S
H1360 C1348 0.929 . S
H1361 C1390 0.930 . S
H1362 C1371 0.930 . S
N1363 Gd1332 2.661 . S
N1363 C1367 1.350 . S
N1363 C1368 1.307 . S
C1364 H1356 0.930 . S
C1364 C1365 1.355 . S
C1364 C1366 1.412 . S
C1365 H1357 0.930 . S
C1365 C1364 1.355 . S
C1365 C1368 1.402 . S
C1366 C1364 1.412 . S
C1366 C1367 1.417 . S
C1366 C1390 1.431 . S
C1367 N1363 1.350 . S
C1367 C1366 1.417 . S
C1367 C1370 1.426 . S
C1368 H1351 0.930 . S
C1368 N1363 1.307 . S
C1368 C1365 1.402 . S
N1369 Gd1332 2.601 . S
N1369 C1370 1.359 . S
N1369 C1373 1.334 . S
C1370 C1367 1.426 . S
C1370 N1369 1.359 . S
C1370 C1374 1.413 . S
C1371 H1362 0.930 . S
C1371 C1372 1.359 . S
C1371 C1373 1.394 . S
C1372 C1371 1.359 . S
C1372 C1374 1.391 . S
C1372 H1375 0.929 . S
C1373 H1355 0.930 . S
C1373 N1369 1.334 . S
C1373 C1371 1.394 . S
C1374 C1370 1.413 . S
C1374 C1372 1.391 . S
C1374 C1389 1.437 . S
H1375 C1372 0.929 . S
O1376 Gd1332 2.545 . S
O1376 C1391 1.258 . S
O1377 Gd1332 2.606 . S
O1377 Gd1333 2.362 . S
O1377 C1388 1.284 . S
O1378 Gd1333 2.324 . S
O1378 C1398 1.254 . S
O1379 Gd1332 2.429 . S
O1379 C1398 1.268 . S
O1380 Gd1332 2.545 . S
O1380 C1388 1.250 . S
O1381 Gd1332 2.412 . S
O1381 C1391 1.252 . S
O1382 Gd1333 2.545 . S
O1382 C1400 1.258 . S
O1383 Gd1332 2.362 . S
O1383 Gd1333 2.606 . S
O1383 C1399 1.284 . S
O1384 Gd1332 2.324 . S
O1384 C1407 1.254 . S
O1385 Gd1333 2.429 . S
O1385 C1407 1.268 . S
O1386 Gd1333 2.545 . S
O1386 C1399 1.250 . S
O1387 Gd1333 2.412 . S
O1387 C1400 1.252 . S
C1388 O1377 1.284 . S
C1388 O1380 1.250 . S
C1389 H1358 0.929 . S
C1389 C1374 1.437 . S
C1389 C1390 1.317 . S
C1390 H1361 0.930 . S
C1390 C1366 1.431 . S
C1390 C1389 1.317 . S
C1391 Gd1332 2.828 . S
C1391 O1376 1.258 . S
C1391 O1381 1.252 . S
C1391 C1392 1.497 . S
C1392 C1391 1.497 . S
C1392 C1393 1.395 . S
C1392 C1394 1.380 . S
C1393 C1392 1.395 . S
C1393 C1396 1.398 . S
C1393 H1408 0.930 . S
C1394 C1392 1.380 . S
C1394 C1395 1.391 . S
C1394 H1409 0.930 . S
C1395 C1394 1.391 . S
C1395 C1397 1.387 . S
C1396 C1393 1.398 . S
C1396 C1397 1.380 . S
C1396 H1410 0.930 . S
C1397 C1395 1.387 . S
C1397 C1396 1.380 . S
C1397 H1411 0.930 . S
C1398 O1378 1.254 . S
C1398 O1379 1.268 . S
C1399 O1383 1.284 . S
C1399 O1386 1.250 . S
C1400 Gd1333 2.828 . S
C1400 O1382 1.258 . S
C1400 O1387 1.252 . S
C1400 C1401 1.497 . S
C1401 C1400 1.497 . S
C1401 C1402 1.395 . S
C1401 C1403 1.380 . S
C1402 C1401 1.395 . S
C1402 C1405 1.398 . S
C1402 H1412 0.930 . S
C1403 C1401 1.380 . S
C1403 C1404 1.391 . S
C1403 H1413 0.930 . S
C1404 C1403 1.391 . S
C1404 C1406 1.387 . S
C1405 C1402 1.398 . S
C1405 C1406 1.380 . S
C1405 H1414 0.930 . S
C1406 C1404 1.387 . S
C1406 C1405 1.380 . S
C1406 H1415 0.930 . S
C1407 O1384 1.254 . S
C1407 O1385 1.268 . S
H1408 C1393 0.930 . S
H1409 C1394 0.930 . S
H1410 C1396 0.930 . S
H1411 C1397 0.930 . S
H1412 C1402 0.930 . S
H1413 C1403 0.930 . S
H1414 C1405 0.930 . S
H1415 C1406 0.930 . S
Gd1416 N1447 2.661 . S
Gd1416 N1453 2.601 . S
Gd1416 O1460 2.545 . S
Gd1416 O1461 2.606 . S
Gd1416 O1463 2.429 . S
Gd1416 O1464 2.545 . S
Gd1416 O1465 2.412 . S
Gd1416 O1467 2.362 . S
Gd1416 O1468 2.324 . S
Gd1416 C1475 2.828 . S
Gd1417 N1426 2.661 . S
Gd1417 N1430 2.601 . S
Gd1417 O1461 2.362 . S
Gd1417 O1462 2.324 . S
Gd1417 O1466 2.545 . S
Gd1417 O1467 2.606 . S
Gd1417 O1469 2.429 . S
Gd1417 O1470 2.545 . S
Gd1417 O1471 2.412 . S
Gd1417 C1484 2.828 . S
C1418 C1421 1.417 . S
C1418 C1423 1.431 . S
C1418 C1424 1.412 . S
C1419 C1422 1.437 . S
C1419 C1423 1.317 . S
C1419 H1438 0.929 . S
C1420 C1421 1.426 . S
C1420 C1422 1.413 . S
C1420 N1430 1.359 . S
C1421 C1418 1.417 . S
C1421 C1420 1.426 . S
C1421 N1426 1.350 . S
C1422 C1419 1.437 . S
C1422 C1420 1.413 . S
C1422 C1432 1.391 . S
C1423 C1418 1.431 . S
C1423 C1419 1.317 . S
C1423 H1434 0.930 . S
C1424 C1418 1.412 . S
C1424 C1425 1.355 . S
C1424 H1436 0.930 . S
C1425 C1424 1.355 . S
C1425 C1427 1.402 . S
C1425 H1437 0.930 . S
N1426 Gd1417 2.661 . S
N1426 C1421 1.350 . S
N1426 C1427 1.307 . S
C1427 C1425 1.402 . S
C1427 N1426 1.307 . S
C1427 H1428 0.930 . S
H1428 C1427 0.930 . S
C1429 N1430 1.334 . S
C1429 C1431 1.394 . S
C1429 H1433 0.930 . S
N1430 Gd1417 2.601 . S
N1430 C1420 1.359 . S
N1430 C1429 1.334 . S
C1431 C1429 1.394 . S
C1431 C1432 1.359 . S
C1431 H1443 0.930 . S
C1432 C1422 1.391 . S
C1432 C1431 1.359 . S
C1432 H1444 0.929 . S
H1433 C1429 0.930 . S
H1434 C1423 0.930 . S
H1435 C1452 0.930 . S
H1436 C1424 0.930 . S
H1437 C1425 0.930 . S
H1438 C1419 0.929 . S
H1439 C1457 0.930 . S
H1440 C1448 0.930 . S
H1441 C1449 0.930 . S
H1442 C1473 0.929 . S
H1443 C1431 0.930 . S
H1444 C1432 0.929 . S
H1445 C1474 0.930 . S
H1446 C1455 0.930 . S
N1447 Gd1416 2.661 . S
N1447 C1451 1.350 . S
N1447 C1452 1.307 . S
C1448 H1440 0.930 . S
C1448 C1449 1.355 . S
C1448 C1450 1.412 . S
C1449 H1441 0.930 . S
C1449 C1448 1.355 . S
C1449 C1452 1.402 . S
C1450 C1448 1.412 . S
C1450 C1451 1.417 . S
C1450 C1474 1.431 . S
C1451 N1447 1.350 . S
C1451 C1450 1.417 . S
C1451 C1454 1.426 . S
C1452 H1435 0.930 . S
C1452 N1447 1.307 . S
C1452 C1449 1.402 . S
N1453 Gd1416 2.601 . S
N1453 C1454 1.359 . S
N1453 C1457 1.334 . S
C1454 C1451 1.426 . S
C1454 N1453 1.359 . S
C1454 C1458 1.413 . S
C1455 H1446 0.930 . S
C1455 C1456 1.359 . S
C1455 C1457 1.394 . S
C1456 C1455 1.359 . S
C1456 C1458 1.391 . S
C1456 H1459 0.929 . S
C1457 H1439 0.930 . S
C1457 N1453 1.334 . S
C1457 C1455 1.394 . S
C1458 C1454 1.413 . S
C1458 C1456 1.391 . S
C1458 C1473 1.437 . S
H1459 C1456 0.929 . S
O1460 Gd1416 2.545 . S
O1460 C1475 1.258 . S
O1461 Gd1416 2.606 . S
O1461 Gd1417 2.362 . S
O1461 C1472 1.284 . S
O1462 Gd1417 2.324 . S
O1462 C1482 1.254 . S
O1463 Gd1416 2.429 . S
O1463 C1482 1.268 . S
O1464 Gd1416 2.545 . S
O1464 C1472 1.250 . S
O1465 Gd1416 2.412 . S
O1465 C1475 1.252 . S
O1466 Gd1417 2.545 . S
O1466 C1484 1.258 . S
O1467 Gd1416 2.362 . S
O1467 Gd1417 2.606 . S
O1467 C1483 1.284 . S
O1468 Gd1416 2.324 . S
O1468 C1491 1.254 . S
O1469 Gd1417 2.429 . S
O1469 C1491 1.268 . S
O1470 Gd1417 2.545 . S
O1470 C1483 1.250 . S
O1471 Gd1417 2.412 . S
O1471 C1484 1.252 . S
C1472 O1461 1.284 . S
C1472 O1464 1.250 . S
C1473 H1442 0.929 . S
C1473 C1458 1.437 . S
C1473 C1474 1.317 . S
C1474 H1445 0.930 . S
C1474 C1450 1.431 . S
C1474 C1473 1.317 . S
C1475 Gd1416 2.828 . S
C1475 O1460 1.258 . S
C1475 O1465 1.252 . S
C1475 C1476 1.497 . S
C1476 C1475 1.497 . S
C1476 C1477 1.395 . S
C1476 C1478 1.380 . S
C1477 C1476 1.395 . S
C1477 C1480 1.398 . S
C1477 H1492 0.930 . S
C1478 C1476 1.380 . S
C1478 C1479 1.391 . S
C1478 H1493 0.930 . S
C1479 C1478 1.391 . S
C1479 C1481 1.387 . S
C1480 C1477 1.398 . S
C1480 C1481 1.380 . S
C1480 H1494 0.930 . S
C1481 C1479 1.387 . S
C1481 C1480 1.380 . S
C1481 H1495 0.930 . S
C1482 O1462 1.254 . S
C1482 O1463 1.268 . S
C1483 O1467 1.284 . S
C1483 O1470 1.250 . S
C1484 Gd1417 2.828 . S
C1484 O1466 1.258 . S
C1484 O1471 1.252 . S
C1484 C1485 1.497 . S
C1485 C1484 1.497 . S
C1485 C1486 1.395 . S
C1485 C1487 1.380 . S
C1486 C1485 1.395 . S
C1486 C1489 1.398 . S
C1486 H1496 0.930 . S
C1487 C1485 1.380 . S
C1487 C1488 1.391 . S
C1487 H1497 0.930 . S
C1488 C1487 1.391 . S
C1488 C1490 1.387 . S
C1489 C1486 1.398 . S
C1489 C1490 1.380 . S
C1489 H1498 0.930 . S
C1490 C1488 1.387 . S
C1490 C1489 1.380 . S
C1490 H1499 0.930 . S
C1491 O1468 1.254 . S
C1491 O1469 1.268 . S
H1492 C1477 0.930 . S
H1493 C1478 0.930 . S
H1494 C1480 0.930 . S
H1495 C1481 0.930 . S
H1496 C1486 0.930 . S
H1497 C1487 0.930 . S
H1498 C1489 0.930 . S
H1499 C1490 0.930 . S
Gd1500 N1531 2.661 . S
Gd1500 N1537 2.601 . S
Gd1500 O1544 2.545 . S
Gd1500 O1545 2.606 . S
Gd1500 O1547 2.429 . S
Gd1500 O1548 2.545 . S
Gd1500 O1549 2.412 . S
Gd1500 O1551 2.362 . S
Gd1500 O1552 2.324 . S
Gd1500 C1559 2.828 . S
Gd1501 N1510 2.661 . S
Gd1501 N1514 2.601 . S
Gd1501 O1545 2.362 . S
Gd1501 O1546 2.324 . S
Gd1501 O1550 2.545 . S
Gd1501 O1551 2.606 . S
Gd1501 O1553 2.429 . S
Gd1501 O1554 2.545 . S
Gd1501 O1555 2.412 . S
Gd1501 C1568 2.828 . S
C1502 C1505 1.417 . S
C1502 C1507 1.431 . S
C1502 C1508 1.412 . S
C1503 C1506 1.437 . S
C1503 C1507 1.317 . S
C1503 H1522 0.929 . S
C1504 C1505 1.426 . S
C1504 C1506 1.413 . S
C1504 N1514 1.359 . S
C1505 C1502 1.417 . S
C1505 C1504 1.426 . S
C1505 N1510 1.350 . S
C1506 C1503 1.437 . S
C1506 C1504 1.413 . S
C1506 C1516 1.391 . S
C1507 C1502 1.431 . S
C1507 C1503 1.317 . S
C1507 H1518 0.930 . S
C1508 C1502 1.412 . S
C1508 C1509 1.355 . S
C1508 H1520 0.930 . S
C1509 C1508 1.355 . S
C1509 C1511 1.402 . S
C1509 H1521 0.930 . S
N1510 Gd1501 2.661 . S
N1510 C1505 1.350 . S
N1510 C1511 1.307 . S
C1511 C1509 1.402 . S
C1511 N1510 1.307 . S
C1511 H1512 0.930 . S
H1512 C1511 0.930 . S
C1513 N1514 1.334 . S
C1513 C1515 1.394 . S
C1513 H1517 0.930 . S
N1514 Gd1501 2.601 . S
N1514 C1504 1.359 . S
N1514 C1513 1.334 . S
C1515 C1513 1.394 . S
C1515 C1516 1.359 . S
C1515 H1527 0.930 . S
C1516 C1506 1.391 . S
C1516 C1515 1.359 . S
C1516 H1528 0.929 . S
H1517 C1513 0.930 . S
H1518 C1507 0.930 . S
H1519 C1536 0.930 . S
H1520 C1508 0.930 . S
H1521 C1509 0.930 . S
H1522 C1503 0.929 . S
H1523 C1541 0.930 . S
H1524 C1532 0.930 . S
H1525 C1533 0.930 . S
H1526 C1557 0.929 . S
H1527 C1515 0.930 . S
H1528 C1516 0.929 . S
H1529 C1558 0.930 . S
H1530 C1539 0.930 . S
N1531 Gd1500 2.661 . S
N1531 C1535 1.350 . S
N1531 C1536 1.307 . S
C1532 H1524 0.930 . S
C1532 C1533 1.355 . S
C1532 C1534 1.412 . S
C1533 H1525 0.930 . S
C1533 C1532 1.355 . S
C1533 C1536 1.402 . S
C1534 C1532 1.412 . S
C1534 C1535 1.417 . S
C1534 C1558 1.431 . S
C1535 N1531 1.350 . S
C1535 C1534 1.417 . S
C1535 C1538 1.426 . S
C1536 H1519 0.930 . S
C1536 N1531 1.307 . S
C1536 C1533 1.402 . S
N1537 Gd1500 2.601 . S
N1537 C1538 1.359 . S
N1537 C1541 1.334 . S
C1538 C1535 1.426 . S
C1538 N1537 1.359 . S
C1538 C1542 1.413 . S
C1539 H1530 0.930 . S
C1539 C1540 1.359 . S
C1539 C1541 1.394 . S
C1540 C1539 1.359 . S
C1540 C1542 1.391 . S
C1540 H1543 0.929 . S
C1541 H1523 0.930 . S
C1541 N1537 1.334 . S
C1541 C1539 1.394 . S
C1542 C1538 1.413 . S
C1542 C1540 1.391 . S
C1542 C1557 1.437 . S
H1543 C1540 0.929 . S
O1544 Gd1500 2.545 . S
O1544 C1559 1.258 . S
O1545 Gd1500 2.606 . S
O1545 Gd1501 2.362 . S
O1545 C1556 1.284 . S
O1546 Gd1501 2.324 . S
O1546 C1566 1.254 . S
O1547 Gd1500 2.429 . S
O1547 C1566 1.268 . S
O1548 Gd1500 2.545 . S
O1548 C1556 1.250 . S
O1549 Gd1500 2.412 . S
O1549 C1559 1.252 . S
O1550 Gd1501 2.545 . S
O1550 C1568 1.258 . S
O1551 Gd1500 2.362 . S
O1551 Gd1501 2.606 . S
O1551 C1567 1.284 . S
O1552 Gd1500 2.324 . S
O1552 C1575 1.254 . S
O1553 Gd1501 2.429 . S
O1553 C1575 1.268 . S
O1554 Gd1501 2.545 . S
O1554 C1567 1.250 . S
O1555 Gd1501 2.412 . S
O1555 C1568 1.252 . S
C1556 O1545 1.284 . S
C1556 O1548 1.250 . S
C1557 H1526 0.929 . S
C1557 C1542 1.437 . S
C1557 C1558 1.317 . S
C1558 H1529 0.930 . S
C1558 C1534 1.431 . S
C1558 C1557 1.317 . S
C1559 Gd1500 2.828 . S
C1559 O1544 1.258 . S
C1559 O1549 1.252 . S
C1559 C1560 1.497 . S
C1560 C1559 1.497 . S
C1560 C1561 1.395 . S
C1560 C1562 1.380 . S
C1561 C1560 1.395 . S
C1561 C1564 1.398 . S
C1561 H1576 0.930 . S
C1562 C1560 1.380 . S
C1562 C1563 1.391 . S
C1562 H1577 0.930 . S
C1563 C1562 1.391 . S
C1563 C1565 1.387 . S
C1564 C1561 1.398 . S
C1564 C1565 1.380 . S
C1564 H1578 0.930 . S
C1565 C1563 1.387 . S
C1565 C1564 1.380 . S
C1565 H1579 0.930 . S
C1566 O1546 1.254 . S
C1566 O1547 1.268 . S
C1567 O1551 1.284 . S
C1567 O1554 1.250 . S
C1568 Gd1501 2.828 . S
C1568 O1550 1.258 . S
C1568 O1555 1.252 . S
C1568 C1569 1.497 . S
C1569 C1568 1.497 . S
C1569 C1570 1.395 . S
C1569 C1571 1.380 . S
C1570 C1569 1.395 . S
C1570 C1573 1.398 . S
C1570 H1580 0.930 . S
C1571 C1569 1.380 . S
C1571 C1572 1.391 . S
C1571 H1581 0.930 . S
C1572 C1571 1.391 . S
C1572 C1574 1.387 . S
C1573 C1570 1.398 . S
C1573 C1574 1.380 . S
C1573 H1582 0.930 . S
C1574 C1572 1.387 . S
C1574 C1573 1.380 . S
C1574 H1583 0.930 . S
C1575 O1552 1.254 . S
C1575 O1553 1.268 . S
H1576 C1561 0.930 . S
H1577 C1562 0.930 . S
H1578 C1564 0.930 . S
H1579 C1565 0.930 . S
H1580 C1570 0.930 . S
H1581 C1571 0.930 . S
H1582 C1573 0.930 . S
H1583 C1574 0.930 . S
Gd1584 N1615 2.661 . S
Gd1584 N1621 2.601 . S
Gd1584 O1628 2.545 . S
Gd1584 O1629 2.606 . S
Gd1584 O1631 2.429 . S
Gd1584 O1632 2.545 . S
Gd1584 O1633 2.412 . S
Gd1584 O1635 2.362 . S
Gd1584 O1636 2.324 . S
Gd1584 C1643 2.828 . S
Gd1585 N1594 2.661 . S
Gd1585 N1598 2.601 . S
Gd1585 O1629 2.362 . S
Gd1585 O1630 2.324 . S
Gd1585 O1634 2.545 . S
Gd1585 O1635 2.606 . S
Gd1585 O1637 2.429 . S
Gd1585 O1638 2.545 . S
Gd1585 O1639 2.412 . S
Gd1585 C1652 2.828 . S
C1586 C1589 1.417 . S
C1586 C1591 1.431 . S
C1586 C1592 1.412 . S
C1587 C1590 1.437 . S
C1587 C1591 1.317 . S
C1587 H1606 0.929 . S
C1588 C1589 1.426 . S
C1588 C1590 1.413 . S
C1588 N1598 1.359 . S
C1589 C1586 1.417 . S
C1589 C1588 1.426 . S
C1589 N1594 1.350 . S
C1590 C1587 1.437 . S
C1590 C1588 1.413 . S
C1590 C1600 1.391 . S
C1591 C1586 1.431 . S
C1591 C1587 1.317 . S
C1591 H1602 0.930 . S
C1592 C1586 1.412 . S
C1592 C1593 1.355 . S
C1592 H1604 0.930 . S
C1593 C1592 1.355 . S
C1593 C1595 1.402 . S
C1593 H1605 0.930 . S
N1594 Gd1585 2.661 . S
N1594 C1589 1.350 . S
N1594 C1595 1.307 . S
C1595 C1593 1.402 . S
C1595 N1594 1.307 . S
C1595 H1596 0.930 . S
H1596 C1595 0.930 . S
C1597 N1598 1.334 . S
C1597 C1599 1.394 . S
C1597 H1601 0.930 . S
N1598 Gd1585 2.601 . S
N1598 C1588 1.359 . S
N1598 C1597 1.334 . S
C1599 C1597 1.394 . S
C1599 C1600 1.359 . S
C1599 H1611 0.930 . S
C1600 C1590 1.391 . S
C1600 C1599 1.359 . S
C1600 H1612 0.929 . S
H1601 C1597 0.930 . S
H1602 C1591 0.930 . S
H1603 C1620 0.930 . S
H1604 C1592 0.930 . S
H1605 C1593 0.930 . S
H1606 C1587 0.929 . S
H1607 C1625 0.930 . S
H1608 C1616 0.930 . S
H1609 C1617 0.930 . S
H1610 C1641 0.929 . S
H1611 C1599 0.930 . S
H1612 C1600 0.929 . S
H1613 C1642 0.930 . S
H1614 C1623 0.930 . S
N1615 Gd1584 2.661 . S
N1615 C1619 1.350 . S
N1615 C1620 1.307 . S
C1616 H1608 0.930 . S
C1616 C1617 1.355 . S
C1616 C1618 1.412 . S
C1617 H1609 0.930 . S
C1617 C1616 1.355 . S
C1617 C1620 1.402 . S
C1618 C1616 1.412 . S
C1618 C1619 1.417 . S
C1618 C1642 1.431 . S
C1619 N1615 1.350 . S
C1619 C1618 1.417 . S
C1619 C1622 1.426 . S
C1620 H1603 0.930 . S
C1620 N1615 1.307 . S
C1620 C1617 1.402 . S
N1621 Gd1584 2.601 . S
N1621 C1622 1.359 . S
N1621 C1625 1.334 . S
C1622 C1619 1.426 . S
C1622 N1621 1.359 . S
C1622 C1626 1.413 . S
C1623 H1614 0.930 . S
C1623 C1624 1.359 . S
C1623 C1625 1.394 . S
C1624 C1623 1.359 . S
C1624 C1626 1.391 . S
C1624 H1627 0.929 . S
C1625 H1607 0.930 . S
C1625 N1621 1.334 . S
C1625 C1623 1.394 . S
C1626 C1622 1.413 . S
C1626 C1624 1.391 . S
C1626 C1641 1.437 . S
H1627 C1624 0.929 . S
O1628 Gd1584 2.545 . S
O1628 C1643 1.258 . S
O1629 Gd1584 2.606 . S
O1629 Gd1585 2.362 . S
O1629 C1640 1.284 . S
O1630 Gd1585 2.324 . S
O1630 C1650 1.254 . S
O1631 Gd1584 2.429 . S
O1631 C1650 1.268 . S
O1632 Gd1584 2.545 . S
O1632 C1640 1.250 . S
O1633 Gd1584 2.412 . S
O1633 C1643 1.252 . S
O1634 Gd1585 2.545 . S
O1634 C1652 1.258 . S
O1635 Gd1584 2.362 . S
O1635 Gd1585 2.606 . S
O1635 C1651 1.284 . S
O1636 Gd1584 2.324 . S
O1636 C1659 1.254 . S
O1637 Gd1585 2.429 . S
O1637 C1659 1.268 . S
O1638 Gd1585 2.545 . S
O1638 C1651 1.250 . S
O1639 Gd1585 2.412 . S
O1639 C1652 1.252 . S
C1640 O1629 1.284 . S
C1640 O1632 1.250 . S
C1641 H1610 0.929 . S
C1641 C1626 1.437 . S
C1641 C1642 1.317 . S
C1642 H1613 0.930 . S
C1642 C1618 1.431 . S
C1642 C1641 1.317 . S
C1643 Gd1584 2.828 . S
C1643 O1628 1.258 . S
C1643 O1633 1.252 . S
C1643 C1644 1.497 . S
C1644 C1643 1.497 . S
C1644 C1645 1.395 . S
C1644 C1646 1.380 . S
C1645 C1644 1.395 . S
C1645 C1648 1.398 . S
C1645 H1660 0.930 . S
C1646 C1644 1.380 . S
C1646 C1647 1.391 . S
C1646 H1661 0.930 . S
C1647 C1646 1.391 . S
C1647 C1649 1.387 . S
C1648 C1645 1.398 . S
C1648 C1649 1.380 . S
C1648 H1662 0.930 . S
C1649 C1647 1.387 . S
C1649 C1648 1.380 . S
C1649 H1663 0.930 . S
C1650 O1630 1.254 . S
C1650 O1631 1.268 . S
C1651 O1635 1.284 . S
C1651 O1638 1.250 . S
C1652 Gd1585 2.828 . S
C1652 O1634 1.258 . S
C1652 O1639 1.252 . S
C1652 C1653 1.497 . S
C1653 C1652 1.497 . S
C1653 C1654 1.395 . S
C1653 C1655 1.380 . S
C1654 C1653 1.395 . S
C1654 C1657 1.398 . S
C1654 H1664 0.930 . S
C1655 C1653 1.380 . S
C1655 C1656 1.391 . S
C1655 H1665 0.930 . S
C1656 C1655 1.391 . S
C1656 C1658 1.387 . S
C1657 C1654 1.398 . S
C1657 C1658 1.380 . S
C1657 H1666 0.930 . S
C1658 C1656 1.387 . S
C1658 C1657 1.380 . S
C1658 H1667 0.930 . S
C1659 O1636 1.254 . S
C1659 O1637 1.268 . S
H1660 C1645 0.930 . S
H1661 C1646 0.930 . S
H1662 C1648 0.930 . S
H1663 C1649 0.930 . S
H1664 C1654 0.930 . S
H1665 C1655 0.930 . S
H1666 C1657 0.930 . S
H1667 C1658 0.930 . S
Gd1668 N1699 2.661 . S
Gd1668 N1705 2.601 . S
Gd1668 O1712 2.545 . S
Gd1668 O1713 2.606 . S
Gd1668 O1715 2.429 . S
Gd1668 O1716 2.545 . S
Gd1668 O1717 2.412 . S
Gd1668 O1719 2.362 . S
Gd1668 O1720 2.324 . S
Gd1668 C1727 2.828 . S
Gd1669 N1678 2.661 . S
Gd1669 N1682 2.601 . S
Gd1669 O1713 2.362 . S
Gd1669 O1714 2.324 . S
Gd1669 O1718 2.545 . S
Gd1669 O1719 2.606 . S
Gd1669 O1721 2.429 . S
Gd1669 O1722 2.545 . S
Gd1669 O1723 2.412 . S
Gd1669 C1736 2.828 . S
C1670 C1673 1.417 . S
C1670 C1675 1.431 . S
C1670 C1676 1.412 . S
C1671 C1674 1.437 . S
C1671 C1675 1.317 . S
C1671 H1690 0.929 . S
C1672 C1673 1.426 . S
C1672 C1674 1.413 . S
C1672 N1682 1.359 . S
C1673 C1670 1.417 . S
C1673 C1672 1.426 . S
C1673 N1678 1.350 . S
C1674 C1671 1.437 . S
C1674 C1672 1.413 . S
C1674 C1684 1.391 . S
C1675 C1670 1.431 . S
C1675 C1671 1.317 . S
C1675 H1686 0.930 . S
C1676 C1670 1.412 . S
C1676 C1677 1.355 . S
C1676 H1688 0.930 . S
C1677 C1676 1.355 . S
C1677 C1679 1.402 . S
C1677 H1689 0.930 . S
N1678 Gd1669 2.661 . S
N1678 C1673 1.350 . S
N1678 C1679 1.307 . S
C1679 C1677 1.402 . S
C1679 N1678 1.307 . S
C1679 H1680 0.930 . S
H1680 C1679 0.930 . S
C1681 N1682 1.334 . S
C1681 C1683 1.394 . S
C1681 H1685 0.930 . S
N1682 Gd1669 2.601 . S
N1682 C1672 1.359 . S
N1682 C1681 1.334 . S
C1683 C1681 1.394 . S
C1683 C1684 1.359 . S
C1683 H1695 0.930 . S
C1684 C1674 1.391 . S
C1684 C1683 1.359 . S
C1684 H1696 0.929 . S
H1685 C1681 0.930 . S
H1686 C1675 0.930 . S
H1687 C1704 0.930 . S
H1688 C1676 0.930 . S
H1689 C1677 0.930 . S
H1690 C1671 0.929 . S
H1691 C1709 0.930 . S
H1692 C1700 0.930 . S
H1693 C1701 0.930 . S
H1694 C1725 0.929 . S
H1695 C1683 0.930 . S
H1696 C1684 0.929 . S
H1697 C1726 0.930 . S
H1698 C1707 0.930 . S
N1699 Gd1668 2.661 . S
N1699 C1703 1.350 . S
N1699 C1704 1.307 . S
C1700 H1692 0.930 . S
C1700 C1701 1.355 . S
C1700 C1702 1.412 . S
C1701 H1693 0.930 . S
C1701 C1700 1.355 . S
C1701 C1704 1.402 . S
C1702 C1700 1.412 . S
C1702 C1703 1.417 . S
C1702 C1726 1.431 . S
C1703 N1699 1.350 . S
C1703 C1702 1.417 . S
C1703 C1706 1.426 . S
C1704 H1687 0.930 . S
C1704 N1699 1.307 . S
C1704 C1701 1.402 . S
N1705 Gd1668 2.601 . S
N1705 C1706 1.359 . S
N1705 C1709 1.334 . S
C1706 C1703 1.426 . S
C1706 N1705 1.359 . S
C1706 C1710 1.413 . S
C1707 H1698 0.930 . S
C1707 C1708 1.359 . S
C1707 C1709 1.394 . S
C1708 C1707 1.359 . S
C1708 C1710 1.391 . S
C1708 H1711 0.929 . S
C1709 H1691 0.930 . S
C1709 N1705 1.334 . S
C1709 C1707 1.394 . S
C1710 C1706 1.413 . S
C1710 C1708 1.391 . S
C1710 C1725 1.437 . S
H1711 C1708 0.929 . S
O1712 Gd1668 2.545 . S
O1712 C1727 1.258 . S
O1713 Gd1668 2.606 . S
O1713 Gd1669 2.362 . S
O1713 C1724 1.284 . S
O1714 Gd1669 2.324 . S
O1714 C1734 1.254 . S
O1715 Gd1668 2.429 . S
O1715 C1734 1.268 . S
O1716 Gd1668 2.545 . S
O1716 C1724 1.250 . S
O1717 Gd1668 2.412 . S
O1717 C1727 1.252 . S
O1718 Gd1669 2.545 . S
O1718 C1736 1.258 . S
O1719 Gd1668 2.362 . S
O1719 Gd1669 2.606 . S
O1719 C1735 1.284 . S
O1720 Gd1668 2.324 . S
O1720 C1743 1.254 . S
O1721 Gd1669 2.429 . S
O1721 C1743 1.268 . S
O1722 Gd1669 2.545 . S
O1722 C1735 1.250 . S
O1723 Gd1669 2.412 . S
O1723 C1736 1.252 . S
C1724 O1713 1.284 . S
C1724 O1716 1.250 . S
C1725 H1694 0.929 . S
C1725 C1710 1.437 . S
C1725 C1726 1.317 . S
C1726 H1697 0.930 . S
C1726 C1702 1.431 . S
C1726 C1725 1.317 . S
C1727 Gd1668 2.828 . S
C1727 O1712 1.258 . S
C1727 O1717 1.252 . S
C1727 C1728 1.497 . S
C1728 C1727 1.497 . S
C1728 C1729 1.395 . S
C1728 C1730 1.380 . S
C1729 C1728 1.395 . S
C1729 C1732 1.398 . S
C1729 H1744 0.930 . S
C1730 C1728 1.380 . S
C1730 C1731 1.391 . S
C1730 H1745 0.930 . S
C1731 C1730 1.391 . S
C1731 C1733 1.387 . S
C1732 C1729 1.398 . S
C1732 C1733 1.380 . S
C1732 H1746 0.930 . S
C1733 C1731 1.387 . S
C1733 C1732 1.380 . S
C1733 H1747 0.930 . S
C1734 O1714 1.254 . S
C1734 O1715 1.268 . S
C1735 O1719 1.284 . S
C1735 O1722 1.250 . S
C1736 Gd1669 2.828 . S
C1736 O1718 1.258 . S
C1736 O1723 1.252 . S
C1736 C1737 1.497 . S
C1737 C1736 1.497 . S
C1737 C1738 1.395 . S
C1737 C1739 1.380 . S
C1738 C1737 1.395 . S
C1738 C1741 1.398 . S
C1738 H1748 0.930 . S
C1739 C1737 1.380 . S
C1739 C1740 1.391 . S
C1739 H1749 0.930 . S
C1740 C1739 1.391 . S
C1740 C1742 1.387 . S
C1741 C1738 1.398 . S
C1741 C1742 1.380 . S
C1741 H1750 0.930 . S
C1742 C1740 1.387 . S
C1742 C1741 1.380 . S
C1742 H1751 0.930 . S
C1743 O1720 1.254 . S
C1743 O1721 1.268 . S
H1744 C1729 0.930 . S
H1745 C1730 0.930 . S
H1746 C1732 0.930 . S
H1747 C1733 0.930 . S
H1748 C1738 0.930 . S
H1749 C1739 0.930 . S
H1750 C1741 0.930 . S
H1751 C1742 0.930 . S
Gd1752 N1783 2.661 . S
Gd1752 N1789 2.601 . S
Gd1752 O1796 2.545 . S
Gd1752 O1797 2.606 . S
Gd1752 O1799 2.429 . S
Gd1752 O1800 2.545 . S
Gd1752 O1801 2.412 . S
Gd1752 O1803 2.362 . S
Gd1752 O1804 2.324 . S
Gd1752 C1811 2.828 . S
Gd1753 N1762 2.661 . S
Gd1753 N1766 2.601 . S
Gd1753 O1797 2.362 . S
Gd1753 O1798 2.324 . S
Gd1753 O1802 2.545 . S
Gd1753 O1803 2.606 . S
Gd1753 O1805 2.429 . S
Gd1753 O1806 2.545 . S
Gd1753 O1807 2.412 . S
Gd1753 C1820 2.828 . S
C1754 C1757 1.417 . S
C1754 C1759 1.431 . S
C1754 C1760 1.412 . S
C1755 C1758 1.437 . S
C1755 C1759 1.317 . S
C1755 H1774 0.929 . S
C1756 C1757 1.426 . S
C1756 C1758 1.413 . S
C1756 N1766 1.359 . S
C1757 C1754 1.417 . S
C1757 C1756 1.426 . S
C1757 N1762 1.350 . S
C1758 C1755 1.437 . S
C1758 C1756 1.413 . S
C1758 C1768 1.391 . S
C1759 C1754 1.431 . S
C1759 C1755 1.317 . S
C1759 H1770 0.930 . S
C1760 C1754 1.412 . S
C1760 C1761 1.355 . S
C1760 H1772 0.930 . S
C1761 C1760 1.355 . S
C1761 C1763 1.402 . S
C1761 H1773 0.930 . S
N1762 Gd1753 2.661 . S
N1762 C1757 1.350 . S
N1762 C1763 1.307 . S
C1763 C1761 1.402 . S
C1763 N1762 1.307 . S
C1763 H1764 0.930 . S
H1764 C1763 0.930 . S
C1765 N1766 1.334 . S
C1765 C1767 1.394 . S
C1765 H1769 0.930 . S
N1766 Gd1753 2.601 . S
N1766 C1756 1.359 . S
N1766 C1765 1.334 . S
C1767 C1765 1.394 . S
C1767 C1768 1.359 . S
C1767 H1779 0.930 . S
C1768 C1758 1.391 . S
C1768 C1767 1.359 . S
C1768 H1780 0.929 . S
H1769 C1765 0.930 . S
H1770 C1759 0.930 . S
H1771 C1788 0.930 . S
H1772 C1760 0.930 . S
H1773 C1761 0.930 . S
H1774 C1755 0.929 . S
H1775 C1793 0.930 . S
H1776 C1784 0.930 . S
H1777 C1785 0.930 . S
H1778 C1809 0.929 . S
H1779 C1767 0.930 . S
H1780 C1768 0.929 . S
H1781 C1810 0.930 . S
H1782 C1791 0.930 . S
N1783 Gd1752 2.661 . S
N1783 C1787 1.350 . S
N1783 C1788 1.307 . S
C1784 H1776 0.930 . S
C1784 C1785 1.355 . S
C1784 C1786 1.412 . S
C1785 H1777 0.930 . S
C1785 C1784 1.355 . S
C1785 C1788 1.402 . S
C1786 C1784 1.412 . S
C1786 C1787 1.417 . S
C1786 C1810 1.431 . S
C1787 N1783 1.350 . S
C1787 C1786 1.417 . S
C1787 C1790 1.426 . S
C1788 H1771 0.930 . S
C1788 N1783 1.307 . S
C1788 C1785 1.402 . S
N1789 Gd1752 2.601 . S
N1789 C1790 1.359 . S
N1789 C1793 1.334 . S
C1790 C1787 1.426 . S
C1790 N1789 1.359 . S
C1790 C1794 1.413 . S
C1791 H1782 0.930 . S
C1791 C1792 1.359 . S
C1791 C1793 1.394 . S
C1792 C1791 1.359 . S
C1792 C1794 1.391 . S
C1792 H1795 0.929 . S
C1793 H1775 0.930 . S
C1793 N1789 1.334 . S
C1793 C1791 1.394 . S
C1794 C1790 1.413 . S
C1794 C1792 1.391 . S
C1794 C1809 1.437 . S
H1795 C1792 0.929 . S
O1796 Gd1752 2.545 . S
O1796 C1811 1.258 . S
O1797 Gd1752 2.606 . S
O1797 Gd1753 2.362 . S
O1797 C1808 1.284 . S
O1798 Gd1753 2.324 . S
O1798 C1818 1.254 . S
O1799 Gd1752 2.429 . S
O1799 C1818 1.268 . S
O1800 Gd1752 2.545 . S
O1800 C1808 1.250 . S
O1801 Gd1752 2.412 . S
O1801 C1811 1.252 . S
O1802 Gd1753 2.545 . S
O1802 C1820 1.258 . S
O1803 Gd1752 2.362 . S
O1803 Gd1753 2.606 . S
O1803 C1819 1.284 . S
O1804 Gd1752 2.324 . S
O1804 C1827 1.254 . S
O1805 Gd1753 2.429 . S
O1805 C1827 1.268 . S
O1806 Gd1753 2.545 . S
O1806 C1819 1.250 . S
O1807 Gd1753 2.412 . S
O1807 C1820 1.252 . S
C1808 O1797 1.284 . S
C1808 O1800 1.250 . S
C1809 H1778 0.929 . S
C1809 C1794 1.437 . S
C1809 C1810 1.317 . S
C1810 H1781 0.930 . S
C1810 C1786 1.431 . S
C1810 C1809 1.317 . S
C1811 Gd1752 2.828 . S
C1811 O1796 1.258 . S
C1811 O1801 1.252 . S
C1811 C1812 1.497 . S
C1812 C1811 1.497 . S
C1812 C1813 1.395 . S
C1812 C1814 1.380 . S
C1813 C1812 1.395 . S
C1813 C1816 1.398 . S
C1813 H1828 0.930 . S
C1814 C1812 1.380 . S
C1814 C1815 1.391 . S
C1814 H1829 0.930 . S
C1815 C1814 1.391 . S
C1815 C1817 1.387 . S
C1816 C1813 1.398 . S
C1816 C1817 1.380 . S
C1816 H1830 0.930 . S
C1817 C1815 1.387 . S
C1817 C1816 1.380 . S
C1817 H1831 0.930 . S
C1818 O1798 1.254 . S
C1818 O1799 1.268 . S
C1819 O1803 1.284 . S
C1819 O1806 1.250 . S
C1820 Gd1753 2.828 . S
C1820 O1802 1.258 . S
C1820 O1807 1.252 . S
C1820 C1821 1.497 . S
C1821 C1820 1.497 . S
C1821 C1822 1.395 . S
C1821 C1823 1.380 . S
C1822 C1821 1.395 . S
C1822 C1825 1.398 . S
C1822 H1832 0.930 . S
C1823 C1821 1.380 . S
C1823 C1824 1.391 . S
C1823 H1833 0.930 . S
C1824 C1823 1.391 . S
C1824 C1826 1.387 . S
C1825 C1822 1.398 . S
C1825 C1826 1.380 . S
C1825 H1834 0.930 . S
C1826 C1824 1.387 . S
C1826 C1825 1.380 . S
C1826 H1835 0.930 . S
C1827 O1804 1.254 . S
C1827 O1805 1.268 . S
H1828 C1813 0.930 . S
H1829 C1814 0.930 . S
H1830 C1816 0.930 . S
H1831 C1817 0.930 . S
H1832 C1822 0.930 . S
H1833 C1823 0.930 . S
H1834 C1825 0.930 . S
H1835 C1826 0.930 . S
C1836 C1837 1.387 . S
C1836 H1840 0.950 . S
C1836 C1845 1.390 . S
C1837 C1836 1.387 . S
C1837 C1839 1.387 . S
H1838 C1845 0.950 . S
C1839 C1837 1.387 . S
C1839 C1841 1.390 . S
C1839 H1843 0.950 . S
H1840 C1836 0.950 . S
C1841 C1839 1.390 . S
C1841 C1842 1.387 . S
C1841 H1844 0.950 . S
C1842 C1841 1.387 . S
C1842 C1845 1.387 . S
H1843 C1839 0.950 . S
H1844 C1841 0.950 . S
C1845 C1836 1.390 . S
C1845 H1838 0.950 . S
C1845 C1842 1.387 . S
C1846 C1847 1.387 . S
C1846 H1850 0.950 . S
C1846 C1855 1.390 . S
C1847 C1846 1.387 . S
C1847 C1849 1.387 . S
H1848 C1855 0.950 . S
C1849 C1847 1.387 . S
C1849 C1851 1.390 . S
C1849 H1853 0.950 . S
H1850 C1846 0.950 . S
C1851 C1849 1.390 . S
C1851 C1852 1.387 . S
C1851 H1854 0.950 . S
C1852 C1851 1.387 . S
C1852 C1855 1.387 . S
H1853 C1849 0.950 . S
H1854 C1851 0.950 . S
C1855 C1846 1.390 . S
C1855 H1848 0.950 . S
C1855 C1852 1.387 . S
C1856 C1857 1.387 . S
C1856 H1860 0.950 . S
C1856 C1865 1.390 . S
C1857 C1856 1.387 . S
C1857 C1859 1.387 . S
H1858 C1865 0.950 . S
C1859 C1857 1.387 . S
C1859 C1861 1.390 . S
C1859 H1863 0.950 . S
H1860 C1856 0.950 . S
C1861 C1859 1.390 . S
C1861 C1862 1.387 . S
C1861 H1864 0.950 . S
C1862 C1861 1.387 . S
C1862 C1865 1.387 . S
H1863 C1859 0.950 . S
H1864 C1861 0.950 . S
C1865 C1856 1.390 . S
C1865 H1858 0.950 . S
C1865 C1862 1.387 . S
C1866 C1867 1.387 . S
C1866 H1870 0.950 . S
C1866 C1875 1.390 . S
C1867 C1866 1.387 . S
C1867 C1869 1.387 . S
H1868 C1875 0.950 . S
C1869 C1867 1.387 . S
C1869 C1871 1.390 . S
C1869 H1873 0.950 . S
H1870 C1866 0.950 . S
C1871 C1869 1.390 . S
C1871 C1872 1.387 . S
C1871 H1874 0.950 . S
C1872 C1871 1.387 . S
C1872 C1875 1.387 . S
H1873 C1869 0.950 . S
H1874 C1871 0.950 . S
C1875 C1866 1.390 . S
C1875 H1868 0.950 . S
C1875 C1872 1.387 . S
C1876 C1877 1.387 . S
C1876 H1880 0.950 . S
C1876 C1885 1.390 . S
C1877 C1876 1.387 . S
C1877 C1879 1.387 . S
H1878 C1885 0.950 . S
C1879 C1877 1.387 . S
C1879 C1881 1.390 . S
C1879 H1883 0.950 . S
H1880 C1876 0.950 . S
C1881 C1879 1.390 . S
C1881 C1882 1.387 . S
C1881 H1884 0.950 . S
C1882 C1881 1.387 . S
C1882 C1885 1.387 . S
H1883 C1879 0.950 . S
H1884 C1881 0.950 . S
C1885 C1876 1.390 . S
C1885 H1878 0.950 . S
C1885 C1882 1.387 . S
C1886 C1887 1.387 . S
C1886 H1890 0.950 . S
C1886 C1895 1.390 . S
C1887 C1886 1.387 . S
C1887 C1889 1.387 . S
H1888 C1895 0.950 . S
C1889 C1887 1.387 . S
C1889 C1891 1.390 . S
C1889 H1893 0.950 . S
H1890 C1886 0.950 . S
C1891 C1889 1.390 . S
C1891 C1892 1.387 . S
C1891 H1894 0.950 1_556 S
C1892 C1891 1.387 . S
C1892 C1895 1.387 . S
H1893 C1889 0.950 . S
H1894 C1891 0.950 1_554 S
C1895 C1886 1.390 . S
C1895 H1888 0.950 . S
C1895 C1892 1.387 . S
C1896 C1897 1.387 . S
C1896 H1900 0.950 . S
C1896 C1905 1.390 . S
C1897 C1896 1.387 . S
C1897 C1899 1.387 . S
H1898 C1905 0.950 . S
C1899 C1897 1.387 . S
C1899 C1901 1.390 . S
C1899 H1903 0.950 . S
H1900 C1896 0.950 . S
C1901 C1899 1.390 . S
C1901 C1902 1.387 . S
C1901 H1904 0.950 1_556 S
C1902 C1901 1.387 . S
C1902 C1905 1.387 . S
H1903 C1899 0.950 . S
H1904 C1901 0.950 1_554 S
C1905 C1896 1.390 . S
C1905 H1898 0.950 . S
C1905 C1902 1.387 . S
C1906 C1907 1.387 . S
C1906 H1910 0.950 . S
C1906 C1915 1.390 . S
C1907 C1906 1.387 . S
C1907 C1909 1.387 . S
H1908 C1915 0.950 . S
C1909 C1907 1.387 . S
C1909 C1911 1.390 . S
C1909 H1913 0.950 . S
H1910 C1906 0.950 . S
C1911 C1909 1.390 . S
C1911 C1912 1.387 . S
C1911 H1914 0.950 1_556 S
C1912 C1911 1.387 . S
C1912 C1915 1.387 . S
H1913 C1909 0.950 . S
H1914 C1911 0.950 1_554 S
C1915 C1906 1.390 . S
C1915 H1908 0.950 . S
C1915 C1912 1.387 . S
C1916 C1917 1.387 . S
C1916 H1920 0.950 . S
C1916 C1925 1.390 . S
C1917 C1916 1.387 . S
C1917 C1919 1.387 . S
H1918 C1925 0.950 . S
C1919 C1917 1.387 . S
C1919 C1921 1.390 . S
C1919 H1923 0.950 . S
H1920 C1916 0.950 . S
C1921 C1919 1.390 . S
C1921 C1922 1.387 . S
C1921 H1924 0.950 . S
C1922 C1921 1.387 . S
C1922 C1925 1.387 . S
H1923 C1919 0.950 . S
H1924 C1921 0.950 . S
C1925 C1916 1.390 . S
C1925 H1918 0.950 . S
C1925 C1922 1.387 . S
C1926 C1927 1.387 . S
C1926 H1930 0.950 . S
C1926 C1935 1.390 . S
C1927 C1926 1.387 . S
C1927 C1929 1.387 . S
H1928 C1935 0.950 . S
C1929 C1927 1.387 . S
C1929 C1931 1.390 . S
C1929 H1933 0.950 . S
H1930 C1926 0.950 . S
C1931 C1929 1.390 . S
C1931 C1932 1.387 . S
C1931 H1934 0.950 1_554 S
C1932 C1931 1.387 . S
C1932 C1935 1.387 . S
H1933 C1929 0.950 . S
H1934 C1931 0.950 1_556 S
C1935 C1926 1.390 . S
C1935 H1928 0.950 . S
C1935 C1932 1.387 . S
C1936 C1937 1.387 . S
C1936 H1940 0.950 . S
C1936 C1945 1.390 . S
C1937 C1936 1.387 . S
C1937 C1939 1.387 . S
H1938 C1945 0.950 . S
C1939 C1937 1.387 . S
C1939 C1941 1.390 . S
C1939 H1943 0.950 . S
H1940 C1936 0.950 . S
C1941 C1939 1.390 . S
C1941 C1942 1.387 . S
C1941 H1944 0.950 . S
C1942 C1941 1.387 . S
C1942 C1945 1.387 . S
H1943 C1939 0.950 . S
H1944 C1941 0.950 . S
C1945 C1936 1.390 . S
C1945 H1938 0.950 . S
C1945 C1942 1.387 . S
C1946 C1947 1.387 . S
C1946 H1950 0.950 . S
C1946 C1955 1.390 . S
C1947 C1946 1.387 . S
C1947 C1949 1.387 . S
H1948 C1955 0.950 1_556 S
C1949 C1947 1.387 . S
C1949 C1951 1.390 . S
C1949 H1953 0.950 . S
H1950 C1946 0.950 . S
C1951 C1949 1.390 . S
C1951 C1952 1.387 . S
C1951 H1954 0.950 . S
C1952 C1951 1.387 . S
C1952 C1955 1.387 . S
H1953 C1949 0.950 . S
H1954 C1951 0.950 . S
C1955 C1946 1.390 . S
C1955 H1948 0.950 1_554 S
C1955 C1952 1.387 . S
C1956 C1957 1.387 . S
C1956 H1960 0.950 . S
C1956 C1965 1.390 . S
C1957 C1956 1.387 . S
C1957 C1959 1.387 . S
H1958 C1965 0.950 . S
C1959 C1957 1.387 . S
C1959 C1961 1.390 . S
C1959 H1963 0.950 . S
H1960 C1956 0.950 . S
C1961 C1959 1.390 . S
C1961 C1962 1.387 . S
C1961 H1964 0.950 . S
C1962 C1961 1.387 . S
C1962 C1965 1.387 . S
H1963 C1959 0.950 . S
H1964 C1961 0.950 . S
C1965 C1956 1.390 . S
C1965 H1958 0.950 . S
C1965 C1962 1.387 . S
C1966 C1967 1.387 . S
C1966 H1970 0.950 . S
C1966 C1975 1.390 . S
C1967 C1966 1.387 . S
C1967 C1969 1.387 . S
H1968 C1975 0.950 . S
C1969 C1967 1.387 . S
C1969 C1971 1.390 . S
C1969 H1973 0.950 . S
H1970 C1966 0.950 . S
C1971 C1969 1.390 . S
C1971 C1972 1.387 . S
C1971 H1974 0.950 . S
C1972 C1971 1.387 . S
C1972 C1975 1.387 . S
H1973 C1969 0.950 . S
H1974 C1971 0.950 . S
C1975 C1966 1.390 . S
C1975 H1968 0.950 . S
C1975 C1972 1.387 . S
C1976 C1977 1.387 . S
C1976 H1980 0.950 . S
C1976 C1985 1.390 . S
C1977 C1976 1.387 . S
C1977 C1979 1.387 . S
H1978 C1985 0.950 . S
C1979 C1977 1.387 . S
C1979 C1981 1.390 . S
C1979 H1983 0.950 . S
H1980 C1976 0.950 . S
C1981 C1979 1.390 . S
C1981 C1982 1.387 . S
C1981 H1984 0.950 . S
C1982 C1981 1.387 . S
C1982 C1985 1.387 . S
H1983 C1979 0.950 . S
H1984 C1981 0.950 . S
C1985 C1976 1.390 . S
C1985 H1978 0.950 . S
C1985 C1982 1.387 . S
C1986 C1987 1.387 . S
C1986 H1990 0.950 . S
C1986 C1995 1.390 . S
C1987 C1986 1.387 . S
C1987 C1989 1.387 . S
H1988 C1995 0.950 . S
C1989 C1987 1.387 . S
C1989 C1991 1.390 . S
C1989 H1993 0.950 . S
H1990 C1986 0.950 . S
C1991 C1989 1.390 . S
C1991 C1992 1.387 . S
C1991 H1994 0.950 . S
C1992 C1991 1.387 . S
C1992 C1995 1.387 . S
H1993 C1989 0.950 . S
H1994 C1991 0.950 . S
C1995 C1986 1.390 . S
C1995 H1988 0.950 . S
C1995 C1992 1.387 . S
C1996 C1997 1.387 . S
C1996 H2000 0.950 . S
C1996 C2005 1.390 . S
C1997 C1996 1.387 . S
C1997 C1999 1.387 . S
H1998 C2005 0.950 . S
C1999 C1997 1.387 . S
C1999 C2001 1.390 . S
C1999 H2003 0.950 . S
H2000 C1996 0.950 . S
C2001 C1999 1.390 . S
C2001 C2002 1.387 . S
C2001 H2004 0.950 . S
C2002 C2001 1.387 . S
C2002 C2005 1.387 . S
H2003 C1999 0.950 . S
H2004 C2001 0.950 . S
C2005 C1996 1.390 . S
C2005 H1998 0.950 . S
C2005 C2002 1.387 . S
C2006 C2007 1.387 . S
C2006 H2010 0.950 . S
C2006 C2015 1.390 . S
C2007 C2006 1.387 . S
C2007 C2009 1.387 . S
H2008 C2015 0.950 . S
C2009 C2007 1.387 . S
C2009 C2011 1.390 . S
C2009 H2013 0.950 . S
H2010 C2006 0.950 . S
C2011 C2009 1.390 . S
C2011 C2012 1.387 . S
C2011 H2014 0.950 . S
C2012 C2011 1.387 . S
C2012 C2015 1.387 . S
H2013 C2009 0.950 . S
H2014 C2011 0.950 . S
C2015 C2006 1.390 . S
C2015 H2008 0.950 . S
C2015 C2012 1.387 . S
C2016 C2017 1.387 . S
C2016 H2020 0.950 . S
C2016 C2025 1.390 . S
C2017 C2016 1.387 . S
C2017 C2019 1.387 . S
H2018 C2025 0.950 . S
C2019 C2017 1.387 . S
C2019 C2021 1.390 . S
C2019 H2023 0.950 . S
H2020 C2016 0.950 . S
C2021 C2019 1.390 . S
C2021 C2022 1.387 . S
C2021 H2024 0.950 . S
C2022 C2021 1.387 . S
C2022 C2025 1.387 . S
H2023 C2019 0.950 . S
H2024 C2021 0.950 . S
C2025 C2016 1.390 . S
C2025 H2018 0.950 . S
C2025 C2022 1.387 . S
C2026 C2027 1.387 . S
C2026 H2030 0.950 . S
C2026 C2035 1.390 . S
C2027 C2026 1.387 . S
C2027 C2029 1.387 . S
H2028 C2035 0.950 . S
C2029 C2027 1.387 . S
C2029 C2031 1.390 . S
C2029 H2033 0.950 . S
H2030 C2026 0.950 . S
C2031 C2029 1.390 . S
C2031 C2032 1.387 . S
C2031 H2034 0.950 . S
C2032 C2031 1.387 . S
C2032 C2035 1.387 . S
H2033 C2029 0.950 . S
H2034 C2031 0.950 . S
C2035 C2026 1.390 . S
C2035 H2028 0.950 . S
C2035 C2032 1.387 . S
C2036 C2037 1.387 . S
C2036 H2040 0.950 . S
C2036 C2045 1.390 . S
C2037 C2036 1.387 . S
C2037 C2039 1.387 . S
H2038 C2045 0.950 . S
C2039 C2037 1.387 . S
C2039 C2041 1.390 . S
C2039 H2043 0.950 . S
H2040 C2036 0.950 . S
C2041 C2039 1.390 . S
C2041 C2042 1.387 . S
C2041 H2044 0.950 . S
C2042 C2041 1.387 . S
C2042 C2045 1.387 . S
H2043 C2039 0.950 . S
H2044 C2041 0.950 . S
C2045 C2036 1.390 . S
C2045 H2038 0.950 . S
C2045 C2042 1.387 . S
C2046 C2047 1.387 . S
C2046 H2050 0.950 . S
C2046 C2055 1.390 . S
C2047 C2046 1.387 . S
C2047 C2049 1.387 . S
H2048 C2055 0.950 . S
C2049 C2047 1.387 . S
C2049 C2051 1.390 . S
C2049 H2053 0.950 . S
H2050 C2046 0.950 . S
C2051 C2049 1.390 . S
C2051 C2052 1.387 . S
C2051 H2054 0.950 . S
C2052 C2051 1.387 . S
C2052 C2055 1.387 . S
H2053 C2049 0.950 . S
H2054 C2051 0.950 . S
C2055 C2046 1.390 . S
C2055 H2048 0.950 . S
C2055 C2052 1.387 . S
C2056 C2057 1.387 . S
C2056 H2060 0.950 . S
C2056 C2065 1.390 . S
C2057 C2056 1.387 . S
C2057 C2059 1.387 . S
H2058 C2065 0.950 . S
C2059 C2057 1.387 . S
C2059 C2061 1.390 . S
C2059 H2063 0.950 . S
H2060 C2056 0.950 . S
C2061 C2059 1.390 . S
C2061 C2062 1.387 . S
C2061 H2064 0.950 . S
C2062 C2061 1.387 . S
C2062 C2065 1.387 . S
H2063 C2059 0.950 . S
H2064 C2061 0.950 . S
C2065 C2056 1.390 . S
C2065 H2058 0.950 . S
C2065 C2062 1.387 . S
C2066 C2067 1.387 . S
C2066 H2070 0.950 . S
C2066 C2075 1.390 . S
C2067 C2066 1.387 . S
C2067 C2069 1.387 . S
H2068 C2075 0.950 . S
C2069 C2067 1.387 . S
C2069 C2071 1.390 . S
C2069 H2073 0.950 . S
H2070 C2066 0.950 . S
C2071 C2069 1.390 . S
C2071 C2072 1.387 . S
C2071 H2074 0.950 . S
C2072 C2071 1.387 . S
C2072 C2075 1.387 . S
H2073 C2069 0.950 . S
H2074 C2071 0.950 . S
C2075 C2066 1.390 . S
C2075 H2068 0.950 . S
C2075 C2072 1.387 . S
C2076 C2077 1.387 . S
C2076 H2080 0.950 . S
C2076 C2085 1.390 . S
C2077 C2076 1.387 . S
C2077 C2079 1.387 . S
H2078 C2085 0.950 . S
C2079 C2077 1.387 . S
C2079 C2081 1.390 . S
C2079 H2083 0.950 . S
H2080 C2076 0.950 . S
C2081 C2079 1.390 . S
C2081 C2082 1.387 . S
C2081 H2084 0.950 . S
C2082 C2081 1.387 . S
C2082 C2085 1.387 . S
H2083 C2079 0.950 . S
H2084 C2081 0.950 . S
C2085 C2076 1.390 . S
C2085 H2078 0.950 . S
C2085 C2082 1.387 . S
C2086 C2087 1.387 . S
C2086 H2090 0.950 . S
C2086 C2095 1.390 . S
C2087 C2086 1.387 . S
C2087 C2089 1.387 . S
H2088 C2095 0.950 . S
C2089 C2087 1.387 . S
C2089 C2091 1.390 . S
C2089 H2093 0.950 . S
H2090 C2086 0.950 . S
C2091 C2089 1.390 . S
C2091 C2092 1.387 . S
C2091 H2094 0.950 . S
C2092 C2091 1.387 . S
C2092 C2095 1.387 . S
H2093 C2089 0.950 . S
H2094 C2091 0.950 . S
C2095 C2086 1.390 . S
C2095 H2088 0.950 . S
C2095 C2092 1.387 . S
C2096 C2097 1.387 . S
C2096 H2100 0.950 . S
C2096 C2105 1.390 . S
C2097 C2096 1.387 . S
C2097 C2099 1.387 . S
H2098 C2105 0.950 . S
C2099 C2097 1.387 . S
C2099 C2101 1.390 . S
C2099 H2103 0.950 . S
H2100 C2096 0.950 . S
C2101 C2099 1.390 . S
C2101 C2102 1.387 . S
C2101 H2104 0.950 . S
C2102 C2101 1.387 . S
C2102 C2105 1.387 . S
H2103 C2099 0.950 . S
H2104 C2101 0.950 . S
C2105 C2096 1.390 . S
C2105 H2098 0.950 . S
C2105 C2102 1.387 . S
C2106 C2107 1.387 . S
C2106 H2110 0.950 . S
C2106 C2115 1.390 . S
C2107 C2106 1.387 . S
C2107 C2109 1.387 . S
H2108 C2115 0.950 . S
C2109 C2107 1.387 . S
C2109 C2111 1.390 . S
C2109 H2113 0.950 . S
H2110 C2106 0.950 . S
C2111 C2109 1.390 . S
C2111 C2112 1.387 . S
C2111 H2114 0.950 . S
C2112 C2111 1.387 . S
C2112 C2115 1.387 . S
H2113 C2109 0.950 . S
H2114 C2111 0.950 . S
C2115 C2106 1.390 . S
C2115 H2108 0.950 . S
C2115 C2112 1.387 . S
C2116 C2117 1.387 . S
C2116 H2120 0.950 . S
C2116 C2125 1.390 . S
C2117 C2116 1.387 . S
C2117 C2119 1.387 . S
H2118 C2125 0.950 . S
C2119 C2117 1.387 . S
C2119 C2121 1.390 . S
C2119 H2123 0.950 . S
H2120 C2116 0.950 . S
C2121 C2119 1.390 . S
C2121 C2122 1.387 . S
C2121 H2124 0.950 . S
C2122 C2121 1.387 . S
C2122 C2125 1.387 . S
H2123 C2119 0.950 . S
H2124 C2121 0.950 . S
C2125 C2116 1.390 . S
C2125 H2118 0.950 . S
C2125 C2122 1.387 . S
C2126 C2127 1.387 . S
C2126 H2130 0.950 . S
C2126 C2135 1.390 . S
C2127 C2126 1.387 . S
C2127 C2129 1.387 . S
H2128 C2135 0.950 . S
C2129 C2127 1.387 . S
C2129 C2131 1.390 . S
C2129 H2133 0.950 . S
H2130 C2126 0.950 . S
C2131 C2129 1.390 . S
C2131 C2132 1.387 . S
C2131 H2134 0.950 . S
C2132 C2131 1.387 . S
C2132 C2135 1.387 . S
H2133 C2129 0.950 . S
H2134 C2131 0.950 . S
C2135 C2126 1.390 . S
C2135 H2128 0.950 . S
C2135 C2132 1.387 . S
C2136 C2137 1.387 . S
C2136 H2140 0.950 . S
C2136 C2145 1.390 . S
C2137 C2136 1.387 . S
C2137 C2139 1.387 . S
H2138 C2145 0.950 . S
C2139 C2137 1.387 . S
C2139 C2141 1.390 . S
C2139 H2143 0.950 . S
H2140 C2136 0.950 . S
C2141 C2139 1.390 . S
C2141 C2142 1.387 . S
C2141 H2144 0.950 . S
C2142 C2141 1.387 . S
C2142 C2145 1.387 . S
H2143 C2139 0.950 . S
H2144 C2141 0.950 . S
C2145 C2136 1.390 . S
C2145 H2138 0.950 . S
C2145 C2142 1.387 . S
C2146 C2147 1.387 . S
C2146 H2150 0.950 . S
C2146 C2155 1.390 . S
C2147 C2146 1.387 . S
C2147 C2149 1.387 . S
H2148 C2155 0.950 . S
C2149 C2147 1.387 . S
C2149 C2151 1.390 . S
C2149 H2153 0.950 . S
H2150 C2146 0.950 . S
C2151 C2149 1.390 . S
C2151 C2152 1.387 . S
C2151 H2154 0.950 . S
C2152 C2151 1.387 . S
C2152 C2155 1.387 . S
H2153 C2149 0.950 . S
H2154 C2151 0.950 . S
C2155 C2146 1.390 . S
C2155 H2148 0.950 . S
C2155 C2152 1.387 . S
C2156 C2157 1.387 . S
C2156 H2160 0.950 . S
C2156 C2165 1.390 . S
C2157 C2156 1.387 . S
C2157 C2159 1.387 . S
H2158 C2165 0.950 . S
C2159 C2157 1.387 . S
C2159 C2161 1.390 . S
C2159 H2163 0.950 . S
H2160 C2156 0.950 . S
C2161 C2159 1.390 . S
C2161 C2162 1.387 . S
C2161 H2164 0.950 . S
C2162 C2161 1.387 . S
C2162 C2165 1.387 . S
H2163 C2159 0.950 . S
H2164 C2161 0.950 . S
C2165 C2156 1.390 . S
C2165 H2158 0.950 . S
C2165 C2162 1.387 . S
C2166 C2167 1.387 . S
C2166 H2170 0.950 . S
C2166 C2175 1.390 . S
C2167 C2166 1.387 . S
C2167 C2169 1.387 . S
H2168 C2175 0.950 . S
C2169 C2167 1.387 . S
C2169 C2171 1.390 . S
C2169 H2173 0.950 . S
H2170 C2166 0.950 . S
C2171 C2169 1.390 . S
C2171 C2172 1.387 . S
C2171 H2174 0.950 . S
C2172 C2171 1.387 . S
C2172 C2175 1.387 . S
H2173 C2169 0.950 . S
H2174 C2171 0.950 . S
C2175 C2166 1.390 . S
C2175 H2168 0.950 . S
C2175 C2172 1.387 . S
C2176 C2177 1.387 . S
C2176 H2180 0.950 . S
C2176 C2185 1.390 . S
C2177 C2176 1.387 . S
C2177 C2179 1.387 . S
H2178 C2185 0.950 . S
C2179 C2177 1.387 . S
C2179 C2181 1.390 . S
C2179 H2183 0.950 . S
H2180 C2176 0.950 . S
C2181 C2179 1.390 . S
C2181 C2182 1.387 . S
C2181 H2184 0.950 . S
C2182 C2181 1.387 . S
C2182 C2185 1.387 . S
H2183 C2179 0.950 . S
H2184 C2181 0.950 . S
C2185 C2176 1.390 . S
C2185 H2178 0.950 . S
C2185 C2182 1.387 . S
C2186 C2187 1.387 . S
C2186 H2190 0.950 . S
C2186 C2195 1.390 . S
C2187 C2186 1.387 . S
C2187 C2189 1.387 . S
H2188 C2195 0.950 . S
C2189 C2187 1.387 . S
C2189 C2191 1.390 . S
C2189 H2193 0.950 . S
H2190 C2186 0.950 . S
C2191 C2189 1.390 . S
C2191 C2192 1.387 . S
C2191 H2194 0.950 . S
C2192 C2191 1.387 . S
C2192 C2195 1.387 . S
H2193 C2189 0.950 . S
H2194 C2191 0.950 . S
C2195 C2186 1.390 . S
C2195 H2188 0.950 . S
C2195 C2192 1.387 . S
C2196 C2197 1.387 . S
C2196 H2200 0.950 . S
C2196 C2205 1.390 . S
C2197 C2196 1.387 . S
C2197 C2199 1.387 . S
H2198 C2205 0.950 . S
C2199 C2197 1.387 . S
C2199 C2201 1.390 . S
C2199 H2203 0.950 . S
H2200 C2196 0.950 . S
C2201 C2199 1.390 . S
C2201 C2202 1.387 . S
C2201 H2204 0.950 . S
C2202 C2201 1.387 . S
C2202 C2205 1.387 . S
H2203 C2199 0.950 . S
H2204 C2201 0.950 . S
C2205 C2196 1.390 . S
C2205 H2198 0.950 . S
C2205 C2202 1.387 . S
C2206 C2207 1.387 . S
C2206 H2210 0.950 . S
C2206 C2215 1.390 . S
C2207 C2206 1.387 . S
C2207 C2209 1.387 . S
H2208 C2215 0.950 . S
C2209 C2207 1.387 . S
C2209 C2211 1.390 . S
C2209 H2213 0.950 . S
H2210 C2206 0.950 . S
C2211 C2209 1.390 . S
C2211 C2212 1.387 . S
C2211 H2214 0.950 . S
C2212 C2211 1.387 . S
C2212 C2215 1.387 . S
H2213 C2209 0.950 . S
H2214 C2211 0.950 . S
C2215 C2206 1.390 . S
C2215 H2208 0.950 . S
C2215 C2212 1.387 . S
C2216 C2217 1.387 . S
C2216 H2220 0.950 . S
C2216 C2225 1.390 . S
C2217 C2216 1.387 . S
C2217 C2219 1.387 . S
H2218 C2225 0.950 . S
C2219 C2217 1.387 . S
C2219 C2221 1.390 . S
C2219 H2223 0.950 . S
H2220 C2216 0.950 . S
C2221 C2219 1.390 . S
C2221 C2222 1.387 . S
C2221 H2224 0.950 . S
C2222 C2221 1.387 . S
C2222 C2225 1.387 . S
H2223 C2219 0.950 . S
H2224 C2221 0.950 . S
C2225 C2216 1.390 . S
C2225 H2218 0.950 . S
C2225 C2222 1.387 . S
C2226 C2227 1.387 . S
C2226 H2230 0.950 . S
C2226 C2235 1.390 . S
C2227 C2226 1.387 . S
C2227 C2229 1.387 . S
H2228 C2235 0.950 . S
C2229 C2227 1.387 . S
C2229 C2231 1.390 . S
C2229 H2233 0.950 . S
H2230 C2226 0.950 . S
C2231 C2229 1.390 . S
C2231 C2232 1.387 . S
C2231 H2234 0.950 . S
C2232 C2231 1.387 . S
C2232 C2235 1.387 . S
H2233 C2229 0.950 . S
H2234 C2231 0.950 . S
C2235 C2226 1.390 . S
C2235 H2228 0.950 . S
C2235 C2232 1.387 . S
C2236 C2237 1.387 . S
C2236 H2240 0.950 . S
C2236 C2245 1.390 . S
C2237 C2236 1.387 . S
C2237 C2239 1.387 . S
H2238 C2245 0.950 . S
C2239 C2237 1.387 . S
C2239 C2241 1.390 . S
C2239 H2243 0.950 . S
H2240 C2236 0.950 . S
C2241 C2239 1.390 . S
C2241 C2242 1.387 . S
C2241 H2244 0.950 . S
C2242 C2241 1.387 . S
C2242 C2245 1.387 . S
H2243 C2239 0.950 . S
H2244 C2241 0.950 . S
C2245 C2236 1.390 . S
C2245 H2238 0.950 . S
C2245 C2242 1.387 . S
C2246 C2247 1.387 . S
C2246 H2250 0.950 . S
C2246 C2255 1.390 . S
C2247 C2246 1.387 . S
C2247 C2249 1.387 . S
H2248 C2255 0.950 . S
C2249 C2247 1.387 . S
C2249 C2251 1.390 . S
C2249 H2253 0.950 . S
H2250 C2246 0.950 . S
C2251 C2249 1.390 . S
C2251 C2252 1.387 . S
C2251 H2254 0.950 . S
C2252 C2251 1.387 . S
C2252 C2255 1.387 . S
H2253 C2249 0.950 . S
H2254 C2251 0.950 . S
C2255 C2246 1.390 . S
C2255 H2248 0.950 . S
C2255 C2252 1.387 . S
C2256 C2257 1.387 . S
C2256 H2260 0.950 . S
C2256 C2265 1.390 . S
C2257 C2256 1.387 . S
C2257 C2259 1.387 . S
H2258 C2265 0.950 . S
C2259 C2257 1.387 . S
C2259 C2261 1.390 . S
C2259 H2263 0.950 . S
H2260 C2256 0.950 . S
C2261 C2259 1.390 . S
C2261 C2262 1.387 . S
C2261 H2264 0.950 . S
C2262 C2261 1.387 . S
C2262 C2265 1.387 . S
H2263 C2259 0.950 . S
H2264 C2261 0.950 . S
C2265 C2256 1.390 . S
C2265 H2258 0.950 . S
C2265 C2262 1.387 . S
C2266 C2267 1.387 . S
C2266 H2270 0.950 . S
C2266 C2275 1.390 . S
C2267 C2266 1.387 . S
C2267 C2269 1.387 . S
H2268 C2275 0.950 . S
C2269 C2267 1.387 . S
C2269 C2271 1.390 . S
C2269 H2273 0.950 . S
H2270 C2266 0.950 . S
C2271 C2269 1.390 . S
C2271 C2272 1.387 . S
C2271 H2274 0.950 . S
C2272 C2271 1.387 . S
C2272 C2275 1.387 . S
H2273 C2269 0.950 . S
H2274 C2271 0.950 . S
C2275 C2266 1.390 . S
C2275 H2268 0.950 . S
C2275 C2272 1.387 . S
C2276 C2277 1.387 . S
C2276 H2280 0.950 . S
C2276 C2285 1.390 . S
C2277 C2276 1.387 . S
C2277 C2279 1.387 . S
H2278 C2285 0.950 . S
C2279 C2277 1.387 . S
C2279 C2281 1.390 . S
C2279 H2283 0.950 . S
H2280 C2276 0.950 . S
C2281 C2279 1.390 . S
C2281 C2282 1.387 . S
C2281 H2284 0.950 . S
C2282 C2281 1.387 . S
C2282 C2285 1.387 . S
H2283 C2279 0.950 . S
H2284 C2281 0.950 . S
C2285 C2276 1.390 . S
C2285 H2278 0.950 . S
C2285 C2282 1.387 . S
C2286 C2287 1.387 . S
C2286 H2290 0.950 . S
C2286 C2295 1.390 . S
C2287 C2286 1.387 . S
C2287 C2289 1.387 . S
H2288 C2295 0.950 . S
C2289 C2287 1.387 . S
C2289 C2291 1.390 . S
C2289 H2293 0.950 . S
H2290 C2286 0.950 . S
C2291 C2289 1.390 . S
C2291 C2292 1.387 . S
C2291 H2294 0.950 . S
C2292 C2291 1.387 . S
C2292 C2295 1.387 . S
H2293 C2289 0.950 . S
H2294 C2291 0.950 . S
C2295 C2286 1.390 . S
C2295 H2288 0.950 . S
C2295 C2292 1.387 . S
C2296 C2297 1.387 . S
C2296 H2300 0.950 . S
C2296 C2305 1.390 . S
C2297 C2296 1.387 . S
C2297 C2299 1.387 . S
H2298 C2305 0.950 . S
C2299 C2297 1.387 . S
C2299 C2301 1.390 . S
C2299 H2303 0.950 . S
H2300 C2296 0.950 . S
C2301 C2299 1.390 . S
C2301 C2302 1.387 . S
C2301 H2304 0.950 . S
C2302 C2301 1.387 . S
C2302 C2305 1.387 . S
H2303 C2299 0.950 . S
H2304 C2301 0.950 . S
C2305 C2296 1.390 . S
C2305 H2298 0.950 . S
C2305 C2302 1.387 . S
C2306 C2307 1.387 . S
C2306 H2310 0.950 . S
C2306 C2315 1.390 . S
C2307 C2306 1.387 . S
C2307 C2309 1.387 . S
H2308 C2315 0.950 . S
C2309 C2307 1.387 . S
C2309 C2311 1.390 . S
C2309 H2313 0.950 . S
H2310 C2306 0.950 . S
C2311 C2309 1.390 . S
C2311 C2312 1.387 . S
C2311 H2314 0.950 . S
C2312 C2311 1.387 . S
C2312 C2315 1.387 . S
H2313 C2309 0.950 . S
H2314 C2311 0.950 . S
C2315 C2306 1.390 . S
C2315 H2308 0.950 . S
C2315 C2312 1.387 . S
C2316 C2317 1.387 . S
C2316 H2320 0.950 . S
C2316 C2325 1.390 . S
C2317 C2316 1.387 . S
C2317 C2319 1.387 . S
H2318 C2325 0.950 . S
C2319 C2317 1.387 . S
C2319 C2321 1.390 . S
C2319 H2323 0.950 . S
H2320 C2316 0.950 . S
C2321 C2319 1.390 . S
C2321 C2322 1.387 . S
C2321 H2324 0.950 . S
C2322 C2321 1.387 . S
C2322 C2325 1.387 . S
H2323 C2319 0.950 . S
H2324 C2321 0.950 . S
C2325 C2316 1.390 . S
C2325 H2318 0.950 . S
C2325 C2322 1.387 . S
C2326 C2327 1.387 . S
C2326 H2330 0.950 . S
C2326 C2335 1.390 . S
C2327 C2326 1.387 . S
C2327 C2329 1.387 . S
H2328 C2335 0.950 . S
C2329 C2327 1.387 . S
C2329 C2331 1.390 . S
C2329 H2333 0.950 . S
H2330 C2326 0.950 . S
C2331 C2329 1.390 . S
C2331 C2332 1.387 . S
C2331 H2334 0.950 . S
C2332 C2331 1.387 . S
C2332 C2335 1.387 . S
H2333 C2329 0.950 . S
H2334 C2331 0.950 . S
C2335 C2326 1.390 . S
C2335 H2328 0.950 . S
C2335 C2332 1.387 . S
C2336 C2337 1.387 . S
C2336 H2340 0.950 . S
C2336 C2345 1.390 . S
C2337 C2336 1.387 . S
C2337 C2339 1.387 . S
H2338 C2345 0.950 . S
C2339 C2337 1.387 . S
C2339 C2341 1.390 . S
C2339 H2343 0.950 . S
H2340 C2336 0.950 . S
C2341 C2339 1.390 . S
C2341 C2342 1.387 . S
C2341 H2344 0.950 . S
C2342 C2341 1.387 . S
C2342 C2345 1.387 . S
H2343 C2339 0.950 . S
H2344 C2341 0.950 . S
C2345 C2336 1.390 . S
C2345 H2338 0.950 . S
C2345 C2342 1.387 . S
C2346 C2347 1.387 . S
C2346 H2350 0.950 . S
C2346 C2355 1.390 . S
C2347 C2346 1.387 . S
C2347 C2349 1.387 . S
H2348 C2355 0.950 . S
C2349 C2347 1.387 . S
C2349 C2351 1.390 . S
C2349 H2353 0.950 . S
H2350 C2346 0.950 . S
C2351 C2349 1.390 . S
C2351 C2352 1.387 . S
C2351 H2354 0.950 . S
C2352 C2351 1.387 . S
C2352 C2355 1.387 . S
H2353 C2349 0.950 . S
H2354 C2351 0.950 . S
C2355 C2346 1.390 . S
C2355 H2348 0.950 . S
C2355 C2352 1.387 . S
C2356 C2357 1.387 . S
C2356 H2360 0.950 . S
C2356 C2365 1.390 . S
C2357 C2356 1.387 . S
C2357 C2359 1.387 . S
H2358 C2365 0.950 . S
C2359 C2357 1.387 . S
C2359 C2361 1.390 . S
C2359 H2363 0.950 . S
H2360 C2356 0.950 . S
C2361 C2359 1.390 . S
C2361 C2362 1.387 . S
C2361 H2364 0.950 . S
C2362 C2361 1.387 . S
C2362 C2365 1.387 . S
H2363 C2359 0.950 . S
H2364 C2361 0.950 . S
C2365 C2356 1.390 . S
C2365 H2358 0.950 . S
C2365 C2362 1.387 . S
C2366 C2367 1.387 . S
C2366 H2370 0.950 . S
C2366 C2375 1.390 . S
C2367 C2366 1.387 . S
C2367 C2369 1.387 . S
H2368 C2375 0.950 . S
C2369 C2367 1.387 . S
C2369 C2371 1.390 . S
C2369 H2373 0.950 . S
H2370 C2366 0.950 . S
C2371 C2369 1.390 . S
C2371 C2372 1.387 . S
C2371 H2374 0.950 . S
C2372 C2371 1.387 . S
C2372 C2375 1.387 . S
H2373 C2369 0.950 . S
H2374 C2371 0.950 . S
C2375 C2366 1.390 . S
C2375 H2368 0.950 . S
C2375 C2372 1.387 . S
C1837 C781 1.468 . S
C1842 C1136 1.405 . S
C1847 C871 1.458 . S
C1852 C1220 1.416 . S
C1857 C751 1.475 . S
C1862 C1314 1.455 . S
C1867 C691 1.437 . S
C1872 C1230 1.420 . S
C1882 C1304 1.363 . S
C1877 C571 1.406 . S
C1887 C601 1.457 . S
C1892 C1146 1.409 . S
C1902 C1147 1.402 . S
C1897 C661 1.427 . S
C1912 C1231 1.419 . S
C1907 C541 1.447 . S
C1917 C631 1.525 . S
C1922 C1323 1.455 . S
C1927 C811 1.474 . S
C1932 C1239 1.416 . S
C1937 C841 1.399 . S
C1942 C1315 1.361 . S
C1952 C1155 1.409 . S
C1947 C721 1.409 . S
C1962 C1388 1.402 . S
C1957 C61 1.469 1_455 S
C1967 C151 1.458 . S
C1972 C1472 1.419 . S
C1977 C31 1.475 1_565 S
C1982 C1566 1.457 . S
C1987 C1051 1.435 . S
C1992 C1482 1.417 . S
C1997 C931 1.404 . S
C2002 C1556 1.363 . S
C2007 C961 1.458 . S
C2012 C1398 1.409 . S
C2017 C1021 1.430 . S
C2022 C1399 1.403 . S
C2027 C901 1.446 . S
C2032 C1483 1.419 . S
C2042 C1575 1.457 . S
C2037 C991 1.525 . S
C2047 C91 1.474 1_565 S
C2052 C1491 1.419 . S
C2062 C1567 1.361 . S
C2057 C121 1.372 1_455 S
C2067 C1 1.407 . S
C2072 C1407 1.406 . S
C2082 C1640 1.405 . S
C2077 C421 1.469 . S
C2087 C511 1.461 . S
C2092 C1724 1.423 . S
C2102 C1818 1.456 . S
C2097 C391 1.474 . S
C2112 C1734 1.417 . S
C2107 C331 1.436 1_545 S
C2122 C1808 1.365 . S
C2117 C211 1.407 1_655 S
C2127 C241 1.457 . S
C2132 C1650 1.405 . S
C2137 C301 1.427 1_655 S
C2142 C1651 1.403 . S
C2147 C181 1.444 . S
C2152 C1735 1.422 . S
C2162 C1827 1.456 . S
C2157 C271 1.525 1_545 S
C2167 C451 1.474 . S
C2172 C1743 1.416 . S
C2177 C481 1.397 . S
C2182 C1819 1.360 . S
C2187 C361 1.406 . S
C2192 C1659 1.405 . S
C2197 C920 1.462 . S
C2202 C1143 1.377 . S
C2212 C1227 1.371 . S
C2207 C980 1.500 . S
C2217 C1040 1.469 . S
C2222 C1320 1.365 . S
C2227 C380 1.489 . S
C2232 C1236 1.372 . S
C2237 C440 1.470 . S
C2242 C1311 1.366 . S
C2252 C1152 1.381 . S
C2247 C500 1.467 . S
C2257 C200 1.462 . S
C2262 C1395 1.377 . S
C2267 C260 1.502 . S
C2272 C1479 1.368 . S
C2277 C320 1.469 . S
C2282 C1572 1.363 . S
C2287 C740 1.489 . S
C2292 C1488 1.370 . S
C2302 C1563 1.363 . S
C2297 C800 1.471 . S
C2307 C860 1.466 . S
C2312 C1404 1.377 . S
C2317 C560 1.461 . S
C2322 C1647 1.378 . S
C2327 C620 1.502 . S
C2332 C1731 1.370 . S
C2342 C1824 1.367 . S
C2337 C680 1.470 . S
C2347 C20 1.489 . S
C2352 C1740 1.368 . S
C2357 C80 1.471 . S
C2362 C1815 1.363 . S
C2367 C140 1.468 . S
C2372 C1656 1.381 . S
