# Generated by pormake.
# Topology sqc, (4,8)-cn, num edge types: 1
# Building blocks:
#     Node 0, Type 0, BuildingBlock: MUDLON_clean_linker_0, # of connection points: 4
#     Node 1, Type 0, BuildingBlock: MUDLON_clean_linker_0, # of connection points: 4
#     Node 2, Type 0, BuildingBlock: MUDLON_clean_linker_0, # of connection points: 4
#     Node 3, Type 0, BuildingBlock: MUDLON_clean_linker_0, # of connection points: 4
#     Node 4, Type 0, BuildingBlock: MUDLON_clean_linker_0, # of connection points: 4
#     Node 5, Type 0, BuildingBlock: MUDLON_clean_linker_0, # of connection points: 4
#     Node 6, Type 0, BuildingBlock: MUDLON_clean_linker_0, # of connection points: 4
#     Node 7, Type 0, BuildingBlock: MUDLON_clean_linker_0, # of connection points: 4
#     Node 8, Type 1, BuildingBlock: VETTIZ_charged_sbu_0, # of connection points: 8
#     Node 9, Type 1, BuildingBlock: VETTIZ_charged_sbu_0, # of connection points: 8
#     Node 10, Type 1, BuildingBlock: VETTIZ_charged_sbu_0, # of connection points: 8
#     Node 11, Type 1, BuildingBlock: VETTIZ_charged_sbu_0, # of connection points: 8
#     Edge 12, Type (0, 1), BuildingBlock: MIFKUJ_clean_linker_0, # of connection points: 2
#     Edge 13, Type (0, 1), BuildingBlock: MIFKUJ_clean_linker_0, # of connection points: 2
#     Edge 14, Type (0, 1), BuildingBlock: MIFKUJ_clean_linker_0, # of connection points: 2
#     Edge 15, Type (0, 1), BuildingBlock: MIFKUJ_clean_linker_0, # of connection points: 2
#     Edge 16, Type (0, 1), BuildingBlock: MIFKUJ_clean_linker_0, # of connection points: 2
#     Edge 17, Type (0, 1), BuildingBlock: MIFKUJ_clean_linker_0, # of connection points: 2
#     Edge 18, Type (0, 1), BuildingBlock: MIFKUJ_clean_linker_0, # of connection points: 2
#     Edge 19, Type (0, 1), BuildingBlock: MIFKUJ_clean_linker_0, # of connection points: 2
#     Edge 20, Type (0, 1), BuildingBlock: MIFKUJ_clean_linker_0, # of connection points: 2
#     Edge 21, Type (0, 1), BuildingBlock: MIFKUJ_clean_linker_0, # of connection points: 2
#     Edge 22, Type (0, 1), BuildingBlock: MIFKUJ_clean_linker_0, # of connection points: 2
#     Edge 23, Type (0, 1), BuildingBlock: MIFKUJ_clean_linker_0, # of connection points: 2
#     Edge 24, Type (0, 1), BuildingBlock: MIFKUJ_clean_linker_0, # of connection points: 2
#     Edge 25, Type (0, 1), BuildingBlock: MIFKUJ_clean_linker_0, # of connection points: 2
#     Edge 26, Type (0, 1), BuildingBlock: MIFKUJ_clean_linker_0, # of connection points: 2
#     Edge 27, Type (0, 1), BuildingBlock: MIFKUJ_clean_linker_0, # of connection points: 2
#     Edge 28, Type (0, 1), BuildingBlock: MIFKUJ_clean_linker_0, # of connection points: 2
#     Edge 29, Type (0, 1), BuildingBlock: MIFKUJ_clean_linker_0, # of connection points: 2
#     Edge 30, Type (0, 1), BuildingBlock: MIFKUJ_clean_linker_0, # of connection points: 2
#     Edge 31, Type (0, 1), BuildingBlock: MIFKUJ_clean_linker_0, # of connection points: 2
#     Edge 32, Type (0, 1), BuildingBlock: MIFKUJ_clean_linker_0, # of connection points: 2
#     Edge 33, Type (0, 1), BuildingBlock: MIFKUJ_clean_linker_0, # of connection points: 2
#     Edge 34, Type (0, 1), BuildingBlock: MIFKUJ_clean_linker_0, # of connection points: 2
#     Edge 35, Type (0, 1), BuildingBlock: MIFKUJ_clean_linker_0, # of connection points: 2
#     Edge 36, Type (0, 1), BuildingBlock: MIFKUJ_clean_linker_0, # of connection points: 2
#     Edge 37, Type (0, 1), BuildingBlock: MIFKUJ_clean_linker_0, # of connection points: 2
#     Edge 38, Type (0, 1), BuildingBlock: MIFKUJ_clean_linker_0, # of connection points: 2
#     Edge 39, Type (0, 1), BuildingBlock: MIFKUJ_clean_linker_0, # of connection points: 2
#     Edge 40, Type (0, 1), BuildingBlock: MIFKUJ_clean_linker_0, # of connection points: 2
#     Edge 41, Type (0, 1), BuildingBlock: MIFKUJ_clean_linker_0, # of connection points: 2
#     Edge 42, Type (0, 1), BuildingBlock: MIFKUJ_clean_linker_0, # of connection points: 2
#     Edge 43, Type (0, 1), BuildingBlock: MIFKUJ_clean_linker_0, # of connection points: 2
# Relax obj value: 0.164
# Max RMSD: 0.284
# Mean RMSD: 0.211
data_MOF--net-sqc--node1-VETTIZ_charged_sbu_0--node2-MUDLON_clean_linker_0--edge1-MIFKUJ_clean_linker_0
_symmetry_space_group_name_H-M    P1
_symmetry_Int_Tables_number       1
_symmetry_cell_setting            triclinic
loop_
_symmetry_equiv_pos_as_xyz
'x, y, z'
_cell_length_a     38.91073
_cell_length_b     38.861545
_cell_length_c     106.10088
_cell_angle_alpha  90.11363
_cell_angle_beta   89.936284
_cell_angle_gamma 89.904314
loop_
_atom_site_label
_atom_site_type_symbol
_atom_site_fract_x
_atom_site_fract_y
_atom_site_fract_z
_atom_type_partial_charge
H0 H 0.84019 0.00709 0.53309 0.0
N1 N 0.87924 0.05429 0.52033 0.0
H2 H 0.80041 0.01923 0.55039 0.0
H3 H 0.87244 0.1131 0.53303 0.0
H4 H 0.83286 0.12543 0.55049 0.0
H5 H 0.84554 0.09202 0.50355 0.0
H6 H 0.80741 0.07194 0.48676 0.0
H7 H 0.86903 0.9872 0.51342 0.0
H8 H 0.8302 0.96666 0.49687 0.0
H9 H 0.90497 0.00493 0.53636 0.0
H10 H 0.93288 0.07655 0.50718 0.0
H11 H 0.96513 0.98946 0.53912 0.0
H12 H 0.99303 0.05959 0.5092 0.0
H13 H 0.1443 0.96412 0.55471 0.0
H14 H 0.18421 0.98969 0.56989 0.0
H15 H 0.1955 0.0781 0.54557 0.0
H16 H 0.15723 0.05162 0.53032 0.0
H17 H 0.15107 0.02191 0.51123 0.0
H18 H 0.19054 0.99901 0.49534 0.0
H19 H 0.18463 0.89885 0.51292 0.0
H20 H 0.14695 0.92278 0.52917 0.0
H21 H 0.0733 0.94712 0.53487 0.0
H22 H 0.01279 0.96098 0.53139 0.0
H23 H 0.04149 0.06498 0.52145 0.0
N24 N 0.1275 0.98781 0.53203 0.0
H25 H 0.1017 0.04994 0.52409 0.0
C26 C 0.85917 0.05938 0.53166 0.0
C27 C 0.83907 0.0329 0.53689 0.0
C28 C 0.81623 0.03989 0.54677 0.0
C29 C 0.81329 0.07334 0.55175 0.0
C30 C 0.83468 0.09934 0.54693 0.0
C31 C 0.85726 0.0924 0.53696 0.0
C32 C 0.86009 0.04122 0.50971 0.0
C33 C 0.84267 0.06463 0.50198 0.0
C34 C 0.82064 0.05306 0.49248 0.0
C35 C 0.81538 0.01764 0.49051 0.0
C36 C 0.83382 0.9941 0.49802 0.0
C37 C 0.85596 0.00577 0.50753 0.0
C38 C 0.91434 0.0425 0.52167 0.0
C39 C 0.92398 0.01718 0.53045 0.0
C40 C 0.95865 0.00804 0.53192 0.0
C41 C 0.98449 0.02338 0.52446 0.0
C42 C 0.97436 0.04779 0.51539 0.0
C43 C 0.93983 0.05731 0.5141 0.0
C44 C 0.14733 0.00592 0.54143 0.0
C45 C 0.15504 0.98926 0.55279 0.0
C46 C 0.17782 0.00403 0.56147 0.0
C47 C 0.19339 0.036 0.55898 0.0
C48 C 0.18459 0.0532 0.54775 0.0
C49 C 0.16209 0.03824 0.53904 0.0
C50 C 0.14659 0.97409 0.52151 0.0
C51 C 0.15832 0.99507 0.51164 0.0
C52 C 0.18067 0.98175 0.50246 0.0
C53 C 0.19137 0.94707 0.50288 0.0
C54 C 0.17787 0.92585 0.51243 0.0
C55 C 0.15598 0.93932 0.52166 0.0
C56 C 0.09211 0.99747 0.52996 0.0
C57 C 0.06638 0.97286 0.53191 0.0
C58 C 0.03169 0.98101 0.53001 0.0
C59 C 0.02173 0.01431 0.52622 0.0
C60 C 0.04781 0.03892 0.52419 0.0
C61 C 0.08256 0.03049 0.52589 0.0
H62 H 0.28602 0.62643 0.80061 0.0
N63 N 0.26608 0.64207 0.77734 0.0
H64 H 0.25821 0.58698 0.8154 0.0
H65 H 0.20313 0.61157 0.77429 0.0
H66 H 0.17439 0.57374 0.78913 0.0
H67 H 0.23378 0.62235 0.75559 0.0
H68 H 0.25654 0.5825 0.73973 0.0
H69 H 0.3298 0.61833 0.77564 0.0
H70 H 0.35364 0.58018 0.75952 0.0
H71 H 0.30773 0.69566 0.77995 0.0
H72 H 0.2041 0.66888 0.76973 0.0
H73 H 0.29449 0.75654 0.77681 0.0
H74 H 0.18982 0.72943 0.76737 0.0
H75 H 0.24764 0.93576 0.77866 0.0
H76 H 0.2342 0.9748 0.79592 0.0
H77 H 0.1339 0.92785 0.7995 0.0
H78 H 0.14681 0.89083 0.78148 0.0
H79 H 0.16759 0.93195 0.75137 0.0
H80 H 0.19043 0.97109 0.73543 0.0
H81 H 0.29308 0.93421 0.74329 0.0
H82 H 0.26995 0.89618 0.75955 0.0
H83 H 0.25149 0.86474 0.78283 0.0
H84 H 0.26646 0.80409 0.78518 0.0
H85 H 0.19574 0.77825 0.75518 0.0
N86 N 0.20267 0.89163 0.76696 0.0
H87 H 0.17946 0.83877 0.75355 0.0
C88 C 0.24667 0.62237 0.7864 0.0
C89 C 0.26139 0.61534 0.79817 0.0
C90 C 0.24536 0.59283 0.80662 0.0
C91 C 0.21403 0.57688 0.80348 0.0
C92 C 0.19876 0.58497 0.79182 0.0
C93 C 0.21499 0.60718 0.78334 0.0
C94 C 0.28005 0.62284 0.7669 0.0
C95 C 0.25993 0.61322 0.75649 0.0
C96 C 0.27315 0.59061 0.74735 0.0
C97 C 0.30684 0.5775 0.7484 0.0
C98 C 0.32731 0.58881 0.75854 0.0
C99 C 0.31394 0.61099 0.76769 0.0
C100 C 0.25697 0.67763 0.77525 0.0
C101 C 0.282 0.703 0.77714 0.0
C102 C 0.27421 0.73788 0.77544 0.0
C103 C 0.2409 0.74836 0.77192 0.0
C104 C 0.21589 0.72266 0.76991 0.0
C105 C 0.22392 0.68773 0.77142 0.0
C106 C 0.19776 0.91092 0.77851 0.0
C107 C 0.22275 0.93384 0.78314 0.0
C108 C 0.21509 0.95602 0.79319 0.0
C109 C 0.18259 0.95524 0.79906 0.0
C110 C 0.15875 0.93027 0.795 0.0
C111 C 0.16618 0.90868 0.78478 0.0
C112 C 0.21691 0.91107 0.7566 0.0
C113 C 0.19495 0.93202 0.74949 0.0
C114 C 0.2081 0.95426 0.74033 0.0
C115 C 0.24369 0.956 0.73805 0.0
C116 C 0.2656 0.934 0.74491 0.0
C117 C 0.2524 0.9119 0.75413 0.0
C118 C 0.2138 0.85625 0.76813 0.0
C119 C 0.23905 0.84598 0.77683 0.0
C120 C 0.24786 0.81113 0.77806 0.0
C121 C 0.2322 0.78578 0.77044 0.0
C122 C 0.20779 0.79656 0.76147 0.0
C123 C 0.19863 0.83127 0.76041 0.0
H124 H 0.66803 0.0321 0.03151 0.0
N125 N 0.63218 0.99244 0.01471 0.0
H126 H 0.69837 0.01164 0.05014 0.0
H127 H 0.62822 0.93024 0.02504 0.0
H128 H 0.65581 0.91002 0.04425 0.0
H129 H 0.68833 0.97468 1.002 0.0
H130 H 0.72665 0.0121 0.98981 0.0
H131 H 0.62291 0.06159 0.0102 0.0
H132 H 0.66049 0.09873 0.99764 0.0
H133 H 0.58911 0.0361 0.02727 0.0
H134 H 0.5924 0.95178 1.00098 0.0
H135 H 0.52616 0.03577 0.02657 0.0
H136 H 0.52989 0.94927 1.00081 0.0
H137 H 0.34828 0.0144 0.03201 0.0
H138 H 0.31762 1.00084 0.05157 0.0
H139 H 0.33883 0.89278 0.04569 0.0
H140 H 0.36959 0.90674 0.02622 0.0
H141 H 0.32853 0.93699 1.00166 0.0
H142 H 0.28641 0.96356 0.98751 0.0
H143 H 0.32946 0.06353 0.9956 0.0
H144 H 0.37121 0.03671 0.00994 0.0
H145 H 0.4165 0.99734 0.03416 0.0
H146 H 0.47807 0.00616 0.03333 0.0
H147 H 0.47898 0.97294 0.9944 0.0
N148 N 0.37614 0.96812 0.01547 0.0
H149 H 0.4176 0.96145 0.99564 0.0
C150 C 0.64644 0.98242 0.02671 0.0
C151 C 0.66531 0.00542 0.03424 0.0
C152 C 0.68242 0.99364 0.04502 0.0
C153 C 0.68022 0.95885 0.04872 0.0
C154 C 0.65929 0.93664 0.04156 0.0
C155 C 0.64303 0.94822 0.03063 0.0
C156 C 0.65255 0.01504 0.0069 0.0
C157 C 0.68199 1.00169 1.00102 0.0
C158 C 0.70387 0.02306 0.99412 0.0
C159 C 0.6964 0.05821 0.99279 0.0
C160 C 0.66659 0.07162 0.99847 0.0
C161 C 0.64506 0.05033 0.00562 0.0
C162 C 0.59526 0.99432 0.01397 0.0
C163 C 0.57614 0.01773 0.02125 0.0
C164 C 0.5401 0.0171 0.02096 0.0
C165 C 0.52247 0.99251 0.0136 0.0
C166 C 0.54208 0.96923 0.00634 0.0
C167 C 0.57795 0.97037 0.00647 0.0
C168 C 0.36103 0.96142 0.02765 0.0
C169 C 0.34655 0.98786 0.03502 0.0
C170 C 0.32896 0.98004 0.04616 0.0
C171 C 0.32563 0.9457 0.05017 0.0
C172 C 0.34124 0.91952 0.04298 0.0
C173 C 0.3587 0.92737 0.03183 0.0
C174 C 0.35312 0.98475 0.00672 0.0
C175 C 0.32894 0.9646 1.00031 0.0
C176 C 0.30484 0.97981 0.99231 0.0
C177 C 0.30468 0.01559 0.99046 0.0
C178 C 0.32923 0.03584 0.99677 0.0
C179 C 0.35305 0.0206 0.00495 0.0
C180 C 0.41203 0.9781 0.01495 0.0
C181 C 0.42967 0.99187 0.02541 0.0
C182 C 0.46524 0.99732 0.02488 0.0
C183 C 0.48405 0.98988 0.01384 0.0
C184 C 0.46589 0.97801 0.00321 0.0
C185 C 0.43056 0.97181 0.00384 0.0
H186 H 0.21784 0.43825 0.29068 0.0
N187 N 0.24568 0.39617 0.2738 0.0
H188 H 0.24726 0.47154 0.3071 0.0
H189 H 0.31449 0.39282 0.27966 0.0
H190 H 0.34377 0.4253 0.29623 0.0
H191 H 0.2951 0.42305 0.25835 0.0
H192 H 0.28552 0.46316 0.24086 0.0
H193 H 0.18586 0.41567 0.26423 0.0
H194 H 0.17589 0.45525 0.24669 0.0
H195 H 0.20128 0.34907 0.28163 0.0
H196 H 0.29757 0.36066 0.26211 0.0
H197 H 0.20495 0.28666 0.2792 0.0
H198 H 0.30306 0.29837 0.26044 0.0
H199 H 0.23601 0.11194 0.28581 0.0
H200 H 0.25772 0.08136 0.3042 0.0
H201 H 0.36184 0.1 0.2918 0.0
H202 H 0.33972 0.131 0.2734 0.0
H203 H 0.29568 0.09958 0.24813 0.0
H204 H 0.26171 0.0591 0.23568 0.0
H205 H 0.17018 0.09113 0.25569 0.0
H206 H 0.20443 0.13271 0.26769 0.0
H207 H 0.23814 0.1754 0.28485 0.0
H208 H 0.23148 0.23745 0.28631 0.0
H209 H 0.28436 0.24883 0.25066 0.0
N210 N 0.27441 0.13992 0.26673 0.0
H211 H 0.29307 0.18662 0.24983 0.0
C212 C 0.26369 0.41276 0.28401 0.0
C213 C 0.24528 0.43505 0.29194 0.0
C214 C 0.2621 0.4541 0.30125 0.0
C215 C 0.29777 0.45092 0.30293 0.0
C216 C 0.3162 0.42794 0.29521 0.0
C217 C 0.2994 0.40931 0.28573 0.0
C218 C 0.24105 0.41648 0.26258 0.0
C219 C 0.26904 0.42956 0.25571 0.0
C220 C 0.26351 0.45246 0.24571 0.0
C221 C 0.22994 0.46274 0.24247 0.0
C222 C 0.20208 0.44841 0.24908 0.0
C223 C 0.20765 0.42558 0.25903 0.0
C224 C 0.24929 0.35948 0.27226 0.0
C225 C 0.22347 0.33799 0.27697 0.0
C226 C 0.22584 0.30224 0.27565 0.0
C227 C 0.25449 0.287 0.26971 0.0
C228 C 0.28032 0.30884 0.26491 0.0
C229 C 0.27755 0.34466 0.26603 0.0
C230 C 0.28635 0.12367 0.27815 0.0
C231 C 0.26348 0.10966 0.28704 0.0
C232 C 0.27596 0.09201 0.29755 0.0
C233 C 0.31152 0.08803 0.29944 0.0
C234 C 0.33431 0.10287 0.29071 0.0
C235 C 0.32178 0.12045 0.28017 0.0
C236 C 0.25271 0.11891 0.25885 0.0
C237 C 0.26821 0.09812 0.24968 0.0
C238 C 0.24875 0.07474 0.24269 0.0
C239 C 0.2132 0.0713 0.24481 0.0
C240 C 0.19742 0.0931 0.25375 0.0
C241 C 0.21699 0.11678 0.26068 0.0
C242 C 0.26679 0.17628 0.26731 0.0
C243 C 0.24847 0.19115 0.27737 0.0
C244 C 0.24434 0.22691 0.27812 0.0
C245 C 0.25765 0.24865 0.26867 0.0
C246 C 0.27457 0.23334 0.25833 0.0
C247 C 0.27925 0.19767 0.25773 0.0
H248 H 0.77822 0.10897 0.2883 0.0
N249 N 0.73616 0.13928 0.27089 0.0
H250 H 0.76009 0.07301 0.30604 0.0
H251 H 0.67234 0.12798 0.27878 0.0
H252 H 0.65386 0.09194 0.29641 0.0
H253 H 0.7134 0.0946 0.25397 0.0
H254 H 0.74703 0.057 0.24027 0.0
H255 H 0.80629 0.13947 0.26856 0.0
H256 H 0.84054 0.10303 0.25442 0.0
H257 H 0.77316 0.17454 0.28874 0.0
H258 H 0.71251 0.18678 0.25512 0.0
H259 H 0.77812 0.23684 0.2907 0.0
H260 H 0.71909 0.24916 0.25647 0.0
H261 H 0.79181 0.43022 0.29682 0.0
H262 H 0.76507 0.46843 0.3124 0.0
H263 H 0.66494 0.44213 0.29775 0.0
H264 H 0.69189 0.40438 0.2822 0.0
H265 H 0.71286 0.42183 0.26196 0.0
H266 H 0.72341 0.46154 0.24457 0.0
H267 H 0.83278 0.45284 0.25104 0.0
H268 H 0.82166 0.4145 0.26882 0.0
H269 H 0.80677 0.34927 0.28521 0.0
H270 H 0.8028 0.28679 0.2831 0.0
H271 H 0.70119 0.29811 0.26708 0.0
N272 N 0.76113 0.39631 0.27823 0.0
H273 H 0.7067 0.3605 0.26847 0.0
C274 C 0.72649 0.12109 0.2822 0.0
C275 C 0.75106 0.1057 0.29012 0.0
C276 C 0.74064 0.08498 0.30021 0.0
C277 C 0.7055 0.07944 0.30264 0.0
C278 C 0.6811 0.09594 0.29494 0.0
C279 C 0.69155 0.11647 0.28483 0.0
C280 C 0.75722 0.12001 0.26216 0.0
C281 C 0.74115 0.09677 0.25398 0.0
C282 C 0.76053 0.07543 0.2461 0.0
C283 C 0.79669 0.07698 0.24609 0.0
C284 C 0.81282 0.10077 0.25422 0.0
C285 C 0.79329 0.12194 0.26223 0.0
C286 C 0.74194 0.17593 0.27185 0.0
C287 C 0.76114 0.19062 0.2817 0.0
C288 C 0.76421 0.22648 0.28273 0.0
C289 C 0.74879 0.24852 0.2738 0.0
C290 C 0.7306 0.23343 0.26374 0.0
C291 C 0.7271 0.19766 0.26284 0.0
C292 C 0.74403 0.4144 0.28834 0.0
C293 C 0.76405 0.43223 0.29717 0.0
C294 C 0.7487 0.454 0.30607 0.0
C295 C 0.71283 0.45855 0.30629 0.0
C296 C 0.69266 0.43959 0.29773 0.0
C297 C 0.70808 0.41772 0.28886 0.0
C298 C 0.76658 0.41556 0.2668 0.0
C299 C 0.73909 0.42828 0.25958 0.0
C300 C 0.74522 0.4509 0.24955 0.0
C301 C 0.77897 0.46097 0.24647 0.0
C302 C 0.80641 0.44651 0.25332 0.0
C303 C 0.8002 0.42425 0.2634 0.0
C304 C 0.75695 0.35955 0.27719 0.0
C305 C 0.78367 0.3381 0.28126 0.0
C306 C 0.78117 0.3023 0.28012 0.0
C307 C 0.75154 0.28693 0.27498 0.0
C308 C 0.72465 0.3087 0.27093 0.0
C309 C 0.72747 0.34459 0.2719 0.0
H310 H 0.76634 0.9286 0.77566 0.0
N311 N 0.81002 0.88944 0.76114 0.0
H312 H 0.78177 0.9633 0.79392 0.0
H313 H 0.87122 0.89381 0.77227 0.0
H314 H 0.887 0.92881 0.79065 0.0
H315 H 0.84044 0.92653 0.7433 0.0
H316 H 0.81316 0.96492 0.72794 0.0
H317 H 0.74082 0.89747 0.75745 0.0
H318 H 0.71333 0.9355 0.74212 0.0
H319 H 0.76882 0.86382 0.78019 0.0
H320 H 0.82183 0.83633 0.74589 0.0
H321 H 0.75147 0.8047 0.78304 0.0
H322 H 0.80202 0.77708 0.7481 0.0
H323 H 0.70739 0.62682 0.79704 0.0
H324 H 0.73485 0.59591 0.81453 0.0
H325 H 0.8306 0.59501 0.79393 0.0
H326 H 0.8033 0.62582 0.77667 0.0
H327 H 0.77365 0.60332 0.75962 0.0
H328 H 0.75144 0.56324 0.74399 0.0
H329 H 0.64843 0.60057 0.75119 0.0
H330 H 0.67093 0.63884 0.76748 0.0
H331 H 0.70065 0.70139 0.78121 0.0
H332 H 0.71609 0.76107 0.77696 0.0
H333 H 0.80942 0.7262 0.75866 0.0
N334 N 0.73545 0.64505 0.77518 0.0
H335 H 0.79181 0.66678 0.76196 0.0
C336 C 0.81784 0.9088 0.77245 0.0
C337 C 0.79275 0.92843 0.77881 0.0
C338 C 0.80161 0.94833 0.78928 0.0
C339 C 0.83566 0.94903 0.79369 0.0
C340 C 0.86049 0.92863 0.78756 0.0
C341 C 0.8516 0.90878 0.77703 0.0
C342 C 0.7928 0.90923 0.75151 0.0
C343 C 0.81267 0.92812 0.74295 0.0
C344 C 0.79704 0.9499 0.73417 0.0
C345 C 0.76108 0.95341 0.73386 0.0
C346 C 0.74111 0.93372 0.74224 0.0
C347 C 0.75677 0.9118 0.75096 0.0
C348 C 0.79743 0.8547 0.76289 0.0
C349 C 0.77663 0.84522 0.77317 0.0
C350 C 0.76618 0.81107 0.77471 0.0
C351 C 0.77526 0.78559 0.76583 0.0
C352 C 0.79512 0.79549 0.75534 0.0
C353 C 0.80625 0.82951 0.75397 0.0
C354 C 0.75301 0.62842 0.78549 0.0
C355 C 0.73437 0.62014 0.79638 0.0
C356 C 0.75012 0.6027 0.80636 0.0
C357 C 0.78485 0.59292 0.80557 0.0
C358 C 0.80369 0.60186 0.79475 0.0
C359 C 0.78802 0.61958 0.78484 0.0
C360 C 0.72376 0.62356 0.76496 0.0
C361 C 0.7463 0.60277 0.75792 0.0
C362 C 0.73349 0.58004 0.7488 0.0
C363 C 0.69794 0.5781 0.74635 0.0
C364 C 0.6758 0.6004 0.75301 0.0
C365 C 0.68859 0.62262 0.76225 0.0
C366 C 0.74536 0.67974 0.77218 0.0
C367 C 0.7243 0.70683 0.7762 0.0
C368 C 0.73347 0.74098 0.77387 0.0
C369 C 0.76446 0.74893 0.76764 0.0
C370 C 0.78524 0.72145 0.76339 0.0
C371 C 0.77555 0.68723 0.76548 0.0
H372 H 0.35327 0.55747 0.00923 0.0
N373 N 0.37349 0.51136 0.02721 0.0
H374 H 0.3135 0.54626 0.9919 0.0
H375 H 0.35023 0.45056 0.01967 0.0
H376 H 0.31215 0.43843 1.00192 0.0
H377 H 0.34932 0.47994 0.04761 0.0
H378 H 0.31171 0.50409 0.06391 0.0
H379 H 0.35533 0.57914 0.02974 0.0
H380 H 0.31693 0.60325 0.04562 0.0
H381 H 0.40899 0.56909 0.02037 0.0
H382 H 0.42059 0.46332 0.03153 0.0
H383 H 0.47137 0.575 0.01896 0.0
H384 H 0.48303 0.46822 0.02958 0.0
H385 H 0.67005 0.56053 1.00174 0.0
H386 H 0.70933 0.52699 0.98849 0.0
H387 H 0.67414 0.43356 0.00626 0.0
H388 H 0.63477 0.46755 0.01952 0.0
H389 H 0.65706 0.49874 0.03907 0.0
H390 H 0.69507 0.51897 0.0559 0.0
H391 H 0.683 0.6233 0.04261 0.0
H392 H 0.64523 0.60269 0.02575 0.0
H393 H 0.58221 0.56625 0.00558 0.0
H394 H 0.51982 0.55976 0.00697 0.0
H395 H 0.53283 0.49134 0.03871 0.0
N396 N 0.62994 0.53787 0.02012 0.0
H397 H 0.59512 0.49684 0.03679 0.0
C398 C 0.35422 0.50484 0.01587 0.0
C399 C 0.34441 0.53147 0.00768 0.0
C400 C 0.32183 0.52489 0.99767 0.0
C401 C 0.30897 0.49147 0.99556 0.0
C402 C 0.32056 0.46466 0.00341 0.0
C403 C 0.34269 0.47138 0.01348 0.0
C404 C 0.35516 0.52757 0.03745 0.0
C405 C 0.34283 0.50704 0.0473 0.0
C406 C 0.32103 0.52085 0.05653 0.0
C407 C 0.31086 0.55562 0.05605 0.0
C408 C 0.3244 0.57649 0.04641 0.0
C409 C 0.34635 0.56264 0.03722 0.0
C410 C 0.41016 0.5158 0.02621 0.0
C411 C 0.42497 0.54711 0.02252 0.0
C412 C 0.4608 0.55028 0.02158 0.0
C413 C 0.48261 0.52208 0.02416 0.0
C414 C 0.4674 0.49073 0.02775 0.0
C415 C 0.43166 0.48774 0.02879 0.0
C416 C 0.64944 0.51662 0.01154 0.0
C417 C 0.67048 0.53277 1.00263 0.0
C418 C 0.69308 0.51359 0.99516 0.0
C419 C 0.69509 0.47763 0.99641 0.0
C420 C 0.67306 0.4612 0.00504 0.0
C421 C 0.65056 0.48057 0.01262 0.0
C422 C 0.64822 0.54934 0.03117 0.0
C423 C 0.66198 0.52603 0.03995 0.0
C424 C 0.68374 0.53765 0.04958 0.0
C425 C 0.69234 0.57273 0.05054 0.0
C426 C 0.67732 0.59606 0.04203 0.0
C427 C 0.65552 0.58444 0.03247 0.0
C428 C 0.59335 0.5323 0.02109 0.0
C429 C 0.57147 0.54969 0.01277 0.0
C430 C 0.53575 0.54619 0.01368 0.0
C431 C 0.52092 0.52526 0.02304 0.0
C432 C 0.54309 0.50741 0.03129 0.0
C433 C 0.57889 0.51072 0.03028 0.0
H434 H 0.15211 0.53024 0.5355 0.0
N435 N 0.12794 0.49471 0.51491 0.0
H436 H 0.18242 0.50616 0.55348 0.0
H437 H 0.14096 0.42878 0.51954 0.0
H438 H 0.17182 0.40432 0.53758 0.0
H439 H 0.16192 0.47723 0.49416 0.0
H440 H 0.20112 0.51312 0.48167 0.0
H441 H 0.13977 0.56382 0.51829 0.0
H442 H 0.18004 0.59924 0.50623 0.0
H443 H 0.09387 0.53933 0.53065 0.0
H444 H 0.07982 0.46465 0.50106 0.0
H445 H 0.03183 0.54642 0.53242 0.0
H446 H 0.01743 0.47229 0.50246 0.0
H447 H 0.86296 0.54837 0.54729 0.0
H448 H 0.83104 0.51999 0.56433 0.0
H449 H 0.81556 0.43148 0.54037 0.0
H450 H 0.84765 0.45956 0.52356 0.0
H451 H 0.86119 0.48204 0.50399 0.0
H452 H 0.81961 0.49107 0.48712 0.0
H453 H 0.79856 0.593 0.50174 0.0
H454 H 0.83817 0.58236 0.5191 0.0
H455 H 0.92022 0.57459 0.52472 0.0
H456 H 0.9824 0.56887 0.52188 0.0
H457 H 0.97009 0.45939 0.51616 0.0
N458 N 0.87319 0.52539 0.52395 0.0
H459 H 0.90796 0.46571 0.51863 0.0
C460 C 0.14437 0.48126 0.52605 0.0
C461 C 0.15598 0.50276 0.53584 0.0
C462 C 0.1735 0.48893 0.54615 0.0
C463 C 0.1797 0.45334 0.54695 0.0
C464 C 0.16718 0.4318 0.53733 0.0
C465 C 0.14975 0.4457 0.52699 0.0
C466 C 0.14828 0.51755 0.50724 0.0
C467 C 0.16538 0.50399 0.49671 0.0
C468 C 0.18768 0.52446 0.48961 0.0
C469 C 0.19375 0.55881 0.49307 0.0
C470 C 0.17603 0.5727 0.50346 0.0
C471 C 0.15311 0.5524 0.51039 0.0
C472 C 0.09154 0.50128 0.51571 0.0
C473 C 0.0775 0.5247 0.52442 0.0
C474 C 0.04185 0.52886 0.52538 0.0
C475 C 0.01946 0.50985 0.5176 0.0
C476 C 0.03375 0.48693 0.50874 0.0
C477 C 0.06938 0.48273 0.50784 0.0
C478 C 0.85742 0.50644 0.5341 0.0
C479 C 0.8531 0.52264 0.54582 0.0
C480 C 0.83498 0.50638 0.55553 0.0
C481 C 0.82056 0.47366 0.55362 0.0
C482 C 0.82601 0.4569 0.54204 0.0
C483 C 0.84445 0.473 0.5324 0.0
C484 C 0.85214 0.53133 0.51299 0.0
C485 C 0.84738 0.50617 0.50362 0.0
C486 C 0.82379 0.51161 0.49385 0.0
C487 C 0.80503 0.5426 0.49309 0.0
C488 C 0.81147 0.56834 0.50216 0.0
C489 C 0.83446 0.56257 0.51203 0.0
C490 C 0.90951 0.5207 0.52195 0.0
C491 C 0.93106 0.54943 0.52279 0.0
C492 C 0.96659 0.54603 0.52126 0.0
C493 C 0.98142 0.51362 0.51886 0.0
C494 C 0.9596 0.48482 0.51785 0.0
C495 C 0.92399 0.48832 0.51935 0.0
Fe496 Fe 1.00054 0.73712 0.17927 0.0
O497 O 1.00084 0.74011 0.1608 0.0
Fe498 Fe 0.95894 0.76291 0.15153 0.0
Fe499 Fe 0.03867 0.76343 0.15145 0.0
O500 O 0.99745 0.74009 0.16081 0.0
O501 O 0.9969 0.78687 0.14234 0.0
O502 O 1.00036 0.78701 0.14235 0.0
Fe503 Fe 0.99863 0.79109 0.12395 0.0
C504 C 0.04503 0.80042 0.17599 0.0
O505 O 0.03918 0.7024 0.17554 0.0
O506 O 0.07395 0.73401 0.16222 0.0
O507 O 0.96169 0.7539 0.12091 0.0
O508 O 0.95794 0.72326 0.13861 0.0
O509 O 0.92415 0.73407 0.16257 0.0
O510 O 0.95914 0.70479 0.17655 0.0
O511 O 0.04017 0.72391 0.13846 0.0
O512 O 0.03634 0.75454 0.12082 0.0
C513 C 0.93019 0.70967 0.17072 0.0
O514 O 0.95742 0.82391 0.12727 0.0
O515 O 0.92372 0.79045 0.1404 0.0
O516 O 0.03959 0.77247 0.18186 0.0
O517 O 0.03921 0.80338 0.16427 0.0
C518 C 0.06804 0.70796 0.1697 0.0
C519 C 0.04619 0.72781 0.12675 0.0
C520 C 0.06869 0.81676 0.1324 0.0
O521 O 0.07341 0.79178 0.14042 0.0
O522 O 0.03932 0.82441 0.1272 0.0
C523 C 0.95219 0.72707 0.12687 0.0
O524 O 0.95725 0.80287 0.16417 0.0
O525 O 0.96547 0.77639 0.18262 0.0
C526 C 0.92823 0.81558 0.13244 0.0
C527 C 0.95596 0.80234 0.17614 0.0
Fe528 Fe 0.53326 0.77118 0.4294 0.0
O529 O 0.5302 0.76973 0.41094 0.0
Fe530 Fe 0.50783 0.81199 0.40173 0.0
Fe531 Fe 0.50648 0.73197 0.4016 0.0
O532 O 0.53034 0.77322 0.41093 0.0
O533 O 0.48396 0.77421 0.39239 0.0
O534 O 0.48388 0.7707 0.39238 0.0
Fe535 Fe 0.48041 0.7727 0.37396 0.0
C536 C 0.56019 0.70171 0.42023 0.0
O537 O 0.49537 0.73469 0.4323 0.0
O538 O 0.46631 0.73201 0.41429 0.0
O539 O 0.44768 0.81384 0.37727 0.0
O540 O 0.48001 0.84749 0.39078 0.0
O541 O 0.46787 0.81346 0.41437 0.0
O542 O 0.49653 0.80886 0.43245 0.0
O543 O 0.47798 0.69745 0.39044 0.0
O544 O 0.44684 0.7322 0.37699 0.0
C545 C 0.46969 0.81697 0.42626 0.0
O546 O 0.51769 0.8097 0.37108 0.0
O547 O 0.54759 0.81316 0.38893 0.0
O548 O 0.56604 0.73053 0.42608 0.0
O549 O 0.53463 0.69624 0.41252 0.0
C550 C 0.4679 0.72846 0.42619 0.0
C551 C 0.45376 0.70258 0.38214 0.0
C552 C 0.54291 0.72422 0.37701 0.0
O553 O 0.54631 0.72969 0.38878 0.0
O554 O 0.51677 0.73485 0.37092 0.0
C555 C 0.45497 0.84295 0.38276 0.0
O556 O 0.53718 0.84645 0.41285 0.0
O557 O 0.56748 0.81068 0.42626 0.0
C558 C 0.54419 0.8192 0.37721 0.0
C559 C 0.56251 0.83983 0.42056 0.0
Fe560 Fe 0.50036 0.24407 0.67953 0.0
O561 O 0.50172 0.24049 0.66105 0.0
Fe562 Fe 0.45887 0.25932 0.65104 0.0
Fe563 Fe 0.5394 0.26039 0.65047 0.0
O564 O 0.49806 0.24052 0.66109 0.0
O565 O 0.49647 0.27983 0.64058 0.0
O566 O 0.50024 0.28003 0.64057 0.0
Fe567 Fe 0.49727 0.2768 0.62211 0.0
C568 C 0.54522 0.30666 0.67307 0.0
O569 O 0.54119 0.21074 0.67784 0.0
O570 O 0.57517 0.23541 0.66239 0.0
O571 O 0.46034 0.23888 0.62118 0.0
O572 O 0.45781 0.21518 0.64023 0.0
O573 O 0.4248 0.23371 0.66349 0.0
O574 O 0.46098 0.20908 0.67818 0.0
O575 O 0.5408 0.21657 0.6396 0.0
O576 O 0.53497 0.23963 0.62051 0.0
C577 C 0.43142 0.21203 0.67259 0.0
O578 O 0.45649 0.3105 0.62409 0.0
O579 O 0.42291 0.28282 0.63892 0.0
O580 O 0.53651 0.28267 0.68056 0.0
O581 O 0.54137 0.30447 0.66121 0.0
C582 C 0.56993 0.21407 0.67171 0.0
C583 C 0.5458 0.21594 0.62776 0.0
C584 C 0.56729 0.30681 0.62876 0.0
O585 O 0.57339 0.28522 0.63792 0.0
O586 O 0.53758 0.31112 0.62335 0.0
C587 C 0.45161 0.21437 0.62845 0.0
O588 O 0.45711 0.30372 0.66179 0.0
O589 O 0.46252 0.28112 0.68093 0.0
C590 C 0.42748 0.30508 0.62986 0.0
C591 C 0.45409 0.30583 0.67371 0.0
Fe592 Fe 0.03012 0.27148 0.92847 0.0
O593 O 0.02791 0.26985 0.90994 0.0
Fe594 Fe 0.00518 0.31229 0.90085 0.0
Fe595 Fe 0.00385 0.23231 0.90055 0.0
O596 O 0.02773 0.27342 0.90999 0.0
O597 O 0.98183 0.27462 0.89127 0.0
O598 O 0.98202 0.2712 0.89121 0.0
Fe599 Fe 0.97892 0.27273 0.87283 0.0
C600 C 0.05599 0.20142 0.91966 0.0
O601 O 0.99178 0.23535 0.93119 0.0
O602 O 0.96335 0.23335 0.91303 0.0
O603 O 0.94729 0.31468 0.87569 0.0
O604 O 0.97774 0.34828 0.8898 0.0
O605 O 0.96467 0.31255 0.91334 0.0
O606 O 0.9939 0.30998 0.93132 0.0
O607 O 0.97487 0.19819 0.88936 0.0
O608 O 0.94414 0.23337 0.87591 0.0
C609 C 0.96653 0.31663 0.9252 0.0
O610 O 0.01751 0.30837 0.87005 0.0
O611 O 0.04542 0.31391 0.88831 0.0
O612 O 0.06253 0.23023 0.9254 0.0
O613 O 0.03086 0.19633 0.91173 0.0
C614 C 0.96458 0.22927 0.9249 0.0
C615 C 0.95071 0.20365 0.88105 0.0
C616 C 0.03955 0.22226 0.87615 0.0
O617 O 0.04406 0.22884 0.8878 0.0
O618 O 0.01368 0.23358 0.87012 0.0
C619 C 0.95436 0.34385 0.88112 0.0
O620 O 0.03416 0.34665 0.91221 0.0
O621 O 0.06467 0.31061 0.92544 0.0
C622 C 0.04335 0.31838 0.87646 0.0
C623 C 0.05962 0.33992 0.91986 0.0
H624 H 0.2427 0.90034 0.50762 0.0
H625 H 0.28685 0.87925 0.49334 0.0
H626 H 0.24644 0.94309 0.46364 0.0
H627 H 0.20055 0.96292 0.47771 0.0
H628 H 0.26611 0.88252 0.45424 0.0
H629 H 0.31813 0.96736 0.48069 0.0
H630 H 0.33348 0.9955 0.50075 0.0
H631 H 0.38754 0.90461 0.51245 0.0
H632 H 0.3721 0.87575 0.49252 0.0
H633 H 0.41927 0.85969 0.41727 0.0
H634 H 0.37087 0.88435 0.42899 0.0
H635 H 0.40381 0.83029 0.46239 0.0
H636 H 0.45271 0.80677 0.45086 0.0
H637 H 0.38695 0.89086 0.46871 0.0
H638 H 0.33433 0.80639 0.44096 0.0
H639 H 0.31855 0.78099 0.42056 0.0
H640 H 0.26622 0.8741 0.41027 0.0
H641 H 0.28197 0.90032 0.43063 0.0
C642 C 0.24255 0.90949 0.498 0.0
C643 C 0.21782 0.93348 0.49389 0.0
C644 C 0.26826 0.89768 0.48986 0.0
C645 C 0.2705 0.91005 0.47746 0.0
C646 C 0.24544 0.93332 0.47318 0.0
C647 C 0.21939 0.94492 0.48131 0.0
C648 C 0.2996 0.89929 0.46916 0.0
C649 C 0.29259 0.88472 0.45731 0.0
C650 C 0.33418 0.90194 0.47318 0.0
C651 C 0.34373 0.91931 0.48515 0.0
C652 C 0.33311 0.9533 0.48757 0.0
C653 C 0.34185 0.96939 0.49892 0.0
C654 C 0.36142 0.95183 0.50788 0.0
C655 C 0.37236 0.91817 0.5055 0.0
C656 C 0.36366 0.90195 0.49418 0.0
C657 C 0.41603 0.853 0.4271 0.0
C658 C 0.43982 0.83134 0.43316 0.0
C659 C 0.38823 0.86697 0.43379 0.0
C660 C 0.38311 0.85873 0.44656 0.0
C661 C 0.40694 0.83701 0.45255 0.0
C662 C 0.43499 0.82358 0.44596 0.0
C663 C 0.35359 0.8731 0.45387 0.0
C664 C 0.36052 0.88858 0.46557 0.0
C665 C 0.31905 0.87147 0.44961 0.0
C666 C 0.30948 0.85543 0.43738 0.0
C667 C 0.31949 0.82155 0.4344 0.0
C668 C 0.31058 0.80699 0.4228 0.0
C669 C 0.29144 0.82594 0.4141 0.0
C670 C 0.2811 0.85947 0.417 0.0
C671 C 0.28998 0.87418 0.42859 0.0
H672 H 0.28459 0.81463 0.40512 0.0
H673 H 0.36815 0.96433 0.51666 0.0
H674 H 0.30248 0.99395 0.74073 0.0
H675 H 0.32402 0.0394 0.72713 0.0
H676 H 0.23821 0.02499 0.702 0.0
H677 H 0.21714 0.97805 0.71532 0.0
H678 H 0.29661 0.03758 0.68876 0.0
H679 H 0.23703 0.09159 0.72239 0.0
H680 H 0.22014 0.1026 0.74444 0.0
H681 H 0.32344 0.13287 0.75326 0.0
H682 H 0.34109 0.12156 0.73131 0.0
H683 H 0.36797 0.19622 0.66198 0.0
H684 H 0.32434 0.15662 0.67056 0.0
H685 H 0.38952 0.13687 0.70262 0.0
H686 H 0.43206 0.176 0.69446 0.0
H687 H 0.32457 0.14801 0.70987 0.0
H688 H 0.38386 0.08436 0.67593 0.0
H689 H 0.39799 0.07448 0.65354 0.0
H690 H 0.29075 0.064 0.64489 0.0
H691 H 0.27592 0.07499 0.66714 0.0
C692 C 0.28845 0.9998 0.73219 0.0
C693 C 0.25793 0.98225 0.7292 0.0
C694 C 0.3006 0.0262 0.72448 0.0
C695 C 0.28236 0.03617 0.71366 0.0
C696 C 0.25257 0.01798 0.71035 0.0
C697 C 0.24042 0.99133 0.71805 0.0
C698 C 0.29429 0.06623 0.70615 0.0
C699 C 0.30216 0.06196 0.69331 0.0
C700 C 0.30095 0.09832 0.71199 0.0
C701 C 0.2904 0.10558 0.72519 0.0
C702 C 0.25619 0.10043 0.72904 0.0
C703 C 0.24648 0.10673 0.74153 0.0
C704 C 0.27071 0.1184 0.75025 0.0
C705 C 0.30469 0.12385 0.74649 0.0
C706 C 0.31456 0.11755 0.73402 0.0
C707 C 0.37275 0.1836 0.67091 0.0
C708 C 0.4037 0.18931 0.67747 0.0
C709 C 0.34789 0.16088 0.67576 0.0
C710 C 0.3537 0.14369 0.68724 0.0
C711 C 0.38429 0.14987 0.69379 0.0
C712 C 0.40884 0.17225 0.68902 0.0
C713 C 0.32903 0.1186 0.69273 0.0
C714 C 0.31837 0.1239 0.70523 0.0
C715 C 0.31958 0.08774 0.68651 0.0
C716 C 0.32876 0.08098 0.67317 0.0
C717 C 0.36328 0.08035 0.66923 0.0
C718 C 0.37141 0.07459 0.65655 0.0
C719 C 0.34528 0.06883 0.64778 0.0
C720 C 0.31096 0.06874 0.65167 0.0
C721 C 0.30268 0.07482 0.6643 0.0
H722 H 0.35161 0.06431 0.63798 0.0
H723 H 0.26314 0.12325 0.75991 0.0
H724 H 0.31527 0.06228 0.97164 0.0
H725 H 0.2723 0.08825 0.95776 0.0
H726 H 0.19225 0.03161 0.97675 0.0
H727 H 0.23539 0.00468 0.99033 0.0
H728 H 0.17886 0.03161 0.95294 0.0
H729 H 0.2083 0.11938 0.98253 0.0
H730 H 0.24637 0.15789 0.99461 0.0
H731 H 0.2822 0.2036 0.96022 0.0
H732 H 0.24467 0.16503 0.94792 0.0
H733 H 0.04085 0.14474 0.93359 0.0
H734 H 0.08271 0.10642 0.94373 0.0
H735 H 0.16483 0.15649 0.92348 0.0
H736 H 0.1231 0.1954 0.91374 0.0
H737 H 0.17622 0.15836 0.94786 0.0
H738 H 0.14127 0.06982 0.91864 0.0
H739 H 0.09998 0.03195 0.90778 0.0
H740 H 0.06961 0.98879 0.9433 0.0
H741 H 0.11049 0.02675 0.95435 0.0
C742 C 0.28848 0.05549 0.97286 0.0
C743 C 0.27864 0.03163 0.9821 0.0
C744 C 0.2639 0.07036 0.96494 0.0
C745 C 0.22884 0.06238 0.96631 0.0
C746 C 0.21906 0.03821 0.97547 0.0
C747 C 0.24372 0.0229 0.98324 0.0
C748 C 0.20237 0.0796 0.95836 0.0
C749 C 0.17806 0.05937 0.95193 0.0
C750 C 0.20134 0.1158 0.95693 0.0
C751 C 0.22393 0.13907 0.9643 0.0
C752 C 0.22449 0.13747 0.97754 0.0
C753 C 0.24594 0.15933 0.98443 0.0
C754 C 0.26676 0.18311 0.97819 0.0
C755 C 0.2661 0.18513 0.96504 0.0
C756 C 0.24473 0.16329 0.95811 0.0
C757 C 0.06772 0.14657 0.93099 0.0
C758 C 0.07892 0.17265 0.92285 0.0
C759 C 0.09166 0.12475 0.93679 0.0
C760 C 0.12703 0.12856 0.9344 0.0
C761 C 0.13776 0.15313 0.92553 0.0
C762 C 0.11395 0.17516 0.91989 0.0
C763 C 0.1531 0.1104 0.94223 0.0
C764 C 0.17717 0.13057 0.94876 0.0
C765 C 0.15335 0.07427 0.94393 0.0
C766 C 0.12876 0.05139 0.9373 0.0
C767 C 0.1256 0.05246 0.92412 0.0
C768 C 0.10231 0.03094 0.91793 0.0
C769 C 0.0821 0.00804 0.92485 0.0
C770 C 0.08524 0.00657 0.93795 0.0
C771 C 0.10852 0.02806 0.94418 0.0
H772 H 0.06407 0.99138 0.92005 0.0
H773 H 0.28335 0.20002 0.98354 0.0
H774 H 0.23365 0.00581 0.23881 0.0
H775 H 0.20223 0.96221 0.22701 0.0
H776 H 0.11544 0.03072 0.22389 0.0
H777 H 0.14713 0.07515 0.23548 0.0
H778 H 0.0968 0.96294 0.23015 0.0
H779 H 0.1647 0.02071 0.19909 0.0
H780 H 0.21756 0.04484 0.18984 0.0
H781 H 0.26384 0.94446 0.18956 0.0
H782 H 0.21141 0.9198 0.19899 0.0
H783 H 0.02264 0.86686 0.17711 0.0
H784 H 0.04785 0.91424 0.18946 0.0
H785 H 0.12824 0.84644 0.20227 0.0
H786 H 0.1022 0.79866 0.1905 0.0
H787 H 0.14709 0.91642 0.19062 0.0
H788 H 0.07719 0.85824 0.22102 0.0
H789 H 0.02371 0.83465 0.22981 0.0
H790 H 0.98061 0.93621 0.23194 0.0
H791 H 0.03368 0.96041 0.22289 0.0
C792 C 0.20805 0.01194 0.2355 0.0
C793 C 0.19319 0.04433 0.23797 0.0
C794 C 0.19003 0.98681 0.22881 0.0
C795 C 0.15664 0.99332 0.22444 0.0
C796 C 0.14121 0.02517 0.22717 0.0
C797 C 0.15935 0.0505 0.23383 0.0
C798 C 0.13836 0.96692 0.21683 0.0
C799 C 0.10741 0.95313 0.22139 0.0
C800 C 0.15264 0.95374 0.20553 0.0
C801 C 0.18423 0.96847 0.19986 0.0
C802 C 0.18625 0.00383 0.19716 0.0
C803 C 0.21612 0.01759 0.19186 0.0
C804 C 0.24407 0.99621 0.18914 0.0
C805 C 0.24218 0.961 0.19169 0.0
C806 C 0.21239 0.94711 0.197 0.0
C807 C 0.04569 0.86222 0.18258 0.0
C808 C 0.06065 0.82932 0.18289 0.0
C809 C 0.05991 0.88916 0.18964 0.0
C810 C 0.08976 0.88373 0.19678 0.0
C811 C 0.10511 0.85104 0.19684 0.0
C812 C 0.09028 0.82386 0.19015 0.0
C813 C 0.10566 0.91228 0.20396 0.0
C814 C 0.13624 0.92644 0.19931 0.0
C815 C 0.09092 0.92571 0.21516 0.0
C816 C 0.05906 0.91108 0.22075 0.0
C817 C 0.05607 0.87554 0.22303 0.0
C818 C 0.02588 0.86204 0.22818 0.0
C819 C 0.99865 0.88388 0.23132 0.0
C820 C 1.00164 0.91929 0.22941 0.0
C821 C 0.03175 0.93288 0.22423 0.0
H822 H 0.9753 0.8734 0.2353 0.0
H823 H 0.26716 0.00691 0.18504 0.0
H824 H 0.25209 0.07113 0.55273 0.0
H825 H 0.29599 0.09401 0.5667 0.0
H826 H 0.24082 0.05508 0.59892 0.0
H827 H 0.19549 0.03364 0.58498 0.0
H828 H 0.26519 0.11671 0.60421 0.0
H829 H 0.31404 0.01414 0.58758 0.0
H830 H 0.33092 0.9722 0.57123 0.0
H831 H 0.39718 0.04726 0.55425 0.0
H832 H 0.38033 0.08984 0.57039 0.0
H833 H 0.41051 0.16782 0.641 0.0
H834 H 0.36851 0.12841 0.6316 0.0
H835 H 0.40081 0.1597 0.59445 0.0
H836 H 0.44299 0.19834 0.60368 0.0
H837 H 0.38777 0.09235 0.59476 0.0
H838 H 0.32951 0.19689 0.60988 0.0
H839 H 0.31399 0.2374 0.62691 0.0
H840 H 0.26721 0.15511 0.64771 0.0
H841 H 0.2822 0.11425 0.63071 0.0
C842 C 0.24881 0.06783 0.56279 0.0
C843 C 0.22001 0.05046 0.56767 0.0
C844 C 0.27435 0.08053 0.57079 0.0
C845 C 0.27222 0.07568 0.58389 0.0
C846 C 0.24326 0.05891 0.58885 0.0
C847 C 0.21747 0.04639 0.58084 0.0
C848 C 0.30022 0.08847 0.59228 0.0
C849 C 0.29194 0.11082 0.60227 0.0
C850 C 0.33526 0.08088 0.58984 0.0
C851 C 0.34574 0.05526 0.58016 0.0
C852 C 0.33206 0.02178 0.58031 0.0
C853 C 0.34164 0.99788 0.57109 0.0
C854 C 0.36506 0.00708 0.56169 0.0
C855 C 0.37903 0.04017 0.56153 0.0
C856 C 0.36951 0.06419 0.57073 0.0
C857 C 0.40916 0.16573 0.63083 0.0
C858 C 0.42993 0.18654 0.6231 0.0
C859 C 0.38495 0.14335 0.62546 0.0
C860 C 0.38105 0.14146 0.61229 0.0
C861 C 0.40317 0.16072 0.60462 0.0
C862 C 0.42724 0.18298 0.60993 0.0
C863 C 0.35274 0.12148 0.60632 0.0
C864 C 0.36096 0.09772 0.5968 0.0
C865 C 0.31772 0.12755 0.60925 0.0
C866 C 0.3073 0.15248 0.61913 0.0
C867 C 0.3159 0.18749 0.61809 0.0
C868 C 0.30718 0.21051 0.62772 0.0
C869 C 0.28977 0.19882 0.63841 0.0
C870 C 0.28073 0.16414 0.63943 0.0
C871 C 0.28923 0.14106 0.62979 0.0
H872 H 0.2832 0.21665 0.64589 0.0
H873 H 0.37243 0.98855 0.55455 0.0
H874 H 0.1189 0.98392 0.80311 0.0
H875 H 0.10305 0.0294 0.81764 0.0
H876 H 0.20771 0.03559 0.83074 0.0
H877 H 0.22349 0.98773 0.81687 0.0
H878 H 0.16664 0.04721 0.8499 0.0
H879 H 0.17553 0.09385 0.80895 0.0
H880 H 0.1667 0.09843 0.78601 0.0
H881 H 0.05801 0.10972 0.79176 0.0
H882 H 0.0661 0.10469 0.81474 0.0
H883 H 0.10945 0.20975 0.87818 0.0
H884 H 0.14306 0.16708 0.86606 0.0
H885 H 0.04987 0.1319 0.84817 0.0
H886 H 0.01699 0.1746 0.85977 0.0
H887 H 0.09824 0.14196 0.83116 0.0
H888 H 0.09481 0.08936 0.87373 0.0
H889 H 0.10986 0.09311 0.8963 0.0
H890 H 0.21679 0.10089 0.88669 0.0
H891 H 0.20233 0.09786 0.86409 0.0
C892 C 0.13859 0.99406 0.80927 0.0
C893 C 0.17267 0.98187 0.80866 0.0
C894 C 0.12951 0.02069 0.81748 0.0
C895 C 0.15434 0.03675 0.82507 0.0
C896 C 0.18811 0.02395 0.82489 0.0
C897 C 0.19717 0.99676 0.81681 0.0
C898 C 0.1448 0.06752 0.83277 0.0
C899 C 0.15201 0.0681 0.84576 0.0
C900 C 0.12648 0.09541 0.8274 0.0
C901 C 0.12143 0.09867 0.81358 0.0
C902 C 0.14972 0.0971 0.80533 0.0
C903 C 0.14484 0.09979 0.79231 0.0
C904 C 0.11181 0.10431 0.78743 0.0
C905 C 0.08358 0.10621 0.79556 0.0
C906 C 0.0883 0.10348 0.80858 0.0
C907 C 0.09637 0.19277 0.87167 0.0
C908 C 0.06076 0.19586 0.86975 0.0
C909 C 0.11549 0.16837 0.86477 0.0
C910 C 0.09902 0.14622 0.85615 0.0
C911 C 0.06332 0.14887 0.85461 0.0
C912 C 0.04452 0.17339 0.86125 0.0
C913 C 0.11805 0.1205 0.84838 0.0
C914 C 0.11298 0.1211 0.83528 0.0
C915 C 0.13895 0.09433 0.85363 0.0
C916 C 0.14748 0.0937 0.86723 0.0
C917 C 0.12152 0.09183 0.87644 0.0
C918 C 0.12995 0.0939 0.88924 0.0
C919 C 0.16426 0.09739 0.89291 0.0
C920 C 0.19023 0.0983 0.88383 0.0
C921 C 0.18195 0.09639 0.87103 0.0
H922 H 0.17081 0.09953 0.90278 0.0
H923 H 0.10809 0.10639 0.77735 0.0
H924 H 0.33951 0.89851 0.0687 0.0
H925 H 0.30155 0.88004 0.0858 0.0
H926 H 0.22542 0.95397 0.07395 0.0
H927 H 0.26319 0.97257 0.05687 0.0
H928 H 0.22862 0.95102 0.09931 0.0
H929 H 0.22107 0.86976 0.06493 0.0
H930 H 0.24361 0.82802 0.04944 0.0
H931 H 0.28179 0.7647 0.07947 0.0
H932 H 0.25992 0.80636 0.09514 0.0
H933 H 0.07092 0.8769 0.11898 0.0
H934 H 0.12065 0.90222 0.10852 0.0
H935 H 0.18599 0.82375 0.12439 0.0
H936 H 0.13633 0.79804 0.13485 0.0
H937 H 0.19366 0.8283 0.09923 0.0
H938 H 0.19462 0.90654 0.13373 0.0
H939 H 0.17059 0.94782 0.14907 0.0
H940 H 0.14342 0.0163 0.11896 0.0
H941 H 0.16685 0.97521 0.10342 0.0
C942 C 0.31474 0.91094 0.06977 0.0
C943 C 0.30428 0.93683 0.06135 0.0
C944 C 0.2931 0.9004 0.07956 0.0
C945 C 0.26041 0.91528 0.08105 0.0
C946 C 0.25053 0.94215 0.073 0.0
C947 C 0.2722 0.9528 0.06324 0.0
C948 C 0.23565 0.90157 0.09046 0.0
C949 C 0.22081 0.92423 0.09926 0.0
C950 C 0.22607 0.86642 0.09061 0.0
C951 C 0.23926 0.84139 0.0812 0.0
C952 C 0.23455 0.84709 0.06823 0.0
C953 C 0.24716 0.82342 0.05942 0.0
C954 C 0.26423 0.79379 0.06347 0.0
C955 C 0.26865 0.78771 0.07634 0.0
C956 C 0.25616 0.81134 0.08519 0.0
C957 C 0.09593 0.86532 0.12044 0.0
C958 C 0.0995 0.8353 0.12772 0.0
C959 C 0.12442 0.87998 0.1145 0.0
C960 C 0.1571 0.86497 0.1157 0.0
C961 C 0.16102 0.8358 0.12335 0.0
C962 C 0.13257 0.82124 0.12938 0.0
C963 C 0.18628 0.8778 0.10799 0.0
C964 C 0.20186 0.85498 0.09946 0.0
C965 C 0.19639 0.91278 0.10808 0.0
C966 C 0.18228 0.93764 0.11739 0.0
C967 C 0.18327 0.93027 0.13037 0.0
C968 C 0.1698 0.95367 0.1391 0.0
C969 C 0.15542 0.98463 0.13499 0.0
C970 C 0.15455 0.9923 0.12213 0.0
C971 C 0.16797 0.96898 0.11336 0.0
H972 H 0.14501 1.00271 0.14177 0.0
H973 H 0.27395 0.77548 0.05663 0.0
H974 H 0.36607 0.1024 0.31497 0.0
H975 H 0.38868 0.06708 0.33217 0.0
H976 H 0.3097 0.99154 0.32532 0.0
H977 H 0.28696 0.02672 0.30821 0.0
H978 H 0.31697 0.99987 0.34964 0.0
H979 H 0.39302 0.98233 0.31477 0.0
H980 H 0.43455 0.99547 0.29791 0.0
H981 H 0.50505 0.03606 0.32523 0.0
H982 H 0.46362 0.02386 0.34225 0.0
H983 H 0.3934 0.84423 0.37037 0.0
H984 H 0.36632 0.89341 0.36017 0.0
H985 H 0.44482 0.96026 0.37506 0.0
H986 H 0.4724 0.91102 0.38527 0.0
H987 H 0.43908 0.9637 0.34947 0.0
H988 H 0.3636 0.97064 0.38452 0.0
H989 H 0.32335 0.94902 0.40061 0.0
H990 H 0.25242 0.91913 0.37164 0.0
H991 H 0.29249 0.93998 0.35535 0.0
C992 C 0.35359 0.07822 0.31712 0.0
C993 C 0.32473 0.06736 0.3102 0.0
C994 C 0.36652 0.05806 0.32696 0.0
C995 C 0.3511 0.02645 0.32998 0.0
C996 C 0.32196 0.01588 0.32322 0.0
C997 C 0.30893 0.03608 0.31344 0.0
C998 C 0.3656 0.00391 0.33999 0.0
C999 C 0.34364 0.99171 0.34952 0.0
C1000 C 0.40063 0.99387 0.34007 0.0
C1001 C 0.42486 1.00285 0.32977 0.0
C1002 C 0.41709 0.99465 0.31717 0.0
C1003 C 0.44069 1.0018 0.30758 0.0
C1004 C 0.47233 0.01677 0.31049 0.0
C1005 C 0.48044 0.02466 0.32299 0.0
C1006 C 0.45688 0.01771 0.3326 0.0
C1007 C 0.40462 0.86947 0.3717 0.0
C1008 C 0.43533 0.87357 0.37853 0.0
C1009 C 0.3889 0.89764 0.36593 0.0
C1010 C 0.40349 0.93053 0.36688 0.0
C1011 C 0.43306 0.9351 0.37426 0.0
C1012 C 0.44875 0.90691 0.38011 0.0
C1013 C 0.39039 0.95881 0.35882 0.0
C1014 C 0.41259 0.97218 0.34965 0.0
C1015 C 0.35554 0.96913 0.35891 0.0
C1016 C 0.3312 0.95674 0.36869 0.0
C1017 C 0.33954 0.95922 0.38157 0.0
C1018 C 0.31673 0.94712 0.39073 0.0
C1019 C 0.28536 0.93269 0.38715 0.0
C1020 C 0.27673 0.93033 0.3744 0.0
C1021 C 0.29947 0.94233 0.36519 0.0
H1022 H 0.2677 0.92343 0.39425 0.0
H1023 H 0.49063 0.02213 0.30306 0.0
H1024 H 0.74591 0.05392 0.55165 0.0
H1025 H 0.70044 0.07145 0.56627 0.0
H1026 H 0.77397 0.12954 0.58794 0.0
H1027 H 0.81975 0.11209 0.57329 0.0
H1028 H 0.72428 0.09043 0.60286 0.0
H1029 H 0.72912 0.17245 0.56876 0.0
H1030 H 0.72977 0.18961 0.5464 0.0
H1031 H 0.63084 0.14307 0.541 0.0
H1032 H 0.62985 0.12518 0.5633 0.0
H1033 H 0.61053 0.20341 0.63583 0.0
H1034 H 0.6558 0.17264 0.62449 0.0
H1035 H 0.58214 0.14202 0.59618 0.0
H1036 H 0.5375 0.17505 0.60715 0.0
H1037 H 0.63279 0.16438 0.58483 0.0
H1038 H 0.62526 0.08481 0.61929 0.0
H1039 H 0.62476 0.06631 0.64152 0.0
H1040 H 0.72711 0.10516 0.64638 0.0
H1041 H 0.72802 0.12447 0.62429 0.0
C1042 C 0.75256 0.06992 0.55965 0.0
C1043 C 0.78644 0.08167 0.5613 0.0
C1044 C 0.72651 0.08003 0.56797 0.0
C1045 C 0.73381 0.10189 0.57816 0.0
C1046 C 0.76782 0.1126 0.58014 0.0
C1047 C 0.79387 0.10282 0.57173 0.0
C1048 C 0.70549 0.11546 0.58618 0.0
C1049 C 0.70432 0.10682 0.599 0.0
C1050 C 0.67914 0.13619 0.58104 0.0
C1051 C 0.67958 0.14716 0.56766 0.0
C1052 C 0.70764 0.16562 0.56278 0.0
C1053 C 0.70805 0.17552 0.55012 0.0
C1054 C 0.68041 0.16735 0.54227 0.0
C1055 C 0.65226 0.14934 0.54708 0.0
C1056 C 0.65175 0.13933 0.55973 0.0
C1057 C 0.6039 0.18915 0.6274 0.0
C1058 C 0.57052 0.19105 0.62244 0.0
C1059 C 0.62981 0.17148 0.62089 0.0
C1060 C 0.62258 0.15441 0.60948 0.0
C1061 C 0.58861 0.15496 0.60491 0.0
C1062 C 0.56298 0.17353 0.61122 0.0
C1063 C 0.65078 0.13904 0.60168 0.0
C1064 C 0.65224 0.14759 0.58881 0.0
C1065 C 0.67714 0.11797 0.60681 0.0
C1066 C 0.6766 0.10631 0.62013 0.0
C1067 C 0.64757 0.08964 0.62513 0.0
C1068 C 0.64722 0.07899 0.63771 0.0
C1069 C 0.67587 0.08458 0.64537 0.0
C1070 C 0.70491 0.10087 0.64047 0.0
C1071 C 0.70537 0.11165 0.6279 0.0
H1072 H 0.67558 0.07628 0.65511 0.0
H1073 H 0.68076 0.17504 0.53247 0.0
H1074 H 0.65211 0.08727 0.31931 0.0
H1075 H 0.62991 0.04502 0.33427 0.0
H1076 H 0.7104 0.97426 0.32358 0.0
H1077 H 0.73273 0.01642 0.30861 0.0
H1078 H 0.60333 0.9857 0.32931 0.0
H1079 H 0.72736 0.91852 0.34805 0.0
H1080 H 0.78673 0.93384 0.35391 0.0
H1081 H 0.75566 0.03853 0.36024 0.0
H1082 H 0.69603 0.02375 0.35461 0.0
H1083 H 0.55644 0.8244 0.35198 0.0
H1084 H 0.58918 0.86894 0.34112 0.0
H1085 H 0.61924 0.91217 0.37693 0.0
H1086 H 0.58729 0.86691 0.38788 0.0
H1087 H 0.67 0.91912 0.36079 0.0
H1088 H 0.54992 0.9411 0.36024 0.0
H1089 H 0.48881 0.92925 0.35632 0.0
H1090 H 0.50789 0.92485 0.3165 0.0
H1091 H 0.5696 0.93495 0.32021 0.0
C1092 C 0.66523 0.0628 0.3202 0.0
C1093 C 0.69412 0.05522 0.3127 0.0
C1094 C 0.65258 0.03868 0.32879 0.0
C1095 C 0.6685 0.00641 0.33012 0.0
C1096 C 0.69796 0.99914 0.32292 0.0
C1097 C 0.71072 0.02332 0.31434 0.0
C1098 C 0.65261 0.97944 0.33822 0.0
C1099 C 0.61796 0.97118 0.33619 0.0
C1100 C 0.67142 0.96089 0.34741 0.0
C1101 C 0.70727 0.97007 0.35076 0.0
C1102 C 0.73318 0.94479 0.35072 0.0
C1103 C 0.76688 0.95338 0.354 0.0
C1104 C 0.77498 0.98716 0.3574 0.0
C1105 C 0.74938 0.01241 0.35755 0.0
C1106 C 0.71563 0.00395 0.35429 0.0
C1107 C 0.57053 0.843 0.35756 0.0
C1108 C 0.56895 0.84231 0.3708 0.0
C1109 C 0.58912 0.86859 0.35133 0.0
C1110 C 0.6059 0.89455 0.35819 0.0
C1111 C 0.60628 0.89262 0.37142 0.0
C1112 C 0.58804 0.86667 0.37768 0.0
C1113 C 0.62108 0.9247 0.35154 0.0
C1114 C 0.65547 0.93361 0.35387 0.0
C1115 C 0.60179 0.94445 0.3428 0.0
C1116 C 0.56459 0.93836 0.34053 0.0
C1117 C 0.54124 0.93717 0.35066 0.0
C1118 C 0.50644 0.93074 0.34847 0.0
C1119 C 0.49442 0.92629 0.33617 0.0
C1120 C 0.51725 0.92817 0.32603 0.0
C1121 C 0.55219 0.93408 0.32817 0.0
H1122 H 0.46743 0.92143 0.33449 0.0
H1123 H 0.80109 0.99375 0.35994 0.0
H1124 H 0.69958 0.99234 0.07064 0.0
H1125 H 0.73733 0.9709 0.08731 0.0
H1126 H 0.74439 0.87289 0.06846 0.0
H1127 H 0.70886 0.89444 0.05136 0.0
H1128 H 0.73149 0.87304 0.09688 0.0
H1129 H 0.80617 0.91776 0.06357 0.0
H1130 H 0.82585 0.96358 0.04923 0.0
H1131 H 0.84635 0.02932 0.08092 0.0
H1132 H 0.82626 0.984 0.09543 0.0
H1133 H 0.87422 0.78431 0.12145 0.0
H1134 H 0.82766 0.81127 0.1097 0.0
H1135 H 0.86564 0.91167 0.12035 0.0
H1136 H 0.91415 0.88429 0.13118 0.0
H1137 H 0.85155 0.91566 0.09798 0.0
H1138 H 0.78462 0.87139 0.13185 0.0
H1139 H 0.76346 0.82832 0.14701 0.0
H1140 H 0.72579 0.76608 0.11656 0.0
H1141 H 0.74705 0.80859 0.10119 0.0
C1142 C 0.70931 0.96631 0.06992 0.0
C1143 C 0.70095 0.9453 0.05952 0.0
C1144 C 0.7306 0.95401 0.07956 0.0
C1145 C 0.74344 0.92029 0.07912 0.0
C1146 C 0.73437 0.89888 0.06903 0.0
C1147 C 0.71376 0.91132 0.05928 0.0
C1148 C 0.76814 0.9078 0.0887 0.0
C1149 C 0.75781 0.88217 0.09717 0.0
C1150 C 0.80203 0.92061 0.08928 0.0
C1151 C 0.81431 0.94769 0.08056 0.0
C1152 C 0.81454 0.94211 0.06747 0.0
C1153 C 0.82584 0.96795 0.05931 0.0
C1154 C 0.83723 0.99939 0.06416 0.0
C1155 C 0.83745 0.00499 0.07717 0.0
C1156 C 0.82612 0.97924 0.08537 0.0
C1157 C 0.87212 0.81214 0.12147 0.0
C1158 C 0.89737 0.83234 0.12731 0.0
C1159 C 0.84532 0.82763 0.11481 0.0
C1160 C 0.84237 0.86372 0.11429 0.0
C1161 C 0.86713 0.88385 0.12056 0.0
C1162 C 0.8947 0.86829 0.12684 0.0
C1163 C 0.81532 0.88029 0.10634 0.0
C1164 C 0.82516 0.90672 0.09804 0.0
C1165 C 0.78073 0.86866 0.10614 0.0
C1166 C 0.76755 0.84316 0.11536 0.0
C1167 C 0.77194 0.84846 0.12838 0.0
C1168 C 0.7599 0.82416 0.13701 0.0
C1169 C 0.74323 0.79453 0.13275 0.0
C1170 C 0.73858 0.78912 0.11984 0.0
C1171 C 0.75057 0.81334 0.11117 0.0
H1172 H 0.73394 0.77574 0.13945 0.0
H1173 H 0.84598 0.01936 0.05783 0.0
H1174 H 0.87805 0.935 0.81375 0.0
H1175 H 0.89563 0.9744 0.83064 0.0
H1176 H 0.83286 0.05447 0.81446 0.0
H1177 H 0.81571 0.01559 0.7975 0.0
H1178 H 0.89747 0.07661 0.81976 0.0
H1179 H 0.80779 0.01354 0.84091 0.0
H1180 H 0.77877 0.96149 0.8488 0.0
H1181 H 0.867 0.93696 0.87135 0.0
H1182 H 0.89676 0.98865 0.86346 0.0
H1183 H 0.89435 0.20348 0.86566 0.0
H1184 H 0.87314 0.15568 0.85301 0.0
H1185 H 0.94538 0.0873 0.87091 0.0
H1186 H 0.96706 0.13513 0.88368 0.0
H1187 H 0.87975 0.05637 0.86549 0.0
H1188 H 0.96985 0.1179 0.84443 0.0
H1189 H 1.00007 0.16924 0.83648 0.0
H1190 H 0.91255 0.19549 0.81384 0.0
H1191 H 0.88172 0.14437 0.82168 0.0
C1192 C 0.86803 0.96101 0.81381 0.0
C1193 C 0.84544 0.97215 0.80429 0.0
C1194 C 0.87786 0.98339 0.82352 0.0
C1195 C 0.86537 0.01731 0.82386 0.0
C1196 C 0.84272 0.02838 0.81441 0.0
C1197 C 0.83276 0.00603 0.80476 0.0
C1198 C 0.87696 0.04197 0.83368 0.0
C1199 C 0.89323 0.07229 0.82974 0.0
C1200 C 0.87249 0.03583 0.84674 0.0
C1201 C 0.85465 0.00474 0.85148 0.0
C1202 C 0.82114 0.99687 0.84746 0.0
C1203 C 0.80452 0.96747 0.85195 0.0
C1204 C 0.82107 0.94587 0.86054 0.0
C1205 C 0.85424 0.95368 0.86468 0.0
C1206 C 0.87098 0.98303 0.86021 0.0
C1207 C 0.90538 0.1782 0.86714 0.0
C1208 C 0.93284 0.17337 0.87558 0.0
C1209 C 0.89319 0.15088 0.85987 0.0
C1210 C 0.90816 0.11815 0.86086 0.0
C1211 C 0.93361 0.11244 0.86998 0.0
C1212 C 0.94592 0.13986 0.87728 0.0
C1213 C 0.89947 0.09117 0.85149 0.0
C1214 C 0.88402 0.06048 0.8555 0.0
C1215 C 0.90489 0.09672 0.83847 0.0
C1216 C 0.92336 0.12748 0.83373 0.0
C1217 C 0.95695 0.13476 0.83783 0.0
C1218 C 0.97421 0.16378 0.83333 0.0
C1219 C 0.95819 0.18568 0.82472 0.0
C1220 C 0.92491 0.17853 0.82053 0.0
C1221 C 0.90756 0.14949 0.82497 0.0
H1222 H 0.97159 0.20815 0.82126 0.0
H1223 H 0.80816 0.92313 0.86401 0.0
H1224 H 0.752 0.04515 0.48541 0.0
H1225 H 0.70876 0.02414 0.47065 0.0
H1226 H 0.77603 0.94087 0.45983 0.0
H1227 H 0.82004 0.96242 0.47431 0.0
H1228 H 0.74239 0.9677 0.43936 0.0
H1229 H 0.71245 0.92819 0.48107 0.0
H1230 H 0.69906 0.93506 0.50366 0.0
H1231 H 0.61326 0.99993 0.49447 0.0
H1232 H 0.62645 0.9938 0.47182 0.0
H1233 H 0.63138 0.83256 0.42177 0.0
H1234 H 0.67299 0.87323 0.43035 0.0
H1235 H 0.59247 0.94849 0.4353 0.0
H1236 H 0.5505 0.90763 0.42645 0.0
H1237 H 0.6293 0.93472 0.45726 0.0
H1238 H 0.65391 0.96582 0.41517 0.0
H1239 H 0.66671 0.95705 0.39263 0.0
H1240 H 0.76168 0.90718 0.40218 0.0
H1241 H 0.74917 0.91501 0.4248 0.0
C1242 C 0.75795 0.02271 0.47974 0.0
C1243 C 0.78959 0.00545 0.4811 0.0
C1244 C 0.73301 0.01057 0.47136 0.0
C1245 C 0.73895 0.98071 0.46421 0.0
C1246 C 0.77083 0.96394 0.46526 0.0
C1247 C 0.79584 0.97609 0.47364 0.0
C1248 C 0.7113 0.96594 0.45615 0.0
C1249 C 0.71773 0.96029 0.44327 0.0
C1250 C 0.67869 0.95725 0.46116 0.0
C1251 C 0.67069 0.96088 0.47476 0.0
C1252 C 0.69091 0.94415 0.48387 0.0
C1253 C 0.68332 0.94787 0.49669 0.0
C1254 C 0.65539 0.96801 0.5005 0.0
C1255 C 0.63493 0.9844 0.49151 0.0
C1256 C 0.64243 0.9808 0.47868 0.0
C1257 C 0.62269 0.85811 0.42439 0.0
C1258 C 0.58777 0.86701 0.42347 0.0
C1259 C 0.64652 0.88137 0.42926 0.0
C1260 C 0.6359 0.91395 0.43345 0.0
C1261 C 0.60121 0.92352 0.43207 0.0
C1262 C 0.57733 0.90032 0.42695 0.0
C1263 C 0.66053 0.93593 0.4405 0.0
C1264 C 0.65366 0.94277 0.45325 0.0
C1265 C 0.69268 0.94559 0.43535 0.0
C1266 C 0.70046 0.94083 0.42173 0.0
C1267 C 0.6774 0.9527 0.41249 0.0
C1268 C 0.68462 0.94794 0.39969 0.0
C1269 C 0.71497 0.93154 0.39598 0.0
C1270 C 0.73817 0.91988 0.40507 0.0
C1271 C 0.73104 0.92451 0.41789 0.0
H1272 H 0.72053 0.92793 0.38606 0.0
H1273 H 0.64956 0.97085 0.51043 0.0
H1274 H 0.78123 0.05363 0.22227 0.0
H1275 H 0.81117 0.00968 0.20999 0.0
H1276 H 0.88922 1.00262 0.23863 0.0
H1277 H 0.85865 0.0455 0.25134 0.0
H1278 H 0.91372 1.00322 0.21197 0.0
H1279 H 0.83399 0.94483 0.2397 0.0
H1280 H 0.77691 0.93463 0.24907 0.0
H1281 H 0.73541 0.91328 0.2124 0.0
H1282 H 0.79218 0.9239 0.20278 0.0
H1283 H 0.97836 0.83113 0.19819 0.0
H1284 H 0.9549 0.88214 0.20896 0.0
H1285 H 0.87813 0.89254 0.17996 0.0
H1286 H 0.90231 0.84259 0.16888 0.0
H1287 H 0.85382 0.89157 0.20646 0.0
H1288 H 0.93252 0.94371 0.17857 0.0
H1289 H 0.98728 0.95666 0.16804 0.0
H1290 H 0.02886 0.99428 0.20286 0.0
H1291 H 0.97458 0.98049 0.21376 0.0
C1292 C 0.80463 0.04269 0.22606 0.0
C1293 C 0.81712 0.05296 0.23795 0.0
C1294 C 0.82189 0.01775 0.21893 0.0
C1295 C 0.85229 1.00276 0.22343 0.0
C1296 C 0.86584 0.01399 0.23498 0.0
C1297 C 0.84833 0.03866 0.24221 0.0
C1298 C 0.86857 0.97385 0.21643 0.0
C1299 C 0.90103 0.97856 0.21092 0.0
C1300 C 0.8513 0.94219 0.21473 0.0
C1301 C 0.81724 0.93551 0.22051 0.0
C1302 C 0.81262 0.93826 0.23362 0.0
C1303 C 0.78034 0.93235 0.23898 0.0
C1304 C 0.75253 0.92341 0.23134 0.0
C1305 C 0.75697 0.92026 0.21831 0.0
C1306 C 0.78919 0.9262 0.2129 0.0
C1307 C 0.95654 0.8444 0.19412 0.0
C1308 C 0.94199 0.83287 0.18274 0.0
C1309 C 0.94333 0.87358 0.20023 0.0
C1310 C 0.91486 0.8911 0.19523 0.0
C1311 C 0.90017 0.87942 0.18394 0.0
C1312 C 0.914 0.85095 0.17763 0.0
C1313 C 0.89934 0.92062 0.20209 0.0
C1314 C 0.86685 0.91606 0.20756 0.0
C1315 C 0.91653 0.9525 0.20358 0.0
C1316 C 0.94966 0.95997 0.19712 0.0
C1317 C 0.95355 0.95385 0.18411 0.0
C1318 C 0.98447 0.9616 0.17803 0.0
C1319 C 0.01159 0.97611 0.1848 0.0
C1320 C 0.00786 0.98285 0.19766 0.0
C1321 C 0.97704 0.97493 0.2038 0.0
H1322 H 0.03549 0.98219 0.18008 0.0
H1323 H 0.72755 0.91884 0.2355 0.0
H1324 H 0.76469 0.06723 0.99699 0.0
H1325 H 0.80499 0.10291 0.98497 0.0
H1326 H 0.72266 0.13479 0.96044 0.0
H1327 H 0.68195 0.09975 0.9727 0.0
H1328 H 0.78674 0.10821 0.94825 0.0
H1329 H 0.74678 0.1921 0.97767 0.0
H1330 H 0.73206 0.21614 0.9985 0.0
H1331 H 0.83708 0.20571 0.01028 0.0
H1332 H 0.85233 0.18091 0.98959 0.0
H1333 H 0.8987 0.22352 0.91596 0.0
H1334 H 0.84849 0.20053 0.92697 0.0
H1335 H 0.91066 0.18157 0.95988 0.0
H1336 H 0.96067 0.20529 0.94908 0.0
H1337 H 0.85043 0.20659 0.96675 0.0
H1338 H 0.88906 0.11692 0.93836 0.0
H1339 H 0.90469 0.09322 0.91754 0.0
H1340 H 0.80293 0.11418 0.90392 0.0
H1341 H 0.78684 0.13845 0.92462 0.0
C1342 C 0.7552 0.08204 0.98908 0.0
C1343 C 0.72029 0.0808 0.98574 0.0
C1344 C 0.77816 0.10244 0.98226 0.0
C1345 C 0.76675 0.1215 0.97184 0.0
C1346 C 0.7319 0.1203 0.96846 0.0
C1347 C 0.70872 0.10044 0.97547 0.0
C1348 C 0.79176 0.14166 0.96433 0.0
C1349 C 0.80025 0.13014 0.95218 0.0
C1350 C 0.80974 0.16984 0.96958 0.0
C1351 C 0.80061 0.18424 0.98211 0.0
C1352 C 0.76666 0.19446 0.98476 0.0
C1353 C 0.75823 0.20829 0.99653 0.0
C1354 C 0.78359 0.21236 0.00572 0.0
C1355 C 0.81744 0.20252 0.00316 0.0
C1356 C 0.82599 0.18855 0.99141 0.0
C1357 C 0.90169 0.21447 0.92554 0.0
C1358 C 0.93384 0.21595 0.93159 0.0
C1359 C 0.87294 0.20128 0.93182 0.0
C1360 C 0.87585 0.18881 0.9442 0.0
C1361 C 0.90773 0.19099 0.95034 0.0
C1362 C 0.93638 0.20446 0.94412 0.0
C1363 C 0.84607 0.17269 0.95074 0.0
C1364 C 0.83671 0.18491 0.96273 0.0
C1365 C 0.82742 0.14501 0.94536 0.0
C1366 C 0.83687 0.12983 0.93299 0.0
C1367 C 0.87008 0.11665 0.9309 0.0
C1368 C 0.87901 0.1031 0.91913 0.0
C1369 C 0.85485 0.1023 0.9094 0.0
C1370 C 0.82164 0.11488 0.91145 0.0
C1371 C 0.81259 0.12852 0.92321 0.0
H1372 H 0.86183 0.09186 0.90028 0.0
H1373 H 0.77704 0.22323 0.01481 0.0
H1374 H 0.70951 0.99842 0.73948 0.0
H1375 H 0.68235 0.04044 0.72568 0.0
H1376 H 0.74809 0.00851 0.69503 0.0
H1377 H 0.7758 0.96634 0.70894 0.0
H1378 H 0.74199 0.07744 0.69538 0.0
H1379 H 0.66427 0.98382 0.69542 0.0
H1380 H 0.62873 0.93741 0.70435 0.0
H1381 H 0.56865 0.01186 0.7247 0.0
H1382 H 0.60414 0.05871 0.71603 0.0
H1383 H 0.621 0.18265 0.65763 0.0
H1384 H 0.65984 0.13658 0.66488 0.0
H1385 H 0.62006 0.14789 0.70262 0.0
H1386 H 0.58182 0.19337 0.69555 0.0
H1387 H 0.6147 0.08157 0.69355 0.0
H1388 H 0.69993 0.17424 0.69484 0.0
H1389 H 0.73533 0.21919 0.68485 0.0
H1390 H 0.7802 0.14373 0.66018 0.0
H1391 H 0.7448 0.09838 0.66997 0.0
C1392 C 0.71797 1.00001 0.72977 0.0
C1393 C 0.74452 0.97871 0.72527 0.0
C1394 C 0.70246 0.02412 0.72188 0.0
C1395 C 0.71272 0.02725 0.70923 0.0
C1396 C 0.73966 0.00648 0.70473 0.0
C1397 C 0.75543 0.98241 0.71269 0.0
C1398 C 0.69494 0.05229 0.70087 0.0
C1399 C 0.71417 0.07798 0.69478 0.0
C1400 C 0.65867 0.05287 0.69993 0.0
C1401 C 0.63702 0.02479 0.70511 0.0
C1402 C 0.64361 0.99029 0.70185 0.0
C1403 C 0.62345 0.9639 0.70687 0.0
C1404 C 0.59647 0.97167 0.7151 0.0
C1405 C 0.58955 0.00587 0.71832 0.0
C1406 C 0.60965 0.03237 0.71334 0.0
C1407 C 0.62125 0.17577 0.66751 0.0
C1408 C 0.59808 0.19127 0.67599 0.0
C1409 C 0.64325 0.14934 0.67162 0.0
C1410 C 0.64237 0.13841 0.68426 0.0
C1411 C 0.62081 0.15552 0.69281 0.0
C1412 C 0.599 0.18159 0.68874 0.0
C1413 C 0.66161 0.10775 0.68872 0.0
C1414 C 0.64255 0.0807 0.69398 0.0
C1415 C 0.69789 0.1058 0.68873 0.0
C1416 C 0.7194 0.13303 0.68301 0.0
C1417 C 0.71714 0.16729 0.68722 0.0
C1418 C 0.73726 0.19282 0.68162 0.0
C1419 C 0.75991 0.18434 0.67186 0.0
C1420 C 0.76261 0.15028 0.66773 0.0
C1421 C 0.74256 0.12466 0.67331 0.0
H1422 H 0.77544 0.20415 0.66752 0.0
H1423 H 0.5809 0.9512 0.71897 0.0
H1424 H 0.68672 0.41715 0.98324 0.0
H1425 H 0.72974 0.38654 0.97052 0.0
H1426 H 0.8056 0.46265 0.9806 0.0
H1427 H 0.76266 0.49351 0.99302 0.0
H1428 H 0.81051 0.45108 0.95686 0.0
H1429 H 0.80217 0.37808 0.99337 0.0
H1430 H 0.7741 0.34064 0.00903 0.0
H1431 H 0.74267 0.27161 0.97958 0.0
H1432 H 0.7702 0.30885 0.96373 0.0
H1433 H 0.9667 0.35724 0.94618 0.0
H1434 H 0.91695 0.38146 0.95731 0.0
H1435 H 0.84875 0.33089 0.93123 0.0
H1436 H 0.89852 0.3074 0.91977 0.0
H1437 H 0.83689 0.32674 0.96127 0.0
H1438 H 0.84702 0.40088 0.92488 0.0
H1439 H 0.87971 0.43678 0.90995 0.0
H1440 H 0.91099 0.50293 0.9403 0.0
H1441 H 0.87899 0.46698 0.95544 0.0
C1442 C 0.71266 0.42715 0.9828 0.0
C1443 C 0.72121 0.45788 0.98907 0.0
C1444 C 0.73729 0.4096 0.97554 0.0
C1445 C 0.77114 0.42209 0.97461 0.0
C1446 C 0.7797 0.45252 0.98105 0.0
C1447 C 0.75508 0.4702 0.98815 0.0
C1448 C 0.79761 0.40431 0.96673 0.0
C1449 C 0.81627 0.42392 0.95794 0.0
C1450 C 0.8049 0.36863 0.96783 0.0
C1451 C 0.78784 0.34653 0.97734 0.0
C1452 C 0.78896 0.35511 0.99022 0.0
C1453 C 0.77323 0.33386 0.99913 0.0
C1454 C 0.75652 0.30382 0.9953 0.0
C1455 C 0.75557 0.29491 0.98254 0.0
C1456 C 0.77123 0.31608 0.97359 0.0
C1457 C 0.94111 0.35125 0.94282 0.0
C1458 C 0.93646 0.33066 0.93206 0.0
C1459 C 0.91277 0.36507 0.94919 0.0
C1460 C 0.87928 0.35793 0.94508 0.0
C1461 C 0.87445 0.33666 0.93453 0.0
C1462 C 0.90284 0.32349 0.92796 0.0
C1463 C 0.84955 0.3737 0.95167 0.0
C1464 C 0.83055 0.35378 0.96018 0.0
C1465 C 0.84204 0.40907 0.9504 0.0
C1466 C 0.86094 0.43101 0.94131 0.0
C1467 C 0.86117 0.42286 0.92839 0.0
C1468 C 0.87951 0.44326 0.91988 0.0
C1469 C 0.89749 0.47207 0.92418 0.0
C1470 C 0.89709 0.48058 0.93699 0.0
C1471 C 0.87884 0.46021 0.94553 0.0
H1472 H 0.91167 0.48784 0.91758 0.0
H1473 H 0.74438 0.28741 1.00222 0.0
H1474 H 0.82742 0.51198 0.24691 0.0
H1475 H 0.83881 0.55566 0.23111 0.0
H1476 H 0.75592 0.51659 0.20827 0.0
H1477 H 0.74548 0.47122 0.22382 0.0
H1478 H 0.80758 0.5317 0.19364 0.0
H1479 H 0.74719 0.59318 0.22488 0.0
H1480 H 0.73139 0.61263 0.24625 0.0
H1481 H 0.83075 0.65895 0.25069 0.0
H1482 H 0.84736 0.63935 0.22942 0.0
H1483 H 0.86167 0.72293 0.17504 0.0
H1484 H 0.81966 0.68295 0.1844 0.0
H1485 H 0.89547 0.60183 0.18334 0.0
H1486 H 0.937 0.6413 0.17417 0.0
H1487 H 0.82685 0.65246 0.20716 0.0
H1488 H 0.85917 0.5251 0.17953 0.0
H1489 H 0.87024 0.50802 0.15751 0.0
H1490 H 0.81627 0.59746 0.14438 0.0
H1491 H 0.80423 0.61476 0.1663 0.0
C1492 C 0.81182 0.51218 0.23846 0.0
C1493 C 0.78559 0.48777 0.23667 0.0
C1494 C 0.81803 0.53767 0.2295 0.0
C1495 C 0.79779 0.54 0.21858 0.0
C1496 C 0.77173 0.51556 0.21665 0.0
C1497 C 0.76563 0.48976 0.22562 0.0
C1498 C 0.80486 0.56751 0.20914 0.0
C1499 C 0.81145 0.55816 0.19656 0.0
C1500 C 0.80846 0.60246 0.21276 0.0
C1501 C 0.79855 0.61466 0.22554 0.0
C1502 C 0.76574 0.60736 0.23043 0.0
C1503 C 0.75664 0.61843 0.24253 0.0
C1504 C 0.78006 0.63699 0.24982 0.0
C1505 C 0.81262 0.64459 0.24502 0.0
C1506 C 0.82187 0.63356 0.23293 0.0
C1507 C 0.86887 0.6963 0.17651 0.0
C1508 C 0.90256 0.68518 0.17396 0.0
C1509 C 0.845 0.67357 0.18191 0.0
C1510 C 0.85435 0.63932 0.18453 0.0
C1511 C 0.88741 0.62792 0.18127 0.0
C1512 C 0.91123 0.65058 0.17608 0.0
C1513 C 0.83168 0.6161 0.19193 0.0
C1514 C 0.82215 0.6262 0.20415 0.0
C1515 C 0.82446 0.58216 0.18786 0.0
C1516 C 0.83091 0.5713 0.17461 0.0
C1517 C 0.84936 0.54098 0.17196 0.0
C1518 C 0.85586 0.53129 0.15948 0.0
C1519 C 0.844 0.55166 0.14956 0.0
C1520 C 0.82549 0.58172 0.15208 0.0
C1521 C 0.81884 0.59149 0.16453 0.0
H1522 H 0.84914 0.54414 0.13991 0.0
H1523 H 0.77297 0.64551 0.25919 0.0
H1524 H 0.74433 0.57829 0.49514 0.0
H1525 H 0.70199 0.58957 0.47897 0.0
H1526 H 0.75982 0.52781 0.45255 0.0
H1527 H 0.80426 0.51889 0.46848 0.0
H1528 H 0.73914 0.57926 0.44071 0.0
H1529 H 0.67924 0.50055 0.46574 0.0
H1530 H 0.65706 0.47279 0.48496 0.0
H1531 H 0.59773 0.56305 0.49361 0.0
H1532 H 0.61991 0.5916 0.47455 0.0
H1533 H 0.54876 0.63153 0.42032 0.0
H1534 H 0.58866 0.58684 0.42794 0.0
H1535 H 0.66618 0.6644 0.434 0.0
H1536 H 0.62717 0.70838 0.42641 0.0
H1537 H 0.61488 0.58218 0.45121 0.0
H1538 H 0.74442 0.63544 0.42992 0.0
H1539 H 0.76444 0.65748 0.40944 0.0
H1540 H 0.68154 0.60562 0.39073 0.0
H1541 H 0.66141 0.58256 0.41105 0.0
C1542 C 0.74855 0.56742 0.48587 0.0
C1543 C 0.77818 0.54788 0.48318 0.0
C1544 C 0.72371 0.57329 0.47664 0.0
C1545 C 0.72704 0.55887 0.46455 0.0
C1546 C 0.75637 0.53903 0.46182 0.0
C1547 C 0.78169 0.53367 0.47101 0.0
C1548 C 0.70086 0.56668 0.45467 0.0
C1549 C 0.71196 0.57944 0.44296 0.0
C1550 C 0.66509 0.56533 0.45723 0.0
C1551 C 0.65133 0.54825 0.46869 0.0
C1552 C 0.66158 0.51456 0.47176 0.0
C1553 C 0.649 0.49868 0.48263 0.0
C1554 C 0.626 0.51615 0.4905 0.0
C1555 C 0.6155 0.54953 0.4875 0.0
C1556 C 0.62802 0.56555 0.47664 0.0
C1557 C 0.57459 0.63876 0.42303 0.0
C1558 C 0.58471 0.67349 0.42293 0.0
C1559 C 0.59728 0.61329 0.42742 0.0
C1560 C 0.63051 0.62222 0.43149 0.0
C1561 C 0.64095 0.65667 0.43075 0.0
C1562 C 0.61842 0.68192 0.42651 0.0
C1563 C 0.65359 0.59708 0.43781 0.0
C1564 C 0.64197 0.58099 0.44883 0.0
C1565 C 0.68866 0.59418 0.43439 0.0
C1566 C 0.70135 0.60728 0.42207 0.0
C1567 C 0.73065 0.62837 0.42144 0.0
C1568 C 0.74199 0.64112 0.40984 0.0
C1569 C 0.72427 0.63295 0.39879 0.0
C1570 C 0.69523 0.61192 0.3993 0.0
C1571 C 0.68385 0.59902 0.41086 0.0
H1572 H 0.73304 0.64292 0.38983 0.0
H1573 H 0.61631 0.50381 0.49892 0.0
H1574 H 0.6369 0.54295 0.748 0.0
H1575 H 0.61436 0.49945 0.73382 0.0
H1576 H 0.70494 0.50776 0.71057 0.0
H1577 H 0.72669 0.55351 0.72425 0.0
H1578 H 0.6519 0.49882 0.69602 0.0
H1579 H 0.69422 0.44057 0.73211 0.0
H1580 H 0.70191 0.42813 0.75471 0.0
H1581 H 0.59402 0.40723 0.75834 0.0
H1582 H 0.5856 0.42001 0.73578 0.0
H1583 H 0.60282 0.34011 0.6649 0.0
H1584 H 0.63357 0.38652 0.67579 0.0
H1585 H 0.55395 0.38935 0.7042 0.0
H1586 H 0.52484 0.34167 0.69381 0.0
H1587 H 0.61017 0.39058 0.71529 0.0
H1588 H 0.57116 0.44999 0.67722 0.0
H1589 H 0.569 0.46149 0.6544 0.0
H1590 H 0.67825 0.47663 0.65387 0.0
H1591 H 0.68098 0.46499 0.67668 0.0
C1592 C 0.65187 0.53627 0.73975 0.0
C1593 C 0.68382 0.55197 0.73737 0.0
C1594 C 0.6391 0.51083 0.73172 0.0
C1595 C 0.65827 0.4996 0.72127 0.0
C1596 C 0.68975 0.51571 0.71864 0.0
C1597 C 0.70236 0.54165 0.72658 0.0
C1598 C 0.64554 0.47064 0.71331 0.0
C1599 C 0.6431 0.47495 0.7002 0.0
C1600 C 0.6343 0.43934 0.71871 0.0
C1601 C 0.63926 0.43148 0.73227 0.0
C1602 C 0.6721 0.43353 0.73774 0.0
C1603 C 0.67659 0.4264 0.75055 0.0
C1604 C 0.64846 0.41696 0.75796 0.0
C1605 C 0.61579 0.41456 0.75258 0.0
C1606 C 0.61114 0.42171 0.73979 0.0
C1607 C 0.59181 0.35112 0.67338 0.0
C1608 C 0.56149 0.3375 0.67854 0.0
C1609 C 0.60929 0.37776 0.67959 0.0
C1610 C 0.59596 0.39209 0.69078 0.0
C1611 C 0.56495 0.37898 0.69561 0.0
C1612 C 0.54815 0.35179 0.68965 0.0
C1613 C 0.61468 0.41927 0.698 0.0
C1614 C 0.61876 0.41443 0.71104 0.0
C1615 C 0.62803 0.44968 0.69243 0.0
C1616 C 0.6262 0.45648 0.67868 0.0
C1617 C 0.59466 0.45575 0.67225 0.0
C1618 C 0.59336 0.46225 0.6593 0.0
C1619 C 0.62349 0.46978 0.65269 0.0
C1620 C 0.65494 0.47079 0.659 0.0
C1621 C 0.65634 0.46426 0.67194 0.0
H1622 H 0.6225 0.47493 0.64268 0.0
H1623 H 0.65199 0.41144 0.76787 0.0
H1624 H 0.74487 0.6178 0.04645 0.0
H1625 H 0.78927 0.63631 0.06119 0.0
H1626 H 0.74473 0.57289 0.09021 0.0
H1627 H 0.69964 0.55446 0.07547 0.0
H1628 H 0.76406 0.63893 0.09889 0.0
H1629 H 0.81456 0.54486 0.07642 0.0
H1630 H 0.83075 0.5111 0.05763 0.0
H1631 H 0.89207 0.59519 0.04421 0.0
H1632 H 0.87582 0.62968 0.06283 0.0
H1633 H 0.91113 0.67615 0.13685 0.0
H1634 H 0.86838 0.64142 0.1256 0.0
H1635 H 0.89907 0.68807 0.0905 0.0
H1636 H 0.94199 0.72211 0.10153 0.0
H1637 H 0.88634 0.6214 0.08709 0.0
H1638 H 0.82805 0.71824 0.10705 0.0
H1639 H 0.81266 0.75377 0.12552 0.0
H1640 H 0.76732 0.66574 0.14338 0.0
H1641 H 0.78255 0.62968 0.12501 0.0
C1642 C 0.74417 0.60807 0.05601 0.0
C1643 C 0.7186 0.58469 0.05978 0.0
C1644 C 0.76979 0.61846 0.0644 0.0
C1645 C 0.77055 0.60573 0.07677 0.0
C1646 C 0.7447 0.58295 0.08069 0.0
C1647 C 0.7191 0.5723 0.07224 0.0
C1648 C 0.79879 0.61609 0.08542 0.0
C1649 C 0.79079 0.63448 0.09645 0.0
C1650 C 0.8337 0.61069 0.08217 0.0
C1651 C 0.84377 0.58994 0.07099 0.0
C1652 C 0.8313 0.55625 0.06942 0.0
C1653 C 0.84052 0.53697 0.0588 0.0
C1654 C 0.86238 0.55101 0.04972 0.0
C1655 C 0.87513 0.58435 0.05125 0.0
C1656 C 0.86596 0.60376 0.06185 0.0
C1657 C 0.90923 0.67849 0.1267 0.0
C1658 C 0.92987 0.70215 0.12012 0.0
C1659 C 0.88458 0.65881 0.1203 0.0
C1660 C 0.8801 0.66254 0.10722 0.0
C1661 C 0.90193 0.68477 0.10058 0.0
C1662 C 0.92645 0.70435 0.10694 0.0
C1663 C 0.85166 0.645 0.10038 0.0
C1664 C 0.85961 0.62529 0.08966 0.0
C1665 C 0.81677 0.64939 0.10387 0.0
C1666 C 0.80665 0.67124 0.11472 0.0
C1667 C 0.81483 0.70648 0.11493 0.0
C1668 C 0.80615 0.7267 0.12537 0.0
C1669 C 0.78911 0.712 0.13563 0.0
C1670 C 0.78052 0.67709 0.13543 0.0
C1671 C 0.78909 0.65676 0.12499 0.0
H1672 H 0.78254 0.72766 0.14373 0.0
H1673 H 0.86949 0.53604 0.04151 0.0
H1674 H 0.66168 0.50436 0.30068 0.0
H1675 H 0.63797 0.54975 0.31406 0.0
H1676 H 0.70455 0.51847 0.34442 0.0
H1677 H 0.72804 0.47233 0.33112 0.0
H1678 H 0.63829 0.53456 0.35274 0.0
H1679 H 0.72627 0.5865 0.32768 0.0
H1680 H 0.75723 0.60032 0.30805 0.0
H1681 H 0.66734 0.65075 0.29357 0.0
H1682 H 0.63565 0.63677 0.31304 0.0
H1683 H 0.59693 0.6872 0.38698 0.0
H1684 H 0.63218 0.6439 0.37619 0.0
H1685 H 0.579 0.66488 0.34138 0.0
H1686 H 0.5444 0.70844 0.35193 0.0
H1687 H 0.64541 0.65446 0.33691 0.0
H1688 H 0.55575 0.59678 0.36058 0.0
H1689 H 0.52414 0.58488 0.38026 0.0
H1690 H 0.61663 0.5465 0.39729 0.0
H1691 H 0.64884 0.55844 0.37772 0.0
C1692 C 0.67093 0.50667 0.31027 0.0
C1693 C 0.69684 0.48467 0.31481 0.0
C1694 C 0.65755 0.53288 0.31788 0.0
C1695 C 0.66979 0.53783 0.3302 0.0
C1696 C 0.69482 0.51524 0.33493 0.0
C1697 C 0.70838 0.48904 0.32729 0.0
C1698 C 0.65708 0.5673 0.33789 0.0
C1699 C 0.64036 0.56083 0.34939 0.0
C1700 C 0.65944 0.6016 0.33348 0.0
C1701 C 0.6785 0.61034 0.32179 0.0
C1702 C 0.71302 0.60032 0.32028 0.0
C1703 C 0.73072 0.60822 0.30918 0.0
C1704 C 0.71425 0.62634 0.29956 0.0
C1705 C 0.68006 0.63669 0.30103 0.0
C1706 C 0.66223 0.62882 0.3121 0.0
C1707 C 0.59316 0.68304 0.37698 0.0
C1708 C 0.5676 0.70124 0.37036 0.0
C1709 C 0.61319 0.65808 0.37084 0.0
C1710 C 0.60786 0.65068 0.35801 0.0
C1711 C 0.58358 0.67002 0.35128 0.0
C1712 C 0.56369 0.69493 0.35737 0.0
C1713 C 0.62595 0.62169 0.35161 0.0
C1714 C 0.6437 0.62824 0.34035 0.0
C1715 C 0.6244 0.58751 0.35621 0.0
C1716 C 0.60476 0.57878 0.36775 0.0
C1717 C 0.56934 0.58582 0.36853 0.0
C1718 C 0.55132 0.57909 0.37967 0.0
C1719 C 0.5684 0.56504 0.39004 0.0
C1720 C 0.60346 0.55743 0.38926 0.0
C1721 C 0.6216 0.56411 0.37814 0.0
H1722 H 0.55446 0.56 0.39867 0.0
H1723 H 0.72799 0.63242 0.29097 0.0
H1724 H 0.83235 0.46707 0.57903 0.0
H1725 H 0.79358 0.44226 0.59494 0.0
H1726 H 0.71891 0.42109 0.56595 0.0
H1727 H 0.75741 0.44547 0.5501 0.0
H1728 H 0.69214 0.45509 0.58783 0.0
H1729 H 0.76514 0.35778 0.57628 0.0
H1730 H 0.82099 0.32821 0.57416 0.0
H1731 H 0.83886 0.34016 0.61386 0.0
H1732 H 0.78327 0.37024 0.61617 0.0
H1733 H 0.57088 0.33558 0.60549 0.0
H1734 H 0.61786 0.36746 0.59616 0.0
H1735 H 0.67702 0.35577 0.63026 0.0
H1736 H 0.62982 0.32242 0.63967 0.0
H1737 H 0.71683 0.34578 0.61018 0.0
H1738 H 0.63914 0.43337 0.62255 0.0
H1739 H 0.58305 0.46238 0.62491 0.0
H1740 H 0.5747 0.47165 0.58473 0.0
H1741 H 0.63022 0.4419 0.58207 0.0
C1742 C 0.80766 0.45705 0.57609 0.0
C1743 C 0.79795 0.458 0.56332 0.0
C1744 C 0.78564 0.44284 0.58516 0.0
C1745 C 0.75342 0.42985 0.5816 0.0
C1746 C 0.74366 0.431 0.56888 0.0
C1747 C 0.76578 0.44469 0.55983 0.0
C1748 C 0.72938 0.41512 0.591 0.0
C1749 C 0.69742 0.43118 0.59272 0.0
C1750 C 0.73696 0.38473 0.59777 0.0
C1751 C 0.7703 0.36665 0.59637 0.0
C1752 C 0.78114 0.3544 0.58453 0.0
C1753 C 0.8127 0.33748 0.5833 0.0
C1754 C 0.83352 0.33242 0.59386 0.0
C1755 C 0.82275 0.34417 0.60568 0.0
C1756 C 0.79122 0.36114 0.60696 0.0
C1757 C 0.59367 0.33992 0.61112 0.0
C1758 C 0.59636 0.32672 0.62341 0.0
C1759 C 0.62059 0.35835 0.60575 0.0
C1760 C 0.65072 0.36485 0.6126 0.0
C1761 C 0.65388 0.35134 0.62483 0.0
C1762 C 0.62691 0.33234 0.6302 0.0
C1763 C 0.67883 0.385 0.60662 0.0
C1764 C 0.71164 0.37012 0.60556 0.0
C1765 C 0.67216 0.41679 0.60055 0.0
C1766 C 0.63891 0.43526 0.60211 0.0
C1767 C 0.62528 0.44142 0.6142 0.0
C1768 C 0.59358 0.458 0.6156 0.0
C1769 C 0.57539 0.4689 0.60498 0.0
C1770 C 0.58885 0.46323 0.59295 0.0
C1771 C 0.62045 0.44651 0.59149 0.0
H1772 H 0.55086 0.48173 0.60609 0.0
H1773 H 0.85794 0.3193 0.59289 0.0
H1774 H 0.82428 0.53554 0.80267 0.0
H1775 H 0.8491 0.49923 0.81909 0.0
H1776 H 0.80668 0.56583 0.84771 0.0
H1777 H 0.78153 0.60252 0.83122 0.0
H1778 H 0.87927 0.543 0.85155 0.0
H1779 H 0.76655 0.49796 0.84466 0.0
H1780 H 0.71748 0.47831 0.83187 0.0
H1781 H 0.77986 0.39821 0.81579 0.0
H1782 H 0.82948 0.41772 0.82834 0.0
H1783 H 0.93439 0.40387 0.89326 0.0
H1784 H 0.90164 0.45198 0.88404 0.0
H1785 H 0.90303 0.40062 0.84792 0.0
H1786 H 0.93424 0.35279 0.85705 0.0
H1787 H 0.84115 0.42128 0.85258 0.0
H1788 H 0.9552 0.47752 0.85405 0.0
H1789 H 0.00682 0.49664 0.86568 0.0
H1790 H 0.94306 0.55405 0.89128 0.0
H1791 H 0.89123 0.53495 0.87981 0.0
C1792 C 0.82054 0.54274 0.81245 0.0
C1793 C 0.80096 0.57189 0.81566 0.0
C1794 C 0.83461 0.5219 0.82182 0.0
C1795 C 0.8296 0.5298 0.8346 0.0
C1796 C 0.81083 0.55935 0.83789 0.0
C1797 C 0.79632 0.58008 0.82848 0.0
C1798 C 0.84304 0.50603 0.84434 0.0
C1799 C 0.87048 0.51655 0.852 0.0
C1800 C 0.83168 0.47154 0.84488 0.0
C1801 C 0.80179 0.45945 0.8374 0.0
C1802 C 0.76987 0.47631 0.83834 0.0
C1803 C 0.74195 0.46517 0.83113 0.0
C1804 C 0.74556 0.43706 0.82301 0.0
C1805 C 0.7771 0.41998 0.82209 0.0
C1806 C 0.80512 0.43104 0.82926 0.0
C1807 C 0.92769 0.40308 0.88335 0.0
C1808 C 0.93632 0.37429 0.87594 0.0
C1809 C 0.90913 0.43061 0.87807 0.0
C1810 C 0.89965 0.42992 0.86526 0.0
C1811 C 0.90943 0.40162 0.85786 0.0
C1812 C 0.92731 0.37418 0.86312 0.0
C1813 C 0.87873 0.45763 0.85931 0.0
C1814 C 0.84955 0.44789 0.85238 0.0
C1815 C 0.88865 0.49266 0.8594 0.0
C1816 C 0.91956 0.50447 0.86621 0.0
C1817 C 0.95236 0.49397 0.86222 0.0
C1818 C 0.98157 0.50486 0.86876 0.0
C1819 C 0.97821 0.52642 0.87925 0.0
C1820 C 0.94563 0.53728 0.88317 0.0
C1821 C 0.91635 0.52648 0.87665 0.0
H1822 H 1.00084 0.5348 0.88431 0.0
H1823 H 0.72391 0.42848 0.81743 0.0
H1824 H 0.25376 0.52311 0.06546 0.0
H1825 H 0.20911 0.54685 0.0791 0.0
H1826 H 0.26265 0.64385 0.08032 0.0
H1827 H 0.30836 0.6198 0.06711 0.0
H1828 H 0.23511 0.62984 0.10301 0.0
H1829 H 0.19586 0.63099 0.06 0.0
H1830 H 0.18263 0.60562 0.03925 0.0
H1831 H 0.11022 0.53698 0.0565 0.0
H1832 H 0.12339 0.56165 0.0774 0.0
H1833 H 0.06285 0.72723 0.10176 0.0
H1834 H 0.1064 0.69265 0.09123 0.0
H1835 H 0.1252 0.63728 0.12575 0.0
H1836 H 0.08204 0.67269 0.13655 0.0
H1837 H 0.11638 0.62769 0.08598 0.0
H1838 H 0.21033 0.61841 0.12748 0.0
H1839 H 0.22213 0.64878 0.14747 0.0
H1840 H 0.18572 0.74337 0.13139 0.0
H1841 H 0.17404 0.71363 0.11129 0.0
C1842 C 0.25656 0.54927 0.06883 0.0
C1843 C 0.28476 0.56953 0.06509 0.0
C1844 C 0.23073 0.56293 0.07655 0.0
C1845 C 0.23218 0.59732 0.08061 0.0
C1846 C 0.26086 0.61728 0.07729 0.0
C1847 C 0.28682 0.60358 0.06961 0.0
C1848 C 0.20293 0.61303 0.08767 0.0
C1849 C 0.20914 0.62918 0.09932 0.0
C1850 C 0.16899 0.61262 0.08283 0.0
C1851 C 0.16088 0.59791 0.07027 0.0
C1852 C 0.1773 0.61032 0.05938 0.0
C1853 C 0.16979 0.59609 0.04759 0.0
C1854 C 0.14567 0.56963 0.04656 0.0
C1855 C 0.12894 0.55743 0.05732 0.0
C1856 C 0.1364 0.57153 0.06913 0.0
C1857 C 0.07592 0.70751 0.10715 0.0
C1858 C 0.06907 0.70306 0.12007 0.0
C1859 C 0.10081 0.6876 0.10106 0.0
C1860 C 0.11953 0.66266 0.10771 0.0
C1861 C 0.11153 0.65678 0.12046 0.0
C1862 C 0.08664 0.67689 0.1266 0.0
C1863 C 0.14849 0.64444 0.10133 0.0
C1864 C 0.14226 0.62789 0.08978 0.0
C1865 C 0.18246 0.6452 0.10612 0.0
C1866 C 0.191 0.66369 0.11795 0.0
C1867 C 0.20505 0.64572 0.1282 0.0
C1868 C 0.21163 0.6628 0.13956 0.0
C1869 C 0.20452 0.69793 0.14072 0.0
C1870 C 0.19109 0.71613 0.1305 0.0
C1871 C 0.18448 0.69917 0.11913 0.0
H1872 H 0.20949 0.71106 0.14954 0.0
H1873 H 0.13989 0.55865 0.03743 0.0
H1874 H 0.21165 0.57663 0.82948 0.0
H1875 H 0.1868 0.53267 0.84324 0.0
H1876 H 0.15519 0.47436 0.81067 0.0
H1877 H 0.18071 0.5174 0.79687 0.0
H1878 H 0.10351 0.48089 0.8284 0.0
H1879 H 0.2247 0.45163 0.82732 0.0
H1880 H 0.28654 0.46221 0.83052 0.0
H1881 H 0.26885 0.4801 0.86995 0.0
H1882 H 0.20679 0.47022 0.86695 0.0
H1883 H 0.05742 0.32129 0.85131 0.0
H1884 H 0.09168 0.36446 0.84037 0.0
H1885 H 0.12129 0.40883 0.87603 0.0
H1886 H 0.08758 0.36507 0.88711 0.0
H1887 H 0.17328 0.41334 0.85872 0.0
H1888 H 0.05446 0.43912 0.8609 0.0
H1889 H 0.99292 0.42574 0.85879 0.0
H1890 H 0.00434 0.41789 0.81863 0.0
H1891 H 0.06644 0.42939 0.82055 0.0
C1892 C 0.19971 0.55431 0.82522 0.0
C1893 C 0.19816 0.55077 0.81201 0.0
C1894 C 0.18541 0.52925 0.83312 0.0
C1895 C 0.16923 0.50015 0.82799 0.0
C1896 C 0.16737 0.49669 0.81484 0.0
C1897 C 0.18183 0.52153 0.80695 0.0
C1898 C 0.15401 0.47319 0.8362 0.0
C1899 C 0.11884 0.46593 0.83494 0.0
C1900 C 0.17373 0.45453 0.8451 0.0
C1901 C 0.21102 0.4607 0.84687 0.0
C1902 C 0.23393 0.45823 0.83665 0.0
C1903 C 0.26904 0.46402 0.83843 0.0
C1904 C 0.2816 0.47198 0.85042 0.0
C1905 C 0.25908 0.47407 0.86066 0.0
C1906 C 0.22393 0.46839 0.85892 0.0
C1907 C 0.07177 0.33977 0.85685 0.0
C1908 C 0.06934 0.34006 0.87007 0.0
C1909 C 0.09131 0.36448 0.85058 0.0
C1910 C 0.10829 0.39042 0.85737 0.0
C1911 C 0.10817 0.38921 0.8706 0.0
C1912 C 0.08888 0.36417 0.87691 0.0
C1913 C 0.12311 0.4204 0.8506 0.0
C1914 C 0.15796 0.42843 0.85222 0.0
C1915 C 0.10299 0.44022 0.84217 0.0
C1916 C 0.0653 0.4348 0.84089 0.0
C1917 C 0.04397 0.43425 0.85162 0.0
C1918 C 0.00898 0.42688 0.85046 0.0
C1919 C 0.99469 0.42107 0.83858 0.0
C1920 C 0.01545 0.42242 0.82784 0.0
C1921 C 0.05061 0.42918 0.82896 0.0
H1922 H 0.96754 0.41557 0.8377 0.0
H1923 H 0.3088 0.4764 0.85178 0.0
H1924 H 0.23886 0.47966 0.55679 0.0
H1925 H 0.27569 0.45458 0.57297 0.0
H1926 H 0.20589 0.36917 0.57679 0.0
H1927 H 0.16842 0.39448 0.56066 0.0
H1928 H 0.23255 0.3939 0.60032 0.0
H1929 H 0.27298 0.35639 0.55983 0.0
H1930 H 0.29147 0.3638 0.53777 0.0
H1931 H 0.37484 0.42808 0.54987 0.0
H1932 H 0.35652 0.42149 0.57201 0.0
H1933 H 0.36024 0.284 0.62956 0.0
H1934 H 0.31304 0.3098 0.61751 0.0
H1935 H 0.37952 0.39339 0.60658 0.0
H1936 H 0.42671 0.3674 0.61829 0.0
H1937 H 0.35124 0.36557 0.58662 0.0
H1938 H 0.31052 0.40429 0.62712 0.0
H1939 H 0.2921 0.39728 0.64921 0.0
H1940 H 0.21006 0.33093 0.63737 0.0
H1941 H 0.22828 0.3372 0.61521 0.0
C1942 C 0.23096 0.45586 0.56121 0.0
C1943 C 0.20074 0.43901 0.5574 0.0
C1944 C 0.25214 0.44147 0.57042 0.0
C1945 C 0.24364 0.4099 0.576 0.0
C1946 C 0.21289 0.39355 0.57258 0.0
C1947 C 0.19171 0.40788 0.5633 0.0
C1948 C 0.26816 0.39314 0.58477 0.0
C1949 C 0.25839 0.38725 0.59732 0.0
C1950 C 0.30193 0.38487 0.58087 0.0
C1951 C 0.31318 0.38869 0.56757 0.0
C1952 C 0.29509 0.37233 0.55778 0.0
C1953 C 0.30557 0.37634 0.54526 0.0
C1954 C 0.33426 0.39646 0.54242 0.0
C1955 C 0.35259 0.41253 0.55209 0.0
C1956 C 0.34219 0.40865 0.56462 0.0
C1957 C 0.36447 0.30829 0.62483 0.0
C1958 C 0.39724 0.32353 0.62477 0.0
C1959 C 0.33749 0.32303 0.61794 0.0
C1960 C 0.34276 0.3535 0.61108 0.0
C1961 C 0.37491 0.36972 0.61169 0.0
C1962 C 0.40186 0.35487 0.61842 0.0
C1963 C 0.31614 0.36712 0.60235 0.0
C1964 C 0.32545 0.37217 0.5897 0.0
C1965 C 0.28207 0.37459 0.60621 0.0
C1966 C 0.27098 0.37094 0.61952 0.0
C1967 C 0.28871 0.38799 0.62923 0.0
C1968 C 0.27828 0.38419 0.64177 0.0
C1969 C 0.24998 0.3636 0.64469 0.0
C1970 C 0.232 0.34684 0.63509 0.0
C1971 C 0.24235 0.35053 0.62254 0.0
H1972 H 0.24194 0.36069 0.6544 0.0
H1973 H 0.34234 0.39953 0.53272 0.0
H1974 H 0.34311 0.431 0.32129 0.0
H1975 H 0.37235 0.468 0.33678 0.0
H1976 H 0.3228 0.55713 0.32082 0.0
H1977 H 0.29315 0.52036 0.30555 0.0
H1978 H 0.3974 0.56228 0.32473 0.0
H1979 H 0.29157 0.52932 0.34624 0.0
H1980 H 0.25088 0.4871 0.35503 0.0
H1981 H 0.33006 0.44721 0.37911 0.0
H1982 H 0.37138 0.48891 0.37032 0.0
H1983 H 0.40168 0.70193 0.36485 0.0
H1984 H 0.37859 0.6525 0.35364 0.0
H1985 H 0.4405 0.5843 0.37619 0.0
H1986 H 0.46447 0.6339 0.38748 0.0
H1987 H 0.36788 0.56123 0.37028 0.0
H1988 H 0.47261 0.59442 0.35102 0.0
H1989 H 0.51559 0.63534 0.34297 0.0
H1990 H 0.44381 0.67087 0.31515 0.0
H1991 H 0.40011 0.6305 0.3232 0.0
C1992 C 0.33854 0.4585 0.32112 0.0
C1993 C 0.31578 0.47286 0.31228 0.0
C1994 C 0.35514 0.47953 0.32997 0.0
C1995 C 0.34967 0.51526 0.32993 0.0
C1996 C 0.32735 0.52962 0.32099 0.0
C1997 C 0.31031 0.5086 0.31233 0.0
C1998 C 0.36702 0.53803 0.33917 0.0
C1999 C 0.39091 0.56208 0.33467 0.0
C2000 C 0.35951 0.53687 0.35222 0.0
C2001 C 0.33466 0.5119 0.3575 0.0
C2002 C 0.30039 0.5113 0.35331 0.0
C2003 C 0.2772 0.48753 0.35832 0.0
C2004 C 0.28791 0.4644 0.36759 0.0
C2005 C 0.32182 0.46508 0.37191 0.0
C2006 C 0.34513 0.48879 0.36692 0.0
C2007 C 0.41015 0.6765 0.36764 0.0
C2008 C 0.43534 0.6721 0.37702 0.0
C2009 C 0.39683 0.64822 0.36119 0.0
C2010 C 0.40811 0.61485 0.364 0.0
C2011 C 0.43149 0.60992 0.3739 0.0
C2012 C 0.44515 0.63835 0.38032 0.0
C2013 C 0.39745 0.58599 0.35574 0.0
C2014 C 0.37487 0.56093 0.36038 0.0
C2015 C 0.40669 0.58566 0.34285 0.0
C2016 C 0.43297 0.60963 0.33779 0.0
C2017 C 0.46587 0.61115 0.34325 0.0
C2018 C 0.49039 0.63422 0.33868 0.0
C2019 C 0.48241 0.65577 0.32857 0.0
C2020 C 0.44993 0.65418 0.32299 0.0
C2021 C 0.42528 0.63117 0.32754 0.0
H2022 H 0.50143 0.67364 0.32505 0.0
H2023 H 0.2699 0.44603 0.37146 0.0
H2024 H 0.30264 0.52089 0.97195 0.0
H2025 H 0.25796 0.51027 0.95618 0.0
H2026 H 0.21181 0.43478 0.98064 0.0
H2027 H 0.25463 0.44676 0.99666 0.0
H2028 H 0.24083 0.45815 0.94264 0.0
H2029 H 0.12842 0.42916 0.97787 0.0
H2030 H 0.1077 0.45043 0.99843 0.0
H2031 H 0.15924 0.5466 0.99238 0.0
H2032 H 0.17986 0.52615 0.9717 0.0
H2033 H 0.12775 0.33161 0.92349 0.0
H2034 H 0.16817 0.37264 0.93235 0.0
H2035 H 0.08931 0.45084 0.93258 0.0
H2036 H 0.04825 0.40922 0.92362 0.0
H2037 H 0.11844 0.4463 0.95504 0.0
H2038 H 0.16026 0.46193 0.91438 0.0
H2039 H 0.1793 0.44763 0.89283 0.0
H2040 H 0.26523 0.39152 0.90772 0.0
H2041 H 0.24643 0.40493 0.92937 0.0
C2042 C 0.28266 0.50243 0.97406 0.0
C2043 C 0.28245 0.48472 0.98565 0.0
C2044 C 0.25724 0.49617 0.96497 0.0
C2045 C 0.23103 0.47213 0.96725 0.0
C2046 C 0.23115 0.45408 0.97871 0.0
C2047 C 0.2562 0.46055 0.98782 0.0
C2048 C 0.20402 0.46474 0.95763 0.0
C2049 C 0.21404 0.45586 0.94532 0.0
C2050 C 0.16868 0.46332 0.96088 0.0
C2051 C 0.15583 0.47602 0.97324 0.0
C2052 C 0.13513 0.45494 0.98087 0.0
C2053 C 0.12346 0.46684 0.99257 0.0
C2054 C 0.1322 0.49982 0.99672 0.0
C2055 C 0.15256 0.52102 0.98917 0.0
C2056 C 0.16428 0.50928 0.97747 0.0
C2057 C 0.11913 0.35776 0.92517 0.0
C2058 C 0.08479 0.36718 0.92294 0.0
C2059 C 0.1424 0.38133 0.93016 0.0
C2060 C 0.13196 0.41498 0.93309 0.0
C2061 C 0.098 0.42504 0.93035 0.0
C2062 C 0.07463 0.40137 0.92517 0.0
C2063 C 0.15569 0.43755 0.94036 0.0
C2064 C 0.14509 0.44933 0.95226 0.0
C2065 C 0.19021 0.44273 0.93657 0.0
C2066 C 0.20182 0.4344 0.92355 0.0
C2067 C 0.18309 0.44632 0.91308 0.0
C2068 C 0.19386 0.4384 0.90083 0.0
C2069 C 0.22345 0.41869 0.89891 0.0
C2070 C 0.24233 0.40684 0.90922 0.0
C2071 C 0.23165 0.41465 0.9215 0.0
H2072 H 0.23177 0.41262 0.88942 0.0
H2073 H 0.12317 0.50895 0.00578 0.0
H2074 H 0.29546 0.57237 0.72275 0.0
H2075 H 0.3185 0.52914 0.70814 0.0
H2076 H 0.37232 0.48039 0.73878 0.0
H2077 H 0.34866 0.52243 0.75348 0.0
H2078 H 0.41388 0.49237 0.7179 0.0
H2079 H 0.3019 0.44455 0.7272 0.0
H2080 H 0.2386 0.44523 0.72819 0.0
H2081 H 0.23364 0.46082 0.68818 0.0
H2082 H 0.29699 0.46073 0.68698 0.0
H2083 H 0.46067 0.32669 0.69809 0.0
H2084 H 0.43567 0.37713 0.70824 0.0
H2085 H 0.38892 0.40711 0.6731 0.0
H2086 H 0.41448 0.35649 0.66272 0.0
H2087 H 0.34307 0.40992 0.69342 0.0
H2088 H 0.45127 0.4565 0.68315 0.0
H2089 H 0.51378 0.46259 0.68094 0.0
H2090 H 0.52592 0.45339 0.72103 0.0
H2091 H 0.46306 0.44748 0.72348 0.0
C2092 C 0.31183 0.55222 0.72643 0.0
C2093 C 0.32037 0.55124 0.73933 0.0
C2094 C 0.32507 0.52758 0.71804 0.0
C2095 C 0.34717 0.50155 0.72237 0.0
C2096 C 0.35554 0.50039 0.73521 0.0
C2097 C 0.34213 0.52471 0.7436 0.0
C2098 C 0.36246 0.47583 0.71359 0.0
C2099 C 0.39838 0.47412 0.71265 0.0
C2100 C 0.34223 0.45299 0.7063 0.0
C2101 C 0.30418 0.45309 0.70703 0.0
C2102 C 0.28733 0.44848 0.71863 0.0
C2103 C 0.25143 0.44868 0.71923 0.0
C2104 C 0.23211 0.45319 0.70826 0.0
C2105 C 0.24864 0.45741 0.69667 0.0
C2106 C 0.28454 0.45727 0.69603 0.0
C2107 C 0.44525 0.34403 0.69245 0.0
C2108 C 0.43958 0.33746 0.67957 0.0
C2109 C 0.43108 0.37301 0.69828 0.0
C2110 C 0.41056 0.39605 0.69143 0.0
C2111 C 0.40474 0.3897 0.67856 0.0
C2112 C 0.41945 0.36085 0.67264 0.0
C2113 C 0.39454 0.42592 0.69801 0.0
C2114 C 0.35854 0.42839 0.69857 0.0
C2115 C 0.41463 0.44983 0.70485 0.0
C2116 C 0.45251 0.45128 0.70348 0.0
C2117 C 0.46729 0.45533 0.69149 0.0
C2118 C 0.50281 0.45893 0.6902 0.0
C2119 C 0.52391 0.45839 0.70085 0.0
C2120 C 0.50951 0.45393 0.7128 0.0
C2121 C 0.47391 0.45056 0.71415 0.0
H2122 H 0.55139 0.46151 0.69986 0.0
H2123 H 0.20432 0.45332 0.70874 0.0
H2124 H 0.19692 0.57152 0.46779 0.0
H2125 H 0.24085 0.60412 0.45639 0.0
H2126 H 0.29395 0.62339 0.49142 0.0
H2127 H 0.24893 0.59248 0.50285 0.0
H2128 H 0.29803 0.67743 0.47865 0.0
H2129 H 0.3196 0.55967 0.46838 0.0
H2130 H 0.30642 0.50119 0.46075 0.0
H2131 H 0.28196 0.54155 0.42419 0.0
H2132 H 0.29455 0.60036 0.43166 0.0
H2133 H 0.46143 0.71738 0.4516 0.0
H2134 H 0.41245 0.69338 0.4629 0.0
H2135 H 0.35561 0.6869 0.42811 0.0
H2136 H 0.40484 0.7103 0.41665 0.0
H2137 H 0.3529 0.62772 0.44054 0.0
H2138 H 0.3271 0.74783 0.45328 0.0
H2139 H 0.3396 0.80455 0.46284 0.0
H2140 H 0.37887 0.75527 0.49594 0.0
H2141 H 0.36538 0.69835 0.48685 0.0
C2142 C 0.21793 0.58293 0.47302 0.0
C2143 C 0.21963 0.57951 0.48618 0.0
C2144 C 0.24321 0.60133 0.4665 0.0
C2145 C 0.27134 0.61569 0.47296 0.0
C2146 C 0.27266 0.61263 0.48616 0.0
C2147 C 0.24695 0.59494 0.49271 0.0
C2148 C 0.29936 0.63389 0.46603 0.0
C2149 C 0.31021 0.66626 0.47039 0.0
C2150 C 0.31526 0.61979 0.45514 0.0
C2151 C 0.30766 0.58446 0.45062 0.0
C2152 C 0.31116 0.5561 0.45874 0.0
C2153 C 0.30383 0.52289 0.45444 0.0
C2154 C 0.29326 0.51767 0.442 0.0
C2155 C 0.29009 0.54564 0.43383 0.0
C2156 C 0.29733 0.57892 0.43809 0.0
C2157 C 0.43847 0.71108 0.44633 0.0
C2158 C 0.43732 0.71551 0.43316 0.0
C2159 C 0.41025 0.69768 0.45286 0.0
C2160 C 0.38006 0.68866 0.44641 0.0
C2161 C 0.37856 0.69372 0.43331 0.0
C2162 C 0.4068 0.70708 0.42676 0.0
C2163 C 0.35128 0.67123 0.45312 0.0
C2164 C 0.34045 0.63889 0.44874 0.0
C2165 C 0.33601 0.68492 0.46416 0.0
C2166 C 0.34565 0.71895 0.46933 0.0
C2167 C 0.33869 0.74915 0.46254 0.0
C2168 C 0.34577 0.78129 0.46789 0.0
C2169 C 0.36041 0.78351 0.47988 0.0
C2170 C 0.36766 0.75355 0.48663 0.0
C2171 C 0.36004 0.72136 0.48144 0.0
H2172 H 0.36594 0.80845 0.48395 0.0
H2173 H 0.28761 0.49194 0.43869 0.0
H2174 H 0.26087 0.46976 0.21923 0.0
H2175 H 0.24934 0.51392 0.20322 0.0
H2176 H 0.17319 0.55979 0.22762 0.0
H2177 H 0.18508 0.51662 0.24364 0.0
H2178 H 0.19184 0.52846 0.19032 0.0
H2179 H 0.17113 0.64437 0.22481 0.0
H2180 H 0.19626 0.66647 0.24454 0.0
H2181 H 0.29047 0.61292 0.23663 0.0
H2182 H 0.26613 0.59091 0.21675 0.0
H2183 H 0.06074 0.64057 0.17539 0.0
H2184 H 0.10415 0.60108 0.18317 0.0
H2185 H 0.18213 0.67861 0.17803 0.0
H2186 H 0.13812 0.71889 0.1702 0.0
H2187 H 0.18374 0.65225 0.20154 0.0
H2188 H 0.18637 0.6061 0.16085 0.0
H2189 H 0.16363 0.58555 0.14052 0.0
H2190 H 0.11309 0.50183 0.15922 0.0
H2191 H 0.13484 0.52226 0.17971 0.0
C2192 C 0.24197 0.48953 0.22121 0.0
C2193 C 0.22378 0.48955 0.2327 0.0
C2194 C 0.23529 0.51463 0.21204 0.0
C2195 C 0.21069 0.54046 0.21426 0.0
C2196 C 0.1927 0.54052 0.22574 0.0
C2197 C 0.19923 0.51551 0.23485 0.0
C2198 C 0.20227 0.56668 0.20452 0.0
C2199 C 0.19046 0.55559 0.19269 0.0
C2200 C 0.20174 0.60229 0.20741 0.0
C2201 C 0.21671 0.61587 0.21929 0.0
C2202 C 0.19729 0.6375 0.22722 0.0
C2203 C 0.21138 0.64997 0.23845 0.0
C2204 C 0.24491 0.64106 0.24185 0.0
C2205 C 0.26446 0.61973 0.23401 0.0
C2206 C 0.25052 0.60721 0.22276 0.0
C2207 C 0.0872 0.64918 0.17571 0.0
C2208 C 0.09593 0.68301 0.17233 0.0
C2209 C 0.11211 0.62639 0.18006 0.0
C2210 C 0.14649 0.63674 0.18115 0.0
C2211 C 0.15574 0.67006 0.17724 0.0
C2212 C 0.13065 0.69297 0.17273 0.0
C2213 C 0.17116 0.61368 0.18772 0.0
C2214 C 0.18602 0.6253 0.19899 0.0
C2215 C 0.17508 0.57871 0.18419 0.0
C2216 C 0.16229 0.56579 0.17186 0.0
C2217 C 0.17028 0.5834 0.16065 0.0
C2218 C 0.15755 0.57177 0.14909 0.0
C2219 C 0.13698 0.54239 0.14858 0.0
C2220 C 0.1291 0.52456 0.15963 0.0
C2221 C 0.14167 0.53613 0.17122 0.0
H2222 H 0.12713 0.53344 0.13962 0.0
H2223 H 0.25576 0.65072 0.25055 0.0
loop_
_geom_bond_atom_site_label_1
_geom_bond_atom_site_label_2
_geom_bond_distance
_geom_bond_site_symmetry_2
_ccdc_geom_bond_type
H0 C27 0.929 . S
N1 C26 1.433 . S
N1 C32 1.435 1_545 S
N1 C38 1.423 1_545 S
H2 C28 0.930 . S
H3 C31 0.931 . S
H4 C30 0.929 . S
H5 C33 0.930 . S
H6 C34 0.924 1_545 S
H7 C37 0.929 . S
H8 C36 0.931 . S
H9 C39 0.929 . S
H10 C43 0.932 1_545 S
H11 C40 0.931 . S
H12 C42 0.929 . S
H13 C45 0.929 . S
H14 C46 0.930 . S
H15 C48 0.929 . S
H16 C49 0.931 . S
H17 C51 0.930 . S
H18 C52 0.924 1_545 S
H19 C54 0.931 . S
H20 C55 0.929 . S
H21 C57 0.929 . S
H22 C58 0.931 . S
H23 C60 0.929 . S
N24 C44 1.433 . S
N24 C50 1.435 1_545 S
N24 C56 1.423 1_545 S
H25 C61 0.932 1_545 S
C26 N1 1.433 . S
C26 C27 1.363 . S
C26 C31 1.370 . S
C27 H0 0.929 . S
C27 C26 1.363 . S
C27 C28 1.385 . S
C28 H2 0.930 . S
C28 C27 1.385 . S
C28 C29 1.357 . S
C29 C28 1.357 . S
C29 C30 1.406 . S
C30 H4 0.929 . S
C30 C29 1.406 . S
C30 C31 1.391 . S
C31 H3 0.931 . S
C31 C26 1.370 . S
C31 C30 1.391 . S
C32 N1 1.435 1_565 S
C32 C33 1.358 1_565 S
C32 C37 1.371 . S
C33 H5 0.930 . S
C33 C32 1.358 1_545 S
C33 C34 1.400 1_545 S
C34 H6 0.924 1_565 S
C34 C33 1.400 1_565 S
C34 C35 1.397 . S
C35 C34 1.397 . S
C35 C36 1.393 . S
C36 H8 0.931 . S
C36 C35 1.393 . S
C36 C37 1.382 . S
C37 H7 0.929 . S
C37 C32 1.371 . S
C37 C36 1.382 . S
C38 N1 1.423 1_565 S
C38 C39 1.362 . S
C38 C43 1.388 . S
C39 H9 0.929 . S
C39 C38 1.362 . S
C39 C40 1.376 . S
C40 H11 0.931 . S
C40 C39 1.376 . S
C40 C41 1.396 . S
C41 C40 1.396 . S
C41 C42 1.348 . S
C41 C59 1.472 1_655 S
C42 H12 0.929 . S
C42 C41 1.348 . S
C42 C43 1.443 . S
C43 H10 0.932 1_565 S
C43 C38 1.388 . S
C43 C42 1.443 . S
C44 N24 1.433 . S
C44 C45 1.363 . S
C44 C49 1.370 . S
C45 H13 0.929 . S
C45 C44 1.363 . S
C45 C46 1.385 . S
C46 H14 0.930 . S
C46 C45 1.385 . S
C46 C47 1.357 . S
C47 C46 1.357 . S
C47 C48 1.406 . S
C48 H15 0.929 . S
C48 C47 1.406 . S
C48 C49 1.391 . S
C49 H16 0.931 . S
C49 C44 1.370 . S
C49 C48 1.391 . S
C50 N24 1.435 1_565 S
C50 C51 1.358 1_565 S
C50 C55 1.371 . S
C51 H17 0.930 . S
C51 C50 1.358 1_545 S
C51 C52 1.400 1_545 S
C52 H18 0.924 1_565 S
C52 C51 1.400 1_565 S
C52 C53 1.397 . S
C53 C52 1.397 . S
C53 C54 1.393 . S
C54 H19 0.931 . S
C54 C53 1.393 . S
C54 C55 1.382 . S
C55 H20 0.929 . S
C55 C50 1.371 . S
C55 C54 1.382 . S
C56 N24 1.423 1_565 S
C56 C57 1.362 . S
C56 C61 1.388 . S
C57 H21 0.929 . S
C57 C56 1.362 . S
C57 C58 1.376 . S
C58 H22 0.931 . S
C58 C57 1.376 . S
C58 C59 1.396 . S
C59 C41 1.472 1_455 S
C59 C58 1.396 . S
C59 C60 1.348 . S
C60 H23 0.929 . S
C60 C59 1.348 . S
C60 C61 1.443 . S
C61 H25 0.932 1_565 S
C61 C56 1.388 . S
C61 C60 1.443 . S
H62 C89 0.929 . S
N63 C88 1.433 . S
N63 C94 1.435 . S
N63 C100 1.423 . S
H64 C90 0.930 . S
H65 C93 0.931 . S
H66 C92 0.929 . S
H67 C95 0.930 . S
H68 C96 0.932 . S
H69 C99 0.929 . S
H70 C98 0.931 . S
H71 C101 0.929 . S
H72 C105 0.932 . S
H73 C102 0.931 . S
H74 C104 0.929 . S
H75 C107 0.929 . S
H76 C108 0.930 . S
H77 C110 0.929 . S
H78 C111 0.931 . S
H79 C113 0.930 . S
H80 C114 0.932 . S
H81 C116 0.931 . S
H82 C117 0.929 . S
H83 C119 0.929 . S
H84 C120 0.931 . S
H85 C122 0.929 . S
N86 C106 1.433 . S
N86 C112 1.435 . S
N86 C118 1.423 . S
H87 C123 0.932 . S
C88 N63 1.433 . S
C88 C89 1.363 . S
C88 C93 1.370 . S
C89 H62 0.929 . S
C89 C88 1.363 . S
C89 C90 1.385 . S
C90 H64 0.930 . S
C90 C89 1.385 . S
C90 C91 1.357 . S
C91 C90 1.357 . S
C91 C92 1.406 . S
C92 H66 0.929 . S
C92 C91 1.406 . S
C92 C93 1.391 . S
C93 H65 0.931 . S
C93 C88 1.370 . S
C93 C92 1.391 . S
C94 N63 1.435 . S
C94 C95 1.358 . S
C94 C99 1.371 . S
C95 H67 0.930 . S
C95 C94 1.358 . S
C95 C96 1.405 . S
C96 H68 0.932 . S
C96 C95 1.405 . S
C96 C97 1.383 . S
C97 C96 1.383 . S
C97 C98 1.393 . S
C98 H70 0.931 . S
C98 C97 1.393 . S
C98 C99 1.382 . S
C99 H69 0.929 . S
C99 C94 1.371 . S
C99 C98 1.382 . S
C100 N63 1.423 . S
C100 C101 1.362 . S
C100 C105 1.388 . S
C101 H71 0.929 . S
C101 C100 1.362 . S
C101 C102 1.376 . S
C102 H73 0.931 . S
C102 C101 1.376 . S
C102 C103 1.396 . S
C103 C102 1.396 . S
C103 C104 1.348 . S
C103 C121 1.472 . S
C104 H74 0.929 . S
C104 C103 1.348 . S
C104 C105 1.443 . S
C105 H72 0.932 . S
C105 C100 1.388 . S
C105 C104 1.443 . S
C106 N86 1.433 . S
C106 C107 1.363 . S
C106 C111 1.370 . S
C107 H75 0.929 . S
C107 C106 1.363 . S
C107 C108 1.385 . S
C108 H76 0.930 . S
C108 C107 1.385 . S
C108 C109 1.357 . S
C109 C108 1.357 . S
C109 C110 1.406 . S
C110 H77 0.929 . S
C110 C109 1.406 . S
C110 C111 1.391 . S
C111 H78 0.931 . S
C111 C106 1.370 . S
C111 C110 1.391 . S
C112 N86 1.435 . S
C112 C113 1.358 . S
C112 C117 1.371 . S
C113 H79 0.930 . S
C113 C112 1.358 . S
C113 C114 1.405 . S
C114 H80 0.932 . S
C114 C113 1.405 . S
C114 C115 1.383 . S
C115 C114 1.383 . S
C115 C116 1.393 . S
C116 H81 0.931 . S
C116 C115 1.393 . S
C116 C117 1.382 . S
C117 H82 0.929 . S
C117 C112 1.371 . S
C117 C116 1.382 . S
C118 N86 1.423 . S
C118 C119 1.362 . S
C118 C123 1.388 . S
C119 H83 0.929 . S
C119 C118 1.362 . S
C119 C120 1.376 . S
C120 H84 0.931 . S
C120 C119 1.376 . S
C120 C121 1.396 . S
C121 C103 1.472 . S
C121 C120 1.396 . S
C121 C122 1.348 . S
C122 H85 0.929 . S
C122 C121 1.348 . S
C122 C123 1.443 . S
C123 H87 0.932 . S
C123 C118 1.388 . S
C123 C122 1.443 . S
H124 C151 0.929 . S
N125 C150 1.435 1_545 S
N125 C156 1.435 . S
N125 C162 1.423 . S
H126 C152 0.930 . S
H127 C155 0.931 . S
H128 C154 0.929 . S
H129 C157 0.930 1_565 S
H130 C158 0.917 1_556 S
H131 C161 0.929 . S
H132 C160 0.907 1_556 S
H133 C163 0.929 . S
H134 C167 0.932 . S
H135 C164 0.931 . S
H136 C166 0.929 . S
H137 C169 0.929 . S
H138 C170 0.930 . S
H139 C172 0.929 . S
H140 C173 0.931 . S
H141 C175 0.930 1_565 S
H142 C176 0.917 1_556 S
H143 C178 0.907 1_556 S
H144 C179 0.929 . S
H145 C181 0.929 . S
H146 C182 0.931 . S
H147 C184 0.929 . S
N148 C168 1.435 1_545 S
N148 C174 1.435 . S
N148 C180 1.423 . S
H149 C185 0.932 . S
C150 N125 1.435 1_565 S
C150 C151 1.364 1_565 S
C150 C155 1.367 . S
C151 H124 0.929 . S
C151 C150 1.364 1_545 S
C151 C152 1.385 1_545 S
C152 H126 0.930 . S
C152 C151 1.385 1_565 S
C152 C153 1.357 . S
C153 C152 1.357 . S
C153 C154 1.406 . S
C154 H128 0.929 . S
C154 C153 1.406 . S
C154 C155 1.391 . S
C155 H127 0.931 . S
C155 C150 1.367 . S
C155 C154 1.391 . S
C156 N125 1.435 . S
C156 C157 1.358 . S
C156 C161 1.371 . S
C157 H129 0.930 1_545 S
C157 C156 1.358 . S
C157 C158 1.438 . S
C158 H130 0.917 1_554 S
C158 C157 1.438 . S
C158 C159 1.367 1_554 S
C159 C158 1.367 1_556 S
C159 C160 1.364 1_556 S
C160 H132 0.907 1_554 S
C160 C159 1.364 1_554 S
C160 C161 1.441 . S
C161 H131 0.929 . S
C161 C156 1.371 . S
C161 C160 1.441 . S
C162 N125 1.423 . S
C162 C163 1.362 . S
C162 C167 1.388 . S
C163 H133 0.929 . S
C163 C162 1.362 . S
C163 C164 1.376 . S
C164 H135 0.931 . S
C164 C163 1.376 . S
C164 C165 1.396 . S
C165 C164 1.396 . S
C165 C166 1.348 . S
C165 C183 1.472 . S
C166 H136 0.929 . S
C166 C165 1.348 . S
C166 C167 1.443 . S
C167 H134 0.932 . S
C167 C162 1.388 . S
C167 C166 1.443 . S
C168 N148 1.435 1_565 S
C168 C169 1.364 1_565 S
C168 C173 1.367 . S
C169 H137 0.929 . S
C169 C168 1.364 1_545 S
C169 C170 1.385 1_545 S
C170 H138 0.930 . S
C170 C169 1.385 1_565 S
C170 C171 1.357 . S
C171 C170 1.357 . S
C171 C172 1.406 . S
C172 H139 0.929 . S
C172 C171 1.406 . S
C172 C173 1.391 . S
C173 H140 0.931 . S
C173 C168 1.367 . S
C173 C172 1.391 . S
C174 N148 1.435 . S
C174 C175 1.358 . S
C174 C179 1.371 . S
C175 H141 0.930 1_545 S
C175 C174 1.358 . S
C175 C176 1.438 . S
C176 H142 0.917 1_554 S
C176 C175 1.438 . S
C176 C177 1.367 1_554 S
C177 C176 1.367 1_556 S
C177 C178 1.364 1_556 S
C178 H143 0.907 1_554 S
C178 C177 1.364 1_554 S
C178 C179 1.441 . S
C179 H144 0.929 . S
C179 C174 1.371 . S
C179 C178 1.441 . S
C180 N148 1.423 . S
C180 C181 1.362 . S
C180 C185 1.388 . S
C181 H145 0.929 . S
C181 C180 1.362 . S
C181 C182 1.376 . S
C182 H146 0.931 . S
C182 C181 1.376 . S
C182 C183 1.396 . S
C183 C165 1.472 . S
C183 C182 1.396 . S
C183 C184 1.348 . S
C184 H147 0.929 . S
C184 C183 1.348 . S
C184 C185 1.443 . S
C185 H149 0.932 . S
C185 C180 1.388 . S
C185 C184 1.443 . S
H186 C213 0.929 . S
N187 C212 1.433 . S
N187 C218 1.435 . S
N187 C224 1.423 . S
H188 C214 0.930 . S
H189 C217 0.931 . S
H190 C216 0.929 . S
H191 C219 0.930 . S
H192 C220 0.932 . S
H193 C223 0.929 . S
H194 C222 0.931 . S
H195 C225 0.929 . S
H196 C229 0.932 . S
H197 C226 0.931 . S
H198 C228 0.929 . S
H199 C231 0.929 . S
H200 C232 0.930 . S
H201 C234 0.929 . S
H202 C235 0.931 . S
H203 C237 0.930 . S
H204 C238 0.932 . S
H205 C240 0.931 . S
H206 C241 0.929 . S
H207 C243 0.929 . S
H208 C244 0.931 . S
H209 C246 0.929 . S
N210 C230 1.433 . S
N210 C236 1.435 . S
N210 C242 1.423 . S
H211 C247 0.932 . S
C212 N187 1.433 . S
C212 C213 1.363 . S
C212 C217 1.370 . S
C213 H186 0.929 . S
C213 C212 1.363 . S
C213 C214 1.385 . S
C214 H188 0.930 . S
C214 C213 1.385 . S
C214 C215 1.357 . S
C215 C214 1.357 . S
C215 C216 1.406 . S
C216 H190 0.929 . S
C216 C215 1.406 . S
C216 C217 1.391 . S
C217 H189 0.931 . S
C217 C212 1.370 . S
C217 C216 1.391 . S
C218 N187 1.435 . S
C218 C219 1.358 . S
C218 C223 1.371 . S
C219 H191 0.930 . S
C219 C218 1.358 . S
C219 C220 1.405 . S
C220 H192 0.932 . S
C220 C219 1.405 . S
C220 C221 1.383 . S
C221 C220 1.383 . S
C221 C222 1.393 . S
C222 H194 0.931 . S
C222 C221 1.393 . S
C222 C223 1.382 . S
C223 H193 0.929 . S
C223 C218 1.371 . S
C223 C222 1.382 . S
C224 N187 1.423 . S
C224 C225 1.362 . S
C224 C229 1.388 . S
C225 H195 0.929 . S
C225 C224 1.362 . S
C225 C226 1.376 . S
C226 H197 0.931 . S
C226 C225 1.376 . S
C226 C227 1.396 . S
C227 C226 1.396 . S
C227 C228 1.348 . S
C227 C245 1.472 . S
C228 H198 0.929 . S
C228 C227 1.348 . S
C228 C229 1.443 . S
C229 H196 0.932 . S
C229 C224 1.388 . S
C229 C228 1.443 . S
C230 N210 1.433 . S
C230 C231 1.363 . S
C230 C235 1.370 . S
C231 H199 0.929 . S
C231 C230 1.363 . S
C231 C232 1.385 . S
C232 H200 0.930 . S
C232 C231 1.385 . S
C232 C233 1.357 . S
C233 C232 1.357 . S
C233 C234 1.406 . S
C234 H201 0.929 . S
C234 C233 1.406 . S
C234 C235 1.391 . S
C235 H202 0.931 . S
C235 C230 1.370 . S
C235 C234 1.391 . S
C236 N210 1.435 . S
C236 C237 1.358 . S
C236 C241 1.371 . S
C237 H203 0.930 . S
C237 C236 1.358 . S
C237 C238 1.405 . S
C238 H204 0.932 . S
C238 C237 1.405 . S
C238 C239 1.383 . S
C239 C238 1.383 . S
C239 C240 1.393 . S
C240 H205 0.931 . S
C240 C239 1.393 . S
C240 C241 1.382 . S
C241 H206 0.929 . S
C241 C236 1.371 . S
C241 C240 1.382 . S
C242 N210 1.423 . S
C242 C243 1.362 . S
C242 C247 1.388 . S
C243 H207 0.929 . S
C243 C242 1.362 . S
C243 C244 1.376 . S
C244 H208 0.931 . S
C244 C243 1.376 . S
C244 C245 1.396 . S
C245 C227 1.472 . S
C245 C244 1.396 . S
C245 C246 1.348 . S
C246 H209 0.929 . S
C246 C245 1.348 . S
C246 C247 1.443 . S
C247 H211 0.932 . S
C247 C242 1.388 . S
C247 C246 1.443 . S
H248 C275 0.929 . S
N249 C274 1.433 . S
N249 C280 1.435 . S
N249 C286 1.423 . S
H250 C276 0.930 . S
H251 C279 0.931 . S
H252 C278 0.929 . S
H253 C281 0.930 . S
H254 C282 0.932 . S
H255 C285 0.929 . S
H256 C284 0.931 . S
H257 C287 0.929 . S
H258 C291 0.932 . S
H259 C288 0.931 . S
H260 C290 0.929 . S
H261 C293 0.929 . S
H262 C294 0.930 . S
H263 C296 0.929 . S
H264 C297 0.931 . S
H265 C299 0.930 . S
H266 C300 0.932 . S
H267 C302 0.931 . S
H268 C303 0.929 . S
H269 C305 0.929 . S
H270 C306 0.931 . S
H271 C308 0.929 . S
N272 C292 1.433 . S
N272 C298 1.435 . S
N272 C304 1.423 . S
H273 C309 0.932 . S
C274 N249 1.433 . S
C274 C275 1.363 . S
C274 C279 1.370 . S
C275 H248 0.929 . S
C275 C274 1.363 . S
C275 C276 1.385 . S
C276 H250 0.930 . S
C276 C275 1.385 . S
C276 C277 1.357 . S
C277 C276 1.357 . S
C277 C278 1.406 . S
C278 H252 0.929 . S
C278 C277 1.406 . S
C278 C279 1.391 . S
C279 H251 0.931 . S
C279 C274 1.370 . S
C279 C278 1.391 . S
C280 N249 1.435 . S
C280 C281 1.358 . S
C280 C285 1.371 . S
C281 H253 0.930 . S
C281 C280 1.358 . S
C281 C282 1.405 . S
C282 H254 0.932 . S
C282 C281 1.405 . S
C282 C283 1.383 . S
C283 C282 1.383 . S
C283 C284 1.393 . S
C284 H256 0.931 . S
C284 C283 1.393 . S
C284 C285 1.382 . S
C285 H255 0.929 . S
C285 C280 1.371 . S
C285 C284 1.382 . S
C286 N249 1.423 . S
C286 C287 1.362 . S
C286 C291 1.388 . S
C287 H257 0.929 . S
C287 C286 1.362 . S
C287 C288 1.376 . S
C288 H259 0.931 . S
C288 C287 1.376 . S
C288 C289 1.396 . S
C289 C288 1.396 . S
C289 C290 1.348 . S
C289 C307 1.472 . S
C290 H260 0.929 . S
C290 C289 1.348 . S
C290 C291 1.443 . S
C291 H258 0.932 . S
C291 C286 1.388 . S
C291 C290 1.443 . S
C292 N272 1.433 . S
C292 C293 1.363 . S
C292 C297 1.370 . S
C293 H261 0.929 . S
C293 C292 1.363 . S
C293 C294 1.385 . S
C294 H262 0.930 . S
C294 C293 1.385 . S
C294 C295 1.357 . S
C295 C294 1.357 . S
C295 C296 1.406 . S
C296 H263 0.929 . S
C296 C295 1.406 . S
C296 C297 1.391 . S
C297 H264 0.931 . S
C297 C292 1.370 . S
C297 C296 1.391 . S
C298 N272 1.435 . S
C298 C299 1.358 . S
C298 C303 1.371 . S
C299 H265 0.930 . S
C299 C298 1.358 . S
C299 C300 1.405 . S
C300 H266 0.932 . S
C300 C299 1.405 . S
C300 C301 1.383 . S
C301 C300 1.383 . S
C301 C302 1.393 . S
C302 H267 0.931 . S
C302 C301 1.393 . S
C302 C303 1.382 . S
C303 H268 0.929 . S
C303 C298 1.371 . S
C303 C302 1.382 . S
C304 N272 1.423 . S
C304 C305 1.362 . S
C304 C309 1.388 . S
C305 H269 0.929 . S
C305 C304 1.362 . S
C305 C306 1.376 . S
C306 H270 0.931 . S
C306 C305 1.376 . S
C306 C307 1.396 . S
C307 C289 1.472 . S
C307 C306 1.396 . S
C307 C308 1.348 . S
C308 H271 0.929 . S
C308 C307 1.348 . S
C308 C309 1.443 . S
C309 H273 0.932 . S
C309 C304 1.388 . S
C309 C308 1.443 . S
H310 C337 0.929 . S
N311 C336 1.433 . S
N311 C342 1.435 . S
N311 C348 1.423 . S
H312 C338 0.930 . S
H313 C341 0.931 . S
H314 C340 0.929 . S
H315 C343 0.930 . S
H316 C344 0.932 . S
H317 C347 0.929 . S
H318 C346 0.931 . S
H319 C349 0.929 . S
H320 C353 0.932 . S
H321 C350 0.931 . S
H322 C352 0.929 . S
H323 C355 0.929 . S
H324 C356 0.930 . S
H325 C358 0.929 . S
H326 C359 0.931 . S
H327 C361 0.930 . S
H328 C362 0.932 . S
H329 C364 0.931 . S
H330 C365 0.929 . S
H331 C367 0.929 . S
H332 C368 0.931 . S
H333 C370 0.929 . S
N334 C354 1.433 . S
N334 C360 1.435 . S
N334 C366 1.423 . S
H335 C371 0.932 . S
C336 N311 1.433 . S
C336 C337 1.363 . S
C336 C341 1.370 . S
C337 H310 0.929 . S
C337 C336 1.363 . S
C337 C338 1.385 . S
C338 H312 0.930 . S
C338 C337 1.385 . S
C338 C339 1.357 . S
C339 C338 1.357 . S
C339 C340 1.406 . S
C340 H314 0.929 . S
C340 C339 1.406 . S
C340 C341 1.391 . S
C341 H313 0.931 . S
C341 C336 1.370 . S
C341 C340 1.391 . S
C342 N311 1.435 . S
C342 C343 1.358 . S
C342 C347 1.371 . S
C343 H315 0.930 . S
C343 C342 1.358 . S
C343 C344 1.405 . S
C344 H316 0.932 . S
C344 C343 1.405 . S
C344 C345 1.383 . S
C345 C344 1.383 . S
C345 C346 1.393 . S
C346 H318 0.931 . S
C346 C345 1.393 . S
C346 C347 1.382 . S
C347 H317 0.929 . S
C347 C342 1.371 . S
C347 C346 1.382 . S
C348 N311 1.423 . S
C348 C349 1.362 . S
C348 C353 1.388 . S
C349 H319 0.929 . S
C349 C348 1.362 . S
C349 C350 1.376 . S
C350 H321 0.931 . S
C350 C349 1.376 . S
C350 C351 1.396 . S
C351 C350 1.396 . S
C351 C352 1.348 . S
C351 C369 1.472 . S
C352 H322 0.929 . S
C352 C351 1.348 . S
C352 C353 1.443 . S
C353 H320 0.932 . S
C353 C348 1.388 . S
C353 C352 1.443 . S
C354 N334 1.433 . S
C354 C355 1.363 . S
C354 C359 1.370 . S
C355 H323 0.929 . S
C355 C354 1.363 . S
C355 C356 1.385 . S
C356 H324 0.930 . S
C356 C355 1.385 . S
C356 C357 1.357 . S
C357 C356 1.357 . S
C357 C358 1.406 . S
C358 H325 0.929 . S
C358 C357 1.406 . S
C358 C359 1.391 . S
C359 H326 0.931 . S
C359 C354 1.370 . S
C359 C358 1.391 . S
C360 N334 1.435 . S
C360 C361 1.358 . S
C360 C365 1.371 . S
C361 H327 0.930 . S
C361 C360 1.358 . S
C361 C362 1.405 . S
C362 H328 0.932 . S
C362 C361 1.405 . S
C362 C363 1.383 . S
C363 C362 1.383 . S
C363 C364 1.393 . S
C364 H329 0.931 . S
C364 C363 1.393 . S
C364 C365 1.382 . S
C365 H330 0.929 . S
C365 C360 1.371 . S
C365 C364 1.382 . S
C366 N334 1.423 . S
C366 C367 1.362 . S
C366 C371 1.388 . S
C367 H331 0.929 . S
C367 C366 1.362 . S
C367 C368 1.376 . S
C368 H332 0.931 . S
C368 C367 1.376 . S
C368 C369 1.396 . S
C369 C351 1.472 . S
C369 C368 1.396 . S
C369 C370 1.348 . S
C370 H333 0.929 . S
C370 C369 1.348 . S
C370 C371 1.443 . S
C371 H335 0.932 . S
C371 C366 1.388 . S
C371 C370 1.443 . S
H372 C399 0.938 . S
N373 C398 1.433 . S
N373 C404 1.435 . S
N373 C410 1.423 . S
H374 C400 0.930 . S
H375 C403 0.931 . S
H376 C402 0.929 . S
H377 C405 0.930 . S
H378 C406 0.932 . S
H379 C409 0.929 . S
H380 C408 0.931 . S
H381 C411 0.929 1_556 S
H382 C415 0.932 . S
H383 C412 0.931 1_556 S
H384 C414 0.929 . S
H385 C417 0.938 . S
H386 C418 0.930 . S
H387 C420 0.929 . S
H388 C421 0.931 . S
H389 C423 0.930 . S
H390 C424 0.932 . S
H391 C426 0.931 . S
H392 C427 0.929 . S
H393 C429 0.929 1_556 S
H394 C430 0.931 1_556 S
H395 C432 0.929 . S
N396 C416 1.433 . S
N396 C422 1.435 . S
N396 C428 1.423 . S
H397 C433 0.932 . S
C398 N373 1.433 . S
C398 C399 1.381 . S
C398 C403 1.370 . S
C399 H372 0.938 . S
C399 C398 1.381 . S
C399 C400 1.360 1_554 S
C400 H374 0.930 . S
C400 C399 1.360 1_556 S
C400 C401 1.357 . S
C401 C400 1.357 . S
C401 C402 1.406 . S
C402 H376 0.929 . S
C402 C401 1.406 . S
C402 C403 1.391 1_556 S
C403 H375 0.931 . S
C403 C398 1.370 . S
C403 C402 1.391 1_554 S
C404 N373 1.435 . S
C404 C405 1.358 . S
C404 C409 1.371 . S
C405 H377 0.930 . S
C405 C404 1.358 . S
C405 C406 1.405 . S
C406 H378 0.932 . S
C406 C405 1.405 . S
C406 C407 1.383 . S
C407 C406 1.383 . S
C407 C408 1.393 . S
C408 H380 0.931 . S
C408 C407 1.393 . S
C408 C409 1.382 . S
C409 H379 0.929 . S
C409 C404 1.371 . S
C409 C408 1.382 . S
C410 N373 1.423 . S
C410 C411 1.362 . S
C410 C415 1.388 . S
C411 H381 0.929 1_554 S
C411 C410 1.362 . S
C411 C412 1.376 . S
C412 H383 0.931 1_554 S
C412 C411 1.376 . S
C412 C413 1.396 . S
C413 C412 1.396 . S
C413 C414 1.348 . S
C413 C431 1.472 . S
C414 H384 0.929 . S
C414 C413 1.348 . S
C414 C415 1.443 . S
C415 H382 0.932 . S
C415 C410 1.388 . S
C415 C414 1.443 . S
C416 N396 1.433 . S
C416 C417 1.381 . S
C416 C421 1.370 . S
C417 H385 0.938 . S
C417 C416 1.381 . S
C417 C418 1.360 1_554 S
C418 H386 0.930 . S
C418 C417 1.360 1_556 S
C418 C419 1.357 . S
C419 C418 1.357 . S
C419 C420 1.406 . S
C420 H387 0.929 . S
C420 C419 1.406 . S
C420 C421 1.391 1_556 S
C421 H388 0.931 . S
C421 C416 1.370 . S
C421 C420 1.391 1_554 S
C422 N396 1.435 . S
C422 C423 1.358 . S
C422 C427 1.371 . S
C423 H389 0.930 . S
C423 C422 1.358 . S
C423 C424 1.405 . S
C424 H390 0.932 . S
C424 C423 1.405 . S
C424 C425 1.383 . S
C425 C424 1.383 . S
C425 C426 1.393 . S
C426 H391 0.931 . S
C426 C425 1.393 . S
C426 C427 1.382 . S
C427 H392 0.929 . S
C427 C422 1.371 . S
C427 C426 1.382 . S
C428 N396 1.423 . S
C428 C429 1.362 . S
C428 C433 1.388 . S
C429 H393 0.929 1_554 S
C429 C428 1.362 . S
C429 C430 1.376 . S
C430 H394 0.931 1_554 S
C430 C429 1.376 . S
C430 C431 1.396 . S
C431 C413 1.472 . S
C431 C430 1.396 . S
C431 C432 1.348 . S
C432 H395 0.929 . S
C432 C431 1.348 . S
C432 C433 1.443 . S
C433 H397 0.932 . S
C433 C428 1.388 . S
C433 C432 1.443 . S
H434 C461 0.929 . S
N435 C460 1.433 . S
N435 C466 1.435 . S
N435 C472 1.423 . S
H436 C462 0.930 . S
H437 C465 0.931 . S
H438 C464 0.929 . S
H439 C467 0.930 . S
H440 C468 0.932 . S
H441 C471 0.929 . S
H442 C470 0.931 . S
H443 C473 0.929 . S
H444 C477 0.932 . S
H445 C474 0.931 . S
H446 C476 0.929 . S
H447 C479 0.929 . S
H448 C480 0.930 . S
H449 C482 0.929 . S
H450 C483 0.931 . S
H451 C485 0.930 . S
H452 C486 0.932 . S
H453 C488 0.931 . S
H454 C489 0.929 . S
H455 C491 0.929 . S
H456 C492 0.931 . S
H457 C494 0.929 . S
N458 C478 1.433 . S
N458 C484 1.435 . S
N458 C490 1.423 . S
H459 C495 0.932 . S
C460 N435 1.433 . S
C460 C461 1.363 . S
C460 C465 1.370 . S
C461 H434 0.929 . S
C461 C460 1.363 . S
C461 C462 1.385 . S
C462 H436 0.930 . S
C462 C461 1.385 . S
C462 C463 1.357 . S
C463 C462 1.357 . S
C463 C464 1.406 . S
C464 H438 0.929 . S
C464 C463 1.406 . S
C464 C465 1.391 . S
C465 H437 0.931 . S
C465 C460 1.370 . S
C465 C464 1.391 . S
C466 N435 1.435 . S
C466 C467 1.358 . S
C466 C471 1.371 . S
C467 H439 0.930 . S
C467 C466 1.358 . S
C467 C468 1.405 . S
C468 H440 0.932 . S
C468 C467 1.405 . S
C468 C469 1.383 . S
C469 C468 1.383 . S
C469 C470 1.393 . S
C470 H442 0.931 . S
C470 C469 1.393 . S
C470 C471 1.382 . S
C471 H441 0.929 . S
C471 C466 1.371 . S
C471 C470 1.382 . S
C472 N435 1.423 . S
C472 C473 1.362 . S
C472 C477 1.388 . S
C473 H443 0.929 . S
C473 C472 1.362 . S
C473 C474 1.376 . S
C474 H445 0.931 . S
C474 C473 1.376 . S
C474 C475 1.396 . S
C475 C474 1.396 . S
C475 C476 1.348 . S
C475 C493 1.472 1_455 S
C476 H446 0.929 . S
C476 C475 1.348 . S
C476 C477 1.443 . S
C477 H444 0.932 . S
C477 C472 1.388 . S
C477 C476 1.443 . S
C478 N458 1.433 . S
C478 C479 1.363 . S
C478 C483 1.370 . S
C479 H447 0.929 . S
C479 C478 1.363 . S
C479 C480 1.385 . S
C480 H448 0.930 . S
C480 C479 1.385 . S
C480 C481 1.357 . S
C481 C480 1.357 . S
C481 C482 1.406 . S
C482 H449 0.929 . S
C482 C481 1.406 . S
C482 C483 1.391 . S
C483 H450 0.931 . S
C483 C478 1.370 . S
C483 C482 1.391 . S
C484 N458 1.435 . S
C484 C485 1.358 . S
C484 C489 1.371 . S
C485 H451 0.930 . S
C485 C484 1.358 . S
C485 C486 1.405 . S
C486 H452 0.932 . S
C486 C485 1.405 . S
C486 C487 1.383 . S
C487 C486 1.383 . S
C487 C488 1.393 . S
C488 H453 0.931 . S
C488 C487 1.393 . S
C488 C489 1.382 . S
C489 H454 0.929 . S
C489 C484 1.371 . S
C489 C488 1.382 . S
C490 N458 1.423 . S
C490 C491 1.362 . S
C490 C495 1.388 . S
C491 H455 0.929 . S
C491 C490 1.362 . S
C491 C492 1.376 . S
C492 H456 0.931 . S
C492 C491 1.376 . S
C492 C493 1.396 . S
C493 C475 1.472 1_655 S
C493 C492 1.396 . S
C493 C494 1.348 . S
C494 H457 0.929 . S
C494 C493 1.348 . S
C494 C495 1.443 . S
C495 H459 0.932 . S
C495 C490 1.388 . S
C495 C494 1.443 . S
Fe496 O497 1.909 . S
Fe496 O500 1.691 1_455 S
Fe496 O505 2.098 . S
Fe496 O510 1.917 1_455 S
Fe496 O516 2.098 . S
Fe496 O525 1.917 1_455 S
O497 Fe496 1.909 . S
O497 Fe499 1.715 . S
Fe498 O500 1.886 . S
Fe498 O501 1.715 . S
Fe498 O508 1.935 . S
Fe498 O509 2.077 . S
Fe498 O515 1.935 . S
Fe498 O524 2.077 . S
Fe499 O497 1.715 . S
Fe499 O502 1.886 . S
Fe499 O506 1.935 . S
Fe499 O511 2.077 . S
Fe499 O517 1.935 . S
Fe499 O521 2.077 . S
O500 Fe496 1.691 1_655 S
O500 Fe498 1.886 . S
O501 Fe498 1.715 . S
O501 Fe503 1.903 . S
O502 Fe499 1.886 . S
O502 Fe503 1.697 1_455 S
Fe503 O501 1.903 . S
Fe503 O502 1.697 1_655 S
Fe503 O507 2.093 . S
Fe503 O512 1.922 1_655 S
Fe503 O514 2.093 . S
Fe503 O522 1.922 1_655 S
C504 O516 1.381 . S
C504 O517 1.421 . S
O505 Fe496 2.098 . S
O505 C518 1.381 . S
O506 Fe499 1.935 . S
O506 C518 1.421 . S
O507 Fe503 2.093 . S
O507 C523 1.381 . S
O508 Fe498 1.935 . S
O508 C523 1.421 . S
O509 Fe498 2.077 . S
O509 C513 1.381 . S
O510 Fe496 1.917 1_655 S
O510 C513 1.421 . S
O511 Fe499 2.077 . S
O511 C519 1.381 . S
O512 Fe503 1.922 1_455 S
O512 C519 1.421 . S
C513 O509 1.381 . S
C513 O510 1.421 . S
O514 Fe503 2.093 . S
O514 C526 1.381 . S
O515 Fe498 1.935 . S
O515 C526 1.421 . S
O516 Fe496 2.098 . S
O516 C504 1.381 . S
O517 Fe499 1.935 . S
O517 C504 1.421 . S
C518 O505 1.381 . S
C518 O506 1.421 . S
C519 O511 1.381 . S
C519 O512 1.421 . S
C520 O521 1.381 . S
C520 O522 1.421 . S
O521 Fe499 2.077 . S
O521 C520 1.381 . S
O522 Fe503 1.922 1_455 S
O522 C520 1.421 . S
C523 O507 1.381 . S
C523 O508 1.421 . S
O524 Fe498 2.077 . S
O524 C527 1.381 . S
O525 Fe496 1.917 1_655 S
O525 C527 1.421 . S
C526 O514 1.381 . S
C526 O515 1.421 . S
C527 O524 1.381 . S
C527 O525 1.421 . S
Fe528 O529 1.886 . S
Fe528 O532 1.715 . S
Fe528 O537 2.077 . S
Fe528 O542 1.935 . S
Fe528 O548 2.077 . S
Fe528 O557 1.935 . S
O529 Fe528 1.886 . S
O529 Fe531 1.715 . S
Fe530 O532 1.886 . S
Fe530 O533 1.715 . S
Fe530 O540 1.935 . S
Fe530 O541 2.077 . S
Fe530 O547 1.935 . S
Fe530 O556 2.077 . S
Fe531 O529 1.715 . S
Fe531 O534 1.886 . S
Fe531 O538 1.935 . S
Fe531 O543 2.077 . S
Fe531 O549 1.935 . S
Fe531 O553 2.077 . S
O532 Fe528 1.715 . S
O532 Fe530 1.886 . S
O533 Fe530 1.715 . S
O533 Fe535 1.886 . S
O534 Fe531 1.886 . S
O534 Fe535 1.715 . S
Fe535 O533 1.886 . S
Fe535 O534 1.715 . S
Fe535 O539 2.077 . S
Fe535 O544 1.935 . S
Fe535 O546 2.077 . S
Fe535 O554 1.935 . S
C536 O548 1.381 . S
C536 O549 1.421 . S
O537 Fe528 2.077 . S
O537 C550 1.381 . S
O538 Fe531 1.935 . S
O538 C550 1.421 . S
O539 Fe535 2.077 . S
O539 C555 1.381 . S
O540 Fe530 1.935 . S
O540 C555 1.421 . S
O541 Fe530 2.077 . S
O541 C545 1.381 . S
O542 Fe528 1.935 . S
O542 C545 1.421 . S
O543 Fe531 2.077 . S
O543 C551 1.381 . S
O544 Fe535 1.935 . S
O544 C551 1.421 . S
C545 O541 1.381 . S
C545 O542 1.421 . S
O546 Fe535 2.077 . S
O546 C558 1.381 . S
O547 Fe530 1.935 . S
O547 C558 1.421 . S
O548 Fe528 2.077 . S
O548 C536 1.381 . S
O549 Fe531 1.935 . S
O549 C536 1.421 . S
C550 O537 1.381 . S
C550 O538 1.421 . S
C551 O543 1.381 . S
C551 O544 1.421 . S
C552 O553 1.381 . S
C552 O554 1.421 . S
O553 Fe531 2.077 . S
O553 C552 1.381 . S
O554 Fe535 1.935 . S
O554 C552 1.421 . S
C555 O539 1.381 . S
C555 O540 1.421 . S
O556 Fe530 2.077 . S
O556 C559 1.381 . S
O557 Fe528 1.935 . S
O557 C559 1.421 . S
C558 O546 1.381 . S
C558 O547 1.421 . S
C559 O556 1.381 . S
C559 O557 1.421 . S
Fe560 O561 1.886 . S
Fe560 O564 1.715 . S
Fe560 O569 2.077 . S
Fe560 O574 1.935 . S
Fe560 O580 2.077 . S
Fe560 O589 1.935 . S
O561 Fe560 1.886 . S
O561 Fe563 1.715 . S
Fe562 O564 1.886 . S
Fe562 O565 1.715 . S
Fe562 O572 1.935 . S
Fe562 O573 2.077 . S
Fe562 O579 1.935 . S
Fe562 O588 2.077 . S
Fe563 O561 1.715 . S
Fe563 O566 1.886 . S
Fe563 O570 1.935 . S
Fe563 O575 2.077 . S
Fe563 O581 1.935 . S
Fe563 O585 2.077 . S
O564 Fe560 1.715 . S
O564 Fe562 1.886 . S
O565 Fe562 1.715 . S
O565 Fe567 1.886 . S
O566 Fe563 1.886 . S
O566 Fe567 1.715 . S
Fe567 O565 1.886 . S
Fe567 O566 1.715 . S
Fe567 O571 2.077 . S
Fe567 O576 1.935 . S
Fe567 O578 2.077 . S
Fe567 O586 1.935 . S
C568 O580 1.381 . S
C568 O581 1.421 . S
O569 Fe560 2.077 . S
O569 C582 1.381 . S
O570 Fe563 1.935 . S
O570 C582 1.421 . S
O571 Fe567 2.077 . S
O571 C587 1.381 . S
O572 Fe562 1.935 . S
O572 C587 1.421 . S
O573 Fe562 2.077 . S
O573 C577 1.381 . S
O574 Fe560 1.935 . S
O574 C577 1.421 . S
O575 Fe563 2.077 . S
O575 C583 1.381 . S
O576 Fe567 1.935 . S
O576 C583 1.421 . S
C577 O573 1.381 . S
C577 O574 1.421 . S
O578 Fe567 2.077 . S
O578 C590 1.381 . S
O579 Fe562 1.935 . S
O579 C590 1.421 . S
O580 Fe560 2.077 . S
O580 C568 1.381 . S
O581 Fe563 1.935 . S
O581 C568 1.421 . S
C582 O569 1.381 . S
C582 O570 1.421 . S
C583 O575 1.381 . S
C583 O576 1.421 . S
C584 O585 1.381 . S
C584 O586 1.421 . S
O585 Fe563 2.077 . S
O585 C584 1.381 . S
O586 Fe567 1.935 . S
O586 C584 1.421 . S
C587 O571 1.381 . S
C587 O572 1.421 . S
O588 Fe562 2.077 . S
O588 C591 1.381 . S
O589 Fe560 1.935 . S
O589 C591 1.421 . S
C590 O578 1.381 . S
C590 O579 1.421 . S
C591 O588 1.381 . S
C591 O589 1.421 . S
Fe592 O593 1.886 . S
Fe592 O596 1.715 . S
Fe592 O601 2.077 1_455 S
Fe592 O606 1.935 1_455 S
Fe592 O612 2.077 . S
Fe592 O621 1.935 . S
O593 Fe592 1.886 . S
O593 Fe595 1.715 . S
Fe594 O596 1.886 . S
Fe594 O597 1.715 . S
Fe594 O604 1.935 1_455 S
Fe594 O605 2.077 1_455 S
Fe594 O611 1.935 . S
Fe594 O620 2.077 . S
Fe595 O593 1.715 . S
Fe595 O598 1.886 . S
Fe595 O602 1.935 1_455 S
Fe595 O607 2.077 1_455 S
Fe595 O613 1.935 . S
Fe595 O617 2.077 . S
O596 Fe592 1.715 . S
O596 Fe594 1.886 . S
O597 Fe594 1.715 . S
O597 Fe599 1.886 . S
O598 Fe595 1.886 . S
O598 Fe599 1.715 . S
Fe599 O597 1.886 . S
Fe599 O598 1.715 . S
Fe599 O603 2.077 1_455 S
Fe599 O608 1.935 1_455 S
Fe599 O610 2.077 . S
Fe599 O618 1.935 . S
C600 O612 1.381 . S
C600 O613 1.421 . S
O601 Fe592 2.077 1_655 S
O601 C614 1.381 . S
O602 Fe595 1.935 1_655 S
O602 C614 1.421 . S
O603 Fe599 2.077 1_655 S
O603 C619 1.381 . S
O604 Fe594 1.935 1_655 S
O604 C619 1.421 . S
O605 Fe594 2.077 1_655 S
O605 C609 1.381 . S
O606 Fe592 1.935 1_655 S
O606 C609 1.421 . S
O607 Fe595 2.077 1_655 S
O607 C615 1.381 . S
O608 Fe599 1.935 1_655 S
O608 C615 1.421 . S
C609 O605 1.381 . S
C609 O606 1.421 . S
O610 Fe599 2.077 . S
O610 C622 1.381 . S
O611 Fe594 1.935 . S
O611 C622 1.421 . S
O612 Fe592 2.077 . S
O612 C600 1.381 . S
O613 Fe595 1.935 . S
O613 C600 1.421 . S
C614 O601 1.381 . S
C614 O602 1.421 . S
C615 O607 1.381 . S
C615 O608 1.421 . S
C616 O617 1.381 . S
C616 O618 1.421 . S
O617 Fe595 2.077 . S
O617 C616 1.381 . S
O618 Fe599 1.935 . S
O618 C616 1.421 . S
C619 O603 1.381 . S
C619 O604 1.421 . S
O620 Fe594 2.077 . S
O620 C623 1.381 . S
O621 Fe592 1.935 . S
O621 C623 1.421 . S
C622 O610 1.381 . S
C622 O611 1.421 . S
C623 O620 1.381 . S
C623 O621 1.421 . S
H624 C642 0.951 . S
H625 C644 0.951 . S
H626 C646 0.950 . S
H627 C647 0.950 . S
H628 C649 0.950 . S
H629 C652 0.950 . S
H630 C653 0.950 1_545 S
H631 C655 0.950 . S
H632 C656 0.950 . S
H633 C657 0.951 . S
H634 C659 0.951 . S
H635 C661 0.950 . S
H636 C662 0.950 . S
H637 C664 0.950 . S
H638 C667 0.950 . S
H639 C668 0.950 . S
H640 C670 0.950 . S
H641 C671 0.950 . S
C642 H624 0.951 . S
C642 C643 1.366 . S
C642 C644 1.388 . S
C643 C642 1.366 . S
C643 C647 1.385 . S
C644 H625 0.951 . S
C644 C642 1.388 . S
C644 C645 1.366 . S
C645 C644 1.366 . S
C645 C646 1.414 . S
C645 C648 1.499 . S
C646 H626 0.950 . S
C646 C645 1.414 . S
C646 C647 1.374 . S
C647 H627 0.950 . S
C647 C643 1.385 . S
C647 C646 1.374 . S
C648 C645 1.499 . S
C648 C649 1.373 . S
C648 C650 1.389 . S
C649 H628 0.950 . S
C649 C648 1.373 . S
C649 C665 1.377 . S
C650 C648 1.389 . S
C650 C651 1.524 . S
C650 C664 1.377 . S
C651 C650 1.524 . S
C651 C652 1.397 . S
C651 C656 1.363 . S
C652 H629 0.950 . S
C652 C651 1.397 . S
C652 C653 1.334 . S
C653 H630 0.950 1_565 S
C653 C652 1.334 . S
C653 C654 1.287 . S
C654 C653 1.287 . S
C654 C655 1.524 . S
C654 H673 0.913 . S
C655 H631 0.950 . S
C655 C654 1.524 . S
C655 C656 1.415 . S
C656 H632 0.950 . S
C656 C651 1.363 . S
C656 C655 1.415 . S
C657 H633 0.951 . S
C657 C658 1.366 . S
C657 C659 1.388 . S
C658 C657 1.366 . S
C658 C662 1.385 . S
C659 H634 0.951 . S
C659 C657 1.388 . S
C659 C660 1.366 . S
C660 C659 1.366 . S
C660 C661 1.414 . S
C660 C663 1.499 . S
C661 H635 0.950 . S
C661 C660 1.414 . S
C661 C662 1.374 . S
C662 H636 0.950 . S
C662 C658 1.385 . S
C662 C661 1.374 . S
C663 C660 1.499 . S
C663 C664 1.373 . S
C663 C665 1.389 . S
C664 H637 0.950 . S
C664 C650 1.377 . S
C664 C663 1.373 . S
C665 C649 1.377 . S
C665 C663 1.389 . S
C665 C666 1.524 . S
C666 C665 1.524 . S
C666 C667 1.397 . S
C666 C671 1.363 . S
C667 H638 0.950 . S
C667 C666 1.397 . S
C667 C668 1.334 . S
C668 H639 0.950 . S
C668 C667 1.334 . S
C668 C669 1.287 . S
C669 C668 1.287 . S
C669 C670 1.524 . S
C669 H672 0.999 . S
C670 H640 0.950 . S
C670 C669 1.524 . S
C670 C671 1.415 . S
C671 H641 0.950 . S
C671 C666 1.363 . S
C671 C670 1.415 . S
H672 C669 0.999 . S
H673 C654 0.913 . S
H674 C692 0.951 . S
H675 C694 0.951 . S
H676 C696 0.950 . S
H677 C697 0.950 . S
H678 C699 0.950 . S
H679 C702 0.950 . S
H680 C703 0.950 . S
H681 C705 0.950 . S
H682 C706 0.950 . S
H683 C707 0.951 . S
H684 C709 0.951 . S
H685 C711 0.950 . S
H686 C712 0.950 . S
H687 C714 0.950 . S
H688 C717 0.950 . S
H689 C718 0.950 . S
H690 C720 0.950 . S
H691 C721 0.950 . S
C692 H674 0.951 . S
C692 C693 1.366 . S
C692 C694 1.388 1_565 S
C693 C692 1.366 . S
C693 C697 1.384 . S
C694 H675 0.951 . S
C694 C692 1.388 1_545 S
C694 C695 1.366 . S
C695 C694 1.366 . S
C695 C696 1.414 . S
C695 C698 1.499 . S
C696 H676 0.950 . S
C696 C695 1.414 . S
C696 C697 1.374 1_545 S
C697 H677 0.950 . S
C697 C693 1.384 . S
C697 C696 1.374 1_565 S
C698 C695 1.499 . S
C698 C699 1.373 . S
C698 C700 1.389 . S
C699 H678 0.950 . S
C699 C698 1.373 . S
C699 C715 1.377 . S
C700 C698 1.389 . S
C700 C701 1.524 . S
C700 C714 1.377 . S
C701 C700 1.524 . S
C701 C702 1.397 . S
C701 C706 1.363 . S
C702 H679 0.950 . S
C702 C701 1.397 . S
C702 C703 1.334 . S
C703 H680 0.950 . S
C703 C702 1.334 . S
C703 C704 1.287 . S
C704 C703 1.287 . S
C704 C705 1.524 . S
C704 H723 0.913 . S
C705 H681 0.950 . S
C705 C704 1.524 . S
C705 C706 1.415 . S
C706 H682 0.950 . S
C706 C701 1.363 . S
C706 C705 1.415 . S
C707 H683 0.951 . S
C707 C708 1.366 . S
C707 C709 1.388 . S
C708 C707 1.366 . S
C708 C712 1.385 . S
C709 H684 0.951 . S
C709 C707 1.388 . S
C709 C710 1.366 . S
C710 C709 1.366 . S
C710 C711 1.414 . S
C710 C713 1.499 . S
C711 H685 0.950 . S
C711 C710 1.414 . S
C711 C712 1.374 . S
C712 H686 0.950 . S
C712 C708 1.385 . S
C712 C711 1.374 . S
C713 C710 1.499 . S
C713 C714 1.373 . S
C713 C715 1.389 . S
C714 H687 0.950 . S
C714 C700 1.377 . S
C714 C713 1.373 . S
C715 C699 1.377 . S
C715 C713 1.389 . S
C715 C716 1.524 . S
C716 C715 1.524 . S
C716 C717 1.397 . S
C716 C721 1.363 . S
C717 H688 0.950 . S
C717 C716 1.397 . S
C717 C718 1.334 . S
C718 H689 0.950 . S
C718 C717 1.334 . S
C718 C719 1.287 . S
C719 C718 1.287 . S
C719 C720 1.524 . S
C719 H722 0.999 . S
C720 H690 0.950 . S
C720 C719 1.524 . S
C720 C721 1.415 . S
C721 H691 0.950 . S
C721 C716 1.363 . S
C721 C720 1.415 . S
H722 C719 0.999 . S
H723 C704 0.913 . S
H724 C742 0.951 . S
H725 C744 0.951 . S
H726 C746 0.950 . S
H727 C747 0.950 . S
H728 C749 0.950 . S
H729 C752 0.950 . S
H730 C753 0.950 . S
H731 C755 0.950 . S
H732 C756 0.950 . S
H733 C757 0.951 . S
H734 C759 0.951 . S
H735 C761 0.950 . S
H736 C762 0.950 . S
H737 C764 0.950 . S
H738 C767 0.950 . S
H739 C768 0.950 . S
H740 C770 0.950 . S
H741 C771 0.950 . S
C742 H724 0.951 . S
C742 C743 1.366 . S
C742 C744 1.388 . S
C743 C742 1.366 . S
C743 C747 1.385 . S
C744 H725 0.951 . S
C744 C742 1.388 . S
C744 C745 1.366 . S
C745 C744 1.366 . S
C745 C746 1.414 . S
C745 C748 1.499 . S
C746 H726 0.950 . S
C746 C745 1.414 . S
C746 C747 1.374 . S
C747 H727 0.950 . S
C747 C743 1.385 . S
C747 C746 1.374 . S
C748 C745 1.499 . S
C748 C749 1.373 . S
C748 C750 1.389 . S
C749 H728 0.950 . S
C749 C748 1.373 . S
C749 C765 1.377 . S
C750 C748 1.389 . S
C750 C751 1.524 . S
C750 C764 1.377 . S
C751 C750 1.524 . S
C751 C752 1.397 . S
C751 C756 1.363 . S
C752 H729 0.950 . S
C752 C751 1.397 . S
C752 C753 1.334 . S
C753 H730 0.950 . S
C753 C752 1.334 . S
C753 C754 1.287 . S
C754 C753 1.287 . S
C754 C755 1.524 . S
C754 H773 0.913 . S
C755 H731 0.950 . S
C755 C754 1.524 . S
C755 C756 1.415 . S
C756 H732 0.950 . S
C756 C751 1.363 . S
C756 C755 1.415 . S
C757 H733 0.951 . S
C757 C758 1.366 . S
C757 C759 1.388 . S
C758 C757 1.366 . S
C758 C762 1.385 . S
C759 H734 0.951 . S
C759 C757 1.388 . S
C759 C760 1.366 . S
C760 C759 1.366 . S
C760 C761 1.414 . S
C760 C763 1.499 . S
C761 H735 0.950 . S
C761 C760 1.414 . S
C761 C762 1.374 . S
C762 H736 0.950 . S
C762 C758 1.385 . S
C762 C761 1.374 . S
C763 C760 1.499 . S
C763 C764 1.373 . S
C763 C765 1.389 . S
C764 H737 0.950 . S
C764 C750 1.377 . S
C764 C763 1.373 . S
C765 C749 1.377 . S
C765 C763 1.389 . S
C765 C766 1.524 . S
C766 C765 1.524 . S
C766 C767 1.397 . S
C766 C771 1.363 . S
C767 H738 0.950 . S
C767 C766 1.397 . S
C767 C768 1.334 . S
C768 H739 0.950 . S
C768 C767 1.334 . S
C768 C769 1.287 . S
C769 C768 1.287 . S
C769 C770 1.524 . S
C769 H772 0.999 . S
C770 H740 0.950 . S
C770 C769 1.524 . S
C770 C771 1.415 . S
C771 H741 0.950 . S
C771 C766 1.363 . S
C771 C770 1.415 . S
H772 C769 0.999 . S
H773 C754 0.913 . S
H774 C792 0.951 . S
H775 C794 0.951 . S
H776 C796 0.950 . S
H777 C797 0.950 . S
H778 C799 0.950 . S
H779 C802 0.950 . S
H780 C803 0.950 . S
H781 C805 0.950 . S
H782 C806 0.950 . S
H783 C807 0.951 . S
H784 C809 0.951 . S
H785 C811 0.950 . S
H786 C812 0.950 . S
H787 C814 0.950 . S
H788 C817 0.950 . S
H789 C818 0.950 . S
H790 C820 0.950 1_655 S
H791 C821 0.950 . S
C792 H774 0.951 . S
C792 C793 1.366 . S
C792 C794 1.388 1_545 S
C793 C792 1.366 . S
C793 C797 1.385 . S
C794 H775 0.951 . S
C794 C792 1.388 1_565 S
C794 C795 1.366 . S
C795 C794 1.366 . S
C795 C796 1.414 1_565 S
C795 C798 1.499 . S
C796 H776 0.950 . S
C796 C795 1.414 1_545 S
C796 C797 1.374 . S
C797 H777 0.950 . S
C797 C793 1.385 . S
C797 C796 1.374 . S
C798 C795 1.499 . S
C798 C799 1.373 . S
C798 C800 1.389 . S
C799 H778 0.950 . S
C799 C798 1.373 . S
C799 C815 1.377 . S
C800 C798 1.389 . S
C800 C801 1.524 . S
C800 C814 1.377 . S
C801 C800 1.524 . S
C801 C802 1.397 1_565 S
C801 C806 1.363 . S
C802 H779 0.950 . S
C802 C801 1.397 1_545 S
C802 C803 1.334 . S
C803 H780 0.950 . S
C803 C802 1.334 . S
C803 C804 1.287 . S
C804 C803 1.287 . S
C804 C805 1.524 1_545 S
C804 H823 0.913 . S
C805 H781 0.950 . S
C805 C804 1.524 1_565 S
C805 C806 1.415 . S
C806 H782 0.950 . S
C806 C801 1.363 . S
C806 C805 1.415 . S
C807 H783 0.951 . S
C807 C808 1.366 . S
C807 C809 1.388 . S
C808 C807 1.366 . S
C808 C812 1.385 . S
C809 H784 0.951 . S
C809 C807 1.388 . S
C809 C810 1.366 . S
C810 C809 1.366 . S
C810 C811 1.414 . S
C810 C813 1.499 . S
C811 H785 0.950 . S
C811 C810 1.414 . S
C811 C812 1.374 . S
C812 H786 0.950 . S
C812 C808 1.385 . S
C812 C811 1.374 . S
C813 C810 1.499 . S
C813 C814 1.373 . S
C813 C815 1.389 . S
C814 H787 0.950 . S
C814 C800 1.377 . S
C814 C813 1.373 . S
C815 C799 1.377 . S
C815 C813 1.389 . S
C815 C816 1.524 . S
C816 C815 1.524 . S
C816 C817 1.397 . S
C816 C821 1.363 . S
C817 H788 0.950 . S
C817 C816 1.397 . S
C817 C818 1.334 . S
C818 H789 0.950 . S
C818 C817 1.334 . S
C818 C819 1.287 . S
C819 C818 1.287 . S
C819 C820 1.524 . S
C819 H822 1.004 . S
C820 H790 0.950 1_455 S
C820 C819 1.524 . S
C820 C821 1.415 . S
C821 H791 0.950 . S
C821 C816 1.363 . S
C821 C820 1.415 . S
H822 C819 1.004 . S
H823 C804 0.913 . S
H824 C842 0.951 . S
H825 C844 0.951 . S
H826 C846 0.950 . S
H827 C847 0.950 . S
H828 C849 0.950 . S
H829 C852 0.950 . S
H830 C853 0.950 . S
H831 C855 0.950 . S
H832 C856 0.950 . S
H833 C857 0.951 . S
H834 C859 0.951 . S
H835 C861 0.950 . S
H836 C862 0.950 . S
H837 C864 0.950 . S
H838 C867 0.950 . S
H839 C868 0.950 . S
H840 C870 0.950 . S
H841 C871 0.950 . S
C842 H824 0.951 . S
C842 C843 1.366 . S
C842 C844 1.388 . S
C843 C842 1.366 . S
C843 C847 1.385 . S
C844 H825 0.951 . S
C844 C842 1.388 . S
C844 C845 1.366 . S
C845 C844 1.366 . S
C845 C846 1.414 . S
C845 C848 1.499 . S
C846 H826 0.950 . S
C846 C845 1.414 . S
C846 C847 1.374 . S
C847 H827 0.950 . S
C847 C843 1.385 . S
C847 C846 1.374 . S
C848 C845 1.499 . S
C848 C849 1.373 . S
C848 C850 1.389 . S
C849 H828 0.950 . S
C849 C848 1.373 . S
C849 C865 1.377 . S
C850 C848 1.389 . S
C850 C851 1.524 . S
C850 C864 1.377 . S
C851 C850 1.524 . S
C851 C852 1.397 . S
C851 C856 1.363 . S
C852 H829 0.950 . S
C852 C851 1.397 . S
C852 C853 1.334 . S
C853 H830 0.950 . S
C853 C852 1.334 . S
C853 C854 1.287 . S
C854 C853 1.287 . S
C854 C855 1.524 . S
C854 H873 0.913 . S
C855 H831 0.950 . S
C855 C854 1.524 . S
C855 C856 1.415 . S
C856 H832 0.950 . S
C856 C851 1.363 . S
C856 C855 1.415 . S
C857 H833 0.951 . S
C857 C858 1.366 . S
C857 C859 1.388 . S
C858 C857 1.366 . S
C858 C862 1.385 . S
C859 H834 0.951 . S
C859 C857 1.388 . S
C859 C860 1.366 . S
C860 C859 1.366 . S
C860 C861 1.414 . S
C860 C863 1.499 . S
C861 H835 0.950 . S
C861 C860 1.414 . S
C861 C862 1.374 . S
C862 H836 0.950 . S
C862 C858 1.385 . S
C862 C861 1.374 . S
C863 C860 1.499 . S
C863 C864 1.373 . S
C863 C865 1.389 . S
C864 H837 0.950 . S
C864 C850 1.377 . S
C864 C863 1.373 . S
C865 C849 1.377 . S
C865 C863 1.389 . S
C865 C866 1.524 . S
C866 C865 1.524 . S
C866 C867 1.397 . S
C866 C871 1.363 . S
C867 H838 0.950 . S
C867 C866 1.397 . S
C867 C868 1.334 . S
C868 H839 0.950 . S
C868 C867 1.334 . S
C868 C869 1.287 . S
C869 C868 1.287 . S
C869 C870 1.524 . S
C869 H872 0.999 . S
C870 H840 0.950 . S
C870 C869 1.524 . S
C870 C871 1.415 . S
C871 H841 0.950 . S
C871 C866 1.363 . S
C871 C870 1.415 . S
H872 C869 0.999 . S
H873 C854 0.913 . S
H874 C892 0.951 . S
H875 C894 0.951 . S
H876 C896 0.959 . S
H877 C897 0.950 . S
H878 C899 0.950 . S
H879 C902 0.950 . S
H880 C903 0.950 . S
H881 C905 0.950 . S
H882 C906 0.950 . S
H883 C907 0.951 . S
H884 C909 0.951 . S
H885 C911 0.950 . S
H886 C912 0.950 . S
H887 C914 0.950 . S
H888 C917 0.950 . S
H889 C918 0.950 . S
H890 C920 0.950 . S
H891 C921 0.950 . S
C892 H874 0.951 . S
C892 C893 1.366 . S
C892 C894 1.388 . S
C893 C892 1.366 . S
C893 C897 1.385 . S
C894 H875 0.951 . S
C894 C892 1.388 . S
C894 C895 1.366 1_565 S
C895 C894 1.366 1_545 S
C895 C896 1.417 . S
C895 C898 1.499 . S
C896 H876 0.959 . S
C896 C895 1.417 . S
C896 C897 1.363 1_545 S
C897 H877 0.950 . S
C897 C893 1.385 . S
C897 C896 1.363 1_565 S
C898 C895 1.499 . S
C898 C899 1.373 . S
C898 C900 1.389 . S
C899 H878 0.950 . S
C899 C898 1.373 . S
C899 C915 1.377 . S
C900 C898 1.389 . S
C900 C901 1.524 . S
C900 C914 1.377 . S
C901 C900 1.524 . S
C901 C902 1.397 . S
C901 C906 1.363 . S
C902 H879 0.950 . S
C902 C901 1.397 . S
C902 C903 1.334 . S
C903 H880 0.950 . S
C903 C902 1.334 . S
C903 C904 1.287 . S
C904 C903 1.287 . S
C904 C905 1.524 . S
C904 H923 0.913 . S
C905 H881 0.950 . S
C905 C904 1.524 . S
C905 C906 1.415 . S
C906 H882 0.950 . S
C906 C901 1.363 . S
C906 C905 1.415 . S
C907 H883 0.951 . S
C907 C908 1.366 . S
C907 C909 1.388 . S
C908 C907 1.366 . S
C908 C912 1.385 . S
C909 H884 0.951 . S
C909 C907 1.388 . S
C909 C910 1.366 . S
C910 C909 1.366 . S
C910 C911 1.414 . S
C910 C913 1.499 . S
C911 H885 0.950 . S
C911 C910 1.414 . S
C911 C912 1.374 . S
C912 H886 0.950 . S
C912 C908 1.385 . S
C912 C911 1.374 . S
C913 C910 1.499 . S
C913 C914 1.373 . S
C913 C915 1.389 . S
C914 H887 0.950 . S
C914 C900 1.377 . S
C914 C913 1.373 . S
C915 C899 1.377 . S
C915 C913 1.389 . S
C915 C916 1.524 . S
C916 C915 1.524 . S
C916 C917 1.397 . S
C916 C921 1.363 . S
C917 H888 0.950 . S
C917 C916 1.397 . S
C917 C918 1.334 . S
C918 H889 0.950 . S
C918 C917 1.334 . S
C918 C919 1.287 . S
C919 C918 1.287 . S
C919 C920 1.524 . S
C919 H922 0.999 . S
C920 H890 0.950 . S
C920 C919 1.524 . S
C920 C921 1.415 . S
C921 H891 0.950 . S
C921 C916 1.363 . S
C921 C920 1.415 . S
H922 C919 0.999 . S
H923 C904 0.913 . S
H924 C942 0.951 . S
H925 C944 0.951 . S
H926 C946 0.950 . S
H927 C947 0.950 . S
H928 C949 0.950 . S
H929 C952 0.950 . S
H930 C953 0.950 . S
H931 C955 0.950 . S
H932 C956 0.950 . S
H933 C957 0.951 . S
H934 C959 0.951 . S
H935 C961 0.950 . S
H936 C962 0.950 . S
H937 C964 0.950 . S
H938 C967 0.950 . S
H939 C968 0.950 . S
H940 C970 0.950 1_545 S
H941 C971 0.950 . S
C942 H924 0.951 . S
C942 C943 1.366 . S
C942 C944 1.388 . S
C943 C942 1.366 . S
C943 C947 1.385 . S
C944 H925 0.951 . S
C944 C942 1.388 . S
C944 C945 1.366 . S
C945 C944 1.366 . S
C945 C946 1.414 . S
C945 C948 1.499 . S
C946 H926 0.950 . S
C946 C945 1.414 . S
C946 C947 1.374 . S
C947 H927 0.950 . S
C947 C943 1.385 . S
C947 C946 1.374 . S
C948 C945 1.499 . S
C948 C949 1.373 . S
C948 C950 1.389 . S
C949 H928 0.950 . S
C949 C948 1.373 . S
C949 C965 1.377 . S
C950 C948 1.389 . S
C950 C951 1.524 . S
C950 C964 1.377 . S
C951 C950 1.524 . S
C951 C952 1.397 . S
C951 C956 1.363 . S
C952 H929 0.950 . S
C952 C951 1.397 . S
C952 C953 1.334 . S
C953 H930 0.950 . S
C953 C952 1.334 . S
C953 C954 1.287 . S
C954 C953 1.287 . S
C954 C955 1.524 . S
C954 H973 0.913 . S
C955 H931 0.950 . S
C955 C954 1.524 . S
C955 C956 1.415 . S
C956 H932 0.950 . S
C956 C951 1.363 . S
C956 C955 1.415 . S
C957 H933 0.951 . S
C957 C958 1.366 . S
C957 C959 1.388 . S
C958 C957 1.366 . S
C958 C962 1.385 . S
C959 H934 0.951 . S
C959 C957 1.388 . S
C959 C960 1.366 . S
C960 C959 1.366 . S
C960 C961 1.414 . S
C960 C963 1.499 . S
C961 H935 0.950 . S
C961 C960 1.414 . S
C961 C962 1.374 . S
C962 H936 0.950 . S
C962 C958 1.385 . S
C962 C961 1.374 . S
C963 C960 1.499 . S
C963 C964 1.373 . S
C963 C965 1.389 . S
C964 H937 0.950 . S
C964 C950 1.377 . S
C964 C963 1.373 . S
C965 C949 1.377 . S
C965 C963 1.389 . S
C965 C966 1.524 . S
C966 C965 1.524 . S
C966 C967 1.397 . S
C966 C971 1.363 . S
C967 H938 0.950 . S
C967 C966 1.397 . S
C967 C968 1.334 . S
C968 H939 0.950 . S
C968 C967 1.334 . S
C968 C969 1.287 . S
C969 C968 1.287 . S
C969 C970 1.524 . S
C969 H972 0.999 1_565 S
C970 H940 0.950 1_565 S
C970 C969 1.524 . S
C970 C971 1.415 . S
C971 H941 0.950 . S
C971 C966 1.363 . S
C971 C970 1.415 . S
H972 C969 0.999 1_545 S
H973 C954 0.913 . S
H974 C992 0.951 . S
H975 C994 0.951 . S
H976 C996 0.950 1_565 S
H977 C997 0.950 . S
H978 C999 0.950 . S
H979 C1002 0.950 . S
H980 C1003 0.950 . S
H981 C1005 0.950 . S
H982 C1006 0.950 . S
H983 C1007 0.951 . S
H984 C1009 0.951 . S
H985 C1011 0.950 . S
H986 C1012 0.950 . S
H987 C1014 0.950 . S
H988 C1017 0.950 . S
H989 C1018 0.950 . S
H990 C1020 0.950 . S
H991 C1021 0.950 . S
C992 H974 0.951 . S
C992 C993 1.366 . S
C992 C994 1.388 . S
C993 C992 1.366 . S
C993 C997 1.385 . S
C994 H975 0.951 . S
C994 C992 1.388 . S
C994 C995 1.366 . S
C995 C994 1.366 . S
C995 C996 1.414 . S
C995 C998 1.499 1_545 S
C996 H976 0.950 1_545 S
C996 C995 1.414 . S
C996 C997 1.374 . S
C997 H977 0.950 . S
C997 C993 1.385 . S
C997 C996 1.374 . S
C998 C995 1.499 1_565 S
C998 C999 1.373 . S
C998 C1000 1.389 . S
C999 H978 0.950 . S
C999 C998 1.373 . S
C999 C1015 1.377 . S
C1000 C998 1.389 . S
C1000 C1001 1.524 . S
C1000 C1014 1.377 . S
C1001 C1000 1.524 . S
C1001 C1002 1.397 . S
C1001 C1006 1.363 1_565 S
C1002 H979 0.950 . S
C1002 C1001 1.397 . S
C1002 C1003 1.334 1_565 S
C1003 H980 0.950 . S
C1003 C1002 1.334 1_545 S
C1003 C1004 1.287 . S
C1004 C1003 1.287 . S
C1004 C1005 1.524 . S
C1004 H1023 0.913 . S
C1005 H981 0.950 . S
C1005 C1004 1.524 . S
C1005 C1006 1.415 . S
C1006 H982 0.950 . S
C1006 C1001 1.363 1_545 S
C1006 C1005 1.415 . S
C1007 H983 0.951 . S
C1007 C1008 1.366 . S
C1007 C1009 1.388 . S
C1008 C1007 1.366 . S
C1008 C1012 1.385 . S
C1009 H984 0.951 . S
C1009 C1007 1.388 . S
C1009 C1010 1.366 . S
C1010 C1009 1.366 . S
C1010 C1011 1.414 . S
C1010 C1013 1.499 . S
C1011 H985 0.950 . S
C1011 C1010 1.414 . S
C1011 C1012 1.374 . S
C1012 H986 0.950 . S
C1012 C1008 1.385 . S
C1012 C1011 1.374 . S
C1013 C1010 1.499 . S
C1013 C1014 1.373 . S
C1013 C1015 1.389 . S
C1014 H987 0.950 . S
C1014 C1000 1.377 . S
C1014 C1013 1.373 . S
C1015 C999 1.377 . S
C1015 C1013 1.389 . S
C1015 C1016 1.524 . S
C1016 C1015 1.524 . S
C1016 C1017 1.397 . S
C1016 C1021 1.363 . S
C1017 H988 0.950 . S
C1017 C1016 1.397 . S
C1017 C1018 1.334 . S
C1018 H989 0.950 . S
C1018 C1017 1.334 . S
C1018 C1019 1.287 . S
C1019 C1018 1.287 . S
C1019 C1020 1.524 . S
C1019 H1022 0.999 . S
C1020 H990 0.950 . S
C1020 C1019 1.524 . S
C1020 C1021 1.415 . S
C1021 H991 0.950 . S
C1021 C1016 1.363 . S
C1021 C1020 1.415 . S
H1022 C1019 0.999 . S
H1023 C1004 0.913 . S
H1024 C1042 0.951 . S
H1025 C1044 0.951 . S
H1026 C1046 0.950 . S
H1027 C1047 0.950 . S
H1028 C1049 0.950 . S
H1029 C1052 0.950 . S
H1030 C1053 0.950 . S
H1031 C1055 0.950 . S
H1032 C1056 0.950 . S
H1033 C1057 0.951 . S
H1034 C1059 0.951 . S
H1035 C1061 0.950 . S
H1036 C1062 0.950 . S
H1037 C1064 0.950 . S
H1038 C1067 0.950 . S
H1039 C1068 0.950 . S
H1040 C1070 0.950 . S
H1041 C1071 0.950 . S
C1042 H1024 0.951 . S
C1042 C1043 1.366 . S
C1042 C1044 1.388 . S
C1043 C1042 1.366 . S
C1043 C1047 1.385 . S
C1044 H1025 0.951 . S
C1044 C1042 1.388 . S
C1044 C1045 1.366 . S
C1045 C1044 1.366 . S
C1045 C1046 1.414 . S
C1045 C1048 1.499 . S
C1046 H1026 0.950 . S
C1046 C1045 1.414 . S
C1046 C1047 1.374 . S
C1047 H1027 0.950 . S
C1047 C1043 1.385 . S
C1047 C1046 1.374 . S
C1048 C1045 1.499 . S
C1048 C1049 1.373 . S
C1048 C1050 1.389 . S
C1049 H1028 0.950 . S
C1049 C1048 1.373 . S
C1049 C1065 1.377 . S
C1050 C1048 1.389 . S
C1050 C1051 1.524 . S
C1050 C1064 1.377 . S
C1051 C1050 1.524 . S
C1051 C1052 1.397 . S
C1051 C1056 1.363 . S
C1052 H1029 0.950 . S
C1052 C1051 1.397 . S
C1052 C1053 1.334 . S
C1053 H1030 0.950 . S
C1053 C1052 1.334 . S
C1053 C1054 1.287 . S
C1054 C1053 1.287 . S
C1054 C1055 1.524 . S
C1054 H1073 0.913 . S
C1055 H1031 0.950 . S
C1055 C1054 1.524 . S
C1055 C1056 1.415 . S
C1056 H1032 0.950 . S
C1056 C1051 1.363 . S
C1056 C1055 1.415 . S
C1057 H1033 0.951 . S
C1057 C1058 1.366 . S
C1057 C1059 1.388 . S
C1058 C1057 1.366 . S
C1058 C1062 1.385 . S
C1059 H1034 0.951 . S
C1059 C1057 1.388 . S
C1059 C1060 1.366 . S
C1060 C1059 1.366 . S
C1060 C1061 1.414 . S
C1060 C1063 1.499 . S
C1061 H1035 0.950 . S
C1061 C1060 1.414 . S
C1061 C1062 1.374 . S
C1062 H1036 0.950 . S
C1062 C1058 1.385 . S
C1062 C1061 1.374 . S
C1063 C1060 1.499 . S
C1063 C1064 1.373 . S
C1063 C1065 1.389 . S
C1064 H1037 0.950 . S
C1064 C1050 1.377 . S
C1064 C1063 1.373 . S
C1065 C1049 1.377 . S
C1065 C1063 1.389 . S
C1065 C1066 1.524 . S
C1066 C1065 1.524 . S
C1066 C1067 1.397 . S
C1066 C1071 1.363 . S
C1067 H1038 0.950 . S
C1067 C1066 1.397 . S
C1067 C1068 1.334 . S
C1068 H1039 0.950 . S
C1068 C1067 1.334 . S
C1068 C1069 1.287 . S
C1069 C1068 1.287 . S
C1069 C1070 1.524 . S
C1069 H1072 0.999 . S
C1070 H1040 0.950 . S
C1070 C1069 1.524 . S
C1070 C1071 1.415 . S
C1071 H1041 0.950 . S
C1071 C1066 1.363 . S
C1071 C1070 1.415 . S
H1072 C1069 0.999 . S
H1073 C1054 0.913 . S
H1074 C1092 0.951 . S
H1075 C1094 0.951 . S
H1076 C1096 0.950 1_565 S
H1077 C1097 0.950 . S
H1078 C1099 0.950 . S
H1079 C1102 0.950 . S
H1080 C1103 0.950 . S
H1081 C1105 0.950 . S
H1082 C1106 0.950 . S
H1083 C1107 0.951 . S
H1084 C1109 0.951 . S
H1085 C1111 0.950 . S
H1086 C1112 0.950 . S
H1087 C1114 0.950 . S
H1088 C1117 0.950 . S
H1089 C1118 0.950 . S
H1090 C1120 0.950 . S
H1091 C1121 0.950 . S
C1092 H1074 0.951 . S
C1092 C1093 1.366 . S
C1092 C1094 1.388 . S
C1093 C1092 1.366 . S
C1093 C1097 1.385 . S
C1094 H1075 0.951 . S
C1094 C1092 1.388 . S
C1094 C1095 1.366 . S
C1095 C1094 1.366 . S
C1095 C1096 1.414 . S
C1095 C1098 1.499 1_545 S
C1096 H1076 0.950 1_545 S
C1096 C1095 1.414 . S
C1096 C1097 1.374 . S
C1097 H1077 0.950 . S
C1097 C1093 1.385 . S
C1097 C1096 1.374 . S
C1098 C1095 1.499 1_565 S
C1098 C1099 1.373 . S
C1098 C1100 1.389 . S
C1099 H1078 0.950 . S
C1099 C1098 1.373 . S
C1099 C1115 1.377 . S
C1100 C1098 1.389 . S
C1100 C1101 1.524 1_565 S
C1100 C1114 1.377 . S
C1101 C1100 1.524 1_545 S
C1101 C1102 1.397 . S
C1101 C1106 1.363 . S
C1102 H1079 0.950 . S
C1102 C1101 1.397 . S
C1102 C1103 1.334 . S
C1103 H1080 0.950 . S
C1103 C1102 1.334 . S
C1103 C1104 1.287 . S
C1104 C1103 1.287 . S
C1104 C1105 1.524 . S
C1104 H1123 0.913 . S
C1105 H1081 0.950 . S
C1105 C1104 1.524 . S
C1105 C1106 1.415 . S
C1106 H1082 0.950 . S
C1106 C1101 1.363 . S
C1106 C1105 1.415 . S
C1107 H1083 0.951 . S
C1107 C1108 1.366 . S
C1107 C1109 1.388 . S
C1108 C1107 1.366 . S
C1108 C1112 1.385 . S
C1109 H1084 0.951 . S
C1109 C1107 1.388 . S
C1109 C1110 1.366 . S
C1110 C1109 1.366 . S
C1110 C1111 1.414 . S
C1110 C1113 1.499 . S
C1111 H1085 0.950 . S
C1111 C1110 1.414 . S
C1111 C1112 1.374 . S
C1112 H1086 0.950 . S
C1112 C1108 1.385 . S
C1112 C1111 1.374 . S
C1113 C1110 1.499 . S
C1113 C1114 1.373 . S
C1113 C1115 1.389 . S
C1114 H1087 0.950 . S
C1114 C1100 1.377 . S
C1114 C1113 1.373 . S
C1115 C1099 1.377 . S
C1115 C1113 1.389 . S
C1115 C1116 1.524 . S
C1116 C1115 1.524 . S
C1116 C1117 1.397 . S
C1116 C1121 1.363 . S
C1117 H1088 0.950 . S
C1117 C1116 1.397 . S
C1117 C1118 1.334 . S
C1118 H1089 0.950 . S
C1118 C1117 1.334 . S
C1118 C1119 1.287 . S
C1119 C1118 1.287 . S
C1119 C1120 1.524 . S
C1119 H1122 0.999 . S
C1120 H1090 0.950 . S
C1120 C1119 1.524 . S
C1120 C1121 1.415 . S
C1121 H1091 0.950 . S
C1121 C1116 1.363 . S
C1121 C1120 1.415 . S
H1122 C1119 0.999 . S
H1123 C1104 0.913 . S
H1124 C1142 0.951 . S
H1125 C1144 0.951 . S
H1126 C1146 0.950 . S
H1127 C1147 0.950 . S
H1128 C1149 0.950 . S
H1129 C1152 0.950 . S
H1130 C1153 0.950 . S
H1131 C1155 0.950 . S
H1132 C1156 0.950 . S
H1133 C1157 0.951 . S
H1134 C1159 0.951 . S
H1135 C1161 0.950 . S
H1136 C1162 0.950 . S
H1137 C1164 0.950 . S
H1138 C1167 0.950 . S
H1139 C1168 0.950 . S
H1140 C1170 0.950 . S
H1141 C1171 0.950 . S
C1142 H1124 0.951 . S
C1142 C1143 1.366 . S
C1142 C1144 1.388 . S
C1143 C1142 1.366 . S
C1143 C1147 1.385 . S
C1144 H1125 0.951 . S
C1144 C1142 1.388 . S
C1144 C1145 1.366 . S
C1145 C1144 1.366 . S
C1145 C1146 1.414 . S
C1145 C1148 1.499 . S
C1146 H1126 0.950 . S
C1146 C1145 1.414 . S
C1146 C1147 1.374 . S
C1147 H1127 0.950 . S
C1147 C1143 1.385 . S
C1147 C1146 1.374 . S
C1148 C1145 1.499 . S
C1148 C1149 1.373 . S
C1148 C1150 1.389 . S
C1149 H1128 0.950 . S
C1149 C1148 1.373 . S
C1149 C1165 1.377 . S
C1150 C1148 1.389 . S
C1150 C1151 1.524 . S
C1150 C1164 1.377 . S
C1151 C1150 1.524 . S
C1151 C1152 1.397 . S
C1151 C1156 1.363 . S
C1152 H1129 0.950 . S
C1152 C1151 1.397 . S
C1152 C1153 1.334 . S
C1153 H1130 0.950 . S
C1153 C1152 1.334 . S
C1153 C1154 1.287 . S
C1154 C1153 1.287 . S
C1154 C1155 1.524 . S
C1154 H1173 0.913 . S
C1155 H1131 0.950 . S
C1155 C1154 1.524 . S
C1155 C1156 1.415 . S
C1156 H1132 0.950 . S
C1156 C1151 1.363 . S
C1156 C1155 1.415 . S
C1157 H1133 0.951 . S
C1157 C1158 1.366 . S
C1157 C1159 1.388 . S
C1158 C1157 1.366 . S
C1158 C1162 1.385 . S
C1159 H1134 0.951 . S
C1159 C1157 1.388 . S
C1159 C1160 1.366 . S
C1160 C1159 1.366 . S
C1160 C1161 1.414 . S
C1160 C1163 1.499 . S
C1161 H1135 0.950 . S
C1161 C1160 1.414 . S
C1161 C1162 1.374 . S
C1162 H1136 0.950 . S
C1162 C1158 1.385 . S
C1162 C1161 1.374 . S
C1163 C1160 1.499 . S
C1163 C1164 1.373 . S
C1163 C1165 1.389 . S
C1164 H1137 0.950 . S
C1164 C1150 1.377 . S
C1164 C1163 1.373 . S
C1165 C1149 1.377 . S
C1165 C1163 1.389 . S
C1165 C1166 1.524 . S
C1166 C1165 1.524 . S
C1166 C1167 1.397 . S
C1166 C1171 1.363 . S
C1167 H1138 0.950 . S
C1167 C1166 1.397 . S
C1167 C1168 1.334 . S
C1168 H1139 0.950 . S
C1168 C1167 1.334 . S
C1168 C1169 1.287 . S
C1169 C1168 1.287 . S
C1169 C1170 1.524 . S
C1169 H1172 0.999 . S
C1170 H1140 0.950 . S
C1170 C1169 1.524 . S
C1170 C1171 1.415 . S
C1171 H1141 0.950 . S
C1171 C1166 1.363 . S
C1171 C1170 1.415 . S
H1172 C1169 0.999 . S
H1173 C1154 0.913 . S
H1174 C1192 0.951 . S
H1175 C1194 0.951 . S
H1176 C1196 0.950 . S
H1177 C1197 0.950 . S
H1178 C1199 0.950 . S
H1179 C1202 0.950 1_545 S
H1180 C1203 0.950 . S
H1181 C1205 0.950 . S
H1182 C1206 0.950 . S
H1183 C1207 0.951 . S
H1184 C1209 0.951 . S
H1185 C1211 0.950 . S
H1186 C1212 0.950 . S
H1187 C1214 0.950 . S
H1188 C1217 0.950 . S
H1189 C1218 0.950 . S
H1190 C1220 0.950 . S
H1191 C1221 0.950 . S
C1192 H1174 0.951 . S
C1192 C1193 1.366 . S
C1192 C1194 1.388 . S
C1193 C1192 1.366 . S
C1193 C1197 1.385 . S
C1194 H1175 0.951 . S
C1194 C1192 1.388 . S
C1194 C1195 1.366 1_565 S
C1195 C1194 1.366 1_545 S
C1195 C1196 1.414 . S
C1195 C1198 1.499 . S
C1196 H1176 0.950 . S
C1196 C1195 1.414 . S
C1196 C1197 1.374 1_545 S
C1197 H1177 0.950 . S
C1197 C1193 1.385 . S
C1197 C1196 1.374 1_565 S
C1198 C1195 1.499 . S
C1198 C1199 1.373 . S
C1198 C1200 1.389 . S
C1199 H1178 0.950 . S
C1199 C1198 1.373 . S
C1199 C1215 1.377 . S
C1200 C1198 1.389 . S
C1200 C1201 1.524 . S
C1200 C1214 1.377 . S
C1201 C1200 1.524 . S
C1201 C1202 1.397 1_545 S
C1201 C1206 1.363 1_545 S
C1202 H1179 0.950 1_565 S
C1202 C1201 1.397 1_565 S
C1202 C1203 1.334 . S
C1203 H1180 0.950 . S
C1203 C1202 1.334 . S
C1203 C1204 1.287 . S
C1204 C1203 1.287 . S
C1204 C1205 1.524 . S
C1204 H1223 0.913 . S
C1205 H1181 0.950 . S
C1205 C1204 1.524 . S
C1205 C1206 1.415 . S
C1206 H1182 0.950 . S
C1206 C1201 1.363 1_565 S
C1206 C1205 1.415 . S
C1207 H1183 0.951 . S
C1207 C1208 1.366 . S
C1207 C1209 1.388 . S
C1208 C1207 1.366 . S
C1208 C1212 1.385 . S
C1209 H1184 0.951 . S
C1209 C1207 1.388 . S
C1209 C1210 1.366 . S
C1210 C1209 1.366 . S
C1210 C1211 1.414 . S
C1210 C1213 1.499 . S
C1211 H1185 0.950 . S
C1211 C1210 1.414 . S
C1211 C1212 1.374 . S
C1212 H1186 0.950 . S
C1212 C1208 1.385 . S
C1212 C1211 1.374 . S
C1213 C1210 1.499 . S
C1213 C1214 1.373 . S
C1213 C1215 1.389 . S
C1214 H1187 0.950 . S
C1214 C1200 1.377 . S
C1214 C1213 1.373 . S
C1215 C1199 1.377 . S
C1215 C1213 1.389 . S
C1215 C1216 1.524 . S
C1216 C1215 1.524 . S
C1216 C1217 1.397 . S
C1216 C1221 1.363 . S
C1217 H1188 0.950 . S
C1217 C1216 1.397 . S
C1217 C1218 1.334 . S
C1218 H1189 0.950 . S
C1218 C1217 1.334 . S
C1218 C1219 1.287 . S
C1219 C1218 1.287 . S
C1219 C1220 1.524 . S
C1219 H1222 0.999 . S
C1220 H1190 0.950 . S
C1220 C1219 1.524 . S
C1220 C1221 1.415 . S
C1221 H1191 0.950 . S
C1221 C1216 1.363 . S
C1221 C1220 1.415 . S
H1222 C1219 0.999 . S
H1223 C1204 0.913 . S
H1224 C1242 0.951 . S
H1225 C1244 0.951 . S
H1226 C1246 0.950 . S
H1227 C1247 0.950 . S
H1228 C1249 0.950 . S
H1229 C1252 0.950 . S
H1230 C1253 0.950 . S
H1231 C1255 0.950 . S
H1232 C1256 0.950 . S
H1233 C1257 0.951 . S
H1234 C1259 0.951 . S
H1235 C1261 0.950 . S
H1236 C1262 0.950 . S
H1237 C1264 0.950 . S
H1238 C1267 0.950 . S
H1239 C1268 0.950 . S
H1240 C1270 0.950 . S
H1241 C1271 0.950 . S
C1242 H1224 0.951 . S
C1242 C1243 1.366 . S
C1242 C1244 1.388 . S
C1243 C1242 1.366 . S
C1243 C1247 1.385 . S
C1244 H1225 0.951 . S
C1244 C1242 1.388 . S
C1244 C1245 1.366 . S
C1245 C1244 1.366 . S
C1245 C1246 1.414 . S
C1245 C1248 1.499 . S
C1246 H1226 0.950 . S
C1246 C1245 1.414 . S
C1246 C1247 1.374 . S
C1247 H1227 0.950 . S
C1247 C1243 1.385 . S
C1247 C1246 1.374 . S
C1248 C1245 1.499 . S
C1248 C1249 1.373 . S
C1248 C1250 1.389 . S
C1249 H1228 0.950 . S
C1249 C1248 1.373 . S
C1249 C1265 1.377 . S
C1250 C1248 1.389 . S
C1250 C1251 1.524 . S
C1250 C1264 1.377 . S
C1251 C1250 1.524 . S
C1251 C1252 1.397 . S
C1251 C1256 1.363 . S
C1252 H1229 0.950 . S
C1252 C1251 1.397 . S
C1252 C1253 1.334 . S
C1253 H1230 0.950 . S
C1253 C1252 1.334 . S
C1253 C1254 1.287 . S
C1254 C1253 1.287 . S
C1254 C1255 1.524 . S
C1254 H1273 0.913 . S
C1255 H1231 0.950 . S
C1255 C1254 1.524 . S
C1255 C1256 1.415 . S
C1256 H1232 0.950 . S
C1256 C1251 1.363 . S
C1256 C1255 1.415 . S
C1257 H1233 0.951 . S
C1257 C1258 1.366 . S
C1257 C1259 1.388 . S
C1258 C1257 1.366 . S
C1258 C1262 1.385 . S
C1259 H1234 0.951 . S
C1259 C1257 1.388 . S
C1259 C1260 1.366 . S
C1260 C1259 1.366 . S
C1260 C1261 1.414 . S
C1260 C1263 1.499 . S
C1261 H1235 0.950 . S
C1261 C1260 1.414 . S
C1261 C1262 1.374 . S
C1262 H1236 0.950 . S
C1262 C1258 1.385 . S
C1262 C1261 1.374 . S
C1263 C1260 1.499 . S
C1263 C1264 1.373 . S
C1263 C1265 1.389 . S
C1264 H1237 0.950 . S
C1264 C1250 1.377 . S
C1264 C1263 1.373 . S
C1265 C1249 1.377 . S
C1265 C1263 1.389 . S
C1265 C1266 1.524 . S
C1266 C1265 1.524 . S
C1266 C1267 1.397 . S
C1266 C1271 1.363 . S
C1267 H1238 0.950 . S
C1267 C1266 1.397 . S
C1267 C1268 1.334 . S
C1268 H1239 0.950 . S
C1268 C1267 1.334 . S
C1268 C1269 1.287 . S
C1269 C1268 1.287 . S
C1269 C1270 1.524 . S
C1269 H1272 0.999 . S
C1270 H1240 0.950 . S
C1270 C1269 1.524 . S
C1270 C1271 1.415 . S
C1271 H1241 0.950 . S
C1271 C1266 1.363 . S
C1271 C1270 1.415 . S
H1272 C1269 0.999 . S
H1273 C1254 0.913 . S
H1274 C1292 0.951 . S
H1275 C1294 0.951 . S
H1276 C1296 0.950 . S
H1277 C1297 0.950 . S
H1278 C1299 0.932 1_545 S
H1279 C1302 0.950 . S
H1280 C1303 0.950 . S
H1281 C1305 0.950 . S
H1282 C1306 0.950 . S
H1283 C1307 0.951 . S
H1284 C1309 0.951 . S
H1285 C1311 0.950 . S
H1286 C1312 0.950 . S
H1287 C1314 0.950 . S
H1288 C1317 0.950 . S
H1289 C1318 0.950 . S
H1290 C1320 0.950 . S
H1291 C1321 0.950 . S
C1292 H1274 0.951 . S
C1292 C1293 1.366 . S
C1292 C1294 1.388 1_545 S
C1293 C1292 1.366 . S
C1293 C1297 1.385 . S
C1294 H1275 0.951 . S
C1294 C1292 1.388 1_565 S
C1294 C1295 1.366 . S
C1295 C1294 1.366 . S
C1295 C1296 1.414 1_565 S
C1295 C1298 1.499 . S
C1296 H1276 0.950 . S
C1296 C1295 1.414 1_545 S
C1296 C1297 1.374 . S
C1297 H1277 0.950 . S
C1297 C1293 1.385 . S
C1297 C1296 1.374 . S
C1298 C1295 1.499 . S
C1298 C1299 1.373 . S
C1298 C1300 1.389 . S
C1299 H1278 0.932 1_565 S
C1299 C1298 1.373 . S
C1299 C1315 1.377 . S
C1300 C1298 1.389 . S
C1300 C1301 1.524 . S
C1300 C1314 1.377 . S
C1301 C1300 1.524 . S
C1301 C1302 1.397 . S
C1301 C1306 1.363 . S
C1302 H1279 0.950 . S
C1302 C1301 1.397 . S
C1302 C1303 1.334 . S
C1303 H1280 0.950 . S
C1303 C1302 1.334 . S
C1303 C1304 1.287 . S
C1304 C1303 1.287 . S
C1304 C1305 1.524 . S
C1304 H1323 0.913 . S
C1305 H1281 0.950 . S
C1305 C1304 1.524 . S
C1305 C1306 1.415 . S
C1306 H1282 0.950 . S
C1306 C1301 1.363 . S
C1306 C1305 1.415 . S
C1307 H1283 0.951 . S
C1307 C1308 1.366 . S
C1307 C1309 1.388 . S
C1308 C1307 1.366 . S
C1308 C1312 1.385 . S
C1309 H1284 0.951 . S
C1309 C1307 1.388 . S
C1309 C1310 1.366 . S
C1310 C1309 1.366 . S
C1310 C1311 1.414 . S
C1310 C1313 1.499 . S
C1311 H1285 0.950 . S
C1311 C1310 1.414 . S
C1311 C1312 1.374 . S
C1312 H1286 0.950 . S
C1312 C1308 1.385 . S
C1312 C1311 1.374 . S
C1313 C1310 1.499 . S
C1313 C1314 1.373 . S
C1313 C1315 1.389 . S
C1314 H1287 0.950 . S
C1314 C1300 1.377 . S
C1314 C1313 1.373 . S
C1315 C1299 1.377 . S
C1315 C1313 1.389 . S
C1315 C1316 1.524 . S
C1316 C1315 1.524 . S
C1316 C1317 1.397 . S
C1316 C1321 1.363 . S
C1317 H1288 0.950 . S
C1317 C1316 1.397 . S
C1317 C1318 1.334 . S
C1318 H1289 0.950 . S
C1318 C1317 1.334 . S
C1318 C1319 1.287 . S
C1319 C1318 1.287 . S
C1319 C1320 1.524 1_565 S
C1319 H1322 0.999 1_565 S
C1320 H1290 0.950 . S
C1320 C1319 1.524 1_545 S
C1320 C1321 1.415 1_545 S
C1321 H1291 0.950 . S
C1321 C1316 1.363 . S
C1321 C1320 1.415 1_565 S
H1322 C1319 0.999 1_545 S
H1323 C1304 0.913 . S
H1324 C1342 0.951 . S
H1325 C1344 0.951 . S
H1326 C1346 0.950 . S
H1327 C1347 0.950 . S
H1328 C1349 0.950 . S
H1329 C1352 0.950 . S
H1330 C1353 0.969 . S
H1331 C1355 0.979 . S
H1332 C1356 0.950 . S
H1333 C1357 0.951 . S
H1334 C1359 0.951 . S
H1335 C1361 0.950 . S
H1336 C1362 0.950 . S
H1337 C1364 0.950 . S
H1338 C1367 0.950 . S
H1339 C1368 0.950 . S
H1340 C1370 0.950 . S
H1341 C1371 0.950 . S
C1342 H1324 0.951 . S
C1342 C1343 1.366 . S
C1342 C1344 1.388 . S
C1343 C1342 1.366 . S
C1343 C1347 1.385 . S
C1344 H1325 0.951 . S
C1344 C1342 1.388 . S
C1344 C1345 1.366 . S
C1345 C1344 1.366 . S
C1345 C1346 1.414 . S
C1345 C1348 1.499 . S
C1346 H1326 0.950 . S
C1346 C1345 1.414 . S
C1346 C1347 1.374 . S
C1347 H1327 0.950 . S
C1347 C1343 1.385 . S
C1347 C1346 1.374 . S
C1348 C1345 1.499 . S
C1348 C1349 1.373 . S
C1348 C1350 1.389 . S
C1349 H1328 0.950 . S
C1349 C1348 1.373 . S
C1349 C1365 1.377 . S
C1350 C1348 1.389 . S
C1350 C1351 1.524 . S
C1350 C1364 1.377 . S
C1351 C1350 1.524 . S
C1351 C1352 1.397 . S
C1351 C1356 1.363 . S
C1352 H1329 0.950 . S
C1352 C1351 1.397 . S
C1352 C1353 1.334 . S
C1353 H1330 0.969 . S
C1353 C1352 1.334 . S
C1353 C1354 1.287 1_556 S
C1354 C1353 1.287 1_554 S
C1354 C1355 1.534 . S
C1354 H1373 0.913 . S
C1355 H1331 0.979 . S
C1355 C1354 1.534 . S
C1355 C1356 1.373 1_554 S
C1356 H1332 0.950 . S
C1356 C1351 1.363 . S
C1356 C1355 1.373 1_556 S
C1357 H1333 0.951 . S
C1357 C1358 1.366 . S
C1357 C1359 1.388 . S
C1358 C1357 1.366 . S
C1358 C1362 1.385 . S
C1359 H1334 0.951 . S
C1359 C1357 1.388 . S
C1359 C1360 1.366 . S
C1360 C1359 1.366 . S
C1360 C1361 1.414 . S
C1360 C1363 1.499 . S
C1361 H1335 0.950 . S
C1361 C1360 1.414 . S
C1361 C1362 1.374 . S
C1362 H1336 0.950 . S
C1362 C1358 1.385 . S
C1362 C1361 1.374 . S
C1363 C1360 1.499 . S
C1363 C1364 1.373 . S
C1363 C1365 1.389 . S
C1364 H1337 0.950 . S
C1364 C1350 1.377 . S
C1364 C1363 1.373 . S
C1365 C1349 1.377 . S
C1365 C1363 1.389 . S
C1365 C1366 1.524 . S
C1366 C1365 1.524 . S
C1366 C1367 1.397 . S
C1366 C1371 1.363 . S
C1367 H1338 0.950 . S
C1367 C1366 1.397 . S
C1367 C1368 1.334 . S
C1368 H1339 0.950 . S
C1368 C1367 1.334 . S
C1368 C1369 1.287 . S
C1369 C1368 1.287 . S
C1369 C1370 1.524 . S
C1369 H1372 0.999 . S
C1370 H1340 0.950 . S
C1370 C1369 1.524 . S
C1370 C1371 1.415 . S
C1371 H1341 0.950 . S
C1371 C1366 1.363 . S
C1371 C1370 1.415 . S
H1372 C1369 0.999 . S
H1373 C1354 0.913 . S
H1374 C1392 0.951 . S
H1375 C1394 0.951 . S
H1376 C1396 0.950 . S
H1377 C1397 0.950 . S
H1378 C1399 0.950 . S
H1379 C1402 0.950 . S
H1380 C1403 0.950 . S
H1381 C1405 0.950 . S
H1382 C1406 0.950 . S
H1383 C1407 0.951 . S
H1384 C1409 0.951 . S
H1385 C1411 0.950 . S
H1386 C1412 0.950 . S
H1387 C1414 0.950 . S
H1388 C1417 0.950 . S
H1389 C1418 0.950 . S
H1390 C1420 0.950 . S
H1391 C1421 0.950 . S
C1392 H1374 0.951 . S
C1392 C1393 1.366 . S
C1392 C1394 1.388 1_565 S
C1393 C1392 1.366 . S
C1393 C1397 1.385 . S
C1394 H1375 0.951 . S
C1394 C1392 1.388 1_545 S
C1394 C1395 1.366 . S
C1395 C1394 1.366 . S
C1395 C1396 1.414 . S
C1395 C1398 1.499 . S
C1396 H1376 0.950 . S
C1396 C1395 1.414 . S
C1396 C1397 1.374 1_545 S
C1397 H1377 0.950 . S
C1397 C1393 1.385 . S
C1397 C1396 1.374 1_565 S
C1398 C1395 1.499 . S
C1398 C1399 1.373 . S
C1398 C1400 1.389 . S
C1399 H1378 0.950 . S
C1399 C1398 1.373 . S
C1399 C1415 1.377 . S
C1400 C1398 1.389 . S
C1400 C1401 1.524 . S
C1400 C1414 1.377 . S
C1401 C1400 1.524 . S
C1401 C1402 1.397 1_545 S
C1401 C1406 1.363 . S
C1402 H1379 0.950 . S
C1402 C1401 1.397 1_565 S
C1402 C1403 1.334 . S
C1403 H1380 0.950 . S
C1403 C1402 1.334 . S
C1403 C1404 1.287 . S
C1404 C1403 1.287 . S
C1404 C1405 1.524 1_565 S
C1404 H1423 0.913 . S
C1405 H1381 0.950 . S
C1405 C1404 1.524 1_545 S
C1405 C1406 1.415 . S
C1406 H1382 0.950 . S
C1406 C1401 1.363 . S
C1406 C1405 1.415 . S
C1407 H1383 0.951 . S
C1407 C1408 1.366 . S
C1407 C1409 1.388 . S
C1408 C1407 1.366 . S
C1408 C1412 1.385 . S
C1409 H1384 0.951 . S
C1409 C1407 1.388 . S
C1409 C1410 1.366 . S
C1410 C1409 1.366 . S
C1410 C1411 1.414 . S
C1410 C1413 1.499 . S
C1411 H1385 0.950 . S
C1411 C1410 1.414 . S
C1411 C1412 1.374 . S
C1412 H1386 0.950 . S
C1412 C1408 1.385 . S
C1412 C1411 1.374 . S
C1413 C1410 1.499 . S
C1413 C1414 1.373 . S
C1413 C1415 1.389 . S
C1414 H1387 0.950 . S
C1414 C1400 1.377 . S
C1414 C1413 1.373 . S
C1415 C1399 1.377 . S
C1415 C1413 1.389 . S
C1415 C1416 1.524 . S
C1416 C1415 1.524 . S
C1416 C1417 1.397 . S
C1416 C1421 1.363 . S
C1417 H1388 0.950 . S
C1417 C1416 1.397 . S
C1417 C1418 1.334 . S
C1418 H1389 0.950 . S
C1418 C1417 1.334 . S
C1418 C1419 1.287 . S
C1419 C1418 1.287 . S
C1419 C1420 1.524 . S
C1419 H1422 0.999 . S
C1420 H1390 0.950 . S
C1420 C1419 1.524 . S
C1420 C1421 1.415 . S
C1421 H1391 0.950 . S
C1421 C1416 1.363 . S
C1421 C1420 1.415 . S
H1422 C1419 0.999 . S
H1423 C1404 0.913 . S
H1424 C1442 0.951 . S
H1425 C1444 0.951 . S
H1426 C1446 0.950 . S
H1427 C1447 0.950 . S
H1428 C1449 0.950 . S
H1429 C1452 0.950 . S
H1430 C1453 0.950 . S
H1431 C1455 0.950 . S
H1432 C1456 0.950 . S
H1433 C1457 0.951 . S
H1434 C1459 0.951 . S
H1435 C1461 0.950 . S
H1436 C1462 0.950 . S
H1437 C1464 0.950 . S
H1438 C1467 0.950 . S
H1439 C1468 0.950 . S
H1440 C1470 0.950 . S
H1441 C1471 0.950 . S
C1442 H1424 0.951 . S
C1442 C1443 1.366 . S
C1442 C1444 1.388 . S
C1443 C1442 1.366 . S
C1443 C1447 1.385 . S
C1444 H1425 0.951 . S
C1444 C1442 1.388 . S
C1444 C1445 1.366 . S
C1445 C1444 1.366 . S
C1445 C1446 1.414 . S
C1445 C1448 1.499 . S
C1446 H1426 0.950 . S
C1446 C1445 1.414 . S
C1446 C1447 1.374 . S
C1447 H1427 0.950 . S
C1447 C1443 1.385 . S
C1447 C1446 1.374 . S
C1448 C1445 1.499 . S
C1448 C1449 1.373 . S
C1448 C1450 1.389 . S
C1449 H1428 0.950 . S
C1449 C1448 1.373 . S
C1449 C1465 1.377 . S
C1450 C1448 1.389 . S
C1450 C1451 1.524 . S
C1450 C1464 1.377 . S
C1451 C1450 1.524 . S
C1451 C1452 1.397 . S
C1451 C1456 1.363 . S
C1452 H1429 0.950 . S
C1452 C1451 1.397 . S
C1452 C1453 1.334 . S
C1453 H1430 0.950 . S
C1453 C1452 1.334 . S
C1453 C1454 1.287 . S
C1454 C1453 1.287 . S
C1454 C1455 1.524 . S
C1454 H1473 0.913 . S
C1455 H1431 0.950 . S
C1455 C1454 1.524 . S
C1455 C1456 1.415 . S
C1456 H1432 0.950 . S
C1456 C1451 1.363 . S
C1456 C1455 1.415 . S
C1457 H1433 0.951 . S
C1457 C1458 1.366 . S
C1457 C1459 1.388 . S
C1458 C1457 1.366 . S
C1458 C1462 1.385 . S
C1459 H1434 0.951 . S
C1459 C1457 1.388 . S
C1459 C1460 1.366 . S
C1460 C1459 1.366 . S
C1460 C1461 1.414 . S
C1460 C1463 1.499 . S
C1461 H1435 0.950 . S
C1461 C1460 1.414 . S
C1461 C1462 1.374 . S
C1462 H1436 0.950 . S
C1462 C1458 1.385 . S
C1462 C1461 1.374 . S
C1463 C1460 1.499 . S
C1463 C1464 1.373 . S
C1463 C1465 1.389 . S
C1464 H1437 0.950 . S
C1464 C1450 1.377 . S
C1464 C1463 1.373 . S
C1465 C1449 1.377 . S
C1465 C1463 1.389 . S
C1465 C1466 1.524 . S
C1466 C1465 1.524 . S
C1466 C1467 1.397 . S
C1466 C1471 1.363 . S
C1467 H1438 0.950 . S
C1467 C1466 1.397 . S
C1467 C1468 1.334 . S
C1468 H1439 0.950 . S
C1468 C1467 1.334 . S
C1468 C1469 1.287 . S
C1469 C1468 1.287 . S
C1469 C1470 1.524 . S
C1469 H1472 0.999 . S
C1470 H1440 0.950 . S
C1470 C1469 1.524 . S
C1470 C1471 1.415 . S
C1471 H1441 0.950 . S
C1471 C1466 1.363 . S
C1471 C1470 1.415 . S
H1472 C1469 0.999 . S
H1473 C1454 0.913 . S
H1474 C1492 0.951 . S
H1475 C1494 0.951 . S
H1476 C1496 0.950 . S
H1477 C1497 0.950 . S
H1478 C1499 0.950 . S
H1479 C1502 0.950 . S
H1480 C1503 0.950 . S
H1481 C1505 0.950 . S
H1482 C1506 0.950 . S
H1483 C1507 0.951 . S
H1484 C1509 0.951 . S
H1485 C1511 0.950 . S
H1486 C1512 0.950 . S
H1487 C1514 0.950 . S
H1488 C1517 0.950 . S
H1489 C1518 0.950 . S
H1490 C1520 0.950 . S
H1491 C1521 0.950 . S
C1492 H1474 0.951 . S
C1492 C1493 1.366 . S
C1492 C1494 1.388 . S
C1493 C1492 1.366 . S
C1493 C1497 1.385 . S
C1494 H1475 0.951 . S
C1494 C1492 1.388 . S
C1494 C1495 1.366 . S
C1495 C1494 1.366 . S
C1495 C1496 1.414 . S
C1495 C1498 1.499 . S
C1496 H1476 0.950 . S
C1496 C1495 1.414 . S
C1496 C1497 1.374 . S
C1497 H1477 0.950 . S
C1497 C1493 1.385 . S
C1497 C1496 1.374 . S
C1498 C1495 1.499 . S
C1498 C1499 1.373 . S
C1498 C1500 1.389 . S
C1499 H1478 0.950 . S
C1499 C1498 1.373 . S
C1499 C1515 1.377 . S
C1500 C1498 1.389 . S
C1500 C1501 1.524 . S
C1500 C1514 1.377 . S
C1501 C1500 1.524 . S
C1501 C1502 1.397 . S
C1501 C1506 1.363 . S
C1502 H1479 0.950 . S
C1502 C1501 1.397 . S
C1502 C1503 1.334 . S
C1503 H1480 0.950 . S
C1503 C1502 1.334 . S
C1503 C1504 1.287 . S
C1504 C1503 1.287 . S
C1504 C1505 1.524 . S
C1504 H1523 0.913 . S
C1505 H1481 0.950 . S
C1505 C1504 1.524 . S
C1505 C1506 1.415 . S
C1506 H1482 0.950 . S
C1506 C1501 1.363 . S
C1506 C1505 1.415 . S
C1507 H1483 0.951 . S
C1507 C1508 1.366 . S
C1507 C1509 1.388 . S
C1508 C1507 1.366 . S
C1508 C1512 1.385 . S
C1509 H1484 0.951 . S
C1509 C1507 1.388 . S
C1509 C1510 1.366 . S
C1510 C1509 1.366 . S
C1510 C1511 1.414 . S
C1510 C1513 1.499 . S
C1511 H1485 0.950 . S
C1511 C1510 1.414 . S
C1511 C1512 1.374 . S
C1512 H1486 0.950 . S
C1512 C1508 1.385 . S
C1512 C1511 1.374 . S
C1513 C1510 1.499 . S
C1513 C1514 1.373 . S
C1513 C1515 1.389 . S
C1514 H1487 0.950 . S
C1514 C1500 1.377 . S
C1514 C1513 1.373 . S
C1515 C1499 1.377 . S
C1515 C1513 1.389 . S
C1515 C1516 1.524 . S
C1516 C1515 1.524 . S
C1516 C1517 1.397 . S
C1516 C1521 1.363 . S
C1517 H1488 0.950 . S
C1517 C1516 1.397 . S
C1517 C1518 1.334 . S
C1518 H1489 0.950 . S
C1518 C1517 1.334 . S
C1518 C1519 1.287 . S
C1519 C1518 1.287 . S
C1519 C1520 1.524 . S
C1519 H1522 0.999 . S
C1520 H1490 0.950 . S
C1520 C1519 1.524 . S
C1520 C1521 1.415 . S
C1521 H1491 0.950 . S
C1521 C1516 1.363 . S
C1521 C1520 1.415 . S
H1522 C1519 0.999 . S
H1523 C1504 0.913 . S
H1524 C1542 0.951 . S
H1525 C1544 0.951 . S
H1526 C1546 0.950 . S
H1527 C1547 0.950 . S
H1528 C1549 0.950 . S
H1529 C1552 0.950 . S
H1530 C1553 0.950 . S
H1531 C1555 0.950 . S
H1532 C1556 0.950 . S
H1533 C1557 0.951 . S
H1534 C1559 0.951 . S
H1535 C1561 0.950 . S
H1536 C1562 0.950 . S
H1537 C1564 0.950 . S
H1538 C1567 0.950 . S
H1539 C1568 0.950 . S
H1540 C1570 0.950 . S
H1541 C1571 0.950 . S
C1542 H1524 0.951 . S
C1542 C1543 1.366 . S
C1542 C1544 1.388 . S
C1543 C1542 1.366 . S
C1543 C1547 1.385 . S
C1544 H1525 0.951 . S
C1544 C1542 1.388 . S
C1544 C1545 1.366 . S
C1545 C1544 1.366 . S
C1545 C1546 1.414 . S
C1545 C1548 1.499 . S
C1546 H1526 0.950 . S
C1546 C1545 1.414 . S
C1546 C1547 1.374 . S
C1547 H1527 0.950 . S
C1547 C1543 1.385 . S
C1547 C1546 1.374 . S
C1548 C1545 1.499 . S
C1548 C1549 1.373 . S
C1548 C1550 1.389 . S
C1549 H1528 0.950 . S
C1549 C1548 1.373 . S
C1549 C1565 1.377 . S
C1550 C1548 1.389 . S
C1550 C1551 1.524 . S
C1550 C1564 1.377 . S
C1551 C1550 1.524 . S
C1551 C1552 1.397 . S
C1551 C1556 1.363 . S
C1552 H1529 0.950 . S
C1552 C1551 1.397 . S
C1552 C1553 1.334 . S
C1553 H1530 0.950 . S
C1553 C1552 1.334 . S
C1553 C1554 1.287 . S
C1554 C1553 1.287 . S
C1554 C1555 1.524 . S
C1554 H1573 0.913 . S
C1555 H1531 0.950 . S
C1555 C1554 1.524 . S
C1555 C1556 1.415 . S
C1556 H1532 0.950 . S
C1556 C1551 1.363 . S
C1556 C1555 1.415 . S
C1557 H1533 0.951 . S
C1557 C1558 1.366 . S
C1557 C1559 1.388 . S
C1558 C1557 1.366 . S
C1558 C1562 1.385 . S
C1559 H1534 0.951 . S
C1559 C1557 1.388 . S
C1559 C1560 1.366 . S
C1560 C1559 1.366 . S
C1560 C1561 1.414 . S
C1560 C1563 1.499 . S
C1561 H1535 0.950 . S
C1561 C1560 1.414 . S
C1561 C1562 1.374 . S
C1562 H1536 0.950 . S
C1562 C1558 1.385 . S
C1562 C1561 1.374 . S
C1563 C1560 1.499 . S
C1563 C1564 1.373 . S
C1563 C1565 1.389 . S
C1564 H1537 0.950 . S
C1564 C1550 1.377 . S
C1564 C1563 1.373 . S
C1565 C1549 1.377 . S
C1565 C1563 1.389 . S
C1565 C1566 1.524 . S
C1566 C1565 1.524 . S
C1566 C1567 1.397 . S
C1566 C1571 1.363 . S
C1567 H1538 0.950 . S
C1567 C1566 1.397 . S
C1567 C1568 1.334 . S
C1568 H1539 0.950 . S
C1568 C1567 1.334 . S
C1568 C1569 1.287 . S
C1569 C1568 1.287 . S
C1569 C1570 1.524 . S
C1569 H1572 0.999 . S
C1570 H1540 0.950 . S
C1570 C1569 1.524 . S
C1570 C1571 1.415 . S
C1571 H1541 0.950 . S
C1571 C1566 1.363 . S
C1571 C1570 1.415 . S
H1572 C1569 0.999 . S
H1573 C1554 0.913 . S
H1574 C1592 0.951 . S
H1575 C1594 0.951 . S
H1576 C1596 0.950 . S
H1577 C1597 0.950 . S
H1578 C1599 0.950 . S
H1579 C1602 0.950 . S
H1580 C1603 0.950 . S
H1581 C1605 0.950 . S
H1582 C1606 0.950 . S
H1583 C1607 0.951 . S
H1584 C1609 0.951 . S
H1585 C1611 0.950 . S
H1586 C1612 0.950 . S
H1587 C1614 0.950 . S
H1588 C1617 0.950 . S
H1589 C1618 0.950 . S
H1590 C1620 0.950 . S
H1591 C1621 0.950 . S
C1592 H1574 0.951 . S
C1592 C1593 1.366 . S
C1592 C1594 1.388 . S
C1593 C1592 1.366 . S
C1593 C1597 1.385 . S
C1594 H1575 0.951 . S
C1594 C1592 1.388 . S
C1594 C1595 1.366 . S
C1595 C1594 1.366 . S
C1595 C1596 1.414 . S
C1595 C1598 1.499 . S
C1596 H1576 0.950 . S
C1596 C1595 1.414 . S
C1596 C1597 1.374 . S
C1597 H1577 0.950 . S
C1597 C1593 1.385 . S
C1597 C1596 1.374 . S
C1598 C1595 1.499 . S
C1598 C1599 1.373 . S
C1598 C1600 1.389 . S
C1599 H1578 0.950 . S
C1599 C1598 1.373 . S
C1599 C1615 1.377 . S
C1600 C1598 1.389 . S
C1600 C1601 1.524 . S
C1600 C1614 1.377 . S
C1601 C1600 1.524 . S
C1601 C1602 1.397 . S
C1601 C1606 1.363 . S
C1602 H1579 0.950 . S
C1602 C1601 1.397 . S
C1602 C1603 1.334 . S
C1603 H1580 0.950 . S
C1603 C1602 1.334 . S
C1603 C1604 1.287 . S
C1604 C1603 1.287 . S
C1604 C1605 1.524 . S
C1604 H1623 0.913 . S
C1605 H1581 0.950 . S
C1605 C1604 1.524 . S
C1605 C1606 1.415 . S
C1606 H1582 0.950 . S
C1606 C1601 1.363 . S
C1606 C1605 1.415 . S
C1607 H1583 0.951 . S
C1607 C1608 1.366 . S
C1607 C1609 1.388 . S
C1608 C1607 1.366 . S
C1608 C1612 1.385 . S
C1609 H1584 0.951 . S
C1609 C1607 1.388 . S
C1609 C1610 1.366 . S
C1610 C1609 1.366 . S
C1610 C1611 1.414 . S
C1610 C1613 1.499 . S
C1611 H1585 0.950 . S
C1611 C1610 1.414 . S
C1611 C1612 1.374 . S
C1612 H1586 0.950 . S
C1612 C1608 1.385 . S
C1612 C1611 1.374 . S
C1613 C1610 1.499 . S
C1613 C1614 1.373 . S
C1613 C1615 1.389 . S
C1614 H1587 0.950 . S
C1614 C1600 1.377 . S
C1614 C1613 1.373 . S
C1615 C1599 1.377 . S
C1615 C1613 1.389 . S
C1615 C1616 1.524 . S
C1616 C1615 1.524 . S
C1616 C1617 1.397 . S
C1616 C1621 1.363 . S
C1617 H1588 0.950 . S
C1617 C1616 1.397 . S
C1617 C1618 1.334 . S
C1618 H1589 0.950 . S
C1618 C1617 1.334 . S
C1618 C1619 1.287 . S
C1619 C1618 1.287 . S
C1619 C1620 1.524 . S
C1619 H1622 0.999 . S
C1620 H1590 0.950 . S
C1620 C1619 1.524 . S
C1620 C1621 1.415 . S
C1621 H1591 0.950 . S
C1621 C1616 1.363 . S
C1621 C1620 1.415 . S
H1622 C1619 0.999 . S
H1623 C1604 0.913 . S
H1624 C1642 0.951 . S
H1625 C1644 0.951 . S
H1626 C1646 0.950 . S
H1627 C1647 0.950 . S
H1628 C1649 0.950 . S
H1629 C1652 0.950 . S
H1630 C1653 0.950 . S
H1631 C1655 0.950 . S
H1632 C1656 0.950 . S
H1633 C1657 0.951 . S
H1634 C1659 0.951 . S
H1635 C1661 0.950 . S
H1636 C1662 0.950 . S
H1637 C1664 0.950 . S
H1638 C1667 0.950 . S
H1639 C1668 0.950 . S
H1640 C1670 0.950 . S
H1641 C1671 0.950 . S
C1642 H1624 0.951 . S
C1642 C1643 1.366 . S
C1642 C1644 1.388 . S
C1643 C1642 1.366 . S
C1643 C1647 1.385 . S
C1644 H1625 0.951 . S
C1644 C1642 1.388 . S
C1644 C1645 1.366 . S
C1645 C1644 1.366 . S
C1645 C1646 1.414 . S
C1645 C1648 1.499 . S
C1646 H1626 0.950 . S
C1646 C1645 1.414 . S
C1646 C1647 1.374 . S
C1647 H1627 0.950 . S
C1647 C1643 1.385 . S
C1647 C1646 1.374 . S
C1648 C1645 1.499 . S
C1648 C1649 1.373 . S
C1648 C1650 1.389 . S
C1649 H1628 0.950 . S
C1649 C1648 1.373 . S
C1649 C1665 1.377 . S
C1650 C1648 1.389 . S
C1650 C1651 1.524 . S
C1650 C1664 1.377 . S
C1651 C1650 1.524 . S
C1651 C1652 1.397 . S
C1651 C1656 1.363 . S
C1652 H1629 0.950 . S
C1652 C1651 1.397 . S
C1652 C1653 1.334 . S
C1653 H1630 0.950 . S
C1653 C1652 1.334 . S
C1653 C1654 1.287 . S
C1654 C1653 1.287 . S
C1654 C1655 1.524 . S
C1654 H1673 0.913 . S
C1655 H1631 0.950 . S
C1655 C1654 1.524 . S
C1655 C1656 1.415 . S
C1656 H1632 0.950 . S
C1656 C1651 1.363 . S
C1656 C1655 1.415 . S
C1657 H1633 0.951 . S
C1657 C1658 1.366 . S
C1657 C1659 1.388 . S
C1658 C1657 1.366 . S
C1658 C1662 1.385 . S
C1659 H1634 0.951 . S
C1659 C1657 1.388 . S
C1659 C1660 1.366 . S
C1660 C1659 1.366 . S
C1660 C1661 1.414 . S
C1660 C1663 1.499 . S
C1661 H1635 0.950 . S
C1661 C1660 1.414 . S
C1661 C1662 1.374 . S
C1662 H1636 0.950 . S
C1662 C1658 1.385 . S
C1662 C1661 1.374 . S
C1663 C1660 1.499 . S
C1663 C1664 1.373 . S
C1663 C1665 1.389 . S
C1664 H1637 0.950 . S
C1664 C1650 1.377 . S
C1664 C1663 1.373 . S
C1665 C1649 1.377 . S
C1665 C1663 1.389 . S
C1665 C1666 1.524 . S
C1666 C1665 1.524 . S
C1666 C1667 1.397 . S
C1666 C1671 1.363 . S
C1667 H1638 0.950 . S
C1667 C1666 1.397 . S
C1667 C1668 1.334 . S
C1668 H1639 0.950 . S
C1668 C1667 1.334 . S
C1668 C1669 1.287 . S
C1669 C1668 1.287 . S
C1669 C1670 1.524 . S
C1669 H1672 0.999 . S
C1670 H1640 0.950 . S
C1670 C1669 1.524 . S
C1670 C1671 1.415 . S
C1671 H1641 0.950 . S
C1671 C1666 1.363 . S
C1671 C1670 1.415 . S
H1672 C1669 0.999 . S
H1673 C1654 0.913 . S
H1674 C1692 0.951 . S
H1675 C1694 0.951 . S
H1676 C1696 0.950 . S
H1677 C1697 0.950 . S
H1678 C1699 0.950 . S
H1679 C1702 0.950 . S
H1680 C1703 0.950 . S
H1681 C1705 0.950 . S
H1682 C1706 0.950 . S
H1683 C1707 0.951 . S
H1684 C1709 0.951 . S
H1685 C1711 0.950 . S
H1686 C1712 0.950 . S
H1687 C1714 0.950 . S
H1688 C1717 0.950 . S
H1689 C1718 0.950 . S
H1690 C1720 0.950 . S
H1691 C1721 0.950 . S
C1692 H1674 0.951 . S
C1692 C1693 1.366 . S
C1692 C1694 1.388 . S
C1693 C1692 1.366 . S
C1693 C1697 1.385 . S
C1694 H1675 0.951 . S
C1694 C1692 1.388 . S
C1694 C1695 1.366 . S
C1695 C1694 1.366 . S
C1695 C1696 1.414 . S
C1695 C1698 1.499 . S
C1696 H1676 0.950 . S
C1696 C1695 1.414 . S
C1696 C1697 1.374 . S
C1697 H1677 0.950 . S
C1697 C1693 1.385 . S
C1697 C1696 1.374 . S
C1698 C1695 1.499 . S
C1698 C1699 1.373 . S
C1698 C1700 1.389 . S
C1699 H1678 0.950 . S
C1699 C1698 1.373 . S
C1699 C1715 1.377 . S
C1700 C1698 1.389 . S
C1700 C1701 1.524 . S
C1700 C1714 1.377 . S
C1701 C1700 1.524 . S
C1701 C1702 1.397 . S
C1701 C1706 1.363 . S
C1702 H1679 0.950 . S
C1702 C1701 1.397 . S
C1702 C1703 1.334 . S
C1703 H1680 0.950 . S
C1703 C1702 1.334 . S
C1703 C1704 1.287 . S
C1704 C1703 1.287 . S
C1704 C1705 1.524 . S
C1704 H1723 0.913 . S
C1705 H1681 0.950 . S
C1705 C1704 1.524 . S
C1705 C1706 1.415 . S
C1706 H1682 0.950 . S
C1706 C1701 1.363 . S
C1706 C1705 1.415 . S
C1707 H1683 0.951 . S
C1707 C1708 1.366 . S
C1707 C1709 1.388 . S
C1708 C1707 1.366 . S
C1708 C1712 1.385 . S
C1709 H1684 0.951 . S
C1709 C1707 1.388 . S
C1709 C1710 1.366 . S
C1710 C1709 1.366 . S
C1710 C1711 1.414 . S
C1710 C1713 1.499 . S
C1711 H1685 0.950 . S
C1711 C1710 1.414 . S
C1711 C1712 1.374 . S
C1712 H1686 0.950 . S
C1712 C1708 1.385 . S
C1712 C1711 1.374 . S
C1713 C1710 1.499 . S
C1713 C1714 1.373 . S
C1713 C1715 1.389 . S
C1714 H1687 0.950 . S
C1714 C1700 1.377 . S
C1714 C1713 1.373 . S
C1715 C1699 1.377 . S
C1715 C1713 1.389 . S
C1715 C1716 1.524 . S
C1716 C1715 1.524 . S
C1716 C1717 1.397 . S
C1716 C1721 1.363 . S
C1717 H1688 0.950 . S
C1717 C1716 1.397 . S
C1717 C1718 1.334 . S
C1718 H1689 0.950 . S
C1718 C1717 1.334 . S
C1718 C1719 1.287 . S
C1719 C1718 1.287 . S
C1719 C1720 1.524 . S
C1719 H1722 0.999 . S
C1720 H1690 0.950 . S
C1720 C1719 1.524 . S
C1720 C1721 1.415 . S
C1721 H1691 0.950 . S
C1721 C1716 1.363 . S
C1721 C1720 1.415 . S
H1722 C1719 0.999 . S
H1723 C1704 0.913 . S
H1724 C1742 0.951 . S
H1725 C1744 0.951 . S
H1726 C1746 0.950 . S
H1727 C1747 0.950 . S
H1728 C1749 0.950 . S
H1729 C1752 0.950 . S
H1730 C1753 0.950 . S
H1731 C1755 0.950 . S
H1732 C1756 0.950 . S
H1733 C1757 0.951 . S
H1734 C1759 0.951 . S
H1735 C1761 0.950 . S
H1736 C1762 0.950 . S
H1737 C1764 0.950 . S
H1738 C1767 0.950 . S
H1739 C1768 0.950 . S
H1740 C1770 0.950 . S
H1741 C1771 0.950 . S
C1742 H1724 0.951 . S
C1742 C1743 1.366 . S
C1742 C1744 1.388 . S
C1743 C1742 1.366 . S
C1743 C1747 1.385 . S
C1744 H1725 0.951 . S
C1744 C1742 1.388 . S
C1744 C1745 1.366 . S
C1745 C1744 1.366 . S
C1745 C1746 1.414 . S
C1745 C1748 1.499 . S
C1746 H1726 0.950 . S
C1746 C1745 1.414 . S
C1746 C1747 1.374 . S
C1747 H1727 0.950 . S
C1747 C1743 1.385 . S
C1747 C1746 1.374 . S
C1748 C1745 1.499 . S
C1748 C1749 1.373 . S
C1748 C1750 1.389 . S
C1749 H1728 0.950 . S
C1749 C1748 1.373 . S
C1749 C1765 1.377 . S
C1750 C1748 1.389 . S
C1750 C1751 1.524 . S
C1750 C1764 1.377 . S
C1751 C1750 1.524 . S
C1751 C1752 1.397 . S
C1751 C1756 1.363 . S
C1752 H1729 0.950 . S
C1752 C1751 1.397 . S
C1752 C1753 1.334 . S
C1753 H1730 0.950 . S
C1753 C1752 1.334 . S
C1753 C1754 1.287 . S
C1754 C1753 1.287 . S
C1754 C1755 1.524 . S
C1754 H1773 0.913 . S
C1755 H1731 0.950 . S
C1755 C1754 1.524 . S
C1755 C1756 1.415 . S
C1756 H1732 0.950 . S
C1756 C1751 1.363 . S
C1756 C1755 1.415 . S
C1757 H1733 0.951 . S
C1757 C1758 1.366 . S
C1757 C1759 1.388 . S
C1758 C1757 1.366 . S
C1758 C1762 1.385 . S
C1759 H1734 0.951 . S
C1759 C1757 1.388 . S
C1759 C1760 1.366 . S
C1760 C1759 1.366 . S
C1760 C1761 1.414 . S
C1760 C1763 1.499 . S
C1761 H1735 0.950 . S
C1761 C1760 1.414 . S
C1761 C1762 1.374 . S
C1762 H1736 0.950 . S
C1762 C1758 1.385 . S
C1762 C1761 1.374 . S
C1763 C1760 1.499 . S
C1763 C1764 1.373 . S
C1763 C1765 1.389 . S
C1764 H1737 0.950 . S
C1764 C1750 1.377 . S
C1764 C1763 1.373 . S
C1765 C1749 1.377 . S
C1765 C1763 1.389 . S
C1765 C1766 1.524 . S
C1766 C1765 1.524 . S
C1766 C1767 1.397 . S
C1766 C1771 1.363 . S
C1767 H1738 0.950 . S
C1767 C1766 1.397 . S
C1767 C1768 1.334 . S
C1768 H1739 0.950 . S
C1768 C1767 1.334 . S
C1768 C1769 1.287 . S
C1769 C1768 1.287 . S
C1769 C1770 1.524 . S
C1769 H1772 0.999 . S
C1770 H1740 0.950 . S
C1770 C1769 1.524 . S
C1770 C1771 1.415 . S
C1771 H1741 0.950 . S
C1771 C1766 1.363 . S
C1771 C1770 1.415 . S
H1772 C1769 0.999 . S
H1773 C1754 0.913 . S
H1774 C1792 0.951 . S
H1775 C1794 0.951 . S
H1776 C1796 0.950 . S
H1777 C1797 0.950 . S
H1778 C1799 0.950 . S
H1779 C1802 0.950 . S
H1780 C1803 0.950 . S
H1781 C1805 0.950 . S
H1782 C1806 0.950 . S
H1783 C1807 0.951 . S
H1784 C1809 0.951 . S
H1785 C1811 0.950 . S
H1786 C1812 0.950 . S
H1787 C1814 0.950 . S
H1788 C1817 0.950 . S
H1789 C1818 0.978 . S
H1790 C1820 0.950 . S
H1791 C1821 0.950 . S
C1792 H1774 0.951 . S
C1792 C1793 1.366 . S
C1792 C1794 1.388 . S
C1793 C1792 1.366 . S
C1793 C1797 1.385 . S
C1794 H1775 0.951 . S
C1794 C1792 1.388 . S
C1794 C1795 1.366 . S
C1795 C1794 1.366 . S
C1795 C1796 1.414 . S
C1795 C1798 1.499 . S
C1796 H1776 0.950 . S
C1796 C1795 1.414 . S
C1796 C1797 1.374 . S
C1797 H1777 0.950 . S
C1797 C1793 1.385 . S
C1797 C1796 1.374 . S
C1798 C1795 1.499 . S
C1798 C1799 1.373 . S
C1798 C1800 1.389 . S
C1799 H1778 0.950 . S
C1799 C1798 1.373 . S
C1799 C1815 1.377 . S
C1800 C1798 1.389 . S
C1800 C1801 1.524 . S
C1800 C1814 1.377 . S
C1801 C1800 1.524 . S
C1801 C1802 1.397 . S
C1801 C1806 1.363 . S
C1802 H1779 0.950 . S
C1802 C1801 1.397 . S
C1802 C1803 1.334 . S
C1803 H1780 0.950 . S
C1803 C1802 1.334 . S
C1803 C1804 1.287 . S
C1804 C1803 1.287 . S
C1804 C1805 1.524 . S
C1804 H1823 0.913 . S
C1805 H1781 0.950 . S
C1805 C1804 1.524 . S
C1805 C1806 1.415 . S
C1806 H1782 0.950 . S
C1806 C1801 1.363 . S
C1806 C1805 1.415 . S
C1807 H1783 0.951 . S
C1807 C1808 1.366 . S
C1807 C1809 1.388 . S
C1808 C1807 1.366 . S
C1808 C1812 1.385 . S
C1809 H1784 0.951 . S
C1809 C1807 1.388 . S
C1809 C1810 1.366 . S
C1810 C1809 1.366 . S
C1810 C1811 1.414 . S
C1810 C1813 1.499 . S
C1811 H1785 0.950 . S
C1811 C1810 1.414 . S
C1811 C1812 1.374 . S
C1812 H1786 0.950 . S
C1812 C1808 1.385 . S
C1812 C1811 1.374 . S
C1813 C1810 1.499 . S
C1813 C1814 1.373 . S
C1813 C1815 1.389 . S
C1814 H1787 0.950 . S
C1814 C1800 1.377 . S
C1814 C1813 1.373 . S
C1815 C1799 1.377 . S
C1815 C1813 1.389 . S
C1815 C1816 1.524 . S
C1816 C1815 1.524 . S
C1816 C1817 1.397 . S
C1816 C1821 1.363 . S
C1817 H1788 0.950 . S
C1817 C1816 1.397 . S
C1817 C1818 1.334 . S
C1818 H1789 0.978 . S
C1818 C1817 1.334 . S
C1818 C1819 1.287 . S
C1819 C1818 1.287 . S
C1819 C1820 1.524 . S
C1819 H1822 0.999 . S
C1820 H1790 0.950 . S
C1820 C1819 1.524 . S
C1820 C1821 1.415 . S
C1821 H1791 0.950 . S
C1821 C1816 1.363 . S
C1821 C1820 1.415 . S
H1822 C1819 0.999 . S
H1823 C1804 0.913 . S
H1824 C1842 0.951 . S
H1825 C1844 0.951 . S
H1826 C1846 0.950 . S
H1827 C1847 0.950 . S
H1828 C1849 0.950 . S
H1829 C1852 0.950 . S
H1830 C1853 0.950 . S
H1831 C1855 0.950 . S
H1832 C1856 0.950 . S
H1833 C1857 0.951 . S
H1834 C1859 0.951 . S
H1835 C1861 0.950 . S
H1836 C1862 0.950 . S
H1837 C1864 0.950 . S
H1838 C1867 0.950 . S
H1839 C1868 0.950 . S
H1840 C1870 0.950 . S
H1841 C1871 0.950 . S
C1842 H1824 0.951 . S
C1842 C1843 1.366 . S
C1842 C1844 1.388 . S
C1843 C1842 1.366 . S
C1843 C1847 1.385 . S
C1844 H1825 0.951 . S
C1844 C1842 1.388 . S
C1844 C1845 1.366 . S
C1845 C1844 1.366 . S
C1845 C1846 1.414 . S
C1845 C1848 1.499 . S
C1846 H1826 0.950 . S
C1846 C1845 1.414 . S
C1846 C1847 1.374 . S
C1847 H1827 0.950 . S
C1847 C1843 1.385 . S
C1847 C1846 1.374 . S
C1848 C1845 1.499 . S
C1848 C1849 1.373 . S
C1848 C1850 1.389 . S
C1849 H1828 0.950 . S
C1849 C1848 1.373 . S
C1849 C1865 1.377 . S
C1850 C1848 1.389 . S
C1850 C1851 1.524 . S
C1850 C1864 1.377 . S
C1851 C1850 1.524 . S
C1851 C1852 1.397 . S
C1851 C1856 1.363 . S
C1852 H1829 0.950 . S
C1852 C1851 1.397 . S
C1852 C1853 1.334 . S
C1853 H1830 0.950 . S
C1853 C1852 1.334 . S
C1853 C1854 1.287 . S
C1854 C1853 1.287 . S
C1854 C1855 1.524 . S
C1854 H1873 0.913 . S
C1855 H1831 0.950 . S
C1855 C1854 1.524 . S
C1855 C1856 1.415 . S
C1856 H1832 0.950 . S
C1856 C1851 1.363 . S
C1856 C1855 1.415 . S
C1857 H1833 0.951 . S
C1857 C1858 1.366 . S
C1857 C1859 1.388 . S
C1858 C1857 1.366 . S
C1858 C1862 1.385 . S
C1859 H1834 0.951 . S
C1859 C1857 1.388 . S
C1859 C1860 1.366 . S
C1860 C1859 1.366 . S
C1860 C1861 1.414 . S
C1860 C1863 1.499 . S
C1861 H1835 0.950 . S
C1861 C1860 1.414 . S
C1861 C1862 1.374 . S
C1862 H1836 0.950 . S
C1862 C1858 1.385 . S
C1862 C1861 1.374 . S
C1863 C1860 1.499 . S
C1863 C1864 1.373 . S
C1863 C1865 1.389 . S
C1864 H1837 0.950 . S
C1864 C1850 1.377 . S
C1864 C1863 1.373 . S
C1865 C1849 1.377 . S
C1865 C1863 1.389 . S
C1865 C1866 1.524 . S
C1866 C1865 1.524 . S
C1866 C1867 1.397 . S
C1866 C1871 1.363 . S
C1867 H1838 0.950 . S
C1867 C1866 1.397 . S
C1867 C1868 1.334 . S
C1868 H1839 0.950 . S
C1868 C1867 1.334 . S
C1868 C1869 1.287 . S
C1869 C1868 1.287 . S
C1869 C1870 1.524 . S
C1869 H1872 0.999 . S
C1870 H1840 0.950 . S
C1870 C1869 1.524 . S
C1870 C1871 1.415 . S
C1871 H1841 0.950 . S
C1871 C1866 1.363 . S
C1871 C1870 1.415 . S
H1872 C1869 0.999 . S
H1873 C1854 0.913 . S
H1874 C1892 0.951 . S
H1875 C1894 0.951 . S
H1876 C1896 0.950 . S
H1877 C1897 0.950 . S
H1878 C1899 0.950 . S
H1879 C1902 0.950 . S
H1880 C1903 0.950 . S
H1881 C1905 0.950 . S
H1882 C1906 0.950 . S
H1883 C1907 0.951 . S
H1884 C1909 0.951 . S
H1885 C1911 0.950 . S
H1886 C1912 0.950 . S
H1887 C1914 0.950 . S
H1888 C1917 0.950 . S
H1889 C1918 0.950 . S
H1890 C1920 0.950 . S
H1891 C1921 0.950 . S
C1892 H1874 0.951 . S
C1892 C1893 1.366 . S
C1892 C1894 1.388 . S
C1893 C1892 1.366 . S
C1893 C1897 1.385 . S
C1894 H1875 0.951 . S
C1894 C1892 1.388 . S
C1894 C1895 1.366 . S
C1895 C1894 1.366 . S
C1895 C1896 1.414 . S
C1895 C1898 1.499 . S
C1896 H1876 0.950 . S
C1896 C1895 1.414 . S
C1896 C1897 1.374 . S
C1897 H1877 0.950 . S
C1897 C1893 1.385 . S
C1897 C1896 1.374 . S
C1898 C1895 1.499 . S
C1898 C1899 1.373 . S
C1898 C1900 1.389 . S
C1899 H1878 0.950 . S
C1899 C1898 1.373 . S
C1899 C1915 1.377 . S
C1900 C1898 1.389 . S
C1900 C1901 1.524 . S
C1900 C1914 1.377 . S
C1901 C1900 1.524 . S
C1901 C1902 1.397 . S
C1901 C1906 1.363 . S
C1902 H1879 0.950 . S
C1902 C1901 1.397 . S
C1902 C1903 1.334 . S
C1903 H1880 0.950 . S
C1903 C1902 1.334 . S
C1903 C1904 1.287 . S
C1904 C1903 1.287 . S
C1904 C1905 1.524 . S
C1904 H1923 0.913 . S
C1905 H1881 0.950 . S
C1905 C1904 1.524 . S
C1905 C1906 1.415 . S
C1906 H1882 0.950 . S
C1906 C1901 1.363 . S
C1906 C1905 1.415 . S
C1907 H1883 0.951 . S
C1907 C1908 1.366 . S
C1907 C1909 1.388 . S
C1908 C1907 1.366 . S
C1908 C1912 1.385 . S
C1909 H1884 0.951 . S
C1909 C1907 1.388 . S
C1909 C1910 1.366 . S
C1910 C1909 1.366 . S
C1910 C1911 1.414 . S
C1910 C1913 1.499 . S
C1911 H1885 0.950 . S
C1911 C1910 1.414 . S
C1911 C1912 1.374 . S
C1912 H1886 0.950 . S
C1912 C1908 1.385 . S
C1912 C1911 1.374 . S
C1913 C1910 1.499 . S
C1913 C1914 1.373 . S
C1913 C1915 1.389 . S
C1914 H1887 0.950 . S
C1914 C1900 1.377 . S
C1914 C1913 1.373 . S
C1915 C1899 1.377 . S
C1915 C1913 1.389 . S
C1915 C1916 1.524 . S
C1916 C1915 1.524 . S
C1916 C1917 1.397 . S
C1916 C1921 1.363 . S
C1917 H1888 0.950 . S
C1917 C1916 1.397 . S
C1917 C1918 1.334 1_455 S
C1918 H1889 0.950 . S
C1918 C1917 1.334 1_655 S
C1918 C1919 1.287 . S
C1919 C1918 1.287 . S
C1919 C1920 1.524 1_655 S
C1919 H1922 0.999 . S
C1920 H1890 0.950 . S
C1920 C1919 1.524 1_455 S
C1920 C1921 1.415 . S
C1921 H1891 0.950 . S
C1921 C1916 1.363 . S
C1921 C1920 1.415 . S
H1922 C1919 0.999 . S
H1923 C1904 0.913 . S
H1924 C1942 0.951 . S
H1925 C1944 0.951 . S
H1926 C1946 0.950 . S
H1927 C1947 0.950 . S
H1928 C1949 0.950 . S
H1929 C1952 0.950 . S
H1930 C1953 0.950 . S
H1931 C1955 0.950 . S
H1932 C1956 0.950 . S
H1933 C1957 0.951 . S
H1934 C1959 0.951 . S
H1935 C1961 0.950 . S
H1936 C1962 0.950 . S
H1937 C1964 0.950 . S
H1938 C1967 0.950 . S
H1939 C1968 0.950 . S
H1940 C1970 0.950 . S
H1941 C1971 0.950 . S
C1942 H1924 0.951 . S
C1942 C1943 1.366 . S
C1942 C1944 1.388 . S
C1943 C1942 1.366 . S
C1943 C1947 1.385 . S
C1944 H1925 0.951 . S
C1944 C1942 1.388 . S
C1944 C1945 1.366 . S
C1945 C1944 1.366 . S
C1945 C1946 1.414 . S
C1945 C1948 1.499 . S
C1946 H1926 0.950 . S
C1946 C1945 1.414 . S
C1946 C1947 1.374 . S
C1947 H1927 0.950 . S
C1947 C1943 1.385 . S
C1947 C1946 1.374 . S
C1948 C1945 1.499 . S
C1948 C1949 1.373 . S
C1948 C1950 1.389 . S
C1949 H1928 0.950 . S
C1949 C1948 1.373 . S
C1949 C1965 1.377 . S
C1950 C1948 1.389 . S
C1950 C1951 1.524 . S
C1950 C1964 1.377 . S
C1951 C1950 1.524 . S
C1951 C1952 1.397 . S
C1951 C1956 1.363 . S
C1952 H1929 0.950 . S
C1952 C1951 1.397 . S
C1952 C1953 1.334 . S
C1953 H1930 0.950 . S
C1953 C1952 1.334 . S
C1953 C1954 1.287 . S
C1954 C1953 1.287 . S
C1954 C1955 1.524 . S
C1954 H1973 0.913 . S
C1955 H1931 0.950 . S
C1955 C1954 1.524 . S
C1955 C1956 1.415 . S
C1956 H1932 0.950 . S
C1956 C1951 1.363 . S
C1956 C1955 1.415 . S
C1957 H1933 0.951 . S
C1957 C1958 1.366 . S
C1957 C1959 1.388 . S
C1958 C1957 1.366 . S
C1958 C1962 1.385 . S
C1959 H1934 0.951 . S
C1959 C1957 1.388 . S
C1959 C1960 1.366 . S
C1960 C1959 1.366 . S
C1960 C1961 1.414 . S
C1960 C1963 1.499 . S
C1961 H1935 0.950 . S
C1961 C1960 1.414 . S
C1961 C1962 1.374 . S
C1962 H1936 0.950 . S
C1962 C1958 1.385 . S
C1962 C1961 1.374 . S
C1963 C1960 1.499 . S
C1963 C1964 1.373 . S
C1963 C1965 1.389 . S
C1964 H1937 0.950 . S
C1964 C1950 1.377 . S
C1964 C1963 1.373 . S
C1965 C1949 1.377 . S
C1965 C1963 1.389 . S
C1965 C1966 1.524 . S
C1966 C1965 1.524 . S
C1966 C1967 1.397 . S
C1966 C1971 1.363 . S
C1967 H1938 0.950 . S
C1967 C1966 1.397 . S
C1967 C1968 1.334 . S
C1968 H1939 0.950 . S
C1968 C1967 1.334 . S
C1968 C1969 1.287 . S
C1969 C1968 1.287 . S
C1969 C1970 1.524 . S
C1969 H1972 0.999 . S
C1970 H1940 0.950 . S
C1970 C1969 1.524 . S
C1970 C1971 1.415 . S
C1971 H1941 0.950 . S
C1971 C1966 1.363 . S
C1971 C1970 1.415 . S
H1972 C1969 0.999 . S
H1973 C1954 0.913 . S
H1974 C1992 0.951 . S
H1975 C1994 0.951 . S
H1976 C1996 0.950 . S
H1977 C1997 0.950 . S
H1978 C1999 0.950 . S
H1979 C2002 0.950 . S
H1980 C2003 0.950 . S
H1981 C2005 0.950 . S
H1982 C2006 0.950 . S
H1983 C2007 0.951 . S
H1984 C2009 0.951 . S
H1985 C2011 0.950 . S
H1986 C2012 0.950 . S
H1987 C2014 0.950 . S
H1988 C2017 0.950 . S
H1989 C2018 0.950 . S
H1990 C2020 0.950 . S
H1991 C2021 0.950 . S
C1992 H1974 0.951 . S
C1992 C1993 1.366 . S
C1992 C1994 1.388 . S
C1993 C1992 1.366 . S
C1993 C1997 1.385 . S
C1994 H1975 0.951 . S
C1994 C1992 1.388 . S
C1994 C1995 1.366 . S
C1995 C1994 1.366 . S
C1995 C1996 1.414 . S
C1995 C1998 1.499 . S
C1996 H1976 0.950 . S
C1996 C1995 1.414 . S
C1996 C1997 1.374 . S
C1997 H1977 0.950 . S
C1997 C1993 1.385 . S
C1997 C1996 1.374 . S
C1998 C1995 1.499 . S
C1998 C1999 1.373 . S
C1998 C2000 1.389 . S
C1999 H1978 0.950 . S
C1999 C1998 1.373 . S
C1999 C2015 1.377 . S
C2000 C1998 1.389 . S
C2000 C2001 1.524 . S
C2000 C2014 1.377 . S
C2001 C2000 1.524 . S
C2001 C2002 1.397 . S
C2001 C2006 1.363 . S
C2002 H1979 0.950 . S
C2002 C2001 1.397 . S
C2002 C2003 1.334 . S
C2003 H1980 0.950 . S
C2003 C2002 1.334 . S
C2003 C2004 1.287 . S
C2004 C2003 1.287 . S
C2004 C2005 1.524 . S
C2004 H2023 0.913 . S
C2005 H1981 0.950 . S
C2005 C2004 1.524 . S
C2005 C2006 1.415 . S
C2006 H1982 0.950 . S
C2006 C2001 1.363 . S
C2006 C2005 1.415 . S
C2007 H1983 0.951 . S
C2007 C2008 1.366 . S
C2007 C2009 1.388 . S
C2008 C2007 1.366 . S
C2008 C2012 1.385 . S
C2009 H1984 0.951 . S
C2009 C2007 1.388 . S
C2009 C2010 1.366 . S
C2010 C2009 1.366 . S
C2010 C2011 1.414 . S
C2010 C2013 1.499 . S
C2011 H1985 0.950 . S
C2011 C2010 1.414 . S
C2011 C2012 1.374 . S
C2012 H1986 0.950 . S
C2012 C2008 1.385 . S
C2012 C2011 1.374 . S
C2013 C2010 1.499 . S
C2013 C2014 1.373 . S
C2013 C2015 1.389 . S
C2014 H1987 0.950 . S
C2014 C2000 1.377 . S
C2014 C2013 1.373 . S
C2015 C1999 1.377 . S
C2015 C2013 1.389 . S
C2015 C2016 1.524 . S
C2016 C2015 1.524 . S
C2016 C2017 1.397 . S
C2016 C2021 1.363 . S
C2017 H1988 0.950 . S
C2017 C2016 1.397 . S
C2017 C2018 1.334 . S
C2018 H1989 0.950 . S
C2018 C2017 1.334 . S
C2018 C2019 1.287 . S
C2019 C2018 1.287 . S
C2019 C2020 1.524 . S
C2019 H2022 0.999 . S
C2020 H1990 0.950 . S
C2020 C2019 1.524 . S
C2020 C2021 1.415 . S
C2021 H1991 0.950 . S
C2021 C2016 1.363 . S
C2021 C2020 1.415 . S
H2022 C2019 0.999 . S
H2023 C2004 0.913 . S
H2024 C2042 0.951 . S
H2025 C2044 0.951 . S
H2026 C2046 0.950 . S
H2027 C2047 0.950 . S
H2028 C2049 0.950 . S
H2029 C2052 0.950 . S
H2030 C2053 0.950 1_554 S
H2031 C2055 0.950 . S
H2032 C2056 0.950 . S
H2033 C2057 0.951 . S
H2034 C2059 0.951 . S
H2035 C2061 0.950 . S
H2036 C2062 0.950 . S
H2037 C2064 0.950 . S
H2038 C2067 0.950 . S
H2039 C2068 0.950 . S
H2040 C2070 0.950 . S
H2041 C2071 0.950 . S
C2042 H2024 0.951 . S
C2042 C2043 1.366 . S
C2042 C2044 1.388 . S
C2043 C2042 1.366 . S
C2043 C2047 1.385 . S
C2044 H2025 0.951 . S
C2044 C2042 1.388 . S
C2044 C2045 1.366 . S
C2045 C2044 1.366 . S
C2045 C2046 1.414 . S
C2045 C2048 1.499 . S
C2046 H2026 0.950 . S
C2046 C2045 1.414 . S
C2046 C2047 1.374 . S
C2047 H2027 0.950 . S
C2047 C2043 1.385 . S
C2047 C2046 1.374 . S
C2048 C2045 1.499 . S
C2048 C2049 1.373 . S
C2048 C2050 1.389 . S
C2049 H2028 0.950 . S
C2049 C2048 1.373 . S
C2049 C2065 1.377 . S
C2050 C2048 1.389 . S
C2050 C2051 1.524 . S
C2050 C2064 1.377 . S
C2051 C2050 1.524 . S
C2051 C2052 1.397 . S
C2051 C2056 1.363 . S
C2052 H2029 0.950 . S
C2052 C2051 1.397 . S
C2052 C2053 1.334 . S
C2053 H2030 0.950 1_556 S
C2053 C2052 1.334 . S
C2053 C2054 1.287 . S
C2054 C2053 1.287 . S
C2054 C2055 1.524 . S
C2054 H2073 0.913 1_556 S
C2055 H2031 0.950 . S
C2055 C2054 1.524 . S
C2055 C2056 1.415 . S
C2056 H2032 0.950 . S
C2056 C2051 1.363 . S
C2056 C2055 1.415 . S
C2057 H2033 0.951 . S
C2057 C2058 1.366 . S
C2057 C2059 1.388 . S
C2058 C2057 1.366 . S
C2058 C2062 1.385 . S
C2059 H2034 0.951 . S
C2059 C2057 1.388 . S
C2059 C2060 1.366 . S
C2060 C2059 1.366 . S
C2060 C2061 1.414 . S
C2060 C2063 1.499 . S
C2061 H2035 0.950 . S
C2061 C2060 1.414 . S
C2061 C2062 1.374 . S
C2062 H2036 0.950 . S
C2062 C2058 1.385 . S
C2062 C2061 1.374 . S
C2063 C2060 1.499 . S
C2063 C2064 1.373 . S
C2063 C2065 1.389 . S
C2064 H2037 0.950 . S
C2064 C2050 1.377 . S
C2064 C2063 1.373 . S
C2065 C2049 1.377 . S
C2065 C2063 1.389 . S
C2065 C2066 1.524 . S
C2066 C2065 1.524 . S
C2066 C2067 1.397 . S
C2066 C2071 1.363 . S
C2067 H2038 0.950 . S
C2067 C2066 1.397 . S
C2067 C2068 1.334 . S
C2068 H2039 0.950 . S
C2068 C2067 1.334 . S
C2068 C2069 1.287 . S
C2069 C2068 1.287 . S
C2069 C2070 1.524 . S
C2069 H2072 0.999 . S
C2070 H2040 0.950 . S
C2070 C2069 1.524 . S
C2070 C2071 1.415 . S
C2071 H2041 0.950 . S
C2071 C2066 1.363 . S
C2071 C2070 1.415 . S
H2072 C2069 0.999 . S
H2073 C2054 0.913 1_554 S
H2074 C2092 0.951 . S
H2075 C2094 0.951 . S
H2076 C2096 0.950 . S
H2077 C2097 0.950 . S
H2078 C2099 0.950 . S
H2079 C2102 0.950 . S
H2080 C2103 0.950 . S
H2081 C2105 0.950 . S
H2082 C2106 0.950 . S
H2083 C2107 0.951 . S
H2084 C2109 0.951 . S
H2085 C2111 0.950 . S
H2086 C2112 0.950 . S
H2087 C2114 0.950 . S
H2088 C2117 0.950 . S
H2089 C2118 0.950 . S
H2090 C2120 0.950 . S
H2091 C2121 0.950 . S
C2092 H2074 0.951 . S
C2092 C2093 1.366 . S
C2092 C2094 1.388 . S
C2093 C2092 1.366 . S
C2093 C2097 1.385 . S
C2094 H2075 0.951 . S
C2094 C2092 1.388 . S
C2094 C2095 1.366 . S
C2095 C2094 1.366 . S
C2095 C2096 1.414 . S
C2095 C2098 1.499 . S
C2096 H2076 0.950 . S
C2096 C2095 1.414 . S
C2096 C2097 1.374 . S
C2097 H2077 0.950 . S
C2097 C2093 1.385 . S
C2097 C2096 1.374 . S
C2098 C2095 1.499 . S
C2098 C2099 1.373 . S
C2098 C2100 1.389 . S
C2099 H2078 0.950 . S
C2099 C2098 1.373 . S
C2099 C2115 1.377 . S
C2100 C2098 1.389 . S
C2100 C2101 1.524 . S
C2100 C2114 1.377 . S
C2101 C2100 1.524 . S
C2101 C2102 1.397 . S
C2101 C2106 1.363 . S
C2102 H2079 0.950 . S
C2102 C2101 1.397 . S
C2102 C2103 1.334 . S
C2103 H2080 0.950 . S
C2103 C2102 1.334 . S
C2103 C2104 1.287 . S
C2104 C2103 1.287 . S
C2104 C2105 1.524 . S
C2104 H2123 0.913 . S
C2105 H2081 0.950 . S
C2105 C2104 1.524 . S
C2105 C2106 1.415 . S
C2106 H2082 0.950 . S
C2106 C2101 1.363 . S
C2106 C2105 1.415 . S
C2107 H2083 0.951 . S
C2107 C2108 1.366 . S
C2107 C2109 1.388 . S
C2108 C2107 1.366 . S
C2108 C2112 1.385 . S
C2109 H2084 0.951 . S
C2109 C2107 1.388 . S
C2109 C2110 1.366 . S
C2110 C2109 1.366 . S
C2110 C2111 1.414 . S
C2110 C2113 1.499 . S
C2111 H2085 0.950 . S
C2111 C2110 1.414 . S
C2111 C2112 1.374 . S
C2112 H2086 0.950 . S
C2112 C2108 1.385 . S
C2112 C2111 1.374 . S
C2113 C2110 1.499 . S
C2113 C2114 1.373 . S
C2113 C2115 1.389 . S
C2114 H2087 0.950 . S
C2114 C2100 1.377 . S
C2114 C2113 1.373 . S
C2115 C2099 1.377 . S
C2115 C2113 1.389 . S
C2115 C2116 1.524 . S
C2116 C2115 1.524 . S
C2116 C2117 1.397 . S
C2116 C2121 1.363 . S
C2117 H2088 0.950 . S
C2117 C2116 1.397 . S
C2117 C2118 1.334 . S
C2118 H2089 0.950 . S
C2118 C2117 1.334 . S
C2118 C2119 1.287 . S
C2119 C2118 1.287 . S
C2119 C2120 1.524 . S
C2119 H2122 0.999 . S
C2120 H2090 0.950 . S
C2120 C2119 1.524 . S
C2120 C2121 1.415 . S
C2121 H2091 0.950 . S
C2121 C2116 1.363 . S
C2121 C2120 1.415 . S
H2122 C2119 0.999 . S
H2123 C2104 0.913 . S
H2124 C2142 0.951 . S
H2125 C2144 0.951 . S
H2126 C2146 0.950 . S
H2127 C2147 0.950 . S
H2128 C2149 0.950 . S
H2129 C2152 0.950 . S
H2130 C2153 0.950 . S
H2131 C2155 0.950 . S
H2132 C2156 0.950 . S
H2133 C2157 0.951 . S
H2134 C2159 0.951 . S
H2135 C2161 0.950 . S
H2136 C2162 0.950 . S
H2137 C2164 0.950 . S
H2138 C2167 0.950 . S
H2139 C2168 0.950 . S
H2140 C2170 0.950 . S
H2141 C2171 0.950 . S
C2142 H2124 0.951 . S
C2142 C2143 1.366 . S
C2142 C2144 1.388 . S
C2143 C2142 1.366 . S
C2143 C2147 1.385 . S
C2144 H2125 0.951 . S
C2144 C2142 1.388 . S
C2144 C2145 1.366 . S
C2145 C2144 1.366 . S
C2145 C2146 1.414 . S
C2145 C2148 1.499 . S
C2146 H2126 0.950 . S
C2146 C2145 1.414 . S
C2146 C2147 1.374 . S
C2147 H2127 0.950 . S
C2147 C2143 1.385 . S
C2147 C2146 1.374 . S
C2148 C2145 1.499 . S
C2148 C2149 1.373 . S
C2148 C2150 1.389 . S
C2149 H2128 0.950 . S
C2149 C2148 1.373 . S
C2149 C2165 1.377 . S
C2150 C2148 1.389 . S
C2150 C2151 1.524 . S
C2150 C2164 1.377 . S
C2151 C2150 1.524 . S
C2151 C2152 1.397 . S
C2151 C2156 1.363 . S
C2152 H2129 0.950 . S
C2152 C2151 1.397 . S
C2152 C2153 1.334 . S
C2153 H2130 0.950 . S
C2153 C2152 1.334 . S
C2153 C2154 1.287 . S
C2154 C2153 1.287 . S
C2154 C2155 1.524 . S
C2154 H2173 0.913 . S
C2155 H2131 0.950 . S
C2155 C2154 1.524 . S
C2155 C2156 1.415 . S
C2156 H2132 0.950 . S
C2156 C2151 1.363 . S
C2156 C2155 1.415 . S
C2157 H2133 0.951 . S
C2157 C2158 1.366 . S
C2157 C2159 1.388 . S
C2158 C2157 1.366 . S
C2158 C2162 1.385 . S
C2159 H2134 0.951 . S
C2159 C2157 1.388 . S
C2159 C2160 1.366 . S
C2160 C2159 1.366 . S
C2160 C2161 1.414 . S
C2160 C2163 1.499 . S
C2161 H2135 0.950 . S
C2161 C2160 1.414 . S
C2161 C2162 1.374 . S
C2162 H2136 0.950 . S
C2162 C2158 1.385 . S
C2162 C2161 1.374 . S
C2163 C2160 1.499 . S
C2163 C2164 1.373 . S
C2163 C2165 1.389 . S
C2164 H2137 0.950 . S
C2164 C2150 1.377 . S
C2164 C2163 1.373 . S
C2165 C2149 1.377 . S
C2165 C2163 1.389 . S
C2165 C2166 1.524 . S
C2166 C2165 1.524 . S
C2166 C2167 1.397 . S
C2166 C2171 1.363 . S
C2167 H2138 0.950 . S
C2167 C2166 1.397 . S
C2167 C2168 1.334 . S
C2168 H2139 0.950 . S
C2168 C2167 1.334 . S
C2168 C2169 1.287 . S
C2169 C2168 1.287 . S
C2169 C2170 1.524 . S
C2169 H2172 0.999 . S
C2170 H2140 0.950 . S
C2170 C2169 1.524 . S
C2170 C2171 1.415 . S
C2171 H2141 0.950 . S
C2171 C2166 1.363 . S
C2171 C2170 1.415 . S
H2172 C2169 0.999 . S
H2173 C2154 0.913 . S
H2174 C2192 0.951 . S
H2175 C2194 0.951 . S
H2176 C2196 0.950 . S
H2177 C2197 0.950 . S
H2178 C2199 0.950 . S
H2179 C2202 0.950 . S
H2180 C2203 0.950 . S
H2181 C2205 0.950 . S
H2182 C2206 0.950 . S
H2183 C2207 0.951 . S
H2184 C2209 0.951 . S
H2185 C2211 0.950 . S
H2186 C2212 0.950 . S
H2187 C2214 0.950 . S
H2188 C2217 0.950 . S
H2189 C2218 0.950 . S
H2190 C2220 0.950 . S
H2191 C2221 0.950 . S
C2192 H2174 0.951 . S
C2192 C2193 1.366 . S
C2192 C2194 1.388 . S
C2193 C2192 1.366 . S
C2193 C2197 1.385 . S
C2194 H2175 0.951 . S
C2194 C2192 1.388 . S
C2194 C2195 1.366 . S
C2195 C2194 1.366 . S
C2195 C2196 1.414 . S
C2195 C2198 1.499 . S
C2196 H2176 0.950 . S
C2196 C2195 1.414 . S
C2196 C2197 1.374 . S
C2197 H2177 0.950 . S
C2197 C2193 1.385 . S
C2197 C2196 1.374 . S
C2198 C2195 1.499 . S
C2198 C2199 1.373 . S
C2198 C2200 1.389 . S
C2199 H2178 0.950 . S
C2199 C2198 1.373 . S
C2199 C2215 1.377 . S
C2200 C2198 1.389 . S
C2200 C2201 1.524 . S
C2200 C2214 1.377 . S
C2201 C2200 1.524 . S
C2201 C2202 1.397 . S
C2201 C2206 1.363 . S
C2202 H2179 0.950 . S
C2202 C2201 1.397 . S
C2202 C2203 1.334 . S
C2203 H2180 0.950 . S
C2203 C2202 1.334 . S
C2203 C2204 1.287 . S
C2204 C2203 1.287 . S
C2204 C2205 1.524 . S
C2204 H2223 0.913 . S
C2205 H2181 0.950 . S
C2205 C2204 1.524 . S
C2205 C2206 1.415 . S
C2206 H2182 0.950 . S
C2206 C2201 1.363 . S
C2206 C2205 1.415 . S
C2207 H2183 0.951 . S
C2207 C2208 1.366 . S
C2207 C2209 1.388 . S
C2208 C2207 1.366 . S
C2208 C2212 1.385 . S
C2209 H2184 0.951 . S
C2209 C2207 1.388 . S
C2209 C2210 1.366 . S
C2210 C2209 1.366 . S
C2210 C2211 1.414 . S
C2210 C2213 1.499 . S
C2211 H2185 0.950 . S
C2211 C2210 1.414 . S
C2211 C2212 1.374 . S
C2212 H2186 0.950 . S
C2212 C2208 1.385 . S
C2212 C2211 1.374 . S
C2213 C2210 1.499 . S
C2213 C2214 1.373 . S
C2213 C2215 1.389 . S
C2214 H2187 0.950 . S
C2214 C2200 1.377 . S
C2214 C2213 1.373 . S
C2215 C2199 1.377 . S
C2215 C2213 1.389 . S
C2215 C2216 1.524 . S
C2216 C2215 1.524 . S
C2216 C2217 1.397 . S
C2216 C2221 1.363 . S
C2217 H2188 0.950 . S
C2217 C2216 1.397 . S
C2217 C2218 1.334 . S
C2218 H2189 0.950 . S
C2218 C2217 1.334 . S
C2218 C2219 1.287 . S
C2219 C2218 1.287 . S
C2219 C2220 1.524 . S
C2219 H2222 0.999 . S
C2220 H2190 0.950 . S
C2220 C2219 1.524 . S
C2220 C2221 1.415 . S
C2221 H2191 0.950 . S
C2221 C2216 1.363 . S
C2221 C2220 1.415 . S
H2222 C2219 0.999 . S
H2223 C2204 0.913 . S
C658 C545 1.397 . S
C643 C53 1.416 . S
C693 C115 1.428 . S
C708 C577 1.406 . S
C743 C177 1.432 . S
C758 C600 1.415 . S
C808 C504 1.428 . S
C793 C239 1.440 . S
C858 C587 1.524 . S
C843 C47 1.576 . S
C908 C616 1.518 . S
C893 C109 1.557 . S
C958 C520 1.527 . S
C943 C171 1.564 . S
C1008 C555 1.513 . S
C993 C233 1.569 . S
C1043 C29 1.578 . S
C1058 C583 1.540 . S
C1093 C277 1.569 . S
C1108 C558 1.514 . S
C1143 C153 1.567 . S
C1158 C526 1.516 . S
C1208 C615 1.518 . S
C1193 C339 1.561 . S
C1258 C559 1.397 . S
C1243 C35 1.421 . S
C1293 C283 1.441 . S
C1308 C527 1.421 . S
C1343 C159 1.432 . S
C1358 C614 1.422 . S
C1408 C582 1.415 . S
C1393 C345 1.428 . S
C1443 C419 1.570 . S
C1458 C609 1.635 . S
C1493 C301 1.435 . S
C1508 C513 1.413 . S
C1543 C487 1.419 . S
C1558 C536 1.409 . S
C1593 C363 1.429 . S
C1608 C568 1.415 . S
C1658 C523 1.340 . S
C1643 C425 1.436 . S
C1693 C295 1.570 . S
C1708 C552 1.528 . S
C1743 C481 1.578 . S
C1758 C584 1.539 . S
C1808 C619 1.510 . S
C1793 C357 1.567 . S
C1843 C407 1.433 . S
C1858 C519 1.342 . S
C1893 C91 1.565 . S
C1908 C622 1.508 . S
C1943 C463 1.578 . S
C1958 C590 1.521 . S
C2008 C551 1.528 . S
C1993 C215 1.569 . S
C2058 C623 1.632 . S
C2043 C401 1.568 . S
C2108 C591 1.406 . S
C2093 C97 1.429 . S
C2158 C550 1.406 . S
C2143 C469 1.416 . S
C2208 C518 1.421 . S
C2193 C221 1.434 . S
