# Generated by pormake.
# Topology nom, (4,4)-cn, num edge types: 1
# Building blocks:
#     Node 0, Type 0, BuildingBlock: AZAVOO_clean_linker_0, # of connection points: 4
#     Node 1, Type 0, BuildingBlock: AZAVOO_clean_linker_0, # of connection points: 4
#     Node 2, Type 0, BuildingBlock: AZAVOO_clean_linker_0, # of connection points: 4
#     Node 3, Type 0, BuildingBlock: AZAVOO_clean_linker_0, # of connection points: 4
#     Node 4, Type 0, BuildingBlock: AZAVOO_clean_linker_0, # of connection points: 4
#     Node 5, Type 0, BuildingBlock: AZAVOO_clean_linker_0, # of connection points: 4
#     Node 6, Type 1, BuildingBlock: AZAVOO_clean_sbu_0, # of connection points: 4
#     Node 7, Type 1, BuildingBlock: AZAVOO_clean_sbu_0, # of connection points: 4
#     Node 8, Type 1, BuildingBlock: AZAVOO_clean_sbu_0, # of connection points: 4
#     Node 9, Type 1, BuildingBlock: AZAVOO_clean_sbu_0, # of connection points: 4
#     Node 10, Type 1, BuildingBlock: AZAVOO_clean_sbu_0, # of connection points: 4
#     Node 11, Type 1, BuildingBlock: AZAVOO_clean_sbu_0, # of connection points: 4
#     Edge 12, Type (0, 1), None
#     Edge 13, Type (0, 1), None
#     Edge 14, Type (0, 1), None
#     Edge 15, Type (0, 1), None
#     Edge 16, Type (0, 1), None
#     Edge 17, Type (0, 1), None
#     Edge 18, Type (0, 1), None
#     Edge 19, Type (0, 1), None
#     Edge 20, Type (0, 1), None
#     Edge 21, Type (0, 1), None
#     Edge 22, Type (0, 1), None
#     Edge 23, Type (0, 1), None
#     Edge 24, Type (0, 1), None
#     Edge 25, Type (0, 1), None
#     Edge 26, Type (0, 1), None
#     Edge 27, Type (0, 1), None
#     Edge 28, Type (0, 1), None
#     Edge 29, Type (0, 1), None
#     Edge 30, Type (0, 1), None
#     Edge 31, Type (0, 1), None
#     Edge 32, Type (0, 1), None
#     Edge 33, Type (0, 1), None
#     Edge 34, Type (0, 1), None
#     Edge 35, Type (0, 1), None
# Relax obj value: 0.238
# Max RMSD: 0.242
# Mean RMSD: 0.195
data_MOF--net-nom--node1-AZAVOO_clean_sbu_0--node2-AZAVOO_clean_linker_0--edge1-none
_symmetry_space_group_name_H-M    P1
_symmetry_Int_Tables_number       1
_symmetry_cell_setting            triclinic
loop_
_symmetry_equiv_pos_as_xyz
'x, y, z'
_cell_length_a     26.081325
_cell_length_b     27.187847
_cell_length_c     30.198449
_cell_angle_alpha  91.184638
_cell_angle_beta   91.762356
_cell_angle_gamma 121.26177
loop_
_atom_site_label
_atom_site_type_symbol
_atom_site_fract_x
_atom_site_fract_y
_atom_site_fract_z
_atom_type_partial_charge
H0 H 0.02572 0.4369 0.99717 0.0
H1 H 0.42714 0.7677 0.41922 0.0
H2 H 0.97406 0.36077 0.24546 0.0
H3 H 0.91446 0.31044 0.17794 0.0
H4 H 0.87409 0.44436 0.1602 0.0
H5 H 0.93407 0.49437 0.22833 0.0
H6 H 0.0811 0.43238 0.18519 0.0
H7 H 0.06264 0.42233 0.10454 0.0
H8 H 0.02255 0.55792 0.11 0.0
H9 H 0.03965 0.56649 0.19058 0.0
H10 H 0.22433 0.53265 0.25212 0.0
H11 H 0.32074 0.61218 0.22874 0.0
H12 H 0.23626 0.70851 0.19599 0.0
H13 H 0.14181 0.63144 0.22253 0.0
H14 H 0.20238 0.50633 0.34992 0.0
H15 H 0.3006 0.56716 0.3886 0.0
H16 H 0.29263 0.71828 0.35977 0.0
H17 H 0.19411 0.65692 0.32192 0.0
H18 H 0.07342 0.42685 0.38559 0.0
H19 H 0.12985 0.44128 0.45547 0.0
H20 H 0.1726 0.61751 0.46588 0.0
H21 H 0.11463 0.60204 0.39627 0.0
H22 H 0.90882 0.38233 0.3234 0.0
H23 H 0.81691 0.3826 0.33733 0.0
H24 H 0.92328 0.56488 0.37147 0.0
H25 H 0.01383 0.56473 0.35632 0.0
O26 O 0.03126 0.44082 0.02908 0.0
O27 O 0.01682 0.51448 0.03275 0.0
O28 O 0.39034 0.66356 0.41827 0.0
O29 O 0.38862 0.7426 0.40386 0.0
C30 C 0.01598 0.47217 0.26767 0.0
C31 C 0.06766 0.50277 0.24279 0.0
C32 C 0.12412 0.53777 0.26441 0.0
C33 C 0.13049 0.54017 0.31098 0.0
C34 C 0.07911 0.51133 0.33648 0.0
C35 C 0.0209 0.48025 0.31479 0.0
C36 C 0.95871 0.43143 0.24211 0.0
C37 C 0.94972 0.37774 0.22843 0.0
C38 C 0.91654 0.34959 0.18906 0.0
C39 C 0.89115 0.37431 0.16255 0.0
C40 C 0.89391 0.4245 0.17923 0.0
C41 C 0.92725 0.45269 0.21878 0.0
C42 C 0.06201 0.50032 0.19356 0.0
C43 C 0.06898 0.46024 0.16879 0.0
C44 C 0.05826 0.45453 0.1228 0.0
C45 C 0.04124 0.48941 0.10088 0.0
C46 C 0.0357 0.53049 0.12584 0.0
C47 C 0.04586 0.53574 0.17179 0.0
C48 C 0.17632 0.57644 0.23883 0.0
C49 C 0.22647 0.57033 0.23879 0.0
C50 C 0.2812 0.61557 0.22573 0.0
C51 C 0.28524 0.66602 0.21109 0.0
C52 C 0.23372 0.66965 0.20701 0.0
C53 C 0.17968 0.62544 0.22159 0.0
C54 C 0.19112 0.57722 0.33326 0.0
C55 C 0.22195 0.55256 0.35206 0.0
C56 C 0.27804 0.58742 0.37407 0.0
C57 C 0.30443 0.64762 0.37735 0.0
C58 C 0.27361 0.67213 0.35794 0.0
C59 C 0.21743 0.63722 0.33617 0.0
C60 C 0.08918 0.51306 0.3856 0.0
C61 C 0.0923 0.46769 0.40399 0.0
C62 C 0.12606 0.47661 0.44356 0.0
C63 C 0.15779 0.53131 0.46567 0.0
C64 C 0.15009 0.57526 0.44931 0.0
C65 C 0.11553 0.566 0.41001 0.0
C66 C 0.96838 0.47368 0.33803 0.0
C67 C 0.91241 0.42188 0.33536 0.0
C68 C 0.85985 0.42208 0.3436 0.0
C69 C 0.86276 0.47415 0.35446 0.0
C70 C 0.91936 0.52422 0.36254 0.0
C71 C 0.97151 0.524 0.35429 0.0
C72 C 0.02898 0.48255 0.05222 0.0
C73 C 0.36372 0.68485 0.40106 0.0
H74 H 0.54852 0.07057 0.19349 0.0
H75 H 0.71775 0.40443 0.61005 0.0
H76 H 0.59727 0.98812 0.44662 0.0
H77 H 0.60882 0.94061 0.38151 0.0
H78 H 0.41923 0.86047 0.34758 0.0
H79 H 0.40852 0.90967 0.41228 0.0
H80 H 0.60045 0.06775 0.3828 0.0
H81 H 0.59495 0.07022 0.30194 0.0
H82 H 0.41298 0.03399 0.30655 0.0
H83 H 0.41898 0.03102 0.3875 0.0
H84 H 0.62884 0.17157 0.41778 0.0
H85 H 0.64849 0.25839 0.38068 0.0
H86 H 0.48228 0.23557 0.4263 0.0
H87 H 0.46174 0.14698 0.46157 0.0
H88 H 0.65948 0.14797 0.53426 0.0
H89 H 0.7297 0.24282 0.56887 0.0
H90 H 0.58661 0.27866 0.57348 0.0
H91 H 0.5163 0.18282 0.5396 0.0
H92 H 0.59778 0.02684 0.58232 0.0
H93 H 0.64015 0.06618 0.65745 0.0
H94 H 0.51954 0.12955 0.66815 0.0
H95 H 0.47552 0.08782 0.59422 0.0
H96 H 0.51929 0.90491 0.50677 0.0
H97 H 0.452 0.80786 0.53192 0.0
H98 H 0.34013 0.86436 0.58828 0.0
H99 H 0.40488 0.96021 0.56015 0.0
O100 O 0.54892 0.06729 0.22533 0.0
O101 O 0.45577 0.04932 0.22955 0.0
O102 O 0.75913 0.34141 0.60218 0.0
O103 O 0.6895 0.36518 0.59969 0.0
C104 C 0.50239 0.99847 0.46161 0.0
C105 C 0.51394 0.0488 0.43999 0.0
C106 C 0.53174 0.09993 0.46485 0.0
C107 C 0.5424 0.10177 0.51096 0.0
C108 C 0.52345 0.05001 0.53342 0.0
C109 C 0.50059 0.99701 0.50859 0.0
C110 C 0.50204 0.95236 0.43421 0.0
C111 C 0.55765 0.9581 0.42632 0.0
C112 C 0.56433 0.93129 0.38889 0.0
C113 C 0.51522 0.89754 0.35905 0.0
C114 C 0.45799 0.88619 0.36998 0.0
C115 C 0.45156 0.91396 0.40711 0.0
C116 C 0.50997 0.04886 0.39085 0.0
C117 C 0.55928 0.05984 0.36622 0.0
C118 C 0.55606 0.06141 0.32006 0.0
C119 C 0.50358 0.05248 0.29777 0.0
C120 C 0.45409 0.04111 0.32267 0.0
C121 C 0.45734 0.03937 0.36886 0.0
C122 C 0.54381 0.15286 0.44225 0.0
C123 C 0.59632 0.18489 0.41924 0.0
C124 C 0.60743 0.23457 0.39813 0.0
C125 C 0.56696 0.25407 0.40059 0.0
C126 C 0.51442 0.22189 0.42385 0.0
C127 C 0.50268 0.17138 0.44407 0.0
C128 C 0.58295 0.15869 0.53412 0.0
C129 C 0.64325 0.17618 0.54308 0.0
C130 C 0.68329 0.23042 0.56279 0.0
C131 C 0.66385 0.26847 0.57367 0.0
C132 C 0.60308 0.2505 0.56524 0.0
C133 C 0.56288 0.19591 0.54574 0.0
C134 C 0.53365 0.0546 0.58254 0.0
C135 C 0.57851 0.04673 0.60168 0.0
C136 C 0.60331 0.07002 0.64435 0.0
C137 C 0.58429 0.10239 0.66804 0.0
C138 C 0.53596 0.10591 0.65028 0.0
C139 C 0.51017 0.08132 0.6083 0.0
C140 C 0.46685 0.94029 0.53042 0.0
C141 C 0.47979 0.89649 0.52373 0.0
C142 C 0.44129 0.84079 0.53835 0.0
C143 C 0.38999 0.82797 0.56143 0.0
C144 C 0.37891 0.87254 0.57027 0.0
C145 C 0.41645 0.92771 0.55458 0.0
C146 C 0.501 0.05603 0.24885 0.0
C147 C 0.70708 0.32702 0.59291 0.0
H148 H 0.72844 0.56075 0.89558 0.0
H149 H 0.71171 0.32688 0.45026 0.0
H150 H 0.67827 0.69328 0.67109 0.0
H151 H 0.65541 0.73619 0.73459 0.0
H152 H 0.47654 0.58589 0.73245 0.0
H153 H 0.49865 0.54474 0.66877 0.0
H154 H 0.73726 0.62191 0.71017 0.0
H155 H 0.75056 0.61253 0.78958 0.0
H156 H 0.56177 0.48315 0.79315 0.0
H157 H 0.54959 0.49174 0.71357 0.0
H158 H 0.76008 0.54711 0.66839 0.0
H159 H 0.77913 0.48133 0.71058 0.0
H160 H 0.59333 0.34612 0.68584 0.0
H161 H 0.5749 0.41221 0.64502 0.0
H162 H 0.75611 0.56583 0.55405 0.0
H163 H 0.79312 0.51737 0.50715 0.0
H164 H 0.62039 0.35933 0.50932 0.0
H165 H 0.58433 0.40813 0.55677 0.0
H166 H 0.69234 0.63267 0.51575 0.0
H167 H 0.72517 0.61803 0.44463 0.0
H168 H 0.5729 0.44344 0.43443 0.0
H169 H 0.54005 0.459 0.50533 0.0
H170 H 0.58044 0.6697 0.5859 0.0
H171 H 0.4866 0.66888 0.57265 0.0
H172 H 0.39338 0.48601 0.54102 0.0
H173 H 0.48585 0.48686 0.55552 0.0
O174 O 0.72173 0.56568 0.86472 0.0
O175 O 0.6228 0.50705 0.86674 0.0
O176 O 0.78155 0.43178 0.46104 0.0
O177 O 0.6976 0.34722 0.4679 0.0
C178 C 0.60772 0.5838 0.63646 0.0
C179 C 0.63617 0.55736 0.65719 0.0
C180 C 0.65186 0.52375 0.63171 0.0
C181 C 0.64475 0.52097 0.58545 0.0
C182 C 0.61493 0.54609 0.56464 0.0
C183 C 0.59175 0.57364 0.59035 0.0
C184 C 0.58971 0.61625 0.66518 0.0
C185 C 0.63342 0.67097 0.68337 0.0
C186 C 0.62072 0.69511 0.71972 0.0
C187 C 0.56482 0.66372 0.7386 0.0
C188 C 0.52037 0.61054 0.71867 0.0
C189 C 0.53247 0.58727 0.68196 0.0
C190 C 0.64243 0.55786 0.70631 0.0
C191 C 0.69875 0.59215 0.72834 0.0
C192 C 0.70625 0.58642 0.7736 0.0
C193 C 0.65729 0.54679 0.79763 0.0
C194 C 0.60041 0.51402 0.77564 0.0
C195 C 0.5932 0.51918 0.73029 0.0
C196 C 0.66622 0.48409 0.65378 0.0
C197 C 0.72387 0.50315 0.67205 0.0
C198 C 0.7345 0.46568 0.69615 0.0
C199 C 0.68767 0.40865 0.70157 0.0
C200 C 0.63037 0.38971 0.68224 0.0
C201 C 0.61976 0.42723 0.65875 0.0
C202 C 0.66767 0.49046 0.55875 0.0
C203 C 0.72657 0.52064 0.54463 0.0
C204 C 0.74743 0.49294 0.51767 0.0
C205 C 0.70968 0.43445 0.50452 0.0
C206 C 0.65065 0.40433 0.51892 0.0
C207 C 0.63002 0.432 0.54617 0.0
C208 C 0.614 0.54687 0.51582 0.0
C209 C 0.66417 0.5924 0.49695 0.0
C210 C 0.68373 0.58338 0.45681 0.0
C211 C 0.65316 0.52866 0.43507 0.0
C212 C 0.59851 0.4855 0.4512 0.0
C213 C 0.57861 0.49485 0.4911 0.0
C214 C 0.54055 0.57829 0.57189 0.0
C215 C 0.54011 0.62979 0.57493 0.0
C216 C 0.48635 0.62928 0.56705 0.0
C217 C 0.43206 0.57722 0.55607 0.0
C218 C 0.43403 0.52688 0.54953 0.0
C219 C 0.48737 0.52741 0.55747 0.0
C220 C 0.66596 0.53865 0.84513 0.0
C221 C 0.73191 0.40466 0.4764 0.0
H222 H 0.16802 0.4127 0.11114 0.0
H223 H 0.41889 0.59832 0.65658 0.0
H224 H 0.01138 0.47125 0.8703 0.0
H225 H 0.94599 0.46144 0.9294 0.0
H226 H 0.90847 0.28903 0.95001 0.0
H227 H 0.97488 0.2996 0.89004 0.0
H228 H 0.13217 0.48915 0.93961 0.0
H229 H 0.15124 0.47295 0.01618 0.0
H230 H 0.10438 0.30014 0.97682 0.0
H231 H 0.0886 0.3181 0.89989 0.0
H232 H 0.21767 0.54753 0.89085 0.0
H233 H 0.32468 0.59926 0.91034 0.0
H234 H 0.33217 0.45148 0.86353 0.0
H235 H 0.22443 0.39989 0.84512 0.0
H236 H 0.21855 0.57784 0.79888 0.0
H237 H 0.30871 0.63754 0.75787 0.0
H238 H 0.2993 0.48374 0.70529 0.0
H239 H 0.20952 0.42465 0.74688 0.0
H240 H 0.09477 0.53782 0.75656 0.0
H241 H 0.14739 0.59599 0.69405 0.0
H242 H 0.15146 0.45167 0.63617 0.0
H243 H 0.09933 0.39421 0.69864 0.0
H244 H 0.96594 0.44555 0.77787 0.0
H245 H 0.85775 0.38358 0.76043 0.0
H246 H 0.87565 0.23414 0.75864 0.0
H247 H 0.98327 0.29635 0.77551 0.0
O248 O 0.16077 0.41828 0.08056 0.0
O249 O 0.13064 0.32803 0.05952 0.0
O250 O 0.39148 0.65367 0.70605 0.0
O251 O 0.38405 0.5758 0.67382 0.0
C252 C 0.047 0.39912 0.84662 0.0
C253 C 0.10332 0.41657 0.8672 0.0
C254 C 0.15512 0.4472 0.84333 0.0
C255 C 0.15138 0.46093 0.7991 0.0
C256 C 0.0947 0.44141 0.77759 0.0
C257 C 0.04219 0.40808 0.80097 0.0
C258 C -0.00285 0.3859 0.87554 0.0
C259 C 0.98797 0.43084 0.88684 0.0
C260 C 0.95142 0.42547 0.92122 0.0
C261 C 0.92306 0.37486 0.94503 0.0
C262 C 0.9305 0.32884 0.93265 0.0
C263 C 0.96758 0.33443 0.8981 0.0
C264 C 0.10899 0.40477 0.91433 0.0
C265 C 0.12623 0.44791 0.9476 0.0
C266 C 0.13705 0.4385 0.9913 0.0
C267 C 0.12904 0.38514 0.00268 0.0
C268 C 0.1107 0.34164 0.96924 0.0
C269 C 0.10133 0.35163 0.92536 0.0
C270 C 0.21436 0.4708 0.86586 0.0
C271 C 0.24213 0.52562 0.88672 0.0
C272 C 0.30325 0.55499 0.89782 0.0
C273 C 0.3372 0.5302 0.88687 0.0
C274 C 0.3074 0.47213 0.87165 0.0
C275 C 0.24602 0.44262 0.86085 0.0
C276 C 0.20745 0.49704 0.77553 0.0
C277 C 0.2363 0.55723 0.77867 0.0
C278 C 0.2877 0.59116 0.75518 0.0
C279 C 0.31103 0.56536 0.7281 0.0
C280 C 0.2824 0.50496 0.72568 0.0
C281 C 0.23121 0.47112 0.74941 0.0
C282 C 0.09358 0.46178 0.73248 0.0
C283 C 0.10358 0.51757 0.72897 0.0
C284 C 0.13452 0.55115 0.6934 0.0
C285 C 0.15571 0.52921 0.66093 0.0
C286 C 0.13739 0.47054 0.66119 0.0
C287 C 0.10623 0.43697 0.69656 0.0
C288 C 0.98225 0.37536 0.77798 0.0
C289 C 0.94678 0.39975 0.77177 0.0
C290 C 0.88495 0.36414 0.76184 0.0
C291 C 0.85797 0.30375 0.75874 0.0
C292 C 0.89488 0.28032 0.76108 0.0
C293 C 0.95645 0.31585 0.77056 0.0
C294 C 0.14007 0.37519 0.04923 0.0
C295 C 0.36466 0.60112 0.70214 0.0
H296 H 0.30374 0.94365 0.69835 0.0
H297 H 0.26362 0.63357 0.10873 0.0
H298 H 0.43607 0.09966 0.92023 0.0
H299 H 0.49489 0.16869 0.86429 0.0
H300 H 0.61849 0.1076 0.86741 0.0
H301 H 0.55847 0.03791 0.92135 0.0
H302 H 0.32069 0.96786 0.89218 0.0
H303 H 0.29872 0.95905 0.81198 0.0
H304 H 0.45108 0.94017 0.79114 0.0
H305 H 0.47232 0.94881 0.87128 0.0
H306 H 0.30245 0.82521 0.90691 0.0
H307 H 0.31694 0.75377 0.86644 0.0
H308 H 0.49526 0.83123 0.92858 0.0
H309 H 0.48054 0.90085 0.96804 0.0
H310 H 0.27691 0.86416 0.02414 0.0
H311 H 0.21886 0.77062 0.05762 0.0
H312 H 0.3813 0.76675 0.07962 0.0
H313 H 0.43883 0.86032 0.0463 0.0
H314 H 0.38062 0.97091 0.10307 0.0
H315 H 0.39846 0.94253 0.17578 0.0
H316 H 0.56102 0.95686 0.13031 0.0
H317 H 0.5384 0.9763 0.05772 0.0
H318 H 0.49756 0.12749 0.03982 0.0
H319 H 0.59809 0.21142 0.06007 0.0
H320 H 0.67718 0.11222 0.02068 0.0
H321 H 0.57892 0.03194 0.99847 0.0
O322 O 0.31298 0.94668 0.72994 0.0
O323 O 0.39225 0.93793 0.72105 0.0
O324 O 0.20641 0.68152 0.09489 0.0
O325 O 0.28603 0.67184 0.09739 0.0
C326 C 0.45604 0.01924 0.95568 0.0
C327 C 0.41151 0.96566 0.93613 0.0
C328 C 0.38842 0.91641 0.96135 0.0
C329 C 0.39498 0.9226 0.00792 0.0
C330 C 0.43937 0.97616 0.02823 0.0
C331 C 0.47243 0.02387 0.00141 0.0
C332 C 0.49439 0.06546 0.92595 0.0
C333 C 0.47635 0.102 0.90913 0.0
C334 C 0.50957 0.14076 0.87691 0.0
C335 C 0.56127 0.14341 0.8614 0.0
C336 C 0.57911 0.10679 0.87864 0.0
C337 C 0.54551 0.06769 0.91018 0.0
C338 C 0.39805 0.95907 0.88747 0.0
C339 C 0.3491 0.96165 0.8702 0.0
C340 C 0.33675 0.95668 0.8244 0.0
C341 C 0.37322 0.94901 0.79512 0.0
C342 C 0.42214 0.94613 0.81271 0.0
C343 C 0.43439 0.95108 0.85847 0.0
C344 C 0.38997 0.86733 0.94097 0.0
C345 C 0.3439 0.82557 0.91223 0.0
C346 C 0.3525 0.78534 0.88902 0.0
C347 C 0.4075 0.78738 0.89404 0.0
C348 C 0.45262 0.82868 0.92359 0.0
C349 C 0.44395 0.86809 0.94667 0.0
C350 C 0.36221 0.86959 0.03344 0.0
C351 C 0.30005 0.84355 0.03697 0.0
C352 C 0.26696 0.79 0.05594 0.0
C353 C 0.2954 0.76105 0.07109 0.0
C354 C 0.35797 0.78779 0.06821 0.0
C355 C 0.39108 0.8416 0.04958 0.0
C356 C 0.4592 0.97767 0.07505 0.0
C357 C 0.42123 0.97005 0.10951 0.0
C358 C 0.43176 0.95432 0.1511 0.0
C359 C 0.48104 0.94722 0.15872 0.0
C360 C 0.52301 0.96248 0.1259 0.0
C361 C 0.51082 0.97512 0.08403 0.0
C362 C 0.531 0.0734 0.01833 0.0
C363 C 0.53685 0.12413 0.0363 0.0
C364 C 0.59412 0.17172 0.04806 0.0
C365 C 0.64577 0.16844 0.0425 0.0
C366 C 0.63877 0.11644 0.02618 0.0
C367 C 0.58236 0.0702 0.01338 0.0
C368 C 0.36025 0.94416 0.74648 0.0
C369 C 0.25979 0.70254 0.08863 0.0
H370 H 0.70909 0.68808 0.81578 0.0
H371 H 0.81776 0.4411 0.25449 0.0
H372 H 0.55515 0.61923 0.0611 0.0
H373 H 0.51193 0.61907 0.98855 0.0
H374 H 0.67837 0.77054 0.95676 0.0
H375 H 0.72207 0.77085 0.03026 0.0
H376 H 0.63106 0.59052 0.98885 0.0
H377 H 0.64993 0.61262 0.91079 0.0
H378 H 0.83059 0.75035 0.94809 0.0
H379 H 0.81081 0.72839 0.02628 0.0
H380 H 0.66084 0.51916 0.03283 0.0
H381 H 0.69256 0.45009 0.02029 0.0
H382 H 0.86775 0.57243 0.08044 0.0
H383 H 0.83514 0.64109 0.09324 0.0
H384 H 0.63584 0.48458 0.12323 0.0
H385 H 0.65945 0.41827 0.15894 0.0
H386 H 0.81849 0.56323 0.22298 0.0
H387 H 0.7943 0.6291 0.18688 0.0
H388 H 0.56141 0.526 0.15815 0.0
H389 H 0.54982 0.45921 0.21532 0.0
H390 H 0.70052 0.59831 0.29065 0.0
H391 H 0.71426 0.66393 0.23219 0.0
H392 H 0.54934 0.62581 0.16203 0.0
H393 H 0.51855 0.6843 0.20254 0.0
H394 H 0.69193 0.83649 0.1837 0.0
H395 H 0.72218 0.7774 0.14369 0.0
O396 O 0.70405 0.67743 0.84643 0.0
O397 O 0.80151 0.7342 0.86451 0.0
O398 O 0.72278 0.39344 0.20912 0.0
O399 O 0.80716 0.46649 0.24044 0.0
C400 C 0.67338 0.6738 0.0805 0.0
C401 C 0.70508 0.65026 0.06058 0.0
C402 C 0.71984 0.61566 0.08504 0.0
C403 C 0.70084 0.60181 0.1285 0.0
C404 C 0.668 0.62378 0.14815 0.0
C405 C 0.65799 0.66307 0.12539 0.0
C406 C 0.6423 0.69414 0.05071 0.0
C407 C 0.58143 0.65462 0.03986 0.0
C408 C 0.55702 0.65396 0.99802 0.0
C409 C 0.59263 0.69372 0.96691 0.0
C410 C 0.65035 0.73924 0.98025 0.0
C411 C 0.67506 0.73972 0.02238 0.0
C412 C 0.71931 0.65846 0.01311 0.0
C413 C 0.67486 0.62506 0.98004 0.0
C414 C 0.68565 0.63795 0.93552 0.0
C415 C 0.7414 0.68379 0.92329 0.0
C416 C 0.787 0.71502 0.95644 0.0
C417 C 0.77595 0.70247 0.00105 0.0
C418 C 0.74592 0.58499 0.06366 0.0
C419 C 0.70681 0.53184 0.04158 0.0
C420 C 0.72456 0.49206 0.0354 0.0
C421 C 0.78196 0.50546 0.05063 0.0
C422 C 0.82295 0.56083 0.06895 0.0
C423 C 0.80489 0.60041 0.07558 0.0
C424 C 0.71326 0.56155 0.15265 0.0
C425 C 0.67557 0.50186 0.14518 0.0
C426 C 0.68924 0.46413 0.16553 0.0
C427 C 0.74106 0.48548 0.19364 0.0
C428 C 0.77841 0.54538 0.20137 0.0
C429 C 0.76459 0.58309 0.18101 0.0
C430 C 0.63997 0.59935 0.1904 0.0
C431 C 0.5897 0.5429 0.18831 0.0
C432 C 0.58342 0.50447 0.22083 0.0
C433 C 0.62681 0.52296 0.25582 0.0
C434 C 0.66889 0.58224 0.26246 0.0
C435 C 0.67574 0.62039 0.22969 0.0
C436 C 0.63777 0.69743 0.14957 0.0
C437 C 0.5808 0.67164 0.16713 0.0
C438 C 0.56354 0.70522 0.19056 0.0
C439 C 0.60289 0.76528 0.19667 0.0
C440 C 0.66059 0.79048 0.18002 0.0
C441 C 0.67769 0.75688 0.15659 0.0
C442 C 0.75112 0.6999 0.87632 0.0
C443 C 0.7562 0.44554 0.21481 0.0
Mg444 Mg 0.66607 0.41915 0.32102 0.0
O445 O 0.65699 0.46445 0.38254 0.0
O446 O 0.71909 0.55941 0.376 0.0
Mg447 Mg 0.77057 0.5747 0.31324 0.0
C448 C 0.67834 0.51674 0.39604 0.0
C449 C 0.58068 0.30841 0.37986 0.0
O450 O 0.55126 0.33399 0.39002 0.0
O451 O 0.75699 0.43396 0.34531 0.0
O452 O 0.8177 0.52824 0.3379 0.0
O453 O 0.59409 0.4298 0.28688 0.0
O454 O 0.69127 0.49375 0.28777 0.0
C455 C 0.80914 0.47926 0.34806 0.0
C456 C 0.63727 0.48096 0.27822 0.0
O457 O 0.62351 0.33195 0.35369 0.0
Mg458 Mg 0.29569 0.63287 0.58627 0.0
O459 O 0.23252 0.59275 0.52232 0.0
O460 O 0.19367 0.49762 0.52382 0.0
Mg461 Mg 0.22869 0.47576 0.58626 0.0
C462 C 0.19756 0.54146 0.5058 0.0
C463 C 0.34919 0.76907 0.57738 0.0
O464 O 0.31674 0.76209 0.61176 0.0
O465 O 0.36991 0.6182 0.56143 0.0
O466 O 0.32754 0.52339 0.56734 0.0
O467 O 0.21608 0.62015 0.62473 0.0
O468 O 0.24163 0.55526 0.61783 0.0
C469 C 0.37276 0.57267 0.55946 0.0
C470 C 0.20477 0.56887 0.6325 0.0
O471 O 0.34689 0.72519 0.55913 0.0
Mg472 Mg 0.66346 0.2551 0.77354 0.0
O473 O 0.62048 0.18306 0.71857 0.0
O474 O 0.63933 0.11428 0.73589 0.0
Mg475 Mg 0.6867 0.1394 0.80524 0.0
C476 C 0.6164 0.13491 0.70985 0.0
C477 C 0.69744 0.36901 0.72795 0.0
O478 O 0.74643 0.38831 0.7534 0.0
O479 O 0.75843 0.28566 0.7536 0.0
O480 O 0.77255 0.21716 0.77981 0.0
O481 O 0.57826 0.21452 0.80812 0.0
O482 O 0.65027 0.19539 0.82001 0.0
C483 C 0.79219 0.26562 0.7619 0.0
C484 C 0.59766 0.18549 0.82862 0.0
O485 O 0.65646 0.31621 0.72821 0.0
Mg486 Mg 0.49315 0.6926 0.84053 0.0
O487 O 0.56188 0.71463 0.89846 0.0
O488 O 0.55765 0.63077 0.90405 0.0
Mg489 Mg 0.52271 0.57574 0.83948 0.0
C490 C 0.572 0.68041 0.9199 0.0
C491 C 0.41919 0.74734 0.86907 0.0
O492 O 0.37508 0.70063 0.84858 0.0
O493 O 0.42232 0.62224 0.88038 0.0
O494 O 0.42941 0.54551 0.86294 0.0
O495 O 0.56032 0.73395 0.78671 0.0
O496 O 0.51842 0.64437 0.80694 0.0
C497 C 0.40143 0.56806 0.87953 0.0
C498 C 0.55103 0.68266 0.77998 0.0
O499 O 0.47234 0.75676 0.86938 0.0
Mg500 Mg 0.79449 0.35202 0.02349 0.0
O501 O 0.84266 0.37226 0.09305 0.0
O502 O 0.87202 0.3093 0.1011 0.0
Mg503 Mg 0.853 0.25749 0.03507 0.0
C504 C 0.86641 0.35018 0.11666 0.0
C505 C 0.79873 0.46169 0.0477 0.0
O506 O 0.85558 0.47722 0.05034 0.0
O507 O 0.71341 0.26997 0.04605 0.0
O508 O 0.75123 0.21275 0.04209 0.0
O509 O 0.87663 0.41272 0.99039 0.0
O510 O 0.84488 0.32047 0.99539 0.0
C511 C 0.70698 0.22011 0.04645 0.0
C512 C 0.88261 0.36965 0.9801 0.0
O513 O 0.7587 0.40886 0.04076 0.0
Mg514 Mg 0.46539 0.81521 0.21731 0.0
O515 O 0.48107 0.84448 0.29012 0.0
O516 O 0.57501 0.91926 0.29646 0.0
Mg517 Mg 0.61338 0.94037 0.22697 0.0
C518 C 0.52528 0.88423 0.31345 0.0
C519 C 0.34364 0.71708 0.2049 0.0
O520 O 0.34955 0.75357 0.17475 0.0
O521 O 0.52493 0.77826 0.2202 0.0
O522 O 0.61527 0.85688 0.21447 0.0
O523 O 0.42693 0.86963 0.20586 0.0
O524 O 0.52153 0.89725 0.19574 0.0
C525 C 0.58071 0.80208 0.21382 0.0
C526 C 0.47898 0.90823 0.19267 0.0
O527 O 0.38696 0.7304 0.2324 0.0
loop_
_geom_bond_atom_site_label_1
_geom_bond_atom_site_label_2
_geom_bond_distance
_geom_bond_site_symmetry_2
_ccdc_geom_bond_type
H0 O26 0.856 . S
H1 O29 0.854 . S
H2 C37 0.930 1_455 S
H3 C38 0.930 . S
H4 C40 0.930 . S
H5 C41 0.930 . S
H6 C43 0.931 . S
H7 C44 0.930 . S
H8 C46 0.930 . S
H9 C47 0.929 . S
H10 C49 0.930 . S
H11 C50 0.931 . S
H12 C52 0.930 . S
H13 C53 0.929 . S
H14 C55 0.931 . S
H15 C56 0.930 . S
H16 C58 0.930 . S
H17 C59 0.932 . S
H18 C61 0.930 . S
H19 C62 0.929 . S
H20 C64 0.931 . S
H21 C65 0.930 . S
H22 C67 0.929 . S
H23 C68 0.931 . S
H24 C70 0.930 . S
H25 C71 0.929 . S
O26 H0 0.856 . S
O26 C72 1.300 . S
O27 C72 1.209 . S
O28 C73 1.199 . S
O29 H1 0.854 . S
O29 C73 1.297 . S
C30 C31 1.404 . S
C30 C35 1.397 . S
C30 C36 1.501 . S
C31 C30 1.404 . S
C31 C32 1.396 . S
C31 C42 1.492 . S
C32 C31 1.396 . S
C32 C33 1.397 . S
C32 C48 1.509 . S
C33 C32 1.397 . S
C33 C34 1.412 . S
C33 C54 1.485 . S
C34 C33 1.412 . S
C34 C35 1.388 . S
C34 C60 1.490 . S
C35 C30 1.397 . S
C35 C34 1.388 . S
C35 C66 1.519 1_455 S
C36 C30 1.501 . S
C36 C37 1.369 1_455 S
C36 C41 1.375 1_455 S
C37 H2 0.930 1_655 S
C37 C36 1.369 1_655 S
C37 C38 1.372 . S
C38 H3 0.930 . S
C38 C37 1.372 . S
C38 C39 1.383 . S
C39 C38 1.383 . S
C39 C40 1.395 . S
C40 H4 0.930 . S
C40 C39 1.395 . S
C40 C41 1.362 . S
C41 H5 0.930 . S
C41 C36 1.375 1_655 S
C41 C40 1.362 . S
C42 C31 1.492 . S
C42 C43 1.377 . S
C42 C47 1.397 . S
C43 H6 0.931 . S
C43 C42 1.377 . S
C43 C44 1.376 . S
C44 H7 0.930 . S
C44 C43 1.376 . S
C44 C45 1.376 . S
C45 C44 1.376 . S
C45 C46 1.378 . S
C45 C72 1.486 . S
C46 H8 0.930 . S
C46 C45 1.378 . S
C46 C47 1.376 . S
C47 H9 0.929 . S
C47 C42 1.397 . S
C47 C46 1.376 . S
C48 C32 1.509 . S
C48 C49 1.391 . S
C48 C53 1.386 . S
C49 H10 0.930 . S
C49 C48 1.391 . S
C49 C50 1.375 . S
C50 H11 0.931 . S
C50 C49 1.375 . S
C50 C51 1.375 . S
C51 C50 1.375 . S
C51 C52 1.361 . S
C52 H12 0.930 . S
C52 C51 1.361 . S
C52 C53 1.399 . S
C53 H13 0.929 . S
C53 C48 1.386 . S
C53 C52 1.399 . S
C54 C33 1.485 . S
C54 C55 1.394 . S
C54 C59 1.360 . S
C55 H14 0.931 . S
C55 C54 1.394 . S
C55 C56 1.372 . S
C56 H15 0.930 . S
C56 C55 1.372 . S
C56 C57 1.397 . S
C57 C56 1.397 . S
C57 C58 1.390 . S
C57 C73 1.476 . S
C58 H16 0.930 . S
C58 C57 1.390 . S
C58 C59 1.366 . S
C59 H17 0.932 . S
C59 C54 1.360 . S
C59 C58 1.366 . S
C60 C34 1.490 . S
C60 C61 1.380 . S
C60 C65 1.386 . S
C61 H18 0.930 . S
C61 C60 1.380 . S
C61 C62 1.381 . S
C62 H19 0.929 . S
C62 C61 1.381 . S
C62 C63 1.371 . S
C63 C62 1.371 . S
C63 C64 1.380 . S
C64 H20 0.931 . S
C64 C63 1.380 . S
C64 C65 1.387 . S
C65 H21 0.930 . S
C65 C60 1.386 . S
C65 C64 1.387 . S
C66 C35 1.519 1_655 S
C66 C67 1.377 . S
C66 C71 1.361 . S
C67 H22 0.929 . S
C67 C66 1.377 . S
C67 C68 1.386 . S
C68 H23 0.931 . S
C68 C67 1.386 . S
C68 C69 1.363 . S
C69 C68 1.363 . S
C69 C70 1.385 . S
C70 H24 0.930 . S
C70 C69 1.385 . S
C70 C71 1.396 . S
C71 H25 0.929 . S
C71 C66 1.361 . S
C71 C70 1.396 . S
C72 O26 1.300 . S
C72 O27 1.209 . S
C72 C45 1.486 . S
C73 O28 1.199 . S
C73 O29 1.297 . S
C73 C57 1.476 . S
H74 O100 0.856 . S
H75 O103 0.854 . S
H76 C111 0.930 1_545 S
H77 C112 0.930 . S
H78 C114 0.930 . S
H79 C115 0.930 . S
H80 C117 0.931 . S
H81 C118 0.930 . S
H82 C120 0.930 . S
H83 C121 0.929 . S
H84 C123 0.930 . S
H85 C124 0.931 . S
H86 C126 0.930 . S
H87 C127 0.929 . S
H88 C129 0.931 . S
H89 C130 0.930 . S
H90 C132 0.930 . S
H91 C133 0.932 . S
H92 C135 0.930 . S
H93 C136 0.929 . S
H94 C138 0.931 . S
H95 C139 0.930 . S
H96 C141 0.929 . S
H97 C142 0.931 . S
H98 C144 0.930 . S
H99 C145 0.929 . S
O100 H74 0.856 . S
O100 C146 1.300 . S
O101 C146 1.209 . S
O102 C147 1.199 . S
O103 H75 0.854 . S
O103 C147 1.297 . S
C104 C105 1.404 . S
C104 C109 1.397 . S
C104 C110 1.492 1_545 S
C105 C104 1.404 . S
C105 C106 1.396 . S
C105 C116 1.492 . S
C106 C105 1.396 . S
C106 C107 1.397 . S
C106 C122 1.509 . S
C107 C106 1.397 . S
C107 C108 1.412 . S
C107 C128 1.485 . S
C108 C107 1.412 . S
C108 C109 1.388 . S
C108 C134 1.490 . S
C109 C104 1.397 . S
C109 C108 1.388 . S
C109 C140 1.519 1_545 S
C110 C104 1.492 1_565 S
C110 C111 1.363 . S
C110 C115 1.390 . S
C111 H76 0.930 1_565 S
C111 C110 1.363 . S
C111 C112 1.372 . S
C112 H77 0.930 . S
C112 C111 1.372 . S
C112 C113 1.383 . S
C113 C112 1.383 . S
C113 C114 1.395 . S
C114 H78 0.930 . S
C114 C113 1.395 . S
C114 C115 1.362 . S
C115 H79 0.930 . S
C115 C110 1.390 . S
C115 C114 1.362 . S
C116 C105 1.492 . S
C116 C117 1.377 . S
C116 C121 1.397 . S
C117 H80 0.931 . S
C117 C116 1.377 . S
C117 C118 1.376 . S
C118 H81 0.930 . S
C118 C117 1.376 . S
C118 C119 1.376 . S
C119 C118 1.376 . S
C119 C120 1.378 . S
C119 C146 1.486 . S
C120 H82 0.930 . S
C120 C119 1.378 . S
C120 C121 1.376 . S
C121 H83 0.929 . S
C121 C116 1.397 . S
C121 C120 1.376 . S
C122 C106 1.509 . S
C122 C123 1.391 . S
C122 C127 1.386 . S
C123 H84 0.930 . S
C123 C122 1.391 . S
C123 C124 1.375 . S
C124 H85 0.931 . S
C124 C123 1.375 . S
C124 C125 1.375 . S
C125 C124 1.375 . S
C125 C126 1.361 . S
C126 H86 0.930 . S
C126 C125 1.361 . S
C126 C127 1.399 . S
C127 H87 0.929 . S
C127 C122 1.386 . S
C127 C126 1.399 . S
C128 C107 1.485 . S
C128 C129 1.394 . S
C128 C133 1.360 . S
C129 H88 0.931 . S
C129 C128 1.394 . S
C129 C130 1.372 . S
C130 H89 0.930 . S
C130 C129 1.372 . S
C130 C131 1.397 . S
C131 C130 1.397 . S
C131 C132 1.390 . S
C131 C147 1.476 . S
C132 H90 0.930 . S
C132 C131 1.390 . S
C132 C133 1.366 . S
C133 H91 0.932 . S
C133 C128 1.360 . S
C133 C132 1.366 . S
C134 C108 1.490 . S
C134 C135 1.380 . S
C134 C139 1.386 . S
C135 H92 0.930 . S
C135 C134 1.380 . S
C135 C136 1.381 . S
C136 H93 0.929 . S
C136 C135 1.381 . S
C136 C137 1.371 . S
C137 C136 1.371 . S
C137 C138 1.380 . S
C138 H94 0.931 . S
C138 C137 1.380 . S
C138 C139 1.387 . S
C139 H95 0.930 . S
C139 C134 1.386 . S
C139 C138 1.387 . S
C140 C109 1.519 1_565 S
C140 C141 1.377 . S
C140 C145 1.361 . S
C141 H96 0.929 . S
C141 C140 1.377 . S
C141 C142 1.386 . S
C142 H97 0.931 . S
C142 C141 1.386 . S
C142 C143 1.363 . S
C143 C142 1.363 . S
C143 C144 1.385 . S
C144 H98 0.930 . S
C144 C143 1.385 . S
C144 C145 1.396 . S
C145 H99 0.929 . S
C145 C140 1.361 . S
C145 C144 1.396 . S
C146 O100 1.300 . S
C146 O101 1.209 . S
C146 C119 1.486 . S
C147 O102 1.199 . S
C147 O103 1.297 . S
C147 C131 1.476 . S
H148 O174 0.856 . S
H149 O177 0.854 . S
H150 C185 0.930 . S
H151 C186 0.930 . S
H152 C188 0.930 . S
H153 C189 0.930 . S
H154 C191 0.931 . S
H155 C192 0.930 . S
H156 C194 0.930 . S
H157 C195 0.929 . S
H158 C197 0.930 . S
H159 C198 0.931 . S
H160 C200 0.930 . S
H161 C201 0.929 . S
H162 C203 0.931 . S
H163 C204 0.930 . S
H164 C206 0.930 . S
H165 C207 0.932 . S
H166 C209 0.930 . S
H167 C210 0.929 . S
H168 C212 0.931 . S
H169 C213 0.930 . S
H170 C215 0.929 . S
H171 C216 0.931 . S
H172 C218 0.930 . S
H173 C219 0.929 . S
O174 H148 0.856 . S
O174 C220 1.300 . S
O175 C220 1.209 . S
O176 C221 1.199 . S
O177 H149 0.854 . S
O177 C221 1.297 . S
C178 C179 1.404 . S
C178 C183 1.397 . S
C178 C184 1.492 . S
C179 C178 1.404 . S
C179 C180 1.396 . S
C179 C190 1.492 . S
C180 C179 1.396 . S
C180 C181 1.397 . S
C180 C196 1.509 . S
C181 C180 1.397 . S
C181 C182 1.412 . S
C181 C202 1.485 . S
C182 C181 1.412 . S
C182 C183 1.388 . S
C182 C208 1.490 . S
C183 C178 1.397 . S
C183 C182 1.388 . S
C183 C214 1.519 . S
C184 C178 1.492 . S
C184 C185 1.363 . S
C184 C189 1.390 . S
C185 H150 0.930 . S
C185 C184 1.363 . S
C185 C186 1.372 . S
C186 H151 0.930 . S
C186 C185 1.372 . S
C186 C187 1.383 . S
C187 C186 1.383 . S
C187 C188 1.395 . S
C188 H152 0.930 . S
C188 C187 1.395 . S
C188 C189 1.362 . S
C189 H153 0.930 . S
C189 C184 1.390 . S
C189 C188 1.362 . S
C190 C179 1.492 . S
C190 C191 1.377 . S
C190 C195 1.397 . S
C191 H154 0.931 . S
C191 C190 1.377 . S
C191 C192 1.376 . S
C192 H155 0.930 . S
C192 C191 1.376 . S
C192 C193 1.376 . S
C193 C192 1.376 . S
C193 C194 1.378 . S
C193 C220 1.486 . S
C194 H156 0.930 . S
C194 C193 1.378 . S
C194 C195 1.376 . S
C195 H157 0.929 . S
C195 C190 1.397 . S
C195 C194 1.376 . S
C196 C180 1.509 . S
C196 C197 1.391 . S
C196 C201 1.386 . S
C197 H158 0.930 . S
C197 C196 1.391 . S
C197 C198 1.375 . S
C198 H159 0.931 . S
C198 C197 1.375 . S
C198 C199 1.375 . S
C199 C198 1.375 . S
C199 C200 1.361 . S
C200 H160 0.930 . S
C200 C199 1.361 . S
C200 C201 1.399 . S
C201 H161 0.929 . S
C201 C196 1.386 . S
C201 C200 1.399 . S
C202 C181 1.485 . S
C202 C203 1.394 . S
C202 C207 1.360 . S
C203 H162 0.931 . S
C203 C202 1.394 . S
C203 C204 1.372 . S
C204 H163 0.930 . S
C204 C203 1.372 . S
C204 C205 1.397 . S
C205 C204 1.397 . S
C205 C206 1.390 . S
C205 C221 1.476 . S
C206 H164 0.930 . S
C206 C205 1.390 . S
C206 C207 1.366 . S
C207 H165 0.932 . S
C207 C202 1.360 . S
C207 C206 1.366 . S
C208 C182 1.490 . S
C208 C209 1.380 . S
C208 C213 1.386 . S
C209 H166 0.930 . S
C209 C208 1.380 . S
C209 C210 1.381 . S
C210 H167 0.929 . S
C210 C209 1.381 . S
C210 C211 1.371 . S
C211 C210 1.371 . S
C211 C212 1.380 . S
C212 H168 0.931 . S
C212 C211 1.380 . S
C212 C213 1.387 . S
C213 H169 0.930 . S
C213 C208 1.386 . S
C213 C212 1.387 . S
C214 C183 1.519 . S
C214 C215 1.377 . S
C214 C219 1.361 . S
C215 H170 0.929 . S
C215 C214 1.377 . S
C215 C216 1.386 . S
C216 H171 0.931 . S
C216 C215 1.386 . S
C216 C217 1.363 . S
C217 C216 1.363 . S
C217 C218 1.385 . S
C218 H172 0.930 . S
C218 C217 1.385 . S
C218 C219 1.396 . S
C219 H173 0.929 . S
C219 C214 1.361 . S
C219 C218 1.396 . S
C220 O174 1.300 . S
C220 O175 1.209 . S
C220 C193 1.486 . S
C221 O176 1.199 . S
C221 O177 1.297 . S
C221 C205 1.476 . S
H222 O248 0.856 . S
H223 O251 0.854 . S
H224 C259 0.930 1_455 S
H225 C260 0.930 . S
H226 C262 0.930 . S
H227 C263 0.930 . S
H228 C265 0.931 . S
H229 C266 0.930 . S
H230 C268 0.930 . S
H231 C269 0.929 . S
H232 C271 0.930 . S
H233 C272 0.931 . S
H234 C274 0.930 . S
H235 C275 0.929 . S
H236 C277 0.931 . S
H237 C278 0.930 . S
H238 C280 0.930 . S
H239 C281 0.932 . S
H240 C283 0.930 . S
H241 C284 0.929 . S
H242 C286 0.931 . S
H243 C287 0.930 . S
H244 C289 0.929 . S
H245 C290 0.931 . S
H246 C292 0.930 . S
H247 C293 0.929 . S
O248 H222 0.856 . S
O248 C294 1.300 . S
O249 C294 1.209 . S
O250 C295 1.199 . S
O251 H223 0.854 . S
O251 C295 1.297 . S
C252 C253 1.404 . S
C252 C257 1.397 . S
C252 C258 1.492 1_455 S
C253 C252 1.404 . S
C253 C254 1.396 . S
C253 C264 1.492 . S
C254 C253 1.396 . S
C254 C255 1.397 . S
C254 C270 1.509 . S
C255 C254 1.397 . S
C255 C256 1.412 . S
C255 C276 1.485 . S
C256 C255 1.412 . S
C256 C257 1.388 . S
C256 C282 1.490 . S
C257 C252 1.397 . S
C257 C256 1.388 . S
C257 C288 1.519 1_455 S
C258 C252 1.492 1_655 S
C258 C259 1.363 . S
C258 C263 1.390 . S
C259 H224 0.930 1_655 S
C259 C258 1.363 . S
C259 C260 1.372 . S
C260 H225 0.930 . S
C260 C259 1.372 . S
C260 C261 1.383 . S
C261 C260 1.383 . S
C261 C262 1.395 . S
C262 H226 0.930 . S
C262 C261 1.395 . S
C262 C263 1.362 . S
C263 H227 0.930 . S
C263 C258 1.390 . S
C263 C262 1.362 . S
C264 C253 1.492 . S
C264 C265 1.377 . S
C264 C269 1.397 . S
C265 H228 0.931 . S
C265 C264 1.377 . S
C265 C266 1.376 . S
C266 H229 0.930 . S
C266 C265 1.376 . S
C266 C267 1.376 . S
C267 C266 1.376 . S
C267 C268 1.378 . S
C267 C294 1.486 1_556 S
C268 H230 0.930 . S
C268 C267 1.378 . S
C268 C269 1.376 . S
C269 H231 0.929 . S
C269 C264 1.397 . S
C269 C268 1.376 . S
C270 C254 1.509 . S
C270 C271 1.391 . S
C270 C275 1.386 . S
C271 H232 0.930 . S
C271 C270 1.391 . S
C271 C272 1.375 . S
C272 H233 0.931 . S
C272 C271 1.375 . S
C272 C273 1.375 . S
C273 C272 1.375 . S
C273 C274 1.361 . S
C274 H234 0.930 . S
C274 C273 1.361 . S
C274 C275 1.399 . S
C275 H235 0.929 . S
C275 C270 1.386 . S
C275 C274 1.399 . S
C276 C255 1.485 . S
C276 C277 1.394 . S
C276 C281 1.360 . S
C277 H236 0.931 . S
C277 C276 1.394 . S
C277 C278 1.372 . S
C278 H237 0.930 . S
C278 C277 1.372 . S
C278 C279 1.397 . S
C279 C278 1.397 . S
C279 C280 1.390 . S
C279 C295 1.476 . S
C280 H238 0.930 . S
C280 C279 1.390 . S
C280 C281 1.366 . S
C281 H239 0.932 . S
C281 C276 1.360 . S
C281 C280 1.366 . S
C282 C256 1.490 . S
C282 C283 1.380 . S
C282 C287 1.386 . S
C283 H240 0.930 . S
C283 C282 1.380 . S
C283 C284 1.381 . S
C284 H241 0.929 . S
C284 C283 1.381 . S
C284 C285 1.371 . S
C285 C284 1.371 . S
C285 C286 1.380 . S
C286 H242 0.931 . S
C286 C285 1.380 . S
C286 C287 1.387 . S
C287 H243 0.930 . S
C287 C282 1.386 . S
C287 C286 1.387 . S
C288 C257 1.519 1_655 S
C288 C289 1.377 . S
C288 C293 1.361 . S
C289 H244 0.929 . S
C289 C288 1.377 . S
C289 C290 1.386 . S
C290 H245 0.931 . S
C290 C289 1.386 . S
C290 C291 1.363 . S
C291 C290 1.363 . S
C291 C292 1.385 . S
C292 H246 0.930 . S
C292 C291 1.385 . S
C292 C293 1.396 . S
C293 H247 0.929 . S
C293 C288 1.361 . S
C293 C292 1.396 . S
C294 O248 1.300 . S
C294 O249 1.209 . S
C294 C267 1.486 1_554 S
C295 O250 1.199 . S
C295 O251 1.297 . S
C295 C279 1.476 . S
H296 O322 0.856 . S
H297 O325 0.854 . S
H298 C333 0.930 . S
H299 C334 0.930 . S
H300 C336 0.930 . S
H301 C337 0.930 . S
H302 C339 0.931 . S
H303 C340 0.930 . S
H304 C342 0.930 . S
H305 C343 0.929 1_545 S
H306 C345 0.930 . S
H307 C346 0.931 . S
H308 C348 0.930 . S
H309 C349 0.929 . S
H310 C351 0.931 . S
H311 C352 0.930 . S
H312 C354 0.930 . S
H313 C355 0.932 . S
H314 C357 0.930 . S
H315 C358 0.929 . S
H316 C360 0.931 . S
H317 C361 0.930 . S
H318 C363 0.929 1_556 S
H319 C364 0.931 . S
H320 C366 0.930 . S
H321 C367 0.929 . S
O322 H296 0.856 . S
O322 C368 1.300 . S
O323 C368 1.209 . S
O324 C369 1.199 . S
O325 H297 0.854 . S
O325 C369 1.297 . S
C326 C327 1.404 1_545 S
C326 C331 1.397 . S
C326 C332 1.492 . S
C327 C326 1.404 1_565 S
C327 C328 1.396 . S
C327 C338 1.492 . S
C328 C327 1.396 . S
C328 C329 1.397 . S
C328 C344 1.509 . S
C329 C328 1.397 . S
C329 C330 1.412 1_556 S
C329 C350 1.485 1_556 S
C330 C329 1.412 1_554 S
C330 C331 1.388 1_564 S
C330 C356 1.490 . S
C331 C326 1.397 . S
C331 C330 1.388 1_546 S
C331 C362 1.519 1_556 S
C332 C326 1.492 . S
C332 C333 1.363 . S
C332 C337 1.390 . S
C333 H298 0.930 . S
C333 C332 1.363 . S
C333 C334 1.372 . S
C334 H299 0.930 . S
C334 C333 1.372 . S
C334 C335 1.383 . S
C335 C334 1.383 . S
C335 C336 1.395 . S
C336 H300 0.930 . S
C336 C335 1.395 . S
C336 C337 1.362 . S
C337 H301 0.930 . S
C337 C332 1.390 . S
C337 C336 1.362 . S
C338 C327 1.492 . S
C338 C339 1.377 . S
C338 C343 1.397 . S
C339 H302 0.931 . S
C339 C338 1.377 . S
C339 C340 1.376 . S
C340 H303 0.930 . S
C340 C339 1.376 . S
C340 C341 1.376 . S
C341 C340 1.376 . S
C341 C342 1.378 . S
C341 C368 1.486 . S
C342 H304 0.930 . S
C342 C341 1.378 . S
C342 C343 1.376 . S
C343 H305 0.929 1_565 S
C343 C338 1.397 . S
C343 C342 1.376 . S
C344 C328 1.509 . S
C344 C345 1.391 . S
C344 C349 1.386 . S
C345 H306 0.930 . S
C345 C344 1.391 . S
C345 C346 1.375 . S
C346 H307 0.931 . S
C346 C345 1.375 . S
C346 C347 1.375 . S
C347 C346 1.375 . S
C347 C348 1.361 . S
C348 H308 0.930 . S
C348 C347 1.361 . S
C348 C349 1.399 . S
C349 H309 0.929 . S
C349 C344 1.386 . S
C349 C348 1.399 . S
C350 C329 1.485 1_554 S
C350 C351 1.394 . S
C350 C355 1.360 . S
C351 H310 0.931 . S
C351 C350 1.394 . S
C351 C352 1.372 . S
C352 H311 0.930 . S
C352 C351 1.372 . S
C352 C353 1.397 . S
C353 C352 1.397 . S
C353 C354 1.390 . S
C353 C369 1.476 . S
C354 H312 0.930 . S
C354 C353 1.390 . S
C354 C355 1.366 . S
C355 H313 0.932 . S
C355 C350 1.360 . S
C355 C354 1.366 . S
C356 C330 1.490 . S
C356 C357 1.380 1_565 S
C356 C361 1.386 . S
C357 H314 0.930 . S
C357 C356 1.380 1_545 S
C357 C358 1.381 . S
C358 H315 0.929 . S
C358 C357 1.381 . S
C358 C359 1.371 . S
C359 C358 1.371 . S
C359 C360 1.380 1_545 S
C360 H316 0.931 . S
C360 C359 1.380 1_565 S
C360 C361 1.387 . S
C361 H317 0.930 . S
C361 C356 1.386 . S
C361 C360 1.387 . S
C362 C331 1.519 1_554 S
C362 C363 1.377 . S
C362 C367 1.361 . S
C363 H318 0.929 1_554 S
C363 C362 1.377 . S
C363 C364 1.386 . S
C364 H319 0.931 . S
C364 C363 1.386 . S
C364 C365 1.363 . S
C365 C364 1.363 . S
C365 C366 1.385 . S
C366 H320 0.930 . S
C366 C365 1.385 . S
C366 C367 1.396 . S
C367 H321 0.929 . S
C367 C362 1.361 . S
C367 C366 1.396 . S
C368 O322 1.300 . S
C368 O323 1.209 . S
C368 C341 1.486 . S
C369 O324 1.199 . S
C369 O325 1.297 . S
C369 C353 1.476 . S
H370 O396 0.856 . S
H371 O399 0.854 . S
H372 C407 0.930 . S
H373 C408 0.930 1_556 S
H374 C410 0.930 . S
H375 C411 0.930 . S
H376 C413 0.931 1_554 S
H377 C414 0.930 . S
H378 C416 0.930 . S
H379 C417 0.929 1_554 S
H380 C419 0.930 . S
H381 C420 0.931 . S
H382 C422 0.930 . S
H383 C423 0.929 . S
H384 C425 0.931 . S
H385 C426 0.930 . S
H386 C428 0.930 . S
H387 C429 0.932 . S
H388 C431 0.930 . S
H389 C432 0.929 . S
H390 C434 0.931 . S
H391 C435 0.930 . S
H392 C437 0.929 . S
H393 C438 0.931 . S
H394 C440 0.930 . S
H395 C441 0.929 . S
O396 H370 0.856 . S
O396 C442 1.300 . S
O397 C442 1.209 . S
O398 C443 1.199 . S
O399 H371 0.854 . S
O399 C443 1.297 . S
C400 C401 1.404 . S
C400 C405 1.397 . S
C400 C406 1.492 . S
C401 C400 1.404 . S
C401 C402 1.396 . S
C401 C412 1.492 . S
C402 C401 1.396 . S
C402 C403 1.397 . S
C402 C418 1.509 . S
C403 C402 1.397 . S
C403 C404 1.412 . S
C403 C424 1.485 . S
C404 C403 1.412 . S
C404 C405 1.388 . S
C404 C430 1.490 . S
C405 C400 1.397 . S
C405 C404 1.388 . S
C405 C436 1.519 . S
C406 C400 1.492 . S
C406 C407 1.363 . S
C406 C411 1.390 . S
C407 H372 0.930 . S
C407 C406 1.363 . S
C407 C408 1.372 . S
C408 H373 0.930 1_554 S
C408 C407 1.372 . S
C408 C409 1.383 1_554 S
C409 C408 1.383 1_556 S
C409 C410 1.395 1_556 S
C410 H374 0.930 . S
C410 C409 1.395 1_554 S
C410 C411 1.362 . S
C411 H375 0.930 . S
C411 C406 1.390 . S
C411 C410 1.362 . S
C412 C401 1.492 . S
C412 C413 1.377 1_554 S
C412 C417 1.397 1_554 S
C413 H376 0.931 1_556 S
C413 C412 1.377 1_556 S
C413 C414 1.376 . S
C414 H377 0.930 . S
C414 C413 1.376 . S
C414 C415 1.376 . S
C415 C414 1.376 . S
C415 C416 1.378 . S
C415 C442 1.486 . S
C416 H378 0.930 . S
C416 C415 1.378 . S
C416 C417 1.376 . S
C417 H379 0.929 1_556 S
C417 C412 1.397 1_556 S
C417 C416 1.376 . S
C418 C402 1.509 . S
C418 C419 1.391 . S
C418 C423 1.386 . S
C419 H380 0.930 . S
C419 C418 1.391 . S
C419 C420 1.375 . S
C420 H381 0.931 . S
C420 C419 1.375 . S
C420 C421 1.375 . S
C421 C420 1.375 . S
C421 C422 1.361 . S
C422 H382 0.930 . S
C422 C421 1.361 . S
C422 C423 1.399 . S
C423 H383 0.929 . S
C423 C418 1.386 . S
C423 C422 1.399 . S
C424 C403 1.485 . S
C424 C425 1.394 . S
C424 C429 1.360 . S
C425 H384 0.931 . S
C425 C424 1.394 . S
C425 C426 1.372 . S
C426 H385 0.930 . S
C426 C425 1.372 . S
C426 C427 1.397 . S
C427 C426 1.397 . S
C427 C428 1.390 . S
C427 C443 1.476 . S
C428 H386 0.930 . S
C428 C427 1.390 . S
C428 C429 1.366 . S
C429 H387 0.932 . S
C429 C424 1.360 . S
C429 C428 1.366 . S
C430 C404 1.490 . S
C430 C431 1.380 . S
C430 C435 1.386 . S
C431 H388 0.930 . S
C431 C430 1.380 . S
C431 C432 1.381 . S
C432 H389 0.929 . S
C432 C431 1.381 . S
C432 C433 1.371 . S
C433 C432 1.371 . S
C433 C434 1.380 . S
C434 H390 0.931 . S
C434 C433 1.380 . S
C434 C435 1.387 . S
C435 H391 0.930 . S
C435 C430 1.386 . S
C435 C434 1.387 . S
C436 C405 1.519 . S
C436 C437 1.377 . S
C436 C441 1.361 . S
C437 H392 0.929 . S
C437 C436 1.377 . S
C437 C438 1.386 . S
C438 H393 0.931 . S
C438 C437 1.386 . S
C438 C439 1.363 . S
C439 C438 1.363 . S
C439 C440 1.385 . S
C440 H394 0.930 . S
C440 C439 1.385 . S
C440 C441 1.396 . S
C441 H395 0.929 . S
C441 C436 1.361 . S
C441 C440 1.396 . S
C442 O396 1.300 . S
C442 O397 1.209 . S
C442 C415 1.486 . S
C443 O398 1.199 . S
C443 O399 1.297 . S
C443 C427 1.476 . S
Mg444 O445 2.028 . S
Mg444 O451 1.986 . S
Mg444 O453 2.114 . S
Mg444 O454 2.251 . S
Mg444 O457 2.010 . S
O445 Mg444 2.028 . S
O445 C448 1.250 . S
O446 Mg447 2.028 . S
O446 C448 1.248 . S
Mg447 O446 2.028 . S
Mg447 O452 2.032 . S
Mg447 O454 2.079 . S
C448 O445 1.250 . S
C448 O446 1.248 . S
C449 O450 1.264 . S
C449 O457 1.249 . S
O450 C449 1.264 . S
O451 Mg444 1.986 . S
O451 C455 1.246 . S
O452 Mg447 2.032 . S
O452 C455 1.259 . S
O453 Mg444 2.114 . S
O453 C456 1.252 . S
O454 Mg444 2.251 . S
O454 Mg447 2.079 . S
O454 C456 1.273 . S
C455 O451 1.246 . S
C455 O452 1.259 . S
C456 O453 1.252 . S
C456 O454 1.273 . S
O457 Mg444 2.010 . S
O457 C449 1.249 . S
Mg458 O459 2.028 . S
Mg458 O465 1.986 . S
Mg458 O467 2.114 . S
Mg458 O468 2.251 . S
Mg458 O471 2.010 . S
O459 Mg458 2.028 . S
O459 C462 1.250 . S
O460 Mg461 2.028 . S
O460 C462 1.248 . S
Mg461 O460 2.028 . S
Mg461 O466 2.032 . S
Mg461 O468 2.079 . S
C462 O459 1.250 . S
C462 O460 1.248 . S
C463 O464 1.264 . S
C463 O471 1.249 . S
O464 C463 1.264 . S
O465 Mg458 1.986 . S
O465 C469 1.246 . S
O466 Mg461 2.032 . S
O466 C469 1.259 . S
O467 Mg458 2.114 . S
O467 C470 1.252 . S
O468 Mg458 2.251 . S
O468 Mg461 2.079 . S
O468 C470 1.273 . S
C469 O465 1.246 . S
C469 O466 1.259 . S
C470 O467 1.252 . S
C470 O468 1.273 . S
O471 Mg458 2.010 . S
O471 C463 1.249 . S
Mg472 O473 2.028 . S
Mg472 O479 1.986 . S
Mg472 O481 2.114 . S
Mg472 O482 2.251 . S
Mg472 O485 2.010 . S
O473 Mg472 2.028 . S
O473 C476 1.250 . S
O474 Mg475 2.028 . S
O474 C476 1.248 . S
Mg475 O474 2.028 . S
Mg475 O480 2.032 . S
Mg475 O482 2.079 . S
C476 O473 1.250 . S
C476 O474 1.248 . S
C477 O478 1.264 . S
C477 O485 1.249 . S
O478 C477 1.264 . S
O479 Mg472 1.986 . S
O479 C483 1.246 . S
O480 Mg475 2.032 . S
O480 C483 1.259 . S
O481 Mg472 2.114 . S
O481 C484 1.252 . S
O482 Mg472 2.251 . S
O482 Mg475 2.079 . S
O482 C484 1.273 . S
C483 O479 1.246 . S
C483 O480 1.259 . S
C484 O481 1.252 . S
C484 O482 1.273 . S
O485 Mg472 2.010 . S
O485 C477 1.249 . S
Mg486 O487 2.028 . S
Mg486 O493 1.986 . S
Mg486 O495 2.114 . S
Mg486 O496 2.251 . S
Mg486 O499 2.010 . S
O487 Mg486 2.028 . S
O487 C490 1.250 . S
O488 Mg489 2.028 . S
O488 C490 1.248 . S
Mg489 O488 2.028 . S
Mg489 O494 2.032 . S
Mg489 O496 2.079 . S
C490 O487 1.250 . S
C490 O488 1.248 . S
C491 O492 1.264 . S
C491 O499 1.249 . S
O492 C491 1.264 . S
O493 Mg486 1.986 . S
O493 C497 1.246 . S
O494 Mg489 2.032 . S
O494 C497 1.259 . S
O495 Mg486 2.114 . S
O495 C498 1.252 . S
O496 Mg486 2.251 . S
O496 Mg489 2.079 . S
O496 C498 1.273 . S
C497 O493 1.246 . S
C497 O494 1.259 . S
C498 O495 1.252 . S
C498 O496 1.273 . S
O499 Mg486 2.010 . S
O499 C491 1.249 . S
Mg500 O501 2.028 . S
Mg500 O507 1.986 . S
Mg500 O509 2.114 1_554 S
Mg500 O510 2.260 . S
Mg500 O513 2.010 . S
O501 Mg500 2.028 . S
O501 C504 1.250 . S
O502 Mg503 2.028 . S
O502 C504 1.248 . S
Mg503 O502 2.028 . S
Mg503 O508 2.032 . S
Mg503 O510 2.091 . S
C504 O501 1.250 . S
C504 O502 1.248 . S
C505 O506 1.264 . S
C505 O513 1.249 . S
O506 C505 1.264 . S
O507 Mg500 1.986 . S
O507 C511 1.246 . S
O508 Mg503 2.032 . S
O508 C511 1.259 . S
O509 Mg500 2.114 1_556 S
O509 C512 1.252 . S
O510 Mg500 2.260 . S
O510 Mg503 2.091 . S
O510 C512 1.265 1_554 S
C511 O507 1.246 . S
C511 O508 1.259 . S
C512 O509 1.252 . S
C512 O510 1.265 1_556 S
O513 Mg500 2.010 . S
O513 C505 1.249 . S
Mg514 O515 2.028 . S
Mg514 O521 1.986 . S
Mg514 O523 2.114 . S
Mg514 O524 2.251 . S
Mg514 O527 2.010 . S
O515 Mg514 2.028 . S
O515 C518 1.250 . S
O516 Mg517 2.028 . S
O516 C518 1.248 . S
Mg517 O516 2.028 . S
Mg517 O522 2.032 . S
Mg517 O524 2.079 . S
C518 O515 1.250 . S
C518 O516 1.248 . S
C519 O520 1.264 . S
C519 O527 1.249 . S
O520 C519 1.264 . S
O521 Mg514 1.986 . S
O521 C525 1.246 . S
O522 Mg517 2.032 . S
O522 C525 1.259 . S
O523 Mg514 2.114 . S
O523 C526 1.252 . S
O524 Mg514 2.251 . S
O524 Mg517 2.079 . S
O524 C526 1.273 . S
C525 O521 1.246 . S
C525 O522 1.259 . S
C526 O523 1.252 . S
C526 O524 1.273 . S
O527 Mg514 2.010 . S
O527 C519 1.249 . S
C519 C51 1.254 . S
C125 C449 1.374 . S
C217 C469 3.641 . S
C291 C483 1.987 . S
C491 C347 1.173 . S
C421 C505 0.459 . S
C143 C463 2.785 . S
C199 C477 1.569 . S
C273 C497 0.673 . S
C511 C365 2.324 . S
C525 C439 2.979 . S
C455 C69 3.552 . S
C63 C462 2.445 . S
C137 C476 2.400 . S
C498 C187 1.868 . S
C261 C512 2.000 . S
C526 C359 2.366 1_565 S
C456 C433 1.775 . S
C518 C113 2.718 . S
C211 C448 1.980 . S
C470 C285 2.795 . S
C335 C484 1.925 . S
C409 C490 2.081 . S
C39 C504 2.375 . S
