# Generated by pormake.
# Topology nom, (4,4)-cn, num edge types: 1
# Building blocks:
#     Node 0, Type 0, BuildingBlock: MIFKUJ_clean_linker_1, # of connection points: 4
#     Node 1, Type 0, BuildingBlock: MIFKUJ_clean_linker_1, # of connection points: 4
#     Node 2, Type 0, BuildingBlock: MIFKUJ_clean_linker_1, # of connection points: 4
#     Node 3, Type 0, BuildingBlock: MIFKUJ_clean_linker_1, # of connection points: 4
#     Node 4, Type 0, BuildingBlock: MIFKUJ_clean_linker_1, # of connection points: 4
#     Node 5, Type 0, BuildingBlock: MIFKUJ_clean_linker_1, # of connection points: 4
#     Node 6, Type 1, BuildingBlock: QUQFOY_clean_sbu_3, # of connection points: 4
#     Node 7, Type 1, BuildingBlock: QUQFOY_clean_sbu_3, # of connection points: 4
#     Node 8, Type 1, BuildingBlock: QUQFOY_clean_sbu_3, # of connection points: 4
#     Node 9, Type 1, BuildingBlock: QUQFOY_clean_sbu_3, # of connection points: 4
#     Node 10, Type 1, BuildingBlock: QUQFOY_clean_sbu_3, # of connection points: 4
#     Node 11, Type 1, BuildingBlock: QUQFOY_clean_sbu_3, # of connection points: 4
#     Edge 12, Type (0, 1), BuildingBlock: CIFDUS_clean_linker_0, # of connection points: 2
#     Edge 13, Type (0, 1), BuildingBlock: CIFDUS_clean_linker_0, # of connection points: 2
#     Edge 14, Type (0, 1), BuildingBlock: CIFDUS_clean_linker_0, # of connection points: 2
#     Edge 15, Type (0, 1), BuildingBlock: CIFDUS_clean_linker_0, # of connection points: 2
#     Edge 16, Type (0, 1), BuildingBlock: CIFDUS_clean_linker_0, # of connection points: 2
#     Edge 17, Type (0, 1), BuildingBlock: CIFDUS_clean_linker_0, # of connection points: 2
#     Edge 18, Type (0, 1), BuildingBlock: CIFDUS_clean_linker_0, # of connection points: 2
#     Edge 19, Type (0, 1), BuildingBlock: CIFDUS_clean_linker_0, # of connection points: 2
#     Edge 20, Type (0, 1), BuildingBlock: CIFDUS_clean_linker_0, # of connection points: 2
#     Edge 21, Type (0, 1), BuildingBlock: CIFDUS_clean_linker_0, # of connection points: 2
#     Edge 22, Type (0, 1), BuildingBlock: CIFDUS_clean_linker_0, # of connection points: 2
#     Edge 23, Type (0, 1), BuildingBlock: CIFDUS_clean_linker_0, # of connection points: 2
#     Edge 24, Type (0, 1), BuildingBlock: CIFDUS_clean_linker_0, # of connection points: 2
#     Edge 25, Type (0, 1), BuildingBlock: CIFDUS_clean_linker_0, # of connection points: 2
#     Edge 26, Type (0, 1), BuildingBlock: CIFDUS_clean_linker_0, # of connection points: 2
#     Edge 27, Type (0, 1), BuildingBlock: CIFDUS_clean_linker_0, # of connection points: 2
#     Edge 28, Type (0, 1), BuildingBlock: CIFDUS_clean_linker_0, # of connection points: 2
#     Edge 29, Type (0, 1), BuildingBlock: CIFDUS_clean_linker_0, # of connection points: 2
#     Edge 30, Type (0, 1), BuildingBlock: CIFDUS_clean_linker_0, # of connection points: 2
#     Edge 31, Type (0, 1), BuildingBlock: CIFDUS_clean_linker_0, # of connection points: 2
#     Edge 32, Type (0, 1), BuildingBlock: CIFDUS_clean_linker_0, # of connection points: 2
#     Edge 33, Type (0, 1), BuildingBlock: CIFDUS_clean_linker_0, # of connection points: 2
#     Edge 34, Type (0, 1), BuildingBlock: CIFDUS_clean_linker_0, # of connection points: 2
#     Edge 35, Type (0, 1), BuildingBlock: CIFDUS_clean_linker_0, # of connection points: 2
# Relax obj value: 0.002
# Max RMSD: 0.100
# Mean RMSD: 0.065
data_MOF--net-nom--node1-QUQFOY_clean_sbu_3--node2-MIFKUJ_clean_linker_1--edge1-CIFDUS_clean_linker_0
_symmetry_space_group_name_H-M    P1
_symmetry_Int_Tables_number       1
_symmetry_cell_setting            triclinic
loop_
_symmetry_equiv_pos_as_xyz
'x, y, z'
_cell_length_a     48.134716
_cell_length_b     49.25109
_cell_length_c     51.119339
_cell_angle_alpha  89.978053
_cell_angle_beta   90.0636
_cell_angle_gamma 120.01434
loop_
_atom_site_label
_atom_site_type_symbol
_atom_site_fract_x
_atom_site_fract_y
_atom_site_fract_z
_atom_type_partial_charge
H0 H 0.97268 0.44806 0.26361 0.0
H1 H 0.93546 0.43571 0.2268 0.0
H2 H 0.92143 0.51268 0.24888 0.0
H3 H 0.95884 0.52506 0.28536 0.0
H4 H 0.03089 0.50981 0.27125 0.0
H5 H 0.92578 0.44242 0.31521 0.0
H6 H 0.87221 0.43281 0.32707 0.0
H7 H 0.91543 0.52248 0.36642 0.0
H8 H 0.96833 0.53248 0.35361 0.0
H9 H 0.05259 0.56601 0.37123 0.0
H10 H 0.09356 0.58773 0.40523 0.0
H11 H 0.12272 0.52022 0.38524 0.0
H12 H 0.08292 0.50012 0.35013 0.0
H13 H 0.00153 0.50553 0.36477 0.0
H14 H 0.08549 0.58267 0.32048 0.0
H15 H 0.13937 0.61856 0.30474 0.0
H16 H 0.1408 0.54226 0.26431 0.0
H17 H 0.08651 0.50588 0.2808 0.0
C18 C 0.96827 0.48729 0.27726 0.0
C19 C 0.96136 0.46207 0.26057 0.0
C20 C 0.93998 0.45494 0.2397 0.0
C21 C 0.92558 0.47325 0.23499 0.0
C22 C 0.93236 0.49831 0.25193 0.0
C23 C 0.95354 0.50529 0.27285 0.0
C24 C 0.99202 0.49578 0.29859 0.0
C25 C 0.02436 0.50782 0.29176 0.0
C26 C 0.98374 0.49573 0.32517 0.0
C27 C 0.95109 0.48828 0.33334 0.0
C28 C 0.92361 0.46003 0.32627 0.0
C29 C 0.89306 0.45447 0.33323 0.0
C30 C 0.88955 0.47703 0.34747 0.0
C31 C 0.9172 0.50489 0.35499 0.0
C32 C 0.94754 0.51047 0.34795 0.0
C33 C 0.06471 0.53142 0.3583 0.0
C34 C 0.06788 0.55596 0.37424 0.0
C35 C 0.09125 0.56821 0.39379 0.0
C36 C 0.11145 0.55563 0.39828 0.0
C37 C 0.10807 0.53092 0.38219 0.0
C38 C 0.08511 0.51915 0.36224 0.0
C39 C 0.04011 0.51879 0.33742 0.0
C40 C 0.00783 0.50612 0.34431 0.0
C41 C 0.04862 0.52077 0.31078 0.0
C42 C 0.08218 0.54149 0.30218 0.0
C43 C 0.09756 0.57344 0.30868 0.0
C44 C 0.12822 0.59403 0.29939 0.0
C45 C 0.14417 0.58325 0.28313 0.0
C46 C 0.12908 0.55113 0.27693 0.0
C47 C 0.09812 0.53041 0.28623 0.0
H48 H 0.44378 0.95112 0.53164 0.0
H49 H 0.41554 0.89771 0.5478 0.0
H50 H 0.45929 0.87027 0.48715 0.0
H51 H 0.49033 0.92463 0.47306 0.0
H52 H 0.50125 0.9932 0.53037 0.0
H53 H 0.42347 0.94154 0.45716 0.0
H54 H 0.39907 0.9047 0.42054 0.0
H55 H 0.49329 0.93575 0.38858 0.0
H56 H 0.51744 0.9726 0.42499 0.0
H57 H 0.55549 0.0708 0.43598 0.0
H58 H 0.57343 0.12455 0.42142 0.0
H59 H 0.51811 0.13481 0.48296 0.0
H60 H 0.49873 0.08066 0.49662 0.0
H61 H 0.50112 0.02097 0.43719 0.0
H62 H 0.5759 0.0823 0.50399 0.0
H63 H 0.59938 0.12287 0.53762 0.0
H64 H 0.51265 0.07308 0.58342 0.0
H65 H 0.48868 0.03376 0.54905 0.0
C66 C 0.46885 0.94206 0.50072 0.0
C67 C 0.44768 0.93372 0.52199 0.0
C68 C 0.43105 0.90286 0.531 0.0
C69 C 0.43446 0.87919 0.51857 0.0
C70 C 0.45605 0.88768 0.49745 0.0
C71 C 0.47342 0.91882 0.48893 0.0
C72 C 0.48606 0.97516 0.4914 0.0
C73 C 0.50089 -0.00074 0.51002 0.0
C74 C 0.48708 0.98332 0.46472 0.0
C75 C 0.47221 0.95962 0.44375 0.0
C76 C 0.4388 0.94013 0.44236 0.0
C77 C 0.42494 0.91925 0.42146 0.0
C78 C 0.44434 0.91736 0.40182 0.0
C79 C 0.47782 0.93647 0.40361 0.0
C80 C 0.4916 0.95762 0.42427 0.0
C81 C 0.52624 0.07177 0.46777 0.0
C82 C 0.547 0.0845 0.44624 0.0
C83 C 0.55726 0.11514 0.43794 0.0
C84 C 0.54728 0.13369 0.45125 0.0
C85 C 0.5264 0.12099 0.47262 0.0
C86 C 0.51555 0.09016 0.48053 0.0
C87 C 0.51491 0.039 0.47635 0.0
C88 C 0.5016 0.01502 0.45756 0.0
C89 C 0.51532 0.03101 0.50293 0.0
C90 C 0.53034 0.05512 0.5238 0.0
C91 C 0.56183 0.08032 0.52116 0.0
C92 C 0.57536 0.10335 0.54056 0.0
C93 C 0.55788 0.1014 0.56323 0.0
C94 C 0.5266 0.07576 0.56603 0.0
C95 C 0.51298 0.05297 0.54651 0.0
H96 H 0.5419 0.5799 0.71712 0.0
H97 H 0.52291 0.5988 0.7535 0.0
H98 H 0.42491 0.53227 0.73257 0.0
H99 H 0.44405 0.51341 0.69634 0.0
H100 H 0.52521 0.51385 0.71074 0.0
H101 H 0.50472 0.59225 0.66723 0.0
H102 H 0.46748 0.61028 0.65451 0.0
H103 H 0.41145 0.52455 0.61079 0.0
H104 H 0.44698 0.50589 0.625 0.0
H105 H 0.48584 0.46713 0.60479 0.0
H106 H 0.49963 0.44281 0.56952 0.0
H107 H 0.59412 0.47834 0.60303 0.0
H108 H 0.58085 0.50444 0.63728 0.0
H109 H 0.50523 0.52308 0.61687 0.0
H110 H 0.496 0.43757 0.66447 0.0
H111 H 0.51029 0.39893 0.67927 0.0
H112 H 0.59704 0.47293 0.71412 0.0
H113 H 0.58248 0.51169 0.69924 0.0
C114 C 0.49436 0.54544 0.70401 0.0
C115 C 0.51634 0.5696 0.7203 0.0
C116 C 0.50547 0.58048 0.74093 0.0
C117 C 0.47244 0.56699 0.74583 0.0
C118 C 0.4505 0.54294 0.72933 0.0
C119 C 0.46137 0.53227 0.70859 0.0
C120 C 0.50594 0.53304 0.68294 0.0
C121 C 0.52147 0.51644 0.69016 0.0
C122 C 0.4991 0.53467 0.65624 0.0
C123 C 0.47843 0.54745 0.64745 0.0
C124 C 0.48417 0.57722 0.65518 0.0
C125 C 0.46307 0.58767 0.64763 0.0
C126 C 0.43614 0.56867 0.63195 0.0
C127 C 0.43135 0.53948 0.62347 0.0
C128 C 0.45201 0.52893 0.6313 0.0
C129 C 0.53226 0.48762 0.6238 0.0
C130 C 0.50963 0.4699 0.60446 0.0
C131 C 0.51743 0.45562 0.58444 0.0
C132 C 0.54799 0.45848 0.58339 0.0
C133 C 0.5705 0.47595 0.60297 0.0
C134 C 0.5628 0.49057 0.62282 0.0
C135 C 0.52397 0.50344 0.64462 0.0
C136 C 0.50949 0.52096 0.63741 0.0
C137 C 0.52921 0.50046 0.67144 0.0
C138 C 0.53836 0.47748 0.68057 0.0
C139 C 0.51813 0.44549 0.67526 0.0
C140 C 0.52618 0.42344 0.68388 0.0
C141 C 0.55472 0.43296 0.69788 0.0
C142 C 0.57499 0.46502 0.70324 0.0
C143 C 0.56668 0.48711 0.69486 0.0
H144 H 0.04757 0.56866 0.77418 0.0
H145 H 0.08344 0.58116 0.73649 0.0
H146 H 0.09413 0.50106 0.75418 0.0
H147 H 0.05785 0.48845 0.79145 0.0
H148 H 0.98737 0.50147 0.77908 0.0
H149 H 0.08654 0.57904 0.84194 0.0
H150 H 0.13889 0.59099 0.85983 0.0
H151 H 0.10742 0.49191 0.86056 0.0
H152 H 0.05519 0.48037 0.84384 0.0
H153 H 0.97423 0.46432 0.88969 0.0
H154 H 0.93484 0.44799 0.92464 0.0
H155 H 0.88631 0.48886 0.88309 0.0
H156 H 0.9273 0.50729 0.84918 0.0
H157 H 0.01773 0.51401 0.8729 0.0
H158 H 0.93105 0.43241 0.83345 0.0
H159 H 0.87721 0.39559 0.81781 0.0
H160 H 0.87973 0.4675 0.76776 0.0
H161 H 0.93363 0.50472 0.78408 0.0
C162 C 0.05041 0.52786 0.78566 0.0
C163 C 0.05805 0.55411 0.77008 0.0
C164 C 0.07862 0.56128 0.74867 0.0
C165 C 0.09153 0.54205 0.74236 0.0
C166 C 0.08433 0.51615 0.75843 0.0
C167 C 0.06389 0.50909 0.77986 0.0
C168 C 0.0263 0.51861 0.80665 0.0
C169 C 0.99388 0.50494 0.79963 0.0
C170 C 0.0347 0.52078 0.83328 0.0
C171 C 0.06724 0.52888 0.84166 0.0
C172 C 0.0912 0.56006 0.84587 0.0
C173 C 0.12106 0.5668 0.85597 0.0
C174 C 0.12724 0.54237 0.86192 0.0
C175 C 0.10328 0.51125 0.85681 0.0
C176 C 0.07352 0.50459 0.84703 0.0
C177 C 0.95381 0.48701 0.86665 0.0
C178 C 0.95536 0.47014 0.88822 0.0
C179 C 0.93244 0.46036 0.90807 0.0
C180 C 0.90713 0.46685 0.90668 0.0
C181 C 0.90561 0.48372 0.88503 0.0
C182 C 0.92885 0.49393 0.86539 0.0
C183 C 0.97831 0.49741 0.84555 0.0
C184 C 0.01086 0.51138 0.85244 0.0
C185 C 0.9697 0.49284 0.81873 0.0
C186 C 0.93621 0.47145 0.81019 0.0
C187 C 0.91984 0.44048 0.81947 0.0
C188 C 0.8892 0.41933 0.81028 0.0
C189 C 0.87434 0.42861 0.79144 0.0
C190 C 0.89051 0.45978 0.78243 0.0
C191 C 0.92131 0.48099 0.79162 0.0
H192 H 0.58098 0.07214 0.01364 0.0
H193 H 0.61038 0.12704 0.0269 0.0
H194 H 0.5345 0.14022 0.99542 0.0
H195 H 0.50567 0.08528 0.98151 0.0
H196 H 0.52094 0.02515 0.02792 0.0
H197 H 0.57507 0.08287 0.95031 0.0
H198 H 0.58999 0.11668 0.91162 0.0
H199 H 0.49237 0.06502 0.88389 0.0
H200 H 0.47692 0.03227 0.9232 0.0
H201 H 0.43501 0.93997 0.95013 0.0
H202 H 0.41225 0.88475 0.93745 0.0
H203 H 0.49602 0.88536 0.96862 0.0
H204 H 0.51857 0.94035 0.98112 0.0
H205 H 0.49484 0.9929 0.93509 0.0
H206 H 0.4378 0.94647 0.01511 0.0
H207 H 0.41835 0.90649 0.04915 0.0
H208 H 0.51626 0.93197 0.06745 0.0
H209 H 0.53541 0.97317 0.03414 0.0
C210 C 0.54129 0.07471 -0.00356 0.0
C211 C 0.57066 0.08686 0.00968 0.0
C212 C 0.58733 0.11824 0.0174 0.0
C213 C 0.57479 0.13812 0.01236 0.0
C214 C 0.5451 0.12573 -0.00068 0.0
C215 C 0.52853 0.09432 0.99142 0.0
C216 C 0.52408 0.04141 0.98821 0.0
C217 C 0.51553 0.01828 0.00756 0.0
C218 C 0.5159 0.03224 0.96172 0.0
C219 C 0.52472 0.05513 0.93993 0.0
C220 C 0.55656 0.07948 0.93647 0.0
C221 C 0.56515 0.09869 0.91431 0.0
C222 C 0.54225 0.09333 0.89496 0.0
C223 C 0.51036 0.06954 0.89864 0.0
C224 C 0.50162 0.05081 0.92102 0.0
C225 C 0.47832 0.94408 0.9667 0.0
C226 C 0.44842 0.92815 0.95413 0.0
C227 C 0.43544 0.89667 0.94702 0.0
C228 C 0.45244 0.88084 0.952 0.0
C229 C 0.48256 0.89705 0.96429 0.0
C230 C 0.49533 0.92835 0.97162 0.0
C231 C 0.4921 0.97725 0.97468 0.0
C232 C 0.50004 0.00014 0.95539 0.0
C233 C 0.49922 0.98636 0.00109 0.0
C234 C 0.48798 0.9627 0.02221 0.0
C235 C 0.45501 0.9435 0.02662 0.0
C236 C 0.44396 0.92041 0.04594 0.0
C237 C 0.46567 0.91567 0.06103 0.0
C238 C 0.49881 0.93516 0.05655 0.0
C239 C 0.50985 0.95865 0.03745 0.0
H240 H 0.47272 0.43888 0.22444 0.0
H241 H 0.49959 0.42948 0.26123 0.0
H242 H 0.59169 0.49561 0.22827 0.0
H243 H 0.56473 0.50522 0.19184 0.0
H244 H 0.48128 0.49953 0.21167 0.0
H245 H 0.50519 0.4219 0.17211 0.0
H246 H 0.54385 0.40591 0.15892 0.0
H247 H 0.59004 0.48657 0.1079 0.0
H248 H 0.55302 0.50337 0.12235 0.0
H249 H 0.50693 0.53473 0.10223 0.0
H250 H 0.48787 0.55473 0.06725 0.0
H251 H 0.39649 0.51791 0.10659 0.0
H252 H 0.41486 0.49559 0.14036 0.0
H253 H 0.49308 0.48144 0.11794 0.0
H254 H 0.50006 0.5691 0.16228 0.0
H255 H 0.48138 0.60535 0.1744 0.0
H256 H 0.39874 0.52964 0.21228 0.0
H257 H 0.41784 0.49336 0.2003 0.0
C258 C 0.51675 0.47255 0.20536 0.0
C259 C 0.4987 0.45109 0.22507 0.0
C260 C 0.51405 0.4456 0.24595 0.0
C261 C 0.54772 0.46184 0.24762 0.0
C262 C 0.56571 0.48294 0.2276 0.0
C263 C 0.55036 0.48829 0.2067 0.0
C264 C 0.50052 0.47996 0.18425 0.0
C265 C 0.48322 0.49489 0.1912 0.0
C266 C 0.50481 0.47571 0.15746 0.0
C267 C 0.5264 0.4641 0.14853 0.0
C268 C 0.52386 0.43626 0.15829 0.0
C269 C 0.54577 0.42696 0.15051 0.0
C270 C 0.57036 0.44517 0.1326 0.0
C271 C 0.57199 0.47238 0.12223 0.0
C272 C 0.55047 0.4818 0.13022 0.0
C273 C 0.46248 0.51381 0.12414 0.0
C274 C 0.48264 0.53061 0.10319 0.0
C275 C 0.47182 0.54251 0.08334 0.0
C276 C 0.44068 0.53831 0.08411 0.0
C277 C 0.42049 0.5214 0.10511 0.0
C278 C 0.43115 0.50898 0.12472 0.0
C279 C 0.47442 0.50151 0.14531 0.0
C280 C 0.49056 0.48545 0.13845 0.0
C281 C 0.47139 0.50688 0.17206 0.0
C282 C 0.46017 0.52858 0.18027 0.0
C283 C 0.478 0.56035 0.17331 0.0
C284 C 0.46742 0.58103 0.18035 0.0
C285 C 0.43866 0.57025 0.19428 0.0
C286 C 0.42092 0.53845 0.20143 0.0
C287 C 0.43182 0.51781 0.19472 0.0
C288 C 0.71554 0.43002 0.40139 0.0
O289 O 0.71483 0.45479 0.407 0.0
Cd290 Cd 0.66936 0.45634 0.42401 0.0
O291 O 0.69087 0.40308 0.40482 0.0
Cd292 Cd 0.63472 0.38085 0.42066 0.0
C293 C 0.61643 0.41868 0.37365 0.0
O294 O 0.6472 0.41698 0.4571 0.0
O295 O 0.59681 0.38562 0.44969 0.0
O296 O 0.63837 0.33984 0.44414 0.0
C297 C 0.61834 0.40681 0.46391 0.0
O298 O 0.6339 0.44363 0.38659 0.0
C299 C 0.61607 0.31706 0.43172 0.0
O300 O 0.61328 0.39251 0.38095 0.0
O301 O 0.6025 0.32379 0.41355 0.0
C302 C 0.28804 0.58657 0.58418 0.0
O303 O 0.26189 0.56417 0.57545 0.0
Cd304 Cd 0.21776 0.56853 0.5598 0.0
O305 O 0.29293 0.61453 0.5844 0.0
Cd306 Cd 0.2615 0.64031 0.57117 0.0
C307 C 0.20452 0.59831 0.61609 0.0
O308 O 0.23818 0.61199 0.53032 0.0
O309 O 0.21611 0.63692 0.54655 0.0
O310 O 0.31148 0.68506 0.55521 0.0
C311 C 0.21841 0.62164 0.52757 0.0
O312 O 0.19462 0.57588 0.59971 0.0
C313 C 0.30653 0.70573 0.56547 0.0
O314 O 0.22984 0.6244 0.61157 0.0
O315 O 0.28132 0.69594 0.57917 0.0
C316 C 0.71225 0.28328 0.73741 0.0
O317 O 0.70732 0.25651 0.73027 0.0
Cd318 Cd 0.65611 0.21454 0.716 0.0
O319 O 0.68948 0.28941 0.73718 0.0
Cd320 Cd 0.63174 0.26355 0.726 0.0
C321 C 0.61284 0.20671 0.77162 0.0
O322 O 0.6355 0.23773 0.68646 0.0
O323 O 0.58766 0.22527 0.69845 0.0
O324 O 0.64471 0.31553 0.71078 0.0
C325 C 0.60565 0.22261 0.6818 0.0
O326 O 0.62365 0.19454 0.75552 0.0
C327 C 0.62085 0.31536 0.7215 0.0
O328 O 0.61487 0.23305 0.76685 0.0
O329 O 0.60214 0.29115 0.73472 0.0
C330 C 0.30489 0.59112 0.90795 0.0
O331 O 0.30455 0.568 0.91928 0.0
Cd332 Cd 0.3516 0.56763 0.93377 0.0
O333 O 0.33111 0.61694 0.90508 0.0
Cd334 Cd 0.38868 0.64073 0.91751 0.0
C335 C 0.39574 0.59028 0.87657 0.0
O336 O 0.38031 0.61396 0.95935 0.0
O337 O 0.42947 0.64093 0.94672 0.0
O338 O 0.38431 0.68626 0.9294 0.0
C339 C 0.40966 0.62379 0.96408 0.0
O340 O 0.37963 0.56929 0.89355 0.0
C341 C 0.40969 0.70622 0.9178 0.0
O342 O 0.40183 0.61841 0.87973 0.0
O343 O 0.42523 0.69566 0.90547 0.0
C344 C 0.71992 0.43063 0.08307 0.0
O345 O 0.74628 0.45289 0.07447 0.0
Cd346 Cd 0.79038 0.44823 0.05845 0.0
O347 O 0.71466 0.40255 0.08328 0.0
Cd348 Cd 0.74376 0.37453 0.07055 0.0
C349 C 0.80443 0.41689 0.11364 0.0
O350 O 0.76817 0.40363 0.03043 0.0
O351 O 0.78389 0.3717 0.04313 0.0
O352 O 0.69458 0.33174 0.05213 0.0
C353 C 0.78498 0.39089 0.02607 0.0
O354 O 0.81342 0.4396 0.09766 0.0
C355 C 0.69457 0.3103 0.06591 0.0
O356 O 0.77903 0.39071 0.10937 0.0
O357 O 0.71696 0.31884 0.08265 0.0
C358 C 0.30557 0.73066 0.23126 0.0
O359 O 0.30894 0.75636 0.22276 0.0
Cd360 Cd 0.35971 0.80145 0.21389 0.0
O361 O 0.32999 0.72734 0.23449 0.0
Cd362 Cd 0.38926 0.75855 0.22738 0.0
C363 C 0.39622 0.81058 0.27378 0.0
O364 O 0.3882 0.78391 0.18663 0.0
O365 O 0.43451 0.80285 0.20501 0.0
O366 O 0.3838 0.70914 0.21215 0.0
C367 C 0.41816 0.80269 0.18551 0.0
O368 O 0.38381 0.82055 0.25704 0.0
C369 C 0.40756 0.71157 0.22492 0.0
O370 O 0.39987 0.78726 0.26861 0.0
O371 O 0.42286 0.73587 0.23904 0.0
H372 H 0.1609 0.6389 0.2606 0.0
H373 H 0.19854 0.57854 0.28093 0.0
H374 H 0.2519 0.61842 0.26569 0.0
H375 H 0.28826 0.67171 0.24874 0.0
H376 H 0.2495 0.73156 0.22903 0.0
H377 H 0.19625 0.69066 0.24208 0.0
C378 C 0.18082 0.63451 0.26175 0.0
C379 C 0.17595 0.60604 0.27214 0.0
C380 C 0.21125 0.65751 0.2532 0.0
C381 C 0.20175 0.6003 0.27295 0.0
C382 C 0.23225 0.62316 0.26439 0.0
C383 C 0.26815 0.67576 0.2472 0.0
C384 C 0.27305 0.70484 0.23807 0.0
C385 C 0.23737 0.65205 0.25481 0.0
C386 C 0.2466 0.70954 0.23606 0.0
C387 C 0.21605 0.68615 0.24354 0.0
H388 H 0.57926 0.18574 0.48078 0.0
H389 H 0.54107 0.15443 0.40341 0.0
H390 H 0.55856 0.20857 0.39036 0.0
H391 H 0.58417 0.26484 0.40141 0.0
H392 H 0.62529 0.29602 0.47816 0.0
H393 H 0.60729 0.24201 0.49106 0.0
C394 C 0.57483 0.19091 0.46109 0.0
C395 C 0.55878 0.16638 0.44309 0.0
C396 C 0.58546 0.22201 0.45367 0.0
C397 C 0.55346 0.17313 0.41751 0.0
C398 C 0.56336 0.204 0.41011 0.0
C399 C 0.58916 0.25973 0.42093 0.0
C400 C 0.60585 0.28431 0.43885 0.0
C401 C 0.57928 0.22863 0.42807 0.0
C402 C 0.61253 0.27748 0.46399 0.0
C403 C 0.60218 0.24661 0.47142 0.0
H404 H 0.37151 0.53204 0.62959 0.0
H405 H 0.44753 0.62748 0.61814 0.0
H406 H 0.40825 0.6421 0.60368 0.0
H407 H 0.35228 0.62681 0.59196 0.0
H408 H 0.27787 0.53009 0.60081 0.0
H409 H 0.31673 0.51687 0.61798 0.0
C410 C 0.37967 0.55601 0.62364 0.0
C411 C 0.41252 0.57849 0.62464 0.0
C412 C 0.35722 0.56399 0.61465 0.0
C413 C 0.42239 0.60967 0.6177 0.0
C414 C 0.39996 0.618 0.60923 0.0
C415 C 0.34463 0.6029 0.59775 0.0
C416 C 0.31224 0.57946 0.59495 0.0
C417 C 0.36731 0.59523 0.60729 0.0
C418 C 0.30268 0.54855 0.60247 0.0
C419 C 0.32486 0.54094 0.61241 0.0
H420 H 0.85484 0.36914 0.77594 0.0
H421 H 0.82252 0.43622 0.78282 0.0
H422 H 0.76961 0.39733 0.76622 0.0
H423 H 0.73232 0.3439 0.7508 0.0
H424 H 0.76504 0.27695 0.74417 0.0
H425 H 0.81799 0.31617 0.75988 0.0
C426 C 0.83613 0.37517 0.77398 0.0
C427 C 0.84248 0.40542 0.78077 0.0
C428 C 0.80587 0.35273 0.76454 0.0
C429 C 0.81825 0.41313 0.7776 0.0
C430 C 0.78798 0.39087 0.76823 0.0
C431 C 0.75101 0.33785 0.75276 0.0
C432 C 0.74459 0.30743 0.74638 0.0
C433 C 0.78148 0.36054 0.76178 0.0
C434 C 0.76922 0.30013 0.74894 0.0
C435 C 0.79954 0.32254 0.75794 0.0
H436 H 0.48206 0.85372 0.92688 0.0
H437 H 0.39189 0.8329 0.9616 0.0
H438 H 0.37012 0.77705 0.95287 0.0
H439 H 0.37774 0.734 0.93755 0.0
H440 H 0.46783 0.75475 0.90255 0.0
H441 H 0.48861 0.8108 0.90918 0.0
C442 C 0.45763 0.83691 0.93249 0.0
C443 C 0.43865 0.84733 0.94501 0.0
C444 C 0.44532 0.80488 0.92743 0.0
C445 C 0.40688 0.82543 0.9518 0.0
C446 C 0.3945 0.7935 0.94695 0.0
C447 C 0.40186 0.75079 0.93122 0.0
C448 C 0.4213 0.7402 0.91976 0.0
C449 C 0.41364 0.78294 0.93508 0.0
C450 C 0.45239 0.76227 0.91145 0.0
C451 C 0.46433 0.79433 0.91531 0.0
H452 H 0.6341 0.48433 0.12519 0.0
H453 H 0.56149 0.38641 0.12281 0.0
H454 H 0.60156 0.37299 0.1083 0.0
H455 H 0.65697 0.38951 0.09449 0.0
H456 H 0.72816 0.48807 0.0948 0.0
H457 H 0.68863 0.50076 0.11132 0.0
C458 C 0.62684 0.46004 0.12122 0.0
C459 C 0.5947 0.43648 0.12487 0.0
C460 C 0.64974 0.45261 0.1123 0.0
C461 C 0.58608 0.40505 0.12036 0.0
C462 C 0.60894 0.39737 0.11187 0.0
C463 C 0.66383 0.41374 0.09824 0.0
C464 C 0.69551 0.43778 0.0933 0.0
C465 C 0.64081 0.42101 0.10753 0.0
C466 C 0.70395 0.46908 0.09822 0.0
C467 C 0.68137 0.4764 0.10775 0.0
H468 H 0.37368 0.84936 0.53871 0.0
H469 H 0.45151 0.83339 0.51838 0.0
H470 H 0.41894 0.77855 0.53101 0.0
H471 H 0.36794 0.73473 0.54736 0.0
H472 H 0.29246 0.7524 0.57125 0.0
H473 H 0.32518 0.80732 0.55863 0.0
C474 C 0.38403 0.83427 0.53753 0.0
C475 C 0.41516 0.84585 0.52736 0.0
C476 C 0.36562 0.80298 0.54566 0.0
C477 C 0.42744 0.82527 0.52549 0.0
C478 C 0.40893 0.79386 0.53298 0.0
C479 C 0.3588 0.7507 0.54997 0.0
C480 C 0.32778 0.73949 0.5601 0.0
C481 C 0.37791 0.7824 0.54295 0.0
C482 C 0.3163 0.76045 0.56358 0.0
C483 C 0.33493 0.79184 0.55624 0.0
H484 H 0.61174 0.43502 0.69156 0.0
H485 H 0.51665 0.37778 0.72304 0.0
H486 H 0.52931 0.33698 0.73454 0.0
H487 H 0.56656 0.31657 0.73374 0.0
H488 H 0.66099 0.37295 0.70062 0.0
H489 H 0.64959 0.41518 0.69191 0.0
C490 C 0.59399 0.41377 0.70125 0.0
C491 C 0.56333 0.40935 0.70643 0.0
C492 C 0.60128 0.39023 0.70742 0.0
C493 C 0.54035 0.38155 0.71868 0.0
C494 C 0.54759 0.35827 0.72529 0.0
C495 C 0.58474 0.3382 0.72483 0.0
C496 C 0.61454 0.34158 0.71781 0.0
C497 C 0.57783 0.36218 0.71945 0.0
C498 C 0.63779 0.3697 0.70613 0.0
C499 C 0.63131 0.39388 0.70114 0.0
H500 H 0.18784 0.59012 0.8509 0.0
H501 H 0.13579 0.50928 0.90077 0.0
H502 H 0.18596 0.51732 0.91923 0.0
H503 H 0.24448 0.5463 0.92065 0.0
H504 H 0.29715 0.62853 0.87248 0.0
H505 H 0.24682 0.62125 0.85432 0.0
C506 C 0.18745 0.57451 0.86604 0.0
C507 C 0.15803 0.54884 0.87409 0.0
C508 C 0.21648 0.57948 0.87691 0.0
C509 C 0.15806 0.52875 0.89366 0.0
C510 C 0.18675 0.53344 0.90441 0.0
C511 C 0.245 0.56268 0.90619 0.0
C512 C 0.27453 0.58776 0.89779 0.0
C513 C 0.21608 0.55849 0.89598 0.0
C514 C 0.27472 0.60899 0.87929 0.0
C515 C 0.24596 0.60481 0.86884 0.0
H516 H 0.60961 0.16322 0.05696 0.0
H517 H 0.58136 0.1889 0.9851 0.0
H518 H 0.61364 0.24421 -0.00342 0.0
H519 H 0.65266 0.28542 0.02549 0.0
H520 H 0.68376 0.25999 0.0959 0.0
H521 H 0.64785 0.20445 0.08635 0.0
C522 C 0.61064 0.18088 0.0437 0.0
C523 C 0.59311 0.17176 0.02012 0.0
C524 C 0.62989 0.21273 0.0501 0.0
C525 C 0.59422 0.19507 0.00351 0.0
C526 C 0.61291 0.22679 0.00996 0.0
C527 C 0.65135 0.26775 0.03891 0.0
C528 C 0.67089 0.27683 0.06136 0.0
C529 C 0.63117 0.23589 0.03302 0.0
C530 C 0.66903 0.25362 0.07845 0.0
C531 C 0.64854 0.22186 0.07298 0.0
H532 H 0.47201 0.62741 0.21719 0.0
H533 H 0.37918 0.56206 0.18528 0.0
H534 H 0.36099 0.59982 0.19251 0.0
H535 H 0.3724 0.65232 0.20606 0.0
H536 H 0.4648 0.71714 0.23917 0.0
H537 H 0.48229 0.67871 0.23333 0.0
C538 C 0.44777 0.62149 0.21192 0.0
C539 C 0.42698 0.59216 0.2006 0.0
C540 C 0.43749 0.64323 0.21624 0.0
C541 C 0.39551 0.58447 0.19416 0.0
C542 C 0.38519 0.6061 0.19815 0.0
C543 C 0.39633 0.65798 0.21207 0.0
C544 C 0.41738 0.68762 0.22282 0.0
C545 C 0.4061 0.63568 0.20889 0.0
C546 C 0.44816 0.6945 0.23082 0.0
C547 C 0.4582 0.67257 0.22744 0.0
H548 H 0.83739 0.42322 0.36503 0.0
H549 H 0.86936 0.51974 0.34548 0.0
H550 H 0.81846 0.51354 0.36033 0.0
H551 H 0.76574 0.48153 0.38016 0.0
H552 H 0.73228 0.38448 0.39852 0.0
H553 H 0.78272 0.38997 0.38246 0.0
C554 C 0.83303 0.44275 0.36367 0.0
C555 C 0.85737 0.47202 0.3545 0.0
C556 C 0.8035 0.43899 0.3721 0.0
C557 C 0.85135 0.49714 0.35301 0.0
C558 C 0.82218 0.49361 0.36137 0.0
C559 C 0.76943 0.46154 0.38067 0.0
C560 C 0.74542 0.43274 0.39076 0.0
C561 C 0.79829 0.4648 0.37128 0.0
C562 C 0.75042 0.40695 0.3909 0.0
C563 C 0.77928 0.41008 0.38175 0.0
H564 H 0.10585 0.57716 0.4461 0.0
H565 H 0.17152 0.56185 0.39935 0.0
H566 H 0.20992 0.58016 0.43534 0.0
H567 H 0.22497 0.60059 0.4802 0.0
H568 H 0.16106 0.61992 0.52523 0.0
H569 H 0.12228 0.60083 0.48941 0.0
C570 C 0.12876 0.57833 0.44344 0.0
C571 C 0.13549 0.56788 0.41992 0.0
C572 C 0.15118 0.58976 0.46392 0.0
C573 C 0.16519 0.56903 0.41733 0.0
C574 C 0.18737 0.57979 0.43785 0.0
C575 C 0.20257 0.60066 0.4821 0.0
C576 C 0.19579 0.61145 0.50535 0.0
C577 C 0.18057 0.5901 0.46127 0.0
C578 C 0.16685 0.61176 0.5075 0.0
C579 C 0.14462 0.60077 0.48707 0.0
H580 H 0.52809 0.12582 0.5923 0.0
H581 H 0.61996 0.13194 0.58105 0.0
H582 H 0.64314 0.17115 0.61566 0.0
H583 H 0.63691 0.20228 0.65028 0.0
H584 H 0.54431 0.1938 0.66323 0.0
H585 H 0.52172 0.15651 0.62708 0.0
C586 C 0.55311 0.13544 0.59756 0.0
C587 C 0.57216 0.12579 0.58402 0.0
C588 C 0.56614 0.15749 0.61789 0.0
C589 C 0.60475 0.13916 0.59081 0.0
C590 C 0.61801 0.16144 0.61077 0.0
C591 C 0.61183 0.1924 0.6451 0.0
C592 C 0.59232 0.2008 0.6594 0.0
C593 C 0.59889 0.17063 0.62455 0.0
C594 C 0.55982 0.18764 0.65257 0.0
C595 C 0.54689 0.16634 0.6319 0.0
H596 H 0.4284 0.52951 0.78145 0.0
H597 H 0.49119 0.62673 0.76192 0.0
H598 H 0.47279 0.64278 0.8005 0.0
H599 H 0.43897 0.62893 0.84002 0.0
H600 H 0.37735 0.53127 0.85957 0.0
H601 H 0.39503 0.51572 0.82069 0.0
C602 C 0.43779 0.55421 0.7855 0.0
C603 C 0.46093 0.5769 0.76882 0.0
C604 C 0.42737 0.56319 0.80776 0.0
C605 C 0.47342 0.60884 0.77457 0.0
C606 C 0.46285 0.618 0.79657 0.0
C607 C 0.42936 0.60426 0.83573 0.0
C608 C 0.40685 0.58135 0.85276 0.0
C609 C 0.43988 0.59536 0.81336 0.0
C610 C 0.39479 0.54946 0.84694 0.0
C611 C 0.40483 0.54048 0.82465 0.0
H612 H 0.88135 0.41225 0.9345 0.0
H613 H 0.87782 0.49783 0.92678 0.0
H614 H 0.83834 0.48093 0.96182 0.0
H615 H 0.80626 0.44283 0.99583 0.0
H616 H 0.813 0.35931 0.00578 0.0
H617 H 0.8503 0.37479 0.96902 0.0
C618 C 0.87231 0.42746 0.94064 0.0
C619 C 0.88268 0.45631 0.92788 0.0
C620 C 0.85025 0.41803 0.96131 0.0
C621 C 0.86999 0.47527 0.93584 0.0
C622 C 0.84756 0.46576 0.95607 0.0
C623 C 0.81577 0.42795 0.98985 0.0
C624 C 0.80686 0.39995 0.00344 0.0
C625 C 0.83766 0.43728 0.96904 0.0
C626 C 0.81958 0.38103 0.99565 0.0
C627 C 0.84087 0.38985 0.97463 0.0
H628 H 0.49239 0.9169 0.10867 0.0
H629 H 0.41173 0.85745 0.05912 0.0
H630 H 0.38998 0.81766 0.09321 0.0
H631 H 0.3931 0.79996 0.13745 0.0
H632 H 0.4755 0.85749 0.1858 0.0
H633 H 0.49769 0.8974 0.15151 0.0
C634 C 0.47035 0.89506 0.10505 0.0
C635 C 0.4536 0.89058 0.08135 0.0
C636 C 0.45825 0.87182 0.12454 0.0
C637 C 0.42481 0.86211 0.07735 0.0
C638 C 0.41242 0.83912 0.09678 0.0
C639 C 0.41597 0.8212 0.14042 0.0
C640 C 0.43251 0.82589 0.16417 0.0
C641 C 0.42877 0.84385 0.12053 0.0
C642 C 0.4623 0.85333 0.16767 0.0
C643 C 0.47495 0.8762 0.14811 0.0
H644 H 0.53587 0.40772 0.27209 0.0
H645 H 0.59605 0.50836 0.27564 0.0
H646 H 0.6225 0.50367 0.31466 0.0
H647 H 0.62808 0.47142 0.34803 0.0
H648 H 0.56891 0.37064 0.34497 0.0
H649 H 0.54239 0.37496 0.30554 0.0
C650 C 0.55472 0.42857 0.2815 0.0
C651 C 0.56405 0.45834 0.27094 0.0
C652 C 0.56992 0.42571 0.304 0.0
C653 C 0.58873 0.48516 0.28315 0.0
C654 C 0.60373 0.48252 0.30556 0.0
C655 C 0.60933 0.45032 0.33884 0.0
C656 C 0.60038 0.42075 0.34957 0.0
C657 C 0.59445 0.45296 0.31618 0.0
C658 C 0.57627 0.3937 0.33715 0.0
C659 C 0.56107 0.39616 0.31462 0.0
H660 H 0.46032 0.87633 0.3808 0.0
H661 H 0.39609 0.91281 0.37099 0.0
H662 H 0.375 0.88244 0.33075 0.0
H663 H 0.37662 0.84749 0.29735 0.0
H664 H 0.43971 0.80967 0.30765 0.0
H665 H 0.45948 0.83859 0.34869 0.0
C666 C 0.44162 0.87747 0.36985 0.0
C667 C 0.42985 0.89684 0.37872 0.0
C668 C 0.42955 0.85987 0.3468 0.0
C669 C 0.40534 0.89788 0.36461 0.0
C670 C 0.39343 0.88069 0.34154 0.0
C671 C 0.39466 0.84553 0.30859 0.0
C672 C 0.40691 0.8267 0.29933 0.0
C673 C 0.40565 0.86193 0.33228 0.0
C674 C 0.42991 0.82403 0.31433 0.0
C675 C 0.44128 0.84061 0.33777 0.0
H676 H 0.60522 0.48245 0.55785 0.0
H677 H 0.5098 0.40166 0.55973 0.0
H678 H 0.52286 0.37901 0.5226 0.0
H679 H 0.56131 0.38217 0.4894 0.0
H680 H 0.65755 0.46152 0.48928 0.0
H681 H 0.64436 0.48436 0.52626 0.0
C682 C 0.58738 0.45964 0.55048 0.0
C683 C 0.55649 0.44395 0.56158 0.0
C684 C 0.59519 0.44645 0.5294 0.0
C685 C 0.53359 0.41463 0.55133 0.0
C686 C 0.54108 0.40151 0.53017 0.0
C687 C 0.57936 0.40447 0.49748 0.0
C688 C 0.61029 0.4202 0.48655 0.0
C689 C 0.57175 0.4173 0.51896 0.0
C690 C 0.63356 0.44892 0.49736 0.0
C691 C 0.62603 0.46203 0.51848 0.0
H692 H 0.13998 0.59782 0.72404 0.0
H693 H 0.08584 0.49895 0.70633 0.0
H694 H 0.11602 0.50775 0.6659 0.0
H695 H 0.15701 0.54331 0.63535 0.0
H696 H 0.21195 0.64228 0.65263 0.0
H697 H 0.18202 0.63367 0.69337 0.0
C698 C 0.13478 0.57827 0.71126 0.0
C699 C 0.11079 0.54777 0.71823 0.0
C700 C 0.15223 0.5835 0.68796 0.0
C701 C 0.1045 0.52258 0.70162 0.0
C702 C 0.12158 0.52761 0.67841 0.0
C703 C 0.16245 0.56308 0.64794 0.0
C704 C 0.1866 0.59342 0.64084 0.0
C705 C 0.1454 0.55795 0.67136 0.0
C706 C 0.19348 0.61867 0.65759 0.0
C707 C 0.17636 0.61377 0.68089 0.0
H708 H 0.56865 0.15604 0.88661 0.0
H709 H 0.53795 0.06815 0.84725 0.0
H710 H 0.55657 0.09542 0.8054 0.0
H711 H 0.5831 0.14429 0.78033 0.0
H712 H 0.61115 0.23229 0.81867 0.0
H713 H 0.59177 0.20506 0.86057 0.0
C714 C 0.566 0.14303 0.86877 0.0
C715 C 0.55218 0.11028 0.86982 0.0
C716 C 0.57622 0.15884 0.8447 0.0
C717 C 0.54849 0.09341 0.84672 0.0
C718 C 0.55917 0.10897 0.82287 0.0
C719 C 0.58485 0.15749 0.79785 0.0
C720 C 0.59877 0.19024 0.7965 0.0
C721 C 0.57329 0.14167 0.82167 0.0
C722 C 0.60046 0.20702 0.81924 0.0
C723 C 0.58953 0.19149 0.8432 0.0
H724 H 0.47528 0.59334 0.0574 0.0
H725 H 0.38028 0.51223 0.06284 0.0
H726 H 0.36191 0.53277 0.02764 0.0
H727 H 0.37327 0.57248 0.99388 0.0
H728 H 0.46929 0.65102 0.98583 0.0
H729 H 0.48694 0.63238 0.02315 0.0
C730 C 0.45064 0.57987 0.05074 0.0
C731 C 0.4293 0.55119 0.06291 0.0
C732 C 0.44042 0.59129 0.02989 0.0
C733 C 0.39723 0.5346 0.05427 0.0
C734 C 0.38671 0.54619 0.03393 0.0
C735 C 0.398 0.58562 0.00043 0.0
C736 C 0.41994 0.61312 0.98721 0.0
C737 C 0.40814 0.57437 0.02148 0.0
C738 C 0.45199 0.62973 0.99569 0.0
C739 C 0.46208 0.6191 0.01701 0.0
H740 H 0.87693 0.41716 0.21724 0.0
H741 H 0.92812 0.51632 0.20042 0.0
H742 H 0.89508 0.50748 0.16167 0.0
H743 H 0.85234 0.47191 0.13241 0.0
H744 H 0.79999 0.37263 0.14879 0.0
H745 H 0.8329 0.38119 0.18785 0.0
C746 C 0.88086 0.43676 0.205 0.0
C747 C 0.90488 0.46736 0.21172 0.0
C748 C 0.86165 0.43151 0.1827 0.0
C749 C 0.90953 0.4926 0.19586 0.0
C750 C 0.89077 0.48756 0.17362 0.0
C751 C 0.84807 0.45204 0.14443 0.0
C752 C 0.82381 0.42163 0.13756 0.0
C753 C 0.86684 0.45715 0.16685 0.0
C754 C 0.81851 0.39628 0.1536 0.0
C755 C 0.83735 0.40116 0.17592 0.0
loop_
_geom_bond_atom_site_label_1
_geom_bond_atom_site_label_2
_geom_bond_distance
_geom_bond_site_symmetry_2
_ccdc_geom_bond_type
H0 C19 0.949 . S
H1 C20 0.950 . S
H2 C22 0.950 . S
H3 C23 0.950 . S
H4 C25 0.950 . S
H5 C28 0.950 . S
H6 C29 0.950 . S
H7 C31 0.951 . S
H8 C32 0.949 . S
H9 C34 0.949 . S
H10 C35 0.950 . S
H11 C37 0.950 . S
H12 C38 0.950 . S
H13 C40 0.950 1_655 S
H14 C43 0.950 . S
H15 C44 0.950 . S
H16 C46 0.951 . S
H17 C47 0.949 . S
C18 C19 1.376 . S
C18 C23 1.386 . S
C18 C24 1.483 . S
C19 H0 0.949 . S
C19 C18 1.376 . S
C19 C20 1.397 . S
C20 H1 0.950 . S
C20 C19 1.397 . S
C20 C21 1.391 . S
C21 C20 1.391 . S
C21 C22 1.405 . S
C22 H2 0.950 . S
C22 C21 1.405 . S
C22 C23 1.367 . S
C23 H3 0.950 . S
C23 C18 1.386 . S
C23 C22 1.367 . S
C24 C18 1.483 . S
C24 C25 1.382 1_655 S
C24 C26 1.403 . S
C25 H4 0.950 . S
C25 C24 1.382 1_455 S
C25 C41 1.411 . S
C26 C24 1.403 . S
C26 C27 1.489 . S
C26 C40 1.411 1_655 S
C27 C26 1.489 . S
C27 C28 1.383 . S
C27 C32 1.382 . S
C28 H5 0.950 . S
C28 C27 1.383 . S
C28 C29 1.395 . S
C29 H6 0.950 . S
C29 C28 1.395 . S
C29 C30 1.288 . S
C30 C29 1.288 . S
C30 C31 1.392 . S
C31 H7 0.951 . S
C31 C30 1.392 . S
C31 C32 1.392 . S
C32 H8 0.949 . S
C32 C27 1.382 . S
C32 C31 1.392 . S
C33 C34 1.376 . S
C33 C38 1.386 . S
C33 C39 1.483 . S
C34 H9 0.949 . S
C34 C33 1.376 . S
C34 C35 1.397 . S
C35 H10 0.950 . S
C35 C34 1.397 . S
C35 C36 1.391 . S
C36 C35 1.391 . S
C36 C37 1.405 . S
C37 H11 0.950 . S
C37 C36 1.405 . S
C37 C38 1.367 . S
C38 H12 0.950 . S
C38 C33 1.386 . S
C38 C37 1.367 . S
C39 C33 1.483 . S
C39 C40 1.382 . S
C39 C41 1.403 . S
C40 H13 0.950 1_455 S
C40 C26 1.411 1_455 S
C40 C39 1.382 . S
C41 C25 1.411 . S
C41 C39 1.403 . S
C41 C42 1.489 . S
C42 C41 1.489 . S
C42 C43 1.383 . S
C42 C47 1.382 . S
C43 H14 0.950 . S
C43 C42 1.383 . S
C43 C44 1.395 . S
C44 H15 0.950 . S
C44 C43 1.395 . S
C44 C45 1.288 . S
C45 C44 1.288 . S
C45 C46 1.392 . S
C46 H16 0.951 . S
C46 C45 1.392 . S
C46 C47 1.392 . S
C47 H17 0.949 . S
C47 C42 1.382 . S
C47 C46 1.392 . S
H48 C67 0.949 . S
H49 C68 0.950 . S
H50 C70 0.950 . S
H51 C71 0.950 . S
H52 C73 0.950 1_565 S
H53 C76 0.950 . S
H54 C77 0.950 . S
H55 C79 0.951 . S
H56 C80 0.949 . S
H57 C82 0.949 . S
H58 C83 0.950 . S
H59 C85 0.950 . S
H60 C86 0.950 . S
H61 C88 0.950 . S
H62 C91 0.950 . S
H63 C92 0.950 . S
H64 C94 0.951 . S
H65 C95 0.949 . S
C66 C67 1.376 . S
C66 C71 1.386 . S
C66 C72 1.483 . S
C67 H48 0.949 . S
C67 C66 1.376 . S
C67 C68 1.397 . S
C68 H49 0.950 . S
C68 C67 1.397 . S
C68 C69 1.391 . S
C69 C68 1.391 . S
C69 C70 1.405 . S
C70 H50 0.950 . S
C70 C69 1.405 . S
C70 C71 1.367 . S
C71 H51 0.950 . S
C71 C66 1.386 . S
C71 C70 1.367 . S
C72 C66 1.483 . S
C72 C73 1.382 1_565 S
C72 C74 1.403 . S
C73 H52 0.950 1_545 S
C73 C72 1.382 1_545 S
C73 C89 1.411 . S
C74 C72 1.403 . S
C74 C75 1.489 . S
C74 C88 1.411 1_565 S
C75 C74 1.489 . S
C75 C76 1.383 . S
C75 C80 1.382 . S
C76 H53 0.950 . S
C76 C75 1.383 . S
C76 C77 1.395 . S
C77 H54 0.950 . S
C77 C76 1.395 . S
C77 C78 1.288 . S
C78 C77 1.288 . S
C78 C79 1.392 . S
C79 H55 0.951 . S
C79 C78 1.392 . S
C79 C80 1.392 . S
C80 H56 0.949 . S
C80 C75 1.382 . S
C80 C79 1.392 . S
C81 C82 1.376 . S
C81 C86 1.386 . S
C81 C87 1.483 . S
C82 H57 0.949 . S
C82 C81 1.376 . S
C82 C83 1.397 . S
C83 H58 0.950 . S
C83 C82 1.397 . S
C83 C84 1.391 . S
C84 C83 1.391 . S
C84 C85 1.405 . S
C85 H59 0.950 . S
C85 C84 1.405 . S
C85 C86 1.367 . S
C86 H60 0.950 . S
C86 C81 1.386 . S
C86 C85 1.367 . S
C87 C81 1.483 . S
C87 C88 1.382 . S
C87 C89 1.403 . S
C88 H61 0.950 . S
C88 C74 1.411 1_545 S
C88 C87 1.382 . S
C89 C73 1.411 . S
C89 C87 1.403 . S
C89 C90 1.489 . S
C90 C89 1.489 . S
C90 C91 1.383 . S
C90 C95 1.382 . S
C91 H62 0.950 . S
C91 C90 1.383 . S
C91 C92 1.395 . S
C92 H63 0.950 . S
C92 C91 1.395 . S
C92 C93 1.288 . S
C93 C92 1.288 . S
C93 C94 1.392 . S
C94 H64 0.951 . S
C94 C93 1.392 . S
C94 C95 1.392 . S
C95 H65 0.949 . S
C95 C90 1.382 . S
C95 C94 1.392 . S
H96 C115 0.949 . S
H97 C116 0.950 . S
H98 C118 0.950 . S
H99 C119 0.950 . S
H100 C121 0.950 . S
H101 C124 0.950 . S
H102 C125 0.950 . S
H103 C127 0.951 . S
H104 C128 0.949 . S
H105 C130 0.949 . S
H106 C131 0.950 . S
H107 C133 0.950 . S
H108 C134 0.950 . S
H109 C136 0.950 . S
H110 C139 0.950 . S
H111 C140 0.950 . S
H112 C142 0.951 . S
H113 C143 0.949 . S
C114 C115 1.376 . S
C114 C119 1.386 . S
C114 C120 1.483 . S
C115 H96 0.949 . S
C115 C114 1.376 . S
C115 C116 1.397 . S
C116 H97 0.950 . S
C116 C115 1.397 . S
C116 C117 1.391 . S
C117 C116 1.391 . S
C117 C118 1.405 . S
C118 H98 0.950 . S
C118 C117 1.405 . S
C118 C119 1.367 . S
C119 H99 0.950 . S
C119 C114 1.386 . S
C119 C118 1.367 . S
C120 C114 1.483 . S
C120 C121 1.382 . S
C120 C122 1.403 . S
C121 H100 0.950 . S
C121 C120 1.382 . S
C121 C137 1.411 . S
C122 C120 1.403 . S
C122 C123 1.489 . S
C122 C136 1.411 . S
C123 C122 1.489 . S
C123 C124 1.383 . S
C123 C128 1.382 . S
C124 H101 0.950 . S
C124 C123 1.383 . S
C124 C125 1.395 . S
C125 H102 0.950 . S
C125 C124 1.395 . S
C125 C126 1.288 . S
C126 C125 1.288 . S
C126 C127 1.392 . S
C127 H103 0.951 . S
C127 C126 1.392 . S
C127 C128 1.392 . S
C128 H104 0.949 . S
C128 C123 1.382 . S
C128 C127 1.392 . S
C129 C130 1.376 . S
C129 C134 1.386 . S
C129 C135 1.483 . S
C130 H105 0.949 . S
C130 C129 1.376 . S
C130 C131 1.397 . S
C131 H106 0.950 . S
C131 C130 1.397 . S
C131 C132 1.391 . S
C132 C131 1.391 . S
C132 C133 1.405 . S
C133 H107 0.950 . S
C133 C132 1.405 . S
C133 C134 1.367 . S
C134 H108 0.950 . S
C134 C129 1.386 . S
C134 C133 1.367 . S
C135 C129 1.483 . S
C135 C136 1.382 . S
C135 C137 1.403 . S
C136 H109 0.950 . S
C136 C122 1.411 . S
C136 C135 1.382 . S
C137 C121 1.411 . S
C137 C135 1.403 . S
C137 C138 1.489 . S
C138 C137 1.489 . S
C138 C139 1.383 . S
C138 C143 1.382 . S
C139 H110 0.950 . S
C139 C138 1.383 . S
C139 C140 1.395 . S
C140 H111 0.950 . S
C140 C139 1.395 . S
C140 C141 1.288 . S
C141 C140 1.288 . S
C141 C142 1.392 . S
C142 H112 0.951 . S
C142 C141 1.392 . S
C142 C143 1.392 . S
C143 H113 0.949 . S
C143 C138 1.382 . S
C143 C142 1.392 . S
H144 C163 0.949 . S
H145 C164 0.950 . S
H146 C166 0.950 . S
H147 C167 0.950 . S
H148 C169 0.952 . S
H149 C172 0.950 . S
H150 C173 0.950 . S
H151 C175 0.951 . S
H152 C176 0.949 . S
H153 C178 0.949 . S
H154 C179 0.950 . S
H155 C181 0.950 . S
H156 C182 0.950 . S
H157 C184 0.950 . S
H158 C187 0.950 . S
H159 C188 0.950 . S
H160 C190 0.951 . S
H161 C191 0.949 . S
C162 C163 1.376 . S
C162 C167 1.386 . S
C162 C168 1.483 . S
C163 H144 0.949 . S
C163 C162 1.376 . S
C163 C164 1.397 . S
C164 H145 0.950 . S
C164 C163 1.397 . S
C164 C165 1.391 . S
C165 C164 1.391 . S
C165 C166 1.405 . S
C166 H146 0.950 . S
C166 C165 1.405 . S
C166 C167 1.367 . S
C167 H147 0.950 . S
C167 C162 1.386 . S
C167 C166 1.367 . S
C168 C162 1.483 . S
C168 C169 1.378 1_455 S
C168 C170 1.403 . S
C169 H148 0.952 . S
C169 C168 1.378 1_655 S
C169 C185 1.414 . S
C170 C168 1.403 . S
C170 C171 1.489 . S
C170 C184 1.411 . S
C171 C170 1.489 . S
C171 C172 1.383 . S
C171 C176 1.382 . S
C172 H149 0.950 . S
C172 C171 1.383 . S
C172 C173 1.395 . S
C173 H150 0.950 . S
C173 C172 1.395 . S
C173 C174 1.288 . S
C174 C173 1.288 . S
C174 C175 1.392 . S
C175 H151 0.951 . S
C175 C174 1.392 . S
C175 C176 1.392 . S
C176 H152 0.949 . S
C176 C171 1.382 . S
C176 C175 1.392 . S
C177 C178 1.376 . S
C177 C182 1.386 . S
C177 C183 1.483 . S
C178 H153 0.949 . S
C178 C177 1.376 . S
C178 C179 1.397 . S
C179 H154 0.950 . S
C179 C178 1.397 . S
C179 C180 1.391 . S
C180 C179 1.391 . S
C180 C181 1.405 . S
C181 H155 0.950 . S
C181 C180 1.405 . S
C181 C182 1.367 . S
C182 H156 0.950 . S
C182 C177 1.386 . S
C182 C181 1.367 . S
C183 C177 1.483 . S
C183 C184 1.382 1_655 S
C183 C185 1.403 . S
C184 H157 0.950 . S
C184 C170 1.411 . S
C184 C183 1.382 1_455 S
C185 C169 1.414 . S
C185 C183 1.403 . S
C185 C186 1.489 . S
C186 C185 1.489 . S
C186 C187 1.383 . S
C186 C191 1.382 . S
C187 H158 0.950 . S
C187 C186 1.383 . S
C187 C188 1.395 . S
C188 H159 0.950 . S
C188 C187 1.395 . S
C188 C189 1.288 . S
C189 C188 1.288 . S
C189 C190 1.392 . S
C190 H160 0.951 . S
C190 C189 1.392 . S
C190 C191 1.392 . S
C191 H161 0.949 . S
C191 C186 1.382 . S
C191 C190 1.392 . S
H192 C211 0.949 . S
H193 C212 0.950 . S
H194 C214 0.950 . S
H195 C215 0.928 1_556 S
H196 C217 0.950 . S
H197 C220 0.950 . S
H198 C221 0.950 . S
H199 C223 0.951 . S
H200 C224 0.949 . S
H201 C226 0.949 . S
H202 C227 0.950 . S
H203 C229 0.950 . S
H204 C230 0.950 . S
H205 C232 0.950 . S
H206 C235 0.950 . S
H207 C236 0.950 . S
H208 C238 0.951 . S
H209 C239 0.949 . S
C210 C211 1.376 . S
C210 C215 1.396 . S
C210 C216 1.479 1_554 S
C211 H192 0.949 . S
C211 C210 1.376 . S
C211 C212 1.397 . S
C212 H193 0.950 . S
C212 C211 1.397 . S
C212 C213 1.391 . S
C213 C212 1.391 . S
C213 C214 1.405 . S
C214 H194 0.950 . S
C214 C213 1.405 . S
C214 C215 1.382 . S
C215 H195 0.928 1_554 S
C215 C210 1.396 . S
C215 C214 1.382 . S
C216 C210 1.479 1_556 S
C216 C217 1.370 1_556 S
C216 C218 1.418 . S
C217 H196 0.950 . S
C217 C216 1.370 1_554 S
C217 C233 1.411 1_545 S
C218 C216 1.418 . S
C218 C219 1.489 . S
C218 C232 1.411 1_545 S
C219 C218 1.489 . S
C219 C220 1.383 . S
C219 C224 1.382 . S
C220 H197 0.950 . S
C220 C219 1.383 . S
C220 C221 1.395 . S
C221 H198 0.950 . S
C221 C220 1.395 . S
C221 C222 1.288 . S
C222 C221 1.288 . S
C222 C223 1.392 . S
C223 H199 0.951 . S
C223 C222 1.392 . S
C223 C224 1.392 . S
C224 H200 0.949 . S
C224 C219 1.382 . S
C224 C223 1.392 . S
C225 C226 1.376 . S
C225 C230 1.386 . S
C225 C231 1.483 . S
C226 H201 0.949 . S
C226 C225 1.376 . S
C226 C227 1.397 . S
C227 H202 0.950 . S
C227 C226 1.397 . S
C227 C228 1.391 . S
C228 C227 1.391 . S
C228 C229 1.405 . S
C229 H203 0.950 . S
C229 C228 1.405 . S
C229 C230 1.367 . S
C230 H204 0.950 . S
C230 C225 1.386 . S
C230 C229 1.367 . S
C231 C225 1.483 . S
C231 C232 1.382 . S
C231 C233 1.403 1_556 S
C232 H205 0.950 . S
C232 C218 1.411 1_565 S
C232 C231 1.382 . S
C233 C217 1.411 1_565 S
C233 C231 1.403 1_554 S
C233 C234 1.489 . S
C234 C233 1.489 . S
C234 C235 1.383 . S
C234 C239 1.382 . S
C235 H206 0.950 . S
C235 C234 1.383 . S
C235 C236 1.395 . S
C236 H207 0.950 . S
C236 C235 1.395 . S
C236 C237 1.288 . S
C237 C236 1.288 . S
C237 C238 1.392 . S
C238 H208 0.951 . S
C238 C237 1.392 . S
C238 C239 1.392 . S
C239 H209 0.949 . S
C239 C234 1.382 . S
C239 C238 1.392 . S
H240 C259 0.949 . S
H241 C260 0.950 . S
H242 C262 0.950 . S
H243 C263 0.950 . S
H244 C265 0.950 . S
H245 C268 0.950 . S
H246 C269 0.950 . S
H247 C271 0.951 . S
H248 C272 0.949 . S
H249 C274 0.949 . S
H250 C275 0.950 . S
H251 C277 0.950 . S
H252 C278 0.950 . S
H253 C280 0.950 . S
H254 C283 0.950 . S
H255 C284 0.950 . S
H256 C286 0.951 . S
H257 C287 0.949 . S
C258 C259 1.376 . S
C258 C263 1.386 . S
C258 C264 1.483 . S
C259 H240 0.949 . S
C259 C258 1.376 . S
C259 C260 1.397 . S
C260 H241 0.950 . S
C260 C259 1.397 . S
C260 C261 1.391 . S
C261 C260 1.391 . S
C261 C262 1.405 . S
C262 H242 0.950 . S
C262 C261 1.405 . S
C262 C263 1.367 . S
C263 H243 0.950 . S
C263 C258 1.386 . S
C263 C262 1.367 . S
C264 C258 1.483 . S
C264 C265 1.382 . S
C264 C266 1.403 . S
C265 H244 0.950 . S
C265 C264 1.382 . S
C265 C281 1.411 . S
C266 C264 1.403 . S
C266 C267 1.489 . S
C266 C280 1.411 . S
C267 C266 1.489 . S
C267 C268 1.383 . S
C267 C272 1.382 . S
C268 H245 0.950 . S
C268 C267 1.383 . S
C268 C269 1.395 . S
C269 H246 0.950 . S
C269 C268 1.395 . S
C269 C270 1.288 . S
C270 C269 1.288 . S
C270 C271 1.392 . S
C271 H247 0.951 . S
C271 C270 1.392 . S
C271 C272 1.392 . S
C272 H248 0.949 . S
C272 C267 1.382 . S
C272 C271 1.392 . S
C273 C274 1.376 . S
C273 C278 1.386 . S
C273 C279 1.483 . S
C274 H249 0.949 . S
C274 C273 1.376 . S
C274 C275 1.397 . S
C275 H250 0.950 . S
C275 C274 1.397 . S
C275 C276 1.391 . S
C276 C275 1.391 . S
C276 C277 1.405 . S
C277 H251 0.950 . S
C277 C276 1.405 . S
C277 C278 1.367 . S
C278 H252 0.950 . S
C278 C273 1.386 . S
C278 C277 1.367 . S
C279 C273 1.483 . S
C279 C280 1.382 . S
C279 C281 1.403 . S
C280 H253 0.950 . S
C280 C266 1.411 . S
C280 C279 1.382 . S
C281 C265 1.411 . S
C281 C279 1.403 . S
C281 C282 1.489 . S
C282 C281 1.489 . S
C282 C283 1.383 . S
C282 C287 1.382 . S
C283 H254 0.950 . S
C283 C282 1.383 . S
C283 C284 1.395 . S
C284 H255 0.950 . S
C284 C283 1.395 . S
C284 C285 1.288 . S
C285 C284 1.288 . S
C285 C286 1.392 . S
C286 H256 0.951 . S
C286 C285 1.392 . S
C286 C287 1.392 . S
C287 H257 0.949 . S
C287 C282 1.382 . S
C287 C286 1.392 . S
C288 O289 1.306 . S
C288 O291 1.160 . S
O289 C288 1.306 . S
O289 Cd290 2.228 . S
Cd290 O289 2.228 . S
Cd290 O294 2.273 . S
Cd290 O298 2.277 . S
O291 C288 1.160 . S
O291 Cd292 2.203 . S
Cd292 O291 2.203 . S
Cd292 O294 2.411 . S
Cd292 O295 2.333 . S
Cd292 O296 2.352 . S
Cd292 O300 2.277 . S
Cd292 O301 2.356 . S
C293 O298 1.209 . S
C293 O300 1.226 . S
O294 Cd290 2.273 . S
O294 Cd292 2.411 . S
O294 C297 1.320 . S
O295 Cd292 2.333 . S
O295 C297 1.214 . S
O296 Cd292 2.352 . S
O296 C299 1.258 . S
C297 O294 1.320 . S
C297 O295 1.214 . S
O298 Cd290 2.277 . S
O298 C293 1.209 . S
C299 O296 1.258 . S
C299 O301 1.282 . S
O300 Cd292 2.277 . S
O300 C293 1.226 . S
O301 Cd292 2.356 . S
O301 C299 1.282 . S
C302 O303 1.306 . S
C302 O305 1.160 . S
O303 C302 1.306 . S
O303 Cd304 2.228 . S
Cd304 O303 2.228 . S
Cd304 O308 2.273 . S
Cd304 O312 2.277 . S
O305 C302 1.160 . S
O305 Cd306 2.203 . S
Cd306 O305 2.203 . S
Cd306 O308 2.411 . S
Cd306 O309 2.333 . S
Cd306 O310 2.352 . S
Cd306 O314 2.277 . S
Cd306 O315 2.356 . S
C307 O312 1.209 . S
C307 O314 1.226 . S
O308 Cd304 2.273 . S
O308 Cd306 2.411 . S
O308 C311 1.320 . S
O309 Cd306 2.333 . S
O309 C311 1.214 . S
O310 Cd306 2.352 . S
O310 C313 1.258 . S
C311 O308 1.320 . S
C311 O309 1.214 . S
O312 Cd304 2.277 . S
O312 C307 1.209 . S
C313 O310 1.258 . S
C313 O315 1.282 . S
O314 Cd306 2.277 . S
O314 C307 1.226 . S
O315 Cd306 2.356 . S
O315 C313 1.282 . S
C316 O317 1.306 . S
C316 O319 1.160 . S
O317 C316 1.306 . S
O317 Cd318 2.228 . S
Cd318 O317 2.228 . S
Cd318 O322 2.273 . S
Cd318 O326 2.277 . S
O319 C316 1.160 . S
O319 Cd320 2.203 . S
Cd320 O319 2.203 . S
Cd320 O322 2.411 . S
Cd320 O323 2.333 . S
Cd320 O324 2.352 . S
Cd320 O328 2.277 . S
Cd320 O329 2.356 . S
C321 O326 1.209 . S
C321 O328 1.226 . S
O322 Cd318 2.273 . S
O322 Cd320 2.411 . S
O322 C325 1.320 . S
O323 Cd320 2.333 . S
O323 C325 1.214 . S
O324 Cd320 2.352 . S
O324 C327 1.258 . S
C325 O322 1.320 . S
C325 O323 1.214 . S
O326 Cd318 2.277 . S
O326 C321 1.209 . S
C327 O324 1.258 . S
C327 O329 1.282 . S
O328 Cd320 2.277 . S
O328 C321 1.226 . S
O329 Cd320 2.356 . S
O329 C327 1.282 . S
C330 O331 1.306 . S
C330 O333 1.160 . S
O331 C330 1.306 . S
O331 Cd332 2.228 . S
Cd332 O331 2.228 . S
Cd332 O336 2.273 . S
Cd332 O340 2.277 . S
O333 C330 1.160 . S
O333 Cd334 2.203 . S
Cd334 O333 2.203 . S
Cd334 O336 2.411 . S
Cd334 O337 2.333 . S
Cd334 O338 2.352 . S
Cd334 O342 2.277 . S
Cd334 O343 2.356 . S
C335 O340 1.209 . S
C335 O342 1.226 . S
O336 Cd332 2.273 . S
O336 Cd334 2.411 . S
O336 C339 1.320 . S
O337 Cd334 2.333 . S
O337 C339 1.214 . S
O338 Cd334 2.352 . S
O338 C341 1.258 . S
C339 O336 1.320 . S
C339 O337 1.214 . S
O340 Cd332 2.277 . S
O340 C335 1.209 . S
C341 O338 1.258 . S
C341 O343 1.282 . S
O342 Cd334 2.277 . S
O342 C335 1.226 . S
O343 Cd334 2.356 . S
O343 C341 1.282 . S
C344 O345 1.306 . S
C344 O347 1.160 . S
O345 C344 1.306 . S
O345 Cd346 2.228 . S
Cd346 O345 2.228 . S
Cd346 O350 2.273 . S
Cd346 O354 2.277 . S
O347 C344 1.160 . S
O347 Cd348 2.203 . S
Cd348 O347 2.203 . S
Cd348 O350 2.411 . S
Cd348 O351 2.333 . S
Cd348 O352 2.352 . S
Cd348 O356 2.277 . S
Cd348 O357 2.356 . S
C349 O354 1.209 . S
C349 O356 1.226 . S
O350 Cd346 2.273 . S
O350 Cd348 2.411 . S
O350 C353 1.320 . S
O351 Cd348 2.333 . S
O351 C353 1.214 . S
O352 Cd348 2.352 . S
O352 C355 1.258 . S
C353 O350 1.320 . S
C353 O351 1.214 . S
O354 Cd346 2.277 . S
O354 C349 1.209 . S
C355 O352 1.258 . S
C355 O357 1.282 . S
O356 Cd348 2.277 . S
O356 C349 1.226 . S
O357 Cd348 2.356 . S
O357 C355 1.282 . S
C358 O359 1.306 . S
C358 O361 1.160 . S
O359 C358 1.306 . S
O359 Cd360 2.228 . S
Cd360 O359 2.228 . S
Cd360 O364 2.273 . S
Cd360 O368 2.277 . S
O361 C358 1.160 . S
O361 Cd362 2.203 . S
Cd362 O361 2.203 . S
Cd362 O364 2.411 . S
Cd362 O365 2.333 . S
Cd362 O366 2.352 . S
Cd362 O370 2.277 . S
Cd362 O371 2.356 . S
C363 O368 1.209 . S
C363 O370 1.226 . S
O364 Cd360 2.273 . S
O364 Cd362 2.411 . S
O364 C367 1.320 . S
O365 Cd362 2.333 . S
O365 C367 1.214 . S
O366 Cd362 2.352 . S
O366 C369 1.258 . S
C367 O364 1.320 . S
C367 O365 1.214 . S
O368 Cd360 2.277 . S
O368 C363 1.209 . S
C369 O366 1.258 . S
C369 O371 1.282 . S
O370 Cd362 2.277 . S
O370 C363 1.226 . S
O371 Cd362 2.356 . S
O371 C369 1.282 . S
H372 C378 0.930 . S
H373 C381 0.930 . S
H374 C382 0.930 . S
H375 C383 0.930 . S
H376 C386 0.930 . S
H377 C387 0.930 . S
C378 H372 0.930 . S
C378 C379 1.355 . S
C378 C380 1.415 . S
C379 C378 1.355 . S
C379 C381 1.419 . S
C380 C378 1.415 . S
C380 C385 1.425 . S
C380 C387 1.409 . S
C381 H373 0.930 . S
C381 C379 1.419 . S
C381 C382 1.362 . S
C382 H374 0.930 . S
C382 C381 1.362 . S
C382 C385 1.409 . S
C383 H375 0.930 . S
C383 C384 1.355 . S
C383 C385 1.415 . S
C384 C383 1.355 . S
C384 C386 1.419 . S
C385 C380 1.425 . S
C385 C382 1.409 . S
C385 C383 1.415 . S
C386 H376 0.930 . S
C386 C384 1.419 . S
C386 C387 1.362 . S
C387 H377 0.930 . S
C387 C380 1.409 . S
C387 C386 1.362 . S
H388 C394 0.930 . S
H389 C397 0.930 . S
H390 C398 0.930 . S
H391 C399 0.930 . S
H392 C402 0.930 . S
H393 C403 0.930 . S
C394 H388 0.930 . S
C394 C395 1.355 . S
C394 C396 1.415 . S
C395 C394 1.355 . S
C395 C397 1.419 . S
C396 C394 1.415 . S
C396 C401 1.425 . S
C396 C403 1.409 . S
C397 H389 0.930 . S
C397 C395 1.419 . S
C397 C398 1.362 . S
C398 H390 0.930 . S
C398 C397 1.362 . S
C398 C401 1.409 . S
C399 H391 0.930 . S
C399 C400 1.355 . S
C399 C401 1.415 . S
C400 C399 1.355 . S
C400 C402 1.419 . S
C401 C396 1.425 . S
C401 C398 1.409 . S
C401 C399 1.415 . S
C402 H392 0.930 . S
C402 C400 1.419 . S
C402 C403 1.362 . S
C403 H393 0.930 . S
C403 C396 1.409 . S
C403 C402 1.362 . S
H404 C410 0.930 . S
H405 C413 0.930 . S
H406 C414 0.930 . S
H407 C415 0.930 . S
H408 C418 0.930 . S
H409 C419 0.930 . S
C410 H404 0.930 . S
C410 C411 1.355 . S
C410 C412 1.415 . S
C411 C410 1.355 . S
C411 C413 1.419 . S
C412 C410 1.415 . S
C412 C417 1.425 . S
C412 C419 1.409 . S
C413 H405 0.930 . S
C413 C411 1.419 . S
C413 C414 1.362 . S
C414 H406 0.930 . S
C414 C413 1.362 . S
C414 C417 1.409 . S
C415 H407 0.930 . S
C415 C416 1.355 . S
C415 C417 1.415 . S
C416 C415 1.355 . S
C416 C418 1.419 . S
C417 C412 1.425 . S
C417 C414 1.409 . S
C417 C415 1.415 . S
C418 H408 0.930 . S
C418 C416 1.419 . S
C418 C419 1.362 . S
C419 H409 0.930 . S
C419 C412 1.409 . S
C419 C418 1.362 . S
H420 C426 0.930 . S
H421 C429 0.930 . S
H422 C430 0.930 . S
H423 C431 0.930 . S
H424 C434 0.930 . S
H425 C435 0.930 . S
C426 H420 0.930 . S
C426 C427 1.355 . S
C426 C428 1.415 . S
C427 C426 1.355 . S
C427 C429 1.419 . S
C428 C426 1.415 . S
C428 C433 1.425 . S
C428 C435 1.409 . S
C429 H421 0.930 . S
C429 C427 1.419 . S
C429 C430 1.362 . S
C430 H422 0.930 . S
C430 C429 1.362 . S
C430 C433 1.409 . S
C431 H423 0.930 . S
C431 C432 1.355 . S
C431 C433 1.415 . S
C432 C431 1.355 . S
C432 C434 1.419 . S
C433 C428 1.425 . S
C433 C430 1.409 . S
C433 C431 1.415 . S
C434 H424 0.930 . S
C434 C432 1.419 . S
C434 C435 1.362 . S
C435 H425 0.930 . S
C435 C428 1.409 . S
C435 C434 1.362 . S
H436 C442 0.930 . S
H437 C445 0.930 . S
H438 C446 0.930 . S
H439 C447 0.930 . S
H440 C450 0.930 . S
H441 C451 0.930 . S
C442 H436 0.930 . S
C442 C443 1.355 . S
C442 C444 1.415 . S
C443 C442 1.355 . S
C443 C445 1.419 . S
C444 C442 1.415 . S
C444 C449 1.425 . S
C444 C451 1.409 . S
C445 H437 0.930 . S
C445 C443 1.419 . S
C445 C446 1.362 . S
C446 H438 0.930 . S
C446 C445 1.362 . S
C446 C449 1.409 . S
C447 H439 0.930 . S
C447 C448 1.355 . S
C447 C449 1.415 . S
C448 C447 1.355 . S
C448 C450 1.419 . S
C449 C444 1.425 . S
C449 C446 1.409 . S
C449 C447 1.415 . S
C450 H440 0.930 . S
C450 C448 1.419 . S
C450 C451 1.362 . S
C451 H441 0.930 . S
C451 C444 1.409 . S
C451 C450 1.362 . S
H452 C458 0.930 . S
H453 C461 0.930 . S
H454 C462 0.930 . S
H455 C463 0.930 . S
H456 C466 0.930 . S
H457 C467 0.930 . S
C458 H452 0.930 . S
C458 C459 1.355 . S
C458 C460 1.415 . S
C459 C458 1.355 . S
C459 C461 1.419 . S
C460 C458 1.415 . S
C460 C465 1.425 . S
C460 C467 1.409 . S
C461 H453 0.930 . S
C461 C459 1.419 . S
C461 C462 1.362 . S
C462 H454 0.930 . S
C462 C461 1.362 . S
C462 C465 1.409 . S
C463 H455 0.930 . S
C463 C464 1.355 . S
C463 C465 1.415 . S
C464 C463 1.355 . S
C464 C466 1.419 . S
C465 C460 1.425 . S
C465 C462 1.409 . S
C465 C463 1.415 . S
C466 H456 0.930 . S
C466 C464 1.419 . S
C466 C467 1.362 . S
C467 H457 0.930 . S
C467 C460 1.409 . S
C467 C466 1.362 . S
H468 C474 0.930 . S
H469 C477 0.930 . S
H470 C478 0.930 . S
H471 C479 0.930 . S
H472 C482 0.930 . S
H473 C483 0.930 . S
C474 H468 0.930 . S
C474 C475 1.355 . S
C474 C476 1.415 . S
C475 C474 1.355 . S
C475 C477 1.419 . S
C476 C474 1.415 . S
C476 C481 1.425 . S
C476 C483 1.409 . S
C477 H469 0.930 . S
C477 C475 1.419 . S
C477 C478 1.362 . S
C478 H470 0.930 . S
C478 C477 1.362 . S
C478 C481 1.409 . S
C479 H471 0.930 . S
C479 C480 1.355 . S
C479 C481 1.415 . S
C480 C479 1.355 . S
C480 C482 1.419 . S
C481 C476 1.425 . S
C481 C478 1.409 . S
C481 C479 1.415 . S
C482 H472 0.930 . S
C482 C480 1.419 . S
C482 C483 1.362 . S
C483 H473 0.930 . S
C483 C476 1.409 . S
C483 C482 1.362 . S
H484 C490 0.930 . S
H485 C493 0.930 . S
H486 C494 0.930 . S
H487 C495 0.930 . S
H488 C498 0.930 . S
H489 C499 0.930 . S
C490 H484 0.930 . S
C490 C491 1.355 . S
C490 C492 1.415 . S
C491 C490 1.355 . S
C491 C493 1.419 . S
C492 C490 1.415 . S
C492 C497 1.425 . S
C492 C499 1.409 . S
C493 H485 0.930 . S
C493 C491 1.419 . S
C493 C494 1.362 . S
C494 H486 0.930 . S
C494 C493 1.362 . S
C494 C497 1.409 . S
C495 H487 0.930 . S
C495 C496 1.355 . S
C495 C497 1.415 . S
C496 C495 1.355 . S
C496 C498 1.419 . S
C497 C492 1.425 . S
C497 C494 1.409 . S
C497 C495 1.415 . S
C498 H488 0.930 . S
C498 C496 1.419 . S
C498 C499 1.362 . S
C499 H489 0.930 . S
C499 C492 1.409 . S
C499 C498 1.362 . S
H500 C506 0.930 . S
H501 C509 0.930 . S
H502 C510 0.930 . S
H503 C511 0.930 . S
H504 C514 0.930 . S
H505 C515 0.930 . S
C506 H500 0.930 . S
C506 C507 1.355 . S
C506 C508 1.415 . S
C507 C506 1.355 . S
C507 C509 1.419 . S
C508 C506 1.415 . S
C508 C513 1.425 . S
C508 C515 1.409 . S
C509 H501 0.930 . S
C509 C507 1.419 . S
C509 C510 1.362 . S
C510 H502 0.930 . S
C510 C509 1.362 . S
C510 C513 1.409 . S
C511 H503 0.930 . S
C511 C512 1.355 . S
C511 C513 1.415 . S
C512 C511 1.355 . S
C512 C514 1.419 . S
C513 C508 1.425 . S
C513 C510 1.409 . S
C513 C511 1.415 . S
C514 H504 0.930 . S
C514 C512 1.419 . S
C514 C515 1.362 . S
C515 H505 0.930 . S
C515 C508 1.409 . S
C515 C514 1.362 . S
H516 C522 0.930 . S
H517 C525 0.930 . S
H518 C526 0.930 . S
H519 C527 0.930 . S
H520 C530 0.930 . S
H521 C531 0.930 . S
C522 H516 0.930 . S
C522 C523 1.355 . S
C522 C524 1.415 . S
C523 C522 1.355 . S
C523 C525 1.419 . S
C524 C522 1.415 . S
C524 C529 1.425 . S
C524 C531 1.409 . S
C525 H517 0.930 . S
C525 C523 1.419 . S
C525 C526 1.362 . S
C526 H518 0.930 . S
C526 C525 1.362 . S
C526 C529 1.409 . S
C527 H519 0.930 . S
C527 C528 1.355 . S
C527 C529 1.415 . S
C528 C527 1.355 . S
C528 C530 1.419 . S
C529 C524 1.425 . S
C529 C526 1.409 . S
C529 C527 1.415 . S
C530 H520 0.930 . S
C530 C528 1.419 . S
C530 C531 1.362 . S
C531 H521 0.930 . S
C531 C524 1.409 . S
C531 C530 1.362 . S
H532 C538 0.930 . S
H533 C541 0.930 . S
H534 C542 0.930 . S
H535 C543 0.930 . S
H536 C546 0.930 . S
H537 C547 0.930 . S
C538 H532 0.930 . S
C538 C539 1.355 . S
C538 C540 1.415 . S
C539 C538 1.355 . S
C539 C541 1.419 . S
C540 C538 1.415 . S
C540 C545 1.425 . S
C540 C547 1.409 . S
C541 H533 0.930 . S
C541 C539 1.419 . S
C541 C542 1.362 . S
C542 H534 0.930 . S
C542 C541 1.362 . S
C542 C545 1.409 . S
C543 H535 0.930 . S
C543 C544 1.355 . S
C543 C545 1.415 . S
C544 C543 1.355 . S
C544 C546 1.419 . S
C545 C540 1.425 . S
C545 C542 1.409 . S
C545 C543 1.415 . S
C546 H536 0.930 . S
C546 C544 1.419 . S
C546 C547 1.362 . S
C547 H537 0.930 . S
C547 C540 1.409 . S
C547 C546 1.362 . S
H548 C554 0.930 . S
H549 C557 0.930 . S
H550 C558 0.930 . S
H551 C559 0.930 . S
H552 C562 0.930 . S
H553 C563 0.930 . S
C554 H548 0.930 . S
C554 C555 1.355 . S
C554 C556 1.415 . S
C555 C554 1.355 . S
C555 C557 1.419 . S
C556 C554 1.415 . S
C556 C561 1.425 . S
C556 C563 1.409 . S
C557 H549 0.930 . S
C557 C555 1.419 . S
C557 C558 1.362 . S
C558 H550 0.930 . S
C558 C557 1.362 . S
C558 C561 1.409 . S
C559 H551 0.930 . S
C559 C560 1.355 . S
C559 C561 1.415 . S
C560 C559 1.355 . S
C560 C562 1.419 . S
C561 C556 1.425 . S
C561 C558 1.409 . S
C561 C559 1.415 . S
C562 H552 0.930 . S
C562 C560 1.419 . S
C562 C563 1.362 . S
C563 H553 0.930 . S
C563 C556 1.409 . S
C563 C562 1.362 . S
H564 C570 0.930 . S
H565 C573 0.930 . S
H566 C574 0.930 . S
H567 C575 0.930 . S
H568 C578 0.930 . S
H569 C579 0.930 . S
C570 H564 0.930 . S
C570 C571 1.355 . S
C570 C572 1.415 . S
C571 C570 1.355 . S
C571 C573 1.419 . S
C572 C570 1.415 . S
C572 C577 1.425 . S
C572 C579 1.409 . S
C573 H565 0.930 . S
C573 C571 1.419 . S
C573 C574 1.362 . S
C574 H566 0.930 . S
C574 C573 1.362 . S
C574 C577 1.409 . S
C575 H567 0.930 . S
C575 C576 1.355 . S
C575 C577 1.415 . S
C576 C575 1.355 . S
C576 C578 1.419 . S
C577 C572 1.425 . S
C577 C574 1.409 . S
C577 C575 1.415 . S
C578 H568 0.930 . S
C578 C576 1.419 . S
C578 C579 1.362 . S
C579 H569 0.930 . S
C579 C572 1.409 . S
C579 C578 1.362 . S
H580 C586 0.930 . S
H581 C589 0.930 . S
H582 C590 0.930 . S
H583 C591 0.930 . S
H584 C594 0.930 . S
H585 C595 0.930 . S
C586 H580 0.930 . S
C586 C587 1.355 . S
C586 C588 1.415 . S
C587 C586 1.355 . S
C587 C589 1.419 . S
C588 C586 1.415 . S
C588 C593 1.425 . S
C588 C595 1.409 . S
C589 H581 0.930 . S
C589 C587 1.419 . S
C589 C590 1.362 . S
C590 H582 0.930 . S
C590 C589 1.362 . S
C590 C593 1.409 . S
C591 H583 0.930 . S
C591 C592 1.355 . S
C591 C593 1.415 . S
C592 C591 1.355 . S
C592 C594 1.419 . S
C593 C588 1.425 . S
C593 C590 1.409 . S
C593 C591 1.415 . S
C594 H584 0.930 . S
C594 C592 1.419 . S
C594 C595 1.362 . S
C595 H585 0.930 . S
C595 C588 1.409 . S
C595 C594 1.362 . S
H596 C602 0.930 . S
H597 C605 0.930 . S
H598 C606 0.930 . S
H599 C607 0.930 . S
H600 C610 0.930 . S
H601 C611 0.930 . S
C602 H596 0.930 . S
C602 C603 1.355 . S
C602 C604 1.415 . S
C603 C602 1.355 . S
C603 C605 1.419 . S
C604 C602 1.415 . S
C604 C609 1.425 . S
C604 C611 1.409 . S
C605 H597 0.930 . S
C605 C603 1.419 . S
C605 C606 1.362 . S
C606 H598 0.930 . S
C606 C605 1.362 . S
C606 C609 1.409 . S
C607 H599 0.930 . S
C607 C608 1.355 . S
C607 C609 1.415 . S
C608 C607 1.355 . S
C608 C610 1.419 . S
C609 C604 1.425 . S
C609 C606 1.409 . S
C609 C607 1.415 . S
C610 H600 0.930 . S
C610 C608 1.419 . S
C610 C611 1.362 . S
C611 H601 0.930 . S
C611 C604 1.409 . S
C611 C610 1.362 . S
H612 C618 0.930 . S
H613 C621 0.930 . S
H614 C622 0.930 . S
H615 C623 0.930 . S
H616 C626 0.930 . S
H617 C627 0.930 . S
C618 H612 0.930 . S
C618 C619 1.355 . S
C618 C620 1.415 . S
C619 C618 1.355 . S
C619 C621 1.419 . S
C620 C618 1.415 . S
C620 C625 1.425 . S
C620 C627 1.409 . S
C621 H613 0.930 . S
C621 C619 1.419 . S
C621 C622 1.362 . S
C622 H614 0.930 . S
C622 C621 1.362 . S
C622 C625 1.409 . S
C623 H615 0.930 . S
C623 C624 1.355 . S
C623 C625 1.415 1_554 S
C624 C623 1.355 . S
C624 C626 1.419 . S
C625 C620 1.425 . S
C625 C622 1.409 . S
C625 C623 1.415 1_556 S
C626 H616 0.930 . S
C626 C624 1.419 . S
C626 C627 1.362 1_554 S
C627 H617 0.930 . S
C627 C620 1.409 . S
C627 C626 1.362 1_556 S
H628 C634 0.930 . S
H629 C637 0.930 . S
H630 C638 0.930 . S
H631 C639 0.930 . S
H632 C642 0.930 . S
H633 C643 0.930 . S
C634 H628 0.930 . S
C634 C635 1.355 . S
C634 C636 1.415 . S
C635 C634 1.355 . S
C635 C637 1.419 . S
C636 C634 1.415 . S
C636 C641 1.425 . S
C636 C643 1.409 . S
C637 H629 0.930 . S
C637 C635 1.419 . S
C637 C638 1.362 . S
C638 H630 0.930 . S
C638 C637 1.362 . S
C638 C641 1.409 . S
C639 H631 0.930 . S
C639 C640 1.355 . S
C639 C641 1.415 . S
C640 C639 1.355 . S
C640 C642 1.419 . S
C641 C636 1.425 . S
C641 C638 1.409 . S
C641 C639 1.415 . S
C642 H632 0.930 . S
C642 C640 1.419 . S
C642 C643 1.362 . S
C643 H633 0.930 . S
C643 C636 1.409 . S
C643 C642 1.362 . S
H644 C650 0.930 . S
H645 C653 0.930 . S
H646 C654 0.930 . S
H647 C655 0.930 . S
H648 C658 0.930 . S
H649 C659 0.930 . S
C650 H644 0.930 . S
C650 C651 1.355 . S
C650 C652 1.415 . S
C651 C650 1.355 . S
C651 C653 1.419 . S
C652 C650 1.415 . S
C652 C657 1.425 . S
C652 C659 1.409 . S
C653 H645 0.930 . S
C653 C651 1.419 . S
C653 C654 1.362 . S
C654 H646 0.930 . S
C654 C653 1.362 . S
C654 C657 1.409 . S
C655 H647 0.930 . S
C655 C656 1.355 . S
C655 C657 1.415 . S
C656 C655 1.355 . S
C656 C658 1.419 . S
C657 C652 1.425 . S
C657 C654 1.409 . S
C657 C655 1.415 . S
C658 H648 0.930 . S
C658 C656 1.419 . S
C658 C659 1.362 . S
C659 H649 0.930 . S
C659 C652 1.409 . S
C659 C658 1.362 . S
H660 C666 0.930 . S
H661 C669 0.930 . S
H662 C670 0.930 . S
H663 C671 0.930 . S
H664 C674 0.930 . S
H665 C675 0.930 . S
C666 H660 0.930 . S
C666 C667 1.355 . S
C666 C668 1.415 . S
C667 C666 1.355 . S
C667 C669 1.419 . S
C668 C666 1.415 . S
C668 C673 1.425 . S
C668 C675 1.409 . S
C669 H661 0.930 . S
C669 C667 1.419 . S
C669 C670 1.362 . S
C670 H662 0.930 . S
C670 C669 1.362 . S
C670 C673 1.409 . S
C671 H663 0.930 . S
C671 C672 1.355 . S
C671 C673 1.415 . S
C672 C671 1.355 . S
C672 C674 1.419 . S
C673 C668 1.425 . S
C673 C670 1.409 . S
C673 C671 1.415 . S
C674 H664 0.930 . S
C674 C672 1.419 . S
C674 C675 1.362 . S
C675 H665 0.930 . S
C675 C668 1.409 . S
C675 C674 1.362 . S
H676 C682 0.930 . S
H677 C685 0.930 . S
H678 C686 0.930 . S
H679 C687 0.930 . S
H680 C690 0.930 . S
H681 C691 0.930 . S
C682 H676 0.930 . S
C682 C683 1.355 . S
C682 C684 1.415 . S
C683 C682 1.355 . S
C683 C685 1.419 . S
C684 C682 1.415 . S
C684 C689 1.425 . S
C684 C691 1.409 . S
C685 H677 0.930 . S
C685 C683 1.419 . S
C685 C686 1.362 . S
C686 H678 0.930 . S
C686 C685 1.362 . S
C686 C689 1.409 . S
C687 H679 0.930 . S
C687 C688 1.355 . S
C687 C689 1.415 . S
C688 C687 1.355 . S
C688 C690 1.419 . S
C689 C684 1.425 . S
C689 C686 1.409 . S
C689 C687 1.415 . S
C690 H680 0.930 . S
C690 C688 1.419 . S
C690 C691 1.362 . S
C691 H681 0.930 . S
C691 C684 1.409 . S
C691 C690 1.362 . S
H692 C698 0.930 . S
H693 C701 0.930 . S
H694 C702 0.930 . S
H695 C703 0.930 . S
H696 C706 0.930 . S
H697 C707 0.930 . S
C698 H692 0.930 . S
C698 C699 1.355 . S
C698 C700 1.415 . S
C699 C698 1.355 . S
C699 C701 1.419 . S
C700 C698 1.415 . S
C700 C705 1.425 . S
C700 C707 1.409 . S
C701 H693 0.930 . S
C701 C699 1.419 . S
C701 C702 1.362 . S
C702 H694 0.930 . S
C702 C701 1.362 . S
C702 C705 1.409 . S
C703 H695 0.930 . S
C703 C704 1.355 . S
C703 C705 1.415 . S
C704 C703 1.355 . S
C704 C706 1.419 . S
C705 C700 1.425 . S
C705 C702 1.409 . S
C705 C703 1.415 . S
C706 H696 0.930 . S
C706 C704 1.419 . S
C706 C707 1.362 . S
C707 H697 0.930 . S
C707 C700 1.409 . S
C707 C706 1.362 . S
H708 C714 0.930 . S
H709 C717 0.930 . S
H710 C718 0.930 . S
H711 C719 0.930 . S
H712 C722 0.930 . S
H713 C723 0.930 . S
C714 H708 0.930 . S
C714 C715 1.355 . S
C714 C716 1.415 . S
C715 C714 1.355 . S
C715 C717 1.419 . S
C716 C714 1.415 . S
C716 C721 1.425 . S
C716 C723 1.409 . S
C717 H709 0.930 . S
C717 C715 1.419 . S
C717 C718 1.362 . S
C718 H710 0.930 . S
C718 C717 1.362 . S
C718 C721 1.409 . S
C719 H711 0.930 . S
C719 C720 1.355 . S
C719 C721 1.415 . S
C720 C719 1.355 . S
C720 C722 1.419 . S
C721 C716 1.425 . S
C721 C718 1.409 . S
C721 C719 1.415 . S
C722 H712 0.930 . S
C722 C720 1.419 . S
C722 C723 1.362 . S
C723 H713 0.930 . S
C723 C716 1.409 . S
C723 C722 1.362 . S
H724 C730 0.930 . S
H725 C733 0.930 . S
H726 C734 0.930 1_556 S
H727 C735 0.930 . S
H728 C738 0.930 . S
H729 C739 0.930 . S
C730 H724 0.930 . S
C730 C731 1.355 . S
C730 C732 1.415 . S
C731 C730 1.355 . S
C731 C733 1.419 . S
C732 C730 1.415 . S
C732 C737 1.425 1_554 S
C732 C739 1.409 . S
C733 H725 0.930 . S
C733 C731 1.419 . S
C733 C734 1.362 . S
C734 H726 0.930 1_554 S
C734 C733 1.362 . S
C734 C737 1.409 1_554 S
C735 H727 0.930 . S
C735 C736 1.355 . S
C735 C737 1.415 . S
C736 C735 1.355 . S
C736 C738 1.419 . S
C737 C732 1.425 1_556 S
C737 C734 1.409 1_556 S
C737 C735 1.415 . S
C738 H728 0.930 . S
C738 C736 1.419 . S
C738 C739 1.362 1_556 S
C739 H729 0.930 . S
C739 C732 1.409 . S
C739 C738 1.362 1_554 S
H740 C746 0.930 . S
H741 C749 0.930 . S
H742 C750 0.930 . S
H743 C751 0.930 . S
H744 C754 0.930 . S
H745 C755 0.930 . S
C746 H740 0.930 . S
C746 C747 1.355 . S
C746 C748 1.415 . S
C747 C746 1.355 . S
C747 C749 1.419 . S
C748 C746 1.415 . S
C748 C753 1.425 . S
C748 C755 1.409 . S
C749 H741 0.930 . S
C749 C747 1.419 . S
C749 C750 1.362 . S
C750 H742 0.930 . S
C750 C749 1.362 . S
C750 C753 1.409 . S
C751 H743 0.930 . S
C751 C752 1.355 . S
C751 C753 1.415 . S
C752 C751 1.355 . S
C752 C754 1.419 . S
C753 C748 1.425 . S
C753 C750 1.409 . S
C753 C751 1.415 . S
C754 H744 0.930 . S
C754 C752 1.419 . S
C754 C755 1.362 . S
C755 H745 0.930 . S
C755 C748 1.409 . S
C755 C754 1.362 . S
C384 C358 1.608 . S
C379 C45 1.613 . S
C395 C84 1.609 . S
C400 C299 1.626 . S
C411 C126 1.589 . S
C416 C302 1.599 . S
C427 C189 1.609 . S
C432 C316 1.609 . S
C448 C341 1.616 . S
C443 C228 1.591 . S
C459 C270 1.588 . S
C464 C344 1.601 . S
C475 C69 1.585 . S
C480 C313 1.593 . S
C491 C141 1.585 . S
C496 C327 1.594 . S
C507 C174 1.517 . S
C512 C330 1.584 . S
C528 C355 1.589 . S
C523 C213 1.578 . S
C544 C369 1.599 . S
C539 C285 1.602 . S
C560 C288 1.582 . S
C555 C30 1.518 . S
C571 C36 1.479 . S
C576 C311 1.477 . S
C587 C93 1.496 . S
C592 C325 1.475 . S
C608 C335 1.493 . S
C603 C117 1.482 . S
C619 C180 1.483 . S
C624 C353 1.464 . S
C640 C367 1.494 . S
C635 C237 1.484 . S
C656 C293 1.493 . S
C651 C261 1.495 . S
C672 C363 1.513 . S
C667 C78 1.497 . S
C683 C132 1.503 . S
C688 C297 1.508 . S
C704 C307 1.503 . S
C699 C165 1.493 . S
C715 C222 1.504 . S
C720 C321 1.513 . S
C731 C276 1.505 . S
C736 C339 1.487 . S
C747 C21 1.513 . S
C752 C349 1.511 . S
