# Generated by pormake.
# Topology pyr, (3,6)-cn, num edge types: 1
# Building blocks:
#     Node 0, Type 0, BuildingBlock: BETDAH_clean_linker_0, # of connection points: 3
#     Node 1, Type 0, BuildingBlock: BETDAH_clean_linker_0, # of connection points: 3
#     Node 2, Type 0, BuildingBlock: BETDAH_clean_linker_0, # of connection points: 3
#     Node 3, Type 0, BuildingBlock: BETDAH_clean_linker_0, # of connection points: 3
#     Node 4, Type 0, BuildingBlock: BETDAH_clean_linker_0, # of connection points: 3
#     Node 5, Type 0, BuildingBlock: BETDAH_clean_linker_0, # of connection points: 3
#     Node 6, Type 0, BuildingBlock: BETDAH_clean_linker_0, # of connection points: 3
#     Node 7, Type 0, BuildingBlock: BETDAH_clean_linker_0, # of connection points: 3
#     Node 8, Type 1, BuildingBlock: INOVEN_clean_sbu_0, # of connection points: 6
#     Node 9, Type 1, BuildingBlock: INOVEN_clean_sbu_0, # of connection points: 6
#     Node 10, Type 1, BuildingBlock: INOVEN_clean_sbu_0, # of connection points: 6
#     Node 11, Type 1, BuildingBlock: INOVEN_clean_sbu_0, # of connection points: 6
#     Edge 12, Type (0, 1), BuildingBlock: KIFKEQ_clean_linker_1, # of connection points: 2
#     Edge 13, Type (0, 1), BuildingBlock: KIFKEQ_clean_linker_1, # of connection points: 2
#     Edge 14, Type (0, 1), BuildingBlock: KIFKEQ_clean_linker_1, # of connection points: 2
#     Edge 15, Type (0, 1), BuildingBlock: KIFKEQ_clean_linker_1, # of connection points: 2
#     Edge 16, Type (0, 1), BuildingBlock: KIFKEQ_clean_linker_1, # of connection points: 2
#     Edge 17, Type (0, 1), BuildingBlock: KIFKEQ_clean_linker_1, # of connection points: 2
#     Edge 18, Type (0, 1), BuildingBlock: KIFKEQ_clean_linker_1, # of connection points: 2
#     Edge 19, Type (0, 1), BuildingBlock: KIFKEQ_clean_linker_1, # of connection points: 2
#     Edge 20, Type (0, 1), BuildingBlock: KIFKEQ_clean_linker_1, # of connection points: 2
#     Edge 21, Type (0, 1), BuildingBlock: KIFKEQ_clean_linker_1, # of connection points: 2
#     Edge 22, Type (0, 1), BuildingBlock: KIFKEQ_clean_linker_1, # of connection points: 2
#     Edge 23, Type (0, 1), BuildingBlock: KIFKEQ_clean_linker_1, # of connection points: 2
#     Edge 24, Type (0, 1), BuildingBlock: KIFKEQ_clean_linker_1, # of connection points: 2
#     Edge 25, Type (0, 1), BuildingBlock: KIFKEQ_clean_linker_1, # of connection points: 2
#     Edge 26, Type (0, 1), BuildingBlock: KIFKEQ_clean_linker_1, # of connection points: 2
#     Edge 27, Type (0, 1), BuildingBlock: KIFKEQ_clean_linker_1, # of connection points: 2
#     Edge 28, Type (0, 1), BuildingBlock: KIFKEQ_clean_linker_1, # of connection points: 2
#     Edge 29, Type (0, 1), BuildingBlock: KIFKEQ_clean_linker_1, # of connection points: 2
#     Edge 30, Type (0, 1), BuildingBlock: KIFKEQ_clean_linker_1, # of connection points: 2
#     Edge 31, Type (0, 1), BuildingBlock: KIFKEQ_clean_linker_1, # of connection points: 2
#     Edge 32, Type (0, 1), BuildingBlock: KIFKEQ_clean_linker_1, # of connection points: 2
#     Edge 33, Type (0, 1), BuildingBlock: KIFKEQ_clean_linker_1, # of connection points: 2
#     Edge 34, Type (0, 1), BuildingBlock: KIFKEQ_clean_linker_1, # of connection points: 2
#     Edge 35, Type (0, 1), BuildingBlock: KIFKEQ_clean_linker_1, # of connection points: 2
# Relax obj value: 0.138
# Max RMSD: 0.191
# Mean RMSD: 0.141
data_MOF--net-pyr--node1-INOVEN_clean_sbu_0--node2-BETDAH_clean_linker_0--edge1-KIFKEQ_clean_linker_1
_symmetry_space_group_name_H-M    P1
_symmetry_Int_Tables_number       1
_symmetry_cell_setting            triclinic
loop_
_symmetry_equiv_pos_as_xyz
'x, y, z'
_cell_length_a     37.852314
_cell_length_b     41.526507
_cell_length_c     38.361502
_cell_angle_alpha  91.778411
_cell_angle_beta   89.679125
_cell_angle_gamma 107.04602
loop_
_atom_site_label
_atom_site_type_symbol
_atom_site_fract_x
_atom_site_fract_y
_atom_site_fract_z
_atom_type_partial_charge
H0 H 0.37617 0.24635 0.2624 0.0
H1 H 0.43456 0.32332 0.19302 0.0
H2 H 0.34319 0.33636 0.25293 0.0
C3 C 0.3804 0.27101 0.25161 0.0
C4 C 0.35666 0.29022 0.26111 0.0
C5 C 0.40832 0.28257 0.22687 0.0
C6 C 0.4134 0.31432 0.21251 0.0
C7 C 0.3901 0.33384 0.2218 0.0
C8 C 0.36183 0.32172 0.24623 0.0
N9 N 0.39436 0.36469 0.2049 0.0
C10 C 0.36524 0.37839 0.20137 0.0
H11 H 0.30739 0.85417 0.71547 0.0
H12 H 0.20855 0.88406 0.7048 0.0
H13 H 0.21866 0.79511 0.65004 0.0
C14 C 0.28 0.84992 0.70448 0.0
C15 C 0.26545 0.82208 0.68189 0.0
C16 C 0.25973 0.8724 0.71289 0.0
C17 C 0.22438 0.86676 0.69845 0.0
C18 C 0.20957 0.83882 0.67567 0.0
C19 C 0.23003 0.81644 0.66778 0.0
N20 N 0.17473 0.83344 0.65948 0.0
C21 C 0.16342 0.86033 0.64849 0.0
H22 H 0.71946 0.36284 0.94415 0.0
H23 H 0.71831 0.43627 0.86664 0.0
H24 H 0.63283 0.34152 0.86771 0.0
C25 C 0.70668 0.37057 0.92203 0.0
C26 C 0.67368 0.34826 0.90847 0.0
C27 C 0.72339 0.40264 0.90775 0.0
C28 C 0.70629 0.41205 0.87815 0.0
C29 C 0.67327 0.38986 0.86375 0.0
C30 C 0.65772 0.35845 0.87922 0.0
N31 N 0.65425 0.39649 0.8336 0.0
C32 C 0.65888 0.42515 0.81332 0.0
H33 H 0.84105 0.75742 0.44299 0.0
H34 H 0.93808 0.76678 0.38133 0.0
H35 H 0.85104 0.67285 0.37887 0.0
C36 C 0.85614 0.74652 0.42427 0.0
C37 C 0.84125 0.7124 0.41288 0.0
C38 C 0.89106 0.76643 0.41341 0.0
C39 C 0.91075 0.75209 0.38933 0.0
C40 C 0.89621 0.71898 0.37546 0.0
C41 C 0.86126 0.69903 0.38742 0.0
N42 N 0.92102 0.70564 0.35514 0.0
C43 C 0.91498 0.68439 0.32509 0.0
H44 H 0.77091 0.8001 0.8544 0.0
H45 H 0.69067 0.77126 0.93633 0.0
H46 H 0.68561 0.84846 0.86575 0.0
C47 C 0.74599 0.80184 0.86739 0.0
C48 C 0.72892 0.82538 0.85608 0.0
C49 C 0.73299 0.78252 0.89668 0.0
C50 C 0.70141 0.78617 0.91385 0.0
C51 C 0.68422 0.80988 0.90304 0.0
C52 C 0.69836 0.82983 0.87424 0.0
N53 N 0.65321 0.81332 0.92207 0.0
C54 C 0.64081 0.84167 0.92147 0.0
H55 H 0.84938 0.2151 0.41025 0.0
H56 H 0.8755 0.27004 0.50832 0.0
H57 H 0.80357 0.29618 0.43538 0.0
C58 C 0.84705 0.23522 0.42797 0.0
C59 C 0.82476 0.25535 0.41879 0.0
C60 C 0.86526 0.24002 0.4603 0.0
C61 C 0.86223 0.26624 0.48294 0.0
C62 C 0.83989 0.28625 0.4744 0.0
C63 C 0.82088 0.28068 0.44229 0.0
N64 N 0.83616 0.31097 0.49924 0.0
C65 C 0.80511 0.32211 0.50079 0.0
H66 H 0.35262 0.77756 0.17645 0.0
H67 H 0.3543 0.7046 0.25429 0.0
H68 H 0.438 0.80045 0.25428 0.0
C69 C 0.3653 0.77015 0.19884 0.0
C70 C 0.39774 0.79299 0.21287 0.0
C71 C 0.34904 0.73795 0.213 0.0
C72 C 0.36598 0.72893 0.24289 0.0
C73 C 0.39838 0.7516 0.25774 0.0
C74 C 0.41356 0.78316 0.24243 0.0
N75 N 0.41705 0.74522 0.28823 0.0
C76 C 0.41239 0.71638 0.30823 0.0
H77 H 0.2255 0.38293 0.66717 0.0
H78 H 0.22417 0.45488 0.7507 0.0
H79 H 0.14695 0.35564 0.75033 0.0
C80 C 0.21365 0.38932 0.69114 0.0
C81 C 0.18371 0.36489 0.70599 0.0
C82 C 0.22901 0.42186 0.70672 0.0
C83 C 0.21301 0.43026 0.73821 0.0
C84 C 0.18268 0.40629 0.75357 0.0
C85 C 0.16908 0.374 0.73745 0.0
N86 N 0.16579 0.41157 0.78612 0.0
C87 C 0.16569 0.4409 0.80549 0.0
Gd88 Gd 0.04612 0.07982 0.52179 0.0
Gd89 Gd 0.03054 0.05179 0.59486 0.0
C90 C 0.07531 0.13004 0.59049 0.0
C91 C 0.05064 0.11342 0.46556 0.0
C92 C 0.07956 0.13987 0.44892 0.0
C93 C 0.11597 0.14874 0.46144 0.0
C94 C 0.07144 0.15448 0.41876 0.0
C95 C 0.1367 0.18437 0.41171 0.0
C96 C 0.09977 0.17667 0.40033 0.0
C97 C 0.14435 0.17078 0.44296 0.0
C98 C 0.09786 0.05363 0.54717 0.0
C99 C 1.0036 1.00132 0.52637 0.0
C100 C 0.02104 1.01866 0.65171 0.0
C101 C 0.9884 0.99659 0.66906 0.0
C102 C 0.97804 1.00664 0.70186 0.0
C103 C 0.96589 0.96707 0.65248 0.0
C104 C 0.92243 0.95901 0.70067 0.0
C105 C 0.93328 0.94831 0.66831 0.0
C106 C 0.94527 0.98817 0.71743 0.0
C107 C 0.97843 0.07697 0.56831 0.0
O108 O 0.06576 0.12735 0.55699 0.0
O109 O 0.07003 0.10284 0.60939 0.0
O110 O 0.05718 0.08424 0.46668 0.0
O111 O 0.03733 0.12201 0.49481 0.0
O112 O 0.09025 0.05359 0.51428 0.0
O113 O 0.08074 0.07058 0.56415 0.0
O114 O 1.01523 1.00429 0.55927 0.0
O115 O 1.00639 0.02855 0.50811 0.0
O116 O 0.02173 0.05023 0.65053 0.0
O117 O 0.03196 1.00739 0.62258 0.0
O118 O 0.98622 0.07824 0.60116 0.0
O119 O 0.99599 0.06005 0.5522 0.0
H120 H 0.12262 0.13759 0.48476 0.0
H121 H 0.04338 0.14793 0.40889 0.0
H122 H 0.09288 0.18716 0.3767 0.0
H123 H 0.17245 0.17584 0.45229 0.0
H124 H 0.99496 0.02928 0.71515 0.0
H125 H 0.97301 0.95879 0.62705 0.0
H126 H 0.91609 0.9259 0.65488 0.0
H127 H 0.93783 0.99664 0.74266 0.0
Gd128 Gd 0.56961 0.07935 0.07664 0.0
Gd129 Gd 0.49852 0.06386 0.04672 0.0
C130 C 0.50788 0.10629 0.1156 0.0
C131 C 0.6331 0.10706 0.10629 0.0
C132 C 0.64781 0.12399 0.1399 0.0
C133 C 0.65765 0.10555 0.16633 0.0
C134 C 0.65423 0.15891 0.1452 0.0
C135 C 0.68134 0.15671 0.20212 0.0
C136 C 0.67072 0.17509 0.17606 0.0
C137 C 0.67404 0.12169 0.19714 0.0
C138 C 0.52523 1.01783 0.09652 0.0
C139 C 0.56011 0.03551 1.00811 0.0
C140 C 0.43377 0.03779 1.01879 0.0
C141 C 0.41745 0.02849 0.98409 0.0
C142 C 0.43961 0.03279 0.9542 0.0
C143 C 0.37909 1.01503 0.98091 0.0
C144 C 0.3849 1.00916 0.91803 0.0
C145 C 0.3629 1.00542 0.94817 0.0
C146 C 0.42344 1.02319 0.92136 0.0
C147 C 0.54335 0.12495 1.02607 0.0
O148 O 0.54333 0.11282 0.10872 0.0
O149 O 0.4839 0.08156 0.09865 0.0
O150 O 0.61602 0.07484 0.10678 0.0
O151 O 0.6171 0.12303 0.08567 0.0
O152 O 0.55941 1.02422 0.08714 0.0
O153 O 0.51549 0.04455 0.09519 0.0
O154 O 0.52455 0.03088 1.01357 0.0
O155 O 0.58482 0.05859 0.0264 0.0
O156 O 0.4481 0.06995 1.02544 0.0
O157 O 0.45429 1.01987 0.03001 0.0
O158 O 0.50915 0.11883 0.03504 0.0
O159 O 0.55268 0.0981 0.02783 0.0
H160 H 0.65328 0.07866 0.16301 0.0
H161 H 0.64728 0.17392 0.12522 0.0
H162 H 0.67633 0.20215 0.17895 0.0
H163 H 0.6814 0.10674 0.21695 0.0
H164 H 0.46933 0.04334 0.95632 0.0
H165 H 0.36167 1.01158 1.00383 0.0
H166 H 0.33325 0.99419 0.9466 0.0
H167 H 0.44108 0.02667 0.89862 0.0
Gd168 Gd 0.52685 0.53961 0.5398 0.0
Gd169 Gd 0.54125 0.59898 0.58027 0.0
C170 C 0.56746 0.54214 0.61582 0.0
C171 C 0.52827 0.48535 0.50527 0.0
C172 C 0.55004 0.46168 0.50801 0.0
C173 C 0.53908 0.43049 0.48995 0.0
C174 C 0.5823 0.4704 0.52832 0.0
C175 C 0.59322 0.41727 0.51181 0.0
C176 C 0.60362 0.44833 0.53035 0.0
C177 C 0.56066 0.40842 0.49169 0.0
C178 C 0.46544 0.54223 0.57653 0.0
C179 C 0.49983 0.59627 0.5052 0.0
C180 C 0.53872 0.65327 0.61376 0.0
C181 C 0.51092 0.67141 0.61582 0.0
C182 C 0.52128 0.70562 0.62565 0.0
C183 C 0.47376 0.65448 0.60831 0.0
C184 C 0.45698 0.70546 0.62275 0.0
C185 C 0.44699 0.67131 0.61192 0.0
C186 C 0.49453 0.72259 0.62898 0.0
C187 C 0.60273 0.59667 0.54351 0.0
O188 O 0.56202 0.52818 0.58399 0.0
O189 O 0.55819 0.56988 0.62245 0.0
O190 O 0.50559 0.4855 0.53093 0.0
O191 O 0.54674 0.51566 0.49619 0.0
O192 O 0.46556 0.53349 0.54384 0.0
O193 O 0.49822 0.55028 0.58816 0.0
O194 O 0.5035 0.60893 0.53758 0.0
O195 O 0.51091 0.56961 0.4979 0.0
O196 O 0.55501 0.65355 0.58369 0.0
O197 O 0.52902 0.62353 0.62732 0.0
O198 O 0.60256 0.60588 0.57602 0.0
O199 O 0.56991 0.58841 0.5319 0.0
H200 H 0.51418 0.42345 0.47418 0.0
H201 H 0.59149 0.49458 0.54202 0.0
H202 H 0.62895 0.45612 0.54548 0.0
H203 H 0.55205 0.38458 0.47722 0.0
H204 H 0.54995 0.71908 0.63112 0.0
H205 H 0.46534 0.62804 0.60037 0.0
H206 H 0.41835 0.65723 0.6073 0.0
H207 H 0.50323 0.74906 0.63671 0.0
Gd208 Gd 0.0407 0.53205 0.07451 0.0
Gd209 Gd 0.03466 0.60304 0.04476 0.0
C210 C 0.10613 0.60324 0.09308 0.0
C211 C 0.06276 0.47927 0.08037 0.0
C212 C 0.08802 0.46862 0.10314 0.0
C213 C 0.08971 0.4354 0.10051 0.0
C214 C 0.11314 0.49218 0.12488 0.0
C215 C 0.1436 0.45003 0.13874 0.0
C216 C 0.14079 0.483 0.14246 0.0
C217 C 0.11719 0.42611 0.11827 0.0
C218 C 1.01044 0.5666 0.123 0.0
C219 C 0.96932 0.53226 1.02596 0.0
C220 C 1.01266 0.65589 0.0398 0.0
C221 C 0.98497 0.66591 1.0195 0.0
C222 C 0.99056 0.69997 1.01269 0.0
C223 C 0.95172 0.64212 1.00908 0.0
C224 C 0.92863 0.68682 0.98782 0.0
C225 C 0.92378 0.65248 0.99347 0.0
C226 C 0.96272 0.71035 0.99687 0.0
C227 C 0.06419 0.56799 0.99598 0.0
O228 O 0.09429 0.56972 0.09412 0.0
O229 O 0.08751 0.62115 0.07685 0.0
O230 O 0.03188 0.48182 0.09427 0.0
O231 O 0.07881 0.50434 0.06033 0.0
O232 O 1.01433 0.53689 0.12762 0.0
O233 O 0.02282 0.57501 0.09284 0.0
O234 O 0.98072 0.5658 1.0259 0.0
O235 O 0.98841 0.51417 0.04126 0.0
O236 O 0.04156 0.65223 1.02293 0.0
O237 O 0.99926 0.63232 0.06232 0.0
O238 O 0.06005 0.5976 0.9912 0.0
O239 O 0.05258 0.55998 0.02646 0.0
H240 H 0.07066 0.41697 0.08367 0.0
H241 H 0.11216 0.51795 0.12724 0.0
H242 H 0.16046 0.50187 0.15835 0.0
H243 H 0.11883 0.40062 0.11461 0.0
H244 H 1.0161 0.71866 1.02042 0.0
H245 H 0.94682 0.61565 1.01406 0.0
H246 H 0.89786 0.63368 0.98714 0.0
H247 H 0.96772 0.73689 0.99221 0.0
H248 H 0.33081 0.32263 0.3144 0.0
H249 H 0.30983 0.22625 0.2598 0.0
H250 H 0.27625 0.2998 0.35049 0.0
H251 H 0.25649 0.2032 0.2966 0.0
H252 H 0.14255 0.18038 0.34088 0.0
H253 H 0.19492 0.20834 0.3049 0.0
H254 H 0.25391 0.25907 0.39658 0.0
H255 H 0.20064 0.23219 0.43258 0.0
C256 C 0.31464 0.29657 0.31021 0.0
C257 C 0.3247 0.27621 0.28433 0.0
C258 C 0.28361 0.28345 0.33103 0.0
C259 C 0.26194 0.24976 0.32626 0.0
C260 C 0.27226 0.2294 0.30059 0.0
C261 C 0.30319 0.24247 0.27983 0.0
C262 C 0.16629 0.19809 0.35335 0.0
C263 C 0.1674 0.20398 0.38966 0.0
C264 C 0.19655 0.21374 0.33275 0.0
C265 C 0.22876 0.23555 0.34794 0.0
C266 C 0.22945 0.24246 0.38408 0.0
C267 C 0.19908 0.22682 0.40473 0.0
H268 H 0.22765 0.89104 0.7709 0.0
H269 H 0.32813 0.91772 0.71064 0.0
H270 H 0.2584 0.9308 0.81734 0.0
H271 H 0.3588 0.9579 0.75667 0.0
H272 H 0.41051 0.97421 0.86747 0.0
H273 H 0.37953 0.94821 0.81401 0.0
H274 H 0.28894 0.98886 0.83733 0.0
H275 H 0.32018 1.0151 0.8911 0.0
C276 C 0.25598 0.90616 0.7672 0.0
C277 C 0.27573 0.90102 0.73754 0.0
C278 C 0.27362 0.92896 0.79374 0.0
C279 C 0.31124 0.94709 0.7909 0.0
C280 C 0.33005 0.94374 0.75996 0.0
C281 C 0.3125 0.92087 0.73359 0.0
C282 C 0.38442 0.97831 0.86085 0.0
C283 C 0.36773 0.99657 0.88364 0.0
C284 C 0.36662 0.96341 0.83013 0.0
C285 C 0.33171 0.96642 0.82143 0.0
C286 C 0.3156 0.98574 0.84355 0.0
C287 C 0.33346 1.0007 0.87433 0.0
H288 H 0.61711 0.46854 0.81841 0.0
H289 H 0.68234 0.42933 0.74579 0.0
H290 H 0.59652 0.49708 0.77116 0.0
H291 H 0.66264 0.45839 0.69832 0.0
H292 H 0.58884 0.48358 0.61372 0.0
H293 H 0.61322 0.45794 0.66095 0.0
H294 H 0.60847 0.5401 0.73078 0.0
H295 H 0.58337 0.56511 0.68386 0.0
C296 C 0.62793 0.46681 0.79244 0.0
C297 C 0.65208 0.44719 0.7862 0.0
C298 C 0.61601 0.48319 0.76505 0.0
C299 C 0.62756 0.48034 0.73021 0.0
C300 C 0.65243 0.46112 0.72431 0.0
C301 C 0.66433 0.44477 0.75177 0.0
C302 C 0.59306 0.49628 0.6391 0.0
C303 C 0.58384 0.5266 0.64455 0.0
C304 C 0.60738 0.48159 0.66643 0.0
C305 C 0.6131 0.49659 0.70038 0.0
C306 C 0.60415 0.52711 0.70556 0.0
C307 C 0.58985 0.54175 0.6783 0.0
H308 H 0.93179 0.62528 0.32319 0.0
H309 H 0.91755 0.70216 0.25675 0.0
H310 H 0.95355 0.59819 0.27366 0.0
H311 H 0.93833 0.67461 0.20636 0.0
H312 H 1.01494 0.63505 0.13025 0.0
H313 H 0.98909 0.6628 0.17726 0.0
H314 H 0.93983 0.56608 0.22269 0.0
H315 H 0.96625 0.5391 0.17668 0.0
C316 C 0.93228 0.63587 0.29767 0.0
C317 C 0.92199 0.66545 0.29392 0.0
C318 C 0.94489 0.6203 0.26895 0.0
C319 C 0.94779 0.63375 0.23523 0.0
C320 C 0.937 0.66333 0.23157 0.0
C321 C 0.92446 0.67896 0.26047 0.0
C322 C 0.99809 0.61975 0.14998 0.0
C323 C 0.99262 0.58468 0.14929 0.0
C324 C 0.98319 0.63567 0.17721 0.0
C325 C 0.96233 0.61703 0.20463 0.0
C326 C 0.95629 0.58185 0.20304 0.0
C327 C 0.97129 0.56614 0.17619 0.0
H328 H 0.4454 0.24686 0.26347 0.0
H329 H 0.41574 0.2654 0.15907 0.0
H330 H 0.47189 0.20318 0.24013 0.0
H331 H 0.44151 0.22159 0.13603 0.0
H332 H 0.43741 0.10976 0.12146 0.0
H333 H 0.41686 0.15396 0.15071 0.0
H334 H 0.52708 0.20033 0.19029 0.0
H335 H 0.54828 0.15631 0.16027 0.0
C336 C 0.44504 0.24189 0.23557 0.0
C337 C 0.42871 0.25952 0.213 0.0
C338 C 0.46016 0.21704 0.2223 0.0
C339 C 0.45837 0.20904 0.18642 0.0
C340 C 0.44299 0.2273 0.16384 0.0
C341 C 0.42856 0.25249 0.17697 0.0
C342 C 0.45725 0.12896 0.13685 0.0
C343 C 0.49455 0.12963 0.13837 0.0
C344 C 0.44547 0.15434 0.15339 0.0
C345 C 0.47054 0.18057 0.17232 0.0
C346 C 0.50734 0.1803 0.17573 0.0
C347 C 0.51937 0.15515 0.1586 0.0
H348 H 0.11108 0.88856 0.67037 0.0
H349 H 0.19986 0.89764 0.59694 0.0
H350 H 0.09878 0.93839 0.64652 0.0
H351 H 0.18824 0.94767 0.57329 0.0
H352 H 0.12122 1.00529 0.5132 0.0
H353 H 0.13919 0.95951 0.53901 0.0
H354 H 0.12709 1.00002 0.64203 0.0
H355 H 0.1088 0.04578 0.61607 0.0
C356 C 0.12794 0.90143 0.64919 0.0
C357 C 0.15608 0.88957 0.63507 0.0
C358 C 0.1212 0.92998 0.63575 0.0
C359 C 0.14258 0.94689 0.60803 0.0
C360 C 0.17107 0.93495 0.59435 0.0
C361 C 0.17777 0.90648 0.60784 0.0
C362 C 0.12297 1.00468 0.54133 0.0
C363 C 0.11344 0.02885 0.5627 0.0
C364 C 0.1333 0.97852 0.55612 0.0
C365 C 0.13428 0.97608 0.59254 0.0
C366 C 0.12603 1.00102 0.61389 0.0
C367 C 0.11584 0.02728 0.59906 0.0
H368 H 0.78466 0.44701 0.87664 0.0
H369 H 0.74295 0.41063 0.97753 0.0
H370 H 0.84345 0.47911 0.90407 0.0
H371 H 0.80173 0.4412 1.00418 0.0
H372 H 0.92573 0.46664 0.0328 0.0
H373 H 0.86703 0.43777 1.00388 0.0
H374 H 0.8725 0.52756 0.94795 0.0
H375 H 0.93101 0.55669 0.97725 0.0
C376 C 0.78767 0.4459 0.90458 0.0
C377 C 0.75868 0.42532 0.92442 0.0
C378 C 0.82162 0.46426 0.92036 0.0
C379 C 0.82788 0.46236 0.95641 0.0
C380 C 0.79854 0.44273 0.9763 0.0
C381 C 0.76461 0.42495 0.96075 0.0
C382 C 0.91456 0.48034 1.01434 0.0
C383 C 0.93344 0.51421 1.00767 0.0
C384 C 0.88065 0.46376 0.99779 0.0
C385 C 0.86466 0.48021 0.97345 0.0
C386 C 0.88385 0.51389 0.96628 0.0
C387 C 0.91745 0.5307 0.98334 0.0
H388 H 0.78111 0.66217 0.3843 0.0
H389 H 0.822 0.71374 0.48185 0.0
H390 H 0.72404 0.63075 0.41366 0.0
H391 H 0.76523 0.68438 0.51029 0.0
H392 H 0.67405 0.61138 0.56554 0.0
H393 H 0.73069 0.63461 0.53311 0.0
H394 H 0.6668 0.63256 0.43967 0.0
H395 H 0.6098 0.60774 0.47236 0.0
C396 C 0.77812 0.66687 0.41192 0.0
C397 C 0.80646 0.69109 0.4303 0.0
C398 C 0.74506 0.64905 0.42881 0.0
C399 C 0.73936 0.65465 0.46472 0.0
C400 C 0.76811 0.6785 0.48293 0.0
C401 C 0.80088 0.69602 0.46624 0.0
C402 C 0.672 0.61553 0.53797 0.0
C403 C 0.63714 0.60779 0.52179 0.0
C404 C 0.7047 0.6293 0.51924 0.0
C405 C 0.70398 0.63647 0.48353 0.0
C406 C 0.669 0.62749 0.46695 0.0
C407 C 0.63611 0.61327 0.48577 0.0
H408 H 0.35818 0.44038 0.21566 0.0
H409 H 0.30005 0.34079 0.176 0.0
H410 H 0.30327 0.45883 0.20552 0.0
H411 H 0.24548 0.35903 0.16488 0.0
H412 H 0.1432 0.39288 0.17272 0.0
H413 H 0.19647 0.37626 0.19216 0.0
H414 H 0.2694 0.47036 0.15691 0.0
H415 H 0.2162 0.48706 0.13805 0.0
C416 C 0.33352 0.42254 0.20478 0.0
C417 C 0.33296 0.38935 0.1964 0.0
C418 C 0.3022 0.43303 0.19883 0.0
C419 C 0.26991 0.41042 0.18435 0.0
C420 C 0.26957 0.37698 0.17655 0.0
C421 C 0.30083 0.36656 0.18259 0.0
C422 C 0.17063 0.41006 0.16938 0.0
C423 C 0.17551 0.44122 0.15377 0.0
C424 C 0.20116 0.40053 0.18041 0.0
C425 C 0.23728 0.42185 0.17586 0.0
C426 C 0.24201 0.45349 0.16128 0.0
C427 C 0.21149 0.46308 0.15043 0.0
H428 H 0.70653 0.3043 0.93938 0.0
H429 H 0.59924 0.31496 0.91575 0.0
H430 H 0.67704 0.25146 0.96789 0.0
H431 H 0.56991 0.26147 0.94238 0.0
H432 H 0.52395 0.18284 1.02286 0.0
H433 H 0.55574 0.23529 0.99538 0.0
H434 H 0.64294 0.19339 0.96295 0.0
H435 H 0.6111 0.14074 0.99178 0.0
C436 C 0.67665 0.29556 0.94015 0.0
C437 C 0.6556 0.31462 0.92508 0.0
C438 C 0.65959 0.26473 0.95623 0.0
C439 C 0.62076 0.25166 0.95795 0.0
C440 C 0.59979 0.27052 0.94245 0.0
C441 C 0.6168 0.30131 0.9265 0.0
C442 C 0.54995 0.18469 1.00991 0.0
C443 C 0.56469 0.15723 1.00949 0.0
C444 C 0.56821 0.21494 0.99374 0.0
C445 C 0.60202 0.21906 0.97617 0.0
C446 C 0.61719 0.19168 0.97624 0.0
C447 C 0.59883 0.16126 0.99268 0.0
H448 H 0.96125 0.79466 0.4398 0.0
H449 H 0.85887 0.81767 0.42288 0.0
H450 H 0.9879 0.85071 0.46688 0.0
H451 H 0.88558 0.87386 0.44978 0.0
H452 H 0.96156 0.98441 0.46646 0.0
H453 H 0.93462 0.92853 0.4392 0.0
H454 H 0.98059 0.88401 0.521 0.0
H455 H 1.00717 0.93986 0.54855 0.0
C456 C 0.94447 0.81175 0.44156 0.0
C457 C 0.90782 0.80144 0.42896 0.0
C458 C 0.95968 0.84388 0.45743 0.0
C459 C 0.939 0.86706 0.46071 0.0
C460 C 0.90253 0.85693 0.44762 0.0
C461 C 0.88709 0.82456 0.43232 0.0
C462 C 0.96589 0.96275 0.47877 0.0
C463 C 0.98661 0.96692 0.50989 0.0
C464 C 0.95024 0.93057 0.46314 0.0
C465 C 0.95533 0.9015 0.47773 0.0
C466 C 0.97625 0.9057 0.50875 0.0
C467 C 0.99135 0.93782 0.52472 0.0
H468 H 0.29987 0.79057 0.72542 0.0
H469 H 0.28341 0.80513 0.61651 0.0
H470 H 0.34455 0.7606 0.70988 0.0
H471 H 0.32915 0.77615 0.60072 0.0
H472 H 0.39382 0.69917 0.58494 0.0
H473 H 0.34416 0.72374 0.59897 0.0
H474 H 0.40624 0.77619 0.68851 0.0
H475 H 0.45457 0.75006 0.67583 0.0
C476 C 0.30574 0.78707 0.69812 0.0
C477 C 0.28846 0.80012 0.67212 0.0
C478 C 0.33151 0.77022 0.68919 0.0
C479 C 0.3409 0.76652 0.65409 0.0
C480 C 0.32237 0.77838 0.62798 0.0
C481 C 0.29621 0.79493 0.63694 0.0
C482 C 0.39668 0.71572 0.60779 0.0
C483 C 0.4281 0.7225 0.62936 0.0
C484 C 0.36839 0.73006 0.61562 0.0
C485 C 0.37105 0.75164 0.64507 0.0
C486 C 0.40292 0.75909 0.66605 0.0
C487 C 0.43099 0.74457 0.65841 0.0
H488 H 0.75838 0.89337 0.85784 0.0
H489 H 0.73895 0.80533 0.78975 0.0
H490 H 0.80023 0.92666 0.81503 0.0
H491 H 0.77932 0.83872 0.74591 0.0
H492 H 0.89802 0.8914 0.71009 0.0
H493 H 0.84399 0.86033 0.74248 0.0
H494 H 0.81362 0.95211 0.76039 0.0
H495 H 0.86867 0.98328 0.72891 0.0
C496 C 0.76201 0.88156 0.83304 0.0
C497 C 0.74579 0.84692 0.82698 0.0
C498 C 0.78597 0.90056 0.80842 0.0
C499 C 0.79375 0.88525 0.77718 0.0
C500 C 0.77479 0.85113 0.77005 0.0
C501 C 0.75134 0.83207 0.79488 0.0
C502 C 0.87947 0.90477 0.72055 0.0
C503 C 0.88764 0.93972 0.71734 0.0
C504 C 0.8483 0.88697 0.73895 0.0
C505 C 0.82433 0.90369 0.75419 0.0
C506 C 0.83177 0.93851 0.74958 0.0
C507 C 0.86322 0.95637 0.73152 0.0
H508 H 0.75125 0.24691 0.40786 0.0
H509 H 0.85208 0.24729 0.35453 0.0
H510 H 0.71608 0.2261 0.35427 0.0
H511 H 0.81727 0.22717 0.30094 0.0
H512 H 0.74105 0.14505 0.23251 0.0
H513 H 0.77518 0.17303 0.28373 0.0
H514 H 0.70372 0.23707 0.29333 0.0
H515 H 0.66839 0.20795 0.24243 0.0
C516 C 0.76593 0.24331 0.38443 0.0
C517 C 0.80426 0.24825 0.38534 0.0
C518 C 0.74584 0.23142 0.35378 0.0
C519 C 0.76384 0.22443 0.32355 0.0
C520 C 0.80249 0.23149 0.32403 0.0
C521 C 0.82245 0.24315 0.35462 0.0
C522 C 0.73229 0.16482 0.24571 0.0
C523 C 0.70187 0.17413 0.23351 0.0
C524 C 0.75223 0.18125 0.2748 0.0
C525 C 0.74242 0.20754 0.29239 0.0
C526 C 0.71189 0.21685 0.28036 0.0
C527 C 0.69187 0.20037 0.2511 0.0
H528 H 0.45575 0.67444 0.30363 0.0
H529 H 0.386 0.70972 0.37479 0.0
H530 H 0.47514 0.64506 0.35082 0.0
H531 H 0.40448 0.67974 0.42219 0.0
H532 H 0.47608 0.65355 0.50838 0.0
H533 H 0.45257 0.67995 0.46116 0.0
H534 H 0.46233 0.60075 0.38956 0.0
H535 H 0.4866 0.57506 0.43644 0.0
C536 C 0.44371 0.67512 0.32923 0.0
C537 C 0.41866 0.6939 0.3351 0.0
C538 C 0.45491 0.65823 0.35658 0.0
C539 C 0.44169 0.65969 0.39101 0.0
C540 C 0.41595 0.67809 0.39652 0.0
C541 C 0.40477 0.69496 0.36909 0.0
C542 C 0.47312 0.64166 0.48259 0.0
C543 C 0.48353 0.61201 0.47662 0.0
C544 C 0.45931 0.65679 0.45528 0.0
C545 C 0.45534 0.64288 0.42085 0.0
C546 C 0.46536 0.61293 0.41517 0.0
C547 C 0.47916 0.59789 0.4424 0.0
H548 H 0.13514 0.49259 0.79792 0.0
H549 H 0.17192 0.4367 0.87535 0.0
H550 H 0.11122 0.52262 0.8441 0.0
H551 H 0.1485 0.46675 0.92175 0.0
H552 H 0.0665 0.50124 0.99452 0.0
H553 H 0.09312 0.47224 0.94936 0.0
H554 H 0.12541 0.56334 0.89086 0.0
H555 H 0.09906 0.59192 0.93582 0.0
C556 C 0.1389 0.48728 0.82489 0.0
C557 C 0.15619 0.46271 0.83287 0.0
C558 C 0.12504 0.50446 0.85159 0.0
C559 C 0.1276 0.49736 0.88721 0.0
C560 C 0.14537 0.4729 0.89494 0.0
C561 C 0.15937 0.45591 0.86826 0.0
C562 C 0.07988 0.51522 0.97239 0.0
C563 C 0.08099 0.54922 0.96942 0.0
C564 C 0.09514 0.49853 0.94619 0.0
C565 C 0.11172 0.51517 0.91591 0.0
C566 C 0.11264 0.54919 0.91317 0.0
C567 C 0.09762 0.56578 0.93932 0.0
H568 H 0.57504 0.84295 0.94652 0.0
H569 H 0.67727 0.90557 0.90494 0.0
H570 H 0.55495 0.89274 0.95957 0.0
H571 H 0.65707 0.9558 0.91712 0.0
H572 H 0.63052 0.03245 0.99739 0.0
H573 H 0.64905 0.98685 0.96907 0.0
H574 H 0.53594 0.93869 0.93764 0.0
H575 H 0.51717 0.984 0.96687 0.0
C576 C 0.59278 0.86747 0.9395 0.0
C577 C 0.62752 0.87076 0.92482 0.0
C578 C 0.58126 0.896 0.94673 0.0
C579 C 0.60438 0.92838 0.93941 0.0
C580 C 0.63875 0.93132 0.92342 0.0
C581 C 0.65025 0.90268 0.91625 0.0
C582 C 0.60966 1.01251 0.98386 0.0
C583 C 0.57226 1.01164 0.98487 0.0
C584 C 0.62035 0.98636 0.96742 0.0
C585 C 0.59392 0.95879 0.95146 0.0
C586 C 0.5569 0.95918 0.95033 0.0
C587 C 0.54617 0.98529 0.96689 0.0
H588 H 0.93029 0.25389 0.49671 0.0
H589 H 0.84342 0.17154 0.45079 0.0
H590 H 0.95765 0.21345 0.52197 0.0
H591 H 0.8715 0.13139 0.4752 0.0
H592 H 0.95702 0.07433 0.50061 0.0
H593 H 0.93137 0.11417 0.47152 0.0
H594 H 0.93442 0.16967 0.56914 0.0
H595 H 0.95993 0.12986 0.59819 0.0
C596 C 0.91721 0.22723 0.49179 0.0
C597 C 0.88459 0.21594 0.47191 0.0
C598 C 0.93287 0.20417 0.50621 0.0
C599 C 0.91642 0.16943 0.50068 0.0
C600 C 0.88479 0.1581 0.4796 0.0
C601 C 0.86889 0.18113 0.46548 0.0
C602 C 0.95186 0.09491 0.51581 0.0
C603 C 0.96031 0.09916 0.55154 0.0
C604 C 0.93728 0.11762 0.49922 0.0
C605 C 0.93132 0.14504 0.51811 0.0
C606 C 0.9393 0.14895 0.55396 0.0
C607 C 0.9535 0.12605 0.57061 0.0
H608 H 0.28815 0.69269 0.2436 0.0
H609 H 0.33057 0.72935 0.14301 0.0
H610 H 0.23035 0.65917 0.21558 0.0
H611 H 0.27275 0.69719 0.11568 0.0
H612 H 0.14936 0.66868 0.08502 0.0
H613 H 0.20738 0.69868 0.11425 0.0
H614 H 0.2025 0.61034 0.17252 0.0
H615 H 0.14448 0.58007 0.14296 0.0
C616 C 0.28551 0.69355 0.21558 0.0
C617 C 0.31438 0.71461 0.19599 0.0
C618 C 0.25213 0.67434 0.19946 0.0
C619 C 0.24633 0.67579 0.16328 0.0
C620 C 0.27557 0.69593 0.14364 0.0
C621 C 0.30895 0.71464 0.15956 0.0
C622 C 0.16052 0.6555 0.10402 0.0
C623 C 0.1419 0.6217 0.1113 0.0
C624 C 0.19407 0.67275 0.12076 0.0
C625 C 0.21002 0.65708 0.14587 0.0
C626 C 0.19116 0.62343 0.15358 0.0
C627 C 0.15787 0.60595 0.13636 0.0
H628 H 0.29228 0.46588 0.73709 0.0
H629 H 0.24189 0.43236 0.63671 0.0
H630 H 0.34837 0.4991 0.70806 0.0
H631 H 0.29798 0.46293 0.60798 0.0
H632 H 0.39423 0.53378 0.55655 0.0
H633 H 0.3376 0.51081 0.5891 0.0
H634 H 0.40188 0.49932 0.67816 0.0
H635 H 0.45867 0.52452 0.64579 0.0
C636 C 0.29292 0.4657 0.70886 0.0
C637 C 0.26223 0.44585 0.68953 0.0
C638 C 0.32554 0.48444 0.69202 0.0
C639 C 0.32868 0.48396 0.65521 0.0
C640 C 0.29736 0.46487 0.63613 0.0
C641 C 0.26489 0.44661 0.65286 0.0
C642 C 0.39628 0.52675 0.58326 0.0
C643 C 0.43116 0.53098 0.59836 0.0
C644 C 0.36355 0.51304 0.60204 0.0
C645 C 0.36427 0.50212 0.63653 0.0
C646 C 0.39946 0.50741 0.65198 0.0
C647 C 0.43233 0.52184 0.63329 0.0
H648 H 0.76741 0.74223 0.86062 0.0
H649 H 0.74902 0.77582 0.96505 0.0
H650 H 0.81283 0.71697 0.88302 0.0
H651 H 0.79282 0.74888 0.98771 0.0
H652 H 0.90902 0.74284 1.0083 0.0
H653 H 0.85845 0.76164 0.9868 0.0
H654 H 0.82557 0.67428 0.91693 0.0
H655 H 0.87767 0.65641 0.93709 0.0
C656 C 0.77257 0.7437 0.88845 0.0
C657 C 0.75492 0.76148 0.91096 0.0
C658 C 0.79838 0.72891 0.90136 0.0
C659 C 0.80695 0.73132 0.93714 0.0
C660 C 0.78751 0.7472 0.9599 0.0
C661 C 0.76189 0.76219 0.94696 0.0
C662 C 0.89139 0.72784 0.98798 0.0
C663 C 0.89766 0.69821 0.97428 0.0
C664 C 0.86189 0.73832 0.97608 0.0
C665 C 0.83763 0.71932 0.95035 0.0
C666 C 0.84381 0.68963 0.93664 0.0
C667 C 0.87351 0.67922 0.94844 0.0
H668 H 0.36413 0.83616 0.18154 0.0
H669 H 0.47197 0.82752 0.20645 0.0
H670 H 0.39298 0.8894 0.15344 0.0
H671 H 0.50062 0.88133 0.1801 0.0
H672 H 0.5458 0.96048 0.0997 0.0
H673 H 0.51473 0.90771 0.12697 0.0
H674 H 0.42615 0.94788 0.15911 0.0
H675 H 0.45732 1.0009 0.1306 0.0
C676 C 0.39399 0.84543 0.18113 0.0
C677 C 0.4154 0.82682 0.19644 0.0
C678 C 0.41067 0.87648 0.16528 0.0
C679 C 0.44946 0.89021 0.164 0.0
C680 C 0.47077 0.87178 0.17972 0.0
C681 C 0.45415 0.8408 0.19548 0.0
C682 C 0.51966 0.95819 0.11254 0.0
C683 C 0.50433 0.98529 0.11297 0.0
C684 C 0.5018 0.92775 0.12859 0.0
C685 C 0.46781 0.92303 0.14599 0.0
C686 C 0.45207 0.95005 0.14594 0.0
C687 C 0.47004 0.98068 0.12967 0.0
H688 H 0.21896 0.3278 0.66366 0.0
H689 H 0.11211 0.32114 0.70876 0.0
H690 H 0.19305 0.27275 0.63513 0.0
H691 H 0.08745 0.265 0.68211 0.0
H692 H 0.07468 0.14908 0.65962 0.0
H693 H 0.10019 0.20525 0.68697 0.0
H694 H 0.14059 0.24501 0.58714 0.0
H695 H 0.11398 0.189 0.55947 0.0
C696 C 0.18996 0.3151 0.66754 0.0
C697 C 0.16799 0.32997 0.68887 0.0
C698 C 0.17517 0.28311 0.65122 0.0
C699 C 0.13814 0.26426 0.65628 0.0
C700 C 0.1162 0.27861 0.67784 0.0
C701 C 0.13066 0.31097 0.69347 0.0
C702 C 0.08906 0.16974 0.64343 0.0
C703 C 0.09226 0.16429 0.60725 0.0
C704 C 0.10352 0.20204 0.65914 0.0
C705 C 0.12252 0.22979 0.63934 0.0
C706 C 0.1263 0.22426 0.60325 0.0
C707 C 0.11094 0.19211 0.58736 0.0
H708 H 0.79563 0.3733 0.54016 0.0
H709 H 0.74089 0.29326 0.46735 0.0
H710 H 0.73961 0.39111 0.54447 0.0
H711 H 0.68433 0.31056 0.47186 0.0
H712 H 0.61547 0.38639 0.45573 0.0
H713 H 0.66433 0.359 0.4543 0.0
H714 H 0.67611 0.3724 0.56624 0.0
H715 H 0.62737 0.40001 0.56759 0.0
C716 C 0.77138 0.35953 0.52525 0.0
C717 C 0.77214 0.33227 0.50329 0.0
C718 C 0.73928 0.36941 0.52792 0.0
C719 C 0.70753 0.35207 0.50863 0.0
C720 C 0.70846 0.32449 0.48681 0.0
C721 C 0.74063 0.31461 0.48423 0.0
C722 C 0.62787 0.3827 0.4801 0.0
C723 C 0.61801 0.39563 0.51172 0.0
C724 C 0.65585 0.36705 0.47929 0.0
C725 C 0.67437 0.36404 0.51011 0.0
C726 C 0.66284 0.37506 0.542 0.0
C727 C 0.63493 0.39074 0.54279 0.0
loop_
_geom_bond_atom_site_label_1
_geom_bond_atom_site_label_2
_geom_bond_distance
_geom_bond_site_symmetry_2
_ccdc_geom_bond_type
H0 C3 0.929 . S
H1 C6 0.929 . S
H2 C8 0.930 . S
C3 H0 0.929 . S
C3 C4 1.398 . S
C3 C5 1.396 . S
C4 C3 1.398 . S
C4 C8 1.407 . S
C5 C3 1.396 . S
C5 C6 1.394 . S
C6 H1 0.929 . S
C6 C5 1.394 . S
C6 C7 1.382 . S
C7 C6 1.382 . S
C7 C8 1.392 . S
C7 N9 1.420 . S
C8 H2 0.930 . S
C8 C4 1.407 . S
C8 C7 1.392 . S
N9 C7 1.420 . S
N9 C10 1.244 . S
C10 N9 1.244 . S
H11 C14 0.929 . S
H12 C17 0.929 . S
H13 C19 0.930 . S
C14 H11 0.929 . S
C14 C15 1.398 . S
C14 C16 1.396 . S
C15 C14 1.398 . S
C15 C19 1.407 . S
C16 C14 1.396 . S
C16 C17 1.394 . S
C17 H12 0.929 . S
C17 C16 1.394 . S
C17 C18 1.382 . S
C18 C17 1.382 . S
C18 C19 1.392 . S
C18 N20 1.420 . S
C19 H13 0.930 . S
C19 C15 1.407 . S
C19 C18 1.392 . S
N20 C18 1.420 . S
N20 C21 1.244 . S
C21 N20 1.244 . S
H22 C25 0.929 . S
H23 C28 0.929 . S
H24 C30 0.930 . S
C25 H22 0.929 . S
C25 C26 1.398 . S
C25 C27 1.396 . S
C26 C25 1.398 . S
C26 C30 1.407 . S
C27 C25 1.396 . S
C27 C28 1.394 . S
C28 H23 0.929 . S
C28 C27 1.394 . S
C28 C29 1.382 . S
C29 C28 1.382 . S
C29 C30 1.392 . S
C29 N31 1.420 . S
C30 H24 0.930 . S
C30 C26 1.407 . S
C30 C29 1.392 . S
N31 C29 1.420 . S
N31 C32 1.244 . S
C32 N31 1.244 . S
H33 C36 0.929 . S
H34 C39 0.929 . S
H35 C41 0.930 . S
C36 H33 0.929 . S
C36 C37 1.398 . S
C36 C38 1.396 . S
C37 C36 1.398 . S
C37 C41 1.407 . S
C38 C36 1.396 . S
C38 C39 1.394 . S
C39 H34 0.929 . S
C39 C38 1.394 . S
C39 C40 1.382 . S
C40 C39 1.382 . S
C40 C41 1.392 . S
C40 N42 1.420 . S
C41 H35 0.930 . S
C41 C37 1.407 . S
C41 C40 1.392 . S
N42 C40 1.420 . S
N42 C43 1.244 . S
C43 N42 1.244 . S
H44 C47 0.929 . S
H45 C50 0.929 . S
H46 C52 0.930 . S
C47 H44 0.929 . S
C47 C48 1.398 . S
C47 C49 1.396 . S
C48 C47 1.398 . S
C48 C52 1.407 . S
C49 C47 1.396 . S
C49 C50 1.394 . S
C50 H45 0.929 . S
C50 C49 1.394 . S
C50 C51 1.382 . S
C51 C50 1.382 . S
C51 C52 1.392 . S
C51 N53 1.420 . S
C52 H46 0.930 . S
C52 C48 1.407 . S
C52 C51 1.392 . S
N53 C51 1.420 . S
N53 C54 1.244 . S
C54 N53 1.244 . S
H55 C58 0.929 . S
H56 C61 0.929 . S
H57 C63 0.930 . S
C58 H55 0.929 . S
C58 C59 1.398 . S
C58 C60 1.396 . S
C59 C58 1.398 . S
C59 C63 1.407 . S
C60 C58 1.396 . S
C60 C61 1.394 . S
C61 H56 0.929 . S
C61 C60 1.394 . S
C61 C62 1.382 . S
C62 C61 1.382 . S
C62 C63 1.392 . S
C62 N64 1.420 . S
C63 H57 0.930 . S
C63 C59 1.407 . S
C63 C62 1.392 . S
N64 C62 1.420 . S
N64 C65 1.244 . S
C65 N64 1.244 . S
H66 C69 0.929 . S
H67 C72 0.929 . S
H68 C74 0.930 . S
C69 H66 0.929 . S
C69 C70 1.398 . S
C69 C71 1.396 . S
C70 C69 1.398 . S
C70 C74 1.407 . S
C71 C69 1.396 . S
C71 C72 1.394 . S
C72 H67 0.929 . S
C72 C71 1.394 . S
C72 C73 1.382 . S
C73 C72 1.382 . S
C73 C74 1.392 . S
C73 N75 1.420 . S
C74 H68 0.930 . S
C74 C70 1.407 . S
C74 C73 1.392 . S
N75 C73 1.420 . S
N75 C76 1.244 . S
C76 N75 1.244 . S
H77 C80 0.929 . S
H78 C83 0.929 . S
H79 C85 0.930 . S
C80 H77 0.929 . S
C80 C81 1.398 . S
C80 C82 1.396 . S
C81 C80 1.398 . S
C81 C85 1.407 . S
C82 C80 1.396 . S
C82 C83 1.394 . S
C83 H78 0.929 . S
C83 C82 1.394 . S
C83 C84 1.382 . S
C84 C83 1.382 . S
C84 C85 1.392 . S
C84 N86 1.420 . S
C85 H79 0.930 . S
C85 C81 1.407 . S
C85 C84 1.392 . S
N86 C84 1.420 . S
N86 C87 1.244 . S
C87 N86 1.244 . S
Gd88 C91 2.818 . S
Gd88 O108 2.377 . S
Gd88 O110 2.448 . S
Gd88 O111 2.506 . S
Gd88 O112 2.435 . S
Gd88 O113 2.717 . S
Gd88 O115 2.395 1_545 S
Gd88 O119 2.327 1_455 S
Gd89 C100 2.818 1_545 S
Gd89 O109 2.395 1_655 S
Gd89 O113 2.327 1_655 S
Gd89 O114 2.377 1_545 S
Gd89 O116 2.448 1_545 S
Gd89 O117 2.506 1_545 S
Gd89 O118 2.435 . S
Gd89 O119 2.717 . S
C90 O108 1.240 . S
C90 O109 1.240 . S
C91 Gd88 2.818 . S
C91 C92 1.510 . S
C91 O110 1.249 . S
C91 O111 1.252 . S
C92 C91 1.510 . S
C92 C93 1.404 . S
C92 C94 1.352 . S
C93 C92 1.404 . S
C93 C97 1.389 . S
C93 H120 0.930 . S
C94 C92 1.352 . S
C94 C96 1.374 . S
C94 H121 0.931 . S
C95 C96 1.359 . S
C95 C97 1.364 . S
C96 C94 1.374 . S
C96 C95 1.359 . S
C96 H122 0.931 . S
C97 C93 1.389 . S
C97 C95 1.364 . S
C97 H123 0.931 . S
C98 O112 1.256 1_565 S
C98 O113 1.257 1_565 S
C99 O114 1.240 . S
C99 O115 1.240 1_655 S
C100 Gd89 2.818 1_565 S
C100 C101 1.510 . S
C100 O116 1.249 . S
C100 O117 1.252 . S
C101 C100 1.510 . S
C101 C102 1.404 . S
C101 C103 1.352 . S
C102 C101 1.404 . S
C102 C106 1.389 . S
C102 H124 0.930 . S
C103 C101 1.352 . S
C103 C105 1.374 . S
C103 H125 0.931 . S
C104 C105 1.359 . S
C104 C106 1.364 . S
C105 C103 1.374 . S
C105 C104 1.359 . S
C105 H126 0.931 . S
C106 C102 1.389 . S
C106 C104 1.364 . S
C106 H127 0.931 . S
C107 O118 1.256 . S
C107 O119 1.257 . S
O108 Gd88 2.377 . S
O108 C90 1.240 . S
O109 Gd89 2.395 1_455 S
O109 C90 1.240 . S
O110 Gd88 2.448 . S
O110 C91 1.249 . S
O111 Gd88 2.506 . S
O111 C91 1.252 . S
O112 Gd88 2.435 . S
O112 C98 1.256 1_545 S
O113 Gd88 2.717 . S
O113 Gd89 2.327 1_455 S
O113 C98 1.257 1_545 S
O114 Gd89 2.377 1_565 S
O114 C99 1.240 . S
O115 Gd88 2.395 1_565 S
O115 C99 1.240 1_455 S
O116 Gd89 2.448 1_565 S
O116 C100 1.249 . S
O117 Gd89 2.506 1_565 S
O117 C100 1.252 . S
O118 Gd89 2.435 . S
O118 C107 1.256 . S
O119 Gd88 2.327 1_655 S
O119 Gd89 2.717 . S
O119 C107 1.257 . S
H120 C93 0.930 . S
H121 C94 0.931 . S
H122 C96 0.931 . S
H123 C97 0.931 . S
H124 C102 0.930 . S
H125 C103 0.931 . S
H126 C105 0.931 . S
H127 C106 0.931 . S
Gd128 C131 2.818 . S
Gd128 O148 2.377 . S
Gd128 O150 2.448 . S
Gd128 O151 2.506 . S
Gd128 O152 2.435 1_545 S
Gd128 O153 2.717 1_545 S
Gd128 O155 2.395 1_545 S
Gd128 O159 2.327 . S
Gd129 C140 2.818 1_544 S
Gd129 O149 2.395 . S
Gd129 O153 2.327 1_545 S
Gd129 O154 2.377 1_554 S
Gd129 O156 2.448 1_554 S
Gd129 O157 2.506 1_544 S
Gd129 O158 2.435 1_554 S
Gd129 O159 2.717 . S
C130 O148 1.240 . S
C130 O149 1.240 . S
C131 Gd128 2.818 . S
C131 C132 1.510 . S
C131 O150 1.249 . S
C131 O151 1.252 . S
C132 C131 1.510 . S
C132 C133 1.404 . S
C132 C134 1.352 . S
C133 C132 1.404 . S
C133 C137 1.389 . S
C133 H160 0.930 . S
C134 C132 1.352 . S
C134 C136 1.374 . S
C134 H161 0.931 . S
C135 C136 1.359 . S
C135 C137 1.364 . S
C136 C134 1.374 . S
C136 C135 1.359 . S
C136 H162 0.931 . S
C137 C133 1.389 . S
C137 C135 1.364 . S
C137 H163 0.931 . S
C138 O152 1.256 . S
C138 O153 1.257 . S
C139 O154 1.240 1_564 S
C139 O155 1.240 . S
C140 Gd129 2.818 1_566 S
C140 C141 1.510 . S
C140 O156 1.249 1_565 S
C140 O157 1.252 . S
C141 C140 1.510 . S
C141 C142 1.404 . S
C141 C143 1.352 . S
C142 C141 1.404 . S
C142 C146 1.389 . S
C142 H164 0.930 . S
C143 C141 1.352 . S
C143 C145 1.374 . S
C143 H165 0.931 . S
C144 C145 1.359 . S
C144 C146 1.364 . S
C145 C143 1.374 . S
C145 C144 1.359 . S
C145 H166 0.931 . S
C146 C142 1.389 . S
C146 C144 1.364 . S
C146 H167 0.931 . S
C147 O158 1.256 1_554 S
C147 O159 1.257 . S
O148 Gd128 2.377 . S
O148 C130 1.240 . S
O149 Gd129 2.395 . S
O149 C130 1.240 . S
O150 Gd128 2.448 . S
O150 C131 1.249 . S
O151 Gd128 2.506 . S
O151 C131 1.252 . S
O152 Gd128 2.435 1_565 S
O152 C138 1.256 . S
O153 Gd128 2.717 1_565 S
O153 Gd129 2.327 1_565 S
O153 C138 1.257 . S
O154 Gd129 2.377 1_556 S
O154 C139 1.240 1_546 S
O155 Gd128 2.395 1_565 S
O155 C139 1.240 . S
O156 Gd129 2.448 1_556 S
O156 C140 1.249 1_545 S
O157 Gd129 2.506 1_566 S
O157 C140 1.252 . S
O158 Gd129 2.435 1_556 S
O158 C147 1.256 1_556 S
O159 Gd128 2.327 . S
O159 Gd129 2.717 . S
O159 C147 1.257 . S
H160 C133 0.930 . S
H161 C134 0.931 . S
H162 C136 0.931 . S
H163 C137 0.931 . S
H164 C142 0.930 . S
H165 C143 0.931 . S
H166 C145 0.931 . S
H167 C146 0.931 . S
Gd168 C171 2.818 . S
Gd168 O188 2.377 . S
Gd168 O190 2.448 . S
Gd168 O191 2.506 . S
Gd168 O192 2.435 . S
Gd168 O193 2.717 . S
Gd168 O195 2.395 . S
Gd168 O199 2.327 . S
Gd169 C180 2.818 . S
Gd169 O189 2.395 . S
Gd169 O193 2.327 . S
Gd169 O194 2.377 . S
Gd169 O196 2.448 . S
Gd169 O197 2.506 . S
Gd169 O198 2.435 . S
Gd169 O199 2.717 . S
C170 O188 1.240 . S
C170 O189 1.240 . S
C171 Gd168 2.818 . S
C171 C172 1.510 . S
C171 O190 1.249 . S
C171 O191 1.252 . S
C172 C171 1.510 . S
C172 C173 1.404 . S
C172 C174 1.352 . S
C173 C172 1.404 . S
C173 C177 1.389 . S
C173 H200 0.930 . S
C174 C172 1.352 . S
C174 C176 1.374 . S
C174 H201 0.931 . S
C175 C176 1.359 . S
C175 C177 1.364 . S
C176 C174 1.374 . S
C176 C175 1.359 . S
C176 H202 0.931 . S
C177 C173 1.389 . S
C177 C175 1.364 . S
C177 H203 0.931 . S
C178 O192 1.256 . S
C178 O193 1.257 . S
C179 O194 1.240 . S
C179 O195 1.240 . S
C180 Gd169 2.818 . S
C180 C181 1.510 . S
C180 O196 1.249 . S
C180 O197 1.252 . S
C181 C180 1.510 . S
C181 C182 1.404 . S
C181 C183 1.352 . S
C182 C181 1.404 . S
C182 C186 1.389 . S
C182 H204 0.930 . S
C183 C181 1.352 . S
C183 C185 1.374 . S
C183 H205 0.931 . S
C184 C185 1.359 . S
C184 C186 1.364 . S
C185 C183 1.374 . S
C185 C184 1.359 . S
C185 H206 0.931 . S
C186 C182 1.389 . S
C186 C184 1.364 . S
C186 H207 0.931 . S
C187 O198 1.256 . S
C187 O199 1.257 . S
O188 Gd168 2.377 . S
O188 C170 1.240 . S
O189 Gd169 2.395 . S
O189 C170 1.240 . S
O190 Gd168 2.448 . S
O190 C171 1.249 . S
O191 Gd168 2.506 . S
O191 C171 1.252 . S
O192 Gd168 2.435 . S
O192 C178 1.256 . S
O193 Gd168 2.717 . S
O193 Gd169 2.327 . S
O193 C178 1.257 . S
O194 Gd169 2.377 . S
O194 C179 1.240 . S
O195 Gd168 2.395 . S
O195 C179 1.240 . S
O196 Gd169 2.448 . S
O196 C180 1.249 . S
O197 Gd169 2.506 . S
O197 C180 1.252 . S
O198 Gd169 2.435 . S
O198 C187 1.256 . S
O199 Gd168 2.327 . S
O199 Gd169 2.717 . S
O199 C187 1.257 . S
H200 C173 0.930 . S
H201 C174 0.931 . S
H202 C176 0.931 . S
H203 C177 0.931 . S
H204 C182 0.930 . S
H205 C183 0.931 . S
H206 C185 0.931 . S
H207 C186 0.931 . S
Gd208 C211 2.818 . S
Gd208 O228 2.377 . S
Gd208 O230 2.448 . S
Gd208 O231 2.506 . S
Gd208 O232 2.435 . S
Gd208 O233 2.717 . S
Gd208 O235 2.395 1_455 S
Gd208 O239 2.327 1_554 S
Gd209 C220 2.818 1_455 S
Gd209 O229 2.395 1_556 S
Gd209 O233 2.327 1_556 S
Gd209 O234 2.377 1_455 S
Gd209 O236 2.448 . S
Gd209 O237 2.506 1_455 S
Gd209 O238 2.435 . S
Gd209 O239 2.717 . S
C210 O228 1.240 . S
C210 O229 1.240 . S
C211 Gd208 2.818 . S
C211 C212 1.510 . S
C211 O230 1.249 . S
C211 O231 1.252 . S
C212 C211 1.510 . S
C212 C213 1.404 . S
C212 C214 1.352 . S
C213 C212 1.404 . S
C213 C217 1.389 . S
C213 H240 0.930 . S
C214 C212 1.352 . S
C214 C216 1.374 . S
C214 H241 0.931 . S
C215 C216 1.359 . S
C215 C217 1.364 . S
C216 C214 1.374 . S
C216 C215 1.359 . S
C216 H242 0.931 . S
C217 C213 1.389 . S
C217 C215 1.364 . S
C217 H243 0.931 . S
C218 O232 1.268 . S
C218 O233 1.264 . S
C219 O234 1.240 . S
C219 O235 1.240 1_556 S
C220 Gd209 2.818 1_655 S
C220 C221 1.510 . S
C220 O236 1.249 1_655 S
C220 O237 1.252 . S
C221 C220 1.510 . S
C221 C222 1.404 . S
C221 C223 1.352 . S
C222 C221 1.404 . S
C222 C226 1.389 . S
C222 H244 0.930 . S
C223 C221 1.352 . S
C223 C225 1.374 . S
C223 H245 0.931 . S
C224 C225 1.359 . S
C224 C226 1.364 . S
C225 C223 1.374 . S
C225 C224 1.359 . S
C225 H246 0.931 . S
C226 C222 1.389 . S
C226 C224 1.364 . S
C226 H247 0.931 . S
C227 O238 1.256 . S
C227 O239 1.257 . S
O228 Gd208 2.377 . S
O228 C210 1.240 . S
O229 Gd209 2.395 1_554 S
O229 C210 1.240 . S
O230 Gd208 2.448 . S
O230 C211 1.249 . S
O231 Gd208 2.506 . S
O231 C211 1.252 . S
O232 Gd208 2.435 . S
O232 C218 1.268 . S
O233 Gd208 2.717 . S
O233 Gd209 2.327 1_554 S
O233 C218 1.264 . S
O234 Gd209 2.377 1_655 S
O234 C219 1.240 . S
O235 Gd208 2.395 1_655 S
O235 C219 1.240 1_554 S
O236 Gd209 2.448 . S
O236 C220 1.249 1_455 S
O237 Gd209 2.506 1_655 S
O237 C220 1.252 . S
O238 Gd209 2.435 . S
O238 C227 1.256 . S
O239 Gd208 2.327 1_556 S
O239 Gd209 2.717 . S
O239 C227 1.257 . S
H240 C213 0.930 . S
H241 C214 0.931 . S
H242 C216 0.931 . S
H243 C217 0.931 . S
H244 C222 0.930 . S
H245 C223 0.931 . S
H246 C225 0.931 . S
H247 C226 0.931 . S
H248 C256 0.950 . S
H249 C261 0.950 . S
H250 C258 0.950 . S
H251 C260 0.950 . S
H252 C262 0.950 . S
H253 C264 0.950 . S
H254 C266 0.950 . S
H255 C267 0.950 . S
C256 H248 0.950 . S
C256 C257 1.386 . S
C256 C258 1.391 . S
C257 C256 1.386 . S
C257 C261 1.393 . S
C258 H250 0.950 . S
C258 C256 1.391 . S
C258 C259 1.400 . S
C259 C258 1.400 . S
C259 C260 1.398 . S
C259 C265 1.491 . S
C260 H251 0.950 . S
C260 C259 1.398 . S
C260 C261 1.391 . S
C261 H249 0.950 . S
C261 C257 1.393 . S
C261 C260 1.391 . S
C262 H252 0.950 . S
C262 C263 1.386 . S
C262 C264 1.391 . S
C263 C262 1.386 . S
C263 C267 1.393 . S
C264 H253 0.950 . S
C264 C262 1.391 . S
C264 C265 1.400 . S
C265 C259 1.491 . S
C265 C264 1.400 . S
C265 C266 1.398 . S
C266 H254 0.950 . S
C266 C265 1.398 . S
C266 C267 1.391 . S
C267 H255 0.950 . S
C267 C263 1.393 . S
C267 C266 1.391 . S
H268 C276 0.950 . S
H269 C281 0.950 . S
H270 C278 0.950 . S
H271 C280 0.950 . S
H272 C282 0.950 . S
H273 C284 0.950 . S
H274 C286 0.950 . S
H275 C287 0.950 . S
C276 H268 0.950 . S
C276 C277 1.386 . S
C276 C278 1.391 . S
C277 C276 1.386 . S
C277 C281 1.393 . S
C278 H270 0.950 . S
C278 C276 1.391 . S
C278 C279 1.400 . S
C279 C278 1.400 . S
C279 C280 1.398 . S
C279 C285 1.491 . S
C280 H271 0.950 . S
C280 C279 1.398 . S
C280 C281 1.391 . S
C281 H269 0.950 . S
C281 C277 1.393 . S
C281 C280 1.391 . S
C282 H272 0.950 . S
C282 C283 1.386 . S
C282 C284 1.391 . S
C283 C282 1.386 . S
C283 C287 1.393 . S
C284 H273 0.950 . S
C284 C282 1.391 . S
C284 C285 1.400 . S
C285 C279 1.491 . S
C285 C284 1.400 . S
C285 C286 1.398 . S
C286 H274 0.950 . S
C286 C285 1.398 . S
C286 C287 1.391 . S
C287 H275 0.950 . S
C287 C283 1.393 . S
C287 C286 1.391 . S
H288 C296 0.950 . S
H289 C301 0.950 . S
H290 C298 0.950 . S
H291 C300 0.950 . S
H292 C302 0.950 . S
H293 C304 0.950 . S
H294 C306 0.950 . S
H295 C307 0.950 . S
C296 H288 0.950 . S
C296 C297 1.386 . S
C296 C298 1.391 . S
C297 C296 1.386 . S
C297 C301 1.393 . S
C298 H290 0.950 . S
C298 C296 1.391 . S
C298 C299 1.400 . S
C299 C298 1.400 . S
C299 C300 1.398 . S
C299 C305 1.491 . S
C300 H291 0.950 . S
C300 C299 1.398 . S
C300 C301 1.391 . S
C301 H289 0.950 . S
C301 C297 1.393 . S
C301 C300 1.391 . S
C302 H292 0.950 . S
C302 C303 1.386 . S
C302 C304 1.391 . S
C303 C302 1.386 . S
C303 C307 1.393 . S
C304 H293 0.950 . S
C304 C302 1.391 . S
C304 C305 1.400 . S
C305 C299 1.491 . S
C305 C304 1.400 . S
C305 C306 1.398 . S
C306 H294 0.950 . S
C306 C305 1.398 . S
C306 C307 1.391 . S
C307 H295 0.950 . S
C307 C303 1.393 . S
C307 C306 1.391 . S
H308 C316 0.950 . S
H309 C321 0.950 . S
H310 C318 0.950 . S
H311 C320 0.950 . S
H312 C322 0.950 . S
H313 C324 0.950 . S
H314 C326 0.950 . S
H315 C327 0.950 1_455 S
C316 H308 0.950 . S
C316 C317 1.386 . S
C316 C318 1.391 . S
C317 C316 1.386 . S
C317 C321 1.393 . S
C318 H310 0.950 . S
C318 C316 1.391 . S
C318 C319 1.400 . S
C319 C318 1.400 . S
C319 C320 1.398 . S
C319 C325 1.491 . S
C320 H311 0.950 . S
C320 C319 1.398 . S
C320 C321 1.391 . S
C321 H309 0.950 . S
C321 C317 1.393 . S
C321 C320 1.391 . S
C322 H312 0.950 . S
C322 C323 1.386 . S
C322 C324 1.391 . S
C323 C322 1.386 . S
C323 C327 1.393 . S
C324 H313 0.950 . S
C324 C322 1.391 . S
C324 C325 1.400 . S
C325 C319 1.491 . S
C325 C324 1.400 . S
C325 C326 1.398 . S
C326 H314 0.950 . S
C326 C325 1.398 . S
C326 C327 1.391 . S
C327 H315 0.950 1_655 S
C327 C323 1.393 . S
C327 C326 1.391 . S
H328 C336 0.950 . S
H329 C341 0.950 . S
H330 C338 0.950 . S
H331 C340 0.950 . S
H332 C342 0.950 . S
H333 C344 0.950 . S
H334 C346 0.950 . S
H335 C347 0.950 . S
C336 H328 0.950 . S
C336 C337 1.386 . S
C336 C338 1.391 . S
C337 C336 1.386 . S
C337 C341 1.393 . S
C338 H330 0.950 . S
C338 C336 1.391 . S
C338 C339 1.400 . S
C339 C338 1.400 . S
C339 C340 1.398 . S
C339 C345 1.491 . S
C340 H331 0.950 . S
C340 C339 1.398 . S
C340 C341 1.391 . S
C341 H329 0.950 . S
C341 C337 1.393 . S
C341 C340 1.391 . S
C342 H332 0.950 . S
C342 C343 1.386 . S
C342 C344 1.391 . S
C343 C342 1.386 . S
C343 C347 1.393 . S
C344 H333 0.950 . S
C344 C342 1.391 . S
C344 C345 1.400 . S
C345 C339 1.491 . S
C345 C344 1.400 . S
C345 C346 1.398 . S
C346 H334 0.950 . S
C346 C345 1.398 . S
C346 C347 1.391 . S
C347 H335 0.950 . S
C347 C343 1.393 . S
C347 C346 1.391 . S
H348 C356 0.950 . S
H349 C361 0.950 . S
H350 C358 0.950 . S
H351 C360 0.950 . S
H352 C362 0.950 . S
H353 C364 0.950 . S
H354 C366 0.950 . S
H355 C367 0.950 . S
C356 H348 0.950 . S
C356 C357 1.386 . S
C356 C358 1.391 . S
C357 C356 1.386 . S
C357 C361 1.393 . S
C358 H350 0.950 . S
C358 C356 1.391 . S
C358 C359 1.400 . S
C359 C358 1.400 . S
C359 C360 1.398 . S
C359 C365 1.491 . S
C360 H351 0.950 . S
C360 C359 1.398 . S
C360 C361 1.391 . S
C361 H349 0.950 . S
C361 C357 1.393 . S
C361 C360 1.391 . S
C362 H352 0.950 . S
C362 C363 1.386 . S
C362 C364 1.391 . S
C363 C362 1.386 . S
C363 C367 1.393 1_565 S
C364 H353 0.950 . S
C364 C362 1.391 . S
C364 C365 1.400 . S
C365 C359 1.491 . S
C365 C364 1.400 . S
C365 C366 1.398 . S
C366 H354 0.950 . S
C366 C365 1.398 . S
C366 C367 1.391 1_565 S
C367 H355 0.950 . S
C367 C363 1.393 1_545 S
C367 C366 1.391 1_545 S
H368 C376 0.950 . S
H369 C381 0.950 . S
H370 C378 0.950 . S
H371 C380 0.950 . S
H372 C382 0.950 1_554 S
H373 C384 0.950 . S
H374 C386 0.950 . S
H375 C387 0.950 . S
C376 H368 0.950 . S
C376 C377 1.386 . S
C376 C378 1.391 . S
C377 C376 1.386 . S
C377 C381 1.393 . S
C378 H370 0.950 . S
C378 C376 1.391 . S
C378 C379 1.400 . S
C379 C378 1.400 . S
C379 C380 1.398 . S
C379 C385 1.491 . S
C380 H371 0.950 . S
C380 C379 1.398 . S
C380 C381 1.391 . S
C381 H369 0.950 . S
C381 C377 1.393 . S
C381 C380 1.391 . S
C382 H372 0.950 1_556 S
C382 C383 1.386 . S
C382 C384 1.391 . S
C383 C382 1.386 . S
C383 C387 1.393 . S
C384 H373 0.950 . S
C384 C382 1.391 . S
C384 C385 1.400 . S
C385 C379 1.491 . S
C385 C384 1.400 . S
C385 C386 1.398 . S
C386 H374 0.950 . S
C386 C385 1.398 . S
C386 C387 1.391 . S
C387 H375 0.950 . S
C387 C383 1.393 . S
C387 C386 1.391 . S
H388 C396 0.950 . S
H389 C401 0.950 . S
H390 C398 0.950 . S
H391 C400 0.950 . S
H392 C402 0.950 . S
H393 C404 0.950 . S
H394 C406 0.950 . S
H395 C407 0.950 . S
C396 H388 0.950 . S
C396 C397 1.386 . S
C396 C398 1.391 . S
C397 C396 1.386 . S
C397 C401 1.393 . S
C398 H390 0.950 . S
C398 C396 1.391 . S
C398 C399 1.400 . S
C399 C398 1.400 . S
C399 C400 1.398 . S
C399 C405 1.491 . S
C400 H391 0.950 . S
C400 C399 1.398 . S
C400 C401 1.391 . S
C401 H389 0.950 . S
C401 C397 1.393 . S
C401 C400 1.391 . S
C402 H392 0.950 . S
C402 C403 1.386 . S
C402 C404 1.391 . S
C403 C402 1.386 . S
C403 C407 1.393 . S
C404 H393 0.950 . S
C404 C402 1.391 . S
C404 C405 1.400 . S
C405 C399 1.491 . S
C405 C404 1.400 . S
C405 C406 1.398 . S
C406 H394 0.950 . S
C406 C405 1.398 . S
C406 C407 1.391 . S
C407 H395 0.950 . S
C407 C403 1.393 . S
C407 C406 1.391 . S
H408 C416 0.950 . S
H409 C421 0.950 . S
H410 C418 0.950 . S
H411 C420 0.950 . S
H412 C422 0.950 . S
H413 C424 0.950 . S
H414 C426 0.950 . S
H415 C427 0.950 . S
C416 H408 0.950 . S
C416 C417 1.386 . S
C416 C418 1.391 . S
C417 C416 1.386 . S
C417 C421 1.393 . S
C418 H410 0.950 . S
C418 C416 1.391 . S
C418 C419 1.400 . S
C419 C418 1.400 . S
C419 C420 1.398 . S
C419 C425 1.491 . S
C420 H411 0.950 . S
C420 C419 1.398 . S
C420 C421 1.391 . S
C421 H409 0.950 . S
C421 C417 1.393 . S
C421 C420 1.391 . S
C422 H412 0.950 . S
C422 C423 1.386 . S
C422 C424 1.391 . S
C423 C422 1.386 . S
C423 C427 1.393 . S
C424 H413 0.950 . S
C424 C422 1.391 . S
C424 C425 1.400 . S
C425 C419 1.491 . S
C425 C424 1.400 . S
C425 C426 1.398 . S
C426 H414 0.950 . S
C426 C425 1.398 . S
C426 C427 1.391 . S
C427 H415 0.950 . S
C427 C423 1.393 . S
C427 C426 1.391 . S
H428 C436 0.950 . S
H429 C441 0.950 . S
H430 C438 0.950 . S
H431 C440 0.950 . S
H432 C442 0.948 . S
H433 C444 0.950 . S
H434 C446 0.950 . S
H435 C447 0.950 . S
C436 H428 0.950 . S
C436 C437 1.386 . S
C436 C438 1.391 . S
C437 C436 1.386 . S
C437 C441 1.393 . S
C438 H430 0.950 . S
C438 C436 1.391 . S
C438 C439 1.400 . S
C439 C438 1.400 . S
C439 C440 1.398 . S
C439 C445 1.491 . S
C440 H431 0.950 . S
C440 C439 1.398 . S
C440 C441 1.391 . S
C441 H429 0.950 . S
C441 C437 1.393 . S
C441 C440 1.391 . S
C442 H432 0.948 . S
C442 C443 1.386 . S
C442 C444 1.391 . S
C443 C442 1.386 . S
C443 C447 1.393 . S
C444 H433 0.950 . S
C444 C442 1.391 . S
C444 C445 1.400 . S
C445 C439 1.491 . S
C445 C444 1.400 . S
C445 C446 1.398 . S
C446 H434 0.950 . S
C446 C445 1.398 . S
C446 C447 1.391 . S
C447 H435 0.950 . S
C447 C443 1.393 . S
C447 C446 1.391 . S
H448 C456 0.950 . S
H449 C461 0.950 . S
H450 C458 0.950 . S
H451 C460 0.950 . S
H452 C462 0.950 . S
H453 C464 0.950 . S
H454 C466 0.950 . S
H455 C467 0.950 . S
C456 H448 0.950 . S
C456 C457 1.386 . S
C456 C458 1.391 . S
C457 C456 1.386 . S
C457 C461 1.393 . S
C458 H450 0.950 . S
C458 C456 1.391 . S
C458 C459 1.400 . S
C459 C458 1.400 . S
C459 C460 1.398 . S
C459 C465 1.491 . S
C460 H451 0.950 . S
C460 C459 1.398 . S
C460 C461 1.391 . S
C461 H449 0.950 . S
C461 C457 1.393 . S
C461 C460 1.391 . S
C462 H452 0.950 . S
C462 C463 1.386 . S
C462 C464 1.391 . S
C463 C462 1.386 . S
C463 C467 1.393 . S
C464 H453 0.950 . S
C464 C462 1.391 . S
C464 C465 1.400 . S
C465 C459 1.491 . S
C465 C464 1.400 . S
C465 C466 1.398 . S
C466 H454 0.950 . S
C466 C465 1.398 . S
C466 C467 1.391 . S
C467 H455 0.950 . S
C467 C463 1.393 . S
C467 C466 1.391 . S
H468 C476 0.950 . S
H469 C481 0.950 . S
H470 C478 0.950 . S
H471 C480 0.950 . S
H472 C482 0.950 . S
H473 C484 0.950 . S
H474 C486 0.950 . S
H475 C487 0.950 . S
C476 H468 0.950 . S
C476 C477 1.386 . S
C476 C478 1.391 . S
C477 C476 1.386 . S
C477 C481 1.393 . S
C478 H470 0.950 . S
C478 C476 1.391 . S
C478 C479 1.400 . S
C479 C478 1.400 . S
C479 C480 1.398 . S
C479 C485 1.491 . S
C480 H471 0.950 . S
C480 C479 1.398 . S
C480 C481 1.391 . S
C481 H469 0.950 . S
C481 C477 1.393 . S
C481 C480 1.391 . S
C482 H472 0.950 . S
C482 C483 1.386 . S
C482 C484 1.391 . S
C483 C482 1.386 . S
C483 C487 1.393 . S
C484 H473 0.950 . S
C484 C482 1.391 . S
C484 C485 1.400 . S
C485 C479 1.491 . S
C485 C484 1.400 . S
C485 C486 1.398 . S
C486 H474 0.950 . S
C486 C485 1.398 . S
C486 C487 1.391 . S
C487 H475 0.950 . S
C487 C483 1.393 . S
C487 C486 1.391 . S
H488 C496 0.950 . S
H489 C501 0.950 . S
H490 C498 0.950 . S
H491 C500 0.950 . S
H492 C502 0.950 . S
H493 C504 0.950 . S
H494 C506 0.950 . S
H495 C507 0.950 . S
C496 H488 0.950 . S
C496 C497 1.386 . S
C496 C498 1.391 . S
C497 C496 1.386 . S
C497 C501 1.393 . S
C498 H490 0.950 . S
C498 C496 1.391 . S
C498 C499 1.400 . S
C499 C498 1.400 . S
C499 C500 1.398 . S
C499 C505 1.491 . S
C500 H491 0.950 . S
C500 C499 1.398 . S
C500 C501 1.391 . S
C501 H489 0.950 . S
C501 C497 1.393 . S
C501 C500 1.391 . S
C502 H492 0.950 . S
C502 C503 1.386 . S
C502 C504 1.391 . S
C503 C502 1.386 . S
C503 C507 1.393 . S
C504 H493 0.950 . S
C504 C502 1.391 . S
C504 C505 1.400 . S
C505 C499 1.491 . S
C505 C504 1.400 . S
C505 C506 1.398 . S
C506 H494 0.950 . S
C506 C505 1.398 . S
C506 C507 1.391 . S
C507 H495 0.950 . S
C507 C503 1.393 . S
C507 C506 1.391 . S
H508 C516 0.950 . S
H509 C521 0.950 . S
H510 C518 0.950 . S
H511 C520 0.950 . S
H512 C522 0.950 . S
H513 C524 0.950 . S
H514 C526 0.950 . S
H515 C527 0.950 . S
C516 H508 0.950 . S
C516 C517 1.386 . S
C516 C518 1.391 . S
C517 C516 1.386 . S
C517 C521 1.393 . S
C518 H510 0.950 . S
C518 C516 1.391 . S
C518 C519 1.400 . S
C519 C518 1.400 . S
C519 C520 1.398 . S
C519 C525 1.491 . S
C520 H511 0.950 . S
C520 C519 1.398 . S
C520 C521 1.391 . S
C521 H509 0.950 . S
C521 C517 1.393 . S
C521 C520 1.391 . S
C522 H512 0.950 . S
C522 C523 1.386 . S
C522 C524 1.391 . S
C523 C522 1.386 . S
C523 C527 1.393 . S
C524 H513 0.950 . S
C524 C522 1.391 . S
C524 C525 1.400 . S
C525 C519 1.491 . S
C525 C524 1.400 . S
C525 C526 1.398 . S
C526 H514 0.950 . S
C526 C525 1.398 . S
C526 C527 1.391 . S
C527 H515 0.950 . S
C527 C523 1.393 . S
C527 C526 1.391 . S
H528 C536 0.950 . S
H529 C541 0.950 . S
H530 C538 0.950 . S
H531 C540 0.950 . S
H532 C542 0.950 . S
H533 C544 0.950 . S
H534 C546 0.950 . S
H535 C547 0.950 . S
C536 H528 0.950 . S
C536 C537 1.386 . S
C536 C538 1.391 . S
C537 C536 1.386 . S
C537 C541 1.393 . S
C538 H530 0.950 . S
C538 C536 1.391 . S
C538 C539 1.400 . S
C539 C538 1.400 . S
C539 C540 1.398 . S
C539 C545 1.491 . S
C540 H531 0.950 . S
C540 C539 1.398 . S
C540 C541 1.391 . S
C541 H529 0.950 . S
C541 C537 1.393 . S
C541 C540 1.391 . S
C542 H532 0.950 . S
C542 C543 1.386 . S
C542 C544 1.391 . S
C543 C542 1.386 . S
C543 C547 1.393 . S
C544 H533 0.950 . S
C544 C542 1.391 . S
C544 C545 1.400 . S
C545 C539 1.491 . S
C545 C544 1.400 . S
C545 C546 1.398 . S
C546 H534 0.950 . S
C546 C545 1.398 . S
C546 C547 1.391 . S
C547 H535 0.950 . S
C547 C543 1.393 . S
C547 C546 1.391 . S
H548 C556 0.950 . S
H549 C561 0.950 . S
H550 C558 0.950 . S
H551 C560 0.950 . S
H552 C562 0.950 . S
H553 C564 0.950 . S
H554 C566 0.950 . S
H555 C567 0.950 . S
C556 H548 0.950 . S
C556 C557 1.386 . S
C556 C558 1.391 . S
C557 C556 1.386 . S
C557 C561 1.393 . S
C558 H550 0.950 . S
C558 C556 1.391 . S
C558 C559 1.400 . S
C559 C558 1.400 . S
C559 C560 1.398 . S
C559 C565 1.491 . S
C560 H551 0.950 . S
C560 C559 1.398 . S
C560 C561 1.391 . S
C561 H549 0.950 . S
C561 C557 1.393 . S
C561 C560 1.391 . S
C562 H552 0.950 . S
C562 C563 1.386 . S
C562 C564 1.391 . S
C563 C562 1.386 . S
C563 C567 1.393 . S
C564 H553 0.950 . S
C564 C562 1.391 . S
C564 C565 1.400 . S
C565 C559 1.491 . S
C565 C564 1.400 . S
C565 C566 1.398 . S
C566 H554 0.950 . S
C566 C565 1.398 . S
C566 C567 1.391 . S
C567 H555 0.950 . S
C567 C563 1.393 . S
C567 C566 1.391 . S
H568 C576 0.950 . S
H569 C581 0.950 . S
H570 C578 0.950 . S
H571 C580 0.950 . S
H572 C582 0.950 . S
H573 C584 0.950 . S
H574 C586 0.950 . S
H575 C587 0.950 . S
C576 H568 0.950 . S
C576 C577 1.386 . S
C576 C578 1.391 . S
C577 C576 1.386 . S
C577 C581 1.393 . S
C578 H570 0.950 . S
C578 C576 1.391 . S
C578 C579 1.400 . S
C579 C578 1.400 . S
C579 C580 1.398 . S
C579 C585 1.491 . S
C580 H571 0.950 . S
C580 C579 1.398 . S
C580 C581 1.391 . S
C581 H569 0.950 . S
C581 C577 1.393 . S
C581 C580 1.391 . S
C582 H572 0.950 . S
C582 C583 1.386 . S
C582 C584 1.391 . S
C583 C582 1.386 . S
C583 C587 1.393 . S
C584 H573 0.950 . S
C584 C582 1.391 . S
C584 C585 1.400 . S
C585 C579 1.491 . S
C585 C584 1.400 . S
C585 C586 1.398 . S
C586 H574 0.950 . S
C586 C585 1.398 . S
C586 C587 1.391 . S
C587 H575 0.950 . S
C587 C583 1.393 . S
C587 C586 1.391 . S
H588 C596 0.950 . S
H589 C601 0.950 . S
H590 C598 0.950 . S
H591 C600 0.950 . S
H592 C602 0.950 . S
H593 C604 0.950 . S
H594 C606 0.950 . S
H595 C607 0.950 . S
C596 H588 0.950 . S
C596 C597 1.386 . S
C596 C598 1.391 . S
C597 C596 1.386 . S
C597 C601 1.393 . S
C598 H590 0.950 . S
C598 C596 1.391 . S
C598 C599 1.400 . S
C599 C598 1.400 . S
C599 C600 1.398 . S
C599 C605 1.491 . S
C600 H591 0.950 . S
C600 C599 1.398 . S
C600 C601 1.391 . S
C601 H589 0.950 . S
C601 C597 1.393 . S
C601 C600 1.391 . S
C602 H592 0.950 . S
C602 C603 1.386 . S
C602 C604 1.391 . S
C603 C602 1.386 . S
C603 C607 1.393 . S
C604 H593 0.950 . S
C604 C602 1.391 . S
C604 C605 1.400 . S
C605 C599 1.491 . S
C605 C604 1.400 . S
C605 C606 1.398 . S
C606 H594 0.950 . S
C606 C605 1.398 . S
C606 C607 1.391 . S
C607 H595 0.950 . S
C607 C603 1.393 . S
C607 C606 1.391 . S
H608 C616 0.950 . S
H609 C621 0.950 . S
H610 C618 0.950 . S
H611 C620 0.950 . S
H612 C622 0.950 . S
H613 C624 0.950 . S
H614 C626 0.950 . S
H615 C627 0.950 . S
C616 H608 0.950 . S
C616 C617 1.386 . S
C616 C618 1.391 . S
C617 C616 1.386 . S
C617 C621 1.393 . S
C618 H610 0.950 . S
C618 C616 1.391 . S
C618 C619 1.400 . S
C619 C618 1.400 . S
C619 C620 1.398 . S
C619 C625 1.491 . S
C620 H611 0.950 . S
C620 C619 1.398 . S
C620 C621 1.391 . S
C621 H609 0.950 . S
C621 C617 1.393 . S
C621 C620 1.391 . S
C622 H612 0.950 . S
C622 C623 1.386 . S
C622 C624 1.391 . S
C623 C622 1.386 . S
C623 C627 1.393 . S
C624 H613 0.950 . S
C624 C622 1.391 . S
C624 C625 1.400 . S
C625 C619 1.491 . S
C625 C624 1.400 . S
C625 C626 1.398 . S
C626 H614 0.950 . S
C626 C625 1.398 . S
C626 C627 1.391 . S
C627 H615 0.950 . S
C627 C623 1.393 . S
C627 C626 1.391 . S
H628 C636 0.950 . S
H629 C641 0.950 . S
H630 C638 0.950 . S
H631 C640 0.950 . S
H632 C642 0.950 . S
H633 C644 0.950 . S
H634 C646 0.950 . S
H635 C647 0.950 . S
C636 H628 0.950 . S
C636 C637 1.386 . S
C636 C638 1.391 . S
C637 C636 1.386 . S
C637 C641 1.393 . S
C638 H630 0.950 . S
C638 C636 1.391 . S
C638 C639 1.400 . S
C639 C638 1.400 . S
C639 C640 1.398 . S
C639 C645 1.491 . S
C640 H631 0.950 . S
C640 C639 1.398 . S
C640 C641 1.391 . S
C641 H629 0.950 . S
C641 C637 1.393 . S
C641 C640 1.391 . S
C642 H632 0.950 . S
C642 C643 1.386 . S
C642 C644 1.391 . S
C643 C642 1.386 . S
C643 C647 1.393 . S
C644 H633 0.950 . S
C644 C642 1.391 . S
C644 C645 1.400 . S
C645 C639 1.491 . S
C645 C644 1.400 . S
C645 C646 1.398 . S
C646 H634 0.950 . S
C646 C645 1.398 . S
C646 C647 1.391 . S
C647 H635 0.950 . S
C647 C643 1.393 . S
C647 C646 1.391 . S
H648 C656 0.950 . S
H649 C661 0.950 . S
H650 C658 0.950 . S
H651 C660 0.950 . S
H652 C662 0.950 . S
H653 C664 0.950 . S
H654 C666 0.950 . S
H655 C667 0.950 . S
C656 H648 0.950 . S
C656 C657 1.386 . S
C656 C658 1.391 . S
C657 C656 1.386 . S
C657 C661 1.393 . S
C658 H650 0.950 . S
C658 C656 1.391 . S
C658 C659 1.400 . S
C659 C658 1.400 . S
C659 C660 1.398 . S
C659 C665 1.491 . S
C660 H651 0.950 . S
C660 C659 1.398 . S
C660 C661 1.391 . S
C661 H649 0.950 . S
C661 C657 1.393 . S
C661 C660 1.391 . S
C662 H652 0.950 . S
C662 C663 1.386 . S
C662 C664 1.391 . S
C663 C662 1.386 . S
C663 C667 1.393 . S
C664 H653 0.950 . S
C664 C662 1.391 . S
C664 C665 1.400 . S
C665 C659 1.491 . S
C665 C664 1.400 . S
C665 C666 1.398 . S
C666 H654 0.950 . S
C666 C665 1.398 . S
C666 C667 1.391 . S
C667 H655 0.950 . S
C667 C663 1.393 . S
C667 C666 1.391 . S
H668 C676 0.950 . S
H669 C681 0.950 . S
H670 C678 0.950 . S
H671 C680 0.950 . S
H672 C682 0.950 . S
H673 C684 0.950 . S
H674 C686 0.950 . S
H675 C687 0.950 . S
C676 H668 0.950 . S
C676 C677 1.386 . S
C676 C678 1.391 . S
C677 C676 1.386 . S
C677 C681 1.393 . S
C678 H670 0.950 . S
C678 C676 1.391 . S
C678 C679 1.400 . S
C679 C678 1.400 . S
C679 C680 1.398 . S
C679 C685 1.491 . S
C680 H671 0.950 . S
C680 C679 1.398 . S
C680 C681 1.391 . S
C681 H669 0.950 . S
C681 C677 1.393 . S
C681 C680 1.391 . S
C682 H672 0.950 . S
C682 C683 1.386 . S
C682 C684 1.391 . S
C683 C682 1.386 . S
C683 C687 1.393 . S
C684 H673 0.950 . S
C684 C682 1.391 . S
C684 C685 1.400 . S
C685 C679 1.491 . S
C685 C684 1.400 . S
C685 C686 1.398 . S
C686 H674 0.950 . S
C686 C685 1.398 . S
C686 C687 1.391 . S
C687 H675 0.950 . S
C687 C683 1.393 . S
C687 C686 1.391 . S
H688 C696 0.950 . S
H689 C701 0.950 . S
H690 C698 0.950 . S
H691 C700 0.950 . S
H692 C702 0.950 . S
H693 C704 0.950 . S
H694 C706 0.950 . S
H695 C707 0.950 . S
C696 H688 0.950 . S
C696 C697 1.386 . S
C696 C698 1.391 . S
C697 C696 1.386 . S
C697 C701 1.393 . S
C698 H690 0.950 . S
C698 C696 1.391 . S
C698 C699 1.400 . S
C699 C698 1.400 . S
C699 C700 1.398 . S
C699 C705 1.491 . S
C700 H691 0.950 . S
C700 C699 1.398 . S
C700 C701 1.391 . S
C701 H689 0.950 . S
C701 C697 1.393 . S
C701 C700 1.391 . S
C702 H692 0.950 . S
C702 C703 1.386 . S
C702 C704 1.391 . S
C703 C702 1.386 . S
C703 C707 1.393 . S
C704 H693 0.950 . S
C704 C702 1.391 . S
C704 C705 1.400 . S
C705 C699 1.491 . S
C705 C704 1.400 . S
C705 C706 1.398 . S
C706 H694 0.950 . S
C706 C705 1.398 . S
C706 C707 1.391 . S
C707 H695 0.950 . S
C707 C703 1.393 . S
C707 C706 1.391 . S
H708 C716 0.950 . S
H709 C721 0.950 . S
H710 C718 0.950 . S
H711 C720 0.950 . S
H712 C722 0.950 . S
H713 C724 0.950 . S
H714 C726 0.950 . S
H715 C727 0.950 . S
C716 H708 0.950 . S
C716 C717 1.386 . S
C716 C718 1.391 . S
C717 C716 1.386 . S
C717 C721 1.393 . S
C718 H710 0.950 . S
C718 C716 1.391 . S
C718 C719 1.400 . S
C719 C718 1.400 . S
C719 C720 1.398 . S
C719 C725 1.491 . S
C720 H711 0.950 . S
C720 C719 1.398 . S
C720 C721 1.391 . S
C721 H709 0.950 . S
C721 C717 1.393 . S
C721 C720 1.391 . S
C722 H712 0.950 . S
C722 C723 1.386 . S
C722 C724 1.391 . S
C723 C722 1.386 . S
C723 C727 1.393 . S
C724 H713 0.950 . S
C724 C722 1.391 . S
C724 C725 1.400 . S
C725 C719 1.491 . S
C725 C724 1.400 . S
C725 C726 1.398 . S
C726 H714 0.950 . S
C726 C725 1.398 . S
C726 C727 1.391 . S
C727 H715 0.950 . S
C727 C723 1.393 . S
C727 C726 1.391 . S
C257 C4 1.086 . S
C263 C95 1.126 . S
C277 C16 1.247 . S
C283 C144 1.261 . S
C303 C170 2.025 . S
C297 C32 2.040 . S
C317 C43 2.266 . S
C323 C218 2.205 1_655 S
C343 C130 2.646 . S
C337 C5 2.535 . S
C363 C98 0.555 . S
C357 C21 0.532 . S
C383 C219 1.861 . S
C377 C27 1.899 . S
C403 C187 1.543 . S
C397 C37 1.559 . S
C417 C10 1.466 . S
C423 C215 1.496 . S
C443 C147 2.504 1_556 S
C437 C26 2.584 . S
C457 C38 2.079 . S
C463 C99 2.079 . S
C477 C15 1.094 . S
C483 C184 1.089 . S
C503 C104 1.298 . S
C497 C48 1.260 . S
C517 C59 1.062 . S
C523 C135 1.064 . S
C537 C76 2.432 . S
C543 C179 2.399 . S
C557 C87 2.100 . S
C563 C227 2.078 . S
C577 C54 1.915 . S
C583 C139 2.008 1_556 S
C603 C107 1.461 . S
C597 C60 1.484 . S
C623 C210 1.757 . S
C617 C71 1.769 . S
C643 C178 1.535 . S
C637 C82 1.571 . S
C657 C49 1.721 . S
C663 C224 1.808 . S
C683 C138 1.977 . S
C677 C70 2.041 . S
C703 C90 2.524 . S
C697 C81 2.530 . S
C717 C65 0.898 . S
C723 C175 0.909 . S
