# Generated by pormake.
# Topology apo, (3,6)-cn, num edge types: 1
# Building blocks:
#     Node 0, Type 0, BuildingBlock: BETDIP_clean_linker_0, # of connection points: 3
#     Node 1, Type 0, BuildingBlock: BETDIP_clean_linker_0, # of connection points: 3
#     Node 2, Type 0, BuildingBlock: BETDIP_clean_linker_0, # of connection points: 3
#     Node 3, Type 0, BuildingBlock: BETDIP_clean_linker_0, # of connection points: 3
#     Node 4, Type 0, BuildingBlock: BETDIP_clean_linker_0, # of connection points: 3
#     Node 5, Type 0, BuildingBlock: BETDIP_clean_linker_0, # of connection points: 3
#     Node 6, Type 0, BuildingBlock: BETDIP_clean_linker_0, # of connection points: 3
#     Node 7, Type 0, BuildingBlock: BETDIP_clean_linker_0, # of connection points: 3
#     Node 8, Type 1, BuildingBlock: KUMBUR_clean_sbu_1, # of connection points: 6
#     Node 9, Type 1, BuildingBlock: KUMBUR_clean_sbu_1, # of connection points: 6
#     Node 10, Type 1, BuildingBlock: KUMBUR_clean_sbu_1, # of connection points: 6
#     Node 11, Type 1, BuildingBlock: KUMBUR_clean_sbu_1, # of connection points: 6
#     Edge 12, Type (0, 1), BuildingBlock: XUDNAN_clean_linker_2, # of connection points: 2
#     Edge 13, Type (0, 1), BuildingBlock: XUDNAN_clean_linker_2, # of connection points: 2
#     Edge 14, Type (0, 1), BuildingBlock: XUDNAN_clean_linker_2, # of connection points: 2
#     Edge 15, Type (0, 1), BuildingBlock: XUDNAN_clean_linker_2, # of connection points: 2
#     Edge 16, Type (0, 1), BuildingBlock: XUDNAN_clean_linker_2, # of connection points: 2
#     Edge 17, Type (0, 1), BuildingBlock: XUDNAN_clean_linker_2, # of connection points: 2
#     Edge 18, Type (0, 1), BuildingBlock: XUDNAN_clean_linker_2, # of connection points: 2
#     Edge 19, Type (0, 1), BuildingBlock: XUDNAN_clean_linker_2, # of connection points: 2
#     Edge 20, Type (0, 1), BuildingBlock: XUDNAN_clean_linker_2, # of connection points: 2
#     Edge 21, Type (0, 1), BuildingBlock: XUDNAN_clean_linker_2, # of connection points: 2
#     Edge 22, Type (0, 1), BuildingBlock: XUDNAN_clean_linker_2, # of connection points: 2
#     Edge 23, Type (0, 1), BuildingBlock: XUDNAN_clean_linker_2, # of connection points: 2
#     Edge 24, Type (0, 1), BuildingBlock: XUDNAN_clean_linker_2, # of connection points: 2
#     Edge 25, Type (0, 1), BuildingBlock: XUDNAN_clean_linker_2, # of connection points: 2
#     Edge 26, Type (0, 1), BuildingBlock: XUDNAN_clean_linker_2, # of connection points: 2
#     Edge 27, Type (0, 1), BuildingBlock: XUDNAN_clean_linker_2, # of connection points: 2
#     Edge 28, Type (0, 1), BuildingBlock: XUDNAN_clean_linker_2, # of connection points: 2
#     Edge 29, Type (0, 1), BuildingBlock: XUDNAN_clean_linker_2, # of connection points: 2
#     Edge 30, Type (0, 1), BuildingBlock: XUDNAN_clean_linker_2, # of connection points: 2
#     Edge 31, Type (0, 1), BuildingBlock: XUDNAN_clean_linker_2, # of connection points: 2
#     Edge 32, Type (0, 1), BuildingBlock: XUDNAN_clean_linker_2, # of connection points: 2
#     Edge 33, Type (0, 1), BuildingBlock: XUDNAN_clean_linker_2, # of connection points: 2
#     Edge 34, Type (0, 1), BuildingBlock: XUDNAN_clean_linker_2, # of connection points: 2
#     Edge 35, Type (0, 1), BuildingBlock: XUDNAN_clean_linker_2, # of connection points: 2
# Relax obj value: 0.037
# Max RMSD: 0.198
# Mean RMSD: 0.156
data_MOF--net-apo--node1-KUMBUR_clean_sbu_1--node2-BETDIP_clean_linker_0--edge1-XUDNAN_clean_linker_2
_symmetry_space_group_name_H-M    P1
_symmetry_Int_Tables_number       1
_symmetry_cell_setting            triclinic
loop_
_symmetry_equiv_pos_as_xyz
'x, y, z'
_cell_length_a     27.619037
_cell_length_b     41.866356
_cell_length_c     51.496307
_cell_angle_alpha  89.844513
_cell_angle_beta   90.146468
_cell_angle_gamma 90.221126
loop_
_atom_site_label
_atom_site_type_symbol
_atom_site_fract_x
_atom_site_fract_y
_atom_site_fract_z
_atom_type_partial_charge
H0 H 0.28267 0.33553 0.44983 0.0
H1 H 0.28412 0.37246 0.37245 0.0
H2 H 0.36589 0.42034 0.43228 0.0
H3 H 0.19411 0.34721 0.38225 0.0
C4 C 0.21509 0.32541 0.38406 0.0
C5 C 0.29532 0.35353 0.43628 0.0
C6 C 0.32506 0.37889 0.44477 0.0
C7 C 0.28041 0.35133 0.41039 0.0
C8 C 0.29547 0.37458 0.39252 0.0
C9 C 0.32697 0.39943 0.40009 0.0
C10 C 0.34093 0.40169 0.42638 0.0
N11 N 0.25396 0.32401 0.40213 0.0
H12 H 0.22095 0.1885 0.93307 0.0
H13 H 0.21187 0.13426 0.86232 0.0
H14 H 0.13984 0.10034 0.93056 0.0
H15 H 0.28974 0.15317 0.86057 0.0
C16 C 0.28337 0.17837 0.86421 0.0
C17 C 0.20688 0.16815 0.92247 0.0
C18 C 0.17902 0.14471 0.93533 0.0
C19 C 0.21936 0.16442 0.89622 0.0
C20 C 0.20259 0.13742 0.88256 0.0
C21 C 0.17506 0.11386 0.8951 0.0
C22 C 0.16249 0.11813 0.92119 0.0
N23 N 0.25054 0.1872 0.88416 0.0
H24 H 0.79949 0.18288 0.58884 0.0
H25 H 0.79346 0.13351 0.66208 0.0
H26 H 0.85776 0.0881 0.59597 0.0
H27 H 0.74184 0.17101 0.67331 0.0
C28 C 0.74411 0.19121 0.66014 0.0
C29 C 0.80775 0.16199 0.60049 0.0
C30 C 0.8308 0.13568 0.58919 0.0
C31 C 0.79358 0.16149 0.62653 0.0
C32 C 0.80355 0.13434 0.64183 0.0
C33 C 0.8262 0.10761 0.63077 0.0
C34 C 0.8396 0.10846 0.60445 0.0
N35 N 0.76913 0.1888 0.63617 0.0
H36 H 0.73589 0.34116 0.08338 0.0
H37 H 0.71948 0.36824 0.16315 0.0
H38 H 0.63114 0.4126 0.10493 0.0
H39 H 0.80638 0.36335 0.15599 0.0
C40 C 0.80242 0.33828 0.15085 0.0
C41 C 0.71736 0.35513 0.09794 0.0
C42 C 0.68228 0.37792 0.0906 0.0
C43 C 0.73095 0.35167 0.12407 0.0
C44 C 0.70859 0.37064 0.14302 0.0
C45 C 0.6732 0.39307 0.13619 0.0
C46 C 0.65967 0.39605 0.11006 0.0
N47 N 0.76834 0.32999 0.13122 0.0
H48 H 0.74389 0.66817 0.57768 0.0
H49 H 0.7295 0.6428 0.65811 0.0
H50 H 0.66356 0.58382 0.60015 0.0
H51 H 0.72441 0.69794 0.66077 0.0
C52 C 0.75663 0.70352 0.64954 0.0
C53 C 0.72918 0.6524 0.5924 0.0
C54 C 0.7025 0.62492 0.58532 0.0
C55 C 0.73746 0.65966 0.61864 0.0
C56 C 0.72124 0.63828 0.63789 0.0
C57 C 0.69513 0.61069 0.63126 0.0
C58 C 0.68466 0.60479 0.60509 0.0
N59 N 0.76387 0.68776 0.62544 0.0
H60 H 0.75791 0.85152 0.08069 0.0
H61 H 0.7904 0.87442 0.16053 0.0
H62 H 0.8563 0.9283 0.09948 0.0
H63 H 0.72048 0.84891 0.16801 0.0
C64 C 0.7197 0.82936 0.15421 0.0
C65 C 0.77672 0.86612 0.09485 0.0
C66 C 0.80703 0.89132 0.08657 0.0
C67 C 0.76959 0.86 0.12148 0.0
C68 C 0.79372 0.87921 0.13996 0.0
C69 C 0.82459 0.90389 0.13186 0.0
C70 C 0.83129 0.90962 0.10538 0.0
N71 N 0.7397 0.83368 0.12896 0.0
H72 H 0.23043 0.84017 0.44157 0.0
H73 H 0.23464 0.88352 0.36573 0.0
H74 H 0.17427 0.93494 0.42984 0.0
H75 H 0.29848 0.85084 0.36063 0.0
C76 C 0.28736 0.82902 0.37042 0.0
C77 C 0.22262 0.86019 0.42885 0.0
C78 C 0.20091 0.88781 0.43888 0.0
C79 C 0.23627 0.85869 0.40269 0.0
C80 C 0.22628 0.88472 0.38622 0.0
C81 C 0.20366 0.91215 0.3959 0.0
C82 C 0.19126 0.91361 0.42224 0.0
N83 N 0.25907 0.83054 0.39343 0.0
H84 H 0.27093 0.68177 0.93566 0.0
H85 H 0.28766 0.62788 0.86522 0.0
H86 H 0.35105 0.59385 0.93617 0.0
H87 H 0.28236 0.67553 0.84687 0.0
C88 C 0.25494 0.68793 0.85801 0.0
C89 C 0.28528 0.66127 0.92547 0.0
C90 C 0.31176 0.638 0.93911 0.0
C91 C 0.27814 0.65867 0.8986 0.0
C92 C 0.29578 0.63151 0.88555 0.0
C93 C 0.32203 0.60794 0.89891 0.0
C94 C 0.33056 0.61174 0.92564 0.0
N95 N 0.25201 0.6831 0.8853 0.0
Tb96 Tb 0.05276 0.11984 0.23144 0.0
C97 C 0.84464 0.09883 0.27639 0.0
N98 N 0.87473 0.12453 0.27853 0.0
C99 C 0.80823 0.1597 0.26946 0.0
C100 C 0.79518 0.10265 0.2703 0.0
C101 C 0.85676 0.15481 0.27607 0.0
C102 C 0.77736 0.13352 0.26638 0.0
C103 C 0.83275 0.04146 0.28018 0.0
C104 C 0.86305 0.06855 0.28138 0.0
C105 C 0.78354 0.04521 0.27402 0.0
C106 C 0.76487 0.07568 0.26895 0.0
Tb107 Tb 0.95265 0.1127 0.2903 0.0
N108 N 0.91082 0.06578 0.28748 0.0
C109 C 0.85284 0.01143 0.28527 0.0
C110 C 0.93047 0.03663 0.29288 0.0
C111 C 0.9019 0.00902 0.2916 0.0
H112 H 0.87922 0.17545 0.27979 0.0
H113 H 0.9177 0.98591 0.29563 0.0
H114 H 0.12452 0.05672 0.23297 0.0
H115 H 0.08981 0.24438 0.21198 0.0
H116 H 0.96816 0.03447 0.29794 0.0
H117 H 0.83079 0.99 0.28441 0.0
H118 H 0.03806 0.19623 0.21632 0.0
H119 H 0.79444 0.18373 0.26724 0.0
H120 H 0.7596 0.02468 0.2731 0.0
H121 H 0.72678 0.07817 0.26433 0.0
H122 H 0.21275 0.04625 0.23374 0.0
H123 H 0.73961 0.13744 0.26162 0.0
H124 H 0.17856 0.24002 0.21786 0.0
N125 N 0.13297 0.1072 0.23259 0.0
C126 C 0.16421 0.13219 0.23124 0.0
C127 C 0.19959 0.07056 0.23318 0.0
C128 C 0.21468 0.12746 0.23182 0.0
C129 C 0.14979 0.07654 0.23267 0.0
C130 C 0.23221 0.09616 0.23315 0.0
N131 N 0.09675 0.1656 0.22581 0.0
C132 C 0.07671 0.19433 0.21912 0.0
C133 C 0.17645 0.18906 0.22517 0.0
C134 C 0.14543 0.16247 0.22783 0.0
C135 C 0.15597 0.21897 0.22 0.0
C136 C 0.1059 0.22153 0.21663 0.0
H137 H 0.27076 0.09149 0.23354 0.0
H138 H 0.28478 0.15091 0.23088 0.0
H139 H 0.25125 0.20492 0.22518 0.0
O140 O 0.05605 0.13478 0.19211 0.0
O141 O 0.05142 0.15848 0.2597 0.0
O142 O 0.02019 0.1392 0.29856 0.0
O143 O 0.04659 0.08563 0.20187 0.0
O144 O 0.97833 0.13859 0.22823 0.0
O145 O 0.95833 0.15717 0.26878 0.0
O146 O 0.95243 0.09473 0.32845 0.0
O147 O 0.93994 0.08788 0.25297 0.0
O148 O 0.01759 0.07594 0.24309 0.0
O149 O 0.91937 0.13982 0.31972 0.0
O150 O 0.01732 0.08319 0.2954 0.0
O151 O 0.08086 0.09436 0.26607 0.0
C152 C 0.05151 0.15645 0.28512 0.0
C153 C 0.09215 0.0969 0.16403 0.0
C154 C 0.12912 0.10327 0.12116 0.0
C155 C 0.1627 0.07933 0.12768 0.0
C156 C 0.12426 0.07166 0.16918 0.0
C157 C 0.15999 0.06356 0.15142 0.0
C158 C 0.09456 0.11258 0.13979 0.0
C159 C 0.95851 0.16013 0.24338 0.0
C160 C 0.05478 0.10584 0.18325 0.0
C161 C 0.24586 0.154 0.23023 0.0
C162 C 0.22677 0.18475 0.22698 0.0
C163 C 0.97147 0.07069 0.24015 0.0
C164 C 0.88935 0.11105 0.35604 0.0
C165 C 0.85972 0.11051 0.40068 0.0
C166 C 0.81754 0.09474 0.39216 0.0
C167 C 0.84697 0.09543 0.348 0.0
C168 C 0.89556 0.11861 0.38238 0.0
C169 C 0.81131 0.08731 0.36598 0.0
C170 C 0.06278 0.08091 0.28743 0.0
C171 C 0.92838 0.11875 0.33766 0.0
H172 H 0.1907 0.07232 0.11418 0.0
H173 H 0.12142 0.05765 0.18669 0.0
H174 H 0.1851 0.04452 0.15587 0.0
H175 H 0.06856 0.13108 0.13517 0.0
H176 H 0.78896 0.08859 0.40567 0.0
H177 H 0.84134 0.08939 0.32799 0.0
H178 H 0.92862 0.13035 0.38867 0.0
H179 H 0.77866 0.07526 0.35958 0.0
Tb180 Tb 0.45349 0.40333 0.73802 0.0
C181 C 0.6685 0.41296 0.78735 0.0
N182 N 0.63892 0.38798 0.7815 0.0
C183 C 0.70721 0.35801 0.76648 0.0
C184 C 0.71855 0.41184 0.78221 0.0
C185 C 0.65788 0.3602 0.77224 0.0
C186 C 0.73764 0.38408 0.77123 0.0
C187 C 0.67781 0.46581 0.80591 0.0
C188 C 0.64862 0.43937 0.7993 0.0
C189 C 0.7276 0.46508 0.80047 0.0
C190 C 0.74794 0.43813 0.78867 0.0
Tb191 Tb 0.55974 0.39369 0.79325 0.0
N192 N 0.60014 0.43955 0.80351 0.0
C193 C 0.65591 0.49222 0.81757 0.0
C194 C 0.57887 0.46469 0.81583 0.0
C195 C 0.60625 0.49157 0.82267 0.0
H196 H 0.63555 0.33923 0.77031 0.0
H197 H 0.58911 0.51165 0.83207 0.0
H198 H 0.37032 0.44661 0.76749 0.0
H199 H 0.45415 0.2809 0.7034 0.0
H200 H 0.54093 0.46404 0.82059 0.0
H201 H 0.67703 0.51307 0.82288 0.0
H202 H 0.48695 0.33496 0.70812 0.0
H203 H 0.72188 0.33599 0.75893 0.0
H204 H 0.75069 0.48517 0.80536 0.0
H205 H 0.78648 0.43777 0.78482 0.0
H206 H 0.28766 0.43835 0.7845 0.0
H207 H 0.77595 0.38221 0.76703 0.0
H208 H 0.37313 0.26768 0.72079 0.0
N209 N 0.37765 0.39871 0.75454 0.0
C210 C 0.35572 0.36991 0.75092 0.0
C211 C 0.30658 0.41883 0.7753 0.0
C212 C 0.30869 0.3641 0.76036 0.0
C213 C 0.35357 0.42336 0.7659 0.0
C214 C 0.28415 0.38902 0.7727 0.0
N215 N 0.42778 0.35205 0.73059 0.0
C216 C 0.45288 0.32949 0.7171 0.0
C217 C 0.36092 0.31519 0.73583 0.0
C218 C 0.38177 0.34575 0.73884 0.0
C219 C 0.38781 0.29149 0.72342 0.0
C220 C 0.4337 0.29881 0.71375 0.0
H221 H 0.24788 0.38552 0.78018 0.0
H222 H 0.2519 0.32866 0.76466 0.0
H223 H 0.2976 0.28585 0.74329 0.0
O224 O 0.43266 0.39782 0.69871 0.0
O225 O 0.43974 0.37951 0.77562 0.0
O226 O 0.51143 0.35463 0.78277 0.0
O227 O 0.41536 0.44112 0.72014 0.0
O228 O 0.52262 0.38325 0.72475 0.0
O229 O 0.55364 0.35923 0.76156 0.0
O230 O 0.54853 0.39524 0.834 0.0
O231 O 0.57016 0.43406 0.7664 0.0
O232 O 0.51949 0.43029 0.72988 0.0
O233 O 0.59304 0.35932 0.81666 0.0
O234 O 0.49146 0.41689 0.80288 0.0
O235 O 0.46263 0.44276 0.7659 0.0
C236 C 0.4644 0.35546 0.78501 0.0
C237 C 0.3882 0.439 0.6749 0.0
C238 C 0.36865 0.43704 0.62831 0.0
C239 C 0.3399 0.46447 0.63156 0.0
C240 C 0.3599 0.46657 0.67724 0.0
C241 C 0.33592 0.47912 0.65572 0.0
C242 C 0.39266 0.42432 0.65033 0.0
C243 C 0.55447 0.36472 0.73641 0.0
C244 C 0.41238 0.42577 0.69824 0.0
C245 C 0.28798 0.33364 0.75745 0.0
C246 C 0.31405 0.30925 0.7453 0.0
C247 C 0.55643 0.44253 0.74279 0.0
C248 C 0.61863 0.37824 0.85738 0.0
C249 C 0.64542 0.38483 0.90217 0.0
C250 C 0.69374 0.38445 0.89393 0.0
C251 C 0.66753 0.37776 0.8496 0.0
C252 C 0.60773 0.38207 0.88387 0.0
C253 C 0.70466 0.38113 0.86774 0.0
C254 C 0.46755 0.44022 0.79137 0.0
C255 C 0.57956 0.37245 0.83823 0.0
H256 H 0.31955 0.47446 0.61551 0.0
H257 H 0.35582 0.47831 0.69583 0.0
H258 H 0.3137 0.50019 0.65783 0.0
H259 H 0.41516 0.40334 0.64836 0.0
H260 H 0.72304 0.38667 0.90786 0.0
H261 H 0.67743 0.374 0.8296 0.0
H262 H 0.57037 0.38213 0.89028 0.0
H263 H 0.74204 0.38067 0.86149 0.0
Tb264 Tb 0.05538 0.90756 0.73411 0.0
C265 C 0.85192 0.87104 0.77999 0.0
N266 N 0.87737 0.89889 0.7784 0.0
C267 C 0.80566 0.92602 0.76385 0.0
C268 C 0.80303 0.86929 0.77215 0.0
C269 C 0.85387 0.92661 0.77218 0.0
C270 C 0.78036 0.89713 0.76335 0.0
C271 C 0.84892 0.81562 0.79379 0.0
C272 C 0.87426 0.84467 0.79101 0.0
C273 C 0.80082 0.81338 0.78502 0.0
C274 C 0.7779 0.84017 0.77427 0.0
Tb275 Tb 0.95619 0.89643 0.79257 0.0
N276 N 0.92107 0.84762 0.79898 0.0
C277 C 0.87257 0.78982 0.80554 0.0
C278 C 0.94384 0.82286 0.81117 0.0
C279 C 0.92005 0.79357 0.8145 0.0
H280 H 0.8714 0.94953 0.77425 0.0
H281 H 0.93838 0.77391 0.82397 0.0
H282 H 0.14306 0.86136 0.76142 0.0
H283 H 0.05188 0.03182 0.70758 0.0
H284 H 0.98018 0.82563 0.81854 0.0
H285 H 0.85433 0.76707 0.80806 0.0
H286 H 0.01924 0.97673 0.71062 0.0
H287 H 0.78774 0.94799 0.75838 0.0
H288 H 0.78078 0.7912 0.78686 0.0
H289 H 0.74042 0.83831 0.76817 0.0
H290 H 0.22112 0.87027 0.78255 0.0
H291 H 0.74281 0.89682 0.75721 0.0
H292 H 0.13206 0.04455 0.72651 0.0
N293 N 0.1294 0.91084 0.75426 0.0
C294 C 0.14969 0.94063 0.75365 0.0
C295 C 0.20099 0.89037 0.77493 0.0
C296 C 0.19571 0.94651 0.7646 0.0
C297 C 0.15558 0.88555 0.76351 0.0
C298 C 0.22088 0.92102 0.7758 0.0
N299 N 0.07957 0.95929 0.73195 0.0
C300 C 0.05387 0.98237 0.71928 0.0
C301 C 0.14457 0.99634 0.74028 0.0
C302 C 0.12459 0.9654 0.74158 0.0
C303 C 0.11786 0.02046 0.72799 0.0
C304 C 0.07242 0.01341 0.71738 0.0
H305 H 0.25632 0.92456 0.78442 0.0
H306 H 0.25084 0.98238 0.77197 0.0
H307 H 0.20622 0.02587 0.75058 0.0
O308 O 0.04781 0.91617 0.69393 0.0
O309 O 0.04454 0.94414 0.76414 0.0
O310 O 0.03067 0.91147 0.79815 0.0
O311 O 0.11113 0.8932 0.70925 0.0
O312 O 0.98041 0.91965 0.72673 0.0
O313 O 0.95415 0.93844 0.76646 0.0
O314 O 0.95142 0.88709 0.83257 0.0
O315 O 0.94476 0.86533 0.75901 0.0
O316 O 0.00858 0.86553 0.72883 0.0
O317 O 0.92766 0.93198 0.8173 0.0
O318 O 0.02442 0.86956 0.79665 0.0
O319 O 0.05898 0.86247 0.75558 0.0
C320 C 0.04741 0.93825 0.78901 0.0
C321 C 0.08662 0.87833 0.66736 0.0
C322 C 0.10473 0.86507 0.62214 0.0
C323 C 0.09397 0.83281 0.62788 0.0
C324 C 0.07517 0.84628 0.67241 0.0
C325 C 0.07855 0.82372 0.65265 0.0
C326 C 0.09993 0.88774 0.64222 0.0
C327 C 0.95172 0.93735 0.74084 0.0
C328 C 0.08817 0.90193 0.68839 0.0
C329 C 0.21558 0.97744 0.7636 0.0
C330 C 0.19022 1.00222 0.75135 0.0
C331 C 0.96694 0.85484 0.7381 0.0
C332 C 0.88704 0.91091 0.85453 0.0
C333 C 0.852 0.90601 0.89786 0.0
C334 C 0.80708 0.89845 0.88668 0.0
C335 C 0.84136 0.90424 0.8438 0.0
C336 C 0.89206 0.91222 0.88173 0.0
C337 C 0.80178 0.89783 0.85977 0.0
C338 C 0.0498 0.85299 0.77959 0.0
C339 C 0.9303 0.91384 0.83787 0.0
H340 H 0.09837 0.81421 0.61358 0.0
H341 H 0.06472 0.8386 0.6917 0.0
H342 H 0.07035 0.7989 0.6567 0.0
H343 H 0.10692 0.91282 0.63868 0.0
H344 H 0.77582 0.8938 0.89881 0.0
H345 H 0.83606 0.9038 0.82316 0.0
H346 H 0.92701 0.91763 0.89032 0.0
H347 H 0.76684 0.89246 0.85124 0.0
Tb348 Tb 0.45505 0.60917 0.2339 0.0
C349 C 0.64904 0.64823 0.28286 0.0
N350 N 0.62859 0.61903 0.27904 0.0
C351 C 0.70387 0.59903 0.26274 0.0
C352 C 0.69779 0.65409 0.27633 0.0
C353 C 0.65549 0.59426 0.26972 0.0
C354 C 0.72509 0.62909 0.26596 0.0
C355 C 0.64081 0.70268 0.29795 0.0
C356 C 0.62071 0.67221 0.29342 0.0
C357 C 0.68954 0.7086 0.29168 0.0
C358 C 0.71786 0.68444 0.28076 0.0
Tb359 Tb 0.55131 0.61335 0.29371 0.0
N360 N 0.57384 0.66546 0.29964 0.0
C361 C 0.6115 0.72621 0.30893 0.0
C362 C 0.54595 0.68794 0.31155 0.0
C363 C 0.56392 0.71877 0.31579 0.0
H364 H 0.64034 0.57057 0.26825 0.0
H365 H 0.54141 0.73655 0.32498 0.0
H366 H 0.37215 0.66529 0.24813 0.0
H367 H 0.42853 0.486 0.20779 0.0
H368 H 0.51057 0.68211 0.31887 0.0
H369 H 0.6255 0.74998 0.31261 0.0
H370 H 0.47216 0.53782 0.2094 0.0
H371 H 0.725 0.57937 0.25529 0.0
H372 H 0.70568 0.73182 0.29519 0.0
H373 H 0.75534 0.6894 0.276 0.0
H374 H 0.2901 0.66651 0.26652 0.0
H375 H 0.76274 0.63261 0.26078 0.0
H376 H 0.34769 0.48076 0.22817 0.0
N377 N 0.37684 0.61441 0.24844 0.0
C378 C 0.35107 0.58674 0.25023 0.0
C379 C 0.30712 0.64382 0.26246 0.0
C380 C 0.30314 0.58634 0.25957 0.0
C381 C 0.35424 0.64297 0.25257 0.0
C382 C 0.2818 0.61532 0.26652 0.0
N383 N 0.41733 0.56079 0.23128 0.0
C384 C 0.43702 0.53551 0.21838 0.0
C385 C 0.34538 0.53019 0.24041 0.0
C386 C 0.37158 0.55908 0.24075 0.0
C387 C 0.36666 0.50344 0.22888 0.0
C388 C 0.41232 0.50629 0.21736 0.0
H389 H 0.24508 0.61608 0.27383 0.0
H390 H 0.24083 0.55642 0.26799 0.0
H391 H 0.27792 0.5072 0.25122 0.0
O392 O 0.47735 0.60365 0.1952 0.0
O393 O 0.45857 0.56975 0.26203 0.0
O394 O 0.47948 0.59241 0.30097 0.0
O395 O 0.40832 0.62416 0.20385 0.0
O396 O 0.52719 0.58733 0.22984 0.0
O397 O 0.55192 0.56953 0.27065 0.0
O398 O 0.56115 0.62214 0.33339 0.0
O399 O 0.56943 0.63251 0.25496 0.0
O400 O 0.49915 0.65262 0.23741 0.0
O401 O 0.58759 0.57877 0.31654 0.0
O402 O 0.47919 0.63347 0.29952 0.0
O403 O 0.45355 0.65153 0.25919 0.0
C404 C 0.4582 0.56981 0.28749 0.0
C405 C 0.44421 0.63864 0.16404 0.0
C406 C 0.4268 0.6531 0.11911 0.0
C407 C 0.4598 0.6786 0.12111 0.0
C408 C 0.47579 0.66479 0.16603 0.0
C409 C 0.4838 0.68454 0.14455 0.0
C410 C 0.41913 0.63315 0.1407 0.0
C411 C 0.54881 0.56633 0.24516 0.0
C412 C 0.43811 0.61607 0.18562 0.0
C413 C 0.27751 0.55728 0.2606 0.0
C414 C 0.29857 0.52925 0.25099 0.0
C415 C 0.54628 0.65389 0.24103 0.0
C416 C 0.6291 0.60013 0.35342 0.0
C417 C 0.66476 0.60646 0.39644 0.0
C418 C 0.70907 0.61479 0.38501 0.0
C419 C 0.67405 0.60763 0.34229 0.0
C420 C 0.62481 0.59915 0.3806 0.0
C421 C 0.71371 0.61511 0.35803 0.0
C422 C 0.45207 0.65183 0.28475 0.0
C423 C 0.58521 0.59609 0.33748 0.0
H424 H 0.46621 0.69427 0.1047 0.0
H425 H 0.4943 0.66976 0.18408 0.0
H426 H 0.50864 0.70451 0.14608 0.0
H427 H 0.3943 0.6131 0.13919 0.0
H428 H 0.7403 0.62031 0.39698 0.0
H429 H 0.67866 0.60792 0.32157 0.0
H430 H 0.5903 0.59318 0.38942 0.0
H431 H 0.74817 0.62112 0.34929 0.0
H432 H 0.1168 0.94198 0.38935 0.0
H433 H 0.2657 0.94276 0.36291 0.0
H434 H 0.24708 0.98778 0.33324 0.0
H435 H 0.06399 0.95718 0.32716 0.0
H436 H 0.01601 0.98179 0.33963 0.0
H437 H 0.04169 0.95083 0.35964 0.0
H438 H 0.06128 0.99245 0.3954 0.0
H439 H 0.03554 0.02351 0.37549 0.0
H440 H 0.09677 0.0273 0.38731 0.0
H441 H 0.21203 0.03369 0.30727 0.0
H442 H 0.16195 0.07377 0.28457 0.0
H443 H 0.03542 0.0398 0.3263 0.0
C444 C 0.14551 0.9519 0.37748 0.0
C445 C 0.19272 0.93923 0.37842 0.0
C446 C 0.22929 0.95227 0.36233 0.0
C447 C 0.2191 0.97785 0.34556 0.0
C448 C 0.17209 0.98981 0.34503 0.0
C449 C 0.13581 0.97708 0.36042 0.0
C450 C 0.08783 0.99324 0.35534 0.0
C451 C 0.05018 0.96933 0.34481 0.0
C452 C 0.06929 0.01013 0.37985 0.0
C453 C 0.10282 0.01706 0.33475 0.0
C454 C 0.15156 0.01497 0.32919 0.0
C455 C 0.1736 0.03511 0.31112 0.0
C456 C 0.14473 0.05753 0.29802 0.0
C457 C 0.09426 0.05909 0.30259 0.0
C458 C 0.07358 0.03893 0.3217 0.0
H459 H 0.36332 0.60304 0.85019 0.0
H460 H 0.31791 0.54647 0.9167 0.0
H461 H 0.3461 0.49772 0.89494 0.0
H462 H 0.32886 0.54404 0.80088 0.0
H463 H 0.38007 0.55281 0.7804 0.0
H464 H 0.35498 0.58357 0.80071 0.0
H465 H 0.43915 0.59285 0.82179 0.0
H466 H 0.46447 0.56223 0.80149 0.0
H467 H 0.47062 0.55959 0.83629 0.0
H468 H 0.38139 0.45572 0.86751 0.0
H469 H 0.42399 0.42211 0.83596 0.0
H470 H 0.44562 0.50441 0.7858 0.0
C471 C 0.35882 0.58034 0.86003 0.0
C472 C 0.33863 0.57865 0.88528 0.0
C473 C 0.33396 0.54851 0.8976 0.0
C474 C 0.34946 0.52061 0.88529 0.0
C475 C 0.36929 0.52312 0.86054 0.0
C476 C 0.37406 0.55211 0.84796 0.0
C477 C 0.39803 0.54796 0.82165 0.0
C478 C 0.36342 0.55768 0.7996 0.0
C479 C 0.44591 0.56678 0.82024 0.0
C480 C 0.40681 0.51218 0.82171 0.0
C481 C 0.38951 0.49846 0.84434 0.0
C482 C 0.39485 0.4661 0.84966 0.0
C483 C 0.4193 0.44725 0.83164 0.0
C484 C 0.43816 0.46069 0.80849 0.0
C485 C 0.43104 0.4935 0.80321 0.0
H486 H 0.6087 0.57805 0.63639 0.0
H487 H 0.75095 0.58911 0.67143 0.0
H488 H 0.7302 0.54813 0.70406 0.0
H489 H 0.5423 0.56523 0.69589 0.0
H490 H 0.50236 0.53561 0.68208 0.0
H491 H 0.52768 0.56649 0.66176 0.0
H492 H 0.56283 0.52347 0.63108 0.0
H493 H 0.53761 0.49249 0.65133 0.0
H494 H 0.60149 0.49281 0.64426 0.0
H495 H 0.69624 0.50426 0.73124 0.0
H496 H 0.64985 0.46171 0.75247 0.0
H497 H 0.52822 0.47973 0.70124 0.0
C498 C 0.63546 0.57185 0.65094 0.0
C499 C 0.68135 0.587 0.65149 0.0
C500 C 0.71526 0.57831 0.67093 0.0
C501 C 0.70397 0.55488 0.68942 0.0
C502 C 0.6586 0.54035 0.68823 0.0
C503 C 0.62478 0.5485 0.66958 0.0
C504 C 0.57885 0.52886 0.67255 0.0
C505 C 0.53522 0.55034 0.67843 0.0
C506 C 0.56968 0.50819 0.64837 0.0
C507 C 0.59223 0.50846 0.69581 0.0
C508 C 0.63847 0.51542 0.70442 0.0
C509 C 0.65961 0.49904 0.725 0.0
C510 C 0.63262 0.47506 0.73728 0.0
C511 C 0.58474 0.46784 0.72935 0.0
C512 C 0.56456 0.48475 0.7081 0.0
H513 H 0.79208 0.95105 0.1643 0.0
H514 H 0.9209 0.90063 0.14004 0.0
H515 H 0.97133 0.93624 0.16724 0.0
H516 H 0.84342 0.02837 0.16262 0.0
H517 H 0.81239 0.04318 0.19087 0.0
H518 H 0.78545 0.01187 0.1717 0.0
H519 H 0.77975 0.97503 0.21239 0.0
H520 H 0.80463 1.00728 0.23121 0.0
H521 H 0.83317 0.96865 0.23194 0.0
H522 H 0.0078 0.97812 0.19446 0.0
H523 H 0.0302 0.02493 0.22026 0.0
H524 H 0.87846 0.0511 0.22643 0.0
C525 C 0.83078 0.94717 0.16536 0.0
C526 C 0.85289 0.92285 0.15065 0.0
C527 C 0.90362 0.91886 0.15163 0.0
C528 C 0.93239 0.93897 0.16694 0.0
C529 C 0.90978 0.96302 0.18101 0.0
C530 C 0.86022 0.96732 0.18043 0.0
C531 C 0.8458 0.99627 0.19632 0.0
C532 C 0.82027 0.0214 0.17935 0.0
C533 C 0.81398 0.98616 0.21935 0.0
C534 C 0.89516 0.00795 0.20539 0.0
C535 C 0.93128 0.98805 0.19649 0.0
C536 C 0.9799 0.99383 0.20165 0.0
C537 C 0.99219 0.02073 0.21626 0.0
C538 C 0.95615 0.04196 0.22539 0.0
C539 C 0.90685 0.03529 0.21995 0.0
H540 H 0.86914 0.10275 0.67892 0.0
H541 H 0.80371 0.04648 0.61743 0.0
H542 H 0.82064 0.99714 0.6421 0.0
H543 H 0.96548 0.04982 0.69159 0.0
H544 H 0.96633 0.05586 0.72624 0.0
H545 H 0.94493 0.08706 0.70507 0.0
H546 H 0.86374 0.08852 0.73011 0.0
H547 H 0.88485 0.0572 0.75137 0.0
H548 H 0.8288 0.05233 0.73377 0.0
H549 H 0.84936 0.95421 0.67113 0.0
H550 H 0.89283 0.91938 0.70197 0.0
H551 H 0.93985 1.00235 0.74555 0.0
C552 C 0.85762 0.08003 0.67096 0.0
C553 C 0.83484 0.07835 0.64636 0.0
C554 C 0.82129 0.04822 0.63621 0.0
C555 C 0.83042 0.02013 0.65016 0.0
C556 C 0.85313 0.02254 0.67425 0.0
C557 C 0.86682 0.05164 0.68459 0.0
C558 C 0.89403 0.04718 0.71 0.0
C559 C 0.94576 0.06078 0.7081 0.0
C560 C 0.86618 0.0622 0.73266 0.0
C561 C 0.89428 0.011 0.71203 0.0
C562 C 0.8699 0.99741 0.69129 0.0
C563 C 0.86789 0.96451 0.68766 0.0
C564 C 0.89258 0.94495 0.70525 0.0
C565 C 0.91875 0.95828 0.72624 0.0
C566 C 0.91873 0.99166 0.73009 0.0
H567 H 0.65293 0.45714 0.13191 0.0
H568 H 0.64555 0.37724 0.18576 0.0
H569 H 0.61443 0.4132 0.21968 0.0
H570 H 0.6902 0.51612 0.17748 0.0
H571 H 0.65393 0.54757 0.16361 0.0
H572 H 0.67553 0.51569 0.14334 0.0
H573 H 0.58755 0.50301 0.12886 0.0
H574 H 0.56579 0.53506 0.14891 0.0
H575 H 0.542 0.49524 0.15312 0.0
H576 H 0.58662 0.45799 0.24811 0.0
H577 H 0.55889 0.50812 0.26834 0.0
H578 H 0.58072 0.55817 0.19537 0.0
C579 C 0.64409 0.44704 0.1507 0.0
C580 C 0.6519 0.41432 0.15619 0.0
C581 C 0.64061 0.40228 0.18121 0.0
C582 C 0.6227 0.42248 0.20056 0.0
C583 C 0.61595 0.45461 0.19456 0.0
C584 C 0.62584 0.46679 0.17018 0.0
C585 C 0.61522 0.50223 0.16877 0.0
C586 C 0.66148 0.52153 0.16296 0.0
C587 C 0.57526 0.50928 0.14873 0.0
C588 C 0.59776 0.50802 0.19617 0.0
C589 C 0.59885 0.48031 0.21079 0.0
C590 C 0.58541 0.47983 0.23684 0.0
C591 C 0.57002 0.50841 0.24819 0.0
C592 C 0.56773 0.53691 0.23338 0.0
C593 C 0.58189 0.53665 0.20707 0.0
H594 H 0.34505 0.4647 0.40331 0.0
H595 H 0.35797 0.38335 0.35157 0.0
H596 H 0.39139 0.41835 0.3177 0.0
H597 H 0.31219 0.52278 0.35462 0.0
H598 H 0.34762 0.55471 0.36853 0.0
H599 H 0.32368 0.5236 0.3891 0.0
H600 H 0.41006 0.51165 0.40625 0.0
H601 H 0.43419 0.54278 0.38574 0.0
H602 H 0.45759 0.50276 0.38348 0.0
H603 H 0.42369 0.46098 0.28944 0.0
H604 H 0.45489 0.50951 0.26835 0.0
H605 H 0.42282 0.56447 0.33747 0.0
C606 C 0.35512 0.45424 0.38491 0.0
C607 C 0.34795 0.42122 0.38005 0.0
C608 C 0.36169 0.4086 0.35563 0.0
C609 C 0.38115 0.42826 0.33627 0.0
C610 C 0.38723 0.46057 0.34157 0.0
C611 C 0.37495 0.47359 0.36526 0.0
C612 C 0.38601 0.50919 0.36572 0.0
C613 C 0.3396 0.52872 0.36973 0.0
C614 C 0.42423 0.51705 0.38654 0.0
C615 C 0.40618 0.51398 0.33858 0.0
C616 C 0.4064 0.48551 0.32507 0.0
C617 C 0.42338 0.48348 0.29973 0.0
C618 C 0.44055 0.5113 0.28779 0.0
C619 C 0.44029 0.54091 0.30101 0.0
C620 C 0.42326 0.54217 0.32687 0.0
H621 H 0.13796 0.10597 0.8457 0.0
H622 H 0.18326 0.05345 0.91434 0.0
H623 H 0.15992 1.00292 0.89327 0.0
H624 H 0.03451 0.0589 0.83139 0.0
H625 H 0.04195 0.06037 0.79664 0.0
H626 H 0.0647 0.09248 0.81646 0.0
H627 H 0.15083 0.08496 0.79729 0.0
H628 H 0.12724 0.05353 0.77709 0.0
H629 H 0.17818 0.04595 0.79819 0.0
H630 H 0.1281 0.95885 0.86646 0.0
H631 H 0.08867 0.92288 0.83514 0.0
H632 H 0.06451 1.00286 0.78288 0.0
C633 C 0.14348 0.08378 0.85612 0.0
C634 C 0.16209 0.08364 0.88173 0.0
C635 C 0.16835 0.05416 0.89487 0.0
C636 C 0.15559 0.02531 0.883 0.0
C637 C 0.13689 0.02629 0.8579 0.0
C638 C 0.13084 0.05465 0.84454 0.0
C639 C 0.10826 0.04886 0.81808 0.0
C640 C 0.05945 0.06618 0.81551 0.0
C641 C 0.14325 0.05889 0.79637 0.0
C642 C 0.10157 0.01287 0.81895 0.0
C643 C 0.11878 1.00045 0.84208 0.0
C644 C 0.11483 0.96817 0.84817 0.0
C645 C 0.09214 0.94798 0.8303 0.0
C646 C 0.07363 0.96008 0.8066 0.0
C647 C 0.07896 0.99291 0.80071 0.0
H648 H 0.1784 0.09517 0.97008 0.0
H649 H 0.15854 0.19784 0.96528 0.0
H650 H 0.14078 0.19908 1.01244 0.0
H651 H 0.07995 0.0805 0.01448 0.0
H652 H 0.11169 0.04886 0.03103 0.0
H653 H 0.12349 0.05668 0.99722 0.0
H654 H 0.21495 0.06346 1.0074 0.0
H655 H 0.20348 0.05566 0.0412 0.0
H656 H 0.23392 0.09196 0.0316 0.0
H657 H 0.12552 0.18808 0.06113 0.0
H658 H 0.11755 0.16624 0.10581 0.0
H659 H 0.14169 0.07084 0.07596 0.0
C660 C 0.16951 0.11798 0.97866 0.0
C661 C 0.16933 0.14638 0.96376 0.0
C662 C 0.15916 0.17575 0.97624 0.0
C663 C 0.14865 0.17664 1.00298 0.0
C664 C 0.14818 0.14796 0.01688 0.0
C665 C 0.15831 0.11922 1.005 0.0
C666 C 0.15572 0.09161 0.02385 0.0
C667 C 0.1153 0.06804 0.01618 0.0
C668 C 0.20495 0.0747 0.02614 0.0
C669 C 0.14329 0.10925 0.04844 0.0
C670 C 0.13888 0.14171 0.04423 0.0
C671 C 0.12873 0.16266 0.06456 0.0
C672 C 0.12399 0.15006 0.08983 0.0
C673 C 0.12958 0.11688 0.09445 0.0
C674 C 0.13818 0.09638 0.07324 0.0
H675 H 0.33774 0.43319 0.47445 0.0
H676 H 0.3458 0.3297 0.47874 0.0
H677 H 0.36276 0.33317 0.52561 0.0
H678 H 0.43704 0.44764 0.5214 0.0
H679 H 0.40797 0.48246 0.53459 0.0
H680 H 0.39862 0.47185 0.50105 0.0
H681 H 0.30585 0.47124 0.50842 0.0
H682 H 0.31482 0.48167 0.54196 0.0
H683 H 0.28078 0.44631 0.53367 0.0
H684 H 0.372 0.34786 0.57307 0.0
H685 H 0.37474 0.37274 0.61646 0.0
H686 H 0.36901 0.46655 0.58032 0.0
C687 C 0.34412 0.41122 0.48502 0.0
C688 C 0.3397 0.38114 0.47271 0.0
C689 C 0.34766 0.35306 0.48763 0.0
C690 C 0.35788 0.35476 0.51431 0.0
C691 C 0.36107 0.38473 0.52585 0.0
C692 C 0.35509 0.41247 0.5116 0.0
C693 C 0.35934 0.44167 0.52876 0.0
C694 C 0.40337 0.46211 0.52098 0.0
C695 C 0.3124 0.46136 0.52816 0.0
C696 C 0.36699 0.426 0.555 0.0
C697 C 0.36815 0.39316 0.55296 0.0
C698 C 0.37195 0.37361 0.57485 0.0
C699 C 0.37381 0.38803 0.59949 0.0
C700 C 0.37195 0.42174 0.60211 0.0
C701 C 0.36973 0.44075 0.57931 0.0
H702 H 0.67888 0.33501 0.04969 0.0
H703 H 0.66072 0.4356 0.06788 0.0
H704 H 0.63835 0.44636 0.02258 0.0
H705 H 0.73729 0.3493 0.98912 0.0
H706 H 0.71051 0.31516 0.97329 0.0
H707 H 0.71998 0.31468 1.00787 0.0
H708 H 0.62887 0.30212 0.01463 0.0
H709 H 0.61902 0.30308 0.98002 0.0
H710 H 0.584 0.32848 1.00096 0.0
H711 H 0.62034 0.44712 0.97514 0.0
H712 H 0.6188 0.43859 0.92753 0.0
H713 H 0.65453 0.33896 0.93923 0.0
C714 C 0.67026 0.35931 0.04424 0.0
C715 C 0.67036 0.3842 0.06277 0.0
C716 C 0.65911 0.41573 0.05449 0.0
C717 C 0.64657 0.42222 0.02868 0.0
C718 C 0.64607 0.39709 1.01111 0.0
C719 C 0.65842 0.36638 0.01838 0.0
C720 C 0.659 0.34428 0.99514 0.0
C721 C 0.70971 0.33003 0.99112 0.0
C722 C 0.62042 0.31793 0.99786 0.0
C723 C 0.64593 0.36755 0.97368 0.0
C724 C 0.63758 0.39776 0.9834 0.0
C725 C 0.6264 0.42353 0.96727 0.0
C726 C 0.62524 0.4185 0.94037 0.0
C727 C 0.63572 0.3881 0.93007 0.0
C728 C 0.64537 0.36223 0.94689 0.0
H729 H 0.81969 0.08829 0.55281 0.0
H730 H 0.87226 0.18538 0.56252 0.0
H731 H 0.89011 0.1884 0.51564 0.0
H732 H 0.90857 0.0649 0.50317 0.0
H733 H 0.86512 0.04095 0.48566 0.0
H734 H 0.85962 0.04565 0.52031 0.0
H735 H 0.77201 0.06643 0.51427 0.0
H736 H 0.77728 0.06192 0.47966 0.0
H737 H 0.76116 0.10009 0.49316 0.0
H738 H 0.89819 0.18189 0.4674 0.0
H739 H 0.89404 0.16664 0.42113 0.0
H740 H 0.83794 0.07345 0.44311 0.0
C741 C 0.83591 0.10995 0.54519 0.0
C742 C 0.8446 0.13661 0.56134 0.0
C743 C 0.86486 0.16477 0.55047 0.0
C744 C 0.87545 0.16664 0.52391 0.0
C745 C 0.86589 0.14007 0.50849 0.0
C746 C 0.84674 0.11222 0.51872 0.0
C747 C 0.83782 0.08763 0.49772 0.0
C748 C 0.86969 0.05803 0.50197 0.0
C749 C 0.78387 0.0785 0.49612 0.0
C750 C 0.85377 0.10632 0.47403 0.0
C751 C 0.87039 0.13637 0.48067 0.0
C752 C 0.8857 0.1583 0.46197 0.0
C753 C 0.88342 0.14937 0.43576 0.0
C754 C 0.86563 0.11888 0.4285 0.0
C755 C 0.8513 0.09703 0.44802 0.0
H756 H 0.81585 0.84986 0.0449 0.0
H757 H 0.81345 0.95069 0.06457 0.0
H758 H 0.83259 0.96453 0.01934 0.0
H759 H 0.91225 0.85413 0.99763 0.0
H760 H 0.88472 0.82586 0.97571 0.0
H761 H 0.87312 0.82314 1.01008 0.0
H762 H 0.78075 0.8263 1.00156 0.0
H763 H 0.79206 0.8285 0.96718 0.0
H764 H 0.75688 0.8591 0.98278 0.0
H765 H 0.85368 0.96797 0.97245 0.0
H766 H 0.86299 0.96082 0.92501 0.0
H767 H 0.84554 0.85855 0.93438 0.0
C768 C 0.81889 0.87485 0.03966 0.0
C769 C 0.81411 0.89912 0.05856 0.0
C770 C 0.81836 0.93155 0.05074 0.0
C771 C 0.82912 0.93973 0.02503 0.0
C772 C 0.83494 0.91528 1.00711 0.0
C773 C 0.82911 0.88353 0.01389 0.0
C774 C 0.83493 0.86211 0.99038 0.0
C775 C 0.87887 0.84 0.99366 0.0
C776 C 0.78837 0.84288 0.98517 0.0
C777 C 0.84391 0.8869 0.96936 0.0
C778 C 0.84494 0.91736 0.97961 0.0
C779 C 0.8529 0.94426 0.96415 0.0
C780 C 0.85849 0.94001 0.93734 0.0
C781 C 0.8553 0.90922 0.92632 0.0
C782 C 0.84855 0.8823 0.94254 0.0
H783 H 0.69009 0.66538 0.54299 0.0
H784 H 0.69779 0.56478 0.56393 0.0
H785 H 0.67958 0.55013 0.51895 0.0
H786 H 0.5971 0.65935 0.4936 0.0
H787 H 0.62582 0.68756 0.47203 0.0
H788 H 0.63448 0.69088 0.50662 0.0
H789 H 0.72751 0.68859 0.50058 0.0
H790 H 0.71918 0.68567 0.46599 0.0
H791 H 0.75366 0.65571 0.48303 0.0
H792 H 0.66068 0.54568 0.47192 0.0
H793 H 0.65485 0.55194 0.42419 0.0
H794 H 0.66891 0.65455 0.4323 0.0
C795 C 0.68824 0.64025 0.53822 0.0
C796 C 0.69404 0.61637 0.55751 0.0
C797 C 0.69144 0.58375 0.55005 0.0
C798 C 0.68143 0.57506 0.52439 0.0
C799 C 0.67515 0.59914 0.50609 0.0
C800 C 0.67944 0.63105 0.51248 0.0
C801 C 0.6751 0.65203 0.48855 0.0
C802 C 0.63047 0.67374 0.49032 0.0
C803 C 0.72164 0.67164 0.48429 0.0
C804 C 0.66855 0.62681 0.46774 0.0
C805 C 0.66745 0.59651 0.47843 0.0
C806 C 0.66162 0.56925 0.46325 0.0
C807 C 0.65816 0.57298 0.43628 0.0
C808 C 0.66149 0.60362 0.42488 0.0
C809 C 0.66616 0.6309 0.44077 0.0
H810 H 0.39721 0.63387 0.96587 0.0
H811 H 0.243 0.64764 0.97631 0.0
H812 H 0.25492 0.64958 0.02398 0.0
H813 H 0.41744 0.58454 0.02283 0.0
H814 H 0.47531 0.60244 0.03018 0.0
H815 H 0.45432 0.60061 0.99705 0.0
H816 H 0.46454 0.66195 0.99262 0.0
H817 H 0.48589 0.66394 0.02563 0.0
H818 H 0.43498 0.6878 0.01555 0.0
H819 H 0.28393 0.64892 0.07062 0.0
H820 H 0.32889 0.65243 0.11227 0.0
H821 H 0.4644 0.64232 0.07094 0.0
C822 C 0.36598 0.63716 0.97825 0.0
C823 C 0.31915 0.6405 0.96754 0.0
C824 C 0.27917 0.6452 0.98423 0.0
C825 C 0.28557 0.64607 1.01127 0.0
C826 C 0.33223 0.64248 0.02125 0.0
C827 C 0.37183 0.63853 1.00522 0.0
C828 C 0.41844 0.63689 0.02071 0.0
C829 C 0.4428 0.60417 0.0175 0.0
C830 C 0.45298 0.66428 0.01318 0.0
C831 C 0.39902 0.64106 0.04794 0.0
C832 C 0.34911 0.64355 0.04791 0.0
C833 C 0.32301 0.64717 0.07086 0.0
C834 C 0.34872 0.64903 0.09437 0.0
C835 C 0.3999 0.64787 0.09461 0.0
C836 C 0.42523 0.64348 0.07114 0.0
H837 H 0.14911 0.84598 0.46913 0.0
H838 H 0.22819 0.93561 0.47155 0.0
H839 H 0.21158 0.94004 0.51857 0.0
H840 H 0.05498 0.86941 0.51385 0.0
H841 H 0.05039 0.83047 0.52869 0.0
H842 H 0.06917 0.83417 0.49535 0.0
H843 H 0.14747 0.80266 0.5059 0.0
H844 H 0.129 0.799 0.53931 0.0
H845 H 0.18689 0.81651 0.53149 0.0
H846 H 0.19142 0.93256 0.56566 0.0
H847 H 0.16336 0.91666 0.60884 0.0
H848 H 0.08792 0.83535 0.57465 0.0
C849 C 0.16294 0.86646 0.47965 0.0
C850 C 0.19009 0.8904 0.4669 0.0
C851 C 0.20719 0.9171 0.48108 0.0
C852 C 0.19809 0.91975 0.50774 0.0
C853 C 0.1713 0.8957 0.51979 0.0
C854 C 0.15343 0.86978 0.50618 0.0
C855 C 0.12478 0.84766 0.52372 0.0
C856 C 0.07167 0.84531 0.51487 0.0
C857 C 0.14845 0.8145 0.52519 0.0
C858 C 0.12942 0.8652 0.5493 0.0
C859 C 0.15699 0.89255 0.54668 0.0
C860 C 0.16882 0.91155 0.56788 0.0
C861 C 0.15197 0.90239 0.59245 0.0
C862 C 0.12228 0.87482 0.59571 0.0
C863 C 0.1108 0.8563 0.57349 0.0
H864 H 0.12272 0.30569 0.37388 0.0
H865 H 0.27303 0.28056 0.36191 0.0
H866 H 0.24748 0.23417 0.33532 0.0
H867 H 0.08109 0.22256 0.38069 0.0
H868 H 0.02367 0.23029 0.36526 0.0
H869 H 0.05396 0.26153 0.38308 0.0
H870 H 0.05072 0.29805 0.34239 0.0
H871 H 0.02067 0.26688 0.32443 0.0
H872 H 0.07605 0.28414 0.31225 0.0
H873 H 0.2053 0.19317 0.30725 0.0
H874 H 0.14944 0.15642 0.28424 0.0
H875 H 0.02652 0.20507 0.31774 0.0
C876 C 0.15009 0.29024 0.36572 0.0
C877 C 0.19976 0.29658 0.36971 0.0
C878 C 0.23478 0.27586 0.35908 0.0
C879 C 0.2206 0.2496 0.34391 0.0
C880 C 0.17125 0.24402 0.34017 0.0
C881 C 0.13649 0.26333 0.35125 0.0
C882 C 0.08588 0.25132 0.3451 0.0
C883 C 0.05961 0.2408 0.37002 0.0
C884 C 0.05662 0.27661 0.33015 0.0
C885 C 0.09753 0.22289 0.32811 0.0
C886 C 0.14701 0.21923 0.32536 0.0
C887 C 0.16655 0.19556 0.30958 0.0
C888 C 0.13468 0.17497 0.29645 0.0
C889 C 0.08407 0.17803 0.29941 0.0
C890 C 0.06524 0.20212 0.31553 0.0
H891 H 0.28111 0.24499 0.86581 0.0
H892 H 0.35049 0.16434 0.8286 0.0
H893 H 0.40098 0.20116 0.80287 0.0
H894 H 0.27909 0.29657 0.80859 0.0
H895 H 0.29278 0.33276 0.82607 0.0
H896 H 0.26043 0.30073 0.84192 0.0
H897 H 0.3246 0.29869 0.87852 0.0
H898 H 0.35684 0.33115 0.86328 0.0
H899 H 0.38758 0.29421 0.87024 0.0
H900 H 0.44774 0.24521 0.78364 0.0
H901 H 0.48705 0.29555 0.77022 0.0
H902 H 0.38535 0.34916 0.81688 0.0
C903 C 0.30679 0.2352 0.85215 0.0
C904 C 0.31213 0.20179 0.84918 0.0
C905 C 0.34603 0.18984 0.83116 0.0
C906 C 0.37477 0.21054 0.81642 0.0
C907 C 0.36895 0.24323 0.81976 0.0
C908 C 0.33578 0.25569 0.83702 0.0
C909 C 0.33796 0.29198 0.83695 0.0
C910 C 0.28969 0.30636 0.82784 0.0
C911 C 0.35262 0.30475 0.86385 0.0
C912 C 0.37773 0.29771 0.81715 0.0
C913 C 0.39515 0.26914 0.80768 0.0
C914 C 0.4341 0.26779 0.79063 0.0
C915 C 0.45631 0.29642 0.78323 0.0
C916 C 0.4389 0.32599 0.79245 0.0
C917 C 0.39869 0.32674 0.80932 0.0
H918 H 0.69142 0.20272 0.70364 0.0
H919 H 0.73738 0.24653 0.63128 0.0
H920 H 0.69259 0.29549 0.64248 0.0
H921 H 0.5712 0.23584 0.70455 0.0
H922 H 0.57097 0.24175 0.7392 0.0
H923 H 0.60642 0.21009 0.72534 0.0
H924 H 0.68334 0.23258 0.74799 0.0
H925 H 0.64808 0.26435 0.76184 0.0
H926 H 0.70064 0.27363 0.74255 0.0
H927 H 0.64269 0.34006 0.66184 0.0
H928 H 0.593 0.37671 0.68848 0.0
H929 H 0.57906 0.30308 0.74742 0.0
C930 C 0.69199 0.22264 0.69018 0.0
C931 C 0.71781 0.22084 0.66666 0.0
C932 C 0.71785 0.24735 0.64947 0.0
C933 C 0.69246 0.27528 0.65563 0.0
C934 C 0.66727 0.27628 0.67901 0.0
C935 C 0.66688 0.25066 0.69602 0.0
C936 C 0.63741 0.25792 0.72 0.0
C937 C 0.59393 0.23504 0.7224 0.0
C938 C 0.66928 0.25707 0.74454 0.0
C939 C 0.62124 0.29155 0.71379 0.0
C940 C 0.63879 0.30181 0.6901 0.0
C941 C 0.62879 0.33228 0.68045 0.0
C942 C 0.60052 0.35287 0.69561 0.0
C943 C 0.58296 0.34285 0.72009 0.0
C944 C 0.59286 0.31162 0.72898 0.0
H945 H 0.8131 0.2725 0.1434 0.0
H946 H 0.84937 0.35074 0.19516 0.0
H947 H 0.89258 0.31354 0.22403 0.0
H948 H 0.79578 0.21219 0.19379 0.0
H949 H 0.82314 0.18043 0.17547 0.0
H950 H 0.79332 0.21278 0.1588 0.0
H951 H 0.87171 0.22411 0.13271 0.0
H952 H 0.90167 0.19184 0.1494 0.0
H953 H 0.92762 0.2314 0.1499 0.0
H954 H 0.93003 0.26914 0.24778 0.0
H955 H 0.96396 0.21887 0.26469 0.0
H956 H 0.90887 0.16833 0.19727 0.0
C957 C 0.83014 0.28165 0.16084 0.0
C958 C 0.82796 0.31452 0.16715 0.0
C959 C 0.85079 0.32568 0.19001 0.0
C960 C 0.87531 0.30475 0.20655 0.0
C961 C 0.87713 0.27264 0.19988 0.0
C962 C 0.85553 0.26096 0.17757 0.0
C963 C 0.8643 0.22525 0.17504 0.0
C964 C 0.81627 0.20657 0.17582 0.0
C965 C 0.89304 0.21772 0.15029 0.0
C966 C 0.89437 0.21901 0.19927 0.0
C967 C 0.90067 0.24673 0.21338 0.0
C968 C 0.92565 0.24726 0.23687 0.0
C969 C 0.94469 0.21861 0.24633 0.0
C970 C 0.93925 0.18991 0.23218 0.0
C971 C 0.91407 0.19011 0.20823 0.0
H972 H 0.81098 0.75595 0.63489 0.0
H973 H 0.78997 0.68665 0.6965 0.0
H974 H 0.85013 0.71492 0.72363 0.0
H975 H 0.94279 0.77282 0.64729 0.0
H976 H 0.93618 0.81496 0.64107 0.0
H977 H 0.89781 0.7866 0.62448 0.0
H978 H 0.82182 0.81609 0.64141 0.0
H979 H 0.85992 0.84441 0.65804 0.0
H980 H 0.81481 0.82222 0.67584 0.0
H981 H 0.90593 0.75217 0.74541 0.0
H982 H 0.95211 0.79843 0.76178 0.0
H983 H 0.93422 0.84674 0.68798 0.0
C984 C 0.82043 0.74635 0.65377 0.0
C985 C 0.79693 0.71885 0.6636 0.0
C986 C 0.80834 0.70747 0.6887 0.0
C987 C 0.84247 0.7233 0.70415 0.0
C988 C 0.86445 0.75073 0.69429 0.0
C989 C 0.85396 0.76236 0.66975 0.0
C990 C 0.87886 0.79436 0.66522 0.0
C991 C 0.91611 0.79203 0.6432 0.0
C992 C 0.84162 0.82082 0.65982 0.0
C993 C 0.90372 0.79915 0.69126 0.0
C994 C 0.8955 0.77332 0.70747 0.0
C995 C 0.91279 0.77245 0.73287 0.0
C996 C 0.93844 0.79892 0.74212 0.0
C997 C 0.94581 0.82607 0.72629 0.0
C998 C 0.92928 0.826 0.70033 0.0
H999 H 0.67608 0.81703 0.20026 0.0
H1000 H 0.70864 0.77361 0.12602 0.0
H1001 H 0.66872 0.72355 0.14046 0.0
H1002 H 0.69482 0.74613 0.23999 0.0
H1003 H 0.64643 0.75767 0.26149 0.0
H1004 H 0.67999 0.7877 0.24423 0.0
H1005 H 0.59676 0.80839 0.22682 0.0
H1006 H 0.56531 0.77636 0.24308 0.0
H1007 H 0.55843 0.78166 0.20852 0.0
H1008 H 0.62607 0.67773 0.16374 0.0
H1009 H 0.58138 0.64098 0.19311 0.0
H1010 H 0.5745 0.71515 0.25139 0.0
C1011 C 0.67471 0.79697 0.18703 0.0
C1012 C 0.69543 0.79917 0.16206 0.0
C1013 C 0.69301 0.77247 0.14526 0.0
C1014 C 0.67046 0.74393 0.15332 0.0
C1015 C 0.65053 0.74253 0.1782 0.0
C1016 C 0.65226 0.76845 0.19472 0.0
C1017 C 0.62797 0.76104 0.22038 0.0
C1018 C 0.66456 0.76321 0.24283 0.0
C1019 C 0.58452 0.78318 0.22495 0.0
C1020 C 0.61184 0.72689 0.21577 0.0
C1021 C 0.62556 0.71653 0.19137 0.0
C1022 C 0.61515 0.68565 0.18283 0.0
C1023 C 0.5899 0.66497 0.19957 0.0
C1024 C 0.57462 0.67546 0.22428 0.0
C1025 C 0.5859 0.7067 0.23253 0.0
H1026 H 0.34664 0.81988 0.32908 0.0
H1027 H 0.26776 0.76866 0.38901 0.0
H1028 H 0.29802 0.71752 0.37176 0.0
H1029 H 0.32766 0.76263 0.27752 0.0
H1030 H 0.38749 0.76766 0.26416 0.0
H1031 H 0.35892 0.80029 0.28087 0.0
H1032 H 0.4325 0.80449 0.31211 0.0
H1033 H 0.46133 0.772 0.2954 0.0
H1034 H 0.4516 0.76961 0.32994 0.0
H1035 H 0.34003 0.6724 0.34955 0.0
H1036 H 0.39094 0.63606 0.32357 0.0
H1037 H 0.44005 0.71601 0.27683 0.0
C1038 C 0.33563 0.79784 0.33846 0.0
C1039 C 0.30491 0.79816 0.36033 0.0
C1040 C 0.29132 0.76896 0.37224 0.0
C1041 C 0.30823 0.7398 0.36254 0.0
C1042 C 0.33851 0.74031 0.34093 0.0
C1043 C 0.35215 0.76854 0.32902 0.0
C1044 C 0.38603 0.76248 0.30646 0.0
C1045 C 0.36367 0.77395 0.28073 0.0
C1046 C 0.4358 0.77807 0.31127 0.0
C1047 C 0.38925 0.72641 0.30749 0.0
C1048 C 0.36173 0.71414 0.32763 0.0
C1049 C 0.36124 0.68167 0.33356 0.0
C1050 C 0.3902 0.66128 0.31878 0.0
C1051 C 0.41858 0.67338 0.29814 0.0
C1052 C 0.41759 0.70624 0.29215 0.0
H1053 H 0.19805 0.73801 0.87594 0.0
H1054 H 0.23521 0.6837 0.80722 0.0
H1055 H 0.18118 0.71745 0.78082 0.0
H1056 H 0.07058 0.75446 0.85831 0.0
H1057 H 0.07219 0.79474 0.87054 0.0
H1058 H 0.10995 0.76451 0.88508 0.0
H1059 H 0.1858 0.7997 0.87677 0.0
H1060 H 0.1482 0.82997 0.86228 0.0
H1061 H 0.19821 0.81367 0.8443 0.0
H1062 H 0.12743 0.75743 0.76138 0.0
H1063 H 0.07906 0.80423 0.74899 0.0
H1064 H 0.07754 0.83547 0.82935 0.0
C1065 C 0.19401 0.733 0.85542 0.0
C1066 C 0.2203 0.70806 0.84353 0.0
C1067 C 0.21515 0.70261 0.8166 0.0
C1068 C 0.18445 0.72155 0.80149 0.0
C1069 C 0.15937 0.74611 0.81357 0.0
C1070 C 0.16383 0.75215 0.83985 0.0
C1071 C 0.13529 0.78174 0.84728 0.0
C1072 C 0.09459 0.77334 0.86645 0.0
C1073 C 0.16889 0.8078 0.8583 0.0
C1074 C 0.11482 0.7914 0.82101 0.0
C1075 C 0.12885 0.77017 0.802 0.0
C1076 C 0.11599 0.7742 0.77608 0.0
C1077 C 0.08862 0.80093 0.76923 0.0
C1078 C 0.07464 0.82354 0.78817 0.0
C1079 C 0.0873 0.81841 0.8145 0.0
loop_
_geom_bond_atom_site_label_1
_geom_bond_atom_site_label_2
_geom_bond_distance
_geom_bond_site_symmetry_2
_ccdc_geom_bond_type
H0 C5 0.930 . S
H1 C8 0.930 . S
H2 C10 0.930 . S
H3 C4 1.016 . S
C4 H3 1.016 . S
C4 N11 1.286 . S
C5 H0 0.930 . S
C5 C6 1.397 . S
C5 C7 1.361 . S
C6 C5 1.397 . S
C6 C10 1.390 . S
C7 C5 1.361 . S
C7 C8 1.393 . S
C7 N11 1.413 . S
C8 H1 0.930 . S
C8 C7 1.393 . S
C8 C9 1.399 . S
C9 C8 1.399 . S
C9 C10 1.381 . S
C10 H2 0.930 . S
C10 C6 1.390 . S
C10 C9 1.381 . S
N11 C4 1.286 . S
N11 C7 1.413 . S
H12 C17 0.930 . S
H13 C20 0.930 . S
H14 C22 0.930 . S
H15 C16 1.016 . S
C16 H15 1.016 . S
C16 N23 1.286 . S
C17 H12 0.930 . S
C17 C18 1.397 . S
C17 C19 1.361 . S
C18 C17 1.397 . S
C18 C22 1.390 . S
C19 C17 1.361 . S
C19 C20 1.393 . S
C19 N23 1.413 . S
C20 H13 0.930 . S
C20 C19 1.393 . S
C20 C21 1.399 . S
C21 C20 1.399 . S
C21 C22 1.381 . S
C22 H14 0.930 . S
C22 C18 1.390 . S
C22 C21 1.381 . S
N23 C16 1.286 . S
N23 C19 1.413 . S
H24 C29 0.930 . S
H25 C32 0.930 . S
H26 C34 0.930 . S
H27 C28 1.016 . S
C28 H27 1.016 . S
C28 N35 1.286 . S
C29 H24 0.930 . S
C29 C30 1.397 . S
C29 C31 1.361 . S
C30 C29 1.397 . S
C30 C34 1.390 . S
C31 C29 1.361 . S
C31 C32 1.393 . S
C31 N35 1.413 . S
C32 H25 0.930 . S
C32 C31 1.393 . S
C32 C33 1.399 . S
C33 C32 1.399 . S
C33 C34 1.381 . S
C34 H26 0.930 . S
C34 C30 1.390 . S
C34 C33 1.381 . S
N35 C28 1.286 . S
N35 C31 1.413 . S
H36 C41 0.930 . S
H37 C44 0.930 . S
H38 C46 0.930 . S
H39 C40 1.016 . S
C40 H39 1.016 . S
C40 N47 1.286 . S
C41 H36 0.930 . S
C41 C42 1.397 . S
C41 C43 1.361 . S
C42 C41 1.397 . S
C42 C46 1.390 . S
C43 C41 1.361 . S
C43 C44 1.393 . S
C43 N47 1.413 . S
C44 H37 0.930 . S
C44 C43 1.393 . S
C44 C45 1.399 . S
C45 C44 1.399 . S
C45 C46 1.381 . S
C46 H38 0.930 . S
C46 C42 1.390 . S
C46 C45 1.381 . S
N47 C40 1.286 . S
N47 C43 1.413 . S
H48 C53 0.930 . S
H49 C56 0.930 . S
H50 C58 0.930 . S
H51 C52 1.016 . S
C52 H51 1.016 . S
C52 N59 1.286 . S
C53 H48 0.930 . S
C53 C54 1.397 . S
C53 C55 1.361 . S
C54 C53 1.397 . S
C54 C58 1.390 . S
C55 C53 1.361 . S
C55 C56 1.393 . S
C55 N59 1.413 . S
C56 H49 0.930 . S
C56 C55 1.393 . S
C56 C57 1.399 . S
C57 C56 1.399 . S
C57 C58 1.381 . S
C58 H50 0.930 . S
C58 C54 1.390 . S
C58 C57 1.381 . S
N59 C52 1.286 . S
N59 C55 1.413 . S
H60 C65 0.930 . S
H61 C68 0.930 . S
H62 C70 0.930 . S
H63 C64 1.016 . S
C64 H63 1.016 . S
C64 N71 1.286 . S
C65 H60 0.930 . S
C65 C66 1.397 . S
C65 C67 1.361 . S
C66 C65 1.397 . S
C66 C70 1.390 . S
C67 C65 1.361 . S
C67 C68 1.393 . S
C67 N71 1.413 . S
C68 H61 0.930 . S
C68 C67 1.393 . S
C68 C69 1.399 . S
C69 C68 1.399 . S
C69 C70 1.381 . S
C70 H62 0.930 . S
C70 C66 1.390 . S
C70 C69 1.381 . S
N71 C64 1.286 . S
N71 C67 1.413 . S
H72 C77 0.930 . S
H73 C80 0.930 . S
H74 C82 0.930 . S
H75 C76 1.016 . S
C76 H75 1.016 . S
C76 N83 1.286 . S
C77 H72 0.930 . S
C77 C78 1.397 . S
C77 C79 1.361 . S
C78 C77 1.397 . S
C78 C82 1.390 . S
C79 C77 1.361 . S
C79 C80 1.393 . S
C79 N83 1.413 . S
C80 H73 0.930 . S
C80 C79 1.393 . S
C80 C81 1.399 . S
C81 C80 1.399 . S
C81 C82 1.381 . S
C82 H74 0.930 . S
C82 C78 1.390 . S
C82 C81 1.381 . S
N83 C76 1.286 . S
N83 C79 1.413 . S
H84 C89 0.930 . S
H85 C92 0.930 . S
H86 C94 0.930 . S
H87 C88 1.016 . S
C88 H87 1.016 . S
C88 N95 1.286 . S
C89 H84 0.930 . S
C89 C90 1.397 . S
C89 C91 1.361 . S
C90 C89 1.397 . S
C90 C94 1.390 . S
C91 C89 1.361 . S
C91 C92 1.393 . S
C91 N95 1.413 . S
C92 H85 0.930 . S
C92 C91 1.393 . S
C92 C93 1.399 . S
C93 C92 1.399 . S
C93 C94 1.381 . S
C94 H86 0.930 . S
C94 C90 1.390 . S
C94 C93 1.381 . S
N95 C88 1.286 . S
N95 C91 1.413 . S
Tb96 N125 2.617 . S
Tb96 N131 2.572 . S
Tb96 O140 2.465 . S
Tb96 O141 2.387 . S
Tb96 O143 2.428 . S
Tb96 O144 2.294 1_455 S
Tb96 O148 2.352 . S
Tb96 O151 2.393 . S
Tb96 C160 2.802 . S
C97 N98 1.379 . S
C97 C100 1.416 . S
C97 C104 1.424 . S
N98 C97 1.379 . S
N98 C101 1.334 . S
N98 Tb107 2.617 . S
C99 C101 1.390 . S
C99 C102 1.339 . S
C99 H119 0.930 . S
C100 C97 1.416 . S
C100 C102 1.416 . S
C100 C106 1.448 . S
C101 N98 1.334 . S
C101 C99 1.390 . S
C101 H112 0.930 . S
C102 C99 1.339 . S
C102 C100 1.416 . S
C102 H123 0.930 . S
C103 C104 1.413 . S
C103 C105 1.427 . S
C103 C109 1.416 1_545 S
C104 C97 1.424 . S
C104 C103 1.413 . S
C104 N108 1.361 . S
C105 C103 1.427 . S
C105 C106 1.328 . S
C105 H120 0.923 1_545 S
C106 C100 1.448 . S
C106 C105 1.328 . S
C106 H121 0.930 . S
Tb107 N98 2.617 . S
Tb107 N108 2.572 . S
Tb107 O142 2.349 1_655 S
Tb107 O145 2.393 . S
Tb107 O146 2.465 . S
Tb107 O147 2.387 . S
Tb107 O149 2.428 . S
Tb107 O150 2.308 1_655 S
Tb107 C171 2.802 . S
N108 C104 1.361 . S
N108 Tb107 2.572 . S
N108 C110 1.340 . S
C109 C103 1.416 1_565 S
C109 C111 1.332 . S
C109 H117 0.931 . S
C110 N108 1.340 . S
C110 C111 1.407 1_545 S
C110 H116 0.930 . S
C111 C109 1.332 . S
C111 C110 1.407 1_565 S
C111 H113 0.929 . S
H112 C101 0.930 . S
H113 C111 0.929 . S
H114 C129 0.930 . S
H115 C136 0.929 . S
H116 C110 0.930 . S
H117 C109 0.931 . S
H118 C132 0.930 . S
H119 C99 0.930 . S
H120 C105 0.923 1_565 S
H121 C106 0.930 . S
H122 C127 0.930 . S
H123 C102 0.930 . S
H124 C135 0.931 . S
N125 Tb96 2.617 . S
N125 C126 1.379 . S
N125 C129 1.334 . S
C126 N125 1.379 . S
C126 C128 1.416 . S
C126 C134 1.424 . S
C127 H122 0.930 . S
C127 C129 1.390 . S
C127 C130 1.339 . S
C128 C126 1.416 . S
C128 C130 1.416 . S
C128 C161 1.448 . S
C129 H114 0.930 . S
C129 N125 1.334 . S
C129 C127 1.390 . S
C130 C127 1.339 . S
C130 C128 1.416 . S
C130 H137 0.930 . S
N131 Tb96 2.572 . S
N131 C132 1.340 . S
N131 C134 1.361 . S
C132 H118 0.930 . S
C132 N131 1.340 . S
C132 C136 1.407 . S
C133 C134 1.413 . S
C133 C135 1.416 . S
C133 C162 1.427 . S
C134 C126 1.424 . S
C134 N131 1.361 . S
C134 C133 1.413 . S
C135 H124 0.931 . S
C135 C133 1.416 . S
C135 C136 1.332 . S
C136 H115 0.929 . S
C136 C132 1.407 . S
C136 C135 1.332 . S
H137 C130 0.930 . S
H138 C161 0.930 . S
H139 C162 0.929 . S
O140 Tb96 2.465 . S
O140 C160 1.264 . S
O141 Tb96 2.387 . S
O141 C152 1.264 . S
O142 Tb107 2.349 1_455 S
O142 C152 1.243 . S
O143 Tb96 2.428 . S
O143 C160 1.256 . S
O144 Tb96 2.294 1_655 S
O144 C159 1.283 . S
O145 Tb107 2.393 . S
O145 C159 1.248 . S
O146 Tb107 2.465 . S
O146 C171 1.264 . S
O147 Tb107 2.387 . S
O147 C163 1.264 . S
O148 Tb96 2.352 . S
O148 C163 1.240 1_455 S
O149 Tb107 2.428 . S
O149 C171 1.256 . S
O150 Tb107 2.308 1_455 S
O150 C170 1.266 . S
O151 Tb96 2.393 . S
O151 C170 1.248 . S
C152 O141 1.264 . S
C152 O142 1.243 . S
C153 C156 1.399 . S
C153 C158 1.383 . S
C153 C160 1.496 . S
C154 C155 1.399 . S
C154 C158 1.389 . S
C155 C154 1.399 . S
C155 C157 1.380 . S
C155 H172 0.929 . S
C156 C153 1.399 . S
C156 C157 1.392 . S
C156 H173 0.929 . S
C157 C155 1.380 . S
C157 C156 1.392 . S
C157 H174 0.929 . S
C158 C153 1.383 . S
C158 C154 1.389 . S
C158 H175 0.931 . S
C159 O144 1.283 . S
C159 O145 1.248 . S
C160 Tb96 2.802 . S
C160 O140 1.264 . S
C160 O143 1.256 . S
C160 C153 1.496 . S
C161 C128 1.448 . S
C161 H138 0.930 . S
C161 C162 1.328 . S
C162 C133 1.427 . S
C162 H139 0.929 . S
C162 C161 1.328 . S
C163 O147 1.264 . S
C163 O148 1.240 1_655 S
C164 C167 1.399 . S
C164 C168 1.383 . S
C164 C171 1.496 . S
C165 C166 1.399 . S
C165 C168 1.389 . S
C166 C165 1.399 . S
C166 C169 1.380 . S
C166 H176 0.929 . S
C167 C164 1.399 . S
C167 C169 1.392 . S
C167 H177 0.929 . S
C168 C164 1.383 . S
C168 C165 1.389 . S
C168 H178 0.931 . S
C169 C166 1.380 . S
C169 C167 1.392 . S
C169 H179 0.929 . S
C170 O150 1.266 . S
C170 O151 1.248 . S
C171 Tb107 2.802 . S
C171 O146 1.264 . S
C171 O149 1.256 . S
C171 C164 1.496 . S
H172 C155 0.929 . S
H173 C156 0.929 . S
H174 C157 0.929 . S
H175 C158 0.931 . S
H176 C166 0.929 . S
H177 C167 0.929 . S
H178 C168 0.931 . S
H179 C169 0.929 . S
Tb180 N209 2.617 . S
Tb180 N215 2.572 . S
Tb180 O224 2.465 . S
Tb180 O225 2.387 . S
Tb180 O227 2.428 . S
Tb180 O228 2.308 . S
Tb180 O232 2.349 . S
Tb180 O235 2.393 . S
Tb180 C244 2.802 . S
C181 N182 1.379 . S
C181 C184 1.416 . S
C181 C188 1.424 . S
N182 C181 1.379 . S
N182 C185 1.334 . S
N182 Tb191 2.617 . S
C183 C185 1.390 . S
C183 C186 1.339 . S
C183 H203 0.930 . S
C184 C181 1.416 . S
C184 C186 1.416 . S
C184 C190 1.448 . S
C185 N182 1.334 . S
C185 C183 1.390 . S
C185 H196 0.930 . S
C186 C183 1.339 . S
C186 C184 1.416 . S
C186 H207 0.930 . S
C187 C188 1.413 . S
C187 C189 1.427 . S
C187 C193 1.416 . S
C188 C181 1.424 . S
C188 C187 1.413 . S
C188 N192 1.361 . S
C189 C187 1.427 . S
C189 C190 1.328 . S
C189 H204 0.929 . S
C190 C184 1.448 . S
C190 C189 1.328 . S
C190 H205 0.930 . S
Tb191 N182 2.617 . S
Tb191 N192 2.572 . S
Tb191 O226 2.349 . S
Tb191 O229 2.393 . S
Tb191 O230 2.465 . S
Tb191 O231 2.387 . S
Tb191 O233 2.428 . S
Tb191 O234 2.308 . S
Tb191 C255 2.802 . S
N192 C188 1.361 . S
N192 Tb191 2.572 . S
N192 C194 1.340 . S
C193 C187 1.416 . S
C193 C195 1.332 . S
C193 H201 0.931 . S
C194 N192 1.340 . S
C194 C195 1.407 . S
C194 H200 0.930 . S
C195 C193 1.332 . S
C195 C194 1.407 . S
C195 H197 0.929 . S
H196 C185 0.930 . S
H197 C195 0.929 . S
H198 C213 0.930 . S
H199 C220 0.929 . S
H200 C194 0.930 . S
H201 C193 0.931 . S
H202 C216 0.930 . S
H203 C183 0.930 . S
H204 C189 0.929 . S
H205 C190 0.930 . S
H206 C211 0.930 . S
H207 C186 0.930 . S
H208 C219 0.931 . S
N209 Tb180 2.617 . S
N209 C210 1.379 . S
N209 C213 1.334 . S
C210 N209 1.379 . S
C210 C212 1.416 . S
C210 C218 1.424 . S
C211 H206 0.930 . S
C211 C213 1.390 . S
C211 C214 1.339 . S
C212 C210 1.416 . S
C212 C214 1.416 . S
C212 C245 1.448 . S
C213 H198 0.930 . S
C213 N209 1.334 . S
C213 C211 1.390 . S
C214 C211 1.339 . S
C214 C212 1.416 . S
C214 H221 0.930 . S
N215 Tb180 2.572 . S
N215 C216 1.340 . S
N215 C218 1.361 . S
C216 H202 0.930 . S
C216 N215 1.340 . S
C216 C220 1.407 . S
C217 C218 1.413 . S
C217 C219 1.416 . S
C217 C246 1.427 . S
C218 C210 1.424 . S
C218 N215 1.361 . S
C218 C217 1.413 . S
C219 H208 0.931 . S
C219 C217 1.416 . S
C219 C220 1.332 . S
C220 H199 0.929 . S
C220 C216 1.407 . S
C220 C219 1.332 . S
H221 C214 0.930 . S
H222 C245 0.930 . S
H223 C246 0.929 . S
O224 Tb180 2.465 . S
O224 C244 1.264 . S
O225 Tb180 2.387 . S
O225 C236 1.264 . S
O226 Tb191 2.349 . S
O226 C236 1.243 . S
O227 Tb180 2.428 . S
O227 C244 1.256 . S
O228 Tb180 2.308 . S
O228 C243 1.266 . S
O229 Tb191 2.393 . S
O229 C243 1.248 . S
O230 Tb191 2.465 . S
O230 C255 1.264 . S
O231 Tb191 2.387 . S
O231 C247 1.264 . S
O232 Tb180 2.349 . S
O232 C247 1.243 . S
O233 Tb191 2.428 . S
O233 C255 1.256 . S
O234 Tb191 2.308 . S
O234 C254 1.266 . S
O235 Tb180 2.393 . S
O235 C254 1.248 . S
C236 O225 1.264 . S
C236 O226 1.243 . S
C237 C240 1.399 . S
C237 C242 1.383 . S
C237 C244 1.496 . S
C238 C239 1.399 . S
C238 C242 1.389 . S
C239 C238 1.399 . S
C239 C241 1.380 . S
C239 H256 0.929 . S
C240 C237 1.399 . S
C240 C241 1.392 . S
C240 H257 0.929 . S
C241 C239 1.380 . S
C241 C240 1.392 . S
C241 H258 0.929 . S
C242 C237 1.383 . S
C242 C238 1.389 . S
C242 H259 0.931 . S
C243 O228 1.266 . S
C243 O229 1.248 . S
C244 Tb180 2.802 . S
C244 O224 1.264 . S
C244 O227 1.256 . S
C244 C237 1.496 . S
C245 C212 1.448 . S
C245 H222 0.930 . S
C245 C246 1.328 . S
C246 C217 1.427 . S
C246 H223 0.929 . S
C246 C245 1.328 . S
C247 O231 1.264 . S
C247 O232 1.243 . S
C248 C251 1.399 . S
C248 C252 1.383 . S
C248 C255 1.496 . S
C249 C250 1.399 . S
C249 C252 1.389 . S
C250 C249 1.399 . S
C250 C253 1.380 . S
C250 H260 0.929 . S
C251 C248 1.399 . S
C251 C253 1.392 . S
C251 H261 0.929 . S
C252 C248 1.383 . S
C252 C249 1.389 . S
C252 H262 0.931 . S
C253 C250 1.380 . S
C253 C251 1.392 . S
C253 H263 0.929 . S
C254 O234 1.266 . S
C254 O235 1.248 . S
C255 Tb191 2.802 . S
C255 O230 1.264 . S
C255 O233 1.256 . S
C255 C248 1.496 . S
H256 C239 0.929 . S
H257 C240 0.929 . S
H258 C241 0.929 . S
H259 C242 0.931 . S
H260 C250 0.929 . S
H261 C251 0.929 . S
H262 C252 0.931 . S
H263 C253 0.929 . S
Tb264 N293 2.617 . S
Tb264 N299 2.572 . S
Tb264 O308 2.465 . S
Tb264 O309 2.387 . S
Tb264 O311 2.428 . S
Tb264 O312 2.308 . S
Tb264 O316 2.349 . S
Tb264 O319 2.393 . S
Tb264 C328 2.802 . S
C265 N266 1.379 . S
C265 C268 1.416 . S
C265 C272 1.424 . S
N266 C265 1.379 . S
N266 C269 1.334 . S
N266 Tb275 2.617 . S
C267 C269 1.390 . S
C267 C270 1.339 . S
C267 H287 0.930 . S
C268 C265 1.416 . S
C268 C270 1.416 . S
C268 C274 1.448 . S
C269 N266 1.334 . S
C269 C267 1.390 . S
C269 H280 0.930 . S
C270 C267 1.339 . S
C270 C268 1.416 . S
C270 H291 0.930 . S
C271 C272 1.413 . S
C271 C273 1.427 . S
C271 C277 1.416 . S
C272 C265 1.424 . S
C272 C271 1.413 . S
C272 N276 1.361 . S
C273 C271 1.427 . S
C273 C274 1.328 . S
C273 H288 0.929 . S
C274 C268 1.448 . S
C274 C273 1.328 . S
C274 H289 0.930 . S
Tb275 N266 2.617 . S
Tb275 N276 2.572 . S
Tb275 O310 2.349 1_655 S
Tb275 O313 2.393 . S
Tb275 O314 2.465 . S
Tb275 O315 2.387 . S
Tb275 O317 2.428 . S
Tb275 O318 2.308 1_655 S
Tb275 C339 2.802 . S
N276 C272 1.361 . S
N276 Tb275 2.572 . S
N276 C278 1.340 . S
C277 C271 1.416 . S
C277 C279 1.332 . S
C277 H285 0.931 . S
C278 N276 1.340 . S
C278 C279 1.407 . S
C278 H284 0.930 . S
C279 C277 1.332 . S
C279 C278 1.407 . S
C279 H281 0.929 . S
H280 C269 0.930 . S
H281 C279 0.929 . S
H282 C297 0.930 . S
H283 C304 0.929 . S
H284 C278 0.930 . S
H285 C277 0.931 . S
H286 C300 0.930 . S
H287 C267 0.930 . S
H288 C273 0.929 . S
H289 C274 0.930 . S
H290 C295 0.930 . S
H291 C270 0.930 . S
H292 C303 0.931 . S
N293 Tb264 2.617 . S
N293 C294 1.379 . S
N293 C297 1.334 . S
C294 N293 1.379 . S
C294 C296 1.416 . S
C294 C302 1.424 . S
C295 H290 0.930 . S
C295 C297 1.390 . S
C295 C298 1.339 . S
C296 C294 1.416 . S
C296 C298 1.416 . S
C296 C329 1.448 . S
C297 H282 0.930 . S
C297 N293 1.334 . S
C297 C295 1.390 . S
C298 C295 1.339 . S
C298 C296 1.416 . S
C298 H305 0.930 . S
N299 Tb264 2.572 . S
N299 C300 1.340 . S
N299 C302 1.361 . S
C300 H286 0.930 . S
C300 N299 1.340 . S
C300 C304 1.407 1_565 S
C301 C302 1.413 . S
C301 C303 1.416 1_565 S
C301 C330 1.427 . S
C302 C294 1.424 . S
C302 N299 1.361 . S
C302 C301 1.413 . S
C303 H292 0.931 . S
C303 C301 1.416 1_545 S
C303 C304 1.332 . S
C304 H283 0.929 . S
C304 C300 1.407 1_545 S
C304 C303 1.332 . S
H305 C298 0.930 . S
H306 C329 0.930 . S
H307 C330 0.923 1_545 S
O308 Tb264 2.465 . S
O308 C328 1.264 . S
O309 Tb264 2.387 . S
O309 C320 1.264 . S
O310 Tb275 2.349 1_455 S
O310 C320 1.243 . S
O311 Tb264 2.428 . S
O311 C328 1.256 . S
O312 Tb264 2.308 . S
O312 C327 1.266 1_455 S
O313 Tb275 2.393 . S
O313 C327 1.248 . S
O314 Tb275 2.465 . S
O314 C339 1.264 . S
O315 Tb275 2.387 . S
O315 C331 1.264 . S
O316 Tb264 2.349 . S
O316 C331 1.243 1_455 S
O317 Tb275 2.428 . S
O317 C339 1.256 . S
O318 Tb275 2.308 1_455 S
O318 C338 1.266 . S
O319 Tb264 2.393 . S
O319 C338 1.248 . S
C320 O309 1.264 . S
C320 O310 1.243 . S
C321 C324 1.399 . S
C321 C326 1.383 . S
C321 C328 1.496 . S
C322 C323 1.399 . S
C322 C326 1.389 . S
C323 C322 1.399 . S
C323 C325 1.380 . S
C323 H340 0.929 . S
C324 C321 1.399 . S
C324 C325 1.392 . S
C324 H341 0.929 . S
C325 C323 1.380 . S
C325 C324 1.392 . S
C325 H342 0.929 . S
C326 C321 1.383 . S
C326 C322 1.389 . S
C326 H343 0.931 . S
C327 O312 1.266 1_655 S
C327 O313 1.248 . S
C328 Tb264 2.802 . S
C328 O308 1.264 . S
C328 O311 1.256 . S
C328 C321 1.496 . S
C329 C296 1.448 . S
C329 H306 0.930 . S
C329 C330 1.328 . S
C330 C301 1.427 . S
C330 H307 0.923 1_565 S
C330 C329 1.328 . S
C331 O315 1.264 . S
C331 O316 1.243 1_655 S
C332 C335 1.399 . S
C332 C336 1.383 . S
C332 C339 1.496 . S
C333 C334 1.399 . S
C333 C336 1.389 . S
C334 C333 1.399 . S
C334 C337 1.380 . S
C334 H344 0.929 . S
C335 C332 1.399 . S
C335 C337 1.392 . S
C335 H345 0.929 . S
C336 C332 1.383 . S
C336 C333 1.389 . S
C336 H346 0.931 . S
C337 C334 1.380 . S
C337 C335 1.392 . S
C337 H347 0.929 . S
C338 O318 1.266 . S
C338 O319 1.248 . S
C339 Tb275 2.802 . S
C339 O314 1.264 . S
C339 O317 1.256 . S
C339 C332 1.496 . S
H340 C323 0.929 . S
H341 C324 0.929 . S
H342 C325 0.929 . S
H343 C326 0.931 . S
H344 C334 0.929 . S
H345 C335 0.929 . S
H346 C336 0.931 . S
H347 C337 0.929 . S
Tb348 N377 2.617 . S
Tb348 N383 2.572 . S
Tb348 O392 2.465 . S
Tb348 O393 2.387 . S
Tb348 O395 2.428 . S
Tb348 O396 2.308 . S
Tb348 O400 2.349 . S
Tb348 O403 2.393 . S
Tb348 C412 2.802 . S
C349 N350 1.379 . S
C349 C352 1.416 . S
C349 C356 1.424 . S
N350 C349 1.379 . S
N350 C353 1.334 . S
N350 Tb359 2.617 . S
C351 C353 1.390 . S
C351 C354 1.339 . S
C351 H371 0.930 . S
C352 C349 1.416 . S
C352 C354 1.416 . S
C352 C358 1.448 . S
C353 N350 1.334 . S
C353 C351 1.390 . S
C353 H364 0.930 . S
C354 C351 1.339 . S
C354 C352 1.416 . S
C354 H375 0.930 . S
C355 C356 1.413 . S
C355 C357 1.427 . S
C355 C361 1.416 . S
C356 C349 1.424 . S
C356 C355 1.413 . S
C356 N360 1.361 . S
C357 C355 1.427 . S
C357 C358 1.328 . S
C357 H372 0.929 . S
C358 C352 1.448 . S
C358 C357 1.328 . S
C358 H373 0.930 . S
Tb359 N350 2.617 . S
Tb359 N360 2.572 . S
Tb359 O394 2.349 . S
Tb359 O397 2.393 . S
Tb359 O398 2.465 . S
Tb359 O399 2.387 . S
Tb359 O401 2.428 . S
Tb359 O402 2.308 . S
Tb359 C423 2.802 . S
N360 C356 1.361 . S
N360 Tb359 2.572 . S
N360 C362 1.340 . S
C361 C355 1.416 . S
C361 C363 1.332 . S
C361 H369 0.931 . S
C362 N360 1.340 . S
C362 C363 1.407 . S
C362 H368 0.930 . S
C363 C361 1.332 . S
C363 C362 1.407 . S
C363 H365 0.929 . S
H364 C353 0.930 . S
H365 C363 0.929 . S
H366 C381 0.930 . S
H367 C388 0.929 . S
H368 C362 0.930 . S
H369 C361 0.931 . S
H370 C384 0.930 . S
H371 C351 0.930 . S
H372 C357 0.929 . S
H373 C358 0.930 . S
H374 C379 0.930 . S
H375 C354 0.930 . S
H376 C387 0.931 . S
N377 Tb348 2.617 . S
N377 C378 1.379 . S
N377 C381 1.334 . S
C378 N377 1.379 . S
C378 C380 1.416 . S
C378 C386 1.424 . S
C379 H374 0.930 . S
C379 C381 1.390 . S
C379 C382 1.339 . S
C380 C378 1.416 . S
C380 C382 1.416 . S
C380 C413 1.448 . S
C381 H366 0.930 . S
C381 N377 1.334 . S
C381 C379 1.390 . S
C382 C379 1.339 . S
C382 C380 1.416 . S
C382 H389 0.930 . S
N383 Tb348 2.572 . S
N383 C384 1.340 . S
N383 C386 1.361 . S
C384 H370 0.930 . S
C384 N383 1.340 . S
C384 C388 1.407 . S
C385 C386 1.413 . S
C385 C387 1.416 . S
C385 C414 1.427 . S
C386 C378 1.424 . S
C386 N383 1.361 . S
C386 C385 1.413 . S
C387 H376 0.931 . S
C387 C385 1.416 . S
C387 C388 1.332 . S
C388 H367 0.929 . S
C388 C384 1.407 . S
C388 C387 1.332 . S
H389 C382 0.930 . S
H390 C413 0.930 . S
H391 C414 0.929 . S
O392 Tb348 2.465 . S
O392 C412 1.264 . S
O393 Tb348 2.387 . S
O393 C404 1.264 . S
O394 Tb359 2.349 . S
O394 C404 1.243 . S
O395 Tb348 2.428 . S
O395 C412 1.256 . S
O396 Tb348 2.308 . S
O396 C411 1.266 . S
O397 Tb359 2.393 . S
O397 C411 1.248 . S
O398 Tb359 2.465 . S
O398 C423 1.264 . S
O399 Tb359 2.387 . S
O399 C415 1.264 . S
O400 Tb348 2.349 . S
O400 C415 1.243 . S
O401 Tb359 2.428 . S
O401 C423 1.256 . S
O402 Tb359 2.308 . S
O402 C422 1.266 . S
O403 Tb348 2.393 . S
O403 C422 1.248 . S
C404 O393 1.264 . S
C404 O394 1.243 . S
C405 C408 1.399 . S
C405 C410 1.383 . S
C405 C412 1.496 . S
C406 C407 1.399 . S
C406 C410 1.389 . S
C407 C406 1.399 . S
C407 C409 1.380 . S
C407 H424 0.929 . S
C408 C405 1.399 . S
C408 C409 1.392 . S
C408 H425 0.929 . S
C409 C407 1.380 . S
C409 C408 1.392 . S
C409 H426 0.929 . S
C410 C405 1.383 . S
C410 C406 1.389 . S
C410 H427 0.931 . S
C411 O396 1.266 . S
C411 O397 1.248 . S
C412 Tb348 2.802 . S
C412 O392 1.264 . S
C412 O395 1.256 . S
C412 C405 1.496 . S
C413 C380 1.448 . S
C413 H390 0.930 . S
C413 C414 1.328 . S
C414 C385 1.427 . S
C414 H391 0.929 . S
C414 C413 1.328 . S
C415 O399 1.264 . S
C415 O400 1.243 . S
C416 C419 1.399 . S
C416 C420 1.383 . S
C416 C423 1.496 . S
C417 C418 1.399 . S
C417 C420 1.389 . S
C418 C417 1.399 . S
C418 C421 1.380 . S
C418 H428 0.929 . S
C419 C416 1.399 . S
C419 C421 1.392 . S
C419 H429 0.929 . S
C420 C416 1.383 . S
C420 C417 1.389 . S
C420 H430 0.931 . S
C421 C418 1.380 . S
C421 C419 1.392 . S
C421 H431 0.929 . S
C422 O402 1.266 . S
C422 O403 1.248 . S
C423 Tb359 2.802 . S
C423 O398 1.264 . S
C423 O401 1.256 . S
C423 C416 1.496 . S
H424 C407 0.929 . S
H425 C408 0.929 . S
H426 C409 0.929 . S
H427 C410 0.931 . S
H428 C418 0.929 . S
H429 C419 0.929 . S
H430 C420 0.931 . S
H431 C421 0.929 . S
H432 C444 0.930 . S
H433 C446 0.930 . S
H434 C447 0.930 . S
H435 C451 0.959 . S
H436 C451 0.959 . S
H437 C451 0.961 . S
H438 C452 0.960 . S
H439 C452 0.961 . S
H440 C452 0.959 . S
H441 C455 0.929 . S
H442 C456 0.931 . S
H443 C458 0.930 . S
C444 H432 0.930 . S
C444 C445 1.399 . S
C444 C449 1.399 . S
C445 C444 1.399 . S
C445 C446 1.376 . S
C446 H433 0.930 . S
C446 C445 1.376 . S
C446 C447 1.388 . S
C447 H434 0.930 . S
C447 C446 1.388 . S
C447 C448 1.390 . S
C448 C447 1.390 . S
C448 C449 1.394 . S
C448 C454 1.465 . S
C449 C444 1.399 . S
C449 C448 1.394 . S
C449 C450 1.516 . S
C450 C449 1.516 . S
C450 C451 1.502 . S
C450 C452 1.561 . S
C450 C453 1.526 . S
C451 H435 0.959 . S
C451 H436 0.959 . S
C451 H437 0.961 . S
C451 C450 1.502 . S
C452 H438 0.960 . S
C452 H439 0.961 . S
C452 H440 0.959 . S
C452 C450 1.561 . S
C453 C450 1.526 . S
C453 C454 1.396 . S
C453 C458 1.390 1_565 S
C454 C448 1.465 . S
C454 C453 1.396 . S
C454 C455 1.399 1_565 S
C455 H441 0.929 . S
C455 C454 1.399 1_545 S
C455 C456 1.385 . S
C456 H442 0.931 . S
C456 C455 1.385 . S
C456 C457 1.389 . S
C457 C456 1.389 . S
C457 C458 1.387 . S
C458 H443 0.930 . S
C458 C453 1.390 1_545 S
C458 C457 1.387 . S
H459 C471 0.930 . S
H460 C473 0.930 . S
H461 C474 0.930 . S
H462 C478 0.959 . S
H463 C478 0.959 . S
H464 C478 0.961 . S
H465 C479 0.960 . S
H466 C479 0.961 . S
H467 C479 0.959 . S
H468 C482 0.929 . S
H469 C483 0.931 . S
H470 C485 0.930 . S
C471 H459 0.930 . S
C471 C472 1.399 . S
C471 C476 1.399 . S
C472 C471 1.399 . S
C472 C473 1.376 . S
C473 H460 0.930 . S
C473 C472 1.376 . S
C473 C474 1.388 . S
C474 H461 0.930 . S
C474 C473 1.388 . S
C474 C475 1.390 . S
C475 C474 1.390 . S
C475 C476 1.394 . S
C475 C481 1.465 . S
C476 C471 1.399 . S
C476 C475 1.394 . S
C476 C477 1.516 . S
C477 C476 1.516 . S
C477 C478 1.502 . S
C477 C479 1.561 . S
C477 C480 1.526 . S
C478 H462 0.959 . S
C478 H463 0.959 . S
C478 H464 0.961 . S
C478 C477 1.502 . S
C479 H465 0.960 . S
C479 H466 0.961 . S
C479 H467 0.959 . S
C479 C477 1.561 . S
C480 C477 1.526 . S
C480 C481 1.396 . S
C480 C485 1.390 . S
C481 C475 1.465 . S
C481 C480 1.396 . S
C481 C482 1.399 . S
C482 H468 0.929 . S
C482 C481 1.399 . S
C482 C483 1.385 . S
C483 H469 0.931 . S
C483 C482 1.385 . S
C483 C484 1.389 . S
C484 C483 1.389 . S
C484 C485 1.387 . S
C485 H470 0.930 . S
C485 C480 1.390 . S
C485 C484 1.387 . S
H486 C498 0.930 . S
H487 C500 0.930 . S
H488 C501 0.930 . S
H489 C505 0.959 . S
H490 C505 0.959 . S
H491 C505 0.961 . S
H492 C506 0.960 . S
H493 C506 0.961 . S
H494 C506 0.959 . S
H495 C509 0.929 . S
H496 C510 0.931 . S
H497 C512 0.930 . S
C498 H486 0.930 . S
C498 C499 1.399 . S
C498 C503 1.399 . S
C499 C498 1.399 . S
C499 C500 1.376 . S
C500 H487 0.930 . S
C500 C499 1.376 . S
C500 C501 1.388 . S
C501 H488 0.930 . S
C501 C500 1.388 . S
C501 C502 1.390 . S
C502 C501 1.390 . S
C502 C503 1.394 . S
C502 C508 1.465 . S
C503 C498 1.399 . S
C503 C502 1.394 . S
C503 C504 1.516 . S
C504 C503 1.516 . S
C504 C505 1.502 . S
C504 C506 1.561 . S
C504 C507 1.526 . S
C505 H489 0.959 . S
C505 H490 0.959 . S
C505 H491 0.961 . S
C505 C504 1.502 . S
C506 H492 0.960 . S
C506 H493 0.961 . S
C506 H494 0.959 . S
C506 C504 1.561 . S
C507 C504 1.526 . S
C507 C508 1.396 . S
C507 C512 1.390 . S
C508 C502 1.465 . S
C508 C507 1.396 . S
C508 C509 1.399 . S
C509 H495 0.929 . S
C509 C508 1.399 . S
C509 C510 1.385 . S
C510 H496 0.931 . S
C510 C509 1.385 . S
C510 C511 1.389 . S
C511 C510 1.389 . S
C511 C512 1.387 . S
C512 H497 0.930 . S
C512 C507 1.390 . S
C512 C511 1.387 . S
H513 C525 0.930 . S
H514 C527 0.930 . S
H515 C528 0.930 . S
H516 C532 0.959 1_545 S
H517 C532 0.959 . S
H518 C532 0.961 . S
H519 C533 0.960 . S
H520 C533 0.961 . S
H521 C533 0.959 . S
H522 C536 0.929 . S
H523 C537 0.931 . S
H524 C539 0.930 . S
C525 H513 0.930 . S
C525 C526 1.399 . S
C525 C530 1.399 . S
C526 C525 1.399 . S
C526 C527 1.376 . S
C527 H514 0.930 . S
C527 C526 1.376 . S
C527 C528 1.388 . S
C528 H515 0.930 . S
C528 C527 1.388 . S
C528 C529 1.390 . S
C529 C528 1.390 . S
C529 C530 1.394 . S
C529 C535 1.465 . S
C530 C525 1.399 . S
C530 C529 1.394 . S
C530 C531 1.516 . S
C531 C530 1.516 . S
C531 C532 1.502 . S
C531 C533 1.561 . S
C531 C534 1.526 . S
C532 H516 0.959 1_565 S
C532 H517 0.959 . S
C532 H518 0.961 . S
C532 C531 1.502 . S
C533 H519 0.960 . S
C533 H520 0.961 . S
C533 H521 0.959 . S
C533 C531 1.561 . S
C534 C531 1.526 . S
C534 C535 1.396 . S
C534 C539 1.390 1_565 S
C535 C529 1.465 . S
C535 C534 1.396 . S
C535 C536 1.399 . S
C536 H522 0.929 . S
C536 C535 1.399 . S
C536 C537 1.385 1_565 S
C537 H523 0.931 . S
C537 C536 1.385 1_545 S
C537 C538 1.389 . S
C538 C537 1.389 . S
C538 C539 1.387 . S
C539 H524 0.930 . S
C539 C534 1.390 1_545 S
C539 C538 1.387 . S
H540 C552 0.930 . S
H541 C554 0.930 . S
H542 C555 0.930 . S
H543 C559 0.959 . S
H544 C559 0.959 . S
H545 C559 0.961 . S
H546 C560 0.960 . S
H547 C560 0.961 . S
H548 C560 0.959 . S
H549 C563 0.929 . S
H550 C564 0.931 . S
H551 C566 0.917 1_545 S
C552 H540 0.930 . S
C552 C553 1.399 . S
C552 C557 1.399 . S
C553 C552 1.399 . S
C553 C554 1.376 . S
C554 H541 0.930 . S
C554 C553 1.376 . S
C554 C555 1.388 . S
C555 H542 0.930 . S
C555 C554 1.388 . S
C555 C556 1.390 . S
C556 C555 1.390 . S
C556 C557 1.394 . S
C556 C562 1.465 . S
C557 C552 1.399 . S
C557 C556 1.394 . S
C557 C558 1.516 . S
C558 C557 1.516 . S
C558 C559 1.502 . S
C558 C560 1.561 . S
C558 C561 1.526 . S
C559 H543 0.959 . S
C559 H544 0.959 . S
C559 H545 0.961 . S
C559 C558 1.502 . S
C560 H546 0.960 . S
C560 H547 0.961 . S
C560 H548 0.959 . S
C560 C558 1.561 . S
C561 C558 1.526 . S
C561 C562 1.396 . S
C561 C566 1.371 1_545 S
C562 C556 1.465 . S
C562 C561 1.396 . S
C562 C563 1.399 1_545 S
C563 H549 0.929 . S
C563 C562 1.399 1_565 S
C563 C564 1.385 . S
C564 H550 0.931 . S
C564 C563 1.385 . S
C564 C565 1.389 . S
C565 C564 1.389 . S
C565 C566 1.419 . S
C566 H551 0.917 1_565 S
C566 C561 1.371 1_565 S
C566 C565 1.419 . S
H567 C579 0.930 . S
H568 C581 0.930 . S
H569 C582 0.930 . S
H570 C586 0.959 . S
H571 C586 0.959 . S
H572 C586 0.961 . S
H573 C587 0.960 . S
H574 C587 0.961 . S
H575 C587 0.959 . S
H576 C590 0.929 . S
H577 C591 0.931 . S
H578 C593 0.930 . S
C579 H567 0.930 . S
C579 C580 1.399 . S
C579 C584 1.399 . S
C580 C579 1.399 . S
C580 C581 1.376 . S
C581 H568 0.930 . S
C581 C580 1.376 . S
C581 C582 1.388 . S
C582 H569 0.930 . S
C582 C581 1.388 . S
C582 C583 1.390 . S
C583 C582 1.390 . S
C583 C584 1.394 . S
C583 C589 1.465 . S
C584 C579 1.399 . S
C584 C583 1.394 . S
C584 C585 1.516 . S
C585 C584 1.516 . S
C585 C586 1.502 . S
C585 C587 1.561 . S
C585 C588 1.526 . S
C586 H570 0.959 . S
C586 H571 0.959 . S
C586 H572 0.961 . S
C586 C585 1.502 . S
C587 H573 0.960 . S
C587 H574 0.961 . S
C587 H575 0.959 . S
C587 C585 1.561 . S
C588 C585 1.526 . S
C588 C589 1.396 . S
C588 C593 1.390 . S
C589 C583 1.465 . S
C589 C588 1.396 . S
C589 C590 1.399 . S
C590 H576 0.929 . S
C590 C589 1.399 . S
C590 C591 1.385 . S
C591 H577 0.931 . S
C591 C590 1.385 . S
C591 C592 1.389 . S
C592 C591 1.389 . S
C592 C593 1.387 . S
C593 H578 0.930 . S
C593 C588 1.390 . S
C593 C592 1.387 . S
H594 C606 0.930 . S
H595 C608 0.930 . S
H596 C609 0.930 . S
H597 C613 0.959 . S
H598 C613 0.959 . S
H599 C613 0.961 . S
H600 C614 0.960 . S
H601 C614 0.961 . S
H602 C614 0.959 . S
H603 C617 0.929 . S
H604 C618 0.931 . S
H605 C620 0.930 . S
C606 H594 0.930 . S
C606 C607 1.399 . S
C606 C611 1.399 . S
C607 C606 1.399 . S
C607 C608 1.376 . S
C608 H595 0.930 . S
C608 C607 1.376 . S
C608 C609 1.388 . S
C609 H596 0.930 . S
C609 C608 1.388 . S
C609 C610 1.390 . S
C610 C609 1.390 . S
C610 C611 1.394 . S
C610 C616 1.465 . S
C611 C606 1.399 . S
C611 C610 1.394 . S
C611 C612 1.516 . S
C612 C611 1.516 . S
C612 C613 1.502 . S
C612 C614 1.561 . S
C612 C615 1.526 . S
C613 H597 0.959 . S
C613 H598 0.959 . S
C613 H599 0.961 . S
C613 C612 1.502 . S
C614 H600 0.960 . S
C614 H601 0.961 . S
C614 H602 0.959 . S
C614 C612 1.561 . S
C615 C612 1.526 . S
C615 C616 1.396 . S
C615 C620 1.390 . S
C616 C610 1.465 . S
C616 C615 1.396 . S
C616 C617 1.399 . S
C617 H603 0.929 . S
C617 C616 1.399 . S
C617 C618 1.385 . S
C618 H604 0.931 . S
C618 C617 1.385 . S
C618 C619 1.389 . S
C619 C618 1.389 . S
C619 C620 1.387 . S
C620 H605 0.930 . S
C620 C615 1.390 . S
C620 C619 1.387 . S
H621 C633 0.930 . S
H622 C635 0.930 . S
H623 C636 0.930 . S
H624 C640 0.959 . S
H625 C640 0.959 . S
H626 C640 0.961 . S
H627 C641 0.960 . S
H628 C641 0.961 . S
H629 C641 0.959 . S
H630 C644 0.929 . S
H631 C645 0.931 . S
H632 C647 0.932 . S
C633 H621 0.930 . S
C633 C634 1.399 . S
C633 C638 1.399 . S
C634 C633 1.399 . S
C634 C635 1.376 . S
C635 H622 0.930 . S
C635 C634 1.376 . S
C635 C636 1.388 . S
C636 H623 0.930 . S
C636 C635 1.388 . S
C636 C637 1.390 . S
C637 C636 1.390 . S
C637 C638 1.394 . S
C637 C643 1.465 . S
C638 C633 1.399 . S
C638 C637 1.394 . S
C638 C639 1.516 . S
C639 C638 1.516 . S
C639 C640 1.502 . S
C639 C641 1.561 . S
C639 C642 1.526 . S
C640 H624 0.959 . S
C640 H625 0.959 . S
C640 H626 0.961 . S
C640 C639 1.502 . S
C641 H627 0.960 . S
C641 H628 0.961 . S
C641 H629 0.959 . S
C641 C639 1.561 . S
C642 C639 1.526 . S
C642 C643 1.396 . S
C642 C647 1.392 . S
C643 C637 1.465 . S
C643 C642 1.396 . S
C643 C644 1.399 1_545 S
C644 H630 0.929 . S
C644 C643 1.399 1_565 S
C644 C645 1.385 . S
C645 H631 0.931 . S
C645 C644 1.385 . S
C645 C646 1.389 . S
C646 C645 1.389 . S
C646 C647 1.382 1_565 S
C647 H632 0.932 . S
C647 C642 1.392 . S
C647 C646 1.382 1_545 S
H648 C660 0.930 . S
H649 C662 0.930 . S
H650 C663 0.930 . S
H651 C667 0.961 . S
H652 C667 0.959 . S
H653 C667 0.961 1_556 S
H654 C668 0.960 . S
H655 C668 0.961 . S
H656 C668 0.959 . S
H657 C671 0.929 . S
H658 C672 0.931 . S
H659 C674 0.930 . S
C660 H648 0.930 . S
C660 C661 1.399 . S
C660 C665 1.399 . S
C661 C660 1.399 . S
C661 C662 1.376 . S
C662 H649 0.930 . S
C662 C661 1.376 . S
C662 C663 1.388 1_556 S
C663 H650 0.930 . S
C663 C662 1.388 1_554 S
C663 C664 1.390 . S
C664 C663 1.390 . S
C664 C665 1.394 1_554 S
C664 C670 1.465 . S
C665 C660 1.399 . S
C665 C664 1.394 1_556 S
C665 C666 1.516 1_556 S
C666 C665 1.516 1_554 S
C666 C667 1.502 . S
C666 C668 1.561 . S
C666 C669 1.526 . S
C667 H651 0.961 . S
C667 H652 0.959 . S
C667 H653 0.961 1_554 S
C667 C666 1.502 . S
C668 H654 0.960 . S
C668 H655 0.961 . S
C668 H656 0.959 . S
C668 C666 1.561 . S
C669 C666 1.526 . S
C669 C670 1.396 . S
C669 C674 1.390 . S
C670 C664 1.465 . S
C670 C669 1.396 . S
C670 C671 1.399 . S
C671 H657 0.929 . S
C671 C670 1.399 . S
C671 C672 1.385 . S
C672 H658 0.931 . S
C672 C671 1.385 . S
C672 C673 1.389 . S
C673 C672 1.389 . S
C673 C674 1.387 . S
C674 H659 0.930 . S
C674 C669 1.390 . S
C674 C673 1.387 . S
H675 C687 0.930 . S
H676 C689 0.930 . S
H677 C690 0.930 . S
H678 C694 0.959 . S
H679 C694 0.959 . S
H680 C694 0.961 . S
H681 C695 0.960 . S
H682 C695 0.961 . S
H683 C695 0.959 . S
H684 C698 0.929 . S
H685 C699 0.931 . S
H686 C701 0.930 . S
C687 H675 0.930 . S
C687 C688 1.399 . S
C687 C692 1.399 . S
C688 C687 1.399 . S
C688 C689 1.376 . S
C689 H676 0.930 . S
C689 C688 1.376 . S
C689 C690 1.388 . S
C690 H677 0.930 . S
C690 C689 1.388 . S
C690 C691 1.390 . S
C691 C690 1.390 . S
C691 C692 1.394 . S
C691 C697 1.465 . S
C692 C687 1.399 . S
C692 C691 1.394 . S
C692 C693 1.516 . S
C693 C692 1.516 . S
C693 C694 1.502 . S
C693 C695 1.561 . S
C693 C696 1.526 . S
C694 H678 0.959 . S
C694 H679 0.959 . S
C694 H680 0.961 . S
C694 C693 1.502 . S
C695 H681 0.960 . S
C695 H682 0.961 . S
C695 H683 0.959 . S
C695 C693 1.561 . S
C696 C693 1.526 . S
C696 C697 1.396 . S
C696 C701 1.390 . S
C697 C691 1.465 . S
C697 C696 1.396 . S
C697 C698 1.399 . S
C698 H684 0.929 . S
C698 C697 1.399 . S
C698 C699 1.385 . S
C699 H685 0.931 . S
C699 C698 1.385 . S
C699 C700 1.389 . S
C700 C699 1.389 . S
C700 C701 1.387 . S
C701 H686 0.930 . S
C701 C696 1.390 . S
C701 C700 1.387 . S
H702 C714 0.930 . S
H703 C716 0.930 . S
H704 C717 0.930 . S
H705 C721 0.959 . S
H706 C721 0.959 . S
H707 C721 0.961 . S
H708 C722 0.960 . S
H709 C722 0.961 . S
H710 C722 0.959 . S
H711 C725 0.929 . S
H712 C726 0.931 . S
H713 C728 0.930 . S
C714 H702 0.930 . S
C714 C715 1.399 . S
C714 C719 1.421 . S
C715 C714 1.399 . S
C715 C716 1.376 . S
C716 H703 0.930 . S
C716 C715 1.376 . S
C716 C717 1.388 . S
C717 H704 0.930 . S
C717 C716 1.388 . S
C717 C718 1.390 1_554 S
C718 C717 1.390 1_556 S
C718 C719 1.391 1_556 S
C718 C724 1.465 . S
C719 C714 1.421 . S
C719 C718 1.391 1_554 S
C719 C720 1.495 1_554 S
C720 C719 1.495 1_556 S
C720 C721 1.502 . S
C720 C722 1.561 . S
C720 C723 1.526 . S
C721 H705 0.959 . S
C721 H706 0.959 . S
C721 H707 0.961 . S
C721 C720 1.502 . S
C722 H708 0.960 . S
C722 H709 0.961 . S
C722 H710 0.959 . S
C722 C720 1.561 . S
C723 C720 1.526 . S
C723 C724 1.396 . S
C723 C728 1.390 . S
C724 C718 1.465 . S
C724 C723 1.396 . S
C724 C725 1.399 . S
C725 H711 0.929 . S
C725 C724 1.399 . S
C725 C726 1.385 . S
C726 H712 0.931 . S
C726 C725 1.385 . S
C726 C727 1.389 . S
C727 C726 1.389 . S
C727 C728 1.387 . S
C728 H713 0.930 . S
C728 C723 1.390 . S
C728 C727 1.387 . S
H729 C741 0.930 . S
H730 C743 0.930 . S
H731 C744 0.930 . S
H732 C748 0.959 . S
H733 C748 0.959 . S
H734 C748 0.961 . S
H735 C749 0.960 . S
H736 C749 0.961 . S
H737 C749 0.959 . S
H738 C752 0.929 . S
H739 C753 0.931 . S
H740 C755 0.930 . S
C741 H729 0.930 . S
C741 C742 1.399 . S
C741 C746 1.399 . S
C742 C741 1.399 . S
C742 C743 1.376 . S
C743 H730 0.930 . S
C743 C742 1.376 . S
C743 C744 1.388 . S
C744 H731 0.930 . S
C744 C743 1.388 . S
C744 C745 1.390 . S
C745 C744 1.390 . S
C745 C746 1.394 . S
C745 C751 1.465 . S
C746 C741 1.399 . S
C746 C745 1.394 . S
C746 C747 1.516 . S
C747 C746 1.516 . S
C747 C748 1.502 . S
C747 C749 1.561 . S
C747 C750 1.526 . S
C748 H732 0.959 . S
C748 H733 0.959 . S
C748 H734 0.961 . S
C748 C747 1.502 . S
C749 H735 0.960 . S
C749 H736 0.961 . S
C749 H737 0.959 . S
C749 C747 1.561 . S
C750 C747 1.526 . S
C750 C751 1.396 . S
C750 C755 1.390 . S
C751 C745 1.465 . S
C751 C750 1.396 . S
C751 C752 1.399 . S
C752 H738 0.929 . S
C752 C751 1.399 . S
C752 C753 1.385 . S
C753 H739 0.931 . S
C753 C752 1.385 . S
C753 C754 1.389 . S
C754 C753 1.389 . S
C754 C755 1.387 . S
C755 H740 0.930 . S
C755 C750 1.390 . S
C755 C754 1.387 . S
H756 C768 0.930 . S
H757 C770 0.930 . S
H758 C771 0.930 1_556 S
H759 C775 0.959 . S
H760 C775 0.959 . S
H761 C775 0.961 1_554 S
H762 C776 0.960 . S
H763 C776 0.961 . S
H764 C776 0.959 . S
H765 C779 0.929 . S
H766 C780 0.931 . S
H767 C782 0.930 . S
C768 H756 0.930 . S
C768 C769 1.399 . S
C768 C773 1.385 1_554 S
C769 C768 1.399 . S
C769 C770 1.376 . S
C770 H757 0.930 . S
C770 C769 1.376 . S
C770 C771 1.388 . S
C771 H758 0.930 1_554 S
C771 C770 1.388 . S
C771 C772 1.390 1_554 S
C772 C771 1.390 1_556 S
C772 C773 1.400 . S
C772 C778 1.465 . S
C773 C768 1.385 1_556 S
C773 C772 1.400 . S
C773 C774 1.526 . S
C774 C773 1.526 . S
C774 C775 1.502 . S
C774 C776 1.561 . S
C774 C777 1.526 . S
C775 H759 0.959 . S
C775 H760 0.959 . S
C775 H761 0.961 1_556 S
C775 C774 1.502 . S
C776 H762 0.960 . S
C776 H763 0.961 . S
C776 H764 0.959 . S
C776 C774 1.561 . S
C777 C774 1.526 . S
C777 C778 1.396 . S
C777 C782 1.390 . S
C778 C772 1.465 . S
C778 C777 1.396 . S
C778 C779 1.399 . S
C779 H765 0.929 . S
C779 C778 1.399 . S
C779 C780 1.385 . S
C780 H766 0.931 . S
C780 C779 1.385 . S
C780 C781 1.389 . S
C781 C780 1.389 . S
C781 C782 1.387 . S
C782 H767 0.930 . S
C782 C777 1.390 . S
C782 C781 1.387 . S
H783 C795 0.930 . S
H784 C797 0.930 . S
H785 C798 0.930 . S
H786 C802 0.959 . S
H787 C802 0.959 . S
H788 C802 0.961 . S
H789 C803 0.960 . S
H790 C803 0.961 . S
H791 C803 0.959 . S
H792 C806 0.929 . S
H793 C807 0.931 . S
H794 C809 0.930 . S
C795 H783 0.930 . S
C795 C796 1.399 . S
C795 C800 1.399 . S
C796 C795 1.399 . S
C796 C797 1.376 . S
C797 H784 0.930 . S
C797 C796 1.376 . S
C797 C798 1.388 . S
C798 H785 0.930 . S
C798 C797 1.388 . S
C798 C799 1.390 . S
C799 C798 1.390 . S
C799 C800 1.394 . S
C799 C805 1.465 . S
C800 C795 1.399 . S
C800 C799 1.394 . S
C800 C801 1.516 . S
C801 C800 1.516 . S
C801 C802 1.502 . S
C801 C803 1.561 . S
C801 C804 1.526 . S
C802 H786 0.959 . S
C802 H787 0.959 . S
C802 H788 0.961 . S
C802 C801 1.502 . S
C803 H789 0.960 . S
C803 H790 0.961 . S
C803 H791 0.959 . S
C803 C801 1.561 . S
C804 C801 1.526 . S
C804 C805 1.396 . S
C804 C809 1.390 . S
C805 C799 1.465 . S
C805 C804 1.396 . S
C805 C806 1.399 . S
C806 H792 0.929 . S
C806 C805 1.399 . S
C806 C807 1.385 . S
C807 H793 0.931 . S
C807 C806 1.385 . S
C807 C808 1.389 . S
C808 C807 1.389 . S
C808 C809 1.387 . S
C809 H794 0.930 . S
C809 C804 1.390 . S
C809 C808 1.387 . S
H810 C822 0.930 . S
H811 C824 0.930 . S
H812 C825 0.930 . S
H813 C829 0.949 1_554 S
H814 C829 0.945 1_554 S
H815 C829 0.994 . S
H816 C830 0.960 . S
H817 C830 0.961 1_554 S
H818 C830 0.959 1_554 S
H819 C833 0.929 . S
H820 C834 0.931 . S
H821 C836 0.930 . S
C822 H810 0.930 . S
C822 C823 1.399 . S
C822 C827 1.399 . S
C823 C822 1.399 . S
C823 C824 1.376 . S
C824 H811 0.930 . S
C824 C823 1.376 . S
C824 C825 1.388 1_556 S
C825 H812 0.930 . S
C825 C824 1.388 1_554 S
C825 C826 1.390 . S
C826 C825 1.390 . S
C826 C827 1.394 1_554 S
C826 C832 1.465 . S
C827 C822 1.399 . S
C827 C826 1.394 1_556 S
C827 C828 1.516 1_556 S
C828 C827 1.516 1_554 S
C828 C829 1.495 1_554 S
C828 C830 1.561 1_554 S
C828 C831 1.526 . S
C829 H813 0.949 1_556 S
C829 H814 0.945 1_556 S
C829 H815 0.994 . S
C829 C828 1.495 1_556 S
C830 H816 0.960 . S
C830 H817 0.961 1_556 S
C830 H818 0.959 1_556 S
C830 C828 1.561 1_556 S
C831 C828 1.526 . S
C831 C832 1.396 . S
C831 C836 1.390 . S
C832 C826 1.465 . S
C832 C831 1.396 . S
C832 C833 1.399 . S
C833 H819 0.929 . S
C833 C832 1.399 . S
C833 C834 1.385 . S
C834 H820 0.931 . S
C834 C833 1.385 . S
C834 C835 1.389 . S
C835 C834 1.389 . S
C835 C836 1.387 . S
C836 H821 0.930 . S
C836 C831 1.390 . S
C836 C835 1.387 . S
H837 C849 0.930 . S
H838 C851 0.930 . S
H839 C852 0.930 . S
H840 C856 0.959 . S
H841 C856 0.959 . S
H842 C856 0.961 . S
H843 C857 0.960 . S
H844 C857 0.961 . S
H845 C857 0.959 . S
H846 C860 0.929 . S
H847 C861 0.931 . S
H848 C863 0.930 . S
C849 H837 0.930 . S
C849 C850 1.399 . S
C849 C854 1.399 . S
C850 C849 1.399 . S
C850 C851 1.376 . S
C851 H838 0.930 . S
C851 C850 1.376 . S
C851 C852 1.388 . S
C852 H839 0.930 . S
C852 C851 1.388 . S
C852 C853 1.390 . S
C853 C852 1.390 . S
C853 C854 1.394 . S
C853 C859 1.465 . S
C854 C849 1.399 . S
C854 C853 1.394 . S
C854 C855 1.516 . S
C855 C854 1.516 . S
C855 C856 1.502 . S
C855 C857 1.561 . S
C855 C858 1.526 . S
C856 H840 0.959 . S
C856 H841 0.959 . S
C856 H842 0.961 . S
C856 C855 1.502 . S
C857 H843 0.960 . S
C857 H844 0.961 . S
C857 H845 0.959 . S
C857 C855 1.561 . S
C858 C855 1.526 . S
C858 C859 1.396 . S
C858 C863 1.390 . S
C859 C853 1.465 . S
C859 C858 1.396 . S
C859 C860 1.399 . S
C860 H846 0.929 . S
C860 C859 1.399 . S
C860 C861 1.385 . S
C861 H847 0.931 . S
C861 C860 1.385 . S
C861 C862 1.389 . S
C862 C861 1.389 . S
C862 C863 1.387 . S
C863 H848 0.930 . S
C863 C858 1.390 . S
C863 C862 1.387 . S
H864 C876 0.930 . S
H865 C878 0.930 . S
H866 C879 0.930 . S
H867 C883 0.959 . S
H868 C883 0.959 . S
H869 C883 0.961 . S
H870 C884 0.960 . S
H871 C884 0.970 . S
H872 C884 0.959 . S
H873 C887 0.929 . S
H874 C888 0.931 . S
H875 C890 0.930 . S
C876 H864 0.930 . S
C876 C877 1.399 . S
C876 C881 1.399 . S
C877 C876 1.399 . S
C877 C878 1.376 . S
C878 H865 0.930 . S
C878 C877 1.376 . S
C878 C879 1.388 . S
C879 H866 0.930 . S
C879 C878 1.388 . S
C879 C880 1.390 . S
C880 C879 1.390 . S
C880 C881 1.394 . S
C880 C886 1.465 . S
C881 C876 1.399 . S
C881 C880 1.394 . S
C881 C882 1.516 . S
C882 C881 1.516 . S
C882 C883 1.502 . S
C882 C884 1.561 . S
C882 C885 1.526 . S
C883 H867 0.959 . S
C883 H868 0.959 . S
C883 H869 0.961 . S
C883 C882 1.502 . S
C884 H870 0.960 . S
C884 H871 0.970 . S
C884 H872 0.959 . S
C884 C882 1.561 . S
C885 C882 1.526 . S
C885 C886 1.396 . S
C885 C890 1.390 . S
C886 C880 1.465 . S
C886 C885 1.396 . S
C886 C887 1.399 . S
C887 H873 0.929 . S
C887 C886 1.399 . S
C887 C888 1.385 . S
C888 H874 0.931 . S
C888 C887 1.385 . S
C888 C889 1.389 . S
C889 C888 1.389 . S
C889 C890 1.387 . S
C890 H875 0.930 . S
C890 C885 1.390 . S
C890 C889 1.387 . S
H891 C903 0.930 . S
H892 C905 0.930 . S
H893 C906 0.930 . S
H894 C910 0.959 . S
H895 C910 0.959 . S
H896 C910 0.961 . S
H897 C911 0.960 . S
H898 C911 0.961 . S
H899 C911 0.959 . S
H900 C914 0.929 . S
H901 C915 0.931 . S
H902 C917 0.930 . S
C903 H891 0.930 . S
C903 C904 1.399 . S
C903 C908 1.399 . S
C904 C903 1.399 . S
C904 C905 1.376 . S
C905 H892 0.930 . S
C905 C904 1.376 . S
C905 C906 1.388 . S
C906 H893 0.930 . S
C906 C905 1.388 . S
C906 C907 1.390 . S
C907 C906 1.390 . S
C907 C908 1.394 . S
C907 C913 1.465 . S
C908 C903 1.399 . S
C908 C907 1.394 . S
C908 C909 1.516 . S
C909 C908 1.516 . S
C909 C910 1.502 . S
C909 C911 1.561 . S
C909 C912 1.526 . S
C910 H894 0.959 . S
C910 H895 0.959 . S
C910 H896 0.961 . S
C910 C909 1.502 . S
C911 H897 0.960 . S
C911 H898 0.961 . S
C911 H899 0.959 . S
C911 C909 1.561 . S
C912 C909 1.526 . S
C912 C913 1.396 . S
C912 C917 1.390 . S
C913 C907 1.465 . S
C913 C912 1.396 . S
C913 C914 1.399 . S
C914 H900 0.929 . S
C914 C913 1.399 . S
C914 C915 1.385 . S
C915 H901 0.931 . S
C915 C914 1.385 . S
C915 C916 1.389 . S
C916 C915 1.389 . S
C916 C917 1.387 . S
C917 H902 0.930 . S
C917 C912 1.390 . S
C917 C916 1.387 . S
H918 C930 0.930 . S
H919 C932 0.930 . S
H920 C933 0.930 . S
H921 C937 0.959 . S
H922 C937 0.959 . S
H923 C937 0.961 . S
H924 C938 0.960 . S
H925 C938 0.961 . S
H926 C938 0.959 . S
H927 C941 0.929 . S
H928 C942 0.931 . S
H929 C944 0.930 . S
C930 H918 0.930 . S
C930 C931 1.399 . S
C930 C935 1.399 . S
C931 C930 1.399 . S
C931 C932 1.376 . S
C932 H919 0.930 . S
C932 C931 1.376 . S
C932 C933 1.388 . S
C933 H920 0.930 . S
C933 C932 1.388 . S
C933 C934 1.390 . S
C934 C933 1.390 . S
C934 C935 1.394 . S
C934 C940 1.465 . S
C935 C930 1.399 . S
C935 C934 1.394 . S
C935 C936 1.516 . S
C936 C935 1.516 . S
C936 C937 1.502 . S
C936 C938 1.561 . S
C936 C939 1.526 . S
C937 H921 0.959 . S
C937 H922 0.959 . S
C937 H923 0.961 . S
C937 C936 1.502 . S
C938 H924 0.960 . S
C938 H925 0.961 . S
C938 H926 0.959 . S
C938 C936 1.561 . S
C939 C936 1.526 . S
C939 C940 1.396 . S
C939 C944 1.390 . S
C940 C934 1.465 . S
C940 C939 1.396 . S
C940 C941 1.399 . S
C941 H927 0.929 . S
C941 C940 1.399 . S
C941 C942 1.385 . S
C942 H928 0.931 . S
C942 C941 1.385 . S
C942 C943 1.389 . S
C943 C942 1.389 . S
C943 C944 1.387 . S
C944 H929 0.930 . S
C944 C939 1.390 . S
C944 C943 1.387 . S
H945 C957 0.930 . S
H946 C959 0.930 . S
H947 C960 0.930 . S
H948 C964 0.959 . S
H949 C964 0.959 . S
H950 C964 0.961 . S
H951 C965 0.960 . S
H952 C965 0.961 . S
H953 C965 0.959 . S
H954 C968 0.929 . S
H955 C969 0.931 . S
H956 C971 0.930 . S
C957 H945 0.930 . S
C957 C958 1.399 . S
C957 C962 1.399 . S
C958 C957 1.399 . S
C958 C959 1.376 . S
C959 H946 0.930 . S
C959 C958 1.376 . S
C959 C960 1.388 . S
C960 H947 0.930 . S
C960 C959 1.388 . S
C960 C961 1.390 . S
C961 C960 1.390 . S
C961 C962 1.394 . S
C961 C967 1.465 . S
C962 C957 1.399 . S
C962 C961 1.394 . S
C962 C963 1.516 . S
C963 C962 1.516 . S
C963 C964 1.502 . S
C963 C965 1.561 . S
C963 C966 1.526 . S
C964 H948 0.959 . S
C964 H949 0.959 . S
C964 H950 0.961 . S
C964 C963 1.502 . S
C965 H951 0.960 . S
C965 H952 0.961 . S
C965 H953 0.959 . S
C965 C963 1.561 . S
C966 C963 1.526 . S
C966 C967 1.396 . S
C966 C971 1.390 . S
C967 C961 1.465 . S
C967 C966 1.396 . S
C967 C968 1.399 . S
C968 H954 0.929 . S
C968 C967 1.399 . S
C968 C969 1.385 . S
C969 H955 0.931 . S
C969 C968 1.385 . S
C969 C970 1.389 . S
C970 C969 1.389 . S
C970 C971 1.387 . S
C971 H956 0.930 . S
C971 C966 1.390 . S
C971 C970 1.387 . S
H972 C984 0.930 . S
H973 C986 0.930 . S
H974 C987 0.930 . S
H975 C991 0.959 . S
H976 C991 0.959 . S
H977 C991 0.961 . S
H978 C992 0.960 . S
H979 C992 0.961 . S
H980 C992 0.959 . S
H981 C995 0.929 . S
H982 C996 0.931 . S
H983 C998 0.930 . S
C984 H972 0.930 . S
C984 C985 1.399 . S
C984 C989 1.399 . S
C985 C984 1.399 . S
C985 C986 1.376 . S
C986 H973 0.930 . S
C986 C985 1.376 . S
C986 C987 1.388 . S
C987 H974 0.930 . S
C987 C986 1.388 . S
C987 C988 1.390 . S
C988 C987 1.390 . S
C988 C989 1.394 . S
C988 C994 1.465 . S
C989 C984 1.399 . S
C989 C988 1.394 . S
C989 C990 1.516 . S
C990 C989 1.516 . S
C990 C991 1.502 . S
C990 C992 1.561 . S
C990 C993 1.526 . S
C991 H975 0.959 . S
C991 H976 0.959 . S
C991 H977 0.961 . S
C991 C990 1.502 . S
C992 H978 0.960 . S
C992 H979 0.961 . S
C992 H980 0.959 . S
C992 C990 1.561 . S
C993 C990 1.526 . S
C993 C994 1.396 . S
C993 C998 1.390 . S
C994 C988 1.465 . S
C994 C993 1.396 . S
C994 C995 1.399 . S
C995 H981 0.929 . S
C995 C994 1.399 . S
C995 C996 1.385 . S
C996 H982 0.931 . S
C996 C995 1.385 . S
C996 C997 1.389 . S
C997 C996 1.389 . S
C997 C998 1.387 . S
C998 H983 0.930 . S
C998 C993 1.390 . S
C998 C997 1.387 . S
H999 C1011 0.930 . S
H1000 C1013 0.930 . S
H1001 C1014 0.930 . S
H1002 C1018 0.959 . S
H1003 C1018 0.959 . S
H1004 C1018 0.961 . S
H1005 C1019 0.960 . S
H1006 C1019 0.961 . S
H1007 C1019 0.959 . S
H1008 C1022 0.929 . S
H1009 C1023 0.931 . S
H1010 C1025 0.930 . S
C1011 H999 0.930 . S
C1011 C1012 1.399 . S
C1011 C1016 1.399 . S
C1012 C1011 1.399 . S
C1012 C1013 1.376 . S
C1013 H1000 0.930 . S
C1013 C1012 1.376 . S
C1013 C1014 1.388 . S
C1014 H1001 0.930 . S
C1014 C1013 1.388 . S
C1014 C1015 1.390 . S
C1015 C1014 1.390 . S
C1015 C1016 1.394 . S
C1015 C1021 1.465 . S
C1016 C1011 1.399 . S
C1016 C1015 1.394 . S
C1016 C1017 1.516 . S
C1017 C1016 1.516 . S
C1017 C1018 1.502 . S
C1017 C1019 1.561 . S
C1017 C1020 1.526 . S
C1018 H1002 0.959 . S
C1018 H1003 0.959 . S
C1018 H1004 0.961 . S
C1018 C1017 1.502 . S
C1019 H1005 0.960 . S
C1019 H1006 0.961 . S
C1019 H1007 0.959 . S
C1019 C1017 1.561 . S
C1020 C1017 1.526 . S
C1020 C1021 1.396 . S
C1020 C1025 1.390 . S
C1021 C1015 1.465 . S
C1021 C1020 1.396 . S
C1021 C1022 1.399 . S
C1022 H1008 0.929 . S
C1022 C1021 1.399 . S
C1022 C1023 1.385 . S
C1023 H1009 0.931 . S
C1023 C1022 1.385 . S
C1023 C1024 1.389 . S
C1024 C1023 1.389 . S
C1024 C1025 1.387 . S
C1025 H1010 0.930 . S
C1025 C1020 1.390 . S
C1025 C1024 1.387 . S
H1026 C1038 0.930 . S
H1027 C1040 0.930 . S
H1028 C1041 0.930 . S
H1029 C1045 0.959 . S
H1030 C1045 0.959 . S
H1031 C1045 0.961 . S
H1032 C1046 0.960 . S
H1033 C1046 0.961 . S
H1034 C1046 0.959 . S
H1035 C1049 0.929 . S
H1036 C1050 0.931 . S
H1037 C1052 0.930 . S
C1038 H1026 0.930 . S
C1038 C1039 1.399 . S
C1038 C1043 1.399 . S
C1039 C1038 1.399 . S
C1039 C1040 1.376 . S
C1040 H1027 0.930 . S
C1040 C1039 1.376 . S
C1040 C1041 1.388 . S
C1041 H1028 0.930 . S
C1041 C1040 1.388 . S
C1041 C1042 1.390 . S
C1042 C1041 1.390 . S
C1042 C1043 1.394 . S
C1042 C1048 1.465 . S
C1043 C1038 1.399 . S
C1043 C1042 1.394 . S
C1043 C1044 1.516 . S
C1044 C1043 1.516 . S
C1044 C1045 1.502 . S
C1044 C1046 1.561 . S
C1044 C1047 1.526 . S
C1045 H1029 0.959 . S
C1045 H1030 0.959 . S
C1045 H1031 0.961 . S
C1045 C1044 1.502 . S
C1046 H1032 0.960 . S
C1046 H1033 0.961 . S
C1046 H1034 0.959 . S
C1046 C1044 1.561 . S
C1047 C1044 1.526 . S
C1047 C1048 1.396 . S
C1047 C1052 1.390 . S
C1048 C1042 1.465 . S
C1048 C1047 1.396 . S
C1048 C1049 1.399 . S
C1049 H1035 0.929 . S
C1049 C1048 1.399 . S
C1049 C1050 1.385 . S
C1050 H1036 0.931 . S
C1050 C1049 1.385 . S
C1050 C1051 1.389 . S
C1051 C1050 1.389 . S
C1051 C1052 1.387 . S
C1052 H1037 0.930 . S
C1052 C1047 1.390 . S
C1052 C1051 1.387 . S
H1053 C1065 0.930 . S
H1054 C1067 0.930 . S
H1055 C1068 0.930 . S
H1056 C1072 0.959 . S
H1057 C1072 0.959 . S
H1058 C1072 0.961 . S
H1059 C1073 0.960 . S
H1060 C1073 0.961 . S
H1061 C1073 0.959 . S
H1062 C1076 0.929 . S
H1063 C1077 0.931 . S
H1064 C1079 0.930 . S
C1065 H1053 0.930 . S
C1065 C1066 1.399 . S
C1065 C1070 1.399 . S
C1066 C1065 1.399 . S
C1066 C1067 1.376 . S
C1067 H1054 0.930 . S
C1067 C1066 1.376 . S
C1067 C1068 1.388 . S
C1068 H1055 0.930 . S
C1068 C1067 1.388 . S
C1068 C1069 1.390 . S
C1069 C1068 1.390 . S
C1069 C1070 1.394 . S
C1069 C1075 1.465 . S
C1070 C1065 1.399 . S
C1070 C1069 1.394 . S
C1070 C1071 1.516 . S
C1071 C1070 1.516 . S
C1071 C1072 1.502 . S
C1071 C1073 1.561 . S
C1071 C1074 1.526 . S
C1072 H1056 0.959 . S
C1072 H1057 0.959 . S
C1072 H1058 0.961 . S
C1072 C1071 1.502 . S
C1073 H1059 0.960 . S
C1073 H1060 0.961 . S
C1073 H1061 0.959 . S
C1073 C1071 1.561 . S
C1074 C1071 1.526 . S
C1074 C1075 1.396 . S
C1074 C1079 1.390 . S
C1075 C1069 1.465 . S
C1075 C1074 1.396 . S
C1075 C1076 1.399 . S
C1076 H1062 0.929 . S
C1076 C1075 1.399 . S
C1076 C1077 1.385 . S
C1077 H1063 0.931 . S
C1077 C1076 1.385 . S
C1077 C1078 1.389 . S
C1078 C1077 1.389 . S
C1078 C1079 1.387 . S
C1079 H1064 0.930 . S
C1079 C1074 1.390 . S
C1079 C1078 1.387 . S
C445 C81 1.682 . S
C457 C170 1.650 . S
C484 C254 1.679 . S
C472 C93 1.666 . S
C511 C247 1.665 . S
C499 C57 1.681 . S
C526 C69 1.661 . S
C538 C163 1.670 . S
C565 C327 1.677 . S
C553 C33 1.674 . S
C592 C411 1.648 . S
C580 C45 1.662 . S
C607 C9 1.663 . S
C619 C404 1.677 . S
C634 C21 1.671 . S
C646 C320 1.655 . S
C673 C154 1.459 . S
C661 C18 1.614 . S
C700 C238 1.464 . S
C688 C6 1.613 . S
C727 C249 1.452 . S
C715 C42 1.601 . S
C754 C165 1.334 . S
C742 C30 1.620 . S
C781 C333 1.394 . S
C769 C66 1.612 . S
C796 C54 1.612 . S
C808 C417 1.395 . S
C835 C406 1.329 . S
C823 C90 1.624 . S
C850 C78 1.615 . S
C862 C322 1.415 . S
C889 C152 1.531 . S
C877 C4 1.494 . S
C916 C236 1.537 . S
C904 C16 1.503 . S
C931 C28 1.519 . S
C943 C243 1.519 . S
C970 C159 1.484 . S
C958 C40 1.506 . S
C997 C331 1.533 . S
C985 C52 1.485 . S
C1012 C64 1.534 . S
C1024 C415 1.527 . S
C1039 C76 1.523 . S
C1051 C422 1.521 . S
C1066 C88 1.483 . S
C1078 C338 1.475 . S
