# Generated by pormake.
# Topology zzz, (3,6)-cn, num edge types: 1
# Building blocks:
#     Node 0, Type 0, BuildingBlock: VETTIZ_charged_linker_0, # of connection points: 3
#     Node 1, Type 0, BuildingBlock: VETTIZ_charged_linker_0, # of connection points: 3
#     Node 2, Type 0, BuildingBlock: VETTIZ_charged_linker_0, # of connection points: 3
#     Node 3, Type 0, BuildingBlock: VETTIZ_charged_linker_0, # of connection points: 3
#     Node 4, Type 0, BuildingBlock: VETTIZ_charged_linker_0, # of connection points: 3
#     Node 5, Type 0, BuildingBlock: VETTIZ_charged_linker_0, # of connection points: 3
#     Node 6, Type 0, BuildingBlock: VETTIZ_charged_linker_0, # of connection points: 3
#     Node 7, Type 0, BuildingBlock: VETTIZ_charged_linker_0, # of connection points: 3
#     Node 8, Type 1, BuildingBlock: FUNLAD_clean_sbu_0, # of connection points: 6
#     Node 9, Type 1, BuildingBlock: FUNLAD_clean_sbu_0, # of connection points: 6
#     Node 10, Type 1, BuildingBlock: FUNLAD_clean_sbu_0, # of connection points: 6
#     Node 11, Type 1, BuildingBlock: FUNLAD_clean_sbu_0, # of connection points: 6
#     Edge 12, Type (0, 1), BuildingBlock: XUDNAN_clean_linker_2, # of connection points: 2
#     Edge 13, Type (0, 1), BuildingBlock: XUDNAN_clean_linker_2, # of connection points: 2
#     Edge 14, Type (0, 1), BuildingBlock: XUDNAN_clean_linker_2, # of connection points: 2
#     Edge 15, Type (0, 1), BuildingBlock: XUDNAN_clean_linker_2, # of connection points: 2
#     Edge 16, Type (0, 1), BuildingBlock: XUDNAN_clean_linker_2, # of connection points: 2
#     Edge 17, Type (0, 1), BuildingBlock: XUDNAN_clean_linker_2, # of connection points: 2
#     Edge 18, Type (0, 1), BuildingBlock: XUDNAN_clean_linker_2, # of connection points: 2
#     Edge 19, Type (0, 1), BuildingBlock: XUDNAN_clean_linker_2, # of connection points: 2
#     Edge 20, Type (0, 1), BuildingBlock: XUDNAN_clean_linker_2, # of connection points: 2
#     Edge 21, Type (0, 1), BuildingBlock: XUDNAN_clean_linker_2, # of connection points: 2
#     Edge 22, Type (0, 1), BuildingBlock: XUDNAN_clean_linker_2, # of connection points: 2
#     Edge 23, Type (0, 1), BuildingBlock: XUDNAN_clean_linker_2, # of connection points: 2
#     Edge 24, Type (0, 1), BuildingBlock: XUDNAN_clean_linker_2, # of connection points: 2
#     Edge 25, Type (0, 1), BuildingBlock: XUDNAN_clean_linker_2, # of connection points: 2
#     Edge 26, Type (0, 1), BuildingBlock: XUDNAN_clean_linker_2, # of connection points: 2
#     Edge 27, Type (0, 1), BuildingBlock: XUDNAN_clean_linker_2, # of connection points: 2
#     Edge 28, Type (0, 1), BuildingBlock: XUDNAN_clean_linker_2, # of connection points: 2
#     Edge 29, Type (0, 1), BuildingBlock: XUDNAN_clean_linker_2, # of connection points: 2
#     Edge 30, Type (0, 1), BuildingBlock: XUDNAN_clean_linker_2, # of connection points: 2
#     Edge 31, Type (0, 1), BuildingBlock: XUDNAN_clean_linker_2, # of connection points: 2
#     Edge 32, Type (0, 1), BuildingBlock: XUDNAN_clean_linker_2, # of connection points: 2
#     Edge 33, Type (0, 1), BuildingBlock: XUDNAN_clean_linker_2, # of connection points: 2
#     Edge 34, Type (0, 1), BuildingBlock: XUDNAN_clean_linker_2, # of connection points: 2
#     Edge 35, Type (0, 1), BuildingBlock: XUDNAN_clean_linker_2, # of connection points: 2
# Relax obj value: 0.286
# Max RMSD: 0.230
# Mean RMSD: 0.195
data_MOF--net-zzz--node1-FUNLAD_clean_sbu_0--node2-VETTIZ_charged_linker_0--edge1-XUDNAN_clean_linker_2
_symmetry_space_group_name_H-M    P1
_symmetry_Int_Tables_number       1
_symmetry_cell_setting            triclinic
loop_
_symmetry_equiv_pos_as_xyz
'x, y, z'
_cell_length_a     56.904474
_cell_length_b     62.22758
_cell_length_c     22.531794
_cell_angle_alpha  86.85992
_cell_angle_beta   86.59241
_cell_angle_gamma 92.402707
loop_
_atom_site_label
_atom_site_type_symbol
_atom_site_fract_x
_atom_site_fract_y
_atom_site_fract_z
_atom_type_partial_charge
C0 C 0.83508 0.46707 0.36118 0.0
C1 C 0.85687 0.46125 0.38303 0.0
C2 C 0.87024 0.44635 0.35223 0.0
C3 C 0.84123 0.4439 0.27869 0.0
C4 C 0.82753 0.45804 0.30903 0.0
C5 C 0.80498 0.46203 0.2785 0.0
H6 H 0.7443 0.45111 0.02948 0.0
C7 C 0.82952 0.43819 0.22479 0.0
C8 C 0.80801 0.44848 0.22424 0.0
H9 H 0.72196 0.48381 0.18651 0.0
H10 H 0.757 0.47298 0.23399 0.0
H11 H 0.79796 0.46506 0.02631 0.0
H12 H 0.75768 0.40892 0.09973 0.0
H13 H 0.78496 0.39959 0.07432 0.0
H14 H 0.76637 0.41241 0.02187 0.0
H15 H 0.78521 0.44519 0.98157 0.0
H16 H 0.81416 0.4427 0.00841 0.0
C17 C 0.80453 0.48633 0.26073 0.0
C18 C 0.78393 0.45347 0.32099 0.0
C19 C 0.87614 0.40057 0.06585 0.0
C20 C 0.87173 0.39676 0.00657 0.0
C21 C 0.84854 0.39803 0.98833 0.0
C22 C 0.83065 0.40535 0.02651 0.0
C23 C 0.83609 0.41167 0.08325 0.0
C24 C 0.85817 0.40818 0.10316 0.0
C25 C 0.86097 0.41629 0.16407 0.0
C26 C 0.83728 0.42613 0.17623 0.0
C27 C 0.82296 0.42363 0.12844 0.0
C28 C 0.88162 0.43357 0.15919 0.0
C29 C 0.86442 0.39661 0.20755 0.0
C30 C 0.74639 0.45568 0.07458 0.0
C31 C 0.73002 0.46846 0.10368 0.0
C32 C 0.73433 0.47433 0.16205 0.0
C33 C 0.75465 0.4679 0.1899 0.0
C34 C 0.77086 0.45532 0.15944 0.0
C35 C 0.76618 0.44911 0.10323 0.0
C36 C 0.78465 0.43528 0.07736 0.0
C37 C 0.80133 0.43409 0.12718 0.0
C38 C 0.79357 0.4462 0.17503 0.0
C39 C 0.79612 0.44746 0.02021 0.0
C40 C 0.77295 0.4129 0.06723 0.0
H41 H 0.87376 0.42656 0.27974 0.0
H42 H 0.82426 0.47833 0.384 0.0
H43 H 0.78822 0.43828 0.3456 0.0
H44 H 0.76813 0.44929 0.29715 0.0
H45 H 0.77938 0.46536 0.35435 0.0
H46 H 0.82176 0.49226 0.23859 0.0
H47 H 0.80115 0.49576 0.30059 0.0
H48 H 0.79114 0.49011 0.22883 0.0
H49 H 0.89381 0.3999 0.08108 0.0
H50 H 0.84468 0.3949 0.943 0.0
H51 H 0.8137 0.40711 0.00889 0.0
H52 H 0.88156 0.44357 0.1167 0.0
H53 H 0.89891 0.42595 0.16018 0.0
H54 H 0.88058 0.44525 0.19419 0.0
H55 H 0.85655 0.38149 0.19147 0.0
H56 H 0.85538 0.39813 0.25194 0.0
H57 H 0.8834 0.39408 0.21288 0.0
H58 H 0.88728 0.44187 0.36667 0.0
C59 C 0.86247 0.43755 0.30098 0.0
C60 C 0.95116 0.81252 0.92216 0.0
C61 C 0.94543 0.83436 0.91799 0.0
C62 C 0.92386 0.84027 0.94566 0.0
C63 C 0.91926 0.80528 0.99676 0.0
C64 C 0.93739 0.79811 0.96101 0.0
C65 C 0.94119 0.77466 0.97485 0.0
H66 H 0.95066 0.69392 0.16456 0.0
C67 C 0.9135 0.78913 0.04577 0.0
C68 C 0.92399 0.77022 0.02955 0.0
H69 H 0.93329 0.68868 0.98104 0.0
H70 H 0.9193 0.72532 0.97944 0.0
H71 H 0.97301 0.74654 0.1497 0.0
H72 H 0.90084 0.72396 0.20076 0.0
H73 H 0.91399 0.74082 0.25241 0.0
H74 H 0.92509 0.71469 0.24155 0.0
H75 H 0.96612 0.73017 0.21728 0.0
H76 H 0.96098 0.75853 0.21327 0.0
C77 C 0.96697 0.77147 0.99026 0.0
C78 C 0.93497 0.76199 0.92056 0.0
C79 C 0.90188 0.82207 0.24424 0.0
C80 C 0.91498 0.81992 0.29497 0.0
C81 C 0.92608 0.80024 0.30563 0.0
C82 C 0.92575 0.78417 0.26354 0.0
C83 C 0.91549 0.78838 0.20896 0.0
C84 C 0.90449 0.80755 0.19966 0.0
C85 C 0.90089 0.81295 0.13515 0.0
C86 C 0.90976 0.79288 0.10737 0.0
C87 C 0.91743 0.77803 0.15117 0.0
C88 C 0.91601 0.83383 0.11448 0.0
C89 C 0.87438 0.81521 0.12703 0.0
C90 C 0.94466 0.70091 0.1234 0.0
C91 C 0.94438 0.68896 0.07164 0.0
C92 C 0.9351 0.69805 0.0198 0.0
C93 C 0.92806 0.7192 0.01746 0.0
C94 C 0.93152 0.73155 0.06601 0.0
C95 C 0.93758 0.7224 0.11962 0.0
C96 C 0.93523 0.73846 0.16806 0.0
C97 C 0.92546 0.75776 0.13366 0.0
C98 C 0.92568 0.75359 0.07348 0.0
C99 C 0.96009 0.74373 0.18869 0.0
C100 C 0.91786 0.72902 0.21873 0.0
H101 H 0.89431 0.83039 0.00595 0.0
H102 H 0.96694 0.80709 0.89957 0.0
H103 H 0.94183 0.77075 0.87831 0.0
H104 H 0.91558 0.7595 0.91876 0.0
H105 H 0.9434 0.74625 0.92091 0.0
H106 H 0.97168 0.78143 0.02768 0.0
H107 H 0.97939 0.77599 0.95126 0.0
H108 H 0.96962 0.75434 0.00354 0.0
H109 H 0.89216 0.83634 0.23513 0.0
H110 H 0.93611 0.79769 0.34451 0.0
H111 H 0.93479 0.76974 0.27314 0.0
H112 H 0.93277 0.83009 0.09022 0.0
H113 H 0.92133 0.84351 0.15176 0.0
H114 H 0.90617 0.8451 0.08659 0.0
H115 H 0.86392 0.80119 0.14918 0.0
H116 H 0.87052 0.81583 0.07942 0.0
H117 H 0.86813 0.8301 0.14666 0.0
H118 H 0.918 0.85653 0.93969 0.0
C119 C 0.91049 0.82555 0.98458 0.0
C120 C 0.81134 0.00461 0.09855 0.0
C121 C 0.82605 0.01532 0.05165 0.0
C122 C 0.81932 0.03542 0.0277 0.0
C123 C 0.78254 0.03186 0.08685 0.0
C124 C 0.78982 0.01374 0.11694 0.0
C125 C 0.77278 0.00749 0.17084 0.0
H126 H 0.67281 0.03621 0.33277 0.0
C127 C 0.76001 0.03779 0.11366 0.0
C128 C 0.75452 0.02499 0.16618 0.0
H129 H 0.71233 0.97965 0.36944 0.0
H130 H 0.74003 0.99058 0.28545 0.0
H131 H 0.71612 0.07093 0.28637 0.0
H132 H 0.66302 0.03245 0.22676 0.0
H133 H 0.67653 0.03887 0.15497 0.0
H134 H 0.66403 0.05947 0.19925 0.0
H135 H 0.68473 0.07329 0.28554 0.0
H136 H 0.70419 0.08443 0.22453 0.0
C137 C 0.78623 0.00873 0.22795 0.0
C138 C 0.76174 0.98488 0.16304 0.0
C139 C 0.69859 0.06845 0.98549 0.0
C140 C 0.67696 0.0776 1.00034 0.0
C141 C 0.67259 0.08466 0.05815 0.0
C142 C 0.68827 0.0802 0.1024 0.0
C143 C 0.70793 0.06818 0.0887 0.0
C144 C 0.71414 0.06437 0.03032 0.0
C145 C 0.73785 0.05457 0.02409 0.0
C146 C 0.74341 0.0515 0.08975 0.0
C147 C 0.72448 0.05741 0.12681 0.0
C148 C 0.75491 0.07056 0.98638 0.0
C149 C 0.73556 0.03276 0.99497 0.0
C150 C 0.68707 0.02574 0.323 0.0
C151 C 0.68976 0.0068 0.35834 0.0
C152 C 0.70952 0.99444 0.34382 0.0
C153 C 0.72559 0.00069 0.29466 0.0
C154 C 0.72177 0.01928 0.25861 0.0
C155 C 0.70236 0.0311 0.27291 0.0
C156 C 0.6988 0.04895 0.22741 0.0
C157 C 0.71968 0.04641 0.18353 0.0
C158 C 0.73372 0.02933 0.20222 0.0
C159 C 0.70095 0.07063 0.25744 0.0
C160 C 0.6745 0.04485 0.20045 0.0
H161 H 0.79451 0.06016 0.03188 0.0
H162 H 0.81663 0.98985 0.12058 0.0
H163 H 0.75452 0.98412 0.11836 0.0
H164 H 0.74701 0.98057 0.19615 0.0
H165 H 0.77515 0.97249 0.16703 0.0
H166 H 0.79597 0.02458 0.2285 0.0
H167 H 0.7992 0.9959 0.23051 0.0
H168 H 0.77433 0.00704 0.26855 0.0
H169 H 0.70269 0.06368 0.94068 0.0
H170 H 0.65634 0.09228 0.07009 0.0
H171 H 0.68439 0.08565 0.1461 0.0
H172 H 0.74591 0.07877 0.94961 0.0
H173 H 0.76942 0.06215 0.96387 0.0
H174 H 0.76216 0.0832 0.01405 0.0
H175 H 0.72241 0.0217 0.02094 0.0
H176 H 0.75271 0.02488 0.99282 0.0
H177 H 0.72995 0.03498 0.94872 0.0
H178 H 0.83051 0.04457 0.99393 0.0
C179 C 0.79799 0.04394 0.04643 0.0
C180 C 0.56377 0.69372 0.40543 0.0
C181 C 0.57215 0.67323 0.42234 0.0
C182 C 0.587 0.66308 0.38103 0.0
C183 C 0.57832 0.68931 0.30423 0.0
C184 C 0.56771 0.70175 0.34572 0.0
C185 C 0.56101 0.72305 0.31658 0.0
H186 H 0.5414 0.77934 0.057 0.0
C187 C 0.57466 0.69856 0.24472 0.0
C188 C 0.56584 0.71903 0.25056 0.0
H189 H 0.54487 0.80426 0.2319 0.0
H190 H 0.55325 0.76866 0.27315 0.0
H191 H 0.58641 0.74981 0.05961 0.0
H192 H 0.51269 0.73483 0.10674 0.0
H193 H 0.52405 0.71282 0.07112 0.0
H194 H 0.52393 0.73862 0.03063 0.0
H195 H 0.56426 0.75023 0.00598 0.0
H196 H 0.57774 0.7256 0.02786 0.0
C197 C 0.57754 0.74131 0.33701 0.0
C198 C 0.53467 0.72646 0.33159 0.0
C199 C 0.56196 0.64486 0.08944 0.0
C200 C 0.55412 0.64607 0.03148 0.0
C201 C 0.55081 0.66664 0.00427 0.0
C202 C 0.55465 0.68542 0.03529 0.0
C203 C 0.56175 0.6836 0.09417 0.0
C204 C 0.56586 0.66352 0.11934 0.0
C205 C 0.57384 0.66411 0.18142 0.0
C206 C 0.57277 0.68807 0.1909 0.0
C207 C 0.56519 0.69933 0.14032 0.0
C208 C 0.59927 0.65595 0.18203 0.0
C209 C 0.55576 0.6504 0.22346 0.0
C210 C 0.54429 0.77729 0.10401 0.0
C211 C 0.54276 0.79475 0.14095 0.0
C212 C 0.54592 0.79112 0.2024 0.0
C213 C 0.55102 0.7706 0.22623 0.0
C214 C 0.55289 0.75351 0.18836 0.0
C215 C 0.5494 0.75696 0.12843 0.0
C216 C 0.55159 0.73673 0.09522 0.0
C217 C 0.5592 0.72118 0.14384 0.0
C218 C 0.55943 0.73096 0.19872 0.0
C219 C 0.57091 0.7407 0.04409 0.0
C220 C 0.52692 0.73034 0.07429 0.0
H221 H 0.6014 0.66289 0.29212 0.0
H222 H 0.55352 0.70261 0.43696 0.0
H223 H 0.52372 0.71225 0.31996 0.0
H224 H 0.52849 0.74073 0.30672 0.0
H225 H 0.53132 0.72872 0.37988 0.0
H226 H 0.59322 0.73491 0.35802 0.0
H227 H 0.5683 0.75108 0.37018 0.0
H228 H 0.5848 0.75215 0.29904 0.0
H229 H 0.5644 0.62953 0.11266 0.0
H230 H 0.54519 0.66825 0.95925 0.0
H231 H 0.55176 0.70062 0.0126 0.0
H232 H 0.60613 0.65111 0.13769 0.0
H233 H 0.60012 0.64153 0.21303 0.0
H234 H 0.612 0.66867 0.19478 0.0
H235 H 0.53775 0.65643 0.2198 0.0
H236 H 0.55978 0.65046 0.2706 0.0
H237 H 0.55534 0.63324 0.21228 0.0
H238 H 0.59438 0.64774 0.39222 0.0
C239 C 0.59047 0.67134 0.32232 0.0
C240 C 0.28476 0.51979 0.30826 0.0
C241 C 0.28446 0.51822 0.37122 0.0
C242 C 0.26263 0.5159 0.4044 0.0
C243 C 0.24247 0.52318 0.31542 0.0
C244 C 0.26314 0.52165 0.28098 0.0
C245 C 0.25868 0.52431 0.21528 0.0
H246 H 0.17986 0.55298 0.01223 0.0
C247 C 0.2242 0.53067 0.27751 0.0
C248 C 0.23227 0.52864 0.21821 0.0
H249 H 0.2116 0.49117 0.01691 0.0
H250 H 0.22951 0.49959 0.10936 0.0
H251 H 0.15916 0.54041 0.13604 0.0
H252 H 0.21905 0.5845 0.08841 0.0
H253 H 0.20117 0.59519 0.14507 0.0
H254 H 0.18953 0.59129 0.07338 0.0
H255 H 0.15655 0.56549 0.09384 0.0
H256 H 0.15574 0.5643 0.17301 0.0
C257 C 0.26473 0.5036 0.18465 0.0
C258 C 0.27336 0.54385 0.1859 0.0
C259 C 0.16275 0.57754 0.37012 0.0
C260 C 0.14779 0.5927 0.34573 0.0
C261 C 0.15162 0.59959 0.2851 0.0
C262 C 0.16847 0.58998 0.24843 0.0
C263 C 0.18114 0.57301 0.27239 0.0
C264 C 0.1794 0.56811 0.33295 0.0
C265 C 0.19538 0.55062 0.35146 0.0
C266 C 0.20645 0.54534 0.2911 0.0
C267 C 0.19732 0.55795 0.24505 0.0
C268 C 0.18007 0.53129 0.38054 0.0
C269 C 0.2134 0.56002 0.39351 0.0
C270 C 0.19178 0.5417 0.03096 0.0
C271 C 0.19462 0.52161 0.00647 0.0
C272 C 0.2098 0.50708 0.03336 0.0
C273 C 0.22068 0.51209 0.08583 0.0
C274 C 0.21679 0.53192 0.11075 0.0
C275 C 0.20153 0.54589 0.08488 0.0
C276 C 0.19166 0.56121 0.12867 0.0
C277 C 0.20279 0.55336 0.18501 0.0
C278 C 0.21919 0.53783 0.17241 0.0
C279 C 0.16438 0.55789 0.13336 0.0
C280 C 0.20061 0.58435 0.10792 0.0
H281 H 0.22536 0.51654 0.40342 0.0
H282 H 0.30129 0.5209 0.28163 0.0
H283 H 0.26962 0.55867 0.20958 0.0
H284 H 0.26907 0.54666 0.1387 0.0
H285 H 0.29251 0.54113 0.18668 0.0
H286 H 0.25159 0.4903 0.19862 0.0
H287 H 0.2824 0.49837 0.19637 0.0
H288 H 0.26562 0.50636 0.13552 0.0
H289 H 0.16043 0.57176 0.41638 0.0
H290 H 0.14074 0.6116 0.26543 0.0
H291 H 0.17015 0.59526 0.20219 0.0
H292 H 0.18944 0.51609 0.38034 0.0
H293 H 0.16406 0.52841 0.35553 0.0
H294 H 0.17429 0.53427 0.42723 0.0
H295 H 0.23049 0.56488 0.36899 0.0
H296 H 0.2166 0.54855 0.43117 0.0
H297 H 0.20701 0.57455 0.41484 0.0
H298 H 0.26196 0.51363 0.45253 0.0
C299 C 0.2416 0.51823 0.37661 0.0
C300 C 0.06124 0.17515 0.41434 0.0
C301 C 0.05822 0.15306 0.40436 0.0
C302 C 0.06685 0.14568 0.34948 0.0
C303 C 0.07773 0.18212 0.31313 0.0
C304 C 0.0708 0.1894 0.36786 0.0
C305 C 0.07337 0.21359 0.36834 0.0
H306 H 0.07729 0.30961 0.21445 0.0
C307 C 0.08316 0.20096 0.27145 0.0
C308 C 0.08072 0.2195 0.30296 0.0
H309 H 0.07842 0.29577 0.4048 0.0
H310 H 0.08233 0.25841 0.38945 0.0
H311 H 0.12163 0.2742 0.18365 0.0
H312 H 0.04551 0.26614 0.18105 0.0
H313 H 0.06012 0.2577 0.11539 0.0
H314 H 0.06205 0.28567 0.13158 0.0
H315 H 0.1052 0.29064 0.13432 0.0
H316 H 0.11263 0.26385 0.11651 0.0
C317 C 0.09306 0.21944 0.41036 0.0
C318 C 0.04902 0.22217 0.38695 0.0
C319 C 0.09537 0.18672 0.05507 0.0
C320 C 0.09537 0.1992 1.00183 0.0
C321 C 0.09311 0.22166 0.00361 0.0
C322 C 0.09102 0.2314 0.05899 0.0
C323 C 0.09077 0.21838 0.11243 0.0
C324 C 0.09274 0.19639 0.10901 0.0
C325 C 0.08968 0.18424 0.16794 0.0
C326 C 0.0868 0.20248 0.20873 0.0
C327 C 0.08752 0.22264 0.17684 0.0
C328 C 0.11263 0.17234 0.17849 0.0
C329 C 0.06696 0.16931 0.16798 0.0
C330 C 0.07833 0.29846 0.2527 0.0
C331 C 0.07633 0.30566 0.31124 0.0
C332 C 0.07862 0.29068 0.35957 0.0
C333 C 0.08104 0.26891 0.35076 0.0
C334 C 0.0812 0.26173 0.29306 0.0
C335 C 0.08102 0.27633 0.24469 0.0
C336 C 0.08385 0.26523 0.1866 0.0
C337 C 0.0852 0.2417 0.2089 0.0
C338 C 0.0828 0.23997 0.27158 0.0
C339 C 0.10701 0.27394 0.15301 0.0
C340 C 0.0618 0.2689 0.15131 0.0
H341 H 0.08287 0.15322 0.26397 0.0
H342 H 0.0556 0.18132 0.4566 0.0
H343 H 0.03515 0.21517 0.36002 0.0
H344 H 0.04831 0.2398 0.38048 0.0
H345 H 0.0441 0.21777 0.43464 0.0
H346 H 0.10349 0.20534 0.42294 0.0
H347 H 0.08561 0.22565 0.45244 0.0
H348 H 0.10615 0.23158 0.38878 0.0
H349 H 0.09642 0.16935 0.05477 0.0
H350 H 0.09283 0.23152 0.96258 0.0
H351 H 0.08923 0.24851 0.05828 0.0
H352 H 0.12843 0.18249 0.1614 0.0
H353 H 0.11291 0.15707 0.15521 0.0
H354 H 0.11526 0.16881 0.2262 0.0
H355 H 0.05544 0.17002 0.20912 0.0
H356 H 0.0713 0.15231 0.16179 0.0
H357 H 0.05544 0.17414 0.13177 0.0
H358 H 0.06477 0.12892 0.33948 0.0
C359 C 0.07696 0.15999 0.30457 0.0
C360 C 0.31349 0.00171 0.1017 0.0
C361 C 0.33597 0.99425 0.08295 0.0
C362 C 0.34643 0.97919 0.12078 0.0
C363 C 0.31397 0.97987 0.19462 0.0
C364 C 0.30261 0.99397 0.15793 0.0
C365 C 0.2785 0.99871 0.18689 0.0
H366 H 0.20482 0.98653 0.44424 0.0
C367 C 0.30001 0.97609 0.25172 0.0
C368 C 0.27884 0.98686 0.24867 0.0
H369 H 0.18702 0.01586 0.2756 0.0
H370 H 0.22639 0.00956 0.23281 0.0
H371 H 0.23063 0.94653 0.39363 0.0
H372 H 0.25518 0.00892 0.44308 0.0
H373 H 0.27788 0.99165 0.45851 0.0
H374 H 0.24928 0.98697 0.49747 0.0
H375 H 0.22891 0.9552 0.46848 0.0
H376 H 0.25481 0.94319 0.43824 0.0
C377 C 0.25941 0.98883 0.14952 0.0
C378 C 0.27678 0.0232 0.1914 0.0
C379 C 0.3415 0.94107 0.42046 0.0
C380 C 0.33776 0.94146 0.48231 0.0
C381 C 0.31555 0.94676 0.50674 0.0
C382 C 0.29803 0.95354 0.46924 0.0
C383 C 0.30309 0.95538 0.40705 0.0
C384 C 0.32444 0.94879 0.38399 0.0
C385 C 0.32851 0.95437 0.3187 0.0
C386 C 0.30614 0.96568 0.30578 0.0
C387 C 0.29111 0.96587 0.35709 0.0
C388 C 0.33 0.93291 0.28688 0.0
C389 C 0.35092 0.96982 0.3093 0.0
C390 C 0.20926 0.99191 0.39827 0.0
C391 C 0.19253 0.00174 0.36378 0.0
C392 C 0.19935 0.00803 0.30349 0.0
C393 C 0.22218 0.00429 0.27848 0.0
C394 C 0.23842 0.99388 0.31364 0.0
C395 C 0.23164 0.98805 0.37269 0.0
C396 C 0.25053 0.97705 0.40451 0.0
C397 C 0.26931 0.97595 0.35452 0.0
C398 C 0.26273 0.98621 0.30077 0.0
C399 C 0.24083 0.95431 0.42791 0.0
C400 C 0.25864 0.99171 0.45375 0.0
H401 H 0.34496 0.96053 0.20087 0.0
H402 H 0.30472 0.01305 0.07343 0.0
H403 H 0.29209 0.02989 0.21396 0.0
H404 H 0.26068 0.02727 0.21742 0.0
H405 H 0.27669 0.03144 0.14641 0.0
H406 H 0.26338 0.97198 0.13983 0.0
H407 H 0.25861 0.99823 0.10635 0.0
H408 H 0.24178 0.98806 0.17276 0.0
H409 H 0.35854 0.93721 0.40072 0.0
H410 H 0.31238 0.9472 0.55453 0.0
H411 H 0.28172 0.95814 0.4902 0.0
H412 H 0.31855 0.9199 0.31092 0.0
H413 H 0.34828 0.9273 0.28454 0.0
H414 H 0.32349 0.93407 0.24154 0.0
H415 H 0.35472 0.97817 0.35035 0.0
H416 H 0.34905 0.98323 0.27592 0.0
H417 H 0.3668 0.96096 0.29639 0.0
H418 H 0.36369 0.97336 0.10918 0.0
C419 C 0.33555 0.97185 0.17523 0.0
C420 C 0.4598 0.31342 0.04021 0.0
C421 C 0.45405 0.33503 0.02664 0.0
C422 C 0.44272 0.34646 0.07165 0.0
C423 C 0.44899 0.31777 0.14415 0.0
C424 C 0.45647 0.3049 0.09964 0.0
C425 C 0.46057 0.28234 0.12498 0.0
H426 H 0.47739 0.21921 0.37634 0.0
C427 C 0.45215 0.30665 0.20188 0.0
C428 C 0.45794 0.28536 0.19199 0.0
H429 H 0.47182 0.19744 0.19872 0.0
H430 H 0.46606 0.23423 0.16151 0.0
H431 H 0.5094 0.25731 0.33993 0.0
H432 H 0.43476 0.25231 0.37761 0.0
H433 H 0.44632 0.27445 0.41423 0.0
H434 H 0.4566 0.24797 0.4309 0.0
H435 H 0.49688 0.26069 0.41332 0.0
H436 H 0.5025 0.28327 0.35974 0.0
C437 C 0.48562 0.27602 0.105 0.0
C438 C 0.44092 0.267 0.10472 0.0
C439 C 0.47051 0.35375 0.37039 0.0
C440 C 0.48081 0.3494 0.42451 0.0
C441 C 0.48248 0.32785 0.4458 0.0
C442 C 0.47509 0.31088 0.41189 0.0
C443 C 0.46658 0.31553 0.35546 0.0
C444 C 0.46392 0.33668 0.3362 0.0
C445 C 0.45583 0.3388 0.274 0.0
C446 C 0.45509 0.3153 0.25803 0.0
C447 C 0.46144 0.30187 0.3058 0.0
C448 C 0.47482 0.35274 0.23531 0.0
C449 C 0.43109 0.34848 0.27622 0.0
C450 C 0.47431 0.22213 0.32967 0.0
C451 C 0.47448 0.20525 0.29089 0.0
C452 C 0.47155 0.21012 0.22978 0.0
C453 C 0.46796 0.2314 0.20835 0.0
C454 C 0.46736 0.24799 0.24836 0.0
C455 C 0.4707 0.2431 0.30782 0.0
C456 C 0.47084 0.26257 0.34404 0.0
C457 C 0.46487 0.27976 0.29792 0.0
C458 C 0.46318 0.27139 0.24141 0.0
C459 C 0.49607 0.2662 0.36578 0.0
C460 C 0.45121 0.25923 0.39474 0.0
H461 H 0.43183 0.34736 0.16286 0.0
H462 H 0.46745 0.30382 0.00603 0.0
H463 H 0.42384 0.27506 0.10416 0.0
H464 H 0.43745 0.25261 0.13528 0.0
H465 H 0.44529 0.26187 0.05907 0.0
H466 H 0.49881 0.28886 0.1147 0.0
H467 H 0.4871 0.27376 0.05638 0.0
H468 H 0.49065 0.26101 0.12831 0.0
H469 H 0.46905 0.37019 0.3531 0.0
H470 H 0.49001 0.32417 0.48801 0.0
H471 H 0.47697 0.29482 0.43012 0.0
H472 H 0.49242 0.34577 0.23849 0.0
H473 H 0.47602 0.36944 0.25022 0.0
H474 H 0.47136 0.35417 0.18785 0.0
H475 H 0.4237 0.35002 0.32255 0.0
H476 H 0.418 0.3381 0.25513 0.0
H477 H 0.43168 0.36487 0.25382 0.0
H478 H 0.43766 0.36287 0.06305 0.0
C479 C 0.43984 0.33775 0.13003 0.0
C480 C 0.02444 0.96301 0.76809 0.0
N481 N 0.9797 0.96486 0.628 0.0
C482 C 0.9915 0.9472 0.61235 0.0
C483 C 0.98107 0.93184 0.57813 0.0
C484 C 0.95846 0.93486 0.55864 0.0
C485 C 0.94653 0.95307 0.57574 0.0
C486 C 0.95744 0.96785 0.61112 0.0
Zn487 Zn 0.99653 0.987 0.67732 0.0
C488 C 0.96746 0.99506 0.7906 0.0
N489 N 0.03411 0.0306 0.78438 0.0
C490 C 0.05788 0.03391 0.77521 0.0
C491 C 0.02119 0.04485 0.81473 0.0
C492 C 0.0319 0.06351 0.83487 0.0
C493 C 0.05614 0.06832 0.82173 0.0
C494 C 0.06916 0.05278 0.79246 0.0
Zn495 Zn 0.01658 0.00747 0.73789 0.0
O496 O 0.01136 0.96195 0.72463 0.0
C497 C 0.04488 0.9989 0.62202 0.0
O498 O 0.03016 0.98119 0.78757 0.0
H499 H 1.00229 0.0424 0.82112 0.0
H500 H 0.00928 0.94517 0.62542 0.0
H501 H 0.06814 0.02252 0.75158 0.0
O502 O 0.02563 0.98884 0.61313 0.0
O503 O 0.04666 0.00787 0.67122 0.0
H504 H 0.9483 0.98188 0.62425 0.0
O505 O 1.00265 0.03288 0.68848 0.0
O506 O 0.98259 0.01296 0.62982 0.0
O507 O 0.98591 0.00626 0.80089 0.0
O508 O 0.96715 0.98527 0.7424 0.0
C509 C 0.98919 0.03138 0.64588 0.0
H510 H 0.99097 0.91821 0.56489 0.0
H511 H 0.92907 0.95596 0.56121 0.0
H512 H 0.02093 0.07422 0.85915 0.0
H513 H 0.08775 0.05537 0.78022 0.0
C514 C 0.48322 0.97679 0.66736 0.0
N515 N 0.50321 0.04249 0.63353 0.0
C516 C 0.50368 0.03752 0.57538 0.0
C517 C 0.50106 0.05341 0.53039 0.0
C518 C 0.4981 0.07486 0.54479 0.0
C519 C 0.49727 0.07951 0.60535 0.0
C520 C 0.49987 0.06302 0.64916 0.0
Zn521 Zn 0.50924 0.0179 0.69552 0.0
C522 C 0.47295 0.01275 0.79714 0.0
N523 N 0.52223 0.96406 0.81524 0.0
C524 C 0.52544 0.94386 0.79675 0.0
C525 C 0.52127 0.9679 0.87419 0.0
C526 C 0.52303 0.95106 0.91714 0.0
C527 C 0.52558 0.92989 0.89961 0.0
C528 C 0.52712 0.92649 0.83828 0.0
Zn529 Zn 0.51639 0.98905 0.75471 0.0
O530 O 0.4868 0.99668 0.65195 0.0
C531 C 0.5524 0.99398 0.65232 0.0
O532 O 0.49428 0.9685 0.70952 0.0
H533 H 0.51865 0.98403 0.88812 0.0
H534 H 0.50642 0.02116 0.56359 0.0
H535 H 0.52609 0.9411 0.74971 0.0
O536 O 0.53943 0.0096 0.63998 0.0
O537 O 0.54691 0.98181 0.6989 0.0
H538 H 0.49963 0.06669 0.69555 0.0
O539 O 0.53843 0.0101 0.79924 0.0
O540 O 0.53174 0.03852 0.74132 0.0
O541 O 0.4856 0.99679 0.80857 0.0
O542 O 0.47907 0.02562 0.75236 0.0
C543 C 0.54231 0.02999 0.78423 0.0
H544 H 0.50139 0.04888 0.48464 0.0
H545 H 0.49525 0.09581 0.61874 0.0
H546 H 0.52221 0.95462 0.96369 0.0
H547 H 0.52882 0.91049 0.82243 0.0
C548 C 0.52434 0.4793 0.6181 0.0
N549 N 0.46161 0.50608 0.68083 0.0
C550 C 0.45027 0.48902 0.65779 0.0
C551 C 0.42941 0.49181 0.62873 0.0
C552 C 0.42024 0.51243 0.62253 0.0
C553 C 0.43217 0.52956 0.64815 0.0
C554 C 0.45264 0.52598 0.67762 0.0
Zn555 Zn 0.49509 0.50348 0.70974 0.0
C556 C 0.50241 0.4626 0.77635 0.0
N557 N 0.56714 0.49884 0.75369 0.0
C558 C 0.57834 0.51754 0.76731 0.0
C559 C 0.57545 0.47946 0.77148 0.0
C560 C 0.5943 0.47843 0.80862 0.0
C561 C 0.60522 0.49753 0.8267 0.0
C562 C 0.59764 0.51724 0.80276 0.0
Zn563 Zn 0.53364 0.50071 0.72278 0.0
O564 O 0.50423 0.48599 0.6342 0.0
C565 C 0.52572 0.54164 0.65603 0.0
O566 O 0.54214 0.48418 0.64703 0.0
H567 H 0.56655 0.46469 0.76027 0.0
H568 H 0.45779 0.47334 0.66019 0.0
H569 H 0.57148 0.53287 0.75398 0.0
O570 O 0.50502 0.53309 0.6625 0.0
O571 O 0.54271 0.5313 0.6758 0.0
H572 H 0.46194 0.5394 0.69571 0.0
O573 O 0.5246 0.51657 0.79868 0.0
O574 O 0.48705 0.52107 0.78661 0.0
O575 O 0.5234 0.47051 0.76814 0.0
O576 O 0.48553 0.47349 0.75814 0.0
C577 C 0.50508 0.52375 0.81659 0.0
H578 H 0.42078 0.47798 0.6108 0.0
H579 H 0.42634 0.54587 0.64379 0.0
H580 H 0.59921 0.46275 0.82556 0.0
H581 H 0.60585 0.53246 0.81314 0.0
C582 C 0.0375 0.53361 0.62417 0.0
N583 N 0.03723 0.46662 0.60329 0.0
C584 C 0.03378 0.47155 0.54486 0.0
C585 C 0.03965 0.45712 0.50144 0.0
C586 C 0.04873 0.43725 0.51844 0.0
C587 C 0.05235 0.43266 0.57885 0.0
C588 C 0.04663 0.4477 0.62064 0.0
Zn589 Zn 0.0266 0.48743 0.66665 0.0
C590 C 0.06262 0.49717 0.75101 0.0
N591 N 1.00263 0.5321 0.79276 0.0
C592 C 0.01886 0.54697 0.80919 0.0
C593 C 0.98034 0.53072 0.81862 0.0
C594 C 0.97362 0.54477 0.86244 0.0
C595 C 0.99003 0.56038 0.87997 0.0
C596 C 0.01296 0.5612 0.85286 0.0
Zn597 Zn 0.01326 0.51142 0.7292 0.0
O598 O 0.03853 0.51428 0.60904 0.0
C599 C 0.97717 0.50103 0.64591 0.0
O600 O 0.0286 0.53759 0.67511 0.0
H601 H 0.9677 0.51874 0.80512 0.0
H602 H 0.02606 0.48655 0.53191 0.0
H603 H 0.03652 0.54781 0.78842 0.0
O604 O 0.99294 0.4881 0.63114 0.0
O605 O 0.98107 0.51437 0.68544 0.0
H606 H 0.04936 0.44409 0.66715 0.0
O607 O 0.99749 0.48493 0.78128 0.0
O608 O 0.01374 0.46119 0.72477 0.0
O609 O 0.0456 0.50781 0.77133 0.0
O610 O 0.06013 0.4869 0.70432 0.0
C611 C 1.00063 0.46545 0.76975 0.0
H612 H 0.03642 0.46115 0.45535 0.0
H613 H 0.05951 0.41756 0.59362 0.0
H614 H 0.95566 0.54368 0.88148 0.0
H615 H 0.02634 0.57268 0.86544 0.0
H616 H 0.17828 0.01224 0.47848 0.0
H617 H 0.15061 0.99568 0.31062 0.0
H618 H 0.11018 0.99517 0.35716 0.0
H619 H 0.13892 0.97824 0.57154 0.0
H620 H 0.13571 0.99659 0.63038 0.0
H621 H 0.16237 0.99769 0.58289 0.0
H622 H 0.15699 0.03808 0.5555 0.0
H623 H 0.13037 0.03712 0.60328 0.0
H624 H 0.12976 0.04629 0.52613 0.0
H625 H 0.07285 0.99315 0.42421 0.0
H626 H 0.04143 0.99161 0.50458 0.0
H627 H 0.09261 0.00978 0.63024 0.0
C628 C 0.16374 0.00867 0.45119 0.0
C629 C 0.16788 0.00402 0.39039 0.0
C630 C 0.14814 0.99963 0.3567 0.0
C631 C 0.12503 0.99915 0.383 0.0
C632 C 0.1217 0.00327 0.44317 0.0
C633 C 0.1405 0.00819 0.47673 0.0
C634 C 0.1321 0.01134 0.54104 0.0
C635 C 0.14292 0.99499 0.58398 0.0
C636 C 0.13764 0.03459 0.55744 0.0
C637 C 0.10568 0.0069 0.53882 0.0
C638 C 0.10011 0.00235 0.48177 0.0
C639 C 0.07705 0.99687 0.46883 0.0
C640 C 0.05928 0.99594 0.51508 0.0
C641 C 0.06439 0.00053 0.5741 0.0
C642 C 0.088 0.00631 0.58572 0.0
H643 H 0.45556 0.18513 0.39542 0.0
H644 H 0.5028 0.17519 0.24201 0.0
H645 H 0.51271 0.13999 0.28828 0.0
H646 H 0.49167 0.16434 0.5039 0.0
H647 H 0.46786 0.15182 0.55171 0.0
H648 H 0.46276 0.17515 0.50418 0.0
H649 H 0.42908 0.1541 0.45683 0.0
H650 H 0.43391 0.13074 0.50465 0.0
H651 H 0.43483 0.12874 0.42504 0.0
H652 H 0.51996 0.1073 0.35563 0.0
H653 H 0.52258 0.079 0.43557 0.0
H654 H 0.4703 0.11029 0.54498 0.0
C655 C 0.46786 0.17549 0.37123 0.0
C656 C 0.47844 0.18298 0.31498 0.0
C657 C 0.49426 0.16973 0.2847 0.0
C658 C 0.5001 0.14976 0.31087 0.0
C659 C 0.48985 0.1432 0.36713 0.0
C660 C 0.47387 0.15559 0.39665 0.0
C661 C 0.46593 0.1453 0.4575 0.0
C662 C 0.47245 0.16003 0.50724 0.0
C663 C 0.43936 0.13937 0.4612 0.0
C664 C 0.4803 0.12534 0.45826 0.0
C665 C 0.49389 0.12438 0.40562 0.0
C666 C 0.50913 0.10776 0.39664 0.0
C667 C 0.5104 0.09166 0.44237 0.0
C668 C 0.49649 0.09218 0.49669 0.0
C669 C 0.48128 0.10937 0.50436 0.0
H670 H 0.32555 0.49538 0.37398 0.0
H671 H 0.29083 0.55004 0.44502 0.0
H672 H 0.322 0.55461 0.51495 0.0
H673 H 0.34379 0.47337 0.50994 0.0
H674 H 0.37232 0.46551 0.48205 0.0
H675 H 0.34853 0.46723 0.43299 0.0
H676 H 0.37387 0.49382 0.36056 0.0
H677 H 0.3979 0.4919 0.40894 0.0
H678 H 0.38699 0.51786 0.38826 0.0
H679 H 0.35308 0.55066 0.58524 0.0
H680 H 0.38654 0.54188 0.64422 0.0
H681 H 0.40451 0.49164 0.52468 0.0
C682 C 0.32498 0.5086 0.40325 0.0
C683 C 0.30578 0.52234 0.40439 0.0
C684 C 0.30536 0.53931 0.44378 0.0
C685 C 0.32294 0.54202 0.48372 0.0
C686 C 0.34111 0.52779 0.48339 0.0
C687 C 0.34267 0.51169 0.44356 0.0
C688 C 0.36408 0.49848 0.45427 0.0
C689 C 0.35673 0.47474 0.47079 0.0
C690 C 0.38176 0.50065 0.39976 0.0
C691 C 0.37379 0.50943 0.50702 0.0
C692 C 0.36008 0.52619 0.52301 0.0
C693 C 0.36441 0.53797 0.57221 0.0
C694 C 0.38366 0.53289 0.60533 0.0
C695 C 0.3988 0.51639 0.58875 0.0
C696 C 0.39348 0.50437 0.53899 0.0
H697 H 0.04723 0.31942 0.40058 0.0
H698 H 0.09505 0.34334 0.2523 0.0
H699 H 0.09077 0.38059 0.28428 0.0
H700 H 0.00921 0.36535 0.40626 0.0
H701 H 1.00657 0.36352 0.48651 0.0
H702 H 0.01075 0.3396 0.44625 0.0
H703 H 0.04744 0.33156 0.50527 0.0
H704 H 0.04351 0.3555 0.54531 0.0
H705 H 0.07116 0.35172 0.50479 0.0
H706 H 0.08335 0.41516 0.33904 0.0
H707 H 0.07425 0.44296 0.41089 0.0
H708 H 0.03397 0.39491 0.52586 0.0
C709 C 0.05673 0.33246 0.37435 0.0
C710 C 0.07164 0.3284 0.32409 0.0
C711 C 0.08337 0.34604 0.29063 0.0
C712 C 0.08112 0.36723 0.30869 0.0
C713 C 0.06704 0.37046 0.36014 0.0
C714 C 0.055 0.35346 0.39223 0.0
C715 C 0.04252 0.36061 0.44844 0.0
C716 C 0.01567 0.35706 0.44673 0.0
C717 C 0.05172 0.34917 0.50422 0.0
C718 C 0.04974 0.38429 0.44394 0.0
C719 C 0.06355 0.38985 0.39233 0.0
C720 C 0.07247 0.41093 0.37936 0.0
C721 C 0.06723 0.4266 0.42032 0.0
C722 C 0.05357 0.421 0.47399 0.0
C723 C 0.04466 0.39959 0.48546 0.0
H724 H 0.86969 0.03578 0.02481 0.0
H725 H 0.83168 0.97437 0.0152 0.0
H726 H 0.86495 0.96152 0.95263 0.0
H727 H 0.8923 0.04073 0.87802 0.0
H728 H 0.92058 0.05271 0.89293 0.0
H729 H 0.89532 0.05609 0.94293 0.0
H730 H 0.91735 0.04015 0.03129 0.0
H731 H 0.94284 0.03695 0.98166 0.0
H732 H 0.92985 0.01411 0.0264 0.0
H733 H 0.90011 0.95743 0.87894 0.0
H734 H 0.93557 0.96096 0.80951 0.0
H735 H 0.95169 0.02459 0.86977 0.0
C736 C 0.86858 0.01943 0.01073 0.0
C737 C 0.84797 0.00604 0.02525 0.0
C738 C 0.84731 0.98481 0.00561 0.0
C739 C 0.8661 0.97745 0.96957 0.0
C740 C 0.8857 0.99138 0.95414 0.0
C741 C 0.88725 0.0118 0.97518 0.0
C742 C 0.90975 0.02397 0.95022 0.0
C743 C 0.90414 0.04459 0.91387 0.0
C744 C 0.9259 0.0291 1.00039 0.0
C745 C 0.92035 0.0075 0.91039 0.0
C746 C 0.90618 0.9888 0.91323 0.0
C747 C 0.91147 0.97187 0.87728 0.0
C748 C 0.93161 0.97407 0.83764 0.0
C749 C 0.94656 0.99298 0.83432 0.0
C750 C 0.94087 0.00979 0.87186 0.0
H751 H 0.56114 0.81481 0.03545 0.0
H752 H 0.51313 0.82404 0.18799 0.0
H753 H 0.50421 0.85983 0.14404 0.0
H754 H 0.58387 0.87004 0.01454 0.0
H755 H 0.58567 0.8699 0.93442 0.0
H756 H 0.58868 0.84528 0.97863 0.0
H757 H 0.55462 0.82707 0.92552 0.0
H758 H 0.55148 0.85164 0.88122 0.0
H759 H 0.52649 0.83936 0.92526 0.0
H760 H 0.49937 0.89403 0.08147 0.0
H761 H 0.49959 0.92441 0.00656 0.0
H762 H 0.55148 0.89326 0.89547 0.0
C763 C 0.54867 0.82431 0.05957 0.0
C764 C 0.53782 0.81657 0.11528 0.0
C765 C 0.52187 0.82969 0.14567 0.0
C766 C 0.5166 0.84999 0.12088 0.0
C767 C 0.52749 0.85704 0.06576 0.0
C768 C 0.54328 0.84464 0.03559 0.0
C769 C 0.55249 0.85591 0.97691 0.0
C770 C 0.57927 0.86056 0.97611 0.0
C771 C 0.54587 0.8427 0.92411 0.0
C772 C 0.53924 0.87652 0.97845 0.0
C773 C 0.52494 0.87685 0.0301 0.0
C774 C 0.5107 0.89403 0.04114 0.0
C775 C 0.51109 0.91132 0.99836 0.0
C776 C 0.52571 0.91146 0.94503 0.0
C777 C 0.53996 0.89371 0.93535 0.0
H778 H 0.70536 0.4475 0.01981 0.0
H779 H 0.70723 0.50661 0.11415 0.0
H780 H 0.67474 0.51978 0.0565 0.0
H781 H 0.69806 0.4736 0.87775 0.0
H782 H 0.67947 0.45209 0.85318 0.0
H783 H 0.70108 0.4463 0.90633 0.0
H784 H 0.66843 0.42812 0.97966 0.0
H785 H 0.6467 0.43384 0.9267 0.0
H786 H 0.64306 0.44297 1.0011 0.0
H787 H 0.64219 0.52668 0.98702 0.0
H788 H 0.61346 0.52749 0.91006 0.0
H789 H 0.63716 0.46609 0.85151 0.0
C790 C 0.69923 0.46332 0.02844 0.0
C791 C 0.70914 0.47593 0.07206 0.0
C792 C 0.69984 0.49631 0.08217 0.0
C793 C 0.68146 0.50407 0.04915 0.0
C794 C 0.67267 0.4914 0.00558 0.0
C795 C 0.68136 0.47152 0.99497 0.0
C796 C 0.66987 0.46157 0.94335 0.0
C797 C 0.68822 0.4582 0.89213 0.0
C798 C 0.6562 0.44037 0.96396 0.0
C799 C 0.65333 0.47901 0.9264 0.0
C800 C 0.655 0.49595 0.96329 0.0
C801 C 0.64099 0.51363 0.95735 0.0
C802 C 0.62486 0.51403 0.91262 0.0
C803 C 0.62305 0.49704 0.87314 0.0
C804 C 0.6377 0.47935 0.88057 0.0
H805 H 0.97967 0.67777 0.99643 0.0
H806 H 0.9289 0.65145 0.13478 0.0
H807 H 0.93811 0.61441 0.10758 0.0
H808 H 0.96402 0.64428 0.89102 0.0
H809 H 0.99312 0.64162 0.8568 0.0
H810 H 0.98647 0.66536 0.89531 0.0
H811 H 0.02094 0.65907 0.96348 0.0
H812 H 0.02806 0.63545 0.92436 0.0
H813 H 0.02256 0.63346 0.00413 0.0
H814 H 0.94857 0.58068 0.05328 0.0
H815 H 0.96084 0.55365 0.98239 0.0
H816 H 1.00333 0.60325 0.87781 0.0
C817 C 0.97126 0.66414 0.02263 0.0
C818 C 0.95391 0.66729 0.06828 0.0
C819 C 0.94265 0.64924 0.10061 0.0
C820 C 0.94767 0.62821 0.08508 0.0
C821 C 0.96409 0.62568 0.03753 0.0
C822 C 0.97597 0.64324 0.00749 0.0
C823 C 0.99084 0.63667 0.95417 0.0
C824 C 0.98313 0.64763 0.89593 0.0
C825 C 0.01716 0.64144 0.96204 0.0
C826 C 0.98495 0.61273 0.95744 0.0
C827 C 0.96972 0.60655 0.00605 0.0
C828 C 0.96078 0.58534 0.01567 0.0
C829 C 0.96766 0.57014 0.97479 0.0
C830 C 0.98322 0.57623 0.92457 0.0
C831 C 0.99193 0.59785 0.91638 0.0
H832 H 0.06452 0.10988 0.42696 0.0
H833 H 0.02017 0.16163 0.47985 0.0
H834 H 0.99466 0.1354 0.54268 0.0
H835 H 0.0165 0.07228 0.40874 0.0
H836 H 0.03214 0.04933 0.43468 0.0
H837 H 0.04817 0.07242 0.39821 0.0
H838 H 0.07362 0.07598 0.48941 0.0
H839 H 0.05807 0.05255 0.52503 0.0
H840 H 0.05922 0.0774 0.56247 0.0
H841 H 0.97534 0.10319 0.60427 0.0
H842 H 0.96448 0.0679 0.65805 0.0
H843 H 0.01686 0.03761 0.54782 0.0
C844 C 0.04935 0.11584 0.45104 0.0
C845 C 0.04444 0.13793 0.44793 0.0
C846 C 0.02471 0.1449 0.48207 0.0
C847 C 0.00986 0.13007 0.51728 0.0
C848 C 0.01469 0.10832 0.51683 0.0
C849 C 0.03395 0.10128 0.4844 0.0
C850 C 0.03511 0.07708 0.48987 0.0
C851 C 0.03283 0.06721 0.42926 0.0
C852 C 0.05784 0.07037 0.51842 0.0
C853 C 0.01356 0.07157 0.53101 0.0
C854 C 1.00211 0.08976 0.54689 0.0
C855 C 0.98362 0.08875 0.59073 0.0
C856 C 0.97735 0.06871 0.6205 0.0
C857 C 0.98908 0.05013 0.60451 0.0
C858 C 1.00678 0.05149 0.55809 0.0
H859 H 0.37661 0.96734 0.46223 0.0
H860 H 0.34549 0.9161 0.58358 0.0
H861 H 0.38191 0.91674 0.63984 0.0
H862 H 0.43665 0.95052 0.45772 0.0
H863 H 0.44881 0.97779 0.45534 0.0
H864 H 0.42101 0.97211 0.42384 0.0
H865 H 0.40108 0.99967 0.49064 0.0
H866 H 0.42884 0.0056 0.52172 0.0
H867 H 0.40343 0.99704 0.57013 0.0
H868 H 0.42205 0.92417 0.6829 0.0
H869 H 0.45941 0.94008 0.71548 0.0
H870 H 0.4626 0.98655 0.56421 0.0
C871 C 0.37758 0.95601 0.5002 0.0
C872 C 0.3586 0.94137 0.51821 0.0
C873 C 0.36007 0.92728 0.56909 0.0
C874 C 0.38067 0.92747 0.60081 0.0
C875 C 0.39932 0.94194 0.58092 0.0
C876 C 0.39773 0.95608 0.53204 0.0
C877 C 0.41925 0.97109 0.52138 0.0
C878 C 0.43219 0.96766 0.46099 0.0
C879 C 0.41275 0.99474 0.5263 0.0
C880 C 0.43332 0.96345 0.57238 0.0
C881 C 0.42181 0.94644 0.60591 0.0
C882 C 0.43123 0.93738 0.6567 0.0
C883 C 0.45253 0.94642 0.67461 0.0
C884 C 0.46388 0.9645 0.64214 0.0
C885 C 0.4544 0.97266 0.58965 0.0
H886 H 0.46197 0.38792 0.44848 0.0
H887 H 0.52473 0.3515 0.46702 0.0
H888 H 0.54491 0.38306 0.50708 0.0
H889 H 0.49152 0.43923 0.40347 0.0
H890 H 0.47071 0.45452 0.44516 0.0
H891 H 0.46135 0.42926 0.41667 0.0
H892 H 0.44626 0.41475 0.52291 0.0
H893 H 0.45505 0.44014 0.55121 0.0
H894 H 0.46597 0.41551 0.58261 0.0
H895 H 0.55796 0.41847 0.54595 0.0
H896 H 0.56084 0.453 0.59459 0.0
H897 H 0.4897 0.46622 0.54804 0.0
C898 C 0.47996 0.38662 0.46101 0.0
C899 C 0.49183 0.36735 0.4548 0.0
C900 C 0.51526 0.36609 0.47222 0.0
C901 C 0.52695 0.38399 0.49416 0.0
C902 C 0.51494 0.40296 0.49827 0.0
C903 C 0.49184 0.40427 0.48303 0.0
C904 C 0.48243 0.42609 0.49468 0.0
C905 C 0.47614 0.43797 0.43652 0.0
C906 C 0.46118 0.42399 0.54059 0.0
C907 C 0.50373 0.43676 0.51977 0.0
C908 C 0.52244 0.42331 0.52064 0.0
C909 C 0.54351 0.42923 0.54512 0.0
C910 C 0.54506 0.44896 0.57221 0.0
C911 C 0.52551 0.46232 0.57502 0.0
C912 C 0.50504 0.45648 0.54612 0.0
H913 H 0.14236 0.59972 0.4648 0.0
H914 H 0.10356 0.59496 0.30587 0.0
H915 H 0.06678 0.58883 0.36751 0.0
H916 H 0.11954 0.55706 0.53253 0.0
H917 H 0.11716 0.56519 0.60816 0.0
H918 H 0.13849 0.5786 0.55569 0.0
H919 H 0.12107 0.61548 0.57526 0.0
H920 H 0.09984 0.60225 0.6294 0.0
H921 H 0.09002 0.619 0.56873 0.0
H922 H 0.03862 0.56999 0.43942 0.0
H923 H 0.02017 0.54454 0.51833 0.0
H924 H 0.0755 0.56057 0.634 0.0
C925 C 0.12592 0.59845 0.44315 0.0
C926 C 0.12591 0.59766 0.3806 0.0
C927 C 0.10412 0.59595 0.3536 0.0
C928 C 0.08302 0.59232 0.38848 0.0
C929 C 0.08393 0.59074 0.45023 0.0
C930 C 0.10476 0.59439 0.47761 0.0
C931 C 0.10202 0.58753 0.5434 0.0
C932 C 0.12037 0.57112 0.56086 0.0
C933 C 0.1033 0.60724 0.58144 0.0
C934 C 0.07732 0.57731 0.54717 0.0
C935 C 0.06693 0.57993 0.49334 0.0
C936 C 0.04604 0.56866 0.48253 0.0
C937 C 0.03577 0.55413 0.52722 0.0
C938 C 0.0463 0.55119 0.582 0.0
C939 C 0.06685 0.56333 0.5929 0.0
H940 H 0.95392 0.87481 0.95635 0.0
H941 H 0.97714 0.83192 0.821 0.0
H942 H 1.0085 0.85881 0.78466 0.0
H943 H 0.95928 0.92155 0.86172 0.0
H944 H 0.96803 0.93871 0.91917 0.0
H945 H 0.95012 0.91464 0.93862 0.0
H946 H 0.98136 0.90235 0.01141 0.0
H947 H 0.99976 0.92613 0.98994 0.0
H948 H 0.01141 0.8998 0.98355 0.0
H949 H 0.03406 0.89141 0.75589 0.0
H950 H 0.04643 0.92901 0.72533 0.0
H951 H 1.00688 0.95094 0.87849 0.0
C952 C 0.96545 0.871 0.91881 0.0
C953 C 0.96305 0.85109 0.89188 0.0
C954 C 0.97881 0.84684 0.84325 0.0
C955 C 0.99678 0.86198 0.82247 0.0
C956 C 0.99883 0.88128 0.8508 0.0
C957 C 0.98329 0.88597 0.89722 0.0
C958 C 0.98725 0.90886 0.91508 0.0
C959 C 0.96486 0.92169 0.90818 0.0
C960 C 0.99544 0.90929 0.97879 0.0
C961 C 1.00689 0.91667 0.86978 0.0
C962 C 0.01378 0.9003 0.8342 0.0
C963 C 0.02932 0.90422 0.78429 0.0
C964 C 0.03656 0.92559 0.76767 0.0
C965 C 0.02814 0.94264 0.80076 0.0
C966 C 0.01445 0.93804 0.85441 0.0
H967 H 0.66031 0.04192 0.95146 0.0
H968 H 0.64906 0.11006 0.96174 0.0
H969 H 0.61368 0.10601 0.90295 0.0
H970 H 0.63974 0.03509 0.8027 0.0
H971 H 0.62584 0.00904 0.82427 0.0
H972 H 0.65152 0.01823 0.86036 0.0
H973 H 0.62836 0.01215 0.96297 0.0
H974 H 0.60254 0.00322 0.92722 0.0
H975 H 0.601 0.02524 0.97584 0.0
H976 H 0.57868 0.09358 0.84411 0.0
H977 H 0.54661 0.07379 0.79666 0.0
H978 H 0.58018 0.01371 0.83478 0.0
C979 C 0.65078 0.05611 0.93982 0.0
C980 C 0.65761 0.0764 0.95961 0.0
C981 C 0.6442 0.09446 0.94591 0.0
C982 C 0.62415 0.09228 0.91269 0.0
C983 C 0.61765 0.07187 0.89461 0.0
C984 C 0.63059 0.05412 0.90808 0.0
C985 C 0.61907 0.03363 0.88834 0.0
C986 C 0.63499 0.02341 0.8411 0.0
C987 C 0.61234 0.01763 0.94178 0.0
C988 C 0.59751 0.04252 0.86183 0.0
C989 C 0.59705 0.06463 0.86483 0.0
C990 C 0.57885 0.07626 0.84183 0.0
C991 C 0.56073 0.06493 0.8151 0.0
C992 C 0.56079 0.04224 0.81298 0.0
C993 C 0.57943 0.03103 0.83675 0.0
H994 H 0.52013 0.63764 0.95031 0.0
H995 H 0.57636 0.60786 0.04339 0.0
H996 H 0.56231 0.57248 0.01517 0.0
H997 H 0.47527 0.59506 0.97095 0.0
H998 H 0.46643 0.59699 0.89539 0.0
H999 H 0.47849 0.62048 0.92824 0.0
H1000 H 0.51097 0.62593 0.84231 0.0
H1001 H 0.49842 0.60296 0.80832 0.0
H1002 H 0.52908 0.6038 0.82444 0.0
H1003 H 0.54193 0.54042 0.98305 0.0
H1004 H 0.52612 0.51401 0.91701 0.0
H1005 H 0.48719 0.56372 0.82928 0.0
C1006 C 0.52966 0.62377 0.96443 0.0
C1007 C 0.54851 0.62562 1.00254 0.0
C1008 C 0.56086 0.60694 0.01788 0.0
C1009 C 0.55307 0.58665 1.00193 0.0
C1010 C 0.53354 0.58525 0.96809 0.0
C1011 C 0.52276 0.60329 0.9466 0.0
C1012 C 0.50459 0.59722 0.90292 0.0
C1013 C 0.47972 0.60277 0.92577 0.0
C1014 C 0.51116 0.60811 0.84082 0.0
C1015 C 0.50703 0.57298 0.90346 0.0
C1016 C 0.52321 0.56651 0.94342 0.0
C1017 C 0.52928 0.5452 0.95138 0.0
C1018 C 0.52001 0.53028 0.91416 0.0
C1019 C 0.50537 0.53687 0.86861 0.0
C1020 C 0.49781 0.55822 0.86495 0.0
H1021 H 0.87711 0.4216 0.90457 0.0
H1022 H 0.91252 0.37438 0.01118 0.0
H1023 H 0.94961 0.38319 0.94986 0.0
H1024 H 0.913 0.41728 0.75779 0.0
H1025 H 0.9123 0.44602 0.74331 0.0
H1026 H 0.88772 0.43148 0.78353 0.0
H1027 H 0.89146 0.45728 0.86938 0.0
H1028 H 0.91639 0.47139 0.8304 0.0
H1029 H 0.919 0.45978 0.90465 0.0
H1030 H 0.98418 0.40169 0.88733 0.0
H1031 H 0.01231 0.42843 0.8318 0.0
H1032 H 0.95369 0.46476 0.77437 0.0
C1033 C 0.89228 0.4122 0.91291 0.0
C1034 C 0.89185 0.39699 0.96172 0.0
C1035 C 0.91245 0.38587 0.9733 0.0
C1036 C 0.93355 0.39076 0.93866 0.0
C1037 C 0.93367 0.4068 0.89281 0.0
C1038 C 0.91341 0.41718 0.87963 0.0
C1039 C 0.91863 0.4362 0.83555 0.0
C1040 C 0.90724 0.43251 0.77655 0.0
C1041 C 0.91092 0.45739 0.86161 0.0
C1042 C 0.94509 0.43558 0.8281 0.0
C1043 C 0.95353 0.4182 0.85987 0.0
C1044 C 0.9777 0.41517 0.86169 0.0
C1045 C 0.99352 0.43039 0.83051 0.0
C1046 C 0.98491 0.44857 0.79996 0.0
C1047 C 0.96052 0.45097 0.79811 0.0
H1048 H 0.05852 0.18684 0.9386 0.0
H1049 H 0.13376 0.18224 0.9496 0.0
H1050 H 0.13267 0.14954 0.89247 0.0
H1051 H 0.04385 0.13563 0.96756 0.0
H1052 H 0.02071 0.13228 0.91713 0.0
H1053 H 0.02762 0.15843 0.9432 0.0
H1054 H 0.03506 0.17462 0.83517 0.0
H1055 H 0.02723 0.14868 0.80826 0.0
H1056 H 0.05514 0.16209 0.78421 0.0
H1057 H 0.12168 0.11276 0.86183 0.0
H1058 H 0.10321 0.07803 0.84052 0.0
H1059 H 0.03515 0.10746 0.83862 0.0
C1060 C 0.07494 0.17982 0.92495 0.0
C1061 C 0.09635 0.18738 0.94675 0.0
C1062 C 0.11738 0.17709 0.93141 0.0
C1063 C 0.11684 0.15833 0.89966 0.0
C1064 C 0.09516 0.15029 0.88264 0.0
C1065 C 0.07468 0.16113 0.89275 0.0
C1066 C 0.05338 0.14785 0.87567 0.0
C1067 C 0.03535 0.14329 0.92908 0.0
C1068 C 0.04204 0.15897 0.82265 0.0
C1069 C 0.06492 0.12743 0.85794 0.0
C1070 C 0.089 0.12917 0.86222 0.0
C1071 C 0.10297 0.11151 0.85563 0.0
C1072 C 0.09217 0.09169 0.8432 0.0
C1073 C 0.06751 0.08954 0.83635 0.0
C1074 C 0.05393 0.10797 0.84355 0.0
H1075 H 0.361 0.96984 0.00624 0.0
H1076 H 0.34429 0.03598 0.03395 0.0
H1077 H 0.37575 0.04842 0.95699 0.0
H1078 H 0.42117 0.97916 0.00412 0.0
H1079 H 0.4284 0.95973 0.95023 0.0
H1080 H 0.40159 0.95605 0.99679 0.0
H1081 H 0.37717 0.95419 0.90362 0.0
H1082 H 0.40397 0.9575 0.85662 0.0
H1083 H 0.38053 0.97569 0.8464 0.0
H1084 H 0.41271 0.05327 0.88175 0.0
H1085 H 0.45005 0.04999 0.82046 0.0
H1086 H 0.44452 0.98072 0.85466 0.0
C1087 C 0.36351 0.98698 0.99532 0.0
C1088 C 0.34999 0.00192 0.02646 0.0
C1089 C 0.354 0.02416 0.01031 0.0
C1090 C 0.37207 0.03136 0.96697 0.0
C1091 C 0.38608 0.01613 0.9402 0.0
C1092 C 0.38179 0.99435 0.95388 0.0
C1093 C 0.40061 0.98115 0.92476 0.0
C1094 C 0.41371 0.96827 0.97178 0.0
C1095 C 0.38993 0.96626 0.8802 0.0
C1096 C 0.41653 0.99882 0.8931 0.0
C1097 C 0.40773 0.01891 0.90123 0.0
C1098 C 0.41963 0.03756 0.87539 0.0
C1099 C 0.44088 0.03557 0.8407 0.0
C1100 C 0.45044 0.01514 0.83335 0.0
C1101 C 0.43793 0.99662 0.86006 0.0
H1102 H 0.43104 0.36521 0.96032 0.0
H1103 H 0.49742 0.33369 0.96843 0.0
H1104 H 0.51593 0.36117 0.89539 0.0
H1105 H 0.43937 0.38644 0.79878 0.0
H1106 H 0.42573 0.41116 0.81598 0.0
H1107 H 0.41643 0.38637 0.85754 0.0
H1108 H 0.42479 0.40438 0.95546 0.0
H1109 H 0.43462 0.42903 0.91441 0.0
H1110 H 0.4538 0.41604 0.96472 0.0
H1111 H 0.52912 0.39564 0.83887 0.0
H1112 H 0.53516 0.43246 0.79321 0.0
H1113 H 0.4604 0.44248 0.82202 0.0
C1114 C 0.44926 0.36365 0.94512 0.0
C1115 C 0.46275 0.34719 0.97017 0.0
C1116 C 0.48657 0.34582 0.94925 0.0
C1117 C 0.49731 0.36153 0.9081 0.0
C1118 C 0.48393 0.37838 0.88764 0.0
C1119 C 0.46027 0.37929 0.90437 0.0
C1120 C 0.45045 0.4002 0.88078 0.0
C1121 C 0.4319 0.39577 0.83557 0.0
C1122 C 0.44033 0.41317 0.9319 0.0
C1123 C 0.47253 0.41136 0.85059 0.0
C1124 C 0.49158 0.39838 0.8546 0.0
C1125 C 0.51424 0.40575 0.83433 0.0
C1126 C 0.51751 0.42681 0.80891 0.0
C1127 C 0.49825 0.44041 0.80383 0.0
C1128 C 0.47543 0.43243 0.82462 0.0
H1129 H 0.14772 0.52886 1.00257 0.0
H1130 H 0.20454 0.49825 0.90737 0.0
H1131 H 0.17684 0.48749 0.83191 0.0
H1132 H 0.10149 0.49058 0.97692 0.0
H1133 H 0.07987 0.51072 0.96862 0.0
H1134 H 0.1041 0.51523 0.01499 0.0
H1135 H 0.11585 0.55105 0.95422 0.0
H1136 H 0.09161 0.54669 0.90781 0.0
H1137 H 0.12116 0.55089 0.87457 0.0
H1138 H 0.14203 0.48091 0.76547 0.0
H1139 H 0.10441 0.47936 0.71542 0.0
H1140 H 0.07184 0.51545 0.85522 0.0
C1141 C 0.15459 0.52018 0.96545 0.0
C1142 C 0.17851 0.51475 0.96039 0.0
C1143 C 0.18635 0.50266 0.91212 0.0
C1144 C 0.17074 0.49654 0.86904 0.0
C1145 C 0.14735 0.50254 0.87512 0.0
C1146 C 0.13941 0.5141 0.92233 0.0
C1147 C 0.11366 0.51889 0.91916 0.0
C1148 C 0.09892 0.50821 0.97312 0.0
C1149 C 0.11039 0.54333 0.91359 0.0
C1150 C 0.10821 0.50836 0.86243 0.0
C1151 C 0.12773 0.49889 0.83759 0.0
C1152 C 0.12669 0.48827 0.78473 0.0
C1153 C 0.10523 0.48746 0.75663 0.0
C1154 C 0.08512 0.49729 0.78129 0.0
C1155 C 0.08681 0.50777 0.83503 0.0
H1156 H 0.92566 0.82274 0.41483 0.0
H1157 H 0.91757 0.86224 0.25229 0.0
H1158 H 0.92356 0.89461 0.30555 0.0
H1159 H 0.90077 0.85889 0.52113 0.0
H1160 H 0.92285 0.85464 0.57419 0.0
H1161 H 0.91508 0.8336 0.52603 0.0
H1162 H 0.9588 0.83208 0.488 0.0
H1163 H 0.9667 0.853 0.53628 0.0
H1164 H 0.97444 0.85637 0.45748 0.0
H1165 H 0.92996 0.92324 0.37358 0.0
H1166 H 0.94285 0.94674 0.4512 0.0
H1167 H 0.95257 0.89045 0.568 0.0
C1168 C 0.92498 0.83814 0.39041 0.0
C1169 C 0.91964 0.83947 0.32957 0.0
C1170 C 0.9198 0.86024 0.29954 0.0
C1171 C 0.92358 0.87901 0.32927 0.0
C1172 C 0.92812 0.87712 0.38897 0.0
C1173 C 0.92949 0.85732 0.41915 0.0
C1174 C 0.93705 0.86025 0.48197 0.0
C1175 C 0.91779 0.85131 0.52858 0.0
C1176 C 0.96065 0.84981 0.49147 0.0
C1177 C 0.93967 0.88471 0.48164 0.0
C1178 C 0.93391 0.89399 0.42771 0.0
C1179 C 0.9346 0.91623 0.41608 0.0
C1180 C 0.94179 0.92945 0.46046 0.0
C1181 C 0.94859 0.92041 0.51541 0.0
C1182 C 0.94742 0.89772 0.52626 0.0
H1183 H 0.64202 0.01489 0.366 0.0
H1184 H 0.69543 0.98353 0.46541 0.0
H1185 H 0.66561 0.97454 0.54836 0.0
H1186 H 0.61603 0.04032 0.49018 0.0
H1187 H 0.5866 0.0379 0.46507 0.0
H1188 H 0.61154 0.03979 0.41173 0.0
H1189 H 0.59722 0.00414 0.36858 0.0
H1190 H 0.57227 0.00208 0.42202 0.0
H1191 H 0.59204 0.98026 0.41739 0.0
H1192 H 0.62916 0.96987 0.62296 0.0
H1193 H 0.59138 0.97205 0.68245 0.0
H1194 H 0.56362 0.00962 0.53691 0.0
C1195 C 0.64785 0.00638 0.4052 0.0
C1196 C 0.67155 1.00016 0.40839 0.0
C1197 C 0.67756 0.98836 0.46066 0.0
C1198 C 0.66068 0.98326 0.50845 0.0
C1199 C 0.63774 0.99016 0.50396 0.0
C1200 C 0.63145 0.00161 0.45362 0.0
C1201 C 0.60613 0.00835 0.46063 0.0
C1202 C 0.60502 0.03305 0.45668 0.0
C1203 C 0.59103 0.99809 0.4144 0.0
C1204 C 0.59907 0.99904 0.52304 0.0
C1205 C 0.61738 0.9883 0.54713 0.0
C1206 C 0.6148 0.97828 0.60431 0.0
C1207 C 0.5932 0.97953 0.63778 0.0
C1208 C 0.57443 0.99101 0.61459 0.0
C1209 C 0.57755 0.00074 0.55617 0.0
H1210 H 0.59525 0.64478 0.4947 0.0
H1211 H 0.52686 0.67127 0.47071 0.0
H1212 H 0.50826 0.64228 0.53846 0.0
H1213 H 0.57753 0.59299 0.48108 0.0
H1214 H 0.5956 0.58075 0.5354 0.0
H1215 H 0.60481 0.60632 0.49849 0.0
H1216 H 0.60746 0.62358 0.59999 0.0
H1217 H 0.59882 0.59788 0.63753 0.0
H1218 H 0.58239 0.62128 0.65312 0.0
H1219 H 0.49611 0.6069 0.59001 0.0
H1220 H 0.49149 0.56958 0.63197 0.0
H1221 H 0.56751 0.56459 0.62082 0.0
C1222 C 0.57644 0.64492 0.50521 0.0
C1223 C 0.56256 0.66041 0.47703 0.0
C1224 C 0.53802 0.65995 0.49228 0.0
C1225 C 0.52723 0.64335 0.53039 0.0
C1226 C 0.5412 0.62742 0.55347 0.0
C1227 C 0.56537 0.62828 0.54255 0.0
C1228 C 0.57601 0.60791 0.56718 0.0
C1229 C 0.58926 0.59632 0.51757 0.0
C1230 C 0.59212 0.61297 0.61746 0.0
C1231 C 0.55394 0.59502 0.5911 0.0
C1232 C 0.53411 0.60672 0.58331 0.0
C1233 C 0.51154 0.59777 0.59752 0.0
C1234 C 0.50912 0.57641 0.62085 0.0
C1235 C 0.52914 0.56406 0.62981 0.0
C1236 C 0.55187 0.57363 0.61498 0.0
H1237 H 0.88064 0.44115 0.47054 0.0
H1238 H 0.85697 0.50374 0.41231 0.0
H1239 H 0.88132 0.52076 0.48592 0.0
H1240 H 0.88936 0.45195 0.63021 0.0
H1241 H 0.91561 0.4367 0.62908 0.0
H1242 H 0.89186 0.42941 0.58358 0.0
H1243 H 0.92128 0.43239 0.49058 0.0
H1244 H 0.94485 0.4401 0.53574 0.0
H1245 H 0.93817 0.4573 0.47255 0.0
H1246 H 0.91304 0.53129 0.55667 0.0
H1247 H 0.94911 0.53411 0.61331 0.0
H1248 H 0.95402 0.4648 0.61539 0.0
C1249 C 0.8801 0.4584 0.47411 0.0
C1250 C 0.86689 0.4711 0.43546 0.0
C1251 C 0.86664 0.49361 0.44195 0.0
C1252 C 0.88054 0.50342 0.4835 0.0
C1253 C 0.89449 0.49049 0.51837 0.0
C1254 C 0.89417 0.4684 0.51418 0.0
C1255 C 0.91294 0.45824 0.5499 0.0
C1256 C 0.90176 0.44319 0.60125 0.0
C1257 C 0.93033 0.44632 0.50979 0.0
C1258 C 0.92456 0.47811 0.57304 0.0
C1259 C 0.91336 0.49656 0.55599 0.0
C1260 C 0.92173 0.5169 0.57068 0.0
C1261 C 0.9422 0.51838 0.60277 0.0
C1262 C 0.95432 0.49968 0.61817 0.0
C1263 C 0.94512 0.47936 0.60382 0.0
loop_
_geom_bond_atom_site_label_1
_geom_bond_atom_site_label_2
_geom_bond_distance
_geom_bond_site_symmetry_2
_ccdc_geom_bond_type
C0 C1 1.391 . S
C0 C4 1.391 . S
C0 H42 0.948 . S
C1 C0 1.391 . S
C1 C2 1.391 . S
C2 C1 1.391 . S
C2 H58 0.947 . S
C2 C59 1.392 . S
C3 C4 1.391 . S
C3 C7 1.397 . S
C3 C59 1.419 . S
C4 C0 1.391 . S
C4 C3 1.391 . S
C4 C5 1.399 . S
C5 C4 1.399 . S
C5 C8 1.396 . S
C5 C17 1.453 . S
C5 C18 1.684 . S
H6 C30 0.948 . S
C7 C3 1.397 . S
C7 C8 1.394 . S
C7 C26 1.723 . S
C8 C5 1.396 . S
C8 C7 1.394 . S
C8 C38 1.723 . S
H9 C32 0.947 . S
H10 C33 0.948 . S
H11 C39 0.982 1_554 S
H12 C40 0.978 1_554 S
H13 C40 0.980 . S
H14 C40 0.983 . S
H15 C39 0.979 . S
H16 C39 0.977 . S
C17 C5 1.453 . S
C17 H46 0.982 . S
C17 H47 0.979 . S
C17 H48 0.977 . S
C18 C5 1.684 . S
C18 H43 0.979 . S
C18 H44 0.980 . S
C18 H45 0.983 . S
C19 C20 1.391 1_554 S
C19 C24 1.391 . S
C19 H49 0.948 . S
C20 C19 1.391 1_556 S
C20 C21 1.391 . S
C21 C20 1.391 . S
C21 C22 1.392 . S
C21 H50 0.947 . S
C22 C21 1.392 . S
C22 C23 1.419 1_556 S
C22 H51 0.948 . S
C23 C22 1.419 1_554 S
C23 C24 1.391 . S
C23 C27 1.397 . S
C24 C19 1.391 . S
C24 C23 1.391 . S
C24 C25 1.399 . S
C25 C24 1.399 . S
C25 C26 1.396 . S
C25 C28 1.453 . S
C25 C29 1.684 . S
C26 C7 1.723 . S
C26 C25 1.396 . S
C26 C27 1.394 . S
C27 C23 1.397 . S
C27 C26 1.394 . S
C27 C37 1.723 . S
C28 C25 1.453 . S
C28 H52 0.982 . S
C28 H53 0.979 . S
C28 H54 0.977 . S
C29 C25 1.684 . S
C29 H55 0.979 . S
C29 H56 0.980 . S
C29 H57 0.983 . S
C30 H6 0.948 . S
C30 C31 1.391 . S
C30 C35 1.391 . S
C31 C30 1.391 . S
C31 C32 1.391 . S
C32 H9 0.947 . S
C32 C31 1.391 . S
C32 C33 1.392 . S
C33 H10 0.948 . S
C33 C32 1.392 . S
C33 C34 1.419 . S
C34 C33 1.419 . S
C34 C35 1.391 . S
C34 C38 1.397 . S
C35 C30 1.391 . S
C35 C34 1.391 . S
C35 C36 1.399 . S
C36 C35 1.399 . S
C36 C37 1.396 . S
C36 C39 1.453 1_554 S
C36 C40 1.684 1_554 S
C37 C27 1.723 . S
C37 C36 1.396 . S
C37 C38 1.394 . S
C38 C8 1.723 . S
C38 C34 1.397 . S
C38 C37 1.394 . S
C39 H11 0.982 1_556 S
C39 H15 0.979 . S
C39 H16 0.977 . S
C39 C36 1.453 1_556 S
C40 H12 0.978 1_556 S
C40 H13 0.980 . S
C40 H14 0.983 . S
C40 C36 1.684 1_556 S
H41 C59 0.948 . S
H42 C0 0.948 . S
H43 C18 0.979 . S
H44 C18 0.980 . S
H45 C18 0.983 . S
H46 C17 0.982 . S
H47 C17 0.979 . S
H48 C17 0.977 . S
H49 C19 0.948 . S
H50 C21 0.947 . S
H51 C22 0.948 . S
H52 C28 0.982 . S
H53 C28 0.979 . S
H54 C28 0.977 . S
H55 C29 0.979 . S
H56 C29 0.980 . S
H57 C29 0.983 . S
H58 C2 0.947 . S
C59 C2 1.392 . S
C59 C3 1.419 . S
C59 H41 0.948 . S
C60 C61 1.391 . S
C60 C64 1.391 . S
C60 H102 0.948 . S
C61 C60 1.391 . S
C61 C62 1.391 . S
C62 C61 1.391 . S
C62 H118 0.947 . S
C62 C119 1.392 . S
C63 C64 1.391 . S
C63 C67 1.397 . S
C63 C119 1.419 . S
C64 C60 1.391 . S
C64 C63 1.391 . S
C64 C65 1.399 . S
C65 C64 1.399 . S
C65 C68 1.396 . S
C65 C77 1.453 . S
C65 C78 1.684 . S
H66 C90 0.948 1_554 S
C67 C63 1.397 . S
C67 C68 1.394 . S
C67 C86 1.723 1_556 S
C68 C65 1.396 . S
C68 C67 1.394 . S
C68 C98 1.723 . S
H69 C92 0.947 . S
H70 C93 0.948 . S
H71 C99 0.982 . S
H72 C100 0.979 . S
H73 C100 0.980 . S
H74 C100 0.983 . S
H75 C99 0.979 . S
H76 C99 0.977 . S
C77 C65 1.453 . S
C77 H106 0.982 . S
C77 H107 0.979 . S
C77 H108 0.977 . S
C78 C65 1.684 . S
C78 H103 0.979 . S
C78 H104 0.980 . S
C78 H105 0.983 . S
C79 C80 1.391 . S
C79 C84 1.391 . S
C79 H109 0.948 . S
C80 C79 1.391 . S
C80 C81 1.391 . S
C81 C80 1.391 . S
C81 C82 1.392 . S
C81 H110 0.947 . S
C82 C81 1.392 . S
C82 C83 1.419 . S
C82 H111 0.948 . S
C83 C82 1.419 . S
C83 C84 1.391 . S
C83 C87 1.397 . S
C84 C79 1.391 . S
C84 C83 1.391 . S
C84 C85 1.399 . S
C85 C84 1.399 . S
C85 C86 1.396 . S
C85 C88 1.453 . S
C85 C89 1.684 . S
C86 C67 1.723 1_554 S
C86 C85 1.396 . S
C86 C87 1.394 . S
C87 C83 1.397 . S
C87 C86 1.394 . S
C87 C97 1.723 . S
C88 C85 1.453 . S
C88 H112 0.982 . S
C88 H113 0.979 . S
C88 H114 0.977 . S
C89 C85 1.684 . S
C89 H115 0.979 . S
C89 H116 0.980 . S
C89 H117 0.983 . S
C90 H66 0.948 1_556 S
C90 C91 1.391 . S
C90 C95 1.391 1_556 S
C91 C90 1.391 . S
C91 C92 1.391 . S
C92 H69 0.947 . S
C92 C91 1.391 . S
C92 C93 1.392 . S
C93 H70 0.948 . S
C93 C92 1.392 . S
C93 C94 1.419 . S
C94 C93 1.419 . S
C94 C95 1.391 1_556 S
C94 C98 1.397 . S
C95 C90 1.391 1_554 S
C95 C94 1.391 1_554 S
C95 C96 1.399 . S
C96 C95 1.399 . S
C96 C97 1.396 . S
C96 C99 1.453 . S
C96 C100 1.684 . S
C97 C87 1.723 . S
C97 C96 1.396 . S
C97 C98 1.394 1_554 S
C98 C68 1.723 . S
C98 C94 1.397 . S
C98 C97 1.394 1_556 S
C99 H71 0.982 . S
C99 H75 0.979 . S
C99 H76 0.977 . S
C99 C96 1.453 . S
C100 H72 0.979 . S
C100 H73 0.980 . S
C100 H74 0.983 . S
C100 C96 1.684 . S
H101 C119 0.948 . S
H102 C60 0.948 . S
H103 C78 0.979 . S
H104 C78 0.980 . S
H105 C78 0.983 . S
H106 C77 0.982 . S
H107 C77 0.979 . S
H108 C77 0.977 . S
H109 C79 0.948 . S
H110 C81 0.947 . S
H111 C82 0.948 . S
H112 C88 0.982 . S
H113 C88 0.979 . S
H114 C88 0.977 . S
H115 C89 0.979 . S
H116 C89 0.980 . S
H117 C89 0.983 . S
H118 C62 0.947 . S
C119 C62 1.392 . S
C119 C63 1.419 . S
C119 H101 0.948 . S
C120 C121 1.391 . S
C120 C124 1.391 . S
C120 H162 0.948 . S
C121 C120 1.391 . S
C121 C122 1.391 1_554 S
C122 C121 1.391 1_556 S
C122 H178 0.947 . S
C122 C179 1.392 . S
C123 C124 1.391 . S
C123 C127 1.397 1_565 S
C123 C179 1.419 1_554 S
C124 C120 1.391 . S
C124 C123 1.391 . S
C124 C125 1.399 . S
C125 C124 1.399 . S
C125 C128 1.396 1_565 S
C125 C137 1.453 1_565 S
C125 C138 1.684 . S
H126 C150 0.948 . S
C127 C123 1.397 1_545 S
C127 C128 1.394 . S
C127 C146 1.723 . S
C128 C125 1.396 1_545 S
C128 C127 1.394 . S
C128 C158 1.723 . S
H129 C152 0.947 . S
H130 C153 0.948 . S
H131 C159 0.982 . S
H132 C160 0.979 . S
H133 C160 0.980 . S
H134 C160 0.983 . S
H135 C159 0.979 . S
H136 C159 0.977 . S
C137 C125 1.453 1_545 S
C137 H166 0.982 . S
C137 H167 0.979 . S
C137 H168 0.977 . S
C138 C125 1.684 . S
C138 H163 0.979 . S
C138 H164 0.980 . S
C138 H165 0.983 . S
C139 C140 1.391 . S
C139 C144 1.391 . S
C139 H169 0.948 . S
C140 C139 1.391 . S
C140 C141 1.391 . S
C141 C140 1.391 . S
C141 C142 1.392 1_556 S
C141 H170 0.947 . S
C142 C141 1.392 1_554 S
C142 C143 1.419 . S
C142 H171 0.948 . S
C143 C142 1.419 . S
C143 C144 1.391 1_554 S
C143 C147 1.397 1_565 S
C144 C139 1.391 . S
C144 C143 1.391 1_556 S
C144 C145 1.399 . S
C145 C144 1.399 . S
C145 C146 1.396 1_566 S
C145 C148 1.453 1_565 S
C145 C149 1.684 . S
C146 C127 1.723 . S
C146 C145 1.396 1_544 S
C146 C147 1.394 . S
C147 C143 1.397 1_545 S
C147 C146 1.394 . S
C147 C157 1.722 . S
C148 C145 1.453 1_545 S
C148 H172 0.982 . S
C148 H173 0.979 . S
C148 H174 0.977 . S
C149 C145 1.684 . S
C149 H175 0.979 . S
C149 H176 0.980 . S
C149 H177 0.983 . S
C150 H126 0.948 . S
C150 C151 1.391 . S
C150 C155 1.391 . S
C151 C150 1.391 . S
C151 C152 1.391 . S
C152 H129 0.947 . S
C152 C151 1.391 . S
C152 C153 1.392 . S
C153 H130 0.948 . S
C153 C152 1.392 . S
C153 C154 1.419 . S
C154 C153 1.419 . S
C154 C155 1.391 . S
C154 C158 1.397 1_565 S
C155 C150 1.391 . S
C155 C154 1.391 . S
C155 C156 1.399 . S
C156 C155 1.399 . S
C156 C157 1.396 1_565 S
C156 C159 1.453 1_565 S
C156 C160 1.684 . S
C157 C147 1.722 . S
C157 C156 1.396 1_545 S
C157 C158 1.394 . S
C158 C128 1.723 . S
C158 C154 1.397 1_545 S
C158 C157 1.394 . S
C159 H131 0.982 . S
C159 H135 0.979 . S
C159 H136 0.977 . S
C159 C156 1.453 1_545 S
C160 H132 0.979 . S
C160 H133 0.980 . S
C160 H134 0.983 . S
C160 C156 1.684 . S
H161 C179 0.948 . S
H162 C120 0.948 . S
H163 C138 0.979 . S
H164 C138 0.980 . S
H165 C138 0.983 . S
H166 C137 0.982 . S
H167 C137 0.979 . S
H168 C137 0.977 . S
H169 C139 0.948 . S
H170 C141 0.947 . S
H171 C142 0.948 . S
H172 C148 0.982 . S
H173 C148 0.979 . S
H174 C148 0.977 . S
H175 C149 0.979 . S
H176 C149 0.980 . S
H177 C149 0.983 . S
H178 C122 0.947 . S
C179 C122 1.392 . S
C179 C123 1.419 1_556 S
C179 H161 0.948 . S
C180 C181 1.391 . S
C180 C184 1.391 . S
C180 H222 0.948 . S
C181 C180 1.391 . S
C181 C182 1.391 . S
C182 C181 1.391 . S
C182 H238 0.947 . S
C182 C239 1.392 . S
C183 C184 1.391 . S
C183 C187 1.397 . S
C183 C239 1.419 . S
C184 C180 1.391 . S
C184 C183 1.391 . S
C184 C185 1.399 . S
C185 C184 1.399 . S
C185 C188 1.396 . S
C185 C197 1.453 . S
C185 C198 1.684 . S
H186 C210 0.948 1_556 S
C187 C183 1.397 . S
C187 C188 1.394 . S
C187 C206 1.723 . S
C188 C185 1.396 . S
C188 C187 1.394 . S
C188 C218 1.723 . S
H189 C212 0.947 . S
H190 C213 0.948 . S
H191 C219 0.982 . S
H192 C220 0.979 . S
H193 C220 0.980 . S
H194 C220 0.983 . S
H195 C219 0.979 . S
H196 C219 0.977 . S
C197 C185 1.453 . S
C197 H226 0.982 . S
C197 H227 0.979 . S
C197 H228 0.977 . S
C198 C185 1.684 . S
C198 H223 0.979 . S
C198 H224 0.980 . S
C198 H225 0.983 . S
C199 C200 1.391 . S
C199 C204 1.391 1_556 S
C199 H229 0.948 . S
C200 C199 1.391 . S
C200 C201 1.391 . S
C201 C200 1.391 . S
C201 C202 1.392 . S
C201 H230 0.947 . S
C202 C201 1.392 . S
C202 C203 1.419 . S
C202 H231 0.948 . S
C203 C202 1.419 . S
C203 C204 1.391 1_556 S
C203 C207 1.397 1_556 S
C204 C199 1.391 1_554 S
C204 C203 1.391 1_554 S
C204 C205 1.399 . S
C205 C204 1.399 . S
C205 C206 1.396 . S
C205 C208 1.453 . S
C205 C209 1.684 . S
C206 C187 1.723 . S
C206 C205 1.396 . S
C206 C207 1.394 . S
C207 C203 1.397 1_554 S
C207 C206 1.394 . S
C207 C217 1.723 . S
C208 C205 1.453 . S
C208 H232 0.982 . S
C208 H233 0.979 . S
C208 H234 0.977 . S
C209 C205 1.684 . S
C209 H235 0.979 . S
C209 H236 0.980 . S
C209 H237 0.983 . S
C210 H186 0.948 1_554 S
C210 C211 1.391 . S
C210 C215 1.391 . S
C211 C210 1.391 . S
C211 C212 1.391 . S
C212 H189 0.947 . S
C212 C211 1.391 . S
C212 C213 1.392 . S
C213 H190 0.948 . S
C213 C212 1.392 . S
C213 C214 1.419 . S
C214 C213 1.419 . S
C214 C215 1.391 . S
C214 C218 1.397 . S
C215 C210 1.391 . S
C215 C214 1.391 . S
C215 C216 1.399 1_554 S
C216 C215 1.399 1_556 S
C216 C217 1.396 1_556 S
C216 C219 1.453 . S
C216 C220 1.684 . S
C217 C207 1.723 . S
C217 C216 1.396 1_554 S
C217 C218 1.394 . S
C218 C188 1.723 . S
C218 C214 1.397 . S
C218 C217 1.394 . S
C219 H191 0.982 . S
C219 H195 0.979 . S
C219 H196 0.977 . S
C219 C216 1.453 . S
C220 H192 0.979 . S
C220 H193 0.980 . S
C220 H194 0.983 . S
C220 C216 1.684 . S
H221 C239 0.948 . S
H222 C180 0.948 . S
H223 C198 0.979 . S
H224 C198 0.980 . S
H225 C198 0.983 . S
H226 C197 0.982 . S
H227 C197 0.979 . S
H228 C197 0.977 . S
H229 C199 0.948 . S
H230 C201 0.947 . S
H231 C202 0.948 . S
H232 C208 0.982 . S
H233 C208 0.979 . S
H234 C208 0.977 . S
H235 C209 0.979 . S
H236 C209 0.980 . S
H237 C209 0.983 . S
H238 C182 0.947 . S
C239 C182 1.392 . S
C239 C183 1.419 . S
C239 H221 0.948 . S
C240 C241 1.391 . S
C240 C244 1.391 . S
C240 H282 0.948 . S
C241 C240 1.391 . S
C241 C242 1.391 . S
C242 C241 1.391 . S
C242 H298 0.947 . S
C242 C299 1.392 . S
C243 C244 1.391 . S
C243 C247 1.397 . S
C243 C299 1.419 . S
C244 C240 1.391 . S
C244 C243 1.391 . S
C244 C245 1.399 . S
C245 C244 1.399 . S
C245 C248 1.396 . S
C245 C257 1.453 . S
C245 C258 1.684 . S
H246 C270 0.948 . S
C247 C243 1.397 . S
C247 C248 1.394 . S
C247 C266 1.723 . S
C248 C245 1.396 . S
C248 C247 1.394 . S
C248 C278 1.723 . S
H249 C272 0.933 1_556 S
H250 C273 0.948 . S
H251 C279 0.982 . S
H252 C280 0.979 . S
H253 C280 0.980 . S
H254 C280 0.983 . S
H255 C279 0.979 . S
H256 C279 0.977 . S
C257 C245 1.453 . S
C257 H286 0.982 . S
C257 H287 0.979 . S
C257 H288 0.977 . S
C258 C245 1.684 . S
C258 H283 0.979 . S
C258 H284 0.980 . S
C258 H285 0.983 . S
C259 C260 1.391 . S
C259 C264 1.391 . S
C259 H289 0.948 . S
C260 C259 1.391 . S
C260 C261 1.391 . S
C261 C260 1.391 . S
C261 C262 1.392 . S
C261 H290 0.947 . S
C262 C261 1.392 . S
C262 C263 1.419 . S
C262 H291 0.948 . S
C263 C262 1.419 . S
C263 C264 1.391 . S
C263 C267 1.397 . S
C264 C259 1.391 . S
C264 C263 1.391 . S
C264 C265 1.399 . S
C265 C264 1.399 . S
C265 C266 1.396 . S
C265 C268 1.453 . S
C265 C269 1.684 . S
C266 C247 1.723 . S
C266 C265 1.396 . S
C266 C267 1.394 . S
C267 C263 1.397 . S
C267 C266 1.394 . S
C267 C277 1.723 . S
C268 C265 1.453 . S
C268 H292 0.982 . S
C268 H293 0.979 . S
C268 H294 0.977 . S
C269 C265 1.684 . S
C269 H295 0.979 . S
C269 H296 0.980 . S
C269 H297 0.983 . S
C270 H246 0.948 . S
C270 C271 1.391 . S
C270 C275 1.391 . S
C271 C270 1.391 . S
C271 C272 1.391 . S
C272 H249 0.933 1_554 S
C272 C271 1.391 . S
C272 C273 1.392 . S
C273 H250 0.948 . S
C273 C272 1.392 . S
C273 C274 1.419 . S
C274 C273 1.419 . S
C274 C275 1.391 . S
C274 C278 1.397 . S
C275 C270 1.391 . S
C275 C274 1.391 . S
C275 C276 1.399 . S
C276 C275 1.399 . S
C276 C277 1.396 . S
C276 C279 1.453 . S
C276 C280 1.684 . S
C277 C267 1.723 . S
C277 C276 1.396 . S
C277 C278 1.394 . S
C278 C248 1.723 . S
C278 C274 1.397 . S
C278 C277 1.394 . S
C279 H251 0.982 . S
C279 H255 0.979 . S
C279 H256 0.977 . S
C279 C276 1.453 . S
C280 H252 0.979 . S
C280 H253 0.980 . S
C280 H254 0.983 . S
C280 C276 1.684 . S
H281 C299 0.948 . S
H282 C240 0.948 . S
H283 C258 0.979 . S
H284 C258 0.980 . S
H285 C258 0.983 . S
H286 C257 0.982 . S
H287 C257 0.979 . S
H288 C257 0.977 . S
H289 C259 0.948 . S
H290 C261 0.947 . S
H291 C262 0.948 . S
H292 C268 0.982 . S
H293 C268 0.979 . S
H294 C268 0.977 . S
H295 C269 0.979 . S
H296 C269 0.980 . S
H297 C269 0.983 . S
H298 C242 0.947 . S
C299 C242 1.392 . S
C299 C243 1.419 . S
C299 H281 0.948 . S
C300 C301 1.391 . S
C300 C304 1.391 . S
C300 H342 0.948 . S
C301 C300 1.391 . S
C301 C302 1.391 . S
C302 C301 1.391 . S
C302 H358 0.947 . S
C302 C359 1.392 . S
C303 C304 1.391 . S
C303 C307 1.397 . S
C303 C359 1.419 . S
C304 C300 1.391 . S
C304 C303 1.391 . S
C304 C305 1.399 . S
C305 C304 1.399 . S
C305 C308 1.396 . S
C305 C317 1.453 . S
C305 C318 1.684 . S
H306 C330 0.948 . S
C307 C303 1.397 . S
C307 C308 1.394 . S
C307 C326 1.723 . S
C308 C305 1.396 . S
C308 C307 1.394 . S
C308 C338 1.723 . S
H309 C332 0.947 . S
H310 C333 0.948 . S
H311 C339 0.982 . S
H312 C340 0.979 . S
H313 C340 0.980 . S
H314 C340 0.983 . S
H315 C339 0.979 . S
H316 C339 0.977 . S
C317 C305 1.453 . S
C317 H346 0.982 . S
C317 H347 0.979 . S
C317 H348 0.977 . S
C318 C305 1.684 . S
C318 H343 0.979 . S
C318 H344 0.980 . S
C318 H345 0.983 . S
C319 C320 1.391 . S
C319 C324 1.391 . S
C319 H349 0.948 . S
C320 C319 1.391 . S
C320 C321 1.391 . S
C321 C320 1.391 . S
C321 C322 1.392 . S
C321 H350 0.947 . S
C322 C321 1.392 . S
C322 C323 1.419 . S
C322 H351 0.948 . S
C323 C322 1.419 . S
C323 C324 1.391 . S
C323 C327 1.397 . S
C324 C319 1.391 . S
C324 C323 1.391 . S
C324 C325 1.399 . S
C325 C324 1.399 . S
C325 C326 1.396 . S
C325 C328 1.453 . S
C325 C329 1.684 . S
C326 C307 1.723 . S
C326 C325 1.396 . S
C326 C327 1.394 . S
C327 C323 1.397 . S
C327 C326 1.394 . S
C327 C337 1.723 . S
C328 C325 1.453 . S
C328 H352 0.982 . S
C328 H353 0.979 . S
C328 H354 0.977 . S
C329 C325 1.684 . S
C329 H355 0.979 . S
C329 H356 0.980 . S
C329 H357 0.983 . S
C330 H306 0.948 . S
C330 C331 1.391 . S
C330 C335 1.391 . S
C331 C330 1.391 . S
C331 C332 1.391 . S
C332 H309 0.947 . S
C332 C331 1.391 . S
C332 C333 1.392 . S
C333 H310 0.948 . S
C333 C332 1.392 . S
C333 C334 1.419 . S
C334 C333 1.419 . S
C334 C335 1.391 . S
C334 C338 1.397 . S
C335 C330 1.391 . S
C335 C334 1.391 . S
C335 C336 1.399 . S
C336 C335 1.399 . S
C336 C337 1.396 . S
C336 C339 1.453 . S
C336 C340 1.684 . S
C337 C327 1.723 . S
C337 C336 1.396 . S
C337 C338 1.394 . S
C338 C308 1.723 . S
C338 C334 1.397 . S
C338 C337 1.394 . S
C339 H311 0.982 . S
C339 H315 0.979 . S
C339 H316 0.977 . S
C339 C336 1.453 . S
C340 H312 0.979 . S
C340 H313 0.980 . S
C340 H314 0.983 . S
C340 C336 1.684 . S
H341 C359 0.948 . S
H342 C300 0.948 . S
H343 C318 0.979 . S
H344 C318 0.980 . S
H345 C318 0.983 . S
H346 C317 0.982 . S
H347 C317 0.979 . S
H348 C317 0.977 . S
H349 C319 0.948 . S
H350 C321 0.947 . S
H351 C322 0.948 . S
H352 C328 0.982 . S
H353 C328 0.979 . S
H354 C328 0.977 . S
H355 C329 0.979 . S
H356 C329 0.980 . S
H357 C329 0.983 . S
H358 C302 0.947 . S
C359 C302 1.392 . S
C359 C303 1.419 . S
C359 H341 0.948 . S
C360 C361 1.391 . S
C360 C364 1.391 . S
C360 H402 0.948 . S
C361 C360 1.391 . S
C361 C362 1.391 . S
C362 C361 1.391 . S
C362 H418 0.947 . S
C362 C419 1.392 . S
C363 C364 1.391 . S
C363 C367 1.397 1_545 S
C363 C419 1.419 . S
C364 C360 1.391 . S
C364 C363 1.391 . S
C364 C365 1.399 . S
C365 C364 1.399 . S
C365 C368 1.396 1_545 S
C365 C377 1.453 1_545 S
C365 C378 1.684 . S
H366 C390 0.948 . S
C367 C363 1.397 1_565 S
C367 C368 1.394 . S
C367 C386 1.723 . S
C368 C365 1.396 1_565 S
C368 C367 1.394 . S
C368 C398 1.722 . S
H369 C392 0.947 . S
H370 C393 0.948 . S
H371 C399 0.982 . S
H372 C400 0.979 . S
H373 C400 0.980 . S
H374 C400 0.983 . S
H375 C399 0.979 . S
H376 C399 0.977 . S
C377 C365 1.453 1_565 S
C377 H406 0.982 . S
C377 H407 0.979 . S
C377 H408 0.977 . S
C378 C365 1.684 . S
C378 H403 0.979 . S
C378 H404 0.980 . S
C378 H405 0.983 . S
C379 C380 1.391 . S
C379 C384 1.391 . S
C379 H409 0.948 . S
C380 C379 1.391 . S
C380 C381 1.391 . S
C381 C380 1.391 . S
C381 C382 1.392 . S
C381 H410 0.947 . S
C382 C381 1.392 . S
C382 C383 1.419 . S
C382 H411 0.948 . S
C383 C382 1.419 . S
C383 C384 1.391 . S
C383 C387 1.397 1_545 S
C384 C379 1.391 . S
C384 C383 1.391 . S
C384 C385 1.399 . S
C385 C384 1.399 . S
C385 C386 1.396 1_545 S
C385 C388 1.453 1_545 S
C385 C389 1.684 . S
C386 C367 1.723 . S
C386 C385 1.396 1_565 S
C386 C387 1.394 . S
C387 C383 1.397 1_565 S
C387 C386 1.394 . S
C387 C397 1.723 . S
C388 C385 1.453 1_565 S
C388 H412 0.982 . S
C388 H413 0.979 . S
C388 H414 0.977 . S
C389 C385 1.684 . S
C389 H415 0.979 . S
C389 H416 0.980 . S
C389 H417 0.983 . S
C390 H366 0.948 . S
C390 C391 1.391 . S
C390 C395 1.391 . S
C391 C390 1.391 . S
C391 C392 1.391 . S
C392 H369 0.947 . S
C392 C391 1.391 . S
C392 C393 1.392 . S
C393 H370 0.948 . S
C393 C392 1.392 . S
C393 C394 1.419 . S
C394 C393 1.419 . S
C394 C395 1.391 . S
C394 C398 1.397 1_545 S
C395 C390 1.391 . S
C395 C394 1.391 . S
C395 C396 1.399 . S
C396 C395 1.399 . S
C396 C397 1.396 1_545 S
C396 C399 1.453 1_545 S
C396 C400 1.684 . S
C397 C387 1.723 . S
C397 C396 1.396 1_565 S
C397 C398 1.394 . S
C398 C368 1.722 . S
C398 C394 1.397 1_565 S
C398 C397 1.394 . S
C399 H371 0.982 . S
C399 H375 0.979 . S
C399 H376 0.977 . S
C399 C396 1.453 1_565 S
C400 H372 0.979 . S
C400 H373 0.980 . S
C400 H374 0.983 . S
C400 C396 1.684 . S
H401 C419 0.948 . S
H402 C360 0.948 . S
H403 C378 0.979 . S
H404 C378 0.980 . S
H405 C378 0.983 . S
H406 C377 0.982 . S
H407 C377 0.979 . S
H408 C377 0.977 . S
H409 C379 0.948 . S
H410 C381 0.947 . S
H411 C382 0.948 . S
H412 C388 0.982 . S
H413 C388 0.979 . S
H414 C388 0.977 . S
H415 C389 0.979 . S
H416 C389 0.980 . S
H417 C389 0.983 . S
H418 C362 0.947 . S
C419 C362 1.392 . S
C419 C363 1.419 . S
C419 H401 0.948 . S
C420 C421 1.391 . S
C420 C424 1.391 . S
C420 H462 0.948 . S
C421 C420 1.391 . S
C421 C422 1.391 . S
C422 C421 1.391 . S
C422 H478 0.947 . S
C422 C479 1.392 . S
C423 C424 1.391 . S
C423 C427 1.397 . S
C423 C479 1.419 . S
C424 C420 1.391 . S
C424 C423 1.391 . S
C424 C425 1.399 . S
C425 C424 1.399 . S
C425 C428 1.396 . S
C425 C437 1.453 . S
C425 C438 1.684 . S
H426 C450 0.948 . S
C427 C423 1.397 . S
C427 C428 1.394 . S
C427 C446 1.723 . S
C428 C425 1.396 . S
C428 C427 1.394 . S
C428 C458 1.723 . S
H429 C452 0.947 . S
H430 C453 0.948 . S
H431 C459 0.982 . S
H432 C460 0.979 . S
H433 C460 0.980 . S
H434 C460 0.983 . S
H435 C459 0.979 . S
H436 C459 0.977 . S
C437 C425 1.453 . S
C437 H466 0.982 . S
C437 H467 0.979 . S
C437 H468 0.977 . S
C438 C425 1.684 . S
C438 H463 0.979 . S
C438 H464 0.980 . S
C438 H465 0.983 . S
C439 C440 1.391 . S
C439 C444 1.391 . S
C439 H469 0.948 . S
C440 C439 1.391 . S
C440 C441 1.391 . S
C441 C440 1.391 . S
C441 C442 1.392 . S
C441 H470 0.947 . S
C442 C441 1.392 . S
C442 C443 1.419 . S
C442 H471 0.948 . S
C443 C442 1.419 . S
C443 C444 1.391 . S
C443 C447 1.397 . S
C444 C439 1.391 . S
C444 C443 1.391 . S
C444 C445 1.399 . S
C445 C444 1.399 . S
C445 C446 1.396 . S
C445 C448 1.453 . S
C445 C449 1.684 . S
C446 C427 1.723 . S
C446 C445 1.396 . S
C446 C447 1.394 . S
C447 C443 1.397 . S
C447 C446 1.394 . S
C447 C457 1.723 . S
C448 C445 1.453 . S
C448 H472 0.982 . S
C448 H473 0.979 . S
C448 H474 0.977 . S
C449 C445 1.684 . S
C449 H475 0.979 . S
C449 H476 0.980 . S
C449 H477 0.983 . S
C450 H426 0.948 . S
C450 C451 1.391 . S
C450 C455 1.391 . S
C451 C450 1.391 . S
C451 C452 1.391 . S
C452 H429 0.947 . S
C452 C451 1.391 . S
C452 C453 1.392 . S
C453 H430 0.948 . S
C453 C452 1.392 . S
C453 C454 1.419 . S
C454 C453 1.419 . S
C454 C455 1.391 . S
C454 C458 1.397 . S
C455 C450 1.391 . S
C455 C454 1.391 . S
C455 C456 1.399 . S
C456 C455 1.399 . S
C456 C457 1.396 . S
C456 C459 1.453 . S
C456 C460 1.684 . S
C457 C447 1.723 . S
C457 C456 1.396 . S
C457 C458 1.394 . S
C458 C428 1.723 . S
C458 C454 1.397 . S
C458 C457 1.394 . S
C459 H431 0.982 . S
C459 H435 0.979 . S
C459 H436 0.977 . S
C459 C456 1.453 . S
C460 H432 0.979 . S
C460 H433 0.980 . S
C460 H434 0.983 . S
C460 C456 1.684 . S
H461 C479 0.948 . S
H462 C420 0.948 . S
H463 C438 0.979 . S
H464 C438 0.980 . S
H465 C438 0.983 . S
H466 C437 0.982 . S
H467 C437 0.979 . S
H468 C437 0.977 . S
H469 C439 0.948 . S
H470 C441 0.947 . S
H471 C442 0.948 . S
H472 C448 0.982 . S
H473 C448 0.979 . S
H474 C448 0.977 . S
H475 C449 0.979 . S
H476 C449 0.980 . S
H477 C449 0.983 . S
H478 C422 0.947 . S
C479 C422 1.392 . S
C479 C423 1.419 . S
C479 H461 0.948 . S
C480 O496 1.251 . S
C480 O498 1.254 1_655 S
N481 C482 1.333 . S
N481 C486 1.307 . S
N481 Zn487 2.020 . S
C482 N481 1.333 . S
C482 C483 1.379 . S
C482 H500 0.952 . S
C483 C482 1.379 . S
C483 C484 1.390 . S
C483 H510 0.949 . S
C484 C483 1.390 . S
C484 C485 1.357 . S
C485 C484 1.357 . S
C485 C486 1.370 . S
C485 H511 0.950 . S
C486 N481 1.307 . S
C486 C485 1.370 . S
C486 H504 0.954 1_565 S
Zn487 N481 2.020 . S
Zn487 O496 2.039 . S
Zn487 O502 2.034 1_655 S
Zn487 O506 2.022 1_665 S
Zn487 O508 2.034 . S
C488 O507 1.246 . S
C488 O508 1.236 1_545 S
N489 C490 1.307 . S
N489 C491 1.333 . S
N489 Zn495 2.020 . S
C490 N489 1.307 . S
C490 C494 1.370 . S
C490 H501 0.954 . S
C491 N489 1.333 . S
C491 C492 1.379 . S
C491 H499 0.952 . S
C492 C491 1.379 . S
C492 C493 1.390 . S
C492 H512 0.949 . S
C493 C492 1.390 . S
C493 C494 1.357 . S
C494 C490 1.370 . S
C494 C493 1.357 . S
C494 H513 0.950 . S
Zn495 N489 2.020 . S
Zn495 O498 2.025 1_545 S
Zn495 O503 2.038 . S
Zn495 O505 2.039 . S
Zn495 O507 2.034 1_455 S
O496 C480 1.251 . S
O496 Zn487 2.039 . S
C497 O502 1.246 . S
C497 O503 1.230 1_565 S
O498 C480 1.254 1_455 S
O498 Zn495 2.025 1_565 S
H499 C491 0.952 . S
H500 C482 0.952 . S
H501 C490 0.954 . S
O502 Zn487 2.034 1_455 S
O502 C497 1.246 . S
O503 Zn495 2.038 . S
O503 C497 1.230 1_545 S
H504 C486 0.954 1_545 S
O505 Zn495 2.039 . S
O505 C509 1.251 . S
O506 Zn487 2.022 1_445 S
O506 C509 1.266 . S
O507 C488 1.246 . S
O507 Zn495 2.034 1_655 S
O508 Zn487 2.034 . S
O508 C488 1.236 1_565 S
C509 O505 1.251 . S
C509 O506 1.266 . S
H510 C483 0.949 . S
H511 C485 0.950 . S
H512 C492 0.949 . S
H513 C494 0.950 . S
C514 O530 1.251 1_565 S
C514 O532 1.254 . S
N515 C516 1.333 . S
N515 C520 1.307 . S
N515 Zn521 2.020 . S
C516 N515 1.333 . S
C516 C517 1.379 . S
C516 H534 0.952 . S
C517 C516 1.379 . S
C517 C518 1.390 . S
C517 H544 0.949 . S
C518 C517 1.390 . S
C518 C519 1.357 . S
C519 C518 1.357 . S
C519 C520 1.370 . S
C519 H545 0.950 . S
C520 N515 1.307 . S
C520 C519 1.370 . S
C520 H538 0.948 . S
Zn521 N515 2.020 . S
Zn521 O530 2.039 . S
Zn521 O536 2.034 . S
Zn521 O540 2.025 . S
Zn521 O542 2.024 . S
C522 O541 1.246 1_545 S
C522 O542 1.249 . S
N523 C524 1.307 . S
N523 C525 1.333 . S
N523 Zn529 2.020 . S
C524 N523 1.307 . S
C524 C528 1.370 . S
C524 H535 0.948 . S
C525 N523 1.333 . S
C525 C526 1.379 . S
C525 H533 0.952 . S
C526 C525 1.379 . S
C526 C527 1.390 . S
C526 H546 0.949 . S
C527 C526 1.390 . S
C527 C528 1.357 . S
C528 C524 1.370 . S
C528 C527 1.357 . S
C528 H547 0.950 . S
Zn529 N523 2.020 . S
Zn529 O532 2.025 . S
Zn529 O537 2.024 . S
Zn529 O539 2.039 . S
Zn529 O541 2.034 . S
O530 C514 1.251 1_545 S
O530 Zn521 2.039 . S
C531 O536 1.246 1_565 S
C531 O537 1.249 . S
O532 C514 1.254 . S
O532 Zn529 2.025 . S
H533 C525 0.952 . S
H534 C516 0.952 . S
H535 C524 0.948 . S
O536 Zn521 2.034 . S
O536 C531 1.246 1_545 S
O537 Zn529 2.024 . S
O537 C531 1.249 . S
H538 C520 0.948 . S
O539 Zn529 2.039 . S
O539 C543 1.251 1_565 S
O540 Zn521 2.025 . S
O540 C543 1.254 . S
O541 C522 1.246 1_565 S
O541 Zn529 2.034 . S
O542 Zn521 2.024 . S
O542 C522 1.249 . S
C543 O539 1.251 1_545 S
C543 O540 1.254 . S
H544 C517 0.949 . S
H545 C519 0.950 . S
H546 C526 0.949 . S
H547 C528 0.950 . S
C548 O564 1.251 . S
C548 O566 1.254 . S
N549 C550 1.333 . S
N549 C554 1.307 . S
N549 Zn555 2.020 . S
C550 N549 1.333 . S
C550 C551 1.379 . S
C550 H568 0.952 . S
C551 C550 1.379 . S
C551 C552 1.390 . S
C551 H578 0.949 . S
C552 C551 1.390 . S
C552 C553 1.357 . S
C553 C552 1.357 . S
C553 C554 1.370 . S
C553 H579 0.950 . S
C554 N549 1.307 . S
C554 C553 1.370 . S
C554 H572 0.948 . S
Zn555 N549 2.020 . S
Zn555 O564 2.039 . S
Zn555 O570 2.034 . S
Zn555 O574 2.025 . S
Zn555 O576 2.024 . S
C556 O575 1.246 . S
C556 O576 1.249 . S
N557 C558 1.307 . S
N557 C559 1.333 . S
N557 Zn563 2.020 . S
C558 N557 1.307 . S
C558 C562 1.370 . S
C558 H569 0.948 . S
C559 N557 1.333 . S
C559 C560 1.379 . S
C559 H567 0.952 . S
C560 C559 1.379 . S
C560 C561 1.390 . S
C560 H580 0.949 . S
C561 C560 1.390 . S
C561 C562 1.357 . S
C562 C558 1.370 . S
C562 C561 1.357 . S
C562 H581 0.950 . S
Zn563 N557 2.020 . S
Zn563 O566 2.025 . S
Zn563 O571 2.024 . S
Zn563 O573 2.039 . S
Zn563 O575 2.034 . S
O564 C548 1.251 . S
O564 Zn555 2.039 . S
C565 O570 1.246 . S
C565 O571 1.249 . S
O566 C548 1.254 . S
O566 Zn563 2.025 . S
H567 C559 0.952 . S
H568 C550 0.952 . S
H569 C558 0.948 . S
O570 Zn555 2.034 . S
O570 C565 1.246 . S
O571 Zn563 2.024 . S
O571 C565 1.249 . S
H572 C554 0.948 . S
O573 Zn563 2.039 . S
O573 C577 1.251 . S
O574 Zn555 2.025 . S
O574 C577 1.254 . S
O575 C556 1.246 . S
O575 Zn563 2.034 . S
O576 Zn555 2.024 . S
O576 C556 1.249 . S
C577 O573 1.251 . S
C577 O574 1.254 . S
H578 C551 0.949 . S
H579 C553 0.950 . S
H580 C560 0.949 . S
H581 C562 0.950 . S
C582 O598 1.251 . S
C582 O600 1.254 . S
N583 C584 1.333 . S
N583 C588 1.307 . S
N583 Zn589 2.020 . S
C584 N583 1.333 . S
C584 C585 1.379 . S
C584 H602 0.952 . S
C585 C584 1.379 . S
C585 C586 1.390 . S
C585 H612 0.949 . S
C586 C585 1.390 . S
C586 C587 1.357 . S
C587 C586 1.357 . S
C587 C588 1.370 . S
C587 H613 0.950 . S
C588 N583 1.307 . S
C588 C587 1.370 . S
C588 H606 0.948 . S
Zn589 N583 2.020 . S
Zn589 O598 2.039 . S
Zn589 O604 2.034 1_455 S
Zn589 O608 2.025 1_455 S
Zn589 O610 2.024 . S
C590 O609 1.246 . S
C590 O610 1.249 . S
N591 C592 1.307 . S
N591 C593 1.333 . S
N591 Zn597 2.020 . S
C592 N591 1.307 . S
C592 C596 1.370 . S
C592 H603 0.948 . S
C593 N591 1.333 . S
C593 C594 1.379 . S
C593 H601 0.952 . S
C594 C593 1.379 . S
C594 C595 1.390 . S
C594 H614 0.949 . S
C595 C594 1.390 . S
C595 C596 1.357 . S
C596 C592 1.370 . S
C596 C595 1.357 . S
C596 H615 0.950 . S
Zn597 N591 2.020 . S
Zn597 O600 2.025 1_655 S
Zn597 O605 2.024 . S
Zn597 O607 2.039 . S
Zn597 O609 2.034 1_655 S
O598 C582 1.251 . S
O598 Zn589 2.039 . S
C599 O604 1.246 . S
C599 O605 1.249 . S
O600 C582 1.254 . S
O600 Zn597 2.025 1_455 S
H601 C593 0.952 . S
H602 C584 0.952 . S
H603 C592 0.948 . S
O604 Zn589 2.034 1_655 S
O604 C599 1.246 . S
O605 Zn597 2.024 . S
O605 C599 1.249 . S
H606 C588 0.948 . S
O607 Zn597 2.039 . S
O607 C611 1.251 . S
O608 Zn589 2.025 1_655 S
O608 C611 1.254 . S
O609 C590 1.246 . S
O609 Zn597 2.034 1_455 S
O610 Zn589 2.024 . S
O610 C590 1.249 . S
C611 O607 1.251 . S
C611 O608 1.254 . S
H612 C585 0.949 . S
H613 C587 0.950 . S
H614 C594 0.949 . S
H615 C596 0.950 . S
H616 C628 0.930 . S
H617 C630 0.930 . S
H618 C631 0.930 . S
H619 C635 0.959 . S
H620 C635 0.959 . S
H621 C635 0.961 . S
H622 C636 0.960 . S
H623 C636 0.961 . S
H624 C636 0.959 . S
H625 C639 0.929 . S
H626 C640 0.931 . S
H627 C642 0.930 . S
C628 H616 0.930 . S
C628 C629 1.399 1_545 S
C628 C633 1.399 . S
C629 C628 1.399 1_565 S
C629 C630 1.376 . S
C630 H617 0.930 . S
C630 C629 1.376 . S
C630 C631 1.388 . S
C631 H618 0.930 . S
C631 C630 1.388 . S
C631 C632 1.390 . S
C632 C631 1.390 . S
C632 C633 1.394 1_565 S
C632 C638 1.465 . S
C633 C628 1.399 . S
C633 C632 1.394 1_545 S
C633 C634 1.516 . S
C634 C633 1.516 . S
C634 C635 1.502 . S
C634 C636 1.561 . S
C634 C637 1.526 . S
C635 H619 0.959 . S
C635 H620 0.959 . S
C635 H621 0.961 . S
C635 C634 1.502 . S
C636 H622 0.960 . S
C636 H623 0.961 . S
C636 H624 0.959 . S
C636 C634 1.561 . S
C637 C634 1.526 . S
C637 C638 1.396 1_545 S
C637 C642 1.390 . S
C638 C632 1.465 . S
C638 C637 1.396 1_565 S
C638 C639 1.399 . S
C639 H625 0.929 . S
C639 C638 1.399 . S
C639 C640 1.385 . S
C640 H626 0.931 . S
C640 C639 1.385 . S
C640 C641 1.389 . S
C641 C640 1.389 . S
C641 C642 1.387 1_565 S
C642 H627 0.930 . S
C642 C637 1.390 . S
C642 C641 1.387 1_545 S
H643 C655 0.930 . S
H644 C657 0.930 . S
H645 C658 0.930 . S
H646 C662 0.959 . S
H647 C662 0.959 . S
H648 C662 0.961 . S
H649 C663 0.960 . S
H650 C663 0.961 . S
H651 C663 0.959 . S
H652 C666 0.929 . S
H653 C667 0.931 . S
H654 C669 0.930 . S
C655 H643 0.930 . S
C655 C656 1.399 . S
C655 C660 1.399 . S
C656 C655 1.399 . S
C656 C657 1.376 . S
C657 H644 0.930 . S
C657 C656 1.376 . S
C657 C658 1.388 . S
C658 H645 0.930 . S
C658 C657 1.388 . S
C658 C659 1.390 . S
C659 C658 1.390 . S
C659 C660 1.394 . S
C659 C665 1.465 . S
C660 C655 1.399 . S
C660 C659 1.394 . S
C660 C661 1.516 . S
C661 C660 1.516 . S
C661 C662 1.502 . S
C661 C663 1.561 . S
C661 C664 1.526 . S
C662 H646 0.959 . S
C662 H647 0.959 . S
C662 H648 0.961 . S
C662 C661 1.502 . S
C663 H649 0.960 . S
C663 H650 0.961 . S
C663 H651 0.959 . S
C663 C661 1.561 . S
C664 C661 1.526 . S
C664 C665 1.396 . S
C664 C669 1.390 . S
C665 C659 1.465 . S
C665 C664 1.396 . S
C665 C666 1.399 . S
C666 H652 0.929 . S
C666 C665 1.399 . S
C666 C667 1.385 . S
C667 H653 0.931 . S
C667 C666 1.385 . S
C667 C668 1.389 . S
C668 C667 1.389 . S
C668 C669 1.387 . S
C669 H654 0.930 . S
C669 C664 1.390 . S
C669 C668 1.387 . S
H670 C682 0.930 . S
H671 C684 0.930 . S
H672 C685 0.930 . S
H673 C689 0.959 . S
H674 C689 0.959 . S
H675 C689 0.961 . S
H676 C690 0.960 . S
H677 C690 0.961 . S
H678 C690 0.959 . S
H679 C693 0.929 . S
H680 C694 0.931 . S
H681 C696 0.930 . S
C682 H670 0.930 . S
C682 C683 1.399 . S
C682 C687 1.399 . S
C683 C682 1.399 . S
C683 C684 1.376 . S
C684 H671 0.930 . S
C684 C683 1.376 . S
C684 C685 1.388 . S
C685 H672 0.930 . S
C685 C684 1.388 . S
C685 C686 1.390 . S
C686 C685 1.390 . S
C686 C687 1.394 . S
C686 C692 1.465 . S
C687 C682 1.399 . S
C687 C686 1.394 . S
C687 C688 1.516 . S
C688 C687 1.516 . S
C688 C689 1.502 . S
C688 C690 1.561 . S
C688 C691 1.526 . S
C689 H673 0.959 . S
C689 H674 0.959 . S
C689 H675 0.961 . S
C689 C688 1.502 . S
C690 H676 0.960 . S
C690 H677 0.961 . S
C690 H678 0.959 . S
C690 C688 1.561 . S
C691 C688 1.526 . S
C691 C692 1.396 . S
C691 C696 1.390 . S
C692 C686 1.465 . S
C692 C691 1.396 . S
C692 C693 1.399 . S
C693 H679 0.929 . S
C693 C692 1.399 . S
C693 C694 1.385 . S
C694 H680 0.931 . S
C694 C693 1.385 . S
C694 C695 1.389 . S
C695 C694 1.389 . S
C695 C696 1.387 . S
C696 H681 0.930 . S
C696 C691 1.390 . S
C696 C695 1.387 . S
H697 C709 0.930 . S
H698 C711 0.930 . S
H699 C712 0.930 . S
H700 C716 0.959 . S
H701 C716 0.959 . S
H702 C716 0.961 . S
H703 C717 0.960 . S
H704 C717 0.961 . S
H705 C717 0.959 . S
H706 C720 0.929 . S
H707 C721 0.931 . S
H708 C723 0.930 . S
C709 H697 0.930 . S
C709 C710 1.399 . S
C709 C714 1.399 . S
C710 C709 1.399 . S
C710 C711 1.376 . S
C711 H698 0.930 . S
C711 C710 1.376 . S
C711 C712 1.388 . S
C712 H699 0.930 . S
C712 C711 1.388 . S
C712 C713 1.390 . S
C713 C712 1.390 . S
C713 C714 1.394 . S
C713 C719 1.465 . S
C714 C709 1.399 . S
C714 C713 1.394 . S
C714 C715 1.516 . S
C715 C714 1.516 . S
C715 C716 1.502 . S
C715 C717 1.561 . S
C715 C718 1.526 . S
C716 H700 0.959 . S
C716 H701 0.959 . S
C716 H702 0.961 . S
C716 C715 1.502 . S
C717 H703 0.960 . S
C717 H704 0.961 . S
C717 H705 0.959 . S
C717 C715 1.561 . S
C718 C715 1.526 . S
C718 C719 1.396 . S
C718 C723 1.390 . S
C719 C713 1.465 . S
C719 C718 1.396 . S
C719 C720 1.399 . S
C720 H706 0.929 . S
C720 C719 1.399 . S
C720 C721 1.385 . S
C721 H707 0.931 . S
C721 C720 1.385 . S
C721 C722 1.389 . S
C722 C721 1.389 . S
C722 C723 1.387 . S
C723 H708 0.930 . S
C723 C718 1.390 . S
C723 C722 1.387 . S
H724 C736 0.930 . S
H725 C738 0.930 . S
H726 C739 0.930 . S
H727 C743 0.959 . S
H728 C743 0.959 . S
H729 C743 0.961 . S
H730 C744 0.960 . S
H731 C744 0.961 . S
H732 C744 0.959 . S
H733 C747 0.929 . S
H734 C748 0.931 . S
H735 C750 0.930 . S
C736 H724 0.930 . S
C736 C737 1.362 1_545 S
C736 C741 1.399 . S
C737 C736 1.362 1_565 S
C737 C738 1.424 . S
C738 H725 0.930 . S
C738 C737 1.424 . S
C738 C739 1.388 . S
C739 H726 0.930 . S
C739 C738 1.388 . S
C739 C740 1.390 . S
C740 C739 1.390 . S
C740 C741 1.394 1_565 S
C740 C746 1.465 . S
C741 C736 1.399 . S
C741 C740 1.394 1_545 S
C741 C742 1.516 . S
C742 C741 1.516 . S
C742 C743 1.502 . S
C742 C744 1.561 . S
C742 C745 1.526 . S
C743 H727 0.959 . S
C743 H728 0.959 . S
C743 H729 0.961 . S
C743 C742 1.502 . S
C744 H730 0.960 . S
C744 H731 0.961 . S
C744 H732 0.959 . S
C744 C742 1.561 . S
C745 C742 1.526 . S
C745 C746 1.396 1_545 S
C745 C750 1.390 . S
C746 C740 1.465 . S
C746 C745 1.396 1_565 S
C746 C747 1.399 . S
C747 H733 0.929 . S
C747 C746 1.399 . S
C747 C748 1.385 . S
C748 H734 0.931 . S
C748 C747 1.385 . S
C748 C749 1.389 1_565 S
C749 C748 1.389 1_545 S
C749 C750 1.387 . S
C750 H735 0.930 . S
C750 C745 1.390 . S
C750 C749 1.387 . S
H751 C763 0.930 . S
H752 C765 0.930 . S
H753 C766 0.930 . S
H754 C770 0.959 . S
H755 C770 0.959 . S
H756 C770 0.961 . S
H757 C771 0.960 . S
H758 C771 0.961 . S
H759 C771 0.959 . S
H760 C774 0.929 . S
H761 C775 0.931 . S
H762 C777 0.930 . S
C763 H751 0.930 . S
C763 C764 1.399 1_556 S
C763 C768 1.399 . S
C764 C763 1.399 1_554 S
C764 C765 1.376 . S
C765 H752 0.930 . S
C765 C764 1.376 . S
C765 C766 1.388 . S
C766 H753 0.930 . S
C766 C765 1.388 . S
C766 C767 1.390 1_554 S
C767 C766 1.390 1_556 S
C767 C768 1.394 . S
C767 C773 1.465 . S
C768 C763 1.399 . S
C768 C767 1.394 . S
C768 C769 1.516 . S
C769 C768 1.516 . S
C769 C770 1.502 . S
C769 C771 1.561 . S
C769 C772 1.526 . S
C770 H754 0.959 . S
C770 H755 0.959 . S
C770 H756 0.961 . S
C770 C769 1.502 . S
C771 H757 0.960 . S
C771 H758 0.961 . S
C771 H759 0.959 . S
C771 C769 1.561 . S
C772 C769 1.526 . S
C772 C773 1.396 . S
C772 C777 1.390 . S
C773 C767 1.465 . S
C773 C772 1.396 . S
C773 C774 1.399 . S
C774 H760 0.929 . S
C774 C773 1.399 . S
C774 C775 1.385 . S
C775 H761 0.931 . S
C775 C774 1.385 . S
C775 C776 1.389 . S
C776 C775 1.389 . S
C776 C777 1.387 . S
C777 H762 0.930 . S
C777 C772 1.390 . S
C777 C776 1.387 . S
H778 C790 0.930 . S
H779 C792 0.930 . S
H780 C793 0.930 . S
H781 C797 0.959 . S
H782 C797 0.959 . S
H783 C797 0.961 . S
H784 C798 0.960 . S
H785 C798 0.961 1_556 S
H786 C798 0.959 . S
H787 C801 0.929 . S
H788 C802 0.931 . S
H789 C804 0.930 . S
C790 H778 0.930 . S
C790 C791 1.399 . S
C790 C795 1.399 1_554 S
C791 C790 1.399 . S
C791 C792 1.376 . S
C792 H779 0.930 . S
C792 C791 1.376 . S
C792 C793 1.388 1_554 S
C793 H780 0.930 . S
C793 C792 1.388 1_556 S
C793 C794 1.390 . S
C794 C793 1.390 . S
C794 C795 1.394 . S
C794 C800 1.465 . S
C795 C790 1.399 1_556 S
C795 C794 1.394 . S
C795 C796 1.516 . S
C796 C795 1.516 . S
C796 C797 1.502 . S
C796 C798 1.561 1_556 S
C796 C799 1.526 . S
C797 H781 0.959 . S
C797 H782 0.959 . S
C797 H783 0.961 . S
C797 C796 1.502 . S
C798 H784 0.960 . S
C798 H785 0.961 1_554 S
C798 H786 0.959 . S
C798 C796 1.561 1_554 S
C799 C796 1.526 . S
C799 C800 1.396 . S
C799 C804 1.390 . S
C800 C794 1.465 . S
C800 C799 1.396 . S
C800 C801 1.399 . S
C801 H787 0.929 . S
C801 C800 1.399 . S
C801 C802 1.385 . S
C802 H788 0.931 . S
C802 C801 1.385 . S
C802 C803 1.389 . S
C803 C802 1.389 . S
C803 C804 1.387 . S
C804 H789 0.930 . S
C804 C799 1.390 . S
C804 C803 1.387 . S
H805 C817 0.930 . S
H806 C819 0.930 1_554 S
H807 C820 0.930 . S
H808 C824 0.959 . S
H809 C824 0.959 . S
H810 C824 0.961 . S
H811 C825 0.960 . S
H812 C825 0.961 . S
H813 C825 0.959 . S
H814 C828 0.929 . S
H815 C829 0.931 . S
H816 C831 0.930 . S
C817 H805 0.930 . S
C817 C818 1.399 . S
C817 C822 1.399 . S
C818 C817 1.399 . S
C818 C819 1.376 . S
C819 H806 0.930 1_556 S
C819 C818 1.376 . S
C819 C820 1.388 . S
C820 H807 0.930 . S
C820 C819 1.388 . S
C820 C821 1.390 . S
C821 C820 1.390 . S
C821 C822 1.394 . S
C821 C827 1.465 . S
C822 C817 1.399 . S
C822 C821 1.394 . S
C822 C823 1.516 . S
C823 C822 1.516 . S
C823 C824 1.502 . S
C823 C825 1.561 . S
C823 C826 1.526 . S
C824 H808 0.959 . S
C824 H809 0.959 . S
C824 H810 0.961 . S
C824 C823 1.502 . S
C825 H811 0.960 . S
C825 H812 0.961 . S
C825 H813 0.959 . S
C825 C823 1.561 . S
C826 C823 1.526 . S
C826 C827 1.396 . S
C826 C831 1.390 . S
C827 C821 1.465 . S
C827 C826 1.396 . S
C827 C828 1.399 . S
C828 H814 0.929 . S
C828 C827 1.399 . S
C828 C829 1.385 . S
C829 H815 0.931 . S
C829 C828 1.385 . S
C829 C830 1.389 . S
C830 C829 1.389 . S
C830 C831 1.387 . S
C831 H816 0.930 . S
C831 C826 1.390 . S
C831 C830 1.387 . S
H832 C844 0.930 . S
H833 C846 0.930 . S
H834 C847 0.930 . S
H835 C851 0.959 . S
H836 C851 0.959 . S
H837 C851 0.961 . S
H838 C852 0.960 . S
H839 C852 0.961 . S
H840 C852 0.959 . S
H841 C855 0.929 . S
H842 C856 0.931 1_655 S
H843 C858 0.930 . S
C844 H832 0.930 . S
C844 C845 1.399 . S
C844 C849 1.399 . S
C845 C844 1.399 . S
C845 C846 1.376 . S
C846 H833 0.930 . S
C846 C845 1.376 . S
C846 C847 1.388 . S
C847 H834 0.930 . S
C847 C846 1.388 . S
C847 C848 1.390 . S
C848 C847 1.390 . S
C848 C849 1.394 . S
C848 C854 1.465 . S
C849 C844 1.399 . S
C849 C848 1.394 . S
C849 C850 1.516 . S
C850 C849 1.516 . S
C850 C851 1.502 . S
C850 C852 1.561 . S
C850 C853 1.526 . S
C851 H835 0.959 . S
C851 H836 0.959 . S
C851 H837 0.961 . S
C851 C850 1.502 . S
C852 H838 0.960 . S
C852 H839 0.961 . S
C852 H840 0.959 . S
C852 C850 1.561 . S
C853 C850 1.526 . S
C853 C854 1.396 . S
C853 C858 1.390 . S
C854 C848 1.465 . S
C854 C853 1.396 . S
C854 C855 1.399 . S
C855 H841 0.929 . S
C855 C854 1.399 . S
C855 C856 1.385 . S
C856 H842 0.931 1_455 S
C856 C855 1.385 . S
C856 C857 1.389 . S
C857 C856 1.389 . S
C857 C858 1.387 . S
C858 H843 0.930 . S
C858 C853 1.390 . S
C858 C857 1.387 . S
H859 C871 0.930 . S
H860 C873 0.930 . S
H861 C874 0.930 . S
H862 C878 0.959 . S
H863 C878 0.959 . S
H864 C878 0.961 . S
H865 C879 0.960 . S
H866 C879 0.961 . S
H867 C879 0.959 . S
H868 C882 0.929 . S
H869 C883 0.931 . S
H870 C885 0.930 . S
C871 H859 0.930 . S
C871 C872 1.399 1_545 S
C871 C876 1.399 . S
C872 C871 1.399 1_565 S
C872 C873 1.376 . S
C873 H860 0.930 . S
C873 C872 1.376 . S
C873 C874 1.388 . S
C874 H861 0.930 . S
C874 C873 1.388 . S
C874 C875 1.390 . S
C875 C874 1.390 . S
C875 C876 1.394 1_565 S
C875 C881 1.465 . S
C876 C871 1.399 . S
C876 C875 1.394 1_545 S
C876 C877 1.516 . S
C877 C876 1.516 . S
C877 C878 1.502 . S
C877 C879 1.561 . S
C877 C880 1.526 . S
C878 H862 0.959 . S
C878 H863 0.959 . S
C878 H864 0.961 . S
C878 C877 1.502 . S
C879 H865 0.960 . S
C879 H866 0.961 . S
C879 H867 0.959 . S
C879 C877 1.561 . S
C880 C877 1.526 . S
C880 C881 1.396 1_545 S
C880 C885 1.390 . S
C881 C875 1.465 . S
C881 C880 1.396 1_565 S
C881 C882 1.399 . S
C882 H868 0.929 . S
C882 C881 1.399 . S
C882 C883 1.385 . S
C883 H869 0.931 . S
C883 C882 1.385 . S
C883 C884 1.389 . S
C884 C883 1.389 . S
C884 C885 1.387 1_565 S
C885 H870 0.930 . S
C885 C880 1.390 . S
C885 C884 1.387 1_545 S
H886 C898 0.930 . S
H887 C900 0.930 . S
H888 C901 0.930 . S
H889 C905 0.959 . S
H890 C905 0.959 . S
H891 C905 0.961 . S
H892 C906 0.960 . S
H893 C906 0.961 . S
H894 C906 0.959 . S
H895 C909 0.929 . S
H896 C910 0.931 . S
H897 C912 0.930 . S
C898 H886 0.930 . S
C898 C899 1.399 . S
C898 C903 1.399 . S
C899 C898 1.399 . S
C899 C900 1.376 . S
C900 H887 0.930 . S
C900 C899 1.376 . S
C900 C901 1.388 . S
C901 H888 0.930 . S
C901 C900 1.388 . S
C901 C902 1.390 . S
C902 C901 1.390 . S
C902 C903 1.394 . S
C902 C908 1.465 . S
C903 C898 1.399 . S
C903 C902 1.394 . S
C903 C904 1.516 . S
C904 C903 1.516 . S
C904 C905 1.502 . S
C904 C906 1.561 . S
C904 C907 1.526 . S
C905 H889 0.959 . S
C905 H890 0.959 . S
C905 H891 0.961 . S
C905 C904 1.502 . S
C906 H892 0.960 . S
C906 H893 0.961 . S
C906 H894 0.959 . S
C906 C904 1.561 . S
C907 C904 1.526 . S
C907 C908 1.396 . S
C907 C912 1.390 . S
C908 C902 1.465 . S
C908 C907 1.396 . S
C908 C909 1.399 . S
C909 H895 0.929 . S
C909 C908 1.399 . S
C909 C910 1.385 . S
C910 H896 0.931 . S
C910 C909 1.385 . S
C910 C911 1.389 . S
C911 C910 1.389 . S
C911 C912 1.387 . S
C912 H897 0.930 . S
C912 C907 1.390 . S
C912 C911 1.387 . S
H913 C925 0.930 . S
H914 C927 0.930 . S
H915 C928 0.930 . S
H916 C932 0.959 . S
H917 C932 0.959 . S
H918 C932 0.961 . S
H919 C933 0.960 . S
H920 C933 0.961 . S
H921 C933 0.959 . S
H922 C936 0.929 . S
H923 C937 0.931 . S
H924 C939 0.930 . S
C925 H913 0.930 . S
C925 C926 1.399 . S
C925 C930 1.399 . S
C926 C925 1.399 . S
C926 C927 1.376 . S
C927 H914 0.930 . S
C927 C926 1.376 . S
C927 C928 1.388 . S
C928 H915 0.930 . S
C928 C927 1.388 . S
C928 C929 1.390 . S
C929 C928 1.390 . S
C929 C930 1.394 . S
C929 C935 1.465 . S
C930 C925 1.399 . S
C930 C929 1.394 . S
C930 C931 1.516 . S
C931 C930 1.516 . S
C931 C932 1.502 . S
C931 C933 1.561 . S
C931 C934 1.526 . S
C932 H916 0.959 . S
C932 H917 0.959 . S
C932 H918 0.961 . S
C932 C931 1.502 . S
C933 H919 0.960 . S
C933 H920 0.961 . S
C933 H921 0.959 . S
C933 C931 1.561 . S
C934 C931 1.526 . S
C934 C935 1.396 . S
C934 C939 1.390 . S
C935 C929 1.465 . S
C935 C934 1.396 . S
C935 C936 1.399 . S
C936 H922 0.929 . S
C936 C935 1.399 . S
C936 C937 1.385 . S
C937 H923 0.931 . S
C937 C936 1.385 . S
C937 C938 1.389 . S
C938 C937 1.389 . S
C938 C939 1.387 . S
C939 H924 0.930 . S
C939 C934 1.390 . S
C939 C938 1.387 . S
H940 C952 0.930 . S
H941 C954 0.930 . S
H942 C955 0.930 . S
H943 C959 0.959 . S
H944 C959 0.959 . S
H945 C959 0.961 . S
H946 C960 0.960 . S
H947 C960 0.961 . S
H948 C960 0.959 . S
H949 C963 0.929 . S
H950 C964 0.914 1_455 S
H951 C966 0.930 . S
C952 H940 0.930 . S
C952 C953 1.399 . S
C952 C957 1.399 . S
C953 C952 1.399 . S
C953 C954 1.376 . S
C954 H941 0.930 . S
C954 C953 1.376 . S
C954 C955 1.388 . S
C955 H942 0.930 . S
C955 C954 1.388 . S
C955 C956 1.390 . S
C956 C955 1.390 . S
C956 C957 1.394 . S
C956 C962 1.465 . S
C957 C952 1.399 . S
C957 C956 1.394 . S
C957 C958 1.516 . S
C958 C957 1.516 . S
C958 C959 1.502 . S
C958 C960 1.561 . S
C958 C961 1.526 . S
C959 H943 0.959 . S
C959 H944 0.959 . S
C959 H945 0.961 . S
C959 C958 1.502 . S
C960 H946 0.960 . S
C960 H947 0.961 . S
C960 H948 0.959 . S
C960 C958 1.561 . S
C961 C958 1.526 . S
C961 C962 1.396 . S
C961 C966 1.390 . S
C962 C956 1.465 . S
C962 C961 1.396 . S
C962 C963 1.399 . S
C963 H949 0.929 . S
C963 C962 1.399 . S
C963 C964 1.385 . S
C964 H950 0.914 1_655 S
C964 C963 1.385 . S
C964 C965 1.389 . S
C965 C964 1.389 . S
C965 C966 1.387 . S
C966 H951 0.930 . S
C966 C961 1.390 . S
C966 C965 1.387 . S
H967 C979 0.930 . S
H968 C981 0.930 . S
H969 C982 0.930 . S
H970 C986 0.959 1_545 S
H971 C986 0.959 . S
H972 C986 0.961 . S
H973 C987 0.960 . S
H974 C987 0.961 . S
H975 C987 0.959 . S
H976 C990 0.929 . S
H977 C991 0.931 . S
H978 C993 0.930 1_565 S
C979 H967 0.930 . S
C979 C980 1.404 . S
C979 C984 1.399 . S
C980 C979 1.404 . S
C980 C981 1.369 1_565 S
C981 H968 0.930 . S
C981 C980 1.369 1_545 S
C981 C982 1.388 . S
C982 H969 0.930 . S
C982 C981 1.388 . S
C982 C983 1.390 . S
C983 C982 1.390 . S
C983 C984 1.394 1_545 S
C983 C989 1.465 . S
C984 C979 1.399 . S
C984 C983 1.394 1_565 S
C984 C985 1.516 . S
C985 C984 1.516 . S
C985 C986 1.502 . S
C985 C987 1.561 . S
C985 C988 1.520 1_565 S
C986 H970 0.959 1_565 S
C986 H971 0.959 . S
C986 H972 0.961 . S
C986 C985 1.502 . S
C987 H973 0.960 . S
C987 H974 0.961 . S
C987 H975 0.959 . S
C987 C985 1.561 . S
C988 C985 1.520 1_545 S
C988 C989 1.401 . S
C988 C993 1.390 . S
C989 C983 1.465 . S
C989 C988 1.401 . S
C989 C990 1.399 . S
C990 H976 0.929 . S
C990 C989 1.399 . S
C990 C991 1.385 . S
C991 H977 0.931 . S
C991 C990 1.385 . S
C991 C992 1.389 . S
C992 C991 1.389 . S
C992 C993 1.387 . S
C993 H978 0.930 1_545 S
C993 C988 1.390 . S
C993 C992 1.387 . S
H994 C1006 0.930 . S
H995 C1008 0.930 . S
H996 C1009 0.930 . S
H997 C1013 0.959 . S
H998 C1013 0.959 . S
H999 C1013 0.961 . S
H1000 C1014 0.960 . S
H1001 C1014 0.961 . S
H1002 C1014 0.959 . S
H1003 C1017 0.929 . S
H1004 C1018 0.931 . S
H1005 C1020 0.930 . S
C1006 H994 0.930 . S
C1006 C1007 1.399 . S
C1006 C1011 1.399 . S
C1007 C1006 1.399 . S
C1007 C1008 1.376 . S
C1008 H995 0.930 . S
C1008 C1007 1.376 . S
C1008 C1009 1.388 . S
C1009 H996 0.930 . S
C1009 C1008 1.388 . S
C1009 C1010 1.390 . S
C1010 C1009 1.390 . S
C1010 C1011 1.394 . S
C1010 C1016 1.465 . S
C1011 C1006 1.399 . S
C1011 C1010 1.394 . S
C1011 C1012 1.516 . S
C1012 C1011 1.516 . S
C1012 C1013 1.502 . S
C1012 C1014 1.561 . S
C1012 C1015 1.526 . S
C1013 H997 0.959 . S
C1013 H998 0.959 . S
C1013 H999 0.961 . S
C1013 C1012 1.502 . S
C1014 H1000 0.960 . S
C1014 H1001 0.961 . S
C1014 H1002 0.959 . S
C1014 C1012 1.561 . S
C1015 C1012 1.526 . S
C1015 C1016 1.396 . S
C1015 C1020 1.390 . S
C1016 C1010 1.465 . S
C1016 C1015 1.396 . S
C1016 C1017 1.399 . S
C1017 H1003 0.929 . S
C1017 C1016 1.399 . S
C1017 C1018 1.385 . S
C1018 H1004 0.931 . S
C1018 C1017 1.385 . S
C1018 C1019 1.389 . S
C1019 C1018 1.389 . S
C1019 C1020 1.387 . S
C1020 H1005 0.930 . S
C1020 C1015 1.390 . S
C1020 C1019 1.387 . S
H1021 C1033 0.930 . S
H1022 C1035 0.930 . S
H1023 C1036 0.930 . S
H1024 C1040 0.959 . S
H1025 C1040 0.959 . S
H1026 C1040 0.961 . S
H1027 C1041 0.960 . S
H1028 C1041 0.961 . S
H1029 C1041 0.959 . S
H1030 C1044 0.929 . S
H1031 C1045 0.931 . S
H1032 C1047 0.930 . S
C1033 H1021 0.930 . S
C1033 C1034 1.399 . S
C1033 C1038 1.399 . S
C1034 C1033 1.399 . S
C1034 C1035 1.376 . S
C1035 H1022 0.930 . S
C1035 C1034 1.376 . S
C1035 C1036 1.388 . S
C1036 H1023 0.930 . S
C1036 C1035 1.388 . S
C1036 C1037 1.390 . S
C1037 C1036 1.390 . S
C1037 C1038 1.394 . S
C1037 C1043 1.465 . S
C1038 C1033 1.399 . S
C1038 C1037 1.394 . S
C1038 C1039 1.516 . S
C1039 C1038 1.516 . S
C1039 C1040 1.502 . S
C1039 C1041 1.561 . S
C1039 C1042 1.526 . S
C1040 H1024 0.959 . S
C1040 H1025 0.959 . S
C1040 H1026 0.961 . S
C1040 C1039 1.502 . S
C1041 H1027 0.960 . S
C1041 H1028 0.961 . S
C1041 H1029 0.959 . S
C1041 C1039 1.561 . S
C1042 C1039 1.526 . S
C1042 C1043 1.396 . S
C1042 C1047 1.390 . S
C1043 C1037 1.465 . S
C1043 C1042 1.396 . S
C1043 C1044 1.399 . S
C1044 H1030 0.929 . S
C1044 C1043 1.399 . S
C1044 C1045 1.385 . S
C1045 H1031 0.931 . S
C1045 C1044 1.385 . S
C1045 C1046 1.389 . S
C1046 C1045 1.389 . S
C1046 C1047 1.387 . S
C1047 H1032 0.930 . S
C1047 C1042 1.390 . S
C1047 C1046 1.387 . S
H1048 C1060 0.930 . S
H1049 C1062 0.930 . S
H1050 C1063 0.930 . S
H1051 C1067 0.959 . S
H1052 C1067 0.959 . S
H1053 C1067 0.961 . S
H1054 C1068 0.960 . S
H1055 C1068 0.961 . S
H1056 C1068 0.959 . S
H1057 C1071 0.929 . S
H1058 C1072 0.931 . S
H1059 C1074 0.930 . S
C1060 H1048 0.930 . S
C1060 C1061 1.399 . S
C1060 C1065 1.399 . S
C1061 C1060 1.399 . S
C1061 C1062 1.376 . S
C1062 H1049 0.930 . S
C1062 C1061 1.376 . S
C1062 C1063 1.388 . S
C1063 H1050 0.930 . S
C1063 C1062 1.388 . S
C1063 C1064 1.390 . S
C1064 C1063 1.390 . S
C1064 C1065 1.394 . S
C1064 C1070 1.465 . S
C1065 C1060 1.399 . S
C1065 C1064 1.394 . S
C1065 C1066 1.516 1_554 S
C1066 C1065 1.516 1_556 S
C1066 C1067 1.502 . S
C1066 C1068 1.561 . S
C1066 C1069 1.526 . S
C1067 H1051 0.959 . S
C1067 H1052 0.959 . S
C1067 H1053 0.961 . S
C1067 C1066 1.502 . S
C1068 H1054 0.960 . S
C1068 H1055 0.961 . S
C1068 H1056 0.959 . S
C1068 C1066 1.561 . S
C1069 C1066 1.526 . S
C1069 C1070 1.396 1_556 S
C1069 C1074 1.390 . S
C1070 C1064 1.465 . S
C1070 C1069 1.396 1_554 S
C1070 C1071 1.399 . S
C1071 H1057 0.929 . S
C1071 C1070 1.399 . S
C1071 C1072 1.385 . S
C1072 H1058 0.931 . S
C1072 C1071 1.385 . S
C1072 C1073 1.389 1_554 S
C1073 C1072 1.389 1_556 S
C1073 C1074 1.387 . S
C1074 H1059 0.930 . S
C1074 C1069 1.390 . S
C1074 C1073 1.387 . S
H1075 C1087 0.930 . S
H1076 C1089 0.930 . S
H1077 C1090 0.930 . S
H1078 C1094 0.959 . S
H1079 C1094 0.959 . S
H1080 C1094 0.961 . S
H1081 C1095 0.960 . S
H1082 C1095 0.961 . S
H1083 C1095 0.959 1_556 S
H1084 C1098 0.929 . S
H1085 C1099 0.931 . S
H1086 C1101 0.930 . S
C1087 H1075 0.930 . S
C1087 C1088 1.399 1_565 S
C1087 C1092 1.399 1_554 S
C1088 C1087 1.399 1_545 S
C1088 C1089 1.376 1_554 S
C1089 H1076 0.930 . S
C1089 C1088 1.376 1_556 S
C1089 C1090 1.388 . S
C1090 H1077 0.930 . S
C1090 C1089 1.388 . S
C1090 C1091 1.390 . S
C1091 C1090 1.390 . S
C1091 C1092 1.394 1_545 S
C1091 C1097 1.465 . S
C1092 C1087 1.399 1_556 S
C1092 C1091 1.394 1_565 S
C1092 C1093 1.516 . S
C1093 C1092 1.516 . S
C1093 C1094 1.502 1_566 S
C1093 C1095 1.561 1_556 S
C1093 C1096 1.526 . S
C1094 H1078 0.959 . S
C1094 H1079 0.959 . S
C1094 H1080 0.961 . S
C1094 C1093 1.502 1_544 S
C1095 H1081 0.960 . S
C1095 H1082 0.961 . S
C1095 H1083 0.959 1_554 S
C1095 C1093 1.561 1_554 S
C1096 C1093 1.526 . S
C1096 C1097 1.396 1_565 S
C1096 C1101 1.390 . S
C1097 C1091 1.465 . S
C1097 C1096 1.396 1_545 S
C1097 C1098 1.399 . S
C1098 H1084 0.929 . S
C1098 C1097 1.399 . S
C1098 C1099 1.385 . S
C1099 H1085 0.931 . S
C1099 C1098 1.385 . S
C1099 C1100 1.389 . S
C1100 C1099 1.389 . S
C1100 C1101 1.387 1_545 S
C1101 H1086 0.930 . S
C1101 C1096 1.390 . S
C1101 C1100 1.387 1_565 S
H1102 C1114 0.930 . S
H1103 C1116 0.930 . S
H1104 C1117 0.930 . S
H1105 C1121 0.959 . S
H1106 C1121 0.959 . S
H1107 C1121 0.961 . S
H1108 C1122 0.960 . S
H1109 C1122 0.961 . S
H1110 C1122 0.959 . S
H1111 C1125 0.929 . S
H1112 C1126 0.931 . S
H1113 C1128 0.930 . S
C1114 H1102 0.930 . S
C1114 C1115 1.399 1_556 S
C1114 C1119 1.399 . S
C1115 C1114 1.399 1_554 S
C1115 C1116 1.376 . S
C1116 H1103 0.930 . S
C1116 C1115 1.376 . S
C1116 C1117 1.388 . S
C1117 H1104 0.930 . S
C1117 C1116 1.388 . S
C1117 C1118 1.390 1_554 S
C1118 C1117 1.390 1_556 S
C1118 C1119 1.394 . S
C1118 C1124 1.465 . S
C1119 C1114 1.399 . S
C1119 C1118 1.394 . S
C1119 C1120 1.516 . S
C1120 C1119 1.516 . S
C1120 C1121 1.502 . S
C1120 C1122 1.561 . S
C1120 C1123 1.526 . S
C1121 H1105 0.959 . S
C1121 H1106 0.959 . S
C1121 H1107 0.961 . S
C1121 C1120 1.502 . S
C1122 H1108 0.960 . S
C1122 H1109 0.961 . S
C1122 H1110 0.959 . S
C1122 C1120 1.561 . S
C1123 C1120 1.526 . S
C1123 C1124 1.396 . S
C1123 C1128 1.390 . S
C1124 C1118 1.465 . S
C1124 C1123 1.396 . S
C1124 C1125 1.399 . S
C1125 H1111 0.929 . S
C1125 C1124 1.399 . S
C1125 C1126 1.385 . S
C1126 H1112 0.931 . S
C1126 C1125 1.385 . S
C1126 C1127 1.389 . S
C1127 C1126 1.389 . S
C1127 C1128 1.387 . S
C1128 H1113 0.930 . S
C1128 C1123 1.390 . S
C1128 C1127 1.387 . S
H1129 C1141 0.930 1_554 S
H1130 C1143 0.930 . S
H1131 C1144 0.930 . S
H1132 C1148 0.959 . S
H1133 C1148 0.959 . S
H1134 C1148 0.961 . S
H1135 C1149 0.960 . S
H1136 C1149 0.961 . S
H1137 C1149 0.959 . S
H1138 C1152 0.929 . S
H1139 C1153 0.931 . S
H1140 C1155 0.930 . S
C1141 H1129 0.930 1_556 S
C1141 C1142 1.399 . S
C1141 C1146 1.399 . S
C1142 C1141 1.399 . S
C1142 C1143 1.376 . S
C1143 H1130 0.930 . S
C1143 C1142 1.376 . S
C1143 C1144 1.388 . S
C1144 H1131 0.930 . S
C1144 C1143 1.388 . S
C1144 C1145 1.390 . S
C1145 C1144 1.390 . S
C1145 C1146 1.394 . S
C1145 C1151 1.465 . S
C1146 C1141 1.399 . S
C1146 C1145 1.394 . S
C1146 C1147 1.516 . S
C1147 C1146 1.516 . S
C1147 C1148 1.502 1_556 S
C1147 C1149 1.561 . S
C1147 C1150 1.526 . S
C1148 H1132 0.959 . S
C1148 H1133 0.959 . S
C1148 H1134 0.961 . S
C1148 C1147 1.502 1_554 S
C1149 H1135 0.960 . S
C1149 H1136 0.961 . S
C1149 H1137 0.959 . S
C1149 C1147 1.561 . S
C1150 C1147 1.526 . S
C1150 C1151 1.396 . S
C1150 C1155 1.390 . S
C1151 C1145 1.465 . S
C1151 C1150 1.396 . S
C1151 C1152 1.399 . S
C1152 H1138 0.929 . S
C1152 C1151 1.399 . S
C1152 C1153 1.385 . S
C1153 H1139 0.931 . S
C1153 C1152 1.385 . S
C1153 C1154 1.389 . S
C1154 C1153 1.389 . S
C1154 C1155 1.387 . S
C1155 H1140 0.930 . S
C1155 C1150 1.390 . S
C1155 C1154 1.387 . S
H1156 C1168 0.930 . S
H1157 C1170 0.930 . S
H1158 C1171 0.930 . S
H1159 C1175 0.959 . S
H1160 C1175 0.959 . S
H1161 C1175 0.961 . S
H1162 C1176 0.960 . S
H1163 C1176 0.961 . S
H1164 C1176 0.959 . S
H1165 C1179 0.929 . S
H1166 C1180 0.931 . S
H1167 C1182 0.930 . S
C1168 H1156 0.930 . S
C1168 C1169 1.399 . S
C1168 C1173 1.399 . S
C1169 C1168 1.399 . S
C1169 C1170 1.376 . S
C1170 H1157 0.930 . S
C1170 C1169 1.376 . S
C1170 C1171 1.388 . S
C1171 H1158 0.930 . S
C1171 C1170 1.388 . S
C1171 C1172 1.390 . S
C1172 C1171 1.390 . S
C1172 C1173 1.394 . S
C1172 C1178 1.465 . S
C1173 C1168 1.399 . S
C1173 C1172 1.394 . S
C1173 C1174 1.516 . S
C1174 C1173 1.516 . S
C1174 C1175 1.502 . S
C1174 C1176 1.561 . S
C1174 C1177 1.526 . S
C1175 H1159 0.959 . S
C1175 H1160 0.959 . S
C1175 H1161 0.961 . S
C1175 C1174 1.502 . S
C1176 H1162 0.960 . S
C1176 H1163 0.961 . S
C1176 H1164 0.959 . S
C1176 C1174 1.561 . S
C1177 C1174 1.526 . S
C1177 C1178 1.396 . S
C1177 C1182 1.390 . S
C1178 C1172 1.465 . S
C1178 C1177 1.396 . S
C1178 C1179 1.399 . S
C1179 H1165 0.929 . S
C1179 C1178 1.399 . S
C1179 C1180 1.385 . S
C1180 H1166 0.931 . S
C1180 C1179 1.385 . S
C1180 C1181 1.389 . S
C1181 C1180 1.389 . S
C1181 C1182 1.387 . S
C1182 H1167 0.930 . S
C1182 C1177 1.390 . S
C1182 C1181 1.387 . S
H1183 C1195 0.930 . S
H1184 C1197 0.930 . S
H1185 C1198 0.930 . S
H1186 C1202 0.959 . S
H1187 C1202 0.959 . S
H1188 C1202 0.961 . S
H1189 C1203 0.960 . S
H1190 C1203 0.961 . S
H1191 C1203 0.959 . S
H1192 C1206 0.929 . S
H1193 C1207 0.931 . S
H1194 C1209 0.930 . S
C1195 H1183 0.930 . S
C1195 C1196 1.399 1_565 S
C1195 C1200 1.399 . S
C1196 C1195 1.399 1_545 S
C1196 C1197 1.376 . S
C1197 H1184 0.930 . S
C1197 C1196 1.376 . S
C1197 C1198 1.388 . S
C1198 H1185 0.930 . S
C1198 C1197 1.388 . S
C1198 C1199 1.390 . S
C1199 C1198 1.390 . S
C1199 C1200 1.394 1_545 S
C1199 C1205 1.465 . S
C1200 C1195 1.399 . S
C1200 C1199 1.394 1_565 S
C1200 C1201 1.516 . S
C1201 C1200 1.516 . S
C1201 C1202 1.502 . S
C1201 C1203 1.561 . S
C1201 C1204 1.526 . S
C1202 H1186 0.959 . S
C1202 H1187 0.959 . S
C1202 H1188 0.961 . S
C1202 C1201 1.502 . S
C1203 H1189 0.960 . S
C1203 H1190 0.961 . S
C1203 H1191 0.959 . S
C1203 C1201 1.561 . S
C1204 C1201 1.526 . S
C1204 C1205 1.396 1_565 S
C1204 C1209 1.390 . S
C1205 C1199 1.465 . S
C1205 C1204 1.396 1_545 S
C1205 C1206 1.399 . S
C1206 H1192 0.929 . S
C1206 C1205 1.399 . S
C1206 C1207 1.385 . S
C1207 H1193 0.931 . S
C1207 C1206 1.385 . S
C1207 C1208 1.349 1_545 S
C1208 C1207 1.349 1_565 S
C1208 C1209 1.423 . S
C1209 H1194 0.930 . S
C1209 C1204 1.390 . S
C1209 C1208 1.423 . S
H1210 C1222 0.930 . S
H1211 C1224 0.930 . S
H1212 C1225 0.930 . S
H1213 C1229 0.959 . S
H1214 C1229 0.959 . S
H1215 C1229 0.961 . S
H1216 C1230 0.960 . S
H1217 C1230 0.961 . S
H1218 C1230 0.959 . S
H1219 C1233 0.929 . S
H1220 C1234 0.931 . S
H1221 C1236 0.930 . S
C1222 H1210 0.930 . S
C1222 C1223 1.399 . S
C1222 C1227 1.399 . S
C1223 C1222 1.399 . S
C1223 C1224 1.376 . S
C1224 H1211 0.930 . S
C1224 C1223 1.376 . S
C1224 C1225 1.388 . S
C1225 H1212 0.930 . S
C1225 C1224 1.388 . S
C1225 C1226 1.390 . S
C1226 C1225 1.390 . S
C1226 C1227 1.394 . S
C1226 C1232 1.465 . S
C1227 C1222 1.399 . S
C1227 C1226 1.394 . S
C1227 C1228 1.516 . S
C1228 C1227 1.516 . S
C1228 C1229 1.502 . S
C1228 C1230 1.561 . S
C1228 C1231 1.526 . S
C1229 H1213 0.959 . S
C1229 H1214 0.959 . S
C1229 H1215 0.961 . S
C1229 C1228 1.502 . S
C1230 H1216 0.960 . S
C1230 H1217 0.961 . S
C1230 H1218 0.959 . S
C1230 C1228 1.561 . S
C1231 C1228 1.526 . S
C1231 C1232 1.396 . S
C1231 C1236 1.390 . S
C1232 C1226 1.465 . S
C1232 C1231 1.396 . S
C1232 C1233 1.399 . S
C1233 H1219 0.929 . S
C1233 C1232 1.399 . S
C1233 C1234 1.385 . S
C1234 H1220 0.931 . S
C1234 C1233 1.385 . S
C1234 C1235 1.389 . S
C1235 C1234 1.389 . S
C1235 C1236 1.387 . S
C1236 H1221 0.930 . S
C1236 C1231 1.390 . S
C1236 C1235 1.387 . S
H1237 C1249 0.930 . S
H1238 C1251 0.930 . S
H1239 C1252 0.930 . S
H1240 C1256 0.959 . S
H1241 C1256 0.959 . S
H1242 C1256 0.961 . S
H1243 C1257 0.960 . S
H1244 C1257 0.961 . S
H1245 C1257 0.959 . S
H1246 C1260 0.929 . S
H1247 C1261 0.931 . S
H1248 C1263 0.930 . S
C1249 H1237 0.930 . S
C1249 C1250 1.399 . S
C1249 C1254 1.399 . S
C1250 C1249 1.399 . S
C1250 C1251 1.376 . S
C1251 H1238 0.930 . S
C1251 C1250 1.376 . S
C1251 C1252 1.388 . S
C1252 H1239 0.930 . S
C1252 C1251 1.388 . S
C1252 C1253 1.390 . S
C1253 C1252 1.390 . S
C1253 C1254 1.394 . S
C1253 C1259 1.465 . S
C1254 C1249 1.399 . S
C1254 C1253 1.394 . S
C1254 C1255 1.516 . S
C1255 C1254 1.516 . S
C1255 C1256 1.502 . S
C1255 C1257 1.561 . S
C1255 C1258 1.526 . S
C1256 H1240 0.959 . S
C1256 H1241 0.959 . S
C1256 H1242 0.961 . S
C1256 C1255 1.502 . S
C1257 H1243 0.960 . S
C1257 H1244 0.961 . S
C1257 H1245 0.959 . S
C1257 C1255 1.561 . S
C1258 C1255 1.526 . S
C1258 C1259 1.396 . S
C1258 C1263 1.390 . S
C1259 C1253 1.465 . S
C1259 C1258 1.396 . S
C1259 C1260 1.399 . S
C1260 H1246 0.929 . S
C1260 C1259 1.399 . S
C1260 C1261 1.385 . S
C1261 H1247 0.931 . S
C1261 C1260 1.385 . S
C1261 C1262 1.389 . S
C1262 C1261 1.389 . S
C1262 C1263 1.387 . S
C1263 H1248 0.930 . S
C1263 C1258 1.390 . S
C1263 C1262 1.387 . S
C629 C391 1.915 1_565 S
C641 C497 1.888 . S
C668 C518 1.763 . S
C656 C451 1.746 . S
C695 C552 1.596 . S
C683 C241 1.403 . S
C722 C586 1.692 . S
C710 C331 1.625 . S
C749 C488 1.878 . S
C737 C121 1.789 1_556 S
C764 C211 1.679 . S
C776 C527 1.740 . S
C791 C31 1.594 . S
C803 C561 1.594 . S
C818 C91 1.665 . S
C830 C595 1.693 . S
C857 C509 0.759 . S
C845 C301 0.658 . S
C884 C514 0.484 . S
C872 C380 0.452 1_565 S
C911 C548 0.669 . S
C899 C440 0.561 . S
C926 C260 0.249 . S
C938 C582 0.267 . S
C953 C61 0.806 . S
C965 C480 0.592 . S
C992 C543 0.503 . S
C980 C140 0.411 . S
C1019 C577 0.540 . S
C1007 C200 0.755 . S
C1034 C20 0.350 . S
C1046 C611 0.157 . S
C1061 C320 1.687 . S
C1073 C493 1.777 . S
C1088 C361 1.944 . S
C1100 C522 2.135 . S
C1127 C556 1.899 . S
C1115 C421 1.637 . S
C1154 C590 1.933 . S
C1142 C271 1.933 1_556 S
C1169 C80 1.725 . S
C1181 C484 1.782 . S
C1208 C531 2.140 . S
C1196 C151 2.127 1_545 S
C1235 C565 1.899 . S
C1223 C181 1.574 . S
C1250 C1 1.720 . S
C1262 C599 1.948 . S
