# Generated by pormake.
# Topology nom, (4,4)-cn, num edge types: 1
# Building blocks:
#     Node 0, Type 0, BuildingBlock: KUFVIS_clean_linker_0, # of connection points: 4
#     Node 1, Type 0, BuildingBlock: KUFVIS_clean_linker_0, # of connection points: 4
#     Node 2, Type 0, BuildingBlock: KUFVIS_clean_linker_0, # of connection points: 4
#     Node 3, Type 0, BuildingBlock: KUFVIS_clean_linker_0, # of connection points: 4
#     Node 4, Type 0, BuildingBlock: KUFVIS_clean_linker_0, # of connection points: 4
#     Node 5, Type 0, BuildingBlock: KUFVIS_clean_linker_0, # of connection points: 4
#     Node 6, Type 1, BuildingBlock: QUQFOY_clean_sbu_1, # of connection points: 4
#     Node 7, Type 1, BuildingBlock: QUQFOY_clean_sbu_1, # of connection points: 4
#     Node 8, Type 1, BuildingBlock: QUQFOY_clean_sbu_1, # of connection points: 4
#     Node 9, Type 1, BuildingBlock: QUQFOY_clean_sbu_1, # of connection points: 4
#     Node 10, Type 1, BuildingBlock: QUQFOY_clean_sbu_1, # of connection points: 4
#     Node 11, Type 1, BuildingBlock: QUQFOY_clean_sbu_1, # of connection points: 4
#     Edge 12, Type (0, 1), BuildingBlock: XUDNAN_clean_linker_2, # of connection points: 2
#     Edge 13, Type (0, 1), BuildingBlock: XUDNAN_clean_linker_2, # of connection points: 2
#     Edge 14, Type (0, 1), BuildingBlock: XUDNAN_clean_linker_2, # of connection points: 2
#     Edge 15, Type (0, 1), BuildingBlock: XUDNAN_clean_linker_2, # of connection points: 2
#     Edge 16, Type (0, 1), BuildingBlock: XUDNAN_clean_linker_2, # of connection points: 2
#     Edge 17, Type (0, 1), BuildingBlock: XUDNAN_clean_linker_2, # of connection points: 2
#     Edge 18, Type (0, 1), BuildingBlock: XUDNAN_clean_linker_2, # of connection points: 2
#     Edge 19, Type (0, 1), BuildingBlock: XUDNAN_clean_linker_2, # of connection points: 2
#     Edge 20, Type (0, 1), BuildingBlock: XUDNAN_clean_linker_2, # of connection points: 2
#     Edge 21, Type (0, 1), BuildingBlock: XUDNAN_clean_linker_2, # of connection points: 2
#     Edge 22, Type (0, 1), BuildingBlock: XUDNAN_clean_linker_2, # of connection points: 2
#     Edge 23, Type (0, 1), BuildingBlock: XUDNAN_clean_linker_2, # of connection points: 2
#     Edge 24, Type (0, 1), BuildingBlock: XUDNAN_clean_linker_2, # of connection points: 2
#     Edge 25, Type (0, 1), BuildingBlock: XUDNAN_clean_linker_2, # of connection points: 2
#     Edge 26, Type (0, 1), BuildingBlock: XUDNAN_clean_linker_2, # of connection points: 2
#     Edge 27, Type (0, 1), BuildingBlock: XUDNAN_clean_linker_2, # of connection points: 2
#     Edge 28, Type (0, 1), BuildingBlock: XUDNAN_clean_linker_2, # of connection points: 2
#     Edge 29, Type (0, 1), BuildingBlock: XUDNAN_clean_linker_2, # of connection points: 2
#     Edge 30, Type (0, 1), BuildingBlock: XUDNAN_clean_linker_2, # of connection points: 2
#     Edge 31, Type (0, 1), BuildingBlock: XUDNAN_clean_linker_2, # of connection points: 2
#     Edge 32, Type (0, 1), BuildingBlock: XUDNAN_clean_linker_2, # of connection points: 2
#     Edge 33, Type (0, 1), BuildingBlock: XUDNAN_clean_linker_2, # of connection points: 2
#     Edge 34, Type (0, 1), BuildingBlock: XUDNAN_clean_linker_2, # of connection points: 2
#     Edge 35, Type (0, 1), BuildingBlock: XUDNAN_clean_linker_2, # of connection points: 2
# Relax obj value: 0.005
# Max RMSD: 0.089
# Mean RMSD: 0.068
data_MOF--net-nom--node1-QUQFOY_clean_sbu_1--node2-KUFVIS_clean_linker_0--edge1-XUDNAN_clean_linker_2
_symmetry_space_group_name_H-M    P1
_symmetry_Int_Tables_number       1
_symmetry_cell_setting            triclinic
loop_
_symmetry_equiv_pos_as_xyz
'x, y, z'
_cell_length_a     47.799914
_cell_length_b     47.843832
_cell_length_c     44.525716
_cell_angle_alpha  90.093203
_cell_angle_beta   90.035635
_cell_angle_gamma 120.05633
loop_
_atom_site_label
_atom_site_type_symbol
_atom_site_fract_x
_atom_site_fract_y
_atom_site_fract_z
_atom_type_partial_charge
H0 H 0.1432 0.60316 0.3247 0.0
H1 H 0.06423 0.58215 0.26566 0.0
H2 H 0.04685 0.53966 0.35466 0.0
H3 H 1.00107 0.54089 0.351 0.0
H4 H 0.92135 0.49453 0.29027 0.0
H5 H 1.0176 0.53677 0.25562 0.0
C6 C 0.1174 0.59048 0.32018 0.0
C7 C 0.09607 0.57187 0.34277 0.0
C8 C 0.10618 0.59348 0.2921 0.0
C9 C 0.07264 0.57834 0.28699 0.0
C10 C 0.05039 0.55845 0.30939 0.0
C11 C 0.06279 0.55503 0.33715 0.0
C12 C 1.01451 0.54119 0.30404 0.0
C13 C 0.99253 0.5334 0.32828 0.0
C14 C 0.95905 0.51627 0.3232 0.0
C15 C 0.94728 0.5073 0.29407 0.0
C16 C 0.96827 0.51501 0.26976 0.0
C17 C 1.00179 0.53183 0.27469 0.0
H18 H 0.55316 0.13694 0.49211 0.0
H19 H 0.50573 0.05813 0.43013 0.0
H20 H 0.52082 0.04057 0.52254 0.0
H21 H 0.46969 0.99512 0.51345 0.0
H22 H 0.45106 0.91643 0.45479 0.0
H23 H 0.5131 1.01338 0.42495 0.0
C24 C 0.54067 0.11114 0.48772 0.0
C25 C 0.53752 0.08996 0.51072 0.0
C26 C 0.52975 0.09993 0.45869 0.0
C27 C 0.51452 0.06664 0.45263 0.0
C28 C 0.51027 0.04456 0.4758 0.0
C29 C 0.52256 0.05675 0.50471 0.0
C30 C 0.49362 1.00899 0.46996 0.0
C31 C 0.47372 0.98666 0.49221 0.0
C32 C 0.45902 0.95322 0.48708 0.0
C33 C 0.4631 0.9422 0.45929 0.0
C34 C 0.48204 0.96368 0.43692 0.0
C35 C 0.49774 0.99702 0.44227 0.0
H36 H 0.55667 0.44176 0.62375 0.0
H37 H 0.49695 0.45976 0.6833 0.0
H38 H 0.51854 0.50102 0.59389 0.0
H39 H 0.46655 0.49285 0.59974 0.0
H40 H 0.43339 0.53831 0.66204 0.0
H41 H 0.5007 0.50995 0.69181 0.0
C42 C 0.54251 0.4533 0.62835 0.0
C43 C 0.53864 0.47125 0.60579 0.0
C44 C 0.52824 0.44963 0.6565 0.0
C45 C 0.50888 0.4636 0.66179 0.0
C46 C 0.50509 0.48248 0.63936 0.0
C47 C 0.52052 0.48637 0.61135 0.0
C48 C 0.48529 0.49815 0.64531 0.0
C49 C 0.46668 0.50149 0.62226 0.0
C50 C 0.44777 0.51575 0.62843 0.0
C51 C 0.44725 0.52643 0.6575 0.0
C52 C 0.46621 0.52442 0.68025 0.0
C53 C 0.4854 0.51055 0.67416 0.0
H54 H 0.14198 0.55131 0.79796 0.0
H55 H 0.06269 0.49113 0.8556 0.0
H56 H 0.04557 0.51664 0.76665 0.0
H57 H 1.00001 0.4682 0.76987 0.0
H58 H 0.91997 0.43462 0.83023 0.0
H59 H 1.016 0.49035 0.86512 0.0
C60 C 0.11612 0.53744 0.802 0.0
C61 C 0.09493 0.53465 0.77916 0.0
C62 C 0.10477 0.5227 0.82983 0.0
C63 C 0.07121 0.50361 0.83442 0.0
C64 C 0.04904 0.50103 0.81176 0.0
C65 C 0.06153 0.51734 0.78426 0.0
C66 C 1.01314 0.48203 0.8168 0.0
C67 C 0.99127 0.46721 0.79248 0.0
C68 C 0.95772 0.45027 0.79743 0.0
C69 C 0.9459 0.44796 0.82645 0.0
C70 C 0.96678 0.46203 0.85074 0.0
C71 C 1.00029 0.47899 0.84602 0.0
H72 H 0.49033 0.91497 -0.00094 0.0
H73 H 0.54525 0.99398 0.93938 0.0
H74 H 0.53529 1.0112 0.03337 0.0
H75 H 0.58188 0.05552 0.02667 0.0
H76 H 0.61682 0.13641 0.96754 0.0
H77 H 0.54931 0.04236 0.93403 0.0
C78 C 0.50378 0.94077 -0.00511 0.0
C79 C 0.51162 0.96196 0.01909 0.0
C80 C 0.51534 0.95207 0.96601 0.0
C81 C 0.53524 0.98555 0.9615 0.0
C82 C 0.5426 1.00776 -0.01448 0.0
C83 C 0.53038 0.99531 0.01434 0.0
C84 C 0.56337 0.04359 0.98072 0.0
C85 C 0.58188 0.06465 0.00447 0.0
C86 C 0.60096 0.09806 -0.00035 0.0
C87 C 0.60256 0.11051 0.97102 0.0
C88 C 0.58422 0.0905 0.94737 0.0
C89 C 0.56429 0.05726 0.95234 0.0
H90 H 0.49539 0.59584 0.12128 0.0
H91 H 0.53937 0.56131 0.18307 0.0
H92 H 0.53477 0.53906 0.0878 0.0
H93 H 0.57508 0.53138 0.0969 0.0
H94 H 0.59902 0.47812 0.15864 0.0
H95 H 0.54206 0.51811 0.18933 0.0
C96 C 0.5074 0.58205 0.12549 0.0
C97 C 0.51482 0.56817 0.1015 0.0
C98 C 0.51583 0.57911 0.15475 0.0
C99 C 0.5321 0.56201 0.16023 0.0
C100 C 0.53932 0.54685 0.13633 0.0
C101 C 0.53038 0.55039 0.10683 0.0
C102 C 0.55572 0.52734 0.14211 0.0
C103 C 0.57263 0.52129 0.11908 0.0
C104 C 0.58705 0.50229 0.12459 0.0
C105 C 0.586 0.49072 0.15363 0.0
C106 C 0.57062 0.49725 0.17693 0.0
C107 C 0.55485 0.51468 0.17101 0.0
O108 O 0.62465 0.39449 0.43393 0.0
Cd109 Cd 0.62915 0.37389 0.39454 0.0
Cd110 Cd 0.68995 0.42898 0.39647 0.0
O111 O 0.67346 0.43751 0.43593 0.0
O112 O 0.59194 0.32857 0.39568 0.0
O113 O 0.64281 0.3402 0.39286 0.0
C114 C 0.6125 0.31868 0.39427 0.0
C115 C 0.74386 0.44066 0.39457 0.0
C116 C 0.64516 0.42077 0.44656 0.0
C117 C 0.64394 0.4226 0.34649 0.0
O118 O 0.67122 0.43927 0.35926 0.0
O119 O 0.62371 0.39452 0.35589 0.0
O120 O 0.73658 0.46316 0.39515 0.0
O121 O 0.72042 0.41111 0.3952 0.0
O122 O 0.25621 0.62206 0.60592 0.0
Cd123 Cd 0.2793 0.6232 0.56643 0.0
Cd124 Cd 0.27628 0.68179 0.55915 0.0
O125 O 0.2507 0.6647 0.59843 0.0
O126 O 0.28665 0.58581 0.5713 0.0
O127 O 0.32639 0.63543 0.56307 0.0
C128 C 0.31703 0.60531 0.5673 0.0
C129 C 0.30989 0.73821 0.55605 0.0
C130 C 0.24513 0.64017 0.61391 0.0
C131 C 0.24236 0.62819 0.5135 0.0
O132 O 0.25163 0.65723 0.521 0.0
O133 O 0.25072 0.61112 0.52871 0.0
O134 O 0.27889 0.72472 0.55549 0.0
O135 O 0.32218 0.71963 0.55801 0.0
O136 O 0.66377 0.25004 0.77121 0.0
Cd137 Cd 0.68459 0.27337 0.73147 0.0
Cd138 Cd 0.62429 0.2729 0.72613 0.0
O139 O 0.61651 0.24716 0.76516 0.0
O140 O 0.73046 0.2833 0.73466 0.0
O141 O 0.71734 0.32109 0.7286 0.0
C142 C 0.73955 0.31344 0.73172 0.0
C143 C 0.60075 0.30592 0.72447 0.0
C144 C 0.63499 0.24024 0.7799 0.0
C145 C 0.64076 0.23771 0.67908 0.0
O146 O 0.62216 0.24808 0.6875 0.0
O147 O 0.6665 0.24501 0.69354 0.0
O148 O 0.58354 0.27494 0.72409 0.0
O149 O 0.63176 0.31858 0.72545 0.0
O150 O 0.44834 0.66879 0.92367 0.0
Cd151 Cd 0.43413 0.68517 0.88734 0.0
Cd152 Cd 0.37829 0.62142 0.89475 0.0
O153 O 0.40381 0.62228 0.93258 0.0
O154 O 0.47113 0.73035 0.88286 0.0
O155 O 0.42144 0.71972 0.89165 0.0
C156 C 0.45146 0.74087 0.8874 0.0
C157 C 0.32157 0.59716 0.89755 0.0
C158 C 0.43296 0.64303 0.93891 0.0
C159 C 0.42059 0.63541 0.83954 0.0
O160 O 0.39673 0.61494 0.855 0.0
O161 O 0.43676 0.66483 0.8476 0.0
O162 O 0.3358 0.58039 0.89904 0.0
O163 O 0.3396 0.62808 0.89497 0.0
O164 O 0.80219 0.37863 0.0322 0.0
Cd165 Cd 0.77343 0.36754 0.06964 0.0
Cd166 Cd 0.77477 0.42308 0.04974 0.0
O167 O 0.79623 0.41733 0.01186 0.0
O168 O 0.7643 0.32266 0.07797 0.0
O169 O 0.72574 0.33421 0.06904 0.0
C170 C 0.73407 0.31281 0.07416 0.0
C171 C 0.73589 0.43935 0.04675 0.0
C172 C 0.80823 0.39887 0.01127 0.0
C173 C 0.81135 0.42594 0.10672 0.0
O174 O 0.80568 0.44073 0.08602 0.0
O175 O 0.79777 0.39528 0.10647 0.0
O176 O 0.7657 0.4586 0.03991 0.0
O177 O 0.7277 0.41017 0.05434 0.0
O178 O 0.44612 0.79351 0.19484 0.0
Cd179 Cd 0.43325 0.76395 0.23181 0.0
Cd180 Cd 0.37949 0.77339 0.22771 0.0
O181 O 0.40228 0.79737 0.18885 0.0
O182 O 0.4669 0.75073 0.23155 0.0
O183 O 0.41467 0.71547 0.22984 0.0
C184 C 0.44406 0.72111 0.22994 0.0
C185 C 0.32285 0.74037 0.22699 0.0
C186 C 0.43061 0.80458 0.18081 0.0
C187 C 0.42579 0.80273 0.28056 0.0
O188 O 0.40088 0.79908 0.26665 0.0
O189 O 0.44094 0.78883 0.27137 0.0
O190 O 0.33664 0.77137 0.22585 0.0
O191 O 0.34127 0.72782 0.22846 0.0
H192 H 0.15685 0.58756 0.27324 0.0
H193 H 0.11228 0.64649 0.26246 0.0
H194 H 0.16176 0.68844 0.23716 0.0
H195 H 0.22904 0.64735 0.29587 0.0
H196 H 0.25374 0.63369 0.27767 0.0
H197 H 0.2127 0.6051 0.2875 0.0
H198 H 0.19981 0.58555 0.23231 0.0
H199 H 0.24113 0.61366 0.22227 0.0
H200 H 0.20849 0.61448 0.20276 0.0
H201 H 0.21945 0.72785 0.22272 0.0
H202 H 0.27876 0.76002 0.21746 0.0
H203 H 0.28602 0.67544 0.23884 0.0
C204 C 0.15704 0.60869 0.26429 0.0
C205 C 0.1307 0.61373 0.2694 0.0
C206 C 0.13194 0.64194 0.25816 0.0
C207 C 0.16006 0.66594 0.24397 0.0
C208 C 0.18644 0.66107 0.24099 0.0
C209 C 0.18489 0.63282 0.25038 0.0
C210 C 0.21755 0.63493 0.24823 0.0
C211 C 0.2289 0.62999 0.27915 0.0
C212 C 0.21669 0.61072 0.225 0.0
C213 C 0.23817 0.66932 0.23743 0.0
C214 C 0.21974 0.68387 0.23295 0.0
C215 C 0.23394 0.71645 0.22551 0.0
C216 C 0.26772 0.73458 0.22274 0.0
C217 C 0.28707 0.72022 0.22756 0.0
C218 C 0.2719 0.68701 0.23454 0.0
H219 H 0.50528 0.14006 0.4542 0.0
H220 H 0.57369 0.11733 0.41364 0.0
H221 H 0.59964 0.16992 0.38725 0.0
H222 H 0.50084 0.18942 0.38876 0.0
H223 H 0.49794 0.21693 0.41455 0.0
H224 H 0.48079 0.17495 0.42435 0.0
H225 H 0.51444 0.19195 0.47343 0.0
H226 H 0.53243 0.23384 0.46354 0.0
H227 H 0.55781 0.21678 0.47134 0.0
H228 H 0.62525 0.2294 0.37523 0.0
H229 H 0.64356 0.2878 0.37232 0.0
H230 H 0.55685 0.27082 0.41894 0.0
C231 C 0.52452 0.14548 0.43835 0.0
C232 C 0.53706 0.12448 0.43524 0.0
C233 C 0.5632 0.13275 0.41549 0.0
C234 C 0.57825 0.16272 0.4007 0.0
C235 C 0.56646 0.18379 0.4056 0.0
C236 C 0.53955 0.17512 0.4233 0.0
C237 C 0.53355 0.20312 0.42746 0.0
C238 C 0.50137 0.19566 0.4129 0.0
C239 C 0.53464 0.21193 0.46091 0.0
C240 C 0.56205 0.22933 0.4105 0.0
C241 C 0.58078 0.21778 0.398 0.0
C242 C 0.61024 0.23845 0.38414 0.0
C243 C 0.62059 0.27161 0.3828 0.0
C244 C 0.6014 0.28371 0.39501 0.0
C245 C 0.57165 0.26213 0.40875 0.0
H246 H 0.38334 0.49306 0.62496 0.0
H247 H 0.47437 0.55817 0.58227 0.0
H248 H 0.44876 0.58549 0.55646 0.0
H249 H 0.32829 0.49056 0.56122 0.0
H250 H 0.29959 0.48953 0.58809 0.0
H251 H 0.32314 0.47068 0.59683 0.0
H252 H 0.34303 0.50477 0.64556 0.0
H253 H 0.32053 0.52452 0.63666 0.0
H254 H 0.36347 0.54819 0.64316 0.0
H255 H 0.4166 0.61319 0.54537 0.0
H256 H 0.37835 0.63389 0.5437 0.0
H257 H 0.30793 0.54956 0.59269 0.0
C258 C 0.39726 0.5118 0.60874 0.0
C259 C 0.43055 0.52312 0.60496 0.0
C260 C 0.44861 0.54862 0.58468 0.0
C261 C 0.4343 0.56446 0.57022 0.0
C262 C 0.40184 0.5541 0.576 0.0
C263 C 0.38329 0.5277 0.59413 0.0
C264 C 0.3501 0.52346 0.59948 0.0
C265 C 0.32372 0.49167 0.58556 0.0
C266 C 0.34396 0.52537 0.6332 0.0
C267 C 0.35328 0.55237 0.58269 0.0
C268 C 0.38321 0.56976 0.56919 0.0
C269 C 0.39276 0.59925 0.5551 0.0
C270 C 0.37103 0.61097 0.55449 0.0
C271 C 0.34007 0.59316 0.56777 0.0
C272 C 0.33117 0.56341 0.58181 0.0
H273 H 0.92007 0.38618 0.78754 0.0
H274 H 0.93849 0.4795 0.7566 0.0
H275 H 0.88569 0.45333 0.73026 0.0
H276 H 0.87067 0.33704 0.71961 0.0
H277 H 0.84432 0.30402 0.74374 0.0
H278 H 0.88636 0.3293 0.75346 0.0
H279 H 0.86936 0.34063 0.8052 0.0
H280 H 0.82739 0.31629 0.79549 0.0
H281 H 0.84328 0.35774 0.80678 0.0
H282 H 0.82638 0.41835 0.71741 0.0
H283 H 0.76838 0.37688 0.71383 0.0
H284 H 0.7893 0.3062 0.75251 0.0
C285 C 0.91374 0.40076 0.77364 0.0
C286 C 0.93359 0.43467 0.77322 0.0
C287 C 0.92401 0.45339 0.75623 0.0
C288 C 0.89392 0.43871 0.7415 0.0
C289 C 0.87395 0.40528 0.7438 0.0
C290 C 0.88387 0.38644 0.75884 0.0
C291 C 0.85673 0.3517 0.76109 0.0
C292 C 0.86502 0.32919 0.74341 0.0
C293 C 0.84874 0.341 0.79409 0.0
C294 C 0.82958 0.35415 0.74619 0.0
C295 C 0.83993 0.38515 0.73618 0.0
C296 C 0.81825 0.39382 0.72441 0.0
C297 C 0.78531 0.37017 0.72267 0.0
C298 C 0.77436 0.33823 0.73258 0.0
C299 C 0.79698 0.33023 0.74418 0.0
H300 H 0.45785 0.89759 0.9536 0.0
H301 H 0.55818 0.95055 0.92585 0.0
H302 H 0.5498 0.90363 0.89553 0.0
H303 H 0.45616 0.82757 0.96779 0.0
H304 H 0.4154 0.80065 0.95524 0.0
H305 H 0.4266 0.84045 0.96833 0.0
H306 H 0.40765 0.85277 0.91808 0.0
H307 H 0.39588 0.8127 0.90489 0.0
H308 H 0.42346 0.84743 0.88314 0.0
H309 H 0.53354 0.84807 0.87678 0.0
H310 H 0.51038 0.78951 0.86915 0.0
H311 H 0.42077 0.77186 0.91036 0.0
C312 C 0.47778 0.8997 0.9403 0.0
C313 C 0.50866 0.92781 0.94197 0.0
C314 C 0.5342 0.92956 0.9245 0.0
C315 C 0.52967 0.9029 0.90735 0.0
C316 C 0.49939 0.87484 0.90771 0.0
C317 C 0.47372 0.87325 0.92341 0.0
C318 C 0.44487 0.83925 0.92337 0.0
C319 C 0.43522 0.82623 0.95559 0.0
C320 C 0.41627 0.83797 0.90634 0.0
C321 C 0.45874 0.82155 0.90635 0.0
C322 C 0.49004 0.8426 0.89709 0.0
C323 C 0.50883 0.83151 0.88333 0.0
C324 C 0.49549 0.79814 0.87924 0.0
C325 C 0.46366 0.77609 0.88896 0.0
C326 C 0.44492 0.78812 0.90216 0.0
H327 H 0.58562 0.44544 0.11344 0.0
H328 H 0.63181 0.54527 0.08463 0.0
H329 H 0.67069 0.53714 0.05456 0.0
H330 H 0.65506 0.44487 0.12755 0.0
H331 H 0.64111 0.40398 0.11549 0.0
H332 H 0.6126 0.41522 0.12875 0.0
H333 H 0.58042 0.39526 0.07894 0.0
H334 H 0.6087 0.38358 0.06556 0.0
H335 H 0.60092 0.41063 0.04368 0.0
H336 H 0.70996 0.52076 0.03516 0.0
H337 H 0.74538 0.49766 0.0272 0.0
H338 H 0.6745 0.40887 0.07027 0.0
C339 C 0.60333 0.46535 0.10008 0.0
C340 C 0.60559 0.49599 0.10129 0.0
C341 C 0.62923 0.52147 0.08366 0.0
C342 C 0.65153 0.51708 0.06664 0.0
C343 C 0.64966 0.48699 0.06729 0.0
C344 C 0.62586 0.46144 0.08333 0.0
C345 C 0.63123 0.43278 0.08345 0.0
C346 C 0.63525 0.42371 0.11571 0.0
C347 C 0.60367 0.40385 0.06691 0.0
C348 C 0.66254 0.44656 0.06603 0.0
C349 C 0.6725 0.47766 0.05645 0.0
C350 C 0.70205 0.49623 0.04204 0.0
C351 C 0.72207 0.48289 0.0377 0.0
C352 C 0.71265 0.45134 0.04793 0.0
C353 C 0.68216 0.43281 0.06172 0.0
H354 H 0.46386 0.90201 0.50646 0.0
H355 H 0.40589 0.94786 0.51587 0.0
H356 H 0.36339 0.89901 0.54145 0.0
H357 H 0.40338 0.82935 0.48491 0.0
H358 H 0.41674 0.80491 0.50402 0.0
H359 H 0.44563 0.84556 0.49337 0.0
H360 H 0.46529 0.85975 0.54843 0.0
H361 H 0.43686 0.81884 0.5593 0.0
H362 H 0.43642 0.85215 0.57782 0.0
H363 H 0.32342 0.84191 0.55638 0.0
H364 H 0.29075 0.78289 0.56312 0.0
H365 H 0.37485 0.77398 0.54357 0.0
C366 C 0.44277 0.90221 0.51507 0.0
C367 C 0.43817 0.92872 0.50952 0.0
C368 C 0.41008 0.92802 0.52046 0.0
C369 C 0.38578 0.90029 0.53482 0.0
C370 C 0.39025 0.87376 0.53833 0.0
C371 C 0.41838 0.87476 0.52927 0.0
C372 C 0.41592 0.84205 0.53236 0.0
C373 C 0.42069 0.82976 0.50185 0.0
C374 C 0.44005 0.84328 0.55588 0.0
C375 C 0.38147 0.82201 0.54329 0.0
C376 C 0.36719 0.8408 0.54695 0.0
C377 C 0.3346 0.82715 0.55426 0.0
C378 C 0.31619 0.79354 0.55785 0.0
C379 C 0.3303 0.77382 0.55407 0.0
C380 C 0.36351 0.78843 0.54712 0.0
H381 H 0.58564 0.45642 0.67436 0.0
H382 H 0.48231 0.39711 0.68736 0.0
H383 H 0.49079 0.35625 0.71348 0.0
H384 H 0.59833 0.39639 0.65326 0.0
H385 H 0.6371 0.41099 0.67106 0.0
H386 H 0.62413 0.43894 0.66047 0.0
H387 H 0.63165 0.46019 0.71511 0.0
H388 H 0.64534 0.4327 0.7259 0.0
H389 H 0.61204 0.43214 0.74544 0.0
H390 H 0.50959 0.31769 0.72833 0.0
H391 H 0.53711 0.28606 0.73422 0.0
H392 H 0.62855 0.37047 0.71103 0.0
C393 C 0.56495 0.43542 0.68386 0.0
C394 C 0.53334 0.42993 0.67915 0.0
C395 C 0.50672 0.40198 0.69127 0.0
C396 C 0.51136 0.37861 0.70596 0.0
C397 C 0.54278 0.38387 0.7086 0.0
C398 C 0.5692 0.41194 0.69836 0.0
C399 C 0.59998 0.41025 0.70055 0.0
C400 C 0.61578 0.41437 0.6695 0.0
C401 C 0.62365 0.4353 0.7231 0.0
C402 C 0.58661 0.37626 0.71228 0.0
C403 C 0.55365 0.36159 0.71716 0.0
C404 C 0.53548 0.3292 0.72528 0.0
C405 C 0.55133 0.31137 0.72837 0.0
C406 C 0.58504 0.32587 0.72328 0.0
C407 C 0.60289 0.35889 0.7156 0.0
H408 H 0.15446 0.57991 0.84909 0.0
H409 H 0.11176 0.47662 0.86018 0.0
H410 H 0.16127 0.48544 0.88654 0.0
H411 H 0.22748 0.59374 0.82775 0.0
H412 H 0.25129 0.63238 0.84586 0.0
H413 H 0.21019 0.61896 0.83534 0.0
H414 H 0.19634 0.62566 0.89014 0.0
H415 H 0.23769 0.63979 0.90087 0.0
H416 H 0.20521 0.60608 0.9202 0.0
H417 H 0.21901 0.50508 0.90222 0.0
H418 H 0.27832 0.53335 0.90805 0.0
H419 H 0.28374 0.62404 0.88522 0.0
C420 C 0.15504 0.55926 0.85828 0.0
C421 C 0.12923 0.52759 0.85296 0.0
C422 C 0.131 0.50105 0.8646 0.0
C423 C 0.15914 0.5059 0.8794 0.0
C424 C 0.18502 0.53744 0.88259 0.0
C425 C 0.18294 0.56372 0.87275 0.0
C426 C 0.21522 0.59471 0.87512 0.0
C427 C 0.2267 0.61086 0.84419 0.0
C428 C 0.21351 0.61793 0.89795 0.0
C429 C 0.23629 0.58172 0.88659 0.0
C430 C 0.21836 0.54872 0.89123 0.0
C431 C 0.23309 0.53099 0.89929 0.0
C432 C 0.26687 0.54728 0.90241 0.0
C433 C 0.28573 0.58099 0.89728 0.0
C434 C 0.27002 0.59839 0.8898 0.0
H435 H 0.66551 0.13736 0.00834 0.0
H436 H 0.57188 0.11375 0.04349 0.0
H437 H 0.59719 0.16473 0.07263 0.0
H438 H 0.71434 0.18192 0.07843 0.0
H439 H 0.74714 0.21061 0.05535 0.0
H440 H 0.72256 0.1694 0.0429 0.0
H441 H 0.71058 0.18986 -0.00656 0.0
H442 H 0.73432 0.23098 0.00589 0.0
H443 H 0.69273 0.21528 -0.00492 0.0
H444 H 0.63051 0.22356 0.08709 0.0
H445 H 0.67078 0.28182 0.09261 0.0
H446 H 0.74351 0.26554 0.05148 0.0
C447 C 0.65075 0.14217 0.02357 0.0
C448 C 0.61695 0.12145 0.02436 0.0
C449 C 0.59795 0.12896 0.04339 0.0
C450 C 0.61212 0.158 0.05976 0.0
C451 C 0.64538 0.17886 0.05727 0.0
C452 C 0.66463 0.1708 0.04037 0.0
C453 C 0.69915 0.19855 0.03908 0.0
C454 C 0.72216 0.18958 0.0549 0.0
C455 C 0.70979 0.20928 0.00645 0.0
C456 C 0.69603 0.22401 0.05657 0.0
C457 C 0.66485 0.2123 0.06688 0.0
C458 C 0.65527 0.23267 0.08011 0.0
C459 C 0.67816 0.26572 0.08298 0.0
C460 C 0.71031 0.27788 0.07311 0.0
C461 C 0.71933 0.25661 0.06014 0.0
H462 H 0.54447 0.64291 0.16785 0.0
H463 H 0.46444 0.54949 0.19238 0.0
H464 H 0.43921 0.57617 0.22006 0.0
H465 H 0.54485 0.6874 0.23918 0.0
H466 H 0.55485 0.72324 0.21793 0.0
H467 H 0.56937 0.69678 0.20589 0.0
H468 H 0.54344 0.69198 0.15367 0.0
H469 H 0.52816 0.71768 0.16563 0.0
H470 H 0.50077 0.67793 0.15112 0.0
H471 H 0.41771 0.61283 0.23533 0.0
H472 H 0.40494 0.65662 0.24252 0.0
H473 H 0.50025 0.72623 0.20978 0.0
C474 C 0.52256 0.62825 0.18052 0.0
C475 C 0.50674 0.59426 0.17886 0.0
C476 C 0.4773 0.57557 0.19432 0.0
C477 C 0.46273 0.59055 0.20983 0.0
C478 C 0.47818 0.62423 0.20988 0.0
C479 C 0.50791 0.64287 0.19625 0.0
C480 C 0.51802 0.67835 0.19692 0.0
C481 C 0.54859 0.69757 0.21613 0.0
C482 C 0.52286 0.69227 0.16494 0.0
C483 C 0.4888 0.6767 0.21186 0.0
C484 C 0.46607 0.64533 0.21928 0.0
C485 C 0.43572 0.63758 0.23042 0.0
C486 C 0.42857 0.66253 0.23423 0.0
C487 C 0.45175 0.69483 0.22711 0.0
C488 C 0.48231 0.70187 0.2161 0.0
H489 H 0.92399 0.54457 0.33733 0.0
H490 H 0.93758 0.4643 0.35994 0.0
H491 H 0.88524 0.43805 0.38688 0.0
H492 H 0.8777 0.54218 0.40829 0.0
H493 H 0.85216 0.55246 0.38679 0.0
H494 H 0.89363 0.56784 0.3758 0.0
H495 H 0.87421 0.54365 0.3227 0.0
H496 H 0.83276 0.52743 0.3336 0.0
H497 H 0.8461 0.501 0.31873 0.0
H498 H 0.8267 0.41563 0.4011 0.0
H499 H 0.76967 0.40189 0.40695 0.0
H500 H 0.79512 0.49772 0.37626 0.0
C501 C 0.91673 0.52241 0.34955 0.0
C502 C 0.93505 0.50682 0.34751 0.0
C503 C 0.92425 0.47701 0.36225 0.0
C504 C 0.89444 0.46185 0.37732 0.0
C505 C 0.87601 0.47707 0.37763 0.0
C506 C 0.88715 0.50713 0.36475 0.0
C507 C 0.86143 0.51678 0.36517 0.0
C508 C 0.87185 0.54658 0.38522 0.0
C509 C 0.85315 0.52253 0.33315 0.0
C510 C 0.83362 0.48691 0.379 0.0
C511 C 0.84245 0.46429 0.3862 0.0
C512 C 0.81978 0.43352 0.39635 0.0
C513 C 0.78741 0.42583 0.39939 0.0
C514 C 0.77806 0.44885 0.39241 0.0
C515 C 0.80164 0.47983 0.3824 0.0
H516 H 0.1314 0.6235 0.37833 0.0
H517 H 0.09296 0.52024 0.37237 0.0
H518 H 0.12574 0.52291 0.41678 0.0
H519 H 0.21006 0.64454 0.3949 0.0
H520 H 0.21776 0.67675 0.42064 0.0
H521 H 0.18828 0.66611 0.39122 0.0
H522 H 0.14425 0.65673 0.4303 0.0
H523 H 0.17378 0.66813 0.45986 0.0
H524 H 0.1368 0.62975 0.46135 0.0
H525 H 0.16761 0.53857 0.45805 0.0
H526 H 0.21039 0.56443 0.49649 0.0
H527 H 0.2209 0.65764 0.47452 0.0
C528 C 0.12923 0.60135 0.38701 0.0
C529 C 0.10964 0.57162 0.37239 0.0
C530 C 0.10756 0.54309 0.38377 0.0
C531 C 0.12624 0.54449 0.40873 0.0
C532 C 0.14644 0.57454 0.42193 0.0
C533 C 0.14754 0.60235 0.41176 0.0
C534 C 0.17221 0.63186 0.42874 0.0
C535 C 0.19863 0.65624 0.40761 0.0
C536 C 0.15577 0.64753 0.4461 0.0
C537 C 0.18541 0.61651 0.44975 0.0
C538 C 0.17031 0.58347 0.44553 0.0
C539 C 0.1793 0.56436 0.46179 0.0
C540 C 0.20381 0.57935 0.48341 0.0
C541 C 0.219 0.6131 0.48858 0.0
C542 C 0.20977 0.63182 0.47122 0.0
H543 H 0.52754 0.13154 0.54446 0.0
H544 H 0.5815 0.08094 0.54221 0.0
H545 H 0.61402 0.11315 0.58581 0.0
H546 H 0.59233 0.20767 0.55947 0.0
H547 H 0.57085 0.22025 0.58421 0.0
H548 H 0.54929 0.1907 0.55541 0.0
H549 H 0.51085 0.15021 0.59522 0.0
H550 H 0.53179 0.17992 0.62412 0.0
H551 H 0.52763 0.14044 0.62708 0.0
H552 H 0.64452 0.15546 0.62572 0.0
H553 H 0.66603 0.19938 0.66334 0.0
H554 H 0.59139 0.22174 0.63907 0.0
C555 C 0.54565 0.12669 0.55371 0.0
C556 C 0.55201 0.10373 0.54026 0.0
C557 C 0.57602 0.09812 0.55261 0.0
C558 C 0.59475 0.11649 0.57713 0.0
C559 C 0.5888 0.14001 0.58905 0.0
C560 C 0.56436 0.14466 0.57811 0.0
C561 C 0.56353 0.17217 0.59404 0.0
C562 C 0.56935 0.19929 0.57196 0.0
C563 C 0.53155 0.15995 0.61114 0.0
C564 C 0.59171 0.18275 0.61534 0.0
C565 C 0.60607 0.16403 0.61208 0.0
C566 C 0.63321 0.17001 0.62872 0.0
C567 C 0.64542 0.19521 0.64985 0.0
C568 C 0.63036 0.214 0.65422 0.0
C569 C 0.6034 0.20779 0.63638 0.0
H570 H 0.41628 0.51074 0.71797 0.0
H571 H 0.51896 0.57529 0.70548 0.0
H572 H 0.51849 0.611 0.74557 0.0
H573 H 0.39487 0.56872 0.7274 0.0
H574 H 0.3648 0.54823 0.75605 0.0
H575 H 0.37368 0.52526 0.72961 0.0
H576 H 0.38685 0.49763 0.77299 0.0
H577 H 0.37703 0.51975 0.79967 0.0
H578 H 0.41586 0.52216 0.80128 0.0
H579 H 0.50489 0.64336 0.78087 0.0
H580 H 0.48164 0.6657 0.81644 0.0
H581 H 0.38787 0.5788 0.80747 0.0
C582 C 0.43884 0.53175 0.72461 0.0
C583 C 0.46777 0.54023 0.70913 0.0
C584 C 0.49678 0.5682 0.71765 0.0
C585 C 0.49662 0.58872 0.7401 0.0
C586 C 0.46732 0.58052 0.75392 0.0
C587 C 0.43913 0.55224 0.74713 0.0
C588 C 0.41066 0.54962 0.76444 0.0
C589 C 0.38447 0.54786 0.7431 0.0
C590 C 0.39679 0.52057 0.78588 0.0
C591 C 0.42706 0.58125 0.7815 0.0
C592 C 0.45966 0.59883 0.7749 0.0
C593 C 0.47952 0.62957 0.78665 0.0
C594 C 0.46597 0.6422 0.80657 0.0
C595 C 0.43293 0.62396 0.8148 0.0
C596 C 0.41321 0.59325 0.80172 0.0
H597 H 0.9237 0.47936 0.87004 0.0
H598 H 0.97561 0.43109 0.89781 0.0
H599 H 0.94058 0.40991 0.94273 0.0
H600 H 0.90827 0.49959 0.94739 0.0
H601 H 0.86894 0.49272 0.93668 0.0
H602 H 0.90103 0.50736 0.9094 0.0
H603 H 0.86422 0.45935 0.87458 0.0
H604 H 0.83238 0.44396 0.90206 0.0
H605 H 0.84757 0.41864 0.88828 0.0
H606 H 0.895 0.38766 0.97967 0.0
H607 H 0.84791 0.37313 0.01192 0.0
H608 H 0.82632 0.43734 0.9608 0.0
C609 C 0.92838 0.46534 0.88627 0.0
C610 C 0.95244 0.45705 0.88092 0.0
C611 C 0.95765 0.43811 0.90203 0.0
C612 C 0.93768 0.42576 0.92733 0.0
C613 C 0.91304 0.43303 0.93118 0.0
C614 C 0.90888 0.45309 0.91167 0.0
C615 C 0.87978 0.45605 0.92016 0.0
C616 C 0.89013 0.49101 0.92894 0.0
C617 C 0.85451 0.44376 0.89475 0.0
C618 C 0.86768 0.43384 0.94706 0.0
C619 C 0.88711 0.42069 0.9529 0.0
C620 C 0.87996 0.39826 0.97568 0.0
C621 C 0.8529 0.38993 -0.00632 0.0
C622 C 0.83341 0.40419 -0.01099 0.0
C623 C 0.84075 0.4261 0.96504 0.0
H624 H 0.45227 0.91719 0.04049 0.0
H625 H 0.55346 0.97379 0.065 0.0
H626 H 0.54308 0.94013 0.11023 0.0
H627 H 0.41993 0.90186 0.11962 0.0
H628 H 0.38831 0.86167 0.11003 0.0
H629 H 0.40304 0.89326 0.08227 0.0
H630 H 0.41498 0.85765 0.04664 0.0
H631 H 0.40124 0.82635 0.07453 0.0
H632 H 0.44133 0.84316 0.05912 0.0
H633 H 0.52394 0.89485 0.14672 0.0
H634 H 0.49509 0.84706 0.17912 0.0
H635 H 0.40521 0.82112 0.13304 0.0
C636 C 0.47189 0.9232 0.05609 0.0
C637 C 0.50359 0.94817 0.0496 0.0
C638 C 0.52894 0.95512 0.07001 0.0
C639 C 0.52331 0.93594 0.09553 0.0
C640 C 0.4921 0.91037 0.10044 0.0
C641 C 0.46658 0.90454 0.08185 0.0
C642 C 0.4357 0.87464 0.0915 0.0
C643 C 0.41024 0.88339 0.10145 0.0
C644 C 0.42256 0.84894 0.06646 0.0
C645 C 0.44809 0.86397 0.11784 0.0
C646 C 0.48076 0.88479 0.12238 0.0
C647 C 0.49823 0.87878 0.14386 0.0
C648 C 0.48168 0.85133 0.16187 0.0
C649 C 0.44791 0.83046 0.15859 0.0
C650 C 0.43098 0.83681 0.13614 0.0
H651 H 0.55925 0.43881 0.19827 0.0
H652 H 0.59427 0.53825 0.22444 0.0
H653 H 0.61458 0.52881 0.27215 0.0
H654 H 0.53617 0.40391 0.27618 0.0
H655 H 0.54877 0.37484 0.2686 0.0
H656 H 0.53294 0.38828 0.23869 0.0
H657 H 0.58492 0.40501 0.2079 0.0
H658 H 0.60131 0.39242 0.23792 0.0
H659 H 0.6237 0.43315 0.22389 0.0
H660 H 0.63963 0.51176 0.3116 0.0
H661 H 0.65948 0.48524 0.34605 0.0
H662 H 0.60537 0.3954 0.29665 0.0
C663 C 0.57017 0.45819 0.2146 0.0
C664 C 0.57504 0.48919 0.20794 0.0
C665 C 0.58985 0.51422 0.22945 0.0
C666 C 0.60169 0.50915 0.25644 0.0
C667 C 0.59792 0.47874 0.2617 0.0
C668 C 0.58171 0.45338 0.24184 0.0
C669 C 0.58232 0.42354 0.25231 0.0
C670 C 0.54801 0.39601 0.25937 0.0
C671 C 0.59906 0.41293 0.22912 0.0
C672 C 0.60241 0.43646 0.28061 0.0
C673 C 0.61133 0.46843 0.28541 0.0
C674 C 0.63219 0.48653 0.30853 0.0
C675 C 0.64363 0.47136 0.32773 0.0
C676 C 0.63384 0.43831 0.32397 0.0
C677 C 0.61292 0.42062 0.30013 0.0
H678 H 0.43548 0.93562 0.39475 0.0
H679 H 0.53233 0.95714 0.41737 0.0
H680 H 0.52908 0.91858 0.37835 0.0
H681 H 0.40272 0.85445 0.38701 0.0
H682 H 0.37639 0.84892 0.35579 0.0
H683 H 0.38812 0.88224 0.38122 0.0
H684 H 0.41097 0.923 0.33726 0.0
H685 H 0.3983 0.88975 0.31143 0.0
H686 H 0.43983 0.92192 0.31193 0.0
H687 H 0.51168 0.87172 0.34277 0.0
H688 H 0.48498 0.82595 0.30744 0.0
H689 H 0.39915 0.83529 0.3082 0.0
C690 C 0.45652 0.93332 0.39032 0.0
C691 C 0.48449 0.94978 0.40825 0.0
C692 C 0.51117 0.94536 0.40306 0.0
C693 C 0.50933 0.92327 0.38125 0.0
C694 C 0.48069 0.90611 0.36491 0.0
C695 C 0.45505 0.91147 0.36867 0.0
C696 C 0.4262 0.8884 0.34987 0.0
C697 C 0.39663 0.86726 0.36967 0.0
C698 C 0.41838 0.90687 0.32621 0.0
C699 C 0.43927 0.86863 0.33549 0.0
C700 C 0.47069 0.87915 0.34448 0.0
C701 C 0.48728 0.86364 0.33518 0.0
C702 C 0.47174 0.83742 0.31535 0.0
C703 C 0.43995 0.82701 0.30494 0.0
C704 C 0.42347 0.84265 0.31561 0.0
H705 H 0.52239 0.42268 0.56624 0.0
H706 H 0.59168 0.52346 0.58247 0.0
H707 H 0.62674 0.52194 0.5422 0.0
H708 H 0.577 0.39723 0.55725 0.0
H709 H 0.55591 0.36818 0.52786 0.0
H710 H 0.53367 0.37826 0.55404 0.0
H711 H 0.50882 0.39458 0.51048 0.0
H712 H 0.53012 0.38351 0.48401 0.0
H713 H 0.53505 0.4234 0.48296 0.0
H714 H 0.65736 0.50679 0.50579 0.0
H715 H 0.67799 0.48188 0.47016 0.0
H716 H 0.58799 0.39067 0.47779 0.0
C717 C 0.54426 0.44474 0.56025 0.0
C718 C 0.55421 0.4734 0.57673 0.0
C719 C 0.58344 0.50162 0.56937 0.0
C720 C 0.60356 0.5008 0.54683 0.0
C721 C 0.5938 0.47163 0.53195 0.0
C722 C 0.56445 0.44431 0.53786 0.0
C723 C 0.56042 0.41549 0.52014 0.0
C724 C 0.55653 0.3882 0.54108 0.0
C725 C 0.53192 0.40355 0.49808 0.0
C726 C 0.59241 0.43062 0.50381 0.0
C727 C 0.61137 0.46297 0.51097 0.0
C728 C 0.64251 0.48162 0.49964 0.0
C729 C 0.65413 0.46712 0.47965 0.0
C730 C 0.63459 0.43429 0.47108 0.0
C731 C 0.60351 0.41581 0.48377 0.0
H732 H 0.13408 0.52342 0.7437 0.0
H733 H 0.0891 0.58236 0.7511 0.0
H734 H 0.12296 0.61646 0.70896 0.0
H735 H 0.21203 0.5858 0.73175 0.0
H736 H 0.2232 0.56451 0.70532 0.0
H737 H 0.1927 0.54239 0.73312 0.0
H738 H 0.15167 0.50816 0.69157 0.0
H739 H 0.18231 0.52954 0.66362 0.0
H740 H 0.14401 0.52819 0.66108 0.0
H741 H 0.16622 0.64722 0.66988 0.0
H742 H 0.21024 0.66836 0.63253 0.0
H743 H 0.22669 0.58875 0.65178 0.0
C744 C 0.13073 0.54294 0.73576 0.0
C745 C 0.10894 0.55028 0.75021 0.0
C746 C 0.10536 0.57621 0.7398 0.0
C747 C 0.12468 0.59578 0.71616 0.0
C748 C 0.14709 0.58875 0.70327 0.0
C749 C 0.1497 0.56255 0.71236 0.0
C750 C 0.17647 0.56083 0.69592 0.0
C751 C 0.20264 0.56355 0.71784 0.0
C752 C 0.16279 0.52985 0.67691 0.0
C753 C 0.18897 0.59049 0.67642 0.0
C754 C 0.17182 0.60635 0.68098 0.0
C755 C 0.17956 0.63479 0.66589 0.0
C756 C 0.20481 0.64674 0.6449 0.0
C757 C 0.22196 0.6302 0.63916 0.0
C758 C 0.21414 0.60201 0.65559 0.0
H759 H 0.63699 0.13143 0.91446 0.0
H760 H 0.53246 0.08497 0.91624 0.0
H761 H 0.53407 0.11862 0.8733 0.0
H762 H 0.6526 0.2094 0.89987 0.0
H763 H 0.68627 0.22034 0.87502 0.0
H764 H 0.67689 0.19048 0.90372 0.0
H765 H 0.67235 0.14898 0.86372 0.0
H766 H 0.68244 0.17894 0.83492 0.0
H767 H 0.64582 0.14038 0.83196 0.0
H768 H 0.54775 0.16139 0.83422 0.0
H769 H 0.57153 0.20483 0.79657 0.0
H770 H 0.66742 0.22269 0.8198 0.0
C771 C 0.61443 0.12786 0.90527 0.0
C772 C 0.58457 0.1056 0.91837 0.0
C773 C 0.55549 0.10161 0.9061 0.0
C774 C 0.55624 0.1208 0.88197 0.0
C775 C 0.58623 0.14348 0.87032 0.0
C776 C 0.61475 0.1466 0.88114 0.0
C777 C 0.64382 0.17326 0.86518 0.0
C778 C 0.6662 0.19994 0.88727 0.0
C779 C 0.66218 0.15957 0.84791 0.0
C780 C 0.62724 0.18509 0.844 0.0
C781 C 0.59406 0.16773 0.84746 0.0
C782 C 0.57367 0.17488 0.83104 0.0
C783 C 0.58748 0.19982 0.80988 0.0
C784 C 0.62138 0.21717 0.80514 0.0
C785 C 0.64145 0.20988 0.8228 0.0
H786 H 0.4559 0.55186 0.07833 0.0
H787 H 0.55812 0.60155 0.05756 0.0
H788 H 0.54794 0.62532 0.01239 0.0
H789 H 0.42669 0.53617 -0.00179 0.0
H790 H 0.39334 0.5423 0.00702 0.0
H791 H 0.40846 0.52594 0.03494 0.0
H792 H 0.41665 0.57159 0.07154 0.0
H793 H 0.4025 0.58869 0.04354 0.0
H794 H 0.44177 0.61312 0.06038 0.0
H795 H 0.52785 0.65039 0.97516 0.0
H796 H 0.4981 0.66784 0.94214 0.0
H797 H 0.40813 0.59973 -0.01438 0.0
C798 C 0.47585 0.5667 0.0635 0.0
C799 C 0.50771 0.57466 0.07093 0.0
C800 C 0.53352 0.59476 0.0517 0.0
C801 C 0.52796 0.60856 0.02625 0.0
C802 C 0.49642 0.60148 0.0203 0.0
C803 C 0.47065 0.5803 0.03787 0.0
C804 C 0.43934 0.57786 0.02736 0.0
C805 C 0.41556 0.54353 0.01621 0.0
C806 C 0.4242 0.58845 0.05219 0.0
C807 C 0.45167 0.60177 0.00172 0.0
C808 C 0.48468 0.61526 -0.00182 0.0
C809 C 0.50191 0.63951 0.9773 0.0
C810 C 0.48481 0.64951 0.95889 0.0
C811 C 0.45076 0.63507 0.96126 0.0
C812 C 0.4341 0.61104 0.98315 0.0
H813 H 0.92304 0.45545 0.24994 0.0
H814 H 0.97996 0.55544 0.22243 0.0
H815 H 0.94637 0.54313 0.17655 0.0
H816 H 0.90766 0.41941 0.17294 0.0
H817 H 0.86732 0.38848 0.1829 0.0
H818 H 0.89878 0.40458 0.21095 0.0
H819 H 0.86315 0.41867 0.24433 0.0
H820 H 0.83196 0.40348 0.21612 0.0
H821 H 0.84885 0.44435 0.2296 0.0
H822 H 0.90182 0.52156 0.13819 0.0
H823 H 0.85466 0.49073 0.10526 0.0
H824 H 0.82722 0.40422 0.15758 0.0
C825 C 0.92904 0.47445 0.23368 0.0
C826 C 0.95412 0.50631 0.23937 0.0
C827 C 0.96115 0.5308 0.21804 0.0
C828 C 0.94203 0.52406 0.19216 0.0
C829 C 0.91638 0.49268 0.18796 0.0
C830 C 0.91036 0.46809 0.20776 0.0
C831 C 0.88042 0.43683 0.19892 0.0
C832 C 0.88907 0.41079 0.19094 0.0
C833 C 0.85458 0.42517 0.22372 0.0
C834 C 0.87 0.44784 0.17144 0.0
C835 C 0.891 0.48014 0.16558 0.0
C836 C 0.88554 0.49613 0.14225 0.0
C837 C 0.85845 0.47842 0.12385 0.0
C838 C 0.83722 0.44497 0.12876 0.0
C839 C 0.84301 0.42968 0.15314 0.0
loop_
_geom_bond_atom_site_label_1
_geom_bond_atom_site_label_2
_geom_bond_distance
_geom_bond_site_symmetry_2
_ccdc_geom_bond_type
H0 C6 0.930 . S
H1 C9 0.931 . S
H2 C11 0.931 . S
H3 C13 0.930 . S
H4 C15 0.930 . S
H5 C17 0.931 . S
C6 H0 0.930 . S
C6 C7 1.380 . S
C6 C8 1.394 . S
C7 C6 1.380 . S
C7 C11 1.382 . S
C8 C6 1.394 . S
C8 C9 1.400 . S
C9 H1 0.931 . S
C9 C8 1.400 . S
C9 C10 1.375 . S
C10 C9 1.375 . S
C10 C11 1.415 . S
C10 C12 1.501 1_455 S
C11 H2 0.931 . S
C11 C7 1.382 . S
C11 C10 1.415 . S
C12 C10 1.501 1_655 S
C12 C13 1.384 . S
C12 C17 1.408 . S
C13 H3 0.930 . S
C13 C12 1.384 . S
C13 C14 1.389 . S
C14 C13 1.389 . S
C14 C15 1.405 . S
C15 H4 0.930 . S
C15 C14 1.405 . S
C15 C16 1.364 . S
C16 C15 1.364 . S
C16 C17 1.400 . S
C17 H5 0.931 . S
C17 C12 1.408 . S
C17 C16 1.400 . S
H18 C24 0.930 . S
H19 C27 0.931 . S
H20 C29 0.931 . S
H21 C31 0.930 . S
H22 C33 0.930 . S
H23 C35 0.931 . S
C24 H18 0.930 . S
C24 C25 1.380 . S
C24 C26 1.394 . S
C25 C24 1.380 . S
C25 C29 1.382 . S
C26 C24 1.394 . S
C26 C27 1.400 . S
C27 H19 0.931 . S
C27 C26 1.400 . S
C27 C28 1.375 . S
C28 C27 1.375 . S
C28 C29 1.415 . S
C28 C30 1.501 1_545 S
C29 H20 0.931 . S
C29 C25 1.382 . S
C29 C28 1.415 . S
C30 C28 1.501 1_565 S
C30 C31 1.384 . S
C30 C35 1.408 . S
C31 H21 0.930 . S
C31 C30 1.384 . S
C31 C32 1.389 . S
C32 C31 1.389 . S
C32 C33 1.405 . S
C33 H22 0.930 . S
C33 C32 1.405 . S
C33 C34 1.364 . S
C34 C33 1.364 . S
C34 C35 1.400 . S
C35 H23 0.931 . S
C35 C30 1.408 . S
C35 C34 1.400 . S
H36 C42 0.930 . S
H37 C45 0.931 . S
H38 C47 0.931 . S
H39 C49 0.930 . S
H40 C51 0.930 . S
H41 C53 0.931 . S
C42 H36 0.930 . S
C42 C43 1.380 . S
C42 C44 1.394 . S
C43 C42 1.380 . S
C43 C47 1.382 . S
C44 C42 1.394 . S
C44 C45 1.400 . S
C45 H37 0.931 . S
C45 C44 1.400 . S
C45 C46 1.375 . S
C46 C45 1.375 . S
C46 C47 1.415 . S
C46 C48 1.501 . S
C47 H38 0.931 . S
C47 C43 1.382 . S
C47 C46 1.415 . S
C48 C46 1.501 . S
C48 C49 1.384 . S
C48 C53 1.408 . S
C49 H39 0.930 . S
C49 C48 1.384 . S
C49 C50 1.389 . S
C50 C49 1.389 . S
C50 C51 1.405 . S
C51 H40 0.930 . S
C51 C50 1.405 . S
C51 C52 1.364 . S
C52 C51 1.364 . S
C52 C53 1.400 . S
C53 H41 0.931 . S
C53 C48 1.408 . S
C53 C52 1.400 . S
H54 C60 0.930 . S
H55 C63 0.931 . S
H56 C65 0.931 . S
H57 C67 0.930 . S
H58 C69 0.930 . S
H59 C71 0.931 . S
C60 H54 0.930 . S
C60 C61 1.380 . S
C60 C62 1.394 . S
C61 C60 1.380 . S
C61 C65 1.382 . S
C62 C60 1.394 . S
C62 C63 1.400 . S
C63 H55 0.931 . S
C63 C62 1.400 . S
C63 C64 1.375 . S
C64 C63 1.375 . S
C64 C65 1.415 . S
C64 C66 1.501 1_455 S
C65 H56 0.931 . S
C65 C61 1.382 . S
C65 C64 1.415 . S
C66 C64 1.501 1_655 S
C66 C67 1.384 . S
C66 C71 1.408 . S
C67 H57 0.930 . S
C67 C66 1.384 . S
C67 C68 1.389 . S
C68 C67 1.389 . S
C68 C69 1.405 . S
C69 H58 0.930 . S
C69 C68 1.405 . S
C69 C70 1.364 . S
C70 C69 1.364 . S
C70 C71 1.400 . S
C71 H59 0.931 . S
C71 C66 1.408 . S
C71 C70 1.400 . S
H72 C78 0.930 . S
H73 C81 0.931 . S
H74 C83 0.931 . S
H75 C85 0.930 . S
H76 C87 0.930 . S
H77 C89 0.931 . S
C78 H72 0.930 . S
C78 C79 1.380 . S
C78 C80 1.394 1_554 S
C79 C78 1.380 . S
C79 C83 1.382 . S
C80 C78 1.394 1_556 S
C80 C81 1.400 . S
C81 H73 0.931 . S
C81 C80 1.400 . S
C81 C82 1.375 . S
C82 C81 1.375 . S
C82 C83 1.415 1_556 S
C82 C84 1.501 1_565 S
C83 H74 0.931 . S
C83 C79 1.382 . S
C83 C82 1.415 1_554 S
C84 C82 1.501 1_545 S
C84 C85 1.384 1_556 S
C84 C89 1.408 . S
C85 H75 0.930 . S
C85 C84 1.384 1_554 S
C85 C86 1.389 . S
C86 C85 1.389 . S
C86 C87 1.405 1_554 S
C87 H76 0.930 . S
C87 C86 1.405 1_556 S
C87 C88 1.364 . S
C88 C87 1.364 . S
C88 C89 1.400 . S
C89 H77 0.931 . S
C89 C84 1.408 . S
C89 C88 1.400 . S
H90 C96 0.930 . S
H91 C99 0.931 . S
H92 C101 0.931 . S
H93 C103 0.930 . S
H94 C105 0.930 . S
H95 C107 0.931 . S
C96 H90 0.930 . S
C96 C97 1.380 . S
C96 C98 1.394 . S
C97 C96 1.380 . S
C97 C101 1.382 . S
C98 C96 1.394 . S
C98 C99 1.400 . S
C99 H91 0.931 . S
C99 C98 1.400 . S
C99 C100 1.375 . S
C100 C99 1.375 . S
C100 C101 1.415 . S
C100 C102 1.501 . S
C101 H92 0.931 . S
C101 C97 1.382 . S
C101 C100 1.415 . S
C102 C100 1.501 . S
C102 C103 1.384 . S
C102 C107 1.408 . S
C103 H93 0.930 . S
C103 C102 1.384 . S
C103 C104 1.389 . S
C104 C103 1.389 . S
C104 C105 1.405 . S
C105 H94 0.930 . S
C105 C104 1.405 . S
C105 C106 1.364 . S
C106 C105 1.364 . S
C106 C107 1.400 . S
C107 H95 0.931 . S
C107 C102 1.408 . S
C107 C106 1.400 . S
O108 Cd109 2.223 . S
O108 C116 1.315 . S
Cd109 O108 2.223 . S
Cd109 O112 2.297 . S
Cd109 O113 2.439 . S
Cd109 O119 2.240 . S
Cd110 O111 2.240 . S
Cd110 O118 2.223 . S
Cd110 O120 2.297 . S
Cd110 O121 2.439 . S
O111 Cd110 2.240 . S
O111 C116 1.279 . S
O112 Cd109 2.297 . S
O112 C114 1.247 . S
O113 Cd109 2.439 . S
O113 C114 1.208 . S
C114 O112 1.247 . S
C114 O113 1.208 . S
C115 O120 1.247 . S
C115 O121 1.208 . S
C116 O108 1.315 . S
C116 O111 1.279 . S
C117 O118 1.315 . S
C117 O119 1.279 . S
O118 Cd110 2.223 . S
O118 C117 1.315 . S
O119 Cd109 2.240 . S
O119 C117 1.279 . S
O120 Cd110 2.297 . S
O120 C115 1.247 . S
O121 Cd110 2.439 . S
O121 C115 1.208 . S
O122 Cd123 2.223 . S
O122 C130 1.315 . S
Cd123 O122 2.223 . S
Cd123 O126 2.297 . S
Cd123 O127 2.439 . S
Cd123 O133 2.240 . S
Cd124 O125 2.240 . S
Cd124 O132 2.223 . S
Cd124 O134 2.297 . S
Cd124 O135 2.439 . S
O125 Cd124 2.240 . S
O125 C130 1.279 . S
O126 Cd123 2.297 . S
O126 C128 1.247 . S
O127 Cd123 2.439 . S
O127 C128 1.208 . S
C128 O126 1.247 . S
C128 O127 1.208 . S
C129 O134 1.247 . S
C129 O135 1.208 . S
C130 O122 1.315 . S
C130 O125 1.279 . S
C131 O132 1.315 . S
C131 O133 1.279 . S
O132 Cd124 2.223 . S
O132 C131 1.315 . S
O133 Cd123 2.240 . S
O133 C131 1.279 . S
O134 Cd124 2.297 . S
O134 C129 1.247 . S
O135 Cd124 2.439 . S
O135 C129 1.208 . S
O136 Cd137 2.223 . S
O136 C144 1.315 . S
Cd137 O136 2.223 . S
Cd137 O140 2.297 . S
Cd137 O141 2.439 . S
Cd137 O147 2.240 . S
Cd138 O139 2.240 . S
Cd138 O146 2.223 . S
Cd138 O148 2.297 . S
Cd138 O149 2.439 . S
O139 Cd138 2.240 . S
O139 C144 1.279 . S
O140 Cd137 2.297 . S
O140 C142 1.247 . S
O141 Cd137 2.439 . S
O141 C142 1.208 . S
C142 O140 1.247 . S
C142 O141 1.208 . S
C143 O148 1.247 . S
C143 O149 1.208 . S
C144 O136 1.315 . S
C144 O139 1.279 . S
C145 O146 1.315 . S
C145 O147 1.279 . S
O146 Cd138 2.223 . S
O146 C145 1.315 . S
O147 Cd137 2.240 . S
O147 C145 1.279 . S
O148 Cd138 2.297 . S
O148 C143 1.247 . S
O149 Cd138 2.439 . S
O149 C143 1.208 . S
O150 Cd151 2.223 . S
O150 C158 1.315 . S
Cd151 O150 2.223 . S
Cd151 O154 2.297 . S
Cd151 O155 2.439 . S
Cd151 O161 2.240 . S
Cd152 O153 2.240 . S
Cd152 O160 2.223 . S
Cd152 O162 2.297 . S
Cd152 O163 2.439 . S
O153 Cd152 2.240 . S
O153 C158 1.279 . S
O154 Cd151 2.297 . S
O154 C156 1.247 . S
O155 Cd151 2.439 . S
O155 C156 1.208 . S
C156 O154 1.247 . S
C156 O155 1.208 . S
C157 O162 1.247 . S
C157 O163 1.208 . S
C158 O150 1.315 . S
C158 O153 1.279 . S
C159 O160 1.315 . S
C159 O161 1.279 . S
O160 Cd152 2.223 . S
O160 C159 1.315 . S
O161 Cd151 2.240 . S
O161 C159 1.279 . S
O162 Cd152 2.297 . S
O162 C157 1.247 . S
O163 Cd152 2.439 . S
O163 C157 1.208 . S
O164 Cd165 2.223 . S
O164 C172 1.315 . S
Cd165 O164 2.223 . S
Cd165 O168 2.297 . S
Cd165 O169 2.439 . S
Cd165 O175 2.240 . S
Cd166 O167 2.240 . S
Cd166 O174 2.223 . S
Cd166 O176 2.297 . S
Cd166 O177 2.439 . S
O167 Cd166 2.240 . S
O167 C172 1.279 . S
O168 Cd165 2.297 . S
O168 C170 1.247 . S
O169 Cd165 2.439 . S
O169 C170 1.208 . S
C170 O168 1.247 . S
C170 O169 1.208 . S
C171 O176 1.247 . S
C171 O177 1.208 . S
C172 O164 1.315 . S
C172 O167 1.279 . S
C173 O174 1.315 . S
C173 O175 1.279 . S
O174 Cd166 2.223 . S
O174 C173 1.315 . S
O175 Cd165 2.240 . S
O175 C173 1.279 . S
O176 Cd166 2.297 . S
O176 C171 1.247 . S
O177 Cd166 2.439 . S
O177 C171 1.208 . S
O178 Cd179 2.223 . S
O178 C186 1.315 . S
Cd179 O178 2.223 . S
Cd179 O182 2.297 . S
Cd179 O183 2.439 . S
Cd179 O189 2.240 . S
Cd180 O181 2.240 . S
Cd180 O188 2.223 . S
Cd180 O190 2.297 . S
Cd180 O191 2.439 . S
O181 Cd180 2.240 . S
O181 C186 1.279 . S
O182 Cd179 2.297 . S
O182 C184 1.247 . S
O183 Cd179 2.439 . S
O183 C184 1.208 . S
C184 O182 1.247 . S
C184 O183 1.208 . S
C185 O190 1.247 . S
C185 O191 1.208 . S
C186 O178 1.315 . S
C186 O181 1.279 . S
C187 O188 1.315 . S
C187 O189 1.279 . S
O188 Cd180 2.223 . S
O188 C187 1.315 . S
O189 Cd179 2.240 . S
O189 C187 1.279 . S
O190 Cd180 2.297 . S
O190 C185 1.247 . S
O191 Cd180 2.439 . S
O191 C185 1.208 . S
H192 C204 0.930 . S
H193 C206 0.930 . S
H194 C207 0.930 . S
H195 C211 0.959 . S
H196 C211 0.959 . S
H197 C211 0.961 . S
H198 C212 0.960 . S
H199 C212 0.961 . S
H200 C212 0.959 . S
H201 C215 0.929 . S
H202 C216 0.931 . S
H203 C218 0.930 . S
C204 H192 0.930 . S
C204 C205 1.399 . S
C204 C209 1.399 . S
C205 C204 1.399 . S
C205 C206 1.376 . S
C206 H193 0.930 . S
C206 C205 1.376 . S
C206 C207 1.388 . S
C207 H194 0.930 . S
C207 C206 1.388 . S
C207 C208 1.390 . S
C208 C207 1.390 . S
C208 C209 1.394 . S
C208 C214 1.465 . S
C209 C204 1.399 . S
C209 C208 1.394 . S
C209 C210 1.516 . S
C210 C209 1.516 . S
C210 C211 1.502 . S
C210 C212 1.561 . S
C210 C213 1.526 . S
C211 H195 0.959 . S
C211 H196 0.959 . S
C211 H197 0.961 . S
C211 C210 1.502 . S
C212 H198 0.960 . S
C212 H199 0.961 . S
C212 H200 0.959 . S
C212 C210 1.561 . S
C213 C210 1.526 . S
C213 C214 1.396 . S
C213 C218 1.390 . S
C214 C208 1.465 . S
C214 C213 1.396 . S
C214 C215 1.399 . S
C215 H201 0.929 . S
C215 C214 1.399 . S
C215 C216 1.385 . S
C216 H202 0.931 . S
C216 C215 1.385 . S
C216 C217 1.389 . S
C217 C216 1.389 . S
C217 C218 1.387 . S
C218 H203 0.930 . S
C218 C213 1.390 . S
C218 C217 1.387 . S
H219 C231 0.930 . S
H220 C233 0.930 . S
H221 C234 0.930 . S
H222 C238 0.959 . S
H223 C238 0.959 . S
H224 C238 0.961 . S
H225 C239 0.960 . S
H226 C239 0.961 . S
H227 C239 0.959 . S
H228 C242 0.929 . S
H229 C243 0.931 . S
H230 C245 0.930 . S
C231 H219 0.930 . S
C231 C232 1.399 . S
C231 C236 1.399 . S
C232 C231 1.399 . S
C232 C233 1.376 . S
C233 H220 0.930 . S
C233 C232 1.376 . S
C233 C234 1.388 . S
C234 H221 0.930 . S
C234 C233 1.388 . S
C234 C235 1.390 . S
C235 C234 1.390 . S
C235 C236 1.394 . S
C235 C241 1.465 . S
C236 C231 1.399 . S
C236 C235 1.394 . S
C236 C237 1.516 . S
C237 C236 1.516 . S
C237 C238 1.502 . S
C237 C239 1.561 . S
C237 C240 1.526 . S
C238 H222 0.959 . S
C238 H223 0.959 . S
C238 H224 0.961 . S
C238 C237 1.502 . S
C239 H225 0.960 . S
C239 H226 0.961 . S
C239 H227 0.959 . S
C239 C237 1.561 . S
C240 C237 1.526 . S
C240 C241 1.396 . S
C240 C245 1.390 . S
C241 C235 1.465 . S
C241 C240 1.396 . S
C241 C242 1.399 . S
C242 H228 0.929 . S
C242 C241 1.399 . S
C242 C243 1.385 . S
C243 H229 0.931 . S
C243 C242 1.385 . S
C243 C244 1.389 . S
C244 C243 1.389 . S
C244 C245 1.387 . S
C245 H230 0.930 . S
C245 C240 1.390 . S
C245 C244 1.387 . S
H246 C258 0.930 . S
H247 C260 0.930 . S
H248 C261 0.930 . S
H249 C265 0.959 . S
H250 C265 0.959 . S
H251 C265 0.961 . S
H252 C266 0.960 . S
H253 C266 0.961 . S
H254 C266 0.959 . S
H255 C269 0.929 . S
H256 C270 0.931 . S
H257 C272 0.930 . S
C258 H246 0.930 . S
C258 C259 1.399 . S
C258 C263 1.399 . S
C259 C258 1.399 . S
C259 C260 1.376 . S
C260 H247 0.930 . S
C260 C259 1.376 . S
C260 C261 1.388 . S
C261 H248 0.930 . S
C261 C260 1.388 . S
C261 C262 1.390 . S
C262 C261 1.390 . S
C262 C263 1.394 . S
C262 C268 1.465 . S
C263 C258 1.399 . S
C263 C262 1.394 . S
C263 C264 1.516 . S
C264 C263 1.516 . S
C264 C265 1.502 . S
C264 C266 1.561 . S
C264 C267 1.526 . S
C265 H249 0.959 . S
C265 H250 0.959 . S
C265 H251 0.961 . S
C265 C264 1.502 . S
C266 H252 0.960 . S
C266 H253 0.961 . S
C266 H254 0.959 . S
C266 C264 1.561 . S
C267 C264 1.526 . S
C267 C268 1.396 . S
C267 C272 1.390 . S
C268 C262 1.465 . S
C268 C267 1.396 . S
C268 C269 1.399 . S
C269 H255 0.929 . S
C269 C268 1.399 . S
C269 C270 1.385 . S
C270 H256 0.931 . S
C270 C269 1.385 . S
C270 C271 1.389 . S
C271 C270 1.389 . S
C271 C272 1.387 . S
C272 H257 0.930 . S
C272 C267 1.390 . S
C272 C271 1.387 . S
H273 C285 0.930 . S
H274 C287 0.930 . S
H275 C288 0.930 . S
H276 C292 0.959 . S
H277 C292 0.959 . S
H278 C292 0.961 . S
H279 C293 0.960 . S
H280 C293 0.961 . S
H281 C293 0.959 . S
H282 C296 0.929 . S
H283 C297 0.931 . S
H284 C299 0.930 . S
C285 H273 0.930 . S
C285 C286 1.399 . S
C285 C290 1.399 . S
C286 C285 1.399 . S
C286 C287 1.376 . S
C287 H274 0.930 . S
C287 C286 1.376 . S
C287 C288 1.388 . S
C288 H275 0.930 . S
C288 C287 1.388 . S
C288 C289 1.390 . S
C289 C288 1.390 . S
C289 C290 1.394 . S
C289 C295 1.465 . S
C290 C285 1.399 . S
C290 C289 1.394 . S
C290 C291 1.516 . S
C291 C290 1.516 . S
C291 C292 1.502 . S
C291 C293 1.561 . S
C291 C294 1.526 . S
C292 H276 0.959 . S
C292 H277 0.959 . S
C292 H278 0.961 . S
C292 C291 1.502 . S
C293 H279 0.960 . S
C293 H280 0.961 . S
C293 H281 0.959 . S
C293 C291 1.561 . S
C294 C291 1.526 . S
C294 C295 1.396 . S
C294 C299 1.390 . S
C295 C289 1.465 . S
C295 C294 1.396 . S
C295 C296 1.399 . S
C296 H282 0.929 . S
C296 C295 1.399 . S
C296 C297 1.385 . S
C297 H283 0.931 . S
C297 C296 1.385 . S
C297 C298 1.389 . S
C298 C297 1.389 . S
C298 C299 1.387 . S
C299 H284 0.930 . S
C299 C294 1.390 . S
C299 C298 1.387 . S
H300 C312 0.930 . S
H301 C314 0.930 . S
H302 C315 0.930 . S
H303 C319 0.959 . S
H304 C319 0.959 . S
H305 C319 0.961 . S
H306 C320 0.960 . S
H307 C320 0.961 . S
H308 C320 0.959 . S
H309 C323 0.929 . S
H310 C324 0.931 . S
H311 C326 0.930 . S
C312 H300 0.930 . S
C312 C313 1.399 . S
C312 C317 1.399 . S
C313 C312 1.399 . S
C313 C314 1.376 . S
C314 H301 0.930 . S
C314 C313 1.376 . S
C314 C315 1.388 . S
C315 H302 0.930 . S
C315 C314 1.388 . S
C315 C316 1.390 . S
C316 C315 1.390 . S
C316 C317 1.394 . S
C316 C322 1.465 . S
C317 C312 1.399 . S
C317 C316 1.394 . S
C317 C318 1.516 . S
C318 C317 1.516 . S
C318 C319 1.502 . S
C318 C320 1.561 . S
C318 C321 1.526 . S
C319 H303 0.959 . S
C319 H304 0.959 . S
C319 H305 0.961 . S
C319 C318 1.502 . S
C320 H306 0.960 . S
C320 H307 0.961 . S
C320 H308 0.959 . S
C320 C318 1.561 . S
C321 C318 1.526 . S
C321 C322 1.396 . S
C321 C326 1.390 . S
C322 C316 1.465 . S
C322 C321 1.396 . S
C322 C323 1.399 . S
C323 H309 0.929 . S
C323 C322 1.399 . S
C323 C324 1.385 . S
C324 H310 0.931 . S
C324 C323 1.385 . S
C324 C325 1.389 . S
C325 C324 1.389 . S
C325 C326 1.387 . S
C326 H311 0.930 . S
C326 C321 1.390 . S
C326 C325 1.387 . S
H327 C339 0.930 . S
H328 C341 0.930 . S
H329 C342 0.930 . S
H330 C346 0.959 . S
H331 C346 0.959 . S
H332 C346 0.961 . S
H333 C347 0.960 . S
H334 C347 0.961 . S
H335 C347 0.959 . S
H336 C350 0.929 . S
H337 C351 0.931 . S
H338 C353 0.930 . S
C339 H327 0.930 . S
C339 C340 1.399 . S
C339 C344 1.399 . S
C340 C339 1.399 . S
C340 C341 1.376 . S
C341 H328 0.930 . S
C341 C340 1.376 . S
C341 C342 1.388 . S
C342 H329 0.930 . S
C342 C341 1.388 . S
C342 C343 1.390 . S
C343 C342 1.390 . S
C343 C344 1.394 . S
C343 C349 1.465 . S
C344 C339 1.399 . S
C344 C343 1.394 . S
C344 C345 1.516 . S
C345 C344 1.516 . S
C345 C346 1.502 . S
C345 C347 1.561 . S
C345 C348 1.526 . S
C346 H330 0.959 . S
C346 H331 0.959 . S
C346 H332 0.961 . S
C346 C345 1.502 . S
C347 H333 0.960 . S
C347 H334 0.961 . S
C347 H335 0.959 . S
C347 C345 1.561 . S
C348 C345 1.526 . S
C348 C349 1.396 . S
C348 C353 1.390 . S
C349 C343 1.465 . S
C349 C348 1.396 . S
C349 C350 1.399 . S
C350 H336 0.929 . S
C350 C349 1.399 . S
C350 C351 1.385 . S
C351 H337 0.931 . S
C351 C350 1.385 . S
C351 C352 1.389 . S
C352 C351 1.389 . S
C352 C353 1.387 . S
C353 H338 0.930 . S
C353 C348 1.390 . S
C353 C352 1.387 . S
H354 C366 0.930 . S
H355 C368 0.930 . S
H356 C369 0.930 . S
H357 C373 0.959 . S
H358 C373 0.959 . S
H359 C373 0.961 . S
H360 C374 0.960 . S
H361 C374 0.961 . S
H362 C374 0.959 . S
H363 C377 0.929 . S
H364 C378 0.931 . S
H365 C380 0.930 . S
C366 H354 0.930 . S
C366 C367 1.399 . S
C366 C371 1.399 . S
C367 C366 1.399 . S
C367 C368 1.376 . S
C368 H355 0.930 . S
C368 C367 1.376 . S
C368 C369 1.388 . S
C369 H356 0.930 . S
C369 C368 1.388 . S
C369 C370 1.390 . S
C370 C369 1.390 . S
C370 C371 1.394 . S
C370 C376 1.465 . S
C371 C366 1.399 . S
C371 C370 1.394 . S
C371 C372 1.516 . S
C372 C371 1.516 . S
C372 C373 1.502 . S
C372 C374 1.561 . S
C372 C375 1.526 . S
C373 H357 0.959 . S
C373 H358 0.959 . S
C373 H359 0.961 . S
C373 C372 1.502 . S
C374 H360 0.960 . S
C374 H361 0.961 . S
C374 H362 0.959 . S
C374 C372 1.561 . S
C375 C372 1.526 . S
C375 C376 1.396 . S
C375 C380 1.390 . S
C376 C370 1.465 . S
C376 C375 1.396 . S
C376 C377 1.399 . S
C377 H363 0.929 . S
C377 C376 1.399 . S
C377 C378 1.385 . S
C378 H364 0.931 . S
C378 C377 1.385 . S
C378 C379 1.389 . S
C379 C378 1.389 . S
C379 C380 1.387 . S
C380 H365 0.930 . S
C380 C375 1.390 . S
C380 C379 1.387 . S
H381 C393 0.930 . S
H382 C395 0.930 . S
H383 C396 0.930 . S
H384 C400 0.959 . S
H385 C400 0.959 . S
H386 C400 0.961 . S
H387 C401 0.960 . S
H388 C401 0.961 . S
H389 C401 0.959 . S
H390 C404 0.929 . S
H391 C405 0.931 . S
H392 C407 0.930 . S
C393 H381 0.930 . S
C393 C394 1.399 . S
C393 C398 1.399 . S
C394 C393 1.399 . S
C394 C395 1.376 . S
C395 H382 0.930 . S
C395 C394 1.376 . S
C395 C396 1.388 . S
C396 H383 0.930 . S
C396 C395 1.388 . S
C396 C397 1.390 . S
C397 C396 1.390 . S
C397 C398 1.394 . S
C397 C403 1.465 . S
C398 C393 1.399 . S
C398 C397 1.394 . S
C398 C399 1.516 . S
C399 C398 1.516 . S
C399 C400 1.502 . S
C399 C401 1.561 . S
C399 C402 1.526 . S
C400 H384 0.959 . S
C400 H385 0.959 . S
C400 H386 0.961 . S
C400 C399 1.502 . S
C401 H387 0.960 . S
C401 H388 0.961 . S
C401 H389 0.959 . S
C401 C399 1.561 . S
C402 C399 1.526 . S
C402 C403 1.396 . S
C402 C407 1.390 . S
C403 C397 1.465 . S
C403 C402 1.396 . S
C403 C404 1.399 . S
C404 H390 0.929 . S
C404 C403 1.399 . S
C404 C405 1.385 . S
C405 H391 0.931 . S
C405 C404 1.385 . S
C405 C406 1.389 . S
C406 C405 1.389 . S
C406 C407 1.387 . S
C407 H392 0.930 . S
C407 C402 1.390 . S
C407 C406 1.387 . S
H408 C420 0.930 . S
H409 C422 0.930 . S
H410 C423 0.930 . S
H411 C427 0.959 . S
H412 C427 0.959 . S
H413 C427 0.961 . S
H414 C428 0.960 . S
H415 C428 0.961 . S
H416 C428 0.959 . S
H417 C431 0.929 . S
H418 C432 0.931 . S
H419 C434 0.930 . S
C420 H408 0.930 . S
C420 C421 1.399 . S
C420 C425 1.399 . S
C421 C420 1.399 . S
C421 C422 1.376 . S
C422 H409 0.930 . S
C422 C421 1.376 . S
C422 C423 1.388 . S
C423 H410 0.930 . S
C423 C422 1.388 . S
C423 C424 1.390 . S
C424 C423 1.390 . S
C424 C425 1.394 . S
C424 C430 1.465 . S
C425 C420 1.399 . S
C425 C424 1.394 . S
C425 C426 1.516 . S
C426 C425 1.516 . S
C426 C427 1.502 . S
C426 C428 1.561 . S
C426 C429 1.526 . S
C427 H411 0.959 . S
C427 H412 0.959 . S
C427 H413 0.961 . S
C427 C426 1.502 . S
C428 H414 0.960 . S
C428 H415 0.961 . S
C428 H416 0.959 . S
C428 C426 1.561 . S
C429 C426 1.526 . S
C429 C430 1.396 . S
C429 C434 1.390 . S
C430 C424 1.465 . S
C430 C429 1.396 . S
C430 C431 1.399 . S
C431 H417 0.929 . S
C431 C430 1.399 . S
C431 C432 1.385 . S
C432 H418 0.931 . S
C432 C431 1.385 . S
C432 C433 1.389 . S
C433 C432 1.389 . S
C433 C434 1.387 . S
C434 H419 0.930 . S
C434 C429 1.390 . S
C434 C433 1.387 . S
H435 C447 0.903 1_556 S
H436 C449 0.930 . S
H437 C450 0.930 . S
H438 C454 0.959 1_554 S
H439 C454 0.959 . S
H440 C454 0.961 . S
H441 C455 0.960 . S
H442 C455 0.961 . S
H443 C455 0.959 . S
H444 C458 0.929 . S
H445 C459 0.931 . S
H446 C461 0.930 . S
C447 H435 0.903 1_554 S
C447 C448 1.416 . S
C447 C452 1.410 . S
C448 C447 1.416 . S
C448 C449 1.376 . S
C449 H436 0.930 . S
C449 C448 1.376 . S
C449 C450 1.388 . S
C450 H437 0.930 . S
C450 C449 1.388 . S
C450 C451 1.390 . S
C451 C450 1.390 . S
C451 C452 1.394 . S
C451 C457 1.465 . S
C452 C447 1.410 . S
C452 C451 1.394 . S
C452 C453 1.516 1_554 S
C453 C452 1.516 1_556 S
C453 C454 1.502 . S
C453 C455 1.561 . S
C453 C456 1.526 1_556 S
C454 H438 0.959 1_556 S
C454 H439 0.959 . S
C454 H440 0.961 . S
C454 C453 1.502 . S
C455 H441 0.960 . S
C455 H442 0.961 . S
C455 H443 0.959 . S
C455 C453 1.561 . S
C456 C453 1.526 1_554 S
C456 C457 1.396 . S
C456 C461 1.390 . S
C457 C451 1.465 . S
C457 C456 1.396 . S
C457 C458 1.399 . S
C458 H444 0.929 . S
C458 C457 1.399 . S
C458 C459 1.385 . S
C459 H445 0.931 . S
C459 C458 1.385 . S
C459 C460 1.389 . S
C460 C459 1.389 . S
C460 C461 1.387 . S
C461 H446 0.930 . S
C461 C456 1.390 . S
C461 C460 1.387 . S
H462 C474 0.930 . S
H463 C476 0.930 . S
H464 C477 0.930 . S
H465 C481 0.959 . S
H466 C481 0.959 . S
H467 C481 0.961 . S
H468 C482 0.960 . S
H469 C482 0.961 . S
H470 C482 0.959 . S
H471 C485 0.929 . S
H472 C486 0.931 . S
H473 C488 0.930 . S
C474 H462 0.930 . S
C474 C475 1.399 . S
C474 C479 1.399 . S
C475 C474 1.399 . S
C475 C476 1.376 . S
C476 H463 0.930 . S
C476 C475 1.376 . S
C476 C477 1.388 . S
C477 H464 0.930 . S
C477 C476 1.388 . S
C477 C478 1.390 . S
C478 C477 1.390 . S
C478 C479 1.394 . S
C478 C484 1.465 . S
C479 C474 1.399 . S
C479 C478 1.394 . S
C479 C480 1.516 . S
C480 C479 1.516 . S
C480 C481 1.502 . S
C480 C482 1.561 . S
C480 C483 1.526 . S
C481 H465 0.959 . S
C481 H466 0.959 . S
C481 H467 0.961 . S
C481 C480 1.502 . S
C482 H468 0.960 . S
C482 H469 0.961 . S
C482 H470 0.959 . S
C482 C480 1.561 . S
C483 C480 1.526 . S
C483 C484 1.396 . S
C483 C488 1.390 . S
C484 C478 1.465 . S
C484 C483 1.396 . S
C484 C485 1.399 . S
C485 H471 0.929 . S
C485 C484 1.399 . S
C485 C486 1.385 . S
C486 H472 0.931 . S
C486 C485 1.385 . S
C486 C487 1.389 . S
C487 C486 1.389 . S
C487 C488 1.387 . S
C488 H473 0.930 . S
C488 C483 1.390 . S
C488 C487 1.387 . S
H489 C501 0.930 . S
H490 C503 0.930 . S
H491 C504 0.930 . S
H492 C508 0.959 . S
H493 C508 0.959 . S
H494 C508 0.961 . S
H495 C509 0.960 . S
H496 C509 0.961 . S
H497 C509 0.959 . S
H498 C512 0.929 . S
H499 C513 0.931 . S
H500 C515 0.930 . S
C501 H489 0.930 . S
C501 C502 1.399 . S
C501 C506 1.399 . S
C502 C501 1.399 . S
C502 C503 1.376 . S
C503 H490 0.930 . S
C503 C502 1.376 . S
C503 C504 1.388 . S
C504 H491 0.930 . S
C504 C503 1.388 . S
C504 C505 1.390 . S
C505 C504 1.390 . S
C505 C506 1.394 . S
C505 C511 1.465 . S
C506 C501 1.399 . S
C506 C505 1.394 . S
C506 C507 1.516 . S
C507 C506 1.516 . S
C507 C508 1.502 . S
C507 C509 1.561 . S
C507 C510 1.526 . S
C508 H492 0.959 . S
C508 H493 0.959 . S
C508 H494 0.961 . S
C508 C507 1.502 . S
C509 H495 0.960 . S
C509 H496 0.961 . S
C509 H497 0.959 . S
C509 C507 1.561 . S
C510 C507 1.526 . S
C510 C511 1.396 . S
C510 C515 1.390 . S
C511 C505 1.465 . S
C511 C510 1.396 . S
C511 C512 1.399 . S
C512 H498 0.929 . S
C512 C511 1.399 . S
C512 C513 1.385 . S
C513 H499 0.931 . S
C513 C512 1.385 . S
C513 C514 1.389 . S
C514 C513 1.389 . S
C514 C515 1.387 . S
C515 H500 0.930 . S
C515 C510 1.390 . S
C515 C514 1.387 . S
H516 C528 0.930 . S
H517 C530 0.930 . S
H518 C531 0.930 . S
H519 C535 0.959 . S
H520 C535 0.959 . S
H521 C535 0.961 . S
H522 C536 0.960 . S
H523 C536 0.961 . S
H524 C536 0.959 . S
H525 C539 0.929 . S
H526 C540 0.931 . S
H527 C542 0.930 . S
C528 H516 0.930 . S
C528 C529 1.399 . S
C528 C533 1.399 . S
C529 C528 1.399 . S
C529 C530 1.376 . S
C530 H517 0.930 . S
C530 C529 1.376 . S
C530 C531 1.388 . S
C531 H518 0.930 . S
C531 C530 1.388 . S
C531 C532 1.390 . S
C532 C531 1.390 . S
C532 C533 1.394 . S
C532 C538 1.465 . S
C533 C528 1.399 . S
C533 C532 1.394 . S
C533 C534 1.516 . S
C534 C533 1.516 . S
C534 C535 1.502 . S
C534 C536 1.561 . S
C534 C537 1.526 . S
C535 H519 0.959 . S
C535 H520 0.959 . S
C535 H521 0.961 . S
C535 C534 1.502 . S
C536 H522 0.960 . S
C536 H523 0.961 . S
C536 H524 0.959 . S
C536 C534 1.561 . S
C537 C534 1.526 . S
C537 C538 1.396 . S
C537 C542 1.390 . S
C538 C532 1.465 . S
C538 C537 1.396 . S
C538 C539 1.399 . S
C539 H525 0.929 . S
C539 C538 1.399 . S
C539 C540 1.385 . S
C540 H526 0.931 . S
C540 C539 1.385 . S
C540 C541 1.389 . S
C541 C540 1.389 . S
C541 C542 1.387 . S
C542 H527 0.930 . S
C542 C537 1.390 . S
C542 C541 1.387 . S
H543 C555 0.930 . S
H544 C557 0.930 . S
H545 C558 0.930 . S
H546 C562 0.959 . S
H547 C562 0.959 . S
H548 C562 0.961 . S
H549 C563 0.960 . S
H550 C563 0.961 . S
H551 C563 0.959 . S
H552 C566 0.929 . S
H553 C567 0.931 . S
H554 C569 0.930 . S
C555 H543 0.930 . S
C555 C556 1.399 . S
C555 C560 1.399 . S
C556 C555 1.399 . S
C556 C557 1.376 . S
C557 H544 0.930 . S
C557 C556 1.376 . S
C557 C558 1.388 . S
C558 H545 0.930 . S
C558 C557 1.388 . S
C558 C559 1.390 . S
C559 C558 1.390 . S
C559 C560 1.394 . S
C559 C565 1.465 . S
C560 C555 1.399 . S
C560 C559 1.394 . S
C560 C561 1.516 . S
C561 C560 1.516 . S
C561 C562 1.502 . S
C561 C563 1.561 . S
C561 C564 1.526 . S
C562 H546 0.959 . S
C562 H547 0.959 . S
C562 H548 0.961 . S
C562 C561 1.502 . S
C563 H549 0.960 . S
C563 H550 0.961 . S
C563 H551 0.959 . S
C563 C561 1.561 . S
C564 C561 1.526 . S
C564 C565 1.396 . S
C564 C569 1.390 . S
C565 C559 1.465 . S
C565 C564 1.396 . S
C565 C566 1.399 . S
C566 H552 0.929 . S
C566 C565 1.399 . S
C566 C567 1.385 . S
C567 H553 0.931 . S
C567 C566 1.385 . S
C567 C568 1.389 . S
C568 C567 1.389 . S
C568 C569 1.387 . S
C569 H554 0.930 . S
C569 C564 1.390 . S
C569 C568 1.387 . S
H570 C582 0.930 . S
H571 C584 0.930 . S
H572 C585 0.930 . S
H573 C589 0.959 . S
H574 C589 0.959 . S
H575 C589 0.961 . S
H576 C590 0.960 . S
H577 C590 0.961 . S
H578 C590 0.959 . S
H579 C593 0.929 . S
H580 C594 0.931 . S
H581 C596 0.930 . S
C582 H570 0.930 . S
C582 C583 1.399 . S
C582 C587 1.399 . S
C583 C582 1.399 . S
C583 C584 1.376 . S
C584 H571 0.930 . S
C584 C583 1.376 . S
C584 C585 1.388 . S
C585 H572 0.930 . S
C585 C584 1.388 . S
C585 C586 1.390 . S
C586 C585 1.390 . S
C586 C587 1.394 . S
C586 C592 1.465 . S
C587 C582 1.399 . S
C587 C586 1.394 . S
C587 C588 1.516 . S
C588 C587 1.516 . S
C588 C589 1.502 . S
C588 C590 1.561 . S
C588 C591 1.526 . S
C589 H573 0.959 . S
C589 H574 0.959 . S
C589 H575 0.961 . S
C589 C588 1.502 . S
C590 H576 0.960 . S
C590 H577 0.961 . S
C590 H578 0.959 . S
C590 C588 1.561 . S
C591 C588 1.526 . S
C591 C592 1.396 . S
C591 C596 1.390 . S
C592 C586 1.465 . S
C592 C591 1.396 . S
C592 C593 1.399 . S
C593 H579 0.929 . S
C593 C592 1.399 . S
C593 C594 1.385 . S
C594 H580 0.931 . S
C594 C593 1.385 . S
C594 C595 1.389 . S
C595 C594 1.389 . S
C595 C596 1.387 . S
C596 H581 0.930 . S
C596 C591 1.390 . S
C596 C595 1.387 . S
H597 C609 0.930 . S
H598 C611 0.930 . S
H599 C612 0.930 . S
H600 C616 0.963 . S
H601 C616 0.959 1_554 S
H602 C616 0.961 . S
H603 C617 0.960 . S
H604 C617 0.961 . S
H605 C617 0.959 . S
H606 C620 0.929 . S
H607 C621 0.927 1_554 S
H608 C623 0.930 . S
C609 H597 0.930 . S
C609 C610 1.399 . S
C609 C614 1.399 . S
C610 C609 1.399 . S
C610 C611 1.376 . S
C611 H598 0.930 . S
C611 C610 1.376 . S
C611 C612 1.388 . S
C612 H599 0.930 . S
C612 C611 1.388 . S
C612 C613 1.390 . S
C613 C612 1.390 . S
C613 C614 1.394 . S
C613 C619 1.465 . S
C614 C609 1.399 . S
C614 C613 1.394 . S
C614 C615 1.516 . S
C615 C614 1.516 . S
C615 C616 1.502 . S
C615 C617 1.561 . S
C615 C618 1.526 . S
C616 H600 0.963 . S
C616 H601 0.959 1_556 S
C616 H602 0.961 . S
C616 C615 1.502 . S
C617 H603 0.960 . S
C617 H604 0.961 . S
C617 H605 0.959 . S
C617 C615 1.561 . S
C618 C615 1.526 . S
C618 C619 1.396 . S
C618 C623 1.390 1_556 S
C619 C613 1.465 . S
C619 C618 1.396 . S
C619 C620 1.399 . S
C620 H606 0.929 . S
C620 C619 1.399 . S
C620 C621 1.385 . S
C621 H607 0.927 1_556 S
C621 C620 1.385 . S
C621 C622 1.389 1_556 S
C622 C621 1.389 1_554 S
C622 C623 1.387 . S
C623 H608 0.930 . S
C623 C618 1.390 1_554 S
C623 C622 1.387 . S
H624 C636 0.930 . S
H625 C638 0.930 . S
H626 C639 0.930 . S
H627 C643 0.959 . S
H628 C643 0.959 . S
H629 C643 0.961 . S
H630 C644 0.960 . S
H631 C644 0.961 . S
H632 C644 0.959 . S
H633 C647 0.929 . S
H634 C648 0.931 . S
H635 C650 0.930 . S
C636 H624 0.930 . S
C636 C637 1.399 . S
C636 C641 1.399 . S
C637 C636 1.399 . S
C637 C638 1.376 . S
C638 H625 0.930 . S
C638 C637 1.376 . S
C638 C639 1.388 . S
C639 H626 0.930 . S
C639 C638 1.388 . S
C639 C640 1.390 . S
C640 C639 1.390 . S
C640 C641 1.394 . S
C640 C646 1.465 . S
C641 C636 1.399 . S
C641 C640 1.394 . S
C641 C642 1.516 . S
C642 C641 1.516 . S
C642 C643 1.502 . S
C642 C644 1.561 . S
C642 C645 1.526 . S
C643 H627 0.959 . S
C643 H628 0.959 . S
C643 H629 0.961 . S
C643 C642 1.502 . S
C644 H630 0.960 . S
C644 H631 0.961 . S
C644 H632 0.959 . S
C644 C642 1.561 . S
C645 C642 1.526 . S
C645 C646 1.396 . S
C645 C650 1.390 . S
C646 C640 1.465 . S
C646 C645 1.396 . S
C646 C647 1.399 . S
C647 H633 0.929 . S
C647 C646 1.399 . S
C647 C648 1.385 . S
C648 H634 0.931 . S
C648 C647 1.385 . S
C648 C649 1.389 . S
C649 C648 1.389 . S
C649 C650 1.387 . S
C650 H635 0.930 . S
C650 C645 1.390 . S
C650 C649 1.387 . S
H651 C663 0.930 . S
H652 C665 0.930 . S
H653 C666 0.930 . S
H654 C670 0.959 . S
H655 C670 0.959 . S
H656 C670 0.961 . S
H657 C671 0.960 . S
H658 C671 0.961 . S
H659 C671 0.959 . S
H660 C674 0.929 . S
H661 C675 0.931 . S
H662 C677 0.930 . S
C663 H651 0.930 . S
C663 C664 1.399 . S
C663 C668 1.399 . S
C664 C663 1.399 . S
C664 C665 1.376 . S
C665 H652 0.930 . S
C665 C664 1.376 . S
C665 C666 1.388 . S
C666 H653 0.930 . S
C666 C665 1.388 . S
C666 C667 1.390 . S
C667 C666 1.390 . S
C667 C668 1.394 . S
C667 C673 1.465 . S
C668 C663 1.399 . S
C668 C667 1.394 . S
C668 C669 1.516 . S
C669 C668 1.516 . S
C669 C670 1.502 . S
C669 C671 1.561 . S
C669 C672 1.526 . S
C670 H654 0.959 . S
C670 H655 0.959 . S
C670 H656 0.961 . S
C670 C669 1.502 . S
C671 H657 0.960 . S
C671 H658 0.961 . S
C671 H659 0.959 . S
C671 C669 1.561 . S
C672 C669 1.526 . S
C672 C673 1.396 . S
C672 C677 1.390 . S
C673 C667 1.465 . S
C673 C672 1.396 . S
C673 C674 1.399 . S
C674 H660 0.929 . S
C674 C673 1.399 . S
C674 C675 1.385 . S
C675 H661 0.931 . S
C675 C674 1.385 . S
C675 C676 1.389 . S
C676 C675 1.389 . S
C676 C677 1.387 . S
C677 H662 0.930 . S
C677 C672 1.390 . S
C677 C676 1.387 . S
H678 C690 0.930 . S
H679 C692 0.930 . S
H680 C693 0.930 . S
H681 C697 0.959 . S
H682 C697 0.959 . S
H683 C697 0.961 . S
H684 C698 0.960 . S
H685 C698 0.961 . S
H686 C698 0.959 . S
H687 C701 0.929 . S
H688 C702 0.931 . S
H689 C704 0.930 . S
C690 H678 0.930 . S
C690 C691 1.399 . S
C690 C695 1.399 . S
C691 C690 1.399 . S
C691 C692 1.376 . S
C692 H679 0.930 . S
C692 C691 1.376 . S
C692 C693 1.388 . S
C693 H680 0.930 . S
C693 C692 1.388 . S
C693 C694 1.390 . S
C694 C693 1.390 . S
C694 C695 1.394 . S
C694 C700 1.465 . S
C695 C690 1.399 . S
C695 C694 1.394 . S
C695 C696 1.516 . S
C696 C695 1.516 . S
C696 C697 1.502 . S
C696 C698 1.561 . S
C696 C699 1.526 . S
C697 H681 0.959 . S
C697 H682 0.959 . S
C697 H683 0.961 . S
C697 C696 1.502 . S
C698 H684 0.960 . S
C698 H685 0.961 . S
C698 H686 0.959 . S
C698 C696 1.561 . S
C699 C696 1.526 . S
C699 C700 1.396 . S
C699 C704 1.390 . S
C700 C694 1.465 . S
C700 C699 1.396 . S
C700 C701 1.399 . S
C701 H687 0.929 . S
C701 C700 1.399 . S
C701 C702 1.385 . S
C702 H688 0.931 . S
C702 C701 1.385 . S
C702 C703 1.389 . S
C703 C702 1.389 . S
C703 C704 1.387 . S
C704 H689 0.930 . S
C704 C699 1.390 . S
C704 C703 1.387 . S
H705 C717 0.930 . S
H706 C719 0.930 . S
H707 C720 0.930 . S
H708 C724 0.959 . S
H709 C724 0.959 . S
H710 C724 0.961 . S
H711 C725 0.960 . S
H712 C725 0.961 . S
H713 C725 0.959 . S
H714 C728 0.929 . S
H715 C729 0.931 . S
H716 C731 0.930 . S
C717 H705 0.930 . S
C717 C718 1.399 . S
C717 C722 1.399 . S
C718 C717 1.399 . S
C718 C719 1.376 . S
C719 H706 0.930 . S
C719 C718 1.376 . S
C719 C720 1.388 . S
C720 H707 0.930 . S
C720 C719 1.388 . S
C720 C721 1.390 . S
C721 C720 1.390 . S
C721 C722 1.394 . S
C721 C727 1.465 . S
C722 C717 1.399 . S
C722 C721 1.394 . S
C722 C723 1.516 . S
C723 C722 1.516 . S
C723 C724 1.502 . S
C723 C725 1.561 . S
C723 C726 1.526 . S
C724 H708 0.959 . S
C724 H709 0.959 . S
C724 H710 0.961 . S
C724 C723 1.502 . S
C725 H711 0.960 . S
C725 H712 0.961 . S
C725 H713 0.959 . S
C725 C723 1.561 . S
C726 C723 1.526 . S
C726 C727 1.396 . S
C726 C731 1.390 . S
C727 C721 1.465 . S
C727 C726 1.396 . S
C727 C728 1.399 . S
C728 H714 0.929 . S
C728 C727 1.399 . S
C728 C729 1.385 . S
C729 H715 0.931 . S
C729 C728 1.385 . S
C729 C730 1.389 . S
C730 C729 1.389 . S
C730 C731 1.387 . S
C731 H716 0.930 . S
C731 C726 1.390 . S
C731 C730 1.387 . S
H732 C744 0.930 . S
H733 C746 0.930 . S
H734 C747 0.930 . S
H735 C751 0.959 . S
H736 C751 0.959 . S
H737 C751 0.961 . S
H738 C752 0.960 . S
H739 C752 0.961 . S
H740 C752 0.959 . S
H741 C755 0.929 . S
H742 C756 0.931 . S
H743 C758 0.930 . S
C744 H732 0.930 . S
C744 C745 1.399 . S
C744 C749 1.399 . S
C745 C744 1.399 . S
C745 C746 1.376 . S
C746 H733 0.930 . S
C746 C745 1.376 . S
C746 C747 1.388 . S
C747 H734 0.930 . S
C747 C746 1.388 . S
C747 C748 1.390 . S
C748 C747 1.390 . S
C748 C749 1.394 . S
C748 C754 1.465 . S
C749 C744 1.399 . S
C749 C748 1.394 . S
C749 C750 1.516 . S
C750 C749 1.516 . S
C750 C751 1.502 . S
C750 C752 1.561 . S
C750 C753 1.526 . S
C751 H735 0.959 . S
C751 H736 0.959 . S
C751 H737 0.961 . S
C751 C750 1.502 . S
C752 H738 0.960 . S
C752 H739 0.961 . S
C752 H740 0.959 . S
C752 C750 1.561 . S
C753 C750 1.526 . S
C753 C754 1.396 . S
C753 C758 1.390 . S
C754 C748 1.465 . S
C754 C753 1.396 . S
C754 C755 1.399 . S
C755 H741 0.929 . S
C755 C754 1.399 . S
C755 C756 1.385 . S
C756 H742 0.931 . S
C756 C755 1.385 . S
C756 C757 1.389 . S
C757 C756 1.389 . S
C757 C758 1.387 . S
C758 H743 0.930 . S
C758 C753 1.390 . S
C758 C757 1.387 . S
H759 C771 0.930 . S
H760 C773 0.930 . S
H761 C774 0.930 . S
H762 C778 0.959 . S
H763 C778 0.959 . S
H764 C778 0.961 . S
H765 C779 0.960 . S
H766 C779 0.961 . S
H767 C779 0.959 . S
H768 C782 0.929 . S
H769 C783 0.931 . S
H770 C785 0.930 . S
C771 H759 0.930 . S
C771 C772 1.399 . S
C771 C776 1.399 . S
C772 C771 1.399 . S
C772 C773 1.376 . S
C773 H760 0.930 . S
C773 C772 1.376 . S
C773 C774 1.388 . S
C774 H761 0.930 . S
C774 C773 1.388 . S
C774 C775 1.390 . S
C775 C774 1.390 . S
C775 C776 1.394 . S
C775 C781 1.465 . S
C776 C771 1.399 . S
C776 C775 1.394 . S
C776 C777 1.516 . S
C777 C776 1.516 . S
C777 C778 1.502 . S
C777 C779 1.561 . S
C777 C780 1.526 . S
C778 H762 0.959 . S
C778 H763 0.959 . S
C778 H764 0.961 . S
C778 C777 1.502 . S
C779 H765 0.960 . S
C779 H766 0.961 . S
C779 H767 0.959 . S
C779 C777 1.561 . S
C780 C777 1.526 . S
C780 C781 1.396 . S
C780 C785 1.390 . S
C781 C775 1.465 . S
C781 C780 1.396 . S
C781 C782 1.399 . S
C782 H768 0.929 . S
C782 C781 1.399 . S
C782 C783 1.385 . S
C783 H769 0.931 . S
C783 C782 1.385 . S
C783 C784 1.389 . S
C784 C783 1.389 . S
C784 C785 1.387 . S
C785 H770 0.930 . S
C785 C780 1.390 . S
C785 C784 1.387 . S
H786 C798 0.930 . S
H787 C800 0.930 . S
H788 C801 0.930 . S
H789 C805 0.959 . S
H790 C805 0.959 . S
H791 C805 0.961 . S
H792 C806 0.960 . S
H793 C806 0.961 1_556 S
H794 C806 0.959 . S
H795 C809 0.929 . S
H796 C810 0.931 . S
H797 C812 0.930 . S
C798 H786 0.930 . S
C798 C799 1.399 . S
C798 C803 1.399 . S
C799 C798 1.399 . S
C799 C800 1.376 . S
C800 H787 0.930 . S
C800 C799 1.376 . S
C800 C801 1.388 . S
C801 H788 0.930 . S
C801 C800 1.388 . S
C801 C802 1.390 . S
C802 C801 1.390 . S
C802 C803 1.394 . S
C802 C808 1.465 . S
C803 C798 1.399 . S
C803 C802 1.394 . S
C803 C804 1.516 . S
C804 C803 1.516 . S
C804 C805 1.502 1_554 S
C804 C806 1.561 . S
C804 C807 1.526 . S
C805 H789 0.959 . S
C805 H790 0.959 . S
C805 H791 0.961 . S
C805 C804 1.502 1_556 S
C806 H792 0.960 . S
C806 H793 0.961 1_554 S
C806 H794 0.959 . S
C806 C804 1.561 . S
C807 C804 1.526 . S
C807 C808 1.396 . S
C807 C812 1.390 1_554 S
C808 C802 1.465 . S
C808 C807 1.396 . S
C808 C809 1.399 . S
C809 H795 0.929 . S
C809 C808 1.399 . S
C809 C810 1.385 1_554 S
C810 H796 0.931 . S
C810 C809 1.385 1_556 S
C810 C811 1.389 . S
C811 C810 1.389 . S
C811 C812 1.387 . S
C812 H797 0.930 . S
C812 C807 1.390 1_556 S
C812 C811 1.387 . S
H813 C825 0.930 . S
H814 C827 0.930 . S
H815 C828 0.930 . S
H816 C832 0.959 . S
H817 C832 0.959 . S
H818 C832 0.961 . S
H819 C833 0.960 . S
H820 C833 0.961 . S
H821 C833 0.959 . S
H822 C836 0.929 . S
H823 C837 0.931 . S
H824 C839 0.930 . S
C825 H813 0.930 . S
C825 C826 1.399 . S
C825 C830 1.399 . S
C826 C825 1.399 . S
C826 C827 1.376 . S
C827 H814 0.930 . S
C827 C826 1.376 . S
C827 C828 1.388 . S
C828 H815 0.930 . S
C828 C827 1.388 . S
C828 C829 1.390 . S
C829 C828 1.390 . S
C829 C830 1.394 . S
C829 C835 1.465 . S
C830 C825 1.399 . S
C830 C829 1.394 . S
C830 C831 1.516 . S
C831 C830 1.516 . S
C831 C832 1.502 . S
C831 C833 1.561 . S
C831 C834 1.526 . S
C832 H816 0.959 . S
C832 H817 0.959 . S
C832 H818 0.961 . S
C832 C831 1.502 . S
C833 H819 0.960 . S
C833 H820 0.961 . S
C833 H821 0.959 . S
C833 C831 1.561 . S
C834 C831 1.526 . S
C834 C835 1.396 . S
C834 C839 1.390 . S
C835 C829 1.465 . S
C835 C834 1.396 . S
C835 C836 1.399 . S
C836 H822 0.929 . S
C836 C835 1.399 . S
C836 C837 1.385 . S
C837 H823 0.931 . S
C837 C836 1.385 . S
C837 C838 1.389 . S
C838 C837 1.389 . S
C838 C839 1.387 . S
C839 H824 0.930 . S
C839 C834 1.390 . S
C839 C838 1.387 . S
C217 C185 1.477 . S
C205 C8 1.426 . S
C232 C26 1.485 . S
C244 C114 1.474 . S
C259 C50 1.498 . S
C271 C128 1.475 . S
C286 C68 1.490 . S
C298 C142 1.470 . S
C325 C156 1.455 . S
C313 C80 1.455 . S
C340 C104 1.490 . S
C352 C171 1.446 . S
C367 C32 1.424 . S
C379 C129 1.496 . S
C394 C44 1.442 . S
C406 C143 1.467 . S
C421 C62 1.420 . S
C433 C157 1.485 . S
C460 C170 1.482 . S
C448 C86 1.482 . S
C487 C184 1.484 . S
C475 C98 1.474 . S
C514 C115 1.510 . S
C502 C14 1.419 . S
C529 C7 1.511 . S
C541 C131 1.541 . S
C556 C25 1.516 . S
C568 C145 1.514 . S
C595 C159 1.540 . S
C583 C52 1.499 . S
C610 C70 1.456 . S
C622 C172 1.504 . S
C649 C186 1.496 . S
C637 C79 1.485 . S
C676 C117 1.508 . S
C664 C106 1.511 . S
C703 C187 1.532 . S
C691 C34 1.468 . S
C718 C43 1.509 . S
C730 C116 1.538 . S
C757 C130 1.522 . S
C745 C61 1.522 . S
C772 C88 1.467 . S
C784 C144 1.532 . S
C799 C97 1.443 . S
C811 C158 1.508 . S
C826 C16 1.490 . S
C838 C173 1.500 . S
