# Generated by pormake.
# Topology tsx, (6,3)-cn, num edge types: 1
# Building blocks:
#     Node 0, Type 0, BuildingBlock: JUFBIX_clean_sbu_0, # of connection points: 6
#     Node 1, Type 0, BuildingBlock: JUFBIX_clean_sbu_0, # of connection points: 6
#     Node 2, Type 1, BuildingBlock: KAKCAD_clean_linker_0, # of connection points: 3
#     Node 3, Type 1, BuildingBlock: KAKCAD_clean_linker_0, # of connection points: 3
#     Node 4, Type 1, BuildingBlock: KAKCAD_clean_linker_0, # of connection points: 3
#     Node 5, Type 1, BuildingBlock: KAKCAD_clean_linker_0, # of connection points: 3
#     Edge 6, Type (0, 1), BuildingBlock: XIVTED_clean_linker_0, # of connection points: 2
#     Edge 7, Type (0, 1), BuildingBlock: XIVTED_clean_linker_0, # of connection points: 2
#     Edge 8, Type (0, 1), BuildingBlock: XIVTED_clean_linker_0, # of connection points: 2
#     Edge 9, Type (0, 1), BuildingBlock: XIVTED_clean_linker_0, # of connection points: 2
#     Edge 10, Type (0, 1), BuildingBlock: XIVTED_clean_linker_0, # of connection points: 2
#     Edge 11, Type (0, 1), BuildingBlock: XIVTED_clean_linker_0, # of connection points: 2
#     Edge 12, Type (0, 1), BuildingBlock: XIVTED_clean_linker_0, # of connection points: 2
#     Edge 13, Type (0, 1), BuildingBlock: XIVTED_clean_linker_0, # of connection points: 2
#     Edge 14, Type (0, 1), BuildingBlock: XIVTED_clean_linker_0, # of connection points: 2
#     Edge 15, Type (0, 1), BuildingBlock: XIVTED_clean_linker_0, # of connection points: 2
#     Edge 16, Type (0, 1), BuildingBlock: XIVTED_clean_linker_0, # of connection points: 2
#     Edge 17, Type (0, 1), BuildingBlock: XIVTED_clean_linker_0, # of connection points: 2
# Relax obj value: 0.159
# Max RMSD: 0.166
# Mean RMSD: 0.134
data_MOF--net-tsx--node1-JUFBIX_clean_sbu_0--node2-KAKCAD_clean_linker_0--edge1-XIVTED_clean_linker_0
_symmetry_space_group_name_H-M    P1
_symmetry_Int_Tables_number       1
_symmetry_cell_setting            triclinic
loop_
_symmetry_equiv_pos_as_xyz
'x, y, z'
_cell_length_a     24.080452
_cell_length_b     28.749386
_cell_length_c     43.745616
_cell_angle_alpha  92.85702
_cell_angle_beta   89.134612
_cell_angle_gamma 97.573884
loop_
_atom_site_label
_atom_site_type_symbol
_atom_site_fract_x
_atom_site_fract_y
_atom_site_fract_z
_atom_type_partial_charge
Co0 Co 0.05192 0.98389 0.01321 0.0
C1 C 0.0088 0.00904 0.95782 0.0
Co2 Co 0.98101 0.02554 0.01766 0.0
C3 C 0.12615 0.91214 0.01832 0.0
C4 C 0.15883 0.96755 0.9895 0.0
N5 N 0.11406 0.95253 0.00699 0.0
N6 N 0.17701 0.90183 0.00878 0.0
C7 C 0.1975 0.93667 0.99063 0.0
H8 H 0.09852 0.89109 0.03352 0.0
H9 H 0.16303 -0.00098 0.97664 0.0
C10 C 0.02421 0.00103 0.07316 0.0
N11 N 0.91925 0.05704 0.02458 0.0
C12 C 0.90686 0.09749 0.01355 0.0
C13 C 0.87738 0.04409 0.04448 0.0
N14 N 0.85916 0.11037 0.02609 0.0
C15 C 0.84054 0.07669 0.04547 0.0
C16 C 0.95053 0.92799 0.01296 0.0
O17 O 0.05747 0.97987 0.05639 0.0
O18 O 0.98873 0.02277 0.06058 0.0
O19 O 0.93342 0.96786 0.01632 0.0
O20 O 0.0029 0.92578 0.01105 0.0
O21 O 0.97388 0.02808 0.97475 0.0
H22 H 0.87428 0.01314 0.05782 0.0
H23 H 0.93309 0.11767 0.9973 0.0
O24 O 0.04588 0.98846 0.97006 0.0
O25 O 0.09994 0.04232 0.01537 0.0
O26 O 0.02917 0.08314 0.01858 0.0
C27 C 0.08167 0.08189 0.01716 0.0
H28 H 0.2372 0.93916 0.97848 0.0
H29 H 0.80273 0.0755 0.05927 0.0
Co30 Co 0.54464 0.49357 0.51214 0.0
C31 C 0.49655 0.51836 0.45789 0.0
Co32 Co 0.47606 0.53754 0.51833 0.0
C33 C 0.61659 0.41981 0.51519 0.0
C34 C 0.64819 0.47413 0.48529 0.0
N35 N 0.60472 0.46037 0.50402 0.0
N36 N 0.66616 0.4083 0.50442 0.0
C37 C 0.68603 0.44241 0.48563 0.0
H38 H 0.59 0.39963 0.53129 0.0
H39 H 0.65222 0.50542 0.47227 0.0
C40 C 0.52459 0.51303 0.57261 0.0
N41 N 0.41603 0.57074 0.52723 0.0
C42 C 0.39684 0.60583 0.51272 0.0
C43 C 0.38231 0.56429 0.55206 0.0
N44 N 0.35344 0.62175 0.52802 0.0
C45 C 0.34425 0.59585 0.55273 0.0
C46 C 0.44248 0.44019 0.51568 0.0
O47 O 0.55526 0.49051 0.55505 0.0
O48 O 0.4889 0.53547 0.5609 0.0
O49 O 0.42652 0.48056 0.51909 0.0
O50 O 0.49435 0.437 0.51214 0.0
O51 O 0.4645 0.53935 0.47561 0.0
H52 H 0.38519 0.53824 0.56877 0.0
H53 H 0.41476 0.61989 0.49172 0.0
O54 O 0.53356 0.49683 0.46937 0.0
O55 O 0.59414 0.55079 0.51214 0.0
O56 O 0.52598 0.59428 0.51731 0.0
C57 C 0.57794 0.59116 0.5142 0.0
H58 H 0.72487 0.44395 0.4727 0.0
H59 H 0.31173 0.59917 0.56977 0.0
C60 C 0.99714 0.95694 0.31617 0.0
C61 C 0.01156 0.00021 0.30262 0.0
C62 C 0.99019 0.95502 0.34786 0.0
C63 C 0.99782 0.99632 0.36682 0.0
C64 C 0.0126 0.03961 0.35326 0.0
C65 C 0.01928 0.04153 0.32152 0.0
C66 C 0.9905 0.99401 0.40058 0.0
C67 C 0.01004 0.95787 0.416 0.0
C68 C 1.00228 0.95411 0.44779 0.0
C69 C 0.97532 0.98806 0.46437 0.0
C70 C 0.95684 0.02526 0.44936 0.0
C71 C 0.96418 0.02772 0.41752 0.0
C72 C 0.93041 0.06241 0.46652 0.0
C73 C 0.88346 0.05116 0.48548 0.0
C74 C 0.94996 0.10978 0.46211 0.0
C75 C 0.922 0.14527 0.47542 0.0
C76 C 0.87358 0.13428 0.4934 0.0
C77 C 0.02527 0.91578 0.46316 0.0
C78 C 0.02459 0.87144 0.44801 0.0
C79 C 0.05307 0.92423 0.49132 0.0
C80 C 0.08309 0.89039 0.50274 0.0
C81 C 0.08671 0.84765 0.48602 0.0
C82 C 0.05545 0.83818 0.45898 0.0
C83 C 0.85508 0.08681 0.49871 0.0
H84 H 0.98999 0.92457 0.30221 0.0
H85 H 0.97789 0.92116 0.35747 0.0
H86 H 0.0197 0.072 0.3672 0.0
H87 H 0.03105 0.07537 0.31178 0.0
H88 H 0.03301 0.9333 0.40319 0.0
H89 H 0.94838 0.05563 0.40587 0.0
H90 H 0.96944 0.98606 0.48886 0.0
H91 H 0.86739 0.01482 0.48901 0.0
H92 H 0.98625 0.11934 0.44769 0.0
H93 H 0.93706 0.18132 0.47048 0.0
H94 H 1.00218 0.8631 0.42674 0.0
H95 H 0.05426 0.95785 0.50376 0.0
H96 H 0.81814 0.07723 0.51261 0.0
H97 H 0.05691 0.80611 0.44516 0.0
H98 H 0.10496 0.89854 0.52417 0.0
C99 C 0.01434 0.05711 0.71434 0.0
C100 C 0.00749 0.0148 0.72936 0.0
C101 C 0.01498 0.0568 0.68239 0.0
C102 C 0.01021 0.0141 0.66475 0.0
C103 C 0.00365 0.97172 0.68009 0.0
C104 C 1.00166 0.97211 0.71206 0.0
C105 C 0.01209 0.01389 0.63059 0.0
C106 C 0.04517 0.04988 0.61548 0.0
C107 C 0.04579 0.0509 0.58339 0.0
C108 C 0.01387 0.01488 0.56609 0.0
C109 C 0.98167 0.97814 0.58071 0.0
C110 C 0.98056 0.97801 0.61282 0.0
C111 C 0.94781 0.94009 0.56277 0.0
C112 C 0.90729 0.95034 0.54232 0.0
C113 C 0.95305 0.89311 0.56785 0.0
C114 C 0.91664 0.85689 0.55379 0.0
C115 C 0.87395 0.867 0.53457 0.0
C116 C 0.08018 0.08982 0.56827 0.0
C117 C 0.07884 0.13634 0.57932 0.0
C118 C 0.11643 0.08076 0.54385 0.0
C119 C 0.15253 0.11751 0.53164 0.0
C120 C 0.15237 0.16391 0.5434 0.0
C121 C 0.11445 0.17299 0.56698 0.0
C122 C 0.87047 0.91406 0.52837 0.0
H123 H 0.01852 0.09043 0.72736 0.0
H124 H 0.01868 0.09017 0.67161 0.0
H125 H 1.00092 0.93813 0.6675 0.0
H126 H 0.99681 0.93907 0.72332 0.0
H127 H 0.07151 0.07693 0.62862 0.0
H128 H 0.95368 0.95042 0.62384 0.0
H129 H 0.01394 0.01549 0.54134 0.0
H130 H 0.90253 0.98644 0.53824 0.0
H131 H 0.9843 0.8845 0.58344 0.0
H132 H 0.92012 0.82107 0.55928 0.0
H133 H 0.05082 0.1443 0.5979 0.0
H134 H 0.11825 0.04514 0.53496 0.0
H135 H 0.83832 0.92285 0.51344 0.0
H136 H 0.1137 0.20828 0.57674 0.0
H137 H 0.18106 0.1096 0.51331 0.0
C138 C 0.51171 0.4625 0.81514 0.0
C139 C 0.51935 0.50644 0.80189 0.0
C140 C 0.50665 0.45951 0.84686 0.0
C141 C 0.50924 0.50039 0.86611 0.0
C142 C 0.51679 0.54436 0.85287 0.0
C143 C 0.52179 0.54735 0.82112 0.0
C144 C 0.50499 0.49703 0.89989 0.0
C145 C 0.53299 0.46469 0.91445 0.0
C146 C 0.52944 0.46066 0.94632 0.0
C147 C 0.49829 0.49046 0.96395 0.0
C148 C 0.46953 0.52288 0.94968 0.0
C149 C 0.4732 0.52592 0.91769 0.0
C150 C 0.43522 0.55379 0.96771 0.0
C151 C 0.38095 0.55834 0.95805 0.0
C152 C 0.45773 0.58167 0.99297 0.0
C153 C 0.42759 0.61533 0.00723 0.0
C154 C 0.37433 0.62159 0.99648 0.0
C155 C 0.55881 0.425 0.96047 0.0
C156 C 0.55715 0.37999 0.94616 0.0
C157 C 0.5923 0.43646 0.98651 0.0
C158 C 0.62622 0.40444 0.99677 0.0
C159 C 0.62715 0.36063 0.98106 0.0
C160 C 0.59103 0.34828 0.95625 0.0
C161 C 0.35085 0.59177 0.97226 0.0
H162 H 0.50863 0.43031 0.80096 0.0
H163 H 0.5 0.42507 0.85629 0.0
H164 H 0.5198 0.57652 0.86709 0.0
H165 H 0.52834 0.58177 0.81167 0.0
H166 H 0.55878 0.44311 0.90092 0.0
H167 H 0.45112 0.55089 0.90663 0.0
H168 H 0.495 0.48745 0.9885 0.0
H169 H 0.36243 0.53695 0.93879 0.0
H170 H 0.49966 0.57905 0.00073 0.0
H171 H 0.44667 0.63738 0.02605 0.0
H172 H 0.53065 0.36971 0.92652 0.0
H173 H 0.59434 0.47089 0.998 0.0
H174 H 0.31033 0.59584 0.96311 0.0
H175 H 0.58972 0.31429 0.94424 0.0
H176 H 0.65353 0.41477 0.01606 0.0
C177 C 0.43916 0.52567 0.21259 0.0
C178 C 0.48963 0.53049 0.22888 0.0
C179 C 0.43969 0.52599 0.18062 0.0
C180 C 0.49069 0.53133 0.16427 0.0
C181 C 0.54111 0.53708 0.18062 0.0
C182 C 0.54059 0.53663 0.21253 0.0
C183 C 0.49148 0.5295 0.13027 0.0
C184 C 0.52957 0.56075 0.11421 0.0
C185 C 0.53224 0.55768 0.08208 0.0
C186 C 0.49651 0.52281 0.06585 0.0
C187 C 0.45699 0.4922 0.08155 0.0
C188 C 0.45504 0.49561 0.11371 0.0
C189 C 0.41741 0.45636 0.06481 0.0
C190 C 0.36068 0.44989 0.07351 0.0
C191 C 0.43631 0.42644 0.04167 0.0
C192 C 0.39965 0.38899 0.02878 0.0
C193 C 0.34344 0.38114 0.03867 0.0
C194 C 0.57196 0.59181 0.06583 0.0
C195 C 0.57306 0.64001 0.07298 0.0
C196 C 0.61086 0.57665 0.04456 0.0
C197 C 0.65188 0.60925 0.0317 0.0
C198 C 0.65382 0.65748 0.03952 0.0
C199 C 0.61338 0.6725 0.05989 0.0
C200 C 0.32412 0.41275 0.06061 0.0
H201 H 0.39922 0.52056 0.22448 0.0
H202 H 0.40013 0.52196 0.16869 0.0
H203 H 0.58109 0.54086 0.16871 0.0
H204 H 0.58021 0.54104 0.22441 0.0
H205 H 0.5574 0.58755 0.12673 0.0
H206 H 0.42606 0.47082 0.12591 0.0
H207 H 0.49822 0.52052 0.0411 0.0
H208 H 0.34486 0.47288 0.091 0.0
H209 H 0.47989 0.4307 0.03454 0.0
H210 H 0.41561 0.36553 0.01166 0.0
H211 H 0.54318 0.65251 0.08915 0.0
H212 H 0.61076 0.53957 0.03878 0.0
H213 H 0.28131 0.40755 0.06898 0.0
H214 H 0.61411 0.70935 0.06661 0.0
H215 H 0.68236 0.59678 0.01591 0.0
H216 H 0.19624 0.09139 0.01541 0.0
H217 H 0.23192 0.37247 0.02405 0.0
H218 H 0.05735 0.17246 0.01821 0.0
H219 H 0.36941 0.29134 0.03103 0.0
H220 H 0.1683 0.29957 0.01556 0.0
H221 H 0.26097 0.16429 0.01554 0.0
C222 C 0.17931 0.12452 0.01604 0.0
C223 C 0.12124 0.12582 0.01705 0.0
C224 C 0.21247 0.29773 0.01867 0.0
C225 C 0.19524 0.20946 0.01702 0.0
C226 C 0.24882 0.33933 0.02353 0.0
C227 C 0.30603 0.33803 0.02858 0.0
C228 C 0.23341 0.25442 0.01889 0.0
C229 C 0.32573 0.29412 0.02708 0.0
C230 C 0.21634 0.16615 0.01605 0.0
C231 C 0.10178 0.16979 0.01764 0.0
N232 N 0.2894 0.25406 0.02266 0.0
N233 N 0.13871 0.20985 0.0177 0.0
H234 H 0.12735 0.81325 0.0188 0.0
H235 H 0.42137 0.71188 0.01095 0.0
H236 H 0.28824 0.89834 0.01322 0.0
H237 H 0.26168 0.62382 0.00742 0.0
H238 H 0.37281 0.78024 0.02136 0.0
H239 H 0.17518 0.74366 0.02356 0.0
C240 C 0.17268 0.81737 0.01905 0.0
C241 C 0.2039 0.86149 0.01516 0.0
C242 C 0.34832 0.74592 0.01866 0.0
C243 C 0.25885 0.78228 0.02044 0.0
C244 C 0.37613 0.70669 0.013 0.0
C245 C 0.34562 0.66195 0.00793 0.0
C246 C 0.28947 0.74057 0.01917 0.0
C247 C 0.2869 0.65773 0.01053 0.0
C248 C 0.19997 0.77767 0.0216 0.0
C249 C 0.26257 0.86485 0.0155 0.0
N250 N 0.26072 0.69658 0.01563 0.0
N251 N 0.28807 0.8258 0.01785 0.0
H252 H 0.83882 0.9236 0.00351 0.0
H253 H 0.76676 0.65193 0.03679 0.0
H254 H 0.96686 0.83546 0.01841 0.0
H255 H 0.64434 0.74274 0.0168 0.0
H256 H 0.84163 0.71524 0.02514 0.0
H257 H 0.76841 0.85505 0.00384 0.0
C258 C 0.85221 0.88968 0.00679 0.0
C259 C 0.90883 0.88535 0.01129 0.0
C260 C 0.79838 0.72106 0.02294 0.0
C261 C 0.82778 0.80617 0.01183 0.0
C262 C 0.75566 0.68487 0.02938 0.0
C263 C 0.69929 0.69236 0.02809 0.0
C264 C 0.78444 0.76489 0.01516 0.0
C265 C 0.68724 0.73577 0.01862 0.0
C266 C 0.81184 0.85039 0.00688 0.0
C267 C 0.92361 0.84034 0.01501 0.0
N268 N 0.72939 0.77044 0.01279 0.0
N269 N 0.88317 0.80244 0.01553 0.0
H270 H 0.86168 0.15663 0.97338 0.0
H271 H 0.65232 0.33403 0.0382 0.0
H272 H 0.79661 0.15751 0.06577 0.0
H273 H 0.69351 0.31425 0.94252 0.0
H274 H 0.71527 0.27709 0.05029 0.0
H275 H 0.81072 0.22248 0.96322 0.0
C276 C 0.83716 0.17099 0.99159 0.0
C277 C 0.83287 0.15123 0.02034 0.0
C278 C 0.71063 0.28538 0.02667 0.0
C279 C 0.77425 0.2263 0.00892 0.0
C280 C 0.67494 0.31797 0.0198 0.0
C281 C 0.66719 0.32836 0.9893 0.0
C282 C 0.7391 0.26343 0.00286 0.0
C283 C 0.69746 0.30653 0.9663 0.0
C284 C 0.80781 0.20836 0.98577 0.0
C285 C 0.80019 0.17106 0.0431 0.0
N286 N 0.73191 0.27504 0.97354 0.0
N287 N 0.77201 0.20737 0.03689 0.0
H288 H 0.56054 0.68368 0.52114 0.0
H289 H 0.88769 0.77897 0.51121 0.0
H290 H 0.69047 0.5953 0.50384 0.0
H291 H 0.76046 0.86766 0.53435 0.0
H292 H 0.81434 0.71276 0.50188 0.0
H293 H 0.63166 0.75287 0.52029 0.0
C294 C 0.60393 0.67882 0.51706 0.0
C295 C 0.61964 0.63362 0.51286 0.0
C296 C 0.80238 0.74681 0.50868 0.0
C297 C 0.70106 0.71251 0.51171 0.0
C298 C 0.84426 0.78458 0.51401 0.0
C299 C 0.83018 0.82875 0.52386 0.0
C300 C 0.74595 0.75312 0.51342 0.0
C301 C 0.7732 0.83427 0.52664 0.0
C302 C 0.64449 0.71832 0.51653 0.0
C303 C 0.67644 0.62942 0.50748 0.0
N304 N 0.73317 0.79675 0.5218 0.0
N305 N 0.71504 0.66831 0.5072 0.0
H306 H 0.61671 0.3191 0.51218 0.0
H307 H 0.91318 0.22193 0.51765 0.0
H308 H 0.77686 0.40582 0.51096 0.0
H309 H 0.75931 0.13374 0.49376 0.0
H310 H 0.86035 0.28816 0.52712 0.0
H311 H 0.66522 0.2496 0.51689 0.0
C312 C 0.66198 0.32351 0.51342 0.0
C313 C 0.69298 0.36802 0.51082 0.0
C314 C 0.83803 0.2542 0.52012 0.0
C315 C 0.7485 0.28927 0.51626 0.0
C316 C 0.86818 0.21637 0.51466 0.0
C317 C 0.84082 0.17235 0.50436 0.0
C318 C 0.77995 0.24814 0.51529 0.0
C319 C 0.78219 0.167 0.50165 0.0
C320 C 0.68961 0.28396 0.51594 0.0
C321 C 0.75154 0.37198 0.51238 0.0
N322 N 0.75376 0.20461 0.50671 0.0
N323 N 0.77737 0.33316 0.51486 0.0
H324 H 0.4606 0.34765 0.51308 0.0
H325 H 0.13439 0.25275 0.53037 0.0
H326 H 0.32876 0.43613 0.51838 0.0
H327 H 0.26469 0.16337 0.53274 0.0
H328 H 0.2051 0.31902 0.51976 0.0
H329 H 0.38954 0.27846 0.51476 0.0
C330 C 0.41677 0.35253 0.51448 0.0
C331 C 0.40061 0.39775 0.51582 0.0
C332 C 0.21829 0.28486 0.52235 0.0
C333 C 0.31929 0.31892 0.51761 0.0
C334 C 0.17792 0.24704 0.52843 0.0
C335 C 0.19378 0.20263 0.53275 0.0
C336 C 0.27508 0.27835 0.52072 0.0
C337 C 0.25063 0.197 0.52945 0.0
C338 C 0.37626 0.31305 0.51541 0.0
C339 C 0.34324 0.402 0.51751 0.0
N340 N 0.28936 0.23456 0.52393 0.0
N341 N 0.30475 0.36314 0.51845 0.0
H342 H 0.29334 0.62355 0.47677 0.0
H343 H 0.18827 0.86879 0.51544 0.0
H344 H 0.33875 0.69989 0.56176 0.0
H345 H 0.07671 0.75098 0.47677 0.0
H346 H 0.25602 0.81532 0.52537 0.0
H347 H 0.22716 0.6797 0.46713 0.0
C348 C 0.29007 0.65281 0.49297 0.0
C349 C 0.32128 0.65771 0.51992 0.0
C350 C 0.21655 0.80148 0.51473 0.0
C351 C 0.24671 0.72136 0.50928 0.0
C352 C 0.17736 0.83181 0.50934 0.0
C353 C 0.12623 0.8148 0.495 0.0
C354 C 0.20533 0.75403 0.50506 0.0
C355 C 0.11584 0.76636 0.48706 0.0
C356 C 0.25215 0.68434 0.48771 0.0
C357 C 0.31527 0.69547 0.54068 0.0
N358 N 0.1553 0.73785 0.49183 0.0
N359 N 0.27883 0.72618 0.53488 0.0
H360 H 0.08473 0.95028 0.10915 0.0
H361 H 0.97221 0.06249 0.2658 0.0
H362 H 0.96787 0.0522 0.11421 0.0
H363 H 0.0629 0.94247 0.26249 0.0
H364 H 0.97862 0.06396 0.21013 0.0
H365 H 0.08485 0.95108 0.1653 0.0
C366 C 0.05927 0.97287 0.12203 0.0
C367 C 0.02613 0.0011 0.10695 0.0
C368 C 0.99723 0.03731 0.22154 0.0
C369 C 0.02627 0.00234 0.17099 0.0
C370 C 0.99392 0.03668 0.25336 0.0
C371 C 0.01698 0.00227 0.26883 0.0
C372 C 0.02402 0.00342 0.20493 0.0
C373 C 0.04396 0.96928 0.25145 0.0
C374 C 0.05927 0.97325 0.15404 0.0
C375 C 0.99392 0.02969 0.12479 0.0
N376 N 0.04677 0.97066 0.22042 0.0
N377 N 0.99486 0.02959 0.15578 0.0
H378 H 0.91864 0.01767 0.92211 0.0
H379 H 0.0924 0.05026 0.76748 0.0
H380 H 0.0952 0.00512 0.91727 0.0
H381 H 0.92264 0.98052 0.76738 0.0
H382 H 0.09243 0.04971 0.82366 0.0
H383 H 0.91733 0.01957 0.86599 0.0
C384 C 0.95709 0.01554 0.90924 0.0
C385 C 0.00707 0.01105 0.92423 0.0
C386 C 0.05521 0.0346 0.81129 0.0
C387 C 0.00597 0.01401 0.86054 0.0
C388 C 0.05514 0.03506 0.77941 0.0
C389 C 0.00752 0.01526 0.76308 0.0
C390 C 0.00688 0.01521 0.82682 0.0
C391 C 0.96018 0.99587 0.77936 0.0
C392 C 0.95623 0.0164 0.87734 0.0
C393 C 0.05573 0.00828 0.90654 0.0
N394 N 0.96082 0.99663 0.81046 0.0
N395 N 0.0541 0.0102 0.87561 0.0
H396 H 0.58706 0.46185 0.60728 0.0
H397 H 0.4716 0.56537 0.76598 0.0
H398 H 0.47127 0.56456 0.61483 0.0
H399 H 0.5764 0.45439 0.76074 0.0
H400 H 0.47689 0.56883 0.71045 0.0
H401 H 0.58917 0.4615 0.66337 0.0
C402 C 0.56234 0.48444 0.62069 0.0
C403 C 0.5288 0.51314 0.60632 0.0
C404 C 0.49887 0.54374 0.72139 0.0
C405 C 0.531 0.51292 0.6703 0.0
C406 C 0.49616 0.54197 0.75317 0.0
C407 C 0.52355 0.50952 0.76809 0.0
C408 C 0.52925 0.51285 0.70424 0.0
C409 C 0.55402 0.47956 0.75017 0.0
C410 C 0.56347 0.48417 0.65267 0.0
C411 C 0.49758 0.54168 0.62483 0.0
N412 N 0.55602 0.48191 0.71918 0.0
N413 N 0.49941 0.54078 0.65576 0.0
H414 H 0.42497 0.56273 0.42449 0.0
H415 H 0.55645 0.48454 0.2636 0.0
H416 H 0.55864 0.4765 0.41454 0.0
H417 H 0.4219 0.56998 0.27125 0.0
H418 H 0.55655 0.48097 0.31912 0.0
H419 H 0.42139 0.56516 0.36861 0.0
C420 C 0.45341 0.5442 0.41059 0.0
C421 C 0.49221 0.51942 0.42424 0.0
C422 C 0.52694 0.50054 0.30873 0.0
C423 C 0.48843 0.52216 0.36041 0.0
C424 C 0.52713 0.50284 0.27699 0.0
C425 C 0.48937 0.52787 0.26272 0.0
C426 C 0.48875 0.52347 0.32652 0.0
C427 C 0.45149 0.55002 0.28126 0.0
C428 C 0.45138 0.54564 0.37871 0.0
C429 C 0.52807 0.49611 0.40509 0.0
N430 N 0.45225 0.54744 0.31223 0.0
N431 N 0.52534 0.49813 0.37424 0.0
loop_
_geom_bond_atom_site_label_1
_geom_bond_atom_site_label_2
_geom_bond_distance
_geom_bond_site_symmetry_2
_ccdc_geom_bond_type
Co0 N5 2.057 . S
Co0 O17 2.021 . S
Co0 O20 2.062 1_455 S
Co0 O24 2.117 1_554 S
Co0 O25 2.020 1_565 S
C1 O21 1.259 1_455 S
C1 O24 1.258 1_545 S
Co2 N11 2.057 . S
Co2 O18 2.117 . S
Co2 O19 2.020 1_545 S
Co2 O21 2.021 1_554 S
Co2 O26 2.062 1_655 S
C3 N5 1.316 . S
C3 N6 1.347 . S
C3 H8 0.931 . S
C4 N5 1.375 1_556 S
C4 C7 1.350 . S
C4 H9 0.930 . S
N5 Co0 2.057 . S
N5 C3 1.316 . S
N5 C4 1.375 1_554 S
N6 C3 1.347 . S
N6 C7 1.373 1_554 S
C7 C4 1.350 . S
C7 N6 1.373 1_556 S
C7 H28 0.931 . S
H8 C3 0.931 . S
H9 C4 0.930 . S
C10 O17 1.259 1_545 S
C10 O18 1.258 1_455 S
N11 Co2 2.057 . S
N11 C12 1.316 . S
N11 C13 1.375 . S
C12 N11 1.316 . S
C12 N14 1.347 . S
C12 H23 0.931 1_554 S
C13 N11 1.375 . S
C13 C15 1.350 . S
C13 H22 0.930 . S
N14 C12 1.347 . S
N14 C15 1.373 . S
C15 C13 1.350 . S
C15 N14 1.373 . S
C15 H29 0.931 . S
C16 O19 1.256 . S
C16 O20 1.255 . S
O17 Co0 2.021 . S
O17 C10 1.259 1_565 S
O18 Co2 2.117 . S
O18 C10 1.258 1_655 S
O19 Co2 2.020 1_565 S
O19 C16 1.256 . S
O20 Co0 2.062 1_655 S
O20 C16 1.255 . S
O21 C1 1.259 1_655 S
O21 Co2 2.021 1_556 S
H22 C13 0.930 . S
H23 C12 0.931 1_556 S
O24 Co0 2.117 1_556 S
O24 C1 1.258 1_565 S
O25 Co0 2.020 1_545 S
O25 C27 1.256 . S
O26 Co2 2.062 1_455 S
O26 C27 1.255 . S
C27 O25 1.256 . S
C27 O26 1.255 . S
H28 C7 0.931 . S
H29 C15 0.931 . S
Co30 N35 2.057 . S
Co30 O47 2.021 . S
Co30 O50 2.062 . S
Co30 O54 2.117 . S
Co30 O55 2.020 . S
C31 O51 1.259 . S
C31 O54 1.258 . S
Co32 N41 2.057 . S
Co32 O48 2.117 . S
Co32 O49 2.020 . S
Co32 O51 2.021 . S
Co32 O56 2.062 . S
C33 N35 1.316 . S
C33 N36 1.347 . S
C33 H38 0.931 . S
C34 N35 1.375 . S
C34 C37 1.350 . S
C34 H39 0.930 . S
N35 Co30 2.057 . S
N35 C33 1.316 . S
N35 C34 1.375 . S
N36 C33 1.347 . S
N36 C37 1.373 . S
C37 C34 1.350 . S
C37 N36 1.373 . S
C37 H58 0.931 . S
H38 C33 0.931 . S
H39 C34 0.930 . S
C40 O47 1.259 . S
C40 O48 1.258 . S
N41 Co32 2.057 . S
N41 C42 1.316 . S
N41 C43 1.375 . S
C42 N41 1.316 . S
C42 N44 1.347 . S
C42 H53 0.931 . S
C43 N41 1.375 . S
C43 C45 1.350 . S
C43 H52 0.930 . S
N44 C42 1.347 . S
N44 C45 1.373 . S
C45 C43 1.350 . S
C45 N44 1.373 . S
C45 H59 0.931 . S
C46 O49 1.256 . S
C46 O50 1.255 . S
O47 Co30 2.021 . S
O47 C40 1.259 . S
O48 Co32 2.117 . S
O48 C40 1.258 . S
O49 Co32 2.020 . S
O49 C46 1.256 . S
O50 Co30 2.062 . S
O50 C46 1.255 . S
O51 C31 1.259 . S
O51 Co32 2.021 . S
H52 C43 0.930 . S
H53 C42 0.931 . S
O54 Co30 2.117 . S
O54 C31 1.258 . S
O55 Co30 2.020 . S
O55 C57 1.256 . S
O56 Co32 2.062 . S
O56 C57 1.255 . S
C57 O55 1.256 . S
C57 O56 1.255 . S
H58 C37 0.931 . S
H59 C45 0.931 . S
C60 C61 1.386 1_665 S
C60 C62 1.397 . S
C60 H84 0.931 . S
C61 C60 1.386 1_445 S
C61 C65 1.397 . S
C62 C60 1.397 . S
C62 C63 1.384 1_665 S
C62 H85 0.930 . S
C63 C62 1.384 1_445 S
C63 C64 1.377 . S
C63 C66 1.481 . S
C64 C63 1.377 . S
C64 C65 1.389 . S
C64 H86 0.929 . S
C65 C61 1.397 . S
C65 C64 1.389 . S
C65 H87 0.931 . S
C66 C63 1.481 . S
C66 C67 1.399 1_545 S
C66 C71 1.379 1_455 S
C67 C66 1.399 1_565 S
C67 C68 1.401 . S
C67 H88 0.930 . S
C68 C67 1.401 . S
C68 C69 1.376 1_465 S
C68 C77 1.511 . S
C69 C68 1.376 1_645 S
C69 C70 1.392 . S
C69 H90 0.931 . S
C70 C69 1.392 . S
C70 C71 1.361 . S
C70 C72 1.500 . S
C71 C66 1.379 1_655 S
C71 C70 1.361 . S
C71 H89 0.931 . S
C72 C70 1.500 . S
C72 C73 1.371 . S
C72 C74 1.365 . S
C73 C72 1.371 . S
C73 C83 1.386 . S
C73 H91 0.931 . S
C74 C72 1.365 . S
C74 C75 1.409 . S
C74 H92 0.929 . S
C75 C74 1.409 . S
C75 C76 1.380 . S
C75 H93 0.930 . S
C76 C75 1.380 . S
C76 C83 1.357 . S
C77 C68 1.511 . S
C77 C78 1.341 . S
C77 C79 1.371 . S
C78 C77 1.341 . S
C78 C82 1.394 . S
C78 H94 0.930 . S
C79 C77 1.371 . S
C79 C80 1.392 . S
C79 H95 0.931 . S
C80 C79 1.392 . S
C80 C81 1.331 . S
C80 H98 0.932 . S
C81 C80 1.331 . S
C81 C82 1.336 . S
C82 C78 1.394 . S
C82 C81 1.336 . S
C82 H97 0.929 . S
C83 C73 1.386 . S
C83 C76 1.357 . S
C83 H96 0.928 . S
H84 C60 0.931 . S
H85 C62 0.930 . S
H86 C64 0.929 . S
H87 C65 0.931 . S
H88 C67 0.930 . S
H89 C71 0.931 . S
H90 C69 0.931 . S
H91 C73 0.931 . S
H92 C74 0.929 . S
H93 C75 0.930 . S
H94 C78 0.930 . S
H95 C79 0.931 . S
H96 C83 0.928 . S
H97 C82 0.929 . S
H98 C80 0.932 . S
C99 C100 1.386 . S
C99 C101 1.397 . S
C99 H123 0.931 . S
C100 C99 1.386 . S
C100 C104 1.397 1_545 S
C101 C99 1.397 . S
C101 C102 1.384 . S
C101 H124 0.930 . S
C102 C101 1.384 . S
C102 C103 1.377 1_545 S
C102 C105 1.481 . S
C103 C102 1.377 1_565 S
C103 C104 1.389 . S
C103 H125 0.929 . S
C104 C100 1.397 1_565 S
C104 C103 1.389 . S
C104 H126 0.931 . S
C105 C102 1.481 . S
C105 C106 1.387 . S
C105 C110 1.390 1_445 S
C106 C105 1.387 . S
C106 C107 1.401 . S
C106 H127 0.930 . S
C107 C106 1.401 . S
C107 C108 1.376 . S
C107 C116 1.511 . S
C108 C107 1.376 . S
C108 C109 1.392 1_445 S
C108 H129 0.930 1_455 S
C109 C108 1.392 1_665 S
C109 C110 1.361 . S
C109 C111 1.500 . S
C110 C105 1.390 1_665 S
C110 C109 1.361 . S
C110 H128 0.931 . S
C111 C109 1.500 . S
C111 C112 1.371 . S
C111 C113 1.365 . S
C112 C111 1.371 . S
C112 C122 1.386 . S
C112 H130 0.931 . S
C113 C111 1.365 . S
C113 C114 1.409 . S
C113 H131 0.929 . S
C114 C113 1.409 . S
C114 C115 1.380 . S
C114 H132 0.930 . S
C115 C114 1.380 . S
C115 C122 1.357 . S
C116 C107 1.511 . S
C116 C117 1.341 . S
C116 C118 1.371 . S
C117 C116 1.341 . S
C117 C121 1.394 . S
C117 H133 0.930 . S
C118 C116 1.371 . S
C118 C119 1.392 . S
C118 H134 0.931 . S
C119 C118 1.392 . S
C119 C120 1.331 . S
C119 H137 0.932 . S
C120 C119 1.331 . S
C120 C121 1.336 . S
C121 C117 1.394 . S
C121 C120 1.336 . S
C121 H136 0.929 . S
C122 C112 1.386 . S
C122 C115 1.357 . S
C122 H135 0.928 . S
H123 C99 0.931 . S
H124 C101 0.930 . S
H125 C103 0.929 . S
H126 C104 0.931 . S
H127 C106 0.930 . S
H128 C110 0.931 . S
H129 C108 0.930 1_655 S
H130 C112 0.931 . S
H131 C113 0.929 . S
H132 C114 0.930 . S
H133 C117 0.930 . S
H134 C118 0.931 . S
H135 C122 0.928 . S
H136 C121 0.929 . S
H137 C119 0.932 . S
C138 C139 1.386 . S
C138 C140 1.397 . S
C138 H162 0.931 . S
C139 C138 1.386 . S
C139 C143 1.397 . S
C140 C138 1.397 . S
C140 C141 1.384 . S
C140 H163 0.930 . S
C141 C140 1.384 . S
C141 C142 1.377 . S
C141 C144 1.481 . S
C142 C141 1.377 . S
C142 C143 1.389 . S
C142 H164 0.929 . S
C143 C139 1.397 . S
C143 C142 1.389 . S
C143 H165 0.931 . S
C144 C141 1.481 . S
C144 C145 1.387 . S
C144 C149 1.390 . S
C145 C144 1.387 . S
C145 C146 1.401 . S
C145 H166 0.930 . S
C146 C145 1.401 . S
C146 C147 1.376 . S
C146 C155 1.511 . S
C147 C146 1.376 . S
C147 C148 1.392 . S
C147 H168 0.931 . S
C148 C147 1.392 . S
C148 C149 1.361 . S
C148 C150 1.500 . S
C149 C144 1.390 . S
C149 C148 1.361 . S
C149 H167 0.931 . S
C150 C148 1.500 . S
C150 C151 1.371 . S
C150 C152 1.365 . S
C151 C150 1.371 . S
C151 C161 1.386 1_556 S
C151 H169 0.931 . S
C152 C150 1.365 . S
C152 C153 1.409 . S
C152 H170 0.929 . S
C153 C152 1.409 . S
C153 C154 1.380 . S
C153 H171 0.930 . S
C154 C153 1.380 . S
C154 C161 1.357 1_556 S
C155 C146 1.511 . S
C155 C156 1.341 . S
C155 C157 1.371 . S
C156 C155 1.341 . S
C156 C160 1.394 . S
C156 H172 0.930 . S
C157 C155 1.371 . S
C157 C158 1.392 1_556 S
C157 H173 0.929 1_556 S
C158 C157 1.392 1_554 S
C158 C159 1.331 1_554 S
C158 H176 0.932 . S
C159 C158 1.331 1_556 S
C159 C160 1.336 . S
C160 C156 1.394 . S
C160 C159 1.336 . S
C160 H175 0.929 . S
C161 C151 1.386 1_554 S
C161 C154 1.357 1_554 S
C161 H174 0.928 . S
H162 C138 0.931 . S
H163 C140 0.930 . S
H164 C142 0.929 . S
H165 C143 0.931 . S
H166 C145 0.930 . S
H167 C149 0.931 . S
H168 C147 0.931 . S
H169 C151 0.931 . S
H170 C152 0.929 . S
H171 C153 0.930 . S
H172 C156 0.930 . S
H173 C157 0.929 1_554 S
H174 C161 0.928 . S
H175 C160 0.929 . S
H176 C158 0.932 . S
C177 C178 1.386 . S
C177 C179 1.397 . S
C177 H201 0.931 . S
C178 C177 1.386 . S
C178 C182 1.397 . S
C179 C177 1.397 . S
C179 C180 1.384 . S
C179 H202 0.930 . S
C180 C179 1.384 . S
C180 C181 1.377 . S
C180 C183 1.481 . S
C181 C180 1.377 . S
C181 C182 1.389 . S
C181 H203 0.929 . S
C182 C178 1.397 . S
C182 C181 1.389 . S
C182 H204 0.931 . S
C183 C180 1.481 . S
C183 C184 1.387 . S
C183 C188 1.390 . S
C184 C183 1.387 . S
C184 C185 1.401 . S
C184 H205 0.930 . S
C185 C184 1.401 . S
C185 C186 1.376 . S
C185 C194 1.511 . S
C186 C185 1.376 . S
C186 C187 1.392 . S
C186 H207 0.931 . S
C187 C186 1.392 . S
C187 C188 1.361 . S
C187 C189 1.500 . S
C188 C183 1.390 . S
C188 C187 1.361 . S
C188 H206 0.931 . S
C189 C187 1.500 . S
C189 C190 1.371 . S
C189 C191 1.365 . S
C190 C189 1.371 . S
C190 C200 1.386 . S
C190 H208 0.931 . S
C191 C189 1.365 . S
C191 C192 1.409 . S
C191 H209 0.929 . S
C192 C191 1.409 . S
C192 C193 1.380 . S
C192 H210 0.930 . S
C193 C192 1.380 . S
C193 C200 1.357 . S
C194 C185 1.511 . S
C194 C195 1.341 . S
C194 C196 1.371 . S
C195 C194 1.341 . S
C195 C199 1.394 . S
C195 H211 0.930 . S
C196 C194 1.371 . S
C196 C197 1.392 . S
C196 H212 0.931 . S
C197 C196 1.392 . S
C197 C198 1.331 . S
C197 H215 0.932 . S
C198 C197 1.331 . S
C198 C199 1.336 . S
C199 C195 1.394 . S
C199 C198 1.336 . S
C199 H214 0.929 . S
C200 C190 1.386 . S
C200 C193 1.357 . S
C200 H213 0.928 . S
H201 C177 0.931 . S
H202 C179 0.930 . S
H203 C181 0.929 . S
H204 C182 0.931 . S
H205 C184 0.930 . S
H206 C188 0.931 . S
H207 C186 0.931 . S
H208 C190 0.931 . S
H209 C191 0.929 . S
H210 C192 0.930 . S
H211 C195 0.930 . S
H212 C196 0.931 . S
H213 C200 0.928 . S
H214 C199 0.929 . S
H215 C197 0.932 . S
H216 C222 0.930 . S
H217 C226 0.930 1_556 S
H218 C231 0.929 . S
H219 C229 0.929 . S
H220 C224 0.937 . S
H221 C230 0.929 . S
C222 H216 0.930 . S
C222 C223 1.367 . S
C222 C230 1.378 . S
C223 C222 1.367 . S
C223 C231 1.433 1_554 S
C224 H220 0.937 . S
C224 C226 1.378 1_556 S
C224 C228 1.342 1_556 S
C225 C228 1.463 . S
C225 C230 1.350 . S
C225 N233 1.427 1_554 S
C226 H217 0.930 1_554 S
C226 C224 1.378 1_554 S
C226 C227 1.367 . S
C227 C226 1.367 . S
C227 C229 1.433 . S
C228 C224 1.342 1_554 S
C228 C225 1.463 . S
C228 N232 1.427 . S
C229 H219 0.929 . S
C229 C227 1.433 . S
C229 N232 1.384 . S
C230 H221 0.929 . S
C230 C222 1.378 . S
C230 C225 1.350 . S
C231 H218 0.929 . S
C231 C223 1.433 1_556 S
C231 N233 1.384 . S
N232 C228 1.427 . S
N232 C229 1.384 . S
N233 C225 1.427 1_556 S
N233 C231 1.384 . S
H234 C240 0.930 . S
H235 C244 0.930 . S
H236 C249 0.929 . S
H237 C247 0.929 . S
H238 C242 0.929 . S
H239 C248 0.929 . S
C240 H234 0.930 . S
C240 C241 1.367 . S
C240 C248 1.378 . S
C241 C240 1.367 . S
C241 C249 1.433 1_554 S
C242 H238 0.929 . S
C242 C244 1.378 . S
C242 C246 1.350 1_556 S
C243 C246 1.463 . S
C243 C248 1.350 . S
C243 N251 1.427 1_554 S
C244 H235 0.930 . S
C244 C242 1.378 . S
C244 C245 1.363 1_556 S
C245 C244 1.363 1_554 S
C245 C247 1.437 . S
C246 C242 1.350 1_554 S
C246 C243 1.463 . S
C246 N250 1.427 . S
C247 H237 0.929 . S
C247 C245 1.437 . S
C247 N250 1.384 . S
C248 H239 0.929 . S
C248 C240 1.378 . S
C248 C243 1.350 . S
C249 H236 0.929 . S
C249 C241 1.433 1_556 S
C249 N251 1.384 . S
N250 C246 1.427 . S
N250 C247 1.384 . S
N251 C243 1.427 1_556 S
N251 C249 1.384 . S
H252 C258 0.930 . S
H253 C262 0.930 . S
H254 C267 0.929 . S
H255 C265 0.929 . S
H256 C260 0.929 . S
H257 C266 0.929 . S
C258 H252 0.930 . S
C258 C259 1.367 . S
C258 C266 1.378 . S
C259 C258 1.367 . S
C259 C267 1.433 . S
C260 H256 0.929 . S
C260 C262 1.378 . S
C260 C264 1.350 . S
C261 C264 1.463 . S
C261 C266 1.350 . S
C261 N269 1.427 . S
C262 H253 0.930 . S
C262 C260 1.378 . S
C262 C263 1.367 . S
C263 C262 1.367 . S
C263 C265 1.433 . S
C264 C260 1.350 . S
C264 C261 1.463 . S
C264 N268 1.427 . S
C265 H255 0.929 . S
C265 C263 1.433 . S
C265 N268 1.384 . S
C266 H257 0.929 . S
C266 C258 1.378 . S
C266 C261 1.350 . S
C267 H254 0.929 . S
C267 C259 1.433 . S
C267 N269 1.384 . S
N268 C264 1.427 . S
N268 C265 1.384 . S
N269 C261 1.427 . S
N269 C267 1.384 . S
H270 C276 0.930 . S
H271 C280 0.930 . S
H272 C285 0.929 . S
H273 C283 0.929 . S
H274 C278 0.929 . S
H275 C284 0.929 . S
C276 H270 0.930 . S
C276 C277 1.367 1_556 S
C276 C284 1.378 . S
C277 C276 1.367 1_554 S
C277 C285 1.433 . S
C278 H274 0.929 . S
C278 C280 1.378 . S
C278 C282 1.350 . S
C279 C282 1.463 . S
C279 C284 1.350 1_554 S
C279 N287 1.427 . S
C280 H271 0.930 . S
C280 C278 1.378 . S
C280 C281 1.364 1_554 S
C281 C280 1.364 1_556 S
C281 C283 1.436 . S
C282 C278 1.350 . S
C282 C279 1.463 . S
C282 N286 1.427 1_554 S
C283 H273 0.929 . S
C283 C281 1.436 . S
C283 N286 1.384 . S
C284 H275 0.929 . S
C284 C276 1.378 . S
C284 C279 1.350 1_556 S
C285 H272 0.929 . S
C285 C277 1.433 . S
C285 N287 1.384 . S
N286 C282 1.427 1_556 S
N286 C283 1.384 . S
N287 C279 1.427 . S
N287 C285 1.384 . S
H288 C294 0.930 . S
H289 C298 0.930 . S
H290 C303 0.929 . S
H291 C301 0.929 . S
H292 C296 0.929 . S
H293 C302 0.929 . S
C294 H288 0.930 . S
C294 C295 1.367 . S
C294 C302 1.378 . S
C295 C294 1.367 . S
C295 C303 1.433 . S
C296 H292 0.929 . S
C296 C298 1.378 . S
C296 C300 1.350 . S
C297 C300 1.463 . S
C297 C302 1.350 . S
C297 N305 1.427 . S
C298 H289 0.930 . S
C298 C296 1.378 . S
C298 C299 1.367 . S
C299 C298 1.367 . S
C299 C301 1.433 . S
C300 C296 1.350 . S
C300 C297 1.463 . S
C300 N304 1.427 . S
C301 H291 0.929 . S
C301 C299 1.433 . S
C301 N304 1.384 . S
C302 H293 0.929 . S
C302 C294 1.378 . S
C302 C297 1.350 . S
C303 H290 0.929 . S
C303 C295 1.433 . S
C303 N305 1.384 . S
N304 C300 1.427 . S
N304 C301 1.384 . S
N305 C297 1.427 . S
N305 C303 1.384 . S
H306 C312 0.930 . S
H307 C316 0.930 . S
H308 C321 0.929 . S
H309 C319 0.929 . S
H310 C314 0.929 . S
H311 C320 0.929 . S
C312 H306 0.930 . S
C312 C313 1.367 . S
C312 C320 1.378 . S
C313 C312 1.367 . S
C313 C321 1.433 . S
C314 H310 0.929 . S
C314 C316 1.378 . S
C314 C318 1.350 . S
C315 C318 1.463 . S
C315 C320 1.350 . S
C315 N323 1.427 . S
C316 H307 0.930 . S
C316 C314 1.378 . S
C316 C317 1.367 . S
C317 C316 1.367 . S
C317 C319 1.433 . S
C318 C314 1.350 . S
C318 C315 1.463 . S
C318 N322 1.427 . S
C319 H309 0.929 . S
C319 C317 1.433 . S
C319 N322 1.384 . S
C320 H311 0.929 . S
C320 C312 1.378 . S
C320 C315 1.350 . S
C321 H308 0.929 . S
C321 C313 1.433 . S
C321 N323 1.384 . S
N322 C318 1.427 . S
N322 C319 1.384 . S
N323 C315 1.427 . S
N323 C321 1.384 . S
H324 C330 0.930 . S
H325 C334 0.930 . S
H326 C339 0.929 . S
H327 C337 0.929 . S
H328 C332 0.929 . S
H329 C338 0.929 . S
C330 H324 0.930 . S
C330 C331 1.367 . S
C330 C338 1.378 . S
C331 C330 1.367 . S
C331 C339 1.433 . S
C332 H328 0.929 . S
C332 C334 1.378 . S
C332 C336 1.350 . S
C333 C336 1.463 . S
C333 C338 1.350 . S
C333 N341 1.427 . S
C334 H325 0.930 . S
C334 C332 1.378 . S
C334 C335 1.367 . S
C335 C334 1.367 . S
C335 C337 1.433 . S
C336 C332 1.350 . S
C336 C333 1.463 . S
C336 N340 1.427 . S
C337 H327 0.929 . S
C337 C335 1.433 . S
C337 N340 1.384 . S
C338 H329 0.929 . S
C338 C330 1.378 . S
C338 C333 1.350 . S
C339 H326 0.929 . S
C339 C331 1.433 . S
C339 N341 1.384 . S
N340 C336 1.427 . S
N340 C337 1.384 . S
N341 C333 1.427 . S
N341 C339 1.384 . S
H342 C348 0.930 . S
H343 C352 0.930 . S
H344 C357 0.929 . S
H345 C355 0.929 . S
H346 C350 0.929 . S
H347 C356 0.929 . S
C348 H342 0.930 . S
C348 C349 1.367 . S
C348 C356 1.378 . S
C349 C348 1.367 . S
C349 C357 1.433 . S
C350 H346 0.929 . S
C350 C352 1.378 . S
C350 C354 1.350 . S
C351 C354 1.463 . S
C351 C356 1.350 . S
C351 N359 1.427 . S
C352 H343 0.930 . S
C352 C350 1.378 . S
C352 C353 1.367 . S
C353 C352 1.367 . S
C353 C355 1.433 . S
C354 C350 1.350 . S
C354 C351 1.463 . S
C354 N358 1.427 . S
C355 H345 0.929 . S
C355 C353 1.433 . S
C355 N358 1.384 . S
C356 H347 0.929 . S
C356 C348 1.378 . S
C356 C351 1.350 . S
C357 H344 0.929 . S
C357 C349 1.433 . S
C357 N359 1.384 . S
N358 C354 1.427 . S
N358 C355 1.384 . S
N359 C351 1.427 . S
N359 C357 1.384 . S
H360 C366 0.930 . S
H361 C370 0.930 . S
H362 C375 0.929 . S
H363 C373 0.929 . S
H364 C368 0.929 . S
H365 C374 0.929 . S
C366 H360 0.930 . S
C366 C367 1.367 . S
C366 C374 1.378 . S
C367 C366 1.367 . S
C367 C375 1.433 1_455 S
C368 H364 0.929 . S
C368 C370 1.378 . S
C368 C372 1.350 1_655 S
C369 C372 1.463 . S
C369 C374 1.350 . S
C369 N377 1.427 1_455 S
C370 H361 0.930 . S
C370 C368 1.378 . S
C370 C371 1.367 1_655 S
C371 C370 1.367 1_455 S
C371 C373 1.433 . S
C372 C368 1.350 1_455 S
C372 C369 1.463 . S
C372 N376 1.427 . S
C373 H363 0.929 . S
C373 C371 1.433 . S
C373 N376 1.384 . S
C374 H365 0.929 . S
C374 C366 1.378 . S
C374 C369 1.350 . S
C375 H362 0.929 . S
C375 C367 1.433 1_655 S
C375 N377 1.384 . S
N376 C372 1.427 . S
N376 C373 1.384 . S
N377 C369 1.427 1_655 S
N377 C375 1.384 . S
H378 C384 0.930 1_565 S
H379 C388 0.930 . S
H380 C393 0.929 . S
H381 C391 0.929 1_565 S
H382 C386 0.929 . S
H383 C392 0.929 1_565 S
C384 H378 0.930 1_545 S
C384 C385 1.367 1_655 S
C384 C392 1.378 . S
C385 C384 1.367 1_455 S
C385 C393 1.433 . S
C386 H382 0.929 . S
C386 C388 1.378 . S
C386 C390 1.350 . S
C387 C390 1.463 . S
C387 C392 1.350 1_455 S
C387 N395 1.427 . S
C388 H379 0.930 . S
C388 C386 1.378 . S
C388 C389 1.367 . S
C389 C388 1.367 . S
C389 C391 1.433 1_455 S
C390 C386 1.350 . S
C390 C387 1.463 . S
C390 N394 1.427 1_455 S
C391 H381 0.929 1_545 S
C391 C389 1.433 1_655 S
C391 N394 1.384 . S
C392 H383 0.929 1_545 S
C392 C384 1.378 . S
C392 C387 1.350 1_655 S
C393 H380 0.929 . S
C393 C385 1.433 . S
C393 N395 1.384 . S
N394 C390 1.427 1_655 S
N394 C391 1.384 . S
N395 C387 1.427 . S
N395 C393 1.384 . S
H396 C402 0.930 . S
H397 C406 0.930 . S
H398 C411 0.929 . S
H399 C409 0.929 . S
H400 C404 0.929 . S
H401 C410 0.929 . S
C402 H396 0.930 . S
C402 C403 1.367 . S
C402 C410 1.378 . S
C403 C402 1.367 . S
C403 C411 1.433 . S
C404 H400 0.929 . S
C404 C406 1.378 . S
C404 C408 1.350 . S
C405 C408 1.463 . S
C405 C410 1.350 . S
C405 N413 1.427 . S
C406 H397 0.930 . S
C406 C404 1.378 . S
C406 C407 1.367 . S
C407 C406 1.367 . S
C407 C409 1.433 . S
C408 C404 1.350 . S
C408 C405 1.463 . S
C408 N412 1.427 . S
C409 H399 0.929 . S
C409 C407 1.433 . S
C409 N412 1.384 . S
C410 H401 0.929 . S
C410 C402 1.378 . S
C410 C405 1.350 . S
C411 H398 0.929 . S
C411 C403 1.433 . S
C411 N413 1.384 . S
N412 C408 1.427 . S
N412 C409 1.384 . S
N413 C405 1.427 . S
N413 C411 1.384 . S
H414 C420 0.930 . S
H415 C424 0.930 . S
H416 C429 0.929 . S
H417 C427 0.929 . S
H418 C422 0.929 . S
H419 C428 0.929 . S
C420 H414 0.930 . S
C420 C421 1.367 . S
C420 C428 1.378 . S
C421 C420 1.367 . S
C421 C429 1.433 . S
C422 H418 0.929 . S
C422 C424 1.378 . S
C422 C426 1.350 . S
C423 C426 1.463 . S
C423 C428 1.350 . S
C423 N431 1.427 . S
C424 H415 0.930 . S
C424 C422 1.378 . S
C424 C425 1.367 . S
C425 C424 1.367 . S
C425 C427 1.433 . S
C426 C422 1.350 . S
C426 C423 1.463 . S
C426 N430 1.427 . S
C427 H417 0.929 . S
C427 C425 1.433 . S
C427 N430 1.384 . S
C428 H419 0.929 . S
C428 C420 1.378 . S
C428 C423 1.350 . S
C429 H416 0.929 . S
C429 C421 1.433 . S
C429 N431 1.384 . S
N430 C426 1.427 . S
N430 C427 1.384 . S
N431 C423 1.427 . S
N431 C429 1.384 . S
C227 C193 1.461 . S
C223 C27 1.495 . S
C241 N6 1.405 . S
C245 C154 1.403 1_554 S
C259 C16 1.477 . S
C263 C198 1.445 . S
C277 N14 1.413 . S
C281 C159 1.411 . S
C295 C57 1.495 . S
C299 C115 1.453 . S
C313 N36 1.404 . S
C317 C76 1.407 . S
C335 C120 1.443 . S
C331 C46 1.478 . S
C353 C81 1.411 . S
C349 N44 1.410 . S
C367 C10 1.387 . S
C371 C61 1.393 . S
C385 C1 1.528 . S
C389 C100 1.534 . S
C407 C139 1.393 . S
C403 C40 1.388 . S
C421 C31 1.530 . S
C425 C178 1.534 . S
