# Generated by pormake.
# Topology anh, (6,3)-cn, num edge types: 1
# Building blocks:
#     Node 0, Type 0, BuildingBlock: PAMTOO_clean_sbu_0, # of connection points: 6
#     Node 1, Type 0, BuildingBlock: PAMTOO_clean_sbu_0, # of connection points: 6
#     Node 2, Type 0, BuildingBlock: PAMTOO_clean_sbu_0, # of connection points: 6
#     Node 3, Type 1, BuildingBlock: BELTOD_clean_linker_0, # of connection points: 3
#     Node 4, Type 1, BuildingBlock: BELTOD_clean_linker_0, # of connection points: 3
#     Node 5, Type 1, BuildingBlock: BELTOD_clean_linker_0, # of connection points: 3
#     Node 6, Type 1, BuildingBlock: BELTOD_clean_linker_0, # of connection points: 3
#     Node 7, Type 1, BuildingBlock: BELTOD_clean_linker_0, # of connection points: 3
#     Node 8, Type 1, BuildingBlock: BELTOD_clean_linker_0, # of connection points: 3
#     Edge 9, Type (0, 1), BuildingBlock: MIFKUJ_clean_linker_0, # of connection points: 2
#     Edge 10, Type (0, 1), BuildingBlock: MIFKUJ_clean_linker_0, # of connection points: 2
#     Edge 11, Type (0, 1), BuildingBlock: MIFKUJ_clean_linker_0, # of connection points: 2
#     Edge 12, Type (0, 1), BuildingBlock: MIFKUJ_clean_linker_0, # of connection points: 2
#     Edge 13, Type (0, 1), BuildingBlock: MIFKUJ_clean_linker_0, # of connection points: 2
#     Edge 14, Type (0, 1), BuildingBlock: MIFKUJ_clean_linker_0, # of connection points: 2
#     Edge 15, Type (0, 1), BuildingBlock: MIFKUJ_clean_linker_0, # of connection points: 2
#     Edge 16, Type (0, 1), BuildingBlock: MIFKUJ_clean_linker_0, # of connection points: 2
#     Edge 17, Type (0, 1), BuildingBlock: MIFKUJ_clean_linker_0, # of connection points: 2
#     Edge 18, Type (0, 1), BuildingBlock: MIFKUJ_clean_linker_0, # of connection points: 2
#     Edge 19, Type (0, 1), BuildingBlock: MIFKUJ_clean_linker_0, # of connection points: 2
#     Edge 20, Type (0, 1), BuildingBlock: MIFKUJ_clean_linker_0, # of connection points: 2
#     Edge 21, Type (0, 1), BuildingBlock: MIFKUJ_clean_linker_0, # of connection points: 2
#     Edge 22, Type (0, 1), BuildingBlock: MIFKUJ_clean_linker_0, # of connection points: 2
#     Edge 23, Type (0, 1), BuildingBlock: MIFKUJ_clean_linker_0, # of connection points: 2
#     Edge 24, Type (0, 1), BuildingBlock: MIFKUJ_clean_linker_0, # of connection points: 2
#     Edge 25, Type (0, 1), BuildingBlock: MIFKUJ_clean_linker_0, # of connection points: 2
#     Edge 26, Type (0, 1), BuildingBlock: MIFKUJ_clean_linker_0, # of connection points: 2
# Relax obj value: 0.155
# Max RMSD: 0.183
# Mean RMSD: 0.142
data_MOF--net-anh--node1-PAMTOO_clean_sbu_0--node2-BELTOD_clean_linker_0--edge1-MIFKUJ_clean_linker_0
_symmetry_space_group_name_H-M    P1
_symmetry_Int_Tables_number       1
_symmetry_cell_setting            triclinic
loop_
_symmetry_equiv_pos_as_xyz
'x, y, z'
_cell_length_a     44.502947
_cell_length_b     42.187818
_cell_length_c     76.787294
_cell_angle_alpha  90.803054
_cell_angle_beta   95.262226
_cell_angle_gamma 109.55838
loop_
_atom_site_label
_atom_site_type_symbol
_atom_site_fract_x
_atom_site_fract_y
_atom_site_fract_z
_atom_type_partial_charge
Dy0 Dy 0.03131 0.59049 0.14626 0.0
Dy1 Dy 1.00238 0.50864 0.13841 0.0
C2 C 1.01204 0.55905 0.10775 0.0
O3 O 0.97804 0.57841 0.1489 0.0
O4 O 0.95786 0.52372 0.13745 0.0
O5 O 0.0545 0.63975 0.13697 0.0
O6 O 0.04154 0.63465 0.1636 0.0
O7 O 0.99878 0.51829 0.16664 0.0
O8 O 0.04158 0.56678 0.17079 0.0
O9 O 0.05636 0.51976 0.14194 0.0
O10 O 0.07469 0.57728 0.13974 0.0
O11 O 1.00054 0.45871 0.14536 0.0
O12 O 0.97088 0.46532 0.12263 0.0
C13 C 0.95339 0.55129 0.14329 0.0
O14 O 1.0081 0.58061 0.11895 0.0
O15 O 1.01701 0.53168 0.1131 0.0
C16 C 0.0892 0.67833 0.15853 0.0
C17 C 0.1508 0.72486 0.16929 0.0
C18 C 0.14723 0.69377 0.16086 0.0
C19 C 0.11676 0.6707 0.15561 0.0
C20 C 0.09254 0.709 0.16713 0.0
C21 C 0.12303 0.73204 0.17251 0.0
C22 C 0.05704 0.65493 0.15223 0.0
C23 C 1.02129 0.54031 0.17705 0.0
C24 C 0.08011 0.54832 0.14049 0.0
C25 C 0.94871 0.41836 0.13942 0.0
C26 C 0.89412 0.36916 0.15056 0.0
C27 C 0.91101 0.39835 0.16115 0.0
C28 C 0.93792 0.42277 0.1556 0.0
C29 C 0.93195 0.38947 0.12877 0.0
C30 C 0.90489 0.36513 0.13425 0.0
C31 C 0.97691 0.44402 0.13339 0.0
H32 H 0.16796 0.68748 0.15794 0.0
H33 H 0.11473 0.64711 0.14901 0.0
H34 H 0.07154 0.71525 0.16958 0.0
H35 H 0.1248 0.75542 0.17924 0.0
H36 H 0.90373 0.40218 0.17386 0.0
H37 H 0.95036 0.44504 0.16399 0.0
H38 H 0.93971 0.3858 0.11616 0.0
H39 H 0.89222 0.34333 0.12559 0.0
Dy40 Dy 0.513 0.02007 0.51798 0.0
Dy41 Dy 0.59222 0.04788 0.5221 0.0
C42 C 0.55323 0.03071 0.55504 0.0
O43 O 0.52644 0.07561 0.51497 0.0
O44 O 0.57833 0.09282 0.52796 0.0
O45 O 0.46847 0.99735 0.52913 0.0
O46 O 0.4679 0.0123 0.50226 0.0
O47 O 0.57549 0.05793 0.49519 0.0
O48 O 0.52947 0.0126 0.49208 0.0
O49 O 0.57852 0.99236 0.51639 0.0
O50 O 0.52608 0.97405 0.52288 0.0
O51 O 0.63669 0.05102 0.51198 0.0
O52 O 0.63727 0.07647 0.53682 0.0
C53 C 0.55255 0.09937 0.52188 0.0
O54 O 0.52995 0.0376 0.5459 0.0
O55 O 0.57675 0.02618 0.5474 0.0
C56 C 0.42632 0.96354 0.50895 0.0
C57 C 0.37807 0.90126 0.49889 0.0
C58 C 0.40731 0.90236 0.50807 0.0
C59 C 0.43125 0.93318 0.51297 0.0
C60 C 0.39738 0.96264 0.49971 0.0
C61 C 0.3735 0.93182 0.49468 0.0
C62 C 0.45098 0.99623 0.5144 0.0
C63 C 0.55242 0.0357 0.48517 0.0
C64 C 0.55229 0.96813 0.51967 0.0
C65 C 0.6781 0.10316 0.51908 0.0
C66 C 0.72486 0.16215 0.50918 0.0
C67 C 0.69624 0.14674 0.49826 0.0
C68 C 0.67302 0.11762 0.50319 0.0
C69 C 0.70638 0.11858 0.53007 0.0
C70 C 0.7295 0.14782 0.52522 0.0
C71 C 0.6541 0.07237 0.52448 0.0
H72 H 0.41156 0.87942 0.51174 0.0
H73 H 0.45349 0.93326 0.52003 0.0
H74 H 0.39325 0.98582 0.49639 0.0
H75 H 0.35156 0.93196 0.48735 0.0
H76 H 0.69198 0.1568 0.48573 0.0
H77 H 0.65121 0.10631 0.49454 0.0
H78 H 0.71058 0.10798 0.54246 0.0
H79 H 0.75093 0.15931 0.53411 0.0
Dy80 Dy 0.5512 0.49271 0.84672 0.0
Dy81 Dy 0.47368 0.46069 0.83697 0.0
C82 C 0.52045 0.47905 0.80715 0.0
O83 O 0.53287 0.53484 0.85209 0.0
O84 O 0.48649 0.51617 0.83353 0.0
O85 O 0.59585 0.53378 0.84686 0.0
O86 O 0.59511 0.48682 0.85819 0.0
O87 O 0.48089 0.48035 0.86487 0.0
O88 O 0.53061 0.47653 0.87181 0.0
O89 O 0.48993 0.41729 0.84375 0.0
O90 O 0.54116 0.43991 0.83641 0.0
O91 O 0.42682 0.43013 0.84339 0.0
O92 O 0.43233 0.45332 0.81836 0.0
C93 C 0.50911 0.54058 0.84275 0.0
O94 O 0.54204 0.50032 0.81835 0.0
O95 O 0.49558 0.45576 0.81245 0.0
C96 C 0.64 0.51555 0.84324 0.0
C97 C 0.69366 0.51699 0.82589 0.0
C98 C 0.67569 0.53772 0.82082 0.0
C99 C 0.64918 0.53702 0.82939 0.0
C100 C 0.65743 0.49421 0.84803 0.0
C101 C 0.6839 0.4948 0.8394 0.0
C102 C 0.61286 0.51574 0.85294 0.0
C103 C 0.504 0.47933 0.87656 0.0
C104 C 0.51664 0.41372 0.83965 0.0
C105 C 0.38686 0.45099 0.83181 0.0
C106 C 0.33983 0.48093 0.83491 0.0
C107 C 0.36992 0.49409 0.84474 0.0
C108 C 0.39328 0.4793 0.84316 0.0
C109 C 0.35685 0.43751 0.82209 0.0
C110 C 0.33343 0.45242 0.82361 0.0
C111 C 0.41229 0.43721 0.82921 0.0
H112 H 0.68288 0.55555 0.8107 0.0
H113 H 0.63632 0.55386 0.82537 0.0
H114 H 0.65088 0.47738 0.85864 0.0
H115 H 0.69708 0.47832 0.84352 0.0
H116 H 0.37572 0.51638 0.85332 0.0
H117 H 0.41658 0.49033 0.85054 0.0
H118 H 0.35173 0.41582 0.81315 0.0
H119 H 0.31038 0.44171 0.81596 0.0
P120 P 0.57541 0.00648 0.24072 0.0
H121 H 0.54978 0.95528 0.21224 0.0
H122 H 0.49509 0.92452 0.19954 0.0
H123 H 0.45981 0.98787 0.23075 0.0
H124 H 0.51473 0.01888 0.24321 0.0
H125 H 0.64294 0.0279 0.23518 0.0
H126 H 0.67835 0.07655 0.22187 0.0
H127 H 0.59991 0.11448 0.21126 0.0
H128 H 0.56432 0.06531 0.22478 0.0
H129 H 0.54437 0.96307 0.26725 0.0
H130 H 0.59696 0.06874 0.26366 0.0
O131 O 0.59253 0.9768 0.24078 0.0
H132 H 0.53891 0.9726 0.29802 0.0
H133 H 0.59106 0.07869 0.29446 0.0
C134 C 0.53618 0.98885 0.22892 0.0
C135 C 0.53033 0.96289 0.21615 0.0
C136 C 0.49903 0.9452 0.20897 0.0
C137 C 0.47303 0.95333 0.21438 0.0
C138 C 0.47928 0.98097 0.22629 0.0
C139 C 0.51066 0.99863 0.23349 0.0
C140 C 0.60084 0.04264 0.23063 0.0
C141 C 0.63319 0.04646 0.22986 0.0
C142 C 0.65344 0.07429 0.22219 0.0
C143 C 0.64186 0.09917 0.21529 0.0
C144 C 0.60953 0.09571 0.21645 0.0
C145 C 0.58914 0.06759 0.22406 0.0
C146 C 0.57113 0.01511 0.26321 0.0
C147 C 0.55456 0.9884 0.27309 0.0
C148 C 0.55124 0.99395 0.29065 0.0
C149 C 0.56443 0.02646 0.29871 0.0
C150 C 0.58088 0.05331 0.2887 0.0
C151 C 0.58415 0.04768 0.27105 0.0
P152 P 0.60472 0.55136 0.5713 0.0
H153 H 0.63726 0.52385 0.5469 0.0
H154 H 0.62504 0.46719 0.53401 0.0
H155 H 0.53159 0.43745 0.55302 0.0
H156 H 0.54374 0.49463 0.56549 0.0
H157 H 0.64354 0.62182 0.56948 0.0
H158 H 0.6319 0.67081 0.55887 0.0
H159 H 0.53493 0.60784 0.5411 0.0
H160 H 0.54682 0.55848 0.55221 0.0
H161 H 0.59446 0.49431 0.59371 0.0
H162 H 0.58088 0.59087 0.59514 0.0
O163 O 0.64438 0.56232 0.57583 0.0
H164 H 0.57622 0.48396 0.62279 0.0
H165 H 0.56284 0.5807 0.62435 0.0
C166 C 0.59172 0.51321 0.55753 0.0
C167 C 0.61383 0.5054 0.54793 0.0
C168 C 0.6069 0.47286 0.54068 0.0
C169 C 0.57766 0.44748 0.54288 0.0
C170 C 0.55437 0.4563 0.5511 0.0
C171 C 0.56131 0.48901 0.55829 0.0
C172 C 0.59624 0.58632 0.56131 0.0
C173 C 0.6199 0.61829 0.56303 0.0
C174 C 0.6132 0.64643 0.55689 0.0
C175 C 0.58254 0.64337 0.54894 0.0
C176 C 0.55878 0.61116 0.5472 0.0
C177 C 0.56558 0.58287 0.55338 0.0
C178 C 0.58818 0.54292 0.592 0.0
C179 C 0.5869 0.51299 0.60011 0.0
C180 C 0.57649 0.50709 0.61675 0.0
C181 C 0.56786 0.53141 0.62578 0.0
C182 C 0.56934 0.56151 0.61768 0.0
C183 C 0.57945 0.56723 0.60092 0.0
P184 P 0.08126 0.73354 0.88418 0.0
H185 H 0.12487 0.7493 0.85703 0.0
H186 H 0.16378 0.72403 0.84829 0.0
H187 H 0.1474 0.6616 0.89302 0.0
H188 H 0.10956 0.68713 0.90177 0.0
H189 H 0.03394 0.75909 0.86584 0.0
H190 H 0.98982 0.73376 0.84298 0.0
H191 H 1.01646 0.64419 0.84124 0.0
H192 H 0.06094 0.67016 0.86343 0.0
H193 H 0.10015 0.75922 0.92046 0.0
H194 H 0.03157 0.67129 0.89276 0.0
O195 O 0.09298 0.77551 0.88509 0.0
H196 H 0.08654 0.73346 0.94837 0.0
H197 H 1.01785 0.64566 0.92044 0.0
C198 C 0.11452 0.72038 0.88011 0.0
C199 C 0.13041 0.73082 0.86517 0.0
C200 C 0.15234 0.71614 0.86011 0.0
C201 C 0.15861 0.69077 0.86994 0.0
C202 C 0.14355 0.68145 0.8853 0.0
C203 C 0.12168 0.69606 0.89031 0.0
C204 C 0.05079 0.71662 0.86621 0.0
C205 C 0.03057 0.73428 0.86025 0.0
C206 C 1.00527 0.71966 0.84725 0.0
C207 C 0.9995 0.68686 0.84025 0.0
C208 C 1.02047 0.6697 0.84601 0.0
C209 C 0.04587 0.68447 0.85883 0.0
C210 C 0.0665 0.71754 0.90452 0.0
C211 C 0.0816 0.7348 0.92038 0.0
C212 C 0.07387 0.72 0.93631 0.0
C213 C 0.05123 0.68746 0.93657 0.0
C214 C 0.03563 0.6706 0.92064 0.0
C215 C 0.04325 0.68547 0.90477 0.0
P216 P 0.07914 0.4763 0.42049 0.0
H217 H 0.1285 0.49481 0.45011 0.0
H218 H 0.16228 0.54918 0.46394 0.0
H219 H 0.11067 0.59917 0.43036 0.0
H220 H 0.07659 0.54459 0.41683 0.0
H221 H 0.05119 0.40532 0.4274 0.0
H222 H 1.00335 0.37309 0.44078 0.0
H223 H 0.98076 0.46384 0.44877 0.0
H224 H 0.02898 0.49614 0.4352 0.0
H225 H 0.11998 0.50635 0.39369 0.0
H226 H 1.01844 0.46247 0.3976 0.0
O227 O 0.10351 0.45358 0.42089 0.0
H228 H 0.10929 0.51593 0.36281 0.0
H229 H 1.00748 0.47258 0.36677 0.0
C230 C 0.10061 0.51583 0.43219 0.0
C231 C 0.12426 0.51746 0.44586 0.0
C232 C 0.14363 0.54855 0.45369 0.0
C233 C 0.13949 0.57854 0.44806 0.0
C234 C 0.11444 0.57655 0.43504 0.0
C235 C 0.09508 0.54539 0.4272 0.0
C236 C 0.04395 0.45321 0.43065 0.0
C237 C 0.03616 0.41841 0.43216 0.0
C238 C 1.00881 0.4 0.43985 0.0
C239 C 0.98848 0.41599 0.44602 0.0
C240 C 0.99597 0.45084 0.44414 0.0
C241 C 1.02358 0.46933 0.43651 0.0
C242 C 0.07008 0.48364 0.3979 0.0
C243 C 0.09536 0.49895 0.38789 0.0
C244 C 0.08918 0.50462 0.37028 0.0
C245 C 0.0575 0.4951 0.36232 0.0
C246 C 0.03215 0.47989 0.37246 0.0
C247 C 0.03839 0.47424 0.39013 0.0
P248 P 0.57989 0.99923 0.80199 0.0
H249 H 0.59701 0.04275 0.83378 0.0
H250 H 0.58259 0.09142 0.84225 0.0
H251 H 0.5102 0.0686 0.79805 0.0
H252 H 0.5245 0.01972 0.78975 0.0
H253 H 0.61268 0.95087 0.80693 0.0
H254 H 0.5962 0.89253 0.81507 0.0
H255 H 0.50087 0.89408 0.82033 0.0
H256 H 0.5178 0.95324 0.812 0.0
H257 H 0.61832 0.04063 0.77662 0.0
H258 H 0.52906 0.95802 0.77562 0.0
O259 O 0.61925 0.01537 0.80801 0.0
H260 H 0.61125 0.04159 0.74475 0.0
H261 H 0.52181 0.95884 0.7436 0.0
C262 C 0.56228 0.02792 0.81095 0.0
C263 C 0.57749 0.04769 0.82614 0.0
C264 C 0.56941 0.07572 0.83089 0.0
C265 C 0.54574 0.08436 0.8206 0.0
C266 C 0.52859 0.06273 0.80624 0.0
C267 C 0.53681 0.03473 0.80146 0.0
C268 C 0.56672 0.95671 0.8093 0.0
C269 C 0.58834 0.93896 0.81011 0.0
C270 C 0.57887 0.90549 0.8148 0.0
C271 C 0.54732 0.88867 0.81862 0.0
C272 C 0.52538 0.90633 0.81752 0.0
C273 C 0.53504 0.94016 0.81289 0.0
C274 C 0.57459 0.99874 0.77844 0.0
C275 C 0.59736 0.02242 0.76952 0.0
C276 C 0.5933 0.02294 0.75129 0.0
C277 C 0.56612 9e-05 0.74166 0.0
C278 C 0.54297 0.97679 0.75068 0.0
C279 C 0.54721 0.97611 0.76895 0.0
P280 P 0.50604 0.51842 0.12357 0.0
H281 H 0.54626 0.5019 0.15258 0.0
H282 H 0.60355 0.51046 0.1569 0.0
H283 H 0.62011 0.58126 0.11591 0.0
H284 H 0.5626 0.57256 0.11165 0.0
H285 H 0.43913 0.4798 0.11559 0.0
H286 H 0.38858 0.4874 0.11909 0.0
H287 H 0.43882 0.58451 0.14527 0.0
H288 H 0.49056 0.57678 0.14111 0.0
H289 H 0.52403 0.47743 0.0984 0.0
H290 H 0.48774 0.56026 0.097 0.0
O291 O 0.497 0.47798 0.12832 0.0
H292 H 0.52253 0.476 0.06656 0.0
H293 H 0.48657 0.55934 0.06502 0.0
C294 C 0.54919 0.53661 0.13181 0.0
C295 C 0.56212 0.5202 0.14484 0.0
C296 C 0.59525 0.52467 0.1471 0.0
C297 C 0.61715 0.54606 0.13653 0.0
C298 C 0.60455 0.5645 0.12439 0.0
C299 C 0.57127 0.55976 0.12204 0.0
C300 C 0.46931 0.52716 0.12844 0.0
C301 C 0.43966 0.50271 0.12236 0.0
C302 C 0.41022 0.50708 0.12448 0.0
C303 C 0.40858 0.53633 0.13286 0.0
C304 C 0.43846 0.56145 0.13876 0.0
C305 C 0.46838 0.55699 0.13654 0.0
C306 C 0.50529 0.5184 0.10003 0.0
C307 C 0.51566 0.49529 0.09121 0.0
C308 C 0.51506 0.49472 0.07299 0.0
C309 C 0.5043 0.51749 0.0632 0.0
C310 C 0.49449 0.54111 0.07214 0.0
C311 C 0.4952 0.5417 0.09042 0.0
H312 H 0.10178 0.49371 0.14002 0.0
H313 H 0.15643 0.49316 0.139 0.0
H314 H 0.1916 0.60148 0.13861 0.0
H315 H 0.1368 0.60206 0.13915 0.0
H316 H 0.22422 0.58042 0.11776 0.0
H317 H 0.19979 0.55236 0.17608 0.0
H318 H 0.16811 0.52028 0.19866 0.0
H319 H 0.18221 0.43029 0.18018 0.0
H320 H 0.21327 0.46166 0.15711 0.0
H321 H 0.39059 0.59412 0.13366 0.0
H322 H 0.33737 0.59823 0.13582 0.0
H323 H 0.29764 0.49046 0.1385 0.0
H324 H 0.35065 0.48639 0.1374 0.0
H325 H 0.26792 0.51335 0.15884 0.0
H326 H 0.28982 0.54066 0.09957 0.0
H327 H 0.32029 0.57243 0.07642 0.0
H328 H 0.31112 0.66365 0.09687 0.0
H329 H 0.2809 0.63247 0.12026 0.0
C330 C 0.12102 0.51754 0.13973 0.0
C331 C 0.11419 0.54794 0.13977 0.0
C332 C 0.1527 0.51723 0.13925 0.0
C333 C 0.17915 0.54733 0.13904 0.0
C334 C 0.17226 0.57769 0.13881 0.0
C335 C 0.14056 0.578 0.13919 0.0
C336 C 0.21363 0.5472 0.13908 0.0
C337 C 0.23372 0.56603 0.12696 0.0
C338 C 0.22682 0.52815 0.15073 0.0
C339 C 0.20861 0.50932 0.16476 0.0
C340 C 0.19598 0.52569 0.17675 0.0
C341 C 0.17813 0.50762 0.18965 0.0
C342 C 0.17316 0.47327 0.19088 0.0
C343 C 0.18606 0.4569 0.1792 0.0
C344 C 0.20375 0.4748 0.16619 0.0
C345 C 0.37072 0.5712 0.1349 0.0
C346 C 0.37578 0.53982 0.13504 0.0
C347 C 0.33977 0.57354 0.13589 0.0
C348 C 0.31237 0.54458 0.1369 0.0
C349 C 0.31763 0.51344 0.13757 0.0
C350 C 0.34844 0.51112 0.1367 0.0
C351 C 0.27846 0.54627 0.13737 0.0
C352 C 0.25845 0.52775 0.14963 0.0
C353 C 0.26536 0.56557 0.12582 0.0
C354 C 0.28341 0.58431 0.11176 0.0
C355 C 0.29448 0.56754 0.09919 0.0
C356 C 0.31168 0.58543 0.08602 0.0
C357 C 0.31772 0.62005 0.0852 0.0
C358 C 0.30648 0.63684 0.09753 0.0
C359 C 0.2893 0.61907 0.11074 0.0
H360 H 0.33103 0.63386 0.075 0.0
H361 H 0.15935 0.45935 0.2009 0.0
H362 H 0.71695 0.21602 0.49198 0.0
H363 H 0.75865 0.26496 0.48228 0.0
H364 H 0.83134 0.2266 0.50461 0.0
H365 H 0.78999 0.17729 0.51395 0.0
H366 H 0.84602 0.29492 0.51237 0.0
H367 H 0.80952 0.21667 0.46174 0.0
H368 H 0.76878 0.18066 0.43926 0.0
H369 H 0.74585 0.26666 0.42144 0.0
H370 H 0.7862 0.30312 0.44399 0.0
H371 H 0.98428 0.36831 0.47013 0.0
H372 H 0.9363 0.33211 0.48209 0.0
H373 H 0.87938 0.38227 0.45286 0.0
H374 H 0.92747 0.41828 0.4405 0.0
H375 H 0.85199 0.31479 0.44905 0.0
H376 H 0.89316 0.39453 0.49683 0.0
H377 H 0.93349 0.43115 0.51926 0.0
H378 H 0.94684 0.34436 0.54267 0.0
H379 H 0.90692 0.3072 0.52022 0.0
C380 C 0.74179 0.21784 0.49472 0.0
C381 C 0.75006 0.1926 0.50373 0.0
C382 C 0.76558 0.24593 0.48924 0.0
C383 C 0.79806 0.24933 0.49268 0.0
C384 C 0.80642 0.22456 0.50193 0.0
C385 C 0.7827 0.19642 0.50731 0.0
C386 C 0.82352 0.27814 0.48629 0.0
C387 C 0.84748 0.29921 0.49853 0.0
C388 C 0.82471 0.2844 0.46827 0.0
C389 C 0.80058 0.26253 0.45468 0.0
C390 C 0.7956 0.22785 0.45312 0.0
C391 C 0.77262 0.20737 0.44035 0.0
C392 C 0.75466 0.22135 0.42897 0.0
C393 C 0.75973 0.25586 0.43029 0.0
C394 C 0.78266 0.27644 0.44305 0.0
C395 C 0.96157 0.37171 0.46627 0.0
C396 C 0.95961 0.39602 0.4543 0.0
C397 C 0.9342 0.35122 0.47325 0.0
C398 C 0.90427 0.35467 0.4685 0.0
C399 C 0.90226 0.37928 0.45676 0.0
C400 C 0.92975 0.39995 0.4498 0.0
C401 C 0.87507 0.33112 0.47511 0.0
C402 C 0.85035 0.31098 0.46292 0.0
C403 C 0.87308 0.32585 0.49319 0.0
C404 C 0.89717 0.34808 0.50675 0.0
C405 C 0.90487 0.38325 0.50667 0.0
C406 C 0.92763 0.40411 0.51941 0.0
C407 C 0.94275 0.3901 0.53236 0.0
C408 C 0.93511 0.35518 0.53262 0.0
C409 C 0.91238 0.3342 0.51991 0.0
H410 H 0.96037 0.40629 0.54221 0.0
H411 H 0.73688 0.20545 0.41909 0.0
H412 H 0.55337 0.59835 0.85834 0.0
H413 H 0.55385 0.65611 0.85565 0.0
H414 H 0.46402 0.62027 0.82288 0.0
H415 H 0.46357 0.56237 0.82529 0.0
H416 H 0.50474 0.67238 0.80892 0.0
H417 H 0.4685 0.65008 0.86554 0.0
H418 H 0.46942 0.63166 0.89585 0.0
H419 H 0.56073 0.70881 0.90913 0.0
H420 H 0.56059 0.7274 0.87882 0.0
H421 H 0.49209 0.83649 0.80728 0.0
H422 H 0.47941 0.77656 0.81292 0.0
H423 H 0.56875 0.79948 0.84571 0.0
H424 H 0.58106 0.85924 0.84055 0.0
H425 H 0.52223 0.75243 0.85984 0.0
H426 H 0.56037 0.77098 0.80266 0.0
H427 H 0.55992 0.78899 0.77225 0.0
H428 H 0.46477 0.71829 0.76011 0.0
H429 H 0.46449 0.70018 0.79054 0.0
C430 C 0.53353 0.60264 0.85068 0.0
C431 C 0.50842 0.57558 0.84204 0.0
C432 C 0.53378 0.63577 0.84921 0.0
C433 C 0.5088 0.64266 0.83921 0.0
C434 C 0.48356 0.61567 0.83069 0.0
C435 C 0.48331 0.58251 0.83213 0.0
C436 C 0.50977 0.67809 0.83707 0.0
C437 C 0.50794 0.68969 0.82008 0.0
C438 C 0.51452 0.70098 0.85158 0.0
C439 C 0.51464 0.68996 0.86985 0.0
C440 C 0.48889 0.66297 0.87488 0.0
C441 C 0.48926 0.65252 0.89207 0.0
C442 C 0.51515 0.669 0.9044 0.0
C443 C 0.5407 0.69604 0.89957 0.0
C444 C 0.54047 0.70657 0.88239 0.0
C445 C 0.50874 0.82881 0.81594 0.0
C446 C 0.53776 0.85267 0.82331 0.0
C447 C 0.50161 0.79449 0.81903 0.0
C448 C 0.52337 0.78334 0.82952 0.0
C449 C 0.55163 0.80732 0.8375 0.0
C450 C 0.55876 0.84152 0.83442 0.0
C451 C 0.51762 0.74675 0.83171 0.0
C452 C 0.51861 0.73497 0.8487 0.0
C453 C 0.51209 0.72367 0.8172 0.0
C454 C 0.51226 0.73453 0.79892 0.0
C455 C 0.53925 0.75948 0.79354 0.0
C456 C 0.53915 0.76967 0.7763 0.0
C457 C 0.51229 0.75488 0.76427 0.0
C458 C 0.48552 0.72978 0.76945 0.0
C459 C 0.48548 0.71954 0.78669 0.0
H460 H 0.51227 0.76279 0.75092 0.0
H461 H 0.51539 0.66087 0.9177 0.0
H462 H 0.89688 0.49727 0.14238 0.0
H463 H 0.84187 0.49701 0.14197 0.0
H464 H 0.87596 0.60551 0.1427 0.0
H465 H 0.93138 0.60575 0.14419 0.0
H466 H 0.8294 0.59145 0.16014 0.0
H467 H 0.83412 0.54487 0.10374 0.0
H468 H 0.84437 0.50621 0.08251 0.0
H469 H 0.77608 0.42186 0.10391 0.0
H470 H 0.76569 0.45999 0.12541 0.0
H471 H 0.67248 0.60088 0.13287 0.0
H472 H 0.72835 0.6027 0.13415 0.0
H473 H 0.69841 0.49691 0.14377 0.0
H474 H 0.64261 0.49485 0.14238 0.0
H475 H 0.74245 0.51056 0.12058 0.0
H476 H 0.73778 0.56013 0.17667 0.0
H477 H 0.72762 0.60077 0.19669 0.0
H478 H 0.79617 0.68254 0.1737 0.0
H479 H 0.80644 0.64239 0.15337 0.0
C480 C 0.89284 0.5212 0.14246 0.0
C481 C 0.91918 0.55154 0.14323 0.0
C482 C 0.86091 0.52105 0.14203 0.0
C483 C 0.8536 0.55121 0.14175 0.0
C484 C 0.88004 0.58161 0.14279 0.0
C485 C 0.9121 0.58177 0.14362 0.0
C486 C 0.81884 0.55109 0.14055 0.0
C487 C 0.81071 0.57398 0.15121 0.0
C488 C 0.79331 0.52823 0.12924 0.0
C489 C 0.79936 0.50525 0.11628 0.0
C490 C 0.82143 0.51805 0.10398 0.0
C491 C 0.82724 0.49624 0.09189 0.0
C492 C 0.81095 0.4616 0.09189 0.0
C493 C 0.78872 0.4487 0.10394 0.0
C494 C 0.78283 0.4704 0.11607 0.0
C495 C 0.67757 0.57787 0.13524 0.0
C496 C 0.65227 0.54775 0.13763 0.0
C497 C 0.70992 0.579 0.13611 0.0
C498 C 0.71844 0.55001 0.13925 0.0
C499 C 0.69318 0.51986 0.1414 0.0
C500 C 0.66093 0.51879 0.14075 0.0
C501 C 0.75325 0.55084 0.14012 0.0
C502 C 0.7613 0.52805 0.12942 0.0
C503 C 0.77874 0.57414 0.15117 0.0
C504 C 0.77263 0.59828 0.16338 0.0
C505 C 0.7505 0.58679 0.17579 0.0
C506 C 0.74476 0.60974 0.18721 0.0
C507 C 0.76117 0.64422 0.18643 0.0
C508 C 0.78344 0.65583 0.17426 0.0
C509 C 0.78925 0.63299 0.1628 0.0
H510 H 0.75669 0.66195 0.19529 0.0
H511 H 0.8155 0.44475 0.08253 0.0
H512 H 0.31298 0.88543 0.49893 0.0
H513 H 0.27111 0.83158 0.49049 0.0
H514 H 0.34306 0.7883 0.47979 0.0
H515 H 0.38496 0.84254 0.48726 0.0
H516 H 0.29566 0.76905 0.45496 0.0
H517 H 0.30373 0.77321 0.51784 0.0
H518 H 0.30407 0.79772 0.54723 0.0
H519 H 0.2076 0.79622 0.53448 0.0
H520 H 0.20684 0.7721 0.50492 0.0
H521 H 0.20458 0.5968 0.45375 0.0
H522 H 0.24313 0.65212 0.46313 0.0
H523 H 0.16577 0.69126 0.46648 0.0
H524 H 0.1268 0.63554 0.4574 0.0
H525 H 0.2136 0.71342 0.49464 0.0
H526 H 0.20581 0.70708 0.43181 0.0
H527 H 0.20609 0.68123 0.40285 0.0
H528 H 0.30331 0.6857 0.41618 0.0
H529 H 0.30345 0.71114 0.44533 0.0
C530 C 0.31993 0.86461 0.49457 0.0
C531 C 0.35244 0.8684 0.49383 0.0
C532 C 0.29594 0.83366 0.48996 0.0
C533 C 0.30393 0.80569 0.48477 0.0
C534 C 0.33629 0.80946 0.48385 0.0
C535 C 0.36028 0.84045 0.4883 0.0
C536 C 0.27862 0.77257 0.48005 0.0
C537 C 0.27799 0.75675 0.46375 0.0
C538 C 0.255 0.75681 0.49131 0.0
C539 C 0.25535 0.77117 0.50911 0.0
C540 C 0.28268 0.77834 0.52126 0.0
C541 C 0.28293 0.79212 0.53796 0.0
C542 C 0.2559 0.79861 0.5427 0.0
C543 C 0.22853 0.79123 0.53078 0.0
C544 C 0.22817 0.77748 0.51405 0.0
C545 C 0.19567 0.61699 0.45676 0.0
C546 C 0.1626 0.61177 0.45482 0.0
C547 C 0.21777 0.64867 0.46197 0.0
C548 C 0.20731 0.67586 0.46529 0.0
C549 C 0.17431 0.6706 0.4639 0.0
C550 C 0.15212 0.63885 0.45861 0.0
C551 C 0.23102 0.70991 0.4697 0.0
C552 C 0.23127 0.72587 0.48588 0.0
C553 C 0.25445 0.72574 0.4584 0.0
C554 C 0.25454 0.71076 0.44081 0.0
C555 C 0.22717 0.70233 0.42861 0.0
C556 C 0.22727 0.68779 0.41216 0.0
C557 C 0.25468 0.68176 0.40769 0.0
C558 C 0.28208 0.69036 0.41966 0.0
C559 C 0.2821 0.70487 0.43614 0.0
H560 H 0.2547 0.67049 0.39495 0.0
H561 H 0.25614 0.80928 0.55564 0.0
H562 H 0.57045 0.39656 0.83784 0.0
H563 H 0.57387 0.34014 0.83519 0.0
H564 H 0.47118 0.29678 0.83496 0.0
H565 H 0.46773 0.35314 0.83824 0.0
H566 H 0.49748 0.26108 0.85401 0.0
H567 H 0.51044 0.30295 0.7967 0.0
H568 H 0.5338 0.34336 0.77462 0.0
H569 H 0.62578 0.33325 0.78833 0.0
H570 H 0.60307 0.29312 0.81068 0.0
H571 H 0.48926 0.09791 0.81998 0.0
H572 H 0.48278 0.1531 0.82367 0.0
H573 H 0.58546 0.20042 0.83184 0.0
H574 H 0.5921 0.14565 0.82804 0.0
H575 H 0.55703 0.23289 0.80804 0.0
H576 H 0.54211 0.19055 0.86584 0.0
H577 H 0.51689 0.14948 0.88725 0.0
H578 H 0.42555 0.15925 0.87113 0.0
H579 H 0.45016 0.20005 0.84943 0.0
C580 C 0.54857 0.37503 0.83722 0.0
C581 C 0.51879 0.37942 0.83815 0.0
C582 C 0.55054 0.34271 0.83562 0.0
C583 C 0.52272 0.31404 0.83454 0.0
C584 C 0.49301 0.31839 0.83572 0.0
C585 C 0.49106 0.3507 0.83755 0.0
C586 C 0.52461 0.2796 0.83221 0.0
C587 C 0.51011 0.25484 0.84378 0.0
C588 C 0.54141 0.27134 0.81901 0.0
C589 C 0.5551 0.29525 0.80547 0.0
C590 C 0.5357 0.30951 0.79509 0.0
C591 C 0.54882 0.33235 0.78251 0.0
C592 C 0.58127 0.34093 0.7801 0.0
C593 C 0.60065 0.32661 0.79023 0.0
C594 C 0.58766 0.30379 0.80284 0.0
C595 C 0.51042 0.12008 0.82262 0.0
C596 C 0.54118 0.11731 0.82385 0.0
C597 C 0.50669 0.15157 0.8248 0.0
C598 C 0.53365 0.18091 0.82811 0.0
C599 C 0.56432 0.17816 0.82933 0.0
C600 C 0.56805 0.14675 0.82732 0.0
C601 C 0.53014 0.21464 0.82991 0.0
C602 C 0.54431 0.2392 0.81822 0.0
C603 C 0.51271 0.22255 0.84283 0.0
C604 C 0.49791 0.19806 0.85588 0.0
C605 C 0.51659 0.18371 0.86675 0.0
C606 C 0.50242 0.16053 0.87896 0.0
C607 C 0.46962 0.15169 0.88051 0.0
C608 C 0.45094 0.16608 0.86989 0.0
C609 C 0.46499 0.18925 0.85764 0.0
H610 H 0.4587 0.13375 0.88998 0.0
H611 H 0.59139 0.35863 0.77036 0.0
H612 H 0.50412 0.91166 0.52779 0.0
H613 H 0.50581 0.85467 0.5307 0.0
H614 H 0.60267 0.88779 0.5165 0.0
H615 H 0.60119 0.94487 0.51342 0.0
H616 H 0.56691 0.82684 0.5005 0.0
H617 H 0.58868 0.87797 0.5588 0.0
H618 H 0.57781 0.90753 0.58414 0.0
H619 H 0.48961 0.82636 0.58776 0.0
H620 H 0.49974 0.79653 0.56226 0.0
H621 H 0.62127 0.69727 0.53285 0.0
H622 H 0.61229 0.74988 0.52613 0.0
H623 H 0.51875 0.71168 0.54465 0.0
H624 H 0.52819 0.65935 0.55217 0.0
H625 H 0.54912 0.77362 0.5576 0.0
H626 H 0.52883 0.72071 0.50026 0.0
H627 H 0.53977 0.69134 0.47488 0.0
H628 H 0.62476 0.77545 0.46928 0.0
H629 H 0.61457 0.80516 0.49478 0.0
C630 C 0.52578 0.90688 0.52518 0.0
C631 C 0.55262 0.93304 0.52047 0.0
C632 C 0.5267 0.87424 0.52691 0.0
C633 C 0.5545 0.86701 0.52403 0.0
C634 C 0.58097 0.89278 0.51882 0.0
C635 C 0.58012 0.92547 0.51712 0.0
C636 C 0.5563 0.83283 0.52688 0.0
C637 C 0.56332 0.8153 0.51303 0.0
C638 C 0.55081 0.81741 0.5431 0.0
C639 C 0.5448 0.83518 0.55851 0.0
C640 C 0.56684 0.86654 0.56492 0.0
C641 C 0.56084 0.88333 0.57932 0.0
C642 C 0.533 0.86887 0.58752 0.0
C643 C 0.51115 0.83755 0.58137 0.0
C644 C 0.51701 0.82068 0.56695 0.0
C645 C 0.59876 0.69999 0.53553 0.0
C646 C 0.57552 0.67403 0.54315 0.0
C647 C 0.5935 0.73003 0.53148 0.0
C648 C 0.56469 0.73475 0.5347 0.0
C649 C 0.54115 0.70865 0.54199 0.0
C650 C 0.54645 0.67857 0.54613 0.0
C651 C 0.55992 0.76753 0.53123 0.0
C652 C 0.55241 0.78491 0.545 0.0
C653 C 0.56494 0.78278 0.51492 0.0
C654 C 0.57106 0.76505 0.49952 0.0
C655 C 0.54998 0.73285 0.49369 0.0
C656 C 0.55602 0.71616 0.47927 0.0
C657 C 0.58298 0.73149 0.47049 0.0
C658 C 0.6039 0.76359 0.4761 0.0
C659 C 0.59798 0.78039 0.49052 0.0
H660 H 0.58761 0.71852 0.45933 0.0
H661 H 0.52839 0.88191 0.59867 0.0
H662 H 0.70668 0.52644 0.79164 0.0
H663 H 0.75966 0.54418 0.78081 0.0
H664 H 0.80248 0.53575 0.83252 0.0
H665 H 0.7502 0.51835 0.84332 0.0
H666 H 0.80426 0.60019 0.79065 0.0
H667 H 0.87017 0.52347 0.83351 0.0
H668 H 0.86005 0.46437 0.8408 0.0
H669 H 0.7934 0.43107 0.79474 0.0
H670 H 0.80346 0.48995 0.78698 0.0
H671 H 0.93966 0.69014 0.84193 0.0
H672 H 0.8899 0.65511 0.82583 0.0
H673 H 0.94162 0.60662 0.79629 0.0
H674 H 0.99217 0.64252 0.81218 0.0
H675 H 0.89462 0.56135 0.81079 0.0
H676 H 0.89932 0.64911 0.77393 0.0
H677 H 0.90945 0.70727 0.76485 0.0
H678 H 0.83527 0.71568 0.79471 0.0
H679 H 0.82499 0.6578 0.80421 0.0
C680 C 0.72739 0.52775 0.80058 0.0
C681 C 0.72426 0.52125 0.81838 0.0
C682 C 0.75758 0.53767 0.79435 0.0
C683 C 0.78507 0.54104 0.80579 0.0
C684 C 0.78164 0.53252 0.82329 0.0
C685 C 0.75159 0.52263 0.8295 0.0
C686 C 0.8176 0.55877 0.80066 0.0
C687 C 0.82402 0.59145 0.79469 0.0
C688 C 0.84335 0.54685 0.80512 0.0
C689 C 0.83763 0.51127 0.80964 0.0
C690 C 0.8536 0.50359 0.82482 0.0
C691 C 0.84779 0.47009 0.82907 0.0
C692 C 0.82609 0.44398 0.81824 0.0
C693 C 0.81017 0.45132 0.80313 0.0
C694 C 0.81589 0.48477 0.79881 0.0
C695 C 0.94079 0.67299 0.83159 0.0
C696 C 0.97001 0.66916 0.82842 0.0
C697 C 0.91218 0.65285 0.82236 0.0
C698 C 0.91204 0.62842 0.80973 0.0
C699 C 0.94123 0.62539 0.80595 0.0
C700 C 0.97002 0.64578 0.81513 0.0
C701 C 0.88095 0.60358 0.80248 0.0
C702 C 0.87487 0.56959 0.80605 0.0
C703 C 0.85551 0.61406 0.79546 0.0
C704 C 0.86135 0.64897 0.78976 0.0
C705 C 0.88525 0.66339 0.77863 0.0
C706 C 0.89102 0.69633 0.77341 0.0
C707 C 0.873 0.71515 0.77918 0.0
C708 C 0.84915 0.70105 0.7902 0.0
C709 C 0.84329 0.66811 0.79548 0.0
H710 H 0.87751 0.74065 0.77513 0.0
H711 H 0.82161 0.41807 0.82157 0.0
H712 H 0.20521 0.71268 0.18241 0.0
H713 H 0.25883 0.75337 0.18976 0.0
H714 H 0.22382 0.83446 0.17601 0.0
H715 H 0.1704 0.79372 0.16769 0.0
H716 H 0.2789 0.84463 0.16346 0.0
H717 H 0.24079 0.81762 0.2194 0.0
H718 H 0.217 0.78074 0.24275 0.0
H719 H 0.29458 0.74137 0.24578 0.0
H720 H 0.31863 0.77769 0.22227 0.0
H721 H 0.42087 0.97228 0.20418 0.0
H722 H 0.36527 0.93543 0.19644 0.0
H723 H 0.39402 0.84821 0.20414 0.0
H724 H 0.44928 0.88471 0.21215 0.0
H725 H 0.34095 0.8441 0.22045 0.0
H726 H 0.37761 0.87061 0.16346 0.0
H727 H 0.40099 0.9084 0.14035 0.0
H728 H 0.32539 0.95042 0.13997 0.0
H729 H 0.3018 0.91318 0.16327 0.0
C730 C 0.20889 0.73912 0.18078 0.0
C731 C 0.18334 0.74982 0.17446 0.0
C732 C 0.23956 0.76245 0.18521 0.0
C733 C 0.24534 0.7971 0.18371 0.0
C734 C 0.21995 0.80789 0.17737 0.0
C735 C 0.1893 0.78454 0.1728 0.0
C736 C 0.278 0.82192 0.18846 0.0
C737 C 0.29224 0.84486 0.17604 0.0
C738 C 0.29569 0.82198 0.20477 0.0
C739 C 0.28136 0.80018 0.21897 0.0
C740 C 0.25266 0.80092 0.22496 0.0
C741 C 0.23915 0.78014 0.23824 0.0
C742 C 0.25423 0.75867 0.24572 0.0
C743 C 0.28291 0.75799 0.23996 0.0
C744 C 0.29651 0.7787 0.22668 0.0
C745 C 0.41531 0.94525 0.2042 0.0
C746 C 0.43954 0.93143 0.20868 0.0
C747 C 0.38359 0.92424 0.19968 0.0
C748 C 0.37554 0.88906 0.19963 0.0
C749 C 0.39969 0.87526 0.20407 0.0
C750 C 0.43134 0.89618 0.20848 0.0
C751 C 0.34189 0.86642 0.19538 0.0
C752 C 0.32747 0.84395 0.20792 0.0
C753 C 0.32399 0.86699 0.17925 0.0
C754 C 0.33815 0.88938 0.16525 0.0
C755 C 0.36614 0.88812 0.15856 0.0
C756 C 0.37939 0.9094 0.14541 0.0
C757 C 0.36474 0.93187 0.13873 0.0
C758 C 0.33675 0.93304 0.14517 0.0
C759 C 0.32341 0.91185 0.15835 0.0
H760 H 0.37503 0.94831 0.12854 0.0
H761 H 0.24373 0.7426 0.256 0.0
H762 H 0.50475 0.12419 0.51052 0.0
H763 H 0.50591 0.18252 0.51277 0.0
H764 H 0.60261 0.21304 0.5379 0.0
H765 H 0.60161 0.15495 0.53588 0.0
H766 H 0.56687 0.24059 0.55489 0.0
H767 H 0.58689 0.22822 0.49521 0.0
H768 H 0.57562 0.20196 0.46538 0.0
H769 H 0.48738 0.22294 0.45854 0.0
H770 H 0.49787 0.2488 0.48849 0.0
H771 H 0.62148 0.41543 0.54832 0.0
H772 H 0.6136 0.35596 0.54316 0.0
H773 H 0.51542 0.33778 0.52284 0.0
H774 H 0.5233 0.39787 0.52769 0.0
H775 H 0.54683 0.30295 0.50329 0.0
H776 H 0.52879 0.31784 0.56291 0.0
H777 H 0.54131 0.34455 0.59268 0.0
H778 H 0.6272 0.31907 0.59941 0.0
H779 H 0.61545 0.29265 0.56956 0.0
C780 C 0.52628 0.14328 0.51651 0.0
C781 C 0.55307 0.13476 0.52302 0.0
C782 C 0.52696 0.17668 0.51772 0.0
C783 C 0.55444 0.20225 0.5254 0.0
C784 C 0.58113 0.19377 0.53195 0.0
C785 C 0.58049 0.16047 0.53073 0.0
C786 C 0.55546 0.23782 0.52691 0.0
C787 C 0.56278 0.25427 0.54357 0.0
C788 C 0.54927 0.25548 0.51222 0.0
C789 C 0.54299 0.2401 0.49417 0.0
C790 C 0.56495 0.22697 0.4874 0.0
C791 C 0.55872 0.2122 0.47046 0.0
C792 C 0.53076 0.21071 0.46007 0.0
C793 C 0.509 0.22406 0.46661 0.0
C794 C 0.51507 0.23878 0.48357 0.0
C795 C 0.59834 0.39904 0.54242 0.0
C796 C 0.57304 0.41155 0.53837 0.0
C797 C 0.5938 0.36491 0.53963 0.0
C798 C 0.56384 0.34235 0.5328 0.0
C799 C 0.53873 0.35477 0.52818 0.0
C800 C 0.54321 0.38904 0.53105 0.0
C801 C 0.55876 0.30572 0.53121 0.0
C802 C 0.55065 0.28911 0.51459 0.0
C803 C 0.56433 0.28785 0.54592 0.0
C804 C 0.57136 0.3035 0.56394 0.0
C805 C 0.55048 0.31815 0.57068 0.0
C806 C 0.55741 0.33321 0.58758 0.0
C807 C 0.58507 0.33357 0.59791 0.0
C808 C 0.6058 0.3188 0.59138 0.0
C809 C 0.599 0.30375 0.57448 0.0
H810 H 0.59039 0.34524 0.61099 0.0
H811 H 0.526 0.19932 0.44694 0.0
H812 H 0.32302 0.50394 0.86451 0.0
H813 H 0.2872 0.53638 0.86662 0.0
H814 H 0.26605 0.52813 0.81041 0.0
H815 H 0.30275 0.49628 0.80819 0.0
H816 H 0.28024 0.59192 0.82278 0.0
H817 H 0.20905 0.48554 0.83545 0.0
H818 H 0.19086 0.43085 0.84924 0.0
H819 H 0.20504 0.48148 0.89978 0.0
H820 H 0.22379 0.53651 0.88633 0.0
H821 H 0.15934 0.66828 0.83642 0.0
H822 H 0.18719 0.63094 0.82688 0.0
H823 H 0.22965 0.63222 0.87979 0.0
H824 H 0.20265 0.67017 0.88936 0.0
H825 H 0.19714 0.56713 0.86432 0.0
H826 H 0.2747 0.6737 0.85047 0.0
H827 H 0.29162 0.72739 0.83564 0.0
H828 H 0.26203 0.67392 0.78558 0.0
H829 H 0.24452 0.6199 0.80014 0.0
C830 C 0.31065 0.50892 0.85261 0.0
C831 C 0.31573 0.49771 0.83619 0.0
C832 C 0.28997 0.52718 0.85383 0.0
C833 C 0.27374 0.53436 0.83868 0.0
C834 C 0.27827 0.52269 0.82226 0.0
C835 C 0.299 0.50433 0.82102 0.0
C836 C 0.25362 0.55575 0.84016 0.0
C837 C 0.26155 0.58616 0.83155 0.0
C838 C 0.22937 0.54826 0.85167 0.0
C839 C 0.21803 0.5152 0.85987 0.0
C840 C 0.20853 0.48503 0.84952 0.0
C841 C 0.19807 0.45396 0.85728 0.0
C842 C 0.19684 0.45269 0.87538 0.0
C843 C 0.20601 0.4825 0.88576 0.0
C844 C 0.21651 0.51365 0.87807 0.0
C845 C 0.17526 0.66131 0.84593 0.0
C846 C 0.17867 0.67201 0.86368 0.0
C847 C 0.19094 0.63981 0.84048 0.0
C848 C 0.2102 0.62872 0.85268 0.0
C849 C 0.21459 0.64032 0.87023 0.0
C850 C 0.19914 0.66194 0.87567 0.0
C851 C 0.22467 0.60371 0.84748 0.0
C852 C 0.21547 0.57255 0.85533 0.0
C853 C 0.24739 0.61034 0.83511 0.0
C854 C 0.25793 0.64281 0.82639 0.0
C855 C 0.27151 0.67341 0.8363 0.0
C856 C 0.28127 0.7039 0.82795 0.0
C857 C 0.2778 0.70408 0.80968 0.0
C858 C 0.26464 0.67375 0.79973 0.0
C859 C 0.25481 0.64319 0.80802 0.0
H860 H 0.28538 0.7277 0.80324 0.0
H861 H 0.18874 0.4286 0.88136 0.0
H862 H 0.87659 0.30049 0.14604 0.0
H863 H 0.82997 0.25759 0.15583 0.0
H864 H 0.80077 0.33496 0.17892 0.0
H865 H 0.84696 0.37823 0.16878 0.0
H866 H 0.7982 0.28352 0.20113 0.0
H867 H 0.7606 0.29488 0.14212 0.0
H868 H 0.76257 0.29767 0.11018 0.0
H869 H 0.76423 0.19656 0.10722 0.0
H870 H 0.76276 0.19333 0.1392 0.0
H871 H 0.64823 0.1659 0.21957 0.0
H872 H 0.68726 0.21427 0.20748 0.0
H873 H 0.72443 0.14708 0.18069 0.0
H874 H 0.68519 0.09877 0.1924 0.0
H875 H 0.71968 0.19696 0.16001 0.0
H876 H 0.76204 0.18744 0.21903 0.0
H877 H 0.76105 0.1845 0.25103 0.0
H878 H 0.75105 0.28215 0.25391 0.0
H879 H 0.75152 0.28546 0.22186 0.0
C880 C 0.86006 0.30852 0.15296 0.0
C881 C 0.86559 0.34294 0.15653 0.0
C882 C 0.83344 0.2839 0.15862 0.0
C883 C 0.81173 0.29308 0.16798 0.0
C884 C 0.81724 0.32732 0.17173 0.0
C885 C 0.84378 0.35201 0.16598 0.0
C886 C 0.78363 0.26677 0.17408 0.0
C887 C 0.78068 0.26496 0.19211 0.0
C888 C 0.7611 0.24221 0.16235 0.0
C889 C 0.76185 0.24397 0.14309 0.0
C890 C 0.76165 0.27333 0.13468 0.0
C891 C 0.76263 0.27497 0.11656 0.0
C892 C 0.7636 0.24734 0.10668 0.0
C893 C 0.76351 0.21796 0.1149 0.0
C894 C 0.76257 0.2162 0.13302 0.0
C895 C 0.66442 0.16146 0.2109 0.0
C896 C 0.66381 0.12853 0.20706 0.0
C897 C 0.68686 0.18911 0.20411 0.0
C898 C 0.70904 0.18432 0.19335 0.0
C899 C 0.70765 0.15141 0.189 0.0
C900 C 0.68537 0.12384 0.19582 0.0
C901 C 0.7345 0.21344 0.18707 0.0
C902 C 0.73698 0.21576 0.169 0.0
C903 C 0.75665 0.23843 0.19877 0.0
C904 C 0.75642 0.23652 0.21803 0.0
C905 C 0.75935 0.20816 0.22647 0.0
C906 C 0.75893 0.20645 0.24462 0.0
C907 C 0.75589 0.23308 0.25449 0.0
C908 C 0.75334 0.26152 0.24624 0.0
C909 C 0.75369 0.26333 0.22809 0.0
H910 H 0.75558 0.23171 0.26854 0.0
H911 H 0.76435 0.24866 0.09265 0.0
H912 H 1.01804 0.52067 0.07987 0.0
H913 H 1.02087 0.53603 0.04923 0.0
H914 H 1.01017 0.63095 0.06294 0.0
H915 H 1.00656 0.61561 0.09324 0.0
H916 H 0.97505 0.60544 0.03344 0.0
H917 H 0.08422 0.62303 0.05753 0.0
H918 H 0.12772 0.60555 0.07182 0.0
H919 H 0.11339 0.53169 0.03001 0.0
H920 H 0.06949 0.54845 0.01559 0.0
H921 H 0.04189 0.71407 0.96747 0.0
H922 H 0.03198 0.68613 0.99515 0.0
H923 H 0.03619 0.59482 0.9712 0.0
H924 H 0.04656 0.62276 0.94354 0.0
H925 H 0.07099 0.61086 0.00377 0.0
H926 H 0.96536 0.59846 0.9782 0.0
H927 H 0.9228 0.6175 0.96404 0.0
H928 H 0.9313 0.68309 0.00886 0.0
H929 H 0.97425 0.6648 0.0232 0.0
C930 C 1.01606 0.54468 0.0763 0.0
C931 C 1.01219 0.56693 0.08903 0.0
C932 C 1.01782 0.55349 0.05881 0.0
C933 C 1.01609 0.58482 0.05382 0.0
C934 C 1.01151 0.60663 0.06645 0.0
C935 C 1.00955 0.59781 0.08383 0.0
C936 C 1.01975 0.59569 0.0356 0.0
C937 C 0.99612 0.60679 0.027 0.0
C938 C 0.04684 0.59665 0.02699 0.0
C939 C 0.07334 0.58671 0.0356 0.0
C940 C 0.09019 0.60289 0.05146 0.0
C941 C 0.11494 0.59314 0.05957 0.0
C942 C 0.12325 0.56745 0.05185 0.0
C943 C 0.10689 0.55153 0.03598 0.0
C944 C 0.08208 0.56115 0.02783 0.0
C945 C 0.04081 0.68809 0.96813 0.0
C946 C 0.04481 0.67055 0.95332 0.0
C947 C 0.03495 0.67209 0.98389 0.0
C948 C 0.03304 0.6383 0.98515 0.0
C949 C 0.03743 0.62084 0.97046 0.0
C950 C 0.04309 0.63676 0.95466 0.0
C951 C 0.0267 0.6214 0.00188 0.0
C952 C 0.04975 0.60911 0.01014 0.0
C953 C 0.99918 0.61952 0.01024 0.0
C954 C 0.9732 0.63043 0.00171 0.0
C955 C 0.95832 0.61712 0.98499 0.0
C956 C 0.9341 0.62775 0.97694 0.0
C957 C 0.9244 0.65154 0.98553 0.0
C958 C 0.93886 0.66468 0.00222 0.0
C959 C 0.96311 0.65416 0.01032 0.0
H960 H 0.90564 0.65973 0.97928 0.0
H961 H 0.14242 0.55994 0.05815 0.0
H962 H 0.59974 0.07474 0.46659 0.0
H963 H 0.60032 0.07573 0.43486 0.0
H964 H 0.50592 0.00049 0.42832 0.0
H965 H 0.50547 0.99875 0.46011 0.0
H966 H 0.54312 0.98521 0.40751 0.0
H967 H 0.51927 0.08508 0.42062 0.0
H968 H 0.52716 0.13989 0.43548 0.0
H969 H 0.61833 0.18199 0.41526 0.0
H970 H 0.61124 0.12727 0.4005 0.0
H971 H 0.51216 0.99875 0.31668 0.0
H972 H 0.50913 0.00322 0.34818 0.0
H973 H 0.60696 0.07086 0.35508 0.0
H974 H 0.61036 0.06621 0.32355 0.0
H975 H 0.56747 0.09076 0.37546 0.0
H976 H 0.59166 0.99032 0.36321 0.0
H977 H 0.58334 0.93568 0.34805 0.0
H978 H 0.49061 0.89491 0.36669 0.0
H979 H 0.49819 0.9495 0.38176 0.0
C980 C 0.57902 0.05847 0.45842 0.0
C981 C 0.55252 0.03668 0.4659 0.0
C982 C 0.57933 0.05921 0.44025 0.0
C983 C 0.55297 0.03854 0.42916 0.0
C984 C 0.52651 0.01673 0.4366 0.0
C985 C 0.52627 0.01578 0.45479 0.0
C986 C 0.55342 0.03886 0.40983 0.0
C987 C 0.54793 0.00825 0.4005 0.0
C988 C 0.5605 0.06903 0.40068 0.0
C989 C 0.56484 0.10197 0.40957 0.0
C990 C 0.54113 0.10594 0.41946 0.0
C991 C 0.54543 0.13702 0.42784 0.0
C992 C 0.57324 0.16439 0.42632 0.0
C993 C 0.59681 0.16075 0.41643 0.0
C994 C 0.59265 0.12972 0.40804 0.0
C995 C 0.53307 0.01458 0.32488 0.0
C996 C 0.56164 0.03181 0.31761 0.0
C997 C 0.53125 0.01719 0.34288 0.0
C998 C 0.55797 0.03699 0.35399 0.0
C999 C 0.58607 0.05542 0.34672 0.0
C1000 C 0.58794 0.0528 0.32869 0.0
C1001 C 0.557 0.03715 0.37326 0.0
C1002 C 0.56251 0.06778 0.38253 0.0
C1003 C 0.54986 0.00702 0.38239 0.0
C1004 C 0.54537 0.97409 0.37347 0.0
C1005 C 0.56939 0.96978 0.36397 0.0
C1006 C 0.56483 0.93881 0.3554 0.0
C1007 C 0.53643 0.91187 0.35637 0.0
C1008 C 0.51257 0.91582 0.36594 0.0
C1009 C 0.517 0.94676 0.3745 0.0
H1010 H 0.53293 0.88791 0.34973 0.0
H1011 H 0.5765 0.18846 0.43276 0.0
H1012 H 0.56228 0.53067 0.7914 0.0
H1013 H 0.56642 0.53766 0.76013 0.0
H1014 H 0.49074 0.4423 0.7486 0.0
H1015 H 0.48621 0.43508 0.77999 0.0
H1016 H 0.54467 0.45209 0.72942 0.0
H1017 H 0.47254 0.50979 0.74292 0.0
H1018 H 0.45544 0.54994 0.75965 0.0
H1019 H 0.5362 0.63171 0.74587 0.0
H1020 H 0.55409 0.59196 0.72928 0.0
H1021 H 0.52668 0.47465 0.63835 0.0
H1022 H 0.51488 0.46438 0.66869 0.0
H1023 H 0.57774 0.56509 0.68452 0.0
H1024 H 0.58906 0.57565 0.65416 0.0
H1025 H 0.52661 0.55037 0.70138 0.0
H1026 H 0.60145 0.49492 0.68999 0.0
H1027 H 0.62191 0.45629 0.67428 0.0
H1028 H 0.54026 0.37234 0.685 0.0
H1029 H 0.51906 0.41057 0.70057 0.0
C1030 C 0.54656 0.51105 0.78226 0.0
C1031 C 0.52381 0.48234 0.7882 0.0
C1032 C 0.54889 0.51519 0.76438 0.0
C1033 C 0.52866 0.49067 0.75208 0.0
C1034 C 0.50647 0.46156 0.75792 0.0
C1035 C 0.50388 0.45752 0.77584 0.0
C1036 C 0.53075 0.49569 0.73312 0.0
C1037 C 0.54018 0.47321 0.72317 0.0
C1038 C 0.52572 0.5238 0.72518 0.0
C1039 C 0.5148 0.54783 0.73498 0.0
C1040 C 0.4868 0.53629 0.74357 0.0
C1041 C 0.47694 0.55899 0.75301 0.0
C1042 C 0.49476 0.59334 0.75385 0.0
C1043 C 0.52243 0.60508 0.74521 0.0
C1044 C 0.53242 0.58248 0.73578 0.0
C1045 C 0.53787 0.49461 0.64832 0.0
C1046 C 0.55891 0.52589 0.64392 0.0
C1047 C 0.53118 0.4887 0.66565 0.0
C1048 C 0.54586 0.51376 0.67896 0.0
C1049 C 0.56613 0.54536 0.67449 0.0
C1050 C 0.57255 0.55139 0.65714 0.0
C1051 C 0.5408 0.50687 0.69759 0.0
C1052 C 0.53085 0.52904 0.70753 0.0
C1053 C 0.54577 0.4787 0.70559 0.0
C1054 C 0.55849 0.45565 0.69627 0.0
C1055 C 0.58773 0.46826 0.68888 0.0
C1056 C 0.59948 0.44643 0.68001 0.0
C1057 C 0.58234 0.4119 0.67859 0.0
C1058 C 0.55347 0.39911 0.68608 0.0
C1059 C 0.54158 0.42084 0.69493 0.0
H1060 H 0.59148 0.39504 0.67173 0.0
H1061 H 0.4871 0.61088 0.76118 0.0
H1062 H 0.5048 0.02935 0.57495 0.0
H1063 H 0.50385 0.02225 0.60647 0.0
H1064 H 0.59971 0.0179 0.60999 0.0
H1065 H 0.60055 0.02414 0.57848 0.0
H1066 H 0.56374 0.97059 0.62831 0.0
H1067 H 0.58357 0.08925 0.6234 0.0
H1068 H 0.57284 0.13948 0.61243 0.0
H1069 H 0.48198 0.10759 0.63363 0.0
H1070 H 0.49199 0.05691 0.64454 0.0
H1071 H 0.61114 0.00476 0.71908 0.0
H1072 H 0.60532 0.00785 0.68724 0.0
H1073 H 0.50639 -0.0 0.68851 0.0
H1074 H 0.51218 0.99725 0.72049 0.0
H1075 H 0.53959 0.05104 0.66779 0.0
H1076 H 0.52254 0.93378 0.6744 0.0
H1077 H 0.53497 0.88465 0.68565 0.0
H1078 H 0.62282 0.91537 0.66141 0.0
H1079 H 0.61115 0.965 0.65024 0.0
C1080 C 0.52574 0.02702 0.58244 0.0
C1081 C 0.5528 0.02743 0.5742 0.0
C1082 C 0.52519 0.02306 0.60048 0.0
C1083 C 0.55184 0.0199 0.61065 0.0
C1084 C 0.57884 0.02025 0.60242 0.0
C1085 C 0.57931 0.02394 0.58439 0.0
C1086 C 0.55165 0.01586 0.62984 0.0
C1087 C 0.5588 0.98841 0.63695 0.0
C1088 C 0.54438 0.03858 0.6411 0.0
C1089 C 0.53838 0.06911 0.63462 0.0
C1090 C 0.56119 0.09282 0.62561 0.0
C1091 C 0.55526 0.12139 0.61942 0.0
C1092 C 0.52671 0.12667 0.62228 0.0
C1093 C 0.50406 0.10343 0.63139 0.0
C1094 C 0.50986 0.07479 0.63759 0.0
C1095 C 0.58816 0.00376 0.71258 0.0
C1096 C 0.56211 0.00078 0.72227 0.0
C1097 C 0.58481 0.0053 0.69439 0.0
C1098 C 0.55536 0.0039 0.68551 0.0
C1099 C 0.52929 0.00101 0.69512 0.0
C1100 C 0.53257 0.99921 0.71335 0.0
C1101 C 0.55215 0.00611 0.66621 0.0
C1102 C 0.54432 0.03315 0.6591 0.0
C1103 C 0.55906 0.98318 0.65496 0.0
C1104 C 0.5661 0.95328 0.66161 0.0
C1105 C 0.54464 0.93022 0.67159 0.0
C1106 C 0.55152 0.90225 0.67793 0.0
C1107 C 0.5797 0.89693 0.67428 0.0
C1108 C 0.60102 0.91954 0.66425 0.0
C1109 C 0.59427 0.94758 0.65789 0.0
H1110 H 0.58498 0.87525 0.6792 0.0
H1111 H 0.52216 0.14881 0.61748 0.0
H1112 H 0.54689 0.47744 0.90397 0.0
H1113 H 0.54291 0.48413 0.93511 0.0
H1114 H 0.45047 0.49551 0.92365 0.0
H1115 H 0.45441 0.48924 0.8922 0.0
H1116 H 0.48824 0.54188 0.94886 0.0
H1117 H 0.45495 0.4226 0.93893 0.0
H1118 H 0.45848 0.36888 0.92797 0.0
H1119 H 0.54693 0.38729 0.96051 0.0
H1120 H 0.54418 0.44138 0.97149 0.0
H1121 H 0.45701 0.52335 0.03919 0.0
H1122 H 0.45389 0.51787 0.00723 0.0
H1123 H 0.54541 0.50274 0.01126 0.0
H1124 H 0.54878 0.50838 0.04314 0.0
H1125 H 0.50232 0.45619 0.98938 0.0
H1126 H 0.53714 0.57692 0.99797 0.0
H1127 H 0.53401 0.63096 0.00872 0.0
H1128 H 0.4426 0.60979 0.97875 0.0
H1129 H 0.44499 0.55537 0.96799 0.0
C1130 C 0.52558 0.48125 0.90799 0.0
C1131 C 0.50086 0.4826 0.89553 0.0
C1132 C 0.52334 0.48498 0.92585 0.0
C1133 C 0.49622 0.48989 0.93175 0.0
C1134 C 0.47158 0.49162 0.91939 0.0
C1135 C 0.4738 0.48788 0.90143 0.0
C1136 C 0.49402 0.49334 0.95085 0.0
C1137 C 0.49073 0.52289 0.95771 0.0
C1138 C 0.49782 0.46881 0.96242 0.0
C1139 C 0.49946 0.43617 0.95594 0.0
C1140 C 0.47527 0.41531 0.94366 0.0
C1141 C 0.47712 0.38477 0.93746 0.0
C1142 C 0.50295 0.37471 0.94351 0.0
C1143 C 0.52695 0.39513 0.95582 0.0
C1144 C 0.52524 0.42571 0.96206 0.0
C1145 C 0.4767 0.51937 0.03326 0.0
C1146 C 0.50309 0.51616 0.04374 0.0
C1147 C 0.47484 0.51617 0.01498 0.0
C1148 C 0.49946 0.50998 0.00682 0.0
C1149 C 0.52603 0.50731 0.01726 0.0
C1150 C 0.52788 0.51045 0.03549 0.0
C1151 C 0.49722 0.50505 0.98747 0.0
C1152 C 0.49958 0.47511 0.98054 0.0
C1153 C 0.49254 0.52921 0.97588 0.0
C1154 C 0.49107 0.5619 0.98234 0.0
C1155 C 0.51624 0.58365 0.99379 0.0
C1156 C 0.51463 0.61438 -0.00014 0.0
C1157 C 0.48808 0.62376 0.99447 0.0
C1158 C 0.46312 0.60246 0.98295 0.0
C1159 C 0.4646 0.57169 0.97685 0.0
H1160 H 0.48688 0.64756 -0.00082 0.0
H1161 H 0.50433 0.35106 0.93869 0.0
H1162 H 0.0624 0.58276 0.20268 0.0
H1163 H 0.06697 0.57444 0.23405 0.0
H1164 H 0.99135 0.47811 0.22605 0.0
H1165 H 0.98617 0.4865 0.1946 0.0
H1166 H 0.98321 0.5125 0.25364 0.0
H1167 H 0.07071 0.48414 0.23371 0.0
H1168 H 0.11977 0.49245 0.21915 0.0
H1169 H 0.16995 0.57949 0.2531 0.0
H1170 H 0.12109 0.57197 0.2677 0.0
H1171 H 1.01359 0.45217 0.33776 0.0
H1172 H 1.00543 0.46006 0.3064 0.0
H1173 H 0.07922 0.5578 0.31277 0.0
H1174 H 0.08732 0.55024 0.34413 0.0
H1175 H 0.08768 0.52128 0.28593 0.0
H1176 H 1.00067 0.55037 0.30564 0.0
H1177 H 0.95228 0.54192 0.32081 0.0
H1178 H 0.90157 0.45393 0.28763 0.0
H1179 H 0.94983 0.46159 0.27241 0.0
C1180 C 0.04673 0.55976 0.20755 0.0
C1181 C 1.02398 0.53523 0.1961 0.0
C1182 C 0.04949 0.55498 0.22551 0.0
C1183 C 0.02982 0.52543 0.23238 0.0
C1184 C 1.00683 0.50107 0.22102 0.0
C1185 C 1.00396 0.50588 0.20305 0.0
C1186 C 0.03306 0.52018 0.25145 0.0
C1187 C 1.00595 0.51393 0.26066 0.0
C1188 C 0.06289 0.52281 0.26069 0.0
C1189 C 0.09214 0.52765 0.2517 0.0
C1190 C 0.09211 0.50524 0.23796 0.0
C1191 C 0.11991 0.50977 0.22972 0.0
C1192 C 0.14794 0.53651 0.23519 0.0
C1193 C 0.14822 0.5588 0.24887 0.0
C1194 C 0.12049 0.5544 0.25714 0.0
C1195 C 0.02772 0.47558 0.33254 0.0
C1196 C 0.05118 0.50054 0.34345 0.0
C1197 C 1.02307 0.48002 0.3146 0.0
C1198 C 0.04163 0.50959 0.30726 0.0
C1199 C 0.06473 0.53472 0.31815 0.0
C1200 C 0.0694 0.53031 0.33606 0.0
C1201 C 0.03792 0.51384 0.28812 0.0
C1202 C 0.06493 0.51983 0.2789 0.0
C1203 C 1.00804 0.511 0.27889 0.0
C1204 C 0.97898 0.50636 0.28801 0.0
C1205 C 0.97929 0.52905 0.30168 0.0
C1206 C 0.95187 0.52444 0.31026 0.0
C1207 C 0.9239 0.49735 0.30522 0.0
C1208 C 0.92327 0.47487 0.29154 0.0
C1209 C 0.95064 0.47935 0.28292 0.0
H1210 H 0.90269 0.49383 0.31188 0.0
H1211 H 0.16951 0.53993 0.22889 0.0
loop_
_geom_bond_atom_site_label_1
_geom_bond_atom_site_label_2
_geom_bond_distance
_geom_bond_site_symmetry_2
_ccdc_geom_bond_type
Dy0 O3 2.307 1_455 S
Dy0 O5 2.395 . S
Dy0 O6 2.379 . S
Dy0 O8 2.339 . S
Dy0 O10 2.298 . S
Dy0 O14 2.275 . S
Dy0 C22 2.738 . S
Dy1 O4 2.298 . S
Dy1 O7 2.275 1_655 S
Dy1 O9 2.307 1_655 S
Dy1 O11 2.395 . S
Dy1 O12 2.379 . S
Dy1 O15 2.339 . S
Dy1 C31 2.738 . S
C2 O14 1.254 . S
C2 O15 1.257 1_455 S
O3 Dy0 2.307 1_655 S
O3 C13 1.266 . S
O4 Dy1 2.298 . S
O4 C13 1.236 . S
O5 Dy0 2.395 . S
O5 C22 1.255 . S
O6 Dy0 2.379 . S
O6 C22 1.249 . S
O7 Dy1 2.275 1_455 S
O7 C23 1.254 . S
O8 Dy0 2.339 . S
O8 C23 1.257 . S
O9 Dy1 2.307 1_455 S
O9 C24 1.266 . S
O10 Dy0 2.298 . S
O10 C24 1.236 . S
O11 Dy1 2.395 . S
O11 C31 1.255 . S
O12 Dy1 2.379 . S
O12 C31 1.249 . S
C13 O3 1.266 . S
C13 O4 1.236 . S
O14 Dy0 2.275 . S
O14 C2 1.254 . S
O15 Dy1 2.339 . S
O15 C2 1.257 1_655 S
C16 C19 1.344 . S
C16 C20 1.328 . S
C16 C22 1.516 . S
C17 C18 1.304 . S
C17 C21 1.323 . S
C18 C17 1.304 . S
C18 C19 1.371 . S
C18 H32 0.930 . S
C19 C16 1.344 . S
C19 C18 1.371 . S
C19 H33 0.931 . S
C20 C16 1.328 . S
C20 C21 1.433 . S
C20 H34 0.931 . S
C21 C17 1.323 . S
C21 C20 1.433 . S
C21 H35 0.933 . S
C22 Dy0 2.738 . S
C22 O5 1.255 . S
C22 O6 1.249 . S
C22 C16 1.516 . S
C23 O7 1.254 . S
C23 O8 1.257 . S
C24 O9 1.266 . S
C24 O10 1.236 . S
C25 C28 1.344 . S
C25 C29 1.328 . S
C25 C31 1.516 . S
C26 C27 1.304 . S
C26 C30 1.323 . S
C27 C26 1.304 . S
C27 C28 1.371 . S
C27 H36 0.930 . S
C28 C25 1.344 . S
C28 C27 1.371 . S
C28 H37 0.931 . S
C29 C25 1.328 . S
C29 C30 1.433 . S
C29 H38 0.931 . S
C30 C26 1.323 . S
C30 C29 1.433 . S
C30 H39 0.933 . S
C31 Dy1 2.738 . S
C31 O11 1.255 . S
C31 O12 1.249 . S
C31 C25 1.516 . S
H32 C18 0.930 . S
H33 C19 0.931 . S
H34 C20 0.931 . S
H35 C21 0.933 . S
H36 C27 0.930 . S
H37 C28 0.931 . S
H38 C29 0.931 . S
H39 C30 0.933 . S
Dy40 O43 2.307 . S
Dy40 O45 2.395 1_545 S
Dy40 O46 2.379 1_545 S
Dy40 O48 2.339 . S
Dy40 O50 2.298 1_545 S
Dy40 O54 2.275 . S
Dy40 C62 2.738 1_545 S
Dy41 O44 2.298 . S
Dy41 O47 2.275 . S
Dy41 O49 2.307 1_545 S
Dy41 O51 2.395 . S
Dy41 O52 2.379 . S
Dy41 O55 2.339 . S
Dy41 C71 2.738 . S
C42 O54 1.254 . S
C42 O55 1.257 . S
O43 Dy40 2.307 . S
O43 C53 1.266 . S
O44 Dy41 2.298 . S
O44 C53 1.236 . S
O45 Dy40 2.395 1_565 S
O45 C62 1.255 . S
O46 Dy40 2.379 1_565 S
O46 C62 1.249 . S
O47 Dy41 2.275 . S
O47 C63 1.254 . S
O48 Dy40 2.339 . S
O48 C63 1.257 . S
O49 Dy41 2.307 1_565 S
O49 C64 1.266 . S
O50 Dy40 2.298 1_565 S
O50 C64 1.236 . S
O51 Dy41 2.395 . S
O51 C71 1.255 . S
O52 Dy41 2.379 . S
O52 C71 1.249 . S
C53 O43 1.266 . S
C53 O44 1.236 . S
O54 Dy40 2.275 . S
O54 C42 1.254 . S
O55 Dy41 2.339 . S
O55 C42 1.257 . S
C56 C59 1.344 . S
C56 C60 1.328 . S
C56 C62 1.516 . S
C57 C58 1.304 . S
C57 C61 1.323 . S
C58 C57 1.304 . S
C58 C59 1.371 . S
C58 H72 0.930 . S
C59 C56 1.344 . S
C59 C58 1.371 . S
C59 H73 0.931 . S
C60 C56 1.328 . S
C60 C61 1.433 . S
C60 H74 0.931 . S
C61 C57 1.323 . S
C61 C60 1.433 . S
C61 H75 0.933 . S
C62 Dy40 2.738 1_565 S
C62 O45 1.255 . S
C62 O46 1.249 . S
C62 C56 1.516 . S
C63 O47 1.254 . S
C63 O48 1.257 . S
C64 O49 1.266 . S
C64 O50 1.236 . S
C65 C68 1.344 . S
C65 C69 1.328 . S
C65 C71 1.516 . S
C66 C67 1.304 . S
C66 C70 1.323 . S
C67 C66 1.304 . S
C67 C68 1.371 . S
C67 H76 0.930 . S
C68 C65 1.344 . S
C68 C67 1.371 . S
C68 H77 0.931 . S
C69 C65 1.328 . S
C69 C70 1.433 . S
C69 H78 0.931 . S
C70 C66 1.323 . S
C70 C69 1.433 . S
C70 H79 0.933 . S
C71 Dy41 2.738 . S
C71 O51 1.255 . S
C71 O52 1.249 . S
C71 C65 1.516 . S
H72 C58 0.930 . S
H73 C59 0.931 . S
H74 C60 0.931 . S
H75 C61 0.933 . S
H76 C67 0.930 . S
H77 C68 0.931 . S
H78 C69 0.931 . S
H79 C70 0.933 . S
Dy80 O83 2.307 . S
Dy80 O85 2.395 . S
Dy80 O86 2.379 . S
Dy80 O88 2.339 . S
Dy80 O90 2.298 . S
Dy80 O94 2.275 . S
Dy80 C102 2.738 . S
Dy81 O84 2.298 . S
Dy81 O87 2.275 . S
Dy81 O89 2.307 . S
Dy81 O91 2.395 . S
Dy81 O92 2.379 . S
Dy81 O95 2.339 . S
Dy81 C111 2.738 . S
C82 O94 1.254 . S
C82 O95 1.257 . S
O83 Dy80 2.307 . S
O83 C93 1.266 . S
O84 Dy81 2.298 . S
O84 C93 1.236 . S
O85 Dy80 2.395 . S
O85 C102 1.255 . S
O86 Dy80 2.379 . S
O86 C102 1.249 . S
O87 Dy81 2.275 . S
O87 C103 1.254 . S
O88 Dy80 2.339 . S
O88 C103 1.257 . S
O89 Dy81 2.307 . S
O89 C104 1.266 . S
O90 Dy80 2.298 . S
O90 C104 1.236 . S
O91 Dy81 2.395 . S
O91 C111 1.255 . S
O92 Dy81 2.379 . S
O92 C111 1.249 . S
C93 O83 1.266 . S
C93 O84 1.236 . S
O94 Dy80 2.275 . S
O94 C82 1.254 . S
O95 Dy81 2.339 . S
O95 C82 1.257 . S
C96 C99 1.344 . S
C96 C100 1.328 . S
C96 C102 1.516 . S
C97 C98 1.304 . S
C97 C101 1.323 . S
C98 C97 1.304 . S
C98 C99 1.371 . S
C98 H112 0.930 . S
C99 C96 1.344 . S
C99 C98 1.371 . S
C99 H113 0.931 . S
C100 C96 1.328 . S
C100 C101 1.433 . S
C100 H114 0.931 . S
C101 C97 1.323 . S
C101 C100 1.433 . S
C101 H115 0.933 . S
C102 Dy80 2.738 . S
C102 O85 1.255 . S
C102 O86 1.249 . S
C102 C96 1.516 . S
C103 O87 1.254 . S
C103 O88 1.257 . S
C104 O89 1.266 . S
C104 O90 1.236 . S
C105 C108 1.344 . S
C105 C109 1.328 . S
C105 C111 1.516 . S
C106 C107 1.304 . S
C106 C110 1.323 . S
C107 C106 1.304 . S
C107 C108 1.371 . S
C107 H116 0.930 . S
C108 C105 1.344 . S
C108 C107 1.371 . S
C108 H117 0.931 . S
C109 C105 1.328 . S
C109 C110 1.433 . S
C109 H118 0.931 . S
C110 C106 1.323 . S
C110 C109 1.433 . S
C110 H119 0.933 . S
C111 Dy81 2.738 . S
C111 O91 1.255 . S
C111 O92 1.249 . S
C111 C105 1.516 . S
H112 C98 0.930 . S
H113 C99 0.931 . S
H114 C100 0.931 . S
H115 C101 0.933 . S
H116 C107 0.930 . S
H117 C108 0.931 . S
H118 C109 0.931 . S
H119 C110 0.933 . S
P120 O131 1.490 . S
P120 C134 1.812 . S
P120 C140 1.803 . S
P120 C146 1.819 . S
H121 C135 0.941 . S
H122 C136 0.939 . S
H123 C138 0.940 . S
H124 C139 0.940 . S
H125 C141 0.939 . S
H126 C142 0.942 . S
H127 C144 0.940 . S
H128 C145 0.939 . S
H129 C147 0.941 1_565 S
H130 C151 0.939 . S
O131 P120 1.490 . S
H132 C148 0.939 . S
H133 C150 0.940 . S
C134 P120 1.812 . S
C134 C135 1.389 1_545 S
C134 C139 1.391 . S
C135 H121 0.941 . S
C135 C134 1.389 1_565 S
C135 C136 1.397 . S
C136 H122 0.939 . S
C136 C135 1.397 . S
C136 C137 1.378 . S
C137 C136 1.378 . S
C137 C138 1.378 1_565 S
C138 H123 0.940 . S
C138 C137 1.378 1_545 S
C138 C139 1.396 . S
C139 H124 0.940 . S
C139 C134 1.391 . S
C139 C138 1.396 . S
C140 P120 1.803 . S
C140 C141 1.378 . S
C140 C145 1.400 . S
C141 H125 0.939 . S
C141 C140 1.378 . S
C141 C142 1.361 . S
C142 H126 0.942 . S
C142 C141 1.361 . S
C142 C143 1.369 . S
C143 C142 1.369 . S
C143 C144 1.404 . S
C144 H127 0.940 . S
C144 C143 1.404 . S
C144 C145 1.389 . S
C145 H128 0.939 . S
C145 C140 1.400 . S
C145 C144 1.389 . S
C146 P120 1.819 . S
C146 C147 1.391 . S
C146 C151 1.391 . S
C147 H129 0.941 1_545 S
C147 C146 1.391 . S
C147 C148 1.396 . S
C148 H132 0.939 . S
C148 C147 1.396 . S
C148 C149 1.397 . S
C149 C148 1.397 . S
C149 C150 1.385 . S
C150 H133 0.940 . S
C150 C149 1.385 . S
C150 C151 1.388 . S
C151 H130 0.939 . S
C151 C146 1.391 . S
C151 C150 1.388 . S
P152 O163 1.490 . S
P152 C166 1.812 . S
P152 C172 1.803 . S
P152 C178 1.819 . S
H153 C167 0.941 . S
H154 C168 0.939 . S
H155 C170 0.940 . S
H156 C171 0.940 . S
H157 C173 0.939 . S
H158 C174 0.942 . S
H159 C176 0.940 . S
H160 C177 0.939 . S
H161 C179 0.941 . S
H162 C183 0.939 . S
O163 P152 1.490 . S
H164 C180 0.939 . S
H165 C182 0.940 . S
C166 P152 1.812 . S
C166 C167 1.389 . S
C166 C171 1.391 . S
C167 H153 0.941 . S
C167 C166 1.389 . S
C167 C168 1.397 . S
C168 H154 0.939 . S
C168 C167 1.397 . S
C168 C169 1.378 . S
C169 C168 1.378 . S
C169 C170 1.378 . S
C170 H155 0.940 . S
C170 C169 1.378 . S
C170 C171 1.396 . S
C171 H156 0.940 . S
C171 C166 1.391 . S
C171 C170 1.396 . S
C172 P152 1.803 . S
C172 C173 1.378 . S
C172 C177 1.400 . S
C173 H157 0.939 . S
C173 C172 1.378 . S
C173 C174 1.361 . S
C174 H158 0.942 . S
C174 C173 1.361 . S
C174 C175 1.369 . S
C175 C174 1.369 . S
C175 C176 1.404 . S
C176 H159 0.940 . S
C176 C175 1.404 . S
C176 C177 1.389 . S
C177 H160 0.939 . S
C177 C172 1.400 . S
C177 C176 1.389 . S
C178 P152 1.819 . S
C178 C179 1.391 . S
C178 C183 1.391 . S
C179 H161 0.941 . S
C179 C178 1.391 . S
C179 C180 1.396 . S
C180 H164 0.939 . S
C180 C179 1.396 . S
C180 C181 1.397 . S
C181 C180 1.397 . S
C181 C182 1.385 . S
C182 H165 0.940 . S
C182 C181 1.385 . S
C182 C183 1.388 . S
C183 H162 0.939 . S
C183 C178 1.391 . S
C183 C182 1.388 . S
P184 O195 1.490 . S
P184 C198 1.812 . S
P184 C204 1.803 1_455 S
P184 C210 1.819 . S
H185 C199 0.941 . S
H186 C200 0.939 . S
H187 C202 0.940 . S
H188 C203 0.940 . S
H189 C205 0.939 . S
H190 C206 0.942 . S
H191 C208 0.940 . S
H192 C209 0.939 . S
H193 C211 0.941 . S
H194 C215 0.939 1_655 S
O195 P184 1.490 . S
H196 C212 0.939 . S
H197 C214 0.940 1_655 S
C198 P184 1.812 . S
C198 C199 1.389 . S
C198 C203 1.391 . S
C199 H185 0.941 . S
C199 C198 1.389 . S
C199 C200 1.397 . S
C200 H186 0.939 . S
C200 C199 1.397 . S
C200 C201 1.378 . S
C201 C200 1.378 . S
C201 C202 1.378 . S
C202 H187 0.940 . S
C202 C201 1.378 . S
C202 C203 1.396 . S
C203 H188 0.940 . S
C203 C198 1.391 . S
C203 C202 1.396 . S
C204 P184 1.803 1_655 S
C204 C205 1.378 . S
C204 C209 1.400 . S
C205 H189 0.939 . S
C205 C204 1.378 . S
C205 C206 1.361 . S
C206 H190 0.942 . S
C206 C205 1.361 . S
C206 C207 1.369 . S
C207 C206 1.369 . S
C207 C208 1.404 . S
C208 H191 0.940 . S
C208 C207 1.404 . S
C208 C209 1.389 . S
C209 H192 0.939 . S
C209 C204 1.400 . S
C209 C208 1.389 . S
C210 P184 1.819 . S
C210 C211 1.391 . S
C210 C215 1.391 . S
C211 H193 0.941 . S
C211 C210 1.391 . S
C211 C212 1.396 . S
C212 H196 0.939 . S
C212 C211 1.396 . S
C212 C213 1.397 . S
C213 C212 1.397 . S
C213 C214 1.385 . S
C214 H197 0.940 1_455 S
C214 C213 1.385 . S
C214 C215 1.388 . S
C215 H194 0.939 1_455 S
C215 C210 1.391 . S
C215 C214 1.388 . S
P216 O227 1.490 . S
P216 C230 1.812 . S
P216 C236 1.803 1_455 S
P216 C242 1.819 . S
H217 C231 0.941 . S
H218 C232 0.939 . S
H219 C234 0.940 . S
H220 C235 0.940 . S
H221 C237 0.939 . S
H222 C238 0.942 . S
H223 C240 0.940 . S
H224 C241 0.939 . S
H225 C243 0.941 . S
H226 C247 0.939 . S
O227 P216 1.490 . S
H228 C244 0.939 . S
H229 C246 0.940 . S
C230 P216 1.812 . S
C230 C231 1.389 . S
C230 C235 1.391 . S
C231 H217 0.941 . S
C231 C230 1.389 . S
C231 C232 1.397 . S
C232 H218 0.939 . S
C232 C231 1.397 . S
C232 C233 1.378 . S
C233 C232 1.378 . S
C233 C234 1.378 . S
C234 H219 0.940 . S
C234 C233 1.378 . S
C234 C235 1.396 . S
C235 H220 0.940 . S
C235 C230 1.391 . S
C235 C234 1.396 . S
C236 P216 1.803 1_655 S
C236 C237 1.378 . S
C236 C241 1.400 . S
C237 H221 0.939 . S
C237 C236 1.378 . S
C237 C238 1.361 . S
C238 H222 0.942 . S
C238 C237 1.361 . S
C238 C239 1.369 . S
C239 C238 1.369 . S
C239 C240 1.404 . S
C240 H223 0.940 . S
C240 C239 1.404 . S
C240 C241 1.389 . S
C241 H224 0.939 . S
C241 C236 1.400 . S
C241 C240 1.389 . S
C242 P216 1.819 . S
C242 C243 1.391 . S
C242 C247 1.391 1_455 S
C243 H225 0.941 . S
C243 C242 1.391 . S
C243 C244 1.396 . S
C244 H228 0.939 . S
C244 C243 1.396 . S
C244 C245 1.397 . S
C245 C244 1.397 . S
C245 C246 1.385 1_455 S
C246 H229 0.940 . S
C246 C245 1.385 1_655 S
C246 C247 1.388 . S
C247 H226 0.939 . S
C247 C242 1.391 1_655 S
C247 C246 1.388 . S
P248 O259 1.490 . S
P248 C262 1.812 . S
P248 C268 1.803 1_545 S
P248 C274 1.819 . S
H249 C263 0.941 . S
H250 C264 0.939 . S
H251 C266 0.940 . S
H252 C267 0.940 . S
H253 C269 0.939 . S
H254 C270 0.942 . S
H255 C272 0.940 . S
H256 C273 0.939 . S
H257 C275 0.941 . S
H258 C279 0.939 . S
O259 P248 1.490 . S
H260 C276 0.939 . S
H261 C278 0.940 . S
C262 P248 1.812 . S
C262 C263 1.389 . S
C262 C267 1.391 . S
C263 H249 0.941 . S
C263 C262 1.389 . S
C263 C264 1.397 . S
C264 H250 0.939 . S
C264 C263 1.397 . S
C264 C265 1.378 . S
C265 C264 1.378 . S
C265 C266 1.378 . S
C266 H251 0.940 . S
C266 C265 1.378 . S
C266 C267 1.396 . S
C267 H252 0.940 . S
C267 C262 1.391 . S
C267 C266 1.396 . S
C268 P248 1.803 1_565 S
C268 C269 1.378 . S
C268 C273 1.400 . S
C269 H253 0.939 . S
C269 C268 1.378 . S
C269 C270 1.361 . S
C270 H254 0.942 . S
C270 C269 1.361 . S
C270 C271 1.369 . S
C271 C270 1.369 . S
C271 C272 1.404 . S
C272 H255 0.940 . S
C272 C271 1.404 . S
C272 C273 1.389 . S
C273 H256 0.939 . S
C273 C268 1.400 . S
C273 C272 1.389 . S
C274 P248 1.819 . S
C274 C275 1.391 . S
C274 C279 1.391 1_545 S
C275 H257 0.941 . S
C275 C274 1.391 . S
C275 C276 1.396 . S
C276 H260 0.939 . S
C276 C275 1.396 . S
C276 C277 1.397 . S
C277 C276 1.397 . S
C277 C278 1.385 1_545 S
C278 H261 0.940 . S
C278 C277 1.385 1_565 S
C278 C279 1.388 . S
C279 H258 0.939 . S
C279 C274 1.391 1_565 S
C279 C278 1.388 . S
P280 O291 1.490 . S
P280 C294 1.812 . S
P280 C300 1.803 . S
P280 C306 1.819 . S
H281 C295 0.941 . S
H282 C296 0.939 . S
H283 C298 0.940 . S
H284 C299 0.940 . S
H285 C301 0.939 . S
H286 C302 0.942 . S
H287 C304 0.940 . S
H288 C305 0.939 . S
H289 C307 0.941 . S
H290 C311 0.939 . S
O291 P280 1.490 . S
H292 C308 0.939 . S
H293 C310 0.940 . S
C294 P280 1.812 . S
C294 C295 1.389 . S
C294 C299 1.391 . S
C295 H281 0.941 . S
C295 C294 1.389 . S
C295 C296 1.397 . S
C296 H282 0.939 . S
C296 C295 1.397 . S
C296 C297 1.378 . S
C297 C296 1.378 . S
C297 C298 1.378 . S
C298 H283 0.940 . S
C298 C297 1.378 . S
C298 C299 1.396 . S
C299 H284 0.940 . S
C299 C294 1.391 . S
C299 C298 1.396 . S
C300 P280 1.803 . S
C300 C301 1.378 . S
C300 C305 1.400 . S
C301 H285 0.939 . S
C301 C300 1.378 . S
C301 C302 1.361 . S
C302 H286 0.942 . S
C302 C301 1.361 . S
C302 C303 1.369 . S
C303 C302 1.369 . S
C303 C304 1.404 . S
C304 H287 0.940 . S
C304 C303 1.404 . S
C304 C305 1.389 . S
C305 H288 0.939 . S
C305 C300 1.400 . S
C305 C304 1.389 . S
C306 P280 1.819 . S
C306 C307 1.391 . S
C306 C311 1.391 . S
C307 H289 0.941 . S
C307 C306 1.391 . S
C307 C308 1.396 . S
C308 H292 0.939 . S
C308 C307 1.396 . S
C308 C309 1.397 . S
C309 C308 1.397 . S
C309 C310 1.385 . S
C310 H293 0.940 . S
C310 C309 1.385 . S
C310 C311 1.388 . S
C311 H290 0.939 . S
C311 C306 1.391 . S
C311 C310 1.388 . S
H312 C330 0.951 . S
H313 C332 0.951 . S
H314 C334 0.950 . S
H315 C335 0.950 . S
H316 C337 0.950 . S
H317 C340 0.950 . S
H318 C341 0.950 . S
H319 C343 0.950 . S
H320 C344 0.950 . S
H321 C345 0.951 . S
H322 C347 0.951 . S
H323 C349 0.950 . S
H324 C350 0.950 . S
H325 C352 0.950 . S
H326 C355 0.950 . S
H327 C356 0.950 . S
H328 C358 0.950 . S
H329 C359 0.950 . S
C330 H312 0.951 . S
C330 C331 1.366 . S
C330 C332 1.388 . S
C331 C330 1.366 . S
C331 C335 1.385 . S
C332 H313 0.951 . S
C332 C330 1.388 . S
C332 C333 1.366 . S
C333 C332 1.366 . S
C333 C334 1.414 . S
C333 C336 1.499 . S
C334 H314 0.950 . S
C334 C333 1.414 . S
C334 C335 1.374 . S
C335 H315 0.950 . S
C335 C331 1.385 . S
C335 C334 1.374 . S
C336 C333 1.499 . S
C336 C337 1.373 . S
C336 C338 1.389 . S
C337 H316 0.950 . S
C337 C336 1.373 . S
C337 C353 1.377 . S
C338 C336 1.389 . S
C338 C339 1.524 . S
C338 C352 1.377 . S
C339 C338 1.524 . S
C339 C340 1.397 . S
C339 C344 1.363 . S
C340 H317 0.950 . S
C340 C339 1.397 . S
C340 C341 1.334 . S
C341 H318 0.950 . S
C341 C340 1.334 . S
C341 C342 1.287 . S
C342 C341 1.287 . S
C342 C343 1.524 . S
C342 H361 0.913 . S
C343 H319 0.950 . S
C343 C342 1.524 . S
C343 C344 1.415 . S
C344 H320 0.950 . S
C344 C339 1.363 . S
C344 C343 1.415 . S
C345 H321 0.951 . S
C345 C346 1.366 . S
C345 C347 1.388 . S
C346 C345 1.366 . S
C346 C350 1.385 . S
C347 H322 0.951 . S
C347 C345 1.388 . S
C347 C348 1.366 . S
C348 C347 1.366 . S
C348 C349 1.414 . S
C348 C351 1.499 . S
C349 H323 0.950 . S
C349 C348 1.414 . S
C349 C350 1.374 . S
C350 H324 0.950 . S
C350 C346 1.385 . S
C350 C349 1.374 . S
C351 C348 1.499 . S
C351 C352 1.373 . S
C351 C353 1.389 . S
C352 H325 0.950 . S
C352 C338 1.377 . S
C352 C351 1.373 . S
C353 C337 1.377 . S
C353 C351 1.389 . S
C353 C354 1.524 . S
C354 C353 1.524 . S
C354 C355 1.397 . S
C354 C359 1.363 . S
C355 H326 0.950 . S
C355 C354 1.397 . S
C355 C356 1.334 . S
C356 H327 0.950 . S
C356 C355 1.334 . S
C356 C357 1.287 . S
C357 C356 1.287 . S
C357 C358 1.524 . S
C357 H360 0.999 . S
C358 H328 0.950 . S
C358 C357 1.524 . S
C358 C359 1.415 . S
C359 H329 0.950 . S
C359 C354 1.363 . S
C359 C358 1.415 . S
H360 C357 0.999 . S
H361 C342 0.913 . S
H362 C380 0.951 . S
H363 C382 0.951 . S
H364 C384 0.950 . S
H365 C385 0.950 . S
H366 C387 0.950 . S
H367 C390 0.950 . S
H368 C391 0.950 . S
H369 C393 0.950 . S
H370 C394 0.950 . S
H371 C395 0.951 . S
H372 C397 0.951 . S
H373 C399 0.950 . S
H374 C400 0.950 . S
H375 C402 0.950 . S
H376 C405 0.950 . S
H377 C406 0.950 . S
H378 C408 0.950 . S
H379 C409 0.950 . S
C380 H362 0.951 . S
C380 C381 1.366 . S
C380 C382 1.388 . S
C381 C380 1.366 . S
C381 C385 1.385 . S
C382 H363 0.951 . S
C382 C380 1.388 . S
C382 C383 1.366 . S
C383 C382 1.366 . S
C383 C384 1.414 . S
C383 C386 1.499 . S
C384 H364 0.950 . S
C384 C383 1.414 . S
C384 C385 1.374 . S
C385 H365 0.950 . S
C385 C381 1.385 . S
C385 C384 1.374 . S
C386 C383 1.499 . S
C386 C387 1.373 . S
C386 C388 1.389 . S
C387 H366 0.950 . S
C387 C386 1.373 . S
C387 C403 1.377 . S
C388 C386 1.389 . S
C388 C389 1.524 . S
C388 C402 1.377 . S
C389 C388 1.524 . S
C389 C390 1.397 . S
C389 C394 1.363 . S
C390 H367 0.950 . S
C390 C389 1.397 . S
C390 C391 1.334 . S
C391 H368 0.950 . S
C391 C390 1.334 . S
C391 C392 1.287 . S
C392 C391 1.287 . S
C392 C393 1.524 . S
C392 H411 0.913 . S
C393 H369 0.950 . S
C393 C392 1.524 . S
C393 C394 1.415 . S
C394 H370 0.950 . S
C394 C389 1.363 . S
C394 C393 1.415 . S
C395 H371 0.951 . S
C395 C396 1.366 . S
C395 C397 1.388 . S
C396 C395 1.366 . S
C396 C400 1.385 . S
C397 H372 0.951 . S
C397 C395 1.388 . S
C397 C398 1.366 . S
C398 C397 1.366 . S
C398 C399 1.414 . S
C398 C401 1.499 . S
C399 H373 0.950 . S
C399 C398 1.414 . S
C399 C400 1.374 . S
C400 H374 0.950 . S
C400 C396 1.385 . S
C400 C399 1.374 . S
C401 C398 1.499 . S
C401 C402 1.373 . S
C401 C403 1.389 . S
C402 H375 0.950 . S
C402 C388 1.377 . S
C402 C401 1.373 . S
C403 C387 1.377 . S
C403 C401 1.389 . S
C403 C404 1.524 . S
C404 C403 1.524 . S
C404 C405 1.397 . S
C404 C409 1.363 . S
C405 H376 0.950 . S
C405 C404 1.397 . S
C405 C406 1.334 . S
C406 H377 0.950 . S
C406 C405 1.334 . S
C406 C407 1.287 . S
C407 C406 1.287 . S
C407 C408 1.524 . S
C407 H410 0.999 . S
C408 H378 0.950 . S
C408 C407 1.524 . S
C408 C409 1.415 . S
C409 H379 0.950 . S
C409 C404 1.363 . S
C409 C408 1.415 . S
H410 C407 0.999 . S
H411 C392 0.913 . S
H412 C430 0.951 . S
H413 C432 0.951 . S
H414 C434 0.950 . S
H415 C435 0.950 . S
H416 C437 0.950 . S
H417 C440 0.950 . S
H418 C441 0.950 . S
H419 C443 0.950 . S
H420 C444 0.950 . S
H421 C445 0.951 . S
H422 C447 0.951 . S
H423 C449 0.950 . S
H424 C450 0.950 . S
H425 C452 0.950 . S
H426 C455 0.950 . S
H427 C456 0.950 . S
H428 C458 0.950 . S
H429 C459 0.950 . S
C430 H412 0.951 . S
C430 C431 1.366 . S
C430 C432 1.388 . S
C431 C430 1.366 . S
C431 C435 1.385 . S
C432 H413 0.951 . S
C432 C430 1.388 . S
C432 C433 1.366 . S
C433 C432 1.366 . S
C433 C434 1.414 . S
C433 C436 1.499 . S
C434 H414 0.950 . S
C434 C433 1.414 . S
C434 C435 1.374 . S
C435 H415 0.950 . S
C435 C431 1.385 . S
C435 C434 1.374 . S
C436 C433 1.499 . S
C436 C437 1.373 . S
C436 C438 1.389 . S
C437 H416 0.950 . S
C437 C436 1.373 . S
C437 C453 1.377 . S
C438 C436 1.389 . S
C438 C439 1.524 . S
C438 C452 1.377 . S
C439 C438 1.524 . S
C439 C440 1.397 . S
C439 C444 1.363 . S
C440 H417 0.950 . S
C440 C439 1.397 . S
C440 C441 1.334 . S
C441 H418 0.950 . S
C441 C440 1.334 . S
C441 C442 1.287 . S
C442 C441 1.287 . S
C442 C443 1.524 . S
C442 H461 0.913 . S
C443 H419 0.950 . S
C443 C442 1.524 . S
C443 C444 1.415 . S
C444 H420 0.950 . S
C444 C439 1.363 . S
C444 C443 1.415 . S
C445 H421 0.951 . S
C445 C446 1.366 . S
C445 C447 1.388 . S
C446 C445 1.366 . S
C446 C450 1.385 . S
C447 H422 0.951 . S
C447 C445 1.388 . S
C447 C448 1.366 . S
C448 C447 1.366 . S
C448 C449 1.414 . S
C448 C451 1.499 . S
C449 H423 0.950 . S
C449 C448 1.414 . S
C449 C450 1.374 . S
C450 H424 0.950 . S
C450 C446 1.385 . S
C450 C449 1.374 . S
C451 C448 1.499 . S
C451 C452 1.373 . S
C451 C453 1.389 . S
C452 H425 0.950 . S
C452 C438 1.377 . S
C452 C451 1.373 . S
C453 C437 1.377 . S
C453 C451 1.389 . S
C453 C454 1.524 . S
C454 C453 1.524 . S
C454 C455 1.397 . S
C454 C459 1.363 . S
C455 H426 0.950 . S
C455 C454 1.397 . S
C455 C456 1.334 . S
C456 H427 0.950 . S
C456 C455 1.334 . S
C456 C457 1.287 . S
C457 C456 1.287 . S
C457 C458 1.524 . S
C457 H460 0.999 . S
C458 H428 0.950 . S
C458 C457 1.524 . S
C458 C459 1.415 . S
C459 H429 0.950 . S
C459 C454 1.363 . S
C459 C458 1.415 . S
H460 C457 0.999 . S
H461 C442 0.913 . S
H462 C480 0.951 . S
H463 C482 0.951 . S
H464 C484 0.950 . S
H465 C485 0.950 . S
H466 C487 0.950 . S
H467 C490 0.950 . S
H468 C491 0.950 . S
H469 C493 0.950 . S
H470 C494 0.950 . S
H471 C495 0.951 . S
H472 C497 0.951 . S
H473 C499 0.950 . S
H474 C500 0.950 . S
H475 C502 0.950 . S
H476 C505 0.950 . S
H477 C506 0.950 . S
H478 C508 0.950 . S
H479 C509 0.950 . S
C480 H462 0.951 . S
C480 C481 1.366 . S
C480 C482 1.388 . S
C481 C480 1.366 . S
C481 C485 1.385 . S
C482 H463 0.951 . S
C482 C480 1.388 . S
C482 C483 1.366 . S
C483 C482 1.366 . S
C483 C484 1.414 . S
C483 C486 1.499 . S
C484 H464 0.950 . S
C484 C483 1.414 . S
C484 C485 1.374 . S
C485 H465 0.950 . S
C485 C481 1.385 . S
C485 C484 1.374 . S
C486 C483 1.499 . S
C486 C487 1.373 . S
C486 C488 1.389 . S
C487 H466 0.950 . S
C487 C486 1.373 . S
C487 C503 1.377 . S
C488 C486 1.389 . S
C488 C489 1.524 . S
C488 C502 1.377 . S
C489 C488 1.524 . S
C489 C490 1.397 . S
C489 C494 1.363 . S
C490 H467 0.950 . S
C490 C489 1.397 . S
C490 C491 1.334 . S
C491 H468 0.950 . S
C491 C490 1.334 . S
C491 C492 1.287 . S
C492 C491 1.287 . S
C492 C493 1.524 . S
C492 H511 0.913 . S
C493 H469 0.950 . S
C493 C492 1.524 . S
C493 C494 1.415 . S
C494 H470 0.950 . S
C494 C489 1.363 . S
C494 C493 1.415 . S
C495 H471 0.951 . S
C495 C496 1.366 . S
C495 C497 1.388 . S
C496 C495 1.366 . S
C496 C500 1.385 . S
C497 H472 0.951 . S
C497 C495 1.388 . S
C497 C498 1.366 . S
C498 C497 1.366 . S
C498 C499 1.414 . S
C498 C501 1.499 . S
C499 H473 0.950 . S
C499 C498 1.414 . S
C499 C500 1.374 . S
C500 H474 0.950 . S
C500 C496 1.385 . S
C500 C499 1.374 . S
C501 C498 1.499 . S
C501 C502 1.373 . S
C501 C503 1.389 . S
C502 H475 0.950 . S
C502 C488 1.377 . S
C502 C501 1.373 . S
C503 C487 1.377 . S
C503 C501 1.389 . S
C503 C504 1.524 . S
C504 C503 1.524 . S
C504 C505 1.397 . S
C504 C509 1.363 . S
C505 H476 0.950 . S
C505 C504 1.397 . S
C505 C506 1.334 . S
C506 H477 0.950 . S
C506 C505 1.334 . S
C506 C507 1.287 . S
C507 C506 1.287 . S
C507 C508 1.524 . S
C507 H510 0.999 . S
C508 H478 0.950 . S
C508 C507 1.524 . S
C508 C509 1.415 . S
C509 H479 0.950 . S
C509 C504 1.363 . S
C509 C508 1.415 . S
H510 C507 0.999 . S
H511 C492 0.913 . S
H512 C530 0.951 . S
H513 C532 0.951 . S
H514 C534 0.950 . S
H515 C535 0.950 . S
H516 C537 0.950 . S
H517 C540 0.950 . S
H518 C541 0.950 . S
H519 C543 0.950 . S
H520 C544 0.950 . S
H521 C545 0.951 . S
H522 C547 0.951 . S
H523 C549 0.950 . S
H524 C550 0.950 . S
H525 C552 0.950 . S
H526 C555 0.950 . S
H527 C556 0.950 . S
H528 C558 0.950 . S
H529 C559 0.950 . S
C530 H512 0.951 . S
C530 C531 1.366 . S
C530 C532 1.388 . S
C531 C530 1.366 . S
C531 C535 1.385 . S
C532 H513 0.951 . S
C532 C530 1.388 . S
C532 C533 1.366 . S
C533 C532 1.366 . S
C533 C534 1.414 . S
C533 C536 1.499 . S
C534 H514 0.950 . S
C534 C533 1.414 . S
C534 C535 1.374 . S
C535 H515 0.950 . S
C535 C531 1.385 . S
C535 C534 1.374 . S
C536 C533 1.499 . S
C536 C537 1.373 . S
C536 C538 1.389 . S
C537 H516 0.950 . S
C537 C536 1.373 . S
C537 C553 1.377 . S
C538 C536 1.389 . S
C538 C539 1.524 . S
C538 C552 1.377 . S
C539 C538 1.524 . S
C539 C540 1.397 . S
C539 C544 1.363 . S
C540 H517 0.950 . S
C540 C539 1.397 . S
C540 C541 1.334 . S
C541 H518 0.950 . S
C541 C540 1.334 . S
C541 C542 1.287 . S
C542 C541 1.287 . S
C542 C543 1.524 . S
C542 H561 0.913 . S
C543 H519 0.950 . S
C543 C542 1.524 . S
C543 C544 1.415 . S
C544 H520 0.950 . S
C544 C539 1.363 . S
C544 C543 1.415 . S
C545 H521 0.951 . S
C545 C546 1.366 . S
C545 C547 1.388 . S
C546 C545 1.366 . S
C546 C550 1.385 . S
C547 H522 0.951 . S
C547 C545 1.388 . S
C547 C548 1.366 . S
C548 C547 1.366 . S
C548 C549 1.414 . S
C548 C551 1.499 . S
C549 H523 0.950 . S
C549 C548 1.414 . S
C549 C550 1.374 . S
C550 H524 0.950 . S
C550 C546 1.385 . S
C550 C549 1.374 . S
C551 C548 1.499 . S
C551 C552 1.373 . S
C551 C553 1.389 . S
C552 H525 0.950 . S
C552 C538 1.377 . S
C552 C551 1.373 . S
C553 C537 1.377 . S
C553 C551 1.389 . S
C553 C554 1.524 . S
C554 C553 1.524 . S
C554 C555 1.397 . S
C554 C559 1.363 . S
C555 H526 0.950 . S
C555 C554 1.397 . S
C555 C556 1.334 . S
C556 H527 0.950 . S
C556 C555 1.334 . S
C556 C557 1.287 . S
C557 C556 1.287 . S
C557 C558 1.524 . S
C557 H560 0.999 . S
C558 H528 0.950 . S
C558 C557 1.524 . S
C558 C559 1.415 . S
C559 H529 0.950 . S
C559 C554 1.363 . S
C559 C558 1.415 . S
H560 C557 0.999 . S
H561 C542 0.913 . S
H562 C580 0.951 . S
H563 C582 0.951 . S
H564 C584 0.950 . S
H565 C585 0.950 . S
H566 C587 0.950 . S
H567 C590 0.950 . S
H568 C591 0.950 . S
H569 C593 0.950 . S
H570 C594 0.950 . S
H571 C595 0.951 . S
H572 C597 0.951 . S
H573 C599 0.950 . S
H574 C600 0.950 . S
H575 C602 0.950 . S
H576 C605 0.950 . S
H577 C606 0.950 . S
H578 C608 0.950 . S
H579 C609 0.950 . S
C580 H562 0.951 . S
C580 C581 1.366 . S
C580 C582 1.388 . S
C581 C580 1.366 . S
C581 C585 1.385 . S
C582 H563 0.951 . S
C582 C580 1.388 . S
C582 C583 1.366 . S
C583 C582 1.366 . S
C583 C584 1.414 . S
C583 C586 1.499 . S
C584 H564 0.950 . S
C584 C583 1.414 . S
C584 C585 1.374 . S
C585 H565 0.950 . S
C585 C581 1.385 . S
C585 C584 1.374 . S
C586 C583 1.499 . S
C586 C587 1.373 . S
C586 C588 1.389 . S
C587 H566 0.950 . S
C587 C586 1.373 . S
C587 C603 1.377 . S
C588 C586 1.389 . S
C588 C589 1.524 . S
C588 C602 1.377 . S
C589 C588 1.524 . S
C589 C590 1.397 . S
C589 C594 1.363 . S
C590 H567 0.950 . S
C590 C589 1.397 . S
C590 C591 1.334 . S
C591 H568 0.950 . S
C591 C590 1.334 . S
C591 C592 1.287 . S
C592 C591 1.287 . S
C592 C593 1.524 . S
C592 H611 0.913 . S
C593 H569 0.950 . S
C593 C592 1.524 . S
C593 C594 1.415 . S
C594 H570 0.950 . S
C594 C589 1.363 . S
C594 C593 1.415 . S
C595 H571 0.951 . S
C595 C596 1.366 . S
C595 C597 1.388 . S
C596 C595 1.366 . S
C596 C600 1.385 . S
C597 H572 0.951 . S
C597 C595 1.388 . S
C597 C598 1.366 . S
C598 C597 1.366 . S
C598 C599 1.414 . S
C598 C601 1.499 . S
C599 H573 0.950 . S
C599 C598 1.414 . S
C599 C600 1.374 . S
C600 H574 0.950 . S
C600 C596 1.385 . S
C600 C599 1.374 . S
C601 C598 1.499 . S
C601 C602 1.373 . S
C601 C603 1.389 . S
C602 H575 0.950 . S
C602 C588 1.377 . S
C602 C601 1.373 . S
C603 C587 1.377 . S
C603 C601 1.389 . S
C603 C604 1.524 . S
C604 C603 1.524 . S
C604 C605 1.397 . S
C604 C609 1.363 . S
C605 H576 0.950 . S
C605 C604 1.397 . S
C605 C606 1.334 . S
C606 H577 0.950 . S
C606 C605 1.334 . S
C606 C607 1.287 . S
C607 C606 1.287 . S
C607 C608 1.524 . S
C607 H610 0.999 . S
C608 H578 0.950 . S
C608 C607 1.524 . S
C608 C609 1.415 . S
C609 H579 0.950 . S
C609 C604 1.363 . S
C609 C608 1.415 . S
H610 C607 0.999 . S
H611 C592 0.913 . S
H612 C630 0.951 . S
H613 C632 0.951 . S
H614 C634 0.950 . S
H615 C635 0.950 . S
H616 C637 0.950 . S
H617 C640 0.950 . S
H618 C641 0.950 . S
H619 C643 0.950 . S
H620 C644 0.950 . S
H621 C645 0.951 . S
H622 C647 0.951 . S
H623 C649 0.950 . S
H624 C650 0.950 . S
H625 C652 0.950 . S
H626 C655 0.950 . S
H627 C656 0.950 . S
H628 C658 0.950 . S
H629 C659 0.950 . S
C630 H612 0.951 . S
C630 C631 1.366 . S
C630 C632 1.388 . S
C631 C630 1.366 . S
C631 C635 1.385 . S
C632 H613 0.951 . S
C632 C630 1.388 . S
C632 C633 1.366 . S
C633 C632 1.366 . S
C633 C634 1.414 . S
C633 C636 1.499 . S
C634 H614 0.950 . S
C634 C633 1.414 . S
C634 C635 1.374 . S
C635 H615 0.950 . S
C635 C631 1.385 . S
C635 C634 1.374 . S
C636 C633 1.499 . S
C636 C637 1.373 . S
C636 C638 1.389 . S
C637 H616 0.950 . S
C637 C636 1.373 . S
C637 C653 1.377 . S
C638 C636 1.389 . S
C638 C639 1.524 . S
C638 C652 1.377 . S
C639 C638 1.524 . S
C639 C640 1.397 . S
C639 C644 1.363 . S
C640 H617 0.950 . S
C640 C639 1.397 . S
C640 C641 1.334 . S
C641 H618 0.950 . S
C641 C640 1.334 . S
C641 C642 1.287 . S
C642 C641 1.287 . S
C642 C643 1.524 . S
C642 H661 0.913 . S
C643 H619 0.950 . S
C643 C642 1.524 . S
C643 C644 1.415 . S
C644 H620 0.950 . S
C644 C639 1.363 . S
C644 C643 1.415 . S
C645 H621 0.951 . S
C645 C646 1.366 . S
C645 C647 1.388 . S
C646 C645 1.366 . S
C646 C650 1.385 . S
C647 H622 0.951 . S
C647 C645 1.388 . S
C647 C648 1.366 . S
C648 C647 1.366 . S
C648 C649 1.414 . S
C648 C651 1.499 . S
C649 H623 0.950 . S
C649 C648 1.414 . S
C649 C650 1.374 . S
C650 H624 0.950 . S
C650 C646 1.385 . S
C650 C649 1.374 . S
C651 C648 1.499 . S
C651 C652 1.373 . S
C651 C653 1.389 . S
C652 H625 0.950 . S
C652 C638 1.377 . S
C652 C651 1.373 . S
C653 C637 1.377 . S
C653 C651 1.389 . S
C653 C654 1.524 . S
C654 C653 1.524 . S
C654 C655 1.397 . S
C654 C659 1.363 . S
C655 H626 0.950 . S
C655 C654 1.397 . S
C655 C656 1.334 . S
C656 H627 0.950 . S
C656 C655 1.334 . S
C656 C657 1.287 . S
C657 C656 1.287 . S
C657 C658 1.524 . S
C657 H660 0.999 . S
C658 H628 0.950 . S
C658 C657 1.524 . S
C658 C659 1.415 . S
C659 H629 0.950 . S
C659 C654 1.363 . S
C659 C658 1.415 . S
H660 C657 0.999 . S
H661 C642 0.913 . S
H662 C680 0.951 . S
H663 C682 0.951 . S
H664 C684 0.950 . S
H665 C685 0.950 . S
H666 C687 0.950 . S
H667 C690 0.950 . S
H668 C691 0.950 . S
H669 C693 0.950 . S
H670 C694 0.950 . S
H671 C695 0.951 . S
H672 C697 0.951 . S
H673 C699 0.950 . S
H674 C700 0.950 . S
H675 C702 0.950 . S
H676 C705 0.950 . S
H677 C706 0.950 . S
H678 C708 0.950 . S
H679 C709 0.950 . S
C680 H662 0.951 . S
C680 C681 1.366 . S
C680 C682 1.388 . S
C681 C680 1.366 . S
C681 C685 1.385 . S
C682 H663 0.951 . S
C682 C680 1.388 . S
C682 C683 1.366 . S
C683 C682 1.366 . S
C683 C684 1.414 . S
C683 C686 1.499 . S
C684 H664 0.950 . S
C684 C683 1.414 . S
C684 C685 1.374 . S
C685 H665 0.950 . S
C685 C681 1.385 . S
C685 C684 1.374 . S
C686 C683 1.499 . S
C686 C687 1.373 . S
C686 C688 1.389 . S
C687 H666 0.950 . S
C687 C686 1.373 . S
C687 C703 1.377 . S
C688 C686 1.389 . S
C688 C689 1.524 . S
C688 C702 1.377 . S
C689 C688 1.524 . S
C689 C690 1.397 . S
C689 C694 1.363 . S
C690 H667 0.950 . S
C690 C689 1.397 . S
C690 C691 1.334 . S
C691 H668 0.950 . S
C691 C690 1.334 . S
C691 C692 1.287 . S
C692 C691 1.287 . S
C692 C693 1.524 . S
C692 H711 0.913 . S
C693 H669 0.950 . S
C693 C692 1.524 . S
C693 C694 1.415 . S
C694 H670 0.950 . S
C694 C689 1.363 . S
C694 C693 1.415 . S
C695 H671 0.951 . S
C695 C696 1.366 . S
C695 C697 1.388 . S
C696 C695 1.366 . S
C696 C700 1.385 . S
C697 H672 0.951 . S
C697 C695 1.388 . S
C697 C698 1.366 . S
C698 C697 1.366 . S
C698 C699 1.414 . S
C698 C701 1.499 . S
C699 H673 0.950 . S
C699 C698 1.414 . S
C699 C700 1.374 . S
C700 H674 0.950 . S
C700 C696 1.385 . S
C700 C699 1.374 . S
C701 C698 1.499 . S
C701 C702 1.373 . S
C701 C703 1.389 . S
C702 H675 0.950 . S
C702 C688 1.377 . S
C702 C701 1.373 . S
C703 C687 1.377 . S
C703 C701 1.389 . S
C703 C704 1.524 . S
C704 C703 1.524 . S
C704 C705 1.397 . S
C704 C709 1.363 . S
C705 H676 0.950 . S
C705 C704 1.397 . S
C705 C706 1.334 . S
C706 H677 0.950 . S
C706 C705 1.334 . S
C706 C707 1.287 . S
C707 C706 1.287 . S
C707 C708 1.524 . S
C707 H710 0.999 . S
C708 H678 0.950 . S
C708 C707 1.524 . S
C708 C709 1.415 . S
C709 H679 0.950 . S
C709 C704 1.363 . S
C709 C708 1.415 . S
H710 C707 0.999 . S
H711 C692 0.913 . S
H712 C730 0.951 . S
H713 C732 0.951 . S
H714 C734 0.950 . S
H715 C735 0.950 . S
H716 C737 0.950 . S
H717 C740 0.950 . S
H718 C741 0.950 . S
H719 C743 0.950 . S
H720 C744 0.950 . S
H721 C745 0.951 . S
H722 C747 0.951 . S
H723 C749 0.950 . S
H724 C750 0.950 . S
H725 C752 0.950 . S
H726 C755 0.950 . S
H727 C756 0.950 . S
H728 C758 0.950 . S
H729 C759 0.950 . S
C730 H712 0.951 . S
C730 C731 1.366 . S
C730 C732 1.388 . S
C731 C730 1.366 . S
C731 C735 1.385 . S
C732 H713 0.951 . S
C732 C730 1.388 . S
C732 C733 1.366 . S
C733 C732 1.366 . S
C733 C734 1.414 . S
C733 C736 1.499 . S
C734 H714 0.950 . S
C734 C733 1.414 . S
C734 C735 1.374 . S
C735 H715 0.950 . S
C735 C731 1.385 . S
C735 C734 1.374 . S
C736 C733 1.499 . S
C736 C737 1.373 . S
C736 C738 1.389 . S
C737 H716 0.950 . S
C737 C736 1.373 . S
C737 C753 1.377 . S
C738 C736 1.389 . S
C738 C739 1.524 . S
C738 C752 1.377 . S
C739 C738 1.524 . S
C739 C740 1.397 . S
C739 C744 1.363 . S
C740 H717 0.950 . S
C740 C739 1.397 . S
C740 C741 1.334 . S
C741 H718 0.950 . S
C741 C740 1.334 . S
C741 C742 1.287 . S
C742 C741 1.287 . S
C742 C743 1.524 . S
C742 H761 0.913 . S
C743 H719 0.950 . S
C743 C742 1.524 . S
C743 C744 1.415 . S
C744 H720 0.950 . S
C744 C739 1.363 . S
C744 C743 1.415 . S
C745 H721 0.951 . S
C745 C746 1.366 . S
C745 C747 1.388 . S
C746 C745 1.366 . S
C746 C750 1.385 . S
C747 H722 0.951 . S
C747 C745 1.388 . S
C747 C748 1.366 . S
C748 C747 1.366 . S
C748 C749 1.414 . S
C748 C751 1.499 . S
C749 H723 0.950 . S
C749 C748 1.414 . S
C749 C750 1.374 . S
C750 H724 0.950 . S
C750 C746 1.385 . S
C750 C749 1.374 . S
C751 C748 1.499 . S
C751 C752 1.373 . S
C751 C753 1.389 . S
C752 H725 0.950 . S
C752 C738 1.377 . S
C752 C751 1.373 . S
C753 C737 1.377 . S
C753 C751 1.389 . S
C753 C754 1.524 . S
C754 C753 1.524 . S
C754 C755 1.397 . S
C754 C759 1.363 . S
C755 H726 0.950 . S
C755 C754 1.397 . S
C755 C756 1.334 . S
C756 H727 0.950 . S
C756 C755 1.334 . S
C756 C757 1.287 . S
C757 C756 1.287 . S
C757 C758 1.524 . S
C757 H760 0.999 . S
C758 H728 0.950 . S
C758 C757 1.524 . S
C758 C759 1.415 . S
C759 H729 0.950 . S
C759 C754 1.363 . S
C759 C758 1.415 . S
H760 C757 0.999 . S
H761 C742 0.913 . S
H762 C780 0.951 . S
H763 C782 0.951 . S
H764 C784 0.950 . S
H765 C785 0.950 . S
H766 C787 0.950 . S
H767 C790 0.950 . S
H768 C791 0.950 . S
H769 C793 0.950 . S
H770 C794 0.950 . S
H771 C795 0.951 . S
H772 C797 0.951 . S
H773 C799 0.950 . S
H774 C800 0.950 . S
H775 C802 0.950 . S
H776 C805 0.950 . S
H777 C806 0.950 . S
H778 C808 0.950 . S
H779 C809 0.950 . S
C780 H762 0.951 . S
C780 C781 1.366 . S
C780 C782 1.388 . S
C781 C780 1.366 . S
C781 C785 1.385 . S
C782 H763 0.951 . S
C782 C780 1.388 . S
C782 C783 1.366 . S
C783 C782 1.366 . S
C783 C784 1.414 . S
C783 C786 1.499 . S
C784 H764 0.950 . S
C784 C783 1.414 . S
C784 C785 1.374 . S
C785 H765 0.950 . S
C785 C781 1.385 . S
C785 C784 1.374 . S
C786 C783 1.499 . S
C786 C787 1.373 . S
C786 C788 1.389 . S
C787 H766 0.950 . S
C787 C786 1.373 . S
C787 C803 1.377 . S
C788 C786 1.389 . S
C788 C789 1.524 . S
C788 C802 1.377 . S
C789 C788 1.524 . S
C789 C790 1.397 . S
C789 C794 1.363 . S
C790 H767 0.950 . S
C790 C789 1.397 . S
C790 C791 1.334 . S
C791 H768 0.950 . S
C791 C790 1.334 . S
C791 C792 1.287 . S
C792 C791 1.287 . S
C792 C793 1.524 . S
C792 H811 0.913 . S
C793 H769 0.950 . S
C793 C792 1.524 . S
C793 C794 1.415 . S
C794 H770 0.950 . S
C794 C789 1.363 . S
C794 C793 1.415 . S
C795 H771 0.951 . S
C795 C796 1.366 . S
C795 C797 1.388 . S
C796 C795 1.366 . S
C796 C800 1.385 . S
C797 H772 0.951 . S
C797 C795 1.388 . S
C797 C798 1.366 . S
C798 C797 1.366 . S
C798 C799 1.414 . S
C798 C801 1.499 . S
C799 H773 0.950 . S
C799 C798 1.414 . S
C799 C800 1.374 . S
C800 H774 0.950 . S
C800 C796 1.385 . S
C800 C799 1.374 . S
C801 C798 1.499 . S
C801 C802 1.373 . S
C801 C803 1.389 . S
C802 H775 0.950 . S
C802 C788 1.377 . S
C802 C801 1.373 . S
C803 C787 1.377 . S
C803 C801 1.389 . S
C803 C804 1.524 . S
C804 C803 1.524 . S
C804 C805 1.397 . S
C804 C809 1.363 . S
C805 H776 0.950 . S
C805 C804 1.397 . S
C805 C806 1.334 . S
C806 H777 0.950 . S
C806 C805 1.334 . S
C806 C807 1.287 . S
C807 C806 1.287 . S
C807 C808 1.524 . S
C807 H810 0.999 . S
C808 H778 0.950 . S
C808 C807 1.524 . S
C808 C809 1.415 . S
C809 H779 0.950 . S
C809 C804 1.363 . S
C809 C808 1.415 . S
H810 C807 0.999 . S
H811 C792 0.913 . S
H812 C830 0.951 . S
H813 C832 0.951 . S
H814 C834 0.950 . S
H815 C835 0.950 . S
H816 C837 0.950 . S
H817 C840 0.950 . S
H818 C841 0.950 . S
H819 C843 0.950 . S
H820 C844 0.950 . S
H821 C845 0.951 . S
H822 C847 0.951 . S
H823 C849 0.950 . S
H824 C850 0.950 . S
H825 C852 0.950 . S
H826 C855 0.950 . S
H827 C856 0.950 . S
H828 C858 0.950 . S
H829 C859 0.950 . S
C830 H812 0.951 . S
C830 C831 1.366 . S
C830 C832 1.388 . S
C831 C830 1.366 . S
C831 C835 1.385 . S
C832 H813 0.951 . S
C832 C830 1.388 . S
C832 C833 1.366 . S
C833 C832 1.366 . S
C833 C834 1.414 . S
C833 C836 1.499 . S
C834 H814 0.950 . S
C834 C833 1.414 . S
C834 C835 1.374 . S
C835 H815 0.950 . S
C835 C831 1.385 . S
C835 C834 1.374 . S
C836 C833 1.499 . S
C836 C837 1.373 . S
C836 C838 1.389 . S
C837 H816 0.950 . S
C837 C836 1.373 . S
C837 C853 1.377 . S
C838 C836 1.389 . S
C838 C839 1.524 . S
C838 C852 1.377 . S
C839 C838 1.524 . S
C839 C840 1.397 . S
C839 C844 1.363 . S
C840 H817 0.950 . S
C840 C839 1.397 . S
C840 C841 1.334 . S
C841 H818 0.950 . S
C841 C840 1.334 . S
C841 C842 1.287 . S
C842 C841 1.287 . S
C842 C843 1.524 . S
C842 H861 0.913 . S
C843 H819 0.950 . S
C843 C842 1.524 . S
C843 C844 1.415 . S
C844 H820 0.950 . S
C844 C839 1.363 . S
C844 C843 1.415 . S
C845 H821 0.951 . S
C845 C846 1.366 . S
C845 C847 1.388 . S
C846 C845 1.366 . S
C846 C850 1.385 . S
C847 H822 0.951 . S
C847 C845 1.388 . S
C847 C848 1.366 . S
C848 C847 1.366 . S
C848 C849 1.414 . S
C848 C851 1.499 . S
C849 H823 0.950 . S
C849 C848 1.414 . S
C849 C850 1.374 . S
C850 H824 0.950 . S
C850 C846 1.385 . S
C850 C849 1.374 . S
C851 C848 1.499 . S
C851 C852 1.373 . S
C851 C853 1.389 . S
C852 H825 0.950 . S
C852 C838 1.377 . S
C852 C851 1.373 . S
C853 C837 1.377 . S
C853 C851 1.389 . S
C853 C854 1.524 . S
C854 C853 1.524 . S
C854 C855 1.397 . S
C854 C859 1.363 . S
C855 H826 0.950 . S
C855 C854 1.397 . S
C855 C856 1.334 . S
C856 H827 0.950 . S
C856 C855 1.334 . S
C856 C857 1.287 . S
C857 C856 1.287 . S
C857 C858 1.524 . S
C857 H860 0.999 . S
C858 H828 0.950 . S
C858 C857 1.524 . S
C858 C859 1.415 . S
C859 H829 0.950 . S
C859 C854 1.363 . S
C859 C858 1.415 . S
H860 C857 0.999 . S
H861 C842 0.913 . S
H862 C880 0.951 . S
H863 C882 0.951 . S
H864 C884 0.950 . S
H865 C885 0.950 . S
H866 C887 0.950 . S
H867 C890 0.950 . S
H868 C891 0.950 . S
H869 C893 0.950 . S
H870 C894 0.950 . S
H871 C895 0.951 . S
H872 C897 0.951 . S
H873 C899 0.950 . S
H874 C900 0.950 . S
H875 C902 0.950 . S
H876 C905 0.950 . S
H877 C906 0.950 . S
H878 C908 0.950 . S
H879 C909 0.950 . S
C880 H862 0.951 . S
C880 C881 1.366 . S
C880 C882 1.388 . S
C881 C880 1.366 . S
C881 C885 1.385 . S
C882 H863 0.951 . S
C882 C880 1.388 . S
C882 C883 1.366 . S
C883 C882 1.366 . S
C883 C884 1.414 . S
C883 C886 1.499 . S
C884 H864 0.950 . S
C884 C883 1.414 . S
C884 C885 1.374 . S
C885 H865 0.950 . S
C885 C881 1.385 . S
C885 C884 1.374 . S
C886 C883 1.499 . S
C886 C887 1.373 . S
C886 C888 1.389 . S
C887 H866 0.950 . S
C887 C886 1.373 . S
C887 C903 1.377 . S
C888 C886 1.389 . S
C888 C889 1.524 . S
C888 C902 1.377 . S
C889 C888 1.524 . S
C889 C890 1.397 . S
C889 C894 1.363 . S
C890 H867 0.950 . S
C890 C889 1.397 . S
C890 C891 1.334 . S
C891 H868 0.950 . S
C891 C890 1.334 . S
C891 C892 1.287 . S
C892 C891 1.287 . S
C892 C893 1.524 . S
C892 H911 0.913 . S
C893 H869 0.950 . S
C893 C892 1.524 . S
C893 C894 1.415 . S
C894 H870 0.950 . S
C894 C889 1.363 . S
C894 C893 1.415 . S
C895 H871 0.951 . S
C895 C896 1.366 . S
C895 C897 1.388 . S
C896 C895 1.366 . S
C896 C900 1.385 . S
C897 H872 0.951 . S
C897 C895 1.388 . S
C897 C898 1.366 . S
C898 C897 1.366 . S
C898 C899 1.414 . S
C898 C901 1.499 . S
C899 H873 0.950 . S
C899 C898 1.414 . S
C899 C900 1.374 . S
C900 H874 0.950 . S
C900 C896 1.385 . S
C900 C899 1.374 . S
C901 C898 1.499 . S
C901 C902 1.373 . S
C901 C903 1.389 . S
C902 H875 0.950 . S
C902 C888 1.377 . S
C902 C901 1.373 . S
C903 C887 1.377 . S
C903 C901 1.389 . S
C903 C904 1.524 . S
C904 C903 1.524 . S
C904 C905 1.397 . S
C904 C909 1.363 . S
C905 H876 0.950 . S
C905 C904 1.397 . S
C905 C906 1.334 . S
C906 H877 0.950 . S
C906 C905 1.334 . S
C906 C907 1.287 . S
C907 C906 1.287 . S
C907 C908 1.524 . S
C907 H910 0.999 . S
C908 H878 0.950 . S
C908 C907 1.524 . S
C908 C909 1.415 . S
C909 H879 0.950 . S
C909 C904 1.363 . S
C909 C908 1.415 . S
H910 C907 0.999 . S
H911 C892 0.913 . S
H912 C930 0.951 . S
H913 C932 0.951 . S
H914 C934 0.950 . S
H915 C935 0.950 . S
H916 C937 0.950 . S
H917 C940 0.950 . S
H918 C941 0.950 . S
H919 C943 0.950 1_655 S
H920 C944 0.950 1_655 S
H921 C945 0.951 . S
H922 C947 0.951 1_554 S
H923 C949 0.950 1_655 S
H924 C950 0.950 1_655 S
H925 C952 0.950 . S
H926 C955 0.950 . S
H927 C956 0.950 1_556 S
H928 C958 0.950 . S
H929 C959 0.950 . S
C930 H912 0.951 . S
C930 C931 1.366 1_655 S
C930 C932 1.388 . S
C931 C930 1.366 1_455 S
C931 C935 1.385 . S
C932 H913 0.951 . S
C932 C930 1.388 . S
C932 C933 1.366 1_655 S
C933 C932 1.366 1_455 S
C933 C934 1.414 . S
C933 C936 1.499 . S
C934 H914 0.950 . S
C934 C933 1.414 . S
C934 C935 1.374 . S
C935 H915 0.950 . S
C935 C931 1.385 . S
C935 C934 1.374 . S
C936 C933 1.499 . S
C936 C937 1.373 . S
C936 C938 1.389 . S
C937 H916 0.950 . S
C937 C936 1.373 . S
C937 C953 1.377 . S
C938 C936 1.389 . S
C938 C939 1.524 . S
C938 C952 1.377 . S
C939 C938 1.524 . S
C939 C940 1.397 . S
C939 C944 1.363 . S
C940 H917 0.950 . S
C940 C939 1.397 . S
C940 C941 1.334 . S
C941 H918 0.950 . S
C941 C940 1.334 . S
C941 C942 1.287 . S
C942 C941 1.287 . S
C942 C943 1.524 . S
C942 H961 0.913 . S
C943 H919 0.950 1_455 S
C943 C942 1.524 . S
C943 C944 1.415 . S
C944 H920 0.950 1_455 S
C944 C939 1.363 . S
C944 C943 1.415 . S
C945 H921 0.951 . S
C945 C946 1.366 . S
C945 C947 1.388 . S
C946 C945 1.366 . S
C946 C950 1.385 . S
C947 H922 0.951 1_556 S
C947 C945 1.388 . S
C947 C948 1.366 1_556 S
C948 C947 1.366 1_554 S
C948 C949 1.414 1_554 S
C948 C951 1.499 . S
C949 H923 0.950 1_455 S
C949 C948 1.414 1_556 S
C949 C950 1.374 . S
C950 H924 0.950 1_455 S
C950 C946 1.385 . S
C950 C949 1.374 . S
C951 C948 1.499 . S
C951 C952 1.373 . S
C951 C953 1.389 . S
C952 H925 0.950 . S
C952 C938 1.377 . S
C952 C951 1.373 . S
C953 C937 1.377 . S
C953 C951 1.389 . S
C953 C954 1.524 . S
C954 C953 1.524 . S
C954 C955 1.397 1_455 S
C954 C959 1.363 . S
C955 H926 0.950 . S
C955 C954 1.397 1_655 S
C955 C956 1.334 . S
C956 H927 0.950 1_554 S
C956 C955 1.334 . S
C956 C957 1.287 1_655 S
C957 C956 1.287 1_455 S
C957 C958 1.524 . S
C957 H960 0.999 . S
C958 H928 0.950 . S
C958 C957 1.524 . S
C958 C959 1.415 . S
C959 H929 0.950 . S
C959 C954 1.363 . S
C959 C958 1.415 . S
H960 C957 0.999 . S
H961 C942 0.913 . S
H962 C980 0.951 . S
H963 C982 0.951 . S
H964 C984 0.950 . S
H965 C985 0.950 1_565 S
H966 C987 0.950 1_565 S
H967 C990 0.950 . S
H968 C991 0.950 . S
H969 C993 0.950 . S
H970 C994 0.950 . S
H971 C995 0.951 . S
H972 C997 0.951 . S
H973 C999 0.950 . S
H974 C1000 0.950 . S
H975 C1002 0.950 . S
H976 C1005 0.950 1_545 S
H977 C1006 0.950 . S
H978 C1008 0.950 . S
H979 C1009 0.950 . S
C980 H962 0.951 . S
C980 C981 1.366 . S
C980 C982 1.388 . S
C981 C980 1.366 . S
C981 C985 1.385 . S
C982 H963 0.951 . S
C982 C980 1.388 . S
C982 C983 1.366 . S
C983 C982 1.366 . S
C983 C984 1.414 . S
C983 C986 1.499 . S
C984 H964 0.950 . S
C984 C983 1.414 . S
C984 C985 1.374 . S
C985 H965 0.950 1_545 S
C985 C981 1.385 . S
C985 C984 1.374 . S
C986 C983 1.499 . S
C986 C987 1.373 . S
C986 C988 1.389 . S
C987 H966 0.950 1_545 S
C987 C986 1.373 . S
C987 C1003 1.377 . S
C988 C986 1.389 . S
C988 C989 1.524 . S
C988 C1002 1.377 . S
C989 C988 1.524 . S
C989 C990 1.397 . S
C989 C994 1.363 . S
C990 H967 0.950 . S
C990 C989 1.397 . S
C990 C991 1.334 . S
C991 H968 0.950 . S
C991 C990 1.334 . S
C991 C992 1.287 . S
C992 C991 1.287 . S
C992 C993 1.524 . S
C992 H1011 0.913 . S
C993 H969 0.950 . S
C993 C992 1.524 . S
C993 C994 1.415 . S
C994 H970 0.950 . S
C994 C989 1.363 . S
C994 C993 1.415 . S
C995 H971 0.951 . S
C995 C996 1.366 . S
C995 C997 1.388 . S
C996 C995 1.366 . S
C996 C1000 1.385 . S
C997 H972 0.951 . S
C997 C995 1.388 . S
C997 C998 1.366 . S
C998 C997 1.366 . S
C998 C999 1.414 . S
C998 C1001 1.499 . S
C999 H973 0.950 . S
C999 C998 1.414 . S
C999 C1000 1.374 . S
C1000 H974 0.950 . S
C1000 C996 1.385 . S
C1000 C999 1.374 . S
C1001 C998 1.499 . S
C1001 C1002 1.373 . S
C1001 C1003 1.389 . S
C1002 H975 0.950 . S
C1002 C988 1.377 . S
C1002 C1001 1.373 . S
C1003 C987 1.377 . S
C1003 C1001 1.389 . S
C1003 C1004 1.524 1_545 S
C1004 C1003 1.524 1_565 S
C1004 C1005 1.397 . S
C1004 C1009 1.363 . S
C1005 H976 0.950 1_565 S
C1005 C1004 1.397 . S
C1005 C1006 1.334 . S
C1006 H977 0.950 . S
C1006 C1005 1.334 . S
C1006 C1007 1.287 . S
C1007 C1006 1.287 . S
C1007 C1008 1.524 . S
C1007 H1010 0.999 . S
C1008 H978 0.950 . S
C1008 C1007 1.524 . S
C1008 C1009 1.415 . S
C1009 H979 0.950 . S
C1009 C1004 1.363 . S
C1009 C1008 1.415 . S
H1010 C1007 0.999 . S
H1011 C992 0.913 . S
H1012 C1030 0.951 . S
H1013 C1032 0.951 . S
H1014 C1034 0.950 . S
H1015 C1035 0.950 . S
H1016 C1037 0.950 . S
H1017 C1040 0.950 . S
H1018 C1041 0.950 . S
H1019 C1043 0.950 . S
H1020 C1044 0.950 . S
H1021 C1045 0.951 . S
H1022 C1047 0.951 . S
H1023 C1049 0.950 . S
H1024 C1050 0.950 . S
H1025 C1052 0.950 . S
H1026 C1055 0.950 . S
H1027 C1056 0.950 . S
H1028 C1058 0.950 . S
H1029 C1059 0.950 . S
C1030 H1012 0.951 . S
C1030 C1031 1.366 . S
C1030 C1032 1.388 . S
C1031 C1030 1.366 . S
C1031 C1035 1.385 . S
C1032 H1013 0.951 . S
C1032 C1030 1.388 . S
C1032 C1033 1.366 . S
C1033 C1032 1.366 . S
C1033 C1034 1.414 . S
C1033 C1036 1.499 . S
C1034 H1014 0.950 . S
C1034 C1033 1.414 . S
C1034 C1035 1.374 . S
C1035 H1015 0.950 . S
C1035 C1031 1.385 . S
C1035 C1034 1.374 . S
C1036 C1033 1.499 . S
C1036 C1037 1.373 . S
C1036 C1038 1.389 . S
C1037 H1016 0.950 . S
C1037 C1036 1.373 . S
C1037 C1053 1.377 . S
C1038 C1036 1.389 . S
C1038 C1039 1.524 . S
C1038 C1052 1.377 . S
C1039 C1038 1.524 . S
C1039 C1040 1.397 . S
C1039 C1044 1.363 . S
C1040 H1017 0.950 . S
C1040 C1039 1.397 . S
C1040 C1041 1.334 . S
C1041 H1018 0.950 . S
C1041 C1040 1.334 . S
C1041 C1042 1.287 . S
C1042 C1041 1.287 . S
C1042 C1043 1.524 . S
C1042 H1061 0.913 . S
C1043 H1019 0.950 . S
C1043 C1042 1.524 . S
C1043 C1044 1.415 . S
C1044 H1020 0.950 . S
C1044 C1039 1.363 . S
C1044 C1043 1.415 . S
C1045 H1021 0.951 . S
C1045 C1046 1.366 . S
C1045 C1047 1.388 . S
C1046 C1045 1.366 . S
C1046 C1050 1.385 . S
C1047 H1022 0.951 . S
C1047 C1045 1.388 . S
C1047 C1048 1.366 . S
C1048 C1047 1.366 . S
C1048 C1049 1.414 . S
C1048 C1051 1.499 . S
C1049 H1023 0.950 . S
C1049 C1048 1.414 . S
C1049 C1050 1.374 . S
C1050 H1024 0.950 . S
C1050 C1046 1.385 . S
C1050 C1049 1.374 . S
C1051 C1048 1.499 . S
C1051 C1052 1.373 . S
C1051 C1053 1.389 . S
C1052 H1025 0.950 . S
C1052 C1038 1.377 . S
C1052 C1051 1.373 . S
C1053 C1037 1.377 . S
C1053 C1051 1.389 . S
C1053 C1054 1.524 . S
C1054 C1053 1.524 . S
C1054 C1055 1.397 . S
C1054 C1059 1.363 . S
C1055 H1026 0.950 . S
C1055 C1054 1.397 . S
C1055 C1056 1.334 . S
C1056 H1027 0.950 . S
C1056 C1055 1.334 . S
C1056 C1057 1.287 . S
C1057 C1056 1.287 . S
C1057 C1058 1.524 . S
C1057 H1060 0.999 . S
C1058 H1028 0.950 . S
C1058 C1057 1.524 . S
C1058 C1059 1.415 . S
C1059 H1029 0.950 . S
C1059 C1054 1.363 . S
C1059 C1058 1.415 . S
H1060 C1057 0.999 . S
H1061 C1042 0.913 . S
H1062 C1080 0.951 . S
H1063 C1082 0.950 1_565 S
H1064 C1084 0.950 . S
H1065 C1085 0.950 . S
H1066 C1087 0.950 1_565 S
H1067 C1090 0.950 . S
H1068 C1091 0.950 . S
H1069 C1093 0.950 . S
H1070 C1094 0.950 . S
H1071 C1095 0.951 . S
H1072 C1097 0.951 . S
H1073 C1099 0.951 1_565 S
H1074 C1100 0.951 . S
H1075 C1102 0.950 . S
H1076 C1105 0.950 . S
H1077 C1106 0.950 . S
H1078 C1108 0.950 . S
H1079 C1109 0.950 1_545 S
C1080 H1062 0.951 . S
C1080 C1081 1.366 . S
C1080 C1082 1.388 . S
C1081 C1080 1.366 . S
C1081 C1085 1.385 . S
C1082 H1063 0.950 1_545 S
C1082 C1080 1.388 . S
C1082 C1083 1.366 . S
C1083 C1082 1.366 . S
C1083 C1084 1.414 . S
C1083 C1086 1.499 . S
C1084 H1064 0.950 . S
C1084 C1083 1.414 . S
C1084 C1085 1.374 . S
C1085 H1065 0.950 . S
C1085 C1081 1.385 . S
C1085 C1084 1.374 . S
C1086 C1083 1.499 . S
C1086 C1087 1.373 . S
C1086 C1088 1.389 . S
C1087 H1066 0.950 1_545 S
C1087 C1086 1.373 . S
C1087 C1103 1.377 . S
C1088 C1086 1.389 . S
C1088 C1089 1.524 . S
C1088 C1102 1.377 . S
C1089 C1088 1.524 . S
C1089 C1090 1.397 . S
C1089 C1094 1.363 . S
C1090 H1067 0.950 . S
C1090 C1089 1.397 . S
C1090 C1091 1.334 . S
C1091 H1068 0.950 . S
C1091 C1090 1.334 . S
C1091 C1092 1.287 . S
C1092 C1091 1.287 . S
C1092 C1093 1.524 . S
C1092 H1111 0.913 . S
C1093 H1069 0.950 . S
C1093 C1092 1.524 . S
C1093 C1094 1.415 . S
C1094 H1070 0.950 . S
C1094 C1089 1.363 . S
C1094 C1093 1.415 . S
C1095 H1071 0.951 . S
C1095 C1096 1.366 . S
C1095 C1097 1.388 . S
C1096 C1095 1.366 . S
C1096 C1100 1.383 1_545 S
C1097 H1072 0.951 . S
C1097 C1095 1.388 . S
C1097 C1098 1.366 . S
C1098 C1097 1.366 . S
C1098 C1099 1.414 . S
C1098 C1101 1.499 . S
C1099 H1073 0.951 1_545 S
C1099 C1098 1.414 . S
C1099 C1100 1.374 1_545 S
C1100 H1074 0.951 . S
C1100 C1096 1.383 1_565 S
C1100 C1099 1.374 1_565 S
C1101 C1098 1.499 . S
C1101 C1102 1.373 . S
C1101 C1103 1.389 . S
C1102 H1075 0.950 . S
C1102 C1088 1.377 . S
C1102 C1101 1.373 . S
C1103 C1087 1.377 . S
C1103 C1101 1.389 . S
C1103 C1104 1.524 1_545 S
C1104 C1103 1.524 1_565 S
C1104 C1105 1.397 . S
C1104 C1109 1.363 . S
C1105 H1076 0.950 . S
C1105 C1104 1.397 . S
C1105 C1106 1.334 . S
C1106 H1077 0.950 . S
C1106 C1105 1.334 . S
C1106 C1107 1.287 . S
C1107 C1106 1.287 . S
C1107 C1108 1.524 . S
C1107 H1110 0.999 . S
C1108 H1078 0.950 . S
C1108 C1107 1.524 . S
C1108 C1109 1.415 . S
C1109 H1079 0.950 1_565 S
C1109 C1104 1.363 . S
C1109 C1108 1.415 . S
H1110 C1107 0.999 . S
H1111 C1092 0.913 . S
H1112 C1130 0.951 . S
H1113 C1132 0.951 . S
H1114 C1134 0.950 . S
H1115 C1135 0.950 . S
H1116 C1137 0.950 . S
H1117 C1140 0.950 . S
H1118 C1141 0.950 . S
H1119 C1143 0.950 . S
H1120 C1144 0.950 . S
H1121 C1145 0.951 . S
H1122 C1147 0.951 1_556 S
H1123 C1149 0.936 1_556 S
H1124 C1150 0.950 . S
H1125 C1152 0.950 . S
H1126 C1155 0.950 . S
H1127 C1156 0.950 . S
H1128 C1158 0.950 . S
H1129 C1159 0.950 . S
C1130 H1112 0.951 . S
C1130 C1131 1.366 . S
C1130 C1132 1.388 . S
C1131 C1130 1.366 . S
C1131 C1135 1.385 . S
C1132 H1113 0.951 . S
C1132 C1130 1.388 . S
C1132 C1133 1.366 . S
C1133 C1132 1.366 . S
C1133 C1134 1.414 . S
C1133 C1136 1.499 . S
C1134 H1114 0.950 . S
C1134 C1133 1.414 . S
C1134 C1135 1.374 . S
C1135 H1115 0.950 . S
C1135 C1131 1.385 . S
C1135 C1134 1.374 . S
C1136 C1133 1.499 . S
C1136 C1137 1.373 . S
C1136 C1138 1.389 . S
C1137 H1116 0.950 . S
C1137 C1136 1.373 . S
C1137 C1153 1.377 . S
C1138 C1136 1.389 . S
C1138 C1139 1.524 . S
C1138 C1152 1.377 . S
C1139 C1138 1.524 . S
C1139 C1140 1.397 . S
C1139 C1144 1.363 . S
C1140 H1117 0.950 . S
C1140 C1139 1.397 . S
C1140 C1141 1.334 . S
C1141 H1118 0.950 . S
C1141 C1140 1.334 . S
C1141 C1142 1.287 . S
C1142 C1141 1.287 . S
C1142 C1143 1.524 . S
C1142 H1161 0.913 . S
C1143 H1119 0.950 . S
C1143 C1142 1.524 . S
C1143 C1144 1.415 . S
C1144 H1120 0.950 . S
C1144 C1139 1.363 . S
C1144 C1143 1.415 . S
C1145 H1121 0.951 . S
C1145 C1146 1.366 . S
C1145 C1147 1.388 . S
C1146 C1145 1.366 . S
C1146 C1150 1.385 . S
C1147 H1122 0.951 1_554 S
C1147 C1145 1.388 . S
C1147 C1148 1.366 1_554 S
C1148 C1147 1.366 1_556 S
C1148 C1149 1.414 1_556 S
C1148 C1151 1.499 . S
C1149 H1123 0.936 1_554 S
C1149 C1148 1.414 1_554 S
C1149 C1150 1.374 . S
C1150 H1124 0.950 . S
C1150 C1146 1.385 . S
C1150 C1149 1.374 . S
C1151 C1148 1.499 . S
C1151 C1152 1.373 . S
C1151 C1153 1.389 . S
C1152 H1125 0.950 . S
C1152 C1138 1.377 . S
C1152 C1151 1.373 . S
C1153 C1137 1.377 . S
C1153 C1151 1.389 . S
C1153 C1154 1.524 . S
C1154 C1153 1.524 . S
C1154 C1155 1.397 . S
C1154 C1159 1.363 . S
C1155 H1126 0.950 . S
C1155 C1154 1.397 . S
C1155 C1156 1.334 . S
C1156 H1127 0.950 . S
C1156 C1155 1.334 . S
C1156 C1157 1.287 . S
C1157 C1156 1.287 . S
C1157 C1158 1.524 . S
C1157 H1160 0.999 . S
C1158 H1128 0.950 . S
C1158 C1157 1.524 . S
C1158 C1159 1.415 . S
C1159 H1129 0.950 . S
C1159 C1154 1.363 . S
C1159 C1158 1.415 . S
H1160 C1157 0.999 . S
H1161 C1142 0.913 . S
H1162 C1180 0.951 . S
H1163 C1182 0.951 . S
H1164 C1184 0.950 . S
H1165 C1185 0.950 . S
H1166 C1187 0.950 . S
H1167 C1190 0.950 . S
H1168 C1191 0.950 . S
H1169 C1193 0.950 . S
H1170 C1194 0.950 . S
H1171 C1195 0.951 . S
H1172 C1197 0.951 . S
H1173 C1199 0.950 . S
H1174 C1200 0.950 . S
H1175 C1202 0.950 . S
H1176 C1205 0.950 . S
H1177 C1206 0.950 . S
H1178 C1208 0.950 . S
H1179 C1209 0.950 . S
C1180 H1162 0.951 . S
C1180 C1181 1.366 . S
C1180 C1182 1.388 . S
C1181 C1180 1.366 . S
C1181 C1185 1.385 1_455 S
C1182 H1163 0.951 . S
C1182 C1180 1.388 . S
C1182 C1183 1.366 . S
C1183 C1182 1.366 . S
C1183 C1184 1.414 1_455 S
C1183 C1186 1.499 . S
C1184 H1164 0.950 . S
C1184 C1183 1.414 1_655 S
C1184 C1185 1.374 . S
C1185 H1165 0.950 . S
C1185 C1181 1.385 1_655 S
C1185 C1184 1.374 . S
C1186 C1183 1.499 . S
C1186 C1187 1.373 1_455 S
C1186 C1188 1.389 . S
C1187 H1166 0.950 . S
C1187 C1186 1.373 1_655 S
C1187 C1203 1.377 . S
C1188 C1186 1.389 . S
C1188 C1189 1.524 . S
C1188 C1202 1.377 . S
C1189 C1188 1.524 . S
C1189 C1190 1.397 . S
C1189 C1194 1.363 . S
C1190 H1167 0.950 . S
C1190 C1189 1.397 . S
C1190 C1191 1.334 . S
C1191 H1168 0.950 . S
C1191 C1190 1.334 . S
C1191 C1192 1.287 . S
C1192 C1191 1.287 . S
C1192 C1193 1.524 . S
C1192 H1211 0.913 . S
C1193 H1169 0.950 . S
C1193 C1192 1.524 . S
C1193 C1194 1.415 . S
C1194 H1170 0.950 . S
C1194 C1189 1.363 . S
C1194 C1193 1.415 . S
C1195 H1171 0.951 . S
C1195 C1196 1.366 1_655 S
C1195 C1197 1.388 . S
C1196 C1195 1.366 1_455 S
C1196 C1200 1.385 . S
C1197 H1172 0.951 . S
C1197 C1195 1.388 . S
C1197 C1198 1.366 1_655 S
C1198 C1197 1.366 1_455 S
C1198 C1199 1.414 . S
C1198 C1201 1.499 . S
C1199 H1173 0.950 . S
C1199 C1198 1.414 . S
C1199 C1200 1.374 . S
C1200 H1174 0.950 . S
C1200 C1196 1.385 . S
C1200 C1199 1.374 . S
C1201 C1198 1.499 . S
C1201 C1202 1.373 . S
C1201 C1203 1.389 1_455 S
C1202 H1175 0.950 . S
C1202 C1188 1.377 . S
C1202 C1201 1.373 . S
C1203 C1187 1.377 . S
C1203 C1201 1.389 1_655 S
C1203 C1204 1.524 . S
C1204 C1203 1.524 . S
C1204 C1205 1.397 . S
C1204 C1209 1.363 . S
C1205 H1176 0.950 . S
C1205 C1204 1.397 . S
C1205 C1206 1.334 . S
C1206 H1177 0.950 . S
C1206 C1205 1.334 . S
C1206 C1207 1.287 . S
C1207 C1206 1.287 . S
C1207 C1208 1.524 . S
C1207 H1210 0.999 . S
C1208 H1178 0.950 . S
C1208 C1207 1.524 . S
C1208 C1209 1.415 . S
C1209 H1179 0.950 . S
C1209 C1204 1.363 . S
C1209 C1208 1.415 . S
H1210 C1207 0.999 . S
H1211 C1192 0.913 . S
C331 C24 2.812 . S
C346 C303 2.745 . S
C381 C66 1.048 . S
C396 C239 1.043 . S
C431 C93 1.704 . S
C446 C271 1.665 . S
C481 C13 2.989 . S
C496 C297 2.944 . S
C546 C233 1.178 . S
C531 C57 1.199 . S
C596 C265 1.803 . S
C581 C104 1.858 . S
C631 C64 1.868 . S
C646 C175 1.816 . S
C681 C97 0.346 . S
C696 C207 0.328 . S
C731 C17 1.194 . S
C746 C137 1.191 . S
C796 C169 1.670 . S
C781 C53 1.693 . S
C846 C201 0.200 . S
C831 C106 0.318 . S
C881 C26 1.065 . S
C896 C143 1.059 . S
C946 C213 1.097 . S
C931 C2 1.092 . S
C981 C63 1.461 . S
C996 C149 1.470 . S
C1031 C82 1.379 . S
C1046 C181 1.378 . S
C1096 C277 1.373 . S
C1081 C42 1.389 . S
C1146 C309 1.735 . S
C1131 C103 1.722 . S
C1181 C23 1.470 . S
C1196 C245 1.466 . S
