# Generated by pormake.
# Topology csq, (4,8)-cn, num edge types: 1
# Building blocks:
#     Node 0, Type 0, BuildingBlock: MIFKUJ_clean_linker_1, # of connection points: 4
#     Node 1, Type 0, BuildingBlock: MIFKUJ_clean_linker_1, # of connection points: 4
#     Node 2, Type 0, BuildingBlock: MIFKUJ_clean_linker_1, # of connection points: 4
#     Node 3, Type 0, BuildingBlock: MIFKUJ_clean_linker_1, # of connection points: 4
#     Node 4, Type 0, BuildingBlock: MIFKUJ_clean_linker_1, # of connection points: 4
#     Node 5, Type 0, BuildingBlock: MIFKUJ_clean_linker_1, # of connection points: 4
#     Node 6, Type 1, BuildingBlock: TAGTUT_clean_sbu_3, # of connection points: 8
#     Node 7, Type 1, BuildingBlock: TAGTUT_clean_sbu_3, # of connection points: 8
#     Node 8, Type 1, BuildingBlock: TAGTUT_clean_sbu_3, # of connection points: 8
#     Edge 9, Type (0, 1), BuildingBlock: EZIPEK_clean_linker_0, # of connection points: 2
#     Edge 10, Type (0, 1), BuildingBlock: EZIPEK_clean_linker_0, # of connection points: 2
#     Edge 11, Type (0, 1), BuildingBlock: EZIPEK_clean_linker_0, # of connection points: 2
#     Edge 12, Type (0, 1), BuildingBlock: EZIPEK_clean_linker_0, # of connection points: 2
#     Edge 13, Type (0, 1), BuildingBlock: EZIPEK_clean_linker_0, # of connection points: 2
#     Edge 14, Type (0, 1), BuildingBlock: EZIPEK_clean_linker_0, # of connection points: 2
#     Edge 15, Type (0, 1), BuildingBlock: EZIPEK_clean_linker_0, # of connection points: 2
#     Edge 16, Type (0, 1), BuildingBlock: EZIPEK_clean_linker_0, # of connection points: 2
#     Edge 17, Type (0, 1), BuildingBlock: EZIPEK_clean_linker_0, # of connection points: 2
#     Edge 18, Type (0, 1), BuildingBlock: EZIPEK_clean_linker_0, # of connection points: 2
#     Edge 19, Type (0, 1), BuildingBlock: EZIPEK_clean_linker_0, # of connection points: 2
#     Edge 20, Type (0, 1), BuildingBlock: EZIPEK_clean_linker_0, # of connection points: 2
#     Edge 21, Type (0, 1), BuildingBlock: EZIPEK_clean_linker_0, # of connection points: 2
#     Edge 22, Type (0, 1), BuildingBlock: EZIPEK_clean_linker_0, # of connection points: 2
#     Edge 23, Type (0, 1), BuildingBlock: EZIPEK_clean_linker_0, # of connection points: 2
#     Edge 24, Type (0, 1), BuildingBlock: EZIPEK_clean_linker_0, # of connection points: 2
#     Edge 25, Type (0, 1), BuildingBlock: EZIPEK_clean_linker_0, # of connection points: 2
#     Edge 26, Type (0, 1), BuildingBlock: EZIPEK_clean_linker_0, # of connection points: 2
#     Edge 27, Type (0, 1), BuildingBlock: EZIPEK_clean_linker_0, # of connection points: 2
#     Edge 28, Type (0, 1), BuildingBlock: EZIPEK_clean_linker_0, # of connection points: 2
#     Edge 29, Type (0, 1), BuildingBlock: EZIPEK_clean_linker_0, # of connection points: 2
#     Edge 30, Type (0, 1), BuildingBlock: EZIPEK_clean_linker_0, # of connection points: 2
#     Edge 31, Type (0, 1), BuildingBlock: EZIPEK_clean_linker_0, # of connection points: 2
#     Edge 32, Type (0, 1), BuildingBlock: EZIPEK_clean_linker_0, # of connection points: 2
# Relax obj value: 0.028
# Max RMSD: 0.107
# Mean RMSD: 0.042
data_MOF--net-csq--node1-TAGTUT_clean_sbu_3--node2-MIFKUJ_clean_linker_1--edge1-EZIPEK_clean_linker_0
_symmetry_space_group_name_H-M    P1
_symmetry_Int_Tables_number       1
_symmetry_cell_setting            triclinic
loop_
_symmetry_equiv_pos_as_xyz
'x, y, z'
_cell_length_a     49.940016
_cell_length_b     49.094919
_cell_length_c     16.964769
_cell_angle_alpha  92.658077
_cell_angle_beta   92.806027
_cell_angle_gamma 120.08887
loop_
_atom_site_label
_atom_site_type_symbol
_atom_site_fract_x
_atom_site_fract_y
_atom_site_fract_z
_atom_type_partial_charge
H0 H 0.27668 0.43964 0.35179 0.0
H1 H 0.3264 0.45197 0.42012 0.0
H2 H 0.37388 0.5356 0.29391 0.0
H3 H 0.32393 0.52408 0.22806 0.0
H4 H 0.24504 0.47598 0.33407 0.0
H5 H 0.29202 0.42524 0.1509 0.0
H6 H 0.33835 0.43465 0.08434 0.0
H7 H 0.34791 0.52111 0.00499 0.0
H8 H 0.30084 0.51082 0.06793 0.0
H9 H 0.20729 0.46588 0.99617 0.0
H10 H 0.16101 0.45396 0.9144 0.0
H11 H 0.10376 0.40082 0.09598 0.0
H12 H 0.15022 0.40928 0.17496 0.0
H13 H 0.23519 0.44348 0.04799 0.0
H14 H 0.18984 0.49617 0.18845 0.0
H15 H 0.15224 0.50409 0.25977 0.0
H16 H 0.14798 0.43873 0.42687 0.0
H17 H 0.18573 0.43099 0.35616 0.0
C18 C 0.29694 0.48077 0.28448 0.0
C19 C 0.29769 0.461 0.34034 0.0
C20 C 0.32588 0.46787 0.37865 0.0
C21 C 0.35342 0.49442 0.3609 0.0
C22 C 0.35264 0.51494 0.30747 0.0
C23 C 0.32434 0.50834 0.27012 0.0
C24 C 0.26798 0.47066 0.23568 0.0
C25 C 0.24249 0.46869 0.27148 0.0
C26 C 0.26549 0.46229 0.15411 0.0
C27 C 0.29282 0.46707 0.11293 0.0
C28 C 0.30393 0.44598 0.11831 0.0
C29 C 0.33046 0.45152 0.08114 0.0
C30 C 0.34652 0.47854 0.03946 0.0
C31 C 0.33581 0.50006 0.0364 0.0
C32 C 0.30888 0.49407 0.07162 0.0
C33 C 0.18255 0.43927 0.09325 0.0
C34 C 0.18491 0.45049 0.01772 0.0
C35 C 0.15844 0.4437 0.97074 0.0
C36 C 0.12913 0.4268 0.99964 0.0
C37 C 0.12628 0.41388 0.07285 0.0
C38 C 0.15286 0.41943 0.11858 0.0
C39 C 0.21134 0.44938 0.14504 0.0
C40 C 0.23704 0.45083 0.11025 0.0
C41 C 0.21447 0.45931 0.22673 0.0
C42 C 0.19031 0.46269 0.26648 0.0
C43 C 0.18062 0.48334 0.24001 0.0
C44 C 0.15938 0.48802 0.28087 0.0
C45 C 0.14743 0.47203 0.34862 0.0
C46 C 0.15701 0.45132 0.37486 0.0
C47 C 0.17841 0.44684 0.33443 0.0
H48 H 0.77069 0.3044 0.98043 0.0
H49 H 0.80771 0.34443 0.89957 0.0
H50 H 0.88231 0.33753 0.01751 0.0
H51 H 0.84528 0.29544 0.092 0.0
H52 H 0.75237 0.24733 0.97679 0.0
H53 H 0.80602 0.32924 0.19011 0.0
H54 H 0.85076 0.36958 0.27632 0.0
H55 H 0.87065 0.29852 0.35241 0.0
H56 H 0.82681 0.25835 0.26397 0.0
H57 H 0.75135 0.17105 0.2173 0.0
H58 H 0.71414 0.12283 0.27689 0.0
H59 H 0.642 0.14519 0.22939 0.0
H60 H 0.67906 0.19342 0.17109 0.0
H61 H 0.76861 0.23566 0.26128 0.0
H62 H 0.72933 0.16188 0.02225 0.0
H63 H 0.68481 0.11709 0.94514 0.0
H64 H 0.63725 0.17006 0.93706 0.0
H65 H 0.68225 0.21526 0.01246 0.0
C66 C 0.80507 0.297 0.04359 0.0
C67 C 0.79503 0.31151 0.98917 0.0
C68 C 0.81613 0.33457 0.9435 0.0
C69 C 0.84779 0.34421 0.95317 0.0
C70 C 0.85801 0.33068 0.00972 0.0
C71 C 0.83683 0.30683 0.05304 0.0
C72 C 0.78209 0.26979 0.08494 0.0
C73 C 0.75589 0.24546 0.03946 0.0
C74 C 0.78675 0.26624 0.16641 0.0
C75 C 0.81329 0.29082 0.2196 0.0
C76 C 0.82016 0.32235 0.22462 0.0
C77 C 0.84548 0.34528 0.27409 0.0
C78 C 0.86398 0.33692 0.32013 0.0
C79 C 0.85666 0.30534 0.31697 0.0
C80 C 0.83163 0.2825 0.26674 0.0
C81 C 0.71782 0.18563 0.1899 0.0
C82 C 0.72751 0.1655 0.21981 0.0
C83 C 0.70635 0.13797 0.2528 0.0
C84 C 0.67543 0.13051 0.25624 0.0
C85 C 0.66574 0.15053 0.22605 0.0
C86 C 0.68683 0.17799 0.19327 0.0
C87 C 0.73982 0.21427 0.15294 0.0
C88 C 0.76547 0.23842 0.19901 0.0
C89 C 0.73498 0.21781 0.07259 0.0
C90 C 0.70907 0.19186 0.0218 0.0
C91 C 0.70944 0.16392 0.00307 0.0
C92 C 0.68404 0.13837 0.96 0.0
C93 C 0.65783 0.14034 0.936 0.0
C94 C 0.65733 0.1682 0.9554 0.0
C95 C 0.68299 0.19398 0.99741 0.0
H96 H 0.58572 0.7667 0.92091 0.0
H97 H 0.59801 0.736 0.82595 0.0
H98 H 0.51671 0.6505 0.88073 0.0
H99 H 0.50318 0.68105 0.97088 0.0
H100 H 0.53947 0.77511 0.91443 0.0
H101 H 0.57305 0.7226 0.10257 0.0
H102 H 0.57308 0.68134 0.17987 0.0
H103 H 0.479 0.65012 0.23349 0.0
H104 H 0.47841 0.69022 0.15445 0.0
H105 H 0.46673 0.75901 0.19027 0.0
H106 H 0.46126 0.79 0.29933 0.0
H107 H 0.53875 0.87478 0.22688 0.0
H108 H 0.54595 0.84385 0.12265 0.0
H109 H 0.51106 0.74986 0.18809 0.0
H110 H 0.46856 0.78324 0.97167 0.0
H111 H 0.46054 0.82051 0.89683 0.0
H112 H 0.55969 0.88137 0.89684 0.0
H113 H 0.56766 0.84309 0.96845 0.0
C114 C 0.54396 0.72601 0.95462 0.0
C115 C 0.57053 0.74132 0.91236 0.0
C116 C 0.57755 0.72399 0.85829 0.0
C117 C 0.55844 0.69114 0.84761 0.0
C118 C 0.53182 0.67591 0.88914 0.0
C119 C 0.5244 0.69324 0.9415 0.0
C120 C 0.53521 0.74464 0.00673 0.0
C121 C 0.53372 0.76981 0.97482 0.0
C122 C 0.52602 0.7366 0.08405 0.0
C123 C 0.52574 0.70971 0.12262 0.0
C124 C 0.55217 0.70642 0.12925 0.0
C125 C 0.55226 0.68298 0.17362 0.0
C126 C 0.52611 0.66288 0.21299 0.0
C127 C 0.49944 0.66545 0.20396 0.0
C128 C 0.4992 0.68846 0.15905 0.0
C129 C 0.50666 0.79908 0.14761 0.0
C130 C 0.48222 0.78437 0.19694 0.0
C131 C 0.47896 0.80194 0.25886 0.0
C132 C 0.49953 0.83456 0.27057 0.0
C133 C 0.52252 0.84959 0.21806 0.0
C134 C 0.52633 0.83196 0.15773 0.0
C135 C 0.51474 0.77975 0.09526 0.0
C136 C 0.51654 0.75482 0.12743 0.0
C137 C 0.52314 0.78709 0.01743 0.0
C138 C 0.51867 0.81064 0.97625 0.0
C139 C 0.48856 0.80456 0.95547 0.0
C140 C 0.48402 0.82567 0.91236 0.0
C141 C 0.50953 0.85359 0.89079 0.0
C142 C 0.53973 0.85984 0.91219 0.0
C143 C 0.54425 0.83819 0.95339 0.0
H144 H 0.82571 0.51733 0.20502 0.0
H145 H 0.87695 0.52646 0.25044 0.0
H146 H 0.91792 0.58971 0.06741 0.0
H147 H 0.86656 0.5816 0.02354 0.0
H148 H 0.79813 0.55202 0.18387 0.0
H149 H 0.82797 0.48881 0.01804 0.0
H150 H 0.86779 0.48732 0.941 0.0
H151 H 0.86189 0.55068 0.78287 0.0
H152 H 0.82208 0.5522 0.85946 0.0
H153 H 0.7434 0.54488 0.87883 0.0
H154 H 0.69535 0.53883 0.81773 0.0
H155 H 0.64411 0.47945 0.99888 0.0
H156 H 0.69233 0.48402 0.05848 0.0
H157 H 0.76409 0.50715 0.90475 0.0
H158 H 0.74646 0.58045 0.08282 0.0
H159 H 0.71233 0.58996 0.16543 0.0
H160 H 0.6956 0.51018 0.29558 0.0
H161 H 0.7307 0.50155 0.21515 0.0
C162 C 0.84243 0.54835 0.11027 0.0
C163 C 0.84578 0.53381 0.17597 0.0
C164 C 0.87486 0.53883 0.20135 0.0
C165 C 0.90083 0.55831 0.16109 0.0
C166 C 0.8979 0.57434 0.09819 0.0
C167 C 0.86878 0.56972 0.07353 0.0
C168 C 0.81105 0.53852 0.07571 0.0
C169 C 0.79052 0.54195 0.1231 0.0
C170 C 0.80131 0.52527 0.9966 0.0
C171 C 0.82223 0.52083 0.94479 0.0
C172 C 0.83495 0.50207 0.96623 0.0
C173 C 0.85768 0.50129 0.92266 0.0
C174 C 0.86793 0.51921 0.85711 0.0
C175 C 0.85428 0.53682 0.83356 0.0
C176 C 0.83151 0.53754 0.87692 0.0
C177 C 0.72147 0.51527 0.97376 0.0
C178 C 0.72181 0.52994 0.90461 0.0
C179 C 0.6945 0.52654 0.86986 0.0
C180 C 0.6665 0.50871 0.9041 0.0
C181 C 0.66568 0.49315 0.97189 0.0
C182 C 0.69313 0.49611 0.00613 0.0
C183 C 0.75125 0.52135 0.01225 0.0
C184 C 0.77151 0.51693 0.96577 0.0
C185 C 0.76079 0.53386 0.09198 0.0
C186 C 0.74091 0.54021 0.14281 0.0
C187 C 0.73566 0.56524 0.12969 0.0
C188 C 0.71626 0.57066 0.17672 0.0
C189 C 0.70129 0.55067 0.23641 0.0
C190 C 0.70691 0.52588 0.24995 0.0
C191 C 0.72685 0.52093 0.20414 0.0
H192 H 0.2266 0.86405 0.99589 0.0
H193 H 0.25971 0.90926 0.92045 0.0
H194 H 0.33063 0.88364 0.93396 0.0
H195 H 0.29778 0.8387 0.00899 0.0
H196 H 0.20694 0.79534 0.95773 0.0
H197 H 0.27365 0.88417 0.17157 0.0
H198 H 0.3223 0.92074 0.25244 0.0
H199 H 0.34468 0.84676 0.26466 0.0
H200 H 0.29644 0.81039 0.184 0.0
H201 H 0.22607 0.73605 0.22138 0.0
H202 H 0.19867 0.6959 0.31442 0.0
H203 H 0.11737 0.70406 0.26942 0.0
H204 H 0.14495 0.74483 0.1783 0.0
H205 H 0.23913 0.79553 0.23898 0.0
H206 H 0.21108 0.73154 0.97714 0.0
H207 H 0.17642 0.68242 0.89532 0.0
H208 H 0.0974 0.68992 0.95662 0.0
H209 H 0.13244 0.74001 0.03648 0.0
C210 C 0.25994 0.8483 0.00838 0.0
C211 C 0.24922 0.86815 0.98218 0.0
C212 C 0.26801 0.89385 0.93952 0.0
C213 C 0.29749 0.89962 0.92207 0.0
C214 C 0.30792 0.87946 0.94715 0.0
C215 C 0.28927 0.85396 0.98994 0.0
C216 C 0.24072 0.82186 0.05599 0.0
C217 C 0.21341 0.79573 0.01996 0.0
C218 C 0.25067 0.82096 0.13459 0.0
C219 C 0.28151 0.84464 0.17251 0.0
C220 C 0.28939 0.87611 0.1902 0.0
C221 C 0.31698 0.89684 0.23611 0.0
C222 C 0.33672 0.88616 0.26434 0.0
C223 C 0.3296 0.85523 0.24315 0.0
C224 C 0.30215 0.8346 0.19754 0.0
C225 C 0.18719 0.74274 0.19111 0.0
C226 C 0.2023 0.72913 0.23139 0.0
C227 C 0.18695 0.70668 0.28525 0.0
C228 C 0.1563 0.69758 0.29955 0.0
C229 C 0.14121 0.7112 0.25969 0.0
C230 C 0.15663 0.73382 0.20629 0.0
C231 C 0.2048 0.76927 0.14191 0.0
C232 C 0.23189 0.79546 0.17753 0.0
C233 C 0.19607 0.76883 0.06105 0.0
C234 C 0.17419 0.73895 0.01403 0.0
C235 C 0.18629 0.72265 0.97286 0.0
C236 C 0.16661 0.6948 0.92597 0.0
C237 C 0.13441 0.68257 0.92011 0.0
C238 C 0.12222 0.69905 0.9605 0.0
C239 C 0.14208 0.72732 0.00665 0.0
H240 H 0.54452 0.24094 0.08879 0.0
H241 H 0.55759 0.2076 0.00582 0.0
H242 H 0.46886 0.12621 0.03882 0.0
H243 H 0.45585 0.15945 0.12255 0.0
H244 H 0.4912 0.24408 0.03951 0.0
H245 H 0.53229 0.21342 0.25696 0.0
H246 H 0.53461 0.17382 0.33522 0.0
H247 H 0.44239 0.14332 0.40397 0.0
H248 H 0.43929 0.1818 0.3224 0.0
H249 H 0.4225 0.25417 0.29524 0.0
H250 H 0.41799 0.29293 0.38222 0.0
H251 H 0.50472 0.36714 0.31081 0.0
H252 H 0.50969 0.32858 0.22549 0.0
H253 H 0.4685 0.24247 0.32057 0.0
H254 H 0.43645 0.28722 0.11548 0.0
H255 H 0.43778 0.32597 0.02758 0.0
H256 H 0.51867 0.33282 0.9289 0.0
H257 H 0.52011 0.29777 0.02339 0.0
C258 C 0.49924 0.20248 0.11116 0.0
C259 C 0.52822 0.21578 0.07951 0.0
C260 C 0.53567 0.19693 0.03256 0.0
C261 C 0.51397 0.16478 0.01618 0.0
C262 C 0.4857 0.15111 0.05119 0.0
C263 C 0.47835 0.16993 0.09878 0.0
C264 C 0.48959 0.22334 0.14881 0.0
C265 C 0.48687 0.24459 0.10145 0.0
C266 C 0.48248 0.22203 0.22847 0.0
C267 C 0.48521 0.20001 0.28152 0.0
C268 C 0.51239 0.19806 0.28808 0.0
C269 C 0.51395 0.17581 0.33371 0.0
C270 C 0.48863 0.15558 0.37505 0.0
C271 C 0.46217 0.15874 0.37245 0.0
C272 C 0.46041 0.18064 0.32577 0.0
C273 C 0.46629 0.28867 0.25348 0.0
C274 C 0.44024 0.27889 0.29734 0.0
C275 C 0.43765 0.3008 0.3468 0.0
C276 C 0.46105 0.33261 0.35238 0.0
C277 C 0.48647 0.34256 0.30656 0.0
C278 C 0.48916 0.3207 0.25757 0.0
C279 C 0.47167 0.26502 0.21226 0.0
C280 C 0.4731 0.24265 0.25868 0.0
C281 C 0.4787 0.26622 0.13192 0.0
C282 C 0.47851 0.28961 0.07816 0.0
C283 C 0.45517 0.29776 0.07714 0.0
C284 C 0.45554 0.31951 0.0257 0.0
C285 C 0.47835 0.33243 0.97139 0.0
C286 C 0.50091 0.32339 0.97031 0.0
C287 C 0.50148 0.30301 0.0242 0.0
C288 C 0.05455 0.47807 0.5277 0.0
C289 C 0.03812 0.44216 0.81788 0.0
C290 C 0.9486 0.43174 0.77935 0.0
Mg291 Mg 0.02485 0.5143 0.43601 0.0
Mg292 Mg 0.0064 0.56251 0.53077 0.0
O293 O 0.0031 0.523 0.52086 0.0
Mg294 Mg 0.01293 0.50409 0.61077 0.0
O295 O 0.02262 0.48264 0.69448 0.0
Mg296 Mg 9e-05 0.43788 0.64549 0.0
Mg297 Mg 0.01307 0.48815 0.79735 0.0
C298 C 0.96852 0.53104 0.67872 0.0
O299 O 0.0489 0.55185 0.68125 0.0
O300 O -0.00063 0.52957 0.34719 0.0
O301 O 0.03779 0.53936 0.80693 0.0
O302 O 0.0654 0.56543 0.44579 0.0
O303 O 0.98296 0.5575 0.41836 0.0
O304 O 0.05371 0.598 0.51257 0.0
O305 O 0.9774 0.45506 0.55372 0.0
O306 O 0.98278 0.46396 0.4266 0.0
C307 C 0.96929 0.44565 0.48058 0.0
C308 C 0.98476 0.54479 0.35274 0.0
O309 O 0.97616 0.50958 0.67656 0.0
O310 O 0.0274 0.42912 0.74712 0.0
O311 O 0.97952 0.55429 0.63454 0.0
O312 O 0.95839 0.4222 0.72215 0.0
O313 O 0.03423 0.46417 0.84833 0.0
O314 O 0.96496 0.45944 0.81362 0.0
O315 O 0.04826 0.50032 0.53528 0.0
O316 O 0.04092 0.45351 0.56624 0.0
C317 C 0.07182 0.59321 0.47068 0.0
C318 C 0.05212 0.55951 0.75642 0.0
C319 C 0.49743 0.05289 0.50164 0.0
C320 C 0.58179 0.02937 0.41573 0.0
C321 C 0.51961 0.93515 0.48308 0.0
Mg322 Mg 0.45077 0.02443 0.63972 0.0
Mg323 Mg 0.46777 0.99636 0.79245 0.0
O324 O 0.46099 0.99288 0.68246 0.0
Mg325 Mg 0.49637 0.00077 0.61913 0.0
O326 O 0.53033 0.01023 0.54933 0.0
Mg327 Mg 0.50605 0.99417 0.44355 0.0
Mg328 Mg 0.55991 -0.00147 0.57387 0.0
C329 C 0.48912 0.94754 0.74776 0.0
O330 O 0.53522 0.03188 0.71652 0.0
O331 O 0.4076 0.00179 0.71439 0.0
O332 O 0.5739 0.02204 0.69245 0.0
O333 O 0.48012 0.06321 0.74111 0.0
O334 O 0.42129 0.98244 0.81689 0.0
O335 O 0.4985 0.04426 0.83143 0.0
O336 O 0.46137 0.97152 0.51418 0.0
O337 O 0.4258 0.98551 0.53769 0.0
C338 C 0.43527 0.96985 0.49639 0.0
C339 C 0.40142 0.98668 0.77717 0.0
O340 O 0.49475 0.95663 0.67695 0.0
O341 O 0.55363 0.02013 0.39051 0.0
O342 O 0.48347 0.96316 0.80035 0.0
O343 O 0.50865 0.94911 0.44239 0.0
O344 O 0.58928 0.0232 0.48305 0.0
O345 O 0.53744 0.94858 0.54609 0.0
O346 O 0.49426 0.043 0.5711 0.0
O347 O 0.5036 0.03931 0.44543 0.0
C348 C 0.49818 0.0675 0.8025 0.0
C349 C 0.56224 0.03548 0.73377 0.0
C350 C 0.54237 0.57735 0.72901 0.0
C351 C 0.44482 0.48644 0.85707 0.0
C352 C 0.48181 0.42921 0.77943 0.0
Mg353 Mg 0.57688 0.57047 0.57304 0.0
Mg354 Mg 0.53533 0.51403 0.43351 0.0
O355 O 0.54949 0.52424 0.54106 0.0
Mg356 Mg 0.5183 0.51242 0.62232 0.0
O357 O 0.48871 0.50208 0.70651 0.0
Mg358 Mg 0.51652 0.50942 0.80301 0.0
Mg359 Mg 0.45328 0.46163 0.69213 0.0
C360 C 0.49304 0.44804 0.50524 0.0
O361 O 0.48116 0.51159 0.53923 0.0
O362 O 0.61015 0.57 0.47948 0.0
O363 O 0.43793 0.46964 0.57748 0.0
O364 O 0.5537 0.58659 0.47776 0.0
O365 O 0.57995 0.52855 0.39112 0.0
O366 O 0.52041 0.54609 0.39499 0.0
O367 O 0.55329 0.51345 0.71396 0.0
O368 O 0.59658 0.55197 0.66836 0.0
C369 C 0.58297 0.53127 0.71813 0.0
C370 C 0.60654 0.55175 0.41777 0.0
O371 O 0.49775 0.46073 0.57618 0.0
O372 O 0.4745 0.50351 0.8729 0.0
O373 O 0.50298 0.46411 0.44473 0.0
O374 O 0.49928 0.45662 0.81507 0.0
O375 O 0.43248 0.4683 0.79315 0.0
O376 O 0.4648 0.42554 0.71664 0.0
O377 O 0.53999 0.5641 0.66028 0.0
O378 O 0.53298 0.56124 0.78919 0.0
C379 C 0.53252 0.57507 0.42025 0.0
C380 C 0.45191 0.49189 0.53151 0.0
C381 C 0.09386 0.46416 0.35692 0.0
C382 C 0.12452 0.47657 0.39193 0.0
C383 C 0.10999 0.49254 0.5147 0.0
C384 C 0.07969 0.48129 0.47832 0.0
N385 N 0.04549 0.46407 0.35893 0.0
N386 N 0.16375 0.50851 0.49735 0.0
C387 C 0.07251 0.46954 0.3975 0.0
C388 C 0.1332 0.49258 0.46892 0.0
N389 N 0.08462 0.44593 0.28657 0.0
N390 N 0.11638 0.50248 0.59352 0.0
H391 H 0.18134 0.50924 0.46513 0.0
H392 H 0.17205 0.52323 0.54959 0.0
H393 H 0.10047 0.50423 0.62794 0.0
H394 H 0.13675 0.50729 0.62586 0.0
H395 H 0.06161 0.43329 0.26276 0.0
H396 H 0.09939 0.4411 0.2551 0.0
H397 H 0.04017 0.45845 0.29811 0.0
H398 H 0.02993 0.46853 0.38689 0.0
C399 C 0.63629 0.07278 0.25862 0.0
C400 C 0.65361 0.10344 0.2985 0.0
C401 C 0.62298 0.08546 0.41245 0.0
C402 C 0.60686 0.05428 0.37502 0.0
N403 N 0.6003 0.01687 0.26825 0.0
N404 N 0.66831 0.13772 0.41856 0.0
C405 C 0.61412 0.04748 0.29959 0.0
C406 C 0.64851 0.10934 0.37719 0.0
N407 N 0.6405 0.06814 0.1812 0.0
N408 N 0.61282 0.09272 0.47944 0.0
H409 H 0.6872 0.15604 0.39438 0.0
H410 H 0.66776 0.14208 0.47897 0.0
H411 H 0.59365 0.07621 0.50671 0.0
H412 H 0.62151 0.11573 0.50396 0.0
H413 H 0.62638 0.04724 0.14602 0.0
H414 H 0.65724 0.08599 0.15048 0.0
H415 H 0.60667 0.00988 0.21701 0.0
H416 H 0.58378 0.99799 0.29687 0.0
C417 C 0.54248 0.65162 0.34475 0.0
C418 C 0.5267 0.64025 0.26803 0.0
C419 C 0.50527 0.58573 0.30428 0.0
C420 C 0.52497 0.59687 0.37593 0.0
N421 N 0.54831 0.63962 0.479 0.0
N422 N 0.49525 0.59646 0.17146 0.0
C423 C 0.53987 0.62972 0.40051 0.0
C424 C 0.50859 0.60728 0.24704 0.0
N425 N 0.5602 0.68344 0.36441 0.0
N426 N 0.48112 0.55531 0.29455 0.0
H427 H 0.49724 0.61149 0.12776 0.0
H428 H 0.48469 0.57278 0.15033 0.0
H429 H 0.47456 0.54064 0.34083 0.0
H430 H 0.46454 0.54646 0.24628 0.0
H431 H 0.57576 0.69327 0.41465 0.0
H432 H 0.56096 0.70031 0.32805 0.0
H433 H 0.55691 0.66276 0.50221 0.0
H434 H 0.54224 0.62392 0.52282 0.0
C435 C 0.93044 0.53072 0.17268 0.0
C436 C 0.93019 0.55932 0.183 0.0
C437 C 0.97674 0.58136 0.27312 0.0
C438 C 0.971 0.55026 0.2809 0.0
N439 N 0.9425 0.49461 0.23543 0.0
N440 N 0.9541 0.61319 0.23916 0.0
C441 C 0.94856 0.52475 0.22821 0.0
C442 C 0.95418 0.58544 0.23031 0.0
N443 N 0.91226 0.50898 0.11182 0.0
N444 N 0.0034 0.60672 0.30809 0.0
H445 H 0.93809 0.61714 0.20764 0.0
H446 H 0.9689 0.63166 0.2808 0.0
H447 H 0.0204 0.60422 0.33964 0.0
H448 H 0.00995 0.63002 0.2991 0.0
H449 H 0.91311 0.48858 0.09738 0.0
H450 H 0.89873 0.51327 0.07107 0.0
H451 H 0.92379 0.47491 0.20433 0.0
H452 H 0.95473 0.48878 0.27604 0.0
C453 C 0.39221 0.92857 0.29653 0.0
C454 C 0.36328 0.90622 0.32266 0.0
C455 C 0.38536 0.92028 0.46028 0.0
C456 C 0.4128 0.94567 0.43523 0.0
N457 N 0.44266 0.97508 0.33039 0.0
N458 N 0.33086 0.88215 0.42891 0.0
C459 C 0.41652 0.94992 0.35345 0.0
C460 C 0.35948 0.90227 0.40444 0.0
N461 N 0.39646 0.92904 0.21748 0.0
N462 N 0.3844 0.91301 0.53735 0.0
H463 H 0.3113 0.86812 0.38982 0.0
H464 H 0.32589 0.88109 0.48797 0.0
H465 H 0.40324 0.92552 0.57959 0.0
H466 H 0.3662 0.89287 0.5577 0.0
H467 H 0.41792 0.94244 0.19498 0.0
H468 H 0.37884 0.91416 0.17423 0.0
H469 H 0.44522 0.98191 0.27278 0.0
H470 H 0.46129 0.99032 0.3703 0.0
C471 C 0.44427 0.37136 0.38799 0.0
C472 C 0.46056 0.35581 0.4095 0.0
C473 C 0.49064 0.39618 0.51766 0.0
C474 C 0.47655 0.41334 0.49077 0.0
N475 N 0.43211 0.41189 0.4254 0.0
N476 N 0.49075 0.34671 0.50839 0.0
C477 C 0.45057 0.39896 0.4342 0.0
C478 C 0.48075 0.36591 0.47963 0.0
N479 N 0.42428 0.36085 0.32116 0.0
N480 N 0.51476 0.40956 0.57517 0.0
H481 H 0.48377 0.32445 0.48077 0.0
H482 H 0.50344 0.35143 0.56282 0.0
H483 H 0.52171 0.43099 0.60703 0.0
H484 H 0.52862 0.39996 0.5898 0.0
H485 H 0.41457 0.37344 0.29738 0.0
H486 H 0.41857 0.34012 0.28714 0.0
H487 H 0.41152 0.40153 0.38885 0.0
H488 H 0.43591 0.43129 0.46214 0.0
C489 C 0.48957 0.89113 0.89128 0.0
C490 C 0.50401 0.87688 0.85043 0.0
C491 C 0.50067 0.90179 0.73017 0.0
C492 C 0.4892 0.91851 0.77434 0.0
N493 N 0.45435 0.91072 0.87632 0.0
N494 N 0.52392 0.86852 0.73054 0.0
C495 C 0.47828 0.90795 0.84923 0.0
C496 C 0.50978 0.88219 0.76962 0.0
N497 N 0.48729 0.88943 0.97108 0.0
N498 N 0.49846 0.90073 0.64961 0.0
H499 H 0.52876 0.85225 0.75521 0.0
H500 H 0.53255 0.87471 0.67549 0.0
H501 H 0.4862 0.90942 0.6188 0.0
H502 H 0.50386 0.8868 0.61333 0.0
H503 H 0.47955 0.90214 0.00434 0.0
H504 H 0.49613 0.87812 0.0052 0.0
H505 H 0.44401 0.90114 0.92772 0.0
H506 H 0.44161 0.91782 0.84106 0.0
C507 C 0.63908 0.53808 0.88669 0.0
C508 C 0.63924 0.50971 0.87136 0.0
C509 C 0.60053 0.49397 0.75891 0.0
C510 C 0.6023 0.52376 0.77101 0.0
N511 N 0.63119 0.57761 0.82967 0.0
N512 N 0.6181 0.45844 0.8026 0.0
C513 C 0.62348 0.54675 0.83078 0.0
C514 C 0.61906 0.48677 0.81062 0.0
N515 N 0.65462 0.55711 0.95408 0.0
N516 N 0.58339 0.47404 0.69387 0.0
H517 H 0.63154 0.45295 0.84033 0.0
H518 H 0.60295 0.4396 0.76254 0.0
H519 H 0.5714 0.47958 0.6516 0.0
H520 H 0.58205 0.45264 0.67848 0.0
H521 H 0.65275 0.5766 0.97247 0.0
H522 H 0.66683 0.55148 0.99558 0.0
H523 H 0.64851 0.59575 0.86812 0.0
H524 H 0.62355 0.58595 0.78368 0.0
C525 C 0.09664 0.64941 0.80324 0.0
C526 C 0.11362 0.6515 0.87517 0.0
C527 C 0.0964 0.59535 0.85425 0.0
C528 C 0.07548 0.59204 0.78976 0.0
N529 N 0.05332 0.61584 0.70743 0.0
N530 N 0.12482 0.62499 0.97703 0.0
C531 C 0.07506 0.61909 0.7649 0.0
C532 C 0.11214 0.62404 0.90292 0.0
N533 N 0.1017 0.67632 0.77047 0.0
N534 N 0.1021 0.57138 0.86743 0.0
H535 H 0.13584 0.64538 0.01581 0.0
H536 H 0.12156 0.60482 0.00291 0.0
H537 H 0.09234 0.55059 0.83024 0.0
H538 H 0.11921 0.57366 0.90937 0.0
H539 H 0.09251 0.6763 0.71397 0.0
H540 H 0.11731 0.69888 0.79683 0.0
H541 H 0.04972 0.63425 0.69335 0.0
H542 H 0.03729 0.59421 0.67775 0.0
C543 C 0.52964 0.1251 0.98185 0.0
C544 C 0.51947 0.14576 0.95678 0.0
C545 C 0.51268 0.12452 0.81975 0.0
C546 C 0.51535 0.09923 0.84769 0.0
N547 N 0.54428 0.08666 0.94235 0.0
N548 N 0.50292 0.16707 0.85176 0.0
C549 C 0.52945 0.10288 0.9251 0.0
C550 C 0.51219 0.14661 0.87533 0.0
N551 N 0.53809 0.12584 0.06014 0.0
N552 N 0.51223 0.12811 0.74052 0.0
H553 H 0.50265 0.18403 0.89055 0.0
H554 H 0.49368 0.16598 0.79453 0.0
H555 H 0.51565 0.11371 0.70017 0.0
H556 H 0.51268 0.14745 0.71642 0.0
H557 H 0.54199 0.10881 0.08373 0.0
H558 H 0.5398 0.14287 0.10249 0.0
H559 H 0.55695 0.08988 0.99598 0.0
H560 H 0.54742 0.07317 0.89872 0.0
C561 C 0.37203 0.48491 0.91196 0.0
C562 C 0.37352 0.4835 0.99526 0.0
C563 C 0.42374 0.48578 0.99123 0.0
C564 C 0.42307 0.48953 0.90875 0.0
N565 N 0.40161 0.50405 0.79859 0.0
N566 N 0.40497 0.49175 0.11634 0.0
C567 C 0.39881 0.49277 0.87173 0.0
C568 C 0.40072 0.48677 0.03574 0.0
N569 N 0.34471 0.4772 0.87025 0.0
N570 N 0.44519 0.47977 0.02655 0.0
H571 H 0.38924 0.49415 0.15001 0.0
H572 H 0.4255 0.49689 0.14851 0.0
H573 H 0.46204 0.47823 0.99599 0.0
H574 H 0.44454 0.47367 0.08474 0.0
H575 H 0.34203 0.47506 0.80854 0.0
H576 H 0.32392 0.46957 0.89646 0.0
H577 H 0.3856 0.50925 0.77208 0.0
H578 H 0.4217 0.51177 0.76892 0.0
C579 C 0.88651 0.35509 0.85407 0.0
C580 C 0.87014 0.36594 0.89929 0.0
C581 C 0.89966 0.41768 0.84658 0.0
C582 C 0.9201 0.40846 0.81524 0.0
N583 N 0.93685 0.36963 0.81273 0.0
N584 N 0.86403 0.40953 0.94691 0.0
C585 C 0.91453 0.37739 0.82452 0.0
C586 C 0.8773 0.39778 0.89757 0.0
N587 N 0.87554 0.32348 0.8399 0.0
N588 N 0.9011 0.44497 0.8266 0.0
H589 H 0.84813 0.39596 0.98641 0.0
H590 H 0.87096 0.43343 0.95354 0.0
H591 H 0.91614 0.45926 0.78644 0.0
H592 H 0.88508 0.45143 0.84299 0.0
H593 H 0.88566 0.31461 0.80185 0.0
H594 H 0.85448 0.3063 0.85884 0.0
H595 H 0.93413 0.34783 0.82537 0.0
H596 H 0.95952 0.38591 0.80167 0.0
C597 C 0.88719 0.50126 0.74344 0.0
C598 C 0.89388 0.52066 0.81451 0.0
C599 C 0.94986 0.54411 0.80175 0.0
C600 C 0.94304 0.52679 0.72715 0.0
N601 N 0.90568 0.49165 0.62161 0.0
N602 N 0.93094 0.56235 0.9094 0.0
C603 C 0.91181 0.50601 0.69661 0.0
C604 C 0.92509 0.54247 0.84347 0.0
N605 N 0.85734 0.47775 0.72186 0.0
N606 N 0.98001 0.56177 0.83294 0.0
H607 H 0.91339 0.56137 0.94204 0.0
H608 H 0.95286 0.58108 0.92919 0.0
H609 H -0.00134 0.56427 0.80251 0.0
H610 H 0.98655 0.57227 0.89061 0.0
H611 H 0.85131 0.46046 0.67572 0.0
H612 H 0.83871 0.47387 0.75438 0.0
H613 H 0.88352 0.47902 0.59247 0.0
H614 H 0.92305 0.49424 0.58571 0.0
C615 C 0.34078 0.95557 0.92115 0.0
C616 C 0.31826 0.92692 0.87838 0.0
C617 C 0.34578 0.94321 0.75853 0.0
C618 C 0.36957 0.9708 0.80298 0.0
N619 N 0.3857 0.00803 0.91677 0.0
N620 N 0.29384 0.89738 0.75333 0.0
C621 C 0.36551 0.97862 0.88113 0.0
C622 C 0.31884 0.92224 0.79566 0.0
N623 N 0.33937 0.95987 1.0007 0.0
N624 N 0.34999 0.93576 0.68324 0.0
H625 H 0.27404 0.88149 0.77971 0.0
H626 H 0.29149 0.89413 0.69177 0.0
H627 H 0.36895 0.95079 0.65306 0.0
H628 H 0.33547 0.91405 0.65165 0.0
H629 H 0.35698 0.97848 0.03736 0.0
H630 H 0.32088 0.94388 0.03095 0.0
H631 H 0.38297 0.01635 0.97159 0.0
H632 H 0.4038 0.02519 0.88757 0.0
C633 C 0.45284 0.34867 0.86492 0.0
C634 C 0.47921 0.35592 0.91667 0.0
C635 C 0.5085 0.40581 0.85599 0.0
C636 C 0.48077 0.40162 0.81663 0.0
N637 N 0.42441 0.37001 0.79891 0.0
N638 N 0.53052 0.39573 0.97287 0.0
C639 C 0.45227 0.37319 0.82447 0.0
C640 C 0.50668 0.3857 0.91532 0.0
N641 N 0.42858 0.31835 0.85286 0.0
N642 N 0.53673 0.42873 0.83593 0.0
H643 H 0.52941 0.38284 0.02098 0.0
H644 H 0.54982 0.41847 0.97761 0.0
H645 H 0.53891 0.44259 0.78927 0.0
H646 H 0.55759 0.43112 0.85908 0.0
H647 H 0.41011 0.31152 0.81025 0.0
H648 H 0.42861 0.29954 0.87893 0.0
H649 H 0.40322 0.35084 0.81088 0.0
H650 H 0.42206 0.38771 0.77383 0.0
C651 C 0.07711 0.40154 0.91934 0.0
C652 C 0.10317 0.42853 0.95949 0.0
C653 C 0.08875 0.46294 0.89519 0.0
C654 C 0.0606 0.43625 0.86238 0.0
N655 N 0.0254 0.37985 0.8538 0.0
N656 N 0.12783 0.48381 0.00489 0.0
C657 C 0.05393 0.40532 0.87726 0.0
C658 C 0.10694 0.45886 0.9539 0.0
N659 N 0.07497 0.37271 0.91937 0.0
N660 N 0.09913 0.49198 0.86726 0.0
H661 H 0.14095 0.48149 0.0511 0.0
H662 H 0.12943 0.50585 0.00653 0.0
H663 H 0.088 0.49564 0.81873 0.0
H664 H 0.12083 0.51146 0.88575 0.0
H665 H 0.0581 0.35287 0.88438 0.0
H666 H 0.09145 0.36921 0.95015 0.0
H667 H 0.01837 0.35715 0.86992 0.0
H668 H 0.00782 0.38185 0.82384 0.0
C669 C 0.61297 0.08446 0.91892 0.0
C670 C 0.63164 0.11375 0.88651 0.0
C671 C 0.60046 0.09265 0.75966 0.0
C672 C 0.58419 0.06242 0.78929 0.0
N673 N 0.57653 0.02816 0.89341 0.0
N674 N 0.64694 0.14413 0.77223 0.0
C675 C 0.591 0.05785 0.86787 0.0
C676 C 0.62628 0.11753 0.80596 0.0
N677 N 0.61549 0.08244 0.99875 0.0
N678 N 0.59137 0.09757 0.68684 0.0
H679 H 0.66671 0.16271 0.80331 0.0
H680 H 0.64616 0.14656 0.71164 0.0
H681 H 0.5735 0.07968 0.64894 0.0
H682 H 0.59994 0.1199 0.66642 0.0
H683 H 0.60044 0.06265 0.02693 0.0
H684 H 0.63093 0.10168 0.0379 0.0
H685 H 0.58285 0.02275 0.94731 0.0
H686 H 0.55933 0.00851 0.85828 0.0
C687 C 0.58486 0.66059 0.82683 0.0
C688 C 0.56566 0.67142 0.79496 0.0
C689 C 0.53796 0.6247 0.70194 0.0
C690 C 0.55429 0.6116 0.7408 0.0
N691 N 0.59261 0.61629 0.84181 0.0
N692 N 0.53316 0.67107 0.68626 0.0
C693 C 0.57827 0.62973 0.80221 0.0
C694 C 0.54554 0.65592 0.72628 0.0
N695 N 0.60877 0.67964 0.88209 0.0
N696 N 0.51279 0.60626 0.64924 0.0
H697 H 0.53858 0.69399 0.70484 0.0
H698 H 0.52038 0.66245 0.63149 0.0
H699 H 0.50555 0.58294 0.63051 0.0
H700 H 0.49768 0.61343 0.62719 0.0
H701 H 0.62551 0.67456 0.90351 0.0
H702 H 0.61359 0.70221 0.90148 0.0
H703 H 0.6078 0.6267 0.89244 0.0
H704 H 0.58762 0.59337 0.82722 0.0
C705 C 0.50951 0.1355 0.48241 0.0
C706 C 0.48876 0.12919 0.4147 0.0
C707 C 0.46817 0.0725 0.42157 0.0
C708 C 0.49186 0.07892 0.4816 0.0
N709 N 0.5382 0.11715 0.56141 0.0
N710 N 0.45219 0.09174 0.31077 0.0
C711 C 0.51325 0.11061 0.51065 0.0
C712 C 0.46896 0.09767 0.38206 0.0
N713 N 0.52532 0.16514 0.52029 0.0
N714 N 0.44466 0.04222 0.40264 0.0
H715 H 0.4527 0.10944 0.27813 0.0
H716 H 0.44015 0.06946 0.28011 0.0
H717 H 0.44325 0.02336 0.43126 0.0
H718 H 0.42507 0.03633 0.36502 0.0
H719 H 0.53845 0.17041 0.5743 0.0
H720 H 0.523 0.18381 0.50125 0.0
H721 H 0.55654 0.13998 0.57714 0.0
H722 H 0.54147 0.09958 0.58418 0.0
C723 C 0.3957 0.51823 0.46954 0.0
C724 C 0.38315 0.49968 0.39657 0.0
C725 C 0.42384 0.48596 0.40103 0.0
C726 C 0.43239 0.4992 0.48007 0.0
N727 N 0.42863 0.52957 0.59053 0.0
N728 N 0.38397 0.46503 0.29211 0.0
C729 C 0.4193 0.51632 0.51426 0.0
C730 C 0.39711 0.48363 0.36136 0.0
N731 N 0.3848 0.5373 0.49596 0.0
N732 N 0.44163 0.47627 0.36392 0.0
H733 H 0.3646 0.46319 0.26052 0.0
H734 H 0.39112 0.45 0.26836 0.0
H735 H 0.46205 0.47907 0.39171 0.0
H736 H 0.43809 0.46879 0.30393 0.0
H737 H 0.39491 0.55365 0.54504 0.0
H738 H 0.36693 0.53858 0.4651 0.0
H739 H 0.4174 0.53891 0.62246 0.0
H740 H 0.44707 0.53009 0.62363 0.0
C741 C 0.92175 0.37074 0.35058 0.0
C742 C 0.8913 0.36154 0.37096 0.0
C743 C 0.91238 0.40484 0.47558 0.0
C744 C 0.94285 0.41372 0.4556 0.0
N745 N 0.97665 0.39922 0.39344 0.0
N746 N 0.85805 0.36397 0.46593 0.0
C747 C 0.94752 0.39463 0.39933 0.0
C748 C 0.88677 0.37668 0.43797 0.0
N749 N 0.92614 0.35797 0.28254 0.0
N750 N 0.90757 0.42411 0.52642 0.0
H751 H 0.83885 0.34326 0.43979 0.0
H752 H 0.85398 0.37219 0.51913 0.0
H753 H 0.9255 0.44478 0.55615 0.0
H754 H 0.88563 0.42071 0.53517 0.0
H755 H 0.94782 0.36639 0.26071 0.0
H756 H 0.9079 0.34078 0.2441 0.0
H757 H 0.98126 0.38443 0.35784 0.0
H758 H -0.00438 0.41572 0.43132 0.0
C759 C 0.5268 0.86652 0.39662 0.0
C760 C 0.50004 0.853 0.3426 0.0
C761 C 0.4811 0.8831 0.41476 0.0
C762 C 0.51144 0.90292 0.45234 0.0
N763 N 0.56432 0.91318 0.47714 0.0
N764 N 0.4509 0.84808 0.2996 0.0
C765 C 0.5345 0.89418 0.44483 0.0
C766 C 0.47653 0.86061 0.35239 0.0
N767 N 0.54511 0.85319 0.4004 0.0
N768 N 0.45692 0.88622 0.43815 0.0
H769 H 0.4468 0.83159 0.25278 0.0
H770 H 0.43484 0.85572 0.29916 0.0
H771 H 0.45965 0.90213 0.4852 0.0
H772 H 0.43391 0.87089 0.41672 0.0
H773 H 0.56342 0.86038 0.44368 0.0
H774 H 0.53978 0.83272 0.36559 0.0
H775 H 0.58243 0.90948 0.46346 0.0
H776 H 0.57197 0.93381 0.51316 0.0
C777 C 0.68452 0.56121 0.36685 0.0
C778 C 0.67888 0.55487 0.28328 0.0
C779 C 0.63093 0.55671 0.28993 0.0
C780 C 0.63365 0.55711 0.37374 0.0
N781 N 0.66161 0.5551 0.4919 0.0
N782 N 0.64335 0.54083 0.16656 0.0
C783 C 0.66023 0.55845 0.41254 0.0
C784 C 0.65125 0.55126 0.24492 0.0
N785 N 0.71321 0.57031 0.40254 0.0
N786 N 0.60918 0.56202 0.25327 0.0
H787 H 0.65666 0.53486 0.13212 0.0
H788 H 0.62196 0.53491 0.13795 0.0
H789 H 0.59465 0.56729 0.28464 0.0
H790 H 0.60804 0.56473 0.19284 0.0
H791 H 0.71944 0.5781 0.46233 0.0
H792 H 0.7317 0.57316 0.37078 0.0
H793 H 0.67893 0.55243 0.52095 0.0
H794 H 0.64409 0.55203 0.52764 0.0
C795 C 0.11872 0.64075 0.30634 0.0
C796 C 0.13825 0.67061 0.34718 0.0
C797 C 0.11845 0.64858 0.47299 0.0
C798 C 0.09583 0.61992 0.43008 0.0
N799 N 0.06953 0.59305 0.30167 0.0
N800 N 0.15595 0.70446 0.4683 0.0
C801 C 0.09477 0.617 0.34563 0.0
C802 C 0.13804 0.675 0.43047 0.0
N803 N 0.12267 0.63512 0.22924 0.0
N804 N 0.1216 0.65031 0.55382 0.0
H805 H 0.17113 0.72392 0.43898 0.0
H806 H 0.15443 0.70999 0.5273 0.0
H807 H 0.10784 0.63125 0.58617 0.0
H808 H 0.13937 0.66961 0.58839 0.0
H809 H 0.11109 0.61262 0.19958 0.0
H810 H 0.13966 0.65219 0.19737 0.0
H811 H 0.06643 0.59205 0.24018 0.0
H812 H 0.0497 0.57655 0.326 0.0
loop_
_geom_bond_atom_site_label_1
_geom_bond_atom_site_label_2
_geom_bond_distance
_geom_bond_site_symmetry_2
_ccdc_geom_bond_type
H0 C19 0.949 . S
H1 C20 0.950 . S
H2 C22 0.950 . S
H3 C23 0.950 . S
H4 C25 0.950 . S
H5 C28 0.950 . S
H6 C29 0.950 . S
H7 C31 0.951 1_556 S
H8 C32 0.949 . S
H9 C34 0.949 . S
H10 C35 0.950 1_556 S
H11 C37 0.950 . S
H12 C38 0.950 . S
H13 C40 0.950 . S
H14 C43 0.950 . S
H15 C44 0.950 . S
H16 C46 0.951 . S
H17 C47 0.949 . S
C18 C19 1.376 . S
C18 C23 1.386 . S
C18 C24 1.483 . S
C19 H0 0.949 . S
C19 C18 1.376 . S
C19 C20 1.397 . S
C20 H1 0.950 . S
C20 C19 1.397 . S
C20 C21 1.391 . S
C21 C20 1.391 . S
C21 C22 1.405 . S
C22 H2 0.950 . S
C22 C21 1.405 . S
C22 C23 1.367 . S
C23 H3 0.950 . S
C23 C18 1.386 . S
C23 C22 1.367 . S
C24 C18 1.483 . S
C24 C25 1.382 . S
C24 C26 1.403 . S
C25 H4 0.950 . S
C25 C24 1.382 . S
C25 C41 1.411 . S
C26 C24 1.403 . S
C26 C27 1.489 . S
C26 C40 1.411 . S
C27 C26 1.489 . S
C27 C28 1.383 . S
C27 C32 1.382 . S
C28 H5 0.950 . S
C28 C27 1.383 . S
C28 C29 1.395 . S
C29 H6 0.950 . S
C29 C28 1.395 . S
C29 C30 1.288 . S
C30 C29 1.288 . S
C30 C31 1.392 . S
C31 H7 0.951 1_554 S
C31 C30 1.392 . S
C31 C32 1.392 . S
C32 H8 0.949 . S
C32 C27 1.382 . S
C32 C31 1.392 . S
C33 C34 1.376 . S
C33 C38 1.386 . S
C33 C39 1.483 . S
C34 H9 0.949 . S
C34 C33 1.376 . S
C34 C35 1.397 . S
C35 H10 0.950 1_554 S
C35 C34 1.397 . S
C35 C36 1.391 . S
C36 C35 1.391 . S
C36 C37 1.405 . S
C37 H11 0.950 . S
C37 C36 1.405 . S
C37 C38 1.367 . S
C38 H12 0.950 . S
C38 C33 1.386 . S
C38 C37 1.367 . S
C39 C33 1.483 . S
C39 C40 1.382 . S
C39 C41 1.403 . S
C40 H13 0.950 . S
C40 C26 1.411 . S
C40 C39 1.382 . S
C41 C25 1.411 . S
C41 C39 1.403 . S
C41 C42 1.489 . S
C42 C41 1.489 . S
C42 C43 1.383 . S
C42 C47 1.382 . S
C43 H14 0.950 . S
C43 C42 1.383 . S
C43 C44 1.395 . S
C44 H15 0.950 . S
C44 C43 1.395 . S
C44 C45 1.288 . S
C45 C44 1.288 . S
C45 C46 1.392 . S
C46 H16 0.951 . S
C46 C45 1.392 . S
C46 C47 1.392 . S
C47 H17 0.949 . S
C47 C42 1.382 . S
C47 C46 1.392 . S
H48 C67 0.949 . S
H49 C68 0.950 . S
H50 C70 0.950 . S
H51 C71 0.950 . S
H52 C73 0.950 1_556 S
H53 C76 0.950 . S
H54 C77 0.950 . S
H55 C79 0.951 . S
H56 C80 0.949 . S
H57 C82 0.949 . S
H58 C83 0.950 . S
H59 C85 0.950 . S
H60 C86 0.950 . S
H61 C88 0.950 . S
H62 C91 0.950 . S
H63 C92 0.950 . S
H64 C94 0.951 . S
H65 C95 0.949 . S
C66 C67 1.376 1_554 S
C66 C71 1.386 . S
C66 C72 1.483 . S
C67 H48 0.949 . S
C67 C66 1.376 1_556 S
C67 C68 1.397 . S
C68 H49 0.950 . S
C68 C67 1.397 . S
C68 C69 1.391 . S
C69 C68 1.391 . S
C69 C70 1.405 . S
C70 H50 0.950 . S
C70 C69 1.405 . S
C70 C71 1.367 1_556 S
C71 H51 0.950 . S
C71 C66 1.386 . S
C71 C70 1.367 1_554 S
C72 C66 1.483 . S
C72 C73 1.382 . S
C72 C74 1.403 . S
C73 H52 0.950 1_554 S
C73 C72 1.382 . S
C73 C89 1.411 . S
C74 C72 1.403 . S
C74 C75 1.489 . S
C74 C88 1.411 . S
C75 C74 1.489 . S
C75 C76 1.383 . S
C75 C80 1.382 . S
C76 H53 0.950 . S
C76 C75 1.383 . S
C76 C77 1.395 . S
C77 H54 0.950 . S
C77 C76 1.395 . S
C77 C78 1.288 . S
C78 C77 1.288 . S
C78 C79 1.392 . S
C79 H55 0.951 . S
C79 C78 1.392 . S
C79 C80 1.392 . S
C80 H56 0.949 . S
C80 C75 1.382 . S
C80 C79 1.392 . S
C81 C82 1.376 . S
C81 C86 1.386 . S
C81 C87 1.483 . S
C82 H57 0.949 . S
C82 C81 1.376 . S
C82 C83 1.397 . S
C83 H58 0.950 . S
C83 C82 1.397 . S
C83 C84 1.391 . S
C84 C83 1.391 . S
C84 C85 1.405 . S
C85 H59 0.950 . S
C85 C84 1.405 . S
C85 C86 1.367 . S
C86 H60 0.950 . S
C86 C81 1.386 . S
C86 C85 1.367 . S
C87 C81 1.483 . S
C87 C88 1.382 . S
C87 C89 1.403 . S
C88 H61 0.950 . S
C88 C74 1.411 . S
C88 C87 1.382 . S
C89 C73 1.411 . S
C89 C87 1.403 . S
C89 C90 1.489 . S
C90 C89 1.489 . S
C90 C91 1.383 . S
C90 C95 1.382 1_554 S
C91 H62 0.950 . S
C91 C90 1.383 . S
C91 C92 1.395 1_554 S
C92 H63 0.950 . S
C92 C91 1.395 1_556 S
C92 C93 1.288 . S
C93 C92 1.288 . S
C93 C94 1.392 . S
C94 H64 0.951 . S
C94 C93 1.392 . S
C94 C95 1.392 . S
C95 H65 0.949 . S
C95 C90 1.382 1_556 S
C95 C94 1.392 . S
H96 C115 0.949 . S
H97 C116 0.950 . S
H98 C118 0.950 . S
H99 C119 0.950 . S
H100 C121 0.950 . S
H101 C124 0.950 . S
H102 C125 0.950 . S
H103 C127 0.951 . S
H104 C128 0.949 . S
H105 C130 0.949 . S
H106 C131 0.950 . S
H107 C133 0.950 . S
H108 C134 0.950 . S
H109 C136 0.950 . S
H110 C139 0.950 . S
H111 C140 0.950 . S
H112 C142 0.951 . S
H113 C143 0.949 . S
C114 C115 1.376 . S
C114 C119 1.386 . S
C114 C120 1.483 . S
C115 H96 0.949 . S
C115 C114 1.376 . S
C115 C116 1.397 . S
C116 H97 0.950 . S
C116 C115 1.397 . S
C116 C117 1.391 . S
C117 C116 1.391 . S
C117 C118 1.405 . S
C118 H98 0.950 . S
C118 C117 1.405 . S
C118 C119 1.367 . S
C119 H99 0.950 . S
C119 C114 1.386 . S
C119 C118 1.367 . S
C120 C114 1.483 . S
C120 C121 1.382 . S
C120 C122 1.403 1_556 S
C121 H100 0.950 . S
C121 C120 1.382 . S
C121 C137 1.411 . S
C122 C120 1.403 1_554 S
C122 C123 1.489 . S
C122 C136 1.411 . S
C123 C122 1.489 . S
C123 C124 1.383 . S
C123 C128 1.382 . S
C124 H101 0.950 . S
C124 C123 1.383 . S
C124 C125 1.395 . S
C125 H102 0.950 . S
C125 C124 1.395 . S
C125 C126 1.288 . S
C126 C125 1.288 . S
C126 C127 1.392 . S
C127 H103 0.951 . S
C127 C126 1.392 . S
C127 C128 1.392 . S
C128 H104 0.949 . S
C128 C123 1.382 . S
C128 C127 1.392 . S
C129 C130 1.376 . S
C129 C134 1.386 . S
C129 C135 1.483 . S
C130 H105 0.949 . S
C130 C129 1.376 . S
C130 C131 1.397 . S
C131 H106 0.950 . S
C131 C130 1.397 . S
C131 C132 1.391 . S
C132 C131 1.391 . S
C132 C133 1.405 . S
C133 H107 0.950 . S
C133 C132 1.405 . S
C133 C134 1.367 . S
C134 H108 0.950 . S
C134 C129 1.386 . S
C134 C133 1.367 . S
C135 C129 1.483 . S
C135 C136 1.382 . S
C135 C137 1.403 1_554 S
C136 H109 0.950 . S
C136 C122 1.411 . S
C136 C135 1.382 . S
C137 C121 1.411 . S
C137 C135 1.403 1_556 S
C137 C138 1.489 . S
C138 C137 1.489 . S
C138 C139 1.383 . S
C138 C143 1.382 . S
C139 H110 0.950 . S
C139 C138 1.383 . S
C139 C140 1.395 . S
C140 H111 0.950 . S
C140 C139 1.395 . S
C140 C141 1.288 . S
C141 C140 1.288 . S
C141 C142 1.392 . S
C142 H112 0.951 . S
C142 C141 1.392 . S
C142 C143 1.392 . S
C143 H113 0.949 . S
C143 C138 1.382 . S
C143 C142 1.392 . S
H144 C163 0.949 . S
H145 C164 0.950 . S
H146 C166 0.950 . S
H147 C167 0.950 . S
H148 C169 0.950 . S
H149 C172 0.950 . S
H150 C173 0.950 . S
H151 C175 0.951 . S
H152 C176 0.949 . S
H153 C178 0.949 . S
H154 C179 0.950 . S
H155 C181 0.950 . S
H156 C182 0.950 . S
H157 C184 0.950 . S
H158 C187 0.950 . S
H159 C188 0.950 . S
H160 C190 0.951 . S
H161 C191 0.949 . S
C162 C163 1.376 . S
C162 C167 1.386 . S
C162 C168 1.483 . S
C163 H144 0.949 . S
C163 C162 1.376 . S
C163 C164 1.397 . S
C164 H145 0.950 . S
C164 C163 1.397 . S
C164 C165 1.391 . S
C165 C164 1.391 . S
C165 C166 1.405 . S
C166 H146 0.950 . S
C166 C165 1.405 . S
C166 C167 1.367 . S
C167 H147 0.950 . S
C167 C162 1.386 . S
C167 C166 1.367 . S
C168 C162 1.483 . S
C168 C169 1.382 . S
C168 C170 1.403 1_554 S
C169 H148 0.950 . S
C169 C168 1.382 . S
C169 C185 1.411 . S
C170 C168 1.403 1_556 S
C170 C171 1.489 . S
C170 C184 1.411 . S
C171 C170 1.489 . S
C171 C172 1.383 . S
C171 C176 1.382 . S
C172 H149 0.950 . S
C172 C171 1.383 . S
C172 C173 1.395 . S
C173 H150 0.950 . S
C173 C172 1.395 . S
C173 C174 1.288 . S
C174 C173 1.288 . S
C174 C175 1.392 . S
C175 H151 0.951 . S
C175 C174 1.392 . S
C175 C176 1.392 . S
C176 H152 0.949 . S
C176 C171 1.382 . S
C176 C175 1.392 . S
C177 C178 1.376 . S
C177 C182 1.386 . S
C177 C183 1.483 . S
C178 H153 0.949 . S
C178 C177 1.376 . S
C178 C179 1.397 . S
C179 H154 0.950 . S
C179 C178 1.397 . S
C179 C180 1.391 . S
C180 C179 1.391 . S
C180 C181 1.405 . S
C181 H155 0.950 . S
C181 C180 1.405 . S
C181 C182 1.367 . S
C182 H156 0.950 . S
C182 C177 1.386 . S
C182 C181 1.367 . S
C183 C177 1.483 . S
C183 C184 1.382 . S
C183 C185 1.403 1_556 S
C184 H157 0.950 . S
C184 C170 1.411 . S
C184 C183 1.382 . S
C185 C169 1.411 . S
C185 C183 1.403 1_554 S
C185 C186 1.489 . S
C186 C185 1.489 . S
C186 C187 1.383 . S
C186 C191 1.382 . S
C187 H158 0.950 . S
C187 C186 1.383 . S
C187 C188 1.395 . S
C188 H159 0.950 . S
C188 C187 1.395 . S
C188 C189 1.288 . S
C189 C188 1.288 . S
C189 C190 1.392 . S
C190 H160 0.951 . S
C190 C189 1.392 . S
C190 C191 1.392 . S
C191 H161 0.949 . S
C191 C186 1.382 . S
C191 C190 1.392 . S
H192 C211 0.949 . S
H193 C212 0.950 . S
H194 C214 0.950 1_554 S
H195 C215 0.950 . S
H196 C217 0.950 1_556 S
H197 C220 0.950 . S
H198 C221 0.950 . S
H199 C223 0.951 . S
H200 C224 0.949 . S
H201 C226 0.949 . S
H202 C227 0.950 . S
H203 C229 0.950 . S
H204 C230 0.950 . S
H205 C232 0.950 . S
H206 C235 0.950 . S
H207 C236 0.950 . S
H208 C238 0.951 . S
H209 C239 0.949 . S
C210 C211 1.376 1_554 S
C210 C215 1.386 . S
C210 C216 1.483 . S
C211 H192 0.949 . S
C211 C210 1.376 1_556 S
C211 C212 1.397 . S
C212 H193 0.950 . S
C212 C211 1.397 . S
C212 C213 1.391 . S
C213 C212 1.391 . S
C213 C214 1.405 . S
C214 H194 0.950 1_556 S
C214 C213 1.405 . S
C214 C215 1.367 1_556 S
C215 H195 0.950 . S
C215 C210 1.386 . S
C215 C214 1.367 1_554 S
C216 C210 1.483 . S
C216 C217 1.382 . S
C216 C218 1.403 . S
C217 H196 0.950 1_554 S
C217 C216 1.382 . S
C217 C233 1.411 . S
C218 C216 1.403 . S
C218 C219 1.489 . S
C218 C232 1.411 . S
C219 C218 1.489 . S
C219 C220 1.383 . S
C219 C224 1.382 . S
C220 H197 0.950 . S
C220 C219 1.383 . S
C220 C221 1.395 . S
C221 H198 0.950 . S
C221 C220 1.395 . S
C221 C222 1.288 . S
C222 C221 1.288 . S
C222 C223 1.392 . S
C223 H199 0.951 . S
C223 C222 1.392 . S
C223 C224 1.392 . S
C224 H200 0.949 . S
C224 C219 1.382 . S
C224 C223 1.392 . S
C225 C226 1.376 . S
C225 C230 1.386 . S
C225 C231 1.483 . S
C226 H201 0.949 . S
C226 C225 1.376 . S
C226 C227 1.397 . S
C227 H202 0.950 . S
C227 C226 1.397 . S
C227 C228 1.391 . S
C228 C227 1.391 . S
C228 C229 1.405 . S
C229 H203 0.950 . S
C229 C228 1.405 . S
C229 C230 1.367 . S
C230 H204 0.950 . S
C230 C225 1.386 . S
C230 C229 1.367 . S
C231 C225 1.483 . S
C231 C232 1.382 . S
C231 C233 1.403 . S
C232 H205 0.950 . S
C232 C218 1.411 . S
C232 C231 1.382 . S
C233 C217 1.411 . S
C233 C231 1.403 . S
C233 C234 1.489 . S
C234 C233 1.489 . S
C234 C235 1.383 . S
C234 C239 1.382 1_554 S
C235 H206 0.950 . S
C235 C234 1.383 . S
C235 C236 1.395 1_554 S
C236 H207 0.950 . S
C236 C235 1.395 1_556 S
C236 C237 1.288 . S
C237 C236 1.288 . S
C237 C238 1.392 . S
C238 H208 0.951 . S
C238 C237 1.392 . S
C238 C239 1.392 . S
C239 H209 0.949 . S
C239 C234 1.382 1_556 S
C239 C238 1.392 . S
H240 C259 0.949 . S
H241 C260 0.950 1_556 S
H242 C262 0.950 . S
H243 C263 0.950 . S
H244 C265 0.950 . S
H245 C268 0.950 . S
H246 C269 0.950 . S
H247 C271 0.951 . S
H248 C272 0.949 . S
H249 C274 0.949 . S
H250 C275 0.950 . S
H251 C277 0.950 . S
H252 C278 0.950 . S
H253 C280 0.950 . S
H254 C283 0.950 . S
H255 C284 0.950 . S
H256 C286 0.951 1_556 S
H257 C287 0.949 . S
C258 C259 1.376 . S
C258 C263 1.386 . S
C258 C264 1.483 . S
C259 H240 0.949 . S
C259 C258 1.376 . S
C259 C260 1.397 . S
C260 H241 0.950 1_554 S
C260 C259 1.397 . S
C260 C261 1.391 . S
C261 C260 1.391 . S
C261 C262 1.405 . S
C262 H242 0.950 . S
C262 C261 1.405 . S
C262 C263 1.367 . S
C263 H243 0.950 . S
C263 C258 1.386 . S
C263 C262 1.367 . S
C264 C258 1.483 . S
C264 C265 1.382 . S
C264 C266 1.403 . S
C265 H244 0.950 . S
C265 C264 1.382 . S
C265 C281 1.411 . S
C266 C264 1.403 . S
C266 C267 1.489 . S
C266 C280 1.411 . S
C267 C266 1.489 . S
C267 C268 1.383 . S
C267 C272 1.382 . S
C268 H245 0.950 . S
C268 C267 1.383 . S
C268 C269 1.395 . S
C269 H246 0.950 . S
C269 C268 1.395 . S
C269 C270 1.288 . S
C270 C269 1.288 . S
C270 C271 1.392 . S
C271 H247 0.951 . S
C271 C270 1.392 . S
C271 C272 1.392 . S
C272 H248 0.949 . S
C272 C267 1.382 . S
C272 C271 1.392 . S
C273 C274 1.376 . S
C273 C278 1.386 . S
C273 C279 1.483 . S
C274 H249 0.949 . S
C274 C273 1.376 . S
C274 C275 1.397 . S
C275 H250 0.950 . S
C275 C274 1.397 . S
C275 C276 1.391 . S
C276 C275 1.391 . S
C276 C277 1.405 . S
C277 H251 0.950 . S
C277 C276 1.405 . S
C277 C278 1.367 . S
C278 H252 0.950 . S
C278 C273 1.386 . S
C278 C277 1.367 . S
C279 C273 1.483 . S
C279 C280 1.382 . S
C279 C281 1.403 . S
C280 H253 0.950 . S
C280 C266 1.411 . S
C280 C279 1.382 . S
C281 C265 1.411 . S
C281 C279 1.403 . S
C281 C282 1.489 . S
C282 C281 1.489 . S
C282 C283 1.383 . S
C282 C287 1.382 . S
C283 H254 0.950 . S
C283 C282 1.383 . S
C283 C284 1.395 . S
C284 H255 0.950 . S
C284 C283 1.395 . S
C284 C285 1.288 . S
C285 C284 1.288 . S
C285 C286 1.392 . S
C286 H256 0.951 1_554 S
C286 C285 1.392 . S
C286 C287 1.392 . S
C287 H257 0.949 . S
C287 C282 1.382 . S
C287 C286 1.392 . S
C288 O315 1.312 . S
C288 O316 1.208 . S
C289 O310 1.331 . S
C289 O313 1.244 . S
C290 O312 1.264 . S
C290 O314 1.273 . S
Mg291 O293 1.936 1_455 S
Mg291 O300 2.081 1_455 S
Mg291 O302 2.023 . S
Mg291 O306 2.031 1_455 S
Mg291 O315 2.291 . S
Mg292 O293 1.944 . S
Mg292 O303 1.964 . S
Mg292 O304 1.925 1_655 S
Mg292 O311 2.006 . S
O293 Mg291 1.936 1_655 S
O293 Mg292 1.944 . S
O293 Mg294 1.915 1_655 S
Mg294 O293 1.915 1_455 S
Mg294 O295 1.915 . S
Mg294 O299 2.013 . S
Mg294 O305 2.114 1_455 S
Mg294 O309 2.013 1_455 S
Mg294 O315 2.114 . S
O295 Mg294 1.915 . S
O295 Mg296 1.936 . S
O295 Mg297 1.963 . S
Mg296 O295 1.936 . S
Mg296 O305 2.291 1_455 S
Mg296 O310 2.081 . S
Mg296 O312 2.023 1_455 S
Mg296 O316 2.031 . S
Mg297 O295 1.963 . S
Mg297 O301 1.986 . S
Mg297 O313 1.942 . S
Mg297 O314 1.955 1_455 S
C298 O309 1.191 . S
C298 O311 1.307 . S
O299 Mg294 2.013 . S
O299 C318 1.191 . S
O300 Mg291 2.081 1_655 S
O300 C308 1.331 . S
O301 Mg297 1.986 . S
O301 C318 1.307 . S
O302 Mg291 2.023 . S
O302 C317 1.264 . S
O303 Mg292 1.964 . S
O303 C308 1.244 . S
O304 Mg292 1.925 1_455 S
O304 C317 1.273 . S
O305 Mg294 2.114 1_655 S
O305 Mg296 2.291 1_655 S
O305 C307 1.312 . S
O306 Mg291 2.031 1_655 S
O306 C307 1.208 . S
C307 O305 1.312 . S
C307 O306 1.208 . S
C308 O300 1.331 . S
C308 O303 1.244 . S
O309 Mg294 2.013 1_655 S
O309 C298 1.191 . S
O310 C289 1.331 . S
O310 Mg296 2.081 . S
O311 Mg292 2.006 . S
O311 C298 1.307 . S
O312 C290 1.264 . S
O312 Mg296 2.023 1_655 S
O313 C289 1.244 . S
O313 Mg297 1.942 . S
O314 C290 1.273 . S
O314 Mg297 1.955 1_655 S
O315 C288 1.312 . S
O315 Mg291 2.291 . S
O315 Mg294 2.114 . S
O316 C288 1.208 . S
O316 Mg296 2.031 . S
C317 O302 1.264 . S
C317 O304 1.273 . S
C318 O299 1.191 . S
C318 O301 1.307 . S
C319 O346 1.312 . S
C319 O347 1.208 . S
C320 O341 1.331 . S
C320 O344 1.244 . S
C321 O343 1.264 . S
C321 O345 1.273 . S
Mg322 O324 1.936 1_545 S
Mg322 O331 2.081 1_545 S
Mg322 O333 2.023 . S
Mg322 O337 2.031 1_545 S
Mg322 O346 2.291 . S
Mg323 O324 1.963 . S
Mg323 O334 1.942 . S
Mg323 O335 1.955 1_565 S
Mg323 O342 1.986 . S
O324 Mg322 1.936 1_565 S
O324 Mg323 1.963 . S
O324 Mg325 1.915 1_565 S
Mg325 O324 1.915 1_545 S
Mg325 O326 1.915 . S
Mg325 O330 2.013 . S
Mg325 O336 2.114 1_545 S
Mg325 O340 2.013 1_545 S
Mg325 O346 2.114 . S
O326 Mg325 1.915 . S
O326 Mg327 1.936 . S
O326 Mg328 1.963 . S
Mg327 O326 1.936 . S
Mg327 O336 2.291 1_545 S
Mg327 O341 2.081 . S
Mg327 O343 2.023 1_545 S
Mg327 O347 2.031 . S
Mg328 O326 1.963 . S
Mg328 O332 1.986 . S
Mg328 O344 1.942 . S
Mg328 O345 1.955 1_545 S
C329 O340 1.191 . S
C329 O342 1.307 . S
O330 Mg325 2.013 . S
O330 C349 1.191 . S
O331 Mg322 2.081 1_565 S
O331 C339 1.331 . S
O332 Mg328 1.986 . S
O332 C349 1.307 . S
O333 Mg322 2.023 . S
O333 C348 1.264 . S
O334 Mg323 1.942 . S
O334 C339 1.244 . S
O335 Mg323 1.955 1_545 S
O335 C348 1.273 . S
O336 Mg325 2.114 1_565 S
O336 Mg327 2.291 1_565 S
O336 C338 1.312 . S
O337 Mg322 2.031 1_565 S
O337 C338 1.208 . S
C338 O336 1.312 . S
C338 O337 1.208 . S
C339 O331 1.331 . S
C339 O334 1.244 . S
O340 Mg325 2.013 1_565 S
O340 C329 1.191 . S
O341 C320 1.331 . S
O341 Mg327 2.081 . S
O342 Mg323 1.986 . S
O342 C329 1.307 . S
O343 C321 1.264 . S
O343 Mg327 2.023 1_565 S
O344 C320 1.244 . S
O344 Mg328 1.942 . S
O345 C321 1.273 . S
O345 Mg328 1.955 1_565 S
O346 C319 1.312 . S
O346 Mg322 2.291 . S
O346 Mg325 2.114 . S
O347 C319 1.208 . S
O347 Mg327 2.031 . S
C348 O333 1.264 . S
C348 O335 1.273 . S
C349 O330 1.191 . S
C349 O332 1.307 . S
C350 O377 1.312 . S
C350 O378 1.208 . S
C351 O372 1.331 . S
C351 O375 1.244 . S
C352 O374 1.264 . S
C352 O376 1.273 . S
Mg353 O355 1.936 . S
Mg353 O362 2.081 . S
Mg353 O364 2.023 . S
Mg353 O368 2.031 . S
Mg353 O377 2.291 . S
Mg354 O355 1.963 . S
Mg354 O365 1.942 . S
Mg354 O366 1.955 . S
Mg354 O373 1.986 . S
O355 Mg353 1.936 . S
O355 Mg354 1.963 . S
O355 Mg356 1.915 . S
Mg356 O355 1.915 . S
Mg356 O357 1.915 . S
Mg356 O361 2.013 . S
Mg356 O367 2.114 . S
Mg356 O371 2.013 . S
Mg356 O377 2.114 . S
O357 Mg356 1.915 . S
O357 Mg358 1.936 . S
O357 Mg359 1.963 . S
Mg358 O357 1.936 . S
Mg358 O367 2.291 . S
Mg358 O372 2.081 . S
Mg358 O374 2.023 . S
Mg358 O378 2.031 . S
Mg359 O357 1.963 . S
Mg359 O363 1.986 . S
Mg359 O375 1.942 . S
Mg359 O376 1.955 . S
C360 O371 1.191 . S
C360 O373 1.307 . S
O361 Mg356 2.013 . S
O361 C380 1.191 . S
O362 Mg353 2.081 . S
O362 C370 1.331 . S
O363 Mg359 1.986 . S
O363 C380 1.307 . S
O364 Mg353 2.023 . S
O364 C379 1.264 . S
O365 Mg354 1.942 . S
O365 C370 1.244 . S
O366 Mg354 1.955 . S
O366 C379 1.273 . S
O367 Mg356 2.114 . S
O367 Mg358 2.291 . S
O367 C369 1.312 . S
O368 Mg353 2.031 . S
O368 C369 1.208 . S
C369 O367 1.312 . S
C369 O368 1.208 . S
C370 O362 1.331 . S
C370 O365 1.244 . S
O371 Mg356 2.013 . S
O371 C360 1.191 . S
O372 C351 1.331 . S
O372 Mg358 2.081 . S
O373 Mg354 1.986 . S
O373 C360 1.307 . S
O374 C352 1.264 . S
O374 Mg358 2.023 . S
O375 C351 1.244 . S
O375 Mg359 1.942 . S
O376 C352 1.273 . S
O376 Mg359 1.955 . S
O377 C350 1.312 . S
O377 Mg353 2.291 . S
O377 Mg356 2.114 . S
O378 C350 1.208 . S
O378 Mg358 2.031 . S
C379 O364 1.264 . S
C379 O366 1.273 . S
C380 O361 1.191 . S
C380 O363 1.307 . S
C381 C382 1.363 . S
C381 C387 1.379 . S
C381 N389 1.356 . S
C382 C381 1.363 . S
C382 C388 1.363 . S
C383 C384 1.363 . S
C383 C388 1.379 . S
C383 N390 1.356 . S
C384 C383 1.363 . S
C384 C387 1.363 . S
N385 C387 1.356 . S
N385 H397 0.984 . S
N385 H398 0.985 . S
N386 C388 1.356 . S
N386 H391 0.984 . S
N386 H392 0.985 . S
C387 C381 1.379 . S
C387 C384 1.363 . S
C387 N385 1.356 . S
C388 C382 1.363 . S
C388 C383 1.379 . S
C388 N386 1.356 . S
N389 C381 1.356 . S
N389 H395 0.984 . S
N389 H396 0.984 . S
N390 C383 1.356 . S
N390 H393 0.984 . S
N390 H394 0.985 . S
H391 N386 0.984 . S
H392 N386 0.985 . S
H393 N390 0.984 . S
H394 N390 0.985 . S
H395 N389 0.984 . S
H396 N389 0.984 . S
H397 N385 0.984 . S
H398 N385 0.985 . S
C399 C400 1.363 . S
C399 C405 1.379 . S
C399 N407 1.356 . S
C400 C399 1.363 . S
C400 C406 1.363 . S
C401 C402 1.363 . S
C401 C406 1.379 . S
C401 N408 1.356 . S
C402 C401 1.363 . S
C402 C405 1.363 . S
N403 C405 1.356 . S
N403 H415 0.984 . S
N403 H416 0.985 . S
N404 C406 1.356 . S
N404 H409 0.984 . S
N404 H410 0.985 . S
C405 C399 1.379 . S
C405 C402 1.363 . S
C405 N403 1.356 . S
C406 C400 1.363 . S
C406 C401 1.379 . S
C406 N404 1.356 . S
N407 C399 1.356 . S
N407 H413 0.984 . S
N407 H414 0.984 . S
N408 C401 1.356 . S
N408 H411 0.984 . S
N408 H412 0.985 . S
H409 N404 0.984 . S
H410 N404 0.985 . S
H411 N408 0.984 . S
H412 N408 0.985 . S
H413 N407 0.984 . S
H414 N407 0.984 . S
H415 N403 0.984 . S
H416 N403 0.985 . S
C417 C418 1.363 . S
C417 C423 1.379 . S
C417 N425 1.356 . S
C418 C417 1.363 . S
C418 C424 1.363 . S
C419 C420 1.363 . S
C419 C424 1.379 . S
C419 N426 1.356 . S
C420 C419 1.363 . S
C420 C423 1.363 . S
N421 C423 1.356 . S
N421 H433 0.984 . S
N421 H434 0.985 . S
N422 C424 1.356 . S
N422 H427 0.984 . S
N422 H428 0.985 . S
C423 C417 1.379 . S
C423 C420 1.363 . S
C423 N421 1.356 . S
C424 C418 1.363 . S
C424 C419 1.379 . S
C424 N422 1.356 . S
N425 C417 1.356 . S
N425 H431 0.984 . S
N425 H432 0.984 . S
N426 C419 1.356 . S
N426 H429 0.984 . S
N426 H430 0.985 . S
H427 N422 0.984 . S
H428 N422 0.985 . S
H429 N426 0.984 . S
H430 N426 0.985 . S
H431 N425 0.984 . S
H432 N425 0.984 . S
H433 N421 0.984 . S
H434 N421 0.985 . S
C435 C436 1.363 . S
C435 C441 1.379 . S
C435 N443 1.356 . S
C436 C435 1.363 . S
C436 C442 1.363 . S
C437 C438 1.363 . S
C437 C442 1.379 . S
C437 N444 1.356 . S
C438 C437 1.363 . S
C438 C441 1.363 . S
N439 C441 1.356 . S
N439 H451 0.984 . S
N439 H452 0.985 . S
N440 C442 1.356 . S
N440 H445 0.984 . S
N440 H446 0.985 . S
C441 C435 1.379 . S
C441 C438 1.363 . S
C441 N439 1.356 . S
C442 C436 1.363 . S
C442 C437 1.379 . S
C442 N440 1.356 . S
N443 C435 1.356 . S
N443 H449 0.984 . S
N443 H450 0.984 . S
N444 C437 1.356 . S
N444 H447 0.984 . S
N444 H448 0.985 . S
H445 N440 0.984 . S
H446 N440 0.985 . S
H447 N444 0.984 . S
H448 N444 0.985 . S
H449 N443 0.984 . S
H450 N443 0.984 . S
H451 N439 0.984 . S
H452 N439 0.985 . S
C453 C454 1.363 . S
C453 C459 1.379 . S
C453 N461 1.356 . S
C454 C453 1.363 . S
C454 C460 1.363 . S
C455 C456 1.363 . S
C455 C460 1.379 . S
C455 N462 1.356 . S
C456 C455 1.363 . S
C456 C459 1.363 . S
N457 C459 1.356 . S
N457 H469 0.984 1_565 S
N457 H470 0.985 . S
N458 C460 1.356 . S
N458 H463 0.984 . S
N458 H464 0.985 . S
C459 C453 1.379 . S
C459 C456 1.363 . S
C459 N457 1.356 . S
C460 C454 1.363 . S
C460 C455 1.379 . S
C460 N458 1.356 . S
N461 C453 1.356 . S
N461 H467 0.984 . S
N461 H468 0.984 . S
N462 C455 1.356 . S
N462 H465 0.984 . S
N462 H466 0.985 . S
H463 N458 0.984 . S
H464 N458 0.985 . S
H465 N462 0.984 . S
H466 N462 0.985 . S
H467 N461 0.984 . S
H468 N461 0.984 . S
H469 N457 0.984 1_545 S
H470 N457 0.985 . S
C471 C472 1.363 . S
C471 C477 1.379 . S
C471 N479 1.356 . S
C472 C471 1.363 . S
C472 C478 1.363 . S
C473 C474 1.363 . S
C473 C478 1.379 . S
C473 N480 1.356 . S
C474 C473 1.363 . S
C474 C477 1.363 . S
N475 C477 1.356 . S
N475 H487 0.984 . S
N475 H488 0.985 . S
N476 C478 1.356 . S
N476 H481 0.984 . S
N476 H482 0.985 . S
C477 C471 1.379 . S
C477 C474 1.363 . S
C477 N475 1.356 . S
C478 C472 1.363 . S
C478 C473 1.379 . S
C478 N476 1.356 . S
N479 C471 1.356 . S
N479 H485 0.984 . S
N479 H486 0.984 . S
N480 C473 1.356 . S
N480 H483 0.984 . S
N480 H484 0.985 . S
H481 N476 0.984 . S
H482 N476 0.985 . S
H483 N480 0.984 . S
H484 N480 0.985 . S
H485 N479 0.984 . S
H486 N479 0.984 . S
H487 N475 0.984 . S
H488 N475 0.985 . S
C489 C490 1.363 . S
C489 C495 1.379 . S
C489 N497 1.356 . S
C490 C489 1.363 . S
C490 C496 1.363 . S
C491 C492 1.363 . S
C491 C496 1.379 . S
C491 N498 1.356 . S
C492 C491 1.363 . S
C492 C495 1.363 . S
N493 C495 1.356 . S
N493 H505 0.984 . S
N493 H506 0.985 . S
N494 C496 1.356 . S
N494 H499 0.984 . S
N494 H500 0.985 . S
C495 C489 1.379 . S
C495 C492 1.363 . S
C495 N493 1.356 . S
C496 C490 1.363 . S
C496 C491 1.379 . S
C496 N494 1.356 . S
N497 C489 1.356 . S
N497 H503 0.984 . S
N497 H504 0.984 . S
N498 C491 1.356 . S
N498 H501 0.984 . S
N498 H502 0.985 . S
H499 N494 0.984 . S
H500 N494 0.985 . S
H501 N498 0.984 . S
H502 N498 0.985 . S
H503 N497 0.984 . S
H504 N497 0.984 . S
H505 N493 0.984 . S
H506 N493 0.985 . S
C507 C508 1.363 . S
C507 C513 1.379 . S
C507 N515 1.356 . S
C508 C507 1.363 . S
C508 C514 1.363 . S
C509 C510 1.363 . S
C509 C514 1.379 . S
C509 N516 1.356 . S
C510 C509 1.363 . S
C510 C513 1.363 . S
N511 C513 1.356 . S
N511 H523 0.984 . S
N511 H524 0.985 . S
N512 C514 1.356 . S
N512 H517 0.984 . S
N512 H518 0.985 . S
C513 C507 1.379 . S
C513 C510 1.363 . S
C513 N511 1.356 . S
C514 C508 1.363 . S
C514 C509 1.379 . S
C514 N512 1.356 . S
N515 C507 1.356 . S
N515 H521 0.984 . S
N515 H522 0.984 . S
N516 C509 1.356 . S
N516 H519 0.984 . S
N516 H520 0.985 . S
H517 N512 0.984 . S
H518 N512 0.985 . S
H519 N516 0.984 . S
H520 N516 0.985 . S
H521 N515 0.984 . S
H522 N515 0.984 . S
H523 N511 0.984 . S
H524 N511 0.985 . S
C525 C526 1.363 . S
C525 C531 1.379 . S
C525 N533 1.356 . S
C526 C525 1.363 . S
C526 C532 1.363 . S
C527 C528 1.363 . S
C527 C532 1.379 . S
C527 N534 1.356 . S
C528 C527 1.363 . S
C528 C531 1.363 . S
N529 C531 1.356 . S
N529 H541 0.984 . S
N529 H542 0.985 . S
N530 C532 1.356 . S
N530 H535 0.984 . S
N530 H536 0.985 1_556 S
C531 C525 1.379 . S
C531 C528 1.363 . S
C531 N529 1.356 . S
C532 C526 1.363 . S
C532 C527 1.379 . S
C532 N530 1.356 . S
N533 C525 1.356 . S
N533 H539 0.984 . S
N533 H540 0.984 . S
N534 C527 1.356 . S
N534 H537 0.984 . S
N534 H538 0.985 . S
H535 N530 0.984 . S
H536 N530 0.985 1_554 S
H537 N534 0.984 . S
H538 N534 0.985 . S
H539 N533 0.984 . S
H540 N533 0.984 . S
H541 N529 0.984 . S
H542 N529 0.985 . S
C543 C544 1.363 . S
C543 C549 1.379 . S
C543 N551 1.356 1_556 S
C544 C543 1.363 . S
C544 C550 1.363 . S
C545 C546 1.363 . S
C545 C550 1.379 . S
C545 N552 1.356 . S
C546 C545 1.363 . S
C546 C549 1.363 . S
N547 C549 1.356 . S
N547 H559 0.984 . S
N547 H560 0.985 . S
N548 C550 1.356 . S
N548 H553 0.984 . S
N548 H554 0.985 . S
C549 C543 1.379 . S
C549 C546 1.363 . S
C549 N547 1.356 . S
C550 C544 1.363 . S
C550 C545 1.379 . S
C550 N548 1.356 . S
N551 C543 1.356 1_554 S
N551 H557 0.984 . S
N551 H558 0.984 . S
N552 C545 1.356 . S
N552 H555 0.984 . S
N552 H556 0.985 . S
H553 N548 0.984 . S
H554 N548 0.985 . S
H555 N552 0.984 . S
H556 N552 0.985 . S
H557 N551 0.984 . S
H558 N551 0.984 . S
H559 N547 0.984 . S
H560 N547 0.985 . S
C561 C562 1.363 . S
C561 C567 1.379 . S
C561 N569 1.356 . S
C562 C561 1.363 . S
C562 C568 1.363 . S
C563 C564 1.363 . S
C563 C568 1.379 . S
C563 N570 1.356 . S
C564 C563 1.363 . S
C564 C567 1.363 . S
N565 C567 1.356 . S
N565 H577 0.984 . S
N565 H578 0.985 . S
N566 C568 1.356 1_554 S
N566 H571 0.984 . S
N566 H572 0.985 . S
C567 C561 1.379 . S
C567 C564 1.363 . S
C567 N565 1.356 . S
C568 C562 1.363 . S
C568 C563 1.379 . S
C568 N566 1.356 1_556 S
N569 C561 1.356 . S
N569 H575 0.984 . S
N569 H576 0.984 . S
N570 C563 1.356 . S
N570 H573 0.984 . S
N570 H574 0.985 . S
H571 N566 0.984 . S
H572 N566 0.985 . S
H573 N570 0.984 . S
H574 N570 0.985 . S
H575 N569 0.984 . S
H576 N569 0.984 . S
H577 N565 0.984 . S
H578 N565 0.985 . S
C579 C580 1.363 . S
C579 C585 1.379 . S
C579 N587 1.356 . S
C580 C579 1.363 . S
C580 C586 1.363 . S
C581 C582 1.363 . S
C581 C586 1.379 . S
C581 N588 1.356 . S
C582 C581 1.363 . S
C582 C585 1.363 . S
N583 C585 1.356 . S
N583 H595 0.984 . S
N583 H596 0.985 . S
N584 C586 1.356 . S
N584 H589 0.984 . S
N584 H590 0.985 . S
C585 C579 1.379 . S
C585 C582 1.363 . S
C585 N583 1.356 . S
C586 C580 1.363 . S
C586 C581 1.379 . S
C586 N584 1.356 . S
N587 C579 1.356 . S
N587 H593 0.984 . S
N587 H594 0.984 . S
N588 C581 1.356 . S
N588 H591 0.984 . S
N588 H592 0.985 . S
H589 N584 0.984 . S
H590 N584 0.985 . S
H591 N588 0.984 . S
H592 N588 0.985 . S
H593 N587 0.984 . S
H594 N587 0.984 . S
H595 N583 0.984 . S
H596 N583 0.985 . S
C597 C598 1.363 . S
C597 C603 1.379 . S
C597 N605 1.356 . S
C598 C597 1.363 . S
C598 C604 1.363 . S
C599 C600 1.363 . S
C599 C604 1.379 . S
C599 N606 1.356 . S
C600 C599 1.363 . S
C600 C603 1.363 . S
N601 C603 1.356 . S
N601 H613 0.984 . S
N601 H614 0.985 . S
N602 C604 1.356 . S
N602 H607 0.984 . S
N602 H608 0.985 . S
C603 C597 1.379 . S
C603 C600 1.363 . S
C603 N601 1.356 . S
C604 C598 1.363 . S
C604 C599 1.379 . S
C604 N602 1.356 . S
N605 C597 1.356 . S
N605 H611 0.984 . S
N605 H612 0.984 . S
N606 C599 1.356 . S
N606 H609 0.984 . S
N606 H610 0.985 . S
H607 N602 0.984 . S
H608 N602 0.985 . S
H609 N606 0.984 . S
H610 N606 0.985 . S
H611 N605 0.984 . S
H612 N605 0.984 . S
H613 N601 0.984 . S
H614 N601 0.985 . S
C615 C616 1.363 . S
C615 C621 1.379 . S
C615 N623 1.356 . S
C616 C615 1.363 . S
C616 C622 1.363 . S
C617 C618 1.363 . S
C617 C622 1.379 . S
C617 N624 1.356 . S
C618 C617 1.363 . S
C618 C621 1.363 . S
N619 C621 1.356 . S
N619 H631 0.986 1_565 S
N619 H632 0.985 . S
N620 C622 1.356 . S
N620 H625 0.984 . S
N620 H626 0.985 . S
C621 C615 1.379 . S
C621 C618 1.363 . S
C621 N619 1.356 . S
C622 C616 1.363 . S
C622 C617 1.379 . S
C622 N620 1.356 . S
N623 C615 1.356 . S
N623 H629 0.984 . S
N623 H630 0.984 . S
N624 C617 1.356 . S
N624 H627 0.984 . S
N624 H628 0.985 . S
H625 N620 0.984 . S
H626 N620 0.985 . S
H627 N624 0.984 . S
H628 N624 0.985 . S
H629 N623 0.984 . S
H630 N623 0.984 . S
H631 N619 0.986 1_545 S
H632 N619 0.985 . S
C633 C634 1.363 . S
C633 C639 1.379 . S
C633 N641 1.356 . S
C634 C633 1.363 . S
C634 C640 1.363 . S
C635 C636 1.363 . S
C635 C640 1.379 . S
C635 N642 1.356 . S
C636 C635 1.363 . S
C636 C639 1.363 . S
N637 C639 1.356 . S
N637 H649 0.984 . S
N637 H650 0.985 . S
N638 C640 1.356 1_554 S
N638 H643 0.984 . S
N638 H644 0.985 . S
C639 C633 1.379 . S
C639 C636 1.363 . S
C639 N637 1.356 . S
C640 C634 1.363 . S
C640 C635 1.379 . S
C640 N638 1.356 1_556 S
N641 C633 1.356 . S
N641 H647 0.984 . S
N641 H648 0.984 . S
N642 C635 1.356 . S
N642 H645 0.984 . S
N642 H646 0.985 . S
H643 N638 0.984 . S
H644 N638 0.985 . S
H645 N642 0.984 . S
H646 N642 0.985 . S
H647 N641 0.984 . S
H648 N641 0.984 . S
H649 N637 0.984 . S
H650 N637 0.985 . S
C651 C652 1.363 . S
C651 C657 1.379 . S
C651 N659 1.356 . S
C652 C651 1.363 . S
C652 C658 1.363 . S
C653 C654 1.363 . S
C653 C658 1.379 . S
C653 N660 1.356 . S
C654 C653 1.363 . S
C654 C657 1.363 . S
N655 C657 1.356 . S
N655 H667 0.984 . S
N655 H668 0.985 . S
N656 C658 1.356 1_554 S
N656 H661 0.984 . S
N656 H662 0.985 . S
C657 C651 1.379 . S
C657 C654 1.363 . S
C657 N655 1.356 . S
C658 C652 1.363 . S
C658 C653 1.379 . S
C658 N656 1.356 1_556 S
N659 C651 1.356 . S
N659 H665 0.984 . S
N659 H666 0.984 . S
N660 C653 1.356 . S
N660 H663 0.984 . S
N660 H664 0.985 . S
H661 N656 0.984 . S
H662 N656 0.985 . S
H663 N660 0.984 . S
H664 N660 0.985 . S
H665 N659 0.984 . S
H666 N659 0.984 . S
H667 N655 0.984 . S
H668 N655 0.985 . S
C669 C670 1.363 . S
C669 C675 1.379 . S
C669 N677 1.356 . S
C670 C669 1.363 . S
C670 C676 1.363 . S
C671 C672 1.363 . S
C671 C676 1.379 . S
C671 N678 1.356 . S
C672 C671 1.363 . S
C672 C675 1.363 . S
N673 C675 1.356 . S
N673 H685 0.984 . S
N673 H686 0.985 . S
N674 C676 1.356 . S
N674 H679 0.984 . S
N674 H680 0.985 . S
C675 C669 1.379 . S
C675 C672 1.363 . S
C675 N673 1.356 . S
C676 C670 1.363 . S
C676 C671 1.379 . S
C676 N674 1.356 . S
N677 C669 1.356 . S
N677 H683 0.984 . S
N677 H684 0.984 . S
N678 C671 1.356 . S
N678 H681 0.984 . S
N678 H682 0.985 . S
H679 N674 0.984 . S
H680 N674 0.985 . S
H681 N678 0.984 . S
H682 N678 0.985 . S
H683 N677 0.984 . S
H684 N677 0.984 . S
H685 N673 0.984 . S
H686 N673 0.985 . S
C687 C688 1.363 . S
C687 C693 1.379 . S
C687 N695 1.356 . S
C688 C687 1.363 . S
C688 C694 1.363 . S
C689 C690 1.363 . S
C689 C694 1.379 . S
C689 N696 1.356 . S
C690 C689 1.363 . S
C690 C693 1.363 . S
N691 C693 1.356 . S
N691 H703 0.984 . S
N691 H704 0.985 . S
N692 C694 1.356 . S
N692 H697 0.984 . S
N692 H698 0.985 . S
C693 C687 1.379 . S
C693 C690 1.363 . S
C693 N691 1.356 . S
C694 C688 1.363 . S
C694 C689 1.379 . S
C694 N692 1.356 . S
N695 C687 1.356 . S
N695 H701 0.984 . S
N695 H702 0.984 . S
N696 C689 1.356 . S
N696 H699 0.984 . S
N696 H700 0.985 . S
H697 N692 0.984 . S
H698 N692 0.985 . S
H699 N696 0.984 . S
H700 N696 0.985 . S
H701 N695 0.984 . S
H702 N695 0.984 . S
H703 N691 0.984 . S
H704 N691 0.985 . S
C705 C706 1.363 . S
C705 C711 1.379 . S
C705 N713 1.356 . S
C706 C705 1.363 . S
C706 C712 1.363 . S
C707 C708 1.363 . S
C707 C712 1.379 . S
C707 N714 1.356 . S
C708 C707 1.363 . S
C708 C711 1.363 . S
N709 C711 1.356 . S
N709 H721 0.984 . S
N709 H722 0.985 . S
N710 C712 1.356 . S
N710 H715 0.984 . S
N710 H716 0.985 . S
C711 C705 1.379 . S
C711 C708 1.363 . S
C711 N709 1.356 . S
C712 C706 1.363 . S
C712 C707 1.379 . S
C712 N710 1.356 . S
N713 C705 1.356 . S
N713 H719 0.984 . S
N713 H720 0.984 . S
N714 C707 1.356 . S
N714 H717 0.984 . S
N714 H718 0.985 . S
H715 N710 0.984 . S
H716 N710 0.985 . S
H717 N714 0.984 . S
H718 N714 0.985 . S
H719 N713 0.984 . S
H720 N713 0.984 . S
H721 N709 0.984 . S
H722 N709 0.985 . S
C723 C724 1.363 . S
C723 C729 1.379 . S
C723 N731 1.356 . S
C724 C723 1.363 . S
C724 C730 1.363 . S
C725 C726 1.363 . S
C725 C730 1.379 . S
C725 N732 1.356 . S
C726 C725 1.363 . S
C726 C729 1.363 . S
N727 C729 1.356 . S
N727 H739 0.984 . S
N727 H740 0.985 . S
N728 C730 1.356 . S
N728 H733 0.984 . S
N728 H734 0.985 . S
C729 C723 1.379 . S
C729 C726 1.363 . S
C729 N727 1.356 . S
C730 C724 1.363 . S
C730 C725 1.379 . S
C730 N728 1.356 . S
N731 C723 1.356 . S
N731 H737 0.984 . S
N731 H738 0.984 . S
N732 C725 1.356 . S
N732 H735 0.984 . S
N732 H736 0.985 . S
H733 N728 0.984 . S
H734 N728 0.985 . S
H735 N732 0.984 . S
H736 N732 0.985 . S
H737 N731 0.984 . S
H738 N731 0.984 . S
H739 N727 0.984 . S
H740 N727 0.985 . S
C741 C742 1.363 . S
C741 C747 1.379 . S
C741 N749 1.356 . S
C742 C741 1.363 . S
C742 C748 1.363 . S
C743 C744 1.363 . S
C743 C748 1.379 . S
C743 N750 1.356 . S
C744 C743 1.363 . S
C744 C747 1.363 . S
N745 C747 1.356 . S
N745 H757 0.984 1_655 S
N745 H758 0.985 . S
N746 C748 1.356 . S
N746 H751 0.984 . S
N746 H752 0.985 . S
C747 C741 1.379 . S
C747 C744 1.363 . S
C747 N745 1.356 . S
C748 C742 1.363 . S
C748 C743 1.379 . S
C748 N746 1.356 . S
N749 C741 1.356 . S
N749 H755 0.984 . S
N749 H756 0.984 . S
N750 C743 1.356 . S
N750 H753 0.984 . S
N750 H754 0.985 . S
H751 N746 0.984 . S
H752 N746 0.985 . S
H753 N750 0.984 . S
H754 N750 0.985 . S
H755 N749 0.984 . S
H756 N749 0.984 . S
H757 N745 0.984 1_455 S
H758 N745 0.985 . S
C759 C760 1.363 . S
C759 C765 1.379 . S
C759 N767 1.356 . S
C760 C759 1.363 . S
C760 C766 1.363 . S
C761 C762 1.363 . S
C761 C766 1.379 . S
C761 N768 1.356 . S
C762 C761 1.363 . S
C762 C765 1.363 . S
N763 C765 1.356 . S
N763 H775 0.984 . S
N763 H776 0.985 . S
N764 C766 1.356 . S
N764 H769 0.984 . S
N764 H770 0.985 . S
C765 C759 1.379 . S
C765 C762 1.363 . S
C765 N763 1.356 . S
C766 C760 1.363 . S
C766 C761 1.379 . S
C766 N764 1.356 . S
N767 C759 1.356 . S
N767 H773 0.984 . S
N767 H774 0.984 . S
N768 C761 1.356 . S
N768 H771 0.984 . S
N768 H772 0.985 . S
H769 N764 0.984 . S
H770 N764 0.985 . S
H771 N768 0.984 . S
H772 N768 0.985 . S
H773 N767 0.984 . S
H774 N767 0.984 . S
H775 N763 0.984 . S
H776 N763 0.985 . S
C777 C778 1.363 . S
C777 C783 1.379 . S
C777 N785 1.356 . S
C778 C777 1.363 . S
C778 C784 1.363 . S
C779 C780 1.363 . S
C779 C784 1.379 . S
C779 N786 1.356 . S
C780 C779 1.363 . S
C780 C783 1.363 . S
N781 C783 1.356 . S
N781 H793 0.984 . S
N781 H794 0.985 . S
N782 C784 1.356 . S
N782 H787 0.984 . S
N782 H788 0.985 . S
C783 C777 1.379 . S
C783 C780 1.363 . S
C783 N781 1.356 . S
C784 C778 1.363 . S
C784 C779 1.379 . S
C784 N782 1.356 . S
N785 C777 1.356 . S
N785 H791 0.984 . S
N785 H792 0.984 . S
N786 C779 1.356 . S
N786 H789 0.984 . S
N786 H790 0.985 . S
H787 N782 0.984 . S
H788 N782 0.985 . S
H789 N786 0.984 . S
H790 N786 0.985 . S
H791 N785 0.984 . S
H792 N785 0.984 . S
H793 N781 0.984 . S
H794 N781 0.985 . S
C795 C796 1.363 . S
C795 C801 1.379 . S
C795 N803 1.356 . S
C796 C795 1.363 . S
C796 C802 1.363 . S
C797 C798 1.363 . S
C797 C802 1.379 . S
C797 N804 1.356 . S
C798 C797 1.363 . S
C798 C801 1.363 . S
N799 C801 1.356 . S
N799 H811 0.984 . S
N799 H812 0.985 . S
N800 C802 1.356 . S
N800 H805 0.984 . S
N800 H806 0.985 . S
C801 C795 1.379 . S
C801 C798 1.363 . S
C801 N799 1.356 . S
C802 C796 1.363 . S
C802 C797 1.379 . S
C802 N800 1.356 . S
N803 C795 1.356 . S
N803 H809 0.984 . S
N803 H810 0.984 . S
N804 C797 1.356 . S
N804 H807 0.984 . S
N804 H808 0.985 . S
H805 N800 0.984 . S
H806 N800 0.985 . S
H807 N804 0.984 . S
H808 N804 0.985 . S
H809 N803 0.984 . S
H810 N803 0.984 . S
H811 N799 0.984 . S
H812 N799 0.985 . S
C382 C45 1.890 . S
C384 C288 1.745 . S
C400 C84 1.575 . S
C402 C320 1.537 . S
C420 C379 1.835 . S
C418 C126 1.861 . S
C438 C308 1.427 . S
C436 C165 1.462 . S
C454 C222 1.723 . S
C456 C338 1.642 . S
C474 C360 1.386 . S
C472 C276 1.381 . S
C492 C329 1.771 . S
C490 C141 1.809 . S
C508 C180 1.469 . S
C510 C369 1.375 . S
C528 C318 1.684 . S
C526 C237 1.740 . S
C544 C261 1.529 1_556 S
C546 C348 1.490 . S
C562 C30 1.787 1_556 S
C564 C351 1.765 . S
C582 C290 1.606 . S
C580 C69 1.624 . S
C600 C298 1.704 . S
C598 C174 1.803 . S
C618 C339 1.512 . S
C616 C213 1.546 . S
C636 C352 1.846 . S
C634 C285 1.874 1_556 S
C654 C289 1.441 . S
C652 C36 1.478 1_556 S
C672 C349 1.612 . S
C670 C93 1.639 . S
C688 C117 1.395 . S
C690 C350 1.362 . S
C708 C319 1.711 . S
C706 C270 1.794 . S
C726 C380 1.359 . S
C724 C21 1.416 . S
C744 C307 1.625 . S
C742 C78 1.729 . S
C762 C321 1.518 . S
C760 C132 1.559 . S
C778 C189 1.785 . S
C780 C370 1.761 . S
C796 C228 1.630 . S
C798 C317 1.610 . S
