# Generated by pormake.
# Topology zzz, (3,6)-cn, num edge types: 1
# Building blocks:
#     Node 0, Type 0, BuildingBlock: QEWDON_clean_linker_0, # of connection points: 3
#     Node 1, Type 0, BuildingBlock: QEWDON_clean_linker_0, # of connection points: 3
#     Node 2, Type 0, BuildingBlock: QEWDON_clean_linker_0, # of connection points: 3
#     Node 3, Type 0, BuildingBlock: QEWDON_clean_linker_0, # of connection points: 3
#     Node 4, Type 0, BuildingBlock: QEWDON_clean_linker_0, # of connection points: 3
#     Node 5, Type 0, BuildingBlock: QEWDON_clean_linker_0, # of connection points: 3
#     Node 6, Type 0, BuildingBlock: QEWDON_clean_linker_0, # of connection points: 3
#     Node 7, Type 0, BuildingBlock: QEWDON_clean_linker_0, # of connection points: 3
#     Node 8, Type 1, BuildingBlock: HISSIN_clean_sbu_0, # of connection points: 6
#     Node 9, Type 1, BuildingBlock: HISSIN_clean_sbu_0, # of connection points: 6
#     Node 10, Type 1, BuildingBlock: HISSIN_clean_sbu_0, # of connection points: 6
#     Node 11, Type 1, BuildingBlock: HISSIN_clean_sbu_0, # of connection points: 6
#     Edge 12, Type (0, 1), BuildingBlock: AJUNOK_clean_linker_0, # of connection points: 2
#     Edge 13, Type (0, 1), BuildingBlock: AJUNOK_clean_linker_0, # of connection points: 2
#     Edge 14, Type (0, 1), BuildingBlock: AJUNOK_clean_linker_0, # of connection points: 2
#     Edge 15, Type (0, 1), BuildingBlock: AJUNOK_clean_linker_0, # of connection points: 2
#     Edge 16, Type (0, 1), BuildingBlock: AJUNOK_clean_linker_0, # of connection points: 2
#     Edge 17, Type (0, 1), BuildingBlock: AJUNOK_clean_linker_0, # of connection points: 2
#     Edge 18, Type (0, 1), BuildingBlock: AJUNOK_clean_linker_0, # of connection points: 2
#     Edge 19, Type (0, 1), BuildingBlock: AJUNOK_clean_linker_0, # of connection points: 2
#     Edge 20, Type (0, 1), BuildingBlock: AJUNOK_clean_linker_0, # of connection points: 2
#     Edge 21, Type (0, 1), BuildingBlock: AJUNOK_clean_linker_0, # of connection points: 2
#     Edge 22, Type (0, 1), BuildingBlock: AJUNOK_clean_linker_0, # of connection points: 2
#     Edge 23, Type (0, 1), BuildingBlock: AJUNOK_clean_linker_0, # of connection points: 2
#     Edge 24, Type (0, 1), BuildingBlock: AJUNOK_clean_linker_0, # of connection points: 2
#     Edge 25, Type (0, 1), BuildingBlock: AJUNOK_clean_linker_0, # of connection points: 2
#     Edge 26, Type (0, 1), BuildingBlock: AJUNOK_clean_linker_0, # of connection points: 2
#     Edge 27, Type (0, 1), BuildingBlock: AJUNOK_clean_linker_0, # of connection points: 2
#     Edge 28, Type (0, 1), BuildingBlock: AJUNOK_clean_linker_0, # of connection points: 2
#     Edge 29, Type (0, 1), BuildingBlock: AJUNOK_clean_linker_0, # of connection points: 2
#     Edge 30, Type (0, 1), BuildingBlock: AJUNOK_clean_linker_0, # of connection points: 2
#     Edge 31, Type (0, 1), BuildingBlock: AJUNOK_clean_linker_0, # of connection points: 2
#     Edge 32, Type (0, 1), BuildingBlock: AJUNOK_clean_linker_0, # of connection points: 2
#     Edge 33, Type (0, 1), BuildingBlock: AJUNOK_clean_linker_0, # of connection points: 2
#     Edge 34, Type (0, 1), BuildingBlock: AJUNOK_clean_linker_0, # of connection points: 2
#     Edge 35, Type (0, 1), BuildingBlock: AJUNOK_clean_linker_0, # of connection points: 2
# Relax obj value: 0.255
# Max RMSD: 0.210
# Mean RMSD: 0.072
data_MOF--net-zzz--node1-HISSIN_clean_sbu_0--node2-QEWDON_clean_linker_0--edge1-AJUNOK_clean_linker_0
_symmetry_space_group_name_H-M    P1
_symmetry_Int_Tables_number       1
_symmetry_cell_setting            triclinic
loop_
_symmetry_equiv_pos_as_xyz
'x, y, z'
_cell_length_a     40.016395
_cell_length_b     40.005286
_cell_length_c     12.056356
_cell_angle_alpha  89.822306
_cell_angle_beta   91.328806
_cell_angle_gamma 90.002415
loop_
_atom_site_label
_atom_site_type_symbol
_atom_site_fract_x
_atom_site_fract_y
_atom_site_fract_z
_atom_type_partial_charge
H0 H 0.781 0.49291 0.22597 0.0
C1 C 0.79655 0.49853 0.29803 0.0
C2 C 0.82519 0.47888 0.31698 0.0
C3 C 0.78942 0.52619 0.36619 0.0
H4 H 0.87061 0.47275 0.41389 0.0
C5 C 0.8475 0.48679 0.40414 0.0
C6 C 0.84283 0.51482 0.47038 0.0
C7 C 0.81344 0.53421 0.45272 0.0
C8 C 0.75865 0.54777 0.34031 0.0
H9 H 0.80994 0.55539 0.50646 0.0
C10 C 0.73067 0.5364 0.27354 0.0
C11 C 0.70311 0.55777 0.24672 0.0
C12 C 0.7576 0.58101 0.37869 0.0
H13 H 0.77813 0.59193 0.42551 0.0
C14 C 0.73038 0.60172 0.35435 0.0
H15 H 0.72978 0.51107 0.24273 0.0
C16 C 0.70361 0.59041 0.289 0.0
H17 H 0.68359 0.60777 0.26868 0.0
H18 H 0.7304 0.62719 0.38448 0.0
H19 H 0.08236 0.76046 0.2719 0.0
C20 C 0.07107 0.78035 0.31816 0.0
C21 C 0.08822 0.81088 0.32442 0.0
C22 C 0.03965 0.77598 0.36695 0.0
H23 H 0.089 0.86022 0.39662 0.0
C24 C 0.07608 0.83641 0.39224 0.0
C25 C 0.04609 0.8333 0.4479 0.0
C26 C 1.02719 0.80341 0.432 0.0
C27 C 1.02044 0.74316 0.34788 0.0
H28 H 1.00305 0.80215 0.46991 0.0
C29 C 1.0285 0.71919 0.26299 0.0
C30 C 1.01071 0.68837 0.25071 0.0
C31 C 0.99375 0.73502 0.41714 0.0
H32 H 0.98683 0.75089 0.48509 0.0
C33 C 0.97525 0.70582 0.40165 0.0
H34 H 0.04847 0.72384 0.20637 0.0
C35 C 0.98332 0.68305 0.31941 0.0
H36 H 0.96785 0.66098 0.30986 0.0
H37 H 0.95446 0.70061 0.45495 0.0
H38 H 0.8067 0.08376 0.24932 0.0
C39 C 0.78872 0.07381 0.30592 0.0
C40 C 0.75935 0.09213 0.31896 0.0
C41 C 0.79426 0.04325 0.36198 0.0
H42 H 0.71212 0.09536 0.39864 0.0
C43 C 0.73523 0.08132 0.39316 0.0
C44 C 0.7391 0.05209 0.45591 0.0
C45 C 0.76851 0.03242 0.43766 0.0
C46 C 0.82691 1.02386 0.34088 0.0
H47 H 0.77088 1.00914 0.48261 0.0
C48 C 0.8492 0.03083 0.25008 0.0
C49 C 0.88008 1.01306 0.23661 0.0
C50 C 0.8369 0.99842 0.41534 0.0
H51 H 0.82242 0.99226 0.48699 0.0
C52 C 0.86633 0.98045 0.40106 0.0
H53 H 0.84318 0.05006 0.19016 0.0
C54 C 0.88741 0.98747 0.31362 0.0
H55 H 0.90969 0.97237 0.30636 0.0
H56 H 0.87308 0.96083 0.45948 0.0
H57 H 0.50189 0.79959 0.25941 0.0
C58 C 0.51228 0.78066 0.31455 0.0
C59 C 0.49608 0.74963 0.32082 0.0
C60 C 0.54115 0.78749 0.37984 0.0
H61 H 0.49737 0.70033 0.39387 0.0
C62 C 0.50882 0.72491 0.39297 0.0
C63 C 0.53709 0.73021 0.46025 0.0
C64 C 0.55366 0.76159 0.45276 0.0
C65 C 0.55609 0.82239 0.37702 0.0
H66 H 0.57591 0.76571 0.50359 0.0
C67 C 0.55492 0.84353 0.28029 0.0
C68 C 0.56684 0.87721 0.28418 0.0
C69 C 0.56942 0.8359 0.47598 0.0
H70 H 0.57007 0.82145 0.55204 0.0
C71 C 0.58058 0.86886 0.48063 0.0
H72 H 0.54519 0.83388 0.20226 0.0
C73 C 0.57897 0.8893 0.3869 0.0
H74 H 0.58685 0.91507 0.39581 0.0
H75 H 0.59002 0.87891 0.55852 0.0
H76 H 0.3093 0.57366 0.27613 0.0
C77 C 0.29067 0.56374 0.21868 0.0
C78 C 0.25877 0.5779 0.21805 0.0
C79 C 0.29866 0.53808 0.14379 0.0
H80 H 0.20927 0.5776 0.14557 0.0
C81 C 0.23409 0.56664 0.14336 0.0
C82 C 0.24037 0.5416 0.0664 0.0
C83 C 0.2728 0.52687 0.06739 0.0
C84 C 0.33457 0.52571 0.14101 0.0
H85 H 0.27776 0.50732 1.00825 0.0
C86 C 0.35707 0.52719 0.23553 0.0
C87 C 0.39167 0.51969 0.22621 0.0
C88 C 0.34766 0.51512 0.03965 0.0
H89 H 0.33224 0.51432 0.96485 0.0
C90 C 0.38135 0.50673 0.03123 0.0
H91 H 0.34814 0.53481 0.31558 0.0
C92 C 0.40312 0.50919 0.12281 0.0
H93 H 0.42921 0.50292 0.11261 0.0
H94 H 0.39087 0.4989 0.9521 0.0
H95 H 0.98915 0.29741 0.25318 0.0
C96 C 0.99907 0.27933 0.19597 0.0
C97 C 0.98212 0.24898 0.182 0.0
C98 C 1.02778 0.28666 0.13503 0.0
H99 H 0.98083 0.20128 0.1002 0.0
C100 C 0.99375 0.22508 0.10755 0.0
C101 C 1.02245 0.23032 0.04625 0.0
C102 C 0.0397 0.26136 0.0604 0.0
C103 C 0.04288 0.3216 0.14396 0.0
H104 H 0.06195 0.26573 1.01314 0.0
C105 C 0.04101 0.34214 0.24176 0.0
C106 C 0.05249 0.37609 0.24263 0.0
C107 C 0.0568 0.33595 0.0491 0.0
H108 H 0.05798 0.32214 0.97228 0.0
C109 C 0.06801 0.36893 0.04933 0.0
H110 H 0.03114 0.33171 0.31709 0.0
C111 C 0.06574 0.38871 0.14382 0.0
H112 H 0.07393 0.41444 0.13829 0.0
H113 H 0.07806 0.37954 0.97442 0.0
H114 H 0.28142 0.08542 0.29193 0.0
C115 C 0.29779 0.07949 0.22474 0.0
C116 C 0.33124 0.08901 0.23849 0.0
C117 C 0.28808 0.05572 0.14483 0.0
H118 H 0.3793 0.09105 0.16111 0.0
C119 C 0.35359 0.08279 0.1526 0.0
C120 C 0.34588 0.06048 0.06683 0.0
C121 C 0.31279 0.04641 0.06386 0.0
C122 C 0.25532 0.03665 0.16488 0.0
H123 H 0.30703 0.02766 1.00196 0.0
C124 C 0.22856 0.04927 0.23244 0.0
C125 C 0.20128 0.02853 0.2653 0.0
C126 C 0.25271 1.00323 0.12997 0.0
H127 H 0.27213 0.99167 0.08249 0.0
C128 C 0.22598 0.98313 0.16106 0.0
H129 H 0.22875 0.07487 0.26079 0.0
C130 C 0.2007 0.99547 0.22753 0.0
H131 H 0.1807 0.97881 0.25105 0.0
H132 H 0.22527 0.95729 0.13503 0.0
H133 H 0.59205 0.27653 0.30558 0.0
C134 C 0.5848 0.29159 0.23437 0.0
C135 C 0.60551 0.31848 0.20635 0.0
C136 C 0.55398 0.28604 0.17843 0.0
H137 H 0.61084 0.36208 0.1034 0.0
C138 C 0.59578 0.34015 0.11991 0.0
C139 C 0.56528 0.33648 0.06249 0.0
C140 C 0.54442 0.30915 0.09149 0.0
C141 C 0.53097 0.25842 0.21955 0.0
H142 H 0.521 0.30632 0.04613 0.0
C143 C 0.54267 0.23015 0.28377 0.0
C144 C 0.52003 0.20616 0.32731 0.0
C145 C 0.49621 0.26131 0.20068 0.0
H146 H 0.48545 0.28247 0.15699 0.0
C147 C 0.47414 0.23757 0.2415 0.0
H148 H 0.56911 0.22634 0.29939 0.0
C149 C 0.4858 0.21051 0.30405 0.0
H150 H 0.46773 0.19324 0.3369 0.0
H151 H 0.44753 0.24056 0.22632 0.0
Eu152 Eu 1.00874 0.04435 0.63491 0.0
Eu153 Eu 0.06407 1.02399 0.82049 0.0
C154 C 0.03903 0.10205 0.81049 0.0
C155 C 0.94177 0.08955 0.45983 0.0
C156 C 0.93334 0.11181 0.54441 0.0
C157 C 0.92114 0.12892 0.32235 0.0
C158 C 0.92043 0.14336 0.51721 0.0
C159 C 0.93343 0.09734 0.34966 0.0
C160 C 0.91697 0.15322 0.40533 0.0
C161 C 0.965 0.06194 0.48127 0.0
O162 O 1.01489 1.01721 0.91353 0.0
O163 O 0.97729 0.04098 0.79052 0.0
C164 C 0.98431 0.02797 0.88894 0.0
O165 O 1.00896 0.98773 0.61647 0.0
O166 O 0.08206 1.01178 0.98762 0.0
O167 O 0.1159 1.00888 0.85135 0.0
O168 O 0.05374 0.97467 0.72946 0.0
C169 C 0.03052 0.96567 0.65607 0.0
O170 O 0.05767 0.03696 0.54022 0.0
O171 O 0.09454 0.04687 0.68203 0.0
O172 O 0.05719 0.07905 0.8623 0.0
O173 O 0.99653 0.07022 0.48049 0.0
O174 O 0.95823 0.04161 0.56237 0.0
O175 O 1.02088 0.09448 0.7206 0.0
C176 C 0.11933 0.9665 0.98371 0.0
C177 C 0.09431 0.94207 0.9798 0.0
C178 C 0.15993 0.92414 0.03907 0.0
C179 C 0.10175 0.90923 1.00833 0.0
C180 C 0.15237 0.95728 1.00992 0.0
C181 C 0.13453 0.8999 0.04009 0.0
C182 C 0.1109 1.00106 0.95428 0.0
C183 C 0.08855 0.04311 0.57524 0.0
H184 H 0.93948 0.10601 0.63035 0.0
H185 H 0.91925 0.13533 0.23516 0.0
H186 H 0.91679 0.16129 0.58289 0.0
H187 H 0.9398 0.0804 0.2835 0.0
H188 H 0.06874 0.94852 0.9571 0.0
H189 H 0.18528 0.91755 0.06349 0.0
H190 H 0.08129 0.89155 1.01127 0.0
H191 H 0.17206 0.97579 1.00894 0.0
Eu192 Eu 0.55752 0.06211 0.88705 0.0
Eu193 Eu 0.53421 1.01252 0.69644 0.0
C194 C 0.55697 0.98283 0.9389 0.0
C195 C 0.59822 0.13075 0.05946 0.0
C196 C 0.60843 0.13853 0.16785 0.0
C197 C 0.6489 0.15577 0.99046 0.0
C198 C 0.6401 0.15191 0.18808 0.0
C199 C 0.61739 0.14164 0.97022 0.0
C200 C 0.66194 0.15751 0.09972 0.0
C201 C 0.57283 0.10483 0.04348 0.0
O202 O 0.4845 0.03479 0.75528 0.0
O203 O 0.50354 0.04753 0.92856 0.0
C204 C 0.4782 0.04216 0.85919 0.0
O205 O 0.55128 0.09756 0.73976 0.0
O206 O 0.51044 0.96503 0.65228 0.0
O207 O 0.53055 0.99617 0.52386 0.0
O208 O 0.53015 0.06253 0.6061 0.0
C209 C 0.53992 0.0925 0.63795 0.0
O210 O 0.60447 0.0588 0.7817 0.0
O211 O 0.59137 1.0128 0.67676 0.0
O212 O 0.53689 0.9798 0.85187 0.0
O213 O 0.54959 0.11022 0.96799 0.0
O214 O 0.58478 0.07455 0.03918 0.0
O215 O 0.57271 1.01121 0.95721 0.0
C216 C 0.47441 0.98083 0.50463 0.0
C217 C 0.4479 0.98137 0.5797 0.0
C218 C 0.44469 1.02129 0.38987 0.0
C219 C 0.42168 1.00392 0.56487 0.0
C220 C 0.47103 0.99885 0.40493 0.0
C221 C 0.42119 1.02558 0.47351 0.0
C222 C 0.50836 0.97354 0.54789 0.0
C223 C 0.61307 0.03611 0.70792 0.0
H224 H 0.59368 0.13063 0.23755 0.0
H225 H 0.66453 0.16136 0.92066 0.0
H226 H 0.64883 0.15336 0.27362 0.0
H227 H 0.60956 0.13617 0.88556 0.0
H228 H 0.44921 0.96727 0.65654 0.0
H229 H 0.44359 0.03639 0.31509 0.0
H230 H 0.40305 1.00587 0.62833 0.0
H231 H 0.49073 0.99854 0.34473 0.0
Eu232 Eu 0.51711 0.53907 0.82137 0.0
Eu233 Eu 0.57589 0.52193 0.65274 0.0
C234 C 0.59507 0.53715 0.91104 0.0
C235 C 0.45883 0.59352 0.97007 0.0
C236 C 0.4843 0.61745 0.96964 0.0
C237 C 0.41977 0.63595 0.02946 0.0
C238 C 0.47797 0.64999 1.00227 0.0
C239 C 0.42629 0.60298 0.99719 0.0
C240 C 0.44583 0.65961 0.03495 0.0
C241 C 0.46674 0.55937 0.93679 0.0
O242 O 0.56258 0.47071 0.72744 0.0
O243 O 0.52743 0.48507 0.86811 0.0
C244 C 0.54539 0.46263 0.81639 0.0
O245 O 0.49277 0.51231 0.67519 0.0
O246 O 0.62707 0.52562 0.59456 0.0
O247 O 0.58952 0.49896 0.497 0.0
O248 O 0.52827 0.53385 0.55192 0.0
C249 C 0.4984 0.52233 0.57398 0.0
O250 O 0.52664 0.58837 0.72993 0.0
O251 O 0.57722 0.57867 0.65209 0.0
O252 O 0.60284 0.5214 0.81967 0.0
O253 O 0.46501 0.55454 0.83023 0.0
O254 O 0.49396 0.54668 0.98155 0.0
O255 O 0.56508 0.55053 0.9219 0.0
C256 C 0.64436 0.4795 0.48782 0.0
C257 C 0.65368 0.45711 0.57283 0.0
C258 C 0.66477 0.44084 0.35152 0.0
C259 C 0.66697 0.42588 0.54636 0.0
C260 C 0.65212 0.47216 0.37815 0.0
C261 C 0.66989 0.4164 0.43466 0.0
C262 C 0.62107 0.5069 0.50801 0.0
C263 C 0.55279 0.59921 0.6757 0.0
H264 H 0.50947 0.61074 0.94683 0.0
H265 H 0.39468 0.64266 0.05258 0.0
H266 H 0.49889 0.66714 1.00723 0.0
H267 H 0.4062 0.58482 0.99535 0.0
H268 H 0.64801 0.46253 0.65837 0.0
H269 H 0.66629 0.43466 0.26444 0.0
H270 H 0.67132 0.40783 0.61221 0.0
H271 H 0.64513 0.48924 0.31167 0.0
Eu272 Eu 0.05071 0.55753 0.66849 0.0
Eu273 Eu 0.03367 0.50153 0.85134 0.0
C274 C 0.11064 0.52818 0.83053 0.0
C275 C 0.09652 0.62199 0.49652 0.0
C276 C 0.11913 0.63194 0.58103 0.0
C277 C 0.13804 0.63398 0.35961 0.0
C278 C 0.15167 0.64133 0.55476 0.0
C279 C 0.10549 0.62514 0.38557 0.0
C280 C 0.16205 0.63982 0.44451 0.0
C281 C 0.06626 0.60308 0.52194 0.0
O282 O 0.039 0.54974 0.95134 0.0
O283 O 0.03176 0.58828 0.81316 0.0
C284 C 0.03359 0.58084 0.91945 0.0
O285 O 0.99637 0.54584 0.62887 0.0
O286 O 1.01548 0.48745 1.01336 0.0
O287 O 0.03456 0.44922 0.90513 0.0
O288 O 0.98179 0.51728 0.78596 0.0
C289 C 0.97351 0.53215 0.69119 0.0
O290 O 0.0624 0.50684 0.58793 0.0
O291 O 1.027 0.47448 0.6867 0.0
O292 O 0.09096 0.50281 0.85458 0.0
O293 O 0.06818 0.57105 0.50451 0.0
O294 O 0.05189 0.60976 0.61491 0.0
O295 O 0.09899 0.5535 0.77111 0.0
C296 C 0.98832 0.43618 0.01612 0.0
C297 C 0.96362 0.43272 0.93231 0.0
C298 C 0.94832 0.41959 0.15307 0.0
C299 C 0.93092 0.42424 0.95978 0.0
C300 C 0.98092 0.4278 0.12541 0.0
C301 C 0.92251 0.41966 0.07148 0.0
C302 C 1.01868 0.4555 0.99598 0.0
C303 C 0.04524 0.47885 0.59883 0.0
H304 H 0.11255 0.63003 0.66746 0.0
H305 H 0.1452 0.63258 0.27362 0.0
H306 H 0.16952 0.64673 0.62101 0.0
H307 H 0.08831 0.61775 0.31931 0.0
H308 H 0.96885 0.43942 0.84729 0.0
H309 H 0.94287 0.4171 0.24023 0.0
H310 H 0.91166 0.42444 0.89514 0.0
H311 H 0.99954 0.43097 0.19114 0.0
C312 C 0.17818 0.03602 0.45944 0.0
C313 C 0.17374 0.0391 0.34325 0.0
C314 C 0.151 0.03852 0.53309 0.0
C315 C 0.11761 0.04371 0.49484 0.0
H316 H 0.20277 0.03021 0.4937 0.0
H317 H 0.15615 0.03503 0.62094 0.0
S318 S 0.09256 0.05649 0.19904 0.0
N319 N 0.13324 0.04963 0.19463 0.0
N320 N 0.08271 0.05432 0.33111 0.0
C321 C 0.11309 0.04792 0.37898 0.0
C322 C 0.14081 0.04555 0.30418 0.0
C323 C 0.51794 0.14448 0.37624 0.0
C324 C 0.5304 0.17679 0.40002 0.0
C325 C 0.52167 0.11758 0.45188 0.0
C326 C 0.5379 0.12147 0.55634 0.0
H327 H 0.50429 0.14011 0.29902 0.0
H328 H 0.51092 0.09367 0.42887 0.0
S329 S 0.57727 0.20043 0.65713 0.0
N330 N 0.56123 0.21055 0.53408 0.0
N331 N 0.56851 0.16048 0.67564 0.0
C332 C 0.55166 0.15342 0.57944 0.0
C333 C 0.54795 0.18079 0.50173 0.0
C334 C 0.41453 0.50468 0.41952 0.0
C335 C 0.41692 0.52336 0.32063 0.0
C336 C 0.44067 0.50458 0.5011 0.0
C337 C 0.47051 0.523 0.48728 0.0
H338 H 0.39277 0.48917 0.43238 0.0
H339 H 0.4377 0.48936 0.57465 0.0
S340 S 0.48734 0.57947 0.24974 0.0
N341 N 0.45037 0.56315 0.21911 0.0
N342 N 0.49905 0.56282 0.36983 0.0
C343 C 0.47251 0.54271 0.3905 0.0
C344 C 0.44594 0.54293 0.30824 0.0
C345 C 0.07705 0.42284 0.36336 0.0
C346 C 0.05088 0.39961 0.34219 0.0
C347 C 0.07496 0.44811 0.44487 0.0
C348 C 0.04684 0.45142 0.51216 0.0
H349 H 0.09953 0.42182 0.3153 0.0
H350 H 0.09582 0.46516 0.4555 0.0
S351 S 0.97083 0.39793 0.49244 0.0
N352 N 0.99535 0.38256 0.39676 0.0
N353 N 0.99188 0.42891 0.55141 0.0
C354 C 1.02071 0.428 0.49419 0.0
C355 C 1.02265 0.40246 0.40974 0.0
C356 C 0.94048 1.0168 0.17028 0.0
C357 C 0.90571 1.02005 0.14598 0.0
C358 C 0.96516 1.01935 0.08813 0.0
C359 C 0.95695 1.02576 0.97554 0.0
H360 H 0.94906 1.01211 0.25487 0.0
H361 H 0.99106 1.01632 0.11376 0.0
S362 S 0.8701 0.0374 0.86393 0.0
N363 N 0.86492 0.03048 0.99758 0.0
N364 N 0.91083 0.03621 0.84493 0.0
C365 C 0.92241 0.03004 0.9498 0.0
C366 C 0.89712 1.02709 0.03384 0.0
C367 C 0.53723 0.90505 0.11719 0.0
C368 C 0.56613 0.90099 0.18538 0.0
C369 C 0.53479 0.9308 0.03602 0.0
C370 C 0.56093 0.95404 0.01988 0.0
H371 H 0.51579 0.88906 0.1295 0.0
H372 H 0.51166 0.93323 0.9882 0.0
S373 S 0.64385 0.9516 0.16423 0.0
N374 N 0.62308 0.92036 0.21998 0.0
N375 N 0.61786 0.96891 0.07252 0.0
C376 C 0.5904 0.94933 0.08404 0.0
C377 C 0.59315 0.92287 0.16493 0.0
C378 C 0.68099 0.53523 0.06259 0.0
C379 C 0.67461 0.54796 0.16879 0.0
C380 C 0.65518 0.53142 0.98147 0.0
C381 C 0.62159 0.54016 1.0021 0.0
H382 H 0.7064 0.5295 0.04013 0.0
H383 H 0.66194 0.5223 0.90054 0.0
S384 S 0.59068 0.57013 0.27261 0.0
N385 N 0.6314 0.56607 0.29377 0.0
N386 N 0.5833 0.55914 0.1424 0.0
C387 C 0.61465 0.55141 0.10993 0.0
C388 C 0.64094 0.55523 0.19257 0.0
C389 C 1.02587 0.66829 0.05572 0.0
C390 C 1.01974 0.66113 0.16825 0.0
C391 C 0.0304 0.64252 0.97644 0.0
C392 C 1.02942 0.60818 1.00558 0.0
H393 H 1.0261 0.69404 0.02765 0.0
H394 H 0.0345 0.64967 0.8912 0.0
S395 S 1.0158 0.57556 0.29009 0.0
N396 N 1.01457 0.61654 0.30457 0.0
N397 N 1.02261 0.56895 0.15759 0.0
C398 C 1.02419 0.60079 0.1184 0.0
C399 C 1.0195 0.62689 0.1987 0.0
C400 C 0.96369 0.23203 0.36703 0.0
C401 C 0.95504 0.23901 0.25607 0.0
C402 C 0.94662 0.20732 0.42524 0.0
C403 C 0.92042 0.18902 0.37389 0.0
H404 H 0.9866 0.242 0.40348 0.0
H405 H 0.9575 0.19929 0.50373 0.0
S406 S 0.8805 0.20801 0.10073 0.0
N407 N 0.91329 0.23309 0.10821 0.0
N408 N 0.88019 0.18739 0.21969 0.0
C409 C 0.90738 0.20097 0.27194 0.0
C410 C 0.92511 0.22576 0.21199 0.0
C411 C 0.33676 0.06261 0.42171 0.0
C412 C 0.34558 0.08992 0.35356 0.0
C413 C 0.36163 0.04282 0.47136 0.0
C414 C 0.39531 0.05158 0.46134 0.0
H415 H 0.31177 0.05223 0.41857 0.0
H416 H 0.35462 1.01884 0.50574 0.0
S417 S 0.42751 0.13234 0.35826 0.0
N418 N 0.38716 0.13313 0.32611 0.0
N419 N 0.43442 0.09653 0.42348 0.0
C420 C 0.40297 0.08378 0.42264 0.0
C421 C 0.37751 0.10364 0.3713 0.0
C422 C 0.62445 0.33672 0.39295 0.0
C423 C 0.63274 0.32965 0.28296 0.0
C424 C 0.64124 0.36184 0.45204 0.0
C425 C 0.66679 0.38062 0.40283 0.0
H426 H 0.60193 0.32647 0.42791 0.0
H427 H 0.63056 0.36969 0.52928 0.0
S428 S 0.70641 0.36168 0.13562 0.0
N429 N 0.67429 0.33579 0.14056 0.0
N430 N 0.70639 0.38287 0.25306 0.0
C431 C 0.67964 0.36884 0.30269 0.0
C432 C 0.66238 0.34334 0.24208 0.0
C433 C 0.2353 0.6333 0.26236 0.0
C434 C 0.24886 0.60284 0.3006 0.0
C435 C 0.21014 0.64931 0.32095 0.0
C436 C 0.19773 0.635 0.41843 0.0
H437 H 0.24089 0.64228 0.17994 0.0
H438 H 0.19732 0.67033 0.28221 0.0
S439 S 0.23205 0.56058 0.56653 0.0
N440 N 0.25398 0.56328 0.45255 0.0
N441 N 0.20622 0.59274 0.56231 0.0
C442 C 0.21527 0.60781 0.46641 0.0
C443 C 0.24108 0.59178 0.40712 0.0
C444 C 0.14004 0.84224 0.27847 0.0
C445 C 0.11488 0.81948 0.24499 0.0
C446 C 0.15189 0.86614 0.20395 0.0
C447 C 0.13972 0.86687 0.09367 0.0
H448 H 0.14647 0.84512 0.36572 0.0
H449 H 0.16649 0.88678 0.2371 0.0
S450 S 0.08804 0.80222 0.9538 0.0
N451 N 0.08786 0.79191 0.08649 0.0
N452 N 0.11236 0.83543 0.94574 0.0
C453 C 0.12191 0.83898 0.05402 0.0
C454 C 0.10887 0.81536 0.13022 0.0
C455 C 0.7369 0.14922 0.28278 0.0
C456 C 0.74986 0.11924 0.24095 0.0
C457 C 0.71191 0.16673 0.22362 0.0
C458 C 0.69849 0.15395 0.12329 0.0
H459 H 0.74278 0.15658 0.36742 0.0
H460 H 0.69956 0.18722 0.26464 0.0
S461 S 0.73292 0.08289 0.9638 0.0
N462 N 0.75497 0.08324 0.08101 0.0
N463 N 0.70707 0.11486 0.97161 0.0
C464 C 0.71616 0.12793 0.07168 0.0
C465 C 0.74211 0.11069 0.13084 0.0
C466 C 0.47489 0.74295 0.12713 0.0
C467 C 0.46893 0.74008 0.24113 0.0
C468 C 0.46119 0.7197 0.05242 0.0
C469 C 0.44231 0.69242 0.09081 0.0
H470 H 0.49379 0.75997 0.09754 0.0
H471 H 0.4697 0.72009 0.96774 0.0
S472 S 0.40826 0.68347 0.37292 0.0
N473 N 0.43316 0.71632 0.3811 0.0
N474 N 0.40967 0.67067 0.24305 0.0
C475 C 0.43049 0.69386 0.19961 0.0
C476 C 0.44342 0.71834 0.27456 0.0
C477 C 0.84481 0.46753 0.12802 0.0
C478 C 0.83685 0.45493 0.23297 0.0
C479 C 0.86981 0.45255 0.0659 0.0
C480 C 0.88751 0.42448 0.10699 0.0
H481 H 0.83502 0.49149 0.10043 0.0
H482 H 0.8781 0.46573 0.99288 0.0
S483 S 0.86752 0.3758 0.35881 0.0
N484 N 0.84224 0.40842 0.36199 0.0
N485 N 0.88884 0.37968 0.24376 0.0
C486 C 0.87546 0.40841 0.20193 0.0
C487 C 0.85016 0.42382 0.26549 0.0
C488 C 0.05692 0.17856 1.00119 0.0
C489 C 0.03225 0.20215 0.96922 0.0
C490 C 0.05974 0.14711 0.94727 0.0
C491 C 0.03793 0.13736 0.85864 0.0
H492 H 0.07301 0.18364 0.07263 0.0
H493 H 0.07857 0.1298 0.97829 0.0
S494 S 0.96881 0.19016 0.7437 0.0
N495 N 0.98576 0.21341 0.84274 0.0
N496 N 0.99091 0.15532 0.74166 0.0
C497 C 1.01384 0.16133 0.82402 0.0
C498 C 1.01102 0.19321 0.87908 0.0
C499 C 0.40318 0.0333 0.05541 0.0
C500 C 0.37583 0.04899 0.99934 0.0
C501 C 0.43537 0.03069 1.00876 0.0
C502 C 0.44241 0.04314 0.90194 0.0
H503 H 0.40015 1.02455 0.13972 0.0
H504 H 0.45522 1.01929 0.0584 0.0
S505 S 0.38061 0.08746 0.7195 0.0
N506 N 0.35896 0.07799 0.83039 0.0
N507 N 0.41853 0.07203 0.74136 0.0
C508 C 0.41512 0.05792 0.843 0.0
C509 C 0.38233 0.06112 0.89171 0.0
C510 C 0.52896 0.38596 1.00386 0.0
C511 C 0.55552 0.36402 0.9815 0.0
C512 C 0.5251 0.41692 0.9472 0.0
C513 C 0.5475 0.42752 0.86473 0.0
H514 H 0.5122 0.38015 0.07049 0.0
H515 H 0.50493 0.43321 0.97131 0.0
S516 S 0.6203 0.37824 0.77112 0.0
N517 N 0.60367 0.35451 0.86748 0.0
N518 N 0.59649 0.41187 0.76117 0.0
C519 C 0.57318 0.40491 0.83804 0.0
C520 C 0.57715 0.37357 0.89617 0.0
C521 C 0.19205 0.50525 0.99505 0.0
C522 C 0.21219 0.53399 0.98453 0.0
C523 C 0.16005 0.50287 0.94172 0.0
C524 C 0.14642 0.52929 0.87626 0.0
H525 H 0.20018 0.48526 0.05012 0.0
H526 H 0.14532 0.48062 0.95587 0.0
S527 S 0.1895 0.61006 0.82332 0.0
N528 N 0.21641 0.58896 0.90184 0.0
N529 N 0.15711 0.58506 0.80377 0.0
C530 C 0.16709 0.55763 0.8624 0.0
C531 C 0.19956 0.5598 0.91574 0.0
C532 C 0.05626 0.87388 0.60588 0.0
C533 C 0.03563 0.86325 0.51593 0.0
C534 C 0.05342 0.9061 0.65319 0.0
C535 C 0.03002 0.9299 0.61246 0.0
H536 H 0.07604 0.85759 0.63667 0.0
H537 H 0.07076 0.91276 0.71982 0.0
S538 S 0.96908 0.9145 0.3799 0.0
N539 N 0.99023 0.87911 0.39024 0.0
N540 N 0.98457 0.9392 0.47789 0.0
C541 C 1.00829 0.91907 0.52512 0.0
C542 C 1.01118 0.88608 0.47734 0.0
C543 C 0.69058 1.0155 0.52732 0.0
C544 C 0.71102 0.04428 0.53685 0.0
C545 C 0.65978 1.01248 0.58457 0.0
C546 C 0.64758 0.03804 0.65463 0.0
H547 H 0.69751 0.99585 0.47074 0.0
H548 H 0.64492 0.99018 0.57105 0.0
S549 S 0.69126 0.11882 0.70714 0.0
N550 N 0.7165 0.09857 0.62456 0.0
N551 N 0.65958 0.09337 0.72817 0.0
C552 C 0.66836 0.06648 0.6667 0.0
C553 C 0.69957 0.06941 0.60933 0.0
C554 C 0.52551 0.69005 0.61629 0.0
C555 C 0.54761 0.70139 0.53455 0.0
C556 C 0.52836 0.6579 0.66474 0.0
C557 C 0.55335 0.63505 0.63356 0.0
H558 H 0.5045 0.70555 0.63844 0.0
H559 H 0.50983 0.65049 0.72411 0.0
S560 S 0.61853 0.65274 0.42577 0.0
N561 N 0.59605 0.68736 0.42729 0.0
N562 N 0.60187 0.62741 0.51783 0.0
C563 C 0.57662 0.6467 0.55541 0.0
C564 C 0.57363 0.67957 0.50617 0.0
C565 C 0.88332 0.50287 0.63023 0.0
C566 C 0.87175 0.52479 0.54556 0.0
C567 C 0.9153 0.50652 0.68152 0.0
C568 C 0.93768 0.53176 0.64847 0.0
H569 H 0.86813 0.48164 0.65313 0.0
H570 H 0.9232 0.48821 0.7431 0.0
S571 S 0.91909 0.59665 0.43396 0.0
N572 N 0.88487 0.57356 0.43513 0.0
N573 N 0.94467 0.58031 0.52899 0.0
C574 C 0.92582 0.55462 0.5669 0.0
C575 C 0.89307 0.55118 0.51627 0.0
loop_
_geom_bond_atom_site_label_1
_geom_bond_atom_site_label_2
_geom_bond_distance
_geom_bond_site_symmetry_2
_ccdc_geom_bond_type
H0 C1 0.949 . S
C1 H0 0.949 . S
C1 C2 1.395 . S
C1 C3 1.391 . S
C2 C1 1.395 . S
C2 C5 1.390 . S
C3 C1 1.391 . S
C3 C7 1.387 . S
C3 C8 1.491 . S
H4 C5 0.950 . S
C5 C2 1.390 . S
C5 H4 0.950 . S
C5 C6 1.378 . S
C6 C5 1.378 . S
C6 C7 1.409 . S
C7 C3 1.387 . S
C7 C6 1.409 . S
C7 H9 0.951 . S
C8 C3 1.491 . S
C8 C10 1.382 . S
C8 C12 1.404 . S
H9 C7 0.951 . S
C10 C8 1.382 . S
C10 C11 1.390 . S
C10 H15 0.949 . S
C11 C10 1.390 . S
C11 C16 1.399 . S
C12 C8 1.404 . S
C12 H13 0.950 . S
C12 C14 1.375 . S
H13 C12 0.950 . S
C14 C12 1.375 . S
C14 C16 1.382 . S
C14 H18 0.950 . S
H15 C10 0.949 . S
C16 C11 1.399 . S
C16 C14 1.382 . S
C16 H17 0.952 . S
H17 C16 0.952 . S
H18 C14 0.950 . S
H19 C20 0.949 . S
C20 H19 0.949 . S
C20 C21 1.395 . S
C20 C22 1.391 . S
C21 C20 1.395 . S
C21 C24 1.390 . S
C22 C20 1.391 . S
C22 C26 1.387 . S
C22 C27 1.491 . S
H23 C24 0.950 . S
C24 C21 1.390 . S
C24 H23 0.950 . S
C24 C25 1.378 . S
C25 C24 1.378 . S
C25 C26 1.409 . S
C26 C22 1.387 . S
C26 C25 1.409 . S
C26 H28 0.951 . S
C27 C22 1.491 . S
C27 C29 1.382 . S
C27 C31 1.404 . S
H28 C26 0.951 . S
C29 C27 1.382 . S
C29 C30 1.390 . S
C29 H34 0.949 . S
C30 C29 1.390 . S
C30 C35 1.399 . S
C31 C27 1.404 . S
C31 H32 0.950 . S
C31 C33 1.375 . S
H32 C31 0.950 . S
C33 C31 1.375 . S
C33 C35 1.382 . S
C33 H37 0.950 . S
H34 C29 0.949 . S
C35 C30 1.399 . S
C35 C33 1.382 . S
C35 H36 0.952 . S
H36 C35 0.952 . S
H37 C33 0.950 . S
H38 C39 0.949 . S
C39 H38 0.949 . S
C39 C40 1.395 . S
C39 C41 1.391 . S
C40 C39 1.395 . S
C40 C43 1.390 . S
C41 C39 1.391 . S
C41 C45 1.387 . S
C41 C46 1.491 . S
H42 C43 0.950 . S
C43 C40 1.390 . S
C43 H42 0.950 . S
C43 C44 1.378 . S
C44 C43 1.378 . S
C44 C45 1.409 . S
C45 C41 1.387 . S
C45 C44 1.409 . S
C45 H47 0.951 . S
C46 C41 1.491 . S
C46 C48 1.382 . S
C46 C50 1.404 . S
H47 C45 0.951 . S
C48 C46 1.382 . S
C48 C49 1.390 . S
C48 H53 0.943 1_565 S
C49 C48 1.390 . S
C49 C54 1.399 . S
C50 C46 1.404 . S
C50 H51 0.950 . S
C50 C52 1.375 . S
H51 C50 0.950 . S
C52 C50 1.375 . S
C52 C54 1.382 . S
C52 H56 0.950 . S
H53 C48 0.943 1_545 S
C54 C49 1.399 . S
C54 C52 1.382 . S
C54 H55 0.952 . S
H55 C54 0.952 . S
H56 C52 0.950 . S
H57 C58 0.949 . S
C58 H57 0.949 . S
C58 C59 1.395 . S
C58 C60 1.391 . S
C59 C58 1.395 . S
C59 C62 1.390 . S
C60 C58 1.391 . S
C60 C64 1.387 . S
C60 C65 1.491 . S
H61 C62 0.950 . S
C62 C59 1.390 . S
C62 H61 0.950 . S
C62 C63 1.378 . S
C63 C62 1.378 . S
C63 C64 1.409 . S
C64 C60 1.387 . S
C64 C63 1.409 . S
C64 H66 0.951 . S
C65 C60 1.491 . S
C65 C67 1.382 . S
C65 C69 1.404 . S
H66 C64 0.951 . S
C67 C65 1.382 . S
C67 C68 1.390 . S
C67 H72 0.949 . S
C68 C67 1.390 . S
C68 C73 1.399 . S
C69 C65 1.404 . S
C69 H70 0.950 . S
C69 C71 1.375 . S
H70 C69 0.950 . S
C71 C69 1.375 . S
C71 C73 1.382 . S
C71 H75 0.950 . S
H72 C67 0.949 . S
C73 C68 1.399 . S
C73 C71 1.382 . S
C73 H74 0.952 . S
H74 C73 0.952 . S
H75 C71 0.950 . S
H76 C77 0.949 . S
C77 H76 0.949 . S
C77 C78 1.395 . S
C77 C79 1.391 . S
C78 C77 1.395 . S
C78 C81 1.390 . S
C79 C77 1.391 . S
C79 C83 1.387 1_554 S
C79 C84 1.491 . S
H80 C81 0.950 . S
C81 C78 1.390 . S
C81 H80 0.950 . S
C81 C82 1.378 1_554 S
C82 C81 1.378 1_556 S
C82 C83 1.409 . S
C83 C79 1.387 1_556 S
C83 C82 1.409 . S
C83 H85 0.951 . S
C84 C79 1.491 . S
C84 C86 1.382 . S
C84 C88 1.404 1_554 S
H85 C83 0.951 . S
C86 C84 1.382 . S
C86 C87 1.390 . S
C86 H91 0.949 . S
C87 C86 1.390 . S
C87 C92 1.399 . S
C88 C84 1.404 1_556 S
C88 H89 0.950 . S
C88 C90 1.375 1_556 S
H89 C88 0.950 . S
C90 C88 1.375 1_554 S
C90 C92 1.382 . S
C90 H94 0.950 1_554 S
H91 C86 0.949 . S
C92 C87 1.399 . S
C92 C90 1.382 . S
C92 H93 0.952 . S
H93 C92 0.952 . S
H94 C90 0.950 1_556 S
H95 C96 0.949 . S
C96 H95 0.949 . S
C96 C97 1.395 . S
C96 C98 1.391 . S
C97 C96 1.395 . S
C97 C100 1.390 . S
C98 C96 1.391 . S
C98 C102 1.387 1_554 S
C98 C103 1.491 . S
H99 C100 0.950 . S
C100 C97 1.390 . S
C100 H99 0.950 . S
C100 C101 1.378 1_554 S
C101 C100 1.378 1_556 S
C101 C102 1.409 . S
C102 C98 1.387 1_556 S
C102 C101 1.409 . S
C102 H104 0.951 . S
C103 C98 1.491 . S
C103 C105 1.382 . S
C103 C107 1.404 1_554 S
H104 C102 0.951 . S
C105 C103 1.382 . S
C105 C106 1.390 . S
C105 H110 0.949 . S
C106 C105 1.390 . S
C106 C111 1.399 . S
C107 C103 1.404 1_556 S
C107 H108 0.950 . S
C107 C109 1.375 . S
H108 C107 0.950 . S
C109 C107 1.375 . S
C109 C111 1.382 1_556 S
C109 H113 0.950 1_455 S
H110 C105 0.949 . S
C111 C106 1.399 . S
C111 C109 1.382 1_554 S
C111 H112 0.952 . S
H112 C111 0.952 . S
H113 C109 0.950 1_655 S
H114 C115 0.949 . S
C115 H114 0.949 . S
C115 C116 1.395 . S
C115 C117 1.391 1_554 S
C116 C115 1.395 . S
C116 C119 1.390 1_554 S
C117 C115 1.391 1_556 S
C117 C121 1.387 . S
C117 C122 1.491 . S
H118 C119 0.950 . S
C119 C116 1.390 1_556 S
C119 H118 0.950 . S
C119 C120 1.378 . S
C120 C119 1.378 . S
C120 C121 1.409 . S
C121 C117 1.387 . S
C121 C120 1.409 . S
C121 H123 0.951 . S
C122 C117 1.491 . S
C122 C124 1.382 1_556 S
C122 C126 1.404 1_545 S
H123 C121 0.951 . S
C124 C122 1.382 1_554 S
C124 C125 1.390 . S
C124 H129 0.949 . S
C125 C124 1.390 . S
C125 C130 1.399 1_554 S
C126 C122 1.404 1_565 S
C126 H127 0.950 . S
C126 C128 1.375 . S
H127 C126 0.950 . S
C128 C126 1.375 . S
C128 C130 1.382 1_565 S
C128 H132 0.950 . S
H129 C124 0.949 . S
C130 C125 1.399 1_556 S
C130 C128 1.382 1_545 S
C130 H131 0.951 1_556 S
H131 C130 0.951 1_554 S
H132 C128 0.950 . S
H133 C134 0.949 . S
C134 H133 0.949 . S
C134 C135 1.395 . S
C134 C136 1.391 . S
C135 C134 1.395 . S
C135 C138 1.390 . S
C136 C134 1.391 . S
C136 C140 1.387 1_554 S
C136 C141 1.491 . S
H137 C138 0.950 . S
C138 C135 1.390 . S
C138 H137 0.950 . S
C138 C139 1.378 1_554 S
C139 C138 1.378 1_556 S
C139 C140 1.409 . S
C140 C136 1.387 1_556 S
C140 C139 1.409 . S
C140 H142 0.951 . S
C141 C136 1.491 . S
C141 C143 1.382 . S
C141 C145 1.404 1_554 S
H142 C140 0.951 . S
C143 C141 1.382 . S
C143 C144 1.390 . S
C143 H148 0.949 . S
C144 C143 1.390 . S
C144 C149 1.399 . S
C145 C141 1.404 1_556 S
C145 H146 0.950 . S
C145 C147 1.375 1_556 S
H146 C145 0.950 . S
C147 C145 1.375 1_554 S
C147 C149 1.382 . S
C147 H151 0.950 1_554 S
H148 C143 0.949 . S
C149 C144 1.399 . S
C149 C147 1.382 . S
C149 H150 0.952 . S
H150 C149 0.952 . S
H151 C147 0.950 1_556 S
Eu152 C161 2.828 . S
Eu152 O163 2.392 . S
Eu152 O165 2.418 1_545 S
Eu152 O170 2.373 1_655 S
Eu152 O173 2.488 . S
Eu152 O174 2.471 . S
Eu152 O175 2.349 1_655 S
Eu153 O162 2.373 1_455 S
Eu153 O166 2.488 1_556 S
Eu153 O167 2.471 . S
Eu153 O168 2.349 . S
Eu153 O171 2.392 1_565 S
Eu153 O172 2.418 1_565 S
Eu153 C182 2.828 1_556 S
C154 O172 1.244 . S
C154 O175 1.265 . S
C155 C156 1.379 1_655 S
C155 C159 1.373 . S
C155 C161 1.505 . S
C156 C155 1.379 1_455 S
C156 C158 1.369 . S
C156 H184 0.930 . S
C157 C159 1.383 . S
C157 C160 1.382 1_655 S
C157 H185 0.930 . S
C158 C156 1.369 . S
C158 C160 1.392 . S
C158 H186 0.930 . S
C159 C155 1.373 . S
C159 C157 1.383 . S
C159 H187 0.931 . S
C160 C157 1.382 1_455 S
C160 C158 1.392 . S
C161 Eu152 2.828 . S
C161 C155 1.505 . S
C161 O173 1.249 . S
C161 O174 1.244 . S
O162 Eu153 2.373 1_655 S
O162 C164 1.258 1_565 S
O163 Eu152 2.392 . S
O163 C164 1.242 . S
C164 O162 1.258 1_545 S
C164 O163 1.242 . S
O165 Eu152 2.418 1_565 S
O165 C169 1.244 . S
O166 Eu153 2.488 1_554 S
O166 C182 1.249 . S
O167 Eu153 2.471 . S
O167 C182 1.244 1_556 S
O168 Eu153 2.349 . S
O168 C169 1.265 1_455 S
C169 O165 1.244 . S
C169 O168 1.265 1_655 S
O170 Eu152 2.373 1_455 S
O170 C183 1.258 . S
O171 Eu153 2.392 1_545 S
O171 C183 1.242 . S
O172 Eu153 2.418 1_545 S
O172 C154 1.244 . S
O173 Eu152 2.488 . S
O173 C161 1.249 . S
O174 Eu152 2.471 . S
O174 C161 1.244 . S
O175 Eu152 2.349 1_455 S
O175 C154 1.265 . S
C176 C177 1.379 . S
C176 C180 1.373 . S
C176 C182 1.505 . S
C177 C176 1.379 . S
C177 C179 1.369 . S
C177 H188 0.930 1_455 S
C178 C180 1.383 . S
C178 C181 1.382 . S
C178 H189 0.930 . S
C179 C177 1.369 . S
C179 C181 1.392 . S
C179 H190 0.930 1_455 S
C180 C176 1.373 . S
C180 C178 1.383 . S
C180 H191 0.931 . S
C181 C178 1.382 . S
C181 C179 1.392 . S
C182 Eu153 2.828 1_554 S
C182 O166 1.249 . S
C182 O167 1.244 1_554 S
C182 C176 1.505 . S
C183 O170 1.258 . S
C183 O171 1.242 . S
H184 C156 0.930 . S
H185 C157 0.930 . S
H186 C158 0.930 . S
H187 C159 0.931 . S
H188 C177 0.930 1_655 S
H189 C178 0.930 . S
H190 C179 0.930 1_655 S
H191 C180 0.931 . S
Eu192 C201 2.828 . S
Eu192 O203 2.392 . S
Eu192 O205 2.418 . S
Eu192 O210 2.373 . S
Eu192 O213 2.488 . S
Eu192 O214 2.471 . S
Eu192 O215 2.349 1_545 S
Eu193 O202 2.373 1_565 S
Eu193 O206 2.488 . S
Eu193 O207 2.471 1_565 S
Eu193 O208 2.349 1_565 S
Eu193 O211 2.392 . S
Eu193 O212 2.418 . S
Eu193 C222 2.828 . S
C194 O212 1.244 . S
C194 O215 1.265 . S
C195 C196 1.379 . S
C195 C199 1.373 . S
C195 C201 1.505 1_554 S
C196 C195 1.379 . S
C196 C198 1.369 . S
C196 H224 0.930 1_545 S
C197 C199 1.383 . S
C197 C200 1.382 . S
C197 H225 0.930 . S
C198 C196 1.369 . S
C198 C200 1.392 . S
C198 H226 0.930 1_545 S
C199 C195 1.373 . S
C199 C197 1.383 . S
C199 H227 0.931 . S
C200 C197 1.382 . S
C200 C198 1.392 . S
C201 Eu192 2.828 . S
C201 C195 1.505 1_556 S
C201 O213 1.249 . S
C201 O214 1.244 . S
O202 Eu193 2.373 1_545 S
O202 C204 1.258 . S
O203 Eu192 2.392 . S
O203 C204 1.242 . S
C204 O202 1.258 . S
C204 O203 1.242 . S
O205 Eu192 2.418 . S
O205 C209 1.244 . S
O206 Eu193 2.488 . S
O206 C222 1.249 . S
O207 Eu193 2.471 1_545 S
O207 C222 1.244 1_545 S
O208 Eu193 2.349 1_545 S
O208 C209 1.265 . S
C209 O205 1.244 . S
C209 O208 1.265 . S
O210 Eu192 2.373 . S
O210 C223 1.258 1_545 S
O211 Eu193 2.392 . S
O211 C223 1.242 . S
O212 Eu193 2.418 . S
O212 C194 1.244 . S
O213 Eu192 2.488 . S
O213 C201 1.249 . S
O214 Eu192 2.471 . S
O214 C201 1.244 . S
O215 Eu192 2.349 1_565 S
O215 C194 1.265 . S
C216 C217 1.379 1_565 S
C216 C220 1.373 . S
C216 C222 1.505 . S
C217 C216 1.379 1_545 S
C217 C219 1.369 . S
C217 H228 0.930 . S
C218 C220 1.383 . S
C218 C221 1.382 . S
C218 H229 0.930 . S
C219 C217 1.369 . S
C219 C221 1.392 1_545 S
C219 H230 0.930 . S
C220 C216 1.373 . S
C220 C218 1.383 . S
C220 H231 0.931 . S
C221 C218 1.382 . S
C221 C219 1.392 1_565 S
C222 Eu193 2.828 . S
C222 O206 1.249 . S
C222 O207 1.244 1_565 S
C222 C216 1.505 . S
C223 O210 1.258 1_565 S
C223 O211 1.242 . S
H224 C196 0.930 1_565 S
H225 C197 0.930 . S
H226 C198 0.930 1_565 S
H227 C199 0.931 . S
H228 C217 0.930 . S
H229 C218 0.930 . S
H230 C219 0.930 . S
H231 C220 0.931 . S
Eu232 C241 2.828 . S
Eu232 O243 2.392 . S
Eu232 O245 2.418 . S
Eu232 O250 2.373 . S
Eu232 O253 2.488 . S
Eu232 O254 2.471 . S
Eu232 O255 2.349 . S
Eu233 O242 2.373 . S
Eu233 O246 2.488 . S
Eu233 O247 2.471 . S
Eu233 O248 2.349 . S
Eu233 O251 2.392 . S
Eu233 O252 2.418 . S
Eu233 C262 2.828 . S
C234 O252 1.244 . S
C234 O255 1.265 . S
C235 C236 1.379 . S
C235 C239 1.373 . S
C235 C241 1.505 1_554 S
C236 C235 1.379 . S
C236 C238 1.369 . S
C236 H264 0.930 . S
C237 C239 1.383 . S
C237 C240 1.382 . S
C237 H265 0.930 . S
C238 C236 1.369 . S
C238 C240 1.392 . S
C238 H266 0.930 . S
C239 C235 1.373 . S
C239 C237 1.383 . S
C239 H267 0.931 . S
C240 C237 1.382 . S
C240 C238 1.392 . S
C241 Eu232 2.828 . S
C241 C235 1.505 1_556 S
C241 O253 1.249 . S
C241 O254 1.244 . S
O242 Eu233 2.373 . S
O242 C244 1.258 . S
O243 Eu232 2.392 . S
O243 C244 1.242 . S
C244 O242 1.258 . S
C244 O243 1.242 . S
O245 Eu232 2.418 . S
O245 C249 1.244 . S
O246 Eu233 2.488 . S
O246 C262 1.249 . S
O247 Eu233 2.471 . S
O247 C262 1.244 . S
O248 Eu233 2.349 . S
O248 C249 1.265 . S
C249 O245 1.244 . S
C249 O248 1.265 . S
O250 Eu232 2.373 . S
O250 C263 1.258 . S
O251 Eu233 2.392 . S
O251 C263 1.242 . S
O252 Eu233 2.418 . S
O252 C234 1.244 . S
O253 Eu232 2.488 . S
O253 C241 1.249 . S
O254 Eu232 2.471 . S
O254 C241 1.244 . S
O255 Eu232 2.349 . S
O255 C234 1.265 . S
C256 C257 1.379 . S
C256 C260 1.373 . S
C256 C262 1.505 . S
C257 C256 1.379 . S
C257 C259 1.369 . S
C257 H268 0.930 . S
C258 C260 1.383 . S
C258 C261 1.382 . S
C258 H269 0.930 . S
C259 C257 1.369 . S
C259 C261 1.392 . S
C259 H270 0.930 . S
C260 C256 1.373 . S
C260 C258 1.383 . S
C260 H271 0.931 . S
C261 C258 1.382 . S
C261 C259 1.392 . S
C262 Eu233 2.828 . S
C262 O246 1.249 . S
C262 O247 1.244 . S
C262 C256 1.505 . S
C263 O250 1.258 . S
C263 O251 1.242 . S
H264 C236 0.930 . S
H265 C237 0.930 . S
H266 C238 0.930 . S
H267 C239 0.931 . S
H268 C257 0.930 . S
H269 C258 0.930 . S
H270 C259 0.930 . S
H271 C260 0.931 . S
Eu272 C281 2.828 . S
Eu272 O283 2.392 . S
Eu272 O285 2.418 1_455 S
Eu272 O290 2.373 . S
Eu272 O293 2.488 . S
Eu272 O294 2.471 . S
Eu272 O295 2.349 . S
Eu273 O282 2.373 . S
Eu273 O286 2.488 1_556 S
Eu273 O287 2.471 . S
Eu273 O288 2.349 . S
Eu273 O291 2.392 1_655 S
Eu273 O292 2.418 1_655 S
Eu273 C302 2.828 1_556 S
C274 O292 1.244 . S
C274 O295 1.265 . S
C275 C276 1.379 . S
C275 C279 1.373 . S
C275 C281 1.505 . S
C276 C275 1.379 . S
C276 C278 1.369 . S
C276 H304 0.930 . S
C277 C279 1.383 . S
C277 C280 1.382 . S
C277 H305 0.930 . S
C278 C276 1.369 . S
C278 C280 1.392 . S
C278 H306 0.930 . S
C279 C275 1.373 . S
C279 C277 1.383 . S
C279 H307 0.931 . S
C280 C277 1.382 . S
C280 C278 1.392 . S
C281 Eu272 2.828 . S
C281 C275 1.505 . S
C281 O293 1.249 . S
C281 O294 1.244 . S
O282 Eu273 2.373 . S
O282 C284 1.258 1_655 S
O283 Eu272 2.392 . S
O283 C284 1.242 . S
C284 O282 1.258 1_455 S
C284 O283 1.242 . S
O285 Eu272 2.418 1_655 S
O285 C289 1.244 . S
O286 Eu273 2.488 1_554 S
O286 C302 1.249 . S
O287 Eu273 2.471 . S
O287 C302 1.244 1_556 S
O288 Eu273 2.349 . S
O288 C289 1.265 . S
C289 O285 1.244 . S
C289 O288 1.265 . S
O290 Eu272 2.373 . S
O290 C303 1.258 . S
O291 Eu273 2.392 1_455 S
O291 C303 1.242 . S
O292 Eu273 2.418 1_455 S
O292 C274 1.244 . S
O293 Eu272 2.488 . S
O293 C281 1.249 . S
O294 Eu272 2.471 . S
O294 C281 1.244 . S
O295 Eu272 2.349 . S
O295 C274 1.265 . S
C296 C297 1.379 . S
C296 C300 1.373 . S
C296 C302 1.505 . S
C297 C296 1.379 . S
C297 C299 1.369 . S
C297 H308 0.930 . S
C298 C300 1.383 . S
C298 C301 1.382 . S
C298 H309 0.930 . S
C299 C297 1.369 . S
C299 C301 1.392 . S
C299 H310 0.930 . S
C300 C296 1.373 . S
C300 C298 1.383 . S
C300 H311 0.931 . S
C301 C298 1.382 . S
C301 C299 1.392 . S
C302 Eu273 2.828 1_554 S
C302 O286 1.249 . S
C302 O287 1.244 1_554 S
C302 C296 1.505 . S
C303 O290 1.258 . S
C303 O291 1.242 . S
H304 C276 0.930 . S
H305 C277 0.930 . S
H306 C278 0.930 . S
H307 C279 0.931 . S
H308 C297 0.930 . S
H309 C298 0.930 . S
H310 C299 0.930 . S
H311 C300 0.931 . S
C312 C313 1.369 . S
C312 C314 1.419 . S
C312 H316 0.930 . S
C313 C312 1.369 . S
C313 C322 1.429 . S
C314 C312 1.419 . S
C314 C315 1.363 . S
C314 H317 0.929 . S
C315 C314 1.363 . S
C315 C321 1.428 . S
H316 C312 0.930 . S
H317 C314 0.929 . S
S318 N319 1.613 . S
S318 N320 1.610 . S
N319 S318 1.613 . S
N319 C322 1.350 1_565 S
N320 S318 1.610 . S
N320 C321 1.351 1_565 S
C321 C315 1.428 . S
C321 N320 1.351 1_545 S
C321 C322 1.434 . S
C322 C313 1.429 . S
C322 N319 1.350 1_545 S
C322 C321 1.434 . S
C323 C324 1.369 . S
C323 C325 1.419 . S
C323 H327 0.930 . S
C324 C323 1.369 . S
C324 C333 1.429 . S
C325 C323 1.419 . S
C325 C326 1.363 . S
C325 H328 0.929 . S
C326 C325 1.363 . S
C326 C332 1.428 . S
H327 C323 0.930 . S
H328 C325 0.929 . S
S329 N330 1.613 . S
S329 N331 1.610 . S
N330 S329 1.613 . S
N330 C333 1.350 . S
N331 S329 1.610 . S
N331 C332 1.351 . S
C332 C326 1.428 . S
C332 N331 1.351 . S
C332 C333 1.434 . S
C333 C324 1.429 . S
C333 N330 1.350 . S
C333 C332 1.434 . S
C334 C335 1.369 . S
C334 C336 1.419 . S
C334 H338 0.930 . S
C335 C334 1.369 . S
C335 C344 1.429 . S
C336 C334 1.419 . S
C336 C337 1.363 . S
C336 H339 0.929 . S
C337 C336 1.363 . S
C337 C343 1.428 . S
H338 C334 0.930 . S
H339 C336 0.929 . S
S340 N341 1.613 . S
S340 N342 1.610 . S
N341 S340 1.613 . S
N341 C344 1.350 . S
N342 S340 1.610 . S
N342 C343 1.351 . S
C343 C337 1.428 . S
C343 N342 1.351 . S
C343 C344 1.434 . S
C344 C335 1.429 . S
C344 N341 1.350 . S
C344 C343 1.434 . S
C345 C346 1.369 . S
C345 C347 1.419 . S
C345 H349 0.930 . S
C346 C345 1.369 . S
C346 C355 1.429 . S
C347 C345 1.419 . S
C347 C348 1.363 . S
C347 H350 0.929 . S
C348 C347 1.363 . S
C348 C354 1.428 . S
H349 C345 0.930 . S
H350 C347 0.929 . S
S351 N352 1.613 . S
S351 N353 1.610 . S
N352 S351 1.613 . S
N352 C355 1.350 . S
N353 S351 1.610 . S
N353 C354 1.351 . S
C354 C348 1.428 . S
C354 N353 1.351 . S
C354 C355 1.434 . S
C355 C346 1.429 . S
C355 N352 1.350 . S
C355 C354 1.434 . S
C356 C357 1.359 1_545 S
C356 C358 1.421 . S
C356 H360 0.940 . S
C357 C356 1.359 1_565 S
C357 C366 1.429 . S
C358 C356 1.421 . S
C358 C359 1.363 1_545 S
C358 H361 0.929 . S
C359 C358 1.363 1_565 S
C359 C365 1.428 . S
H360 C356 0.940 . S
H361 C358 0.929 . S
S362 N363 1.613 . S
S362 N364 1.610 1_554 S
N363 S362 1.613 . S
N363 C366 1.350 . S
N364 S362 1.610 1_556 S
N364 C365 1.351 1_556 S
C365 C359 1.428 . S
C365 N364 1.351 1_554 S
C365 C366 1.434 . S
C366 C357 1.429 . S
C366 N363 1.350 . S
C366 C365 1.434 . S
C367 C368 1.369 . S
C367 C369 1.419 . S
C367 H371 0.930 . S
C368 C367 1.369 . S
C368 C377 1.429 . S
C369 C367 1.419 . S
C369 C370 1.363 1_554 S
C369 H372 0.929 1_554 S
C370 C369 1.363 1_556 S
C370 C376 1.428 1_556 S
H371 C367 0.930 . S
H372 C369 0.929 1_556 S
S373 N374 1.613 . S
S373 N375 1.610 . S
N374 S373 1.613 . S
N374 C377 1.350 . S
N375 S373 1.610 . S
N375 C376 1.351 . S
C376 C370 1.428 1_554 S
C376 N375 1.351 . S
C376 C377 1.434 . S
C377 C368 1.429 . S
C377 N374 1.350 . S
C377 C376 1.434 . S
C378 C379 1.369 . S
C378 C380 1.419 1_554 S
C378 H382 0.930 . S
C379 C378 1.369 . S
C379 C388 1.429 . S
C380 C378 1.419 1_556 S
C380 C381 1.363 . S
C380 H383 0.929 . S
C381 C380 1.363 . S
C381 C387 1.428 1_556 S
H382 C378 0.930 . S
H383 C380 0.929 . S
S384 N385 1.613 . S
S384 N386 1.610 . S
N385 S384 1.613 . S
N385 C388 1.350 . S
N386 S384 1.610 . S
N386 C387 1.351 . S
C387 C381 1.428 1_554 S
C387 N386 1.351 . S
C387 C388 1.434 . S
C388 C379 1.429 . S
C388 N385 1.350 . S
C388 C387 1.434 . S
C389 C390 1.369 . S
C389 C391 1.419 . S
C389 H393 0.930 . S
C390 C389 1.369 . S
C390 C399 1.429 . S
C391 C389 1.419 . S
C391 C392 1.363 . S
C391 H394 0.930 1_554 S
C392 C391 1.363 . S
C392 C398 1.428 . S
H393 C389 0.930 . S
H394 C391 0.930 1_556 S
S395 N396 1.613 . S
S395 N397 1.610 . S
N396 S395 1.613 . S
N396 C399 1.350 . S
N397 S395 1.610 . S
N397 C398 1.351 . S
C398 C392 1.428 . S
C398 N397 1.351 . S
C398 C399 1.434 . S
C399 C390 1.429 . S
C399 N396 1.350 . S
C399 C398 1.434 . S
C400 C401 1.369 . S
C400 C402 1.419 . S
C400 H404 0.930 . S
C401 C400 1.369 . S
C401 C410 1.429 . S
C402 C400 1.419 . S
C402 C403 1.363 . S
C402 H405 0.929 . S
C403 C402 1.363 . S
C403 C409 1.428 . S
H404 C400 0.930 . S
H405 C402 0.929 . S
S406 N407 1.613 1_656 S
S406 N408 1.610 1_556 S
N407 S406 1.613 1_454 S
N407 C410 1.350 . S
N408 S406 1.610 1_554 S
N408 C409 1.351 1_655 S
C409 C403 1.428 . S
C409 N408 1.351 1_455 S
C409 C410 1.434 . S
C410 C401 1.429 . S
C410 N407 1.350 . S
C410 C409 1.434 . S
C411 C412 1.369 . S
C411 C413 1.419 1_545 S
C411 H415 0.930 . S
C412 C411 1.369 . S
C412 C421 1.429 . S
C413 C411 1.419 1_565 S
C413 C414 1.363 . S
C413 H416 0.929 . S
C414 C413 1.363 . S
C414 C420 1.428 1_565 S
H415 C411 0.930 . S
H416 C413 0.929 . S
S417 N418 1.613 . S
S417 N419 1.610 . S
N418 S417 1.613 . S
N418 C421 1.350 . S
N419 S417 1.610 . S
N419 C420 1.351 . S
C420 C414 1.428 1_545 S
C420 N419 1.351 . S
C420 C421 1.434 . S
C421 C412 1.429 . S
C421 N418 1.350 . S
C421 C420 1.434 . S
C422 C423 1.369 . S
C422 C424 1.419 . S
C422 H426 0.930 . S
C423 C422 1.369 . S
C423 C432 1.429 . S
C424 C422 1.419 . S
C424 C425 1.363 . S
C424 H427 0.929 . S
C425 C424 1.363 . S
C425 C431 1.428 . S
H426 C422 0.930 . S
H427 C424 0.929 . S
S428 N429 1.613 . S
S428 N430 1.610 . S
N429 S428 1.613 . S
N429 C432 1.350 . S
N430 S428 1.610 . S
N430 C431 1.351 . S
C431 C425 1.428 . S
C431 N430 1.351 . S
C431 C432 1.434 . S
C432 C423 1.429 . S
C432 N429 1.350 . S
C432 C431 1.434 . S
C433 C434 1.369 . S
C433 C435 1.419 . S
C433 H437 0.930 . S
C434 C433 1.369 . S
C434 C443 1.429 . S
C435 C433 1.419 . S
C435 C436 1.363 . S
C435 H438 0.929 . S
C436 C435 1.363 . S
C436 C442 1.428 . S
H437 C433 0.930 . S
H438 C435 0.929 . S
S439 N440 1.613 . S
S439 N441 1.610 . S
N440 S439 1.613 . S
N440 C443 1.350 . S
N441 S439 1.610 . S
N441 C442 1.351 . S
C442 C436 1.428 . S
C442 N441 1.351 . S
C442 C443 1.434 . S
C443 C434 1.429 . S
C443 N440 1.350 . S
C443 C442 1.434 . S
C444 C445 1.369 1_455 S
C444 C446 1.419 . S
C444 H448 0.930 . S
C445 C444 1.369 1_655 S
C445 C454 1.429 . S
C446 C444 1.419 . S
C446 C447 1.363 . S
C446 H449 0.929 . S
C447 C446 1.363 . S
C447 C453 1.428 1_455 S
H448 C444 0.930 . S
H449 C446 0.929 . S
S450 N451 1.613 . S
S450 N452 1.610 . S
N451 S450 1.613 . S
N451 C454 1.350 . S
N452 S450 1.610 . S
N452 C453 1.351 . S
C453 C447 1.428 1_655 S
C453 N452 1.351 . S
C453 C454 1.434 . S
C454 C445 1.429 . S
C454 N451 1.350 . S
C454 C453 1.434 . S
C455 C456 1.369 1_545 S
C455 C457 1.419 . S
C455 H459 0.930 . S
C456 C455 1.369 1_565 S
C456 C465 1.429 . S
C457 C455 1.419 . S
C457 C458 1.363 . S
C457 H460 0.929 . S
C458 C457 1.363 . S
C458 C464 1.428 1_545 S
H459 C455 0.930 . S
H460 C457 0.929 . S
S461 N462 1.613 . S
S461 N463 1.610 . S
N462 S461 1.613 . S
N462 C465 1.350 . S
N463 S461 1.610 . S
N463 C464 1.351 . S
C464 C458 1.428 1_565 S
C464 N463 1.351 . S
C464 C465 1.434 . S
C465 C456 1.429 . S
C465 N462 1.350 . S
C465 C464 1.434 . S
C466 C467 1.369 . S
C466 C468 1.419 . S
C466 H470 0.930 . S
C467 C466 1.369 . S
C467 C476 1.429 . S
C468 C466 1.419 . S
C468 C469 1.363 . S
C468 H471 0.929 . S
C469 C468 1.363 . S
C469 C475 1.428 . S
H470 C466 0.930 . S
H471 C468 0.929 . S
S472 N473 1.613 . S
S472 N474 1.610 . S
N473 S472 1.613 . S
N473 C476 1.350 . S
N474 S472 1.610 . S
N474 C475 1.351 . S
C475 C469 1.428 . S
C475 N474 1.351 . S
C475 C476 1.434 . S
C476 C467 1.429 . S
C476 N473 1.350 . S
C476 C475 1.434 . S
C477 C478 1.369 . S
C477 C479 1.419 . S
C477 H481 0.930 . S
C478 C477 1.369 . S
C478 C487 1.429 . S
C479 C477 1.419 . S
C479 C480 1.363 . S
C479 H482 0.929 . S
C480 C479 1.363 . S
C480 C486 1.428 . S
H481 C477 0.930 . S
H482 C479 0.929 . S
S483 N484 1.613 . S
S483 N485 1.610 . S
N484 S483 1.613 . S
N484 C487 1.350 . S
N485 S483 1.610 . S
N485 C486 1.351 . S
C486 C480 1.428 . S
C486 N485 1.351 . S
C486 C487 1.434 . S
C487 C478 1.429 . S
C487 N484 1.350 . S
C487 C486 1.434 . S
C488 C489 1.369 . S
C488 C490 1.419 . S
C488 H492 0.930 . S
C489 C488 1.369 . S
C489 C498 1.429 . S
C490 C488 1.419 . S
C490 C491 1.363 . S
C490 H493 0.929 . S
C491 C490 1.363 . S
C491 C497 1.428 . S
H492 C488 0.930 . S
H493 C490 0.929 . S
S494 N495 1.613 . S
S494 N496 1.610 . S
N495 S494 1.613 . S
N495 C498 1.350 1_655 S
N496 S494 1.610 . S
N496 C497 1.351 1_655 S
C497 C491 1.428 . S
C497 N496 1.351 1_455 S
C497 C498 1.434 . S
C498 C489 1.429 . S
C498 N495 1.350 1_455 S
C498 C497 1.434 . S
C499 C500 1.369 . S
C499 C501 1.419 . S
C499 H503 0.930 1_545 S
C500 C499 1.369 . S
C500 C509 1.429 . S
C501 C499 1.419 . S
C501 C502 1.363 . S
C501 H504 0.929 1_545 S
C502 C501 1.363 . S
C502 C508 1.428 . S
H503 C499 0.930 1_565 S
H504 C501 0.929 1_565 S
S505 N506 1.613 . S
S505 N507 1.610 . S
N506 S505 1.613 . S
N506 C509 1.350 . S
N507 S505 1.610 . S
N507 C508 1.351 . S
C508 C502 1.428 . S
C508 N507 1.351 . S
C508 C509 1.434 . S
C509 C500 1.429 . S
C509 N506 1.350 . S
C509 C508 1.434 . S
C510 C511 1.369 . S
C510 C512 1.419 . S
C510 H514 0.937 . S
C511 C510 1.369 . S
C511 C520 1.429 . S
C512 C510 1.419 . S
C512 C513 1.363 . S
C512 H515 0.929 . S
C513 C512 1.363 . S
C513 C519 1.428 . S
H514 C510 0.937 . S
H515 C512 0.929 . S
S516 N517 1.613 . S
S516 N518 1.610 . S
N517 S516 1.613 . S
N517 C520 1.350 . S
N518 S516 1.610 . S
N518 C519 1.351 . S
C519 C513 1.428 . S
C519 N518 1.351 . S
C519 C520 1.434 . S
C520 C511 1.429 . S
C520 N517 1.350 . S
C520 C519 1.434 . S
C521 C522 1.369 . S
C521 C523 1.419 . S
C521 H525 0.930 . S
C522 C521 1.369 . S
C522 C531 1.429 . S
C523 C521 1.419 . S
C523 C524 1.363 . S
C523 H526 0.929 . S
C524 C523 1.363 . S
C524 C530 1.428 . S
H525 C521 0.930 . S
H526 C523 0.929 . S
S527 N528 1.613 . S
S527 N529 1.610 . S
N528 S527 1.613 . S
N528 C531 1.350 1_554 S
N529 S527 1.610 . S
N529 C530 1.351 1_554 S
C530 C524 1.428 . S
C530 N529 1.351 1_556 S
C530 C531 1.434 . S
C531 C522 1.429 . S
C531 N528 1.350 1_556 S
C531 C530 1.434 . S
C532 C533 1.369 1_455 S
C532 C534 1.419 . S
C532 H536 0.930 . S
C533 C532 1.369 1_655 S
C533 C542 1.429 . S
C534 C532 1.419 . S
C534 C535 1.363 1_455 S
C534 H537 0.929 . S
C535 C534 1.363 1_655 S
C535 C541 1.428 . S
H536 C532 0.930 . S
H537 C534 0.929 . S
S538 N539 1.613 . S
S538 N540 1.610 . S
N539 S538 1.613 . S
N539 C542 1.350 . S
N540 S538 1.610 . S
N540 C541 1.351 . S
C541 C535 1.428 . S
C541 N540 1.351 . S
C541 C542 1.434 . S
C542 C533 1.429 . S
C542 N539 1.350 . S
C542 C541 1.434 . S
C543 C544 1.369 . S
C543 C545 1.419 . S
C543 H547 0.930 . S
C544 C543 1.369 . S
C544 C553 1.429 1_565 S
C545 C543 1.419 . S
C545 C546 1.363 . S
C545 H548 0.929 . S
C546 C545 1.363 . S
C546 C552 1.428 1_565 S
H547 C543 0.930 . S
H548 C545 0.929 . S
S549 N550 1.613 . S
S549 N551 1.610 . S
N550 S549 1.613 . S
N550 C553 1.350 . S
N551 S549 1.610 . S
N551 C552 1.351 . S
C552 C546 1.428 1_545 S
C552 N551 1.351 . S
C552 C553 1.434 . S
C553 C544 1.429 1_545 S
C553 N550 1.350 . S
C553 C552 1.434 . S
C554 C555 1.369 . S
C554 C556 1.419 . S
C554 H558 0.930 . S
C555 C554 1.369 . S
C555 C564 1.429 . S
C556 C554 1.419 . S
C556 C557 1.363 . S
C556 H559 0.929 . S
C557 C556 1.363 . S
C557 C563 1.428 . S
H558 C554 0.930 . S
H559 C556 0.929 . S
S560 N561 1.613 . S
S560 N562 1.610 . S
N561 S560 1.613 . S
N561 C564 1.350 . S
N562 S560 1.610 . S
N562 C563 1.351 . S
C563 C557 1.428 . S
C563 N562 1.351 . S
C563 C564 1.434 . S
C564 C555 1.429 . S
C564 N561 1.350 . S
C564 C563 1.434 . S
C565 C566 1.369 . S
C565 C567 1.419 . S
C565 H569 0.930 . S
C566 C565 1.369 . S
C566 C575 1.429 . S
C567 C565 1.419 . S
C567 C568 1.363 . S
C567 H570 0.929 . S
C568 C567 1.363 . S
C568 C574 1.428 . S
H569 C565 0.930 . S
H570 C567 0.929 . S
S571 N572 1.613 . S
S571 N573 1.610 . S
N572 S571 1.613 . S
N572 C575 1.350 . S
N573 S571 1.610 . S
N573 C574 1.351 . S
C574 C568 1.428 . S
C574 N573 1.351 . S
C574 C575 1.434 . S
C575 C566 1.429 . S
C575 N572 1.350 . S
C575 C574 1.434 . S
C313 C125 2.401 . S
C315 C183 2.439 . S
C326 C209 2.148 . S
C324 C144 2.126 . S
C337 C249 2.143 . S
C335 C87 2.064 . S
C348 C303 2.437 . S
C346 C106 2.364 . S
C359 C164 2.442 1_564 S
C357 C49 2.441 . S
C368 C68 2.070 . S
C370 C194 2.146 . S
C379 C11 2.110 . S
C381 C234 2.143 . S
C390 C30 2.440 . S
C392 C284 2.434 1_654 S
C403 C160 0.914 . S
C401 C97 0.873 . S
C414 C221 0.901 . S
C412 C116 0.910 . S
C425 C261 0.763 . S
C423 C135 0.755 . S
C434 C78 0.818 . S
C436 C280 0.816 . S
C445 C21 0.892 . S
C447 C181 0.904 . S
C458 C200 0.901 . S
C456 C40 0.921 . S
C469 C240 0.751 . S
C467 C59 0.755 . S
C478 C2 0.806 . S
C480 C301 0.822 . S
C489 C101 2.088 . S
C491 C154 2.400 . S
C500 C120 2.433 . S
C502 C204 2.695 . S
C513 C244 2.497 . S
C511 C139 2.266 . S
C524 C274 2.179 . S
C522 C82 1.896 . S
C533 C25 2.089 . S
C535 C169 2.399 . S
C546 C223 2.693 . S
C544 C44 2.433 . S
C557 C263 2.499 . S
C555 C63 2.254 . S
C566 C6 1.898 . S
C568 C289 2.179 . S
