# Generated by pormake.
# Topology ctn, (3,4)-cn, num edge types: 1
# Building blocks:
#     Node 0, Type 0, BuildingBlock: CUQRIR_clean_linker_1, # of connection points: 3
#     Node 1, Type 0, BuildingBlock: CUQRIR_clean_linker_1, # of connection points: 3
#     Node 2, Type 0, BuildingBlock: CUQRIR_clean_linker_1, # of connection points: 3
#     Node 3, Type 0, BuildingBlock: CUQRIR_clean_linker_1, # of connection points: 3
#     Node 4, Type 0, BuildingBlock: CUQRIR_clean_linker_1, # of connection points: 3
#     Node 5, Type 0, BuildingBlock: CUQRIR_clean_linker_1, # of connection points: 3
#     Node 6, Type 0, BuildingBlock: CUQRIR_clean_linker_1, # of connection points: 3
#     Node 7, Type 0, BuildingBlock: CUQRIR_clean_linker_1, # of connection points: 3
#     Node 8, Type 0, BuildingBlock: CUQRIR_clean_linker_1, # of connection points: 3
#     Node 9, Type 0, BuildingBlock: CUQRIR_clean_linker_1, # of connection points: 3
#     Node 10, Type 0, BuildingBlock: CUQRIR_clean_linker_1, # of connection points: 3
#     Node 11, Type 0, BuildingBlock: CUQRIR_clean_linker_1, # of connection points: 3
#     Node 12, Type 0, BuildingBlock: CUQRIR_clean_linker_1, # of connection points: 3
#     Node 13, Type 0, BuildingBlock: CUQRIR_clean_linker_1, # of connection points: 3
#     Node 14, Type 0, BuildingBlock: CUQRIR_clean_linker_1, # of connection points: 3
#     Node 15, Type 0, BuildingBlock: CUQRIR_clean_linker_1, # of connection points: 3
#     Node 16, Type 1, BuildingBlock: UXUYUI_clean_sbu_0, # of connection points: 4
#     Node 17, Type 1, BuildingBlock: UXUYUI_clean_sbu_0, # of connection points: 4
#     Node 18, Type 1, BuildingBlock: UXUYUI_clean_sbu_0, # of connection points: 4
#     Node 19, Type 1, BuildingBlock: UXUYUI_clean_sbu_0, # of connection points: 4
#     Node 20, Type 1, BuildingBlock: UXUYUI_clean_sbu_0, # of connection points: 4
#     Node 21, Type 1, BuildingBlock: UXUYUI_clean_sbu_0, # of connection points: 4
#     Node 22, Type 1, BuildingBlock: UXUYUI_clean_sbu_0, # of connection points: 4
#     Node 23, Type 1, BuildingBlock: UXUYUI_clean_sbu_0, # of connection points: 4
#     Node 24, Type 1, BuildingBlock: UXUYUI_clean_sbu_0, # of connection points: 4
#     Node 25, Type 1, BuildingBlock: UXUYUI_clean_sbu_0, # of connection points: 4
#     Node 26, Type 1, BuildingBlock: UXUYUI_clean_sbu_0, # of connection points: 4
#     Node 27, Type 1, BuildingBlock: UXUYUI_clean_sbu_0, # of connection points: 4
#     Edge 28, Type (0, 1), BuildingBlock: AJUNOK_clean_linker_0, # of connection points: 2
#     Edge 29, Type (0, 1), BuildingBlock: AJUNOK_clean_linker_0, # of connection points: 2
#     Edge 30, Type (0, 1), BuildingBlock: AJUNOK_clean_linker_0, # of connection points: 2
#     Edge 31, Type (0, 1), BuildingBlock: AJUNOK_clean_linker_0, # of connection points: 2
#     Edge 32, Type (0, 1), BuildingBlock: AJUNOK_clean_linker_0, # of connection points: 2
#     Edge 33, Type (0, 1), BuildingBlock: AJUNOK_clean_linker_0, # of connection points: 2
#     Edge 34, Type (0, 1), BuildingBlock: AJUNOK_clean_linker_0, # of connection points: 2
#     Edge 35, Type (0, 1), BuildingBlock: AJUNOK_clean_linker_0, # of connection points: 2
#     Edge 36, Type (0, 1), BuildingBlock: AJUNOK_clean_linker_0, # of connection points: 2
#     Edge 37, Type (0, 1), BuildingBlock: AJUNOK_clean_linker_0, # of connection points: 2
#     Edge 38, Type (0, 1), BuildingBlock: AJUNOK_clean_linker_0, # of connection points: 2
#     Edge 39, Type (0, 1), BuildingBlock: AJUNOK_clean_linker_0, # of connection points: 2
#     Edge 40, Type (0, 1), BuildingBlock: AJUNOK_clean_linker_0, # of connection points: 2
#     Edge 41, Type (0, 1), BuildingBlock: AJUNOK_clean_linker_0, # of connection points: 2
#     Edge 42, Type (0, 1), BuildingBlock: AJUNOK_clean_linker_0, # of connection points: 2
#     Edge 43, Type (0, 1), BuildingBlock: AJUNOK_clean_linker_0, # of connection points: 2
#     Edge 44, Type (0, 1), BuildingBlock: AJUNOK_clean_linker_0, # of connection points: 2
#     Edge 45, Type (0, 1), BuildingBlock: AJUNOK_clean_linker_0, # of connection points: 2
#     Edge 46, Type (0, 1), BuildingBlock: AJUNOK_clean_linker_0, # of connection points: 2
#     Edge 47, Type (0, 1), BuildingBlock: AJUNOK_clean_linker_0, # of connection points: 2
#     Edge 48, Type (0, 1), BuildingBlock: AJUNOK_clean_linker_0, # of connection points: 2
#     Edge 49, Type (0, 1), BuildingBlock: AJUNOK_clean_linker_0, # of connection points: 2
#     Edge 50, Type (0, 1), BuildingBlock: AJUNOK_clean_linker_0, # of connection points: 2
#     Edge 51, Type (0, 1), BuildingBlock: AJUNOK_clean_linker_0, # of connection points: 2
#     Edge 52, Type (0, 1), BuildingBlock: AJUNOK_clean_linker_0, # of connection points: 2
#     Edge 53, Type (0, 1), BuildingBlock: AJUNOK_clean_linker_0, # of connection points: 2
#     Edge 54, Type (0, 1), BuildingBlock: AJUNOK_clean_linker_0, # of connection points: 2
#     Edge 55, Type (0, 1), BuildingBlock: AJUNOK_clean_linker_0, # of connection points: 2
#     Edge 56, Type (0, 1), BuildingBlock: AJUNOK_clean_linker_0, # of connection points: 2
#     Edge 57, Type (0, 1), BuildingBlock: AJUNOK_clean_linker_0, # of connection points: 2
#     Edge 58, Type (0, 1), BuildingBlock: AJUNOK_clean_linker_0, # of connection points: 2
#     Edge 59, Type (0, 1), BuildingBlock: AJUNOK_clean_linker_0, # of connection points: 2
#     Edge 60, Type (0, 1), BuildingBlock: AJUNOK_clean_linker_0, # of connection points: 2
#     Edge 61, Type (0, 1), BuildingBlock: AJUNOK_clean_linker_0, # of connection points: 2
#     Edge 62, Type (0, 1), BuildingBlock: AJUNOK_clean_linker_0, # of connection points: 2
#     Edge 63, Type (0, 1), BuildingBlock: AJUNOK_clean_linker_0, # of connection points: 2
#     Edge 64, Type (0, 1), BuildingBlock: AJUNOK_clean_linker_0, # of connection points: 2
#     Edge 65, Type (0, 1), BuildingBlock: AJUNOK_clean_linker_0, # of connection points: 2
#     Edge 66, Type (0, 1), BuildingBlock: AJUNOK_clean_linker_0, # of connection points: 2
#     Edge 67, Type (0, 1), BuildingBlock: AJUNOK_clean_linker_0, # of connection points: 2
#     Edge 68, Type (0, 1), BuildingBlock: AJUNOK_clean_linker_0, # of connection points: 2
#     Edge 69, Type (0, 1), BuildingBlock: AJUNOK_clean_linker_0, # of connection points: 2
#     Edge 70, Type (0, 1), BuildingBlock: AJUNOK_clean_linker_0, # of connection points: 2
#     Edge 71, Type (0, 1), BuildingBlock: AJUNOK_clean_linker_0, # of connection points: 2
#     Edge 72, Type (0, 1), BuildingBlock: AJUNOK_clean_linker_0, # of connection points: 2
#     Edge 73, Type (0, 1), BuildingBlock: AJUNOK_clean_linker_0, # of connection points: 2
#     Edge 74, Type (0, 1), BuildingBlock: AJUNOK_clean_linker_0, # of connection points: 2
#     Edge 75, Type (0, 1), BuildingBlock: AJUNOK_clean_linker_0, # of connection points: 2
# Relax obj value: 0.080
# Max RMSD: 0.211
# Mean RMSD: 0.130
data_MOF--net-ctn--node1-UXUYUI_clean_sbu_0--node2-CUQRIR_clean_linker_1--edge1-AJUNOK_clean_linker_0
_symmetry_space_group_name_H-M    P1
_symmetry_Int_Tables_number       1
_symmetry_cell_setting            triclinic
loop_
_symmetry_equiv_pos_as_xyz
'x, y, z'
_cell_length_a     49.734462
_cell_length_b     46.339385
_cell_length_c     47.576793
_cell_angle_alpha  96.460507
_cell_angle_beta   89.000175
_cell_angle_gamma 92.632048
loop_
_atom_site_label
_atom_site_type_symbol
_atom_site_fract_x
_atom_site_fract_y
_atom_site_fract_z
_atom_type_partial_charge
C0 C 0.05323 0.02748 0.08555 0.0
N1 N 0.06639 0.03811 0.06349 0.0
N2 N 0.03198 0.04368 0.0939 0.0
C3 C 0.06239 1.00258 0.10023 0.0
C4 C 0.03283 0.06475 0.0764 0.0
N5 N 0.0539 0.06159 0.05806 0.0
C6 C 1.01243 0.08779 0.07654 0.0
H7 H 0.05585 0.98182 0.08781 0.0
H8 H 0.05376 1.00304 0.12193 0.0
H9 H 0.08468 1.00324 0.10138 0.0
H10 H 0.01995 0.1076 0.08988 0.0
H11 H 0.99285 0.08042 0.08541 0.0
H12 H 1.00936 0.0936 0.05486 0.0
C13 C 0.29021 0.74642 0.23826 0.0
N14 N 0.30225 0.73152 0.25706 0.0
N15 N 0.3066 0.76864 0.23119 0.0
C16 C 0.26299 0.73818 0.22564 0.0
C17 C 0.32925 0.76646 0.24609 0.0
N18 N 0.32671 0.74371 0.26176 0.0
C19 C 0.35324 0.78742 0.24624 0.0
H20 H 0.26071 0.74712 0.20519 0.0
H21 H 0.24723 0.74694 0.24061 0.0
H22 H 0.2597 0.71421 0.22233 0.0
H23 H 0.34706 0.8092 0.24194 0.0
H24 H 0.36755 0.7794 0.22931 0.0
H25 H 0.36371 0.78934 0.26681 0.0
C26 C 0.98805 0.51176 0.0821 0.0
N27 N 1.00368 0.48861 0.08303 0.0
N28 N 0.96938 0.50627 0.06159 0.0
C29 C 0.99196 0.54046 0.10009 0.0
C30 C 0.97409 0.47893 0.05003 0.0
N31 N 0.99501 0.46826 0.06281 0.0
C32 C 0.9573 0.46177 0.02738 0.0
H33 H 0.97918 0.54029 0.11942 0.0
H34 H 0.98587 0.55854 0.08849 0.0
H35 H 1.01328 0.54437 0.10653 0.0
H36 H 0.9675 0.46287 1.00657 0.0
H37 H 0.93694 0.47044 0.02655 0.0
H38 H 0.9553 0.43856 0.03113 0.0
C39 C 0.69975 0.78003 0.23168 0.0
N40 N 0.72287 0.79218 0.22195 0.0
N41 N 0.69438 0.79153 0.25851 0.0
C42 C 0.68347 0.75555 0.2157 0.0
C43 C 0.71522 0.81084 0.26487 0.0
N44 N 0.73271 0.81103 0.24275 0.0
C45 C 0.7176 0.83081 0.29201 0.0
H46 H 0.6698 0.76466 0.20112 0.0
H47 H 0.67117 0.74312 0.2303 0.0
H48 H 0.69684 0.74061 0.20278 0.0
H49 H 0.73046 0.82085 0.30676 0.0
H50 H 0.6976 0.83431 0.3022 0.0
H51 H 0.72716 0.85214 0.28815 0.0
C52 C 0.04491 0.9772 0.49104 0.0
N53 N 0.06763 0.98071 0.50662 0.0
N54 N 0.04727 0.99237 0.46837 0.0
C55 C 0.02026 0.95937 0.49846 0.0
C56 C 0.07234 1.00499 0.47051 0.0
N57 N 0.08489 0.99768 0.49357 0.0
C58 C 0.0845 0.02494 0.45041 0.0
H59 H 0.02616 0.93782 0.50373 0.0
H60 H 1.00542 0.9563 0.48118 0.0
H61 H 1.0104 0.97054 0.5175 0.0
H62 H 0.08356 0.04774 0.46029 0.0
H63 H 0.07361 0.02261 0.43007 0.0
H64 H 0.106 0.02038 0.44628 0.0
C65 C 0.21727 0.75235 0.81878 0.0
N66 N 0.23617 0.73835 0.83136 0.0
N67 N 0.20908 0.73665 0.79452 0.0
C68 C 0.20578 0.7806 0.83113 0.0
C69 C 0.22335 0.71233 0.79305 0.0
N70 N 0.23981 0.7133 0.81557 0.0
C71 C 0.22207 0.68832 0.76901 0.0
H72 H 0.20361 0.78134 0.85444 0.0
H73 H 0.1859 0.78379 0.82204 0.0
H74 H 0.21989 0.79879 0.82659 0.0
H75 H 0.21482 0.69626 0.74946 0.0
H76 H 0.20787 0.67074 0.77483 0.0
H77 H 0.24213 0.67908 0.76486 0.0
C78 C 0.9764 0.54847 0.46419 0.0
N79 N 0.99576 0.57015 0.46672 0.0
N80 N 0.96036 0.54991 0.48754 0.0
C81 C 0.97269 0.5264 0.43868 0.0
C82 C 0.97088 0.57286 0.50452 0.0
N83 N 0.99249 0.585 0.49199 0.0
C84 C 0.95981 0.58384 0.53319 0.0
H85 H 0.959 0.535 0.42378 0.0
H86 H 0.96346 0.50568 0.44457 0.0
H87 H 0.99218 0.52208 0.42766 0.0
H88 H 0.94589 0.56746 0.54169 0.0
H89 H 0.94884 0.60386 0.53141 0.0
H90 H 0.97645 0.58964 0.54829 0.0
C91 C 0.79422 0.81269 0.82521 0.0
N92 N 0.81591 0.79589 0.82179 0.0
N93 N 0.79665 0.83475 0.80885 0.0
C94 C 0.77161 0.8088 0.84609 0.0
C95 C 0.82074 0.83108 0.79562 0.0
N96 N 0.83259 0.8076 0.80359 0.0
C97 C 0.83249 0.85014 0.77448 0.0
H98 H 0.7614 0.82945 0.85198 0.0
H99 H 0.77922 0.80087 0.86549 0.0
H100 H 0.75662 0.79232 0.83644 0.0
H101 H 0.84598 0.86724 0.7857 0.0
H102 H 0.81646 0.86082 0.76409 0.0
H103 H 0.84461 0.83745 0.75809 0.0
C104 C 0.29996 0.31449 0.32695 0.0
N105 N 0.322 0.29816 0.32458 0.0
N106 N 0.30282 0.3367 0.3108 0.0
C107 C 0.27552 0.30828 0.34478 0.0
C108 C 0.32753 0.33362 0.29883 0.0
N109 N 0.33936 0.31036 0.3073 0.0
C110 C 0.34012 0.35311 0.27851 0.0
H111 H 0.26545 0.28746 0.33592 0.0
H112 H 0.26078 0.32555 0.34549 0.0
H113 H 0.28177 0.30571 0.36661 0.0
H114 H 0.33004 0.37407 0.2796 0.0
H115 H 0.33854 0.34193 0.25668 0.0
H116 H 0.36181 0.35748 0.28311 0.0
C117 C 0.48488 1.0111 0.58644 0.0
N118 N 0.50142 0.98851 0.58561 0.0
N119 N 0.46797 1.00756 0.56421 0.0
C120 C 0.48645 0.03761 0.60785 0.0
C121 C 0.47492 0.98221 0.54962 0.0
N122 N 0.49536 0.97069 0.56243 0.0
C123 C 0.46064 0.96778 0.52375 0.0
H124 H 0.47473 0.03309 0.62703 0.0
H125 H 0.47799 0.05655 0.59935 0.0
H126 H 0.50763 0.04307 0.61412 0.0
H127 H 0.47177 0.97363 0.50464 0.0
H128 H 0.43975 0.97506 0.52292 0.0
H129 H 0.46008 0.94377 0.52332 0.0
C130 C 0.20325 0.27987 0.73657 0.0
N131 N 0.22492 0.29342 0.72527 0.0
N132 N 0.19311 0.29685 0.75885 0.0
C133 C 0.19118 0.25066 0.72507 0.0
C134 C 0.20933 0.32121 0.76081 0.0
N135 N 0.22854 0.31931 0.74021 0.0
C136 C 0.20763 0.34585 0.78418 0.0
H137 H 0.19305 0.24744 0.70166 0.0
H138 H 0.16965 0.24834 0.7313 0.0
H139 H 0.20223 0.23345 0.73374 0.0
H140 H 0.19651 0.3389 0.80286 0.0
H141 H 0.19685 0.36374 0.77634 0.0
H142 H 0.22806 0.35438 0.79069 0.0
C143 C 0.79462 0.24348 0.73216 0.0
N144 N 0.8051 0.23034 0.75323 0.0
N145 N 0.80824 0.26889 0.72911 0.0
C146 C 0.77013 0.23222 0.71546 0.0
C147 C 0.82732 0.2709 0.74935 0.0
N148 N 0.82528 0.24755 0.76428 0.0
C149 C 0.84923 0.29442 0.75306 0.0
H150 H 0.77655 0.21771 0.69664 0.0
H151 H 0.75931 0.25035 0.70812 0.0
H152 H 0.75612 0.21954 0.72829 0.0
H153 H 0.84352 0.31087 0.77066 0.0
H154 H 0.85226 0.30534 0.73358 0.0
H155 H 0.86843 0.2853 0.75862 0.0
C156 C 0.55326 0.52549 0.58145 0.0
N157 N 0.5664 0.5359 0.55923 0.0
N158 N 0.53267 0.54244 0.5904 0.0
C159 C 0.56191 0.50022 0.5959 0.0
C160 C 0.5339 0.56372 0.57316 0.0
N161 N 0.55454 0.55998 0.55437 0.0
C162 C 0.51428 0.5876 0.57401 0.0
H163 H 0.55446 0.47968 0.58372 0.0
H164 H 0.55371 0.50102 0.6178 0.0
H165 H 0.5842 0.50003 0.59652 0.0
H166 H 0.52316 0.60741 0.58632 0.0
H167 H 0.49498 0.5814 0.58426 0.0
H168 H 0.51025 0.59292 0.55235 0.0
C169 C 0.5428 0.48267 0.9931 0.0
N170 N 0.56572 0.48609 1.0084 0.0
N171 N 0.5452 0.49712 0.96998 0.0
C172 C 0.51878 0.46339 0.99946 0.0
C173 C 0.57043 0.50932 0.97151 0.0
N174 N 0.58312 0.50236 0.99466 0.0
C175 C 0.58213 0.52946 0.95132 0.0
H176 H 0.50675 0.45665 0.98022 0.0
H177 H 0.50577 0.47551 0.01542 0.0
H178 H 0.5252 0.44366 1.00828 0.0
H179 H 0.56615 0.53846 0.93934 0.0
H180 H 0.59575 0.51722 0.93609 0.0
H181 H 0.59418 0.54761 0.96292 0.0
C182 C 0.71592 0.25074 0.31615 0.0
N183 N 0.73524 0.23782 0.32928 0.0
N184 N 0.70595 0.23269 0.29413 0.0
C185 C 0.70638 0.28076 0.32539 0.0
C186 C 0.71973 0.20824 0.29438 0.0
N187 N 0.73736 0.21121 0.31602 0.0
C188 C 0.71587 0.18144 0.27365 0.0
H189 H 0.70135 0.28282 0.34833 0.0
H190 H 0.68864 0.2859 0.3134 0.0
H191 H 0.72287 0.29702 0.32212 0.0
H192 H 0.73555 0.17185 0.26797 0.0
H193 H 0.70583 0.18624 0.25419 0.0
H194 H 0.70311 0.1651 0.28369 0.0
C195 C 0.47467 0.04715 0.96507 0.0
N196 N 0.49389 0.06895 0.96781 0.0
N197 N 0.45772 0.04914 0.98772 0.0
C198 C 0.4736 0.02278 0.94134 0.0
C199 C 0.46738 0.07272 1.00442 0.0
N200 N 0.48953 0.08459 0.9925 0.0
C201 C 0.45425 0.08507 0.03163 0.0
H202 H 0.46357 0.03019 0.92295 0.0
H203 H 0.46211 1.00342 0.9477 0.0
H204 H 0.49424 1.01665 0.93462 0.0
H205 H 0.4634 0.07576 0.04951 0.0
H206 H 0.43233 0.07943 0.03168 0.0
H207 H 0.45742 0.10906 0.03504 0.0
Li208 Li 0.28862 0.92072 0.03333 0.0
Li209 Li 0.26621 0.88699 0.06352 0.0
Li210 Li 0.2614 0.87837 1.01326 0.0
Li211 Li 0.23761 0.91828 0.04027 0.0
C212 C 0.30866 0.85591 0.02426 0.0
N213 N 0.33531 0.8076 1.00123 0.0
C214 C 0.30688 0.83033 0.03735 0.0
C215 C 0.32421 0.85699 0.99962 0.0
C216 C 0.32047 0.80613 0.02535 0.0
C217 C 0.33745 0.83231 0.98824 0.0
C218 C 0.26857 0.93587 0.09669 0.0
C219 C 0.24874 0.9366 0.14334 0.0
N220 N 0.27338 0.94363 0.1548 0.0
C221 C 0.29367 0.94323 0.10887 0.0
C222 C 0.24588 0.93265 0.11398 0.0
C223 C 0.29568 0.94703 0.13833 0.0
C224 C 0.31593 0.9725 0.02076 0.0
N225 N 0.31917 0.94518 0.02756 0.0
C226 C 0.36686 0.95076 0.02215 0.0
C227 C 0.34394 0.93421 0.02872 0.0
C228 C 0.36415 0.97877 1.01428 0.0
C229 C 0.33832 0.98982 1.01403 0.0
H230 H 0.29591 0.98057 0.02003 0.0
H231 H 0.34584 0.9124 0.03424 0.0
C232 C 0.25174 0.85448 0.10976 0.0
N233 N 0.27205 0.86907 0.0971 0.0
C234 C 0.25695 0.83986 0.13314 0.0
C235 C 0.30372 0.85598 0.13024 0.0
C236 C 0.29763 0.8702 0.10692 0.0
C237 C 0.28328 0.84037 0.14358 0.0
H238 H 0.23163 0.85371 0.10134 0.0
H239 H 0.31343 0.88176 0.09627 0.0
C240 C 0.26425 0.92975 0.97975 0.0
N241 N 0.27356 0.95112 0.92834 0.0
C242 C 0.24366 0.94265 0.96669 0.0
C243 C 0.28951 0.92752 0.96653 0.0
C244 C 0.24877 0.95335 0.94073 0.0
C245 C 0.29385 0.93854 0.9406 0.0
C246 C 0.20876 0.86564 0.02973 0.0
C247 C 0.2016 0.87601 1.00453 0.0
C248 C 0.19169 0.84532 0.04156 0.0
C249 C 0.1774 0.86595 0.99165 0.0
C250 C 0.16766 0.8358 0.02803 0.0
N251 N 0.16107 0.84623 1.00357 0.0
C252 C 0.25955 0.82015 0.98621 0.0
C253 C 0.25709 0.85612 0.95488 0.0
C254 C 0.25951 0.79815 0.96348 0.0
N255 N 0.25901 0.84858 0.98153 0.0
C256 C 0.25664 0.83493 0.93167 0.0
C257 C 0.25815 0.80549 0.93571 0.0
H258 H 0.2602 0.81454 1.00761 0.0
H259 H 0.25564 0.87851 0.95141 0.0
C260 C 0.21003 0.96873 0.03244 0.0
N261 N 0.20687 0.94217 0.04202 0.0
C262 C 0.18817 0.98669 0.03214 0.0
C263 C 0.1603 0.9499 0.05211 0.0
C264 C 0.18268 0.93269 0.05207 0.0
C265 C 0.16284 0.97729 0.04199 0.0
H266 H 0.22955 0.97586 0.02475 0.0
H267 H 0.1807 0.91173 0.06003 0.0
O268 O 0.29533 0.87977 0.03557 0.0
O269 O 0.26632 0.93117 0.06796 0.0
O270 O 0.25957 0.91924 1.00524 0.0
O271 O 0.23238 0.875 0.04282 0.0
H272 H 0.29482 0.82898 0.05633 0.0
H273 H 0.32599 0.87661 0.9893 0.0
H274 H 0.31912 0.78614 0.03515 0.0
H275 H 0.34942 0.8328 0.96909 0.0
H276 H 0.2314 0.93399 0.15701 0.0
H277 H 0.31142 0.94567 0.0957 0.0
H278 H 0.22634 0.92682 0.10478 0.0
H279 H 0.315 0.95256 0.14809 0.0
H280 H 0.38645 0.94153 0.02261 0.0
H281 H 0.33547 1.01157 1.0087 0.0
H282 H 0.24071 0.82756 0.14239 0.0
H283 H 0.32425 0.85697 0.13761 0.0
H284 H 0.22386 0.94415 0.97636 0.0
H285 H 0.30559 0.91737 0.97612 0.0
H286 H 0.23301 0.96337 0.93039 0.0
H287 H 0.31333 0.93704 0.9302 0.0
H288 H 0.21447 0.89168 0.99497 0.0
H289 H 0.19697 0.837 0.06101 0.0
H290 H 0.17161 0.87384 0.97217 0.0
H291 H 0.15425 0.8201 0.03698 0.0
H292 H 0.26075 0.77576 0.96762 0.0
H293 H 0.25475 0.84156 0.9107 0.0
H294 H 0.19099 1.00752 0.02397 0.0
H295 H 0.14123 0.942 0.06031 0.0
Li296 Li 0.13775 0.53381 0.30529 0.0
Li297 Li 0.17017 0.50074 0.2841 0.0
Li298 Li 0.17513 0.55142 0.27823 0.0
Li299 Li 0.13858 0.51901 0.25179 0.0
C300 C 0.17522 0.53768 0.34263 0.0
N301 N 0.17093 0.5459 0.40101 0.0
C302 C 0.1781 0.51439 0.3585 0.0
C303 C 0.17028 0.56518 0.35655 0.0
C304 C 0.17586 0.51899 0.38796 0.0
C305 C 0.16812 0.56888 0.38604 0.0
C306 C 0.12579 0.46604 0.28728 0.0
C307 C 0.11171 0.41683 0.2697 0.0
N308 N 0.11692 0.40813 0.29535 0.0
C309 C 0.13114 0.4565 0.31338 0.0
C310 C 0.11617 0.44594 0.26517 0.0
C311 C 0.1265 0.4272 0.31706 0.0
C312 C 0.10087 0.57024 0.33697 0.0
N313 N 0.11319 0.54454 0.33629 0.0
C314 C 0.0909 0.53483 0.37945 0.0
C315 C 0.10856 0.52694 0.35705 0.0
C316 C 0.07773 0.56111 0.38058 0.0
C317 C 0.08314 0.57908 0.35909 0.0
H318 H 0.1047 0.58389 0.32027 0.0
H319 H 0.11855 0.50676 0.35638 0.0
C320 C 0.21548 0.47514 0.30315 0.0
N321 N 0.19247 0.46848 0.28831 0.0
C322 C 0.23355 0.45368 0.3066 0.0
C323 C 0.20429 0.41879 0.279 0.0
C324 C 0.18697 0.44104 0.27576 0.0
C325 C 0.22805 0.42501 0.29448 0.0
H326 H 0.21998 0.49731 0.31205 0.0
H327 H 0.16941 0.43635 0.26282 0.0
C328 C 0.13884 0.58633 0.26601 0.0
N329 N 0.14692 0.64151 0.24973 0.0
C330 C 0.13589 0.59095 0.23774 0.0
C331 C 0.1457 0.60984 0.28605 0.0
C332 C 0.14007 0.619 0.22991 0.0
C333 C 0.14979 0.63754 0.27739 0.0
C334 C 0.19481 0.49881 0.23435 0.0
C335 C 0.22252 0.50195 0.23885 0.0
C336 C 0.18427 0.475 0.21667 0.0
C337 C 0.23929 0.48092 0.22578 0.0
C338 C 0.20172 0.45447 0.20395 0.0
N339 N 0.22862 0.45781 0.20877 0.0
C340 C 0.21415 0.59419 0.29991 0.0
C341 C 0.20779 0.59277 0.25053 0.0
C342 C 0.23307 0.61737 0.29956 0.0
N343 N 0.20157 0.58273 0.27574 0.0
C344 C 0.22684 0.61579 0.24917 0.0
C345 C 0.23947 0.62859 0.274 0.0
H346 H 0.20952 0.58537 0.31953 0.0
H347 H 0.19776 0.58307 0.23155 0.0
C348 C 0.09147 0.49792 0.22311 0.0
N349 N 0.11623 0.51041 0.21886 0.0
C350 C 0.07414 0.49011 0.20046 0.0
C351 C 0.10719 0.51013 0.16947 0.0
C352 C 0.12442 0.51642 0.19263 0.0
C353 C 0.08161 0.49645 0.17305 0.0
H354 H 0.08518 0.49378 0.24422 0.0
H355 H 0.14411 0.52668 0.18978 0.0
O356 O 0.17696 0.53355 0.31367 0.0
O357 O 0.12998 0.49479 0.28339 0.0
O358 O 0.13557 0.55886 0.27393 0.0
O359 O 0.17798 0.51862 0.24766 0.0
H360 H 0.18178 0.49291 0.34827 0.0
H361 H 0.16765 0.58342 0.34471 0.0
H362 H 0.17794 0.50112 0.40045 0.0
H363 H 0.16409 0.59 0.39701 0.0
H364 H 0.10432 0.4011 0.25275 0.0
H365 H 0.13938 0.47136 0.33042 0.0
H366 H 0.11271 0.45247 0.24452 0.0
H367 H 0.13068 0.41959 0.33715 0.0
H368 H 0.08718 0.52019 0.39544 0.0
H369 H 0.07377 0.59975 0.35934 0.0
H370 H 0.25185 0.45955 0.3183 0.0
H371 H 0.19902 0.39696 0.26955 0.0
H372 H 0.13057 0.57307 0.22196 0.0
H373 H 0.14827 0.60668 0.30799 0.0
H374 H 0.13795 0.62285 0.20807 0.0
H375 H 0.15535 0.65587 0.29263 0.0
H376 H 0.23091 0.52026 0.25258 0.0
H377 H 0.16282 0.47219 0.21317 0.0
H378 H 0.26076 0.48291 0.22924 0.0
H379 H 0.19385 0.43581 0.19038 0.0
H380 H 0.24266 0.62641 0.31906 0.0
H381 H 0.23123 0.62396 0.22905 0.0
H382 H 0.05492 0.47938 0.20458 0.0
H383 H 0.1137 0.51672 0.14926 0.0
Li384 Li 0.76162 0.62939 1.00864 0.0
Li385 Li 0.78204 0.67285 0.03609 0.0
Li386 Li 0.79232 0.66499 0.98405 0.0
Li387 Li 0.81057 0.6353 0.01723 0.0
C388 C 0.73742 0.67505 0.9846 0.0
N389 N 0.69928 0.68257 0.94486 0.0
C390 C 0.72053 0.69845 0.9889 0.0
C391 C 0.73497 0.65548 0.96008 0.0
C392 C 0.70135 0.70187 0.96856 0.0
C393 C 0.71555 0.65966 0.94025 0.0
C394 C 0.77434 0.63475 0.07262 0.0
C395 C 0.7872 0.64512 0.12147 0.0
N396 N 0.76084 0.64303 0.12943 0.0
C397 C 0.74741 0.63245 0.08127 0.0
C398 C 0.79444 0.64089 0.09285 0.0
C399 C 0.74099 0.63679 0.1101 0.0
C400 C 0.7325 0.57428 1.00632 0.0
N401 N 0.72974 0.60349 1.00761 0.0
C402 C 0.68179 0.59673 1.01179 0.0
C403 C 0.70497 0.61489 1.0106 0.0
C404 C 0.684 0.56645 1.01027 0.0
C405 C 0.70982 0.55529 1.00735 0.0
H406 H 0.75233 0.56569 1.005 0.0
H407 H 0.70314 0.63817 1.01246 0.0
C408 C 0.79395 0.71731 0.08204 0.0
N409 N 0.77416 0.70122 0.06737 0.0
C410 C 0.78763 0.73607 0.10616 0.0
C411 C 0.74067 0.72191 0.09917 0.0
C412 C 0.74787 0.70352 0.0752 0.0
C413 C 0.76068 0.73844 0.11508 0.0
H414 H 0.81467 0.71534 0.07532 0.0
H415 H 0.73254 0.69039 0.06323 0.0
C416 C 0.81103 0.60403 0.96766 0.0
N417 N 0.85061 0.56868 0.94381 0.0
C418 C 0.83319 0.61596 0.95381 0.0
C419 C 0.80907 0.5741 0.96942 0.0
C420 C 0.85294 0.59773 0.94182 0.0
C421 C 0.82929 0.5566 0.95725 0.0
C422 C 0.84349 0.68438 0.01952 0.0
C423 C 0.85939 0.69263 0.99698 0.0
C424 C 0.85528 0.68278 0.04572 0.0
C425 C 0.88687 0.69901 1.00104 0.0
C426 C 0.88284 0.68929 0.04891 0.0
N427 N 0.89793 0.69721 0.02669 0.0
C428 C 0.80271 0.71409 0.95477 0.0
C429 C 0.7994 0.67008 0.92427 0.0
C430 C 0.80854 0.72985 0.93183 0.0
N431 N 0.79846 0.68473 0.95069 0.0
C432 C 0.80544 0.68497 0.90071 0.0
C433 C 0.81002 0.71535 0.90427 0.0
H434 H 0.80178 0.72526 0.97597 0.0
H435 H 0.79579 0.64675 0.92147 0.0
C436 C 0.83636 0.59123 0.04143 0.0
N437 N 0.841 0.613 0.0248 0.0
C438 C 0.85714 0.57353 0.04722 0.0
C439 C 0.88725 0.60113 0.01898 0.0
C440 C 0.86582 0.61792 1.01333 0.0
C441 C 0.88303 0.57832 0.03587 0.0
H442 H 0.81638 0.58737 0.04996 0.0
H443 H 0.8691 0.63472 0.99957 0.0
O444 O 0.75639 0.67157 1.00426 0.0
O445 O 0.78098 0.63143 0.04447 0.0
O446 O 0.79181 0.6217 0.98006 0.0
O447 O 0.81652 0.67822 0.01594 0.0
H448 H 0.72223 0.7138 1.00777 0.0
H449 H 0.74787 0.63724 0.95639 0.0
H450 H 0.68811 0.71988 0.97161 0.0
H451 H 0.71342 0.6447 0.92118 0.0
H452 H 0.80253 0.65007 0.13735 0.0
H453 H 0.7316 0.62775 0.06589 0.0
H454 H 0.81539 0.64249 0.0865 0.0
H455 H 0.72021 0.6353 0.1171 0.0
H456 H 0.66229 0.6063 1.01351 0.0
H457 H 0.71247 0.53212 1.0062 0.0
H458 H 0.80366 0.74844 0.11782 0.0
H459 H 0.7197 0.72246 0.10567 0.0
H460 H 0.83551 0.63915 0.95291 0.0
H461 H 0.79227 0.56447 0.98023 0.0
H462 H 0.87026 0.60673 0.93121 0.0
H463 H 0.82805 0.53342 0.95856 0.0
H464 H 0.85069 0.69386 0.97651 0.0
H465 H 0.84338 0.67616 0.0633 0.0
H466 H 0.89942 0.70532 0.98376 0.0
H467 H 0.89224 0.68796 0.06903 0.0
H468 H 0.8115 0.75326 0.93562 0.0
H469 H 0.80674 0.67275 0.88 0.0
H470 H 0.85289 0.55605 0.06018 0.0
H471 H 0.90695 0.60617 1.01031 0.0
Li472 Li 0.86698 0.04075 0.29898 0.0
Li473 Li 0.90171 1.01058 0.31564 0.0
Li474 Li 0.90089 0.01999 0.26424 0.0
Li475 Li 0.86754 0.98726 0.28392 0.0
C476 C 0.91763 0.07525 0.30482 0.0
N477 N 0.9406 0.1306 0.31718 0.0
C478 C 0.92457 0.08555 0.33262 0.0
C479 C 0.9228 0.09297 0.28325 0.0
C480 C 0.93603 0.11363 0.33846 0.0
C481 C 0.9343 0.12092 0.28994 0.0
C482 C 0.85862 1.00546 0.35065 0.0
C483 C 0.86172 0.97791 0.39048 0.0
N484 N 0.85247 1.0008 0.40781 0.0
C485 C 0.84902 0.02865 0.36882 0.0
C486 C 0.86488 0.97981 0.3615 0.0
C487 C 0.84609 0.02588 0.39766 0.0
C488 C 0.81952 0.07088 0.29662 0.0
N489 N 0.84431 0.07297 0.30847 0.0
C490 C 0.83579 0.1205 0.33126 0.0
C491 C 0.85246 0.09694 0.32595 0.0
C492 C 0.81046 0.11931 0.31849 0.0
C493 C 0.80226 0.0939 0.30127 0.0
H494 H 0.81332 0.05145 0.28313 0.0
H495 H 0.87184 0.09785 0.33587 0.0
C496 C 0.94876 0.99163 0.33782 0.0
N497 N 0.92637 1.00659 0.34532 0.0
C498 C 0.96869 0.98922 0.35765 0.0
C499 C 0.94203 1.01725 0.39279 0.0
C500 C 0.92276 0.0194 0.3722 0.0
C501 C 0.96559 1.00238 0.38552 0.0
H502 H 0.95139 0.98201 0.31622 0.0
H503 H 0.90516 0.03173 0.37764 0.0
C504 C 0.85319 0.03434 0.23921 0.0
N505 N 0.83727 0.06517 0.19639 0.0
C506 C 0.83764 0.02051 0.21702 0.0
C507 C 0.86046 0.06386 0.23972 0.0
C508 C 0.82986 0.03647 0.19552 0.0
C509 C 0.85225 0.07908 0.21787 0.0
C510 C 0.90888 0.95467 0.27175 0.0
C511 C 0.91189 0.94548 0.24293 0.0
C512 C 0.90708 0.93417 0.29118 0.0
C513 C 0.91268 0.91576 0.23395 0.0
C514 C 0.90793 0.90465 0.28136 0.0
N515 N 0.91066 0.89614 0.25319 0.0
C516 C 0.94907 0.03536 0.23737 0.0
C517 C 0.91391 0.01893 0.20569 0.0
C518 C 0.96686 0.03855 0.2148 0.0
N519 N 0.92317 0.02578 0.23243 0.0
C520 C 0.93098 0.02188 0.18249 0.0
C521 C 0.95792 0.03151 0.18694 0.0
H522 H 0.95597 0.04018 0.2589 0.0
H523 H 0.89342 1.0107 0.20232 0.0
C524 C 0.83246 0.93908 0.29386 0.0
N525 N 0.84581 0.95267 0.27357 0.0
C526 C 0.81636 0.91398 0.28643 0.0
C527 C 0.82808 0.91717 0.23734 0.0
C528 C 0.84394 0.94227 0.24573 0.0
C529 C 0.81385 0.90282 0.25783 0.0
H530 H 0.83406 0.9479 0.31579 0.0
H531 H 0.85482 0.9535 0.23002 0.0
O532 O 0.90672 0.04763 0.29867 0.0
O533 O 0.86155 1.00777 0.32235 0.0
O534 O 0.86113 0.01893 0.26029 0.0
O535 O 0.90743 0.9836 0.28089 0.0
H536 H 0.92081 0.07218 0.34957 0.0
H537 H 0.9182 0.08522 0.2615 0.0
H538 H 0.94128 0.12194 0.35992 0.0
H539 H 0.93833 0.13487 0.27346 0.0
H540 H 0.86664 0.95826 0.3992 0.0
H541 H 0.84393 0.04858 0.36076 0.0
H542 H 0.87235 0.96167 0.34775 0.0
H543 H 0.83876 0.04368 0.41199 0.0
H544 H 0.84261 0.1394 0.34521 0.0
H545 H 0.78292 0.0921 0.29095 0.0
H546 H 0.9866 0.97769 0.35108 0.0
H547 H 0.93848 0.02718 0.41416 0.0
H548 H 0.83173 0.99768 0.21636 0.0
H549 H 0.87205 0.07497 0.25696 0.0
H550 H 0.81791 0.02603 0.17816 0.0
H551 H 0.85774 0.10196 0.21804 0.0
H552 H 0.91331 0.9611 0.22763 0.0
H553 H 0.90492 0.94099 0.31358 0.0
H554 H 0.91482 0.9083 0.21168 0.0
H555 H 0.9064 0.88852 0.29613 0.0
H556 H 0.98753 0.04587 0.21909 0.0
H557 H 0.9232 1.01667 0.16133 0.0
H558 H 0.80549 0.90376 0.30287 0.0
H559 H 0.82699 0.90908 0.21512 0.0
Li560 Li 0.28059 0.17177 0.53854 0.0
Li561 Li 0.26033 0.12879 0.50991 0.0
Li562 Li 0.30916 0.13512 0.51743 0.0
Li563 Li 0.29076 0.16774 0.48671 0.0
C564 C 0.2881 0.1259 0.57169 0.0
N565 N 0.30483 0.11666 0.62487 0.0
C566 C 0.27327 0.10681 0.58736 0.0
C567 C 0.31144 0.14026 0.58302 0.0
C568 C 0.28205 0.10245 0.61423 0.0
C569 C 0.31958 0.1353 0.60995 0.0
C570 C 0.23691 0.19058 0.5194 0.0
C571 C 0.22294 0.23981 0.53 0.0
N572 N 0.20333 0.23041 0.54752 0.0
C573 C 0.21657 0.18139 0.53745 0.0
C574 C 0.24011 0.22 0.51557 0.0
C575 C 0.19981 0.20186 0.55148 0.0
C576 C 0.28476 0.22586 0.57504 0.0
N577 N 0.27382 0.19822 0.5718 0.0
C578 C 0.25261 0.2055 0.61736 0.0
C579 C 0.25778 0.188 0.59223 0.0
C580 C 0.26385 0.23399 0.62155 0.0
C581 C 0.27997 0.24426 0.59992 0.0
H582 H 0.29728 0.23355 0.55837 0.0
H583 H 0.24886 0.1662 0.58897 0.0
C584 C 0.23111 0.07593 0.51758 0.0
N585 N 0.22939 0.10207 0.50734 0.0
C586 C 0.2084 0.05694 0.51828 0.0
C587 C 0.1825 0.09217 0.49813 0.0
C588 C 0.20576 0.11029 0.49743 0.0
C589 C 0.18358 0.06522 0.50892 0.0
H590 H 0.25006 0.07002 0.52564 0.0
H591 H 0.20484 0.13119 0.4895 0.0
C592 C 0.34029 0.19046 0.5195 0.0
N593 N 0.39138 0.21669 0.52068 0.0
C594 C 0.35515 0.19178 0.49441 0.0
C595 C 0.35132 0.20282 0.54515 0.0
C596 C 0.38096 0.20505 0.49547 0.0
C597 C 0.37722 0.21586 0.54531 0.0
C598 C 0.30642 0.10249 0.46947 0.0
C599 C 0.331 0.10964 0.45672 0.0
C600 C 0.29904 0.07337 0.47168 0.0
C601 C 0.34796 0.08747 0.44666 0.0
C602 C 0.31656 0.05183 0.46134 0.0
N603 N 0.34046 0.05926 0.44918 0.0
C604 C 0.33367 0.08609 0.53348 0.0
C605 C 0.3656 0.12178 0.52037 0.0
C606 C 0.35421 0.06851 0.54008 0.0
N607 N 0.3396 0.11238 0.52417 0.0
C608 C 0.38678 0.10492 0.52675 0.0
C609 C 0.3812 0.07809 0.53714 0.0
H610 H 0.31287 0.07878 0.53588 0.0
H611 H 0.3701 0.14232 0.51248 0.0
C612 C 0.3019 0.21795 0.45871 0.0
N613 N 0.29803 0.18857 0.45422 0.0
C614 C 0.30915 0.23397 0.4363 0.0
C615 C 0.3087 0.18927 0.40489 0.0
C616 C 0.30116 0.1741 0.42792 0.0
C617 C 0.31308 0.21966 0.40893 0.0
H618 H 0.29975 0.22896 0.47985 0.0
H619 H 0.29822 0.15069 0.42486 0.0
O620 O 0.27975 0.13037 0.54534 0.0
O621 O 0.25411 0.17099 0.50627 0.0
O622 O 0.31475 0.17809 0.51888 0.0
O623 O 0.28995 0.12394 0.4803 0.0
H624 H 0.25512 0.09555 0.57886 0.0
H625 H 0.3232 0.15489 0.57107 0.0
H626 H 0.27075 0.08776 0.62662 0.0
H627 H 0.33764 0.14624 0.61896 0.0
H628 H 0.22526 0.26267 0.52733 0.0
H629 H 0.21411 0.15877 0.54104 0.0
H630 H 0.25579 0.2275 0.50178 0.0
H631 H 0.18412 0.19508 0.56567 0.0
H632 H 0.23971 0.19691 0.6333 0.0
H633 H 0.28907 0.26606 0.60239 0.0
H634 H 0.21006 0.03631 0.52663 0.0
H635 H 0.16383 0.09912 0.49025 0.0
H636 H 0.34705 0.18236 0.47436 0.0
H637 H 0.34 0.2025 0.56473 0.0
H638 H 0.39273 0.20605 0.47623 0.0
H639 H 0.38602 0.22543 0.56502 0.0
H640 H 0.33705 0.13207 0.45495 0.0
H641 H 0.2801 0.06749 0.4815 0.0
H642 H 0.36714 0.09269 0.43694 0.0
H643 H 0.31118 0.0292 0.46305 0.0
H644 H 0.34901 0.04758 0.54726 0.0
H645 H 0.40733 0.11302 0.52402 0.0
H646 H 0.31137 0.2574 0.44041 0.0
H647 H 0.31136 0.1773 0.38422 0.0
Li648 Li 0.40242 0.51362 0.81421 0.0
Li649 Li 0.3698 0.54224 0.79694 0.0
Li650 Li 0.36845 0.49011 0.78292 0.0
Li651 Li 0.40391 0.52283 0.76299 0.0
C652 C 0.36468 0.50513 0.84875 0.0
N653 N 0.37107 0.49396 0.90405 0.0
C654 C 0.36746 0.52809 0.87038 0.0
C655 C 0.36504 0.47649 0.85529 0.0
C656 C 0.37069 0.522 0.89819 0.0
C657 C 0.36832 0.4713 0.88336 0.0
C658 C 0.41089 0.58065 0.80039 0.0
C659 C 0.42013 0.62594 0.78074 0.0
N660 N 0.41311 0.64077 0.8059 0.0
C661 C 0.40388 0.59639 0.8261 0.0
C662 C 0.41914 0.59556 0.77753 0.0
C663 C 0.40507 0.62674 0.82843 0.0
C664 C 0.43637 0.48278 0.84699 0.0
N665 N 0.42638 0.5092 0.84454 0.0
C666 C 0.45319 0.53102 0.8832 0.0
C667 C 0.43436 0.5331 0.86217 0.0
C668 C 0.46425 0.50415 0.88581 0.0
C669 C 0.45538 0.47972 0.86763 0.0
H670 H 0.42993 0.46414 0.83265 0.0
H671 H 0.42641 0.5539 0.85968 0.0
C672 C 0.32921 0.57587 0.82661 0.0
N673 N 0.34707 0.57488 0.80458 0.0
C674 C 0.31251 0.59938 0.83217 0.0
C675 C 0.33244 0.62008 0.7919 0.0
C676 C 0.34873 0.59626 0.78716 0.0
C677 C 0.31416 0.62199 0.8148 0.0
H678 H 0.32768 0.55826 0.8397 0.0
H679 H 0.36258 0.59469 0.76936 0.0
C680 C 0.41073 0.4576 0.76832 0.0
N681 N 0.41477 0.40075 0.74436 0.0
C682 C 0.42093 0.45164 0.74081 0.0
C683 C 0.40283 0.43459 0.78372 0.0
C684 C 0.42277 0.42277 0.72906 0.0
C685 C 0.40493 0.40602 0.77121 0.0
C686 C 0.34162 0.53099 0.74854 0.0
C687 C 0.31696 0.52339 0.76084 0.0
C688 C 0.3424 0.54933 0.72711 0.0
C689 C 0.2934 0.53434 0.7515 0.0
C690 C 0.31839 0.55982 0.71836 0.0
N691 N 0.2946 0.55218 0.73064 0.0
C692 C 0.32535 0.44898 0.78951 0.0
C693 C 0.34808 0.44231 0.74518 0.0
C694 C 0.30742 0.4256 0.78125 0.0
N695 N 0.3453 0.45673 0.77158 0.0
C696 C 0.33083 0.41847 0.73623 0.0
C697 C 0.31018 0.41008 0.75439 0.0
H698 H 0.32302 0.46131 0.81001 0.0
H699 H 0.36355 0.44948 0.73098 0.0
C700 C 0.45289 0.53416 0.73556 0.0
N701 N 0.42626 0.52772 0.73122 0.0
C702 C 0.47035 0.53672 0.71261 0.0
C703 C 0.43262 0.52572 0.6812 0.0
C704 C 0.41586 0.52348 0.70478 0.0
C705 C 0.46026 0.53222 0.68501 0.0
H706 H 0.46055 0.53713 0.75689 0.0
H707 H 0.39464 0.51796 0.70202 0.0
O708 O 0.36232 0.51068 0.82126 0.0
O709 O 0.40965 0.55087 0.79755 0.0
O710 O 0.40855 0.48577 0.78008 0.0
O711 O 0.36496 0.52112 0.75792 0.0
H712 H 0.36755 0.55039 0.86572 0.0
H713 H 0.36302 0.45845 0.83887 0.0
H714 H 0.37303 0.53956 0.91509 0.0
H715 H 0.36875 0.44924 0.88869 0.0
H716 H 0.42638 0.63772 0.76319 0.0
H717 H 0.39696 0.58535 0.84387 0.0
H718 H 0.42446 0.58388 0.75741 0.0
H719 H 0.39945 0.63915 0.84812 0.0
H720 H 0.45959 0.55037 0.89678 0.0
H721 H 0.46315 0.45853 0.86928 0.0
H722 H 0.29841 0.59985 0.84981 0.0
H723 H 0.3337 0.63649 0.77737 0.0
H724 H 0.42732 0.46907 0.72859 0.0
H725 H 0.39477 0.43872 0.80495 0.0
H726 H 0.43055 0.41787 0.70777 0.0
H727 H 0.39866 0.38804 0.78282 0.0
H728 H 0.31607 0.50954 0.77771 0.0
H729 H 0.36137 0.5557 0.71761 0.0
H730 H 0.27418 0.52876 0.76093 0.0
H731 H 0.31868 0.57414 0.70188 0.0
H732 H 0.29146 0.41975 0.79562 0.0
H733 H 0.33323 0.40709 0.71523 0.0
H734 H 0.49158 0.54165 0.71634 0.0
H735 H 0.42406 0.5225 0.66024 0.0
Li736 Li 0.78956 0.42107 0.52991 0.0
Li737 Li 0.76778 0.39004 0.56321 0.0
Li738 Li 0.76167 0.3779 0.51016 0.0
Li739 Li 0.73949 0.41919 0.53689 0.0
C740 C 0.82087 0.37098 0.52969 0.0
N741 N 0.87329 0.35352 0.52332 0.0
C742 C 0.83738 0.37165 0.55325 0.0
C743 C 0.83093 0.36085 0.50293 0.0
C744 C 0.86385 0.36293 0.54959 0.0
C745 C 0.8575 0.35227 0.50013 0.0
C746 C 0.77121 0.44406 0.59221 0.0
C747 C 0.75482 0.44942 0.64044 0.0
N748 N 0.7778 0.46498 0.64849 0.0
C749 C 0.79459 0.46025 0.60092 0.0
C750 C 0.75108 0.43874 0.61207 0.0
C751 C 0.79756 0.47059 0.62948 0.0
C752 C 0.81874 0.46469 0.50356 0.0
N753 N 0.82035 0.44568 0.52319 0.0
C754 C 0.86607 0.46153 0.53262 0.0
C755 C 0.84327 0.4442 0.53804 0.0
C756 C 0.86522 0.48067 0.51179 0.0
C757 C 0.84115 0.48205 0.49712 0.0
H758 H 0.80009 0.46638 0.49273 0.0
H759 H 0.84377 0.42988 0.55437 0.0
C760 C 0.75959 0.34645 0.59963 0.0
N761 N 0.77325 0.37216 0.59718 0.0
C762 C 0.76475 0.33052 0.62208 0.0
C763 C 0.79741 0.36813 0.63961 0.0
C764 C 0.79181 0.38321 0.61668 0.0
C765 C 0.78403 0.34124 0.6423 0.0
H766 H 0.74521 0.3379 0.58367 0.0
H767 H 0.80308 0.40319 0.61394 0.0
C768 C 0.76603 0.42139 0.47309 0.0
N769 N 0.77688 0.42623 0.41659 0.0
C770 C 0.74758 0.43391 0.4568 0.0
C771 C 0.79012 0.41165 0.46069 0.0
C772 C 0.75339 0.43607 0.42825 0.0
C773 C 0.79522 0.41421 0.4321 0.0
C774 C 0.70712 0.3738 0.54355 0.0
C775 C 0.69186 0.36608 0.51925 0.0
C776 C 0.69421 0.37897 0.56983 0.0
C777 C 0.66381 0.36411 0.52162 0.0
C778 C 0.66613 0.37678 0.57132 0.0
N779 N 0.65163 0.36949 0.54738 0.0
C780 C 0.77113 0.32197 0.48117 0.0
C781 C 0.74539 0.35224 0.45611 0.0
C782 C 0.77096 0.30053 0.45793 0.0
N783 N 0.75889 0.34743 0.47961 0.0
C784 C 0.74506 0.33169 0.43236 0.0
C785 C 0.7582 0.30564 0.43302 0.0
H786 H 0.78146 0.31857 0.50025 0.0
H787 H 0.73508 0.37218 0.45566 0.0
C788 C 0.70365 0.46274 0.55935 0.0
N789 N 0.70817 0.44222 0.53724 0.0
C790 C 0.68153 0.48033 0.55937 0.0
C791 C 0.66926 0.45578 0.51364 0.0
C792 C 0.69153 0.43851 0.51459 0.0
C793 C 0.66406 0.47718 0.53619 0.0
H794 H 0.71721 0.46556 0.577 0.0
H795 H 0.69559 0.42216 0.49718 0.0
O796 O 0.79477 0.3792 0.53298 0.0
O797 O 0.76807 0.43356 0.56437 0.0
O798 O 0.76046 0.41865 0.50098 0.0
O799 O 0.73455 0.37647 0.54157 0.0
H800 H 0.83001 0.37922 0.57412 0.0
H801 H 0.81837 0.3593 0.48449 0.0
H802 H 0.87688 0.36364 0.56765 0.0
H803 H 0.86552 0.3445 0.47952 0.0
H804 H 0.73946 0.44531 0.65606 0.0
H805 H 0.81027 0.46478 0.5858 0.0
H806 H 0.73285 0.42633 0.60567 0.0
H807 H 0.81559 0.48307 0.63654 0.0
H808 H 0.88409 0.46016 0.54477 0.0
H809 H 0.83966 0.49613 0.48058 0.0
H810 H 0.75402 0.30983 0.62343 0.0
H811 H 0.8128 0.37685 0.65444 0.0
H812 H 0.72896 0.44187 0.46605 0.0
H813 H 0.80485 0.40262 0.47314 0.0
H814 H 0.73924 0.44561 0.41538 0.0
H815 H 0.81379 0.40673 0.42227 0.0
H816 H 0.70156 0.36198 0.49876 0.0
H817 H 0.70576 0.38458 0.58887 0.0
H818 H 0.65173 0.35837 0.50296 0.0
H819 H 0.65585 0.38085 0.5915 0.0
H820 H 0.78112 0.28054 0.45915 0.0
H821 H 0.73457 0.33605 0.41362 0.0
H822 H 0.67791 0.49585 0.57766 0.0
H823 H 0.65629 0.45246 0.49541 0.0
Li824 Li 0.66848 1.00291 0.78523 0.0
Li825 Li 0.63567 0.0383 0.80558 0.0
Li826 Li 0.63724 0.02251 0.7527 0.0
Li827 Li 0.67242 0.05569 0.77696 0.0
C828 C 0.6206 0.97022 0.78526 0.0
N829 N 0.60528 0.91224 0.78637 0.0
C830 C 0.60661 0.96111 0.80867 0.0
C831 C 0.6264 0.94987 0.76224 0.0
C832 C 0.59914 0.9317 0.80888 0.0
C833 C 0.61861 0.92066 0.76324 0.0
C834 C 0.67608 0.04248 0.84177 0.0
C835 C 0.67373 0.07442 0.88536 0.0
N836 N 0.67739 0.05149 0.90017 0.0
C837 C 0.68004 0.01928 0.85742 0.0
C838 C 0.67312 0.07033 0.85583 0.0
C839 C 0.68058 0.02427 0.88693 0.0
C840 C 0.71496 0.9714 0.77947 0.0
N841 N 0.68973 0.97067 0.7909 0.0
C842 C 0.69764 0.9259 0.80934 0.0
C843 C 0.68096 0.94871 0.80596 0.0
C844 C 0.72363 0.92589 0.79732 0.0
C845 C 0.73231 0.94912 0.7824 0.0
H846 H 0.7216 0.98935 0.768 0.0
H847 H 0.66124 0.94905 0.81578 0.0
C848 C 0.59708 0.07232 0.8375 0.0
N849 N 0.61228 0.04864 0.8374 0.0
C850 C 0.57958 0.08003 0.86016 0.0
C851 C 0.59363 0.03886 0.88225 0.0
C852 C 0.61092 0.03203 0.85924 0.0
C853 C 0.57762 0.06316 0.88293 0.0
H854 H 0.59825 0.08504 0.8198 0.0
H855 H 0.62301 1.01319 0.85864 0.0
C856 C 0.68371 1.00949 0.72242 0.0
N857 N 0.6968 0.98763 0.66765 0.0
C858 C 0.68996 0.02836 0.70208 0.0
C859 C 0.6846 0.97949 0.71499 0.0
C860 C 0.69638 1.0169 0.67448 0.0
C861 C 0.69113 0.96886 0.68718 0.0
C862 C 0.63404 0.0907 0.76782 0.0
C863 C 0.62832 0.09755 0.74076 0.0
C864 C 0.64092 0.11299 0.78911 0.0
C865 C 0.62998 0.1266 0.73533 0.0
C866 C 0.64241 0.14175 0.78284 0.0
N867 N 0.63697 0.14791 0.7563 0.0
C868 C 0.59359 0.99333 0.72201 0.0
C869 C 0.62022 0.02344 0.69456 0.0
C870 C 0.57654 0.98495 0.6992 0.0
N871 N 0.61515 1.01204 0.71937 0.0
C872 C 0.60325 1.01619 0.67134 0.0
C873 C 0.581 0.99657 0.67338 0.0
H874 H 0.5892 0.98519 0.74202 0.0
H875 H 0.63696 0.03886 0.69294 0.0
C876 C 0.71619 0.09359 0.79625 0.0
N877 N 0.69885 0.08715 0.77435 0.0
C878 C 0.73629 0.11563 0.79544 0.0
C879 C 0.72068 0.12384 0.74935 0.0
C880 C 0.70067 0.1019 0.7512 0.0
C881 C 0.7389 0.13077 0.77159 0.0
H882 H 0.71465 0.0814 0.81431 0.0
H883 H 0.68662 0.09669 0.73414 0.0
O884 O 0.62835 0.99891 0.7848 0.0
O885 O 0.67509 0.03793 0.81286 0.0
O886 O 0.6773 0.02038 0.74955 0.0
O887 O 0.63289 0.06234 0.77345 0.0
H888 H 0.60152 0.97654 0.82648 0.0
H889 H 0.63655 0.95662 0.74368 0.0
H890 H 0.58842 0.92435 0.82692 0.0
H891 H 0.62306 0.9047 0.74559 0.0
H892 H 0.67128 0.09583 0.8965 0.0
H893 H 0.68247 0.99763 0.84696 0.0
H894 H 0.67026 0.08858 0.84409 0.0
H895 H 0.68347 1.00647 0.8993 0.0
H896 H 0.69046 0.90873 0.82162 0.0
H897 H 0.75224 0.94992 0.77289 0.0
H898 H 0.5675 0.09883 0.85974 0.0
H899 H 0.59221 0.0247 0.89887 0.0
H900 H 0.68954 0.0516 0.70741 0.0
H901 H 0.68054 0.96452 0.73052 0.0
H902 H 0.70101 0.03129 0.65849 0.0
H903 H 0.6918 0.94569 0.68115 0.0
H904 H 0.62268 0.08066 0.72413 0.0
H905 H 0.64525 0.1081 0.8102 0.0
H906 H 0.62572 0.13219 0.71444 0.0
H907 H 0.6479 0.15918 0.79908 0.0
H908 H 0.55971 0.96983 0.702 0.0
H909 H 0.60705 0.02673 0.65241 0.0
H910 H 0.74996 0.12042 0.81299 0.0
H911 H 0.72179 0.13543 0.73079 0.0
Li912 Li 0.03588 0.25243 0.89788 0.0
Li913 Li 1.01039 0.27143 0.9419 0.0
Li914 Li 1.01634 0.21952 0.9303 0.0
Li915 Li 0.98511 0.24396 0.90389 0.0
C916 C 0.06042 0.241 0.95729 0.0
N917 N 0.09047 0.2177 0.99679 0.0
C918 C 0.05348 0.2455 0.98599 0.0
C919 C 0.08269 0.22474 0.94867 0.0
C920 C 0.06892 0.23352 1.00564 0.0
C921 C 0.09761 0.21313 0.96898 0.0
C922 C 1.00829 0.31085 0.9073 0.0
C923 C 0.98827 0.35616 0.92403 0.0
N924 N 1.01235 0.37051 0.92049 0.0
C925 C 0.03281 0.32606 0.90373 0.0
C926 C 0.98578 0.32602 0.91741 0.0
C927 C 0.03446 0.35622 0.91053 0.0
C928 C 0.05839 0.26051 0.84445 0.0
N929 N 0.06426 0.26003 0.87218 0.0
C930 C 0.11082 0.27088 0.86307 0.0
C931 C 0.0898 0.26522 0.8818 0.0
C932 C 0.10535 0.27165 0.83434 0.0
C933 C 0.07877 0.26636 0.82502 0.0
H934 H 0.03785 0.25635 0.83747 0.0
H935 H 0.0938 0.26522 0.90405 0.0
C936 C 0.98898 0.31218 0.98613 0.0
N937 N 1.01139 0.30389 0.97111 0.0
C938 C 0.98976 0.33769 1.00497 0.0
C939 C 0.03696 0.3448 0.9937 0.0
C940 C 0.03525 0.31926 0.97503 0.0
C941 C 1.01384 0.35477 1.00841 0.0
H942 H 0.97028 0.29956 0.98282 0.0
H943 H 0.05282 0.31212 0.96294 0.0
C944 C 0.01669 0.18832 0.87838 0.0
N945 N 0.02447 0.13103 0.85814 0.0
C946 C 0.99795 0.16649 0.88466 0.0
C947 C 0.03933 0.18106 0.8617 0.0
C948 C 1.00228 0.13764 0.87428 0.0
C949 C 0.0429 0.15195 0.85168 0.0
C950 C 0.95666 0.2313 0.94669 0.0
C951 C 0.94832 0.20219 0.94754 0.0
C952 C 0.93743 0.25235 0.94648 0.0
C953 C 0.92081 0.19461 0.9481 0.0
C954 C 0.91012 0.24388 0.94699 0.0
N955 N 0.90244 0.21543 0.94779 0.0
C956 C 1.01481 0.18376 0.97436 0.0
C957 C 0.04343 0.16624 0.93654 0.0
C958 C 0.02313 0.16261 0.99062 0.0
N959 N 0.02509 0.18539 0.94789 0.0
C960 C 0.05202 0.14439 0.95196 0.0
C961 C 0.04222 0.14285 0.97956 0.0
H962 H 1.0009 0.19968 0.9833 0.0
H963 H 0.0524 0.16864 0.91608 0.0
C964 C 0.9453 0.26563 0.87071 0.0
N965 N 0.95223 0.24126 0.88182 0.0
C966 C 0.92279 0.26512 0.85341 0.0
C967 C 0.91466 0.21436 0.85903 0.0
C968 C 0.93736 0.21587 0.87634 0.0
C969 C 0.90723 0.23919 0.84708 0.0
H970 H 0.95756 0.28545 0.87482 0.0
H971 H 0.94316 0.19667 0.88519 0.0
O972 O 0.04497 0.2517 0.93766 0.0
O973 O 1.00656 0.28119 0.90186 0.0
O974 O 1.01287 0.2167 0.88828 0.0
O975 O 0.98349 0.2391 0.94567 0.0
H976 H 0.0361 0.2577 0.993 0.0
H977 H 0.08806 0.22059 0.9265 0.0
H978 H 0.06367 0.23665 0.0279 0.0
H979 H 0.11476 0.2003 0.9626 0.0
H980 H 0.97109 0.36813 0.93213 0.0
H981 H 0.05049 0.31469 0.89614 0.0
H982 H 0.96672 0.31457 0.92064 0.0
H983 H 0.05335 0.36824 0.90803 0.0
H984 H 0.13107 0.27508 0.87102 0.0
H985 H 0.07386 0.26649 0.80295 0.0
H986 H 0.97143 0.34466 0.01577 0.0
H987 H 0.05603 0.35702 0.99607 0.0
H988 H 0.98051 0.1717 0.89779 0.0
H989 H 0.05403 0.1977 0.85665 0.0
H990 H 0.98803 0.1205 0.87913 0.0
H991 H 0.06036 0.14599 0.8388 0.0
H992 H 0.96289 0.18557 0.94754 0.0
H993 H 0.94351 0.2749 0.9454 0.0
H994 H 0.91407 0.17215 0.94867 0.0
H995 H 0.89503 0.25991 0.94662 0.0
H996 H 1.01502 0.16194 1.01183 0.0
H997 H 0.06691 0.12962 0.94287 0.0
H998 H 0.91801 0.28472 0.84444 0.0
H999 H 0.90307 0.194 0.85506 0.0
Li1000 Li 0.53471 0.75387 0.39717 0.0
Li1001 Li 0.50933 0.77368 0.4406 0.0
Li1002 Li 0.51623 0.72119 0.43124 0.0
Li1003 Li 0.48504 0.74388 0.40287 0.0
C1004 C 0.56022 0.74512 0.45705 0.0
N1005 N 0.59151 0.72437 0.49712 0.0
C1006 C 0.55356 0.75046 0.48577 0.0
C1007 C 0.58286 0.72936 0.44871 0.0
C1008 C 0.56964 0.73978 0.5057 0.0
C1009 C 0.59839 0.71901 0.46929 0.0
C1010 C 0.49919 0.81039 0.40449 0.0
C1011 C 0.46707 0.84812 0.41065 0.0
N1012 N 0.48763 0.86839 0.41535 0.0
C1013 C 0.52001 0.83162 0.40913 0.0
C1014 C 0.47251 0.8187 0.40509 0.0
C1015 C 0.51375 0.86082 0.41469 0.0
C1016 C 0.56434 0.7849 0.35803 0.0
N1017 N 0.56301 0.76016 0.37095 0.0
C1018 C 0.60254 0.7434 0.34614 0.0
C1019 C 0.5814 0.73941 0.36525 0.0
C1020 C 0.6046 0.76888 0.33266 0.0
C1021 C 0.58519 0.78984 0.33888 0.0
H1022 H 0.54922 0.80082 0.36255 0.0
H1023 H 0.57955 0.71971 0.37549 0.0
C1024 C 0.48714 0.81549 0.48348 0.0
N1025 N 0.50981 0.80688 0.46913 0.0
C1026 C 0.48785 0.84072 0.50269 0.0
C1027 C 0.53533 0.84741 0.49262 0.0
C1028 C 0.53374 0.822 0.47373 0.0
C1029 C 0.51214 0.85721 0.50726 0.0
H1030 H 0.46837 0.80318 0.47966 0.0
H1031 H 0.55152 0.81469 0.46211 0.0
C1032 C 0.50311 0.69066 0.37698 0.0
N1033 N 0.48137 0.63862 0.35124 0.0
C1034 C 0.48435 0.67433 0.3915 0.0
C1035 C 0.51088 0.68055 0.3494 0.0
C1036 C 0.47355 0.64809 0.37811 0.0
C1037 C 0.49966 0.65416 0.33675 0.0
C1038 C 0.45639 0.73573 0.45073 0.0
C1039 C 0.44738 0.70916 0.45963 0.0
C1040 C 0.43795 0.75707 0.448 0.0
C1041 C 0.42001 0.70433 0.46541 0.0
C1042 C 0.41074 0.7514 0.45395 0.0
N1043 N 0.4024 0.72536 0.46245 0.0
C1044 C 0.51847 0.68732 0.47664 0.0
C1045 C 0.54071 0.66689 0.43514 0.0
C1046 C 0.52718 0.66539 0.49169 0.0
N1047 N 0.52547 0.68782 0.44897 0.0
C1048 C 0.54969 0.64432 0.44938 0.0
C1049 C 0.54314 0.64361 0.47813 0.0
H1050 H 0.50671 0.70447 0.48724 0.0
H1051 H 0.54644 0.66813 0.41326 0.0
C1052 C 0.45454 0.75394 0.35657 0.0
N1053 N 0.45323 0.73853 0.3793 0.0
C1054 C 0.43357 0.75171 0.33717 0.0
C1055 C 0.40996 0.71755 0.36455 0.0
C1056 C 0.43162 0.7202 0.38336 0.0
C1057 C 0.41091 0.73328 0.34095 0.0
H1058 H 0.47204 0.768 0.35344 0.0
H1059 H 0.43118 0.7074 0.40099 0.0
O1060 O 0.54421 0.75453 0.43716 0.0
O1061 O 0.50488 0.7816 0.39993 0.0
O1062 O 0.51395 0.7164 0.38966 0.0
O1063 O 0.48314 0.74087 0.44506 0.0
H1064 H 0.53591 0.76229 0.49258 0.0
H1065 H 0.5882 0.72491 0.42657 0.0
H1066 H 0.56463 0.74359 0.52799 0.0
H1067 H 0.61587 0.70662 0.46312 0.0
H1068 H 0.4465 0.85483 0.41128 0.0
H1069 H 0.54077 0.82558 0.40906 0.0
H1070 H 0.45614 0.80263 0.40132 0.0
H1071 H 0.52965 0.87743 0.41863 0.0
H1072 H 0.61702 0.72665 0.34178 0.0
H1073 H 0.5863 0.81002 0.32935 0.0
H1074 H 0.46935 0.84782 0.51304 0.0
H1075 H 0.55441 0.85954 0.49543 0.0
H1076 H 0.47821 0.68185 0.41285 0.0
H1077 H 0.52546 0.69296 0.33793 0.0
H1078 H 0.45897 0.63524 0.38909 0.0
H1079 H 0.5055 0.64604 0.31541 0.0
H1080 H 0.46135 0.69242 0.46203 0.0
H1081 H 0.44452 0.77768 0.44107 0.0
H1082 H 0.41276 0.68384 0.47223 0.0
H1083 H 0.39625 0.76769 0.45176 0.0
H1084 H 0.52151 0.66548 0.51378 0.0
H1085 H 0.56214 0.62806 0.43826 0.0
H1086 H 0.43498 0.76453 0.31947 0.0
H1087 H 0.39289 0.70299 0.36813 0.0
Li1088 Li 0.03321 0.82041 0.63794 0.0
Li1089 Li 1.00207 0.79467 0.67377 0.0
Li1090 Li 0.05114 0.78794 0.67061 0.0
Li1091 Li 0.02318 0.76826 0.63223 0.0
C1092 C 0.04997 0.83832 0.7005 0.0
N1093 N 0.08702 0.86193 0.74019 0.0
C1094 C 0.04374 0.83933 0.72933 0.0
C1095 C 0.07497 0.84947 0.69182 0.0
C1096 C 0.06276 0.85134 0.74908 0.0
C1097 C 0.09345 0.86126 0.71222 0.0
C1098 C 0.97983 0.78669 0.61191 0.0
C1099 C 0.94627 0.74951 0.59596 0.0
N1100 N 0.94735 0.75877 0.56982 0.0
C1101 C 0.98044 0.79601 0.58497 0.0
C1102 C 0.96246 0.76342 0.61755 0.0
C1103 C 0.96391 0.78156 0.56395 0.0
C1104 C 0.04514 0.84848 0.58981 0.0
N1105 N 0.04178 0.85378 0.6183 0.0
C1106 C 0.05462 0.90411 0.61676 0.0
C1107 C 0.04621 0.88097 0.63195 0.0
C1108 C 0.05861 0.89916 0.58728 0.0
C1109 C 0.05335 0.8709 0.57384 0.0
H1110 H 0.04162 0.82667 0.57947 0.0
H1111 H 0.04355 0.88465 0.65466 0.0
C1112 C 0.97627 0.78951 0.72658 0.0
N1113 N 0.97188 0.79573 0.69978 0.0
C1114 C 0.95488 0.78803 0.74598 0.0
C1115 C 0.92467 0.79886 0.70978 0.0
C1116 C 0.94667 0.80035 0.69111 0.0
C1117 C 0.92863 0.79273 0.73767 0.0
H1118 H 0.9964 0.78516 0.73273 0.0
H1119 H 0.9436 0.80488 0.66962 0.0
C1120 C 0.07557 0.77158 0.61419 0.0
N1121 N 0.1086 0.73474 0.58126 0.0
C1122 C 0.08053 0.74423 0.62218 0.0
C1123 C 0.08754 0.78029 0.58954 0.0
C1124 C 0.09723 0.72589 0.60523 0.0
C1125 C 0.10417 0.76134 0.57317 0.0
C1126 C 1.01555 0.73314 0.6817 0.0
C1127 C 0.03603 0.71522 0.68786 0.0
C1128 C 0.98867 0.72424 0.68592 0.0
C1129 C 0.02927 0.68868 0.69804 0.0
C1130 C 0.98274 0.69755 0.69615 0.0
N1131 N 1.00299 0.68046 0.70194 0.0
C1132 C 0.07612 0.77335 0.71923 0.0
C1133 C 0.10642 0.78344 0.68218 0.0
C1134 C 0.09735 0.76652 0.73571 0.0
N1135 N 0.081 0.78128 0.69292 0.0
C1136 C 0.12825 0.77667 0.69788 0.0
C1137 C 0.1238 0.76798 0.72497 0.0
H1138 H 0.05565 0.77193 0.7272 0.0
H1139 H 0.10973 0.79005 0.66128 0.0
C1140 C 0.02515 0.74077 0.57562 0.0
N1141 N 0.0195 0.73594 0.60287 0.0
C1142 C 0.02499 0.71759 0.55403 0.0
C1143 C 1.0129 0.68499 0.58883 0.0
C1144 C 1.01314 0.70871 0.60963 0.0
C1145 C 0.01927 0.68921 0.5607 0.0
H1146 H 0.03021 0.76261 0.57072 0.0
H1147 H 1.00844 0.70513 0.63113 0.0
O1148 O 0.03204 0.82577 0.68083 0.0
O1149 O 0.99638 0.80001 0.63259 0.0
O1150 O 0.05866 0.78952 0.63014 0.0
O1151 O 0.02177 0.75928 0.67176 0.0
H1152 H 0.02448 0.83083 0.73639 0.0
H1153 H 0.08021 0.84853 0.66957 0.0
H1154 H 0.05826 0.85217 0.77147 0.0
H1155 H 0.11296 0.86976 0.70583 0.0
H1156 H 0.9329 0.73131 0.59997 0.0
H1157 H 0.99358 0.81414 0.58031 0.0
H1158 H 0.96173 0.75597 0.63829 0.0
H1159 H 0.96428 0.78843 0.54295 0.0
H1160 H 0.05821 0.92557 0.62796 0.0
H1161 H 0.05519 0.86617 0.5511 0.0
H1162 H 0.95878 0.78285 0.76712 0.0
H1163 H 0.90476 0.80279 0.70257 0.0
H1164 H 0.0713 0.73713 0.64108 0.0
H1165 H 0.08403 0.80143 0.58309 0.0
H1166 H 0.10109 0.70458 0.61108 0.0
H1167 H 0.11352 0.76776 0.554 0.0
H1168 H 0.05695 0.72166 0.68483 0.0
H1169 H 0.9725 0.73769 0.68128 0.0
H1170 H 0.04493 0.67461 0.70287 0.0
H1171 H 0.96203 0.69041 0.69947 0.0
H1172 H 0.09315 0.76012 0.75661 0.0
H1173 H 0.14828 0.77763 0.68866 0.0
H1174 H 0.02967 0.72172 0.53249 0.0
H1175 H 1.00752 0.66353 0.59469 0.0
Li1176 Li 0.53579 0.32286 0.13689 0.0
Li1177 Li 0.5032 0.29443 0.17005 0.0
Li1178 Li 0.5519 0.28692 0.16558 0.0
Li1179 Li 0.52448 0.27032 0.12721 0.0
C1180 C 0.55049 0.33522 0.20086 0.0
N1181 N 0.58454 0.35644 0.2444 0.0
C1182 C 0.5467 0.32609 0.22771 0.0
C1183 C 0.57152 0.35525 0.19617 0.0
C1184 C 0.56418 0.33701 0.24943 0.0
C1185 C 0.58851 0.36573 0.21846 0.0
C1186 C 0.48133 0.29322 0.10856 0.0
C1187 C 0.43988 0.2682 0.09242 0.0
N1188 N 0.44677 0.27243 0.06535 0.0
C1189 C 0.48794 0.29743 0.0806 0.0
C1190 C 0.45709 0.27855 0.11457 0.0
C1191 C 0.47023 0.28669 0.05904 0.0
C1192 C 0.55146 0.3525 0.09115 0.0
N1193 N 0.54427 0.35745 0.1189 0.0
C1194 C 0.55239 0.40875 0.11795 0.0
C1195 C 0.54445 0.38494 0.13246 0.0
C1196 C 0.56004 0.40425 0.0892 0.0
C1197 C 0.55913 0.37558 0.07582 0.0
H1198 H 0.55139 0.33046 0.0809 0.0
H1199 H 0.53864 0.38839 0.15455 0.0
C1200 C 0.47688 0.28217 0.22052 0.0
N1201 N 0.47331 0.29505 0.19657 0.0
C1202 C 0.45616 0.28092 0.24071 0.0
C1203 C 0.42806 0.30549 0.21095 0.0
C1204 C 0.44951 0.30677 0.19156 0.0
C1205 C 0.43133 0.29254 0.23594 0.0
H1206 H 0.49582 0.27257 0.22383 0.0
H1207 H 0.44712 0.31698 0.17245 0.0
C1208 C 0.58686 0.28887 0.12295 0.0
N1209 N 0.64204 0.28448 0.11873 0.0
C1210 C 0.59818 0.2617 0.12175 0.0
C1211 C 0.60359 0.3138 0.12177 0.0
C1212 C 0.62613 0.25994 0.11972 0.0
C1213 C 0.63144 0.31112 0.11966 0.0
C1214 C 0.51405 0.22925 0.16145 0.0
C1215 C 0.53263 0.20853 0.15179 0.0
C1216 C 0.48733 0.22037 0.16656 0.0
C1217 C 0.52408 0.17928 0.14695 0.0
C1218 C 0.47959 0.19089 0.16156 0.0
N1219 N 0.49795 0.17114 0.15188 0.0
C1220 C 0.57687 0.25367 0.20245 0.0
C1221 C 0.60489 0.29323 0.19033 0.0
C1222 C 0.59685 0.24501 0.21947 0.0
N1223 N 0.58119 0.27731 0.18815 0.0
C1224 C 0.62541 0.28543 0.20727 0.0
C1225 C 0.62142 0.26111 0.22222 0.0
H1226 H 0.55781 0.24154 0.20079 0.0
H1227 H 0.60787 0.31215 0.17917 0.0
C1228 C 0.54011 0.23574 0.07701 0.0
N1229 N 0.51964 0.23989 0.09624 0.0
C1230 C 0.53904 0.21195 0.05611 0.0
C1231 C 0.49524 0.19797 0.0742 0.0
C1232 C 0.49715 0.22195 0.0947 0.0
C1233 C 0.51657 0.19258 0.055 0.0
H1234 H 0.55763 0.25046 0.07831 0.0
H1235 H 0.48103 0.2256 0.10996 0.0
O1236 O 0.53387 0.32444 0.1792 0.0
O1237 O 0.49857 0.30323 0.12993 0.0
O1238 O 0.55953 0.29102 0.12498 0.0
O1239 O 0.522 0.25804 0.16602 0.0
H1240 H 0.53061 0.31056 0.23169 0.0
H1241 H 0.57502 0.36221 0.17543 0.0
H1242 H 0.56157 0.33 0.27028 0.0
H1243 H 0.60497 0.38109 0.21509 0.0
H1244 H 0.42114 0.25665 0.09674 0.0
H1245 H 0.50663 0.30865 0.07557 0.0
H1246 H 0.45183 0.27468 0.13601 0.0
H1247 H 0.47516 0.28967 0.03729 0.0
H1248 H 0.55255 0.43045 0.12913 0.0
H1249 H 0.56375 0.37092 0.0535 0.0
H1250 H 0.45938 0.27071 0.25969 0.0
H1251 H 0.40922 0.31492 0.20671 0.0
H1252 H 0.58554 0.24218 0.12249 0.0
H1253 H 0.59525 0.33504 0.12287 0.0
H1254 H 0.63516 0.23907 0.11893 0.0
H1255 H 0.64464 0.33024 0.1189 0.0
H1256 H 0.55341 0.215 0.14791 0.0
H1257 H 0.47263 0.23607 0.17389 0.0
H1258 H 0.53819 0.16305 0.13924 0.0
H1259 H 0.45895 0.18373 0.16523 0.0
H1260 H 0.59314 0.22582 0.23027 0.0
H1261 H 0.64403 0.29854 0.20902 0.0
H1262 H 0.55585 0.20823 0.04157 0.0
H1263 H 0.47767 0.18323 0.07389 0.0
C1264 C 0.267 0.7713 0.86026 0.0
C1265 C 0.24777 0.74812 0.85834 0.0
C1266 C 0.27194 0.78825 0.88606 0.0
C1267 C 0.25723 0.78307 0.91072 0.0
H1268 H 0.27672 0.77771 0.84124 0.0
H1269 H 0.28613 0.80672 0.88628 0.0
S1270 S 0.20571 0.72343 0.91657 0.0
N1271 N 0.21546 0.71925 0.88305 0.0
N1272 N 0.2238 0.75158 0.93166 0.0
C1273 C 0.23923 0.75859 0.90936 0.0
C1274 C 0.23466 0.74105 0.88309 0.0
C1275 C 0.04351 0.56768 0.45301 0.0
C1276 C 0.01725 0.57453 0.44683 0.0
C1277 C 0.06341 0.56484 0.43172 0.0
C1278 C 0.05765 0.56874 0.40351 0.0
H1279 H 0.04818 0.56273 0.47404 0.0
H1280 H 0.08318 0.55846 0.43716 0.0
S1281 S 0.99203 0.58924 0.37741 0.0
N1282 N 0.98683 0.58737 0.41155 0.0
N1283 N 0.02382 0.58146 0.37118 0.0
C1284 C 0.03172 0.57726 0.39755 0.0
C1285 C 1.01161 0.58027 0.41931 0.0
C1286 C 0.83726 0.77467 0.86042 0.0
C1287 C 0.8202 0.77134 0.83698 0.0
C1288 C 0.83491 0.75545 0.88132 0.0
C1289 C 0.8153 0.7323 0.87958 0.0
H1290 H 0.85102 0.7935 0.86367 0.0
H1291 H 0.84773 0.75957 0.89964 0.0
S1292 S 0.7672 0.7135 0.82081 0.0
N1293 N 0.7847 0.7423 0.8119 0.0
N1294 N 0.77963 0.70652 0.85117 0.0
C1295 C 0.79935 0.72779 0.85516 0.0
C1296 C 0.80199 0.74722 0.83388 0.0
C1297 C 0.01853 0.97125 0.42895 0.0
C1298 C 0.02727 0.99538 0.44755 0.0
C1299 C 0.99862 0.9737 0.40894 0.0
C1300 C 0.98686 1.00046 0.40678 0.0
H1301 H 0.02708 0.95035 0.43011 0.0
H1302 H 0.99213 0.95441 0.39533 0.0
S1303 S 1.00429 0.07042 0.45001 0.0
N1304 N 0.02346 0.04675 0.4625 0.0
N1305 N 0.9867 0.05192 0.4243 0.0
C1306 C 0.99594 0.02488 0.42506 0.0
C1307 C 1.01605 0.02222 0.44553 0.0
C1308 C 0.25206 0.25561 0.69989 0.0
C1309 C 0.23979 0.28235 0.70044 0.0
C1310 C 0.26118 0.2409 0.67441 0.0
C1311 C 0.25832 0.25241 0.64852 0.0
H1312 H 0.25335 0.24539 0.71917 0.0
H1313 H 0.26958 0.21979 0.67483 0.0
S1314 S 0.2289 0.32277 0.63916 0.0
N1315 N 0.22645 0.32059 0.67354 0.0
N1316 N 0.24362 0.29307 0.62539 0.0
C1317 C 0.24749 0.28001 0.64908 0.0
C1318 C 0.23821 0.29496 0.67513 0.0
C1319 C 0.5139 0.56145 0.63663 0.0
C1320 C 0.5145 0.5395 0.61379 0.0
C1321 C 0.49632 0.5589 0.65964 0.0
C1322 C 0.47862 0.5344 0.6604 0.0
H1323 H 0.52726 0.58058 0.63666 0.0
H1324 H 0.4964 0.57634 0.67685 0.0
S1325 S 0.47289 0.47091 0.60557 0.0
N1326 N 0.49624 0.49271 0.59303 0.0
N1327 N 0.46325 0.48754 0.6364 0.0
C1328 C 0.47911 0.51231 0.63757 0.0
C1329 C 0.49709 0.51493 0.61424 0.0
C1330 C 0.80418 0.27698 0.67907 0.0
C1331 C 0.804 0.28798 0.70782 0.0
C1332 C 0.79778 0.29439 0.65808 0.0
C1333 C 0.79119 0.32356 0.66506 0.0
H1334 H 0.80901 0.25459 0.67288 0.0
H1335 H 0.79806 0.28496 0.63618 0.0
S1336 S 0.78747 0.36248 0.73745 0.0
N1337 N 0.79634 0.32949 0.74234 0.0
N1338 N 0.78479 0.3626 0.70289 0.0
C1339 C 0.79138 0.33495 0.69376 0.0
C1340 C 0.79768 0.31708 0.71514 0.0
C1341 C 0.51394 0.98643 0.63509 0.0
C1342 C 0.52142 0.98481 0.60639 0.0
C1343 C 0.5333 0.98929 0.6564 0.0
C1344 C 0.56109 0.99029 0.64992 0.0
H1345 H 0.49286 0.98687 0.64111 0.0
H1346 H 0.52628 0.9921 0.67817 0.0
S1347 S 0.59096 0.98304 0.57745 0.0
N1348 N 0.55817 0.98234 0.57224 0.0
N1349 N 0.59484 0.98609 0.61209 0.0
C1350 C 0.56877 0.98677 0.62106 0.0
C1351 C 0.5489 0.98426 0.59936 0.0
C1352 C 0.84522 0.26251 0.81102 0.0
C1353 C 0.84263 0.24208 0.78695 0.0
C1354 C 0.86542 0.2607 0.83093 0.0
C1355 C 0.88388 0.23835 0.82756 0.0
H1356 H 0.83207 0.28063 0.81385 0.0
H1357 H 0.86703 0.2774 0.84876 0.0
S1358 S 0.88523 0.1792 0.76808 0.0
N1359 N 0.8597 0.19864 0.76094 0.0
N1360 N 0.89765 0.19491 0.79828 0.0
C1361 C 0.88078 0.21711 0.80404 0.0
C1362 C 0.86018 0.21906 0.78375 0.0
C1363 C 0.51998 0.93871 0.52747 0.0
C1364 C 0.50611 0.9428 0.55347 0.0
C1365 C 0.52338 0.91076 0.51353 0.0
C1366 C 0.51262 0.88589 0.52494 0.0
H1367 H 0.52658 0.95741 0.51698 0.0
H1368 H 0.53288 0.90878 0.49278 0.0
S1369 S 0.47704 0.88514 0.59407 0.0
N1370 N 0.48347 0.92001 0.59122 0.0
N1371 N 0.48981 0.86725 0.56526 0.0
C1372 C 0.50019 0.88971 0.55186 0.0
C1373 C 0.497 0.91822 0.56609 0.0
C1374 C 0.17191 0.26754 0.79396 0.0
C1375 C 0.17073 0.29025 0.77689 0.0
C1376 C 0.15064 0.26163 0.81252 0.0
C1377 C 0.12739 0.27801 0.81426 0.0
H1378 H 0.18957 0.25465 0.79318 0.0
H1379 H 0.15232 0.24405 0.82552 0.0
S1380 S 0.11483 0.33968 0.77358 0.0
N1381 N 0.14484 0.32901 0.76256 0.0
N1382 N 0.10467 0.31796 0.7973 0.0
C1383 C 0.12597 0.30059 0.79699 0.0
C1384 C 0.14773 0.30672 0.77835 0.0
C1385 C 0.56827 0.60736 0.53953 0.0
C1386 C 0.56049 0.57801 0.53216 0.0
C1387 C 0.56439 0.62823 0.52101 0.0
C1388 C 0.55254 0.62047 0.49442 0.0
H1389 H 0.57522 0.61449 0.56074 0.0
H1390 H 0.56919 0.65087 0.52823 0.0
S1391 S 0.53126 0.54582 0.46421 0.0
N1392 N 0.54262 0.54174 0.49589 0.0
N1393 N 0.53535 0.58084 0.46072 0.0
C1394 C 0.5468 0.59078 0.48588 0.0
C1395 C 0.5508 0.56956 0.50485 0.0
C1396 C 0.8581 0.77839 0.76709 0.0
C1397 C 0.85783 0.79701 0.79251 0.0
C1398 C 0.88147 0.77598 0.75006 0.0
C1399 C 0.90545 0.79203 0.75797 0.0
H1400 H 0.83953 0.7675 0.7593 0.0
H1401 H 0.88044 0.76246 0.72996 0.0
S1402 S 0.9152 0.84259 0.82355 0.0
N1403 N 0.88348 0.83064 0.82543 0.0
N1404 N 0.9276 0.82597 0.79392 0.0
C1405 C 0.90578 0.80929 0.78429 0.0
C1406 C 0.88193 0.8118 0.80143 0.0
C1407 C 0.05579 0.97036 0.55494 0.0
C1408 C 0.07249 0.96573 0.53085 0.0
C1409 C 0.0528 0.94962 0.57429 0.0
C1410 C 0.06643 0.92346 0.57019 0.0
H1411 H 0.04329 0.98902 0.55748 0.0
H1412 H 0.03821 0.95318 0.59136 0.0
S1413 S 0.11614 0.90364 0.51293 0.0
N1414 N 0.10507 0.935 0.50564 0.0
N1415 N 0.10046 0.8964 0.54239 0.0
C1416 C 0.08517 0.92002 0.5476 0.0
C1417 C 0.08802 0.94111 0.52789 0.0
C1418 C 0.16537 0.72598 0.77134 0.0
C1419 C 0.18886 0.74376 0.77556 0.0
C1420 C 0.14448 0.73388 0.75476 0.0
C1421 C 0.14649 0.75981 0.74183 0.0
H1422 H 0.16298 0.70621 0.78145 0.0
H1423 H 0.12661 0.71963 0.75208 0.0
S1424 S 0.20449 0.81337 0.74629 0.0
N1425 N 0.21355 0.78768 0.76514 0.0
N1426 N 0.1741 0.80313 0.73447 0.0
C1427 C 0.17019 0.7775 0.74563 0.0
C1428 C 0.19142 0.76934 0.76241 0.0
C1429 C 0.99543 0.63817 0.49743 0.0
C1430 C 1.00616 0.61182 0.50267 0.0
C1431 C 1.00153 0.66397 0.51502 0.0
C1432 C 0.01835 0.66398 0.53851 0.0
H1433 H 0.98047 0.63824 0.48118 0.0
H1434 H 0.99133 0.68341 0.51157 0.0
S1435 S 0.05442 0.60114 0.55836 0.0
N1436 N 0.03641 0.5877 0.53069 0.0
N1437 N 0.04838 0.63611 0.56365 0.0
C1438 C 0.03102 0.63819 0.54231 0.0
C1439 C 0.02481 0.61209 0.52436 0.0
C1440 C 0.77684 0.82969 0.2608 0.0
C1441 C 0.75603 0.83037 0.24137 0.0
C1442 C 0.79636 0.85252 0.26491 0.0
C1443 C 0.79567 0.8769 0.24977 0.0
H1444 H 0.77709 0.81209 0.27394 0.0
H1445 H 0.8115 0.85161 0.28085 0.0
S1446 S 0.74558 0.88814 0.19554 0.0
N1447 N 0.73628 0.85638 0.20609 0.0
N1448 N 0.77286 0.89951 0.21361 0.0
C1449 C 0.77569 0.87699 0.22915 0.0
C1450 C 0.75587 0.85365 0.22501 0.0
C1451 C 0.7472 0.16247 0.32777 0.0
C1452 C 0.75637 0.19029 0.32195 0.0
C1453 C 0.76504 0.13994 0.32795 0.0
C1454 C 0.79271 0.14448 0.32225 0.0
H1455 H 0.7259 0.1579 0.33107 0.0
H1456 H 0.757 0.11857 0.33172 0.0
S1457 S 0.82659 0.21409 0.30676 0.0
N1458 N 0.79458 0.2217 0.31144 0.0
N1459 N 0.8284 0.17948 0.31159 0.0
C1460 C 0.80224 0.1727 0.31771 0.0
C1461 C 0.78398 0.1956 0.31761 0.0
C1462 C 0.43367 1.01629 0.01773 0.0
C1463 C 0.43473 0.03061 0.99324 0.0
C1464 C 0.41084 0.99935 0.02426 0.0
C1465 C 0.38825 0.99636 1.00657 0.0
H1466 H 0.45058 0.01843 0.03195 0.0
H1467 H 0.41068 0.98894 0.04354 0.0
S1468 S 0.38166 0.02913 0.9395 0.0
N1469 N 0.41178 0.04075 0.95116 0.0
N1470 N 0.36891 1.00841 0.96294 0.0
C1471 C 0.38931 1.01036 0.98179 0.0
C1472 C 0.41258 0.02757 0.9752 0.0
C1473 C 0.27621 0.3785 0.32899 0.0
C1474 C 0.28372 0.35813 0.3065 0.0
C1475 C 0.2581 0.39994 0.32494 0.0
C1476 C 0.24705 0.40187 0.29816 0.0
H1477 H 0.28451 0.37781 0.34979 0.0
H1478 H 0.2526 0.41501 0.34297 0.0
S1479 S 0.26152 0.35387 0.23227 0.0
N1480 N 0.27918 0.34093 0.25675 0.0
N1481 N 0.24601 0.3819 0.24857 0.0
C1482 C 0.25474 0.38163 0.27544 0.0
C1483 C 0.27292 0.35965 0.27973 0.0
C1484 C 0.13445 1.00023 0.49271 0.0
C1485 C 0.11007 1.01076 0.50414 0.0
C1486 C 0.15859 1.01731 0.49578 0.0
C1487 C 0.15895 0.04577 0.50979 0.0
H1488 H 0.13446 0.97948 0.47974 0.0
H1489 H 0.17671 1.0089 0.48559 0.0
S1490 S 0.1006 0.0823 0.54514 0.0
N1491 N 0.08798 0.05031 0.53142 0.0
N1492 N 0.13306 0.08266 0.53708 0.0
C1493 C 0.13488 0.05586 0.5225 0.0
C1494 C 0.11052 0.03829 0.51971 0.0
C1495 C 0.77882 0.20272 0.78634 0.0
C1496 C 0.79512 0.20307 0.76197 0.0
C1497 C 0.76173 0.17841 0.79031 0.0
C1498 C 0.76027 0.15397 0.76981 0.0
H1499 H 0.77781 0.22214 0.80121 0.0
H1500 H 0.74831 0.17952 0.80855 0.0
S1501 S 0.80186 0.14303 0.70441 0.0
N1502 N 0.81102 0.17604 0.71883 0.0
N1503 N 0.77896 0.13044 0.72605 0.0
C1504 C 0.77801 0.15337 0.74648 0.0
C1505 C 0.79547 0.17789 0.74266 0.0
C1506 C 0.44646 0.0379 0.53242 0.0
C1507 C 0.44654 0.02567 0.55811 0.0
C1508 C 0.42534 0.05498 0.52586 0.0
C1509 C 0.40349 0.0602 0.5447 0.0
H1510 H 0.46285 0.03415 0.51737 0.0
H1511 H 0.42594 0.06381 0.50571 0.0
S1512 S 0.39468 0.03303 0.6149 0.0
N1513 N 0.42324 0.01961 0.60237 0.0
N1514 N 0.38376 0.05219 0.59051 0.0
C1515 C 0.40352 0.04812 0.57056 0.0
C1516 C 0.42502 0.03077 0.57717 0.0
C1517 C 0.59041 0.49533 0.5343 0.0
C1518 C 0.59061 0.5245 0.54618 0.0
C1519 C 0.61439 0.48064 0.52955 0.0
C1520 C 0.63952 0.49463 0.53657 0.0
H1521 H 0.57139 0.48327 0.5306 0.0
H1522 H 0.61305 0.45766 0.5221 0.0
S1523 S 0.65085 0.57233 0.56424 0.0
N1524 N 0.61778 0.56769 0.56224 0.0
N1525 N 0.66312 0.54061 0.5525 0.0
C1526 C 0.64002 0.52454 0.54629 0.0
C1527 C 0.61551 0.53938 0.5512 0.0
C1528 C 0.76323 0.27579 0.35612 0.0
C1529 C 0.74779 0.24959 0.3553 0.0
C1530 C 0.76822 0.29297 0.38179 0.0
C1531 C 0.75817 0.28426 0.40748 0.0
H1532 H 0.76963 0.28405 0.33656 0.0
H1533 H 0.77865 0.31397 0.38141 0.0
S1534 S 0.71921 0.21584 0.41669 0.0
N1535 N 0.72444 0.21453 0.38218 0.0
N1536 N 0.73428 0.24649 0.43076 0.0
C1537 C 0.74473 0.2569 0.40714 0.0
C1538 C 0.73947 0.23956 0.3809 0.0
C1539 C 0.51023 0.0761 0.9199 0.0
C1540 C 0.51576 0.07313 0.94824 0.0
C1541 C 0.53062 0.07427 0.89914 0.0
C1542 C 0.55733 0.06929 0.90599 0.0
H1543 H 0.48971 0.07854 0.91362 0.0
H1544 H 0.52512 0.07526 0.87735 0.0
S1545 S 0.58251 0.06304 0.97796 0.0
N1546 N 0.54982 0.06689 0.98257 0.0
N1547 N 0.58852 0.06427 0.94384 0.0
C1548 C 0.56333 0.06798 0.93465 0.0
C1549 C 0.54247 0.06978 0.95573 0.0
C1550 C 0.30936 0.24942 0.33758 0.0
C1551 C 0.3264 0.27458 0.34109 0.0
C1552 C 0.30633 0.23076 0.3589 0.0
C1553 C 0.32026 0.23662 0.38462 0.0
H1554 H 0.29673 0.24543 0.31912 0.0
H1555 H 0.29161 0.21276 0.35593 0.0
S1556 S 0.37032 0.29766 0.40226 0.0
N1557 N 0.35902 0.30305 0.37092 0.0
N1558 N 0.35462 0.26748 0.41045 0.0
C1559 C 0.33909 0.26045 0.38725 0.0
C1560 C 0.3419 0.27949 0.36561 0.0
C1561 C 0.50069 0.51149 0.95602 0.0
C1562 C 0.52534 0.49888 0.94869 0.0
C1563 C 0.48101 0.51314 0.93555 0.0
C1564 C 0.48525 0.50189 0.90716 0.0
H1565 H 0.49676 0.5202 0.97771 0.0
H1566 H 0.46224 0.52303 0.94203 0.0
S1567 S 0.54672 0.46679 0.87754 0.0
N1568 N 0.55307 0.47495 0.91155 0.0
N1569 N 0.51627 0.47811 0.87285 0.0
C1570 C 0.5099 0.48917 0.89969 0.0
C1571 C 0.52993 0.48768 0.92051 0.0
C1572 C 0.75845 0.76765 0.19309 0.0
C1573 C 0.73541 0.78416 0.19491 0.0
C1574 C 0.76738 0.75406 0.1669 0.0
C1575 C 0.75347 0.75658 0.14176 0.0
H1576 H 0.76858 0.76385 0.21221 0.0
H1577 H 0.78436 0.7402 0.16658 0.0
S1578 S 0.69428 0.80123 0.13543 0.0
N1579 N 0.70051 0.80481 0.16966 0.0
N1580 N 0.71738 0.7799 0.1203 0.0
C1581 C 0.73145 0.77475 0.14331 0.0
C1582 C 0.72241 0.7884 0.16993 0.0
C1583 C 1.01109 0.06265 0.13911 0.0
C1584 C 1.0134 0.04024 0.11688 0.0
C1585 C 0.9931 0.05965 0.16171 0.0
C1586 C 0.97674 0.03415 0.16272 0.0
H1587 H 0.02342 0.08251 0.13901 0.0
H1588 H 0.99182 0.07751 0.17838 0.0
S1589 S 0.97575 0.96912 0.10946 0.0
N1590 N 0.99808 0.99202 0.09689 0.0
N1591 N 0.96461 0.98584 0.13963 0.0
C1592 C 0.979 1.01157 0.14052 0.0
C1593 C 0.99729 1.01472 0.11754 0.0
C1594 C 0.31785 0.78817 0.18612 0.0
C1595 C 0.30175 0.78833 0.21065 0.0
C1596 C 0.31199 0.80543 0.16478 0.0
C1597 C 0.2898 0.82347 0.16724 0.0
H1598 H 0.33459 0.77395 0.18313 0.0
H1599 H 0.32451 0.80402 0.14585 0.0
S1600 S 0.24313 0.83347 0.22894 0.0
N1601 N 0.26397 0.80909 0.23726 0.0
N1602 N 0.25287 0.84178 0.19734 0.0
C1603 C 0.27407 0.82439 0.19219 0.0
C1604 C 0.28009 0.80679 0.21386 0.0
C1605 C 1.01527 0.49156 0.13328 0.0
C1606 C 0.02299 0.48559 0.10477 0.0
C1607 C 0.03422 0.49454 0.15494 0.0
C1608 C 0.06186 0.49082 0.14925 0.0
H1609 H 0.99439 0.49527 0.13876 0.0
H1610 H 0.02704 0.50097 0.17622 0.0
S1611 S 0.09192 0.47106 0.07789 0.0
N1612 N 0.0597 0.47449 0.07177 0.0
N1613 N 0.09533 0.47742 0.11254 0.0
C1614 C 0.0696 0.48292 0.12076 0.0
C1615 C 0.05019 0.48075 0.09856 0.0
C1616 C 0.34114 0.73886 0.31041 0.0
C1617 C 0.34626 0.73545 0.2811 0.0
C1618 C 0.36185 0.73663 0.32979 0.0
C1619 C 0.38837 0.73114 0.32042 0.0
H1620 H 0.32139 0.74484 0.31833 0.0
H1621 H 0.3574 0.74075 0.35221 0.0
S1622 S 0.41087 0.71633 0.24563 0.0
N1623 N 0.37869 0.72316 0.24361 0.0
N1624 N 0.41765 0.71914 0.27972 0.0
C1625 C 0.39318 0.72593 0.29108 0.0
C1626 C 0.37211 0.72802 0.27151 0.0
C1627 C 0.99784 0.41585 0.06615 0.0
C1628 C 1.0065 0.44078 0.0537 0.0
C1629 C 1.00153 0.38787 0.05211 0.0
C1630 C 1.01402 0.38399 0.02516 0.0
H1631 H 0.98648 0.41809 0.08584 0.0
H1632 H 0.99353 0.36919 0.06183 0.0
S1633 S 0.0406 0.44292 0.9842 0.0
N1634 N 0.02857 0.4601 1.01371 0.0
N1635 N 0.03563 0.40791 0.98719 0.0
C1636 C 0.02393 0.40893 1.01329 0.0
C1637 C 0.02011 0.4372 0.02759 0.0
C1638 C 0.67569 0.77502 0.30256 0.0
C1639 C 0.67169 0.78508 0.27626 0.0
C1640 C 0.65385 0.76943 0.32049 0.0
C1641 C 0.62726 0.77387 0.31276 0.0
H1642 H 0.69588 0.7716 0.30926 0.0
H1643 H 0.65784 0.7621 0.34078 0.0
S1644 S 0.60643 0.79947 0.24558 0.0
N1645 N 0.63959 0.79921 0.24318 0.0
N1646 N 0.59831 0.78808 0.27642 0.0
C1647 C 0.62309 0.78364 0.28627 0.0
C1648 C 0.64536 0.78935 0.2681 0.0
C1649 C 0.0511 0.07078 1.00839 0.0
C1650 C 0.05999 0.07976 0.036 0.0
C1651 C 0.04723 0.09118 0.98919 0.0
C1652 C 0.05189 0.12114 0.99728 0.0
H1653 H 0.04489 0.04823 1.00254 0.0
H1654 H 0.03865 0.08371 0.96875 0.0
S1655 S 0.07912 0.15494 0.06581 0.0
N1656 N 0.07627 0.11985 0.06929 0.0
N1657 N 0.06904 0.15825 0.03347 0.0
C1658 C 0.06296 0.12998 0.024 0.0
C1659 C 0.06707 0.10924 0.04328 0.0
C1660 C 0.36158 0.2815 0.26812 0.0
C1661 C 0.36347 0.29845 0.2945 0.0
C1662 C 0.38395 0.27852 0.24969 0.0
C1663 C 0.40909 0.29209 0.25722 0.0
H1664 H 0.34211 0.27259 0.26076 0.0
H1665 H 0.38128 0.26661 0.22892 0.0
S1666 S 0.42476 0.33783 0.32439 0.0
N1667 N 0.39249 0.3284 0.32738 0.0
N1668 N 0.43486 0.32181 0.29347 0.0
C1669 C 0.41163 0.30752 0.28428 0.0
C1670 C 0.38875 0.31091 0.30277 0.0
C1671 C 0.55256 0.47431 0.05596 0.0
C1672 C 0.57067 0.47144 0.03288 0.0
C1673 C 0.55051 0.45355 0.07532 0.0
C1674 C 0.5667 0.4292 0.07245 0.0
H1675 H 0.53833 0.49143 0.0576 0.0
H1676 H 0.53474 0.45553 0.09131 0.0
S1677 S 0.62121 0.41529 0.01889 0.0
N1678 N 0.60741 0.44479 1.01029 0.0
N1679 N 0.6048 0.40649 0.04742 0.0
C1680 C 0.5869 0.42792 0.05117 0.0
C1681 C 0.58867 0.44893 0.03128 0.0
C1682 C 0.69009 0.24377 0.24805 0.0
C1683 C 0.6845 0.2379 0.27587 0.0
C1684 C 0.66953 0.25109 0.2307 0.0
C1685 C 0.64275 0.25273 0.24072 0.0
H1686 H 0.71056 0.24311 0.23992 0.0
H1687 H 0.67459 0.25548 0.20931 0.0
S1688 S 0.6184 0.23979 0.31263 0.0
N1689 N 0.65094 0.2341 0.31287 0.0
N1690 N 0.61213 0.24841 0.2807 0.0
C1691 C 0.63705 0.24671 0.26862 0.0
C1692 C 0.65799 0.23917 0.2861 0.0
C1693 C 0.49868 0.13715 0.99287 0.0
C1694 C 0.50369 0.11096 1.00372 0.0
C1695 C 0.50468 0.16405 1.00877 0.0
C1696 C 0.51597 0.1653 0.03579 0.0
H1697 H 0.48806 0.13667 0.97314 0.0
H1698 H 0.49893 0.18381 1.00073 0.0
S1699 S 0.5351 0.10291 0.07214 0.0
N1700 N 0.52229 0.08796 0.04185 0.0
N1701 N 0.53383 0.13841 0.07165 0.0
C1702 C 0.52279 0.13935 0.04586 0.0
C1703 C 0.51665 0.11214 0.02977 0.0
C1704 C 0.2444 0.36942 0.73483 0.0
C1705 C 0.25027 0.34041 0.73722 0.0
C1706 C 0.26431 0.39182 0.73903 0.0
C1707 C 0.29082 0.38583 0.74536 0.0
H1708 H 0.22389 0.3749 0.73129 0.0
H1709 H 0.25874 0.41408 0.73849 0.0
S1710 S 0.3169 0.31337 0.75193 0.0
N1711 N 0.28461 0.30677 0.74501 0.0
N1712 N 0.32237 0.34885 0.75208 0.0
C1713 C 0.29734 0.35678 0.74606 0.0
C1714 C 0.27697 0.33401 0.74208 0.0
C1715 C 0.2497 0.66321 0.82303 0.0
C1716 C 0.25878 0.69194 0.82045 0.0
C1717 C 0.26787 0.64087 0.82256 0.0
C1718 C 0.29574 0.64654 0.81927 0.0
H1719 H 0.22832 0.65788 0.82424 0.0
H1720 H 0.25991 0.61882 0.82336 0.0
S1721 S 0.32956 0.71881 0.81393 0.0
N1722 N 0.29716 0.72526 0.81588 0.0
N1723 N 0.33157 0.68359 0.81577 0.0
C1724 C 0.30507 0.67553 0.81809 0.0
C1725 C 0.28652 0.69818 0.81854 0.0
C1726 C 0.93796 0.50321 0.49622 0.0
C1727 C 0.93639 0.53266 0.49246 0.0
C1728 C 0.91483 0.48652 0.50241 0.0
C1729 C 0.88941 0.49887 0.50528 0.0
H1730 H 0.95725 0.49319 0.49461 0.0
H1731 H 0.91686 0.46376 0.50481 0.0
S1732 S 0.8754 0.57581 0.49854 0.0
N1733 N 0.90803 0.57372 0.49213 0.0
N1734 N 0.86456 0.54294 0.50496 0.0
C1735 C 0.8878 0.52853 0.5018 0.0
C1736 C 0.91131 0.5453 0.49517 0.0
C1737 C 0.78621 0.88654 0.8127 0.0
C1738 C 0.77806 0.85717 0.80627 0.0
C1739 C 0.76844 0.90865 0.80987 0.0
C1740 C 0.74188 0.90207 0.80062 0.0
H1741 H 0.80643 0.89235 0.82003 0.0
H1742 H 0.77546 0.93105 0.81514 0.0
S1743 S 0.71151 0.82833 0.77969 0.0
N1744 N 0.74238 0.82253 0.7893 0.0
N1745 N 0.70874 0.86395 0.78413 0.0
C1746 C 0.73359 0.87268 0.79407 0.0
C1747 C 0.75175 0.85025 0.79685 0.0
C1748 C 0.63183 0.50684 0.98535 0.0
C1749 C 0.60968 0.51313 1.0034 0.0
C1750 C 0.6563 0.52314 0.98871 0.0
C1751 C 0.65941 0.54664 1.01008 0.0
H1752 H 0.62958 0.4903 0.96746 0.0
H1753 H 0.67231 0.51842 0.97339 0.0
S1754 S 0.60822 0.56959 0.0648 0.0
N1755 N 0.59294 0.54257 0.04467 0.0
N1756 N 0.63892 0.57322 0.05142 0.0
C1757 C 0.63787 0.55187 0.02938 0.0
C1758 C 0.61304 0.53507 0.02598 0.0
C1759 C 0.2968 0.67833 0.25119 0.0
C1760 C 0.29141 0.70507 0.26674 0.0
C1761 C 0.28048 0.65329 0.25433 0.0
C1762 C 0.25843 0.65422 0.27333 0.0
H1763 H 0.31255 0.67734 0.23515 0.0
H1764 H 0.28456 0.63332 0.24113 0.0
S1765 S 0.2368 0.71909 0.31953 0.0
N1766 N 0.2633 0.73103 0.30209 0.0
N1767 N 0.23286 0.68404 0.30864 0.0
C1768 C 0.25379 0.6806 0.29001 0.0
C1769 C 0.27024 0.70603 0.28654 0.0
C1770 C 0.93 0.53519 0.07587 0.0
C1771 C 0.94837 0.52466 0.05485 0.0
C1772 C 0.90898 0.5525 0.06955 0.0
C1773 C 0.9055 0.5598 0.04192 0.0
H1774 H 0.93178 0.52972 0.09727 0.0
H1775 H 0.89549 0.56038 0.08652 0.0
S1776 S 0.94841 0.53711 0.97934 0.0
N1777 N 0.96232 0.52304 1.00566 0.0
N1778 N 0.92208 0.55424 0.9932 0.0
C1779 C 0.9238 0.5492 0.02069 0.0
C1780 C 0.94538 0.53193 0.02729 0.0
C1781 C 0.09046 0.99884 0.0367 0.0
C1782 C 0.09088 0.02715 0.0508 0.0
C1783 C 0.1141 0.98344 0.03249 0.0
C1784 C 0.13907 0.99581 0.04234 0.0
H1785 H 0.07137 0.98784 0.03077 0.0
H1786 H 0.11262 0.9612 0.02263 0.0
S1787 S 0.15083 0.0702 0.07908 0.0
N1788 N 0.11813 0.06759 0.07319 0.0
N1789 N 0.16279 0.03894 0.06537 0.0
C1790 C 0.13995 0.02489 0.05483 0.0
C1791 C 0.11578 0.04049 0.05904 0.0
loop_
_geom_bond_atom_site_label_1
_geom_bond_atom_site_label_2
_geom_bond_distance
_geom_bond_site_symmetry_2
_ccdc_geom_bond_type
C0 N1 1.313 1_565 S
C0 N2 1.348 1_465 S
C0 C3 1.485 . S
N1 C0 1.313 1_545 S
N1 N5 1.378 . S
N2 C0 1.348 1_645 S
N2 C4 1.346 . S
C3 C0 1.485 . S
C3 H7 0.960 . S
C3 H8 0.961 . S
C3 H9 0.960 . S
C4 N2 1.346 . S
C4 N5 1.307 1_655 S
C4 C6 1.486 . S
N5 N1 1.378 . S
N5 C4 1.307 1_455 S
C6 C4 1.486 . S
C6 H10 0.960 . S
C6 H11 0.960 . S
C6 H12 0.959 . S
H7 C3 0.960 . S
H8 C3 0.961 . S
H9 C3 0.960 . S
H10 C6 0.960 . S
H11 C6 0.960 . S
H12 C6 0.959 . S
C13 N14 1.317 . S
C13 N15 1.348 . S
C13 C16 1.485 . S
N14 C13 1.317 . S
N14 N18 1.370 . S
N15 C13 1.348 . S
N15 C17 1.346 . S
C16 C13 1.485 . S
C16 H20 0.960 . S
C16 H21 0.961 . S
C16 H22 0.960 . S
C17 N15 1.346 . S
C17 N18 1.307 . S
C17 C19 1.486 . S
N18 N14 1.370 . S
N18 C17 1.307 . S
C19 C17 1.486 . S
C19 H23 0.960 . S
C19 H24 0.960 . S
C19 H25 0.959 . S
H20 C16 0.960 . S
H21 C16 0.961 . S
H22 C16 0.960 . S
H23 C19 0.960 . S
H24 C19 0.960 . S
H25 C19 0.959 . S
C26 N27 1.317 . S
C26 N28 1.348 . S
C26 C29 1.485 . S
N27 C26 1.317 . S
N27 N31 1.370 . S
N28 C26 1.348 . S
N28 C30 1.346 . S
C29 C26 1.485 . S
C29 H33 0.960 . S
C29 H34 0.961 . S
C29 H35 0.960 . S
C30 N28 1.346 . S
C30 N31 1.307 . S
C30 C32 1.486 . S
N31 N27 1.370 . S
N31 C30 1.307 . S
C32 C30 1.486 . S
C32 H36 0.960 1_554 S
C32 H37 0.960 . S
C32 H38 0.959 . S
H33 C29 0.960 . S
H34 C29 0.961 . S
H35 C29 0.960 . S
H36 C32 0.960 1_556 S
H37 C32 0.960 . S
H38 C32 0.959 . S
C39 N40 1.317 . S
C39 N41 1.348 . S
C39 C42 1.485 . S
N40 C39 1.317 . S
N40 N44 1.370 . S
N41 C39 1.348 . S
N41 C43 1.346 . S
C42 C39 1.485 . S
C42 H46 0.960 . S
C42 H47 0.961 . S
C42 H48 0.960 . S
C43 N41 1.346 . S
C43 N44 1.307 . S
C43 C45 1.486 . S
N44 N40 1.370 . S
N44 C43 1.307 . S
C45 C43 1.486 . S
C45 H49 0.960 . S
C45 H50 0.960 . S
C45 H51 0.959 . S
H46 C42 0.960 . S
H47 C42 0.961 . S
H48 C42 0.960 . S
H49 C45 0.960 . S
H50 C45 0.960 . S
H51 C45 0.959 . S
C52 N53 1.317 . S
C52 N54 1.348 . S
C52 C55 1.485 1_455 S
N53 C52 1.317 . S
N53 N57 1.370 . S
N54 C52 1.348 . S
N54 C56 1.346 1_565 S
C55 C52 1.485 1_655 S
C55 H59 0.967 . S
C55 H60 0.961 . S
C55 H61 0.960 . S
C56 N54 1.346 1_545 S
C56 N57 1.307 1_545 S
C56 C58 1.486 . S
N57 N53 1.370 . S
N57 C56 1.307 1_565 S
C58 C56 1.486 . S
C58 H62 0.960 . S
C58 H63 0.960 . S
C58 H64 0.959 . S
H59 C55 0.967 . S
H60 C55 0.961 . S
H61 C55 0.960 . S
H62 C58 0.960 . S
H63 C58 0.960 . S
H64 C58 0.959 . S
C65 N66 1.317 . S
C65 N67 1.348 . S
C65 C68 1.485 . S
N66 C65 1.317 . S
N66 N70 1.370 . S
N67 C65 1.348 . S
N67 C69 1.346 . S
C68 C65 1.485 . S
C68 H72 0.960 . S
C68 H73 0.961 . S
C68 H74 0.960 . S
C69 N67 1.346 . S
C69 N70 1.307 . S
C69 C71 1.486 . S
N70 N66 1.370 . S
N70 C69 1.307 . S
C71 C69 1.486 . S
C71 H75 0.960 . S
C71 H76 0.960 . S
C71 H77 0.959 . S
H72 C68 0.960 . S
H73 C68 0.961 . S
H74 C68 0.960 . S
H75 C71 0.960 . S
H76 C71 0.960 . S
H77 C71 0.959 . S
C78 N79 1.317 . S
C78 N80 1.348 . S
C78 C81 1.485 . S
N79 C78 1.317 . S
N79 N83 1.370 . S
N80 C78 1.348 . S
N80 C82 1.346 . S
C81 C78 1.485 . S
C81 H85 0.960 . S
C81 H86 0.961 . S
C81 H87 0.960 . S
C82 N80 1.346 . S
C82 N83 1.307 . S
C82 C84 1.486 . S
N83 N79 1.370 . S
N83 C82 1.307 . S
C84 C82 1.486 . S
C84 H88 0.960 . S
C84 H89 0.960 . S
C84 H90 0.959 . S
H85 C81 0.960 . S
H86 C81 0.961 . S
H87 C81 0.960 . S
H88 C84 0.960 . S
H89 C84 0.960 . S
H90 C84 0.959 . S
C91 N92 1.317 . S
C91 N93 1.348 . S
C91 C94 1.485 . S
N92 C91 1.317 . S
N92 N96 1.370 . S
N93 C91 1.348 . S
N93 C95 1.346 . S
C94 C91 1.485 . S
C94 H98 0.960 . S
C94 H99 0.961 . S
C94 H100 0.960 . S
C95 N93 1.346 . S
C95 N96 1.307 . S
C95 C97 1.486 . S
N96 N92 1.370 . S
N96 C95 1.307 . S
C97 C95 1.486 . S
C97 H101 0.960 . S
C97 H102 0.960 . S
C97 H103 0.959 . S
H98 C94 0.960 . S
H99 C94 0.961 . S
H100 C94 0.960 . S
H101 C97 0.960 . S
H102 C97 0.960 . S
H103 C97 0.959 . S
C104 N105 1.317 . S
C104 N106 1.348 . S
C104 C107 1.485 . S
N105 C104 1.317 . S
N105 N109 1.370 . S
N106 C104 1.348 . S
N106 C108 1.346 . S
C107 C104 1.485 . S
C107 H111 0.960 . S
C107 H112 0.961 . S
C107 H113 0.960 . S
C108 N106 1.346 . S
C108 N109 1.307 . S
C108 C110 1.486 . S
N109 N105 1.370 . S
N109 C108 1.307 . S
C110 C108 1.486 . S
C110 H114 0.960 . S
C110 H115 0.960 . S
C110 H116 0.959 . S
H111 C107 0.960 . S
H112 C107 0.961 . S
H113 C107 0.960 . S
H114 C110 0.960 . S
H115 C110 0.960 . S
H116 C110 0.959 . S
C117 N118 1.317 . S
C117 N119 1.348 . S
C117 C120 1.485 1_565 S
N118 C117 1.317 . S
N118 N122 1.370 . S
N119 C117 1.348 . S
N119 C121 1.346 . S
C120 C117 1.485 1_545 S
C120 H124 0.960 . S
C120 H125 0.961 . S
C120 H126 0.960 . S
C121 N119 1.346 . S
C121 N122 1.307 . S
C121 C123 1.486 . S
N122 N118 1.370 . S
N122 C121 1.307 . S
C123 C121 1.486 . S
C123 H127 0.960 . S
C123 H128 0.960 . S
C123 H129 0.959 . S
H124 C120 0.960 . S
H125 C120 0.961 . S
H126 C120 0.960 . S
H127 C123 0.960 . S
H128 C123 0.960 . S
H129 C123 0.959 . S
C130 N131 1.317 . S
C130 N132 1.348 . S
C130 C133 1.485 . S
N131 C130 1.317 . S
N131 N135 1.370 . S
N132 C130 1.348 . S
N132 C134 1.346 . S
C133 C130 1.485 . S
C133 H137 0.960 . S
C133 H138 0.961 . S
C133 H139 0.960 . S
C134 N132 1.346 . S
C134 N135 1.307 . S
C134 C136 1.486 . S
N135 N131 1.370 . S
N135 C134 1.307 . S
C136 C134 1.486 . S
C136 H140 0.960 . S
C136 H141 0.960 . S
C136 H142 0.959 . S
H137 C133 0.960 . S
H138 C133 0.961 . S
H139 C133 0.960 . S
H140 C136 0.960 . S
H141 C136 0.960 . S
H142 C136 0.959 . S
C143 N144 1.317 . S
C143 N145 1.348 . S
C143 C146 1.485 . S
N144 C143 1.317 . S
N144 N148 1.370 . S
N145 C143 1.348 . S
N145 C147 1.346 . S
C146 C143 1.485 . S
C146 H150 0.960 . S
C146 H151 0.961 . S
C146 H152 0.960 . S
C147 N145 1.346 . S
C147 N148 1.307 . S
C147 C149 1.486 . S
N148 N144 1.370 . S
N148 C147 1.307 . S
C149 C147 1.486 . S
C149 H153 0.960 . S
C149 H154 0.960 . S
C149 H155 0.959 . S
H150 C146 0.960 . S
H151 C146 0.961 . S
H152 C146 0.960 . S
H153 C149 0.960 . S
H154 C149 0.960 . S
H155 C149 0.959 . S
C156 N157 1.317 . S
C156 N158 1.348 . S
C156 C159 1.485 . S
N157 C156 1.317 . S
N157 N161 1.370 . S
N158 C156 1.348 . S
N158 C160 1.346 . S
C159 C156 1.485 . S
C159 H163 0.960 . S
C159 H164 0.961 . S
C159 H165 0.960 . S
C160 N158 1.346 . S
C160 N161 1.307 . S
C160 C162 1.486 . S
N161 N157 1.370 . S
N161 C160 1.307 . S
C162 C160 1.486 . S
C162 H166 0.960 . S
C162 H167 0.960 . S
C162 H168 0.959 . S
H163 C159 0.960 . S
H164 C159 0.961 . S
H165 C159 0.960 . S
H166 C162 0.960 . S
H167 C162 0.960 . S
H168 C162 0.959 . S
C169 N170 1.317 . S
C169 N171 1.348 . S
C169 C172 1.485 . S
N170 C169 1.317 . S
N170 N174 1.370 . S
N171 C169 1.348 . S
N171 C173 1.346 . S
C172 C169 1.485 . S
C172 H176 0.960 . S
C172 H177 0.961 . S
C172 H178 0.960 . S
C173 N171 1.346 . S
C173 N174 1.307 . S
C173 C175 1.486 . S
N174 N170 1.370 . S
N174 C173 1.307 . S
C175 C173 1.486 . S
C175 H179 0.960 . S
C175 H180 0.960 . S
C175 H181 0.959 . S
H176 C172 0.960 . S
H177 C172 0.961 . S
H178 C172 0.960 . S
H179 C175 0.960 . S
H180 C175 0.960 . S
H181 C175 0.959 . S
C182 N183 1.317 . S
C182 N184 1.348 . S
C182 C185 1.485 . S
N183 C182 1.317 . S
N183 N187 1.370 . S
N184 C182 1.348 . S
N184 C186 1.346 . S
C185 C182 1.485 . S
C185 H189 0.960 . S
C185 H190 0.961 . S
C185 H191 0.960 . S
C186 N184 1.346 . S
C186 N187 1.307 . S
C186 C188 1.486 . S
N187 N183 1.370 . S
N187 C186 1.307 . S
C188 C186 1.486 . S
C188 H192 0.960 . S
C188 H193 0.960 . S
C188 H194 0.959 . S
H189 C185 0.960 . S
H190 C185 0.961 . S
H191 C185 0.960 . S
H192 C188 0.960 . S
H193 C188 0.960 . S
H194 C188 0.959 . S
C195 N196 1.317 . S
C195 N197 1.348 . S
C195 C198 1.485 1_545 S
N196 C195 1.317 . S
N196 N200 1.370 . S
N197 C195 1.348 . S
N197 C199 1.346 . S
C198 C195 1.485 1_565 S
C198 H202 0.961 . S
C198 H203 0.961 . S
C198 H204 0.960 . S
C199 N197 1.346 . S
C199 N200 1.307 . S
C199 C201 1.486 1_556 S
N200 N196 1.370 . S
N200 C199 1.307 . S
C201 C199 1.486 1_554 S
C201 H205 0.960 . S
C201 H206 0.960 . S
C201 H207 0.959 . S
H202 C198 0.961 . S
H203 C198 0.961 . S
H204 C198 0.960 . S
H205 C201 0.960 . S
H206 C201 0.960 . S
H207 C201 0.959 . S
Li208 N225 1.992 . S
Li208 O268 1.956 . S
Li208 O269 1.970 . S
Li208 O270 1.961 1_554 S
Li209 N233 1.990 . S
Li209 O268 1.970 . S
Li209 O269 1.956 . S
Li209 O271 1.961 . S
Li210 N255 1.990 . S
Li210 O268 1.961 1_556 S
Li210 O270 1.956 . S
Li210 O271 1.970 1_556 S
Li211 N261 1.990 . S
Li211 O269 1.961 . S
Li211 O270 1.970 1_554 S
Li211 O271 1.956 . S
C212 C214 1.348 1_556 S
C212 C215 1.356 . S
C212 O268 1.325 1_556 S
N213 C216 1.314 1_556 S
N213 C217 1.279 . S
C214 C212 1.348 1_554 S
C214 C216 1.353 . S
C214 H272 0.929 . S
C215 C212 1.356 . S
C215 C217 1.358 . S
C215 H273 0.930 . S
C216 N213 1.314 1_554 S
C216 C214 1.353 . S
C216 H274 0.930 . S
C217 N213 1.279 . S
C217 C215 1.358 . S
C217 H275 0.930 . S
C218 C221 1.348 . S
C218 C222 1.356 . S
C218 O269 1.325 . S
C219 N220 1.279 . S
C219 C222 1.358 . S
C219 H276 0.930 . S
N220 C219 1.279 . S
N220 C223 1.314 . S
C221 C218 1.348 . S
C221 C223 1.353 . S
C221 H277 0.929 . S
C222 C218 1.356 . S
C222 C219 1.358 . S
C222 H278 0.930 . S
C223 N220 1.314 . S
C223 C221 1.353 . S
C223 H279 0.930 . S
C224 N225 1.313 1_556 S
C224 C229 1.353 . S
C224 H230 0.930 . S
N225 Li208 1.992 . S
N225 C224 1.313 1_554 S
N225 C227 1.280 . S
C226 C227 1.359 1_556 S
C226 C228 1.356 . S
C226 H280 0.929 1_556 S
C227 N225 1.280 . S
C227 C226 1.359 1_554 S
C227 H231 0.930 . S
C228 C226 1.356 . S
C228 C229 1.348 . S
C229 C224 1.353 . S
C229 C228 1.348 . S
C229 H281 0.929 . S
H230 C224 0.930 . S
H231 C227 0.930 . S
C232 N233 1.314 . S
C232 C234 1.353 . S
C232 H238 0.930 . S
N233 Li209 1.990 . S
N233 C232 1.314 . S
N233 C236 1.279 . S
C234 C232 1.353 . S
C234 C237 1.348 . S
C234 H282 0.929 . S
C235 C236 1.358 . S
C235 C237 1.356 . S
C235 H283 0.930 . S
C236 N233 1.279 . S
C236 C235 1.358 . S
C236 H239 0.930 . S
C237 C234 1.348 . S
C237 C235 1.356 . S
H238 C232 0.930 . S
H239 C236 0.930 . S
C240 C242 1.348 . S
C240 C243 1.356 . S
C240 O270 1.325 . S
N241 C244 1.314 . S
N241 C245 1.279 . S
C242 C240 1.348 . S
C242 C244 1.353 . S
C242 H284 0.929 . S
C243 C240 1.356 . S
C243 C245 1.358 . S
C243 H285 0.930 . S
C244 N241 1.314 . S
C244 C242 1.353 . S
C244 H286 0.930 . S
C245 N241 1.279 . S
C245 C243 1.358 . S
C245 H287 0.930 . S
C246 C247 1.348 1_554 S
C246 C248 1.356 . S
C246 O271 1.325 . S
C247 C246 1.348 1_556 S
C247 C249 1.353 . S
C247 H288 0.929 . S
C248 C246 1.356 . S
C248 C250 1.358 . S
C248 H289 0.930 . S
C249 C247 1.353 . S
C249 N251 1.314 1_556 S
C249 H290 0.930 . S
C250 C248 1.358 . S
C250 N251 1.279 . S
C250 H291 0.930 . S
N251 C249 1.314 1_554 S
N251 C250 1.279 . S
C252 C254 1.353 . S
C252 N255 1.314 . S
C252 H258 0.930 . S
C253 N255 1.279 . S
C253 C256 1.358 . S
C253 H259 0.930 . S
C254 C252 1.353 . S
C254 C257 1.348 . S
C254 H292 0.929 . S
N255 Li210 1.990 . S
N255 C252 1.314 . S
N255 C253 1.279 . S
C256 C253 1.358 . S
C256 C257 1.356 . S
C256 H293 0.930 . S
C257 C254 1.348 . S
C257 C256 1.356 . S
H258 C252 0.930 . S
H259 C253 0.930 . S
C260 N261 1.314 . S
C260 C262 1.353 . S
C260 H266 0.930 . S
N261 Li211 1.990 . S
N261 C260 1.314 . S
N261 C264 1.279 . S
C262 C260 1.353 . S
C262 C265 1.348 . S
C262 H294 0.929 . S
C263 C264 1.358 . S
C263 C265 1.356 . S
C263 H295 0.930 . S
C264 N261 1.279 . S
C264 C263 1.358 . S
C264 H267 0.930 . S
C265 C262 1.348 . S
C265 C263 1.356 . S
H266 C260 0.930 . S
H267 C264 0.930 . S
O268 Li208 1.956 . S
O268 Li209 1.970 . S
O268 Li210 1.961 1_554 S
O268 C212 1.325 1_554 S
O269 Li208 1.970 . S
O269 Li209 1.956 . S
O269 Li211 1.961 . S
O269 C218 1.325 . S
O270 Li208 1.961 1_556 S
O270 Li210 1.956 . S
O270 Li211 1.970 1_556 S
O270 C240 1.325 . S
O271 Li209 1.961 . S
O271 Li210 1.970 1_554 S
O271 Li211 1.956 . S
O271 C246 1.325 . S
H272 C214 0.929 . S
H273 C215 0.930 . S
H274 C216 0.930 . S
H275 C217 0.930 . S
H276 C219 0.930 . S
H277 C221 0.929 . S
H278 C222 0.930 . S
H279 C223 0.930 . S
H280 C226 0.929 1_554 S
H281 C229 0.929 . S
H282 C234 0.929 . S
H283 C235 0.930 . S
H284 C242 0.929 . S
H285 C243 0.930 . S
H286 C244 0.930 . S
H287 C245 0.930 . S
H288 C247 0.929 . S
H289 C248 0.930 . S
H290 C249 0.930 . S
H291 C250 0.930 . S
H292 C254 0.929 . S
H293 C256 0.930 . S
H294 C262 0.929 . S
H295 C263 0.930 . S
Li296 N313 1.990 . S
Li296 O356 1.956 . S
Li296 O357 1.970 . S
Li296 O358 1.961 . S
Li297 N321 1.990 . S
Li297 O356 1.970 . S
Li297 O357 1.956 . S
Li297 O359 1.961 . S
Li298 N343 1.990 . S
Li298 O356 1.961 . S
Li298 O358 1.956 . S
Li298 O359 1.970 . S
Li299 N349 1.990 . S
Li299 O357 1.961 . S
Li299 O358 1.970 . S
Li299 O359 1.956 . S
C300 C302 1.348 . S
C300 C303 1.356 . S
C300 O356 1.325 . S
N301 C304 1.314 . S
N301 C305 1.279 . S
C302 C300 1.348 . S
C302 C304 1.353 . S
C302 H360 0.929 . S
C303 C300 1.356 . S
C303 C305 1.358 . S
C303 H361 0.930 . S
C304 N301 1.314 . S
C304 C302 1.353 . S
C304 H362 0.930 . S
C305 N301 1.279 . S
C305 C303 1.358 . S
C305 H363 0.930 . S
C306 C309 1.348 . S
C306 C310 1.356 . S
C306 O357 1.325 . S
C307 N308 1.279 . S
C307 C310 1.358 . S
C307 H364 0.930 . S
N308 C307 1.279 . S
N308 C311 1.314 . S
C309 C306 1.348 . S
C309 C311 1.353 . S
C309 H365 0.929 . S
C310 C306 1.356 . S
C310 C307 1.358 . S
C310 H366 0.930 . S
C311 N308 1.314 . S
C311 C309 1.353 . S
C311 H367 0.930 . S
C312 N313 1.314 . S
C312 C317 1.353 . S
C312 H318 0.930 . S
N313 Li296 1.990 . S
N313 C312 1.314 . S
N313 C315 1.279 . S
C314 C315 1.358 . S
C314 C316 1.356 . S
C314 H368 0.930 . S
C315 N313 1.279 . S
C315 C314 1.358 . S
C315 H319 0.930 . S
C316 C314 1.356 . S
C316 C317 1.348 . S
C317 C312 1.353 . S
C317 C316 1.348 . S
C317 H369 0.929 . S
H318 C312 0.930 . S
H319 C315 0.930 . S
C320 N321 1.314 . S
C320 C322 1.353 . S
C320 H326 0.930 . S
N321 Li297 1.990 . S
N321 C320 1.314 . S
N321 C324 1.279 . S
C322 C320 1.353 . S
C322 C325 1.348 . S
C322 H370 0.929 . S
C323 C324 1.358 . S
C323 C325 1.356 . S
C323 H371 0.930 . S
C324 N321 1.279 . S
C324 C323 1.358 . S
C324 H327 0.930 . S
C325 C322 1.348 . S
C325 C323 1.356 . S
H326 C320 0.930 . S
H327 C324 0.930 . S
C328 C330 1.348 . S
C328 C331 1.356 . S
C328 O358 1.325 . S
N329 C332 1.314 . S
N329 C333 1.279 . S
C330 C328 1.348 . S
C330 C332 1.353 . S
C330 H372 0.929 . S
C331 C328 1.356 . S
C331 C333 1.358 . S
C331 H373 0.930 . S
C332 N329 1.314 . S
C332 C330 1.353 . S
C332 H374 0.930 . S
C333 N329 1.279 . S
C333 C331 1.358 . S
C333 H375 0.930 . S
C334 C335 1.348 . S
C334 C336 1.356 . S
C334 O359 1.325 . S
C335 C334 1.348 . S
C335 C337 1.353 . S
C335 H376 0.929 . S
C336 C334 1.356 . S
C336 C338 1.358 . S
C336 H377 0.930 . S
C337 C335 1.353 . S
C337 N339 1.314 . S
C337 H378 0.930 . S
C338 C336 1.358 . S
C338 N339 1.279 . S
C338 H379 0.930 . S
N339 C337 1.314 . S
N339 C338 1.279 . S
C340 C342 1.353 . S
C340 N343 1.314 . S
C340 H346 0.930 . S
C341 N343 1.279 . S
C341 C344 1.358 . S
C341 H347 0.930 . S
C342 C340 1.353 . S
C342 C345 1.348 . S
C342 H380 0.929 . S
N343 Li298 1.990 . S
N343 C340 1.314 . S
N343 C341 1.279 . S
C344 C341 1.358 . S
C344 C345 1.356 . S
C344 H381 0.930 . S
C345 C342 1.348 . S
C345 C344 1.356 . S
H346 C340 0.930 . S
H347 C341 0.930 . S
C348 N349 1.314 . S
C348 C350 1.353 . S
C348 H354 0.930 . S
N349 Li299 1.990 . S
N349 C348 1.314 . S
N349 C352 1.279 . S
C350 C348 1.353 . S
C350 C353 1.348 . S
C350 H382 0.929 . S
C351 C352 1.358 . S
C351 C353 1.356 . S
C351 H383 0.930 . S
C352 N349 1.279 . S
C352 C351 1.358 . S
C352 H355 0.930 . S
C353 C350 1.348 . S
C353 C351 1.356 . S
H354 C348 0.930 . S
H355 C352 0.930 . S
O356 Li296 1.956 . S
O356 Li297 1.970 . S
O356 Li298 1.961 . S
O356 C300 1.325 . S
O357 Li296 1.970 . S
O357 Li297 1.956 . S
O357 Li299 1.961 . S
O357 C306 1.325 . S
O358 Li296 1.961 . S
O358 Li298 1.956 . S
O358 Li299 1.970 . S
O358 C328 1.325 . S
O359 Li297 1.961 . S
O359 Li298 1.970 . S
O359 Li299 1.956 . S
O359 C334 1.325 . S
H360 C302 0.929 . S
H361 C303 0.930 . S
H362 C304 0.930 . S
H363 C305 0.930 . S
H364 C307 0.930 . S
H365 C309 0.929 . S
H366 C310 0.930 . S
H367 C311 0.930 . S
H368 C314 0.930 . S
H369 C317 0.929 . S
H370 C322 0.929 . S
H371 C323 0.930 . S
H372 C330 0.929 . S
H373 C331 0.930 . S
H374 C332 0.930 . S
H375 C333 0.930 . S
H376 C335 0.929 . S
H377 C336 0.930 . S
H378 C337 0.930 . S
H379 C338 0.930 . S
H380 C342 0.929 . S
H381 C344 0.930 . S
H382 C350 0.929 . S
H383 C351 0.930 . S
Li384 N401 1.990 . S
Li384 O444 1.956 1_556 S
Li384 O445 1.971 1_556 S
Li384 O446 1.960 . S
Li385 N409 1.990 . S
Li385 O444 1.970 . S
Li385 O445 1.956 . S
Li385 O447 1.961 . S
Li386 N431 1.990 . S
Li386 O444 1.961 1_556 S
Li386 O446 1.956 . S
Li386 O447 1.970 1_556 S
Li387 N437 1.990 . S
Li387 O445 1.961 . S
Li387 O446 1.970 1_554 S
Li387 O447 1.956 . S
C388 C390 1.348 . S
C388 C391 1.356 1_554 S
C388 O444 1.325 . S
N389 C392 1.314 1_556 S
N389 C393 1.279 . S
C390 C388 1.348 . S
C390 C392 1.353 . S
C390 H448 0.929 . S
C391 C388 1.356 1_556 S
C391 C393 1.358 . S
C391 H449 0.930 . S
C392 N389 1.314 1_554 S
C392 C390 1.353 . S
C392 H450 0.930 . S
C393 N389 1.279 . S
C393 C391 1.358 . S
C393 H451 0.930 . S
C394 C397 1.348 . S
C394 C398 1.356 . S
C394 O445 1.325 . S
C395 N396 1.279 . S
C395 C398 1.358 . S
C395 H452 0.930 . S
N396 C395 1.279 . S
N396 C399 1.314 . S
C397 C394 1.348 . S
C397 C399 1.353 . S
C397 H453 0.929 . S
C398 C394 1.356 . S
C398 C395 1.358 . S
C398 H454 0.930 . S
C399 N396 1.314 . S
C399 C397 1.353 . S
C399 H455 0.930 . S
C400 N401 1.314 . S
C400 C405 1.353 . S
C400 H406 0.930 . S
N401 Li384 1.990 . S
N401 C400 1.314 . S
N401 C403 1.279 . S
C402 C403 1.358 . S
C402 C404 1.356 . S
C402 H456 0.930 . S
C403 N401 1.279 . S
C403 C402 1.358 . S
C403 H407 0.930 . S
C404 C402 1.356 . S
C404 C405 1.348 . S
C405 C400 1.353 . S
C405 C404 1.348 . S
C405 H457 0.929 . S
H406 C400 0.930 . S
H407 C403 0.930 . S
C408 N409 1.314 . S
C408 C410 1.353 . S
C408 H414 0.930 . S
N409 Li385 1.990 . S
N409 C408 1.314 . S
N409 C412 1.279 . S
C410 C408 1.353 . S
C410 C413 1.348 . S
C410 H458 0.929 . S
C411 C412 1.358 . S
C411 C413 1.356 . S
C411 H459 0.930 . S
C412 N409 1.279 . S
C412 C411 1.358 . S
C412 H415 0.930 . S
C413 C410 1.348 . S
C413 C411 1.356 . S
H414 C408 0.930 . S
H415 C412 0.930 . S
C416 C418 1.348 . S
C416 C419 1.356 . S
C416 O446 1.325 . S
N417 C420 1.314 . S
N417 C421 1.279 . S
C418 C416 1.348 . S
C418 C420 1.353 . S
C418 H460 0.929 . S
C419 C416 1.356 . S
C419 C421 1.358 . S
C419 H461 0.930 . S
C420 N417 1.314 . S
C420 C418 1.353 . S
C420 H462 0.930 . S
C421 N417 1.279 . S
C421 C419 1.358 . S
C421 H463 0.930 . S
C422 C423 1.348 . S
C422 C424 1.356 . S
C422 O447 1.325 . S
C423 C422 1.348 . S
C423 C425 1.353 . S
C423 H464 0.929 1_554 S
C424 C422 1.356 . S
C424 C426 1.358 . S
C424 H465 0.930 . S
C425 C423 1.353 . S
C425 N427 1.314 . S
C425 H466 0.930 1_554 S
C426 C424 1.358 . S
C426 N427 1.279 . S
C426 H467 0.930 . S
N427 C425 1.314 . S
N427 C426 1.279 . S
C428 C430 1.353 . S
C428 N431 1.314 . S
C428 H434 0.930 . S
C429 N431 1.279 . S
C429 C432 1.358 . S
C429 H435 0.930 . S
C430 C428 1.353 . S
C430 C433 1.348 . S
C430 H468 0.929 . S
N431 Li386 1.990 . S
N431 C428 1.314 . S
N431 C429 1.279 . S
C432 C429 1.358 . S
C432 C433 1.356 . S
C432 H469 0.930 . S
C433 C430 1.348 . S
C433 C432 1.356 . S
H434 C428 0.930 . S
H435 C429 0.930 . S
C436 N437 1.314 . S
C436 C438 1.353 . S
C436 H442 0.930 . S
N437 Li387 1.990 . S
N437 C436 1.314 . S
N437 C440 1.279 . S
C438 C436 1.353 . S
C438 C441 1.348 . S
C438 H470 0.929 . S
C439 C440 1.358 . S
C439 C441 1.356 . S
C439 H471 0.930 . S
C440 N437 1.279 . S
C440 C439 1.358 . S
C440 H443 0.930 . S
C441 C438 1.348 . S
C441 C439 1.356 . S
H442 C436 0.930 . S
H443 C440 0.930 . S
O444 Li384 1.956 1_554 S
O444 Li385 1.970 . S
O444 Li386 1.961 1_554 S
O444 C388 1.325 . S
O445 Li384 1.971 1_554 S
O445 Li385 1.956 . S
O445 Li387 1.961 . S
O445 C394 1.325 . S
O446 Li384 1.960 . S
O446 Li386 1.956 . S
O446 Li387 1.970 1_556 S
O446 C416 1.325 . S
O447 Li385 1.961 . S
O447 Li386 1.970 1_554 S
O447 Li387 1.956 . S
O447 C422 1.325 . S
H448 C390 0.929 . S
H449 C391 0.930 . S
H450 C392 0.930 . S
H451 C393 0.930 . S
H452 C395 0.930 . S
H453 C397 0.929 . S
H454 C398 0.930 . S
H455 C399 0.930 . S
H456 C402 0.930 . S
H457 C405 0.929 . S
H458 C410 0.929 . S
H459 C411 0.930 . S
H460 C418 0.929 . S
H461 C419 0.930 . S
H462 C420 0.930 . S
H463 C421 0.930 . S
H464 C423 0.929 1_556 S
H465 C424 0.930 . S
H466 C425 0.930 1_556 S
H467 C426 0.930 . S
H468 C430 0.929 . S
H469 C432 0.930 . S
H470 C438 0.929 . S
H471 C439 0.930 . S
Li472 N489 1.990 . S
Li472 O532 1.956 . S
Li472 O533 1.970 . S
Li472 O534 1.979 . S
Li473 N497 1.995 . S
Li473 O532 1.970 . S
Li473 O533 1.956 . S
Li473 O535 1.961 1_545 S
Li474 N519 1.990 . S
Li474 O532 1.961 . S
Li474 O534 1.956 . S
Li474 O535 1.970 1_545 S
Li475 N525 1.990 . S
Li475 O533 1.961 1_565 S
Li475 O534 1.948 1_565 S
Li475 O535 1.956 . S
C476 C478 1.348 . S
C476 C479 1.356 . S
C476 O532 1.325 . S
N477 C480 1.314 . S
N477 C481 1.279 . S
C478 C476 1.348 . S
C478 C480 1.353 . S
C478 H536 0.929 . S
C479 C476 1.356 . S
C479 C481 1.358 . S
C479 H537 0.930 . S
C480 N477 1.314 . S
C480 C478 1.353 . S
C480 H538 0.930 . S
C481 N477 1.279 . S
C481 C479 1.358 . S
C481 H539 0.930 . S
C482 C485 1.378 . S
C482 C486 1.322 1_545 S
C482 O533 1.329 . S
C483 N484 1.306 . S
C483 C486 1.358 . S
C483 H540 0.930 . S
N484 C483 1.306 . S
N484 C487 1.284 1_565 S
C485 C482 1.378 . S
C485 C487 1.353 . S
C485 H541 0.929 . S
C486 C482 1.322 1_565 S
C486 C483 1.358 . S
C486 H542 0.930 . S
C487 N484 1.284 1_545 S
C487 C485 1.353 . S
C487 H543 0.930 . S
C488 N489 1.314 . S
C488 C493 1.353 . S
C488 H494 0.930 . S
N489 Li472 1.990 . S
N489 C488 1.314 . S
N489 C491 1.279 . S
C490 C491 1.358 . S
C490 C492 1.356 . S
C490 H544 0.930 . S
C491 N489 1.279 . S
C491 C490 1.358 . S
C491 H495 0.930 . S
C492 C490 1.356 . S
C492 C493 1.348 . S
C493 C488 1.353 . S
C493 C492 1.348 . S
C493 H545 0.929 . S
H494 C488 0.930 . S
H495 C491 0.930 . S
C496 N497 1.307 1_565 S
C496 C498 1.353 . S
C496 H502 0.930 . S
N497 Li473 1.995 . S
N497 C496 1.307 1_545 S
N497 C500 1.284 . S
C498 C496 1.353 . S
C498 C501 1.348 1_565 S
C498 H546 0.929 . S
C499 C500 1.358 . S
C499 C501 1.356 . S
C499 H547 0.930 . S
C500 N497 1.284 . S
C500 C499 1.358 . S
C500 H503 0.930 . S
C501 C498 1.348 1_545 S
C501 C499 1.356 . S
H502 C496 0.930 . S
H503 C500 0.930 . S
C504 C506 1.327 1_545 S
C504 C507 1.379 . S
C504 O534 1.325 . S
N505 C508 1.281 1_545 S
N505 C509 1.308 . S
C506 C504 1.327 1_565 S
C506 C508 1.353 . S
C506 H548 0.929 . S
C507 C504 1.379 . S
C507 C509 1.358 . S
C507 H549 0.930 . S
C508 N505 1.281 1_565 S
C508 C506 1.353 . S
C508 H550 0.930 . S
C509 N505 1.308 . S
C509 C507 1.358 . S
C509 H551 0.930 . S
C510 C511 1.348 . S
C510 C512 1.356 . S
C510 O535 1.325 . S
C511 C510 1.348 . S
C511 C513 1.353 . S
C511 H552 0.929 . S
C512 C510 1.356 . S
C512 C514 1.358 . S
C512 H553 0.930 . S
C513 C511 1.353 . S
C513 N515 1.314 . S
C513 H554 0.930 . S
C514 C512 1.358 . S
C514 N515 1.279 . S
C514 H555 0.930 . S
N515 C513 1.314 . S
N515 C514 1.279 . S
C516 C518 1.353 . S
C516 N519 1.314 . S
C516 H522 0.930 . S
C517 N519 1.279 1_565 S
C517 C520 1.358 . S
C517 H523 0.930 . S
C518 C516 1.353 . S
C518 C521 1.348 . S
C518 H556 0.929 . S
N519 Li474 1.990 . S
N519 C516 1.314 . S
N519 C517 1.279 1_545 S
C520 C517 1.358 . S
C520 C521 1.356 1_565 S
C520 H557 0.930 . S
C521 C518 1.348 . S
C521 C520 1.356 1_545 S
H522 C516 0.930 . S
H523 C517 0.930 . S
C524 N525 1.314 . S
C524 C526 1.353 . S
C524 H530 0.930 . S
N525 Li475 1.990 . S
N525 C524 1.314 . S
N525 C528 1.279 . S
C526 C524 1.353 . S
C526 C529 1.348 . S
C526 H558 0.929 . S
C527 C528 1.358 . S
C527 C529 1.356 . S
C527 H559 0.930 . S
C528 N525 1.279 . S
C528 C527 1.358 . S
C528 H531 0.930 . S
C529 C526 1.348 . S
C529 C527 1.356 . S
H530 C524 0.930 . S
H531 C528 0.930 . S
O532 Li472 1.956 . S
O532 Li473 1.970 . S
O532 Li474 1.961 . S
O532 C476 1.325 . S
O533 Li472 1.970 . S
O533 Li473 1.956 . S
O533 Li475 1.961 1_545 S
O533 C482 1.329 . S
O534 Li472 1.979 . S
O534 Li474 1.956 . S
O534 Li475 1.948 1_545 S
O534 C504 1.325 . S
O535 Li473 1.961 1_565 S
O535 Li474 1.970 1_565 S
O535 Li475 1.956 . S
O535 C510 1.325 . S
H536 C478 0.929 . S
H537 C479 0.930 . S
H538 C480 0.930 . S
H539 C481 0.930 . S
H540 C483 0.930 . S
H541 C485 0.929 . S
H542 C486 0.930 . S
H543 C487 0.930 . S
H544 C490 0.930 . S
H545 C493 0.929 . S
H546 C498 0.929 . S
H547 C499 0.930 . S
H548 C506 0.929 . S
H549 C507 0.930 . S
H550 C508 0.930 . S
H551 C509 0.930 . S
H552 C511 0.929 . S
H553 C512 0.930 . S
H554 C513 0.930 . S
H555 C514 0.930 . S
H556 C518 0.929 . S
H557 C520 0.930 . S
H558 C526 0.929 . S
H559 C527 0.930 . S
Li560 N577 1.990 . S
Li560 O620 1.956 . S
Li560 O621 1.970 . S
Li560 O622 1.961 . S
Li561 N585 1.990 . S
Li561 O620 1.970 . S
Li561 O621 1.956 . S
Li561 O623 1.961 . S
Li562 N607 1.990 . S
Li562 O620 1.961 . S
Li562 O622 1.956 . S
Li562 O623 1.970 . S
Li563 N613 1.990 . S
Li563 O621 1.961 . S
Li563 O622 1.970 . S
Li563 O623 1.956 . S
C564 C566 1.348 . S
C564 C567 1.356 . S
C564 O620 1.325 . S
N565 C568 1.314 . S
N565 C569 1.279 . S
C566 C564 1.348 . S
C566 C568 1.353 . S
C566 H624 0.929 . S
C567 C564 1.356 . S
C567 C569 1.358 . S
C567 H625 0.930 . S
C568 N565 1.314 . S
C568 C566 1.353 . S
C568 H626 0.930 . S
C569 N565 1.279 . S
C569 C567 1.358 . S
C569 H627 0.930 . S
C570 C573 1.348 . S
C570 C574 1.356 . S
C570 O621 1.325 . S
C571 N572 1.279 . S
C571 C574 1.358 . S
C571 H628 0.930 . S
N572 C571 1.279 . S
N572 C575 1.314 . S
C573 C570 1.348 . S
C573 C575 1.353 . S
C573 H629 0.929 . S
C574 C570 1.356 . S
C574 C571 1.358 . S
C574 H630 0.930 . S
C575 N572 1.314 . S
C575 C573 1.353 . S
C575 H631 0.930 . S
C576 N577 1.314 . S
C576 C581 1.353 . S
C576 H582 0.930 . S
N577 Li560 1.990 . S
N577 C576 1.314 . S
N577 C579 1.279 . S
C578 C579 1.358 . S
C578 C580 1.356 . S
C578 H632 0.930 . S
C579 N577 1.279 . S
C579 C578 1.358 . S
C579 H583 0.930 . S
C580 C578 1.356 . S
C580 C581 1.348 . S
C581 C576 1.353 . S
C581 C580 1.348 . S
C581 H633 0.929 . S
H582 C576 0.930 . S
H583 C579 0.930 . S
C584 N585 1.314 . S
C584 C586 1.353 . S
C584 H590 0.930 . S
N585 Li561 1.990 . S
N585 C584 1.314 . S
N585 C588 1.279 . S
C586 C584 1.353 . S
C586 C589 1.348 . S
C586 H634 0.929 . S
C587 C588 1.358 . S
C587 C589 1.356 . S
C587 H635 0.930 . S
C588 N585 1.279 . S
C588 C587 1.358 . S
C588 H591 0.930 . S
C589 C586 1.348 . S
C589 C587 1.356 . S
H590 C584 0.930 . S
H591 C588 0.930 . S
C592 C594 1.348 . S
C592 C595 1.356 . S
C592 O622 1.325 . S
N593 C596 1.314 . S
N593 C597 1.279 . S
C594 C592 1.348 . S
C594 C596 1.353 . S
C594 H636 0.929 . S
C595 C592 1.356 . S
C595 C597 1.358 . S
C595 H637 0.930 . S
C596 N593 1.314 . S
C596 C594 1.353 . S
C596 H638 0.930 . S
C597 N593 1.279 . S
C597 C595 1.358 . S
C597 H639 0.930 . S
C598 C599 1.348 . S
C598 C600 1.356 . S
C598 O623 1.325 . S
C599 C598 1.348 . S
C599 C601 1.353 . S
C599 H640 0.929 . S
C600 C598 1.356 . S
C600 C602 1.358 . S
C600 H641 0.930 . S
C601 C599 1.353 . S
C601 N603 1.314 . S
C601 H642 0.930 . S
C602 C600 1.358 . S
C602 N603 1.279 . S
C602 H643 0.930 . S
N603 C601 1.314 . S
N603 C602 1.279 . S
C604 C606 1.353 . S
C604 N607 1.314 . S
C604 H610 0.930 . S
C605 N607 1.279 . S
C605 C608 1.358 . S
C605 H611 0.930 . S
C606 C604 1.353 . S
C606 C609 1.348 . S
C606 H644 0.929 . S
N607 Li562 1.990 . S
N607 C604 1.314 . S
N607 C605 1.279 . S
C608 C605 1.358 . S
C608 C609 1.356 . S
C608 H645 0.930 . S
C609 C606 1.348 . S
C609 C608 1.356 . S
H610 C604 0.930 . S
H611 C605 0.930 . S
C612 N613 1.314 . S
C612 C614 1.353 . S
C612 H618 0.930 . S
N613 Li563 1.990 . S
N613 C612 1.314 . S
N613 C616 1.279 . S
C614 C612 1.353 . S
C614 C617 1.348 . S
C614 H646 0.929 . S
C615 C616 1.358 . S
C615 C617 1.356 . S
C615 H647 0.930 . S
C616 N613 1.279 . S
C616 C615 1.358 . S
C616 H619 0.930 . S
C617 C614 1.348 . S
C617 C615 1.356 . S
H618 C612 0.930 . S
H619 C616 0.930 . S
O620 Li560 1.956 . S
O620 Li561 1.970 . S
O620 Li562 1.961 . S
O620 C564 1.325 . S
O621 Li560 1.970 . S
O621 Li561 1.956 . S
O621 Li563 1.961 . S
O621 C570 1.325 . S
O622 Li560 1.961 . S
O622 Li562 1.956 . S
O622 Li563 1.970 . S
O622 C592 1.325 . S
O623 Li561 1.961 . S
O623 Li562 1.970 . S
O623 Li563 1.956 . S
O623 C598 1.325 . S
H624 C566 0.929 . S
H625 C567 0.930 . S
H626 C568 0.930 . S
H627 C569 0.930 . S
H628 C571 0.930 . S
H629 C573 0.929 . S
H630 C574 0.930 . S
H631 C575 0.930 . S
H632 C578 0.930 . S
H633 C581 0.929 . S
H634 C586 0.929 . S
H635 C587 0.930 . S
H636 C594 0.929 . S
H637 C595 0.930 . S
H638 C596 0.930 . S
H639 C597 0.930 . S
H640 C599 0.929 . S
H641 C600 0.930 . S
H642 C601 0.930 . S
H643 C602 0.930 . S
H644 C606 0.929 . S
H645 C608 0.930 . S
H646 C614 0.929 . S
H647 C615 0.930 . S
Li648 N665 1.990 . S
Li648 O708 1.956 . S
Li648 O709 1.970 . S
Li648 O710 1.961 . S
Li649 N673 1.990 . S
Li649 O708 1.970 . S
Li649 O709 1.956 . S
Li649 O711 1.961 . S
Li650 N695 1.990 . S
Li650 O708 1.961 . S
Li650 O710 1.956 . S
Li650 O711 1.970 . S
Li651 N701 1.990 . S
Li651 O709 1.961 . S
Li651 O710 1.970 . S
Li651 O711 1.956 . S
C652 C654 1.348 . S
C652 C655 1.356 . S
C652 O708 1.325 . S
N653 C656 1.314 . S
N653 C657 1.279 . S
C654 C652 1.348 . S
C654 C656 1.353 . S
C654 H712 0.929 . S
C655 C652 1.356 . S
C655 C657 1.358 . S
C655 H713 0.930 . S
C656 N653 1.314 . S
C656 C654 1.353 . S
C656 H714 0.930 . S
C657 N653 1.279 . S
C657 C655 1.358 . S
C657 H715 0.930 . S
C658 C661 1.348 . S
C658 C662 1.356 . S
C658 O709 1.325 . S
C659 N660 1.279 . S
C659 C662 1.358 . S
C659 H716 0.930 . S
N660 C659 1.279 . S
N660 C663 1.314 . S
C661 C658 1.348 . S
C661 C663 1.353 . S
C661 H717 0.929 . S
C662 C658 1.356 . S
C662 C659 1.358 . S
C662 H718 0.930 . S
C663 N660 1.314 . S
C663 C661 1.353 . S
C663 H719 0.930 . S
C664 N665 1.314 . S
C664 C669 1.353 . S
C664 H670 0.930 . S
N665 Li648 1.990 . S
N665 C664 1.314 . S
N665 C667 1.279 . S
C666 C667 1.358 . S
C666 C668 1.356 . S
C666 H720 0.930 . S
C667 N665 1.279 . S
C667 C666 1.358 . S
C667 H671 0.930 . S
C668 C666 1.356 . S
C668 C669 1.348 . S
C669 C664 1.353 . S
C669 C668 1.348 . S
C669 H721 0.929 . S
H670 C664 0.930 . S
H671 C667 0.930 . S
C672 N673 1.314 . S
C672 C674 1.353 . S
C672 H678 0.930 . S
N673 Li649 1.990 . S
N673 C672 1.314 . S
N673 C676 1.279 . S
C674 C672 1.353 . S
C674 C677 1.348 . S
C674 H722 0.929 . S
C675 C676 1.358 . S
C675 C677 1.356 . S
C675 H723 0.930 . S
C676 N673 1.279 . S
C676 C675 1.358 . S
C676 H679 0.930 . S
C677 C674 1.348 . S
C677 C675 1.356 . S
H678 C672 0.930 . S
H679 C676 0.930 . S
C680 C682 1.348 . S
C680 C683 1.356 . S
C680 O710 1.325 . S
N681 C684 1.314 . S
N681 C685 1.279 . S
C682 C680 1.348 . S
C682 C684 1.353 . S
C682 H724 0.929 . S
C683 C680 1.356 . S
C683 C685 1.358 . S
C683 H725 0.930 . S
C684 N681 1.314 . S
C684 C682 1.353 . S
C684 H726 0.930 . S
C685 N681 1.279 . S
C685 C683 1.358 . S
C685 H727 0.930 . S
C686 C687 1.348 . S
C686 C688 1.356 . S
C686 O711 1.325 . S
C687 C686 1.348 . S
C687 C689 1.353 . S
C687 H728 0.929 . S
C688 C686 1.356 . S
C688 C690 1.358 . S
C688 H729 0.930 . S
C689 C687 1.353 . S
C689 N691 1.314 . S
C689 H730 0.930 . S
C690 C688 1.358 . S
C690 N691 1.279 . S
C690 H731 0.930 . S
N691 C689 1.314 . S
N691 C690 1.279 . S
C692 C694 1.353 . S
C692 N695 1.314 . S
C692 H698 0.930 . S
C693 N695 1.279 . S
C693 C696 1.358 . S
C693 H699 0.930 . S
C694 C692 1.353 . S
C694 C697 1.348 . S
C694 H732 0.929 . S
N695 Li650 1.990 . S
N695 C692 1.314 . S
N695 C693 1.279 . S
C696 C693 1.358 . S
C696 C697 1.356 . S
C696 H733 0.930 . S
C697 C694 1.348 . S
C697 C696 1.356 . S
H698 C692 0.930 . S
H699 C693 0.930 . S
C700 N701 1.314 . S
C700 C702 1.353 . S
C700 H706 0.930 . S
N701 Li651 1.990 . S
N701 C700 1.314 . S
N701 C704 1.279 . S
C702 C700 1.353 . S
C702 C705 1.348 . S
C702 H734 0.929 . S
C703 C704 1.358 . S
C703 C705 1.356 . S
C703 H735 0.930 . S
C704 N701 1.279 . S
C704 C703 1.358 . S
C704 H707 0.930 . S
C705 C702 1.348 . S
C705 C703 1.356 . S
H706 C700 0.930 . S
H707 C704 0.930 . S
O708 Li648 1.956 . S
O708 Li649 1.970 . S
O708 Li650 1.961 . S
O708 C652 1.325 . S
O709 Li648 1.970 . S
O709 Li649 1.956 . S
O709 Li651 1.961 . S
O709 C658 1.325 . S
O710 Li648 1.961 . S
O710 Li650 1.956 . S
O710 Li651 1.970 . S
O710 C680 1.325 . S
O711 Li649 1.961 . S
O711 Li650 1.970 . S
O711 Li651 1.956 . S
O711 C686 1.325 . S
H712 C654 0.929 . S
H713 C655 0.930 . S
H714 C656 0.930 . S
H715 C657 0.930 . S
H716 C659 0.930 . S
H717 C661 0.929 . S
H718 C662 0.930 . S
H719 C663 0.930 . S
H720 C666 0.930 . S
H721 C669 0.929 . S
H722 C674 0.929 . S
H723 C675 0.930 . S
H724 C682 0.929 . S
H725 C683 0.930 . S
H726 C684 0.930 . S
H727 C685 0.930 . S
H728 C687 0.929 . S
H729 C688 0.930 . S
H730 C689 0.930 . S
H731 C690 0.930 . S
H732 C694 0.929 . S
H733 C696 0.930 . S
H734 C702 0.929 . S
H735 C703 0.930 . S
Li736 N753 1.990 . S
Li736 O796 1.956 . S
Li736 O797 1.970 . S
Li736 O798 1.961 . S
Li737 N761 1.990 . S
Li737 O796 1.970 . S
Li737 O797 1.956 . S
Li737 O799 1.961 . S
Li738 N783 1.990 . S
Li738 O796 1.961 . S
Li738 O798 1.956 . S
Li738 O799 1.970 . S
Li739 N789 1.990 . S
Li739 O797 1.961 . S
Li739 O798 1.970 . S
Li739 O799 1.956 . S
C740 C742 1.348 . S
C740 C743 1.356 . S
C740 O796 1.325 . S
N741 C744 1.314 . S
N741 C745 1.279 . S
C742 C740 1.348 . S
C742 C744 1.353 . S
C742 H800 0.929 . S
C743 C740 1.356 . S
C743 C745 1.358 . S
C743 H801 0.930 . S
C744 N741 1.314 . S
C744 C742 1.353 . S
C744 H802 0.930 . S
C745 N741 1.279 . S
C745 C743 1.358 . S
C745 H803 0.930 . S
C746 C749 1.348 . S
C746 C750 1.356 . S
C746 O797 1.325 . S
C747 N748 1.279 . S
C747 C750 1.358 . S
C747 H804 0.930 . S
N748 C747 1.279 . S
N748 C751 1.314 . S
C749 C746 1.348 . S
C749 C751 1.353 . S
C749 H805 0.929 . S
C750 C746 1.356 . S
C750 C747 1.358 . S
C750 H806 0.930 . S
C751 N748 1.314 . S
C751 C749 1.353 . S
C751 H807 0.930 . S
C752 N753 1.314 . S
C752 C757 1.353 . S
C752 H758 0.930 . S
N753 Li736 1.990 . S
N753 C752 1.314 . S
N753 C755 1.279 . S
C754 C755 1.358 . S
C754 C756 1.356 . S
C754 H808 0.930 . S
C755 N753 1.279 . S
C755 C754 1.358 . S
C755 H759 0.930 . S
C756 C754 1.356 . S
C756 C757 1.348 . S
C757 C752 1.353 . S
C757 C756 1.348 . S
C757 H809 0.929 . S
H758 C752 0.930 . S
H759 C755 0.930 . S
C760 N761 1.314 . S
C760 C762 1.353 . S
C760 H766 0.930 . S
N761 Li737 1.990 . S
N761 C760 1.314 . S
N761 C764 1.279 . S
C762 C760 1.353 . S
C762 C765 1.348 . S
C762 H810 0.929 . S
C763 C764 1.358 . S
C763 C765 1.356 . S
C763 H811 0.930 . S
C764 N761 1.279 . S
C764 C763 1.358 . S
C764 H767 0.930 . S
C765 C762 1.348 . S
C765 C763 1.356 . S
H766 C760 0.930 . S
H767 C764 0.930 . S
C768 C770 1.348 . S
C768 C771 1.356 . S
C768 O798 1.325 . S
N769 C772 1.314 . S
N769 C773 1.279 . S
C770 C768 1.348 . S
C770 C772 1.353 . S
C770 H812 0.929 . S
C771 C768 1.356 . S
C771 C773 1.358 . S
C771 H813 0.930 . S
C772 N769 1.314 . S
C772 C770 1.353 . S
C772 H814 0.930 . S
C773 N769 1.279 . S
C773 C771 1.358 . S
C773 H815 0.930 . S
C774 C775 1.348 . S
C774 C776 1.356 . S
C774 O799 1.325 . S
C775 C774 1.348 . S
C775 C777 1.353 . S
C775 H816 0.929 . S
C776 C774 1.356 . S
C776 C778 1.358 . S
C776 H817 0.930 . S
C777 C775 1.353 . S
C777 N779 1.314 . S
C777 H818 0.930 . S
C778 C776 1.358 . S
C778 N779 1.279 . S
C778 H819 0.930 . S
N779 C777 1.314 . S
N779 C778 1.279 . S
C780 C782 1.353 . S
C780 N783 1.314 . S
C780 H786 0.930 . S
C781 N783 1.279 . S
C781 C784 1.358 . S
C781 H787 0.930 . S
C782 C780 1.353 . S
C782 C785 1.348 . S
C782 H820 0.929 . S
N783 Li738 1.990 . S
N783 C780 1.314 . S
N783 C781 1.279 . S
C784 C781 1.358 . S
C784 C785 1.356 . S
C784 H821 0.930 . S
C785 C782 1.348 . S
C785 C784 1.356 . S
H786 C780 0.930 . S
H787 C781 0.930 . S
C788 N789 1.314 . S
C788 C790 1.353 . S
C788 H794 0.930 . S
N789 Li739 1.990 . S
N789 C788 1.314 . S
N789 C792 1.279 . S
C790 C788 1.353 . S
C790 C793 1.348 . S
C790 H822 0.929 . S
C791 C792 1.358 . S
C791 C793 1.356 . S
C791 H823 0.930 . S
C792 N789 1.279 . S
C792 C791 1.358 . S
C792 H795 0.930 . S
C793 C790 1.348 . S
C793 C791 1.356 . S
H794 C788 0.930 . S
H795 C792 0.930 . S
O796 Li736 1.956 . S
O796 Li737 1.970 . S
O796 Li738 1.961 . S
O796 C740 1.325 . S
O797 Li736 1.970 . S
O797 Li737 1.956 . S
O797 Li739 1.961 . S
O797 C746 1.325 . S
O798 Li736 1.961 . S
O798 Li738 1.956 . S
O798 Li739 1.970 . S
O798 C768 1.325 . S
O799 Li737 1.961 . S
O799 Li738 1.970 . S
O799 Li739 1.956 . S
O799 C774 1.325 . S
H800 C742 0.929 . S
H801 C743 0.930 . S
H802 C744 0.930 . S
H803 C745 0.930 . S
H804 C747 0.930 . S
H805 C749 0.929 . S
H806 C750 0.930 . S
H807 C751 0.930 . S
H808 C754 0.930 . S
H809 C757 0.929 . S
H810 C762 0.929 . S
H811 C763 0.930 . S
H812 C770 0.929 . S
H813 C771 0.930 . S
H814 C772 0.930 . S
H815 C773 0.930 . S
H816 C775 0.929 . S
H817 C776 0.930 . S
H818 C777 0.930 . S
H819 C778 0.930 . S
H820 C782 0.929 . S
H821 C784 0.930 . S
H822 C790 0.929 . S
H823 C791 0.930 . S
Li824 N841 1.990 . S
Li824 O884 1.956 . S
Li824 O885 1.970 1_565 S
Li824 O886 1.961 1_565 S
Li825 N849 1.990 . S
Li825 O884 1.970 1_545 S
Li825 O885 1.956 . S
Li825 O887 1.961 . S
Li826 N871 1.990 1_545 S
Li826 O884 1.961 1_545 S
Li826 O886 1.956 . S
Li826 O887 1.970 . S
Li827 N877 1.990 . S
Li827 O885 1.961 . S
Li827 O886 1.970 . S
Li827 O887 1.956 . S
C828 C830 1.348 . S
C828 C831 1.356 . S
C828 O884 1.325 . S
N829 C832 1.314 . S
N829 C833 1.279 . S
C830 C828 1.348 . S
C830 C832 1.353 . S
C830 H888 0.929 . S
C831 C828 1.356 . S
C831 C833 1.358 . S
C831 H889 0.930 . S
C832 N829 1.314 . S
C832 C830 1.353 . S
C832 H890 0.930 . S
C833 N829 1.279 . S
C833 C831 1.358 . S
C833 H891 0.930 . S
C834 C837 1.348 . S
C834 C838 1.356 . S
C834 O885 1.325 . S
C835 N836 1.279 . S
C835 C838 1.358 . S
C835 H892 0.930 . S
N836 C835 1.279 . S
N836 C839 1.314 . S
C837 C834 1.348 . S
C837 C839 1.353 . S
C837 H893 0.929 1_545 S
C838 C834 1.356 . S
C838 C835 1.358 . S
C838 H894 0.930 . S
C839 N836 1.314 . S
C839 C837 1.353 . S
C839 H895 0.930 . S
C840 N841 1.314 . S
C840 C845 1.353 . S
C840 H846 0.930 . S
N841 Li824 1.990 . S
N841 C840 1.314 . S
N841 C843 1.279 . S
C842 C843 1.358 . S
C842 C844 1.356 . S
C842 H896 0.930 . S
C843 N841 1.279 . S
C843 C842 1.358 . S
C843 H847 0.930 . S
C844 C842 1.356 . S
C844 C845 1.348 . S
C845 C840 1.353 . S
C845 C844 1.348 . S
C845 H897 0.929 . S
H846 C840 0.930 . S
H847 C843 0.930 . S
C848 N849 1.314 . S
C848 C850 1.353 . S
C848 H854 0.930 . S
N849 Li825 1.990 . S
N849 C848 1.314 . S
N849 C852 1.279 . S
C850 C848 1.353 . S
C850 C853 1.348 . S
C850 H898 0.929 . S
C851 C852 1.358 . S
C851 C853 1.356 . S
C851 H899 0.930 . S
C852 N849 1.279 . S
C852 C851 1.358 . S
C852 H855 0.930 . S
C853 C850 1.348 . S
C853 C851 1.356 . S
H854 C848 0.930 . S
H855 C852 0.930 . S
C856 C858 1.348 . S
C856 C859 1.356 1_545 S
C856 O886 1.325 . S
N857 C860 1.314 1_565 S
N857 C861 1.279 . S
C858 C856 1.348 . S
C858 C860 1.353 . S
C858 H900 0.929 . S
C859 C856 1.356 1_565 S
C859 C861 1.358 . S
C859 H901 0.930 . S
C860 N857 1.314 1_545 S
C860 C858 1.353 . S
C860 H902 0.930 . S
C861 N857 1.279 . S
C861 C859 1.358 . S
C861 H903 0.930 . S
C862 C863 1.348 . S
C862 C864 1.356 . S
C862 O887 1.325 . S
C863 C862 1.348 . S
C863 C865 1.353 . S
C863 H904 0.929 . S
C864 C862 1.356 . S
C864 C866 1.358 . S
C864 H905 0.930 . S
C865 C863 1.353 . S
C865 N867 1.314 . S
C865 H906 0.930 . S
C866 C864 1.358 . S
C866 N867 1.279 . S
C866 H907 0.930 . S
N867 C865 1.314 . S
N867 C866 1.279 . S
C868 C870 1.353 . S
C868 N871 1.314 . S
C868 H874 0.930 . S
C869 N871 1.279 . S
C869 C872 1.358 . S
C869 H875 0.924 1_565 S
C870 C868 1.353 . S
C870 C873 1.348 . S
C870 H908 0.929 . S
N871 Li826 1.990 1_565 S
N871 C868 1.314 . S
N871 C869 1.279 . S
C872 C869 1.358 . S
C872 C873 1.356 . S
C872 H909 0.930 . S
C873 C870 1.348 . S
C873 C872 1.356 . S
H874 C868 0.930 . S
H875 C869 0.924 1_545 S
C876 N877 1.314 . S
C876 C878 1.353 . S
C876 H882 0.930 . S
N877 Li827 1.990 . S
N877 C876 1.314 . S
N877 C880 1.279 . S
C878 C876 1.353 . S
C878 C881 1.348 . S
C878 H910 0.929 . S
C879 C880 1.358 . S
C879 C881 1.356 . S
C879 H911 0.930 . S
C880 N877 1.279 . S
C880 C879 1.358 . S
C880 H883 0.930 . S
C881 C878 1.348 . S
C881 C879 1.356 . S
H882 C876 0.930 . S
H883 C880 0.930 . S
O884 Li824 1.956 . S
O884 Li825 1.970 1_565 S
O884 Li826 1.961 1_565 S
O884 C828 1.325 . S
O885 Li824 1.970 1_545 S
O885 Li825 1.956 . S
O885 Li827 1.961 . S
O885 C834 1.325 . S
O886 Li824 1.961 1_545 S
O886 Li826 1.956 . S
O886 Li827 1.970 . S
O886 C856 1.325 . S
O887 Li825 1.961 . S
O887 Li826 1.970 . S
O887 Li827 1.956 . S
O887 C862 1.325 . S
H888 C830 0.929 . S
H889 C831 0.930 . S
H890 C832 0.930 . S
H891 C833 0.930 . S
H892 C835 0.930 . S
H893 C837 0.929 1_565 S
H894 C838 0.930 . S
H895 C839 0.930 . S
H896 C842 0.930 . S
H897 C845 0.929 . S
H898 C850 0.929 . S
H899 C851 0.930 . S
H900 C858 0.929 . S
H901 C859 0.930 . S
H902 C860 0.930 . S
H903 C861 0.930 . S
H904 C863 0.929 . S
H905 C864 0.930 . S
H906 C865 0.930 . S
H907 C866 0.930 . S
H908 C870 0.929 . S
H909 C872 0.930 . S
H910 C878 0.929 . S
H911 C879 0.930 . S
Li912 N929 1.990 . S
Li912 O972 1.956 . S
Li912 O973 1.970 . S
Li912 O974 1.961 . S
Li913 N937 1.990 . S
Li913 O972 1.971 1_655 S
Li913 O973 1.956 1_655 S
Li913 O975 1.960 . S
Li914 N959 1.990 . S
Li914 O972 1.961 . S
Li914 O974 1.956 . S
Li914 O975 1.970 1_455 S
Li915 N965 1.990 . S
Li915 O973 1.961 1_655 S
Li915 O974 1.970 1_655 S
Li915 O975 1.956 . S
C916 C918 1.348 . S
C916 C919 1.356 . S
C916 O972 1.325 . S
N917 C920 1.314 . S
N917 C921 1.279 . S
C918 C916 1.348 . S
C918 C920 1.353 . S
C918 H976 0.929 . S
C919 C916 1.356 . S
C919 C921 1.358 . S
C919 H977 0.930 . S
C920 N917 1.314 . S
C920 C918 1.353 . S
C920 H978 0.930 . S
C921 N917 1.279 . S
C921 C919 1.358 . S
C921 H979 0.930 . S
C922 C925 1.348 . S
C922 C926 1.356 1_455 S
C922 O973 1.325 . S
C923 N924 1.279 . S
C923 C926 1.358 . S
C923 H980 0.930 . S
N924 C923 1.279 . S
N924 C927 1.314 1_655 S
C925 C922 1.348 . S
C925 C927 1.353 . S
C925 H981 0.929 . S
C926 C922 1.356 1_655 S
C926 C923 1.358 . S
C926 H982 0.930 . S
C927 N924 1.314 1_455 S
C927 C925 1.353 . S
C927 H983 0.930 . S
C928 N929 1.314 . S
C928 C933 1.353 . S
C928 H934 0.930 . S
N929 Li912 1.990 . S
N929 C928 1.314 . S
N929 C931 1.279 . S
C930 C931 1.358 . S
C930 C932 1.356 . S
C930 H984 0.930 . S
C931 N929 1.279 . S
C931 C930 1.358 . S
C931 H935 0.930 . S
C932 C930 1.356 . S
C932 C933 1.348 . S
C933 C928 1.353 . S
C933 C932 1.348 . S
C933 H985 0.929 . S
H934 C928 0.930 . S
H935 C931 0.930 . S
C936 N937 1.314 . S
C936 C938 1.353 . S
C936 H942 0.930 . S
N937 Li913 1.990 . S
N937 C936 1.314 . S
N937 C940 1.280 1_655 S
C938 C936 1.353 . S
C938 C941 1.348 . S
C938 H986 0.929 1_556 S
C939 C940 1.359 1_655 S
C939 C941 1.356 . S
C939 H987 0.930 1_655 S
C940 N937 1.280 1_455 S
C940 C939 1.359 1_455 S
C940 H943 0.929 . S
C941 C938 1.348 . S
C941 C939 1.356 . S
H942 C936 0.930 . S
H943 C940 0.929 . S
C944 C946 1.348 1_455 S
C944 C947 1.356 . S
C944 O974 1.325 . S
N945 C948 1.314 1_455 S
N945 C949 1.279 . S
C946 C944 1.348 1_655 S
C946 C948 1.353 . S
C946 H988 0.929 . S
C947 C944 1.356 . S
C947 C949 1.358 . S
C947 H989 0.930 . S
C948 N945 1.314 1_655 S
C948 C946 1.353 . S
C948 H990 0.930 . S
C949 N945 1.279 . S
C949 C947 1.358 . S
C949 H991 0.930 . S
C950 C951 1.348 . S
C950 C952 1.356 . S
C950 O975 1.325 . S
C951 C950 1.348 . S
C951 C953 1.353 . S
C951 H992 0.929 . S
C952 C950 1.356 . S
C952 C954 1.358 . S
C952 H993 0.930 . S
C953 C951 1.353 . S
C953 N955 1.314 . S
C953 H994 0.930 . S
C954 C952 1.358 . S
C954 N955 1.279 . S
C954 H995 0.930 . S
N955 C953 1.314 . S
N955 C954 1.279 . S
C956 C958 1.353 . S
C956 N959 1.314 . S
C956 H962 0.930 . S
C957 N959 1.279 . S
C957 C960 1.358 . S
C957 H963 0.927 1_455 S
C958 C956 1.353 . S
C958 C961 1.348 . S
C958 H996 0.929 1_556 S
N959 Li914 1.990 . S
N959 C956 1.314 . S
N959 C957 1.279 . S
C960 C957 1.358 . S
C960 C961 1.356 . S
C960 H997 0.931 . S
C961 C958 1.348 . S
C961 C960 1.356 . S
H962 C956 0.930 . S
H963 C957 0.927 1_655 S
C964 N965 1.314 . S
C964 C966 1.353 . S
C964 H970 0.930 . S
N965 Li915 1.990 . S
N965 C964 1.314 . S
N965 C968 1.279 . S
C966 C964 1.353 . S
C966 C969 1.348 . S
C966 H998 0.929 . S
C967 C968 1.358 . S
C967 C969 1.356 . S
C967 H999 0.930 . S
C968 N965 1.279 . S
C968 C967 1.358 . S
C968 H971 0.930 . S
C969 C966 1.348 . S
C969 C967 1.356 . S
H970 C964 0.930 . S
H971 C968 0.930 . S
O972 Li912 1.956 . S
O972 Li913 1.971 1_455 S
O972 Li914 1.961 . S
O972 C916 1.325 . S
O973 Li912 1.970 . S
O973 Li913 1.956 1_455 S
O973 Li915 1.961 1_455 S
O973 C922 1.325 . S
O974 Li912 1.961 . S
O974 Li914 1.956 . S
O974 Li915 1.970 1_455 S
O974 C944 1.325 . S
O975 Li913 1.960 . S
O975 Li914 1.970 1_655 S
O975 Li915 1.956 . S
O975 C950 1.325 . S
H976 C918 0.929 . S
H977 C919 0.930 . S
H978 C920 0.930 . S
H979 C921 0.930 . S
H980 C923 0.930 . S
H981 C925 0.929 . S
H982 C926 0.930 . S
H983 C927 0.930 . S
H984 C930 0.930 . S
H985 C933 0.929 . S
H986 C938 0.929 1_554 S
H987 C939 0.930 1_455 S
H988 C946 0.929 . S
H989 C947 0.930 . S
H990 C948 0.930 . S
H991 C949 0.930 . S
H992 C951 0.929 . S
H993 C952 0.930 . S
H994 C953 0.930 . S
H995 C954 0.930 . S
H996 C958 0.929 1_554 S
H997 C960 0.931 . S
H998 C966 0.929 . S
H999 C967 0.930 . S
Li1000 N1017 1.990 . S
Li1000 O1060 1.956 . S
Li1000 O1061 1.970 . S
Li1000 O1062 1.961 . S
Li1001 N1025 1.990 . S
Li1001 O1060 1.970 . S
Li1001 O1061 1.956 . S
Li1001 O1063 1.961 . S
Li1002 N1047 1.990 . S
Li1002 O1060 1.961 . S
Li1002 O1062 1.956 . S
Li1002 O1063 1.970 . S
Li1003 N1053 1.990 . S
Li1003 O1061 1.961 . S
Li1003 O1062 1.970 . S
Li1003 O1063 1.956 . S
C1004 C1006 1.348 . S
C1004 C1007 1.356 . S
C1004 O1060 1.325 . S
N1005 C1008 1.314 . S
N1005 C1009 1.279 . S
C1006 C1004 1.348 . S
C1006 C1008 1.353 . S
C1006 H1064 0.929 . S
C1007 C1004 1.356 . S
C1007 C1009 1.358 . S
C1007 H1065 0.930 . S
C1008 N1005 1.314 . S
C1008 C1006 1.353 . S
C1008 H1066 0.930 . S
C1009 N1005 1.279 . S
C1009 C1007 1.358 . S
C1009 H1067 0.930 . S
C1010 C1013 1.348 . S
C1010 C1014 1.356 . S
C1010 O1061 1.325 . S
C1011 N1012 1.279 . S
C1011 C1014 1.358 . S
C1011 H1068 0.930 . S
N1012 C1011 1.279 . S
N1012 C1015 1.314 . S
C1013 C1010 1.348 . S
C1013 C1015 1.353 . S
C1013 H1069 0.929 . S
C1014 C1010 1.356 . S
C1014 C1011 1.358 . S
C1014 H1070 0.930 . S
C1015 N1012 1.314 . S
C1015 C1013 1.353 . S
C1015 H1071 0.930 . S
C1016 N1017 1.314 . S
C1016 C1021 1.353 . S
C1016 H1022 0.930 . S
N1017 Li1000 1.990 . S
N1017 C1016 1.314 . S
N1017 C1019 1.279 . S
C1018 C1019 1.358 . S
C1018 C1020 1.356 . S
C1018 H1072 0.930 . S
C1019 N1017 1.279 . S
C1019 C1018 1.358 . S
C1019 H1023 0.930 . S
C1020 C1018 1.356 . S
C1020 C1021 1.348 . S
C1021 C1016 1.353 . S
C1021 C1020 1.348 . S
C1021 H1073 0.929 . S
H1022 C1016 0.930 . S
H1023 C1019 0.930 . S
C1024 N1025 1.314 . S
C1024 C1026 1.353 . S
C1024 H1030 0.930 . S
N1025 Li1001 1.990 . S
N1025 C1024 1.314 . S
N1025 C1028 1.279 . S
C1026 C1024 1.353 . S
C1026 C1029 1.348 . S
C1026 H1074 0.929 . S
C1027 C1028 1.358 . S
C1027 C1029 1.356 . S
C1027 H1075 0.930 . S
C1028 N1025 1.279 . S
C1028 C1027 1.358 . S
C1028 H1031 0.930 . S
C1029 C1026 1.348 . S
C1029 C1027 1.356 . S
H1030 C1024 0.930 . S
H1031 C1028 0.930 . S
C1032 C1034 1.348 . S
C1032 C1035 1.356 . S
C1032 O1062 1.325 . S
N1033 C1036 1.314 . S
N1033 C1037 1.279 . S
C1034 C1032 1.348 . S
C1034 C1036 1.353 . S
C1034 H1076 0.929 . S
C1035 C1032 1.356 . S
C1035 C1037 1.358 . S
C1035 H1077 0.930 . S
C1036 N1033 1.314 . S
C1036 C1034 1.353 . S
C1036 H1078 0.930 . S
C1037 N1033 1.279 . S
C1037 C1035 1.358 . S
C1037 H1079 0.930 . S
C1038 C1039 1.348 . S
C1038 C1040 1.356 . S
C1038 O1063 1.325 . S
C1039 C1038 1.348 . S
C1039 C1041 1.353 . S
C1039 H1080 0.929 . S
C1040 C1038 1.356 . S
C1040 C1042 1.358 . S
C1040 H1081 0.930 . S
C1041 C1039 1.353 . S
C1041 N1043 1.314 . S
C1041 H1082 0.930 . S
C1042 C1040 1.358 . S
C1042 N1043 1.279 . S
C1042 H1083 0.930 . S
N1043 C1041 1.314 . S
N1043 C1042 1.279 . S
C1044 C1046 1.353 . S
C1044 N1047 1.314 . S
C1044 H1050 0.930 . S
C1045 N1047 1.279 . S
C1045 C1048 1.358 . S
C1045 H1051 0.930 . S
C1046 C1044 1.353 . S
C1046 C1049 1.348 . S
C1046 H1084 0.929 . S
N1047 Li1002 1.990 . S
N1047 C1044 1.314 . S
N1047 C1045 1.279 . S
C1048 C1045 1.358 . S
C1048 C1049 1.356 . S
C1048 H1085 0.930 . S
C1049 C1046 1.348 . S
C1049 C1048 1.356 . S
H1050 C1044 0.930 . S
H1051 C1045 0.930 . S
C1052 N1053 1.314 . S
C1052 C1054 1.353 . S
C1052 H1058 0.930 . S
N1053 Li1003 1.990 . S
N1053 C1052 1.314 . S
N1053 C1056 1.279 . S
C1054 C1052 1.353 . S
C1054 C1057 1.348 . S
C1054 H1086 0.929 . S
C1055 C1056 1.358 . S
C1055 C1057 1.356 . S
C1055 H1087 0.930 . S
C1056 N1053 1.279 . S
C1056 C1055 1.358 . S
C1056 H1059 0.930 . S
C1057 C1054 1.348 . S
C1057 C1055 1.356 . S
H1058 C1052 0.930 . S
H1059 C1056 0.930 . S
O1060 Li1000 1.956 . S
O1060 Li1001 1.970 . S
O1060 Li1002 1.961 . S
O1060 C1004 1.325 . S
O1061 Li1000 1.970 . S
O1061 Li1001 1.956 . S
O1061 Li1003 1.961 . S
O1061 C1010 1.325 . S
O1062 Li1000 1.961 . S
O1062 Li1002 1.956 . S
O1062 Li1003 1.970 . S
O1062 C1032 1.325 . S
O1063 Li1001 1.961 . S
O1063 Li1002 1.970 . S
O1063 Li1003 1.956 . S
O1063 C1038 1.325 . S
H1064 C1006 0.929 . S
H1065 C1007 0.930 . S
H1066 C1008 0.930 . S
H1067 C1009 0.930 . S
H1068 C1011 0.930 . S
H1069 C1013 0.929 . S
H1070 C1014 0.930 . S
H1071 C1015 0.930 . S
H1072 C1018 0.930 . S
H1073 C1021 0.929 . S
H1074 C1026 0.929 . S
H1075 C1027 0.930 . S
H1076 C1034 0.929 . S
H1077 C1035 0.930 . S
H1078 C1036 0.930 . S
H1079 C1037 0.930 . S
H1080 C1039 0.929 . S
H1081 C1040 0.930 . S
H1082 C1041 0.930 . S
H1083 C1042 0.930 . S
H1084 C1046 0.929 . S
H1085 C1048 0.930 . S
H1086 C1054 0.929 . S
H1087 C1055 0.930 . S
Li1088 N1105 1.990 . S
Li1088 O1148 1.956 . S
Li1088 O1149 1.970 1_455 S
Li1088 O1150 1.961 . S
Li1089 N1113 1.990 . S
Li1089 O1148 1.970 1_655 S
Li1089 O1149 1.956 . S
Li1089 O1151 1.961 1_655 S
Li1090 N1135 1.990 . S
Li1090 O1148 1.961 . S
Li1090 O1150 1.956 . S
Li1090 O1151 1.970 . S
Li1091 N1141 1.990 . S
Li1091 O1149 1.961 1_455 S
Li1091 O1150 1.970 . S
Li1091 O1151 1.956 . S
C1092 C1094 1.348 . S
C1092 C1095 1.356 . S
C1092 O1148 1.325 . S
N1093 C1096 1.314 . S
N1093 C1097 1.279 . S
C1094 C1092 1.348 . S
C1094 C1096 1.353 . S
C1094 H1152 0.929 1_455 S
C1095 C1092 1.356 . S
C1095 C1097 1.358 . S
C1095 H1153 0.930 . S
C1096 N1093 1.314 . S
C1096 C1094 1.353 . S
C1096 H1154 0.930 . S
C1097 N1093 1.279 . S
C1097 C1095 1.358 . S
C1097 H1155 0.930 . S
C1098 C1101 1.348 . S
C1098 C1102 1.356 . S
C1098 O1149 1.325 . S
C1099 N1100 1.279 . S
C1099 C1102 1.358 . S
C1099 H1156 0.930 . S
N1100 C1099 1.279 . S
N1100 C1103 1.314 . S
C1101 C1098 1.348 . S
C1101 C1103 1.353 . S
C1101 H1157 0.929 . S
C1102 C1098 1.356 . S
C1102 C1099 1.358 . S
C1102 H1158 0.930 . S
C1103 N1100 1.314 . S
C1103 C1101 1.353 . S
C1103 H1159 0.930 . S
C1104 N1105 1.314 . S
C1104 C1109 1.353 . S
C1104 H1110 0.930 . S
N1105 Li1088 1.990 . S
N1105 C1104 1.314 . S
N1105 C1107 1.279 . S
C1106 C1107 1.358 . S
C1106 C1108 1.356 . S
C1106 H1160 0.930 . S
C1107 N1105 1.279 . S
C1107 C1106 1.358 . S
C1107 H1111 0.930 . S
C1108 C1106 1.356 . S
C1108 C1109 1.348 . S
C1109 C1104 1.353 . S
C1109 C1108 1.348 . S
C1109 H1161 0.929 . S
H1110 C1104 0.930 . S
H1111 C1107 0.930 . S
C1112 N1113 1.314 . S
C1112 C1114 1.353 . S
C1112 H1118 0.930 . S
N1113 Li1089 1.990 . S
N1113 C1112 1.314 . S
N1113 C1116 1.279 . S
C1114 C1112 1.353 . S
C1114 C1117 1.348 . S
C1114 H1162 0.929 . S
C1115 C1116 1.358 . S
C1115 C1117 1.356 . S
C1115 H1163 0.930 . S
C1116 N1113 1.279 . S
C1116 C1115 1.358 . S
C1116 H1119 0.930 . S
C1117 C1114 1.348 . S
C1117 C1115 1.356 . S
H1118 C1112 0.930 . S
H1119 C1116 0.930 . S
C1120 C1122 1.348 . S
C1120 C1123 1.356 . S
C1120 O1150 1.325 . S
N1121 C1124 1.314 . S
N1121 C1125 1.279 . S
C1122 C1120 1.348 . S
C1122 C1124 1.353 . S
C1122 H1164 0.929 . S
C1123 C1120 1.356 . S
C1123 C1125 1.358 . S
C1123 H1165 0.930 . S
C1124 N1121 1.314 . S
C1124 C1122 1.353 . S
C1124 H1166 0.930 . S
C1125 N1121 1.279 . S
C1125 C1123 1.358 . S
C1125 H1167 0.930 . S
C1126 C1127 1.348 . S
C1126 C1128 1.356 1_455 S
C1126 O1151 1.325 . S
C1127 C1126 1.348 . S
C1127 C1129 1.353 . S
C1127 H1168 0.929 . S
C1128 C1126 1.356 1_655 S
C1128 C1130 1.358 . S
C1128 H1169 0.930 . S
C1129 C1127 1.353 . S
C1129 N1131 1.347 . S
C1129 H1170 0.930 . S
C1130 C1128 1.358 . S
C1130 N1131 1.252 1_655 S
C1130 H1171 0.930 . S
N1131 C1129 1.347 . S
N1131 C1130 1.252 1_455 S
C1132 C1134 1.353 . S
C1132 N1135 1.314 . S
C1132 H1138 0.930 . S
C1133 N1135 1.279 . S
C1133 C1136 1.358 . S
C1133 H1139 0.930 . S
C1134 C1132 1.353 . S
C1134 C1137 1.348 . S
C1134 H1172 0.929 . S
N1135 Li1090 1.990 . S
N1135 C1132 1.314 . S
N1135 C1133 1.279 . S
C1136 C1133 1.358 . S
C1136 C1137 1.356 . S
C1136 H1173 0.930 . S
C1137 C1134 1.348 . S
C1137 C1136 1.356 . S
H1138 C1132 0.930 . S
H1139 C1133 0.930 . S
C1140 N1141 1.314 1_655 S
C1140 C1142 1.353 . S
C1140 H1146 0.930 . S
N1141 Li1091 1.990 . S
N1141 C1140 1.314 1_455 S
N1141 C1144 1.279 . S
C1142 C1140 1.353 . S
C1142 C1145 1.348 . S
C1142 H1174 0.929 . S
C1143 C1144 1.363 . S
C1143 C1145 1.350 1_455 S
C1143 H1175 0.932 . S
C1144 N1141 1.279 . S
C1144 C1143 1.363 . S
C1144 H1147 0.930 . S
C1145 C1142 1.348 . S
C1145 C1143 1.350 1_655 S
H1146 C1140 0.930 . S
H1147 C1144 0.930 . S
O1148 Li1088 1.956 . S
O1148 Li1089 1.970 1_455 S
O1148 Li1090 1.961 . S
O1148 C1092 1.325 . S
O1149 Li1088 1.970 1_655 S
O1149 Li1089 1.956 . S
O1149 Li1091 1.961 1_655 S
O1149 C1098 1.325 . S
O1150 Li1088 1.961 . S
O1150 Li1090 1.956 . S
O1150 Li1091 1.970 . S
O1150 C1120 1.325 . S
O1151 Li1089 1.961 1_455 S
O1151 Li1090 1.970 . S
O1151 Li1091 1.956 . S
O1151 C1126 1.325 . S
H1152 C1094 0.929 1_655 S
H1153 C1095 0.930 . S
H1154 C1096 0.930 . S
H1155 C1097 0.930 . S
H1156 C1099 0.930 . S
H1157 C1101 0.929 . S
H1158 C1102 0.930 . S
H1159 C1103 0.930 . S
H1160 C1106 0.930 . S
H1161 C1109 0.929 . S
H1162 C1114 0.929 . S
H1163 C1115 0.930 . S
H1164 C1122 0.929 . S
H1165 C1123 0.930 . S
H1166 C1124 0.930 . S
H1167 C1125 0.930 . S
H1168 C1127 0.929 . S
H1169 C1128 0.930 . S
H1170 C1129 0.930 . S
H1171 C1130 0.930 . S
H1172 C1134 0.929 . S
H1173 C1136 0.930 . S
H1174 C1142 0.929 . S
H1175 C1143 0.932 . S
Li1176 N1193 1.990 . S
Li1176 O1236 1.956 . S
Li1176 O1237 1.970 . S
Li1176 O1238 1.961 . S
Li1177 N1201 1.990 . S
Li1177 O1236 1.970 . S
Li1177 O1237 1.956 . S
Li1177 O1239 1.961 . S
Li1178 N1223 1.990 . S
Li1178 O1236 1.961 . S
Li1178 O1238 1.956 . S
Li1178 O1239 1.970 . S
Li1179 N1229 1.990 . S
Li1179 O1237 1.961 . S
Li1179 O1238 1.970 . S
Li1179 O1239 1.956 . S
C1180 C1182 1.348 . S
C1180 C1183 1.356 . S
C1180 O1236 1.325 . S
N1181 C1184 1.314 . S
N1181 C1185 1.279 . S
C1182 C1180 1.348 . S
C1182 C1184 1.353 . S
C1182 H1240 0.929 . S
C1183 C1180 1.356 . S
C1183 C1185 1.358 . S
C1183 H1241 0.930 . S
C1184 N1181 1.314 . S
C1184 C1182 1.353 . S
C1184 H1242 0.930 . S
C1185 N1181 1.279 . S
C1185 C1183 1.358 . S
C1185 H1243 0.930 . S
C1186 C1189 1.348 . S
C1186 C1190 1.356 . S
C1186 O1237 1.325 . S
C1187 N1188 1.279 . S
C1187 C1190 1.358 . S
C1187 H1244 0.930 . S
N1188 C1187 1.279 . S
N1188 C1191 1.314 . S
C1189 C1186 1.348 . S
C1189 C1191 1.353 . S
C1189 H1245 0.929 . S
C1190 C1186 1.356 . S
C1190 C1187 1.358 . S
C1190 H1246 0.930 . S
C1191 N1188 1.314 . S
C1191 C1189 1.353 . S
C1191 H1247 0.930 . S
C1192 N1193 1.314 . S
C1192 C1197 1.353 . S
C1192 H1198 0.930 . S
N1193 Li1176 1.990 . S
N1193 C1192 1.314 . S
N1193 C1195 1.279 . S
C1194 C1195 1.358 . S
C1194 C1196 1.356 . S
C1194 H1248 0.930 . S
C1195 N1193 1.279 . S
C1195 C1194 1.358 . S
C1195 H1199 0.930 . S
C1196 C1194 1.356 . S
C1196 C1197 1.348 . S
C1197 C1192 1.353 . S
C1197 C1196 1.348 . S
C1197 H1249 0.929 . S
H1198 C1192 0.930 . S
H1199 C1195 0.930 . S
C1200 N1201 1.314 . S
C1200 C1202 1.353 . S
C1200 H1206 0.930 . S
N1201 Li1177 1.990 . S
N1201 C1200 1.314 . S
N1201 C1204 1.279 . S
C1202 C1200 1.353 . S
C1202 C1205 1.348 . S
C1202 H1250 0.929 . S
C1203 C1204 1.358 . S
C1203 C1205 1.356 . S
C1203 H1251 0.930 . S
C1204 N1201 1.279 . S
C1204 C1203 1.358 . S
C1204 H1207 0.930 . S
C1205 C1202 1.348 . S
C1205 C1203 1.356 . S
H1206 C1200 0.930 . S
H1207 C1204 0.930 . S
C1208 C1210 1.348 . S
C1208 C1211 1.356 . S
C1208 O1238 1.325 . S
N1209 C1212 1.314 . S
N1209 C1213 1.279 . S
C1210 C1208 1.348 . S
C1210 C1212 1.353 . S
C1210 H1252 0.929 . S
C1211 C1208 1.356 . S
C1211 C1213 1.358 . S
C1211 H1253 0.930 . S
C1212 N1209 1.314 . S
C1212 C1210 1.353 . S
C1212 H1254 0.930 . S
C1213 N1209 1.279 . S
C1213 C1211 1.358 . S
C1213 H1255 0.930 . S
C1214 C1215 1.348 . S
C1214 C1216 1.356 . S
C1214 O1239 1.325 . S
C1215 C1214 1.348 . S
C1215 C1217 1.353 . S
C1215 H1256 0.929 . S
C1216 C1214 1.356 . S
C1216 C1218 1.358 . S
C1216 H1257 0.930 . S
C1217 C1215 1.353 . S
C1217 N1219 1.314 . S
C1217 H1258 0.930 . S
C1218 C1216 1.358 . S
C1218 N1219 1.279 . S
C1218 H1259 0.930 . S
N1219 C1217 1.314 . S
N1219 C1218 1.279 . S
C1220 C1222 1.353 . S
C1220 N1223 1.314 . S
C1220 H1226 0.930 . S
C1221 N1223 1.279 . S
C1221 C1224 1.358 . S
C1221 H1227 0.930 . S
C1222 C1220 1.353 . S
C1222 C1225 1.348 . S
C1222 H1260 0.929 . S
N1223 Li1178 1.990 . S
N1223 C1220 1.314 . S
N1223 C1221 1.279 . S
C1224 C1221 1.358 . S
C1224 C1225 1.356 . S
C1224 H1261 0.930 . S
C1225 C1222 1.348 . S
C1225 C1224 1.356 . S
H1226 C1220 0.930 . S
H1227 C1221 0.930 . S
C1228 N1229 1.314 . S
C1228 C1230 1.353 . S
C1228 H1234 0.930 . S
N1229 Li1179 1.990 . S
N1229 C1228 1.314 . S
N1229 C1232 1.279 . S
C1230 C1228 1.353 . S
C1230 C1233 1.348 . S
C1230 H1262 0.929 . S
C1231 C1232 1.358 . S
C1231 C1233 1.356 . S
C1231 H1263 0.930 . S
C1232 N1229 1.279 . S
C1232 C1231 1.358 . S
C1232 H1235 0.930 . S
C1233 C1230 1.348 . S
C1233 C1231 1.356 . S
H1234 C1228 0.930 . S
H1235 C1232 0.930 . S
O1236 Li1176 1.956 . S
O1236 Li1177 1.970 . S
O1236 Li1178 1.961 . S
O1236 C1180 1.325 . S
O1237 Li1176 1.970 . S
O1237 Li1177 1.956 . S
O1237 Li1179 1.961 . S
O1237 C1186 1.325 . S
O1238 Li1176 1.961 . S
O1238 Li1178 1.956 . S
O1238 Li1179 1.970 . S
O1238 C1208 1.325 . S
O1239 Li1177 1.961 . S
O1239 Li1178 1.970 . S
O1239 Li1179 1.956 . S
O1239 C1214 1.325 . S
H1240 C1182 0.929 . S
H1241 C1183 0.930 . S
H1242 C1184 0.930 . S
H1243 C1185 0.930 . S
H1244 C1187 0.930 . S
H1245 C1189 0.929 . S
H1246 C1190 0.930 . S
H1247 C1191 0.930 . S
H1248 C1194 0.930 . S
H1249 C1197 0.929 . S
H1250 C1202 0.929 . S
H1251 C1203 0.930 . S
H1252 C1210 0.929 . S
H1253 C1211 0.930 . S
H1254 C1212 0.930 . S
H1255 C1213 0.930 . S
H1256 C1215 0.929 . S
H1257 C1216 0.930 . S
H1258 C1217 0.930 . S
H1259 C1218 0.930 . S
H1260 C1222 0.929 . S
H1261 C1224 0.930 . S
H1262 C1230 0.929 . S
H1263 C1231 0.930 . S
C1264 C1265 1.369 . S
C1264 C1266 1.419 . S
C1264 H1268 0.930 . S
C1265 C1264 1.369 . S
C1265 C1274 1.429 . S
C1266 C1264 1.419 . S
C1266 C1267 1.363 . S
C1266 H1269 0.929 . S
C1267 C1266 1.363 . S
C1267 C1273 1.428 . S
H1268 C1264 0.930 . S
H1269 C1266 0.929 . S
S1270 N1271 1.613 . S
S1270 N1272 1.610 . S
N1271 S1270 1.613 . S
N1271 C1274 1.350 . S
N1272 S1270 1.610 . S
N1272 C1273 1.351 . S
C1273 C1267 1.428 . S
C1273 N1272 1.351 . S
C1273 C1274 1.434 . S
C1274 C1265 1.429 . S
C1274 N1271 1.350 . S
C1274 C1273 1.434 . S
C1275 C1276 1.369 1_455 S
C1275 C1277 1.419 . S
C1275 H1279 0.930 . S
C1276 C1275 1.369 1_655 S
C1276 C1285 1.429 . S
C1277 C1275 1.419 . S
C1277 C1278 1.363 . S
C1277 H1280 0.929 . S
C1278 C1277 1.363 . S
C1278 C1284 1.428 . S
H1279 C1275 0.930 . S
H1280 C1277 0.929 . S
S1281 N1282 1.613 . S
S1281 N1283 1.610 1_655 S
N1282 S1281 1.613 . S
N1282 C1285 1.350 . S
N1283 S1281 1.610 1_455 S
N1283 C1284 1.351 . S
C1284 C1278 1.428 . S
C1284 N1283 1.351 . S
C1284 C1285 1.434 1_455 S
C1285 C1276 1.429 . S
C1285 N1282 1.350 . S
C1285 C1284 1.434 1_655 S
C1286 C1287 1.369 . S
C1286 C1288 1.419 . S
C1286 H1290 0.930 . S
C1287 C1286 1.369 . S
C1287 C1296 1.429 . S
C1288 C1286 1.419 . S
C1288 C1289 1.363 . S
C1288 H1291 0.929 . S
C1289 C1288 1.363 . S
C1289 C1295 1.428 . S
H1290 C1286 0.930 . S
H1291 C1288 0.929 . S
S1292 N1293 1.613 . S
S1292 N1294 1.610 . S
N1293 S1292 1.613 . S
N1293 C1296 1.350 . S
N1294 S1292 1.610 . S
N1294 C1295 1.351 . S
C1295 C1289 1.428 . S
C1295 N1294 1.351 . S
C1295 C1296 1.434 . S
C1296 C1287 1.429 . S
C1296 N1293 1.350 . S
C1296 C1295 1.434 . S
C1297 C1298 1.366 1_655 S
C1297 C1299 1.419 . S
C1297 H1301 0.930 1_655 S
C1298 C1297 1.366 1_455 S
C1298 C1307 1.414 1_465 S
C1299 C1297 1.419 . S
C1299 C1300 1.363 1_565 S
C1299 H1302 0.929 . S
C1300 C1299 1.363 1_545 S
C1300 C1306 1.428 . S
H1301 C1297 0.930 1_455 S
H1302 C1299 0.929 . S
S1303 N1304 1.613 . S
S1303 N1305 1.610 . S
N1304 S1303 1.613 . S
N1304 C1307 1.350 . S
N1305 S1303 1.610 . S
N1305 C1306 1.351 . S
C1306 C1300 1.428 . S
C1306 N1305 1.351 . S
C1306 C1307 1.434 . S
C1307 C1298 1.414 1_645 S
C1307 N1304 1.350 . S
C1307 C1306 1.434 . S
C1308 C1309 1.369 . S
C1308 C1310 1.419 . S
C1308 H1312 0.930 . S
C1309 C1308 1.369 . S
C1309 C1318 1.429 . S
C1310 C1308 1.419 . S
C1310 C1311 1.363 . S
C1310 H1313 0.929 . S
C1311 C1310 1.363 . S
C1311 C1317 1.428 . S
H1312 C1308 0.930 . S
H1313 C1310 0.929 . S
S1314 N1315 1.613 . S
S1314 N1316 1.610 . S
N1315 S1314 1.613 . S
N1315 C1318 1.350 . S
N1316 S1314 1.610 . S
N1316 C1317 1.351 . S
C1317 C1311 1.428 . S
C1317 N1316 1.351 . S
C1317 C1318 1.434 . S
C1318 C1309 1.429 . S
C1318 N1315 1.350 . S
C1318 C1317 1.434 . S
C1319 C1320 1.369 . S
C1319 C1321 1.419 . S
C1319 H1323 0.930 . S
C1320 C1319 1.369 . S
C1320 C1329 1.429 . S
C1321 C1319 1.419 . S
C1321 C1322 1.363 . S
C1321 H1324 0.929 . S
C1322 C1321 1.363 . S
C1322 C1328 1.428 . S
H1323 C1319 0.930 . S
H1324 C1321 0.929 . S
S1325 N1326 1.613 . S
S1325 N1327 1.610 . S
N1326 S1325 1.613 . S
N1326 C1329 1.350 . S
N1327 S1325 1.610 . S
N1327 C1328 1.351 . S
C1328 C1322 1.428 . S
C1328 N1327 1.351 . S
C1328 C1329 1.434 . S
C1329 C1320 1.429 . S
C1329 N1326 1.350 . S
C1329 C1328 1.434 . S
C1330 C1331 1.369 . S
C1330 C1332 1.419 . S
C1330 H1334 0.930 . S
C1331 C1330 1.369 . S
C1331 C1340 1.429 . S
C1332 C1330 1.419 . S
C1332 C1333 1.363 . S
C1332 H1335 0.929 . S
C1333 C1332 1.363 . S
C1333 C1339 1.428 . S
H1334 C1330 0.930 . S
H1335 C1332 0.929 . S
S1336 N1337 1.613 . S
S1336 N1338 1.610 . S
N1337 S1336 1.613 . S
N1337 C1340 1.350 . S
N1338 S1336 1.610 . S
N1338 C1339 1.351 . S
C1339 C1333 1.428 . S
C1339 N1338 1.351 . S
C1339 C1340 1.434 . S
C1340 C1331 1.429 . S
C1340 N1337 1.350 . S
C1340 C1339 1.434 . S
C1341 C1342 1.369 . S
C1341 C1343 1.419 . S
C1341 H1345 0.930 . S
C1342 C1341 1.369 . S
C1342 C1351 1.429 . S
C1343 C1341 1.419 . S
C1343 C1344 1.363 . S
C1343 H1346 0.929 . S
C1344 C1343 1.363 . S
C1344 C1350 1.428 . S
H1345 C1341 0.930 . S
H1346 C1343 0.929 . S
S1347 N1348 1.613 . S
S1347 N1349 1.610 . S
N1348 S1347 1.613 . S
N1348 C1351 1.350 . S
N1349 S1347 1.610 . S
N1349 C1350 1.351 . S
C1350 C1344 1.428 . S
C1350 N1349 1.351 . S
C1350 C1351 1.434 . S
C1351 C1342 1.429 . S
C1351 N1348 1.350 . S
C1351 C1350 1.434 . S
C1352 C1353 1.369 . S
C1352 C1354 1.419 . S
C1352 H1356 0.930 . S
C1353 C1352 1.369 . S
C1353 C1362 1.429 . S
C1354 C1352 1.419 . S
C1354 C1355 1.363 . S
C1354 H1357 0.929 . S
C1355 C1354 1.363 . S
C1355 C1361 1.428 . S
H1356 C1352 0.930 . S
H1357 C1354 0.929 . S
S1358 N1359 1.613 . S
S1358 N1360 1.610 . S
N1359 S1358 1.613 . S
N1359 C1362 1.350 . S
N1360 S1358 1.610 . S
N1360 C1361 1.351 . S
C1361 C1355 1.428 . S
C1361 N1360 1.351 . S
C1361 C1362 1.434 . S
C1362 C1353 1.429 . S
C1362 N1359 1.350 . S
C1362 C1361 1.434 . S
C1363 C1364 1.369 . S
C1363 C1365 1.419 . S
C1363 H1367 0.930 . S
C1364 C1363 1.369 . S
C1364 C1373 1.429 . S
C1365 C1363 1.419 . S
C1365 C1366 1.363 . S
C1365 H1368 0.929 . S
C1366 C1365 1.363 . S
C1366 C1372 1.428 . S
H1367 C1363 0.930 . S
H1368 C1365 0.929 . S
S1369 N1370 1.613 . S
S1369 N1371 1.610 . S
N1370 S1369 1.613 . S
N1370 C1373 1.350 . S
N1371 S1369 1.610 . S
N1371 C1372 1.351 . S
C1372 C1366 1.428 . S
C1372 N1371 1.351 . S
C1372 C1373 1.434 . S
C1373 C1364 1.429 . S
C1373 N1370 1.350 . S
C1373 C1372 1.434 . S
C1374 C1375 1.369 . S
C1374 C1376 1.419 . S
C1374 H1378 0.930 . S
C1375 C1374 1.369 . S
C1375 C1384 1.429 . S
C1376 C1374 1.419 . S
C1376 C1377 1.363 . S
C1376 H1379 0.929 . S
C1377 C1376 1.363 . S
C1377 C1383 1.428 . S
H1378 C1374 0.930 . S
H1379 C1376 0.929 . S
S1380 N1381 1.613 . S
S1380 N1382 1.610 . S
N1381 S1380 1.613 . S
N1381 C1384 1.350 . S
N1382 S1380 1.610 . S
N1382 C1383 1.351 . S
C1383 C1377 1.428 . S
C1383 N1382 1.351 . S
C1383 C1384 1.434 . S
C1384 C1375 1.429 . S
C1384 N1381 1.350 . S
C1384 C1383 1.434 . S
C1385 C1386 1.369 . S
C1385 C1387 1.419 . S
C1385 H1389 0.930 . S
C1386 C1385 1.369 . S
C1386 C1395 1.429 . S
C1387 C1385 1.419 . S
C1387 C1388 1.363 . S
C1387 H1390 0.929 . S
C1388 C1387 1.363 . S
C1388 C1394 1.428 . S
H1389 C1385 0.930 . S
H1390 C1387 0.929 . S
S1391 N1392 1.613 . S
S1391 N1393 1.610 . S
N1392 S1391 1.613 . S
N1392 C1395 1.350 . S
N1393 S1391 1.610 . S
N1393 C1394 1.351 . S
C1394 C1388 1.428 . S
C1394 N1393 1.351 . S
C1394 C1395 1.434 . S
C1395 C1386 1.429 . S
C1395 N1392 1.350 . S
C1395 C1394 1.434 . S
C1396 C1397 1.369 . S
C1396 C1398 1.419 . S
C1396 H1400 0.930 . S
C1397 C1396 1.369 . S
C1397 C1406 1.429 . S
C1398 C1396 1.419 . S
C1398 C1399 1.363 . S
C1398 H1401 0.929 . S
C1399 C1398 1.363 . S
C1399 C1405 1.428 . S
H1400 C1396 0.930 . S
H1401 C1398 0.929 . S
S1402 N1403 1.613 . S
S1402 N1404 1.610 . S
N1403 S1402 1.613 . S
N1403 C1406 1.350 . S
N1404 S1402 1.610 . S
N1404 C1405 1.351 . S
C1405 C1399 1.428 . S
C1405 N1404 1.351 . S
C1405 C1406 1.434 . S
C1406 C1397 1.429 . S
C1406 N1403 1.350 . S
C1406 C1405 1.434 . S
C1407 C1408 1.369 . S
C1407 C1409 1.419 . S
C1407 H1411 0.930 . S
C1408 C1407 1.369 . S
C1408 C1417 1.429 . S
C1409 C1407 1.419 . S
C1409 C1410 1.363 . S
C1409 H1412 0.929 . S
C1410 C1409 1.363 . S
C1410 C1416 1.428 . S
H1411 C1407 0.930 . S
H1412 C1409 0.929 . S
S1413 N1414 1.613 . S
S1413 N1415 1.610 . S
N1414 S1413 1.613 . S
N1414 C1417 1.350 . S
N1415 S1413 1.610 . S
N1415 C1416 1.351 . S
C1416 C1410 1.428 . S
C1416 N1415 1.351 . S
C1416 C1417 1.434 . S
C1417 C1408 1.429 . S
C1417 N1414 1.350 . S
C1417 C1416 1.434 . S
C1418 C1419 1.369 . S
C1418 C1420 1.419 . S
C1418 H1422 0.930 . S
C1419 C1418 1.369 . S
C1419 C1428 1.429 . S
C1420 C1418 1.419 . S
C1420 C1421 1.363 . S
C1420 H1423 0.929 . S
C1421 C1420 1.363 . S
C1421 C1427 1.428 . S
H1422 C1418 0.930 . S
H1423 C1420 0.929 . S
S1424 N1425 1.613 . S
S1424 N1426 1.610 . S
N1425 S1424 1.613 . S
N1425 C1428 1.350 . S
N1426 S1424 1.610 . S
N1426 C1427 1.351 . S
C1427 C1421 1.428 . S
C1427 N1426 1.351 . S
C1427 C1428 1.434 . S
C1428 C1419 1.429 . S
C1428 N1425 1.350 . S
C1428 C1427 1.434 . S
C1429 C1430 1.369 . S
C1429 C1431 1.419 . S
C1429 H1433 0.930 . S
C1430 C1429 1.369 . S
C1430 C1439 1.429 . S
C1431 C1429 1.419 . S
C1431 C1432 1.363 . S
C1431 H1434 0.929 . S
C1432 C1431 1.363 . S
C1432 C1438 1.428 1_655 S
H1433 C1429 0.930 . S
H1434 C1431 0.929 . S
S1435 N1436 1.613 . S
S1435 N1437 1.610 . S
N1436 S1435 1.613 . S
N1436 C1439 1.350 1_455 S
N1437 S1435 1.610 . S
N1437 C1438 1.351 . S
C1438 C1432 1.428 1_455 S
C1438 N1437 1.351 . S
C1438 C1439 1.434 1_455 S
C1439 C1430 1.429 . S
C1439 N1436 1.350 1_655 S
C1439 C1438 1.434 1_655 S
C1440 C1441 1.369 . S
C1440 C1442 1.419 . S
C1440 H1444 0.930 . S
C1441 C1440 1.369 . S
C1441 C1450 1.429 . S
C1442 C1440 1.419 . S
C1442 C1443 1.363 . S
C1442 H1445 0.929 . S
C1443 C1442 1.363 . S
C1443 C1449 1.428 . S
H1444 C1440 0.930 . S
H1445 C1442 0.929 . S
S1446 N1447 1.613 . S
S1446 N1448 1.610 . S
N1447 S1446 1.613 . S
N1447 C1450 1.350 . S
N1448 S1446 1.610 . S
N1448 C1449 1.351 . S
C1449 C1443 1.428 . S
C1449 N1448 1.351 . S
C1449 C1450 1.434 . S
C1450 C1441 1.429 . S
C1450 N1447 1.350 . S
C1450 C1449 1.434 . S
C1451 C1452 1.369 . S
C1451 C1453 1.419 . S
C1451 H1455 0.930 . S
C1452 C1451 1.369 . S
C1452 C1461 1.429 . S
C1453 C1451 1.419 . S
C1453 C1454 1.363 . S
C1453 H1456 0.929 . S
C1454 C1453 1.363 . S
C1454 C1460 1.428 . S
H1455 C1451 0.930 . S
H1456 C1453 0.929 . S
S1457 N1458 1.613 . S
S1457 N1459 1.610 . S
N1458 S1457 1.613 . S
N1458 C1461 1.350 . S
N1459 S1457 1.610 . S
N1459 C1460 1.351 . S
C1460 C1454 1.428 . S
C1460 N1459 1.351 . S
C1460 C1461 1.434 . S
C1461 C1452 1.429 . S
C1461 N1458 1.350 . S
C1461 C1460 1.434 . S
C1462 C1463 1.369 1_564 S
C1462 C1464 1.419 . S
C1462 H1466 0.930 . S
C1463 C1462 1.369 1_546 S
C1463 C1472 1.429 . S
C1464 C1462 1.419 . S
C1464 C1465 1.363 1_554 S
C1464 H1467 0.929 . S
C1465 C1464 1.363 1_556 S
C1465 C1471 1.428 . S
H1466 C1462 0.930 . S
H1467 C1464 0.929 . S
S1468 N1469 1.613 . S
S1468 N1470 1.610 . S
N1469 S1468 1.613 . S
N1469 C1472 1.350 . S
N1470 S1468 1.610 . S
N1470 C1471 1.351 1_545 S
C1471 C1465 1.428 . S
C1471 N1470 1.351 1_565 S
C1471 C1472 1.434 1_565 S
C1472 C1463 1.429 . S
C1472 N1469 1.350 . S
C1472 C1471 1.434 1_545 S
C1473 C1474 1.369 . S
C1473 C1475 1.419 . S
C1473 H1477 0.930 . S
C1474 C1473 1.369 . S
C1474 C1483 1.429 . S
C1475 C1473 1.419 . S
C1475 C1476 1.363 . S
C1475 H1478 0.929 . S
C1476 C1475 1.363 . S
C1476 C1482 1.428 . S
H1477 C1473 0.930 . S
H1478 C1475 0.929 . S
S1479 N1480 1.613 . S
S1479 N1481 1.610 . S
N1480 S1479 1.613 . S
N1480 C1483 1.350 . S
N1481 S1479 1.610 . S
N1481 C1482 1.351 . S
C1482 C1476 1.428 . S
C1482 N1481 1.351 . S
C1482 C1483 1.434 . S
C1483 C1474 1.429 . S
C1483 N1480 1.350 . S
C1483 C1482 1.434 . S
C1484 C1485 1.369 1_565 S
C1484 C1486 1.419 1_565 S
C1484 H1488 0.930 . S
C1485 C1484 1.369 1_545 S
C1485 C1494 1.429 . S
C1486 C1484 1.419 1_545 S
C1486 C1487 1.363 . S
C1486 H1489 0.929 1_545 S
C1487 C1486 1.363 . S
C1487 C1493 1.428 . S
H1488 C1484 0.930 . S
H1489 C1486 0.929 1_565 S
S1490 N1491 1.613 . S
S1490 N1492 1.610 . S
N1491 S1490 1.613 . S
N1491 C1494 1.350 . S
N1492 S1490 1.610 . S
N1492 C1493 1.351 . S
C1493 C1487 1.428 . S
C1493 N1492 1.351 . S
C1493 C1494 1.434 . S
C1494 C1485 1.429 . S
C1494 N1491 1.350 . S
C1494 C1493 1.434 . S
C1495 C1496 1.369 . S
C1495 C1497 1.419 . S
C1495 H1499 0.930 . S
C1496 C1495 1.369 . S
C1496 C1505 1.429 . S
C1497 C1495 1.419 . S
C1497 C1498 1.363 . S
C1497 H1500 0.929 . S
C1498 C1497 1.363 . S
C1498 C1504 1.428 . S
H1499 C1495 0.930 . S
H1500 C1497 0.929 . S
S1501 N1502 1.613 . S
S1501 N1503 1.610 . S
N1502 S1501 1.613 . S
N1502 C1505 1.350 . S
N1503 S1501 1.610 . S
N1503 C1504 1.351 . S
C1504 C1498 1.428 . S
C1504 N1503 1.351 . S
C1504 C1505 1.434 . S
C1505 C1496 1.429 . S
C1505 N1502 1.350 . S
C1505 C1504 1.434 . S
C1506 C1507 1.369 . S
C1506 C1508 1.419 . S
C1506 H1510 0.930 . S
C1507 C1506 1.369 . S
C1507 C1516 1.429 . S
C1508 C1506 1.419 . S
C1508 C1509 1.363 . S
C1508 H1511 0.929 . S
C1509 C1508 1.363 . S
C1509 C1515 1.428 . S
H1510 C1506 0.930 . S
H1511 C1508 0.929 . S
S1512 N1513 1.613 . S
S1512 N1514 1.610 1_565 S
N1513 S1512 1.613 . S
N1513 C1516 1.350 1_565 S
N1514 S1512 1.610 1_545 S
N1514 C1515 1.351 . S
C1515 C1509 1.428 . S
C1515 N1514 1.351 . S
C1515 C1516 1.434 . S
C1516 C1507 1.429 . S
C1516 N1513 1.350 1_545 S
C1516 C1515 1.434 . S
C1517 C1518 1.369 . S
C1517 C1519 1.419 . S
C1517 H1521 0.930 . S
C1518 C1517 1.369 . S
C1518 C1527 1.429 . S
C1519 C1517 1.419 . S
C1519 C1520 1.363 . S
C1519 H1522 0.929 . S
C1520 C1519 1.363 . S
C1520 C1526 1.428 . S
H1521 C1517 0.930 . S
H1522 C1519 0.929 . S
S1523 N1524 1.613 . S
S1523 N1525 1.610 . S
N1524 S1523 1.613 . S
N1524 C1527 1.350 . S
N1525 S1523 1.610 . S
N1525 C1526 1.351 . S
C1526 C1520 1.428 . S
C1526 N1525 1.351 . S
C1526 C1527 1.434 . S
C1527 C1518 1.429 . S
C1527 N1524 1.350 . S
C1527 C1526 1.434 . S
C1528 C1529 1.369 . S
C1528 C1530 1.419 . S
C1528 H1532 0.930 . S
C1529 C1528 1.369 . S
C1529 C1538 1.429 . S
C1530 C1528 1.419 . S
C1530 C1531 1.363 . S
C1530 H1533 0.929 . S
C1531 C1530 1.363 . S
C1531 C1537 1.428 . S
H1532 C1528 0.930 . S
H1533 C1530 0.929 . S
S1534 N1535 1.613 . S
S1534 N1536 1.610 . S
N1535 S1534 1.613 . S
N1535 C1538 1.350 . S
N1536 S1534 1.610 . S
N1536 C1537 1.351 . S
C1537 C1531 1.428 . S
C1537 N1536 1.351 . S
C1537 C1538 1.434 . S
C1538 C1529 1.429 . S
C1538 N1535 1.350 . S
C1538 C1537 1.434 . S
C1539 C1540 1.369 . S
C1539 C1541 1.419 . S
C1539 H1543 0.930 . S
C1540 C1539 1.369 . S
C1540 C1549 1.429 . S
C1541 C1539 1.419 . S
C1541 C1542 1.363 . S
C1541 H1544 0.929 . S
C1542 C1541 1.363 . S
C1542 C1548 1.428 . S
H1543 C1539 0.930 . S
H1544 C1541 0.929 . S
S1545 N1546 1.613 . S
S1545 N1547 1.610 . S
N1546 S1545 1.613 . S
N1546 C1549 1.350 . S
N1547 S1545 1.610 . S
N1547 C1548 1.351 . S
C1548 C1542 1.428 . S
C1548 N1547 1.351 . S
C1548 C1549 1.434 . S
C1549 C1540 1.429 . S
C1549 N1546 1.350 . S
C1549 C1548 1.434 . S
C1550 C1551 1.369 . S
C1550 C1552 1.419 . S
C1550 H1554 0.930 . S
C1551 C1550 1.369 . S
C1551 C1560 1.429 . S
C1552 C1550 1.419 . S
C1552 C1553 1.363 . S
C1552 H1555 0.929 . S
C1553 C1552 1.363 . S
C1553 C1559 1.428 . S
H1554 C1550 0.930 . S
H1555 C1552 0.929 . S
S1556 N1557 1.613 . S
S1556 N1558 1.610 . S
N1557 S1556 1.613 . S
N1557 C1560 1.350 . S
N1558 S1556 1.610 . S
N1558 C1559 1.351 . S
C1559 C1553 1.428 . S
C1559 N1558 1.351 . S
C1559 C1560 1.434 . S
C1560 C1551 1.429 . S
C1560 N1557 1.350 . S
C1560 C1559 1.434 . S
C1561 C1562 1.369 . S
C1561 C1563 1.419 . S
C1561 H1565 0.930 . S
C1562 C1561 1.369 . S
C1562 C1571 1.429 . S
C1563 C1561 1.419 . S
C1563 C1564 1.363 . S
C1563 H1566 0.929 . S
C1564 C1563 1.363 . S
C1564 C1570 1.428 . S
H1565 C1561 0.930 . S
H1566 C1563 0.929 . S
S1567 N1568 1.613 . S
S1567 N1569 1.610 . S
N1568 S1567 1.613 . S
N1568 C1571 1.350 . S
N1569 S1567 1.610 . S
N1569 C1570 1.351 . S
C1570 C1564 1.428 . S
C1570 N1569 1.351 . S
C1570 C1571 1.434 . S
C1571 C1562 1.429 . S
C1571 N1568 1.350 . S
C1571 C1570 1.434 . S
C1572 C1573 1.369 . S
C1572 C1574 1.419 . S
C1572 H1576 0.930 . S
C1573 C1572 1.369 . S
C1573 C1582 1.429 . S
C1574 C1572 1.419 . S
C1574 C1575 1.363 . S
C1574 H1577 0.929 . S
C1575 C1574 1.363 . S
C1575 C1581 1.428 . S
H1576 C1572 0.930 . S
H1577 C1574 0.929 . S
S1578 N1579 1.613 . S
S1578 N1580 1.610 . S
N1579 S1578 1.613 . S
N1579 C1582 1.350 . S
N1580 S1578 1.610 . S
N1580 C1581 1.351 . S
C1581 C1575 1.428 . S
C1581 N1580 1.351 . S
C1581 C1582 1.434 . S
C1582 C1573 1.429 . S
C1582 N1579 1.350 . S
C1582 C1581 1.434 . S
C1583 C1584 1.369 . S
C1583 C1585 1.419 . S
C1583 H1587 0.930 . S
C1584 C1583 1.369 . S
C1584 C1593 1.429 1_545 S
C1585 C1583 1.419 . S
C1585 C1586 1.363 . S
C1585 H1588 0.929 . S
C1586 C1585 1.363 . S
C1586 C1592 1.428 1_545 S
H1587 C1583 0.930 . S
H1588 C1585 0.929 . S
S1589 N1590 1.613 . S
S1589 N1591 1.610 . S
N1590 S1589 1.613 . S
N1590 C1593 1.350 . S
N1591 S1589 1.610 . S
N1591 C1592 1.351 . S
C1592 C1586 1.428 1_565 S
C1592 N1591 1.351 . S
C1592 C1593 1.434 . S
C1593 C1584 1.429 1_565 S
C1593 N1590 1.350 . S
C1593 C1592 1.434 . S
C1594 C1595 1.369 . S
C1594 C1596 1.419 . S
C1594 H1598 0.930 . S
C1595 C1594 1.369 . S
C1595 C1604 1.429 . S
C1596 C1594 1.419 . S
C1596 C1597 1.363 . S
C1596 H1599 0.929 . S
C1597 C1596 1.363 . S
C1597 C1603 1.428 . S
H1598 C1594 0.930 . S
H1599 C1596 0.929 . S
S1600 N1601 1.613 . S
S1600 N1602 1.610 . S
N1601 S1600 1.613 . S
N1601 C1604 1.350 . S
N1602 S1600 1.610 . S
N1602 C1603 1.351 . S
C1603 C1597 1.428 . S
C1603 N1602 1.351 . S
C1603 C1604 1.434 . S
C1604 C1595 1.429 . S
C1604 N1601 1.350 . S
C1604 C1603 1.434 . S
C1605 C1606 1.369 . S
C1605 C1607 1.419 . S
C1605 H1609 0.953 . S
C1606 C1605 1.369 . S
C1606 C1615 1.429 . S
C1607 C1605 1.419 . S
C1607 C1608 1.363 . S
C1607 H1610 0.929 . S
C1608 C1607 1.363 . S
C1608 C1614 1.428 . S
H1609 C1605 0.953 . S
H1610 C1607 0.929 . S
S1611 N1612 1.613 . S
S1611 N1613 1.610 . S
N1612 S1611 1.613 . S
N1612 C1615 1.350 . S
N1613 S1611 1.610 . S
N1613 C1614 1.351 . S
C1614 C1608 1.428 . S
C1614 N1613 1.351 . S
C1614 C1615 1.434 . S
C1615 C1606 1.429 . S
C1615 N1612 1.350 . S
C1615 C1614 1.434 . S
C1616 C1617 1.369 . S
C1616 C1618 1.419 . S
C1616 H1620 0.930 . S
C1617 C1616 1.369 . S
C1617 C1626 1.429 . S
C1618 C1616 1.419 . S
C1618 C1619 1.363 . S
C1618 H1621 0.929 . S
C1619 C1618 1.363 . S
C1619 C1625 1.428 . S
H1620 C1616 0.930 . S
H1621 C1618 0.929 . S
S1622 N1623 1.613 . S
S1622 N1624 1.610 . S
N1623 S1622 1.613 . S
N1623 C1626 1.350 . S
N1624 S1622 1.610 . S
N1624 C1625 1.351 . S
C1625 C1619 1.428 . S
C1625 N1624 1.351 . S
C1625 C1626 1.434 . S
C1626 C1617 1.429 . S
C1626 N1623 1.350 . S
C1626 C1625 1.434 . S
C1627 C1628 1.369 . S
C1627 C1629 1.419 . S
C1627 H1631 0.930 . S
C1628 C1627 1.369 . S
C1628 C1637 1.455 . S
C1629 C1627 1.419 . S
C1629 C1630 1.363 . S
C1629 H1632 0.929 . S
C1630 C1629 1.363 . S
C1630 C1636 1.428 1_554 S
H1631 C1627 0.930 . S
H1632 C1629 0.929 . S
S1633 N1634 1.613 . S
S1633 N1635 1.610 . S
N1634 S1633 1.613 . S
N1634 C1637 1.329 1_556 S
N1635 S1633 1.610 . S
N1635 C1636 1.351 . S
C1636 C1630 1.428 1_556 S
C1636 N1635 1.351 . S
C1636 C1637 1.426 1_556 S
C1637 C1628 1.455 . S
C1637 N1634 1.329 1_554 S
C1637 C1636 1.426 1_554 S
C1638 C1639 1.369 . S
C1638 C1640 1.419 . S
C1638 H1642 0.930 . S
C1639 C1638 1.369 . S
C1639 C1648 1.429 . S
C1640 C1638 1.419 . S
C1640 C1641 1.363 . S
C1640 H1643 0.929 . S
C1641 C1640 1.363 . S
C1641 C1647 1.428 . S
H1642 C1638 0.930 . S
H1643 C1640 0.929 . S
S1644 N1645 1.613 . S
S1644 N1646 1.610 . S
N1645 S1644 1.613 . S
N1645 C1648 1.350 . S
N1646 S1644 1.610 . S
N1646 C1647 1.351 . S
C1647 C1641 1.428 . S
C1647 N1646 1.351 . S
C1647 C1648 1.434 . S
C1648 C1639 1.429 . S
C1648 N1645 1.350 . S
C1648 C1647 1.434 . S
C1649 C1650 1.393 1_556 S
C1649 C1651 1.411 1_455 S
C1649 H1653 0.915 1_455 S
C1650 C1649 1.393 1_554 S
C1650 C1659 1.429 . S
C1651 C1649 1.411 1_655 S
C1651 C1652 1.363 1_655 S
C1651 H1654 0.929 . S
C1652 C1651 1.363 1_455 S
C1652 C1658 1.428 1_556 S
H1653 C1649 0.915 1_655 S
H1654 C1651 0.929 . S
S1655 N1656 1.613 . S
S1655 N1657 1.610 . S
N1656 S1655 1.613 . S
N1656 C1659 1.350 . S
N1657 S1655 1.610 . S
N1657 C1658 1.351 . S
C1658 C1652 1.428 1_554 S
C1658 N1657 1.351 . S
C1658 C1659 1.434 . S
C1659 C1650 1.429 . S
C1659 N1656 1.350 . S
C1659 C1658 1.434 . S
C1660 C1661 1.369 . S
C1660 C1662 1.419 . S
C1660 H1664 0.930 . S
C1661 C1660 1.369 . S
C1661 C1670 1.429 . S
C1662 C1660 1.419 . S
C1662 C1663 1.363 . S
C1662 H1665 0.929 . S
C1663 C1662 1.363 . S
C1663 C1669 1.428 . S
H1664 C1660 0.930 . S
H1665 C1662 0.929 . S
S1666 N1667 1.613 . S
S1666 N1668 1.610 . S
N1667 S1666 1.613 . S
N1667 C1670 1.350 . S
N1668 S1666 1.610 . S
N1668 C1669 1.351 . S
C1669 C1663 1.428 . S
C1669 N1668 1.351 . S
C1669 C1670 1.434 . S
C1670 C1661 1.429 . S
C1670 N1667 1.350 . S
C1670 C1669 1.434 . S
C1671 C1672 1.369 . S
C1671 C1673 1.419 . S
C1671 H1675 0.930 . S
C1672 C1671 1.369 . S
C1672 C1681 1.429 . S
C1673 C1671 1.419 . S
C1673 C1674 1.363 . S
C1673 H1676 0.929 . S
C1674 C1673 1.363 . S
C1674 C1680 1.428 . S
H1675 C1671 0.930 . S
H1676 C1673 0.929 . S
S1677 N1678 1.613 1_554 S
S1677 N1679 1.610 . S
N1678 S1677 1.613 1_556 S
N1678 C1681 1.350 1_556 S
N1679 S1677 1.610 . S
N1679 C1680 1.351 . S
C1680 C1674 1.428 . S
C1680 N1679 1.351 . S
C1680 C1681 1.434 . S
C1681 C1672 1.429 . S
C1681 N1678 1.350 1_554 S
C1681 C1680 1.434 . S
C1682 C1683 1.369 . S
C1682 C1684 1.419 . S
C1682 H1686 0.930 . S
C1683 C1682 1.369 . S
C1683 C1692 1.429 . S
C1684 C1682 1.419 . S
C1684 C1685 1.363 . S
C1684 H1687 0.929 . S
C1685 C1684 1.363 . S
C1685 C1691 1.428 . S
H1686 C1682 0.930 . S
H1687 C1684 0.929 . S
S1688 N1689 1.613 . S
S1688 N1690 1.610 . S
N1689 S1688 1.613 . S
N1689 C1692 1.350 . S
N1690 S1688 1.610 . S
N1690 C1691 1.351 . S
C1691 C1685 1.428 . S
C1691 N1690 1.351 . S
C1691 C1692 1.434 . S
C1692 C1683 1.429 . S
C1692 N1689 1.350 . S
C1692 C1691 1.434 . S
C1693 C1694 1.360 1_556 S
C1693 C1695 1.419 1_556 S
C1693 H1697 0.930 . S
C1694 C1693 1.360 1_554 S
C1694 C1703 1.451 . S
C1695 C1693 1.419 1_554 S
C1695 C1696 1.363 . S
C1695 H1698 0.929 . S
C1696 C1695 1.363 . S
C1696 C1702 1.428 . S
H1697 C1693 0.930 . S
H1698 C1695 0.929 . S
S1699 N1700 1.613 . S
S1699 N1701 1.610 . S
N1700 S1699 1.613 . S
N1700 C1703 1.350 . S
N1701 S1699 1.610 . S
N1701 C1702 1.351 . S
C1702 C1696 1.428 . S
C1702 N1701 1.351 . S
C1702 C1703 1.434 . S
C1703 C1694 1.451 . S
C1703 N1700 1.350 . S
C1703 C1702 1.434 . S
C1704 C1705 1.369 . S
C1704 C1706 1.419 . S
C1704 H1708 0.930 . S
C1705 C1704 1.369 . S
C1705 C1714 1.429 . S
C1706 C1704 1.419 . S
C1706 C1707 1.363 . S
C1706 H1709 0.929 . S
C1707 C1706 1.363 . S
C1707 C1713 1.428 . S
H1708 C1704 0.930 . S
H1709 C1706 0.929 . S
S1710 N1711 1.613 . S
S1710 N1712 1.610 . S
N1711 S1710 1.613 . S
N1711 C1714 1.350 . S
N1712 S1710 1.610 . S
N1712 C1713 1.351 . S
C1713 C1707 1.428 . S
C1713 N1712 1.351 . S
C1713 C1714 1.434 . S
C1714 C1705 1.429 . S
C1714 N1711 1.350 . S
C1714 C1713 1.434 . S
C1715 C1716 1.369 . S
C1715 C1717 1.419 . S
C1715 H1719 0.930 . S
C1716 C1715 1.369 . S
C1716 C1725 1.429 . S
C1717 C1715 1.419 . S
C1717 C1718 1.363 . S
C1717 H1720 0.929 . S
C1718 C1717 1.363 . S
C1718 C1724 1.428 . S
H1719 C1715 0.930 . S
H1720 C1717 0.929 . S
S1721 N1722 1.613 . S
S1721 N1723 1.610 . S
N1722 S1721 1.613 . S
N1722 C1725 1.350 . S
N1723 S1721 1.610 . S
N1723 C1724 1.351 . S
C1724 C1718 1.428 . S
C1724 N1723 1.351 . S
C1724 C1725 1.434 . S
C1725 C1716 1.429 . S
C1725 N1722 1.350 . S
C1725 C1724 1.434 . S
C1726 C1727 1.369 . S
C1726 C1728 1.419 . S
C1726 H1730 0.930 . S
C1727 C1726 1.369 . S
C1727 C1736 1.429 . S
C1728 C1726 1.419 . S
C1728 C1729 1.363 . S
C1728 H1731 0.929 . S
C1729 C1728 1.363 . S
C1729 C1735 1.428 . S
H1730 C1726 0.930 . S
H1731 C1728 0.929 . S
S1732 N1733 1.613 . S
S1732 N1734 1.610 . S
N1733 S1732 1.613 . S
N1733 C1736 1.350 . S
N1734 S1732 1.610 . S
N1734 C1735 1.351 . S
C1735 C1729 1.428 . S
C1735 N1734 1.351 . S
C1735 C1736 1.434 . S
C1736 C1727 1.429 . S
C1736 N1733 1.350 . S
C1736 C1735 1.434 . S
C1737 C1738 1.369 . S
C1737 C1739 1.419 . S
C1737 H1741 0.930 . S
C1738 C1737 1.369 . S
C1738 C1747 1.429 . S
C1739 C1737 1.419 . S
C1739 C1740 1.363 . S
C1739 H1742 0.929 . S
C1740 C1739 1.363 . S
C1740 C1746 1.428 . S
H1741 C1737 0.930 . S
H1742 C1739 0.929 . S
S1743 N1744 1.613 . S
S1743 N1745 1.610 . S
N1744 S1743 1.613 . S
N1744 C1747 1.350 . S
N1745 S1743 1.610 . S
N1745 C1746 1.351 . S
C1746 C1740 1.428 . S
C1746 N1745 1.351 . S
C1746 C1747 1.434 . S
C1747 C1738 1.429 . S
C1747 N1744 1.350 . S
C1747 C1746 1.434 . S
C1748 C1749 1.369 . S
C1748 C1750 1.419 . S
C1748 H1752 0.930 . S
C1749 C1748 1.369 . S
C1749 C1758 1.442 . S
C1750 C1748 1.419 . S
C1750 C1751 1.363 . S
C1750 H1753 0.929 . S
C1751 C1750 1.363 . S
C1751 C1757 1.428 . S
H1752 C1748 0.930 . S
H1753 C1750 0.929 . S
S1754 N1755 1.613 . S
S1754 N1756 1.610 . S
N1755 S1754 1.613 . S
N1755 C1758 1.333 1_554 S
N1756 S1754 1.610 . S
N1756 C1757 1.351 1_554 S
C1757 C1751 1.428 . S
C1757 N1756 1.351 1_556 S
C1757 C1758 1.436 . S
C1758 C1749 1.442 . S
C1758 N1755 1.333 1_556 S
C1758 C1757 1.436 . S
C1759 C1760 1.369 . S
C1759 C1761 1.419 . S
C1759 H1763 0.930 . S
C1760 C1759 1.369 . S
C1760 C1769 1.429 . S
C1761 C1759 1.419 . S
C1761 C1762 1.363 . S
C1761 H1764 0.929 . S
C1762 C1761 1.363 . S
C1762 C1768 1.428 . S
H1763 C1759 0.930 . S
H1764 C1761 0.929 . S
S1765 N1766 1.613 . S
S1765 N1767 1.610 . S
N1766 S1765 1.613 . S
N1766 C1769 1.350 . S
N1767 S1765 1.610 . S
N1767 C1768 1.351 . S
C1768 C1762 1.428 . S
C1768 N1767 1.351 . S
C1768 C1769 1.434 . S
C1769 C1760 1.429 . S
C1769 N1766 1.350 . S
C1769 C1768 1.434 . S
C1770 C1771 1.369 . S
C1770 C1772 1.419 . S
C1770 H1774 0.930 . S
C1771 C1770 1.369 . S
C1771 C1780 1.429 . S
C1772 C1770 1.419 . S
C1772 C1773 1.363 . S
C1772 H1775 0.929 . S
C1773 C1772 1.363 . S
C1773 C1779 1.428 . S
H1774 C1770 0.930 . S
H1775 C1772 0.929 . S
S1776 N1777 1.612 . S
S1776 N1778 1.610 . S
N1777 S1776 1.612 . S
N1777 C1780 1.350 . S
N1778 S1776 1.610 . S
N1778 C1779 1.356 . S
C1779 C1773 1.428 . S
C1779 N1778 1.356 . S
C1779 C1780 1.434 . S
C1780 C1771 1.429 . S
C1780 N1777 1.350 . S
C1780 C1779 1.434 . S
C1781 C1782 1.369 . S
C1781 C1783 1.419 . S
C1781 H1785 0.930 . S
C1782 C1781 1.369 . S
C1782 C1791 1.427 1_565 S
C1783 C1781 1.419 . S
C1783 C1784 1.363 . S
C1783 H1786 0.929 . S
C1784 C1783 1.363 . S
C1784 C1790 1.428 . S
H1785 C1781 0.930 . S
H1786 C1783 0.929 . S
S1787 N1788 1.613 . S
S1787 N1789 1.610 . S
N1788 S1787 1.613 . S
N1788 C1791 1.354 . S
N1789 S1787 1.610 . S
N1789 C1790 1.351 1_545 S
C1790 C1784 1.428 . S
C1790 N1789 1.351 1_565 S
C1790 C1791 1.432 1_565 S
C1791 C1782 1.427 1_545 S
C1791 N1788 1.354 . S
C1791 C1790 1.432 1_545 S
C1267 C257 1.307 . S
C1265 N66 1.286 . S
C1278 C316 1.576 . S
C1276 N79 1.568 . S
C1287 N92 1.773 . S
C1289 C433 1.796 . S
C1300 C501 1.399 . S
C1298 N54 1.419 . S
C1311 C580 1.556 . S
C1309 N131 1.565 . S
C1322 C705 1.232 . S
C1320 N158 1.229 . S
C1331 N145 1.541 . S
C1333 C765 1.543 . S
C1344 C873 1.776 . S
C1342 N118 1.762 . S
C1353 N148 1.966 . S
C1355 C969 1.950 . S
C1366 C1029 1.621 . S
C1364 N122 1.614 . S
C1375 N132 1.302 . S
C1377 C932 1.296 . S
C1388 C1049 1.516 . S
C1386 N161 1.478 . S
C1397 N96 1.839 . S
C1399 C1117 1.887 . S
C1408 N53 1.732 . S
C1410 C1108 1.748 . S
C1419 N67 1.122 . S
C1421 C1137 1.128 . S
C1430 N83 1.348 . S
C1432 C1145 1.361 . S
C1441 N44 1.454 . S
C1443 C529 1.477 . S
C1452 N187 1.538 . S
C1454 C492 1.537 . S
C1465 C228 1.224 . S
C1463 N197 1.230 . S
C1476 C325 1.313 . S
C1474 N106 1.315 . S
C1485 N57 1.824 1_545 S
C1487 C589 1.847 . S
C1498 C881 1.462 . S
C1496 N144 1.442 . S
C1509 C609 1.406 . S
C1507 N119 1.418 1_545 S
C1520 C793 1.808 . S
C1518 N157 1.763 . S
C1531 C785 1.307 . S
C1529 N183 1.288 . S
C1540 N196 1.572 . S
C1542 C853 1.578 . S
C1551 N105 1.771 . S
C1553 C617 1.797 . S
C1564 C668 1.397 . S
C1562 N171 1.405 . S
C1573 N40 1.565 . S
C1575 C413 1.553 . S
C1586 C521 1.232 . S
C1584 N2 1.229 . S
C1597 C237 1.544 . S
C1595 N15 1.539 . S
C1608 C353 1.776 . S
C1606 N27 1.763 1_455 S
C1617 N18 1.965 . S
C1619 C1057 1.950 . S
C1628 N31 1.612 . S
C1630 C941 1.618 1_554 S
C1639 N41 1.300 . S
C1641 C1020 1.298 . S
C1650 N5 1.473 . S
C1652 C961 1.516 . S
C1663 C1205 1.887 . S
C1661 N109 1.840 . S
C1674 C1196 1.748 . S
C1672 N170 1.731 1_554 S
C1685 C1225 1.128 . S
C1683 N184 1.122 . S
C1694 N200 1.337 1_554 S
C1696 C1233 1.361 . S
C1705 N135 1.450 . S
C1707 C697 1.477 . S
C1718 C677 1.539 . S
C1716 N70 1.540 . S
C1729 C756 1.225 . S
C1727 N80 1.229 . S
C1740 C844 1.314 . S
C1738 N93 1.315 . S
C1749 N174 1.828 . S
C1751 C404 1.847 . S
C1762 C345 1.464 . S
C1760 N14 1.441 . S
C1771 N28 1.417 . S
C1773 C441 1.407 . S
C1784 C265 1.809 . S
C1782 N1 1.754 1_565 S
