# Generated by pormake.
# Topology pth, (4,4)-cn, num edge types: 1
# Building blocks:
#     Node 0, Type 0, BuildingBlock: AZAVOO_clean_sbu_0, # of connection points: 4
#     Node 1, Type 0, BuildingBlock: AZAVOO_clean_sbu_0, # of connection points: 4
#     Node 2, Type 0, BuildingBlock: AZAVOO_clean_sbu_0, # of connection points: 4
#     Node 3, Type 1, BuildingBlock: MUDLON_clean_linker_0, # of connection points: 4
#     Node 4, Type 1, BuildingBlock: MUDLON_clean_linker_0, # of connection points: 4
#     Node 5, Type 1, BuildingBlock: MUDLON_clean_linker_0, # of connection points: 4
#     Edge 6, Type (0, 1), BuildingBlock: XIVTED_clean_linker_0, # of connection points: 2
#     Edge 7, Type (0, 1), BuildingBlock: XIVTED_clean_linker_0, # of connection points: 2
#     Edge 8, Type (0, 1), BuildingBlock: XIVTED_clean_linker_0, # of connection points: 2
#     Edge 9, Type (0, 1), BuildingBlock: XIVTED_clean_linker_0, # of connection points: 2
#     Edge 10, Type (0, 1), BuildingBlock: XIVTED_clean_linker_0, # of connection points: 2
#     Edge 11, Type (0, 1), BuildingBlock: XIVTED_clean_linker_0, # of connection points: 2
#     Edge 12, Type (0, 1), BuildingBlock: XIVTED_clean_linker_0, # of connection points: 2
#     Edge 13, Type (0, 1), BuildingBlock: XIVTED_clean_linker_0, # of connection points: 2
#     Edge 14, Type (0, 1), BuildingBlock: XIVTED_clean_linker_0, # of connection points: 2
#     Edge 15, Type (0, 1), BuildingBlock: XIVTED_clean_linker_0, # of connection points: 2
#     Edge 16, Type (0, 1), BuildingBlock: XIVTED_clean_linker_0, # of connection points: 2
#     Edge 17, Type (0, 1), BuildingBlock: XIVTED_clean_linker_0, # of connection points: 2
# Relax obj value: 0.077
# Max RMSD: 0.215
# Mean RMSD: 0.136
data_MOF--net-pth--node1-AZAVOO_clean_sbu_0--node2-MUDLON_clean_linker_0--edge1-XIVTED_clean_linker_0
_symmetry_space_group_name_H-M    P1
_symmetry_Int_Tables_number       1
_symmetry_cell_setting            triclinic
loop_
_symmetry_equiv_pos_as_xyz
'x, y, z'
_cell_length_a     33.106102
_cell_length_b     33.698629
_cell_length_c     68.209261
_cell_angle_alpha  90.948837
_cell_angle_beta   92.404418
_cell_angle_gamma 121.77556
loop_
_atom_site_label
_atom_site_type_symbol
_atom_site_fract_x
_atom_site_fract_y
_atom_site_fract_z
_atom_type_partial_charge
Mg0 Mg 0.16216 0.06161 0.02511 0.0
O1 O 0.09823 0.01167 0.00405 0.0
O2 O 0.09553 0.05185 0.97878 0.0
Mg3 Mg 0.15539 0.1282 0.98442 0.0
C4 C 0.07946 0.01378 -0.01232 0.0
C5 C 0.12362 0.96496 0.04258 0.0
O6 O 0.1283 0.95642 0.02422 0.0
O7 O 0.12059 0.09261 0.03676 0.0
O8 O 0.11978 0.13411 0.01166 0.0
O9 O 0.21069 0.04893 0.00783 0.0
O10 O 0.19493 0.10396 0.00192 0.0
C11 C 0.10935 0.12009 0.02907 0.0
C12 C 0.21493 0.08168 -0.00318 0.0
O13 O 0.13484 0.006 0.04799 0.0
Mg14 Mg 0.93045 0.98787 0.34674 0.0
O15 O 1.00413 0.02231 0.36343 0.0
O16 O 0.01933 0.09056 0.37645 0.0
Mg17 Mg 0.95654 0.09922 0.36949 0.0
C18 C 0.03125 0.06067 0.3734 0.0
C19 C 0.90934 0.89315 0.3293 0.0
O20 O 0.86968 0.88095 0.33773 0.0
O21 O 0.96161 0.03982 0.32229 0.0
O22 O 0.97223 0.10471 0.33702 0.0
O23 O 0.89342 0.95288 0.37401 0.0
O24 O 0.91149 0.02317 0.36563 0.0
C25 C 0.97363 0.08259 0.32194 0.0
C26 C 0.89469 0.99114 0.37819 0.0
O27 O 0.94302 0.9358 0.33057 0.0
Mg28 Mg 0.98649 0.99735 0.68158 0.0
O29 O 0.04351 0.05715 0.70184 0.0
O30 O 0.00868 0.07664 0.72407 0.0
Mg31 Mg 0.9281 0.02711 0.71825 0.0
C32 C 0.04595 0.08234 0.71655 0.0
C33 C 0.04311 0.98231 0.64916 0.0
O34 O 0.00703 0.93891 0.64917 0.0
O35 O 0.96884 0.04615 0.66632 0.0
O36 O 0.92966 0.05996 0.68866 0.0
O37 O 0.98483 0.94509 0.70163 0.0
O38 O 0.93888 0.97425 0.70377 0.0
C39 C 0.94554 0.0646 0.67154 0.0
C40 C 0.95261 0.94763 0.71071 0.0
O41 O 0.04397 0.01306 0.6605 0.0
H42 H 0.85433 0.61438 0.1918 0.0
N43 N 0.92514 0.606 0.18061 0.0
H44 H 0.8529 0.6557 0.22132 0.0
H45 H 0.9915 0.63984 0.21182 0.0
H46 H 0.99044 0.6811 0.24137 0.0
H47 H 0.01921 0.67564 0.1815 0.0
H48 H 0.057 0.73606 0.15759 0.0
H49 H 0.88586 0.61306 0.14722 0.0
H50 H 0.92349 0.6734 0.12309 0.0
H51 H 0.85316 0.52112 0.17012 0.0
H52 H 1.00265 0.598 0.18769 0.0
H53 H 0.85489 0.45019 0.16506 0.0
H54 H 1.00448 0.52685 0.18381 0.0
H55 H 0.87653 0.22416 0.16816 0.0
H56 H 0.89269 0.18499 0.19448 0.0
H57 H 0.01641 0.31722 0.21498 0.0
H58 H 0.99959 0.35608 0.18875 0.0
H59 H 0.02383 0.34634 0.15572 0.0
H60 H 0.05619 0.32009 0.13076 0.0
H61 H 0.91717 0.23998 0.10056 0.0
H62 H 0.88488 0.26674 0.12569 0.0
H63 H 0.86052 0.32099 0.17359 0.0
H64 H 0.8604 0.39207 0.1808 0.0
H65 H 1.00178 0.47443 0.15967 0.0
N66 N 0.92919 0.31313 0.15939 0.0
H67 H 1.00252 0.40359 0.15357 0.0
C68 C 0.92285 0.62405 0.19953 0.0
C69 C 0.88363 0.62801 0.2028 0.0
C70 C 0.8829 0.65156 0.21969 0.0
C71 C 0.92172 0.67195 0.23366 0.0
C72 C 0.96027 0.6663 0.23076 0.0
C73 C 0.96079 0.64243 0.21388 0.0
C74 C 0.94949 0.64 0.16614 0.0
C75 C 0.99809 0.67468 0.16878 0.0
C76 C 0.01963 0.70934 0.15513 0.0
C77 C 0.99313 0.70956 0.13852 0.0
C78 C 0.94491 0.67393 0.13565 0.0
C79 C 0.92335 0.63959 0.14939 0.0
C80 C 0.92737 0.56455 0.17953 0.0
C81 C 0.88612 0.52232 0.1733 0.0
C82 C 0.88725 0.48179 0.17052 0.0
C83 C 0.92981 0.48249 0.17412 0.0
C84 C 0.97117 0.52497 0.18066 0.0
C85 C 0.97006 0.5657 0.1832 0.0
C86 C 0.93647 0.29286 0.17659 0.0
C87 C 0.90662 0.24468 0.17857 0.0
C88 C 0.91629 0.22237 0.19342 0.0
C89 C 0.95614 0.24797 0.20665 0.0
C90 C 0.9853 0.29661 0.20506 0.0
C91 C 0.97568 0.31889 0.19011 0.0
C92 C 0.95165 0.30839 0.14258 0.0
C93 C 1.0005 0.32438 0.14344 0.0
C94 C 0.01893 0.30895 0.12924 0.0
C95 C 0.98903 0.27737 0.1139 0.0
C96 C 0.9411 0.26444 0.11218 0.0
C97 C 0.92263 0.27977 0.12646 0.0
C98 C 0.93098 0.35647 0.1628 0.0
C99 C 0.89145 0.35446 0.17053 0.0
C100 C 0.89141 0.3952 0.17454 0.0
C101 C 0.93093 0.43923 0.17067 0.0
C102 C 0.97089 0.4413 0.16308 0.0
C103 C 0.97113 0.40044 0.15933 0.0
H104 H 0.79065 0.22409 0.53689 0.0
N105 N 0.70968 0.15733 0.51854 0.0
H106 H 0.83302 0.2159 0.56547 0.0
H107 H 0.67336 0.08285 0.54237 0.0
H108 H 0.71624 0.07396 0.57036 0.0
H109 H 0.66929 0.06386 0.50919 0.0
H110 H 0.7009 0.02975 0.48745 0.0
H111 H 0.77862 0.20206 0.49409 0.0
H112 H 0.80925 0.16829 0.47153 0.0
H113 H 0.66618 0.17397 0.54762 0.0
H114 H 0.64232 0.1201 0.48741 0.0
H115 H 0.58806 0.16411 0.54588 0.0
H116 H 0.56457 0.11077 0.48587 0.0
H117 H 0.36674 0.18399 0.52863 0.0
H118 H 0.31132 0.1565 0.5549 0.0
H119 H 0.3049 0.025 0.55269 0.0
H120 H 0.35977 0.05268 0.52618 0.0
H121 H 0.32632 0.05198 0.49274 0.0
H122 H 0.27449 0.03968 0.46389 0.0
H123 H 0.36025 0.18699 0.45303 0.0
H124 H 0.41041 0.19918 0.48264 0.0
H125 H 0.48012 0.20346 0.52507 0.0
H126 H 0.55426 0.20397 0.52823 0.0
H127 H 0.48338 0.06668 0.49933 0.0
N128 N 0.39689 0.13693 0.509 0.0
H129 H 0.40929 0.06666 0.49618 0.0
C130 C 0.72931 0.15404 0.53734 0.0
C131 C 0.77373 0.19172 0.5445 0.0
C132 C 0.7978 0.187 0.56075 0.0
C133 C 0.77798 0.14415 0.56986 0.0
C134 C 0.73238 0.10717 0.56338 0.0
C135 C 0.70797 0.11218 0.54737 0.0
C136 C 0.72204 0.13573 0.50339 0.0
C137 C 0.69976 0.08686 0.50099 0.0
C138 C 0.71767 0.06737 0.48841 0.0
C139 C 0.75808 0.09629 0.47796 0.0
C140 C 0.77878 0.14501 0.47971 0.0
C141 C 0.76101 0.16442 0.49236 0.0
C142 C 0.66042 0.14542 0.51809 0.0
C143 C 0.64396 0.15855 0.53422 0.0
C144 C 0.59929 0.15354 0.53316 0.0
C145 C 0.56999 0.13628 0.51579 0.0
C146 C 0.58589 0.12311 0.49963 0.0
C147 C 0.63071 0.12829 0.50063 0.0
C148 C 0.36742 0.1206 0.52552 0.0
C149 C 0.35372 0.14948 0.53402 0.0
C150 C 0.32224 0.13373 0.54906 0.0
C151 C 0.3037 0.08853 0.55591 0.0
C152 C 0.31816 0.0598 0.5476 0.0
C153 C 0.34979 0.07569 0.53254 0.0
C154 C 0.37171 0.12686 0.49006 0.0
C155 C 0.33436 0.08153 0.48403 0.0
C156 C 0.30488 0.07449 0.46736 0.0
C157 C 0.31255 0.1125 0.45628 0.0
C158 C 0.35245 0.1571 0.46149 0.0
C159 C 0.38148 0.16415 0.47828 0.0
C160 C 0.43951 0.13539 0.51031 0.0
C161 C 0.48071 0.17353 0.51945 0.0
C162 C 0.52282 0.17355 0.52136 0.0
C163 C 0.52457 0.13523 0.51412 0.0
C164 C 0.48314 0.09681 0.50493 0.0
C165 C 0.44079 0.09673 0.50314 0.0
H166 H 0.70464 0.71442 0.89334 0.0
N167 N 0.70917 0.65662 0.86802 0.0
H168 H 0.76443 0.76363 0.91955 0.0
H169 H 0.77926 0.64344 0.88346 0.0
H170 H 0.83954 0.69329 0.90904 0.0
H171 H 0.78557 0.66252 0.85094 0.0
H172 H 0.82745 0.71093 0.82402 0.0
H173 H 0.68389 0.7054 0.84622 0.0
H174 H 0.72429 0.75247 0.81838 0.0
H175 H 0.61561 0.61381 0.86824 0.0
H176 H 0.72842 0.58782 0.86088 0.0
H177 H 0.55666 0.53146 0.86035 0.0
H178 H 0.67018 0.50519 0.85414 0.0
H179 H 0.38809 0.30314 0.85072 0.0
H180 H 0.34568 0.25008 0.8762 0.0
H181 H 0.45133 0.21178 0.88036 0.0
H182 H 0.49457 0.26611 0.85456 0.0
H183 H 0.44308 0.25256 0.80662 0.0
H184 H 0.37827 0.22579 0.78145 0.0
H185 H 0.36003 0.33877 0.79932 0.0
H186 H 0.42417 0.36472 0.82464 0.0
H187 H 0.46114 0.37537 0.86173 0.0
H188 H 0.52079 0.45557 0.87134 0.0
H189 H 0.61417 0.45359 0.82939 0.0
N190 N 0.46956 0.31837 0.83472 0.0
H191 H 0.55476 0.3716 0.82063 0.0
C192 C 0.73756 0.67567 0.88621 0.0
C193 C 0.73301 0.70844 0.89723 0.0
C194 C 0.76715 0.73649 0.91215 0.0
C195 C 0.80681 0.73253 0.91609 0.0
C196 C 0.80945 0.69724 0.90612 0.0
C197 C 0.77485 0.66868 0.89143 0.0
C198 C 0.73173 0.68077 0.85076 0.0
C199 C 0.77175 0.68182 0.84396 0.0
C200 C 0.79559 0.7094 0.82836 0.0
C201 C 0.77959 0.73604 0.81907 0.0
C202 C 0.73833 0.73331 0.82545 0.0
C203 C 0.71486 0.7061 0.84119 0.0
C204 C 0.67631 0.60699 0.86548 0.0
C205 C 0.62758 0.59001 0.8654 0.0
C206 C 0.59399 0.54285 0.86095 0.0
C207 C 0.6085 0.51137 0.85662 0.0
C208 C 0.65758 0.5284 0.85712 0.0
C209 C 0.69117 0.57579 0.86133 0.0
C210 C 0.44467 0.28852 0.85054 0.0
C211 C 0.40239 0.28346 0.85695 0.0
C212 C 0.37784 0.25273 0.87152 0.0
C213 C 0.39472 0.22614 0.88007 0.0
C214 C 0.43748 0.23182 0.87402 0.0
C215 C 0.46213 0.2627 0.85932 0.0
C216 C 0.43858 0.3104 0.81758 0.0
C217 C 0.42595 0.27227 0.80471 0.0
C218 C 0.3889 0.25709 0.79033 0.0
C219 C 0.36358 0.27986 0.78851 0.0
C220 C 0.37833 0.32003 0.80055 0.0
C221 C 0.41546 0.33522 0.81494 0.0
C222 C 0.50361 0.36678 0.84054 0.0
C223 C 0.49446 0.39157 0.85469 0.0
C224 C 0.52869 0.43806 0.86007 0.0
C225 C 0.57256 0.46135 0.85121 0.0
C226 C 0.5813 0.43667 0.83687 0.0
C227 C 0.54724 0.38991 0.83168 0.0
H228 H 0.06705 0.16733 0.01659 0.0
H229 H 0.04187 0.2403 0.12505 0.0
H230 H 0.10013 0.11687 0.06889 0.0
H231 H 0.97488 0.26057 0.07383 0.0
H232 H 0.06805 0.19936 0.10433 0.0
H233 H 0.03613 0.20462 0.03695 0.0
C234 C 0.06755 0.1638 0.03234 0.0
C235 C 0.08646 0.13906 0.04104 0.0
C236 C 0.04764 0.21273 0.09759 0.0
C237 C 0.05154 0.18215 0.06442 0.0
C238 C 0.03312 0.23656 0.10938 0.0
C239 C 0.00654 0.25426 0.10111 0.0
C240 C 0.03586 0.20675 0.07731 0.0
C241 C 0.99528 0.24743 0.08078 0.0
C242 C 0.04984 0.1851 0.04394 0.0
C243 C 0.08591 0.13552 0.06152 0.0
N244 N 0.01023 0.2244 0.06954 0.0
N245 N 0.06916 0.15719 0.07251 0.0
H246 H 0.81128 0.93246 0.39507 0.0
H247 H 0.85273 0.13011 0.47437 0.0
H248 H 0.94017 0.06808 0.40284 0.0
H249 H 0.71304 0.01587 0.45414 0.0
H250 H 0.88811 0.0991 0.45317 0.0
H251 H 0.77814 0.95342 0.42218 0.0
C252 C 0.83289 0.9662 0.4028 0.0
C253 C 0.87812 0.99895 0.39666 0.0
C254 C 0.84971 0.0807 0.45343 0.0
C255 C 0.84081 0.0231 0.42732 0.0
C256 C 0.82942 0.0986 0.46541 0.0
C257 C 0.77974 0.0761 0.46579 0.0
C258 C 0.82024 0.03979 0.44176 0.0
C259 C 0.75148 0.03442 0.45434 0.0
C260 C 0.81391 0.97828 0.41808 0.0
C261 C 0.90475 0.0423 0.40692 0.0
N262 N 0.77214 0.01776 0.44267 0.0
N263 N 0.88562 0.05324 0.42169 0.0
H264 H 0.89203 0.95293 0.73521 0.0
H265 H 0.82654 0.72184 0.79 0.0
H266 H 0.96304 0.87818 0.72538 0.0
H267 H 0.7951 0.82291 0.81217 0.0
H268 H 0.87237 0.77552 0.76476 0.0
H269 H 0.852 0.90274 0.76212 0.0
C270 C 0.89966 0.92632 0.73882 0.0
C271 C 0.93114 0.91993 0.72805 0.0
C272 C 0.8555 0.7859 0.7752 0.0
C273 C 0.88456 0.86162 0.75866 0.0
C274 C 0.8294 0.75534 0.78967 0.0
C275 C 0.80669 0.76769 0.80328 0.0
C276 C 0.85855 0.82894 0.77418 0.0
C277 C 0.81108 0.81133 0.80181 0.0
C278 C 0.87666 0.89758 0.75419 0.0
C279 C 0.93919 0.88447 0.73335 0.0
N280 N 0.83629 0.84024 0.78749 0.0
N281 N 0.91571 0.85634 0.74818 0.0
H282 H 0.0849 0.87166 0.03458 0.0
H283 H 0.05048 0.80354 0.14703 0.0
H284 H 0.12095 0.97207 0.08257 0.0
H285 H 0.98539 0.70225 0.09831 0.0
H286 H 0.0838 0.86615 0.12378 0.0
H287 H 0.05489 0.80948 0.05792 0.0
C288 C 0.08659 0.88067 0.05004 0.0
C289 C 0.10542 0.92716 0.05663 0.0
C290 C 0.06228 0.83022 0.11818 0.0
C291 C 0.07126 0.85609 0.08344 0.0
C292 C 0.04357 0.79448 0.13143 0.0
C293 C 0.01512 0.74765 0.12457 0.0
C294 C 0.05281 0.81904 0.09792 0.0
C295 C 0.00676 0.73791 0.10421 0.0
C296 C 0.06934 0.84511 0.06334 0.0
C297 C 0.1066 0.93671 0.07683 0.0
N298 N 0.02559 0.7733 0.09161 0.0
N299 N 0.08985 0.90147 0.08953 0.0
H300 H 0.10219 0.14226 0.39158 0.0
H301 H 0.25876 0.03849 0.42938 0.0
H302 H 0.06543 1.00178 0.37618 0.0
H303 H 0.28279 0.17267 0.44818 0.0
H304 H 0.19354 0.02699 0.40677 0.0
H305 H 0.17453 0.1567 0.40898 0.0
C306 C 0.10937 0.11441 0.39176 0.0
C307 C 0.07724 0.07051 0.38254 0.0
C308 C 0.21352 0.05912 0.41572 0.0
C309 C 0.1605 0.08691 0.40267 0.0
C310 C 0.25065 0.06567 0.42869 0.0
C311 C 0.27646 0.10662 0.4408 0.0
C312 C 0.2021 0.09374 0.41486 0.0
C313 C 0.26466 0.14086 0.439 0.0
C314 C 0.15085 0.12273 0.40174 0.0
C315 C 0.08901 0.03607 0.38315 0.0
N316 N 0.22831 0.1335 0.42641 0.0
N317 N 0.12953 0.04488 0.39321 0.0
H318 H 0.06714 0.14107 0.74894 0.0
H319 H 0.3464 0.23921 0.75134 0.0
H320 H 0.13351 0.10468 0.70481 0.0
H321 H 0.27912 0.27159 0.79643 0.0
H322 H 0.27001 0.19622 0.73233 0.0
H323 H 0.1457 0.19538 0.76477 0.0
C324 C 0.09818 0.14466 0.74248 0.0
C325 C 0.09351 0.11785 0.72559 0.0
C326 C 0.27207 0.21313 0.7463 0.0
C327 C 0.18373 0.18004 0.74371 0.0
C328 C 0.31567 0.2376 0.75718 0.0
C329 C 0.31922 0.25887 0.77558 0.0
C330 C 0.23157 0.20965 0.75389 0.0
C331 C 0.2783 0.25618 0.78225 0.0
C332 C 0.14309 0.17572 0.75155 0.0
C333 C 0.13519 0.12428 0.71788 0.0
N334 N 0.23616 0.23169 0.77151 0.0
N335 N 0.17844 0.15445 0.72707 0.0
H336 H 0.91076 0.12182 0.67728 0.0
H337 H 0.79843 0.07618 0.56904 0.0
H338 H 0.94563 0.05636 0.63162 0.0
H339 H 0.82289 0.19518 0.60421 0.0
H340 H 0.8466 0.06369 0.59336 0.0
H341 H 0.87453 0.14657 0.65209 0.0
C342 C 0.91144 0.11325 0.66197 0.0
C343 C 0.93094 0.08664 0.65657 0.0
C344 C 0.84163 0.09267 0.59574 0.0
C345 C 0.8888 0.11398 0.62787 0.0
C346 C 0.81383 0.0995 0.58199 0.0
C347 C 0.80651 0.13648 0.58479 0.0
C348 C 0.86156 0.12252 0.6126 0.0
C349 C 0.82774 0.16621 0.60162 0.0
C350 C 0.89081 0.12741 0.64764 0.0
C351 C 0.93099 0.07671 0.6365 0.0
N352 N 0.85396 0.15827 0.61508 0.0
N353 N 0.90949 0.0897 0.62292 0.0
H354 H 0.01164 0.93575 0.00539 0.0
H355 H 0.89824 0.78397 0.90585 0.0
H356 H 0.05547 0.993 0.94856 0.0
H357 H 0.80925 0.76575 0.95353 0.0
H358 H 0.96535 0.85108 0.92414 0.0
H359 H 0.94488 0.86389 -0.01099 0.0
C360 C 0.00725 0.93314 -0.0105 0.0
C361 C 0.03887 0.97041 0.97828 0.0
C362 C 0.93123 0.83206 0.93066 0.0
C363 C 0.96385 0.88847 0.95965 0.0
C364 C 0.89313 0.7936 0.92035 0.0
C365 C 0.84831 0.76932 0.92827 0.0
C366 C 0.92471 0.84589 0.94916 0.0
C367 C 0.84334 0.78371 0.94697 0.0
C368 C 0.96923 0.89234 0.98023 0.0
C369 C 0.03166 0.9653 0.95776 0.0
N370 N 0.88124 0.82111 0.95688 0.0
N371 N 0.99517 0.92492 0.94909 0.0
H372 H 0.84232 0.8003 0.32245 0.0
H373 H 0.99705 0.75648 0.24801 0.0
H374 H 0.98536 0.90616 0.30922 0.0
H375 H 0.84954 0.65571 0.25711 0.0
H376 H 0.99658 0.8085 0.27328 0.0
H377 H 0.84742 0.74414 0.30132 0.0
C378 C 0.87494 0.81173 0.3152 0.0
C379 C 0.91335 0.85818 0.31752 0.0
C380 C 0.96441 0.77487 0.26986 0.0
C381 C 0.91939 0.79388 0.29322 0.0
C382 C 0.96474 0.74495 0.25553 0.0
C383 C 0.92318 0.7017 0.25035 0.0
C384 C 0.92223 0.76147 0.27912 0.0
C385 C 0.8822 0.68899 0.26042 0.0
C386 C 0.8778 0.77959 0.3031 0.0
C387 C 0.95477 0.87081 0.30779 0.0
N388 N 0.8827 0.71879 0.27424 0.0
N389 N 0.9566 0.8389 0.296 0.0
H390 H 0.05068 0.92781 0.62097 0.0
H391 H 0.30341 0.13582 0.58893 0.0
H392 H 0.12558 0.06737 0.6477 0.0
H393 H 0.22266 1.0017 0.55754 0.0
H394 H 0.24137 0.10873 0.61235 0.0
H395 H 0.11602 0.95177 0.59925 0.0
C396 C 0.08087 0.96343 0.62231 0.0
C397 C 0.08253 0.99568 0.63612 0.0
C398 C 0.23725 0.08512 0.60039 0.0
C399 C 0.15741 0.02325 0.61137 0.0
C400 C 0.27262 0.10064 0.58697 0.0
C401 C 0.2681 0.07114 0.57114 0.0
C402 C 0.19691 0.03972 0.59802 0.0
C403 C 0.22784 0.02554 0.56959 0.0
C404 C 0.11814 0.97707 0.6099 0.0
C405 C 0.1226 0.04135 0.63722 0.0
N406 N 0.19367 0.01132 0.58279 0.0
N407 N 0.15835 0.05374 0.62501 0.0
H408 H 0.30046 0.09101 -0.00939 0.0
H409 H 0.29858 0.16605 0.88011 0.0
H410 H 0.18459 0.09442 0.96124 0.0
H411 H 0.42872 0.21125 0.91491 0.0
H412 H 0.25312 0.12097 0.90735 0.0
H413 H 0.34451 0.11709 0.96052 0.0
C414 C 0.28415 0.0967 0.97774 0.0
C415 C 0.23942 0.09164 0.97841 0.0
C416 C 0.29164 0.14041 0.90897 0.0
C417 C 0.28876 0.12059 0.94421 0.0
C418 C 0.31761 0.16626 0.89347 0.0
C419 C 0.3675 0.19331 0.89542 0.0
C420 C 0.31561 0.1414 0.9266 0.0
C421 C 0.3903 0.19109 0.91284 0.0
C422 C 0.30925 0.11169 0.96068 0.0
C423 C 0.21956 0.09923 0.96146 0.0
N424 N 0.36412 0.16602 0.9279 0.0
N425 N 0.2444 0.11344 0.94506 0.0
H426 H 0.9524 0.04331 0.28443 0.0
H427 H 0.95331 0.16546 0.20275 0.0
H428 H 0.01747 0.17613 0.31665 0.0
H429 H 0.98494 0.2757 0.2453 0.0
H430 H 0.96753 0.12417 0.22842 0.0
H431 H 0.95481 0.08195 0.2543 0.0
C432 C 0.9684 0.08085 0.28507 0.0
C433 C 0.98413 0.10637 0.30313 0.0
C434 C 0.97096 0.15706 0.23232 0.0
C435 C 0.98733 0.15139 0.26859 0.0
C436 C 0.96289 0.18076 0.21759 0.0
C437 C 0.96717 0.22374 0.22196 0.0
C438 C 0.98292 0.17627 0.25168 0.0
C439 C 0.98115 0.24266 0.24126 0.0
C440 C 0.9698 0.10313 0.26777 0.0
C441 C 1.00426 0.15489 0.3031 0.0
N442 N 0.98815 0.21863 0.2554 0.0
N443 N 1.00468 0.17562 0.28617 0.0
loop_
_geom_bond_atom_site_label_1
_geom_bond_atom_site_label_2
_geom_bond_distance
_geom_bond_site_symmetry_2
_ccdc_geom_bond_type
Mg0 O1 2.028 1_545 S
Mg0 O7 1.986 . S
Mg0 O9 2.114 . S
Mg0 O10 2.251 . S
Mg0 O13 2.010 1_545 S
O1 Mg0 2.028 1_565 S
O1 C4 1.250 1_455 S
O2 Mg3 2.028 1_656 S
O2 C4 1.248 1_546 S
Mg3 O2 2.028 1_454 S
Mg3 O8 2.032 . S
Mg3 O10 2.079 . S
C4 O1 1.250 1_655 S
C4 O2 1.248 1_564 S
C5 O6 1.264 . S
C5 O13 1.249 . S
O6 C5 1.264 . S
O7 Mg0 1.986 . S
O7 C11 1.246 . S
O8 Mg3 2.032 . S
O8 C11 1.259 . S
O9 Mg0 2.114 . S
O9 C12 1.252 . S
O10 Mg0 2.251 . S
O10 Mg3 2.079 . S
O10 C12 1.273 . S
C11 O7 1.246 . S
C11 O8 1.259 . S
C12 O9 1.252 . S
C12 O10 1.273 . S
O13 Mg0 2.010 1_565 S
O13 C5 1.249 . S
Mg14 O15 2.028 1_665 S
Mg14 O21 1.986 1_665 S
Mg14 O23 2.114 . S
Mg14 O24 2.251 1_565 S
Mg14 O27 2.010 . S
O15 Mg14 2.028 1_445 S
O15 C18 1.250 . S
O16 Mg17 2.028 . S
O16 C18 1.248 . S
Mg17 O16 2.028 . S
Mg17 O22 2.032 . S
Mg17 O24 2.079 1_455 S
C18 O15 1.250 . S
C18 O16 1.248 . S
C19 O20 1.264 . S
C19 O27 1.249 . S
O20 C19 1.264 . S
O21 Mg14 1.986 1_445 S
O21 C25 1.246 . S
O22 Mg17 2.032 . S
O22 C25 1.259 . S
O23 Mg14 2.114 . S
O23 C26 1.252 . S
O24 Mg14 2.251 1_545 S
O24 Mg17 2.079 1_655 S
O24 C26 1.273 1_545 S
C25 O21 1.246 . S
C25 O22 1.259 . S
C26 O23 1.252 . S
C26 O24 1.273 1_565 S
O27 Mg14 2.010 . S
O27 C19 1.249 . S
Mg28 O29 2.028 1_565 S
Mg28 O35 1.986 1_465 S
Mg28 O37 2.114 . S
Mg28 O38 2.251 1_455 S
Mg28 O41 2.010 . S
O29 Mg28 2.028 1_545 S
O29 C32 1.250 . S
O30 Mg31 2.028 1_455 S
O30 C32 1.248 . S
Mg31 O30 2.028 1_655 S
Mg31 O36 2.032 . S
Mg31 O38 2.079 1_545 S
C32 O29 1.250 . S
C32 O30 1.248 . S
C33 O34 1.264 . S
C33 O41 1.249 . S
O34 C33 1.264 . S
O35 Mg28 1.986 1_645 S
O35 C39 1.246 . S
O36 Mg31 2.032 . S
O36 C39 1.259 . S
O37 Mg28 2.114 . S
O37 C40 1.252 1_455 S
O38 Mg28 2.251 1_655 S
O38 Mg31 2.079 1_565 S
O38 C40 1.273 . S
C39 O35 1.246 . S
C39 O36 1.259 . S
C40 O37 1.252 1_655 S
C40 O38 1.273 . S
O41 Mg28 2.010 . S
O41 C33 1.249 . S
H42 C69 0.929 . S
N43 C68 1.433 . S
N43 C74 1.435 . S
N43 C80 1.423 1_455 S
H44 C70 0.930 . S
H45 C73 0.931 . S
H46 C72 0.929 . S
H47 C75 0.930 . S
H48 C76 0.932 . S
H49 C79 0.929 . S
H50 C78 0.931 . S
H51 C81 0.929 . S
H52 C85 0.932 . S
H53 C82 0.931 . S
H54 C84 0.929 . S
H55 C87 0.929 . S
H56 C88 0.930 . S
H57 C90 0.929 . S
H58 C91 0.931 . S
H59 C93 0.930 . S
H60 C94 0.932 . S
H61 C96 0.931 . S
H62 C97 0.929 . S
H63 C99 0.929 . S
H64 C100 0.931 . S
H65 C102 0.929 . S
N66 C86 1.433 . S
N66 C92 1.435 . S
N66 C98 1.423 1_455 S
H67 C103 0.932 . S
C68 N43 1.433 . S
C68 C69 1.363 1_455 S
C68 C73 1.370 . S
C69 H42 0.929 . S
C69 C68 1.363 1_655 S
C69 C70 1.385 . S
C70 H44 0.930 . S
C70 C69 1.385 . S
C70 C71 1.357 1_655 S
C71 C70 1.357 1_455 S
C71 C72 1.406 . S
C72 H46 0.929 . S
C72 C71 1.406 . S
C72 C73 1.391 . S
C73 H45 0.931 . S
C73 C68 1.370 . S
C73 C72 1.391 . S
C74 N43 1.435 . S
C74 C75 1.358 . S
C74 C79 1.371 1_455 S
C75 H47 0.930 . S
C75 C74 1.358 . S
C75 C76 1.405 . S
C76 H48 0.932 . S
C76 C75 1.405 . S
C76 C77 1.383 . S
C77 C76 1.383 . S
C77 C78 1.393 1_455 S
C78 H50 0.931 . S
C78 C77 1.393 1_655 S
C78 C79 1.382 . S
C79 H49 0.929 . S
C79 C74 1.371 1_655 S
C79 C78 1.382 . S
C80 N43 1.423 1_655 S
C80 C81 1.362 . S
C80 C85 1.388 1_655 S
C81 H51 0.929 . S
C81 C80 1.362 . S
C81 C82 1.376 . S
C82 H53 0.931 . S
C82 C81 1.376 . S
C82 C83 1.396 . S
C83 C82 1.396 . S
C83 C84 1.348 1_655 S
C83 C101 1.472 . S
C84 H54 0.929 . S
C84 C83 1.348 1_455 S
C84 C85 1.443 . S
C85 H52 0.932 . S
C85 C80 1.388 1_455 S
C85 C84 1.443 . S
C86 N66 1.433 . S
C86 C87 1.363 1_455 S
C86 C91 1.370 . S
C87 H55 0.929 . S
C87 C86 1.363 1_655 S
C87 C88 1.385 . S
C88 H56 0.930 . S
C88 C87 1.385 . S
C88 C89 1.357 1_655 S
C89 C88 1.357 1_455 S
C89 C90 1.406 . S
C90 H57 0.929 . S
C90 C89 1.406 . S
C90 C91 1.391 . S
C91 H58 0.931 . S
C91 C86 1.370 . S
C91 C90 1.391 . S
C92 N66 1.435 . S
C92 C93 1.358 . S
C92 C97 1.371 1_455 S
C93 H59 0.930 . S
C93 C92 1.358 . S
C93 C94 1.405 . S
C94 H60 0.932 . S
C94 C93 1.405 . S
C94 C95 1.383 . S
C95 C94 1.383 . S
C95 C96 1.393 1_455 S
C96 H61 0.931 . S
C96 C95 1.393 1_655 S
C96 C97 1.382 . S
C97 H62 0.929 . S
C97 C92 1.371 1_655 S
C97 C96 1.382 . S
C98 N66 1.423 1_655 S
C98 C99 1.362 . S
C98 C103 1.388 1_655 S
C99 H63 0.929 . S
C99 C98 1.362 . S
C99 C100 1.376 . S
C100 H64 0.931 . S
C100 C99 1.376 . S
C100 C101 1.396 . S
C101 C83 1.472 . S
C101 C100 1.396 . S
C101 C102 1.348 1_655 S
C102 H65 0.929 . S
C102 C101 1.348 1_455 S
C102 C103 1.443 . S
C103 H67 0.932 . S
C103 C98 1.388 1_455 S
C103 C102 1.443 . S
H104 C131 0.929 . S
N105 C130 1.433 . S
N105 C136 1.435 . S
N105 C142 1.423 . S
H106 C132 0.930 . S
H107 C135 0.931 . S
H108 C134 0.929 . S
H109 C137 0.941 . S
H110 C138 0.932 1_565 S
H111 C141 0.929 . S
H112 C140 0.931 . S
H113 C143 0.929 . S
H114 C147 0.932 . S
H115 C144 0.931 . S
H116 C146 0.929 . S
H117 C149 0.929 . S
H118 C150 0.930 . S
H119 C152 0.929 . S
H120 C153 0.931 . S
H121 C155 0.941 . S
H122 C156 0.932 1_565 S
H123 C158 0.931 . S
H124 C159 0.929 . S
H125 C161 0.929 . S
H126 C162 0.931 . S
H127 C164 0.929 . S
N128 C148 1.433 . S
N128 C154 1.435 . S
N128 C160 1.423 . S
H129 C165 0.932 . S
C130 N105 1.433 . S
C130 C131 1.363 . S
C130 C135 1.370 . S
C131 H104 0.929 . S
C131 C130 1.363 . S
C131 C132 1.385 . S
C132 H106 0.930 . S
C132 C131 1.385 . S
C132 C133 1.357 . S
C133 C132 1.357 . S
C133 C134 1.406 . S
C134 H108 0.929 . S
C134 C133 1.406 . S
C134 C135 1.391 . S
C135 H107 0.931 . S
C135 C130 1.370 . S
C135 C134 1.391 . S
C136 N105 1.435 . S
C136 C137 1.358 . S
C136 C141 1.371 . S
C137 H109 0.941 . S
C137 C136 1.358 . S
C137 C138 1.405 . S
C138 H110 0.932 1_545 S
C138 C137 1.405 . S
C138 C139 1.383 . S
C139 C138 1.383 . S
C139 C140 1.393 . S
C140 H112 0.931 . S
C140 C139 1.393 . S
C140 C141 1.382 . S
C141 H111 0.929 . S
C141 C136 1.371 . S
C141 C140 1.382 . S
C142 N105 1.423 . S
C142 C143 1.362 . S
C142 C147 1.388 . S
C143 H113 0.929 . S
C143 C142 1.362 . S
C143 C144 1.376 . S
C144 H115 0.931 . S
C144 C143 1.376 . S
C144 C145 1.396 . S
C145 C144 1.396 . S
C145 C146 1.348 . S
C145 C163 1.472 . S
C146 H116 0.929 . S
C146 C145 1.348 . S
C146 C147 1.443 . S
C147 H114 0.932 . S
C147 C142 1.388 . S
C147 C146 1.443 . S
C148 N128 1.433 . S
C148 C149 1.363 . S
C148 C153 1.370 . S
C149 H117 0.929 . S
C149 C148 1.363 . S
C149 C150 1.385 . S
C150 H118 0.930 . S
C150 C149 1.385 . S
C150 C151 1.357 . S
C151 C150 1.357 . S
C151 C152 1.406 . S
C152 H119 0.929 . S
C152 C151 1.406 . S
C152 C153 1.391 . S
C153 H120 0.931 . S
C153 C148 1.370 . S
C153 C152 1.391 . S
C154 N128 1.435 . S
C154 C155 1.358 . S
C154 C159 1.371 . S
C155 H121 0.941 . S
C155 C154 1.358 . S
C155 C156 1.405 . S
C156 H122 0.932 1_545 S
C156 C155 1.405 . S
C156 C157 1.383 . S
C157 C156 1.383 . S
C157 C158 1.393 . S
C158 H123 0.931 . S
C158 C157 1.393 . S
C158 C159 1.382 . S
C159 H124 0.929 . S
C159 C154 1.371 . S
C159 C158 1.382 . S
C160 N128 1.423 . S
C160 C161 1.362 . S
C160 C165 1.388 . S
C161 H125 0.929 . S
C161 C160 1.362 . S
C161 C162 1.376 . S
C162 H126 0.931 . S
C162 C161 1.376 . S
C162 C163 1.396 . S
C163 C145 1.472 . S
C163 C162 1.396 . S
C163 C164 1.348 . S
C164 H127 0.929 . S
C164 C163 1.348 . S
C164 C165 1.443 . S
C165 H129 0.932 . S
C165 C160 1.388 . S
C165 C164 1.443 . S
H166 C193 0.929 . S
N167 C192 1.433 . S
N167 C198 1.435 . S
N167 C204 1.423 . S
H168 C194 0.930 . S
H169 C197 0.931 . S
H170 C196 0.929 . S
H171 C199 0.930 . S
H172 C200 0.932 . S
H173 C203 0.929 . S
H174 C202 0.931 . S
H175 C205 0.929 . S
H176 C209 0.932 . S
H177 C206 0.931 . S
H178 C208 0.929 . S
H179 C211 0.929 . S
H180 C212 0.930 . S
H181 C214 0.929 . S
H182 C215 0.931 . S
H183 C217 0.930 . S
H184 C218 0.932 . S
H185 C220 0.931 . S
H186 C221 0.929 . S
H187 C223 0.929 . S
H188 C224 0.931 . S
H189 C226 0.929 . S
N190 C210 1.433 . S
N190 C216 1.435 . S
N190 C222 1.423 . S
H191 C227 0.932 . S
C192 N167 1.433 . S
C192 C193 1.363 . S
C192 C197 1.370 . S
C193 H166 0.929 . S
C193 C192 1.363 . S
C193 C194 1.385 . S
C194 H168 0.930 . S
C194 C193 1.385 . S
C194 C195 1.357 . S
C195 C194 1.357 . S
C195 C196 1.406 . S
C196 H170 0.929 . S
C196 C195 1.406 . S
C196 C197 1.391 . S
C197 H169 0.931 . S
C197 C192 1.370 . S
C197 C196 1.391 . S
C198 N167 1.435 . S
C198 C199 1.358 . S
C198 C203 1.371 . S
C199 H171 0.930 . S
C199 C198 1.358 . S
C199 C200 1.405 . S
C200 H172 0.932 . S
C200 C199 1.405 . S
C200 C201 1.383 . S
C201 C200 1.383 . S
C201 C202 1.393 . S
C202 H174 0.931 . S
C202 C201 1.393 . S
C202 C203 1.382 . S
C203 H173 0.929 . S
C203 C198 1.371 . S
C203 C202 1.382 . S
C204 N167 1.423 . S
C204 C205 1.362 . S
C204 C209 1.388 . S
C205 H175 0.929 . S
C205 C204 1.362 . S
C205 C206 1.376 . S
C206 H177 0.931 . S
C206 C205 1.376 . S
C206 C207 1.396 . S
C207 C206 1.396 . S
C207 C208 1.348 . S
C207 C225 1.472 . S
C208 H178 0.929 . S
C208 C207 1.348 . S
C208 C209 1.443 . S
C209 H176 0.932 . S
C209 C204 1.388 . S
C209 C208 1.443 . S
C210 N190 1.433 . S
C210 C211 1.363 . S
C210 C215 1.370 . S
C211 H179 0.929 . S
C211 C210 1.363 . S
C211 C212 1.385 . S
C212 H180 0.930 . S
C212 C211 1.385 . S
C212 C213 1.357 . S
C213 C212 1.357 . S
C213 C214 1.406 . S
C214 H181 0.929 . S
C214 C213 1.406 . S
C214 C215 1.391 . S
C215 H182 0.931 . S
C215 C210 1.370 . S
C215 C214 1.391 . S
C216 N190 1.435 . S
C216 C217 1.358 . S
C216 C221 1.371 . S
C217 H183 0.930 . S
C217 C216 1.358 . S
C217 C218 1.405 . S
C218 H184 0.932 . S
C218 C217 1.405 . S
C218 C219 1.383 . S
C219 C218 1.383 . S
C219 C220 1.393 . S
C220 H185 0.931 . S
C220 C219 1.393 . S
C220 C221 1.382 . S
C221 H186 0.929 . S
C221 C216 1.371 . S
C221 C220 1.382 . S
C222 N190 1.423 . S
C222 C223 1.362 . S
C222 C227 1.388 . S
C223 H187 0.929 . S
C223 C222 1.362 . S
C223 C224 1.376 . S
C224 H188 0.931 . S
C224 C223 1.376 . S
C224 C225 1.396 . S
C225 C207 1.472 . S
C225 C224 1.396 . S
C225 C226 1.348 . S
C226 H189 0.929 . S
C226 C225 1.348 . S
C226 C227 1.443 . S
C227 H191 0.932 . S
C227 C222 1.388 . S
C227 C226 1.443 . S
H228 C234 0.930 . S
H229 C238 0.930 . S
H230 C243 0.929 . S
H231 C241 0.929 . S
H232 C236 0.929 . S
H233 C242 0.929 . S
C234 H228 0.930 . S
C234 C235 1.367 . S
C234 C242 1.378 . S
C235 C234 1.367 . S
C235 C243 1.433 . S
C236 H232 0.929 . S
C236 C238 1.378 . S
C236 C240 1.350 . S
C237 C240 1.463 . S
C237 C242 1.350 . S
C237 N245 1.427 . S
C238 H229 0.930 . S
C238 C236 1.378 . S
C238 C239 1.367 . S
C239 C238 1.367 . S
C239 C241 1.433 . S
C240 C236 1.350 . S
C240 C237 1.463 . S
C240 N244 1.427 . S
C241 H231 0.929 . S
C241 C239 1.433 . S
C241 N244 1.384 . S
C242 H233 0.929 . S
C242 C234 1.378 . S
C242 C237 1.350 . S
C243 H230 0.929 . S
C243 C235 1.433 . S
C243 N245 1.384 . S
N244 C240 1.427 . S
N244 C241 1.384 . S
N245 C237 1.427 . S
N245 C243 1.384 . S
H246 C252 0.930 . S
H247 C256 0.930 . S
H248 C261 0.929 . S
H249 C259 0.929 . S
H250 C254 0.929 . S
H251 C260 0.929 . S
C252 H246 0.930 . S
C252 C253 1.367 . S
C252 C260 1.378 . S
C253 C252 1.367 . S
C253 C261 1.433 1_565 S
C254 H250 0.929 . S
C254 C256 1.378 . S
C254 C258 1.350 . S
C255 C258 1.463 . S
C255 C260 1.350 1_545 S
C255 N263 1.427 . S
C256 H247 0.930 . S
C256 C254 1.378 . S
C256 C257 1.367 . S
C257 C256 1.367 . S
C257 C259 1.433 1_545 S
C258 C254 1.350 . S
C258 C255 1.463 . S
C258 N262 1.427 1_545 S
C259 H249 0.929 . S
C259 C257 1.433 1_565 S
C259 N262 1.384 . S
C260 H251 0.929 . S
C260 C252 1.378 . S
C260 C255 1.350 1_565 S
C261 H248 0.929 . S
C261 C253 1.433 1_545 S
C261 N263 1.384 . S
N262 C258 1.427 1_565 S
N262 C259 1.384 . S
N263 C255 1.427 . S
N263 C261 1.384 . S
H264 C270 0.930 . S
H265 C274 0.930 . S
H266 C279 0.929 . S
H267 C277 0.929 . S
H268 C272 0.929 . S
H269 C278 0.929 . S
C270 H264 0.930 . S
C270 C271 1.367 . S
C270 C278 1.378 . S
C271 C270 1.367 . S
C271 C279 1.433 . S
C272 H268 0.929 . S
C272 C274 1.378 . S
C272 C276 1.350 . S
C273 C276 1.463 . S
C273 C278 1.350 . S
C273 N281 1.427 . S
C274 H265 0.930 . S
C274 C272 1.378 . S
C274 C275 1.367 . S
C275 C274 1.367 . S
C275 C277 1.433 . S
C276 C272 1.350 . S
C276 C273 1.463 . S
C276 N280 1.427 . S
C277 H267 0.929 . S
C277 C275 1.433 . S
C277 N280 1.384 . S
C278 H269 0.929 . S
C278 C270 1.378 . S
C278 C273 1.350 . S
C279 H266 0.929 . S
C279 C271 1.433 . S
C279 N281 1.384 . S
N280 C276 1.427 . S
N280 C277 1.384 . S
N281 C273 1.427 . S
N281 C279 1.384 . S
H282 C288 0.930 . S
H283 C292 0.930 . S
H284 C297 0.929 . S
H285 C295 0.929 . S
H286 C290 0.929 . S
H287 C296 0.929 . S
C288 H282 0.930 . S
C288 C289 1.367 . S
C288 C296 1.378 . S
C289 C288 1.367 . S
C289 C297 1.433 . S
C290 H286 0.929 . S
C290 C292 1.378 . S
C290 C294 1.350 . S
C291 C294 1.463 . S
C291 C296 1.350 . S
C291 N299 1.427 . S
C292 H283 0.930 . S
C292 C290 1.378 . S
C292 C293 1.367 . S
C293 C292 1.367 . S
C293 C295 1.433 . S
C294 C290 1.350 . S
C294 C291 1.463 . S
C294 N298 1.427 . S
C295 H285 0.929 . S
C295 C293 1.433 . S
C295 N298 1.384 . S
C296 H287 0.929 . S
C296 C288 1.378 . S
C296 C291 1.350 . S
C297 H284 0.929 . S
C297 C289 1.433 . S
C297 N299 1.384 . S
N298 C294 1.427 . S
N298 C295 1.384 . S
N299 C291 1.427 . S
N299 C297 1.384 . S
H300 C306 0.930 . S
H301 C310 0.930 . S
H302 C315 0.929 . S
H303 C313 0.929 . S
H304 C308 0.929 . S
H305 C314 0.929 . S
C306 H300 0.930 . S
C306 C307 1.367 . S
C306 C314 1.378 . S
C307 C306 1.367 . S
C307 C315 1.433 1_545 S
C308 H304 0.929 . S
C308 C310 1.378 . S
C308 C312 1.350 1_565 S
C309 C312 1.463 . S
C309 C314 1.350 . S
C309 N317 1.427 1_545 S
C310 H301 0.930 . S
C310 C308 1.378 . S
C310 C311 1.367 1_565 S
C311 C310 1.367 1_545 S
C311 C313 1.433 . S
C312 C308 1.350 1_545 S
C312 C309 1.463 . S
C312 N316 1.427 . S
C313 H303 0.929 . S
C313 C311 1.433 . S
C313 N316 1.384 . S
C314 H305 0.929 . S
C314 C306 1.378 . S
C314 C309 1.350 . S
C315 H302 0.929 . S
C315 C307 1.433 1_565 S
C315 N317 1.384 . S
N316 C312 1.427 . S
N316 C313 1.384 . S
N317 C309 1.427 1_565 S
N317 C315 1.384 . S
H318 C324 0.930 . S
H319 C328 0.930 . S
H320 C333 0.929 . S
H321 C331 0.929 . S
H322 C326 0.929 . S
H323 C332 0.929 . S
C324 H318 0.930 . S
C324 C325 1.367 . S
C324 C332 1.378 . S
C325 C324 1.367 . S
C325 C333 1.433 . S
C326 H322 0.929 . S
C326 C328 1.378 . S
C326 C330 1.350 . S
C327 C330 1.463 . S
C327 C332 1.350 . S
C327 N335 1.427 . S
C328 H319 0.930 . S
C328 C326 1.378 . S
C328 C329 1.367 . S
C329 C328 1.367 . S
C329 C331 1.433 . S
C330 C326 1.350 . S
C330 C327 1.463 . S
C330 N334 1.427 . S
C331 H321 0.929 . S
C331 C329 1.433 . S
C331 N334 1.384 . S
C332 H323 0.929 . S
C332 C324 1.378 . S
C332 C327 1.350 . S
C333 H320 0.929 . S
C333 C325 1.433 . S
C333 N335 1.384 . S
N334 C330 1.427 . S
N334 C331 1.384 . S
N335 C327 1.427 . S
N335 C333 1.384 . S
H336 C342 0.930 . S
H337 C346 0.930 . S
H338 C351 0.929 . S
H339 C349 0.929 . S
H340 C344 0.929 . S
H341 C350 0.929 . S
C342 H336 0.930 . S
C342 C343 1.367 . S
C342 C350 1.378 . S
C343 C342 1.367 . S
C343 C351 1.433 1_545 S
C344 H340 0.929 . S
C344 C346 1.378 . S
C344 C348 1.350 1_565 S
C345 C348 1.463 . S
C345 C350 1.350 . S
C345 N353 1.427 1_545 S
C346 H337 0.930 . S
C346 C344 1.378 . S
C346 C347 1.367 1_565 S
C347 C346 1.367 1_545 S
C347 C349 1.433 . S
C348 C344 1.350 1_545 S
C348 C345 1.463 . S
C348 N352 1.427 . S
C349 H339 0.929 . S
C349 C347 1.433 . S
C349 N352 1.384 . S
C350 H341 0.929 . S
C350 C342 1.378 . S
C350 C345 1.350 . S
C351 H338 0.929 . S
C351 C343 1.433 1_565 S
C351 N353 1.384 . S
N352 C348 1.427 . S
N352 C349 1.384 . S
N353 C345 1.427 1_565 S
N353 C351 1.384 . S
H354 C360 0.930 . S
H355 C364 0.930 . S
H356 C369 0.929 . S
H357 C367 0.929 . S
H358 C362 0.929 . S
H359 C368 0.929 . S
C360 H354 0.930 . S
C360 C361 1.367 1_554 S
C360 C368 1.378 1_554 S
C361 C360 1.367 1_556 S
C361 C369 1.433 . S
C362 H358 0.929 . S
C362 C364 1.378 . S
C362 C366 1.350 . S
C363 C366 1.463 . S
C363 C368 1.350 . S
C363 N371 1.427 . S
C364 H355 0.930 . S
C364 C362 1.378 . S
C364 C365 1.367 . S
C365 C364 1.367 . S
C365 C367 1.433 . S
C366 C362 1.350 . S
C366 C363 1.463 . S
C366 N370 1.427 . S
C367 H357 0.929 . S
C367 C365 1.433 . S
C367 N370 1.384 . S
C368 H359 0.929 . S
C368 C360 1.378 1_556 S
C368 C363 1.350 . S
C369 H356 0.929 . S
C369 C361 1.433 . S
C369 N371 1.384 . S
N370 C366 1.427 . S
N370 C367 1.384 . S
N371 C363 1.427 . S
N371 C369 1.384 . S
H372 C378 0.930 . S
H373 C382 0.930 . S
H374 C387 0.929 . S
H375 C385 0.929 . S
H376 C380 0.927 1_655 S
H377 C386 0.929 1_455 S
C378 H372 0.930 . S
C378 C379 1.367 . S
C378 C386 1.378 . S
C379 C378 1.367 . S
C379 C387 1.433 . S
C380 H376 0.927 1_455 S
C380 C382 1.378 . S
C380 C384 1.350 . S
C381 C384 1.463 1_655 S
C381 C386 1.350 . S
C381 N389 1.427 . S
C382 H373 0.930 . S
C382 C380 1.378 . S
C382 C383 1.367 . S
C383 C382 1.367 . S
C383 C385 1.433 . S
C384 C380 1.350 . S
C384 C381 1.463 1_455 S
C384 N388 1.427 . S
C385 H375 0.929 . S
C385 C383 1.433 . S
C385 N388 1.384 . S
C386 H377 0.929 1_655 S
C386 C378 1.378 . S
C386 C381 1.350 . S
C387 H374 0.929 . S
C387 C379 1.433 . S
C387 N389 1.384 . S
N388 C384 1.427 . S
N388 C385 1.384 . S
N389 C381 1.427 . S
N389 C387 1.384 . S
H390 C396 0.930 . S
H391 C400 0.930 . S
H392 C405 0.929 . S
H393 C403 0.929 . S
H394 C398 0.929 . S
H395 C404 0.929 . S
C396 H390 0.930 . S
C396 C397 1.367 . S
C396 C404 1.378 . S
C397 C396 1.367 . S
C397 C405 1.433 1_565 S
C398 H394 0.929 . S
C398 C400 1.378 . S
C398 C402 1.350 . S
C399 C402 1.463 . S
C399 C404 1.350 1_545 S
C399 N407 1.427 . S
C400 H391 0.930 . S
C400 C398 1.378 . S
C400 C401 1.367 . S
C401 C400 1.367 . S
C401 C403 1.433 1_545 S
C402 C398 1.350 . S
C402 C399 1.463 . S
C402 N406 1.427 1_545 S
C403 H393 0.929 . S
C403 C401 1.433 1_565 S
C403 N406 1.384 . S
C404 H395 0.929 . S
C404 C396 1.378 . S
C404 C399 1.350 1_565 S
C405 H392 0.929 . S
C405 C397 1.433 1_545 S
C405 N407 1.384 . S
N406 C402 1.427 1_565 S
N406 C403 1.384 . S
N407 C399 1.427 . S
N407 C405 1.384 . S
H408 C414 0.930 1_554 S
H409 C418 0.930 . S
H410 C423 0.929 . S
H411 C421 0.929 . S
H412 C416 0.929 . S
H413 C422 0.929 . S
C414 H408 0.930 1_556 S
C414 C415 1.367 . S
C414 C422 1.378 . S
C415 C414 1.367 . S
C415 C423 1.433 . S
C416 H412 0.929 . S
C416 C418 1.378 . S
C416 C420 1.350 . S
C417 C420 1.463 . S
C417 C422 1.350 . S
C417 N425 1.427 . S
C418 H409 0.930 . S
C418 C416 1.378 . S
C418 C419 1.367 . S
C419 C418 1.367 . S
C419 C421 1.433 . S
C420 C416 1.350 . S
C420 C417 1.463 . S
C420 N424 1.427 . S
C421 H411 0.929 . S
C421 C419 1.433 . S
C421 N424 1.384 . S
C422 H413 0.929 . S
C422 C414 1.378 . S
C422 C417 1.350 . S
C423 H410 0.929 . S
C423 C415 1.433 . S
C423 N425 1.384 . S
N424 C420 1.427 . S
N424 C421 1.384 . S
N425 C417 1.427 . S
N425 C423 1.384 . S
H426 C432 0.929 1_655 S
H427 C436 0.930 . S
H428 C441 0.929 . S
H429 C439 0.929 . S
H430 C434 0.929 . S
H431 C440 0.929 . S
C432 H426 0.929 1_455 S
C432 C433 1.380 . S
C432 C440 1.367 1_455 S
C433 C432 1.380 . S
C433 C441 1.433 . S
C434 H430 0.929 . S
C434 C436 1.378 . S
C434 C438 1.350 . S
C435 C438 1.463 . S
C435 C440 1.350 1_455 S
C435 N443 1.427 . S
C436 H427 0.930 . S
C436 C434 1.378 . S
C436 C437 1.367 . S
C437 C436 1.367 . S
C437 C439 1.433 1_455 S
C438 C434 1.350 . S
C438 C435 1.463 . S
C438 N442 1.427 1_455 S
C439 H429 0.929 . S
C439 C437 1.433 1_655 S
C439 N442 1.384 . S
C440 H431 0.929 . S
C440 C432 1.367 1_655 S
C440 C435 1.350 1_655 S
C441 H428 0.929 . S
C441 C433 1.433 . S
C441 N443 1.384 . S
N442 C438 1.427 1_655 S
N442 C439 1.384 . S
N443 C435 1.427 . S
N443 C441 1.384 . S
C239 C95 1.233 . S
C235 C11 1.231 . S
C253 C26 1.434 . S
C257 C139 1.437 . S
C271 C40 1.317 . S
C275 C201 1.324 . S
C289 C5 1.124 . S
C293 C77 1.245 . S
C311 C157 1.409 . S
C307 C18 1.392 . S
C325 C32 1.275 . S
C329 C219 1.297 . S
C347 C133 1.375 . S
C343 C39 1.437 . S
C361 C4 1.612 1_556 S
C365 C195 1.507 . S
C383 C71 1.482 . S
C379 C19 1.462 . S
C401 C151 1.422 . S
C397 C33 1.345 . S
C419 C213 1.539 . S
C415 C12 1.627 1_556 S
C433 C25 1.558 . S
C437 C89 1.502 . S
