# Generated by pormake.
# Topology tbo, (3,4)-cn, num edge types: 1
# Building blocks:
#     Node 0, Type 0, BuildingBlock: ESEHIV_clean_linker_0, # of connection points: 3
#     Node 1, Type 0, BuildingBlock: ESEHIV_clean_linker_0, # of connection points: 3
#     Node 2, Type 0, BuildingBlock: ESEHIV_clean_linker_0, # of connection points: 3
#     Node 3, Type 0, BuildingBlock: ESEHIV_clean_linker_0, # of connection points: 3
#     Node 4, Type 0, BuildingBlock: ESEHIV_clean_linker_0, # of connection points: 3
#     Node 5, Type 0, BuildingBlock: ESEHIV_clean_linker_0, # of connection points: 3
#     Node 6, Type 0, BuildingBlock: ESEHIV_clean_linker_0, # of connection points: 3
#     Node 7, Type 0, BuildingBlock: ESEHIV_clean_linker_0, # of connection points: 3
#     Node 8, Type 0, BuildingBlock: ESEHIV_clean_linker_0, # of connection points: 3
#     Node 9, Type 0, BuildingBlock: ESEHIV_clean_linker_0, # of connection points: 3
#     Node 10, Type 0, BuildingBlock: ESEHIV_clean_linker_0, # of connection points: 3
#     Node 11, Type 0, BuildingBlock: ESEHIV_clean_linker_0, # of connection points: 3
#     Node 12, Type 0, BuildingBlock: ESEHIV_clean_linker_0, # of connection points: 3
#     Node 13, Type 0, BuildingBlock: ESEHIV_clean_linker_0, # of connection points: 3
#     Node 14, Type 0, BuildingBlock: ESEHIV_clean_linker_0, # of connection points: 3
#     Node 15, Type 0, BuildingBlock: ESEHIV_clean_linker_0, # of connection points: 3
#     Node 16, Type 0, BuildingBlock: ESEHIV_clean_linker_0, # of connection points: 3
#     Node 17, Type 0, BuildingBlock: ESEHIV_clean_linker_0, # of connection points: 3
#     Node 18, Type 0, BuildingBlock: ESEHIV_clean_linker_0, # of connection points: 3
#     Node 19, Type 0, BuildingBlock: ESEHIV_clean_linker_0, # of connection points: 3
#     Node 20, Type 0, BuildingBlock: ESEHIV_clean_linker_0, # of connection points: 3
#     Node 21, Type 0, BuildingBlock: ESEHIV_clean_linker_0, # of connection points: 3
#     Node 22, Type 0, BuildingBlock: ESEHIV_clean_linker_0, # of connection points: 3
#     Node 23, Type 0, BuildingBlock: ESEHIV_clean_linker_0, # of connection points: 3
#     Node 24, Type 0, BuildingBlock: ESEHIV_clean_linker_0, # of connection points: 3
#     Node 25, Type 0, BuildingBlock: ESEHIV_clean_linker_0, # of connection points: 3
#     Node 26, Type 0, BuildingBlock: ESEHIV_clean_linker_0, # of connection points: 3
#     Node 27, Type 0, BuildingBlock: ESEHIV_clean_linker_0, # of connection points: 3
#     Node 28, Type 0, BuildingBlock: ESEHIV_clean_linker_0, # of connection points: 3
#     Node 29, Type 0, BuildingBlock: ESEHIV_clean_linker_0, # of connection points: 3
#     Node 30, Type 0, BuildingBlock: ESEHIV_clean_linker_0, # of connection points: 3
#     Node 31, Type 0, BuildingBlock: ESEHIV_clean_linker_0, # of connection points: 3
#     Node 32, Type 1, BuildingBlock: ESEHIV_clean_sbu_0, # of connection points: 4
#     Node 33, Type 1, BuildingBlock: ESEHIV_clean_sbu_0, # of connection points: 4
#     Node 34, Type 1, BuildingBlock: ESEHIV_clean_sbu_0, # of connection points: 4
#     Node 35, Type 1, BuildingBlock: ESEHIV_clean_sbu_0, # of connection points: 4
#     Node 36, Type 1, BuildingBlock: ESEHIV_clean_sbu_0, # of connection points: 4
#     Node 37, Type 1, BuildingBlock: ESEHIV_clean_sbu_0, # of connection points: 4
#     Node 38, Type 1, BuildingBlock: ESEHIV_clean_sbu_0, # of connection points: 4
#     Node 39, Type 1, BuildingBlock: ESEHIV_clean_sbu_0, # of connection points: 4
#     Node 40, Type 1, BuildingBlock: ESEHIV_clean_sbu_0, # of connection points: 4
#     Node 41, Type 1, BuildingBlock: ESEHIV_clean_sbu_0, # of connection points: 4
#     Node 42, Type 1, BuildingBlock: ESEHIV_clean_sbu_0, # of connection points: 4
#     Node 43, Type 1, BuildingBlock: ESEHIV_clean_sbu_0, # of connection points: 4
#     Node 44, Type 1, BuildingBlock: ESEHIV_clean_sbu_0, # of connection points: 4
#     Node 45, Type 1, BuildingBlock: ESEHIV_clean_sbu_0, # of connection points: 4
#     Node 46, Type 1, BuildingBlock: ESEHIV_clean_sbu_0, # of connection points: 4
#     Node 47, Type 1, BuildingBlock: ESEHIV_clean_sbu_0, # of connection points: 4
#     Node 48, Type 1, BuildingBlock: ESEHIV_clean_sbu_0, # of connection points: 4
#     Node 49, Type 1, BuildingBlock: ESEHIV_clean_sbu_0, # of connection points: 4
#     Node 50, Type 1, BuildingBlock: ESEHIV_clean_sbu_0, # of connection points: 4
#     Node 51, Type 1, BuildingBlock: ESEHIV_clean_sbu_0, # of connection points: 4
#     Node 52, Type 1, BuildingBlock: ESEHIV_clean_sbu_0, # of connection points: 4
#     Node 53, Type 1, BuildingBlock: ESEHIV_clean_sbu_0, # of connection points: 4
#     Node 54, Type 1, BuildingBlock: ESEHIV_clean_sbu_0, # of connection points: 4
#     Node 55, Type 1, BuildingBlock: ESEHIV_clean_sbu_0, # of connection points: 4
#     Edge 56, Type (0, 1), BuildingBlock: UVAHIK_clean_linker_0, # of connection points: 2
#     Edge 57, Type (0, 1), BuildingBlock: UVAHIK_clean_linker_0, # of connection points: 2
#     Edge 58, Type (0, 1), BuildingBlock: UVAHIK_clean_linker_0, # of connection points: 2
#     Edge 59, Type (0, 1), BuildingBlock: UVAHIK_clean_linker_0, # of connection points: 2
#     Edge 60, Type (0, 1), BuildingBlock: UVAHIK_clean_linker_0, # of connection points: 2
#     Edge 61, Type (0, 1), BuildingBlock: UVAHIK_clean_linker_0, # of connection points: 2
#     Edge 62, Type (0, 1), BuildingBlock: UVAHIK_clean_linker_0, # of connection points: 2
#     Edge 63, Type (0, 1), BuildingBlock: UVAHIK_clean_linker_0, # of connection points: 2
#     Edge 64, Type (0, 1), BuildingBlock: UVAHIK_clean_linker_0, # of connection points: 2
#     Edge 65, Type (0, 1), BuildingBlock: UVAHIK_clean_linker_0, # of connection points: 2
#     Edge 66, Type (0, 1), BuildingBlock: UVAHIK_clean_linker_0, # of connection points: 2
#     Edge 67, Type (0, 1), BuildingBlock: UVAHIK_clean_linker_0, # of connection points: 2
#     Edge 68, Type (0, 1), BuildingBlock: UVAHIK_clean_linker_0, # of connection points: 2
#     Edge 69, Type (0, 1), BuildingBlock: UVAHIK_clean_linker_0, # of connection points: 2
#     Edge 70, Type (0, 1), BuildingBlock: UVAHIK_clean_linker_0, # of connection points: 2
#     Edge 71, Type (0, 1), BuildingBlock: UVAHIK_clean_linker_0, # of connection points: 2
#     Edge 72, Type (0, 1), BuildingBlock: UVAHIK_clean_linker_0, # of connection points: 2
#     Edge 73, Type (0, 1), BuildingBlock: UVAHIK_clean_linker_0, # of connection points: 2
#     Edge 74, Type (0, 1), BuildingBlock: UVAHIK_clean_linker_0, # of connection points: 2
#     Edge 75, Type (0, 1), BuildingBlock: UVAHIK_clean_linker_0, # of connection points: 2
#     Edge 76, Type (0, 1), BuildingBlock: UVAHIK_clean_linker_0, # of connection points: 2
#     Edge 77, Type (0, 1), BuildingBlock: UVAHIK_clean_linker_0, # of connection points: 2
#     Edge 78, Type (0, 1), BuildingBlock: UVAHIK_clean_linker_0, # of connection points: 2
#     Edge 79, Type (0, 1), BuildingBlock: UVAHIK_clean_linker_0, # of connection points: 2
#     Edge 80, Type (0, 1), BuildingBlock: UVAHIK_clean_linker_0, # of connection points: 2
#     Edge 81, Type (0, 1), BuildingBlock: UVAHIK_clean_linker_0, # of connection points: 2
#     Edge 82, Type (0, 1), BuildingBlock: UVAHIK_clean_linker_0, # of connection points: 2
#     Edge 83, Type (0, 1), BuildingBlock: UVAHIK_clean_linker_0, # of connection points: 2
#     Edge 84, Type (0, 1), BuildingBlock: UVAHIK_clean_linker_0, # of connection points: 2
#     Edge 85, Type (0, 1), BuildingBlock: UVAHIK_clean_linker_0, # of connection points: 2
#     Edge 86, Type (0, 1), BuildingBlock: UVAHIK_clean_linker_0, # of connection points: 2
#     Edge 87, Type (0, 1), BuildingBlock: UVAHIK_clean_linker_0, # of connection points: 2
#     Edge 88, Type (0, 1), BuildingBlock: UVAHIK_clean_linker_0, # of connection points: 2
#     Edge 89, Type (0, 1), BuildingBlock: UVAHIK_clean_linker_0, # of connection points: 2
#     Edge 90, Type (0, 1), BuildingBlock: UVAHIK_clean_linker_0, # of connection points: 2
#     Edge 91, Type (0, 1), BuildingBlock: UVAHIK_clean_linker_0, # of connection points: 2
#     Edge 92, Type (0, 1), BuildingBlock: UVAHIK_clean_linker_0, # of connection points: 2
#     Edge 93, Type (0, 1), BuildingBlock: UVAHIK_clean_linker_0, # of connection points: 2
#     Edge 94, Type (0, 1), BuildingBlock: UVAHIK_clean_linker_0, # of connection points: 2
#     Edge 95, Type (0, 1), BuildingBlock: UVAHIK_clean_linker_0, # of connection points: 2
#     Edge 96, Type (0, 1), BuildingBlock: UVAHIK_clean_linker_0, # of connection points: 2
#     Edge 97, Type (0, 1), BuildingBlock: UVAHIK_clean_linker_0, # of connection points: 2
#     Edge 98, Type (0, 1), BuildingBlock: UVAHIK_clean_linker_0, # of connection points: 2
#     Edge 99, Type (0, 1), BuildingBlock: UVAHIK_clean_linker_0, # of connection points: 2
#     Edge 100, Type (0, 1), BuildingBlock: UVAHIK_clean_linker_0, # of connection points: 2
#     Edge 101, Type (0, 1), BuildingBlock: UVAHIK_clean_linker_0, # of connection points: 2
#     Edge 102, Type (0, 1), BuildingBlock: UVAHIK_clean_linker_0, # of connection points: 2
#     Edge 103, Type (0, 1), BuildingBlock: UVAHIK_clean_linker_0, # of connection points: 2
#     Edge 104, Type (0, 1), BuildingBlock: UVAHIK_clean_linker_0, # of connection points: 2
#     Edge 105, Type (0, 1), BuildingBlock: UVAHIK_clean_linker_0, # of connection points: 2
#     Edge 106, Type (0, 1), BuildingBlock: UVAHIK_clean_linker_0, # of connection points: 2
#     Edge 107, Type (0, 1), BuildingBlock: UVAHIK_clean_linker_0, # of connection points: 2
#     Edge 108, Type (0, 1), BuildingBlock: UVAHIK_clean_linker_0, # of connection points: 2
#     Edge 109, Type (0, 1), BuildingBlock: UVAHIK_clean_linker_0, # of connection points: 2
#     Edge 110, Type (0, 1), BuildingBlock: UVAHIK_clean_linker_0, # of connection points: 2
#     Edge 111, Type (0, 1), BuildingBlock: UVAHIK_clean_linker_0, # of connection points: 2
#     Edge 112, Type (0, 1), BuildingBlock: UVAHIK_clean_linker_0, # of connection points: 2
#     Edge 113, Type (0, 1), BuildingBlock: UVAHIK_clean_linker_0, # of connection points: 2
#     Edge 114, Type (0, 1), BuildingBlock: UVAHIK_clean_linker_0, # of connection points: 2
#     Edge 115, Type (0, 1), BuildingBlock: UVAHIK_clean_linker_0, # of connection points: 2
#     Edge 116, Type (0, 1), BuildingBlock: UVAHIK_clean_linker_0, # of connection points: 2
#     Edge 117, Type (0, 1), BuildingBlock: UVAHIK_clean_linker_0, # of connection points: 2
#     Edge 118, Type (0, 1), BuildingBlock: UVAHIK_clean_linker_0, # of connection points: 2
#     Edge 119, Type (0, 1), BuildingBlock: UVAHIK_clean_linker_0, # of connection points: 2
#     Edge 120, Type (0, 1), BuildingBlock: UVAHIK_clean_linker_0, # of connection points: 2
#     Edge 121, Type (0, 1), BuildingBlock: UVAHIK_clean_linker_0, # of connection points: 2
#     Edge 122, Type (0, 1), BuildingBlock: UVAHIK_clean_linker_0, # of connection points: 2
#     Edge 123, Type (0, 1), BuildingBlock: UVAHIK_clean_linker_0, # of connection points: 2
#     Edge 124, Type (0, 1), BuildingBlock: UVAHIK_clean_linker_0, # of connection points: 2
#     Edge 125, Type (0, 1), BuildingBlock: UVAHIK_clean_linker_0, # of connection points: 2
#     Edge 126, Type (0, 1), BuildingBlock: UVAHIK_clean_linker_0, # of connection points: 2
#     Edge 127, Type (0, 1), BuildingBlock: UVAHIK_clean_linker_0, # of connection points: 2
#     Edge 128, Type (0, 1), BuildingBlock: UVAHIK_clean_linker_0, # of connection points: 2
#     Edge 129, Type (0, 1), BuildingBlock: UVAHIK_clean_linker_0, # of connection points: 2
#     Edge 130, Type (0, 1), BuildingBlock: UVAHIK_clean_linker_0, # of connection points: 2
#     Edge 131, Type (0, 1), BuildingBlock: UVAHIK_clean_linker_0, # of connection points: 2
#     Edge 132, Type (0, 1), BuildingBlock: UVAHIK_clean_linker_0, # of connection points: 2
#     Edge 133, Type (0, 1), BuildingBlock: UVAHIK_clean_linker_0, # of connection points: 2
#     Edge 134, Type (0, 1), BuildingBlock: UVAHIK_clean_linker_0, # of connection points: 2
#     Edge 135, Type (0, 1), BuildingBlock: UVAHIK_clean_linker_0, # of connection points: 2
#     Edge 136, Type (0, 1), BuildingBlock: UVAHIK_clean_linker_0, # of connection points: 2
#     Edge 137, Type (0, 1), BuildingBlock: UVAHIK_clean_linker_0, # of connection points: 2
#     Edge 138, Type (0, 1), BuildingBlock: UVAHIK_clean_linker_0, # of connection points: 2
#     Edge 139, Type (0, 1), BuildingBlock: UVAHIK_clean_linker_0, # of connection points: 2
#     Edge 140, Type (0, 1), BuildingBlock: UVAHIK_clean_linker_0, # of connection points: 2
#     Edge 141, Type (0, 1), BuildingBlock: UVAHIK_clean_linker_0, # of connection points: 2
#     Edge 142, Type (0, 1), BuildingBlock: UVAHIK_clean_linker_0, # of connection points: 2
#     Edge 143, Type (0, 1), BuildingBlock: UVAHIK_clean_linker_0, # of connection points: 2
#     Edge 144, Type (0, 1), BuildingBlock: UVAHIK_clean_linker_0, # of connection points: 2
#     Edge 145, Type (0, 1), BuildingBlock: UVAHIK_clean_linker_0, # of connection points: 2
#     Edge 146, Type (0, 1), BuildingBlock: UVAHIK_clean_linker_0, # of connection points: 2
#     Edge 147, Type (0, 1), BuildingBlock: UVAHIK_clean_linker_0, # of connection points: 2
#     Edge 148, Type (0, 1), BuildingBlock: UVAHIK_clean_linker_0, # of connection points: 2
#     Edge 149, Type (0, 1), BuildingBlock: UVAHIK_clean_linker_0, # of connection points: 2
#     Edge 150, Type (0, 1), BuildingBlock: UVAHIK_clean_linker_0, # of connection points: 2
#     Edge 151, Type (0, 1), BuildingBlock: UVAHIK_clean_linker_0, # of connection points: 2
# Relax obj value: 0.002
# Max RMSD: 0.117
# Mean RMSD: 0.047
data_MOF--net-tbo--node1-ESEHIV_clean_sbu_0--node2-ESEHIV_clean_linker_0--edge1-UVAHIK_clean_linker_0
_symmetry_space_group_name_H-M    P1
_symmetry_Int_Tables_number       1
_symmetry_cell_setting            triclinic
loop_
_symmetry_equiv_pos_as_xyz
'x, y, z'
_cell_length_a     91.911346
_cell_length_b     91.833889
_cell_length_c     91.874343
_cell_angle_alpha  90.135676
_cell_angle_beta   91.907693
_cell_angle_gamma 90.9217
loop_
_atom_site_label
_atom_site_type_symbol
_atom_site_fract_x
_atom_site_fract_y
_atom_site_fract_z
_atom_type_partial_charge
H0 H 0.16238 0.1833 0.17546 0.0
H1 H 0.19635 0.15226 0.16992 0.0
H2 H 0.16587 0.14645 0.20401 0.0
C3 C 0.16764 0.17328 0.17867 0.0
C4 C 0.16268 0.16552 0.19077 0.0
C5 C 0.17968 0.16851 0.17098 0.0
C6 C 0.18696 0.1559 0.17567 0.0
C7 C 0.18222 0.14801 0.18777 0.0
C8 C 0.16994 0.15281 0.19505 0.0
H9 H 0.8568 0.17458 0.19225 0.0
H10 H 0.86304 0.2083 0.16053 0.0
H11 H 0.82667 0.17859 0.15565 0.0
C12 C 0.8534 0.17994 0.18225 0.0
C13 C 0.84076 0.17497 0.17453 0.0
C14 C 0.86148 0.19204 0.17735 0.0
C15 C 0.8567 0.19923 0.16461 0.0
C16 C 0.84412 0.19449 0.15676 0.0
C17 C 0.8363 0.18233 0.16176 0.0
H18 H 0.82173 0.86654 0.16708 0.0
H19 H 0.85374 0.83284 0.16881 0.0
H20 H 0.85513 0.8671 0.20086 0.0
C21 C 0.83126 0.86169 0.17221 0.0
C22 C 0.83747 0.86802 0.18497 0.0
C23 C 0.83721 0.84909 0.16613 0.0
C24 C 0.8495 0.84286 0.17307 0.0
C25 C 0.85606 0.84918 0.18569 0.0
C26 C 0.84997 0.86182 0.19143 0.0
H27 H 0.14851 0.83923 0.18482 0.0
H28 H 0.18682 0.84382 0.15947 0.0
H29 H 0.1563 0.80848 0.15079 0.0
C30 C 0.1552 0.83558 0.17606 0.0
C31 C 0.15083 0.82317 0.168 0.0
C32 C 0.16831 0.84298 0.17327 0.0
C33 C 0.17696 0.83788 0.16204 0.0
C34 C 0.17272 0.8255 0.15375 0.0
C35 C 0.15967 0.81811 0.15695 0.0
H36 H 0.16269 0.85689 0.82272 0.0
H37 H 0.15791 0.82104 0.85237 0.0
H38 H 0.19538 0.84949 0.85641 0.0
C39 C 0.16691 0.85045 0.83174 0.0
C40 C 0.18004 0.85472 0.83898 0.0
C41 C 0.15881 0.83834 0.83651 0.0
C42 C 0.16411 0.83034 0.84857 0.0
C43 C 0.1772 0.83439 0.85594 0.0
C44 C 0.18511 0.84652 0.85099 0.0
H45 H 0.18161 0.19565 0.86639 0.0
H46 H 0.21032 0.15951 0.8628 0.0
H47 H 0.17575 0.16558 0.83066 0.0
C48 C 0.18507 0.18616 0.86047 0.0
C49 C 0.17735 0.1818 0.84769 0.0
C50 C 0.19702 0.17828 0.86596 0.0
C51 C 0.201 0.16552 0.85873 0.0
C52 C 0.19336 0.1608 0.84596 0.0
C53 C 0.1816 0.16908 0.84051 0.0
H54 H 0.84469 0.177 0.84774 0.0
H55 H 0.87436 0.17303 0.81281 0.0
H56 H 0.87859 0.20913 0.84282 0.0
C57 C 0.85401 0.18107 0.84197 0.0
C58 C 0.86101 0.194 0.84669 0.0
C59 C 0.85877 0.17337 0.82984 0.0
C60 C 0.87076 0.17882 0.82229 0.0
C61 C 0.87803 0.19175 0.82688 0.0
C62 C 0.8731 0.19919 0.83917 0.0
H63 H 0.82154 0.87945 0.84797 0.0
H64 H 0.84736 0.84097 0.85274 0.0
H65 H 0.85292 0.8693 0.81603 0.0
C66 C 0.8298 0.87229 0.84401 0.0
C67 C 0.83675 0.87582 0.83105 0.0
C68 C 0.83344 0.85967 0.8519 0.0
C69 C 0.84438 0.85065 0.8467 0.0
C70 C 0.85159 0.85406 0.83383 0.0
C71 C 0.84755 0.8666 0.82601 0.0
H72 H 0.16098 0.70516 0.65761 0.0
H73 H 0.19354 0.67191 0.65619 0.0
H74 H 0.16514 0.67397 0.69224 0.0
C75 C 0.16637 0.69585 0.66245 0.0
C76 C 0.16183 0.69052 0.67592 0.0
C77 C 0.1778 0.68922 0.65516 0.0
C78 C 0.18459 0.67701 0.66153 0.0
C79 C 0.18022 0.67165 0.67503 0.0
C80 C 0.16884 0.67843 0.68207 0.0
H81 H 0.86612 0.68632 0.67599 0.0
H82 H 0.85774 0.71615 0.64091 0.0
H83 H 0.8269 0.68164 0.64935 0.0
C84 C 0.85915 0.68994 0.66702 0.0
C85 C 0.84598 0.68244 0.66373 0.0
C86 C 0.86341 0.70217 0.65895 0.0
C87 C 0.85438 0.70686 0.64731 0.0
C88 C 0.84129 0.69933 0.64357 0.0
C89 C 0.83719 0.68715 0.65187 0.0
H90 H 0.83292 0.37556 0.66592 0.0
H91 H 0.86918 0.34677 0.67114 0.0
H92 H 0.86459 0.38239 0.70093 0.0
C93 C 0.84281 0.3724 0.67174 0.0
C94 C 0.84766 0.38032 0.68416 0.0
C95 C 0.85063 0.36037 0.66685 0.0
C96 C 0.86339 0.35631 0.67456 0.0
C97 C 0.86846 0.36409 0.68696 0.0
C98 C 0.86054 0.3761 0.69162 0.0
H99 H 0.1704 0.36987 0.69281 0.0
H100 H 0.20041 0.37326 0.65811 0.0
H101 H 0.16914 0.33799 0.65817 0.0
C102 C 0.17451 0.36568 0.68273 0.0
C103 C 0.16824 0.35297 0.67634 0.0
C104 C 0.18597 0.37315 0.67607 0.0
C105 C 0.19134 0.36771 0.66307 0.0
C106 C 0.18548 0.35494 0.65666 0.0
C107 C 0.17395 0.34761 0.66335 0.0
H108 H 0.16641 0.34898 0.33067 0.0
H109 H 0.16205 0.31311 0.36038 0.0
H110 H 0.19997 0.34109 0.36332 0.0
C111 C 0.17074 0.34251 0.33961 0.0
C112 C 0.18422 0.34646 0.34633 0.0
C113 C 0.16256 0.33059 0.3447 0.0
C114 C 0.16809 0.32253 0.35661 0.0
C115 C 0.18161 0.32618 0.36335 0.0
C116 C 0.18955 0.33819 0.35815 0.0
H117 H 0.17823 0.67931 0.34712 0.0
H118 H 0.2054 0.64192 0.34386 0.0
H119 H 0.17092 0.64878 0.31189 0.0
C120 C 0.18125 0.66959 0.34131 0.0
C121 C 0.17317 0.66519 0.32874 0.0
C122 C 0.19289 0.6613 0.34683 0.0
C123 C 0.19635 0.64829 0.33973 0.0
C124 C 0.18849 0.6437 0.32708 0.0
C125 C 0.17698 0.65227 0.32163 0.0
H126 H 0.82657 0.66879 0.34676 0.0
H127 H 0.85827 0.66182 0.31415 0.0
H128 H 0.86423 0.6971 0.34467 0.0
C129 C 0.83666 0.67189 0.34175 0.0
C130 C 0.84493 0.6838 0.34735 0.0
C131 C 0.84129 0.66401 0.32964 0.0
C132 C 0.85443 0.66809 0.32322 0.0
C133 C 0.86287 0.67991 0.32865 0.0
C134 C 0.85801 0.6877 0.3407 0.0
H135 H 0.82574 0.36239 0.36095 0.0
H136 H 0.85427 0.32625 0.36802 0.0
H137 H 0.86267 0.35678 0.33389 0.0
C138 C 0.83539 0.3565 0.35818 0.0
C139 C 0.84371 0.36116 0.34639 0.0
C140 C 0.83909 0.34386 0.36599 0.0
C141 C 0.85138 0.33601 0.36206 0.0
C142 C 0.85986 0.3405 0.35042 0.0
C143 C 0.85597 0.3531 0.34268 0.0
H144 H 0.66866 0.20348 0.66299 0.0
H145 H 0.7005 0.17067 0.65556 0.0
H146 H 0.67186 0.16625 0.69129 0.0
C147 C 0.67375 0.19334 0.66608 0.0
C148 C 0.66889 0.18561 0.67828 0.0
C149 C 0.68506 0.18796 0.65772 0.0
C150 C 0.69172 0.17485 0.66188 0.0
C151 C 0.68705 0.16698 0.67398 0.0
C152 C 0.6756 0.1724 0.68205 0.0
H153 H 0.36836 0.17471 0.69902 0.0
H154 H 0.36414 0.20613 0.66466 0.0
H155 H 0.33164 0.17218 0.66885 0.0
C156 C 0.36251 0.17881 0.6895 0.0
C157 C 0.34952 0.1718 0.68466 0.0
C158 C 0.3678 0.19129 0.68245 0.0
C159 C 0.35987 0.19678 0.67039 0.0
C160 C 0.34679 0.18998 0.66534 0.0
C161 C 0.34169 0.1775 0.6726 0.0
H162 H 0.31866 0.86689 0.66363 0.0
H163 H 0.35343 0.83664 0.67077 0.0
H164 H 0.35158 0.87541 0.69701 0.0
C165 C 0.32837 0.86354 0.66967 0.0
C166 C 0.33411 0.87241 0.68104 0.0
C167 C 0.33558 0.85083 0.66558 0.0
C168 C 0.34825 0.84677 0.67347 0.0
C169 C 0.35419 0.8555 0.68485 0.0
C170 C 0.34705 0.86838 0.68846 0.0
H171 H 0.65389 0.85918 0.68421 0.0
H172 H 0.69149 0.86335 0.65785 0.0
H173 H 0.66075 0.82793 0.65042 0.0
C174 C 0.66051 0.85521 0.67554 0.0
C175 C 0.65591 0.84273 0.66774 0.0
C176 C 0.67347 0.86261 0.67224 0.0
C177 C 0.68164 0.85753 0.66064 0.0
C178 C 0.67715 0.8451 0.65254 0.0
C179 C 0.66433 0.83761 0.65637 0.0
H180 H 0.6488 0.85544 0.31187 0.0
H181 H 0.65049 0.8247 0.347 0.0
H182 H 0.68498 0.8564 0.34287 0.0
C183 C 0.65435 0.85112 0.32145 0.0
C184 C 0.66754 0.85762 0.32655 0.0
C185 C 0.64823 0.83905 0.32854 0.0
C186 C 0.65539 0.83362 0.34112 0.0
C187 C 0.6686 0.83984 0.34645 0.0
C188 C 0.67461 0.85181 0.33905 0.0
H189 H 0.66703 0.18532 0.35917 0.0
H190 H 0.69855 0.1512 0.35964 0.0
H191 H 0.66577 0.15262 0.32536 0.0
C192 C 0.67134 0.17558 0.35436 0.0
C193 C 0.6648 0.16987 0.34143 0.0
C194 C 0.68345 0.16886 0.36109 0.0
C195 C 0.68901 0.15627 0.35476 0.0
C196 C 0.68278 0.15046 0.34183 0.0
C197 C 0.67073 0.15731 0.33519 0.0
H198 H 0.32876 0.15786 0.36418 0.0
H199 H 0.35563 0.14829 0.32808 0.0
H200 H 0.36638 0.18473 0.3561 0.0
C201 C 0.33828 0.16026 0.3579 0.0
C202 C 0.34735 0.17222 0.36179 0.0
C203 C 0.3411 0.15162 0.3457 0.0
C204 C 0.35317 0.15512 0.33728 0.0
C205 C 0.36234 0.16707 0.34091 0.0
C206 C 0.35935 0.17553 0.35321 0.0
H207 H 0.31235 0.84842 0.3533 0.0
H208 H 0.34129 0.8122 0.35709 0.0
H209 H 0.3471 0.84396 0.3234 0.0
C210 C 0.32167 0.84257 0.34957 0.0
C211 C 0.32917 0.84774 0.33745 0.0
C212 C 0.32589 0.82969 0.35668 0.0
C213 C 0.33786 0.82205 0.35159 0.0
C214 C 0.34554 0.82705 0.33955 0.0
C215 C 0.34103 0.83985 0.33248 0.0
H216 H 0.65191 0.69354 0.15594 0.0
H217 H 0.68944 0.66736 0.14862 0.0
H218 H 0.66087 0.65642 0.18308 0.0
C219 C 0.65866 0.68436 0.1588 0.0
C220 C 0.65497 0.67552 0.17067 0.0
C221 C 0.671 0.68148 0.15062 0.0
C222 C 0.67967 0.66951 0.1545 0.0
C223 C 0.67615 0.66052 0.16626 0.0
C224 C 0.6638 0.66359 0.17425 0.0
H225 H 0.35194 0.6641 0.18442 0.0
H226 H 0.35049 0.69205 0.14702 0.0
H227 H 0.31628 0.66023 0.15298 0.0
C228 C 0.3464 0.66768 0.17449 0.0
C229 C 0.33326 0.66082 0.16985 0.0
C230 C 0.35265 0.67898 0.16641 0.0
C231 C 0.34564 0.68343 0.1534 0.0
C232 C 0.33256 0.67664 0.14842 0.0
C233 C 0.32636 0.66545 0.15678 0.0
H234 H 0.33192 0.34662 0.17195 0.0
H235 H 0.36623 0.31536 0.17433 0.0
H236 H 0.36472 0.34936 0.20648 0.0
C237 C 0.34159 0.34239 0.1774 0.0
C238 C 0.34743 0.34949 0.18993 0.0
C239 C 0.34827 0.33004 0.17169 0.0
C240 C 0.36092 0.32478 0.17874 0.0
C241 C 0.36697 0.33168 0.19127 0.0
C242 C 0.36008 0.34397 0.19686 0.0
H243 H 0.66327 0.35964 0.19323 0.0
H244 H 0.69669 0.36478 0.16178 0.0
H245 H 0.66449 0.33059 0.15659 0.0
C246 C 0.6681 0.35635 0.18317 0.0
C247 C 0.66249 0.34405 0.1756 0.0
C248 C 0.6804 0.36398 0.17822 0.0
C249 C 0.68709 0.35913 0.16554 0.0
C250 C 0.68159 0.34688 0.15782 0.0
C251 C 0.66912 0.33969 0.16279 0.0
H252 H 0.67116 0.37258 0.821 0.0
H253 H 0.66658 0.34067 0.85495 0.0
H254 H 0.70139 0.3723 0.85779 0.0
C255 C 0.67474 0.36804 0.83136 0.0
C256 C 0.68714 0.37399 0.83875 0.0
C257 C 0.66731 0.35587 0.83702 0.0
C258 C 0.67238 0.34982 0.8503 0.0
C259 C 0.68467 0.35566 0.85783 0.0
C260 C 0.69189 0.36777 0.852 0.0
H261 H 0.68346 0.70954 0.85664 0.0
H262 H 0.71346 0.67428 0.85391 0.0
H263 H 0.67748 0.67744 0.82281 0.0
C264 C 0.68708 0.69983 0.85118 0.0
C265 C 0.67908 0.69446 0.83899 0.0
C266 C 0.69947 0.69264 0.85668 0.0
C267 C 0.70377 0.67973 0.84988 0.0
C268 C 0.69596 0.6742 0.83753 0.0
C269 C 0.68359 0.68163 0.83225 0.0
H270 H 0.33885 0.66743 0.84112 0.0
H271 H 0.37286 0.66555 0.81007 0.0
H272 H 0.37319 0.69982 0.84194 0.0
C273 C 0.34876 0.67184 0.83668 0.0
C274 C 0.35546 0.68425 0.8432 0.0
C275 C 0.35485 0.66506 0.82457 0.0
C276 C 0.36775 0.67095 0.81901 0.0
C277 C 0.37445 0.68347 0.82517 0.0
C278 C 0.36824 0.69001 0.83728 0.0
H279 H 0.32954 0.36465 0.86509 0.0
H280 H 0.36186 0.33152 0.87012 0.0
H281 H 0.36483 0.36321 0.8357 0.0
C282 C 0.33943 0.35959 0.86163 0.0
C283 C 0.34654 0.36525 0.84959 0.0
C284 C 0.34497 0.34755 0.86925 0.0
C285 C 0.35764 0.34094 0.8644 0.0
C286 C 0.36488 0.3464 0.85223 0.0
C287 C 0.3593 0.35872 0.84496 0.0
Cu288 Cu 0.25879 0.26323 0.02096 0.0
N289 N 0.25932 0.28029 0.00984 0.0
N290 N 0.26623 0.29514 0.99201 0.0
C291 C 0.268 0.28208 0.99846 0.0
C292 C 0.25605 0.3019 0.99973 0.0
C293 C 0.25176 0.29268 0.0107 0.0
O294 O 0.25879 0.24731 0.00677 0.0
C295 C 0.27516 0.27598 0.04277 0.0
O296 O 0.26457 0.28524 0.0406 0.0
H297 H 0.27554 0.27391 0.99506 0.0
H298 H 0.24372 0.29486 0.01872 0.0
N299 N 0.24201 0.26138 0.03175 0.0
N300 N 0.22757 0.25325 0.04921 0.0
C301 C 0.241 0.253 0.04367 0.0
C302 C 0.22877 0.26718 0.02958 0.0
C303 C 0.21983 0.26218 0.04034 0.0
C304 C 0.24889 0.24869 0.99683 0.0
O305 O 0.23977 0.25949 0.99779 0.0
H306 H 0.24992 0.24658 0.04795 0.0
H307 H 0.22576 0.27439 0.02073 0.0
O308 O 0.27517 0.26442 0.03504 0.0
H309 H 0.25183 0.31263 0.99748 0.0
H310 H 0.20853 0.26496 0.04153 0.0
Cu311 Cu 0.77184 0.2719 1.00181 0.0
N312 N 0.75474 0.27311 0.01377 0.0
N313 N 0.73994 0.27993 0.03122 0.0
C314 C 0.75225 0.28307 0.02413 0.0
C315 C 0.73452 0.26757 0.02497 0.0
C316 C 0.74368 0.26339 0.0142 0.0
O317 O 0.78287 0.26222 0.01864 0.0
C318 C 0.75859 0.29457 0.98383 0.0
O319 O 0.7641 0.30321 0.9941 0.0
H320 H 0.75958 0.29211 0.02677 0.0
H321 H 0.74256 0.25379 0.00738 0.0
N322 N 0.78901 0.27078 0.98993 0.0
N323 N 0.80411 0.26434 0.97258 0.0
C324 C 0.79085 0.26221 0.97825 0.0
C325 C 0.8014 0.27862 0.99175 0.0
C326 C 0.81076 0.27466 0.98108 0.0
C327 C 0.78907 0.26949 0.02895 0.0
O328 O 0.78881 0.28378 0.02856 0.0
H329 H 0.78268 0.25451 0.97411 0.0
H330 H 0.80343 0.2867 1.0002 0.0
O331 O 0.76054 0.28093 0.98481 0.0
H332 H 0.72468 0.26188 0.02804 0.0
H333 H 0.82153 0.27923 0.97955 0.0
Cu334 Cu 0.75279 0.78462 0.00997 0.0
N335 N 0.7541 0.80218 0.99971 0.0
N336 N 0.7613 0.81758 0.98246 0.0
C337 C 0.76307 0.80438 0.98861 0.0
C338 C 0.75085 0.82402 0.99006 0.0
C339 C 0.74649 0.81453 1.00079 0.0
O340 O 0.75526 0.76915 0.99564 0.0
C341 C 0.76342 0.79488 0.03614 0.0
O342 O 0.75139 0.80225 0.0341 0.0
H343 H 0.7704 0.7962 0.9848 0.0
H344 H 0.73828 0.81646 0.00868 0.0
N345 N 0.73456 0.78139 0.01798 0.0
N346 N 0.71819 0.77159 0.03267 0.0
C347 C 0.73196 0.77115 0.02806 0.0
C348 C 0.72194 0.78848 0.01599 0.0
C349 C 0.71183 0.78251 0.02515 0.0
C350 C 0.74648 0.77035 0.98467 0.0
O351 O 0.73706 0.78097 0.98456 0.0
H352 H 0.74017 0.76382 0.03227 0.0
H353 H 0.7202 0.7974 0.00852 0.0
O354 O 0.76693 0.78584 0.02633 0.0
H355 H 0.74667 0.83481 0.98803 0.0
H356 H 0.70068 0.78588 0.02616 0.0
Cu357 Cu 0.26729 0.75769 0.99938 0.0
N358 N 0.26679 0.77285 0.01299 0.0
N359 N 0.25931 0.78532 0.03225 0.0
C360 C 0.25772 0.77305 0.02419 0.0
C361 C 0.26985 0.79318 0.02582 0.0
C362 C 0.27447 0.78544 0.01396 0.0
O363 O 0.26674 0.74006 0.01128 0.0
C364 C 0.25064 0.77265 0.97953 0.0
O365 O 0.26088 0.78224 0.98318 0.0
H366 H 0.24988 0.76442 0.02617 0.0
H367 H 0.28271 0.78884 0.0065 0.0
N368 N 0.2842 0.7583 0.98854 0.0
N369 N 0.29923 0.7533 0.97053 0.0
C370 C 0.28547 0.75229 0.97526 0.0
C371 C 0.29758 0.7634 0.99239 0.0
C372 C 0.30686 0.76036 0.98131 0.0
C373 C 0.27666 0.73052 0.01123 0.0
O374 O 0.28606 0.73073 1.00078 0.0
H375 H 0.27655 0.74668 0.96952 0.0
H376 H 0.30048 0.76856 1.00269 0.0
O377 O 0.25094 0.76015 0.98553 0.0
H378 H 0.274 0.80371 0.02944 0.0
H379 H 0.31837 0.76302 0.98133 0.0
Cu380 Cu 0.01094 0.24456 0.2796 0.0
N381 N 0.02312 0.22842 0.27943 0.0
N382 N 0.04109 0.21433 0.27207 0.0
C383 C 0.0339 0.22689 0.27001 0.0
C384 C 0.03457 0.20767 0.28325 0.0
C385 C 0.02342 0.21635 0.28772 0.0
O386 O 0.02392 0.26158 0.28089 0.0
C387 C 0.99115 0.23135 0.26083 0.0
O388 O 0.99374 0.22102 0.27039 0.0
H389 H 0.03649 0.23495 0.26188 0.0
H390 H 0.01594 0.21384 0.29621 0.0
N391 N 0.99861 0.24504 0.29542 0.0
N392 N 0.9802 0.25264 0.30871 0.0
C393 C 0.98679 0.25347 0.29581 0.0
C394 C 0.99957 0.23858 0.30855 0.0
C395 C 0.98823 0.24324 0.31677 0.0
C396 C 0.03089 0.26289 0.29308 0.0
O397 O 0.02847 0.25324 0.30328 0.0
H398 H 0.98344 0.2605 0.28692 0.0
H399 H 0.00815 0.2314 0.31214 0.0
O400 O 0.99804 0.24346 0.26232 0.0
H401 H 0.03744 0.19714 0.28766 0.0
H402 H 0.98618 0.24006 0.32785 0.0
Cu403 Cu 0.75166 0.01552 0.24542 0.0
N404 N 0.75137 0.02845 0.22975 0.0
N405 N 0.75854 0.04749 0.21648 0.0
C406 C 0.76085 0.0397 0.22874 0.0
C407 C 0.7471 0.04088 0.20946 0.0
C408 C 0.74275 0.02905 0.21764 0.0
O409 O 0.75336 0.02819 0.26244 0.0
C410 C 0.77342 0.99347 0.25092 0.0
O411 O 0.76949 0.99328 0.26453 0.0
H412 H 0.76922 0.04218 0.23698 0.0
H413 H 0.73405 0.02138 0.21484 0.0
N414 N 0.73466 1.00399 0.2462 0.0
N415 N 0.71987 0.98572 0.25273 0.0
C416 C 0.73355 0.99127 0.25339 0.0
C417 C 0.72116 0.00657 0.24076 0.0
C418 C 0.71203 0.99524 0.24468 0.0
C419 C 0.74657 0.02638 0.27417 0.0
O420 O 0.74008 0.01382 0.27662 0.0
H421 H 0.74255 0.98627 0.25924 0.0
H422 H 0.71806 0.01619 0.23473 0.0
O423 O 0.76781 1.00264 0.24213 0.0
H424 H 0.74239 0.04417 0.19904 0.0
H425 H 0.70043 0.99434 0.24229 0.0
Cu426 Cu 0.01372 0.75762 0.25918 0.0
N427 N 1.00344 0.77503 0.25943 0.0
N428 N 0.98551 0.79051 0.25428 0.0
C429 C 0.98997 0.77663 0.2535 0.0
C430 C 0.99653 0.79796 0.26109 0.0
C431 C 0.00766 0.78838 0.26416 0.0
O432 O 0.99942 0.74204 0.26197 0.0
C433 C 0.02223 0.76448 0.23026 0.0
O434 O 0.01044 0.77235 0.22954 0.0
H435 H 0.98374 0.76783 0.24832 0.0
H436 H 0.01824 0.79109 0.269 0.0
N437 N 0.02786 0.75679 0.27426 0.0
N438 N 0.0475 0.74909 0.28683 0.0
C439 C 0.03855 0.74694 0.27505 0.0
C440 C 0.03006 0.76545 0.286 0.0
C441 C 0.04222 0.76076 0.29375 0.0
C442 C 0.9942 0.74154 0.27464 0.0
O443 O 0.99914 0.7509 0.28452 0.0
H444 H 0.03987 0.73853 0.26695 0.0
H445 H 0.02328 0.77447 0.28881 0.0
O446 O 0.02458 0.7564 0.24131 0.0
H447 H 0.99678 0.80958 0.26307 0.0
H448 H 0.04671 0.76544 0.30378 0.0
Cu449 Cu 0.24468 0.9961 0.2724 0.0
N450 N 0.24584 0.00765 0.28925 0.0
N451 N 0.25329 0.02634 0.30341 0.0
C452 C 0.25448 0.01957 0.29047 0.0
C453 C 0.24354 0.01826 0.31071 0.0
C454 C 0.23889 0.00675 0.30189 0.0
O455 O 0.24332 0.00999 0.25636 0.0
C456 C 0.26268 0.97613 0.28478 0.0
O457 O 0.25302 0.97807 0.29479 0.0
H458 H 0.26159 0.02312 0.28197 0.0
H459 H 0.23103 0.99836 0.30453 0.0
N460 N 0.22826 0.98384 0.2712 0.0
N461 N 0.21405 0.96537 0.26305 0.0
C462 C 0.22728 0.97193 0.26266 0.0
C463 C 0.2152 0.98491 0.27729 0.0
C464 C 0.20639 0.97352 0.27224 0.0
C465 C 0.23294 0.01885 0.25799 0.0
O466 O 0.22435 0.01687 0.26898 0.0
H467 H 0.23602 0.96845 0.25592 0.0
H468 H 0.21219 0.99349 0.28462 0.0
O469 O 0.26147 0.98335 0.27297 0.0
H470 H 0.23985 0.02061 0.32152 0.0
H471 H 0.19522 0.97146 0.27509 0.0
Cu472 Cu 0.00504 0.76363 0.76021 0.0
N473 N 0.01726 0.74756 0.75975 0.0
N474 N 0.03626 0.73454 0.75293 0.0
C475 C 0.02959 0.74752 0.75227 0.0
C476 C 0.02772 0.72605 0.7612 0.0
C477 C 0.016 0.7341 0.76538 0.0
O478 O 0.0182 0.78024 0.764 0.0
C479 C 0.98743 0.75217 0.7383 0.0
O480 O 0.98923 0.74088 0.74688 0.0
H481 H 0.03328 0.75679 0.74607 0.0
H482 H 0.00702 0.7302 0.77165 0.0
N483 N 0.99132 0.76267 0.77482 0.0
N484 N 0.97205 0.76914 0.78743 0.0
C485 C 0.98024 0.77197 0.77581 0.0
C486 C 0.99016 0.75362 0.78625 0.0
C487 C 0.97822 0.75754 0.79401 0.0
C488 C 0.02311 0.78144 0.77711 0.0
O489 O 0.01816 0.77241 0.78691 0.0
H490 H 0.97822 0.78065 0.76809 0.0
H491 H 0.99764 0.74504 0.78904 0.0
O492 O 0.9938 0.76417 0.74181 0.0
H493 H 0.02968 0.71479 0.76398 0.0
H494 H 0.97463 0.75253 0.80395 0.0
Cu495 Cu 0.27039 0.01434 0.76889 0.0
N496 N 0.28731 0.02595 0.76895 0.0
N497 N 0.30191 0.04464 0.76305 0.0
C498 C 0.28812 0.03928 0.76294 0.0
C499 C 0.31006 0.03424 0.76958 0.0
C500 C 0.30103 0.02272 0.77318 0.0
O501 O 0.2544 0.02764 0.77205 0.0
C502 C 0.27783 1.00379 0.7408 0.0
O503 O 0.28662 0.01518 0.74053 0.0
H504 H 0.27883 0.04453 0.75782 0.0
H505 H 0.30431 0.01251 0.77802 0.0
N506 N 0.27067 1.00058 0.78389 0.0
N507 N 0.26378 0.98097 0.7965 0.0
C508 C 0.26146 0.98906 0.78442 0.0
C509 C 0.2792 0.99978 0.79605 0.0
C510 C 0.27493 0.98771 0.80388 0.0
C511 C 0.25438 0.03317 0.78481 0.0
O512 O 0.26444 0.02919 0.7944 0.0
H513 H 0.25302 0.98686 0.77618 0.0
H514 H 0.28778 0.00749 0.7991 0.0
O515 O 0.26891 1.00259 0.75107 0.0
H516 H 0.32175 0.03471 0.77137 0.0
H517 H 0.27974 0.98414 0.81415 0.0
Cu518 Cu 0.02686 0.28229 0.76961 0.0
N519 N 0.01568 0.29922 0.77005 0.0
N520 N 0.99728 0.31399 0.76407 0.0
C521 C 1.00328 0.30084 0.76205 0.0
C522 C 0.00636 0.32097 0.77373 0.0
C523 C 0.01768 0.31183 0.77741 0.0
O524 O 0.0127 0.26621 0.76868 0.0
C525 C 0.04791 0.29559 0.75401 0.0
O526 O 0.04693 0.30425 0.76532 0.0
H527 H 0.9989 0.29255 0.75467 0.0
H528 H 0.02679 0.31431 0.78479 0.0
N529 N 0.03878 0.27966 0.78627 0.0
N530 N 0.0564 0.27011 0.80045 0.0
C531 C 0.04915 0.2695 0.78744 0.0
C532 C 0.03938 0.2869 0.79904 0.0
C533 C 0.05033 0.28109 0.80778 0.0
C534 C 1.00361 0.2668 0.77886 0.0
O535 O 0.00532 0.27707 0.78878 0.0
H536 H 0.05149 0.26196 0.77878 0.0
H537 H 0.03235 0.29571 0.80186 0.0
O538 O 0.03978 0.28421 0.75324 0.0
H539 H 0.0049 0.33185 0.77791 0.0
H540 H 0.05344 0.28453 0.81874 0.0
Cu541 Cu 0.75313 0.02063 0.7604 0.0
N542 N 0.75465 0.0341 0.77573 0.0
N543 N 0.76398 0.05307 0.78843 0.0
C544 C 0.76379 0.04569 0.7757 0.0
C545 C 0.7545 0.04583 0.79681 0.0
C546 C 0.74875 0.03413 0.78896 0.0
O547 O 0.75089 0.03228 0.74279 0.0
C548 C 0.77329 1.00311 0.77383 0.0
O549 O 0.76515 0.00658 0.78475 0.0
H550 H 0.77067 0.04824 0.76669 0.0
H551 H 0.74135 0.02592 0.79291 0.0
N552 N 0.73724 0.00769 0.7612 0.0
N553 N 0.72295 0.98875 0.75445 0.0
C554 C 0.73526 0.9964 0.75194 0.0
C555 C 0.72574 0.00722 0.7699 0.0
C556 C 0.71693 0.99547 0.76581 0.0
C557 C 0.73836 0.03781 0.74073 0.0
O558 O 0.72813 0.03467 0.74991 0.0
H559 H 0.74279 0.99385 0.74353 0.0
H560 H 0.72364 0.015 0.77837 0.0
O561 O 0.77031 0.00846 0.76131 0.0
H562 H 0.75206 0.0486 0.80791 0.0
H563 H 0.70672 0.99237 0.77055 0.0
Cu564 Cu 0.26758 0.74751 0.50899 0.0
N565 N 0.28267 0.74999 0.52308 0.0
N566 N 0.29467 0.75954 0.54256 0.0
C567 C 0.28209 0.75914 0.53452 0.0
C568 C 0.30351 0.75019 0.53589 0.0
C569 C 0.29609 0.74433 0.5239 0.0
O570 O 0.24981 0.74565 0.51995 0.0
C571 C 0.28065 0.76581 0.48983 0.0
O572 O 0.29144 0.75752 0.49419 0.0
H573 H 0.27273 0.76575 0.53658 0.0
H574 H 0.3004 0.73685 0.5161 0.0
N575 N 0.26922 0.73086 0.49732 0.0
N576 N 0.26418 0.71566 0.47869 0.0
C577 C 0.26094 0.72835 0.48519 0.0
C578 C 0.27802 0.71932 0.49861 0.0
C579 C 0.27498 0.70995 0.48708 0.0
C580 C 0.24799 0.73342 0.52623 0.0
O581 O 0.25748 0.72313 0.52421 0.0
H582 H 0.25277 0.73582 0.48114 0.0
H583 H 0.28589 0.71763 0.50741 0.0
O584 O 0.26826 0.76382 0.49541 0.0
H585 H 0.31459 0.74783 0.53932 0.0
H586 H 0.28008 0.69961 0.4852 0.0
Cu587 Cu 0.7663 0.78039 0.49513 0.0
N588 N 0.783 0.77955 0.48406 0.0
N589 N 0.79741 0.7716 0.46663 0.0
C590 C 0.78394 0.77119 0.47208 0.0
C591 C 0.80527 0.78064 0.47558 0.0
C592 C 0.79636 0.78552 0.48632 0.0
O593 O 0.74981 0.78099 0.48113 0.0
C594 C 0.77721 0.76617 0.51872 0.0
O595 O 0.78599 0.7775 0.51756 0.0
H596 H 0.77498 0.7645 0.4678 0.0
H597 H 0.79955 0.79258 0.49534 0.0
N598 N 0.7652 0.79709 0.5068 0.0
N599 N 0.75747 0.81064 0.52517 0.0
C600 C 0.75534 0.7984 0.51721 0.0
C601 C 0.77386 0.80902 0.50811 0.0
C602 C 0.76914 0.81738 0.51951 0.0
C603 C 0.74958 0.7928 0.47382 0.0
O604 O 0.75992 0.80259 0.47649 0.0
H605 H 0.74713 0.79014 0.5193 0.0
H606 H 0.7831 0.81136 0.50147 0.0
O607 O 0.76705 0.76427 0.50905 0.0
H608 H 0.81666 0.78345 0.47455 0.0
H609 H 0.77398 0.82755 0.5234 0.0
Cu610 Cu 0.77149 0.26041 0.51425 0.0
N611 N 0.77104 0.24311 0.50334 0.0
N612 N 0.76385 0.22756 0.48566 0.0
C613 C 0.76209 0.24082 0.49165 0.0
C614 C 0.77433 0.22121 0.49398 0.0
C615 C 0.77879 0.23086 0.50486 0.0
O616 O 0.77169 0.27607 0.49989 0.0
C617 C 0.7546 0.24789 0.53451 0.0
O618 O 0.76502 0.23843 0.53309 0.0
H619 H 0.7543 0.24875 0.48774 0.0
H620 H 0.78703 0.22902 0.5133 0.0
N621 N 0.78814 0.26251 0.52634 0.0
N622 N 0.8025 0.27127 0.54457 0.0
C623 C 0.78904 0.27114 0.5382 0.0
C624 C 0.80149 0.25693 0.52509 0.0
C625 C 0.81038 0.26232 0.53633 0.0
C626 C 0.78159 0.27442 0.49066 0.0
O627 O 0.79055 0.2635 0.49232 0.0
H628 H 0.78004 0.27754 0.54178 0.0
H629 H 0.80463 0.24969 0.5165 0.0
O630 O 0.75492 0.25953 0.52699 0.0
H631 H 0.77859 0.21045 0.49225 0.0
H632 H 0.82175 0.25985 0.53824 0.0
Cu633 Cu 0.276 0.26822 0.51072 0.0
N634 N 0.27277 0.28636 0.51916 0.0
N635 N 0.26361 0.30225 0.53476 0.0
C636 C 0.26465 0.28812 0.53091 0.0
C637 C 0.27135 0.3097 0.52489 0.0
C638 C 0.27698 0.29986 0.51526 0.0
O639 O 0.27764 0.25433 0.52675 0.0
C640 C 0.26152 0.27284 0.48483 0.0
O641 O 0.27266 0.28193 0.48419 0.0
H642 H 0.25936 0.27913 0.53633 0.0
H643 H 0.28353 0.30239 0.50601 0.0
N644 N 0.29343 0.26742 0.50085 0.0
N645 N 0.309 0.25922 0.48469 0.0
C646 C 0.29641 0.25671 0.49146 0.0
C647 C 0.3046 0.27703 0.50016 0.0
C648 C 0.31421 0.27203 0.4901 0.0
C649 C 0.28725 0.25829 0.53637 0.0
O650 O 0.2947 0.27038 0.53423 0.0
H651 H 0.28909 0.24758 0.48914 0.0
H652 H 0.30552 0.28711 0.50625 0.0
O653 O 0.26025 0.26499 0.49618 0.0
H654 H 0.2729 0.3214 0.52466 0.0
H655 H 0.32415 0.27744 0.48691 0.0
Cu656 Cu 0.77856 0.52953 0.7648 0.0
N657 N 0.79477 0.54195 0.76311 0.0
N658 N 0.80802 0.5601 0.75378 0.0
C659 C 0.79539 0.55241 0.7529 0.0
C660 C 0.8157 0.55423 0.76502 0.0
C661 C 0.80753 0.54297 0.77071 0.0
O662 O 0.76182 0.54226 0.76594 0.0
C663 C 0.78971 0.50705 0.75046 0.0
O664 O 0.79914 0.50965 0.76125 0.0
H665 H 0.78659 0.55446 0.74509 0.0
H666 H 0.81081 0.53598 0.77961 0.0
N667 N 0.77835 0.51792 0.78158 0.0
N668 N 0.77032 0.4999 0.7957 0.0
C669 C 0.76814 0.50745 0.78328 0.0
C670 C 0.78732 0.51704 0.79343 0.0
C671 C 0.78242 0.50585 0.80214 0.0
C672 C 0.76194 0.54928 0.77795 0.0
O673 O 0.77276 0.54725 0.7874 0.0
H674 H 0.75949 0.50517 0.77527 0.0
H675 H 0.79675 0.52394 0.79565 0.0
O676 O 0.77885 0.51545 0.74885 0.0
H677 H 0.82653 0.55767 0.76871 0.0
H678 H 0.78732 0.50243 0.81242 0.0
Cu679 Cu 0.26405 0.51743 0.76236 0.0
N680 N 0.26622 0.50917 0.78079 0.0
N681 N 0.27426 0.49319 0.79734 0.0
C682 C 0.27023 0.49535 0.78328 0.0
C683 C 0.27264 0.50616 0.804 0.0
C684 C 0.26761 0.51601 0.79374 0.0
O685 O 0.26331 0.50141 0.74851 0.0
C686 C 0.2919 0.53131 0.7667 0.0
O687 O 0.29572 0.51934 0.77353 0.0
H688 H 0.27138 0.48737 0.77472 0.0
H689 H 0.26611 0.52755 0.79538 0.0
N690 N 0.2468 0.5277 0.76027 0.0
N691 N 0.23181 0.54474 0.75142 0.0
C692 C 0.24577 0.54068 0.7536 0.0
C693 C 0.23305 0.52333 0.76256 0.0
C694 C 0.22375 0.53386 0.75717 0.0
C695 C 0.25678 0.50198 0.73611 0.0
O696 O 0.2522 0.51459 0.7312 0.0
H697 H 0.25516 0.54673 0.74999 0.0
H698 H 0.22999 0.51294 0.76717 0.0
O699 O 0.27957 0.53174 0.76001 0.0
H700 H 0.27553 0.5085 0.81529 0.0
H701 H 0.21199 0.53315 0.75686 0.0
Cu702 Cu 0.27386 0.49946 0.26458 0.0
N703 N 0.27474 0.48765 0.28121 0.0
N704 N 0.26824 0.46917 0.29562 0.0
C705 C 0.26643 0.47555 0.28247 0.0
C706 C 0.27816 0.47765 0.30295 0.0
C707 C 0.28216 0.48903 0.29404 0.0
O708 O 0.27695 0.48604 0.24849 0.0
C709 C 0.2524 0.51554 0.2764 0.0
O710 O 0.26134 0.51366 0.28765 0.0
H711 H 0.2588 0.47182 0.27399 0.0
H712 H 0.28958 0.49786 0.29696 0.0
N713 N 0.28789 0.5145 0.26401 0.0
N714 N 0.29844 0.5349 0.25584 0.0
C715 C 0.28738 0.52516 0.25398 0.0
C716 C 0.29975 0.51755 0.27254 0.0
C717 C 0.30625 0.53018 0.26756 0.0
C718 C 0.29005 0.48178 0.24772 0.0
O719 O 0.29996 0.48747 0.25675 0.0
H720 H 0.27888 0.52585 0.24558 0.0
H721 H 0.30358 0.51102 0.28159 0.0
O722 O 0.25531 0.50957 0.26431 0.0
H723 H 0.28219 0.47586 0.31399 0.0
H724 H 0.31609 0.53532 0.27204 0.0
Cu725 Cu 0.77046 0.51227 0.24612 0.0
N726 N 0.78768 0.50204 0.24957 0.0
N727 N 0.80209 0.485 0.25939 0.0
C728 C 0.78854 0.49044 0.25845 0.0
C729 C 0.81014 0.49366 0.25079 0.0
C730 C 0.80121 0.50418 0.24475 0.0
O731 O 0.75474 0.49773 0.24631 0.0
C732 C 0.77946 0.53814 0.25785 0.0
O733 O 0.78778 0.53669 0.24661 0.0
H734 H 0.77935 0.48626 0.2643 0.0
H735 H 0.80441 0.51279 0.23746 0.0
N736 N 0.76911 0.52119 0.22785 0.0
N737 N 0.76076 0.53694 0.21119 0.0
C738 C 0.75866 0.53073 0.22424 0.0
C739 C 0.77814 0.52121 0.2166 0.0
C740 C 0.77305 0.53103 0.20631 0.0
C741 C 0.75673 0.48745 0.23725 0.0
O742 O 0.7682 0.48819 0.2291 0.0
H743 H 0.75006 0.53359 0.23144 0.0
H744 H 0.78793 0.5149 0.21608 0.0
O745 O 0.77027 0.528 0.26051 0.0
H746 H 0.82161 0.49245 0.24888 0.0
H747 H 0.77808 0.53375 0.19616 0.0
Cu748 Cu 0.51819 0.26129 0.77127 0.0
N749 N 0.50702 0.26187 0.78794 0.0
N750 N 0.48926 0.26892 0.80238 0.0
C751 C 0.49479 0.26964 0.78895 0.0
C752 C 0.49843 0.26031 0.81012 0.0
C753 C 0.50938 0.256 0.80119 0.0
O754 O 0.50426 0.26037 0.75471 0.0
C755 C 0.54169 0.27607 0.7824 0.0
O756 O 0.54067 0.26461 0.79085 0.0
H757 H 0.49034 0.27608 0.78007 0.0
H758 H 0.51855 0.24935 0.8043 0.0
N759 N 0.52978 0.24471 0.77005 0.0
N760 N 0.54738 0.23059 0.76188 0.0
C761 C 0.54004 0.2431 0.76007 0.0
C762 C 0.53057 0.23273 0.77845 0.0
C763 C 0.54148 0.22403 0.77347 0.0
C764 C 0.49739 0.24819 0.75402 0.0
O765 O 0.5003 0.23834 0.764 0.0
H766 H 0.54232 0.2512 0.75188 0.0
H767 H 0.52376 0.23047 0.78756 0.0
O768 O 0.532 0.27775 0.7723 0.0
H769 H 0.4974 0.25736 0.82143 0.0
H770 H 0.54475 0.21365 0.77796 0.0
Cu771 Cu 0.51827 0.77904 0.76194 0.0
N772 N 0.53197 0.77916 0.77747 0.0
N773 N 0.55144 0.77245 0.79095 0.0
C774 C 0.54366 0.77052 0.77834 0.0
C775 C 0.54432 0.78274 0.7983 0.0
C776 C 0.53233 0.78687 0.78995 0.0
O777 O 0.52966 0.77864 0.74438 0.0
C778 C 0.49957 0.76125 0.77659 0.0
O779 O 0.50296 0.77114 0.78654 0.0
H780 H 0.54615 0.7627 0.76999 0.0
H781 H 0.5243 0.79472 0.79293 0.0
N782 N 0.50648 0.79547 0.76205 0.0
N783 N 0.48736 0.80948 0.75679 0.0
C784 C 0.49316 0.79615 0.75555 0.0
C785 C 0.50921 0.80883 0.76766 0.0
C786 C 0.49736 0.81749 0.7645 0.0
C787 C 0.52775 0.78732 0.73371 0.0
O788 O 0.51629 0.79567 0.73329 0.0
H789 H 0.48795 0.78708 0.74979 0.0
H790 H 0.51923 0.81217 0.77328 0.0
O791 O 0.50534 0.76224 0.76421 0.0
H792 H 0.54752 0.78702 0.80893 0.0
H793 H 0.49642 0.82892 0.76715 0.0
Cu794 Cu 0.50047 0.74149 0.26321 0.0
N795 N 0.48833 0.7411 0.27916 0.0
N796 N 0.46975 0.74746 0.29288 0.0
C797 C 0.47598 0.74873 0.27981 0.0
C798 C 0.47859 0.73864 0.30075 0.0
C799 C 0.49004 0.73475 0.29228 0.0
O800 O 0.48752 0.74168 0.24592 0.0
C801 C 0.52314 0.75593 0.27648 0.0
O802 O 0.52186 0.74399 0.28421 0.0
H803 H 0.47199 0.75552 0.271 0.0
H804 H 0.49915 0.72813 0.29565 0.0
N805 N 0.51217 0.72502 0.26174 0.0
N806 N 0.53002 0.71122 0.25362 0.0
C807 C 0.52268 0.72375 0.25198 0.0
C808 C 0.51279 0.7128 0.26981 0.0
C809 C 0.52387 0.70429 0.26485 0.0
C810 C 0.48079 0.72955 0.24391 0.0
O811 O 0.48331 0.71893 0.25316 0.0
H812 H 0.52514 0.73208 0.24409 0.0
H813 H 0.50575 0.71023 0.27866 0.0
O814 O 0.51404 0.75795 0.26591 0.0
H815 H 0.47702 0.73531 0.31189 0.0
H816 H 0.52708 0.6938 0.26912 0.0
Cu817 Cu 0.51613 0.24066 0.25116 0.0
N818 N 0.50387 0.22422 0.25061 0.0
N819 N 0.48496 0.21008 0.25663 0.0
C820 C 0.49148 0.22332 0.25797 0.0
C821 C 0.49367 0.20232 0.24806 0.0
C822 C 0.50533 0.21108 0.24437 0.0
O823 O 0.50321 0.25732 0.25253 0.0
C824 C 0.5401 0.22821 0.26364 0.0
O825 O 0.53825 0.22112 0.25127 0.0
H826 H 0.48765 0.23211 0.26462 0.0
H827 H 0.51437 0.20793 0.23789 0.0
N828 N 0.52647 0.24339 0.23413 0.0
N829 N 0.54261 0.25362 0.21949 0.0
C830 C 0.53605 0.25441 0.23236 0.0
C831 C 0.52687 0.23535 0.22187 0.0
C832 C 0.53692 0.24161 0.21284 0.0
C833 C 0.49564 0.25911 0.2408 0.0
O834 O 0.49734 0.25005 0.22993 0.0
H835 H 0.53848 0.26261 0.24061 0.0
H836 H 0.52045 0.22558 0.2197 0.0
O837 O 0.5309 0.23792 0.26676 0.0
H838 H 0.49183 0.1911 0.24478 0.0
H839 H 0.5398 0.23764 0.20223 0.0
C840 C 0.19957 0.17982 0.15636 0.0
C841 C 0.18468 0.1769 0.15819 0.0
C842 C 0.20418 0.18809 0.14454 0.0
C843 C 0.19086 0.21473 0.11705 0.0
H844 H 0.2259 0.20448 0.09729 0.0
C845 C 0.20774 0.24182 0.06311 0.0
C846 C 0.22259 0.24526 0.06168 0.0
C847 C 0.20303 0.23365 0.07496 0.0
C848 C 0.21617 0.20758 0.10279 0.0
H849 H 0.163 0.18005 0.14883 0.0
H850 H 0.17103 0.19434 0.12817 0.0
H851 H 0.21791 0.18972 0.11763 0.0
H852 H 0.24405 0.24317 0.07199 0.0
H853 H 0.23586 0.22889 0.09252 0.0
H854 H 0.1891 0.23254 0.10212 0.0
C855 C 0.17914 0.19052 0.13602 0.0
C856 C 0.21159 0.19912 0.11446 0.0
C857 C 0.17453 0.1823 0.14785 0.0
C858 C 0.23257 0.24049 0.07253 0.0
C859 C 0.22788 0.2323 0.08433 0.0
C860 C 0.19542 0.22316 0.10533 0.0
C861 C 0.19401 0.1936 0.13425 0.0
C862 C 0.19888 0.20259 0.12177 0.0
C863 C 0.21306 0.2287 0.08565 0.0
C864 C 0.20815 0.2197 0.09808 0.0
H865 H 0.20764 0.17599 0.16424 0.0
H866 H 0.2157 0.19042 0.14365 0.0
H867 H 0.18116 0.21787 0.12256 0.0
H868 H 0.19975 0.24514 0.05491 0.0
H869 H 0.19155 0.23093 0.07556 0.0
C870 C 0.83944 0.21753 0.14272 0.0
C871 C 0.83918 0.20223 0.1433 0.0
C872 C 0.83456 0.22481 0.13017 0.0
C873 C 0.81115 0.21968 0.09702 0.0
H874 H 0.83182 0.25388 0.08333 0.0
C875 C 0.79603 0.24656 0.04202 0.0
C876 C 0.79582 0.26186 0.04161 0.0
C877 C 0.80181 0.23931 0.05421 0.0
C878 C 0.82583 0.24444 0.08709 0.0
H879 H 0.8339 0.18259 0.13094 0.0
H880 H 0.82536 0.19527 0.10907 0.0
H881 H 0.84095 0.2412 0.105 0.0
H882 H 0.8017 0.28154 0.05367 0.0
H883 H 0.81166 0.26889 0.075 0.0
H884 H 0.796 0.22294 0.07919 0.0
C885 C 0.82913 0.20165 0.11842 0.0
C886 C 0.83107 0.23716 0.09951 0.0
C887 C 0.83402 0.19438 0.13096 0.0
C888 C 0.80172 0.26974 0.0536 0.0
C889 C 0.8075 0.26249 0.06581 0.0
C890 C 0.80592 0.22696 0.08462 0.0
C891 C 0.82928 0.21696 0.11789 0.0
C892 C 0.82379 0.22469 0.10463 0.0
C893 C 0.80751 0.24718 0.06631 0.0
C894 C 0.81319 0.23942 0.07948 0.0
H895 H 0.84317 0.22391 0.15209 0.0
H896 H 0.83465 0.2366 0.13021 0.0
H897 H 0.80514 0.21026 0.10079 0.0
H898 H 0.79164 0.24013 0.03295 0.0
H899 H 0.80186 0.22752 0.05412 0.0
C900 C 0.81531 0.84122 0.15061 0.0
C901 C 0.83052 0.84223 0.15269 0.0
C902 C 0.80907 0.83454 0.13815 0.0
C903 C 0.81703 0.82347 0.10034 0.0
H904 H 0.78155 0.80052 0.10388 0.0
C905 C 0.78721 0.7945 0.05082 0.0
C906 C 0.77222 0.79734 0.04977 0.0
C907 C 0.79537 0.79824 0.06355 0.0
C908 C 0.79146 0.8069 0.1027 0.0
H909 H 0.85107 0.83718 0.14302 0.0
H910 H 0.84018 0.82525 0.12146 0.0
H911 H 0.7937 0.81074 0.12564 0.0
H912 H 0.75399 0.80576 0.06142 0.0
H913 H 0.76804 0.81204 0.0834 0.0
H914 H 0.81462 0.81968 0.07732 0.0
C915 C 0.83307 0.82974 0.12942 0.0
C916 C 0.79839 0.81284 0.11518 0.0
C917 C 0.83931 0.83645 0.14189 0.0
C918 C 0.76552 0.80348 0.06182 0.0
C919 C 0.77357 0.807 0.0745 0.0
C920 C 0.8101 0.81746 0.08784 0.0
C921 C 0.81785 0.82864 0.12741 0.0
C922 C 0.8111 0.82147 0.11416 0.0
C923 C 0.78861 0.8046 0.0755 0.0
C924 C 0.79706 0.80937 0.08885 0.0
H925 H 0.80819 0.84541 0.15874 0.0
H926 H 0.79731 0.83411 0.13689 0.0
H927 H 0.82673 0.83013 0.0991 0.0
H928 H 0.79267 0.78982 0.0417 0.0
H929 H 0.80695 0.7962 0.06403 0.0
C930 C 0.19709 0.82066 0.14311 0.0
C931 C 0.18181 0.82057 0.14158 0.0
C932 C 0.20564 0.81659 0.1315 0.0
C933 C 0.20413 0.79662 0.09629 0.0
H934 H 0.23954 0.81864 0.08923 0.0
C935 C 0.24485 0.7784 0.05352 0.0
C936 C 0.25119 0.78924 0.04486 0.0
C937 C 0.23664 0.78214 0.06548 0.0
C938 C 0.22964 0.81243 0.09097 0.0
H939 H 0.16357 0.81614 0.12656 0.0
H940 H 0.17845 0.80905 0.10632 0.0
H941 H 0.22458 0.82529 0.10955 0.0
H942 H 0.2538 0.81256 0.04208 0.0
H943 H 0.23945 0.81909 0.0629 0.0
H944 H 0.20901 0.78398 0.07752 0.0
C945 C 0.18384 0.81207 0.11657 0.0
C946 C 0.22113 0.81614 0.10275 0.0
C947 C 0.17529 0.81613 0.12819 0.0
C948 C 0.24924 0.80392 0.04859 0.0
C949 C 0.241 0.80767 0.06055 0.0
C950 C 0.21263 0.79292 0.08452 0.0
C951 C 0.19913 0.81232 0.11804 0.0
C952 C 0.20826 0.80829 0.10556 0.0
C953 C 0.23452 0.79682 0.06912 0.0
C954 C 0.2255 0.80077 0.0817 0.0
H955 H 0.20246 0.8238 0.15333 0.0
H956 H 0.21736 0.81666 0.13312 0.0
H957 H 0.19437 0.79024 0.09819 0.0
H958 H 0.24634 0.76698 0.05116 0.0
H959 H 0.23207 0.77348 0.07198 0.0
C960 C 0.18802 0.83385 0.88138 0.0
C961 C 0.18244 0.82625 0.86907 0.0
C962 C 0.19303 0.82636 0.89373 0.0
C963 C 0.20715 0.79092 0.90594 0.0
H964 H 0.20038 0.80689 0.94418 0.0
C965 C 0.23228 0.76619 0.95937 0.0
C966 C 0.23947 0.77666 0.96831 0.0
C967 C 0.22304 0.77057 0.94774 0.0
C968 C 0.20236 0.80227 0.93359 0.0
H969 H 0.17779 0.80475 0.86011 0.0
H970 H 0.18648 0.79162 0.88178 0.0
H971 H 0.1887 0.81777 0.92273 0.0
H972 H 0.24215 0.79982 0.97249 0.0
H973 H 0.22608 0.80736 0.95254 0.0
H974 H 0.22112 0.77563 0.91686 0.0
C975 C 0.18702 0.80341 0.88182 0.0
C976 C 0.1957 0.80854 0.92128 0.0
C977 C 0.18193 0.81093 0.86945 0.0
C978 C 0.23681 0.79148 0.96578 0.0
C979 C 0.2275 0.79581 0.95438 0.0
C980 C 0.21381 0.78462 0.9183 0.0
C981 C 0.19261 0.81104 0.89412 0.0
C982 C 0.19833 0.80322 0.90726 0.0
C983 C 0.22066 0.78546 0.94506 0.0
C984 C 0.21181 0.7905 0.93222 0.0
H985 H 0.18842 0.84564 0.88153 0.0
H986 H 0.19745 0.8326 0.90291 0.0
H987 H 0.20946 0.78658 0.89531 0.0
H988 H 0.23419 0.7547 0.96103 0.0
H989 H 0.21787 0.76234 0.94077 0.0
C990 C 0.2085 0.19868 0.88065 0.0
C991 C 0.2053 0.18372 0.87915 0.0
C992 C 0.21499 0.20422 0.89348 0.0
C993 C 0.23574 0.19545 0.92732 0.0
H994 H 0.21714 0.23017 0.94125 0.0
C995 C 0.24864 0.22442 0.98382 0.0
C996 C 0.24812 0.2397 0.98347 0.0
C997 C 0.24498 0.21625 0.97119 0.0
C998 C 0.2226 0.22058 0.93747 0.0
H999 H 0.20714 0.16274 0.88976 0.0
H1000 H 0.21859 0.1725 0.91235 0.0
H1001 H 0.20787 0.21841 0.9191 0.0
H1002 H 0.24471 0.25844 0.96959 0.0
H1003 H 0.23885 0.24439 0.9477 0.0
H1004 H 0.25056 0.19782 0.94585 0.0
C1005 C 0.21601 0.17989 0.9035 0.0
C1006 C 0.21726 0.21382 0.92475 0.0
C1007 C 0.20946 0.17432 0.89058 0.0
C1008 C 0.24497 0.24666 0.9702 0.0
C1009 C 0.24151 0.2386 0.95767 0.0
C1010 C 0.24116 0.2023 0.94014 0.0
C1011 C 0.2185 0.19497 0.90521 0.0
C1012 C 0.22391 0.20136 0.91933 0.0
C1013 C 0.24086 0.22331 0.95811 0.0
C1014 C 0.23481 0.21514 0.94517 0.0
H1015 H 0.20578 0.20618 0.87193 0.0
H1016 H 0.21708 0.21584 0.89431 0.0
H1017 H 0.24107 0.18583 0.92343 0.0
H1018 H 0.251 0.21882 0.99397 0.0
H1019 H 0.24463 0.20448 0.97186 0.0
C1020 C 0.84042 0.20375 0.86092 0.0
C1021 C 0.85548 0.20208 0.85939 0.0
C1022 C 0.83508 0.21072 0.87311 0.0
C1023 C 0.8455 0.23587 0.90333 0.0
H1024 H 0.81154 0.21898 0.9212 0.0
C1025 C 0.82508 0.25615 0.9586 0.0
C1026 C 0.80995 0.25726 0.96003 0.0
C1027 C 0.83076 0.24946 0.94638 0.0
C1028 C 0.82092 0.22395 0.91626 0.0
H1029 H 0.87674 0.20663 0.86945 0.0
H1030 H 0.8674 0.21886 0.89079 0.0
H1031 H 0.82128 0.20747 0.89978 0.0
H1032 H 0.78895 0.25232 0.94956 0.0
H1033 H 0.79883 0.24068 0.92827 0.0
H1034 H 0.84511 0.25237 0.91982 0.0
C1035 C 0.85973 0.21486 0.88246 0.0
C1036 C 0.82652 0.21734 0.90396 0.0
C1037 C 0.86509 0.20786 0.87023 0.0
C1038 C 0.80064 0.25147 0.94895 0.0
C1039 C 0.80632 0.24479 0.93672 0.0
C1040 C 0.83989 0.2425 0.91563 0.0
C1041 C 0.84465 0.21624 0.88411 0.0
C1042 C 0.83885 0.22324 0.89731 0.0
C1043 C 0.82145 0.24372 0.93527 0.0
C1044 C 0.82751 0.23663 0.92223 0.0
H1045 H 0.83273 0.19969 0.85262 0.0
H1046 H 0.82342 0.21187 0.87388 0.0
H1047 H 0.85489 0.24081 0.89837 0.0
H1048 H 0.83257 0.26026 0.96702 0.0
H1049 H 0.84246 0.24861 0.94575 0.0
C1050 C 0.83357 0.84994 0.87756 0.0
C1051 C 0.82589 0.856 0.8656 0.0
C1052 C 0.82648 0.84642 0.89035 0.0
C1053 C 0.78952 0.83974 0.90474 0.0
H1054 H 0.80999 0.84429 0.94211 0.0
C1055 C 0.76131 0.83214 0.95982 0.0
C1056 C 0.7686 0.82315 0.96994 0.0
C1057 C 0.76819 0.83683 0.94725 0.0
C1058 C 0.80416 0.8429 0.93174 0.0
H1059 H 0.80457 0.86299 0.85783 0.0
H1060 H 0.79238 0.85747 0.88028 0.0
H1061 H 0.8221 0.85126 0.91991 0.0
H1062 H 0.78894 0.81241 0.97505 0.0
H1063 H 0.80101 0.82072 0.9532 0.0
H1064 H 0.77151 0.8316 0.91671 0.0
C1065 C 0.80385 0.85513 0.87969 0.0
C1066 C 0.81112 0.84683 0.91898 0.0
C1067 C 0.81092 0.85852 0.86684 0.0
C1068 C 0.78302 0.81923 0.96739 0.0
C1069 C 0.78996 0.82408 0.95494 0.0
C1070 C 0.78252 0.83599 0.91752 0.0
C1071 C 0.81152 0.84899 0.89162 0.0
C1072 C 0.80395 0.84519 0.90528 0.0
C1073 C 0.78258 0.83281 0.94466 0.0
C1074 C 0.7898 0.83741 0.93115 0.0
H1075 H 0.84514 0.84802 0.87712 0.0
H1076 H 0.83274 0.84151 0.89918 0.0
H1077 H 0.7837 0.83807 0.89442 0.0
H1078 H 0.75017 0.83524 0.96144 0.0
H1079 H 0.76227 0.84364 0.93956 0.0
C1080 C 0.15002 0.1694 0.21433 0.0
C1081 C 0.15008 0.17075 0.19908 0.0
C1082 C 0.13817 0.17408 0.22215 0.0
C1083 C 0.09912 0.18382 0.21761 0.0
H1084 H 0.10571 0.20092 0.25595 0.0
C1085 C 0.05418 0.21267 0.24907 0.0
C1086 C 0.05309 0.20915 0.26388 0.0
C1087 C 0.06588 0.2078 0.24113 0.0
C1088 C 0.1037 0.19605 0.2453 0.0
H1089 H 0.13757 0.17818 0.18015 0.0
H1090 H 0.1172 0.18689 0.19383 0.0
H1091 H 0.12641 0.19326 0.24206 0.0
H1092 H 0.06347 0.19785 0.28199 0.0
H1093 H 0.08403 0.18942 0.26814 0.0
H1094 H 0.07638 0.18697 0.22081 0.0
C1095 C 0.1262 0.1819 0.19974 0.0
C1096 C 0.11556 0.19161 0.23734 0.0
C1097 C 0.138 0.17708 0.19189 0.0
C1098 C 0.06397 0.20064 0.27058 0.0
C1099 C 0.07578 0.19593 0.26268 0.0
C1100 C 0.08727 0.18842 0.22552 0.0
C1101 C 0.12609 0.18041 0.21499 0.0
C1102 C 0.11344 0.18537 0.22339 0.0
C1103 C 0.07686 0.19945 0.24786 0.0
C1104 C 0.08943 0.19454 0.23947 0.0
H1105 H 0.1592 0.1648 0.2203 0.0
H1106 H 0.13845 0.17256 0.23384 0.0
H1107 H 0.09699 0.17884 0.20704 0.0
H1108 H 0.0459 0.21907 0.24357 0.0
H1109 H 0.06646 0.21076 0.22975 0.0
C1110 C 0.81692 0.16168 0.17814 0.0
C1111 C 0.83223 0.16207 0.17964 0.0
C1112 C 0.80894 0.14934 0.18224 0.0
C1113 C 0.81039 0.11683 0.20547 0.0
H1114 H 0.78021 0.10162 0.17883 0.0
C1115 C 0.78162 0.06164 0.21577 0.0
C1116 C 0.76674 0.06013 0.21194 0.0
C1117 C 0.78956 0.07401 0.21172 0.0
C1118 C 0.78843 0.10581 0.18652 0.0
H1119 H 0.85104 0.14969 0.18684 0.0
H1120 H 0.83703 0.12832 0.19433 0.0
H1121 H 0.79401 0.12343 0.17238 0.0
H1122 H 0.74851 0.0705 0.20091 0.0
H1123 H 0.76222 0.0923 0.19412 0.0
H1124 H 0.80467 0.09948 0.21977 0.0
C1125 C 0.83126 0.13761 0.18994 0.0
C1126 C 0.79639 0.1183 0.18278 0.0
C1127 C 0.83928 0.1499 0.18569 0.0
C1128 C 0.75999 0.07128 0.20388 0.0
C1129 C 0.7679 0.08376 0.19997 0.0
C1130 C 0.80233 0.10443 0.20929 0.0
C1131 C 0.81601 0.13714 0.18812 0.0
C1132 C 0.80749 0.12393 0.19218 0.0
C1133 C 0.7828 0.08533 0.20387 0.0
C1134 C 0.79127 0.09869 0.19985 0.0
H1135 H 0.81105 0.17094 0.17385 0.0
H1136 H 0.79718 0.14941 0.18092 0.0
H1137 H 0.81875 0.121 0.21303 0.0
H1138 H 0.7872 0.05313 0.22176 0.0
H1139 H 0.80106 0.0746 0.21465 0.0
C1140 C 0.87136 0.84323 0.20815 0.0
C1141 C 0.86922 0.84263 0.19291 0.0
C1142 C 0.88391 0.83761 0.21489 0.0
C1143 C 0.92142 0.82537 0.20676 0.0
H1144 H 0.91989 0.80917 0.24564 0.0
C1145 C 0.96731 0.79136 0.23398 0.0
C1146 C 0.97244 0.79636 0.24771 0.0
C1147 C 0.95479 0.79718 0.22741 0.0
C1148 C 0.92046 0.81375 0.23481 0.0
H1149 H 0.87877 0.83536 0.17291 0.0
H1150 H 0.90007 0.82474 0.18469 0.0
H1151 H 0.89773 0.81829 0.23378 0.0
H1152 H 0.96846 0.81119 0.26541 0.0
H1153 H 0.94615 0.82113 0.25406 0.0
H1154 H 0.9441 0.82016 0.2077 0.0
C1155 C 0.8923 0.83004 0.19144 0.0
C1156 C 0.90778 0.81907 0.22801 0.0
C1157 C 0.87988 0.83592 0.18466 0.0
C1158 C 0.96472 0.80721 0.25481 0.0
C1159 C 0.95198 0.81282 0.24837 0.0
C1160 C 0.93401 0.81977 0.21346 0.0
C1161 C 0.89459 0.83092 0.20666 0.0
C1162 C 0.90808 0.82503 0.21388 0.0
C1163 C 0.94697 0.80791 0.23456 0.0
C1164 C 0.93364 0.81396 0.22756 0.0
H1165 H 0.86332 0.84803 0.21496 0.0
H1166 H 0.88527 0.83874 0.22659 0.0
H1167 H 0.92226 0.83015 0.19606 0.0
H1168 H 0.97316 0.78311 0.22822 0.0
H1169 H 0.95111 0.7932 0.21678 0.0
C1170 C 0.18761 0.85787 0.18683 0.0
C1171 C 0.17298 0.85592 0.18217 0.0
C1172 C 0.19192 0.86979 0.19555 0.0
C1173 C 0.17754 0.89707 0.22079 0.0
H1174 H 0.2138 0.91763 0.21383 0.0
C1175 C 0.19434 0.95079 0.25064 0.0
C1176 C 0.20912 0.95275 0.25474 0.0
C1177 C 0.18975 0.93893 0.24195 0.0
C1178 C 0.20372 0.9119 0.21605 0.0
H1179 H 0.15147 0.86525 0.18277 0.0
H1180 H 0.15897 0.88599 0.19801 0.0
H1181 H 0.20622 0.89722 0.1982 0.0
H1182 H 0.23055 0.9434 0.25338 0.0
H1183 H 0.22256 0.92273 0.23836 0.0
H1184 H 0.17506 0.91173 0.23868 0.0
C1185 C 0.16708 0.87817 0.1951 0.0
C1186 C 0.19937 0.9002 0.20707 0.0
C1187 C 0.16278 0.86627 0.18636 0.0
C1188 C 0.21913 0.94239 0.25019 0.0
C1189 C 0.21455 0.93053 0.24155 0.0
C1190 C 0.1819 0.90877 0.2298 0.0
C1191 C 0.18169 0.88005 0.19986 0.0
C1192 C 0.18624 0.89261 0.20934 0.0
C1193 C 0.19982 0.92871 0.23719 0.0
C1194 C 0.19507 0.91631 0.22757 0.0
H1195 H 0.19571 0.85001 0.184 0.0
H1196 H 0.20322 0.8708 0.19918 0.0
H1197 H 0.16745 0.89134 0.22298 0.0
H1198 H 0.18637 0.95864 0.2538 0.0
H1199 H 0.17835 0.93796 0.23867 0.0
C1200 C 0.1428 0.83397 0.814 0.0
C1201 C 0.14456 0.83426 0.82928 0.0
C1202 C 0.12949 0.82958 0.80733 0.0
C1203 C 0.09614 0.80822 0.81518 0.0
H1204 H 0.07959 0.82672 0.78066 0.0
C1205 C 0.03796 0.79473 0.79609 0.0
C1206 C 0.03552 0.79122 0.78131 0.0
C1207 C 0.05094 0.80148 0.80092 0.0
C1208 C 0.08415 0.82139 0.79023 0.0
H1209 H 0.13347 0.83086 0.84948 0.0
H1210 H 0.11036 0.82334 0.83793 0.0
H1211 H 0.10306 0.83545 0.79112 0.0
H1212 H 0.04446 0.79285 0.75984 0.0
H1213 H 0.06737 0.8047 0.76835 0.0
H1214 H 0.07735 0.79422 0.81442 0.0
C1215 C 0.11934 0.82612 0.83106 0.0
C1216 C 0.09759 0.82636 0.79621 0.0
C1217 C 0.1326 0.83044 0.8377 0.0
C1218 C 0.04601 0.79549 0.77129 0.0
C1219 C 0.05912 0.80224 0.77617 0.0
C1220 C 0.08276 0.80332 0.80927 0.0
C1221 C 0.11764 0.82541 0.81579 0.0
C1222 C 0.10365 0.81995 0.8089 0.0
C1223 C 0.06192 0.80482 0.79113 0.0
C1224 C 0.07648 0.80995 0.79685 0.0
H1225 H 0.15182 0.83679 0.80721 0.0
H1226 H 0.12861 0.82908 0.79555 0.0
H1227 H 0.10063 0.80273 0.82469 0.0
H1228 H 0.03003 0.79175 0.80407 0.0
H1229 H 0.05257 0.80366 0.81246 0.0
C1230 C 0.19795 0.14674 0.82298 0.0
C1231 C 0.1977 0.14729 0.83828 0.0
C1232 C 0.202 0.13403 0.8158 0.0
C1233 C 0.20616 0.09421 0.82135 0.0
H1234 H 0.23218 0.09694 0.78905 0.0
C1235 C 0.2415 0.04682 0.80376 0.0
C1236 C 0.24413 0.04463 0.78894 0.0
C1237 C 0.23352 0.0587 0.8083 0.0
C1238 C 0.22469 0.09598 0.79787 0.0
H1239 H 0.20139 0.13476 0.85799 0.0
H1240 H 0.20872 0.11274 0.84555 0.0
H1241 H 0.2231 0.11914 0.8 0.0
H1242 H 0.24007 0.05296 0.76718 0.0
H1243 H 0.22607 0.07396 0.77517 0.0
H1244 H 0.20806 0.07108 0.81947 0.0
C1245 C 0.20561 0.12208 0.83905 0.0
C1246 C 0.2195 0.10872 0.80418 0.0
C1247 C 0.20158 0.13479 0.84621 0.0
C1248 C 0.23813 0.05433 0.77866 0.0
C1249 C 0.23024 0.0664 0.78325 0.0
C1250 C 0.21136 0.0815 0.81506 0.0
C1251 C 0.20586 0.12152 0.82375 0.0
C1252 C 0.21042 0.108 0.81621 0.0
C1253 C 0.22804 0.06882 0.79817 0.0
C1254 C 0.22094 0.08223 0.80345 0.0
H1255 H 0.19518 0.15621 0.81652 0.0
H1256 H 0.20198 0.13397 0.80402 0.0
H1257 H 0.19891 0.09322 0.83036 0.0
H1258 H 0.24596 0.03953 0.81195 0.0
H1259 H 0.23221 0.06028 0.81987 0.0
C1260 C 0.90139 0.18844 0.81361 0.0
C1261 C 0.89059 0.19767 0.81876 0.0
C1262 C 0.91338 0.19418 0.80636 0.0
C1263 C 0.92633 0.22768 0.78756 0.0
H1264 H 0.9649 0.21384 0.79809 0.0
C1265 C 0.97763 0.26318 0.78446 0.0
C1266 C 0.99047 0.25733 0.77918 0.0
C1267 C 0.96532 0.2544 0.78622 0.0
C1268 C 0.95419 0.21763 0.79481 0.0
H1269 H 0.88379 0.22013 0.81989 0.0
H1270 H 0.90473 0.23012 0.80769 0.0
H1271 H 0.94347 0.20124 0.80733 0.0
H1272 H 1.00044 0.23775 0.77132 0.0
H1273 H 0.97876 0.2221 0.7748 0.0
H1274 H 0.93709 0.24447 0.77564 0.0
C1275 C 0.90392 0.21843 0.80906 0.0
C1276 C 0.94189 0.21043 0.80011 0.0
C1277 C 0.89197 0.21272 0.81627 0.0
C1278 C 0.99064 0.24252 0.77534 0.0
C1279 C 0.97831 0.23359 0.77741 0.0
C1280 C 0.93859 0.23491 0.78237 0.0
C1281 C 0.91482 0.20927 0.80404 0.0
C1282 C 0.92781 0.21564 0.7969 0.0
C1283 C 0.96555 0.23947 0.78296 0.0
C1284 C 0.95266 0.23022 0.78626 0.0
H1285 H 0.90072 0.17681 0.81542 0.0
H1286 H 0.9215 0.18679 0.80257 0.0
H1287 H 0.91567 0.23178 0.78454 0.0
H1288 H 0.97716 0.27458 0.78743 0.0
H1289 H 0.95574 0.25924 0.79066 0.0
C1290 C 0.83092 0.88908 0.80767 0.0
C1291 C 0.83292 0.88929 0.82292 0.0
C1292 C 0.82715 0.90176 0.8001 0.0
C1293 C 0.82705 0.94199 0.80371 0.0
H1294 H 0.79503 0.93997 0.77517 0.0
C1295 C 0.79066 0.99029 0.79037 0.0
C1296 C 0.78462 0.99207 0.77626 0.0
C1297 C 0.79944 0.97844 0.79372 0.0
C1298 C 0.80421 0.9407 0.78286 0.0
H1299 H 0.83285 0.90305 0.84212 0.0
H1300 H 0.8261 0.92508 0.82898 0.0
H1301 H 0.80462 0.91756 0.78572 0.0
H1302 H 0.78357 0.98322 0.75438 0.0
H1303 H 0.79898 0.96227 0.76027 0.0
H1304 H 0.82635 0.96513 0.80121 0.0
C1305 C 0.82755 0.91516 0.82284 0.0
C1306 C 0.80968 0.92786 0.78894 0.0
C1307 C 0.83123 0.90249 0.8304 0.0
C1308 C 0.78816 0.98214 0.76533 0.0
C1309 C 0.79686 0.97011 0.76874 0.0
C1310 C 0.82161 0.95481 0.79762 0.0
C1311 C 0.82541 0.91495 0.8076 0.0
C1312 C 0.82087 0.92839 0.79976 0.0
C1313 C 0.80232 0.96798 0.78307 0.0
C1314 C 0.80983 0.95435 0.78745 0.0
H1315 H 0.83206 0.87906 0.80161 0.0
H1316 H 0.82564 0.90126 0.78837 0.0
H1317 H 0.8359 0.94275 0.81178 0.0
H1318 H 0.78814 0.99779 0.79902 0.0
H1319 H 0.8033 0.97709 0.8049 0.0
C1320 C 0.1951 0.12432 0.18332 0.0
C1321 C 0.18999 0.1348 0.19306 0.0
C1322 C 0.20129 0.11139 0.18855 0.0
C1323 C 0.19878 0.08719 0.2196 0.0
H1324 H 0.23617 0.07157 0.20971 0.0
C1325 C 0.22475 0.04423 0.25533 0.0
C1326 C 0.23091 0.032 0.24892 0.0
C1327 C 0.22102 0.05631 0.247 0.0
C1328 C 0.22561 0.07569 0.21239 0.0
H1329 H 0.18839 0.14031 0.21593 0.0
H1330 H 0.19878 0.11773 0.22495 0.0
H1331 H 0.22728 0.09379 0.19763 0.0
H1332 H 0.23876 0.02309 0.22885 0.0
H1333 H 0.2319 0.04442 0.21398 0.0
H1334 H 0.19691 0.06934 0.23425 0.0
C1335 C 0.19783 0.11942 0.21329 0.0
C1336 C 0.22056 0.08839 0.20552 0.0
C1337 C 0.19181 0.13232 0.2081 0.0
C1338 C 0.23397 0.03239 0.23403 0.0
C1339 C 0.23005 0.04456 0.22556 0.0
C1340 C 0.20372 0.07455 0.22632 0.0
C1341 C 0.20235 0.10869 0.20359 0.0
C1342 C 0.20727 0.09446 0.20941 0.0
C1343 C 0.22313 0.05647 0.23194 0.0
C1344 C 0.2174 0.06888 0.22318 0.0
H1345 H 0.19384 0.12586 0.17167 0.0
H1346 H 0.20469 0.10327 0.18086 0.0
H1347 H 0.18835 0.09145 0.22256 0.0
H1348 H 0.22256 0.04441 0.26684 0.0
H1349 H 0.21618 0.06547 0.25237 0.0
C1350 C 0.19486 0.8774 0.84477 0.0
C1351 C 0.18836 0.8679 0.83433 0.0
C1352 C 0.20292 0.88962 0.84052 0.0
C1353 C 0.22268 0.90494 0.80936 0.0
H1354 H 0.22022 0.94107 0.83101 0.0
C1355 C 0.2488 0.95907 0.79006 0.0
C1356 C 0.25576 0.96806 0.80068 0.0
C1357 C 0.24072 0.94677 0.79408 0.0
C1358 C 0.22116 0.93102 0.82495 0.0
H1359 H 0.18524 0.86393 0.81115 0.0
H1360 H 0.19903 0.88544 0.80371 0.0
H1361 H 0.20557 0.92002 0.83797 0.0
H1362 H 0.25963 0.97106 0.8239 0.0
H1363 H 0.24565 0.94953 0.83092 0.0
H1364 H 0.23822 0.91602 0.79629 0.0
C1365 C 0.19807 0.8833 0.81523 0.0
C1366 C 0.21275 0.91893 0.82894 0.0
C1367 C 0.19 0.87105 0.81949 0.0
C1368 C 0.25452 0.96435 0.81544 0.0
C1369 C 0.24637 0.95208 0.81946 0.0
C1370 C 0.23106 0.91706 0.80535 0.0
C1371 C 0.20467 0.89273 0.82569 0.0
C1372 C 0.21342 0.90571 0.82123 0.0
C1373 C 0.23932 0.94316 0.80884 0.0
C1374 C 0.23043 0.93024 0.81311 0.0
H1375 H 0.19366 0.87545 0.85629 0.0
H1376 H 0.20796 0.89651 0.8489 0.0
H1377 H 0.22367 0.89489 0.80332 0.0
H1378 H 0.24966 0.96149 0.7786 0.0
H1379 H 0.23535 0.94022 0.78561 0.0
C1380 C 0.16535 0.20593 0.84316 0.0
C1381 C 0.16489 0.19063 0.84198 0.0
C1382 C 0.15347 0.21424 0.83855 0.0
C1383 C 0.12122 0.2144 0.81415 0.0
H1384 H 0.10725 0.24361 0.84059 0.0
C1385 C 0.06875 0.24639 0.80085 0.0
C1386 C 0.06823 0.26101 0.80533 0.0
C1387 C 0.0803 0.23757 0.80542 0.0
C1388 C 0.11111 0.23569 0.83294 0.0
H1389 H 0.15145 0.17219 0.8347 0.0
H1390 H 0.13087 0.18681 0.82622 0.0
H1391 H 0.12799 0.22883 0.84794 0.0
H1392 H 0.07951 0.2779 0.81792 0.0
H1393 H 0.0999 0.26275 0.82555 0.0
H1394 H 0.10471 0.22147 0.79895 0.0
C1395 C 0.14048 0.19229 0.83083 0.0
C1396 C 0.12297 0.22716 0.83721 0.0
C1397 C 0.15232 0.18393 0.83564 0.0
C1398 C 0.07952 0.26663 0.81446 0.0
C1399 C 0.0912 0.25788 0.81887 0.0
C1400 C 0.10948 0.22308 0.80977 0.0
C1401 C 0.14087 0.20752 0.83242 0.0
C1402 C 0.12816 0.21643 0.82787 0.0
C1403 C 0.09176 0.24321 0.81443 0.0
C1404 C 0.10424 0.23386 0.81911 0.0
H1405 H 0.17495 0.21156 0.84761 0.0
H1406 H 0.15417 0.22598 0.83968 0.0
H1407 H 0.12508 0.2063 0.80667 0.0
H1408 H 0.06009 0.2417 0.79398 0.0
H1409 H 0.08012 0.22628 0.80201 0.0
C1410 C 0.84682 0.15764 0.81024 0.0
C1411 C 0.85079 0.1599 0.82499 0.0
C1412 C 0.83798 0.1457 0.80599 0.0
C1413 C 0.81077 0.12029 0.82088 0.0
H1414 H 0.81664 0.09803 0.78572 0.0
C1415 C 0.77765 0.06777 0.8071 0.0
C1416 C 0.77329 0.06533 0.79248 0.0
C1417 C 0.7872 0.07928 0.81091 0.0
C1418 C 0.81475 0.10425 0.79548 0.0
H1419 H 0.84933 0.15093 0.84672 0.0
H1420 H 0.834 0.13014 0.83932 0.0
H1421 H 0.83359 0.11784 0.79251 0.0
H1422 H 0.77523 0.0734 0.77045 0.0
H1423 H 0.79178 0.09351 0.7771 0.0
H1424 H 0.7919 0.10682 0.82385 0.0
C1425 C 0.83741 0.13775 0.83107 0.0
C1426 C 0.82448 0.11559 0.79938 0.0
C1427 C 0.84622 0.14965 0.8353 0.0
C1428 C 0.77855 0.07481 0.78179 0.0
C1429 C 0.78807 0.08634 0.7856 0.0
C1430 C 0.80103 0.10899 0.81698 0.0
C1431 C 0.83294 0.13578 0.81641 0.0
C1432 C 0.82264 0.12371 0.81216 0.0
C1433 C 0.79259 0.08867 0.8002 0.0
C1434 C 0.80291 0.1008 0.80425 0.0
H1435 H 0.85006 0.16541 0.80206 0.0
H1436 H 0.83466 0.14455 0.79462 0.0
H1437 H 0.80886 0.12651 0.83064 0.0
H1438 H 0.774 0.06057 0.81559 0.0
H1439 H 0.7906 0.08062 0.82224 0.0
C1440 C 0.86273 0.82947 0.82993 0.0
C1441 C 0.86356 0.84474 0.82873 0.0
C1442 C 0.87411 0.82081 0.82533 0.0
C1443 C 0.90507 0.82088 0.801 0.0
H1444 H 0.91998 0.79016 0.82594 0.0
C1445 C 0.95863 0.79214 0.78913 0.0
C1446 C 0.95965 0.77717 0.79204 0.0
C1447 C 0.94662 0.79997 0.79353 0.0
C1448 C 0.91582 0.79853 0.81873 0.0
H1449 H 0.87722 0.86281 0.82191 0.0
H1450 H 0.89684 0.84769 0.81361 0.0
H1451 H 0.89938 0.80443 0.83357 0.0
H1452 H 0.94881 0.75865 0.80173 0.0
H1453 H 0.92767 0.77223 0.80919 0.0
H1454 H 0.92131 0.81495 0.78605 0.0
C1455 C 0.88733 0.84243 0.81802 0.0
C1456 C 0.90403 0.80673 0.82313 0.0
C1457 C 0.87604 0.85109 0.82274 0.0
C1458 C 0.94839 0.7702 0.79947 0.0
C1459 C 0.9363 0.77801 0.80377 0.0
C1460 C 0.91676 0.81261 0.79653 0.0
C1461 C 0.88651 0.82721 0.81929 0.0
C1462 C 0.89863 0.81808 0.81438 0.0
C1463 C 0.93524 0.79301 0.80084 0.0
C1464 C 0.9224 0.80142 0.8054 0.0
H1465 H 0.85321 0.82417 0.83428 0.0
H1466 H 0.87311 0.80909 0.8263 0.0
H1467 H 0.90099 0.82941 0.79391 0.0
H1468 H 0.96724 0.79788 0.78367 0.0
H1469 H 0.94639 0.81155 0.79137 0.0
C1470 C 0.82641 0.89295 0.18335 0.0
C1471 C 0.83095 0.88101 0.1918 0.0
C1472 C 0.82083 0.90534 0.18999 0.0
C1473 C 0.80408 0.91791 0.2238 0.0
H1474 H 0.81639 0.95626 0.21106 0.0
C1475 C 0.78693 0.96996 0.25387 0.0
C1476 C 0.7825 0.9817 0.24507 0.0
C1477 C 0.7939 0.95802 0.24781 0.0
C1478 C 0.81273 0.94564 0.21468 0.0
H1479 H 0.8328 0.87258 0.2138 0.0
H1480 H 0.82319 0.89415 0.22534 0.0
H1481 H 0.82574 0.93466 0.19928 0.0
H1482 H 0.78245 0.99027 0.22307 0.0
H1483 H 0.79437 0.96951 0.21256 0.0
H1484 H 0.79092 0.92884 0.23905 0.0
C1485 C 0.82391 0.89397 0.2136 0.0
C1486 C 0.81808 0.93325 0.2079 0.0
C1487 C 0.82955 0.88165 0.20699 0.0
C1488 C 0.78571 0.98145 0.2302 0.0
C1489 C 0.79263 0.96953 0.22416 0.0
C1490 C 0.79868 0.93029 0.23054 0.0
C1491 C 0.81956 0.90602 0.2052 0.0
C1492 C 0.8138 0.91923 0.21235 0.0
C1493 C 0.79659 0.95753 0.23281 0.0
C1494 C 0.8029 0.94434 0.22605 0.0
H1495 H 0.82742 0.89283 0.17164 0.0
H1496 H 0.81744 0.91437 0.18319 0.0
H1497 H 0.80041 0.90728 0.22738 0.0
H1498 H 0.78467 0.96979 0.26536 0.0
H1499 H 0.79702 0.94909 0.25486 0.0
C1500 C 0.13675 0.80089 0.17537 0.0
C1501 C 0.13696 0.81561 0.17131 0.0
C1502 C 0.12383 0.79423 0.17987 0.0
C1503 C 0.08755 0.80405 0.19377 0.0
H1504 H 0.07899 0.76285 0.18845 0.0
C1505 C 0.03296 0.77912 0.21018 0.0
C1506 C 0.03409 0.76744 0.22001 0.0
C1507 C 0.04501 0.78378 0.20245 0.0
C1508 C 0.08128 0.77437 0.19 0.0
H1509 H 0.12384 0.83473 0.16798 0.0
H1510 H 0.10119 0.82305 0.17508 0.0
H1511 H 0.10088 0.77354 0.17808 0.0
H1512 H 0.04853 0.75083 0.22859 0.0
H1513 H 0.06953 0.75886 0.2148 0.0
H1514 H 0.06784 0.80489 0.20546 0.0
C1515 C 0.11101 0.81669 0.17543 0.0
C1516 C 0.09386 0.78051 0.18414 0.0
C1517 C 0.12396 0.82339 0.17123 0.0
C1518 C 0.04729 0.75989 0.22114 0.0
C1519 C 0.05931 0.76446 0.21323 0.0
C1520 C 0.07491 0.79796 0.19939 0.0
C1521 C 0.1108 0.80211 0.18018 0.0
C1522 C 0.09721 0.79545 0.18599 0.0
C1523 C 0.05841 0.77675 0.20419 0.0
C1524 C 0.07165 0.78307 0.19762 0.0
H1525 H 0.14669 0.7947 0.1756 0.0
H1526 H 0.12422 0.78306 0.18358 0.0
H1527 H 0.08987 0.81547 0.19584 0.0
H1528 H 0.02298 0.78517 0.20898 0.0
H1529 H 0.04396 0.79318 0.1954 0.0
C1530 C 0.87827 0.21204 0.18704 0.0
C1531 C 0.87506 0.19708 0.18531 0.0
C1532 C 0.8913 0.21678 0.19396 0.0
C1533 C 0.92846 0.20426 0.20402 0.0
H1534 H 0.92895 0.2367 0.23115 0.0
C1535 C 0.97515 0.21452 0.24599 0.0
C1536 C 0.97961 0.22887 0.2494 0.0
C1537 C 0.96323 0.21175 0.23655 0.0
C1538 C 0.92906 0.22779 0.22341 0.0
H1539 H 0.8831 0.1754 0.18963 0.0
H1540 H 0.90564 0.18363 0.20198 0.0
H1541 H 0.90622 0.22953 0.21839 0.0
H1542 H 0.97526 0.25162 0.24525 0.0
H1543 H 0.95421 0.24678 0.22865 0.0
H1544 H 0.95121 0.20233 0.20926 0.0
C1545 C 0.89817 0.19172 0.19778 0.0
C1546 C 0.91601 0.22364 0.21611 0.0
C1547 C 0.88514 0.18699 0.19087 0.0
C1548 C 0.97212 0.24045 0.24277 0.0
C1549 C 0.96001 0.23767 0.23338 0.0
C1550 C 0.94147 0.20838 0.21132 0.0
C1551 C 0.90148 0.20668 0.19933 0.0
C1552 C 0.91549 0.21166 0.2065 0.0
C1553 C 0.95534 0.22326 0.23031 0.0
C1554 C 0.94189 0.22003 0.2213 0.0
H1555 H 0.87068 0.22012 0.18305 0.0
H1556 H 0.8935 0.22837 0.19488 0.0
H1557 H 0.92856 0.19521 0.19644 0.0
H1558 H 0.9807 0.20534 0.25089 0.0
H1559 H 0.95986 0.20054 0.23459 0.0
C1560 C 0.18624 0.68567 0.62962 0.0
C1561 C 0.1827 0.69512 0.64099 0.0
C1562 C 0.191 0.69119 0.61639 0.0
C1563 C 0.20788 0.72388 0.60016 0.0
H1564 H 0.19657 0.70461 0.56383 0.0
C1565 C 0.23088 0.74239 0.54503 0.0
C1566 C 0.23652 0.7309 0.53692 0.0
C1567 C 0.22193 0.73944 0.5568 0.0
C1568 C 0.19984 0.71012 0.57388 0.0
H1569 H 0.18147 0.71783 0.64732 0.0
H1570 H 0.18955 0.72745 0.62416 0.0
H1571 H 0.18582 0.69661 0.58643 0.0
H1572 H 0.23656 0.70745 0.53422 0.0
H1573 H 0.22097 0.70235 0.55447 0.0
H1574 H 0.22214 0.73718 0.58761 0.0
C1575 C 0.18874 0.71576 0.62552 0.0
C1576 C 0.19372 0.7055 0.58685 0.0
C1577 C 0.18396 0.71023 0.63875 0.0
C1578 C 0.2324 0.71653 0.54028 0.0
C1579 C 0.22338 0.71361 0.55186 0.0
C1580 C 0.21399 0.72852 0.58716 0.0
C1581 C 0.19236 0.70631 0.61417 0.0
C1582 C 0.19789 0.7121 0.60021 0.0
C1583 C 0.21831 0.72497 0.56051 0.0
C1584 C 0.21029 0.72148 0.57392 0.0
H1585 H 0.18526 0.67398 0.63091 0.0
H1586 H 0.19388 0.68358 0.60798 0.0
H1587 H 0.21146 0.72915 0.61024 0.0
H1588 H 0.23394 0.75356 0.54274 0.0
H1589 H 0.2181 0.74844 0.56318 0.0
C1590 C 0.82561 0.69424 0.62103 0.0
C1591 C 0.83187 0.7043 0.63109 0.0
C1592 C 0.81701 0.699 0.60914 0.0
C1593 C 0.79554 0.73048 0.59605 0.0
H1594 H 0.80294 0.71598 0.55736 0.0
C1595 C 0.78381 0.76377 0.54491 0.0
C1596 C 0.77881 0.75704 0.5319 0.0
C1597 C 0.78726 0.75555 0.55722 0.0
C1598 C 0.80049 0.71992 0.56811 0.0
H1599 H 0.83371 0.72721 0.63669 0.0
H1600 H 0.81883 0.7355 0.61598 0.0
H1601 H 0.81516 0.705 0.5786 0.0
H1602 H 0.77308 0.73639 0.52167 0.0
H1603 H 0.77937 0.72176 0.54341 0.0
H1604 H 0.78123 0.74567 0.58561 0.0
C1605 C 0.82049 0.72393 0.61729 0.0
C1606 C 0.80754 0.71366 0.58029 0.0
C1607 C 0.82917 0.71919 0.62908 0.0
C1608 C 0.77684 0.74184 0.5316 0.0
C1609 C 0.78054 0.7335 0.54398 0.0
C1610 C 0.7885 0.73669 0.58393 0.0
C1611 C 0.81433 0.71391 0.60713 0.0
C1612 C 0.80549 0.71919 0.59437 0.0
C1613 C 0.78595 0.7403 0.55688 0.0
C1614 C 0.79124 0.73182 0.56977 0.0
H1615 H 0.82757 0.6827 0.62221 0.0
H1616 H 0.81238 0.69101 0.60156 0.0
H1617 H 0.79344 0.73477 0.60676 0.0
H1618 H 0.78539 0.77548 0.5455 0.0
H1619 H 0.79157 0.76116 0.56685 0.0
C1620 C 0.8306 0.34804 0.65177 0.0
C1621 C 0.84541 0.35182 0.65384 0.0
C1622 C 0.82586 0.33946 0.63987 0.0
C1623 C 0.83654 0.32708 0.60337 0.0
H1624 H 0.80827 0.29608 0.60945 0.0
C1625 C 0.82219 0.28382 0.55911 0.0
C1626 C 0.80744 0.27976 0.55711 0.0
C1627 C 0.82685 0.29249 0.57097 0.0
C1628 C 0.81605 0.30479 0.60751 0.0
H1629 H 0.86679 0.34983 0.6448 0.0
H1630 H 0.85856 0.33472 0.62419 0.0
H1631 H 0.81611 0.31176 0.62977 0.0
H1632 H 0.7861 0.28137 0.56634 0.0
H1633 H 0.79415 0.29668 0.58681 0.0
H1634 H 0.83647 0.32013 0.58111 0.0
C1635 C 0.85058 0.33845 0.6317 0.0
C1636 C 0.82054 0.31379 0.61917 0.0
C1637 C 0.85532 0.347 0.64361 0.0
C1638 C 0.79751 0.28443 0.5674 0.0
C1639 C 0.80216 0.29308 0.57926 0.0
C1640 C 0.83204 0.31809 0.5917 0.0
C1641 C 0.8358 0.33449 0.62973 0.0
C1642 C 0.83085 0.32505 0.61725 0.0
C1643 C 0.81687 0.2973 0.58116 0.0
C1644 C 0.82175 0.30681 0.59362 0.0
H1645 H 0.8227 0.35147 0.65951 0.0
H1646 H 0.81437 0.33675 0.63859 0.0
H1647 H 0.84434 0.33577 0.60145 0.0
H1648 H 0.83014 0.28054 0.55137 0.0
H1649 H 0.83829 0.29538 0.57219 0.0
C1650 C 0.19487 0.35884 0.63163 0.0
C1651 C 0.19166 0.34929 0.64306 0.0
C1652 C 0.20177 0.35382 0.61931 0.0
C1653 C 0.21113 0.3202 0.59929 0.0
H1654 H 0.24149 0.34492 0.58378 0.0
C1655 C 0.25239 0.29904 0.55869 0.0
C1656 C 0.25562 0.30795 0.54674 0.0
C1657 C 0.24419 0.30429 0.57004 0.0
C1658 C 0.23293 0.33796 0.58787 0.0
H1659 H 0.19293 0.32695 0.65042 0.0
H1660 H 0.20516 0.31817 0.62899 0.0
H1661 H 0.22759 0.35348 0.60415 0.0
H1662 H 0.25279 0.32949 0.53753 0.0
H1663 H 0.2386 0.3387 0.55748 0.0
H1664 H 0.21669 0.30457 0.58314 0.0
C1665 C 0.20214 0.32951 0.62942 0.0
C1666 C 0.22493 0.34287 0.59954 0.0
C1667 C 0.19514 0.33452 0.64172 0.0
C1668 C 0.25065 0.32236 0.5466 0.0
C1669 C 0.24249 0.32764 0.55802 0.0
C1670 C 0.21919 0.31526 0.58767 0.0
C1671 C 0.20573 0.33915 0.61814 0.0
C1672 C 0.21395 0.33403 0.60544 0.0
C1673 C 0.23907 0.31861 0.56981 0.0
C1674 C 0.23023 0.32405 0.58188 0.0
H1675 H 0.1921 0.37024 0.63226 0.0
H1676 H 0.20406 0.36149 0.6107 0.0
H1677 H 0.2026 0.3132 0.60338 0.0
H1678 H 0.2563 0.28801 0.55938 0.0
H1679 H 0.242 0.29715 0.57911 0.0
C1680 C 0.17874 0.31291 0.38712 0.0
C1681 C 0.1876 0.31737 0.37569 0.0
C1682 C 0.18457 0.305 0.3989 0.0
C1683 C 0.21623 0.28251 0.41011 0.0
H1684 H 0.20808 0.29516 0.44926 0.0
C1685 C 0.25602 0.27503 0.45838 0.0
C1686 C 0.25093 0.27234 0.47237 0.0
C1687 C 0.24631 0.27712 0.44663 0.0
C1688 C 0.21023 0.29125 0.43842 0.0
H1689 H 0.20942 0.31661 0.3675 0.0
H1690 H 0.21961 0.30301 0.38804 0.0
H1691 H 0.19479 0.30572 0.42848 0.0
H1692 H 0.23168 0.26918 0.48501 0.0
H1693 H 0.21448 0.27304 0.46429 0.0
H1694 H 0.23203 0.26843 0.41999 0.0
C1695 C 0.20813 0.30553 0.3879 0.0
C1696 C 0.20264 0.29734 0.4265 0.0
C1697 C 0.20234 0.3135 0.37619 0.0
C1698 C 0.23587 0.27112 0.47429 0.0
C1699 C 0.22606 0.27346 0.46248 0.0
C1700 C 0.2238 0.27644 0.422 0.0
C1701 C 0.19936 0.30124 0.39944 0.0
C1702 C 0.20589 0.29337 0.41218 0.0
C1703 C 0.23122 0.27674 0.44856 0.0
C1704 C 0.22123 0.28107 0.43628 0.0
H1705 H 0.16736 0.3158 0.38709 0.0
H1706 H 0.17751 0.30181 0.40758 0.0
H1707 H 0.21876 0.27895 0.39925 0.0
H1708 H 0.26759 0.27602 0.45659 0.0
H1709 H 0.25069 0.2798 0.43615 0.0
C1710 C 0.20585 0.68096 0.36144 0.0
C1711 C 0.20134 0.66632 0.36005 0.0
C1712 C 0.21326 0.68592 0.37407 0.0
C1713 C 0.23355 0.67338 0.40745 0.0
H1714 H 0.2245 0.71196 0.42138 0.0
C1715 C 0.2652 0.7007 0.45627 0.0
C1716 C 0.25735 0.70953 0.46563 0.0
C1717 C 0.25864 0.69513 0.4434 0.0
C1718 C 0.22707 0.70109 0.41777 0.0
H1719 H 0.20117 0.64536 0.3708 0.0
H1720 H 0.21385 0.65404 0.39303 0.0
H1721 H 0.21254 0.70269 0.39923 0.0
H1722 H 0.23629 0.71897 0.46908 0.0
H1723 H 0.22477 0.70908 0.44689 0.0
H1724 H 0.24769 0.67161 0.42634 0.0
C1725 C 0.21193 0.66167 0.38423 0.0
C1726 C 0.22036 0.69585 0.40488 0.0
C1727 C 0.20462 0.65668 0.37151 0.0
C1728 C 0.24272 0.71244 0.46197 0.0
C1729 C 0.23613 0.70678 0.4492 0.0
C1730 C 0.2402 0.6786 0.42043 0.0
C1731 C 0.21625 0.6764 0.38574 0.0
C1732 C 0.22351 0.68193 0.39951 0.0
C1733 C 0.24402 0.69815 0.43964 0.0
C1734 C 0.23704 0.69253 0.42578 0.0
H1735 H 0.20369 0.6886 0.35269 0.0
H1736 H 0.2167 0.69725 0.37465 0.0
H1737 H 0.23638 0.66267 0.4036 0.0
H1738 H 0.27653 0.69838 0.45871 0.0
H1739 H 0.26515 0.68871 0.43624 0.0
C1740 C 0.82518 0.69615 0.36093 0.0
C1741 C 0.83989 0.69238 0.35997 0.0
C1742 C 0.82059 0.70469 0.3725 0.0
C1743 C 0.83131 0.71697 0.4099 0.0
H1744 H 0.8036 0.74757 0.40193 0.0
C1745 C 0.81713 0.75967 0.45344 0.0
C1746 C 0.8024 0.76339 0.45436 0.0
C1747 C 0.8218 0.7512 0.44185 0.0
C1748 C 0.81123 0.73898 0.40438 0.0
H1749 H 0.86122 0.69435 0.37068 0.0
H1750 H 0.85326 0.7094 0.39071 0.0
H1751 H 0.81136 0.73216 0.38209 0.0
H1752 H 0.78114 0.76139 0.4435 0.0
H1753 H 0.78922 0.74646 0.42349 0.0
H1754 H 0.83117 0.72379 0.4322 0.0
C1755 C 0.84524 0.70569 0.38257 0.0
C1756 C 0.81567 0.73012 0.39299 0.0
C1757 C 0.84984 0.69718 0.37099 0.0
C1758 C 0.79252 0.7586 0.44327 0.0
C1759 C 0.79719 0.75016 0.43168 0.0
C1760 C 0.82687 0.72583 0.42129 0.0
C1761 C 0.83057 0.70963 0.38343 0.0
C1762 C 0.82576 0.71899 0.3956 0.0
C1763 C 0.81188 0.74626 0.43086 0.0
C1764 C 0.81676 0.73695 0.41868 0.0
H1765 H 0.81725 0.69275 0.35257 0.0
H1766 H 0.80917 0.70736 0.37291 0.0
H1767 H 0.83893 0.70838 0.41235 0.0
H1768 H 0.82503 0.76305 0.46182 0.0
H1769 H 0.83323 0.74855 0.44148 0.0
C1770 C 0.82548 0.34795 0.38904 0.0
C1771 C 0.83008 0.33849 0.37809 0.0
C1772 C 0.81827 0.34245 0.40114 0.0
C1773 C 0.81565 0.3085 0.42196 0.0
H1774 H 0.78198 0.32518 0.43968 0.0
C1775 C 0.78583 0.27632 0.46436 0.0
C1776 C 0.78266 0.28336 0.47741 0.0
C1777 C 0.78971 0.2843 0.4522 0.0
C1778 C 0.79147 0.32051 0.43491 0.0
H1779 H 0.82973 0.31605 0.3707 0.0
H1780 H 0.81723 0.30651 0.39165 0.0
H1781 H 0.79249 0.33695 0.41831 0.0
H1782 H 0.78017 0.3043 0.4878 0.0
H1783 H 0.78727 0.31849 0.46634 0.0
H1784 H 0.81484 0.29215 0.43837 0.0
C1785 C 0.81949 0.31811 0.39113 0.0
C1786 C 0.79747 0.32723 0.4227 0.0
C1787 C 0.82666 0.32357 0.37912 0.0
C1788 C 0.78252 0.29865 0.47781 0.0
C1789 C 0.7866 0.30673 0.46556 0.0
C1790 C 0.80973 0.30186 0.43407 0.0
C1791 C 0.81555 0.3274 0.40247 0.0
C1792 C 0.80946 0.32108 0.41593 0.0
C1793 C 0.79077 0.29956 0.45281 0.0
C1794 C 0.79738 0.30756 0.44052 0.0
H1795 H 0.82797 0.3595 0.38854 0.0
H1796 H 0.81537 0.34987 0.40971 0.0
H1797 H 0.82514 0.30372 0.41728 0.0
H1798 H 0.78582 0.26453 0.46372 0.0
H1799 H 0.79242 0.27844 0.44242 0.0
C1800 C 0.13673 0.70113 0.67591 0.0
C1801 C 0.14956 0.69718 0.68357 0.0
C1802 C 0.12472 0.70606 0.68338 0.0
C1803 C 0.10833 0.70339 0.71921 0.0
H1804 H 0.08478 0.73571 0.70591 0.0
C1805 C 0.05922 0.74128 0.74104 0.0
C1806 C 0.04931 0.73052 0.74563 0.0
C1807 C 0.07154 0.73749 0.73346 0.0
C1808 C 0.0913 0.7267 0.70979 0.0
H1809 H 0.16011 0.69616 0.70502 0.0
H1810 H 0.13915 0.70462 0.71802 0.0
H1811 H 0.10634 0.72916 0.69258 0.0
H1812 H 0.04478 0.70725 0.74581 0.0
H1813 H 0.06639 0.70066 0.7328 0.0
H1814 H 0.09335 0.70093 0.73642 0.0
C1815 C 0.13829 0.70365 0.70626 0.0
C1816 C 0.10356 0.72289 0.70209 0.0
C1817 C 0.15029 0.69881 0.69881 0.0
C1818 C 0.05221 0.71584 0.74264 0.0
C1819 C 0.0646 0.71204 0.73514 0.0
C1820 C 0.09602 0.70712 0.72682 0.0
C1821 C 0.12529 0.70709 0.69867 0.0
C1822 C 0.11224 0.71122 0.70676 0.0
C1823 C 0.07434 0.72284 0.73038 0.0
C1824 C 0.08738 0.71884 0.72222 0.0
H1825 H 0.13577 0.69988 0.66419 0.0
H1826 H 0.11481 0.70856 0.67724 0.0
H1827 H 0.11471 0.69424 0.72298 0.0
H1828 H 0.05756 0.75267 0.74338 0.0
H1829 H 0.07898 0.74604 0.73015 0.0
C1830 C 0.84418 0.67007 0.68805 0.0
C1831 C 0.84144 0.66984 0.67289 0.0
C1832 C 0.84044 0.65814 0.69665 0.0
C1833 C 0.8312 0.61856 0.69438 0.0
H1834 H 0.81819 0.62482 0.7336 0.0
C1835 C 0.80727 0.57259 0.72997 0.0
C1836 C 0.81224 0.57206 0.7446 0.0
C1837 C 0.81101 0.58435 0.72112 0.0
C1838 C 0.82194 0.6229 0.72271 0.0
H1839 H 0.83237 0.65681 0.65497 0.0
H1840 H 0.82531 0.63623 0.67004 0.0
H1841 H 0.82367 0.64569 0.71828 0.0
H1842 H 0.82502 0.58345 0.7614 0.0
H1843 H 0.83149 0.60409 0.74595 0.0
H1844 H 0.82912 0.59573 0.69881 0.0
C1845 C 0.8307 0.64553 0.67525 0.0
C1846 C 0.82512 0.63486 0.71391 0.0
C1847 C 0.83457 0.65744 0.66661 0.0
C1848 C 0.82111 0.58351 0.75016 0.0
C1849 C 0.82471 0.59538 0.74135 0.0
C1850 C 0.82786 0.6066 0.70314 0.0
C1851 C 0.83367 0.64567 0.69039 0.0
C1852 C 0.82988 0.63288 0.69964 0.0
C1853 C 0.81967 0.59593 0.72674 0.0
C1854 C 0.82326 0.60863 0.71742 0.0
H1855 H 0.84921 0.67951 0.69335 0.0
H1856 H 0.84309 0.65864 0.70822 0.0
H1857 H 0.83508 0.61656 0.68357 0.0
H1858 H 0.80055 0.56386 0.72532 0.0
H1859 H 0.8069 0.5845 0.70993 0.0
C1860 C 0.89414 0.35489 0.68765 0.0
C1861 C 0.88193 0.35955 0.69511 0.0
C1862 C 0.90667 0.35035 0.69529 0.0
C1863 C 0.92593 0.35252 0.73133 0.0
H1864 H 0.94569 0.31838 0.71762 0.0
C1865 C 0.98205 0.33442 0.75521 0.0
C1866 C 0.98412 0.31939 0.7571 0.0
C1867 C 0.96951 0.33956 0.74796 0.0
C1868 C 0.94025 0.32787 0.72166 0.0
H1869 H 0.87337 0.36299 0.71655 0.0
H1870 H 0.89524 0.35511 0.72988 0.0
H1871 H 0.924 0.32683 0.70445 0.0
H1872 H 0.97425 0.29804 0.75329 0.0
H1873 H 0.95251 0.30697 0.74065 0.0
H1874 H 0.94208 0.3534 0.74869 0.0
C1875 C 0.89518 0.35515 0.71809 0.0
C1876 C 0.92791 0.33283 0.714 0.0
C1877 C 0.88264 0.35968 0.71044 0.0
C1878 C 0.97321 0.30966 0.75177 0.0
C1879 C 0.96071 0.31479 0.74452 0.0
C1880 C 0.93832 0.34759 0.73898 0.0
C1881 C 0.90734 0.35036 0.71061 0.0
C1882 C 0.92057 0.3452 0.71874 0.0
C1883 C 0.95875 0.32979 0.7424 0.0
C1884 C 0.94561 0.33517 0.73426 0.0
H1885 H 0.89408 0.35488 0.67586 0.0
H1886 H 0.91591 0.34695 0.68918 0.0
H1887 H 0.92062 0.36216 0.73521 0.0
H1888 H 0.99027 0.34222 0.75903 0.0
H1889 H 0.96843 0.35118 0.74639 0.0
C1890 C 0.19743 0.38706 0.69721 0.0
C1891 C 0.19253 0.38666 0.68256 0.0
C1892 C 0.2047 0.39945 0.70288 0.0
C1893 C 0.20981 0.4388 0.69726 0.0
H1894 H 0.24644 0.43395 0.71872 0.0
C1895 C 0.24514 0.48864 0.71475 0.0
C1896 C 0.25193 0.4883 0.72867 0.0
C1897 C 0.23876 0.47602 0.70861 0.0
C1898 C 0.23614 0.43553 0.71292 0.0
H1899 H 0.19092 0.399 0.66252 0.0
H1900 H 0.20339 0.4207 0.67249 0.0
H1901 H 0.23277 0.41255 0.7098 0.0
H1902 H 0.25775 0.47427 0.74685 0.0
H1903 H 0.24635 0.45245 0.73637 0.0
H1904 H 0.21287 0.46169 0.70063 0.0
C1905 C 0.20172 0.41144 0.67955 0.0
C1906 C 0.22832 0.42324 0.7078 0.0
C1907 C 0.19465 0.39901 0.67383 0.0
C1908 C 0.25269 0.47492 0.73606 0.0
C1909 C 0.24616 0.46235 0.73 0.0
C1910 C 0.21752 0.45108 0.70252 0.0
C1911 C 0.20699 0.41174 0.69408 0.0
C1912 C 0.21509 0.42475 0.69988 0.0
C1913 C 0.23885 0.46277 0.7163 0.0
C1914 C 0.23083 0.44964 0.7104 0.0
H1915 H 0.19601 0.37766 0.70414 0.0
H1916 H 0.20854 0.39943 0.71416 0.0
H1917 H 0.19957 0.4403 0.69132 0.0
H1918 H 0.24444 0.49874 0.70873 0.0
H1919 H 0.23356 0.47672 0.69789 0.0
C1920 C 0.14635 0.32636 0.32236 0.0
C1921 C 0.14823 0.32653 0.33762 0.0
C1922 C 0.13297 0.32213 0.31576 0.0
C1923 C 0.09377 0.31706 0.32332 0.0
H1924 H 0.09366 0.28936 0.29139 0.0
C1925 C 0.04588 0.27815 0.31037 0.0
C1926 C 0.04225 0.27425 0.29589 0.0
C1927 C 0.05784 0.28723 0.31366 0.0
C1928 C 0.09347 0.29733 0.30009 0.0
H1929 H 0.1374 0.32274 0.3579 0.0
H1930 H 0.1142 0.31519 0.34644 0.0
H1931 H 0.1167 0.29993 0.30069 0.0
H1932 H 0.04802 0.27722 0.27342 0.0
H1933 H 0.0692 0.29317 0.27921 0.0
H1934 H 0.07061 0.31414 0.32302 0.0
C1935 C 0.12301 0.31843 0.33954 0.0
C1936 C 0.10669 0.30336 0.30546 0.0
C1937 C 0.13637 0.32258 0.34612 0.0
C1938 C 0.05053 0.28012 0.28467 0.0
C1939 C 0.0627 0.28913 0.288 0.0
C1940 C 0.08058 0.31104 0.31796 0.0
C1941 C 0.12114 0.31807 0.32428 0.0
C1942 C 0.10703 0.313 0.31741 0.0
C1943 C 0.06661 0.29259 0.30258 0.0
C1944 C 0.0803 0.30079 0.30656 0.0
H1945 H 0.1553 0.32924 0.31549 0.0
H1946 H 0.13189 0.32206 0.30399 0.0
H1947 H 0.0936 0.3247 0.33231 0.0
H1948 H 0.0397 0.27382 0.31926 0.0
H1949 H 0.0606 0.28949 0.325 0.0
C1950 C 0.19497 0.61724 0.32775 0.0
C1951 C 0.19225 0.62991 0.31963 0.0
C1952 C 0.19857 0.60428 0.32082 0.0
C1953 C 0.21462 0.59017 0.28767 0.0
H1954 H 0.19934 0.55322 0.30127 0.0
C1955 C 0.23639 0.53548 0.26657 0.0
C1956 C 0.24044 0.52597 0.2779 0.0
C1957 C 0.22751 0.54742 0.26934 0.0
C1958 C 0.20371 0.56344 0.29733 0.0
H1959 H 0.19124 0.6389 0.29783 0.0
H1960 H 0.19759 0.61622 0.2857 0.0
H1961 H 0.19004 0.5759 0.3109 0.0
H1962 H 0.23761 0.52083 0.30064 0.0
H1963 H 0.22218 0.54134 0.30542 0.0
H1964 H 0.22872 0.57772 0.27454 0.0
C1965 C 0.19691 0.61634 0.29745 0.0
C1966 C 0.1984 0.57644 0.30287 0.0
C1967 C 0.19317 0.6293 0.30438 0.0
C1968 C 0.23466 0.52799 0.29169 0.0
C1969 C 0.22573 0.53975 0.29441 0.0
C1970 C 0.22 0.57715 0.28216 0.0
C1971 C 0.19964 0.60367 0.30559 0.0
C1972 C 0.20406 0.58995 0.29841 0.0
C1973 C 0.2224 0.5499 0.28342 0.0
C1974 C 0.2149 0.56361 0.28724 0.0
H1975 H 0.19422 0.61732 0.33949 0.0
H1976 H 0.20079 0.59478 0.32744 0.0
H1977 H 0.21927 0.6004 0.28405 0.0
H1978 H 0.24081 0.53424 0.25586 0.0
H1979 H 0.22503 0.55496 0.26059 0.0
C1980 C 0.87783 0.68422 0.3065 0.0
C1981 C 0.87678 0.68412 0.32175 0.0
C1982 C 0.89087 0.68832 0.30006 0.0
C1983 C 0.93055 0.69296 0.30815 0.0
H1984 H 0.92941 0.7192 0.27513 0.0
C1985 C 0.97931 0.72885 0.29302 0.0
C1986 C 0.98207 0.73152 0.27831 0.0
C1987 C 0.96704 0.72084 0.29695 0.0
C1988 C 0.92992 0.71165 0.28417 0.0
H1989 H 0.88875 0.68804 0.34216 0.0
H1990 H 0.91134 0.69544 0.33097 0.0
H1991 H 0.90668 0.70973 0.28473 0.0
H1992 H 0.97431 0.72752 0.25612 0.0
H1993 H 0.95265 0.71346 0.26301 0.0
H1994 H 0.95375 0.69518 0.30783 0.0
C1995 C 0.90214 0.6922 0.32396 0.0
C1996 C 0.91689 0.70624 0.2897 0.0
C1997 C 0.88912 0.68813 0.33039 0.0
C1998 C 0.9725 0.72558 0.26754 0.0
C1999 C 0.96005 0.71764 0.2715 0.0
C2000 C 0.94355 0.69837 0.30264 0.0
C2001 C 0.9032 0.69237 0.30871 0.0
C2002 C 0.91703 0.69708 0.30197 0.0
C2003 C 0.95711 0.71534 0.28627 0.0
C2004 C 0.9434 0.70805 0.29079 0.0
H2005 H 0.8685 0.68132 0.29952 0.0
H2006 H 0.89132 0.68824 0.2883 0.0
H2007 H 0.93108 0.68566 0.31738 0.0
H2008 H 0.98648 0.73325 0.3016 0.0
H2009 H 0.96505 0.71945 0.30842 0.0
C2010 C 0.84075 0.37427 0.32249 0.0
C2011 C 0.83954 0.37424 0.33772 0.0
C2012 C 0.83711 0.38658 0.3143 0.0
C2013 C 0.81544 0.41993 0.31509 0.0
H2014 H 0.83982 0.432 0.28348 0.0
C2015 C 0.79667 0.4619 0.27213 0.0
C2016 C 0.80679 0.47264 0.26795 0.0
C2017 C 0.80102 0.4502 0.28083 0.0
C2018 C 0.83296 0.42884 0.29233 0.0
H2019 H 0.83352 0.38725 0.35624 0.0
H2020 H 0.82699 0.40869 0.34191 0.0
H2021 H 0.84681 0.41122 0.29855 0.0
H2022 H 0.82954 0.47929 0.26964 0.0
H2023 H 0.83716 0.45874 0.28474 0.0
H2024 H 0.8016 0.43756 0.3089 0.0
C2025 C 0.83071 0.39912 0.33632 0.0
C2026 C 0.83688 0.41684 0.30088 0.0
C2027 C 0.83442 0.38682 0.34453 0.0
C2028 C 0.82146 0.47119 0.27251 0.0
C2029 C 0.82583 0.45941 0.28119 0.0
C2030 C 0.81146 0.43186 0.30649 0.0
C2031 C 0.83207 0.39916 0.32111 0.0
C2032 C 0.82813 0.4122 0.31231 0.0
C2033 C 0.81563 0.44884 0.28555 0.0
C2034 C 0.82013 0.43641 0.29496 0.0
H2035 H 0.84436 0.3647 0.31682 0.0
H2036 H 0.83803 0.38614 0.30259 0.0
H2037 H 0.8084 0.41657 0.32373 0.0
H2038 H 0.78535 0.46242 0.26857 0.0
H2039 H 0.79294 0.44209 0.28373 0.0
C2040 C 0.19144 0.65935 0.69682 0.0
C2041 C 0.18729 0.65888 0.68198 0.0
C2042 C 0.19671 0.64696 0.70388 0.0
C2043 C 0.21144 0.61008 0.69756 0.0
H2044 H 0.19905 0.60363 0.737 0.0
C2045 C 0.23583 0.56482 0.73389 0.0
C2046 C 0.22667 0.55734 0.74345 0.0
C2047 C 0.23091 0.57695 0.72614 0.0
C2048 C 0.20249 0.60515 0.72594 0.0
H2049 H 0.18573 0.64518 0.66276 0.0
H2050 H 0.19474 0.62337 0.67512 0.0
H2051 H 0.19089 0.62504 0.72378 0.0
H2052 H 0.20504 0.55696 0.75221 0.0
H2053 H 0.19634 0.57785 0.73837 0.0
H2054 H 0.22267 0.58993 0.69959 0.0
C2055 C 0.19413 0.63339 0.68129 0.0
C2056 C 0.19799 0.61758 0.71841 0.0
C2057 C 0.18897 0.64586 0.67419 0.0
C2058 C 0.2124 0.56233 0.74492 0.0
C2059 C 0.20745 0.57444 0.73708 0.0
C2060 C 0.21587 0.59759 0.70507 0.0
C2061 C 0.19784 0.63372 0.6963 0.0
C2062 C 0.20249 0.62029 0.70416 0.0
C2063 C 0.21666 0.58194 0.7276 0.0
C2064 C 0.21154 0.595 0.7194 0.0
H2065 H 0.19045 0.6693 0.70304 0.0
H2066 H 0.19982 0.64776 0.71533 0.0
H2067 H 0.2152 0.61183 0.68665 0.0
H2068 H 0.2468 0.56129 0.73221 0.0
H2069 H 0.2384 0.58254 0.71911 0.0
C2070 C 0.19963 0.36899 0.35103 0.0
C2071 C 0.19275 0.35923 0.34107 0.0
C2072 C 0.20787 0.38083 0.34614 0.0
C2073 C 0.21396 0.40372 0.31358 0.0
H2074 H 0.24996 0.41449 0.33436 0.0
C2075 C 0.2543 0.4462 0.29098 0.0
C2076 C 0.26053 0.45646 0.30085 0.0
C2077 C 0.24628 0.43424 0.29594 0.0
C2078 C 0.23987 0.41172 0.32852 0.0
H2079 H 0.18924 0.35427 0.31814 0.0
H2080 H 0.2037 0.37487 0.30959 0.0
H2081 H 0.23542 0.39393 0.3428 0.0
H2082 H 0.2632 0.462 0.32376 0.0
H2083 H 0.24928 0.4411 0.3324 0.0
H2084 H 0.21845 0.42147 0.29926 0.0
C2085 C 0.20253 0.37351 0.3212 0.0
C2086 C 0.2315 0.39993 0.33337 0.0
C2087 C 0.19424 0.36168 0.32609 0.0
C2088 C 0.25873 0.45427 0.31584 0.0
C2089 C 0.25073 0.44227 0.3208 0.0
C2090 C 0.22234 0.41547 0.30871 0.0
C2091 C 0.20949 0.38322 0.33116 0.0
C2092 C 0.21843 0.39577 0.32597 0.0
C2093 C 0.24429 0.43217 0.3109 0.0
C2094 C 0.2354 0.41963 0.31611 0.0
H2095 H 0.1985 0.36756 0.36264 0.0
H2096 H 0.21283 0.38822 0.35413 0.0
H2097 H 0.20384 0.401 0.30775 0.0
H2098 H 0.25568 0.44733 0.27939 0.0
H2099 H 0.24172 0.42653 0.28803 0.0
C2100 C 0.14773 0.66709 0.31782 0.0
C2101 C 0.16057 0.67395 0.32334 0.0
C2102 C 0.13569 0.67531 0.31338 0.0
C2103 C 0.11862 0.71053 0.31947 0.0
H2104 H 0.09723 0.70221 0.28325 0.0
C2105 C 0.07217 0.74739 0.29826 0.0
C2106 C 0.06013 0.74074 0.29097 0.0
C2107 C 0.08453 0.73934 0.30199 0.0
C2108 C 0.10293 0.70456 0.29351 0.0
H2109 H 0.17087 0.69496 0.32801 0.0
H2110 H 0.14976 0.70923 0.32058 0.0
H2111 H 0.11852 0.6879 0.29002 0.0
H2112 H 0.05146 0.72034 0.28224 0.0
H2113 H 0.07281 0.70619 0.28904 0.0
H2114 H 0.10292 0.72693 0.3232 0.0
C2115 C 0.14901 0.69746 0.31981 0.0
C2116 C 0.11517 0.69638 0.29734 0.0
C2117 C 0.16109 0.68926 0.32411 0.0
C2118 C 0.06066 0.72582 0.28765 0.0
C2119 C 0.07294 0.71773 0.29151 0.0
C2120 C 0.10629 0.71861 0.31572 0.0
C2121 C 0.13615 0.69058 0.31448 0.0
C2122 C 0.12317 0.69929 0.31035 0.0
C2123 C 0.0851 0.72438 0.29868 0.0
C2124 C 0.09827 0.71576 0.30268 0.0
H2125 H 0.1468 0.65533 0.31727 0.0
H2126 H 0.12587 0.66969 0.30944 0.0
H2127 H 0.12445 0.71289 0.32966 0.0
H2128 H 0.07216 0.75891 0.30079 0.0
H2129 H 0.09374 0.74493 0.30726 0.0
C2130 C 0.83057 0.64984 0.30841 0.0
C2131 C 0.8325 0.6515 0.32356 0.0
C2132 C 0.82319 0.63768 0.30252 0.0
C2133 C 0.79802 0.607 0.31047 0.0
H2134 H 0.81596 0.58995 0.277 0.0
C2135 C 0.78057 0.55143 0.28198 0.0
C2136 C 0.7812 0.55154 0.26672 0.0
C2137 C 0.78523 0.56376 0.29012 0.0
C2138 C 0.81071 0.59464 0.28626 0.0
H2139 H 0.82774 0.64186 0.34443 0.0
H2140 H 0.81483 0.62049 0.33408 0.0
H2141 H 0.82727 0.61108 0.28887 0.0
H2142 H 0.78586 0.56488 0.24796 0.0
H2143 H 0.79356 0.58623 0.26198 0.0
H2144 H 0.78142 0.59032 0.30771 0.0
C2145 C 0.81899 0.62869 0.32678 0.0
C2146 C 0.8172 0.60678 0.29306 0.0
C2147 C 0.82639 0.64093 0.3327 0.0
C2148 C 0.78547 0.56441 0.25973 0.0
C2149 C 0.78997 0.57663 0.26777 0.0
C2150 C 0.79148 0.59474 0.30362 0.0
C2151 C 0.81756 0.6268 0.3116 0.0
C2152 C 0.81082 0.61332 0.30507 0.0
C2153 C 0.7905 0.57629 0.28305 0.0
C2154 C 0.79763 0.58862 0.29124 0.0
H2155 H 0.83485 0.65794 0.30107 0.0
H2156 H 0.82198 0.63676 0.29078 0.0
H2157 H 0.79283 0.61178 0.31972 0.0
H2158 H 0.77736 0.54161 0.28762 0.0
H2159 H 0.78546 0.5632 0.3019 0.0
C2160 C 0.87503 0.32887 0.33144 0.0
C2161 C 0.8726 0.33181 0.34618 0.0
C2162 C 0.88668 0.32024 0.32748 0.0
C2163 C 0.92222 0.30643 0.34098 0.0
H2164 H 0.91585 0.27741 0.31061 0.0
C2165 C 0.96562 0.26383 0.3279 0.0
C2166 C 0.96775 0.26079 0.31312 0.0
C2167 C 0.95388 0.27223 0.33208 0.0
C2168 C 0.91787 0.28557 0.319 0.0
H2169 H 0.88073 0.32826 0.3683 0.0
H2170 H 0.90094 0.31308 0.3614 0.0
H2171 H 0.89586 0.29286 0.31749 0.0
H2172 H 0.95888 0.26392 0.29119 0.0
H2173 H 0.93866 0.27877 0.29843 0.0
H2174 H 0.94424 0.29919 0.34245 0.0
C2175 C 0.89388 0.3175 0.35289 0.0
C2176 C 0.9064 0.29443 0.32294 0.0
C2177 C 0.88221 0.32609 0.35685 0.0
C2178 C 0.95772 0.26618 0.30265 0.0
C2179 C 0.94599 0.27457 0.30682 0.0
C2180 C 0.9337 0.29758 0.33702 0.0
C2181 C 0.89621 0.3144 0.33816 0.0
C2182 C 0.90844 0.30499 0.33397 0.0
C2183 C 0.94397 0.27779 0.32158 0.0
C2184 C 0.93168 0.28705 0.32597 0.0
H2185 H 0.86776 0.333 0.32296 0.0
H2186 H 0.88825 0.31821 0.31603 0.0
H2187 H 0.92422 0.31458 0.34938 0.0
H2188 H 0.97316 0.25998 0.33626 0.0
H2189 H 0.95256 0.27434 0.34356 0.0
C2190 C 0.83341 0.40332 0.6798 0.0
C2191 C 0.83934 0.39297 0.6895 0.0
C2192 C 0.82642 0.41565 0.68506 0.0
C2193 C 0.82603 0.43851 0.71793 0.0
H2194 H 0.78973 0.45373 0.70201 0.0
C2195 C 0.79623 0.48113 0.7494 0.0
C2196 C 0.79129 0.49353 0.74197 0.0
C2197 C 0.80042 0.46886 0.7418 0.0
C2198 C 0.79995 0.44969 0.70645 0.0
H2199 H 0.84175 0.38705 0.71228 0.0
H2200 H 0.82973 0.40847 0.7214 0.0
H2201 H 0.80042 0.43217 0.6909 0.0
H2202 H 0.78603 0.50257 0.72075 0.0
H2203 H 0.79366 0.4809 0.7072 0.0
H2204 H 0.82574 0.45584 0.73341 0.0
C2205 C 0.83073 0.40725 0.70975 0.0
C2206 C 0.80606 0.43735 0.70011 0.0
C2207 C 0.83765 0.39497 0.70452 0.0
C2208 C 0.78976 0.49311 0.72671 0.0
C2209 C 0.79415 0.48074 0.719 0.0
C2210 C 0.82 0.45076 0.7242 0.0
C2211 C 0.82526 0.41788 0.70013 0.0
C2212 C 0.81902 0.43147 0.706 0.0
C2213 C 0.80002 0.46869 0.7265 0.0
C2214 C 0.80672 0.45632 0.71878 0.0
H2215 H 0.83459 0.40215 0.66817 0.0
H2216 H 0.82237 0.42366 0.67738 0.0
H2217 H 0.83623 0.43452 0.72249 0.0
H2218 H 0.79731 0.48109 0.76118 0.0
H2219 H 0.80446 0.45962 0.74794 0.0
C2220 C 0.1541 0.33029 0.6831 0.0
C2221 C 0.15545 0.34558 0.68291 0.0
C2222 C 0.14186 0.32344 0.6889 0.0
C2223 C 0.1037 0.33076 0.69873 0.0
H2224 H 0.10793 0.29666 0.72322 0.0
C2225 C 0.06206 0.3143 0.7408 0.0
C2226 C 0.05835 0.29954 0.74269 0.0
C2227 C 0.07292 0.31846 0.73136 0.0
C2228 C 0.10653 0.30601 0.71619 0.0
H2229 H 0.14482 0.36562 0.68864 0.0
H2230 H 0.12379 0.35375 0.6991 0.0
H2231 H 0.12917 0.30688 0.71131 0.0
H2232 H 0.06293 0.27752 0.73594 0.0
H2233 H 0.08234 0.28484 0.71943 0.0
H2234 H 0.08119 0.33021 0.70404 0.0
C2235 C 0.13207 0.347 0.69455 0.0
C2236 C 0.11871 0.3119 0.70937 0.0
C2237 C 0.14427 0.35383 0.68875 0.0
C2238 C 0.06552 0.28898 0.73461 0.0
C2239 C 0.07666 0.29316 0.72528 0.0
C2240 C 0.09158 0.32494 0.70559 0.0
C2241 C 0.13063 0.33172 0.69463 0.0
C2242 C 0.11751 0.32457 0.70083 0.0
C2243 C 0.08053 0.30796 0.72366 0.0
C2244 C 0.09292 0.3127 0.71467 0.0
H2245 H 0.16256 0.32357 0.67883 0.0
H2246 H 0.1411 0.31166 0.6887 0.0
H2247 H 0.10226 0.34028 0.69193 0.0
H2248 H 0.0567 0.3227 0.74685 0.0
H2249 H 0.07573 0.32992 0.73051 0.0
C2250 C 0.87778 0.72527 0.66434 0.0
C2251 C 0.87728 0.71002 0.66293 0.0
C2252 C 0.89058 0.73245 0.66933 0.0
C2253 C 0.93042 0.72739 0.67531 0.0
H2254 H 0.92681 0.75506 0.70687 0.0
C2255 C 0.97498 0.73682 0.71925 0.0
C2256 C 0.9773 0.75067 0.72551 0.0
C2257 C 0.96394 0.73443 0.70871 0.0
C2258 C 0.92804 0.74762 0.69785 0.0
H2259 H 0.89 0.69042 0.665 0.0
H2260 H 0.91221 0.70285 0.67375 0.0
H2261 H 0.90498 0.74595 0.69373 0.0
H2262 H 0.97021 0.77304 0.72525 0.0
H2263 H 0.95061 0.76881 0.70674 0.0
H2264 H 0.95342 0.72862 0.67978 0.0
C2265 C 0.90277 0.70932 0.67098 0.0
C2266 C 0.91551 0.74237 0.69033 0.0
C2267 C 0.88999 0.70217 0.6661 0.0
C2268 C 0.96871 0.76228 0.72052 0.0
C2269 C 0.95745 0.75982 0.71004 0.0
C2270 C 0.94292 0.73263 0.68281 0.0
C2271 C 0.90319 0.72453 0.67285 0.0
C2272 C 0.91653 0.73183 0.67928 0.0
C2273 C 0.95478 0.74578 0.70422 0.0
C2274 C 0.94185 0.74244 0.6945 0.0
H2275 H 0.86814 0.73161 0.66204 0.0
H2276 H 0.89057 0.74418 0.67056 0.0
H2277 H 0.93162 0.71952 0.66665 0.0
H2278 H 0.98144 0.72766 0.72285 0.0
H2279 H 0.96212 0.72345 0.70463 0.0
C2280 C 0.69197 0.21096 0.64442 0.0
C2281 C 0.68979 0.19575 0.64445 0.0
C2282 C 0.69729 0.21801 0.6321 0.0
C2283 C 0.71878 0.21005 0.60002 0.0
H2284 H 0.70475 0.24679 0.58477 0.0
C2285 C 0.73801 0.23001 0.54559 0.0
C2286 C 0.74306 0.24446 0.54479 0.0
C2287 C 0.72969 0.22541 0.55715 0.0
C2288 C 0.70884 0.23659 0.58899 0.0
H2289 H 0.69061 0.17619 0.63127 0.0
H2290 H 0.69984 0.18839 0.60992 0.0
H2291 H 0.69381 0.23613 0.60643 0.0
H2292 H 0.74271 0.26573 0.55495 0.0
H2293 H 0.72819 0.25761 0.57556 0.0
H2294 H 0.73383 0.2104 0.58285 0.0
C2295 C 0.6978 0.19486 0.61949 0.0
C2296 C 0.70259 0.23049 0.60138 0.0
C2297 C 0.69252 0.18785 0.63174 0.0
C2298 C 0.73881 0.25455 0.55529 0.0
C2299 C 0.73055 0.24987 0.56707 0.0
C2300 C 0.72498 0.2161 0.58775 0.0
C2301 C 0.70053 0.20997 0.61959 0.0
C2302 C 0.70737 0.21702 0.60688 0.0
C2303 C 0.72642 0.2351 0.5684 0.0
C2304 C 0.71995 0.2293 0.5819 0.0
H2305 H 0.69002 0.21734 0.65406 0.0
H2306 H 0.69934 0.22965 0.63255 0.0
H2307 H 0.72301 0.19988 0.6042 0.0
H2308 H 0.74106 0.22205 0.53755 0.0
H2309 H 0.72633 0.21407 0.5576 0.0
C2310 C 0.33762 0.21102 0.65037 0.0
C2311 C 0.33866 0.19589 0.65237 0.0
C2312 C 0.33086 0.21667 0.63781 0.0
C2313 C 0.30539 0.20841 0.60686 0.0
H2314 H 0.32619 0.24025 0.58877 0.0
C2315 C 0.28812 0.23482 0.55076 0.0
C2316 C 0.2903 0.24998 0.5499 0.0
C2317 C 0.29297 0.22718 0.56322 0.0
C2318 C 0.32012 0.23148 0.59375 0.0
H2319 H 0.333 0.17485 0.64277 0.0
H2320 H 0.32103 0.18479 0.62086 0.0
H2321 H 0.33648 0.22902 0.6106 0.0
H2322 H 0.29822 0.26911 0.56178 0.0
H2323 H 0.30621 0.25602 0.58336 0.0
H2324 H 0.28891 0.21107 0.58996 0.0
C2325 C 0.32545 0.19224 0.62909 0.0
C2326 C 0.32605 0.22503 0.60627 0.0
C2327 C 0.3323 0.18656 0.64167 0.0
C2328 C 0.29663 0.2574 0.56197 0.0
C2329 C 0.30131 0.24986 0.57435 0.0
C2330 C 0.29937 0.21496 0.59428 0.0
C2331 C 0.32489 0.20737 0.62691 0.0
C2332 C 0.31868 0.21358 0.61314 0.0
C2333 C 0.29999 0.23462 0.575 0.0
C2334 C 0.30657 0.22676 0.58774 0.0
H2335 H 0.34207 0.21855 0.65851 0.0
H2336 H 0.33035 0.22839 0.63661 0.0
H2337 H 0.29945 0.1996 0.61191 0.0
H2338 H 0.28327 0.22883 0.54161 0.0
H2339 H 0.29175 0.21544 0.56339 0.0
C2340 C 0.31551 0.8389 0.65002 0.0
C2341 C 0.3304 0.84203 0.6527 0.0
C2342 C 0.31089 0.83039 0.63798 0.0
C2343 C 0.32302 0.81744 0.60208 0.0
H2344 H 0.29351 0.78726 0.60639 0.0
C2345 C 0.31267 0.77279 0.55857 0.0
C2346 C 0.29817 0.76867 0.55508 0.0
C2347 C 0.31602 0.78197 0.57042 0.0
C2348 C 0.30165 0.79575 0.60495 0.0
H2349 H 0.35202 0.83898 0.64453 0.0
H2350 H 0.34404 0.82403 0.62384 0.0
H2351 H 0.30019 0.80314 0.627 0.0
H2352 H 0.27584 0.77081 0.56163 0.0
H2353 H 0.28167 0.78698 0.58218 0.0
H2354 H 0.32458 0.81003 0.5801 0.0
C2355 C 0.33589 0.82818 0.63095 0.0
C2356 C 0.30546 0.80487 0.61677 0.0
C2357 C 0.3405 0.83662 0.64295 0.0
C2358 C 0.28711 0.77387 0.56388 0.0
C2359 C 0.29047 0.78303 0.57577 0.0
C2360 C 0.31923 0.80834 0.59029 0.0
C2361 C 0.32104 0.82492 0.62829 0.0
C2362 C 0.31632 0.81573 0.61553 0.0
C2363 C 0.30497 0.78728 0.57914 0.0
C2364 C 0.3086 0.79727 0.59161 0.0
H2365 H 0.30746 0.84285 0.65735 0.0
H2366 H 0.29936 0.8282 0.6362 0.0
H2367 H 0.33122 0.82587 0.60063 0.0
H2368 H 0.32146 0.76913 0.55201 0.0
H2369 H 0.32733 0.78485 0.57281 0.0
C2370 C 0.6784 0.83532 0.62695 0.0
C2371 C 0.6856 0.84037 0.63979 0.0
C2372 C 0.68626 0.83181 0.61467 0.0
C2373 C 0.72377 0.82414 0.6025 0.0
H2374 H 0.70704 0.83388 0.56453 0.0
C2375 C 0.75642 0.82207 0.54955 0.0
C2376 C 0.74943 0.81489 0.53767 0.0
C2377 C 0.74874 0.82535 0.56203 0.0
C2378 C 0.71182 0.83102 0.57505 0.0
H2379 H 0.70686 0.84512 0.64983 0.0
H2380 H 0.72045 0.8396 0.62832 0.0
H2381 H 0.69351 0.83886 0.5863 0.0
H2382 H 0.72884 0.80593 0.52938 0.0
H2383 H 0.7154 0.81177 0.55107 0.0
H2384 H 0.74223 0.81658 0.59114 0.0
C2385 C 0.70874 0.83813 0.62776 0.0
C2386 C 0.70403 0.83379 0.58756 0.0
C2387 C 0.70089 0.84151 0.64009 0.0
C2388 C 0.73454 0.81136 0.53841 0.0
C2389 C 0.72682 0.8148 0.55078 0.0
C2390 C 0.73163 0.82152 0.58999 0.0
C2391 C 0.70153 0.83337 0.61482 0.0
C2392 C 0.70986 0.83034 0.60147 0.0
C2393 C 0.73386 0.8217 0.56279 0.0
C2394 C 0.72571 0.82487 0.57612 0.0
H2395 H 0.66664 0.83442 0.62622 0.0
H2396 H 0.68031 0.82792 0.60502 0.0
H2397 H 0.72855 0.8211 0.61296 0.0
H2398 H 0.76791 0.82482 0.54935 0.0
H2399 H 0.75443 0.83077 0.57108 0.0
C2400 C 0.67648 0.81873 0.36222 0.0
C2401 C 0.67598 0.83386 0.35983 0.0
C2402 C 0.68301 0.81313 0.37497 0.0
C2403 C 0.69425 0.82375 0.41277 0.0
H2404 H 0.71884 0.78988 0.41135 0.0
C2405 C 0.73601 0.81042 0.45826 0.0
C2406 C 0.73838 0.79587 0.4623 0.0
C2407 C 0.72668 0.81381 0.44653 0.0
C2408 C 0.71179 0.79919 0.41198 0.0
H2409 H 0.68207 0.85492 0.36906 0.0
H2410 H 0.6937 0.84519 0.3911 0.0
H2411 H 0.70638 0.79839 0.38911 0.0
H2412 H 0.73254 0.77343 0.45731 0.0
H2413 H 0.71613 0.77939 0.43651 0.0
H2414 H 0.69989 0.82476 0.43554 0.0
C2415 C 0.68885 0.83763 0.38321 0.0
C2416 C 0.70468 0.8041 0.39921 0.0
C2417 C 0.68234 0.84322 0.37046 0.0
C2418 C 0.73086 0.78474 0.4545 0.0
C2419 C 0.72158 0.78815 0.44255 0.0
C2420 C 0.70136 0.81886 0.42548 0.0
C2421 C 0.6892 0.82251 0.38569 0.0
C2422 C 0.69603 0.81663 0.39939 0.0
C2423 C 0.71949 0.80276 0.43837 0.0
C2424 C 0.71046 0.8067 0.42521 0.0
H2425 H 0.67185 0.81117 0.3542 0.0
H2426 H 0.683 0.80144 0.37652 0.0
H2427 H 0.6874 0.8332 0.41341 0.0
H2428 H 0.74159 0.81928 0.46404 0.0
H2429 H 0.7255 0.82515 0.44354 0.0
C2430 C 0.69565 0.16597 0.3858 0.0
C2431 C 0.69064 0.17513 0.37452 0.0
C2432 C 0.70321 0.17172 0.39801 0.0
C2433 C 0.72487 0.20407 0.41015 0.0
H2434 H 0.71908 0.18836 0.4487 0.0
C2435 C 0.75031 0.23081 0.4622 0.0
C2436 C 0.75603 0.22157 0.47308 0.0
C2437 C 0.74238 0.2251 0.4502 0.0
C2438 C 0.72095 0.19276 0.43798 0.0
H2439 H 0.6895 0.19758 0.36738 0.0
H2440 H 0.70239 0.20766 0.38885 0.0
H2441 H 0.70467 0.17873 0.42797 0.0
H2442 H 0.75793 0.19906 0.4798 0.0
H2443 H 0.74421 0.18906 0.45874 0.0
H2444 H 0.74112 0.21812 0.42017 0.0
C2445 C 0.70066 0.19599 0.38814 0.0
C2446 C 0.71267 0.18725 0.42609 0.0
C2447 C 0.6931 0.19023 0.37591 0.0
C2448 C 0.75376 0.20646 0.47158 0.0
C2449 C 0.74576 0.20075 0.45958 0.0
C2450 C 0.73312 0.2096 0.42204 0.0
C2451 C 0.70594 0.18679 0.39928 0.0
C2452 C 0.71454 0.19283 0.41201 0.0
C2453 C 0.73994 0.21001 0.44877 0.0
C2454 C 0.73126 0.20401 0.4361 0.0
H2455 H 0.6938 0.15431 0.38516 0.0
H2456 H 0.70722 0.1643 0.40631 0.0
H2457 H 0.7268 0.20845 0.39943 0.0
H2458 H 0.75202 0.24248 0.46291 0.0
H2459 H 0.73796 0.23256 0.44214 0.0
C2460 C 0.34613 0.19653 0.37448 0.0
C2461 C 0.34425 0.18129 0.37478 0.0
C2462 C 0.34313 0.205 0.38666 0.0
C2463 C 0.32167 0.20466 0.41969 0.0
H2464 H 0.34787 0.2359 0.43275 0.0
C2465 C 0.31242 0.23534 0.47308 0.0
C2466 C 0.31476 0.25049 0.47324 0.0
C2467 C 0.3169 0.22691 0.46143 0.0
C2468 C 0.34035 0.22733 0.42915 0.0
H2469 H 0.33803 0.16304 0.38833 0.0
H2470 H 0.33257 0.17786 0.40945 0.0
H2471 H 0.3538 0.22127 0.41157 0.0
H2472 H 0.32388 0.26866 0.46144 0.0
H2473 H 0.33151 0.25401 0.44091 0.0
H2474 H 0.30806 0.2108 0.437 0.0
C2475 C 0.33625 0.18324 0.39973 0.0
C2476 C 0.34377 0.21894 0.41703 0.0
C2477 C 0.33934 0.17476 0.3876 0.0
C2478 C 0.32206 0.25699 0.46167 0.0
C2479 C 0.32643 0.24857 0.44992 0.0
C2480 C 0.3182 0.2131 0.43172 0.0
C2481 C 0.33808 0.19846 0.39939 0.0
C2482 C 0.33449 0.20747 0.41221 0.0
C2483 C 0.32371 0.23343 0.44954 0.0
C2484 C 0.32752 0.22451 0.43667 0.0
H2485 H 0.34966 0.20196 0.36474 0.0
H2486 H 0.34447 0.21672 0.38601 0.0
H2487 H 0.31417 0.19607 0.41609 0.0
H2488 H 0.30706 0.23 0.48196 0.0
H2489 H 0.31495 0.21526 0.46172 0.0
C2490 C 0.31517 0.80924 0.37119 0.0
C2491 C 0.31804 0.82422 0.36957 0.0
C2492 C 0.309 0.80388 0.38384 0.0
C2493 C 0.28937 0.81387 0.417 0.0
H2494 H 0.30918 0.78037 0.43326 0.0
C2495 C 0.27148 0.78027 0.46812 0.0
C2496 C 0.28298 0.77588 0.47751 0.0
C2497 C 0.27442 0.78759 0.45508 0.0
C2498 C 0.30355 0.78976 0.4289 0.0
H2499 H 0.31611 0.84538 0.37981 0.0
H2500 H 0.30531 0.83598 0.40195 0.0
H2501 H 0.31635 0.79003 0.40993 0.0
H2502 H 0.30641 0.77676 0.48121 0.0
H2503 H 0.31144 0.78951 0.45877 0.0
H2504 H 0.27669 0.81357 0.43627 0.0
C2505 C 0.30776 0.82841 0.39335 0.0
C2506 C 0.30755 0.7952 0.41543 0.0
C2507 C 0.31397 0.83379 0.38066 0.0
C2508 C 0.29731 0.77979 0.47411 0.0
C2509 C 0.30022 0.78705 0.46121 0.0
C2510 C 0.28526 0.80831 0.43051 0.0
C2511 C 0.30552 0.81335 0.39522 0.0
C2512 C 0.3006 0.80737 0.40932 0.0
C2513 C 0.28888 0.79058 0.45129 0.0
C2514 C 0.29247 0.7963 0.43668 0.0
H2515 H 0.31785 0.80161 0.36273 0.0
H2516 H 0.30714 0.79225 0.3848 0.0
H2517 H 0.28375 0.82321 0.41254 0.0
H2518 H 0.26033 0.77738 0.47044 0.0
H2519 H 0.26546 0.79022 0.44765 0.0
C2520 C 0.64447 0.19753 0.68007 0.0
C2521 C 0.65664 0.19105 0.68695 0.0
C2522 C 0.63272 0.20204 0.68819 0.0
C2523 C 0.61463 0.19508 0.72263 0.0
H2524 H 0.59691 0.23256 0.71574 0.0
C2525 C 0.57052 0.21743 0.75987 0.0
C2526 C 0.55931 0.22567 0.75342 0.0
C2527 C 0.58238 0.21318 0.75177 0.0
C2528 C 0.60156 0.22196 0.71768 0.0
H2529 H 0.66612 0.18476 0.70792 0.0
H2530 H 0.64553 0.19237 0.72198 0.0
H2531 H 0.61755 0.22538 0.70152 0.0
H2532 H 0.55149 0.23548 0.73328 0.0
H2533 H 0.57191 0.22781 0.71905 0.0
H2534 H 0.59854 0.19147 0.73857 0.0
C2535 C 0.64503 0.1938 0.71027 0.0
C2536 C 0.61344 0.21788 0.70954 0.0
C2537 C 0.65682 0.18941 0.70219 0.0
C2538 C 0.56008 0.22934 0.73862 0.0
C2539 C 0.57184 0.22497 0.73048 0.0
C2540 C 0.60266 0.19909 0.73067 0.0
C2541 C 0.63281 0.20009 0.70336 0.0
C2542 C 0.62014 0.20442 0.71195 0.0
C2543 C 0.58323 0.21694 0.73696 0.0
C2544 C 0.59597 0.2126 0.72833 0.0
H2545 H 0.64382 0.19878 0.66835 0.0
H2546 H 0.6234 0.20674 0.68254 0.0
H2547 H 0.61944 0.18455 0.7246 0.0
H2548 H 0.57033 0.21459 0.77129 0.0
H2549 H 0.59102 0.2072 0.75722 0.0
C2550 C 0.32953 0.15682 0.69575 0.0
C2551 C 0.34425 0.15853 0.6923 0.0
C2552 C 0.32478 0.14458 0.70347 0.0
C2553 C 0.3348 0.10681 0.71295 0.0
H2554 H 0.30852 0.11178 0.74467 0.0
C2555 C 0.32138 0.0595 0.75186 0.0
C2556 C 0.3069 0.05791 0.75618 0.0
C2557 C 0.32594 0.07196 0.74441 0.0
C2558 C 0.31572 0.11015 0.73574 0.0
H2559 H 0.36544 0.1485 0.69393 0.0
H2560 H 0.3572 0.12725 0.70742 0.0
H2561 H 0.3161 0.1329 0.73057 0.0
H2562 H 0.28603 0.06863 0.75645 0.0
H2563 H 0.29385 0.09008 0.74318 0.0
H2564 H 0.33435 0.08408 0.71798 0.0
C2565 C 0.3493 0.13534 0.70415 0.0
C2566 C 0.32007 0.12228 0.72765 0.0
C2567 C 0.35405 0.1476 0.69654 0.0
C2568 C 0.2972 0.06931 0.75313 0.0
C2569 C 0.30175 0.08174 0.74565 0.0
C2570 C 0.3304 0.09468 0.72099 0.0
C2571 C 0.33463 0.13371 0.7078 0.0
C2572 C 0.3297 0.12077 0.71619 0.0
C2573 C 0.31614 0.08318 0.74104 0.0
C2574 C 0.32084 0.09617 0.73253 0.0
H2575 H 0.32172 0.16509 0.69274 0.0
H2576 H 0.31338 0.1436 0.70598 0.0
H2577 H 0.34206 0.10522 0.70406 0.0
H2578 H 0.32918 0.05099 0.75389 0.0
H2579 H 0.33717 0.07278 0.74127 0.0
C2580 C 0.37913 0.84442 0.68527 0.0
C2581 C 0.36799 0.85127 0.69273 0.0
C2582 C 0.39198 0.84029 0.69259 0.0
C2583 C 0.40808 0.83391 0.72987 0.0
H2584 H 0.44421 0.83486 0.70924 0.0
C2585 C 0.46538 0.82468 0.75719 0.0
C2586 C 0.4739 0.81441 0.75015 0.0
C2587 C 0.45234 0.82947 0.75063 0.0
C2588 C 0.43419 0.8345 0.71511 0.0
H2589 H 0.3618 0.85909 0.71393 0.0
H2590 H 0.38447 0.8526 0.72651 0.0
H2591 H 0.4219 0.84309 0.69706 0.0
H2592 H 0.4756 0.80132 0.73065 0.0
H2593 H 0.45299 0.80989 0.71909 0.0
H2594 H 0.42066 0.82567 0.74807 0.0
C2595 C 0.38313 0.85006 0.71503 0.0
C2596 C 0.42134 0.83912 0.70811 0.0
C2597 C 0.37017 0.85401 0.70773 0.0
C2598 C 0.46918 0.80912 0.73639 0.0
C2599 C 0.45632 0.8141 0.72973 0.0
C2600 C 0.42101 0.82951 0.73694 0.0
C2601 C 0.39422 0.8431 0.70757 0.0
C2602 C 0.40804 0.83873 0.71531 0.0
C2603 C 0.44775 0.82432 0.73678 0.0
C2604 C 0.43415 0.8296 0.72957 0.0
H2605 H 0.37803 0.84232 0.67368 0.0
H2606 H 0.40009 0.83474 0.68646 0.0
H2607 H 0.39808 0.83321 0.73574 0.0
H2608 H 0.46874 0.82886 0.76782 0.0
H2609 H 0.44596 0.83739 0.75627 0.0
C2610 C 0.67675 0.87612 0.69603 0.0
C2611 C 0.67838 0.87568 0.68086 0.0
C2612 C 0.6812 0.88841 0.70414 0.0
C2613 C 0.6905 0.92774 0.70022 0.0
H2614 H 0.70825 0.92302 0.73877 0.0
C2615 C 0.72014 0.97473 0.73152 0.0
C2616 C 0.71734 0.97627 0.74639 0.0
C2617 C 0.71491 0.96256 0.72369 0.0
C2618 C 0.70318 0.92452 0.72808 0.0
H2619 H 0.68593 0.88797 0.66236 0.0
H2620 H 0.69418 0.90912 0.67653 0.0
H2621 H 0.70038 0.90157 0.72474 0.0
H2622 H 0.70689 0.96623 0.7647 0.0
H2623 H 0.69776 0.94488 0.75101 0.0
H2624 H 0.69361 0.9507 0.7035 0.0
C2625 C 0.6892 0.90008 0.68216 0.0
C2626 C 0.69863 0.91222 0.72003 0.0
C2627 C 0.68466 0.88783 0.67403 0.0
C2628 C 0.70914 0.96538 0.75325 0.0
C2629 C 0.70403 0.95312 0.74544 0.0
C2630 C 0.69516 0.94001 0.70822 0.0
C2631 C 0.6875 0.90056 0.69732 0.0
C2632 C 0.69225 0.91366 0.70597 0.0
C2633 C 0.70686 0.95159 0.73057 0.0
C2634 C 0.70158 0.93854 0.72223 0.0
H2635 H 0.67214 0.86691 0.7017 0.0
H2636 H 0.67954 0.88842 0.71575 0.0
H2637 H 0.68538 0.92932 0.68957 0.0
H2638 H 0.72628 0.983 0.72588 0.0
H2639 H 0.71737 0.96165 0.71228 0.0
C2640 C 0.63264 0.81674 0.32331 0.0
C2641 C 0.63447 0.83197 0.32272 0.0
C2642 C 0.61979 0.81003 0.31798 0.0
C2643 C 0.58877 0.8138 0.29246 0.0
H2644 H 0.57095 0.78473 0.31698 0.0
C2645 C 0.53536 0.78086 0.27603 0.0
C2646 C 0.5354 0.76611 0.28011 0.0
C2647 C 0.54676 0.7903 0.28082 0.0
C2648 C 0.57584 0.79272 0.30991 0.0
H2649 H 0.62401 0.85202 0.31596 0.0
H2650 H 0.60173 0.84014 0.30627 0.0
H2651 H 0.59223 0.79841 0.3261 0.0
H2652 H 0.54783 0.74955 0.29159 0.0
H2653 H 0.56755 0.76568 0.29948 0.0
H2654 H 0.57259 0.80771 0.27606 0.0
C2655 C 0.61032 0.83349 0.31091 0.0
C2656 C 0.58801 0.80058 0.31518 0.0
C2657 C 0.62313 0.84026 0.31643 0.0
C2658 C 0.54727 0.76091 0.28848 0.0
C2659 C 0.55859 0.77021 0.29311 0.0
C2660 C 0.57661 0.80578 0.28709 0.0
C2661 C 0.60849 0.81831 0.31176 0.0
C2662 C 0.5948 0.81099 0.30643 0.0
C2663 C 0.55836 0.7851 0.28968 0.0
C2664 C 0.57022 0.79488 0.29565 0.0
H2665 H 0.64121 0.80994 0.32773 0.0
H2666 H 0.61877 0.79828 0.31858 0.0
H2667 H 0.59381 0.82178 0.28548 0.0
H2668 H 0.52636 0.78516 0.26956 0.0
H2669 H 0.54628 0.80172 0.27794 0.0
C2670 C 0.69188 0.1249 0.34371 0.0
C2671 C 0.68917 0.13735 0.33522 0.0
C2672 C 0.69862 0.11281 0.33776 0.0
C2673 C 0.72372 0.1024 0.30981 0.0
H2674 H 0.70695 0.06364 0.31343 0.0
C2675 C 0.74483 0.05337 0.27759 0.0
C2676 C 0.7432 0.03923 0.28322 0.0
C2677 C 0.73931 0.06537 0.28487 0.0
C2678 C 0.71201 0.07431 0.31256 0.0
H2679 H 0.69139 0.14692 0.31388 0.0
H2680 H 0.70347 0.12583 0.30351 0.0
H2681 H 0.69486 0.08434 0.32406 0.0
H2682 H 0.73533 0.02676 0.30142 0.0
H2683 H 0.72637 0.04774 0.31451 0.0
H2684 H 0.74108 0.09249 0.29869 0.0
C2685 C 0.70026 0.12543 0.31474 0.0
C2686 C 0.70497 0.0862 0.31857 0.0
C2687 C 0.69326 0.13743 0.32062 0.0
C2688 C 0.73668 0.0375 0.29674 0.0
C2689 C 0.73138 0.04955 0.30415 0.0
C2690 C 0.73091 0.0905 0.30402 0.0
C2691 C 0.70304 0.11302 0.32327 0.0
C2692 C 0.71067 0.10038 0.31712 0.0
C2693 C 0.73222 0.06362 0.29812 0.0
C2694 C 0.72509 0.07627 0.30515 0.0
H2695 H 0.6888 0.12456 0.35499 0.0
H2696 H 0.70067 0.10342 0.34458 0.0
H2697 H 0.72847 0.11321 0.30873 0.0
H2698 H 0.74968 0.05512 0.26713 0.0
H2699 H 0.74006 0.07592 0.2797 0.0
C2700 C 0.37386 0.16987 0.31656 0.0
C2701 C 0.37504 0.17074 0.33185 0.0
C2702 C 0.38569 0.1736 0.30805 0.0
C2703 C 0.41973 0.19533 0.30914 0.0
H2704 H 0.42926 0.17228 0.27543 0.0
C2705 C 0.46169 0.2153 0.26824 0.0
C2706 C 0.47198 0.20519 0.26374 0.0
C2707 C 0.44962 0.21079 0.276 0.0
C2708 C 0.42677 0.17879 0.28485 0.0
H2709 H 0.38979 0.17585 0.35015 0.0
H2710 H 0.41035 0.18249 0.3353 0.0
H2711 H 0.40893 0.16475 0.29036 0.0
H2712 H 0.47736 0.18228 0.26367 0.0
H2713 H 0.4562 0.17438 0.27714 0.0
H2714 H 0.43761 0.20929 0.30376 0.0
C2715 C 0.4002 0.17909 0.32989 0.0
C2716 C 0.41505 0.17455 0.29332 0.0
C2717 C 0.38839 0.17531 0.33841 0.0
C2718 C 0.46962 0.19036 0.26683 0.0
C2719 C 0.45749 0.18582 0.27457 0.0
C2720 C 0.43137 0.19961 0.30064 0.0
C2721 C 0.39897 0.17835 0.31462 0.0
C2722 C 0.41142 0.18277 0.30558 0.0
C2723 C 0.44747 0.19602 0.27943 0.0
C2724 C 0.43503 0.1914 0.28839 0.0
H2725 H 0.36368 0.16659 0.31114 0.0
H2726 H 0.38434 0.17308 0.2963 0.0
H2727 H 0.41713 0.20199 0.31842 0.0
H2728 H 0.46295 0.22676 0.26578 0.0
H2729 H 0.44195 0.21888 0.27932 0.0
C2730 C 0.32127 0.87377 0.33846 0.0
C2731 C 0.32478 0.86153 0.33015 0.0
C2732 C 0.31719 0.88676 0.33168 0.0
C2733 C 0.30168 0.90139 0.2974 0.0
H2734 H 0.31442 0.93833 0.31436 0.0
C2735 C 0.27934 0.95655 0.27622 0.0
C2736 C 0.27407 0.9652 0.28747 0.0
C2737 C 0.28823 0.94462 0.27954 0.0
C2738 C 0.31079 0.92811 0.30946 0.0
H2739 H 0.32669 0.85335 0.30815 0.0
H2740 H 0.3196 0.8761 0.29628 0.0
H2741 H 0.32444 0.91575 0.32396 0.0
H2742 H 0.27463 0.96874 0.31081 0.0
H2743 H 0.29013 0.94828 0.31653 0.0
H2744 H 0.28766 0.91379 0.28321 0.0
C2745 C 0.31998 0.87561 0.30806 0.0
C2746 C 0.31649 0.91516 0.315 0.0
C2747 C 0.32415 0.86261 0.31486 0.0
C2748 C 0.2785 0.96225 0.30192 0.0
C2749 C 0.28748 0.95054 0.30519 0.0
C2750 C 0.29595 0.91438 0.29186 0.0
C2751 C 0.31647 0.88785 0.3164 0.0
C2752 C 0.3117 0.90162 0.30932 0.0
C2753 C 0.29218 0.94136 0.29411 0.0
C2754 C 0.30013 0.92786 0.29812 0.0
H2755 H 0.32179 0.87336 0.35025 0.0
H2756 H 0.31436 0.8959 0.33844 0.0
H2757 H 0.29771 0.89115 0.29281 0.0
H2758 H 0.27599 0.95855 0.265 0.0
H2759 H 0.29175 0.93777 0.27075 0.0
C2760 C 0.68535 0.14085 0.68184 0.0
C2761 C 0.69397 0.15295 0.67806 0.0
C2762 C 0.69179 0.12772 0.68588 0.0
C2763 C 0.72587 0.11264 0.70101 0.0
H2764 H 0.7077 0.07585 0.68936 0.0
C2765 C 0.74654 0.05761 0.72377 0.0
C2766 C 0.73538 0.0488 0.72931 0.0
C2767 C 0.74313 0.06952 0.7148 0.0
C2768 C 0.71292 0.08603 0.69271 0.0
H2769 H 0.71614 0.16072 0.67554 0.0
H2770 H 0.72741 0.13772 0.68256 0.0
H2771 H 0.69848 0.0985 0.6791 0.0
H2772 H 0.71203 0.04501 0.72914 0.0
H2773 H 0.70613 0.06553 0.71358 0.0
H2774 H 0.74002 0.10018 0.71498 0.0
C2775 C 0.71565 0.13843 0.68243 0.0
C2776 C 0.70761 0.09901 0.68686 0.0
C2777 C 0.70919 0.15157 0.6783 0.0
C2778 C 0.72088 0.05162 0.72508 0.0
C2779 C 0.71749 0.06336 0.71606 0.0
C2780 C 0.73118 0.09963 0.70689 0.0
C2781 C 0.70702 0.12636 0.6863 0.0
C2782 C 0.71377 0.1125 0.69123 0.0
C2783 C 0.72853 0.07268 0.71108 0.0
C2784 C 0.7245 0.0862 0.7031 0.0
H2785 H 0.67359 0.1415 0.68162 0.0
H2786 H 0.68482 0.1187 0.68898 0.0
H2787 H 0.73081 0.12285 0.70468 0.0
H2788 H 0.75781 0.05573 0.72691 0.0
H2789 H 0.75188 0.07644 0.71105 0.0
C2790 C 0.6722 0.87178 0.30357 0.0
C2791 C 0.67381 0.87049 0.31882 0.0
C2792 C 0.67734 0.88416 0.2964 0.0
C2793 C 0.70406 0.91382 0.29875 0.0
H2794 H 0.67734 0.93463 0.27309 0.0
C2795 C 0.72028 0.96922 0.27391 0.0
C2796 C 0.71466 0.97286 0.26002 0.0
C2797 C 0.71528 0.95678 0.28106 0.0
C2798 C 0.68507 0.92886 0.27999 0.0
H2799 H 0.68241 0.88139 0.33836 0.0
H2800 H 0.69191 0.90268 0.3257 0.0
H2801 H 0.66907 0.91265 0.28535 0.0
H2802 H 0.69955 0.96627 0.24262 0.0
H2803 H 0.6912 0.94417 0.25473 0.0
H2804 H 0.72025 0.92957 0.29309 0.0
C2805 C 0.68651 0.89408 0.31939 0.0
C2806 C 0.68027 0.91629 0.28709 0.0
C2807 C 0.68112 0.88181 0.32662 0.0
C2808 C 0.70396 0.96377 0.25339 0.0
C2809 C 0.69914 0.95114 0.26041 0.0
C2810 C 0.70897 0.92623 0.29144 0.0
C2811 C 0.6845 0.89545 0.30423 0.0
C2812 C 0.68969 0.9087 0.2966 0.0
C2813 C 0.7047 0.94745 0.27439 0.0
C2814 C 0.69953 0.93402 0.282 0.0
H2815 H 0.66701 0.86319 0.29708 0.0
H2816 H 0.67583 0.88485 0.28468 0.0
H2817 H 0.7116 0.90807 0.30591 0.0
H2818 H 0.72837 0.97618 0.27939 0.0
H2819 H 0.71961 0.95462 0.29193 0.0
C2820 C 0.64082 0.18283 0.34293 0.0
C2821 C 0.65182 0.17697 0.33445 0.0
C2822 C 0.62853 0.18922 0.33633 0.0
C2823 C 0.60682 0.18869 0.30195 0.0
H2824 H 0.59138 0.2254 0.31496 0.0
C2825 C 0.56504 0.21851 0.26657 0.0
C2826 C 0.55301 0.2248 0.27305 0.0
C2827 C 0.57682 0.21361 0.27502 0.0
C2828 C 0.59544 0.21505 0.31132 0.0
H2829 H 0.6586 0.17378 0.31229 0.0
H2830 H 0.63714 0.18465 0.30084 0.0
H2831 H 0.61251 0.21491 0.3279 0.0
H2832 H 0.5442 0.23149 0.29354 0.0
H2833 H 0.56493 0.22262 0.30855 0.0
H2834 H 0.58987 0.18863 0.2855 0.0
C2835 C 0.63794 0.18414 0.31261 0.0
C2836 C 0.60756 0.20906 0.31871 0.0
C2837 C 0.65025 0.17785 0.31919 0.0
C2838 C 0.55333 0.22667 0.28826 0.0
C2839 C 0.56519 0.22159 0.29682 0.0
C2840 C 0.59474 0.1946 0.29466 0.0
C2841 C 0.62688 0.18981 0.32108 0.0
C2842 C 0.61354 0.19593 0.31392 0.0
C2843 C 0.57691 0.21466 0.29027 0.0
C2844 C 0.58905 0.20801 0.29903 0.0
H2845 H 0.64153 0.18219 0.3547 0.0
H2846 H 0.62015 0.19336 0.34316 0.0
H2847 H 0.61091 0.17839 0.29819 0.0
H2848 H 0.5653 0.21715 0.25487 0.0
H2849 H 0.58583 0.20878 0.26954 0.0
C2850 C 0.32627 0.12952 0.3525 0.0
C2851 C 0.33145 0.13894 0.34172 0.0
C2852 C 0.31738 0.1175 0.34872 0.0
C2853 C 0.30741 0.09334 0.31758 0.0
H2854 H 0.27441 0.08251 0.3407 0.0
C2855 C 0.26575 0.04965 0.29797 0.0
C2856 C 0.26096 0.03942 0.3082 0.0
C2857 C 0.27387 0.06193 0.30242 0.0
C2858 C 0.28368 0.0853 0.33422 0.0
H2859 H 0.331 0.1433 0.31852 0.0
H2860 H 0.31551 0.12237 0.31192 0.0
H2861 H 0.28953 0.10366 0.34775 0.0
H2862 H 0.26073 0.03432 0.33121 0.0
H2863 H 0.27499 0.05583 0.33902 0.0
H2864 H 0.30161 0.07502 0.30407 0.0
C2865 C 0.31853 0.12412 0.32329 0.0
C2866 C 0.29234 0.09742 0.33826 0.0
C2867 C 0.32741 0.13612 0.32708 0.0
C2868 C 0.26417 0.04202 0.32306 0.0
C2869 C 0.27234 0.05435 0.32753 0.0
C2870 C 0.29876 0.08125 0.31355 0.0
C2871 C 0.31346 0.1146 0.33405 0.0
C2872 C 0.30428 0.10163 0.32994 0.0
C2873 C 0.27745 0.06435 0.31723 0.0
C2874 C 0.28674 0.07712 0.32177 0.0
H2875 H 0.32933 0.13128 0.36386 0.0
H2876 H 0.31383 0.1103 0.35726 0.0
H2877 H 0.31668 0.09607 0.31109 0.0
H2878 H 0.26317 0.04819 0.28648 0.0
H2879 H 0.27733 0.06958 0.29422 0.0
C2880 C 0.36047 0.8166 0.31966 0.0
C2881 C 0.35841 0.81898 0.33457 0.0
C2882 C 0.37245 0.80879 0.31505 0.0
C2883 C 0.40926 0.79705 0.32709 0.0
H2884 H 0.404 0.76844 0.29619 0.0
C2885 C 0.45488 0.75753 0.31245 0.0
C2886 C 0.45692 0.7548 0.29759 0.0
C2887 C 0.44273 0.76514 0.31694 0.0
C2888 C 0.40571 0.7765 0.30472 0.0
H2889 H 0.36753 0.81529 0.3563 0.0
H2890 H 0.38828 0.80155 0.34829 0.0
H2891 H 0.38324 0.7824 0.30389 0.0
H2892 H 0.44744 0.75763 0.27586 0.0
H2893 H 0.42649 0.77114 0.28364 0.0
H2894 H 0.43172 0.79123 0.32791 0.0
C2895 C 0.38068 0.80576 0.34014 0.0
C2896 C 0.39379 0.78451 0.30913 0.0
C2897 C 0.36869 0.8135 0.34474 0.0
C2898 C 0.44636 0.75969 0.28737 0.0
C2899 C 0.43423 0.7673 0.29186 0.0
C2900 C 0.42118 0.78907 0.32267 0.0
C2901 C 0.3827 0.80326 0.32524 0.0
C2902 C 0.39541 0.79487 0.32039 0.0
C2903 C 0.43229 0.77022 0.30669 0.0
C2904 C 0.41956 0.77867 0.31144 0.0
H2905 H 0.3527 0.82059 0.31155 0.0
H2906 H 0.37375 0.8072 0.30349 0.0
H2907 H 0.41095 0.8051 0.33564 0.0
H2908 H 0.46279 0.75406 0.32064 0.0
H2909 H 0.44151 0.76701 0.32848 0.0
C2910 C 0.31216 0.88624 0.68853 0.0
C2911 C 0.32691 0.88617 0.68501 0.0
C2912 C 0.30575 0.89909 0.69329 0.0
C2913 C 0.31607 0.93573 0.70857 0.0
H2914 H 0.27532 0.94411 0.70085 0.0
C2915 C 0.29268 0.9914 0.72221 0.0
C2916 C 0.28063 0.99109 0.73127 0.0
C2917 C 0.29713 0.97876 0.71526 0.0
C2918 C 0.28671 0.94186 0.70311 0.0
H2919 H 0.34632 0.89954 0.68294 0.0
H2920 H 0.33511 0.92202 0.69057 0.0
H2921 H 0.2856 0.92184 0.69107 0.0
H2922 H 0.26324 0.97735 0.7393 0.0
H2923 H 0.2709 0.95527 0.72684 0.0
H2924 H 0.31722 0.95589 0.72031 0.0
C2925 C 0.32854 0.91213 0.6903 0.0
C2926 C 0.29261 0.92906 0.69758 0.0
C2927 C 0.33498 0.89926 0.68581 0.0
C2928 C 0.27257 0.978 0.73241 0.0
C2929 C 0.27694 0.96535 0.72528 0.0
C2930 C 0.31024 0.94857 0.71387 0.0
C2931 C 0.3139 0.91221 0.69441 0.0
C2932 C 0.30742 0.92582 0.70021 0.0
C2933 C 0.28955 0.96552 0.71702 0.0
C2934 C 0.29551 0.95181 0.71118 0.0
H2935 H 0.30572 0.87626 0.68807 0.0
H2936 H 0.29452 0.8986 0.69648 0.0
H2937 H 0.32737 0.93351 0.71126 0.0
H2938 H 0.29914 1.00127 0.721 0.0
H2939 H 0.30677 0.97925 0.7088 0.0
C2940 C 0.64189 0.82073 0.67596 0.0
C2941 C 0.6421 0.83532 0.67146 0.0
C2942 C 0.62905 0.81431 0.68097 0.0
C2943 C 0.59343 0.82498 0.69568 0.0
H2944 H 0.5839 0.78387 0.69137 0.0
C2945 C 0.53872 0.80173 0.71363 0.0
C2946 C 0.53964 0.79003 0.72345 0.0
C2947 C 0.55076 0.806 0.70569 0.0
C2948 C 0.58647 0.79536 0.69266 0.0
H2949 H 0.62902 0.85442 0.66784 0.0
H2950 H 0.60651 0.84316 0.67585 0.0
H2951 H 0.60572 0.79389 0.68023 0.0
H2952 H 0.5537 0.77303 0.73186 0.0
H2953 H 0.57471 0.78041 0.71775 0.0
H2954 H 0.5741 0.82649 0.70789 0.0
C2955 C 0.61629 0.83674 0.67615 0.0
C2956 C 0.599 0.80112 0.68635 0.0
C2957 C 0.62915 0.84319 0.67142 0.0
C2958 C 0.55262 0.78211 0.72442 0.0
C2959 C 0.56465 0.7863 0.71633 0.0
C2960 C 0.58085 0.81929 0.70177 0.0
C2961 C 0.61611 0.82233 0.68137 0.0
C2962 C 0.60266 0.81603 0.68778 0.0
C2963 C 0.56396 0.79858 0.70724 0.0
C2964 C 0.57722 0.80443 0.70034 0.0
H2965 H 0.65179 0.81448 0.67616 0.0
H2966 H 0.62944 0.80326 0.685 0.0
H2967 H 0.59602 0.8364 0.69745 0.0
H2968 H 0.5289 0.80805 0.71253 0.0
H2969 H 0.54987 0.81538 0.69861 0.0
C2970 C 0.38292 0.21375 0.68884 0.0
C2971 C 0.38166 0.19848 0.68773 0.0
C2972 C 0.39574 0.22036 0.69457 0.0
C2973 C 0.42746 0.21193 0.71861 0.0
H2974 H 0.44485 0.24714 0.7031 0.0
C2975 C 0.48391 0.23011 0.73855 0.0
C2976 C 0.48594 0.24471 0.74281 0.0
C2977 C 0.47163 0.22572 0.73031 0.0
C2978 C 0.44003 0.23738 0.70761 0.0
H2979 H 0.39318 0.17828 0.69104 0.0
H2980 H 0.41543 0.18974 0.70094 0.0
H2981 H 0.42237 0.23696 0.69167 0.0
H2982 H 0.47713 0.26638 0.74105 0.0
H2983 H 0.45531 0.25862 0.72658 0.0
H2984 H 0.44493 0.21223 0.7345 0.0
C2985 C 0.40642 0.19662 0.69773 0.0
C2986 C 0.42717 0.23155 0.70109 0.0
C2987 C 0.39365 0.19004 0.69204 0.0
C2988 C 0.47585 0.25506 0.73783 0.0
C2989 C 0.46337 0.25061 0.7296 0.0
C2990 C 0.44022 0.21771 0.72508 0.0
C2991 C 0.40756 0.21185 0.6993 0.0
C2992 C 0.42086 0.21861 0.70639 0.0
C2993 C 0.46089 0.23577 0.72623 0.0
C2994 C 0.44683 0.23035 0.71953 0.0
H2995 H 0.37385 0.22057 0.68569 0.0
H2996 H 0.39621 0.2321 0.69571 0.0
H2997 H 0.4227 0.2022 0.72326 0.0
H2998 H 0.49161 0.22191 0.74208 0.0
H2999 H 0.47028 0.21428 0.72755 0.0
C3000 C 0.67271 0.70611 0.13858 0.0
C3001 C 0.67487 0.69098 0.1381 0.0
C3002 C 0.67637 0.71499 0.12686 0.0
C3003 C 0.68551 0.71342 0.08751 0.0
H3004 H 0.70109 0.75228 0.09522 0.0
C3005 C 0.71602 0.74797 0.04524 0.0
C3006 C 0.71196 0.7626 0.04376 0.0
C3007 C 0.71047 0.73935 0.05635 0.0
C3008 C 0.69662 0.7415 0.09291 0.0
H3009 H 0.68251 0.6734 0.12465 0.0
H3010 H 0.68961 0.68888 0.10465 0.0
H3011 H 0.69374 0.73701 0.11545 0.0
H3012 H 0.69893 0.77966 0.05271 0.0
H3013 H 0.68939 0.76462 0.07237 0.0
H3014 H 0.68899 0.71783 0.06497 0.0
C3015 C 0.68471 0.6939 0.11392 0.0
C3016 C 0.69234 0.73273 0.10449 0.0
C3017 C 0.68086 0.68501 0.12556 0.0
C3018 C 0.70215 0.7684 0.05355 0.0
C3019 C 0.69679 0.75984 0.06483 0.0
C3020 C 0.69001 0.72211 0.07596 0.0
C3021 C 0.68251 0.70903 0.11438 0.0
C3022 C 0.68676 0.71853 0.10198 0.0
C3023 C 0.70093 0.74523 0.06636 0.0
C3024 C 0.69564 0.73622 0.07855 0.0
H3025 H 0.66833 0.71119 0.1481 0.0
H3026 H 0.6743 0.72653 0.12758 0.0
H3027 H 0.68099 0.70271 0.08505 0.0
H3028 H 0.72348 0.74321 0.03778 0.0
H3029 H 0.71391 0.72816 0.05732 0.0
C3030 C 0.33411 0.68182 0.12177 0.0
C3031 C 0.3257 0.68092 0.13422 0.0
C3032 C 0.32783 0.68596 0.10838 0.0
C3033 C 0.29201 0.69113 0.08856 0.0
H3034 H 0.31596 0.71388 0.0628 0.0
C3035 C 0.27109 0.72265 0.03676 0.0
C3036 C 0.2797 0.72157 0.02441 0.0
C3037 C 0.27557 0.71627 0.04999 0.0
C3038 C 0.30917 0.70742 0.06982 0.0
H3039 H 0.3041 0.68362 0.14243 0.0
H3040 H 0.29318 0.69139 0.11916 0.0
H3041 H 0.32602 0.70624 0.08629 0.0
H3042 H 0.2993 0.71211 0.01615 0.0
H3043 H 0.30708 0.70118 0.03917 0.0
H3044 H 0.27499 0.6929 0.07206 0.0
C3045 C 0.30456 0.68854 0.1196 0.0
C3046 C 0.31495 0.70295 0.0833 0.0
C3047 C 0.31082 0.68416 0.13298 0.0
C3048 C 0.29242 0.71326 0.02541 0.0
C3049 C 0.29695 0.70705 0.03864 0.0
C3050 C 0.28615 0.69582 0.07511 0.0
C3051 C 0.313 0.68958 0.1071 0.0
C3052 C 0.30654 0.6946 0.09284 0.0
C3053 C 0.2888 0.70883 0.05116 0.0
C3054 C 0.29473 0.70388 0.06554 0.0
H3055 H 0.34555 0.67915 0.12235 0.0
H3056 H 0.33465 0.68622 0.09899 0.0
H3057 H 0.28521 0.68458 0.09547 0.0
H3058 H 0.26124 0.72897 0.03639 0.0
H3059 H 0.26907 0.71782 0.05948 0.0
C3060 C 0.33753 0.33141 0.14619 0.0
C3061 C 0.34239 0.32294 0.15806 0.0
C3062 C 0.33233 0.32482 0.13327 0.0
C3063 C 0.31698 0.29027 0.11819 0.0
H3064 H 0.3257 0.30845 0.08138 0.0
C3065 C 0.29323 0.26845 0.06253 0.0
C3066 C 0.28643 0.27937 0.05419 0.0
C3067 C 0.3023 0.27222 0.07463 0.0
C3068 C 0.32319 0.30321 0.09157 0.0
H3069 H 0.34537 0.30081 0.16564 0.0
H3070 H 0.33647 0.28928 0.14299 0.0
H3071 H 0.33687 0.3181 0.1039 0.0
H3072 H 0.28435 0.3027 0.05148 0.0
H3073 H 0.30018 0.3092 0.07221 0.0
H3074 H 0.30304 0.27555 0.10579 0.0
C3075 C 0.33661 0.30105 0.14373 0.0
C3076 C 0.32953 0.30879 0.10449 0.0
C3077 C 0.34184 0.30767 0.15668 0.0
C3078 C 0.2894 0.29403 0.05772 0.0
C3079 C 0.29857 0.29777 0.06957 0.0
C3080 C 0.31065 0.28465 0.10522 0.0
C3081 C 0.33185 0.30955 0.13183 0.0
C3082 C 0.32621 0.30264 0.11801 0.0
C3083 C 0.30491 0.28695 0.07836 0.0
C3084 C 0.31339 0.29131 0.09181 0.0
H3085 H 0.33795 0.34319 0.1468 0.0
H3086 H 0.32855 0.33172 0.12443 0.0
H3087 H 0.31412 0.28529 0.12841 0.0
H3088 H 0.29104 0.25707 0.0601 0.0
H3089 H 0.30709 0.26364 0.08119 0.0
C3090 C 0.68996 0.32602 0.14272 0.0
C3091 C 0.68892 0.34115 0.14479 0.0
C3092 C 0.69578 0.3204 0.1301 0.0
C3093 C 0.71959 0.32826 0.0999 0.0
H3094 H 0.69714 0.29731 0.08054 0.0
C3095 C 0.73654 0.30267 0.04518 0.0
C3096 C 0.73429 0.28757 0.04349 0.0
C3097 C 0.73101 0.31004 0.05711 0.0
C3098 C 0.70367 0.30581 0.08588 0.0
H3099 H 0.6938 0.36224 0.13537 0.0
H3100 H 0.70433 0.35232 0.11333 0.0
H3101 H 0.68796 0.30865 0.10227 0.0
H3102 H 0.72486 0.26832 0.05326 0.0
H3103 H 0.71547 0.281 0.07411 0.0
H3104 H 0.73551 0.32515 0.08371 0.0
C3105 C 0.70047 0.34488 0.12153 0.0
C3106 C 0.69835 0.31235 0.09831 0.0
C3107 C 0.69447 0.35054 0.13416 0.0
C3108 C 0.72652 0.27999 0.05407 0.0
C3109 C 0.72111 0.2873 0.06603 0.0
C3110 C 0.725 0.3216 0.0875 0.0
C3111 C 0.70091 0.32974 0.11927 0.0
C3112 C 0.70632 0.32352 0.10557 0.0
C3113 C 0.72318 0.30244 0.06769 0.0
C3114 C 0.71719 0.31014 0.08043 0.0
H3115 H 0.68618 0.31845 0.15085 0.0
H3116 H 0.69627 0.30869 0.12881 0.0
H3117 H 0.72599 0.3368 0.10532 0.0
H3118 H 0.74237 0.30883 0.03713 0.0
H3119 H 0.73267 0.32171 0.05791 0.0
C3120 C 0.69532 0.35772 0.88334 0.0
C3121 C 0.69032 0.34894 0.87158 0.0
C3122 C 0.70164 0.35148 0.89584 0.0
C3123 C 0.72049 0.31834 0.90817 0.0
H3124 H 0.71391 0.33365 0.94673 0.0
C3125 C 0.74437 0.29131 0.96024 0.0
C3126 C 0.75016 0.30059 0.97125 0.0
C3127 C 0.73646 0.29695 0.94833 0.0
C3128 C 0.71598 0.32934 0.93603 0.0
H3129 H 0.68778 0.32667 0.86391 0.0
H3130 H 0.69858 0.31575 0.88585 0.0
H3131 H 0.70081 0.34378 0.92566 0.0
H3132 H 0.75212 0.32309 0.97836 0.0
H3133 H 0.73845 0.33294 0.95751 0.0
H3134 H 0.73574 0.30398 0.9185 0.0
C3135 C 0.69778 0.32749 0.88531 0.0
C3136 C 0.70845 0.33514 0.92395 0.0
C3137 C 0.69143 0.33374 0.8728 0.0
C3138 C 0.7478 0.31563 0.97009 0.0
C3139 C 0.73988 0.32127 0.95818 0.0
C3140 C 0.72801 0.31254 0.92025 0.0
C3141 C 0.70313 0.3363 0.89691 0.0
C3142 C 0.71067 0.32976 0.90986 0.0
C3143 C 0.73414 0.312 0.94713 0.0
C3144 C 0.7259 0.31801 0.93432 0.0
H3145 H 0.69447 0.36946 0.88282 0.0
H3146 H 0.70574 0.35861 0.9045 0.0
H3147 H 0.72266 0.3141 0.89747 0.0
H3148 H 0.74593 0.27966 0.9608 0.0
H3149 H 0.73204 0.28947 0.94012 0.0
C3150 C 0.71075 0.71398 0.87004 0.0
C3151 C 0.70782 0.69893 0.86943 0.0
C3152 C 0.71708 0.72036 0.88256 0.0
C3153 C 0.73726 0.7138 0.9174 0.0
H3154 H 0.71806 0.74918 0.92864 0.0
C3155 C 0.74746 0.74559 0.97279 0.0
C3156 C 0.74681 0.76083 0.97171 0.0
C3157 C 0.74455 0.73683 0.9604 0.0
C3158 C 0.72369 0.73942 0.9256 0.0
H3159 H 0.70996 0.67864 0.88125 0.0
H3160 H 0.72104 0.68988 0.90332 0.0
H3161 H 0.70957 0.73616 0.90693 0.0
H3162 H 0.74398 0.77889 0.95683 0.0
H3163 H 0.73947 0.76381 0.93536 0.0
H3164 H 0.7514 0.71723 0.93629 0.0
C3165 C 0.71844 0.6967 0.89402 0.0
C3166 C 0.7188 0.73193 0.91313 0.0
C3167 C 0.7121 0.69027 0.8814 0.0
C3168 C 0.74436 0.76715 0.95799 0.0
C3169 C 0.74166 0.7585 0.9457 0.0
C3170 C 0.74221 0.72137 0.92999 0.0
C3171 C 0.72062 0.71189 0.89487 0.0
C3172 C 0.72566 0.71919 0.90868 0.0
C3173 C 0.74107 0.74324 0.94682 0.0
C3174 C 0.73563 0.73444 0.93405 0.0
H3175 H 0.7079 0.7209 0.86089 0.0
H3176 H 0.71895 0.73204 0.8827 0.0
H3177 H 0.74274 0.70398 0.91428 0.0
H3178 H 0.74925 0.74048 0.98329 0.0
H3179 H 0.74423 0.72511 0.96161 0.0
C3180 C 0.3342 0.69345 0.85707 0.0
C3181 C 0.34925 0.69122 0.85625 0.0
C3182 C 0.32853 0.70039 0.8692 0.0
C3183 C 0.33954 0.72447 0.90046 0.0
H3184 H 0.3029 0.7114 0.91602 0.0
C3185 C 0.31962 0.7441 0.95619 0.0
C3186 C 0.30473 0.74713 0.95731 0.0
C3187 C 0.32485 0.73766 0.94361 0.0
C3188 C 0.31307 0.7153 0.91172 0.0
H3189 H 0.37007 0.69413 0.86777 0.0
H3190 H 0.36022 0.70603 0.88891 0.0
H3191 H 0.3123 0.69926 0.89473 0.0
H3192 H 0.28379 0.74604 0.94569 0.0
H3193 H 0.2929 0.73473 0.92386 0.0
H3194 H 0.34037 0.74039 0.91755 0.0
C3195 C 0.35279 0.70277 0.88006 0.0
C3196 C 0.31847 0.70834 0.89948 0.0
C3197 C 0.35845 0.6959 0.86793 0.0
C3198 C 0.29526 0.74366 0.9454 0.0
C3199 C 0.30049 0.73717 0.93283 0.0
C3200 C 0.33417 0.73138 0.91272 0.0
C3201 C 0.33776 0.70521 0.88084 0.0
C3202 C 0.33182 0.71278 0.89372 0.0
C3203 C 0.31534 0.73403 0.9318 0.0
C3204 C 0.32089 0.72686 0.91854 0.0
H3205 H 0.32683 0.69013 0.8482 0.0
H3206 H 0.31693 0.70223 0.86931 0.0
H3207 H 0.34971 0.7284 0.89618 0.0
H3208 H 0.32725 0.74637 0.96515 0.0
H3209 H 0.33633 0.73522 0.94327 0.0
C3210 C 0.33525 0.32699 0.8844 0.0
C3211 C 0.33745 0.34201 0.88227 0.0
C3212 C 0.32766 0.3219 0.89638 0.0
C3213 C 0.30122 0.33371 0.92335 0.0
H3214 H 0.31401 0.29951 0.94453 0.0
C3215 C 0.27591 0.31556 0.97743 0.0
C3216 C 0.27369 0.30054 0.97949 0.0
C3217 C 0.28361 0.32069 0.96554 0.0
C3218 C 0.31019 0.30899 0.93863 0.0
H3219 H 0.33384 0.36342 0.89134 0.0
H3220 H 0.32066 0.35457 0.9122 0.0
H3221 H 0.32779 0.30821 0.92397 0.0
H3222 H 0.27736 0.27917 0.97031 0.0
H3223 H 0.29073 0.28809 0.94964 0.0
H3224 H 0.28361 0.33448 0.938 0.0
C3225 C 0.32453 0.34672 0.90447 0.0
C3226 C 0.3181 0.31397 0.92684 0.0
C3227 C 0.3321 0.3518 0.89252 0.0
C3228 C 0.27914 0.29079 0.96925 0.0
C3229 C 0.28681 0.29591 0.95738 0.0
C3230 C 0.29331 0.32873 0.93514 0.0
C3231 C 0.32211 0.33172 0.9065 0.0
C3232 C 0.31371 0.32639 0.91905 0.0
C3233 C 0.28924 0.31092 0.95542 0.0
C3234 C 0.29769 0.3163 0.94292 0.0
H3235 H 0.33909 0.31918 0.87662 0.0
H3236 H 0.32585 0.31029 0.89752 0.0
H3237 H 0.29739 0.34317 0.91744 0.0
H3238 H 0.27199 0.32334 0.98518 0.0
H3239 H 0.28542 0.33232 0.96444 0.0
C3240 C 0.62904 0.68379 0.17251 0.0
C3241 C 0.64191 0.67871 0.17932 0.0
C3242 C 0.61685 0.68685 0.18065 0.0
C3243 C 0.60573 0.69398 0.21864 0.0
H3244 H 0.56699 0.68646 0.20202 0.0
C3245 C 0.55347 0.69855 0.25192 0.0
C3246 C 0.54217 0.70659 0.24532 0.0
C3247 C 0.56556 0.69464 0.24398 0.0
C3248 C 0.57775 0.68868 0.20677 0.0
H3249 H 0.65196 0.67297 0.2002 0.0
H3250 H 0.63058 0.67766 0.21425 0.0
H3251 H 0.58821 0.68051 0.18805 0.0
H3252 H 0.53447 0.71644 0.22516 0.0
H3253 H 0.55549 0.70948 0.21126 0.0
H3254 H 0.59516 0.7019 0.23747 0.0
C3255 C 0.62997 0.6796 0.20263 0.0
C3256 C 0.58993 0.68534 0.19874 0.0
C3257 C 0.6422 0.67668 0.19451 0.0
C3258 C 0.54307 0.71037 0.23056 0.0
C3259 C 0.55504 0.70628 0.22258 0.0
C3260 C 0.59354 0.69715 0.22673 0.0
C3261 C 0.61713 0.68477 0.19583 0.0
C3262 C 0.60411 0.68804 0.20452 0.0
C3263 C 0.56648 0.69849 0.22923 0.0
C3264 C 0.57942 0.69463 0.22084 0.0
H3265 H 0.62829 0.6853 0.16082 0.0
H3266 H 0.60727 0.69101 0.17501 0.0
H3267 H 0.61642 0.69647 0.22338 0.0
H3268 H 0.55312 0.69559 0.2633 0.0
H3269 H 0.57417 0.68855 0.24937 0.0
C3270 C 0.32138 0.63593 0.17153 0.0
C3271 C 0.32724 0.64848 0.17847 0.0
C3272 C 0.31699 0.62386 0.17969 0.0
C3273 C 0.30868 0.61207 0.21754 0.0
H3274 H 0.31761 0.57379 0.20272 0.0
C3275 C 0.308 0.56012 0.25326 0.0
C3276 C 0.30124 0.54762 0.24708 0.0
C3277 C 0.31045 0.57252 0.24478 0.0
C3278 C 0.31493 0.5844 0.20695 0.0
H3279 H 0.33235 0.65836 0.19954 0.0
H3280 H 0.32526 0.63726 0.21367 0.0
H3281 H 0.32271 0.59527 0.18811 0.0
H3282 H 0.29202 0.53827 0.22708 0.0
H3283 H 0.29636 0.55986 0.21228 0.0
H3284 H 0.30125 0.60112 0.23656 0.0
C3285 C 0.32386 0.63672 0.20193 0.0
C3286 C 0.31778 0.59674 0.19854 0.0
C3287 C 0.32813 0.64881 0.19379 0.0
C3288 C 0.29712 0.54776 0.2322 0.0
C3289 C 0.29972 0.56009 0.22369 0.0
C3290 C 0.30596 0.59973 0.226 0.0
C3291 C 0.31841 0.62399 0.19501 0.0
C3292 C 0.31475 0.61078 0.20373 0.0
C3293 C 0.30637 0.57263 0.22989 0.0
C3294 C 0.30909 0.58576 0.22083 0.0
H3295 H 0.3206 0.63523 0.15976 0.0
H3296 H 0.31261 0.61436 0.17396 0.0
H3297 H 0.30594 0.62264 0.22182 0.0
H3298 H 0.3112 0.56039 0.2647 0.0
H3299 H 0.31571 0.58197 0.24985 0.0
C3300 C 0.38234 0.32452 0.21334 0.0
C3301 C 0.38074 0.32623 0.19816 0.0
C3302 C 0.39508 0.31859 0.21957 0.0
C3303 C 0.42567 0.2953 0.20946 0.0
H3304 H 0.44464 0.30911 0.24537 0.0
C3305 C 0.48239 0.27644 0.2249 0.0
C3306 C 0.48464 0.27058 0.23887 0.0
C3307 C 0.47017 0.28472 0.22157 0.0
C3308 C 0.43937 0.30508 0.2354 0.0
H3309 H 0.39159 0.32386 0.17773 0.0
H3310 H 0.4137 0.31372 0.18849 0.0
H3311 H 0.42217 0.32063 0.23624 0.0
H3312 H 0.47637 0.26955 0.26064 0.0
H3313 H 0.45469 0.28418 0.25476 0.0
H3314 H 0.44277 0.27991 0.20845 0.0
C3315 C 0.40501 0.31653 0.19561 0.0
C3316 C 0.42651 0.31165 0.23018 0.0
C3317 C 0.39233 0.32237 0.18942 0.0
C3318 C 0.47493 0.27405 0.24981 0.0
C3319 C 0.46252 0.28236 0.24643 0.0
C3320 C 0.43845 0.28884 0.21461 0.0
C3321 C 0.40647 0.31428 0.21073 0.0
C3322 C 0.41966 0.30699 0.21698 0.0
C3323 C 0.45976 0.28726 0.23209 0.0
C3324 C 0.44563 0.2938 0.22748 0.0
H3325 H 0.37359 0.32737 0.22037 0.0
H3326 H 0.3958 0.31696 0.23124 0.0
H3327 H 0.42049 0.29111 0.19952 0.0
H3328 H 0.48978 0.27405 0.21629 0.0
H3329 H 0.46856 0.28864 0.21053 0.0
C3330 C 0.7017 0.3781 0.18919 0.0
C3331 C 0.68658 0.37665 0.18663 0.0
C3332 C 0.70756 0.38989 0.19719 0.0
C3333 C 0.70006 0.42745 0.20849 0.0
H3334 H 0.73305 0.42119 0.23501 0.0
C3335 C 0.73193 0.4752 0.23774 0.0
C3336 C 0.74701 0.4745 0.23581 0.0
C3337 C 0.72289 0.46308 0.23436 0.0
C3338 C 0.72382 0.42313 0.22767 0.0
H3339 H 0.66578 0.38654 0.19043 0.0
H3340 H 0.67605 0.40716 0.20447 0.0
H3341 H 0.72042 0.40035 0.22364 0.0
H3342 H 0.76451 0.46045 0.22963 0.0
H3343 H 0.74896 0.43951 0.22398 0.0
H3344 H 0.7038 0.4503 0.21223 0.0
C3345 C 0.68335 0.39916 0.20024 0.0
C3346 C 0.71662 0.41119 0.22111 0.0
C3347 C 0.67747 0.3873 0.19229 0.0
C3348 C 0.75292 0.46135 0.23116 0.0
C3349 C 0.744 0.44928 0.22802 0.0
C3350 C 0.7073 0.43944 0.21507 0.0
C3351 C 0.69848 0.40057 0.20283 0.0
C3352 C 0.70493 0.41321 0.2111 0.0
C3353 C 0.72885 0.45003 0.2293 0.0
C3354 C 0.71954 0.43742 0.2244 0.0
H3355 H 0.70902 0.37002 0.18514 0.0
H3356 H 0.71927 0.39073 0.19879 0.0
H3357 H 0.69112 0.4294 0.2008 0.0
H3358 H 0.7271 0.48524 0.24125 0.0
H3359 H 0.71124 0.46395 0.2355 0.0
C3360 C 0.64361 0.3579 0.82238 0.0
C3361 C 0.65439 0.34922 0.8291 0.0
C3362 C 0.63102 0.35148 0.81588 0.0
C3363 C 0.60848 0.31838 0.81872 0.0
H3364 H 0.59215 0.32783 0.78049 0.0
C3365 C 0.56716 0.28024 0.79119 0.0
C3366 C 0.55447 0.28596 0.78466 0.0
C3367 C 0.57888 0.28928 0.79529 0.0
C3368 C 0.59648 0.32524 0.79126 0.0
H3369 H 0.66076 0.32695 0.83336 0.0
H3370 H 0.63886 0.31587 0.82231 0.0
H3371 H 0.61371 0.34132 0.79021 0.0
H3372 H 0.5444 0.30563 0.77655 0.0
H3373 H 0.56511 0.32173 0.78399 0.0
H3374 H 0.59148 0.30238 0.81993 0.0
C3375 C 0.63998 0.32764 0.82228 0.0
C3376 C 0.60881 0.33293 0.79681 0.0
C3377 C 0.65253 0.334 0.82867 0.0
C3378 C 0.55405 0.30095 0.7816 0.0
C3379 C 0.56588 0.31013 0.78585 0.0
C3380 C 0.59622 0.31081 0.81326 0.0
C3381 C 0.62895 0.33629 0.81606 0.0
C3382 C 0.61515 0.32929 0.81046 0.0
C3383 C 0.57824 0.30439 0.79316 0.0
C3384 C 0.59028 0.31383 0.7993 0.0
H3385 H 0.64466 0.36966 0.82256 0.0
H3386 H 0.6227 0.35843 0.81119 0.0
H3387 H 0.61286 0.31558 0.82943 0.0
H3388 H 0.56798 0.26869 0.79342 0.0
H3389 H 0.58839 0.28442 0.80045 0.0
C3390 C 0.70057 0.66002 0.81469 0.0
C3391 C 0.70076 0.66079 0.83 0.0
C3392 C 0.7049 0.64739 0.80759 0.0
C3393 C 0.71054 0.60791 0.81346 0.0
H3394 H 0.73588 0.61113 0.78066 0.0
C3395 C 0.74782 0.56209 0.79642 0.0
C3396 C 0.75068 0.55985 0.78167 0.0
C3397 C 0.73908 0.57348 0.8007 0.0
C3398 C 0.72856 0.61002 0.7896 0.0
H3399 H 0.70562 0.64881 0.84982 0.0
H3400 H 0.7134 0.62686 0.83745 0.0
H3401 H 0.72627 0.63312 0.79152 0.0
H3402 H 0.74619 0.56746 0.75972 0.0
H3403 H 0.73082 0.58767 0.76725 0.0
H3404 H 0.71314 0.58485 0.81179 0.0
C3405 C 0.70972 0.63597 0.83092 0.0
C3406 C 0.72308 0.62264 0.79588 0.0
C3407 C 0.70544 0.64862 0.83803 0.0
C3408 C 0.74407 0.56889 0.77116 0.0
C3409 C 0.7354 0.58051 0.77548 0.0
C3410 C 0.716 0.59532 0.80719 0.0
C3411 C 0.70949 0.63518 0.81561 0.0
C3412 C 0.71428 0.62175 0.80811 0.0
C3413 C 0.73304 0.58307 0.79036 0.0
C3414 C 0.72537 0.59623 0.79542 0.0
H3415 H 0.69719 0.66925 0.80817 0.0
H3416 H 0.70451 0.64714 0.79579 0.0
H3417 H 0.70352 0.6068 0.82264 0.0
H3418 H 0.75275 0.55527 0.80477 0.0
H3419 H 0.73766 0.57518 0.81223 0.0
C3420 C 0.39948 0.69481 0.82815 0.0
C3421 C 0.38799 0.68963 0.81896 0.0
C3422 C 0.41219 0.70058 0.82232 0.0
C3423 C 0.4264 0.71703 0.78885 0.0
H3424 H 0.46378 0.71009 0.80819 0.0
C3425 C 0.48024 0.74282 0.76876 0.0
C3426 C 0.48857 0.74989 0.77985 0.0
C3427 C 0.4687 0.73341 0.77225 0.0
C3428 C 0.45342 0.71213 0.80266 0.0
H3429 H 0.38086 0.68658 0.7964 0.0
H3430 H 0.40314 0.6964 0.78624 0.0
H3431 H 0.44199 0.69782 0.81683 0.0
H3432 H 0.4918 0.75212 0.80325 0.0
H3433 H 0.47191 0.73575 0.80929 0.0
H3434 H 0.43786 0.73154 0.77483 0.0
C3435 C 0.40227 0.69611 0.79796 0.0
C3436 C 0.44092 0.70515 0.80765 0.0
C3437 C 0.38956 0.69034 0.80379 0.0
C3438 C 0.48555 0.74689 0.79444 0.0
C3439 C 0.4742 0.73741 0.79792 0.0
C3440 C 0.43893 0.72398 0.78382 0.0
C3441 C 0.41375 0.70131 0.80715 0.0
C3442 C 0.4272 0.70776 0.80102 0.0
C3443 C 0.46546 0.73075 0.7869 0.0
C3444 C 0.45253 0.72186 0.79088 0.0
H3445 H 0.39871 0.6943 0.83987 0.0
H3446 H 0.42071 0.70468 0.82973 0.0
H3447 H 0.41601 0.71939 0.78355 0.0
H3448 H 0.48229 0.74498 0.75742 0.0
H3449 H 0.46219 0.72836 0.76353 0.0
C3450 C 0.32636 0.37749 0.83578 0.0
C3451 C 0.34048 0.37815 0.84209 0.0
C3452 C 0.31992 0.39003 0.83008 0.0
C3453 C 0.31934 0.42901 0.83533 0.0
H3454 H 0.30063 0.43029 0.79693 0.0
C3455 C 0.29339 0.48173 0.81275 0.0
C3456 C 0.28122 0.48043 0.80316 0.0
C3457 C 0.30094 0.46936 0.81735 0.0
C3458 C 0.30556 0.43008 0.80779 0.0
H3459 H 0.35903 0.39222 0.84734 0.0
H3460 H 0.34759 0.41435 0.83764 0.0
H3461 H 0.31345 0.40847 0.80472 0.0
H3462 H 0.26708 0.46524 0.79126 0.0
H3463 H 0.27971 0.44356 0.79979 0.0
H3464 H 0.311 0.45028 0.83878 0.0
C3465 C 0.34161 0.40409 0.83696 0.0
C3466 C 0.31302 0.4176 0.81218 0.0
C3467 C 0.34818 0.39148 0.8424 0.0
C3468 C 0.2765 0.46651 0.79858 0.0
C3469 C 0.28386 0.45411 0.80337 0.0
C3470 C 0.31165 0.44141 0.83107 0.0
C3471 C 0.32737 0.4035 0.83088 0.0
C3472 C 0.31998 0.41695 0.82598 0.0
C3473 C 0.29635 0.45535 0.81265 0.0
C3474 C 0.30461 0.44213 0.81723 0.0
H3475 H 0.32022 0.36732 0.83553 0.0
H3476 H 0.3089 0.38929 0.82554 0.0
H3477 H 0.32446 0.4287 0.84612 0.0
H3478 H 0.29739 0.49236 0.81626 0.0
H3479 H 0.31061 0.47086 0.82426 0.0
C3480 C 0.68998 0.63824 0.15946 0.0
C3481 C 0.68537 0.64788 0.17022 0.0
C3482 C 0.69833 0.62614 0.16326 0.0
C3483 C 0.7082 0.6028 0.19501 0.0
H3484 H 0.73827 0.58922 0.16993 0.0
C3485 C 0.73722 0.54894 0.20685 0.0
C3486 C 0.75226 0.54845 0.20473 0.0
C3487 C 0.72907 0.56069 0.20173 0.0
C3488 C 0.73 0.59292 0.17713 0.0
H3489 H 0.68628 0.65264 0.19334 0.0
H3490 H 0.70111 0.63178 0.19997 0.0
H3491 H 0.72461 0.61085 0.16321 0.0
H3492 H 0.77053 0.55975 0.19536 0.0
H3493 H 0.75641 0.58049 0.18667 0.0
H3494 H 0.71392 0.58528 0.2092 0.0
C3495 C 0.69796 0.63327 0.18862 0.0
C3496 C 0.72202 0.60524 0.17318 0.0
C3497 C 0.68949 0.64528 0.18483 0.0
C3498 C 0.75893 0.55978 0.19702 0.0
C3499 C 0.7508 0.57166 0.19203 0.0
C3500 C 0.71624 0.59058 0.199 0.0
C3501 C 0.70239 0.62345 0.17791 0.0
C3502 C 0.71099 0.61035 0.18207 0.0
C3503 C 0.73579 0.57238 0.19452 0.0
C3504 C 0.72723 0.58542 0.19011 0.0
H3505 H 0.68684 0.63989 0.14812 0.0
H3506 H 0.70134 0.61872 0.15473 0.0
H3507 H 0.69967 0.60624 0.20204 0.0
H3508 H 0.73175 0.54024 0.21255 0.0
H3509 H 0.71748 0.56063 0.20353 0.0
C3510 C 0.68813 0.39858 0.82657 0.0
C3511 C 0.69539 0.3866 0.83275 0.0
C3512 C 0.696 0.41088 0.8221 0.0
C3513 C 0.73078 0.43025 0.82946 0.0
H3514 H 0.72268 0.44962 0.79272 0.0
C3515 C 0.76819 0.47626 0.80839 0.0
C3516 C 0.7617 0.4877 0.80056 0.0
C3517 C 0.75991 0.46405 0.81234 0.0
C3518 C 0.72496 0.44449 0.80313 0.0
H3519 H 0.71668 0.37785 0.83821 0.0
H3520 H 0.73029 0.39932 0.83065 0.0
H3521 H 0.7084 0.4281 0.79918 0.0
H3522 H 0.74136 0.49557 0.79124 0.0
H3523 H 0.72686 0.47452 0.7984 0.0
H3524 H 0.74714 0.44668 0.8336 0.0
C3525 C 0.71853 0.39932 0.82951 0.0
C3526 C 0.71678 0.43212 0.80679 0.0
C3527 C 0.7107 0.38702 0.83386 0.0
C3528 C 0.74671 0.48682 0.79706 0.0
C3529 C 0.73841 0.4747 0.80113 0.0
C3530 C 0.73886 0.44268 0.82588 0.0
C3531 C 0.71127 0.41148 0.82379 0.0
C3532 C 0.71967 0.42481 0.81995 0.0
C3533 C 0.74492 0.46307 0.80869 0.0
C3534 C 0.73612 0.44994 0.81263 0.0
H3535 H 0.67636 0.39865 0.82564 0.0
H3536 H 0.69012 0.42012 0.81776 0.0
H3537 H 0.73311 0.42498 0.8398 0.0
H3538 H 0.77974 0.47655 0.81108 0.0
H3539 H 0.76537 0.45523 0.81797 0.0
C3540 C 0.66623 0.71764 0.83254 0.0
C3541 C 0.66602 0.70235 0.83336 0.0
C3542 C 0.65386 0.72514 0.82774 0.0
C3543 C 0.61878 0.72053 0.80712 0.0
H3544 H 0.60896 0.75609 0.82716 0.0
C3545 C 0.57351 0.75859 0.78545 0.0
C3546 C 0.56436 0.76477 0.79567 0.0
C3547 C 0.58588 0.75094 0.79 0.0
C3548 C 0.61148 0.74612 0.82151 0.0
H3549 H 0.65262 0.68296 0.82972 0.0
H3550 H 0.63101 0.69605 0.82133 0.0
H3551 H 0.63039 0.74262 0.83519 0.0
H3552 H 0.56106 0.7676 0.81877 0.0
H3553 H 0.58261 0.75428 0.8267 0.0
H3554 H 0.59971 0.7239 0.79361 0.0
C3555 C 0.64081 0.70224 0.82425 0.0
C3556 C 0.62387 0.73849 0.826 0.0
C3557 C 0.6532 0.69472 0.82906 0.0
C3558 C 0.56795 0.76318 0.81058 0.0
C3559 C 0.58032 0.75552 0.81513 0.0
C3560 C 0.60639 0.72819 0.80261 0.0
C3561 C 0.64096 0.71755 0.82363 0.0
C3562 C 0.6277 0.72561 0.81886 0.0
C3563 C 0.58943 0.74928 0.8049 0.0
C3564 C 0.60259 0.74109 0.80974 0.0
H3565 H 0.676 0.72384 0.83553 0.0
H3566 H 0.65446 0.73691 0.82714 0.0
H3567 H 0.62147 0.71073 0.80129 0.0
H3568 H 0.57124 0.7598 0.77389 0.0
H3569 H 0.59279 0.7465 0.78181 0.0
C3570 C 0.3418 0.64076 0.82642 0.0
C3571 C 0.34805 0.65168 0.81781 0.0
C3572 C 0.3361 0.62792 0.82007 0.0
C3573 C 0.32407 0.6116 0.78427 0.0
H3574 H 0.32829 0.57542 0.80549 0.0
C3575 C 0.29392 0.55855 0.76617 0.0
C3576 C 0.30025 0.54507 0.76948 0.0
C3577 C 0.30058 0.57157 0.77097 0.0
C3578 C 0.3272 0.58536 0.79927 0.0
H3579 H 0.3527 0.65775 0.7956 0.0
H3580 H 0.34343 0.63524 0.78466 0.0
H3581 H 0.33804 0.5979 0.81613 0.0
H3582 H 0.31904 0.53477 0.77963 0.0
H3583 H 0.33098 0.55749 0.7875 0.0
H3584 H 0.31371 0.59898 0.76717 0.0
C3585 C 0.34268 0.63662 0.79632 0.0
C3586 C 0.33257 0.59836 0.80553 0.0
C3587 C 0.34821 0.6495 0.80264 0.0
C3588 C 0.31382 0.54496 0.77697 0.0
C3589 C 0.32059 0.55801 0.78163 0.0
C3590 C 0.31884 0.59858 0.77794 0.0
C3591 C 0.3366 0.62559 0.80493 0.0
C3592 C 0.33098 0.61169 0.79817 0.0
C3593 C 0.31386 0.57148 0.77906 0.0
C3594 C 0.32022 0.58528 0.78539 0.0
H3595 H 0.34157 0.64195 0.83814 0.0
H3596 H 0.33128 0.61983 0.82706 0.0
H3597 H 0.32247 0.62163 0.7783 0.0
H3598 H 0.28342 0.55907 0.76049 0.0
H3599 H 0.29494 0.58165 0.76888 0.0
C3600 C 0.38885 0.33411 0.85702 0.0
C3601 C 0.37811 0.33908 0.84704 0.0
C3602 C 0.40099 0.32672 0.8522 0.0
C3603 C 0.42243 0.31989 0.81935 0.0
H3604 H 0.4363 0.28669 0.84149 0.0
C3605 C 0.46564 0.28101 0.79759 0.0
C3606 C 0.47664 0.27639 0.80748 0.0
C3607 C 0.45365 0.28862 0.80244 0.0
C3608 C 0.43267 0.29603 0.83526 0.0
H3609 H 0.37178 0.34015 0.82414 0.0
H3610 H 0.3929 0.3272 0.81572 0.0
H3611 H 0.41552 0.30019 0.84984 0.0
H3612 H 0.4835 0.27625 0.8303 0.0
H3613 H 0.46257 0.28941 0.83873 0.0
H3614 H 0.43954 0.31564 0.80473 0.0
C3615 C 0.39206 0.32921 0.82728 0.0
C3616 C 0.42075 0.3038 0.84006 0.0
C3617 C 0.37993 0.33664 0.8321 0.0
C3618 C 0.4752 0.27943 0.82237 0.0
C3619 C 0.46318 0.28702 0.82722 0.0
C3620 C 0.43433 0.31209 0.81454 0.0
C3621 C 0.40271 0.32407 0.83727 0.0
C3622 C 0.41547 0.31584 0.83218 0.0
C3623 C 0.45228 0.29178 0.81731 0.0
C3624 C 0.4396 0.30006 0.82243 0.0
H3625 H 0.38791 0.33602 0.86859 0.0
H3626 H 0.4091 0.32319 0.8602 0.0
H3627 H 0.41883 0.32923 0.81312 0.0
H3628 H 0.4662 0.27865 0.78608 0.0
H3629 H 0.44534 0.2919 0.79452 0.0
C3630 C 0.3493 0.37499 0.19994 0.0
C3631 C 0.3406 0.36299 0.19542 0.0
C3632 C 0.34296 0.38778 0.2048 0.0
C3633 C 0.30838 0.40824 0.20405 0.0
H3634 H 0.32722 0.42875 0.23661 0.0
C3635 C 0.2841 0.45851 0.2339 0.0
C3636 C 0.2942 0.46941 0.23842 0.0
C3637 C 0.28888 0.44559 0.2275 0.0
C3638 C 0.32189 0.42325 0.2274 0.0
H3639 H 0.31833 0.35503 0.1926 0.0
H3640 H 0.30726 0.37735 0.20118 0.0
H3641 H 0.33721 0.406 0.22824 0.0
H3642 H 0.31702 0.4758 0.23874 0.0
H3643 H 0.32524 0.4536 0.22745 0.0
H3644 H 0.29297 0.42561 0.20337 0.0
C3645 C 0.31901 0.37694 0.20076 0.0
C3646 C 0.32764 0.41018 0.22259 0.0
C3647 C 0.32536 0.36413 0.19587 0.0
C3648 C 0.30898 0.46754 0.23556 0.0
C3649 C 0.31372 0.45475 0.22918 0.0
C3650 C 0.30258 0.42136 0.20892 0.0
C3651 C 0.32773 0.38893 0.20532 0.0
C3652 C 0.3211 0.40257 0.21073 0.0
C3653 C 0.30383 0.44339 0.22553 0.0
C3654 C 0.3094 0.42913 0.22053 0.0
H3655 H 0.36105 0.37462 0.19947 0.0
H3656 H 0.35004 0.39688 0.20794 0.0
H3657 H 0.30311 0.40273 0.19482 0.0
H3658 H 0.27265 0.45961 0.23603 0.0
H3659 H 0.28099 0.43705 0.22478 0.0
C3660 C 0.63806 0.342 0.18733 0.0
C3661 C 0.65008 0.3353 0.18119 0.0
C3662 C 0.62626 0.33359 0.19203 0.0
C3663 C 0.61571 0.29543 0.20149 0.0
H3664 H 0.5764 0.30908 0.19448 0.0
C3665 C 0.56523 0.2578 0.20619 0.0
C3666 C 0.55393 0.26321 0.21447 0.0
C3667 C 0.57674 0.26695 0.2022 0.0
C3668 C 0.58733 0.30519 0.19658 0.0
H3669 H 0.6593 0.31444 0.17574 0.0
H3670 H 0.63865 0.29997 0.18328 0.0
H3671 H 0.59706 0.3245 0.18791 0.0
H3672 H 0.5455 0.28253 0.22457 0.0
H3673 H 0.56553 0.29857 0.21746 0.0
H3674 H 0.60593 0.27598 0.20982 0.0
C3675 C 0.63833 0.31166 0.1847 0.0
C3676 C 0.59918 0.31404 0.1929 0.0
C3677 C 0.65012 0.32002 0.18014 0.0
C3678 C 0.55414 0.27805 0.21831 0.0
C3679 C 0.56554 0.28724 0.21415 0.0
C3680 C 0.60388 0.28654 0.205 0.0
C3681 C 0.62621 0.31831 0.19068 0.0
C3682 C 0.61354 0.30924 0.19522 0.0
C3683 C 0.57706 0.28173 0.20623 0.0
C3684 C 0.58957 0.29128 0.20252 0.0
H3685 H 0.63765 0.35374 0.18825 0.0
H3686 H 0.6172 0.33908 0.19675 0.0
H3687 H 0.62658 0.29148 0.20376 0.0
H3688 H 0.56539 0.24641 0.20316 0.0
H3689 H 0.58541 0.26245 0.19598 0.0
C3690 C 0.36846 0.70107 0.17229 0.0
C3691 C 0.36666 0.68584 0.17159 0.0
C3692 C 0.38123 0.70735 0.17851 0.0
C3693 C 0.4109 0.69801 0.20472 0.0
H3694 H 0.43104 0.73215 0.19012 0.0
C3695 C 0.46728 0.71275 0.22705 0.0
C3696 C 0.46971 0.72705 0.23209 0.0
C3697 C 0.4552 0.70927 0.21811 0.0
C3698 C 0.42543 0.72269 0.19437 0.0
H3699 H 0.37721 0.66529 0.1759 0.0
H3700 H 0.39943 0.67614 0.18652 0.0
H3701 H 0.4088 0.72296 0.17735 0.0
H3702 H 0.46192 0.74917 0.23096 0.0
H3703 H 0.44047 0.743 0.21519 0.0
H3704 H 0.42741 0.69758 0.2216 0.0
C3705 C 0.39087 0.68329 0.1827 0.0
C3706 C 0.41271 0.71743 0.18708 0.0
C3707 C 0.37814 0.67705 0.17658 0.0
C3708 C 0.46032 0.73806 0.22717 0.0
C3709 C 0.44805 0.73452 0.21819 0.0
C3710 C 0.42353 0.7032 0.21191 0.0
C3711 C 0.39245 0.6985 0.1841 0.0
C3712 C 0.40548 0.70484 0.19204 0.0
C3713 C 0.44512 0.71996 0.21406 0.0
C3714 C 0.43112 0.71541 0.20668 0.0
H3715 H 0.35977 0.70811 0.16855 0.0
H3716 H 0.38209 0.71909 0.17945 0.0
H3717 H 0.40538 0.68858 0.20913 0.0
H3718 H 0.47445 0.70407 0.2305 0.0
H3719 H 0.45345 0.69802 0.2148 0.0
loop_
_geom_bond_atom_site_label_1
_geom_bond_atom_site_label_2
_geom_bond_distance
_geom_bond_site_symmetry_2
_ccdc_geom_bond_type
H0 C3 0.931 . S
H1 C6 0.928 . S
H2 C8 0.930 . S
C3 H0 0.931 . S
C3 C4 1.413 . S
C3 C5 1.360 . S
C4 C3 1.413 . S
C4 C8 1.429 . S
C5 C3 1.360 . S
C5 C6 1.372 . S
C6 H1 0.928 . S
C6 C5 1.372 . S
C6 C7 1.404 . S
C7 C6 1.404 . S
C7 C8 1.391 . S
C8 H2 0.930 . S
C8 C4 1.429 . S
C8 C7 1.391 . S
H9 C12 0.931 . S
H10 C15 0.928 . S
H11 C17 0.930 . S
C12 H9 0.931 . S
C12 C13 1.413 . S
C12 C14 1.360 . S
C13 C12 1.413 . S
C13 C17 1.429 . S
C14 C12 1.360 . S
C14 C15 1.372 . S
C15 H10 0.928 . S
C15 C14 1.372 . S
C15 C16 1.404 . S
C16 C15 1.404 . S
C16 C17 1.391 . S
C17 H11 0.930 . S
C17 C13 1.429 . S
C17 C16 1.391 . S
H18 C21 0.931 . S
H19 C24 0.928 . S
H20 C26 0.930 . S
C21 H18 0.931 . S
C21 C22 1.413 . S
C21 C23 1.360 . S
C22 C21 1.413 . S
C22 C26 1.429 . S
C23 C21 1.360 . S
C23 C24 1.372 . S
C24 H19 0.928 . S
C24 C23 1.372 . S
C24 C25 1.404 . S
C25 C24 1.404 . S
C25 C26 1.391 . S
C26 H20 0.930 . S
C26 C22 1.429 . S
C26 C25 1.391 . S
H27 C30 0.931 . S
H28 C33 0.928 . S
H29 C35 0.930 . S
C30 H27 0.931 . S
C30 C31 1.413 . S
C30 C32 1.360 . S
C31 C30 1.413 . S
C31 C35 1.429 . S
C32 C30 1.360 . S
C32 C33 1.372 . S
C33 H28 0.928 . S
C33 C32 1.372 . S
C33 C34 1.404 . S
C34 C33 1.404 . S
C34 C35 1.391 . S
C35 H29 0.930 . S
C35 C31 1.429 . S
C35 C34 1.391 . S
H36 C39 0.931 . S
H37 C42 0.928 . S
H38 C44 0.930 . S
C39 H36 0.931 . S
C39 C40 1.413 . S
C39 C41 1.360 . S
C40 C39 1.413 . S
C40 C44 1.429 . S
C41 C39 1.360 . S
C41 C42 1.372 . S
C42 H37 0.928 . S
C42 C41 1.372 . S
C42 C43 1.404 . S
C43 C42 1.404 . S
C43 C44 1.391 . S
C44 H38 0.930 . S
C44 C40 1.429 . S
C44 C43 1.391 . S
H45 C48 0.931 . S
H46 C51 0.928 . S
H47 C53 0.930 . S
C48 H45 0.931 . S
C48 C49 1.413 . S
C48 C50 1.360 . S
C49 C48 1.413 . S
C49 C53 1.429 . S
C50 C48 1.360 . S
C50 C51 1.372 . S
C51 H46 0.928 . S
C51 C50 1.372 . S
C51 C52 1.404 . S
C52 C51 1.404 . S
C52 C53 1.391 . S
C53 H47 0.930 . S
C53 C49 1.429 . S
C53 C52 1.391 . S
H54 C57 0.931 . S
H55 C60 0.928 . S
H56 C62 0.930 . S
C57 H54 0.931 . S
C57 C58 1.413 . S
C57 C59 1.360 . S
C58 C57 1.413 . S
C58 C62 1.429 . S
C59 C57 1.360 . S
C59 C60 1.372 . S
C60 H55 0.928 . S
C60 C59 1.372 . S
C60 C61 1.404 . S
C61 C60 1.404 . S
C61 C62 1.391 . S
C62 H56 0.930 . S
C62 C58 1.429 . S
C62 C61 1.391 . S
H63 C66 0.931 . S
H64 C69 0.928 . S
H65 C71 0.930 . S
C66 H63 0.931 . S
C66 C67 1.413 . S
C66 C68 1.360 . S
C67 C66 1.413 . S
C67 C71 1.429 . S
C68 C66 1.360 . S
C68 C69 1.372 . S
C69 H64 0.928 . S
C69 C68 1.372 . S
C69 C70 1.404 . S
C70 C69 1.404 . S
C70 C71 1.391 . S
C71 H65 0.930 . S
C71 C67 1.429 . S
C71 C70 1.391 . S
H72 C75 0.931 . S
H73 C78 0.928 . S
H74 C80 0.930 . S
C75 H72 0.931 . S
C75 C76 1.413 . S
C75 C77 1.360 . S
C76 C75 1.413 . S
C76 C80 1.429 . S
C77 C75 1.360 . S
C77 C78 1.372 . S
C78 H73 0.928 . S
C78 C77 1.372 . S
C78 C79 1.404 . S
C79 C78 1.404 . S
C79 C80 1.391 . S
C80 H74 0.930 . S
C80 C76 1.429 . S
C80 C79 1.391 . S
H81 C84 0.931 . S
H82 C87 0.928 . S
H83 C89 0.930 . S
C84 H81 0.931 . S
C84 C85 1.413 . S
C84 C86 1.360 . S
C85 C84 1.413 . S
C85 C89 1.429 . S
C86 C84 1.360 . S
C86 C87 1.372 . S
C87 H82 0.928 . S
C87 C86 1.372 . S
C87 C88 1.404 . S
C88 C87 1.404 . S
C88 C89 1.391 . S
C89 H83 0.930 . S
C89 C85 1.429 . S
C89 C88 1.391 . S
H90 C93 0.931 . S
H91 C96 0.928 . S
H92 C98 0.930 . S
C93 H90 0.931 . S
C93 C94 1.413 . S
C93 C95 1.360 . S
C94 C93 1.413 . S
C94 C98 1.429 . S
C95 C93 1.360 . S
C95 C96 1.372 . S
C96 H91 0.928 . S
C96 C95 1.372 . S
C96 C97 1.404 . S
C97 C96 1.404 . S
C97 C98 1.391 . S
C98 H92 0.930 . S
C98 C94 1.429 . S
C98 C97 1.391 . S
H99 C102 0.931 . S
H100 C105 0.928 . S
H101 C107 0.930 . S
C102 H99 0.931 . S
C102 C103 1.413 . S
C102 C104 1.360 . S
C103 C102 1.413 . S
C103 C107 1.429 . S
C104 C102 1.360 . S
C104 C105 1.372 . S
C105 H100 0.928 . S
C105 C104 1.372 . S
C105 C106 1.404 . S
C106 C105 1.404 . S
C106 C107 1.391 . S
C107 H101 0.930 . S
C107 C103 1.429 . S
C107 C106 1.391 . S
H108 C111 0.931 . S
H109 C114 0.928 . S
H110 C116 0.930 . S
C111 H108 0.931 . S
C111 C112 1.413 . S
C111 C113 1.360 . S
C112 C111 1.413 . S
C112 C116 1.429 . S
C113 C111 1.360 . S
C113 C114 1.372 . S
C114 H109 0.928 . S
C114 C113 1.372 . S
C114 C115 1.404 . S
C115 C114 1.404 . S
C115 C116 1.391 . S
C116 H110 0.930 . S
C116 C112 1.429 . S
C116 C115 1.391 . S
H117 C120 0.931 . S
H118 C123 0.928 . S
H119 C125 0.930 . S
C120 H117 0.931 . S
C120 C121 1.413 . S
C120 C122 1.360 . S
C121 C120 1.413 . S
C121 C125 1.429 . S
C122 C120 1.360 . S
C122 C123 1.372 . S
C123 H118 0.928 . S
C123 C122 1.372 . S
C123 C124 1.404 . S
C124 C123 1.404 . S
C124 C125 1.391 . S
C125 H119 0.930 . S
C125 C121 1.429 . S
C125 C124 1.391 . S
H126 C129 0.931 . S
H127 C132 0.928 . S
H128 C134 0.930 . S
C129 H126 0.931 . S
C129 C130 1.413 . S
C129 C131 1.360 . S
C130 C129 1.413 . S
C130 C134 1.429 . S
C131 C129 1.360 . S
C131 C132 1.372 . S
C132 H127 0.928 . S
C132 C131 1.372 . S
C132 C133 1.404 . S
C133 C132 1.404 . S
C133 C134 1.391 . S
C134 H128 0.930 . S
C134 C130 1.429 . S
C134 C133 1.391 . S
H135 C138 0.931 . S
H136 C141 0.928 . S
H137 C143 0.930 . S
C138 H135 0.931 . S
C138 C139 1.413 . S
C138 C140 1.360 . S
C139 C138 1.413 . S
C139 C143 1.429 . S
C140 C138 1.360 . S
C140 C141 1.372 . S
C141 H136 0.928 . S
C141 C140 1.372 . S
C141 C142 1.404 . S
C142 C141 1.404 . S
C142 C143 1.391 . S
C143 H137 0.930 . S
C143 C139 1.429 . S
C143 C142 1.391 . S
H144 C147 0.931 . S
H145 C150 0.928 . S
H146 C152 0.930 . S
C147 H144 0.931 . S
C147 C148 1.413 . S
C147 C149 1.360 . S
C148 C147 1.413 . S
C148 C152 1.429 . S
C149 C147 1.360 . S
C149 C150 1.372 . S
C150 H145 0.928 . S
C150 C149 1.372 . S
C150 C151 1.404 . S
C151 C150 1.404 . S
C151 C152 1.391 . S
C152 H146 0.930 . S
C152 C148 1.429 . S
C152 C151 1.391 . S
H153 C156 0.931 . S
H154 C159 0.928 . S
H155 C161 0.930 . S
C156 H153 0.931 . S
C156 C157 1.413 . S
C156 C158 1.360 . S
C157 C156 1.413 . S
C157 C161 1.429 . S
C158 C156 1.360 . S
C158 C159 1.372 . S
C159 H154 0.928 . S
C159 C158 1.372 . S
C159 C160 1.404 . S
C160 C159 1.404 . S
C160 C161 1.391 . S
C161 H155 0.930 . S
C161 C157 1.429 . S
C161 C160 1.391 . S
H162 C165 0.931 . S
H163 C168 0.928 . S
H164 C170 0.930 . S
C165 H162 0.931 . S
C165 C166 1.413 . S
C165 C167 1.360 . S
C166 C165 1.413 . S
C166 C170 1.429 . S
C167 C165 1.360 . S
C167 C168 1.372 . S
C168 H163 0.928 . S
C168 C167 1.372 . S
C168 C169 1.404 . S
C169 C168 1.404 . S
C169 C170 1.391 . S
C170 H164 0.930 . S
C170 C166 1.429 . S
C170 C169 1.391 . S
H171 C174 0.931 . S
H172 C177 0.928 . S
H173 C179 0.930 . S
C174 H171 0.931 . S
C174 C175 1.413 . S
C174 C176 1.360 . S
C175 C174 1.413 . S
C175 C179 1.429 . S
C176 C174 1.360 . S
C176 C177 1.372 . S
C177 H172 0.928 . S
C177 C176 1.372 . S
C177 C178 1.404 . S
C178 C177 1.404 . S
C178 C179 1.391 . S
C179 H173 0.930 . S
C179 C175 1.429 . S
C179 C178 1.391 . S
H180 C183 0.931 . S
H181 C186 0.928 . S
H182 C188 0.930 . S
C183 H180 0.931 . S
C183 C184 1.413 . S
C183 C185 1.360 . S
C184 C183 1.413 . S
C184 C188 1.429 . S
C185 C183 1.360 . S
C185 C186 1.372 . S
C186 H181 0.928 . S
C186 C185 1.372 . S
C186 C187 1.404 . S
C187 C186 1.404 . S
C187 C188 1.391 . S
C188 H182 0.930 . S
C188 C184 1.429 . S
C188 C187 1.391 . S
H189 C192 0.931 . S
H190 C195 0.928 . S
H191 C197 0.930 . S
C192 H189 0.931 . S
C192 C193 1.413 . S
C192 C194 1.360 . S
C193 C192 1.413 . S
C193 C197 1.429 . S
C194 C192 1.360 . S
C194 C195 1.372 . S
C195 H190 0.928 . S
C195 C194 1.372 . S
C195 C196 1.404 . S
C196 C195 1.404 . S
C196 C197 1.391 . S
C197 H191 0.930 . S
C197 C193 1.429 . S
C197 C196 1.391 . S
H198 C201 0.931 . S
H199 C204 0.928 . S
H200 C206 0.930 . S
C201 H198 0.931 . S
C201 C202 1.413 . S
C201 C203 1.360 . S
C202 C201 1.413 . S
C202 C206 1.429 . S
C203 C201 1.360 . S
C203 C204 1.372 . S
C204 H199 0.928 . S
C204 C203 1.372 . S
C204 C205 1.404 . S
C205 C204 1.404 . S
C205 C206 1.391 . S
C206 H200 0.930 . S
C206 C202 1.429 . S
C206 C205 1.391 . S
H207 C210 0.931 . S
H208 C213 0.928 . S
H209 C215 0.930 . S
C210 H207 0.931 . S
C210 C211 1.413 . S
C210 C212 1.360 . S
C211 C210 1.413 . S
C211 C215 1.429 . S
C212 C210 1.360 . S
C212 C213 1.372 . S
C213 H208 0.928 . S
C213 C212 1.372 . S
C213 C214 1.404 . S
C214 C213 1.404 . S
C214 C215 1.391 . S
C215 H209 0.930 . S
C215 C211 1.429 . S
C215 C214 1.391 . S
H216 C219 0.931 . S
H217 C222 0.928 . S
H218 C224 0.930 . S
C219 H216 0.931 . S
C219 C220 1.413 . S
C219 C221 1.360 . S
C220 C219 1.413 . S
C220 C224 1.429 . S
C221 C219 1.360 . S
C221 C222 1.372 . S
C222 H217 0.928 . S
C222 C221 1.372 . S
C222 C223 1.404 . S
C223 C222 1.404 . S
C223 C224 1.391 . S
C224 H218 0.930 . S
C224 C220 1.429 . S
C224 C223 1.391 . S
H225 C228 0.931 . S
H226 C231 0.928 . S
H227 C233 0.930 . S
C228 H225 0.931 . S
C228 C229 1.413 . S
C228 C230 1.360 . S
C229 C228 1.413 . S
C229 C233 1.429 . S
C230 C228 1.360 . S
C230 C231 1.372 . S
C231 H226 0.928 . S
C231 C230 1.372 . S
C231 C232 1.404 . S
C232 C231 1.404 . S
C232 C233 1.391 . S
C233 H227 0.930 . S
C233 C229 1.429 . S
C233 C232 1.391 . S
H234 C237 0.931 . S
H235 C240 0.928 . S
H236 C242 0.930 . S
C237 H234 0.931 . S
C237 C238 1.413 . S
C237 C239 1.360 . S
C238 C237 1.413 . S
C238 C242 1.429 . S
C239 C237 1.360 . S
C239 C240 1.372 . S
C240 H235 0.928 . S
C240 C239 1.372 . S
C240 C241 1.404 . S
C241 C240 1.404 . S
C241 C242 1.391 . S
C242 H236 0.930 . S
C242 C238 1.429 . S
C242 C241 1.391 . S
H243 C246 0.931 . S
H244 C249 0.928 . S
H245 C251 0.930 . S
C246 H243 0.931 . S
C246 C247 1.413 . S
C246 C248 1.360 . S
C247 C246 1.413 . S
C247 C251 1.429 . S
C248 C246 1.360 . S
C248 C249 1.372 . S
C249 H244 0.928 . S
C249 C248 1.372 . S
C249 C250 1.404 . S
C250 C249 1.404 . S
C250 C251 1.391 . S
C251 H245 0.930 . S
C251 C247 1.429 . S
C251 C250 1.391 . S
H252 C255 0.931 . S
H253 C258 0.928 . S
H254 C260 0.930 . S
C255 H252 0.931 . S
C255 C256 1.413 . S
C255 C257 1.360 . S
C256 C255 1.413 . S
C256 C260 1.429 . S
C257 C255 1.360 . S
C257 C258 1.372 . S
C258 H253 0.928 . S
C258 C257 1.372 . S
C258 C259 1.404 . S
C259 C258 1.404 . S
C259 C260 1.391 . S
C260 H254 0.930 . S
C260 C256 1.429 . S
C260 C259 1.391 . S
H261 C264 0.931 . S
H262 C267 0.928 . S
H263 C269 0.930 . S
C264 H261 0.931 . S
C264 C265 1.413 . S
C264 C266 1.360 . S
C265 C264 1.413 . S
C265 C269 1.429 . S
C266 C264 1.360 . S
C266 C267 1.372 . S
C267 H262 0.928 . S
C267 C266 1.372 . S
C267 C268 1.404 . S
C268 C267 1.404 . S
C268 C269 1.391 . S
C269 H263 0.930 . S
C269 C265 1.429 . S
C269 C268 1.391 . S
H270 C273 0.931 . S
H271 C276 0.928 . S
H272 C278 0.930 . S
C273 H270 0.931 . S
C273 C274 1.413 . S
C273 C275 1.360 . S
C274 C273 1.413 . S
C274 C278 1.429 . S
C275 C273 1.360 . S
C275 C276 1.372 . S
C276 H271 0.928 . S
C276 C275 1.372 . S
C276 C277 1.404 . S
C277 C276 1.404 . S
C277 C278 1.391 . S
C278 H272 0.930 . S
C278 C274 1.429 . S
C278 C277 1.391 . S
H279 C282 0.931 . S
H280 C285 0.928 . S
H281 C287 0.930 . S
C282 H279 0.931 . S
C282 C283 1.413 . S
C282 C284 1.360 . S
C283 C282 1.413 . S
C283 C287 1.429 . S
C284 C282 1.360 . S
C284 C285 1.372 . S
C285 H280 0.928 . S
C285 C284 1.372 . S
C285 C286 1.404 . S
C286 C285 1.404 . S
C286 C287 1.391 . S
C287 H281 0.930 . S
C287 C283 1.429 . S
C287 C286 1.391 . S
Cu288 N289 1.999 . S
Cu288 O294 1.974 1_554 S
Cu288 N299 1.985 . S
Cu288 O308 1.959 . S
N289 Cu288 1.999 . S
N289 C291 1.263 1_554 S
N289 C293 1.389 . S
N290 C291 1.358 . S
N290 C292 1.400 . S
C291 N289 1.263 1_556 S
C291 N290 1.358 . S
C291 H297 0.930 . S
C292 N290 1.400 . S
C292 C293 1.351 1_556 S
C292 H309 0.930 . S
C293 N289 1.389 . S
C293 C292 1.351 1_554 S
C293 H298 0.930 . S
O294 Cu288 1.974 1_556 S
O294 C304 1.282 . S
C295 O296 1.261 . S
C295 O308 1.251 . S
O296 C295 1.261 . S
H297 C291 0.930 . S
H298 C293 0.930 . S
N299 Cu288 1.985 . S
N299 C301 1.335 . S
N299 C302 1.390 . S
N300 C301 1.345 . S
N300 C303 1.336 . S
C301 N299 1.335 . S
C301 N300 1.345 . S
C301 H306 0.930 . S
C302 N299 1.390 . S
C302 C303 1.346 . S
C302 H307 0.930 . S
C303 N300 1.336 . S
C303 C302 1.346 . S
C303 H310 0.929 . S
C304 O294 1.282 . S
C304 O305 1.216 . S
O305 C304 1.216 . S
H306 C301 0.930 . S
H307 C302 0.930 . S
O308 Cu288 1.959 . S
O308 C295 1.251 . S
H309 C292 0.930 . S
H310 C303 0.929 . S
Cu311 N312 1.999 . S
Cu311 O317 1.974 . S
Cu311 N322 1.985 1_554 S
Cu311 O331 1.959 1_554 S
N312 Cu311 1.999 . S
N312 C314 1.263 . S
N312 C316 1.389 . S
N313 C314 1.358 . S
N313 C315 1.400 . S
C314 N312 1.263 . S
C314 N313 1.358 . S
C314 H320 0.930 . S
C315 N313 1.400 . S
C315 C316 1.351 . S
C315 H332 0.930 . S
C316 N312 1.389 . S
C316 C315 1.351 . S
C316 H321 0.930 . S
O317 Cu311 1.974 . S
O317 C327 1.282 . S
C318 O319 1.261 . S
C318 O331 1.251 . S
O319 C318 1.261 . S
H320 C314 0.930 . S
H321 C316 0.930 . S
N322 Cu311 1.985 1_556 S
N322 C324 1.335 . S
N322 C325 1.390 . S
N323 C324 1.345 . S
N323 C326 1.336 . S
C324 N322 1.335 . S
C324 N323 1.345 . S
C324 H329 0.930 . S
C325 N322 1.390 . S
C325 C326 1.346 . S
C325 H330 0.930 1_556 S
C326 N323 1.336 . S
C326 C325 1.346 . S
C326 H333 0.929 . S
C327 O317 1.282 . S
C327 O328 1.216 . S
O328 C327 1.216 . S
H329 C324 0.930 . S
H330 C325 0.930 1_554 S
O331 Cu311 1.959 1_556 S
O331 C318 1.251 . S
H332 C315 0.930 . S
H333 C326 0.929 . S
Cu334 N335 1.961 1_554 S
Cu334 O340 1.927 1_554 S
Cu334 N345 2.023 . S
Cu334 O354 2.006 . S
N335 Cu334 1.961 1_556 S
N335 C337 1.263 . S
N335 C339 1.389 . S
N336 C337 1.358 . S
N336 C338 1.400 . S
C337 N335 1.263 . S
C337 N336 1.358 . S
C337 H343 0.930 . S
C338 N336 1.400 . S
C338 C339 1.351 . S
C338 H355 0.930 . S
C339 N335 1.389 . S
C339 C338 1.351 . S
C339 H344 0.930 . S
O340 Cu334 1.927 1_556 S
O340 C350 1.282 . S
C341 O342 1.261 . S
C341 O354 1.251 . S
O342 C341 1.261 . S
H343 C337 0.930 . S
H344 C339 0.930 . S
N345 Cu334 2.023 . S
N345 C347 1.335 . S
N345 C348 1.390 . S
N346 C347 1.345 . S
N346 C349 1.336 . S
C347 N345 1.335 . S
C347 N346 1.345 . S
C347 H352 0.930 . S
C348 N345 1.390 . S
C348 C349 1.346 . S
C348 H353 0.966 . S
C349 N346 1.336 . S
C349 C348 1.346 . S
C349 H356 0.929 . S
C350 O340 1.282 . S
C350 O351 1.216 . S
O351 C350 1.216 . S
H352 C347 0.930 . S
H353 C348 0.966 . S
O354 Cu334 2.006 . S
O354 C341 1.251 . S
H355 C338 0.930 . S
H356 C349 0.929 . S
Cu357 N358 1.999 . S
Cu357 O363 1.973 . S
Cu357 N368 1.985 1_554 S
Cu357 O377 1.960 1_554 S
N358 Cu357 1.999 . S
N358 C360 1.263 . S
N358 C362 1.389 . S
N359 C360 1.358 . S
N359 C361 1.400 . S
C360 N358 1.263 . S
C360 N359 1.358 . S
C360 H366 0.930 . S
C361 N359 1.400 . S
C361 C362 1.351 . S
C361 H378 0.930 . S
C362 N358 1.389 . S
C362 C361 1.351 . S
C362 H367 0.930 . S
O363 Cu357 1.973 . S
O363 C373 1.282 . S
C364 O365 1.261 . S
C364 O377 1.251 . S
O365 C364 1.261 . S
H366 C360 0.930 . S
H367 C362 0.930 . S
N368 Cu357 1.985 1_556 S
N368 C370 1.335 . S
N368 C371 1.390 . S
N369 C370 1.345 . S
N369 C372 1.336 . S
C370 N368 1.335 . S
C370 N369 1.345 . S
C370 H375 0.930 . S
C371 N368 1.390 . S
C371 C372 1.346 . S
C371 H376 0.927 1_556 S
C372 N369 1.336 . S
C372 C371 1.346 . S
C372 H379 0.929 . S
C373 O363 1.282 . S
C373 O374 1.216 . S
O374 C373 1.216 . S
H375 C370 0.930 . S
H376 C371 0.927 1_554 S
O377 Cu357 1.960 1_556 S
O377 C364 1.251 . S
H378 C361 0.930 . S
H379 C372 0.929 . S
Cu380 N381 1.999 . S
Cu380 O386 1.974 . S
Cu380 N391 1.985 1_455 S
Cu380 O400 1.959 1_455 S
N381 Cu380 1.999 . S
N381 C383 1.263 . S
N381 C385 1.389 . S
N382 C383 1.358 . S
N382 C384 1.400 . S
C383 N381 1.263 . S
C383 N382 1.358 . S
C383 H389 0.930 . S
C384 N382 1.400 . S
C384 C385 1.351 . S
C384 H401 0.930 . S
C385 N381 1.389 . S
C385 C384 1.351 . S
C385 H390 0.930 . S
O386 Cu380 1.974 . S
O386 C396 1.282 . S
C387 O388 1.261 . S
C387 O400 1.251 . S
O388 C387 1.261 . S
H389 C383 0.930 . S
H390 C385 0.930 . S
N391 Cu380 1.985 1_655 S
N391 C393 1.335 . S
N391 C394 1.393 . S
N392 C393 1.345 . S
N392 C395 1.336 . S
C393 N391 1.335 . S
C393 N392 1.345 . S
C393 H398 0.930 . S
C394 N391 1.393 . S
C394 C395 1.362 . S
C394 H399 0.914 1_655 S
C395 N392 1.336 . S
C395 C394 1.362 . S
C395 H402 0.929 . S
C396 O386 1.282 . S
C396 O397 1.216 . S
O397 C396 1.216 . S
H398 C393 0.930 . S
H399 C394 0.914 1_455 S
O400 Cu380 1.959 1_655 S
O400 C387 1.251 . S
H401 C384 0.930 . S
H402 C395 0.929 . S
Cu403 N404 1.999 . S
Cu403 O409 1.974 . S
Cu403 N414 1.985 1_545 S
Cu403 O423 1.959 1_545 S
N404 Cu403 1.999 . S
N404 C406 1.263 . S
N404 C408 1.389 . S
N405 C406 1.358 . S
N405 C407 1.400 . S
C406 N404 1.263 . S
C406 N405 1.358 . S
C406 H412 0.930 . S
C407 N405 1.400 . S
C407 C408 1.351 . S
C407 H424 0.930 . S
C408 N404 1.389 . S
C408 C407 1.351 . S
C408 H413 0.930 . S
O409 Cu403 1.974 . S
O409 C419 1.282 . S
C410 O411 1.261 . S
C410 O423 1.251 . S
O411 C410 1.261 . S
H412 C406 0.930 . S
H413 C408 0.930 . S
N414 Cu403 1.985 1_565 S
N414 C416 1.335 . S
N414 C417 1.390 . S
N415 C416 1.345 . S
N415 C418 1.336 . S
C416 N414 1.335 . S
C416 N415 1.345 . S
C416 H421 0.930 . S
C417 N414 1.390 . S
C417 C418 1.346 . S
C417 H422 0.930 1_565 S
C418 N415 1.336 . S
C418 C417 1.346 . S
C418 H425 0.929 . S
C419 O409 1.282 . S
C419 O420 1.216 . S
O420 C419 1.216 . S
H421 C416 0.930 . S
H422 C417 0.930 1_545 S
O423 Cu403 1.959 1_565 S
O423 C410 1.251 . S
H424 C407 0.930 . S
H425 C418 0.929 . S
Cu426 N427 2.005 1_455 S
Cu426 O432 1.980 1_455 S
Cu426 N437 1.980 . S
Cu426 O446 1.953 . S
N427 Cu426 2.005 1_655 S
N427 C429 1.263 . S
N427 C431 1.389 . S
N428 C429 1.358 . S
N428 C430 1.400 . S
C429 N427 1.263 . S
C429 N428 1.358 . S
C429 H435 0.930 . S
C430 N428 1.400 . S
C430 C431 1.351 . S
C430 H447 0.930 . S
C431 N427 1.389 . S
C431 C430 1.351 . S
C431 H436 0.930 . S
O432 Cu426 1.980 1_655 S
O432 C442 1.282 . S
C433 O434 1.261 . S
C433 O446 1.251 . S
O434 C433 1.261 . S
H435 C429 0.930 . S
H436 C431 0.930 . S
N437 Cu426 1.980 . S
N437 C439 1.335 . S
N437 C440 1.390 . S
N438 C439 1.345 . S
N438 C441 1.336 . S
C439 N437 1.335 . S
C439 N438 1.345 . S
C439 H444 0.930 . S
C440 N437 1.390 . S
C440 C441 1.346 . S
C440 H445 0.930 . S
C441 N438 1.336 . S
C441 C440 1.346 . S
C441 H448 0.929 . S
C442 O432 1.282 . S
C442 O443 1.216 . S
O443 C442 1.216 . S
H444 C439 0.930 . S
H445 C440 0.930 . S
O446 Cu426 1.953 . S
O446 C433 1.251 . S
H447 C430 0.930 . S
H448 C441 0.929 . S
Cu449 N450 1.988 1_565 S
Cu449 O455 1.960 1_565 S
Cu449 N460 1.996 . S
Cu449 O469 1.973 . S
N450 Cu449 1.988 1_545 S
N450 C452 1.263 . S
N450 C454 1.389 . S
N451 C452 1.358 . S
N451 C453 1.400 . S
C452 N450 1.263 . S
C452 N451 1.358 . S
C452 H458 0.930 . S
C453 N451 1.400 . S
C453 C454 1.351 . S
C453 H470 0.930 . S
C454 N450 1.389 . S
C454 C453 1.351 . S
C454 H459 0.930 . S
O455 Cu449 1.960 1_545 S
O455 C465 1.282 . S
C456 O457 1.261 . S
C456 O469 1.251 . S
O457 C456 1.261 . S
H458 C452 0.930 . S
H459 C454 0.930 . S
N460 Cu449 1.996 . S
N460 C462 1.335 . S
N460 C463 1.390 . S
N461 C462 1.345 . S
N461 C464 1.336 . S
C462 N460 1.335 . S
C462 N461 1.345 . S
C462 H467 0.930 . S
C463 N460 1.390 . S
C463 C464 1.346 . S
C463 H468 0.930 . S
C464 N461 1.336 . S
C464 C463 1.346 . S
C464 H471 0.929 . S
C465 O455 1.282 . S
C465 O466 1.216 . S
O466 C465 1.216 . S
H467 C462 0.930 . S
H468 C463 0.930 . S
O469 Cu449 1.973 . S
O469 C456 1.251 . S
H470 C453 0.930 . S
H471 C464 0.929 . S
Cu472 N473 1.999 . S
Cu472 O478 1.974 . S
Cu472 N483 1.985 1_455 S
Cu472 O492 1.959 1_455 S
N473 Cu472 1.999 . S
N473 C475 1.263 . S
N473 C477 1.389 . S
N474 C475 1.358 . S
N474 C476 1.400 . S
C475 N473 1.263 . S
C475 N474 1.358 . S
C475 H481 0.930 . S
C476 N474 1.400 . S
C476 C477 1.351 . S
C476 H493 0.930 . S
C477 N473 1.389 . S
C477 C476 1.351 . S
C477 H482 0.930 . S
O478 Cu472 1.974 . S
O478 C488 1.282 . S
C479 O480 1.261 . S
C479 O492 1.251 . S
O480 C479 1.261 . S
H481 C475 0.930 . S
H482 C477 0.930 . S
N483 Cu472 1.985 1_655 S
N483 C485 1.335 . S
N483 C486 1.406 . S
N484 C485 1.345 . S
N484 C487 1.336 . S
C485 N483 1.335 . S
C485 N484 1.345 . S
C485 H490 0.930 . S
C486 N483 1.406 . S
C486 C487 1.412 . S
C486 H491 0.864 1_655 S
C487 N484 1.336 . S
C487 C486 1.412 . S
C487 H494 0.929 . S
C488 O478 1.282 . S
C488 O489 1.216 . S
O489 C488 1.216 . S
H490 C485 0.930 . S
H491 C486 0.864 1_455 S
O492 Cu472 1.959 1_655 S
O492 C479 1.251 . S
H493 C476 0.930 . S
H494 C487 0.929 . S
Cu495 N496 1.999 . S
Cu495 O501 1.974 . S
Cu495 N506 1.985 1_545 S
Cu495 O515 1.959 1_545 S
N496 Cu495 1.999 . S
N496 C498 1.263 . S
N496 C500 1.389 . S
N497 C498 1.358 . S
N497 C499 1.400 . S
C498 N496 1.263 . S
C498 N497 1.358 . S
C498 H504 0.930 . S
C499 N497 1.400 . S
C499 C500 1.351 . S
C499 H516 0.930 . S
C500 N496 1.389 . S
C500 C499 1.351 . S
C500 H505 0.930 . S
O501 Cu495 1.974 . S
O501 C511 1.282 . S
C502 O503 1.261 . S
C502 O515 1.251 . S
O503 C502 1.261 . S
H504 C498 0.930 . S
H505 C500 0.930 . S
N506 Cu495 1.985 1_565 S
N506 C508 1.335 . S
N506 C509 1.377 1_565 S
N507 C508 1.345 . S
N507 C510 1.336 . S
C508 N506 1.335 . S
C508 N507 1.345 . S
C508 H513 0.930 . S
C509 N506 1.377 1_545 S
C509 C510 1.277 1_545 S
C509 H514 1.003 . S
C510 N507 1.336 . S
C510 C509 1.277 1_565 S
C510 H517 0.929 . S
C511 O501 1.282 . S
C511 O512 1.216 . S
O512 C511 1.216 . S
H513 C508 0.930 . S
H514 C509 1.003 . S
O515 Cu495 1.959 1_565 S
O515 C502 1.251 . S
H516 C499 0.930 . S
H517 C510 0.929 . S
Cu518 N519 1.999 . S
Cu518 O524 1.974 . S
Cu518 N529 1.985 . S
Cu518 O538 1.959 . S
N519 Cu518 1.999 . S
N519 C521 1.263 1_455 S
N519 C523 1.389 . S
N520 C521 1.358 . S
N520 C522 1.400 . S
C521 N519 1.263 1_655 S
C521 N520 1.358 . S
C521 H527 0.930 . S
C522 N520 1.400 . S
C522 C523 1.351 1_655 S
C522 H539 0.930 . S
C523 N519 1.389 . S
C523 C522 1.351 1_455 S
C523 H528 0.930 . S
O524 Cu518 1.974 . S
O524 C534 1.282 1_455 S
C525 O526 1.261 . S
C525 O538 1.251 . S
O526 C525 1.261 . S
H527 C521 0.930 . S
H528 C523 0.930 . S
N529 Cu518 1.985 . S
N529 C531 1.335 . S
N529 C532 1.390 . S
N530 C531 1.345 . S
N530 C533 1.336 . S
C531 N529 1.335 . S
C531 N530 1.345 . S
C531 H536 0.930 . S
C532 N529 1.390 . S
C532 C533 1.346 . S
C532 H537 0.930 . S
C533 N530 1.336 . S
C533 C532 1.346 . S
C533 H540 0.929 . S
C534 O524 1.282 1_655 S
C534 O535 1.216 1_655 S
O535 C534 1.216 1_455 S
H536 C531 0.930 . S
H537 C532 0.930 . S
O538 Cu518 1.959 . S
O538 C525 1.251 . S
H539 C522 0.930 . S
H540 C533 0.929 . S
Cu541 N542 1.999 . S
Cu541 O547 1.974 . S
Cu541 N552 2.024 . S
Cu541 O561 1.959 1_545 S
N542 Cu541 1.999 . S
N542 C544 1.263 . S
N542 C546 1.389 . S
N543 C544 1.358 . S
N543 C545 1.400 . S
C544 N542 1.263 . S
C544 N543 1.358 . S
C544 H550 0.930 . S
C545 N543 1.400 . S
C545 C546 1.351 . S
C545 H562 0.930 . S
C546 N542 1.389 . S
C546 C545 1.351 . S
C546 H551 0.930 . S
O547 Cu541 1.974 . S
O547 C557 1.282 . S
C548 O549 1.251 1_565 S
C548 O561 1.251 . S
O549 C548 1.251 1_545 S
H550 C544 0.930 . S
H551 C546 0.930 . S
N552 Cu541 2.024 . S
N552 C554 1.274 1_545 S
N552 C555 1.406 . S
N553 C554 1.345 . S
N553 C556 1.336 . S
C554 N552 1.274 1_565 S
C554 N553 1.345 . S
C554 H559 0.930 . S
C555 N552 1.406 . S
C555 C556 1.346 1_545 S
C555 H560 0.930 . S
C556 N553 1.336 . S
C556 C555 1.346 1_565 S
C556 H563 0.929 . S
C557 O547 1.282 . S
C557 O558 1.216 . S
O558 C557 1.216 . S
H559 C554 0.930 . S
H560 C555 0.930 . S
O561 Cu541 1.959 1_565 S
O561 C548 1.251 . S
H562 C545 0.930 . S
H563 C556 0.929 . S
Cu564 N565 1.999 . S
Cu564 O570 1.974 . S
Cu564 N575 1.985 . S
Cu564 O584 1.959 . S
N565 Cu564 1.999 . S
N565 C567 1.263 . S
N565 C569 1.389 . S
N566 C567 1.358 . S
N566 C568 1.400 . S
C567 N565 1.263 . S
C567 N566 1.358 . S
C567 H573 0.930 . S
C568 N566 1.400 . S
C568 C569 1.351 . S
C568 H585 0.930 . S
C569 N565 1.389 . S
C569 C568 1.351 . S
C569 H574 0.930 . S
O570 Cu564 1.974 . S
O570 C580 1.282 . S
C571 O572 1.261 . S
C571 O584 1.251 . S
O572 C571 1.261 . S
H573 C567 0.930 . S
H574 C569 0.930 . S
N575 Cu564 1.985 . S
N575 C577 1.335 . S
N575 C578 1.390 . S
N576 C577 1.345 . S
N576 C579 1.336 . S
C577 N575 1.335 . S
C577 N576 1.345 . S
C577 H582 0.930 . S
C578 N575 1.390 . S
C578 C579 1.346 . S
C578 H583 0.930 . S
C579 N576 1.336 . S
C579 C578 1.346 . S
C579 H586 0.929 . S
C580 O570 1.282 . S
C580 O581 1.216 . S
O581 C580 1.216 . S
H582 C577 0.930 . S
H583 C578 0.930 . S
O584 Cu564 1.959 . S
O584 C571 1.251 . S
H585 C568 0.930 . S
H586 C579 0.929 . S
Cu587 N588 1.999 . S
Cu587 O593 1.974 . S
Cu587 N598 1.985 . S
Cu587 O607 1.959 . S
N588 Cu587 1.999 . S
N588 C590 1.263 . S
N588 C592 1.389 . S
N589 C590 1.358 . S
N589 C591 1.400 . S
C590 N588 1.263 . S
C590 N589 1.358 . S
C590 H596 0.930 . S
C591 N589 1.400 . S
C591 C592 1.351 . S
C591 H608 0.930 . S
C592 N588 1.389 . S
C592 C591 1.351 . S
C592 H597 0.930 . S
O593 Cu587 1.974 . S
O593 C603 1.282 . S
C594 O595 1.261 . S
C594 O607 1.251 . S
O595 C594 1.261 . S
H596 C590 0.930 . S
H597 C592 0.930 . S
N598 Cu587 1.985 . S
N598 C600 1.335 . S
N598 C601 1.390 . S
N599 C600 1.345 . S
N599 C602 1.336 . S
C600 N598 1.335 . S
C600 N599 1.345 . S
C600 H605 0.930 . S
C601 N598 1.390 . S
C601 C602 1.346 . S
C601 H606 0.930 . S
C602 N599 1.336 . S
C602 C601 1.346 . S
C602 H609 0.929 . S
C603 O593 1.282 . S
C603 O604 1.216 . S
O604 C603 1.216 . S
H605 C600 0.930 . S
H606 C601 0.930 . S
O607 Cu587 1.959 . S
O607 C594 1.251 . S
H608 C591 0.930 . S
H609 C602 0.929 . S
Cu610 N611 1.999 . S
Cu610 O616 1.974 . S
Cu610 N621 1.985 . S
Cu610 O630 1.959 . S
N611 Cu610 1.999 . S
N611 C613 1.263 . S
N611 C615 1.389 . S
N612 C613 1.358 . S
N612 C614 1.400 . S
C613 N611 1.263 . S
C613 N612 1.358 . S
C613 H619 0.930 . S
C614 N612 1.400 . S
C614 C615 1.351 . S
C614 H631 0.930 . S
C615 N611 1.389 . S
C615 C614 1.351 . S
C615 H620 0.930 . S
O616 Cu610 1.974 . S
O616 C626 1.282 . S
C617 O618 1.261 . S
C617 O630 1.251 . S
O618 C617 1.261 . S
H619 C613 0.930 . S
H620 C615 0.930 . S
N621 Cu610 1.985 . S
N621 C623 1.335 . S
N621 C624 1.390 . S
N622 C623 1.345 . S
N622 C625 1.336 . S
C623 N621 1.335 . S
C623 N622 1.345 . S
C623 H628 0.930 . S
C624 N621 1.390 . S
C624 C625 1.346 . S
C624 H629 0.930 . S
C625 N622 1.336 . S
C625 C624 1.346 . S
C625 H632 0.929 . S
C626 O616 1.282 . S
C626 O627 1.216 . S
O627 C626 1.216 . S
H628 C623 0.930 . S
H629 C624 0.930 . S
O630 Cu610 1.959 . S
O630 C617 1.251 . S
H631 C614 0.930 . S
H632 C625 0.929 . S
Cu633 N634 1.999 . S
Cu633 O639 1.974 . S
Cu633 N644 1.985 . S
Cu633 O653 1.959 . S
N634 Cu633 1.999 . S
N634 C636 1.263 . S
N634 C638 1.389 . S
N635 C636 1.358 . S
N635 C637 1.400 . S
C636 N634 1.263 . S
C636 N635 1.358 . S
C636 H642 0.930 . S
C637 N635 1.400 . S
C637 C638 1.351 . S
C637 H654 0.930 . S
C638 N634 1.389 . S
C638 C637 1.351 . S
C638 H643 0.930 . S
O639 Cu633 1.974 . S
O639 C649 1.282 . S
C640 O641 1.261 . S
C640 O653 1.251 . S
O641 C640 1.261 . S
H642 C636 0.930 . S
H643 C638 0.930 . S
N644 Cu633 1.985 . S
N644 C646 1.335 . S
N644 C647 1.390 . S
N645 C646 1.345 . S
N645 C648 1.336 . S
C646 N644 1.335 . S
C646 N645 1.345 . S
C646 H651 0.930 . S
C647 N644 1.390 . S
C647 C648 1.346 . S
C647 H652 0.930 . S
C648 N645 1.336 . S
C648 C647 1.346 . S
C648 H655 0.929 . S
C649 O639 1.282 . S
C649 O650 1.216 . S
O650 C649 1.216 . S
H651 C646 0.930 . S
H652 C647 0.930 . S
O653 Cu633 1.959 . S
O653 C640 1.251 . S
H654 C637 0.930 . S
H655 C648 0.929 . S
Cu656 N657 1.999 . S
Cu656 O662 1.974 . S
Cu656 N667 1.985 . S
Cu656 O676 1.959 . S
N657 Cu656 1.999 . S
N657 C659 1.263 . S
N657 C661 1.389 . S
N658 C659 1.358 . S
N658 C660 1.400 . S
C659 N657 1.263 . S
C659 N658 1.358 . S
C659 H665 0.930 . S
C660 N658 1.400 . S
C660 C661 1.351 . S
C660 H677 0.930 . S
C661 N657 1.389 . S
C661 C660 1.351 . S
C661 H666 0.930 . S
O662 Cu656 1.974 . S
O662 C672 1.282 . S
C663 O664 1.261 . S
C663 O676 1.251 . S
O664 C663 1.261 . S
H665 C659 0.930 . S
H666 C661 0.930 . S
N667 Cu656 1.985 . S
N667 C669 1.335 . S
N667 C670 1.390 . S
N668 C669 1.345 . S
N668 C671 1.336 . S
C669 N667 1.335 . S
C669 N668 1.345 . S
C669 H674 0.930 . S
C670 N667 1.390 . S
C670 C671 1.346 . S
C670 H675 0.930 . S
C671 N668 1.336 . S
C671 C670 1.346 . S
C671 H678 0.929 . S
C672 O662 1.282 . S
C672 O673 1.216 . S
O673 C672 1.216 . S
H674 C669 0.930 . S
H675 C670 0.930 . S
O676 Cu656 1.959 . S
O676 C663 1.251 . S
H677 C660 0.930 . S
H678 C671 0.929 . S
Cu679 N680 1.999 . S
Cu679 O685 1.974 . S
Cu679 N690 1.985 . S
Cu679 O699 1.959 . S
N680 Cu679 1.999 . S
N680 C682 1.263 . S
N680 C684 1.389 . S
N681 C682 1.358 . S
N681 C683 1.400 . S
C682 N680 1.263 . S
C682 N681 1.358 . S
C682 H688 0.930 . S
C683 N681 1.400 . S
C683 C684 1.351 . S
C683 H700 0.930 . S
C684 N680 1.389 . S
C684 C683 1.351 . S
C684 H689 0.930 . S
O685 Cu679 1.974 . S
O685 C695 1.282 . S
C686 O687 1.261 . S
C686 O699 1.251 . S
O687 C686 1.261 . S
H688 C682 0.930 . S
H689 C684 0.930 . S
N690 Cu679 1.985 . S
N690 C692 1.335 . S
N690 C693 1.390 . S
N691 C692 1.345 . S
N691 C694 1.336 . S
C692 N690 1.335 . S
C692 N691 1.345 . S
C692 H697 0.930 . S
C693 N690 1.390 . S
C693 C694 1.346 . S
C693 H698 0.930 . S
C694 N691 1.336 . S
C694 C693 1.346 . S
C694 H701 0.929 . S
C695 O685 1.282 . S
C695 O696 1.216 . S
O696 C695 1.216 . S
H697 C692 0.930 . S
H698 C693 0.930 . S
O699 Cu679 1.959 . S
O699 C686 1.251 . S
H700 C683 0.930 . S
H701 C694 0.929 . S
Cu702 N703 1.999 . S
Cu702 O708 1.974 . S
Cu702 N713 1.985 . S
Cu702 O722 1.959 . S
N703 Cu702 1.999 . S
N703 C705 1.263 . S
N703 C707 1.389 . S
N704 C705 1.358 . S
N704 C706 1.400 . S
C705 N703 1.263 . S
C705 N704 1.358 . S
C705 H711 0.930 . S
C706 N704 1.400 . S
C706 C707 1.351 . S
C706 H723 0.930 . S
C707 N703 1.389 . S
C707 C706 1.351 . S
C707 H712 0.930 . S
O708 Cu702 1.974 . S
O708 C718 1.282 . S
C709 O710 1.261 . S
C709 O722 1.251 . S
O710 C709 1.261 . S
H711 C705 0.930 . S
H712 C707 0.930 . S
N713 Cu702 1.985 . S
N713 C715 1.335 . S
N713 C716 1.390 . S
N714 C715 1.345 . S
N714 C717 1.336 . S
C715 N713 1.335 . S
C715 N714 1.345 . S
C715 H720 0.930 . S
C716 N713 1.390 . S
C716 C717 1.346 . S
C716 H721 0.930 . S
C717 N714 1.336 . S
C717 C716 1.346 . S
C717 H724 0.929 . S
C718 O708 1.282 . S
C718 O719 1.216 . S
O719 C718 1.216 . S
H720 C715 0.930 . S
H721 C716 0.930 . S
O722 Cu702 1.959 . S
O722 C709 1.251 . S
H723 C706 0.930 . S
H724 C717 0.929 . S
Cu725 N726 1.999 . S
Cu725 O731 1.974 . S
Cu725 N736 1.985 . S
Cu725 O745 1.959 . S
N726 Cu725 1.999 . S
N726 C728 1.263 . S
N726 C730 1.389 . S
N727 C728 1.358 . S
N727 C729 1.400 . S
C728 N726 1.263 . S
C728 N727 1.358 . S
C728 H734 0.930 . S
C729 N727 1.400 . S
C729 C730 1.351 . S
C729 H746 0.930 . S
C730 N726 1.389 . S
C730 C729 1.351 . S
C730 H735 0.930 . S
O731 Cu725 1.974 . S
O731 C741 1.282 . S
C732 O733 1.261 . S
C732 O745 1.251 . S
O733 C732 1.261 . S
H734 C728 0.930 . S
H735 C730 0.930 . S
N736 Cu725 1.985 . S
N736 C738 1.335 . S
N736 C739 1.390 . S
N737 C738 1.345 . S
N737 C740 1.336 . S
C738 N736 1.335 . S
C738 N737 1.345 . S
C738 H743 0.930 . S
C739 N736 1.390 . S
C739 C740 1.346 . S
C739 H744 0.930 . S
C740 N737 1.336 . S
C740 C739 1.346 . S
C740 H747 0.929 . S
C741 O731 1.282 . S
C741 O742 1.216 . S
O742 C741 1.216 . S
H743 C738 0.930 . S
H744 C739 0.930 . S
O745 Cu725 1.959 . S
O745 C732 1.251 . S
H746 C729 0.930 . S
H747 C740 0.929 . S
Cu748 N749 1.999 . S
Cu748 O754 1.974 . S
Cu748 N759 1.985 . S
Cu748 O768 1.959 . S
N749 Cu748 1.999 . S
N749 C751 1.263 . S
N749 C753 1.389 . S
N750 C751 1.358 . S
N750 C752 1.400 . S
C751 N749 1.263 . S
C751 N750 1.358 . S
C751 H757 0.930 . S
C752 N750 1.400 . S
C752 C753 1.351 . S
C752 H769 0.930 . S
C753 N749 1.389 . S
C753 C752 1.351 . S
C753 H758 0.930 . S
O754 Cu748 1.974 . S
O754 C764 1.282 . S
C755 O756 1.261 . S
C755 O768 1.251 . S
O756 C755 1.261 . S
H757 C751 0.930 . S
H758 C753 0.930 . S
N759 Cu748 1.985 . S
N759 C761 1.335 . S
N759 C762 1.390 . S
N760 C761 1.345 . S
N760 C763 1.336 . S
C761 N759 1.335 . S
C761 N760 1.345 . S
C761 H766 0.930 . S
C762 N759 1.390 . S
C762 C763 1.346 . S
C762 H767 0.930 . S
C763 N760 1.336 . S
C763 C762 1.346 . S
C763 H770 0.929 . S
C764 O754 1.282 . S
C764 O765 1.216 . S
O765 C764 1.216 . S
H766 C761 0.930 . S
H767 C762 0.930 . S
O768 Cu748 1.959 . S
O768 C755 1.251 . S
H769 C752 0.930 . S
H770 C763 0.929 . S
Cu771 N772 1.999 . S
Cu771 O777 1.974 . S
Cu771 N782 1.985 . S
Cu771 O791 1.959 . S
N772 Cu771 1.999 . S
N772 C774 1.263 . S
N772 C776 1.389 . S
N773 C774 1.358 . S
N773 C775 1.400 . S
C774 N772 1.263 . S
C774 N773 1.358 . S
C774 H780 0.930 . S
C775 N773 1.400 . S
C775 C776 1.351 . S
C775 H792 0.930 . S
C776 N772 1.389 . S
C776 C775 1.351 . S
C776 H781 0.930 . S
O777 Cu771 1.974 . S
O777 C787 1.282 . S
C778 O779 1.261 . S
C778 O791 1.251 . S
O779 C778 1.261 . S
H780 C774 0.930 . S
H781 C776 0.930 . S
N782 Cu771 1.985 . S
N782 C784 1.335 . S
N782 C785 1.390 . S
N783 C784 1.345 . S
N783 C786 1.336 . S
C784 N782 1.335 . S
C784 N783 1.345 . S
C784 H789 0.930 . S
C785 N782 1.390 . S
C785 C786 1.346 . S
C785 H790 0.930 . S
C786 N783 1.336 . S
C786 C785 1.346 . S
C786 H793 0.929 . S
C787 O777 1.282 . S
C787 O788 1.216 . S
O788 C787 1.216 . S
H789 C784 0.930 . S
H790 C785 0.930 . S
O791 Cu771 1.959 . S
O791 C778 1.251 . S
H792 C775 0.930 . S
H793 C786 0.929 . S
Cu794 N795 1.999 . S
Cu794 O800 1.974 . S
Cu794 N805 1.985 . S
Cu794 O814 1.959 . S
N795 Cu794 1.999 . S
N795 C797 1.263 . S
N795 C799 1.389 . S
N796 C797 1.358 . S
N796 C798 1.400 . S
C797 N795 1.263 . S
C797 N796 1.358 . S
C797 H803 0.930 . S
C798 N796 1.400 . S
C798 C799 1.351 . S
C798 H815 0.930 . S
C799 N795 1.389 . S
C799 C798 1.351 . S
C799 H804 0.930 . S
O800 Cu794 1.974 . S
O800 C810 1.282 . S
C801 O802 1.261 . S
C801 O814 1.251 . S
O802 C801 1.261 . S
H803 C797 0.930 . S
H804 C799 0.930 . S
N805 Cu794 1.985 . S
N805 C807 1.335 . S
N805 C808 1.390 . S
N806 C807 1.345 . S
N806 C809 1.336 . S
C807 N805 1.335 . S
C807 N806 1.345 . S
C807 H812 0.930 . S
C808 N805 1.390 . S
C808 C809 1.346 . S
C808 H813 0.930 . S
C809 N806 1.336 . S
C809 C808 1.346 . S
C809 H816 0.929 . S
C810 O800 1.282 . S
C810 O811 1.216 . S
O811 C810 1.216 . S
H812 C807 0.930 . S
H813 C808 0.930 . S
O814 Cu794 1.959 . S
O814 C801 1.251 . S
H815 C798 0.930 . S
H816 C809 0.929 . S
Cu817 N818 1.999 . S
Cu817 O823 1.974 . S
Cu817 N828 1.985 . S
Cu817 O837 1.959 . S
N818 Cu817 1.999 . S
N818 C820 1.263 . S
N818 C822 1.389 . S
N819 C820 1.358 . S
N819 C821 1.400 . S
C820 N818 1.263 . S
C820 N819 1.358 . S
C820 H826 0.930 . S
C821 N819 1.400 . S
C821 C822 1.351 . S
C821 H838 0.930 . S
C822 N818 1.389 . S
C822 C821 1.351 . S
C822 H827 0.930 . S
O823 Cu817 1.974 . S
O823 C833 1.282 . S
C824 O825 1.261 . S
C824 O837 1.251 . S
O825 C824 1.261 . S
H826 C820 0.930 . S
H827 C822 0.930 . S
N828 Cu817 1.985 . S
N828 C830 1.335 . S
N828 C831 1.390 . S
N829 C830 1.345 . S
N829 C832 1.336 . S
C830 N828 1.335 . S
C830 N829 1.345 . S
C830 H835 0.930 . S
C831 N828 1.390 . S
C831 C832 1.346 . S
C831 H836 0.930 . S
C832 N829 1.336 . S
C832 C831 1.346 . S
C832 H839 0.929 . S
C833 O823 1.282 . S
C833 O834 1.216 . S
O834 C833 1.216 . S
H835 C830 0.930 . S
H836 C831 0.930 . S
O837 Cu817 1.959 . S
O837 C824 1.251 . S
H838 C821 0.930 . S
H839 C832 0.929 . S
C840 C841 1.349 . S
C840 C842 1.327 . S
C840 H865 0.950 . S
C841 C840 1.349 . S
C841 C857 1.349 . S
C842 C840 1.327 . S
C842 C861 1.429 . S
C842 H866 0.950 . S
C843 C860 1.574 . S
C843 C862 1.368 . S
C843 H867 0.949 . S
H844 C848 0.949 . S
C845 C846 1.349 . S
C845 C847 1.327 . S
C845 H868 0.950 . S
C846 C845 1.349 . S
C846 C858 1.349 . S
C847 C845 1.327 . S
C847 C863 1.429 . S
C847 H869 0.950 . S
C848 H844 0.949 . S
C848 C856 1.574 . S
C848 C864 1.368 . S
H849 C857 0.950 . S
H850 C855 0.950 . S
H851 C856 0.949 . S
H852 C858 0.950 . S
H853 C859 0.950 . S
H854 C860 0.949 . S
C855 H850 0.950 . S
C855 C857 1.327 . S
C855 C861 1.429 . S
C856 C848 1.574 . S
C856 H851 0.949 . S
C856 C862 1.368 . S
C857 C841 1.349 . S
C857 H849 0.950 . S
C857 C855 1.327 . S
C858 C846 1.349 . S
C858 H852 0.950 . S
C858 C859 1.327 . S
C859 H853 0.950 . S
C859 C858 1.327 . S
C859 C863 1.429 . S
C860 C843 1.574 . S
C860 H854 0.949 . S
C860 C864 1.368 . S
C861 C842 1.429 . S
C861 C855 1.429 . S
C861 C862 1.523 . S
C862 C843 1.368 . S
C862 C856 1.368 . S
C862 C861 1.523 . S
C863 C847 1.429 . S
C863 C859 1.429 . S
C863 C864 1.523 . S
C864 C848 1.368 . S
C864 C860 1.368 . S
C864 C863 1.523 . S
H865 C840 0.950 . S
H866 C842 0.950 . S
H867 C843 0.949 . S
H868 C845 0.950 . S
H869 C847 0.950 . S
C870 C871 1.349 . S
C870 C872 1.327 . S
C870 H895 0.950 . S
C871 C870 1.349 . S
C871 C887 1.349 . S
C872 C870 1.327 . S
C872 C891 1.429 . S
C872 H896 0.950 . S
C873 C890 1.574 . S
C873 C892 1.368 . S
C873 H897 0.949 . S
H874 C878 0.949 . S
C875 C876 1.349 . S
C875 C877 1.327 . S
C875 H898 0.950 . S
C876 C875 1.349 . S
C876 C888 1.349 . S
C877 C875 1.327 . S
C877 C893 1.429 . S
C877 H899 0.950 . S
C878 H874 0.949 . S
C878 C886 1.574 . S
C878 C894 1.368 . S
H879 C887 0.950 . S
H880 C885 0.950 . S
H881 C886 0.949 . S
H882 C888 0.950 . S
H883 C889 0.950 . S
H884 C890 0.949 . S
C885 H880 0.950 . S
C885 C887 1.327 . S
C885 C891 1.429 . S
C886 C878 1.574 . S
C886 H881 0.949 . S
C886 C892 1.368 . S
C887 C871 1.349 . S
C887 H879 0.950 . S
C887 C885 1.327 . S
C888 C876 1.349 . S
C888 H882 0.950 . S
C888 C889 1.327 . S
C889 H883 0.950 . S
C889 C888 1.327 . S
C889 C893 1.429 . S
C890 C873 1.574 . S
C890 H884 0.949 . S
C890 C894 1.368 . S
C891 C872 1.429 . S
C891 C885 1.429 . S
C891 C892 1.523 . S
C892 C873 1.368 . S
C892 C886 1.368 . S
C892 C891 1.523 . S
C893 C877 1.429 . S
C893 C889 1.429 . S
C893 C894 1.523 . S
C894 C878 1.368 . S
C894 C890 1.368 . S
C894 C893 1.523 . S
H895 C870 0.950 . S
H896 C872 0.950 . S
H897 C873 0.949 . S
H898 C875 0.950 . S
H899 C877 0.950 . S
C900 C901 1.349 . S
C900 C902 1.327 . S
C900 H925 0.950 . S
C901 C900 1.349 . S
C901 C917 1.349 . S
C902 C900 1.327 . S
C902 C921 1.429 . S
C902 H926 0.950 . S
C903 C920 1.574 . S
C903 C922 1.368 . S
C903 H927 0.949 . S
H904 C908 0.949 . S
C905 C906 1.349 . S
C905 C907 1.327 . S
C905 H928 0.950 . S
C906 C905 1.349 . S
C906 C918 1.349 . S
C907 C905 1.327 . S
C907 C923 1.429 . S
C907 H929 0.950 . S
C908 H904 0.949 . S
C908 C916 1.574 . S
C908 C924 1.368 . S
H909 C917 0.950 . S
H910 C915 0.950 . S
H911 C916 0.949 . S
H912 C918 0.950 . S
H913 C919 0.950 . S
H914 C920 0.949 . S
C915 H910 0.950 . S
C915 C917 1.327 . S
C915 C921 1.429 . S
C916 C908 1.574 . S
C916 H911 0.949 . S
C916 C922 1.368 . S
C917 C901 1.349 . S
C917 H909 0.950 . S
C917 C915 1.327 . S
C918 C906 1.349 . S
C918 H912 0.950 . S
C918 C919 1.327 . S
C919 H913 0.950 . S
C919 C918 1.327 . S
C919 C923 1.429 . S
C920 C903 1.574 . S
C920 H914 0.949 . S
C920 C924 1.368 . S
C921 C902 1.429 . S
C921 C915 1.429 . S
C921 C922 1.523 . S
C922 C903 1.368 . S
C922 C916 1.368 . S
C922 C921 1.523 . S
C923 C907 1.429 . S
C923 C919 1.429 . S
C923 C924 1.523 . S
C924 C908 1.368 . S
C924 C920 1.368 . S
C924 C923 1.523 . S
H925 C900 0.950 . S
H926 C902 0.950 . S
H927 C903 0.949 . S
H928 C905 0.950 . S
H929 C907 0.950 . S
C930 C931 1.349 . S
C930 C932 1.327 . S
C930 H955 0.950 . S
C931 C930 1.349 . S
C931 C947 1.349 . S
C932 C930 1.327 . S
C932 C951 1.429 . S
C932 H956 0.950 . S
C933 C950 1.574 . S
C933 C952 1.368 . S
C933 H957 0.949 . S
H934 C938 0.949 . S
C935 C936 1.349 . S
C935 C937 1.327 . S
C935 H958 0.950 . S
C936 C935 1.349 . S
C936 C948 1.349 . S
C937 C935 1.327 . S
C937 C953 1.429 . S
C937 H959 0.950 . S
C938 H934 0.949 . S
C938 C946 1.574 . S
C938 C954 1.368 . S
H939 C947 0.950 . S
H940 C945 0.950 . S
H941 C946 0.949 . S
H942 C948 0.950 . S
H943 C949 0.950 . S
H944 C950 0.949 . S
C945 H940 0.950 . S
C945 C947 1.327 . S
C945 C951 1.429 . S
C946 C938 1.574 . S
C946 H941 0.949 . S
C946 C952 1.368 . S
C947 C931 1.349 . S
C947 H939 0.950 . S
C947 C945 1.327 . S
C948 C936 1.349 . S
C948 H942 0.950 . S
C948 C949 1.327 . S
C949 H943 0.950 . S
C949 C948 1.327 . S
C949 C953 1.429 . S
C950 C933 1.574 . S
C950 H944 0.949 . S
C950 C954 1.368 . S
C951 C932 1.429 . S
C951 C945 1.429 . S
C951 C952 1.523 . S
C952 C933 1.368 . S
C952 C946 1.368 . S
C952 C951 1.523 . S
C953 C937 1.429 . S
C953 C949 1.429 . S
C953 C954 1.523 . S
C954 C938 1.368 . S
C954 C950 1.368 . S
C954 C953 1.523 . S
H955 C930 0.950 . S
H956 C932 0.950 . S
H957 C933 0.949 . S
H958 C935 0.950 . S
H959 C937 0.950 . S
C960 C961 1.349 . S
C960 C962 1.327 . S
C960 H985 0.950 . S
C961 C960 1.349 . S
C961 C977 1.349 . S
C962 C960 1.327 . S
C962 C981 1.429 . S
C962 H986 0.950 . S
C963 C980 1.574 . S
C963 C982 1.368 . S
C963 H987 0.949 . S
H964 C968 0.949 . S
C965 C966 1.349 . S
C965 C967 1.327 . S
C965 H988 0.950 . S
C966 C965 1.349 . S
C966 C978 1.349 . S
C967 C965 1.327 . S
C967 C983 1.429 . S
C967 H989 0.950 . S
C968 H964 0.949 . S
C968 C976 1.574 . S
C968 C984 1.368 . S
H969 C977 0.950 . S
H970 C975 0.950 . S
H971 C976 0.949 . S
H972 C978 0.950 . S
H973 C979 0.950 . S
H974 C980 0.949 . S
C975 H970 0.950 . S
C975 C977 1.327 . S
C975 C981 1.429 . S
C976 C968 1.574 . S
C976 H971 0.949 . S
C976 C982 1.368 . S
C977 C961 1.349 . S
C977 H969 0.950 . S
C977 C975 1.327 . S
C978 C966 1.349 . S
C978 H972 0.950 . S
C978 C979 1.327 . S
C979 H973 0.950 . S
C979 C978 1.327 . S
C979 C983 1.429 . S
C980 C963 1.574 . S
C980 H974 0.949 . S
C980 C984 1.368 . S
C981 C962 1.429 . S
C981 C975 1.429 . S
C981 C982 1.523 . S
C982 C963 1.368 . S
C982 C976 1.368 . S
C982 C981 1.523 . S
C983 C967 1.429 . S
C983 C979 1.429 . S
C983 C984 1.523 . S
C984 C968 1.368 . S
C984 C980 1.368 . S
C984 C983 1.523 . S
H985 C960 0.950 . S
H986 C962 0.950 . S
H987 C963 0.949 . S
H988 C965 0.950 . S
H989 C967 0.950 . S
C990 C991 1.349 . S
C990 C992 1.327 . S
C990 H1015 0.950 . S
C991 C990 1.349 . S
C991 C1007 1.349 . S
C992 C990 1.327 . S
C992 C1011 1.429 . S
C992 H1016 0.950 . S
C993 C1010 1.574 . S
C993 C1012 1.368 . S
C993 H1017 0.949 . S
H994 C998 0.949 . S
C995 C996 1.349 . S
C995 C997 1.327 . S
C995 H1018 0.950 . S
C996 C995 1.349 . S
C996 C1008 1.349 . S
C997 C995 1.327 . S
C997 C1013 1.429 . S
C997 H1019 0.950 . S
C998 H994 0.949 . S
C998 C1006 1.574 . S
C998 C1014 1.368 . S
H999 C1007 0.950 . S
H1000 C1005 0.950 . S
H1001 C1006 0.949 . S
H1002 C1008 0.950 . S
H1003 C1009 0.950 . S
H1004 C1010 0.949 . S
C1005 H1000 0.950 . S
C1005 C1007 1.327 . S
C1005 C1011 1.429 . S
C1006 C998 1.574 . S
C1006 H1001 0.949 . S
C1006 C1012 1.368 . S
C1007 C991 1.349 . S
C1007 H999 0.950 . S
C1007 C1005 1.327 . S
C1008 C996 1.349 . S
C1008 H1002 0.950 . S
C1008 C1009 1.327 . S
C1009 H1003 0.950 . S
C1009 C1008 1.327 . S
C1009 C1013 1.429 . S
C1010 C993 1.574 . S
C1010 H1004 0.949 . S
C1010 C1014 1.368 . S
C1011 C992 1.429 . S
C1011 C1005 1.429 . S
C1011 C1012 1.523 . S
C1012 C993 1.368 . S
C1012 C1006 1.368 . S
C1012 C1011 1.523 . S
C1013 C997 1.429 . S
C1013 C1009 1.429 . S
C1013 C1014 1.523 . S
C1014 C998 1.368 . S
C1014 C1010 1.368 . S
C1014 C1013 1.523 . S
H1015 C990 0.950 . S
H1016 C992 0.950 . S
H1017 C993 0.949 . S
H1018 C995 0.950 . S
H1019 C997 0.950 . S
C1020 C1021 1.349 . S
C1020 C1022 1.327 . S
C1020 H1045 0.950 . S
C1021 C1020 1.349 . S
C1021 C1037 1.349 . S
C1022 C1020 1.327 . S
C1022 C1041 1.429 . S
C1022 H1046 0.950 . S
C1023 C1040 1.574 . S
C1023 C1042 1.368 . S
C1023 H1047 0.949 . S
H1024 C1028 0.949 . S
C1025 C1026 1.349 . S
C1025 C1027 1.327 . S
C1025 H1048 0.950 . S
C1026 C1025 1.349 . S
C1026 C1038 1.349 . S
C1027 C1025 1.327 . S
C1027 C1043 1.429 . S
C1027 H1049 0.950 . S
C1028 H1024 0.949 . S
C1028 C1036 1.574 . S
C1028 C1044 1.368 . S
H1029 C1037 0.950 . S
H1030 C1035 0.950 . S
H1031 C1036 0.949 . S
H1032 C1038 0.950 . S
H1033 C1039 0.950 . S
H1034 C1040 0.949 . S
C1035 H1030 0.950 . S
C1035 C1037 1.327 . S
C1035 C1041 1.429 . S
C1036 C1028 1.574 . S
C1036 H1031 0.949 . S
C1036 C1042 1.368 . S
C1037 C1021 1.349 . S
C1037 H1029 0.950 . S
C1037 C1035 1.327 . S
C1038 C1026 1.349 . S
C1038 H1032 0.950 . S
C1038 C1039 1.327 . S
C1039 H1033 0.950 . S
C1039 C1038 1.327 . S
C1039 C1043 1.429 . S
C1040 C1023 1.574 . S
C1040 H1034 0.949 . S
C1040 C1044 1.368 . S
C1041 C1022 1.429 . S
C1041 C1035 1.429 . S
C1041 C1042 1.523 . S
C1042 C1023 1.368 . S
C1042 C1036 1.368 . S
C1042 C1041 1.523 . S
C1043 C1027 1.429 . S
C1043 C1039 1.429 . S
C1043 C1044 1.523 . S
C1044 C1028 1.368 . S
C1044 C1040 1.368 . S
C1044 C1043 1.523 . S
H1045 C1020 0.950 . S
H1046 C1022 0.950 . S
H1047 C1023 0.949 . S
H1048 C1025 0.950 . S
H1049 C1027 0.950 . S
C1050 C1051 1.349 . S
C1050 C1052 1.327 . S
C1050 H1075 0.950 . S
C1051 C1050 1.349 . S
C1051 C1067 1.349 . S
C1052 C1050 1.327 . S
C1052 C1071 1.429 . S
C1052 H1076 0.950 . S
C1053 C1070 1.574 . S
C1053 C1072 1.368 . S
C1053 H1077 0.949 . S
H1054 C1058 0.949 . S
C1055 C1056 1.349 . S
C1055 C1057 1.327 . S
C1055 H1078 0.950 . S
C1056 C1055 1.349 . S
C1056 C1068 1.349 . S
C1057 C1055 1.327 . S
C1057 C1073 1.429 . S
C1057 H1079 0.950 . S
C1058 H1054 0.949 . S
C1058 C1066 1.574 . S
C1058 C1074 1.368 . S
H1059 C1067 0.950 . S
H1060 C1065 0.950 . S
H1061 C1066 0.949 . S
H1062 C1068 0.950 . S
H1063 C1069 0.950 . S
H1064 C1070 0.949 . S
C1065 H1060 0.950 . S
C1065 C1067 1.327 . S
C1065 C1071 1.429 . S
C1066 C1058 1.574 . S
C1066 H1061 0.949 . S
C1066 C1072 1.368 . S
C1067 C1051 1.349 . S
C1067 H1059 0.950 . S
C1067 C1065 1.327 . S
C1068 C1056 1.349 . S
C1068 H1062 0.950 . S
C1068 C1069 1.327 . S
C1069 H1063 0.950 . S
C1069 C1068 1.327 . S
C1069 C1073 1.429 . S
C1070 C1053 1.574 . S
C1070 H1064 0.949 . S
C1070 C1074 1.368 . S
C1071 C1052 1.429 . S
C1071 C1065 1.429 . S
C1071 C1072 1.523 . S
C1072 C1053 1.368 . S
C1072 C1066 1.368 . S
C1072 C1071 1.523 . S
C1073 C1057 1.429 . S
C1073 C1069 1.429 . S
C1073 C1074 1.523 . S
C1074 C1058 1.368 . S
C1074 C1070 1.368 . S
C1074 C1073 1.523 . S
H1075 C1050 0.950 . S
H1076 C1052 0.950 . S
H1077 C1053 0.949 . S
H1078 C1055 0.950 . S
H1079 C1057 0.950 . S
C1080 C1081 1.349 . S
C1080 C1082 1.327 . S
C1080 H1105 0.950 . S
C1081 C1080 1.349 . S
C1081 C1097 1.349 . S
C1082 C1080 1.327 . S
C1082 C1101 1.429 . S
C1082 H1106 0.950 . S
C1083 C1100 1.574 . S
C1083 C1102 1.368 . S
C1083 H1107 0.949 . S
H1084 C1088 0.949 . S
C1085 C1086 1.349 . S
C1085 C1087 1.327 . S
C1085 H1108 0.950 . S
C1086 C1085 1.349 . S
C1086 C1098 1.349 . S
C1087 C1085 1.327 . S
C1087 C1103 1.429 . S
C1087 H1109 0.950 . S
C1088 H1084 0.949 . S
C1088 C1096 1.574 . S
C1088 C1104 1.368 . S
H1089 C1097 0.950 . S
H1090 C1095 0.950 . S
H1091 C1096 0.949 . S
H1092 C1098 0.950 . S
H1093 C1099 0.950 . S
H1094 C1100 0.949 . S
C1095 H1090 0.950 . S
C1095 C1097 1.327 . S
C1095 C1101 1.429 . S
C1096 C1088 1.574 . S
C1096 H1091 0.949 . S
C1096 C1102 1.368 . S
C1097 C1081 1.349 . S
C1097 H1089 0.950 . S
C1097 C1095 1.327 . S
C1098 C1086 1.349 . S
C1098 H1092 0.950 . S
C1098 C1099 1.327 . S
C1099 H1093 0.950 . S
C1099 C1098 1.327 . S
C1099 C1103 1.429 . S
C1100 C1083 1.574 . S
C1100 H1094 0.949 . S
C1100 C1104 1.368 . S
C1101 C1082 1.429 . S
C1101 C1095 1.429 . S
C1101 C1102 1.523 . S
C1102 C1083 1.368 . S
C1102 C1096 1.368 . S
C1102 C1101 1.523 . S
C1103 C1087 1.429 . S
C1103 C1099 1.429 . S
C1103 C1104 1.523 . S
C1104 C1088 1.368 . S
C1104 C1100 1.368 . S
C1104 C1103 1.523 . S
H1105 C1080 0.950 . S
H1106 C1082 0.950 . S
H1107 C1083 0.949 . S
H1108 C1085 0.950 . S
H1109 C1087 0.950 . S
C1110 C1111 1.349 . S
C1110 C1112 1.327 . S
C1110 H1135 0.950 . S
C1111 C1110 1.349 . S
C1111 C1127 1.349 . S
C1112 C1110 1.327 . S
C1112 C1131 1.429 . S
C1112 H1136 0.950 . S
C1113 C1130 1.574 . S
C1113 C1132 1.368 . S
C1113 H1137 0.949 . S
H1114 C1118 0.949 . S
C1115 C1116 1.349 . S
C1115 C1117 1.327 . S
C1115 H1138 0.950 . S
C1116 C1115 1.349 . S
C1116 C1128 1.349 . S
C1117 C1115 1.327 . S
C1117 C1133 1.429 . S
C1117 H1139 0.950 . S
C1118 H1114 0.949 . S
C1118 C1126 1.574 . S
C1118 C1134 1.368 . S
H1119 C1127 0.950 . S
H1120 C1125 0.950 . S
H1121 C1126 0.949 . S
H1122 C1128 0.950 . S
H1123 C1129 0.950 . S
H1124 C1130 0.949 . S
C1125 H1120 0.950 . S
C1125 C1127 1.327 . S
C1125 C1131 1.429 . S
C1126 C1118 1.574 . S
C1126 H1121 0.949 . S
C1126 C1132 1.368 . S
C1127 C1111 1.349 . S
C1127 H1119 0.950 . S
C1127 C1125 1.327 . S
C1128 C1116 1.349 . S
C1128 H1122 0.950 . S
C1128 C1129 1.327 . S
C1129 H1123 0.950 . S
C1129 C1128 1.327 . S
C1129 C1133 1.429 . S
C1130 C1113 1.574 . S
C1130 H1124 0.949 . S
C1130 C1134 1.368 . S
C1131 C1112 1.429 . S
C1131 C1125 1.429 . S
C1131 C1132 1.523 . S
C1132 C1113 1.368 . S
C1132 C1126 1.368 . S
C1132 C1131 1.523 . S
C1133 C1117 1.429 . S
C1133 C1129 1.429 . S
C1133 C1134 1.523 . S
C1134 C1118 1.368 . S
C1134 C1130 1.368 . S
C1134 C1133 1.523 . S
H1135 C1110 0.950 . S
H1136 C1112 0.950 . S
H1137 C1113 0.949 . S
H1138 C1115 0.950 . S
H1139 C1117 0.950 . S
C1140 C1141 1.349 . S
C1140 C1142 1.327 . S
C1140 H1165 0.950 . S
C1141 C1140 1.349 . S
C1141 C1157 1.349 . S
C1142 C1140 1.327 . S
C1142 C1161 1.429 . S
C1142 H1166 0.950 . S
C1143 C1160 1.574 . S
C1143 C1162 1.368 . S
C1143 H1167 0.949 . S
H1144 C1148 0.949 . S
C1145 C1146 1.349 . S
C1145 C1147 1.327 . S
C1145 H1168 0.950 . S
C1146 C1145 1.349 . S
C1146 C1158 1.349 . S
C1147 C1145 1.327 . S
C1147 C1163 1.429 . S
C1147 H1169 0.950 . S
C1148 H1144 0.949 . S
C1148 C1156 1.574 . S
C1148 C1164 1.368 . S
H1149 C1157 0.950 . S
H1150 C1155 0.950 . S
H1151 C1156 0.949 . S
H1152 C1158 0.950 . S
H1153 C1159 0.950 . S
H1154 C1160 0.949 . S
C1155 H1150 0.950 . S
C1155 C1157 1.327 . S
C1155 C1161 1.429 . S
C1156 C1148 1.574 . S
C1156 H1151 0.949 . S
C1156 C1162 1.368 . S
C1157 C1141 1.349 . S
C1157 H1149 0.950 . S
C1157 C1155 1.327 . S
C1158 C1146 1.349 . S
C1158 H1152 0.950 . S
C1158 C1159 1.327 . S
C1159 H1153 0.950 . S
C1159 C1158 1.327 . S
C1159 C1163 1.429 . S
C1160 C1143 1.574 . S
C1160 H1154 0.949 . S
C1160 C1164 1.368 . S
C1161 C1142 1.429 . S
C1161 C1155 1.429 . S
C1161 C1162 1.523 . S
C1162 C1143 1.368 . S
C1162 C1156 1.368 . S
C1162 C1161 1.523 . S
C1163 C1147 1.429 . S
C1163 C1159 1.429 . S
C1163 C1164 1.523 . S
C1164 C1148 1.368 . S
C1164 C1160 1.368 . S
C1164 C1163 1.523 . S
H1165 C1140 0.950 . S
H1166 C1142 0.950 . S
H1167 C1143 0.949 . S
H1168 C1145 0.950 . S
H1169 C1147 0.950 . S
C1170 C1171 1.349 . S
C1170 C1172 1.327 . S
C1170 H1195 0.950 . S
C1171 C1170 1.349 . S
C1171 C1187 1.349 . S
C1172 C1170 1.327 . S
C1172 C1191 1.429 . S
C1172 H1196 0.950 . S
C1173 C1190 1.574 . S
C1173 C1192 1.368 . S
C1173 H1197 0.949 . S
H1174 C1178 0.949 . S
C1175 C1176 1.349 . S
C1175 C1177 1.327 . S
C1175 H1198 0.950 . S
C1176 C1175 1.349 . S
C1176 C1188 1.349 . S
C1177 C1175 1.327 . S
C1177 C1193 1.429 . S
C1177 H1199 0.950 . S
C1178 H1174 0.949 . S
C1178 C1186 1.574 . S
C1178 C1194 1.368 . S
H1179 C1187 0.950 . S
H1180 C1185 0.950 . S
H1181 C1186 0.949 . S
H1182 C1188 0.950 . S
H1183 C1189 0.950 . S
H1184 C1190 0.949 . S
C1185 H1180 0.950 . S
C1185 C1187 1.327 . S
C1185 C1191 1.429 . S
C1186 C1178 1.574 . S
C1186 H1181 0.949 . S
C1186 C1192 1.368 . S
C1187 C1171 1.349 . S
C1187 H1179 0.950 . S
C1187 C1185 1.327 . S
C1188 C1176 1.349 . S
C1188 H1182 0.950 . S
C1188 C1189 1.327 . S
C1189 H1183 0.950 . S
C1189 C1188 1.327 . S
C1189 C1193 1.429 . S
C1190 C1173 1.574 . S
C1190 H1184 0.949 . S
C1190 C1194 1.368 . S
C1191 C1172 1.429 . S
C1191 C1185 1.429 . S
C1191 C1192 1.523 . S
C1192 C1173 1.368 . S
C1192 C1186 1.368 . S
C1192 C1191 1.523 . S
C1193 C1177 1.429 . S
C1193 C1189 1.429 . S
C1193 C1194 1.523 . S
C1194 C1178 1.368 . S
C1194 C1190 1.368 . S
C1194 C1193 1.523 . S
H1195 C1170 0.950 . S
H1196 C1172 0.950 . S
H1197 C1173 0.949 . S
H1198 C1175 0.950 . S
H1199 C1177 0.950 . S
C1200 C1201 1.349 . S
C1200 C1202 1.327 . S
C1200 H1225 0.950 . S
C1201 C1200 1.349 . S
C1201 C1217 1.349 . S
C1202 C1200 1.327 . S
C1202 C1221 1.429 . S
C1202 H1226 0.950 . S
C1203 C1220 1.574 . S
C1203 C1222 1.368 . S
C1203 H1227 0.949 . S
H1204 C1208 0.949 . S
C1205 C1206 1.349 . S
C1205 C1207 1.327 . S
C1205 H1228 0.950 . S
C1206 C1205 1.349 . S
C1206 C1218 1.349 . S
C1207 C1205 1.327 . S
C1207 C1223 1.429 . S
C1207 H1229 0.950 . S
C1208 H1204 0.949 . S
C1208 C1216 1.574 . S
C1208 C1224 1.368 . S
H1209 C1217 0.950 . S
H1210 C1215 0.950 . S
H1211 C1216 0.949 . S
H1212 C1218 0.950 . S
H1213 C1219 0.950 . S
H1214 C1220 0.949 . S
C1215 H1210 0.950 . S
C1215 C1217 1.327 . S
C1215 C1221 1.429 . S
C1216 C1208 1.574 . S
C1216 H1211 0.949 . S
C1216 C1222 1.368 . S
C1217 C1201 1.349 . S
C1217 H1209 0.950 . S
C1217 C1215 1.327 . S
C1218 C1206 1.349 . S
C1218 H1212 0.950 . S
C1218 C1219 1.327 . S
C1219 H1213 0.950 . S
C1219 C1218 1.327 . S
C1219 C1223 1.429 . S
C1220 C1203 1.574 . S
C1220 H1214 0.949 . S
C1220 C1224 1.368 . S
C1221 C1202 1.429 . S
C1221 C1215 1.429 . S
C1221 C1222 1.523 . S
C1222 C1203 1.368 . S
C1222 C1216 1.368 . S
C1222 C1221 1.523 . S
C1223 C1207 1.429 . S
C1223 C1219 1.429 . S
C1223 C1224 1.523 . S
C1224 C1208 1.368 . S
C1224 C1220 1.368 . S
C1224 C1223 1.523 . S
H1225 C1200 0.950 . S
H1226 C1202 0.950 . S
H1227 C1203 0.949 . S
H1228 C1205 0.950 . S
H1229 C1207 0.950 . S
C1230 C1231 1.349 . S
C1230 C1232 1.327 . S
C1230 H1255 0.950 . S
C1231 C1230 1.349 . S
C1231 C1247 1.349 . S
C1232 C1230 1.327 . S
C1232 C1251 1.429 . S
C1232 H1256 0.950 . S
C1233 C1250 1.574 . S
C1233 C1252 1.368 . S
C1233 H1257 0.949 . S
H1234 C1238 0.949 . S
C1235 C1236 1.349 . S
C1235 C1237 1.327 . S
C1235 H1258 0.950 . S
C1236 C1235 1.349 . S
C1236 C1248 1.349 . S
C1237 C1235 1.327 . S
C1237 C1253 1.429 . S
C1237 H1259 0.950 . S
C1238 H1234 0.949 . S
C1238 C1246 1.574 . S
C1238 C1254 1.368 . S
H1239 C1247 0.950 . S
H1240 C1245 0.950 . S
H1241 C1246 0.949 . S
H1242 C1248 0.950 . S
H1243 C1249 0.950 . S
H1244 C1250 0.949 . S
C1245 H1240 0.950 . S
C1245 C1247 1.327 . S
C1245 C1251 1.429 . S
C1246 C1238 1.574 . S
C1246 H1241 0.949 . S
C1246 C1252 1.368 . S
C1247 C1231 1.349 . S
C1247 H1239 0.950 . S
C1247 C1245 1.327 . S
C1248 C1236 1.349 . S
C1248 H1242 0.950 . S
C1248 C1249 1.327 . S
C1249 H1243 0.950 . S
C1249 C1248 1.327 . S
C1249 C1253 1.429 . S
C1250 C1233 1.574 . S
C1250 H1244 0.949 . S
C1250 C1254 1.368 . S
C1251 C1232 1.429 . S
C1251 C1245 1.429 . S
C1251 C1252 1.523 . S
C1252 C1233 1.368 . S
C1252 C1246 1.368 . S
C1252 C1251 1.523 . S
C1253 C1237 1.429 . S
C1253 C1249 1.429 . S
C1253 C1254 1.523 . S
C1254 C1238 1.368 . S
C1254 C1250 1.368 . S
C1254 C1253 1.523 . S
H1255 C1230 0.950 . S
H1256 C1232 0.950 . S
H1257 C1233 0.949 . S
H1258 C1235 0.950 . S
H1259 C1237 0.950 . S
C1260 C1261 1.349 . S
C1260 C1262 1.327 . S
C1260 H1285 0.950 . S
C1261 C1260 1.349 . S
C1261 C1277 1.349 . S
C1262 C1260 1.327 . S
C1262 C1281 1.429 . S
C1262 H1286 0.950 . S
C1263 C1280 1.574 . S
C1263 C1282 1.368 . S
C1263 H1287 0.949 . S
H1264 C1268 0.949 . S
C1265 C1266 1.349 . S
C1265 C1267 1.327 . S
C1265 H1288 0.950 . S
C1266 C1265 1.349 . S
C1266 C1278 1.349 . S
C1267 C1265 1.327 . S
C1267 C1283 1.429 . S
C1267 H1289 0.950 . S
C1268 H1264 0.949 . S
C1268 C1276 1.574 . S
C1268 C1284 1.368 . S
H1269 C1277 0.950 . S
H1270 C1275 0.950 . S
H1271 C1276 0.949 . S
H1272 C1278 0.950 . S
H1273 C1279 0.950 . S
H1274 C1280 0.949 . S
C1275 H1270 0.950 . S
C1275 C1277 1.327 . S
C1275 C1281 1.429 . S
C1276 C1268 1.574 . S
C1276 H1271 0.949 . S
C1276 C1282 1.368 . S
C1277 C1261 1.349 . S
C1277 H1269 0.950 . S
C1277 C1275 1.327 . S
C1278 C1266 1.349 . S
C1278 H1272 0.950 . S
C1278 C1279 1.327 . S
C1279 H1273 0.950 . S
C1279 C1278 1.327 . S
C1279 C1283 1.429 . S
C1280 C1263 1.574 . S
C1280 H1274 0.949 . S
C1280 C1284 1.368 . S
C1281 C1262 1.429 . S
C1281 C1275 1.429 . S
C1281 C1282 1.523 . S
C1282 C1263 1.368 . S
C1282 C1276 1.368 . S
C1282 C1281 1.523 . S
C1283 C1267 1.429 . S
C1283 C1279 1.429 . S
C1283 C1284 1.523 . S
C1284 C1268 1.368 . S
C1284 C1280 1.368 . S
C1284 C1283 1.523 . S
H1285 C1260 0.950 . S
H1286 C1262 0.950 . S
H1287 C1263 0.949 . S
H1288 C1265 0.950 . S
H1289 C1267 0.950 . S
C1290 C1291 1.349 . S
C1290 C1292 1.327 . S
C1290 H1315 0.950 . S
C1291 C1290 1.349 . S
C1291 C1307 1.349 . S
C1292 C1290 1.327 . S
C1292 C1311 1.429 . S
C1292 H1316 0.950 . S
C1293 C1310 1.574 . S
C1293 C1312 1.368 . S
C1293 H1317 0.949 . S
H1294 C1298 0.949 . S
C1295 C1296 1.349 . S
C1295 C1297 1.327 . S
C1295 H1318 0.950 . S
C1296 C1295 1.349 . S
C1296 C1308 1.349 . S
C1297 C1295 1.327 . S
C1297 C1313 1.429 . S
C1297 H1319 0.950 . S
C1298 H1294 0.949 . S
C1298 C1306 1.574 . S
C1298 C1314 1.368 . S
H1299 C1307 0.950 . S
H1300 C1305 0.950 . S
H1301 C1306 0.949 . S
H1302 C1308 0.950 . S
H1303 C1309 0.950 . S
H1304 C1310 0.949 . S
C1305 H1300 0.950 . S
C1305 C1307 1.327 . S
C1305 C1311 1.429 . S
C1306 C1298 1.574 . S
C1306 H1301 0.949 . S
C1306 C1312 1.368 . S
C1307 C1291 1.349 . S
C1307 H1299 0.950 . S
C1307 C1305 1.327 . S
C1308 C1296 1.349 . S
C1308 H1302 0.950 . S
C1308 C1309 1.327 . S
C1309 H1303 0.950 . S
C1309 C1308 1.327 . S
C1309 C1313 1.429 . S
C1310 C1293 1.574 . S
C1310 H1304 0.949 . S
C1310 C1314 1.368 . S
C1311 C1292 1.429 . S
C1311 C1305 1.429 . S
C1311 C1312 1.523 . S
C1312 C1293 1.368 . S
C1312 C1306 1.368 . S
C1312 C1311 1.523 . S
C1313 C1297 1.429 . S
C1313 C1309 1.429 . S
C1313 C1314 1.523 . S
C1314 C1298 1.368 . S
C1314 C1310 1.368 . S
C1314 C1313 1.523 . S
H1315 C1290 0.950 . S
H1316 C1292 0.950 . S
H1317 C1293 0.949 . S
H1318 C1295 0.950 . S
H1319 C1297 0.950 . S
C1320 C1321 1.349 . S
C1320 C1322 1.327 . S
C1320 H1345 0.950 . S
C1321 C1320 1.349 . S
C1321 C1337 1.349 . S
C1322 C1320 1.327 . S
C1322 C1341 1.429 . S
C1322 H1346 0.950 . S
C1323 C1340 1.574 . S
C1323 C1342 1.368 . S
C1323 H1347 0.949 . S
H1324 C1328 0.949 . S
C1325 C1326 1.349 . S
C1325 C1327 1.327 . S
C1325 H1348 0.950 . S
C1326 C1325 1.349 . S
C1326 C1338 1.349 . S
C1327 C1325 1.327 . S
C1327 C1343 1.429 . S
C1327 H1349 0.950 . S
C1328 H1324 0.949 . S
C1328 C1336 1.574 . S
C1328 C1344 1.368 . S
H1329 C1337 0.950 . S
H1330 C1335 0.950 . S
H1331 C1336 0.949 . S
H1332 C1338 0.950 . S
H1333 C1339 0.950 . S
H1334 C1340 0.949 . S
C1335 H1330 0.950 . S
C1335 C1337 1.327 . S
C1335 C1341 1.429 . S
C1336 C1328 1.574 . S
C1336 H1331 0.949 . S
C1336 C1342 1.368 . S
C1337 C1321 1.349 . S
C1337 H1329 0.950 . S
C1337 C1335 1.327 . S
C1338 C1326 1.349 . S
C1338 H1332 0.950 . S
C1338 C1339 1.327 . S
C1339 H1333 0.950 . S
C1339 C1338 1.327 . S
C1339 C1343 1.429 . S
C1340 C1323 1.574 . S
C1340 H1334 0.949 . S
C1340 C1344 1.368 . S
C1341 C1322 1.429 . S
C1341 C1335 1.429 . S
C1341 C1342 1.523 . S
C1342 C1323 1.368 . S
C1342 C1336 1.368 . S
C1342 C1341 1.523 . S
C1343 C1327 1.429 . S
C1343 C1339 1.429 . S
C1343 C1344 1.523 . S
C1344 C1328 1.368 . S
C1344 C1340 1.368 . S
C1344 C1343 1.523 . S
H1345 C1320 0.950 . S
H1346 C1322 0.950 . S
H1347 C1323 0.949 . S
H1348 C1325 0.950 . S
H1349 C1327 0.950 . S
C1350 C1351 1.349 . S
C1350 C1352 1.327 . S
C1350 H1375 0.950 . S
C1351 C1350 1.349 . S
C1351 C1367 1.349 . S
C1352 C1350 1.327 . S
C1352 C1371 1.429 . S
C1352 H1376 0.950 . S
C1353 C1370 1.574 . S
C1353 C1372 1.368 . S
C1353 H1377 0.949 . S
H1354 C1358 0.949 . S
C1355 C1356 1.349 . S
C1355 C1357 1.327 . S
C1355 H1378 0.950 . S
C1356 C1355 1.349 . S
C1356 C1368 1.349 . S
C1357 C1355 1.327 . S
C1357 C1373 1.429 . S
C1357 H1379 0.950 . S
C1358 H1354 0.949 . S
C1358 C1366 1.574 . S
C1358 C1374 1.368 . S
H1359 C1367 0.950 . S
H1360 C1365 0.950 . S
H1361 C1366 0.949 . S
H1362 C1368 0.950 . S
H1363 C1369 0.950 . S
H1364 C1370 0.949 . S
C1365 H1360 0.950 . S
C1365 C1367 1.327 . S
C1365 C1371 1.429 . S
C1366 C1358 1.574 . S
C1366 H1361 0.949 . S
C1366 C1372 1.368 . S
C1367 C1351 1.349 . S
C1367 H1359 0.950 . S
C1367 C1365 1.327 . S
C1368 C1356 1.349 . S
C1368 H1362 0.950 . S
C1368 C1369 1.327 . S
C1369 H1363 0.950 . S
C1369 C1368 1.327 . S
C1369 C1373 1.429 . S
C1370 C1353 1.574 . S
C1370 H1364 0.949 . S
C1370 C1374 1.368 . S
C1371 C1352 1.429 . S
C1371 C1365 1.429 . S
C1371 C1372 1.523 . S
C1372 C1353 1.368 . S
C1372 C1366 1.368 . S
C1372 C1371 1.523 . S
C1373 C1357 1.429 . S
C1373 C1369 1.429 . S
C1373 C1374 1.523 . S
C1374 C1358 1.368 . S
C1374 C1370 1.368 . S
C1374 C1373 1.523 . S
H1375 C1350 0.950 . S
H1376 C1352 0.950 . S
H1377 C1353 0.949 . S
H1378 C1355 0.950 . S
H1379 C1357 0.950 . S
C1380 C1381 1.349 . S
C1380 C1382 1.327 . S
C1380 H1405 0.950 . S
C1381 C1380 1.349 . S
C1381 C1397 1.349 . S
C1382 C1380 1.327 . S
C1382 C1401 1.429 . S
C1382 H1406 0.950 . S
C1383 C1400 1.574 . S
C1383 C1402 1.368 . S
C1383 H1407 0.949 . S
H1384 C1388 0.949 . S
C1385 C1386 1.349 . S
C1385 C1387 1.327 . S
C1385 H1408 0.950 . S
C1386 C1385 1.349 . S
C1386 C1398 1.349 . S
C1387 C1385 1.327 . S
C1387 C1403 1.429 . S
C1387 H1409 0.950 . S
C1388 H1384 0.949 . S
C1388 C1396 1.574 . S
C1388 C1404 1.368 . S
H1389 C1397 0.950 . S
H1390 C1395 0.950 . S
H1391 C1396 0.949 . S
H1392 C1398 0.950 . S
H1393 C1399 0.950 . S
H1394 C1400 0.949 . S
C1395 H1390 0.950 . S
C1395 C1397 1.327 . S
C1395 C1401 1.429 . S
C1396 C1388 1.574 . S
C1396 H1391 0.949 . S
C1396 C1402 1.368 . S
C1397 C1381 1.349 . S
C1397 H1389 0.950 . S
C1397 C1395 1.327 . S
C1398 C1386 1.349 . S
C1398 H1392 0.950 . S
C1398 C1399 1.327 . S
C1399 H1393 0.950 . S
C1399 C1398 1.327 . S
C1399 C1403 1.429 . S
C1400 C1383 1.574 . S
C1400 H1394 0.949 . S
C1400 C1404 1.368 . S
C1401 C1382 1.429 . S
C1401 C1395 1.429 . S
C1401 C1402 1.523 . S
C1402 C1383 1.368 . S
C1402 C1396 1.368 . S
C1402 C1401 1.523 . S
C1403 C1387 1.429 . S
C1403 C1399 1.429 . S
C1403 C1404 1.523 . S
C1404 C1388 1.368 . S
C1404 C1400 1.368 . S
C1404 C1403 1.523 . S
H1405 C1380 0.950 . S
H1406 C1382 0.950 . S
H1407 C1383 0.949 . S
H1408 C1385 0.950 . S
H1409 C1387 0.950 . S
C1410 C1411 1.349 . S
C1410 C1412 1.327 . S
C1410 H1435 0.950 . S
C1411 C1410 1.349 . S
C1411 C1427 1.349 . S
C1412 C1410 1.327 . S
C1412 C1431 1.429 . S
C1412 H1436 0.950 . S
C1413 C1430 1.574 . S
C1413 C1432 1.368 . S
C1413 H1437 0.949 . S
H1414 C1418 0.949 . S
C1415 C1416 1.349 . S
C1415 C1417 1.327 . S
C1415 H1438 0.950 . S
C1416 C1415 1.349 . S
C1416 C1428 1.349 . S
C1417 C1415 1.327 . S
C1417 C1433 1.429 . S
C1417 H1439 0.950 . S
C1418 H1414 0.949 . S
C1418 C1426 1.574 . S
C1418 C1434 1.368 . S
H1419 C1427 0.950 . S
H1420 C1425 0.950 . S
H1421 C1426 0.949 . S
H1422 C1428 0.950 . S
H1423 C1429 0.950 . S
H1424 C1430 0.949 . S
C1425 H1420 0.950 . S
C1425 C1427 1.327 . S
C1425 C1431 1.429 . S
C1426 C1418 1.574 . S
C1426 H1421 0.949 . S
C1426 C1432 1.368 . S
C1427 C1411 1.349 . S
C1427 H1419 0.950 . S
C1427 C1425 1.327 . S
C1428 C1416 1.349 . S
C1428 H1422 0.950 . S
C1428 C1429 1.327 . S
C1429 H1423 0.950 . S
C1429 C1428 1.327 . S
C1429 C1433 1.429 . S
C1430 C1413 1.574 . S
C1430 H1424 0.949 . S
C1430 C1434 1.368 . S
C1431 C1412 1.429 . S
C1431 C1425 1.429 . S
C1431 C1432 1.523 . S
C1432 C1413 1.368 . S
C1432 C1426 1.368 . S
C1432 C1431 1.523 . S
C1433 C1417 1.429 . S
C1433 C1429 1.429 . S
C1433 C1434 1.523 . S
C1434 C1418 1.368 . S
C1434 C1430 1.368 . S
C1434 C1433 1.523 . S
H1435 C1410 0.950 . S
H1436 C1412 0.950 . S
H1437 C1413 0.949 . S
H1438 C1415 0.950 . S
H1439 C1417 0.950 . S
C1440 C1441 1.349 . S
C1440 C1442 1.327 . S
C1440 H1465 0.950 . S
C1441 C1440 1.349 . S
C1441 C1457 1.349 . S
C1442 C1440 1.327 . S
C1442 C1461 1.429 . S
C1442 H1466 0.950 . S
C1443 C1460 1.574 . S
C1443 C1462 1.368 . S
C1443 H1467 0.949 . S
H1444 C1448 0.949 . S
C1445 C1446 1.349 . S
C1445 C1447 1.327 . S
C1445 H1468 0.950 . S
C1446 C1445 1.349 . S
C1446 C1458 1.349 . S
C1447 C1445 1.327 . S
C1447 C1463 1.429 . S
C1447 H1469 0.950 . S
C1448 H1444 0.949 . S
C1448 C1456 1.574 . S
C1448 C1464 1.368 . S
H1449 C1457 0.950 . S
H1450 C1455 0.950 . S
H1451 C1456 0.949 . S
H1452 C1458 0.950 . S
H1453 C1459 0.950 . S
H1454 C1460 0.949 . S
C1455 H1450 0.950 . S
C1455 C1457 1.327 . S
C1455 C1461 1.429 . S
C1456 C1448 1.574 . S
C1456 H1451 0.949 . S
C1456 C1462 1.368 . S
C1457 C1441 1.349 . S
C1457 H1449 0.950 . S
C1457 C1455 1.327 . S
C1458 C1446 1.349 . S
C1458 H1452 0.950 . S
C1458 C1459 1.327 . S
C1459 H1453 0.950 . S
C1459 C1458 1.327 . S
C1459 C1463 1.429 . S
C1460 C1443 1.574 . S
C1460 H1454 0.949 . S
C1460 C1464 1.368 . S
C1461 C1442 1.429 . S
C1461 C1455 1.429 . S
C1461 C1462 1.523 . S
C1462 C1443 1.368 . S
C1462 C1456 1.368 . S
C1462 C1461 1.523 . S
C1463 C1447 1.429 . S
C1463 C1459 1.429 . S
C1463 C1464 1.523 . S
C1464 C1448 1.368 . S
C1464 C1460 1.368 . S
C1464 C1463 1.523 . S
H1465 C1440 0.950 . S
H1466 C1442 0.950 . S
H1467 C1443 0.949 . S
H1468 C1445 0.950 . S
H1469 C1447 0.950 . S
C1470 C1471 1.349 . S
C1470 C1472 1.327 . S
C1470 H1495 0.950 . S
C1471 C1470 1.349 . S
C1471 C1487 1.349 . S
C1472 C1470 1.327 . S
C1472 C1491 1.429 . S
C1472 H1496 0.950 . S
C1473 C1490 1.574 . S
C1473 C1492 1.368 . S
C1473 H1497 0.949 . S
H1474 C1478 0.949 . S
C1475 C1476 1.349 . S
C1475 C1477 1.327 . S
C1475 H1498 0.950 . S
C1476 C1475 1.349 . S
C1476 C1488 1.349 . S
C1477 C1475 1.327 . S
C1477 C1493 1.429 . S
C1477 H1499 0.950 . S
C1478 H1474 0.949 . S
C1478 C1486 1.574 . S
C1478 C1494 1.368 . S
H1479 C1487 0.950 . S
H1480 C1485 0.950 . S
H1481 C1486 0.949 . S
H1482 C1488 0.950 . S
H1483 C1489 0.950 . S
H1484 C1490 0.949 . S
C1485 H1480 0.950 . S
C1485 C1487 1.327 . S
C1485 C1491 1.429 . S
C1486 C1478 1.574 . S
C1486 H1481 0.949 . S
C1486 C1492 1.368 . S
C1487 C1471 1.349 . S
C1487 H1479 0.950 . S
C1487 C1485 1.327 . S
C1488 C1476 1.349 . S
C1488 H1482 0.950 . S
C1488 C1489 1.327 . S
C1489 H1483 0.950 . S
C1489 C1488 1.327 . S
C1489 C1493 1.429 . S
C1490 C1473 1.574 . S
C1490 H1484 0.949 . S
C1490 C1494 1.368 . S
C1491 C1472 1.429 . S
C1491 C1485 1.429 . S
C1491 C1492 1.523 . S
C1492 C1473 1.368 . S
C1492 C1486 1.368 . S
C1492 C1491 1.523 . S
C1493 C1477 1.429 . S
C1493 C1489 1.429 . S
C1493 C1494 1.523 . S
C1494 C1478 1.368 . S
C1494 C1490 1.368 . S
C1494 C1493 1.523 . S
H1495 C1470 0.950 . S
H1496 C1472 0.950 . S
H1497 C1473 0.949 . S
H1498 C1475 0.950 . S
H1499 C1477 0.950 . S
C1500 C1501 1.349 . S
C1500 C1502 1.327 . S
C1500 H1525 0.950 . S
C1501 C1500 1.349 . S
C1501 C1517 1.349 . S
C1502 C1500 1.327 . S
C1502 C1521 1.429 . S
C1502 H1526 0.950 . S
C1503 C1520 1.574 . S
C1503 C1522 1.368 . S
C1503 H1527 0.949 . S
H1504 C1508 0.949 . S
C1505 C1506 1.349 . S
C1505 C1507 1.327 . S
C1505 H1528 0.950 . S
C1506 C1505 1.349 . S
C1506 C1518 1.349 . S
C1507 C1505 1.327 . S
C1507 C1523 1.429 . S
C1507 H1529 0.950 . S
C1508 H1504 0.949 . S
C1508 C1516 1.574 . S
C1508 C1524 1.368 . S
H1509 C1517 0.950 . S
H1510 C1515 0.950 . S
H1511 C1516 0.949 . S
H1512 C1518 0.950 . S
H1513 C1519 0.950 . S
H1514 C1520 0.949 . S
C1515 H1510 0.950 . S
C1515 C1517 1.327 . S
C1515 C1521 1.429 . S
C1516 C1508 1.574 . S
C1516 H1511 0.949 . S
C1516 C1522 1.368 . S
C1517 C1501 1.349 . S
C1517 H1509 0.950 . S
C1517 C1515 1.327 . S
C1518 C1506 1.349 . S
C1518 H1512 0.950 . S
C1518 C1519 1.327 . S
C1519 H1513 0.950 . S
C1519 C1518 1.327 . S
C1519 C1523 1.429 . S
C1520 C1503 1.574 . S
C1520 H1514 0.949 . S
C1520 C1524 1.368 . S
C1521 C1502 1.429 . S
C1521 C1515 1.429 . S
C1521 C1522 1.523 . S
C1522 C1503 1.368 . S
C1522 C1516 1.368 . S
C1522 C1521 1.523 . S
C1523 C1507 1.429 . S
C1523 C1519 1.429 . S
C1523 C1524 1.523 . S
C1524 C1508 1.368 . S
C1524 C1520 1.368 . S
C1524 C1523 1.523 . S
H1525 C1500 0.950 . S
H1526 C1502 0.950 . S
H1527 C1503 0.949 . S
H1528 C1505 0.950 . S
H1529 C1507 0.950 . S
C1530 C1531 1.349 . S
C1530 C1532 1.327 . S
C1530 H1555 0.950 . S
C1531 C1530 1.349 . S
C1531 C1547 1.349 . S
C1532 C1530 1.327 . S
C1532 C1551 1.429 . S
C1532 H1556 0.950 . S
C1533 C1550 1.574 . S
C1533 C1552 1.368 . S
C1533 H1557 0.949 . S
H1534 C1538 0.949 . S
C1535 C1536 1.349 . S
C1535 C1537 1.327 . S
C1535 H1558 0.950 . S
C1536 C1535 1.349 . S
C1536 C1548 1.349 . S
C1537 C1535 1.327 . S
C1537 C1553 1.429 . S
C1537 H1559 0.950 . S
C1538 H1534 0.949 . S
C1538 C1546 1.574 . S
C1538 C1554 1.368 . S
H1539 C1547 0.950 . S
H1540 C1545 0.950 . S
H1541 C1546 0.949 . S
H1542 C1548 0.950 . S
H1543 C1549 0.950 . S
H1544 C1550 0.949 . S
C1545 H1540 0.950 . S
C1545 C1547 1.327 . S
C1545 C1551 1.429 . S
C1546 C1538 1.574 . S
C1546 H1541 0.949 . S
C1546 C1552 1.368 . S
C1547 C1531 1.349 . S
C1547 H1539 0.950 . S
C1547 C1545 1.327 . S
C1548 C1536 1.349 . S
C1548 H1542 0.950 . S
C1548 C1549 1.327 . S
C1549 H1543 0.950 . S
C1549 C1548 1.327 . S
C1549 C1553 1.429 . S
C1550 C1533 1.574 . S
C1550 H1544 0.949 . S
C1550 C1554 1.368 . S
C1551 C1532 1.429 . S
C1551 C1545 1.429 . S
C1551 C1552 1.523 . S
C1552 C1533 1.368 . S
C1552 C1546 1.368 . S
C1552 C1551 1.523 . S
C1553 C1537 1.429 . S
C1553 C1549 1.429 . S
C1553 C1554 1.523 . S
C1554 C1538 1.368 . S
C1554 C1550 1.368 . S
C1554 C1553 1.523 . S
H1555 C1530 0.950 . S
H1556 C1532 0.950 . S
H1557 C1533 0.949 . S
H1558 C1535 0.950 . S
H1559 C1537 0.950 . S
C1560 C1561 1.349 . S
C1560 C1562 1.327 . S
C1560 H1585 0.950 . S
C1561 C1560 1.349 . S
C1561 C1577 1.349 . S
C1562 C1560 1.327 . S
C1562 C1581 1.429 . S
C1562 H1586 0.950 . S
C1563 C1580 1.574 . S
C1563 C1582 1.368 . S
C1563 H1587 0.949 . S
H1564 C1568 0.949 . S
C1565 C1566 1.349 . S
C1565 C1567 1.327 . S
C1565 H1588 0.950 . S
C1566 C1565 1.349 . S
C1566 C1578 1.349 . S
C1567 C1565 1.327 . S
C1567 C1583 1.429 . S
C1567 H1589 0.950 . S
C1568 H1564 0.949 . S
C1568 C1576 1.574 . S
C1568 C1584 1.368 . S
H1569 C1577 0.950 . S
H1570 C1575 0.950 . S
H1571 C1576 0.949 . S
H1572 C1578 0.950 . S
H1573 C1579 0.950 . S
H1574 C1580 0.949 . S
C1575 H1570 0.950 . S
C1575 C1577 1.327 . S
C1575 C1581 1.429 . S
C1576 C1568 1.574 . S
C1576 H1571 0.949 . S
C1576 C1582 1.368 . S
C1577 C1561 1.349 . S
C1577 H1569 0.950 . S
C1577 C1575 1.327 . S
C1578 C1566 1.349 . S
C1578 H1572 0.950 . S
C1578 C1579 1.327 . S
C1579 H1573 0.950 . S
C1579 C1578 1.327 . S
C1579 C1583 1.429 . S
C1580 C1563 1.574 . S
C1580 H1574 0.949 . S
C1580 C1584 1.368 . S
C1581 C1562 1.429 . S
C1581 C1575 1.429 . S
C1581 C1582 1.523 . S
C1582 C1563 1.368 . S
C1582 C1576 1.368 . S
C1582 C1581 1.523 . S
C1583 C1567 1.429 . S
C1583 C1579 1.429 . S
C1583 C1584 1.523 . S
C1584 C1568 1.368 . S
C1584 C1580 1.368 . S
C1584 C1583 1.523 . S
H1585 C1560 0.950 . S
H1586 C1562 0.950 . S
H1587 C1563 0.949 . S
H1588 C1565 0.950 . S
H1589 C1567 0.950 . S
C1590 C1591 1.349 . S
C1590 C1592 1.327 . S
C1590 H1615 0.950 . S
C1591 C1590 1.349 . S
C1591 C1607 1.349 . S
C1592 C1590 1.327 . S
C1592 C1611 1.429 . S
C1592 H1616 0.950 . S
C1593 C1610 1.574 . S
C1593 C1612 1.368 . S
C1593 H1617 0.949 . S
H1594 C1598 0.949 . S
C1595 C1596 1.349 . S
C1595 C1597 1.327 . S
C1595 H1618 0.950 . S
C1596 C1595 1.349 . S
C1596 C1608 1.349 . S
C1597 C1595 1.327 . S
C1597 C1613 1.429 . S
C1597 H1619 0.950 . S
C1598 H1594 0.949 . S
C1598 C1606 1.574 . S
C1598 C1614 1.368 . S
H1599 C1607 0.950 . S
H1600 C1605 0.950 . S
H1601 C1606 0.949 . S
H1602 C1608 0.950 . S
H1603 C1609 0.950 . S
H1604 C1610 0.949 . S
C1605 H1600 0.950 . S
C1605 C1607 1.327 . S
C1605 C1611 1.429 . S
C1606 C1598 1.574 . S
C1606 H1601 0.949 . S
C1606 C1612 1.368 . S
C1607 C1591 1.349 . S
C1607 H1599 0.950 . S
C1607 C1605 1.327 . S
C1608 C1596 1.349 . S
C1608 H1602 0.950 . S
C1608 C1609 1.327 . S
C1609 H1603 0.950 . S
C1609 C1608 1.327 . S
C1609 C1613 1.429 . S
C1610 C1593 1.574 . S
C1610 H1604 0.949 . S
C1610 C1614 1.368 . S
C1611 C1592 1.429 . S
C1611 C1605 1.429 . S
C1611 C1612 1.523 . S
C1612 C1593 1.368 . S
C1612 C1606 1.368 . S
C1612 C1611 1.523 . S
C1613 C1597 1.429 . S
C1613 C1609 1.429 . S
C1613 C1614 1.523 . S
C1614 C1598 1.368 . S
C1614 C1610 1.368 . S
C1614 C1613 1.523 . S
H1615 C1590 0.950 . S
H1616 C1592 0.950 . S
H1617 C1593 0.949 . S
H1618 C1595 0.950 . S
H1619 C1597 0.950 . S
C1620 C1621 1.349 . S
C1620 C1622 1.327 . S
C1620 H1645 0.950 . S
C1621 C1620 1.349 . S
C1621 C1637 1.349 . S
C1622 C1620 1.327 . S
C1622 C1641 1.429 . S
C1622 H1646 0.950 . S
C1623 C1640 1.574 . S
C1623 C1642 1.368 . S
C1623 H1647 0.949 . S
H1624 C1628 0.949 . S
C1625 C1626 1.349 . S
C1625 C1627 1.327 . S
C1625 H1648 0.950 . S
C1626 C1625 1.349 . S
C1626 C1638 1.349 . S
C1627 C1625 1.327 . S
C1627 C1643 1.429 . S
C1627 H1649 0.950 . S
C1628 H1624 0.949 . S
C1628 C1636 1.574 . S
C1628 C1644 1.368 . S
H1629 C1637 0.950 . S
H1630 C1635 0.950 . S
H1631 C1636 0.949 . S
H1632 C1638 0.950 . S
H1633 C1639 0.950 . S
H1634 C1640 0.949 . S
C1635 H1630 0.950 . S
C1635 C1637 1.327 . S
C1635 C1641 1.429 . S
C1636 C1628 1.574 . S
C1636 H1631 0.949 . S
C1636 C1642 1.368 . S
C1637 C1621 1.349 . S
C1637 H1629 0.950 . S
C1637 C1635 1.327 . S
C1638 C1626 1.349 . S
C1638 H1632 0.950 . S
C1638 C1639 1.327 . S
C1639 H1633 0.950 . S
C1639 C1638 1.327 . S
C1639 C1643 1.429 . S
C1640 C1623 1.574 . S
C1640 H1634 0.949 . S
C1640 C1644 1.368 . S
C1641 C1622 1.429 . S
C1641 C1635 1.429 . S
C1641 C1642 1.523 . S
C1642 C1623 1.368 . S
C1642 C1636 1.368 . S
C1642 C1641 1.523 . S
C1643 C1627 1.429 . S
C1643 C1639 1.429 . S
C1643 C1644 1.523 . S
C1644 C1628 1.368 . S
C1644 C1640 1.368 . S
C1644 C1643 1.523 . S
H1645 C1620 0.950 . S
H1646 C1622 0.950 . S
H1647 C1623 0.949 . S
H1648 C1625 0.950 . S
H1649 C1627 0.950 . S
C1650 C1651 1.349 . S
C1650 C1652 1.327 . S
C1650 H1675 0.950 . S
C1651 C1650 1.349 . S
C1651 C1667 1.349 . S
C1652 C1650 1.327 . S
C1652 C1671 1.429 . S
C1652 H1676 0.950 . S
C1653 C1670 1.574 . S
C1653 C1672 1.368 . S
C1653 H1677 0.949 . S
H1654 C1658 0.949 . S
C1655 C1656 1.349 . S
C1655 C1657 1.327 . S
C1655 H1678 0.950 . S
C1656 C1655 1.349 . S
C1656 C1668 1.349 . S
C1657 C1655 1.327 . S
C1657 C1673 1.429 . S
C1657 H1679 0.950 . S
C1658 H1654 0.949 . S
C1658 C1666 1.574 . S
C1658 C1674 1.368 . S
H1659 C1667 0.950 . S
H1660 C1665 0.950 . S
H1661 C1666 0.949 . S
H1662 C1668 0.950 . S
H1663 C1669 0.950 . S
H1664 C1670 0.949 . S
C1665 H1660 0.950 . S
C1665 C1667 1.327 . S
C1665 C1671 1.429 . S
C1666 C1658 1.574 . S
C1666 H1661 0.949 . S
C1666 C1672 1.368 . S
C1667 C1651 1.349 . S
C1667 H1659 0.950 . S
C1667 C1665 1.327 . S
C1668 C1656 1.349 . S
C1668 H1662 0.950 . S
C1668 C1669 1.327 . S
C1669 H1663 0.950 . S
C1669 C1668 1.327 . S
C1669 C1673 1.429 . S
C1670 C1653 1.574 . S
C1670 H1664 0.949 . S
C1670 C1674 1.368 . S
C1671 C1652 1.429 . S
C1671 C1665 1.429 . S
C1671 C1672 1.523 . S
C1672 C1653 1.368 . S
C1672 C1666 1.368 . S
C1672 C1671 1.523 . S
C1673 C1657 1.429 . S
C1673 C1669 1.429 . S
C1673 C1674 1.523 . S
C1674 C1658 1.368 . S
C1674 C1670 1.368 . S
C1674 C1673 1.523 . S
H1675 C1650 0.950 . S
H1676 C1652 0.950 . S
H1677 C1653 0.949 . S
H1678 C1655 0.950 . S
H1679 C1657 0.950 . S
C1680 C1681 1.349 . S
C1680 C1682 1.327 . S
C1680 H1705 0.950 . S
C1681 C1680 1.349 . S
C1681 C1697 1.349 . S
C1682 C1680 1.327 . S
C1682 C1701 1.429 . S
C1682 H1706 0.950 . S
C1683 C1700 1.574 . S
C1683 C1702 1.368 . S
C1683 H1707 0.949 . S
H1684 C1688 0.949 . S
C1685 C1686 1.349 . S
C1685 C1687 1.327 . S
C1685 H1708 0.950 . S
C1686 C1685 1.349 . S
C1686 C1698 1.349 . S
C1687 C1685 1.327 . S
C1687 C1703 1.429 . S
C1687 H1709 0.950 . S
C1688 H1684 0.949 . S
C1688 C1696 1.574 . S
C1688 C1704 1.368 . S
H1689 C1697 0.950 . S
H1690 C1695 0.950 . S
H1691 C1696 0.949 . S
H1692 C1698 0.950 . S
H1693 C1699 0.950 . S
H1694 C1700 0.949 . S
C1695 H1690 0.950 . S
C1695 C1697 1.327 . S
C1695 C1701 1.429 . S
C1696 C1688 1.574 . S
C1696 H1691 0.949 . S
C1696 C1702 1.368 . S
C1697 C1681 1.349 . S
C1697 H1689 0.950 . S
C1697 C1695 1.327 . S
C1698 C1686 1.349 . S
C1698 H1692 0.950 . S
C1698 C1699 1.327 . S
C1699 H1693 0.950 . S
C1699 C1698 1.327 . S
C1699 C1703 1.429 . S
C1700 C1683 1.574 . S
C1700 H1694 0.949 . S
C1700 C1704 1.368 . S
C1701 C1682 1.429 . S
C1701 C1695 1.429 . S
C1701 C1702 1.523 . S
C1702 C1683 1.368 . S
C1702 C1696 1.368 . S
C1702 C1701 1.523 . S
C1703 C1687 1.429 . S
C1703 C1699 1.429 . S
C1703 C1704 1.523 . S
C1704 C1688 1.368 . S
C1704 C1700 1.368 . S
C1704 C1703 1.523 . S
H1705 C1680 0.950 . S
H1706 C1682 0.950 . S
H1707 C1683 0.949 . S
H1708 C1685 0.950 . S
H1709 C1687 0.950 . S
C1710 C1711 1.349 . S
C1710 C1712 1.327 . S
C1710 H1735 0.950 . S
C1711 C1710 1.349 . S
C1711 C1727 1.349 . S
C1712 C1710 1.327 . S
C1712 C1731 1.429 . S
C1712 H1736 0.950 . S
C1713 C1730 1.574 . S
C1713 C1732 1.368 . S
C1713 H1737 0.949 . S
H1714 C1718 0.949 . S
C1715 C1716 1.349 . S
C1715 C1717 1.327 . S
C1715 H1738 0.950 . S
C1716 C1715 1.349 . S
C1716 C1728 1.349 . S
C1717 C1715 1.327 . S
C1717 C1733 1.429 . S
C1717 H1739 0.950 . S
C1718 H1714 0.949 . S
C1718 C1726 1.574 . S
C1718 C1734 1.368 . S
H1719 C1727 0.950 . S
H1720 C1725 0.950 . S
H1721 C1726 0.949 . S
H1722 C1728 0.950 . S
H1723 C1729 0.950 . S
H1724 C1730 0.949 . S
C1725 H1720 0.950 . S
C1725 C1727 1.327 . S
C1725 C1731 1.429 . S
C1726 C1718 1.574 . S
C1726 H1721 0.949 . S
C1726 C1732 1.368 . S
C1727 C1711 1.349 . S
C1727 H1719 0.950 . S
C1727 C1725 1.327 . S
C1728 C1716 1.349 . S
C1728 H1722 0.950 . S
C1728 C1729 1.327 . S
C1729 H1723 0.950 . S
C1729 C1728 1.327 . S
C1729 C1733 1.429 . S
C1730 C1713 1.574 . S
C1730 H1724 0.949 . S
C1730 C1734 1.368 . S
C1731 C1712 1.429 . S
C1731 C1725 1.429 . S
C1731 C1732 1.523 . S
C1732 C1713 1.368 . S
C1732 C1726 1.368 . S
C1732 C1731 1.523 . S
C1733 C1717 1.429 . S
C1733 C1729 1.429 . S
C1733 C1734 1.523 . S
C1734 C1718 1.368 . S
C1734 C1730 1.368 . S
C1734 C1733 1.523 . S
H1735 C1710 0.950 . S
H1736 C1712 0.950 . S
H1737 C1713 0.949 . S
H1738 C1715 0.950 . S
H1739 C1717 0.950 . S
C1740 C1741 1.349 . S
C1740 C1742 1.327 . S
C1740 H1765 0.950 . S
C1741 C1740 1.349 . S
C1741 C1757 1.349 . S
C1742 C1740 1.327 . S
C1742 C1761 1.429 . S
C1742 H1766 0.950 . S
C1743 C1760 1.574 . S
C1743 C1762 1.368 . S
C1743 H1767 0.949 . S
H1744 C1748 0.949 . S
C1745 C1746 1.349 . S
C1745 C1747 1.327 . S
C1745 H1768 0.950 . S
C1746 C1745 1.349 . S
C1746 C1758 1.349 . S
C1747 C1745 1.327 . S
C1747 C1763 1.429 . S
C1747 H1769 0.950 . S
C1748 H1744 0.949 . S
C1748 C1756 1.574 . S
C1748 C1764 1.368 . S
H1749 C1757 0.950 . S
H1750 C1755 0.950 . S
H1751 C1756 0.949 . S
H1752 C1758 0.950 . S
H1753 C1759 0.950 . S
H1754 C1760 0.949 . S
C1755 H1750 0.950 . S
C1755 C1757 1.327 . S
C1755 C1761 1.429 . S
C1756 C1748 1.574 . S
C1756 H1751 0.949 . S
C1756 C1762 1.368 . S
C1757 C1741 1.349 . S
C1757 H1749 0.950 . S
C1757 C1755 1.327 . S
C1758 C1746 1.349 . S
C1758 H1752 0.950 . S
C1758 C1759 1.327 . S
C1759 H1753 0.950 . S
C1759 C1758 1.327 . S
C1759 C1763 1.429 . S
C1760 C1743 1.574 . S
C1760 H1754 0.949 . S
C1760 C1764 1.368 . S
C1761 C1742 1.429 . S
C1761 C1755 1.429 . S
C1761 C1762 1.523 . S
C1762 C1743 1.368 . S
C1762 C1756 1.368 . S
C1762 C1761 1.523 . S
C1763 C1747 1.429 . S
C1763 C1759 1.429 . S
C1763 C1764 1.523 . S
C1764 C1748 1.368 . S
C1764 C1760 1.368 . S
C1764 C1763 1.523 . S
H1765 C1740 0.950 . S
H1766 C1742 0.950 . S
H1767 C1743 0.949 . S
H1768 C1745 0.950 . S
H1769 C1747 0.950 . S
C1770 C1771 1.349 . S
C1770 C1772 1.327 . S
C1770 H1795 0.950 . S
C1771 C1770 1.349 . S
C1771 C1787 1.349 . S
C1772 C1770 1.327 . S
C1772 C1791 1.429 . S
C1772 H1796 0.950 . S
C1773 C1790 1.574 . S
C1773 C1792 1.368 . S
C1773 H1797 0.949 . S
H1774 C1778 0.949 . S
C1775 C1776 1.349 . S
C1775 C1777 1.327 . S
C1775 H1798 0.950 . S
C1776 C1775 1.349 . S
C1776 C1788 1.349 . S
C1777 C1775 1.327 . S
C1777 C1793 1.429 . S
C1777 H1799 0.950 . S
C1778 H1774 0.949 . S
C1778 C1786 1.574 . S
C1778 C1794 1.368 . S
H1779 C1787 0.950 . S
H1780 C1785 0.950 . S
H1781 C1786 0.949 . S
H1782 C1788 0.950 . S
H1783 C1789 0.950 . S
H1784 C1790 0.949 . S
C1785 H1780 0.950 . S
C1785 C1787 1.327 . S
C1785 C1791 1.429 . S
C1786 C1778 1.574 . S
C1786 H1781 0.949 . S
C1786 C1792 1.368 . S
C1787 C1771 1.349 . S
C1787 H1779 0.950 . S
C1787 C1785 1.327 . S
C1788 C1776 1.349 . S
C1788 H1782 0.950 . S
C1788 C1789 1.327 . S
C1789 H1783 0.950 . S
C1789 C1788 1.327 . S
C1789 C1793 1.429 . S
C1790 C1773 1.574 . S
C1790 H1784 0.949 . S
C1790 C1794 1.368 . S
C1791 C1772 1.429 . S
C1791 C1785 1.429 . S
C1791 C1792 1.523 . S
C1792 C1773 1.368 . S
C1792 C1786 1.368 . S
C1792 C1791 1.523 . S
C1793 C1777 1.429 . S
C1793 C1789 1.429 . S
C1793 C1794 1.523 . S
C1794 C1778 1.368 . S
C1794 C1790 1.368 . S
C1794 C1793 1.523 . S
H1795 C1770 0.950 . S
H1796 C1772 0.950 . S
H1797 C1773 0.949 . S
H1798 C1775 0.950 . S
H1799 C1777 0.950 . S
C1800 C1801 1.349 . S
C1800 C1802 1.327 . S
C1800 H1825 0.950 . S
C1801 C1800 1.349 . S
C1801 C1817 1.349 . S
C1802 C1800 1.327 . S
C1802 C1821 1.429 . S
C1802 H1826 0.950 . S
C1803 C1820 1.574 . S
C1803 C1822 1.368 . S
C1803 H1827 0.949 . S
H1804 C1808 0.949 . S
C1805 C1806 1.349 . S
C1805 C1807 1.327 . S
C1805 H1828 0.950 . S
C1806 C1805 1.349 . S
C1806 C1818 1.349 . S
C1807 C1805 1.327 . S
C1807 C1823 1.429 . S
C1807 H1829 0.950 . S
C1808 H1804 0.949 . S
C1808 C1816 1.574 . S
C1808 C1824 1.368 . S
H1809 C1817 0.950 . S
H1810 C1815 0.950 . S
H1811 C1816 0.949 . S
H1812 C1818 0.950 . S
H1813 C1819 0.950 . S
H1814 C1820 0.949 . S
C1815 H1810 0.950 . S
C1815 C1817 1.327 . S
C1815 C1821 1.429 . S
C1816 C1808 1.574 . S
C1816 H1811 0.949 . S
C1816 C1822 1.368 . S
C1817 C1801 1.349 . S
C1817 H1809 0.950 . S
C1817 C1815 1.327 . S
C1818 C1806 1.349 . S
C1818 H1812 0.950 . S
C1818 C1819 1.327 . S
C1819 H1813 0.950 . S
C1819 C1818 1.327 . S
C1819 C1823 1.429 . S
C1820 C1803 1.574 . S
C1820 H1814 0.949 . S
C1820 C1824 1.368 . S
C1821 C1802 1.429 . S
C1821 C1815 1.429 . S
C1821 C1822 1.523 . S
C1822 C1803 1.368 . S
C1822 C1816 1.368 . S
C1822 C1821 1.523 . S
C1823 C1807 1.429 . S
C1823 C1819 1.429 . S
C1823 C1824 1.523 . S
C1824 C1808 1.368 . S
C1824 C1820 1.368 . S
C1824 C1823 1.523 . S
H1825 C1800 0.950 . S
H1826 C1802 0.950 . S
H1827 C1803 0.949 . S
H1828 C1805 0.950 . S
H1829 C1807 0.950 . S
C1830 C1831 1.349 . S
C1830 C1832 1.327 . S
C1830 H1855 0.950 . S
C1831 C1830 1.349 . S
C1831 C1847 1.349 . S
C1832 C1830 1.327 . S
C1832 C1851 1.429 . S
C1832 H1856 0.950 . S
C1833 C1850 1.574 . S
C1833 C1852 1.368 . S
C1833 H1857 0.949 . S
H1834 C1838 0.949 . S
C1835 C1836 1.349 . S
C1835 C1837 1.327 . S
C1835 H1858 0.950 . S
C1836 C1835 1.349 . S
C1836 C1848 1.349 . S
C1837 C1835 1.327 . S
C1837 C1853 1.429 . S
C1837 H1859 0.950 . S
C1838 H1834 0.949 . S
C1838 C1846 1.574 . S
C1838 C1854 1.368 . S
H1839 C1847 0.950 . S
H1840 C1845 0.950 . S
H1841 C1846 0.949 . S
H1842 C1848 0.950 . S
H1843 C1849 0.950 . S
H1844 C1850 0.949 . S
C1845 H1840 0.950 . S
C1845 C1847 1.327 . S
C1845 C1851 1.429 . S
C1846 C1838 1.574 . S
C1846 H1841 0.949 . S
C1846 C1852 1.368 . S
C1847 C1831 1.349 . S
C1847 H1839 0.950 . S
C1847 C1845 1.327 . S
C1848 C1836 1.349 . S
C1848 H1842 0.950 . S
C1848 C1849 1.327 . S
C1849 H1843 0.950 . S
C1849 C1848 1.327 . S
C1849 C1853 1.429 . S
C1850 C1833 1.574 . S
C1850 H1844 0.949 . S
C1850 C1854 1.368 . S
C1851 C1832 1.429 . S
C1851 C1845 1.429 . S
C1851 C1852 1.523 . S
C1852 C1833 1.368 . S
C1852 C1846 1.368 . S
C1852 C1851 1.523 . S
C1853 C1837 1.429 . S
C1853 C1849 1.429 . S
C1853 C1854 1.523 . S
C1854 C1838 1.368 . S
C1854 C1850 1.368 . S
C1854 C1853 1.523 . S
H1855 C1830 0.950 . S
H1856 C1832 0.950 . S
H1857 C1833 0.949 . S
H1858 C1835 0.950 . S
H1859 C1837 0.950 . S
C1860 C1861 1.349 . S
C1860 C1862 1.327 . S
C1860 H1885 0.950 . S
C1861 C1860 1.349 . S
C1861 C1877 1.349 . S
C1862 C1860 1.327 . S
C1862 C1881 1.429 . S
C1862 H1886 0.950 . S
C1863 C1880 1.574 . S
C1863 C1882 1.368 . S
C1863 H1887 0.949 . S
H1864 C1868 0.949 . S
C1865 C1866 1.349 . S
C1865 C1867 1.327 . S
C1865 H1888 0.950 . S
C1866 C1865 1.349 . S
C1866 C1878 1.349 . S
C1867 C1865 1.327 . S
C1867 C1883 1.429 . S
C1867 H1889 0.950 . S
C1868 H1864 0.949 . S
C1868 C1876 1.574 . S
C1868 C1884 1.368 . S
H1869 C1877 0.950 . S
H1870 C1875 0.950 . S
H1871 C1876 0.949 . S
H1872 C1878 0.950 . S
H1873 C1879 0.950 . S
H1874 C1880 0.949 . S
C1875 H1870 0.950 . S
C1875 C1877 1.327 . S
C1875 C1881 1.429 . S
C1876 C1868 1.574 . S
C1876 H1871 0.949 . S
C1876 C1882 1.368 . S
C1877 C1861 1.349 . S
C1877 H1869 0.950 . S
C1877 C1875 1.327 . S
C1878 C1866 1.349 . S
C1878 H1872 0.950 . S
C1878 C1879 1.327 . S
C1879 H1873 0.950 . S
C1879 C1878 1.327 . S
C1879 C1883 1.429 . S
C1880 C1863 1.574 . S
C1880 H1874 0.949 . S
C1880 C1884 1.368 . S
C1881 C1862 1.429 . S
C1881 C1875 1.429 . S
C1881 C1882 1.523 . S
C1882 C1863 1.368 . S
C1882 C1876 1.368 . S
C1882 C1881 1.523 . S
C1883 C1867 1.429 . S
C1883 C1879 1.429 . S
C1883 C1884 1.523 . S
C1884 C1868 1.368 . S
C1884 C1880 1.368 . S
C1884 C1883 1.523 . S
H1885 C1860 0.950 . S
H1886 C1862 0.950 . S
H1887 C1863 0.949 . S
H1888 C1865 0.950 . S
H1889 C1867 0.950 . S
C1890 C1891 1.349 . S
C1890 C1892 1.327 . S
C1890 H1915 0.950 . S
C1891 C1890 1.349 . S
C1891 C1907 1.349 . S
C1892 C1890 1.327 . S
C1892 C1911 1.429 . S
C1892 H1916 0.950 . S
C1893 C1910 1.574 . S
C1893 C1912 1.368 . S
C1893 H1917 0.949 . S
H1894 C1898 0.949 . S
C1895 C1896 1.349 . S
C1895 C1897 1.327 . S
C1895 H1918 0.950 . S
C1896 C1895 1.349 . S
C1896 C1908 1.349 . S
C1897 C1895 1.327 . S
C1897 C1913 1.429 . S
C1897 H1919 0.950 . S
C1898 H1894 0.949 . S
C1898 C1906 1.574 . S
C1898 C1914 1.368 . S
H1899 C1907 0.950 . S
H1900 C1905 0.950 . S
H1901 C1906 0.949 . S
H1902 C1908 0.950 . S
H1903 C1909 0.950 . S
H1904 C1910 0.949 . S
C1905 H1900 0.950 . S
C1905 C1907 1.327 . S
C1905 C1911 1.429 . S
C1906 C1898 1.574 . S
C1906 H1901 0.949 . S
C1906 C1912 1.368 . S
C1907 C1891 1.349 . S
C1907 H1899 0.950 . S
C1907 C1905 1.327 . S
C1908 C1896 1.349 . S
C1908 H1902 0.950 . S
C1908 C1909 1.327 . S
C1909 H1903 0.950 . S
C1909 C1908 1.327 . S
C1909 C1913 1.429 . S
C1910 C1893 1.574 . S
C1910 H1904 0.949 . S
C1910 C1914 1.368 . S
C1911 C1892 1.429 . S
C1911 C1905 1.429 . S
C1911 C1912 1.523 . S
C1912 C1893 1.368 . S
C1912 C1906 1.368 . S
C1912 C1911 1.523 . S
C1913 C1897 1.429 . S
C1913 C1909 1.429 . S
C1913 C1914 1.523 . S
C1914 C1898 1.368 . S
C1914 C1910 1.368 . S
C1914 C1913 1.523 . S
H1915 C1890 0.950 . S
H1916 C1892 0.950 . S
H1917 C1893 0.949 . S
H1918 C1895 0.950 . S
H1919 C1897 0.950 . S
C1920 C1921 1.349 . S
C1920 C1922 1.327 . S
C1920 H1945 0.950 . S
C1921 C1920 1.349 . S
C1921 C1937 1.349 . S
C1922 C1920 1.327 . S
C1922 C1941 1.429 . S
C1922 H1946 0.950 . S
C1923 C1940 1.574 . S
C1923 C1942 1.368 . S
C1923 H1947 0.949 . S
H1924 C1928 0.949 . S
C1925 C1926 1.349 . S
C1925 C1927 1.327 . S
C1925 H1948 0.950 . S
C1926 C1925 1.349 . S
C1926 C1938 1.349 . S
C1927 C1925 1.327 . S
C1927 C1943 1.429 . S
C1927 H1949 0.950 . S
C1928 H1924 0.949 . S
C1928 C1936 1.574 . S
C1928 C1944 1.368 . S
H1929 C1937 0.950 . S
H1930 C1935 0.950 . S
H1931 C1936 0.949 . S
H1932 C1938 0.950 . S
H1933 C1939 0.950 . S
H1934 C1940 0.949 . S
C1935 H1930 0.950 . S
C1935 C1937 1.327 . S
C1935 C1941 1.429 . S
C1936 C1928 1.574 . S
C1936 H1931 0.949 . S
C1936 C1942 1.368 . S
C1937 C1921 1.349 . S
C1937 H1929 0.950 . S
C1937 C1935 1.327 . S
C1938 C1926 1.349 . S
C1938 H1932 0.950 . S
C1938 C1939 1.327 . S
C1939 H1933 0.950 . S
C1939 C1938 1.327 . S
C1939 C1943 1.429 . S
C1940 C1923 1.574 . S
C1940 H1934 0.949 . S
C1940 C1944 1.368 . S
C1941 C1922 1.429 . S
C1941 C1935 1.429 . S
C1941 C1942 1.523 . S
C1942 C1923 1.368 . S
C1942 C1936 1.368 . S
C1942 C1941 1.523 . S
C1943 C1927 1.429 . S
C1943 C1939 1.429 . S
C1943 C1944 1.523 . S
C1944 C1928 1.368 . S
C1944 C1940 1.368 . S
C1944 C1943 1.523 . S
H1945 C1920 0.950 . S
H1946 C1922 0.950 . S
H1947 C1923 0.949 . S
H1948 C1925 0.950 . S
H1949 C1927 0.950 . S
C1950 C1951 1.349 . S
C1950 C1952 1.327 . S
C1950 H1975 0.950 . S
C1951 C1950 1.349 . S
C1951 C1967 1.349 . S
C1952 C1950 1.327 . S
C1952 C1971 1.429 . S
C1952 H1976 0.950 . S
C1953 C1970 1.574 . S
C1953 C1972 1.368 . S
C1953 H1977 0.949 . S
H1954 C1958 0.949 . S
C1955 C1956 1.349 . S
C1955 C1957 1.327 . S
C1955 H1978 0.950 . S
C1956 C1955 1.349 . S
C1956 C1968 1.349 . S
C1957 C1955 1.327 . S
C1957 C1973 1.429 . S
C1957 H1979 0.950 . S
C1958 H1954 0.949 . S
C1958 C1966 1.574 . S
C1958 C1974 1.368 . S
H1959 C1967 0.950 . S
H1960 C1965 0.950 . S
H1961 C1966 0.949 . S
H1962 C1968 0.950 . S
H1963 C1969 0.950 . S
H1964 C1970 0.949 . S
C1965 H1960 0.950 . S
C1965 C1967 1.327 . S
C1965 C1971 1.429 . S
C1966 C1958 1.574 . S
C1966 H1961 0.949 . S
C1966 C1972 1.368 . S
C1967 C1951 1.349 . S
C1967 H1959 0.950 . S
C1967 C1965 1.327 . S
C1968 C1956 1.349 . S
C1968 H1962 0.950 . S
C1968 C1969 1.327 . S
C1969 H1963 0.950 . S
C1969 C1968 1.327 . S
C1969 C1973 1.429 . S
C1970 C1953 1.574 . S
C1970 H1964 0.949 . S
C1970 C1974 1.368 . S
C1971 C1952 1.429 . S
C1971 C1965 1.429 . S
C1971 C1972 1.523 . S
C1972 C1953 1.368 . S
C1972 C1966 1.368 . S
C1972 C1971 1.523 . S
C1973 C1957 1.429 . S
C1973 C1969 1.429 . S
C1973 C1974 1.523 . S
C1974 C1958 1.368 . S
C1974 C1970 1.368 . S
C1974 C1973 1.523 . S
H1975 C1950 0.950 . S
H1976 C1952 0.950 . S
H1977 C1953 0.949 . S
H1978 C1955 0.950 . S
H1979 C1957 0.950 . S
C1980 C1981 1.349 . S
C1980 C1982 1.327 . S
C1980 H2005 0.950 . S
C1981 C1980 1.349 . S
C1981 C1997 1.349 . S
C1982 C1980 1.327 . S
C1982 C2001 1.429 . S
C1982 H2006 0.950 . S
C1983 C2000 1.574 . S
C1983 C2002 1.368 . S
C1983 H2007 0.949 . S
H1984 C1988 0.949 . S
C1985 C1986 1.349 . S
C1985 C1987 1.327 . S
C1985 H2008 0.950 . S
C1986 C1985 1.349 . S
C1986 C1998 1.349 . S
C1987 C1985 1.327 . S
C1987 C2003 1.429 . S
C1987 H2009 0.950 . S
C1988 H1984 0.949 . S
C1988 C1996 1.574 . S
C1988 C2004 1.368 . S
H1989 C1997 0.950 . S
H1990 C1995 0.950 . S
H1991 C1996 0.949 . S
H1992 C1998 0.950 . S
H1993 C1999 0.950 . S
H1994 C2000 0.949 . S
C1995 H1990 0.950 . S
C1995 C1997 1.327 . S
C1995 C2001 1.429 . S
C1996 C1988 1.574 . S
C1996 H1991 0.949 . S
C1996 C2002 1.368 . S
C1997 C1981 1.349 . S
C1997 H1989 0.950 . S
C1997 C1995 1.327 . S
C1998 C1986 1.349 . S
C1998 H1992 0.950 . S
C1998 C1999 1.327 . S
C1999 H1993 0.950 . S
C1999 C1998 1.327 . S
C1999 C2003 1.429 . S
C2000 C1983 1.574 . S
C2000 H1994 0.949 . S
C2000 C2004 1.368 . S
C2001 C1982 1.429 . S
C2001 C1995 1.429 . S
C2001 C2002 1.523 . S
C2002 C1983 1.368 . S
C2002 C1996 1.368 . S
C2002 C2001 1.523 . S
C2003 C1987 1.429 . S
C2003 C1999 1.429 . S
C2003 C2004 1.523 . S
C2004 C1988 1.368 . S
C2004 C2000 1.368 . S
C2004 C2003 1.523 . S
H2005 C1980 0.950 . S
H2006 C1982 0.950 . S
H2007 C1983 0.949 . S
H2008 C1985 0.950 . S
H2009 C1987 0.950 . S
C2010 C2011 1.349 . S
C2010 C2012 1.327 . S
C2010 H2035 0.950 . S
C2011 C2010 1.349 . S
C2011 C2027 1.349 . S
C2012 C2010 1.327 . S
C2012 C2031 1.429 . S
C2012 H2036 0.950 . S
C2013 C2030 1.574 . S
C2013 C2032 1.368 . S
C2013 H2037 0.949 . S
H2014 C2018 0.949 . S
C2015 C2016 1.349 . S
C2015 C2017 1.327 . S
C2015 H2038 0.950 . S
C2016 C2015 1.349 . S
C2016 C2028 1.349 . S
C2017 C2015 1.327 . S
C2017 C2033 1.429 . S
C2017 H2039 0.950 . S
C2018 H2014 0.949 . S
C2018 C2026 1.574 . S
C2018 C2034 1.368 . S
H2019 C2027 0.950 . S
H2020 C2025 0.950 . S
H2021 C2026 0.949 . S
H2022 C2028 0.950 . S
H2023 C2029 0.950 . S
H2024 C2030 0.949 . S
C2025 H2020 0.950 . S
C2025 C2027 1.327 . S
C2025 C2031 1.429 . S
C2026 C2018 1.574 . S
C2026 H2021 0.949 . S
C2026 C2032 1.368 . S
C2027 C2011 1.349 . S
C2027 H2019 0.950 . S
C2027 C2025 1.327 . S
C2028 C2016 1.349 . S
C2028 H2022 0.950 . S
C2028 C2029 1.327 . S
C2029 H2023 0.950 . S
C2029 C2028 1.327 . S
C2029 C2033 1.429 . S
C2030 C2013 1.574 . S
C2030 H2024 0.949 . S
C2030 C2034 1.368 . S
C2031 C2012 1.429 . S
C2031 C2025 1.429 . S
C2031 C2032 1.523 . S
C2032 C2013 1.368 . S
C2032 C2026 1.368 . S
C2032 C2031 1.523 . S
C2033 C2017 1.429 . S
C2033 C2029 1.429 . S
C2033 C2034 1.523 . S
C2034 C2018 1.368 . S
C2034 C2030 1.368 . S
C2034 C2033 1.523 . S
H2035 C2010 0.950 . S
H2036 C2012 0.950 . S
H2037 C2013 0.949 . S
H2038 C2015 0.950 . S
H2039 C2017 0.950 . S
C2040 C2041 1.349 . S
C2040 C2042 1.327 . S
C2040 H2065 0.950 . S
C2041 C2040 1.349 . S
C2041 C2057 1.349 . S
C2042 C2040 1.327 . S
C2042 C2061 1.429 . S
C2042 H2066 0.950 . S
C2043 C2060 1.574 . S
C2043 C2062 1.368 . S
C2043 H2067 0.949 . S
H2044 C2048 0.949 . S
C2045 C2046 1.349 . S
C2045 C2047 1.327 . S
C2045 H2068 0.950 . S
C2046 C2045 1.349 . S
C2046 C2058 1.349 . S
C2047 C2045 1.327 . S
C2047 C2063 1.429 . S
C2047 H2069 0.950 . S
C2048 H2044 0.949 . S
C2048 C2056 1.574 . S
C2048 C2064 1.368 . S
H2049 C2057 0.950 . S
H2050 C2055 0.950 . S
H2051 C2056 0.949 . S
H2052 C2058 0.950 . S
H2053 C2059 0.950 . S
H2054 C2060 0.949 . S
C2055 H2050 0.950 . S
C2055 C2057 1.327 . S
C2055 C2061 1.429 . S
C2056 C2048 1.574 . S
C2056 H2051 0.949 . S
C2056 C2062 1.368 . S
C2057 C2041 1.349 . S
C2057 H2049 0.950 . S
C2057 C2055 1.327 . S
C2058 C2046 1.349 . S
C2058 H2052 0.950 . S
C2058 C2059 1.327 . S
C2059 H2053 0.950 . S
C2059 C2058 1.327 . S
C2059 C2063 1.429 . S
C2060 C2043 1.574 . S
C2060 H2054 0.949 . S
C2060 C2064 1.368 . S
C2061 C2042 1.429 . S
C2061 C2055 1.429 . S
C2061 C2062 1.523 . S
C2062 C2043 1.368 . S
C2062 C2056 1.368 . S
C2062 C2061 1.523 . S
C2063 C2047 1.429 . S
C2063 C2059 1.429 . S
C2063 C2064 1.523 . S
C2064 C2048 1.368 . S
C2064 C2060 1.368 . S
C2064 C2063 1.523 . S
H2065 C2040 0.950 . S
H2066 C2042 0.950 . S
H2067 C2043 0.949 . S
H2068 C2045 0.950 . S
H2069 C2047 0.950 . S
C2070 C2071 1.349 . S
C2070 C2072 1.327 . S
C2070 H2095 0.950 . S
C2071 C2070 1.349 . S
C2071 C2087 1.349 . S
C2072 C2070 1.327 . S
C2072 C2091 1.429 . S
C2072 H2096 0.950 . S
C2073 C2090 1.574 . S
C2073 C2092 1.368 . S
C2073 H2097 0.949 . S
H2074 C2078 0.949 . S
C2075 C2076 1.349 . S
C2075 C2077 1.327 . S
C2075 H2098 0.950 . S
C2076 C2075 1.349 . S
C2076 C2088 1.349 . S
C2077 C2075 1.327 . S
C2077 C2093 1.429 . S
C2077 H2099 0.950 . S
C2078 H2074 0.949 . S
C2078 C2086 1.574 . S
C2078 C2094 1.368 . S
H2079 C2087 0.950 . S
H2080 C2085 0.950 . S
H2081 C2086 0.949 . S
H2082 C2088 0.950 . S
H2083 C2089 0.950 . S
H2084 C2090 0.949 . S
C2085 H2080 0.950 . S
C2085 C2087 1.327 . S
C2085 C2091 1.429 . S
C2086 C2078 1.574 . S
C2086 H2081 0.949 . S
C2086 C2092 1.368 . S
C2087 C2071 1.349 . S
C2087 H2079 0.950 . S
C2087 C2085 1.327 . S
C2088 C2076 1.349 . S
C2088 H2082 0.950 . S
C2088 C2089 1.327 . S
C2089 H2083 0.950 . S
C2089 C2088 1.327 . S
C2089 C2093 1.429 . S
C2090 C2073 1.574 . S
C2090 H2084 0.949 . S
C2090 C2094 1.368 . S
C2091 C2072 1.429 . S
C2091 C2085 1.429 . S
C2091 C2092 1.523 . S
C2092 C2073 1.368 . S
C2092 C2086 1.368 . S
C2092 C2091 1.523 . S
C2093 C2077 1.429 . S
C2093 C2089 1.429 . S
C2093 C2094 1.523 . S
C2094 C2078 1.368 . S
C2094 C2090 1.368 . S
C2094 C2093 1.523 . S
H2095 C2070 0.950 . S
H2096 C2072 0.950 . S
H2097 C2073 0.949 . S
H2098 C2075 0.950 . S
H2099 C2077 0.950 . S
C2100 C2101 1.349 . S
C2100 C2102 1.327 . S
C2100 H2125 0.950 . S
C2101 C2100 1.349 . S
C2101 C2117 1.349 . S
C2102 C2100 1.327 . S
C2102 C2121 1.429 . S
C2102 H2126 0.950 . S
C2103 C2120 1.574 . S
C2103 C2122 1.368 . S
C2103 H2127 0.949 . S
H2104 C2108 0.949 . S
C2105 C2106 1.349 . S
C2105 C2107 1.327 . S
C2105 H2128 0.950 . S
C2106 C2105 1.349 . S
C2106 C2118 1.349 . S
C2107 C2105 1.327 . S
C2107 C2123 1.429 . S
C2107 H2129 0.950 . S
C2108 H2104 0.949 . S
C2108 C2116 1.574 . S
C2108 C2124 1.368 . S
H2109 C2117 0.950 . S
H2110 C2115 0.950 . S
H2111 C2116 0.949 . S
H2112 C2118 0.950 . S
H2113 C2119 0.950 . S
H2114 C2120 0.949 . S
C2115 H2110 0.950 . S
C2115 C2117 1.327 . S
C2115 C2121 1.429 . S
C2116 C2108 1.574 . S
C2116 H2111 0.949 . S
C2116 C2122 1.368 . S
C2117 C2101 1.349 . S
C2117 H2109 0.950 . S
C2117 C2115 1.327 . S
C2118 C2106 1.349 . S
C2118 H2112 0.950 . S
C2118 C2119 1.327 . S
C2119 H2113 0.950 . S
C2119 C2118 1.327 . S
C2119 C2123 1.429 . S
C2120 C2103 1.574 . S
C2120 H2114 0.949 . S
C2120 C2124 1.368 . S
C2121 C2102 1.429 . S
C2121 C2115 1.429 . S
C2121 C2122 1.523 . S
C2122 C2103 1.368 . S
C2122 C2116 1.368 . S
C2122 C2121 1.523 . S
C2123 C2107 1.429 . S
C2123 C2119 1.429 . S
C2123 C2124 1.523 . S
C2124 C2108 1.368 . S
C2124 C2120 1.368 . S
C2124 C2123 1.523 . S
H2125 C2100 0.950 . S
H2126 C2102 0.950 . S
H2127 C2103 0.949 . S
H2128 C2105 0.950 . S
H2129 C2107 0.950 . S
C2130 C2131 1.349 . S
C2130 C2132 1.327 . S
C2130 H2155 0.950 . S
C2131 C2130 1.349 . S
C2131 C2147 1.349 . S
C2132 C2130 1.327 . S
C2132 C2151 1.429 . S
C2132 H2156 0.950 . S
C2133 C2150 1.574 . S
C2133 C2152 1.368 . S
C2133 H2157 0.949 . S
H2134 C2138 0.949 . S
C2135 C2136 1.349 . S
C2135 C2137 1.327 . S
C2135 H2158 0.950 . S
C2136 C2135 1.349 . S
C2136 C2148 1.349 . S
C2137 C2135 1.327 . S
C2137 C2153 1.429 . S
C2137 H2159 0.950 . S
C2138 H2134 0.949 . S
C2138 C2146 1.574 . S
C2138 C2154 1.368 . S
H2139 C2147 0.950 . S
H2140 C2145 0.950 . S
H2141 C2146 0.949 . S
H2142 C2148 0.950 . S
H2143 C2149 0.950 . S
H2144 C2150 0.949 . S
C2145 H2140 0.950 . S
C2145 C2147 1.327 . S
C2145 C2151 1.429 . S
C2146 C2138 1.574 . S
C2146 H2141 0.949 . S
C2146 C2152 1.368 . S
C2147 C2131 1.349 . S
C2147 H2139 0.950 . S
C2147 C2145 1.327 . S
C2148 C2136 1.349 . S
C2148 H2142 0.950 . S
C2148 C2149 1.327 . S
C2149 H2143 0.950 . S
C2149 C2148 1.327 . S
C2149 C2153 1.429 . S
C2150 C2133 1.574 . S
C2150 H2144 0.949 . S
C2150 C2154 1.368 . S
C2151 C2132 1.429 . S
C2151 C2145 1.429 . S
C2151 C2152 1.523 . S
C2152 C2133 1.368 . S
C2152 C2146 1.368 . S
C2152 C2151 1.523 . S
C2153 C2137 1.429 . S
C2153 C2149 1.429 . S
C2153 C2154 1.523 . S
C2154 C2138 1.368 . S
C2154 C2150 1.368 . S
C2154 C2153 1.523 . S
H2155 C2130 0.950 . S
H2156 C2132 0.950 . S
H2157 C2133 0.949 . S
H2158 C2135 0.950 . S
H2159 C2137 0.950 . S
C2160 C2161 1.349 . S
C2160 C2162 1.327 . S
C2160 H2185 0.950 . S
C2161 C2160 1.349 . S
C2161 C2177 1.349 . S
C2162 C2160 1.327 . S
C2162 C2181 1.429 . S
C2162 H2186 0.950 . S
C2163 C2180 1.574 . S
C2163 C2182 1.368 . S
C2163 H2187 0.949 . S
H2164 C2168 0.949 . S
C2165 C2166 1.349 . S
C2165 C2167 1.327 . S
C2165 H2188 0.950 . S
C2166 C2165 1.349 . S
C2166 C2178 1.349 . S
C2167 C2165 1.327 . S
C2167 C2183 1.429 . S
C2167 H2189 0.950 . S
C2168 H2164 0.949 . S
C2168 C2176 1.574 . S
C2168 C2184 1.368 . S
H2169 C2177 0.950 . S
H2170 C2175 0.950 . S
H2171 C2176 0.949 . S
H2172 C2178 0.950 . S
H2173 C2179 0.950 . S
H2174 C2180 0.949 . S
C2175 H2170 0.950 . S
C2175 C2177 1.327 . S
C2175 C2181 1.429 . S
C2176 C2168 1.574 . S
C2176 H2171 0.949 . S
C2176 C2182 1.368 . S
C2177 C2161 1.349 . S
C2177 H2169 0.950 . S
C2177 C2175 1.327 . S
C2178 C2166 1.349 . S
C2178 H2172 0.950 . S
C2178 C2179 1.327 . S
C2179 H2173 0.950 . S
C2179 C2178 1.327 . S
C2179 C2183 1.429 . S
C2180 C2163 1.574 . S
C2180 H2174 0.949 . S
C2180 C2184 1.368 . S
C2181 C2162 1.429 . S
C2181 C2175 1.429 . S
C2181 C2182 1.523 . S
C2182 C2163 1.368 . S
C2182 C2176 1.368 . S
C2182 C2181 1.523 . S
C2183 C2167 1.429 . S
C2183 C2179 1.429 . S
C2183 C2184 1.523 . S
C2184 C2168 1.368 . S
C2184 C2180 1.368 . S
C2184 C2183 1.523 . S
H2185 C2160 0.950 . S
H2186 C2162 0.950 . S
H2187 C2163 0.949 . S
H2188 C2165 0.950 . S
H2189 C2167 0.950 . S
C2190 C2191 1.349 . S
C2190 C2192 1.327 . S
C2190 H2215 0.950 . S
C2191 C2190 1.349 . S
C2191 C2207 1.349 . S
C2192 C2190 1.327 . S
C2192 C2211 1.429 . S
C2192 H2216 0.950 . S
C2193 C2210 1.574 . S
C2193 C2212 1.368 . S
C2193 H2217 0.949 . S
H2194 C2198 0.949 . S
C2195 C2196 1.349 . S
C2195 C2197 1.327 . S
C2195 H2218 0.950 . S
C2196 C2195 1.349 . S
C2196 C2208 1.349 . S
C2197 C2195 1.327 . S
C2197 C2213 1.429 . S
C2197 H2219 0.950 . S
C2198 H2194 0.949 . S
C2198 C2206 1.574 . S
C2198 C2214 1.368 . S
H2199 C2207 0.950 . S
H2200 C2205 0.950 . S
H2201 C2206 0.949 . S
H2202 C2208 0.950 . S
H2203 C2209 0.950 . S
H2204 C2210 0.949 . S
C2205 H2200 0.950 . S
C2205 C2207 1.327 . S
C2205 C2211 1.429 . S
C2206 C2198 1.574 . S
C2206 H2201 0.949 . S
C2206 C2212 1.368 . S
C2207 C2191 1.349 . S
C2207 H2199 0.950 . S
C2207 C2205 1.327 . S
C2208 C2196 1.349 . S
C2208 H2202 0.950 . S
C2208 C2209 1.327 . S
C2209 H2203 0.950 . S
C2209 C2208 1.327 . S
C2209 C2213 1.429 . S
C2210 C2193 1.574 . S
C2210 H2204 0.949 . S
C2210 C2214 1.368 . S
C2211 C2192 1.429 . S
C2211 C2205 1.429 . S
C2211 C2212 1.523 . S
C2212 C2193 1.368 . S
C2212 C2206 1.368 . S
C2212 C2211 1.523 . S
C2213 C2197 1.429 . S
C2213 C2209 1.429 . S
C2213 C2214 1.523 . S
C2214 C2198 1.368 . S
C2214 C2210 1.368 . S
C2214 C2213 1.523 . S
H2215 C2190 0.950 . S
H2216 C2192 0.950 . S
H2217 C2193 0.949 . S
H2218 C2195 0.950 . S
H2219 C2197 0.950 . S
C2220 C2221 1.349 . S
C2220 C2222 1.327 . S
C2220 H2245 0.950 . S
C2221 C2220 1.349 . S
C2221 C2237 1.349 . S
C2222 C2220 1.327 . S
C2222 C2241 1.429 . S
C2222 H2246 0.950 . S
C2223 C2240 1.574 . S
C2223 C2242 1.368 . S
C2223 H2247 0.949 . S
H2224 C2228 0.949 . S
C2225 C2226 1.349 . S
C2225 C2227 1.327 . S
C2225 H2248 0.950 . S
C2226 C2225 1.349 . S
C2226 C2238 1.349 . S
C2227 C2225 1.327 . S
C2227 C2243 1.429 . S
C2227 H2249 0.950 . S
C2228 H2224 0.949 . S
C2228 C2236 1.574 . S
C2228 C2244 1.368 . S
H2229 C2237 0.950 . S
H2230 C2235 0.950 . S
H2231 C2236 0.949 . S
H2232 C2238 0.950 . S
H2233 C2239 0.950 . S
H2234 C2240 0.949 . S
C2235 H2230 0.950 . S
C2235 C2237 1.327 . S
C2235 C2241 1.429 . S
C2236 C2228 1.574 . S
C2236 H2231 0.949 . S
C2236 C2242 1.368 . S
C2237 C2221 1.349 . S
C2237 H2229 0.950 . S
C2237 C2235 1.327 . S
C2238 C2226 1.349 . S
C2238 H2232 0.950 . S
C2238 C2239 1.327 . S
C2239 H2233 0.950 . S
C2239 C2238 1.327 . S
C2239 C2243 1.429 . S
C2240 C2223 1.574 . S
C2240 H2234 0.949 . S
C2240 C2244 1.368 . S
C2241 C2222 1.429 . S
C2241 C2235 1.429 . S
C2241 C2242 1.523 . S
C2242 C2223 1.368 . S
C2242 C2236 1.368 . S
C2242 C2241 1.523 . S
C2243 C2227 1.429 . S
C2243 C2239 1.429 . S
C2243 C2244 1.523 . S
C2244 C2228 1.368 . S
C2244 C2240 1.368 . S
C2244 C2243 1.523 . S
H2245 C2220 0.950 . S
H2246 C2222 0.950 . S
H2247 C2223 0.949 . S
H2248 C2225 0.950 . S
H2249 C2227 0.950 . S
C2250 C2251 1.349 . S
C2250 C2252 1.327 . S
C2250 H2275 0.950 . S
C2251 C2250 1.349 . S
C2251 C2267 1.349 . S
C2252 C2250 1.327 . S
C2252 C2271 1.429 . S
C2252 H2276 0.950 . S
C2253 C2270 1.574 . S
C2253 C2272 1.368 . S
C2253 H2277 0.949 . S
H2254 C2258 0.949 . S
C2255 C2256 1.349 . S
C2255 C2257 1.327 . S
C2255 H2278 0.950 . S
C2256 C2255 1.349 . S
C2256 C2268 1.349 . S
C2257 C2255 1.327 . S
C2257 C2273 1.429 . S
C2257 H2279 0.950 . S
C2258 H2254 0.949 . S
C2258 C2266 1.574 . S
C2258 C2274 1.368 . S
H2259 C2267 0.950 . S
H2260 C2265 0.950 . S
H2261 C2266 0.949 . S
H2262 C2268 0.950 . S
H2263 C2269 0.950 . S
H2264 C2270 0.949 . S
C2265 H2260 0.950 . S
C2265 C2267 1.327 . S
C2265 C2271 1.429 . S
C2266 C2258 1.574 . S
C2266 H2261 0.949 . S
C2266 C2272 1.368 . S
C2267 C2251 1.349 . S
C2267 H2259 0.950 . S
C2267 C2265 1.327 . S
C2268 C2256 1.349 . S
C2268 H2262 0.950 . S
C2268 C2269 1.327 . S
C2269 H2263 0.950 . S
C2269 C2268 1.327 . S
C2269 C2273 1.429 . S
C2270 C2253 1.574 . S
C2270 H2264 0.949 . S
C2270 C2274 1.368 . S
C2271 C2252 1.429 . S
C2271 C2265 1.429 . S
C2271 C2272 1.523 . S
C2272 C2253 1.368 . S
C2272 C2266 1.368 . S
C2272 C2271 1.523 . S
C2273 C2257 1.429 . S
C2273 C2269 1.429 . S
C2273 C2274 1.523 . S
C2274 C2258 1.368 . S
C2274 C2270 1.368 . S
C2274 C2273 1.523 . S
H2275 C2250 0.950 . S
H2276 C2252 0.950 . S
H2277 C2253 0.949 . S
H2278 C2255 0.950 . S
H2279 C2257 0.950 . S
C2280 C2281 1.349 . S
C2280 C2282 1.327 . S
C2280 H2305 0.950 . S
C2281 C2280 1.349 . S
C2281 C2297 1.349 . S
C2282 C2280 1.327 . S
C2282 C2301 1.429 . S
C2282 H2306 0.950 . S
C2283 C2300 1.574 . S
C2283 C2302 1.368 . S
C2283 H2307 0.949 . S
H2284 C2288 0.949 . S
C2285 C2286 1.349 . S
C2285 C2287 1.327 . S
C2285 H2308 0.950 . S
C2286 C2285 1.349 . S
C2286 C2298 1.349 . S
C2287 C2285 1.327 . S
C2287 C2303 1.429 . S
C2287 H2309 0.950 . S
C2288 H2284 0.949 . S
C2288 C2296 1.574 . S
C2288 C2304 1.368 . S
H2289 C2297 0.950 . S
H2290 C2295 0.950 . S
H2291 C2296 0.949 . S
H2292 C2298 0.950 . S
H2293 C2299 0.950 . S
H2294 C2300 0.949 . S
C2295 H2290 0.950 . S
C2295 C2297 1.327 . S
C2295 C2301 1.429 . S
C2296 C2288 1.574 . S
C2296 H2291 0.949 . S
C2296 C2302 1.368 . S
C2297 C2281 1.349 . S
C2297 H2289 0.950 . S
C2297 C2295 1.327 . S
C2298 C2286 1.349 . S
C2298 H2292 0.950 . S
C2298 C2299 1.327 . S
C2299 H2293 0.950 . S
C2299 C2298 1.327 . S
C2299 C2303 1.429 . S
C2300 C2283 1.574 . S
C2300 H2294 0.949 . S
C2300 C2304 1.368 . S
C2301 C2282 1.429 . S
C2301 C2295 1.429 . S
C2301 C2302 1.523 . S
C2302 C2283 1.368 . S
C2302 C2296 1.368 . S
C2302 C2301 1.523 . S
C2303 C2287 1.429 . S
C2303 C2299 1.429 . S
C2303 C2304 1.523 . S
C2304 C2288 1.368 . S
C2304 C2300 1.368 . S
C2304 C2303 1.523 . S
H2305 C2280 0.950 . S
H2306 C2282 0.950 . S
H2307 C2283 0.949 . S
H2308 C2285 0.950 . S
H2309 C2287 0.950 . S
C2310 C2311 1.349 . S
C2310 C2312 1.327 . S
C2310 H2335 0.950 . S
C2311 C2310 1.349 . S
C2311 C2327 1.349 . S
C2312 C2310 1.327 . S
C2312 C2331 1.429 . S
C2312 H2336 0.950 . S
C2313 C2330 1.574 . S
C2313 C2332 1.368 . S
C2313 H2337 0.949 . S
H2314 C2318 0.949 . S
C2315 C2316 1.349 . S
C2315 C2317 1.327 . S
C2315 H2338 0.950 . S
C2316 C2315 1.349 . S
C2316 C2328 1.349 . S
C2317 C2315 1.327 . S
C2317 C2333 1.429 . S
C2317 H2339 0.950 . S
C2318 H2314 0.949 . S
C2318 C2326 1.574 . S
C2318 C2334 1.368 . S
H2319 C2327 0.950 . S
H2320 C2325 0.950 . S
H2321 C2326 0.949 . S
H2322 C2328 0.950 . S
H2323 C2329 0.950 . S
H2324 C2330 0.949 . S
C2325 H2320 0.950 . S
C2325 C2327 1.327 . S
C2325 C2331 1.429 . S
C2326 C2318 1.574 . S
C2326 H2321 0.949 . S
C2326 C2332 1.368 . S
C2327 C2311 1.349 . S
C2327 H2319 0.950 . S
C2327 C2325 1.327 . S
C2328 C2316 1.349 . S
C2328 H2322 0.950 . S
C2328 C2329 1.327 . S
C2329 H2323 0.950 . S
C2329 C2328 1.327 . S
C2329 C2333 1.429 . S
C2330 C2313 1.574 . S
C2330 H2324 0.949 . S
C2330 C2334 1.368 . S
C2331 C2312 1.429 . S
C2331 C2325 1.429 . S
C2331 C2332 1.523 . S
C2332 C2313 1.368 . S
C2332 C2326 1.368 . S
C2332 C2331 1.523 . S
C2333 C2317 1.429 . S
C2333 C2329 1.429 . S
C2333 C2334 1.523 . S
C2334 C2318 1.368 . S
C2334 C2330 1.368 . S
C2334 C2333 1.523 . S
H2335 C2310 0.950 . S
H2336 C2312 0.950 . S
H2337 C2313 0.949 . S
H2338 C2315 0.950 . S
H2339 C2317 0.950 . S
C2340 C2341 1.349 . S
C2340 C2342 1.327 . S
C2340 H2365 0.950 . S
C2341 C2340 1.349 . S
C2341 C2357 1.349 . S
C2342 C2340 1.327 . S
C2342 C2361 1.429 . S
C2342 H2366 0.950 . S
C2343 C2360 1.574 . S
C2343 C2362 1.368 . S
C2343 H2367 0.949 . S
H2344 C2348 0.949 . S
C2345 C2346 1.349 . S
C2345 C2347 1.327 . S
C2345 H2368 0.950 . S
C2346 C2345 1.349 . S
C2346 C2358 1.349 . S
C2347 C2345 1.327 . S
C2347 C2363 1.429 . S
C2347 H2369 0.950 . S
C2348 H2344 0.949 . S
C2348 C2356 1.574 . S
C2348 C2364 1.368 . S
H2349 C2357 0.950 . S
H2350 C2355 0.950 . S
H2351 C2356 0.949 . S
H2352 C2358 0.950 . S
H2353 C2359 0.950 . S
H2354 C2360 0.949 . S
C2355 H2350 0.950 . S
C2355 C2357 1.327 . S
C2355 C2361 1.429 . S
C2356 C2348 1.574 . S
C2356 H2351 0.949 . S
C2356 C2362 1.368 . S
C2357 C2341 1.349 . S
C2357 H2349 0.950 . S
C2357 C2355 1.327 . S
C2358 C2346 1.349 . S
C2358 H2352 0.950 . S
C2358 C2359 1.327 . S
C2359 H2353 0.950 . S
C2359 C2358 1.327 . S
C2359 C2363 1.429 . S
C2360 C2343 1.574 . S
C2360 H2354 0.949 . S
C2360 C2364 1.368 . S
C2361 C2342 1.429 . S
C2361 C2355 1.429 . S
C2361 C2362 1.523 . S
C2362 C2343 1.368 . S
C2362 C2356 1.368 . S
C2362 C2361 1.523 . S
C2363 C2347 1.429 . S
C2363 C2359 1.429 . S
C2363 C2364 1.523 . S
C2364 C2348 1.368 . S
C2364 C2360 1.368 . S
C2364 C2363 1.523 . S
H2365 C2340 0.950 . S
H2366 C2342 0.950 . S
H2367 C2343 0.949 . S
H2368 C2345 0.950 . S
H2369 C2347 0.950 . S
C2370 C2371 1.349 . S
C2370 C2372 1.327 . S
C2370 H2395 0.950 . S
C2371 C2370 1.349 . S
C2371 C2387 1.349 . S
C2372 C2370 1.327 . S
C2372 C2391 1.429 . S
C2372 H2396 0.950 . S
C2373 C2390 1.574 . S
C2373 C2392 1.368 . S
C2373 H2397 0.949 . S
H2374 C2378 0.949 . S
C2375 C2376 1.349 . S
C2375 C2377 1.327 . S
C2375 H2398 0.950 . S
C2376 C2375 1.349 . S
C2376 C2388 1.349 . S
C2377 C2375 1.327 . S
C2377 C2393 1.429 . S
C2377 H2399 0.950 . S
C2378 H2374 0.949 . S
C2378 C2386 1.574 . S
C2378 C2394 1.368 . S
H2379 C2387 0.950 . S
H2380 C2385 0.950 . S
H2381 C2386 0.949 . S
H2382 C2388 0.950 . S
H2383 C2389 0.950 . S
H2384 C2390 0.949 . S
C2385 H2380 0.950 . S
C2385 C2387 1.327 . S
C2385 C2391 1.429 . S
C2386 C2378 1.574 . S
C2386 H2381 0.949 . S
C2386 C2392 1.368 . S
C2387 C2371 1.349 . S
C2387 H2379 0.950 . S
C2387 C2385 1.327 . S
C2388 C2376 1.349 . S
C2388 H2382 0.950 . S
C2388 C2389 1.327 . S
C2389 H2383 0.950 . S
C2389 C2388 1.327 . S
C2389 C2393 1.429 . S
C2390 C2373 1.574 . S
C2390 H2384 0.949 . S
C2390 C2394 1.368 . S
C2391 C2372 1.429 . S
C2391 C2385 1.429 . S
C2391 C2392 1.523 . S
C2392 C2373 1.368 . S
C2392 C2386 1.368 . S
C2392 C2391 1.523 . S
C2393 C2377 1.429 . S
C2393 C2389 1.429 . S
C2393 C2394 1.523 . S
C2394 C2378 1.368 . S
C2394 C2390 1.368 . S
C2394 C2393 1.523 . S
H2395 C2370 0.950 . S
H2396 C2372 0.950 . S
H2397 C2373 0.949 . S
H2398 C2375 0.950 . S
H2399 C2377 0.950 . S
C2400 C2401 1.349 . S
C2400 C2402 1.327 . S
C2400 H2425 0.950 . S
C2401 C2400 1.349 . S
C2401 C2417 1.349 . S
C2402 C2400 1.327 . S
C2402 C2421 1.429 . S
C2402 H2426 0.950 . S
C2403 C2420 1.574 . S
C2403 C2422 1.368 . S
C2403 H2427 0.949 . S
H2404 C2408 0.949 . S
C2405 C2406 1.349 . S
C2405 C2407 1.327 . S
C2405 H2428 0.950 . S
C2406 C2405 1.349 . S
C2406 C2418 1.349 . S
C2407 C2405 1.327 . S
C2407 C2423 1.429 . S
C2407 H2429 0.950 . S
C2408 H2404 0.949 . S
C2408 C2416 1.574 . S
C2408 C2424 1.368 . S
H2409 C2417 0.950 . S
H2410 C2415 0.950 . S
H2411 C2416 0.949 . S
H2412 C2418 0.950 . S
H2413 C2419 0.950 . S
H2414 C2420 0.949 . S
C2415 H2410 0.950 . S
C2415 C2417 1.327 . S
C2415 C2421 1.429 . S
C2416 C2408 1.574 . S
C2416 H2411 0.949 . S
C2416 C2422 1.368 . S
C2417 C2401 1.349 . S
C2417 H2409 0.950 . S
C2417 C2415 1.327 . S
C2418 C2406 1.349 . S
C2418 H2412 0.950 . S
C2418 C2419 1.327 . S
C2419 H2413 0.950 . S
C2419 C2418 1.327 . S
C2419 C2423 1.429 . S
C2420 C2403 1.574 . S
C2420 H2414 0.949 . S
C2420 C2424 1.368 . S
C2421 C2402 1.429 . S
C2421 C2415 1.429 . S
C2421 C2422 1.523 . S
C2422 C2403 1.368 . S
C2422 C2416 1.368 . S
C2422 C2421 1.523 . S
C2423 C2407 1.429 . S
C2423 C2419 1.429 . S
C2423 C2424 1.523 . S
C2424 C2408 1.368 . S
C2424 C2420 1.368 . S
C2424 C2423 1.523 . S
H2425 C2400 0.950 . S
H2426 C2402 0.950 . S
H2427 C2403 0.949 . S
H2428 C2405 0.950 . S
H2429 C2407 0.950 . S
C2430 C2431 1.349 . S
C2430 C2432 1.327 . S
C2430 H2455 0.950 . S
C2431 C2430 1.349 . S
C2431 C2447 1.349 . S
C2432 C2430 1.327 . S
C2432 C2451 1.429 . S
C2432 H2456 0.950 . S
C2433 C2450 1.574 . S
C2433 C2452 1.368 . S
C2433 H2457 0.949 . S
H2434 C2438 0.949 . S
C2435 C2436 1.349 . S
C2435 C2437 1.327 . S
C2435 H2458 0.950 . S
C2436 C2435 1.349 . S
C2436 C2448 1.349 . S
C2437 C2435 1.327 . S
C2437 C2453 1.429 . S
C2437 H2459 0.950 . S
C2438 H2434 0.949 . S
C2438 C2446 1.574 . S
C2438 C2454 1.368 . S
H2439 C2447 0.950 . S
H2440 C2445 0.950 . S
H2441 C2446 0.949 . S
H2442 C2448 0.950 . S
H2443 C2449 0.950 . S
H2444 C2450 0.949 . S
C2445 H2440 0.950 . S
C2445 C2447 1.327 . S
C2445 C2451 1.429 . S
C2446 C2438 1.574 . S
C2446 H2441 0.949 . S
C2446 C2452 1.368 . S
C2447 C2431 1.349 . S
C2447 H2439 0.950 . S
C2447 C2445 1.327 . S
C2448 C2436 1.349 . S
C2448 H2442 0.950 . S
C2448 C2449 1.327 . S
C2449 H2443 0.950 . S
C2449 C2448 1.327 . S
C2449 C2453 1.429 . S
C2450 C2433 1.574 . S
C2450 H2444 0.949 . S
C2450 C2454 1.368 . S
C2451 C2432 1.429 . S
C2451 C2445 1.429 . S
C2451 C2452 1.523 . S
C2452 C2433 1.368 . S
C2452 C2446 1.368 . S
C2452 C2451 1.523 . S
C2453 C2437 1.429 . S
C2453 C2449 1.429 . S
C2453 C2454 1.523 . S
C2454 C2438 1.368 . S
C2454 C2450 1.368 . S
C2454 C2453 1.523 . S
H2455 C2430 0.950 . S
H2456 C2432 0.950 . S
H2457 C2433 0.949 . S
H2458 C2435 0.950 . S
H2459 C2437 0.950 . S
C2460 C2461 1.349 . S
C2460 C2462 1.327 . S
C2460 H2485 0.950 . S
C2461 C2460 1.349 . S
C2461 C2477 1.349 . S
C2462 C2460 1.327 . S
C2462 C2481 1.429 . S
C2462 H2486 0.950 . S
C2463 C2480 1.574 . S
C2463 C2482 1.368 . S
C2463 H2487 0.949 . S
H2464 C2468 0.949 . S
C2465 C2466 1.349 . S
C2465 C2467 1.327 . S
C2465 H2488 0.950 . S
C2466 C2465 1.349 . S
C2466 C2478 1.349 . S
C2467 C2465 1.327 . S
C2467 C2483 1.429 . S
C2467 H2489 0.950 . S
C2468 H2464 0.949 . S
C2468 C2476 1.574 . S
C2468 C2484 1.368 . S
H2469 C2477 0.950 . S
H2470 C2475 0.950 . S
H2471 C2476 0.949 . S
H2472 C2478 0.950 . S
H2473 C2479 0.950 . S
H2474 C2480 0.949 . S
C2475 H2470 0.950 . S
C2475 C2477 1.327 . S
C2475 C2481 1.429 . S
C2476 C2468 1.574 . S
C2476 H2471 0.949 . S
C2476 C2482 1.368 . S
C2477 C2461 1.349 . S
C2477 H2469 0.950 . S
C2477 C2475 1.327 . S
C2478 C2466 1.349 . S
C2478 H2472 0.950 . S
C2478 C2479 1.327 . S
C2479 H2473 0.950 . S
C2479 C2478 1.327 . S
C2479 C2483 1.429 . S
C2480 C2463 1.574 . S
C2480 H2474 0.949 . S
C2480 C2484 1.368 . S
C2481 C2462 1.429 . S
C2481 C2475 1.429 . S
C2481 C2482 1.523 . S
C2482 C2463 1.368 . S
C2482 C2476 1.368 . S
C2482 C2481 1.523 . S
C2483 C2467 1.429 . S
C2483 C2479 1.429 . S
C2483 C2484 1.523 . S
C2484 C2468 1.368 . S
C2484 C2480 1.368 . S
C2484 C2483 1.523 . S
H2485 C2460 0.950 . S
H2486 C2462 0.950 . S
H2487 C2463 0.949 . S
H2488 C2465 0.950 . S
H2489 C2467 0.950 . S
C2490 C2491 1.349 . S
C2490 C2492 1.327 . S
C2490 H2515 0.950 . S
C2491 C2490 1.349 . S
C2491 C2507 1.349 . S
C2492 C2490 1.327 . S
C2492 C2511 1.429 . S
C2492 H2516 0.950 . S
C2493 C2510 1.574 . S
C2493 C2512 1.368 . S
C2493 H2517 0.949 . S
H2494 C2498 0.949 . S
C2495 C2496 1.349 . S
C2495 C2497 1.327 . S
C2495 H2518 0.950 . S
C2496 C2495 1.349 . S
C2496 C2508 1.349 . S
C2497 C2495 1.327 . S
C2497 C2513 1.429 . S
C2497 H2519 0.950 . S
C2498 H2494 0.949 . S
C2498 C2506 1.574 . S
C2498 C2514 1.368 . S
H2499 C2507 0.950 . S
H2500 C2505 0.950 . S
H2501 C2506 0.949 . S
H2502 C2508 0.950 . S
H2503 C2509 0.950 . S
H2504 C2510 0.949 . S
C2505 H2500 0.950 . S
C2505 C2507 1.327 . S
C2505 C2511 1.429 . S
C2506 C2498 1.574 . S
C2506 H2501 0.949 . S
C2506 C2512 1.368 . S
C2507 C2491 1.349 . S
C2507 H2499 0.950 . S
C2507 C2505 1.327 . S
C2508 C2496 1.349 . S
C2508 H2502 0.950 . S
C2508 C2509 1.327 . S
C2509 H2503 0.950 . S
C2509 C2508 1.327 . S
C2509 C2513 1.429 . S
C2510 C2493 1.574 . S
C2510 H2504 0.949 . S
C2510 C2514 1.368 . S
C2511 C2492 1.429 . S
C2511 C2505 1.429 . S
C2511 C2512 1.523 . S
C2512 C2493 1.368 . S
C2512 C2506 1.368 . S
C2512 C2511 1.523 . S
C2513 C2497 1.429 . S
C2513 C2509 1.429 . S
C2513 C2514 1.523 . S
C2514 C2498 1.368 . S
C2514 C2510 1.368 . S
C2514 C2513 1.523 . S
H2515 C2490 0.950 . S
H2516 C2492 0.950 . S
H2517 C2493 0.949 . S
H2518 C2495 0.950 . S
H2519 C2497 0.950 . S
C2520 C2521 1.349 . S
C2520 C2522 1.327 . S
C2520 H2545 0.950 . S
C2521 C2520 1.349 . S
C2521 C2537 1.349 . S
C2522 C2520 1.327 . S
C2522 C2541 1.429 . S
C2522 H2546 0.950 . S
C2523 C2540 1.574 . S
C2523 C2542 1.368 . S
C2523 H2547 0.949 . S
H2524 C2528 0.949 . S
C2525 C2526 1.349 . S
C2525 C2527 1.327 . S
C2525 H2548 0.950 . S
C2526 C2525 1.349 . S
C2526 C2538 1.349 . S
C2527 C2525 1.327 . S
C2527 C2543 1.429 . S
C2527 H2549 0.950 . S
C2528 H2524 0.949 . S
C2528 C2536 1.574 . S
C2528 C2544 1.368 . S
H2529 C2537 0.950 . S
H2530 C2535 0.950 . S
H2531 C2536 0.949 . S
H2532 C2538 0.950 . S
H2533 C2539 0.950 . S
H2534 C2540 0.949 . S
C2535 H2530 0.950 . S
C2535 C2537 1.327 . S
C2535 C2541 1.429 . S
C2536 C2528 1.574 . S
C2536 H2531 0.949 . S
C2536 C2542 1.368 . S
C2537 C2521 1.349 . S
C2537 H2529 0.950 . S
C2537 C2535 1.327 . S
C2538 C2526 1.349 . S
C2538 H2532 0.950 . S
C2538 C2539 1.327 . S
C2539 H2533 0.950 . S
C2539 C2538 1.327 . S
C2539 C2543 1.429 . S
C2540 C2523 1.574 . S
C2540 H2534 0.949 . S
C2540 C2544 1.368 . S
C2541 C2522 1.429 . S
C2541 C2535 1.429 . S
C2541 C2542 1.523 . S
C2542 C2523 1.368 . S
C2542 C2536 1.368 . S
C2542 C2541 1.523 . S
C2543 C2527 1.429 . S
C2543 C2539 1.429 . S
C2543 C2544 1.523 . S
C2544 C2528 1.368 . S
C2544 C2540 1.368 . S
C2544 C2543 1.523 . S
H2545 C2520 0.950 . S
H2546 C2522 0.950 . S
H2547 C2523 0.949 . S
H2548 C2525 0.950 . S
H2549 C2527 0.950 . S
C2550 C2551 1.349 . S
C2550 C2552 1.327 . S
C2550 H2575 0.950 . S
C2551 C2550 1.349 . S
C2551 C2567 1.349 . S
C2552 C2550 1.327 . S
C2552 C2571 1.429 . S
C2552 H2576 0.950 . S
C2553 C2570 1.574 . S
C2553 C2572 1.368 . S
C2553 H2577 0.949 . S
H2554 C2558 0.949 . S
C2555 C2556 1.349 . S
C2555 C2557 1.327 . S
C2555 H2578 0.950 . S
C2556 C2555 1.349 . S
C2556 C2568 1.349 . S
C2557 C2555 1.327 . S
C2557 C2573 1.429 . S
C2557 H2579 0.950 . S
C2558 H2554 0.949 . S
C2558 C2566 1.574 . S
C2558 C2574 1.368 . S
H2559 C2567 0.950 . S
H2560 C2565 0.950 . S
H2561 C2566 0.949 . S
H2562 C2568 0.950 . S
H2563 C2569 0.950 . S
H2564 C2570 0.949 . S
C2565 H2560 0.950 . S
C2565 C2567 1.327 . S
C2565 C2571 1.429 . S
C2566 C2558 1.574 . S
C2566 H2561 0.949 . S
C2566 C2572 1.368 . S
C2567 C2551 1.349 . S
C2567 H2559 0.950 . S
C2567 C2565 1.327 . S
C2568 C2556 1.349 . S
C2568 H2562 0.950 . S
C2568 C2569 1.327 . S
C2569 H2563 0.950 . S
C2569 C2568 1.327 . S
C2569 C2573 1.429 . S
C2570 C2553 1.574 . S
C2570 H2564 0.949 . S
C2570 C2574 1.368 . S
C2571 C2552 1.429 . S
C2571 C2565 1.429 . S
C2571 C2572 1.523 . S
C2572 C2553 1.368 . S
C2572 C2566 1.368 . S
C2572 C2571 1.523 . S
C2573 C2557 1.429 . S
C2573 C2569 1.429 . S
C2573 C2574 1.523 . S
C2574 C2558 1.368 . S
C2574 C2570 1.368 . S
C2574 C2573 1.523 . S
H2575 C2550 0.950 . S
H2576 C2552 0.950 . S
H2577 C2553 0.949 . S
H2578 C2555 0.950 . S
H2579 C2557 0.950 . S
C2580 C2581 1.349 . S
C2580 C2582 1.327 . S
C2580 H2605 0.950 . S
C2581 C2580 1.349 . S
C2581 C2597 1.349 . S
C2582 C2580 1.327 . S
C2582 C2601 1.429 . S
C2582 H2606 0.950 . S
C2583 C2600 1.574 . S
C2583 C2602 1.368 . S
C2583 H2607 0.949 . S
H2584 C2588 0.949 . S
C2585 C2586 1.349 . S
C2585 C2587 1.327 . S
C2585 H2608 0.950 . S
C2586 C2585 1.349 . S
C2586 C2598 1.349 . S
C2587 C2585 1.327 . S
C2587 C2603 1.429 . S
C2587 H2609 0.950 . S
C2588 H2584 0.949 . S
C2588 C2596 1.574 . S
C2588 C2604 1.368 . S
H2589 C2597 0.950 . S
H2590 C2595 0.950 . S
H2591 C2596 0.949 . S
H2592 C2598 0.950 . S
H2593 C2599 0.950 . S
H2594 C2600 0.949 . S
C2595 H2590 0.950 . S
C2595 C2597 1.327 . S
C2595 C2601 1.429 . S
C2596 C2588 1.574 . S
C2596 H2591 0.949 . S
C2596 C2602 1.368 . S
C2597 C2581 1.349 . S
C2597 H2589 0.950 . S
C2597 C2595 1.327 . S
C2598 C2586 1.349 . S
C2598 H2592 0.950 . S
C2598 C2599 1.327 . S
C2599 H2593 0.950 . S
C2599 C2598 1.327 . S
C2599 C2603 1.429 . S
C2600 C2583 1.574 . S
C2600 H2594 0.949 . S
C2600 C2604 1.368 . S
C2601 C2582 1.429 . S
C2601 C2595 1.429 . S
C2601 C2602 1.523 . S
C2602 C2583 1.368 . S
C2602 C2596 1.368 . S
C2602 C2601 1.523 . S
C2603 C2587 1.429 . S
C2603 C2599 1.429 . S
C2603 C2604 1.523 . S
C2604 C2588 1.368 . S
C2604 C2600 1.368 . S
C2604 C2603 1.523 . S
H2605 C2580 0.950 . S
H2606 C2582 0.950 . S
H2607 C2583 0.949 . S
H2608 C2585 0.950 . S
H2609 C2587 0.950 . S
C2610 C2611 1.349 . S
C2610 C2612 1.327 . S
C2610 H2635 0.950 . S
C2611 C2610 1.349 . S
C2611 C2627 1.349 . S
C2612 C2610 1.327 . S
C2612 C2631 1.429 . S
C2612 H2636 0.950 . S
C2613 C2630 1.574 . S
C2613 C2632 1.368 . S
C2613 H2637 0.949 . S
H2614 C2618 0.949 . S
C2615 C2616 1.349 . S
C2615 C2617 1.327 . S
C2615 H2638 0.950 . S
C2616 C2615 1.349 . S
C2616 C2628 1.349 . S
C2617 C2615 1.327 . S
C2617 C2633 1.429 . S
C2617 H2639 0.950 . S
C2618 H2614 0.949 . S
C2618 C2626 1.574 . S
C2618 C2634 1.368 . S
H2619 C2627 0.950 . S
H2620 C2625 0.950 . S
H2621 C2626 0.949 . S
H2622 C2628 0.950 . S
H2623 C2629 0.950 . S
H2624 C2630 0.949 . S
C2625 H2620 0.950 . S
C2625 C2627 1.327 . S
C2625 C2631 1.429 . S
C2626 C2618 1.574 . S
C2626 H2621 0.949 . S
C2626 C2632 1.368 . S
C2627 C2611 1.349 . S
C2627 H2619 0.950 . S
C2627 C2625 1.327 . S
C2628 C2616 1.349 . S
C2628 H2622 0.950 . S
C2628 C2629 1.327 . S
C2629 H2623 0.950 . S
C2629 C2628 1.327 . S
C2629 C2633 1.429 . S
C2630 C2613 1.574 . S
C2630 H2624 0.949 . S
C2630 C2634 1.368 . S
C2631 C2612 1.429 . S
C2631 C2625 1.429 . S
C2631 C2632 1.523 . S
C2632 C2613 1.368 . S
C2632 C2626 1.368 . S
C2632 C2631 1.523 . S
C2633 C2617 1.429 . S
C2633 C2629 1.429 . S
C2633 C2634 1.523 . S
C2634 C2618 1.368 . S
C2634 C2630 1.368 . S
C2634 C2633 1.523 . S
H2635 C2610 0.950 . S
H2636 C2612 0.950 . S
H2637 C2613 0.949 . S
H2638 C2615 0.950 . S
H2639 C2617 0.950 . S
C2640 C2641 1.349 . S
C2640 C2642 1.327 . S
C2640 H2665 0.950 . S
C2641 C2640 1.349 . S
C2641 C2657 1.349 . S
C2642 C2640 1.327 . S
C2642 C2661 1.429 . S
C2642 H2666 0.950 . S
C2643 C2660 1.574 . S
C2643 C2662 1.368 . S
C2643 H2667 0.949 . S
H2644 C2648 0.949 . S
C2645 C2646 1.349 . S
C2645 C2647 1.327 . S
C2645 H2668 0.950 . S
C2646 C2645 1.349 . S
C2646 C2658 1.349 . S
C2647 C2645 1.327 . S
C2647 C2663 1.429 . S
C2647 H2669 0.950 . S
C2648 H2644 0.949 . S
C2648 C2656 1.574 . S
C2648 C2664 1.368 . S
H2649 C2657 0.950 . S
H2650 C2655 0.950 . S
H2651 C2656 0.949 . S
H2652 C2658 0.950 . S
H2653 C2659 0.950 . S
H2654 C2660 0.949 . S
C2655 H2650 0.950 . S
C2655 C2657 1.327 . S
C2655 C2661 1.429 . S
C2656 C2648 1.574 . S
C2656 H2651 0.949 . S
C2656 C2662 1.368 . S
C2657 C2641 1.349 . S
C2657 H2649 0.950 . S
C2657 C2655 1.327 . S
C2658 C2646 1.349 . S
C2658 H2652 0.950 . S
C2658 C2659 1.327 . S
C2659 H2653 0.950 . S
C2659 C2658 1.327 . S
C2659 C2663 1.429 . S
C2660 C2643 1.574 . S
C2660 H2654 0.949 . S
C2660 C2664 1.368 . S
C2661 C2642 1.429 . S
C2661 C2655 1.429 . S
C2661 C2662 1.523 . S
C2662 C2643 1.368 . S
C2662 C2656 1.368 . S
C2662 C2661 1.523 . S
C2663 C2647 1.429 . S
C2663 C2659 1.429 . S
C2663 C2664 1.523 . S
C2664 C2648 1.368 . S
C2664 C2660 1.368 . S
C2664 C2663 1.523 . S
H2665 C2640 0.950 . S
H2666 C2642 0.950 . S
H2667 C2643 0.949 . S
H2668 C2645 0.950 . S
H2669 C2647 0.950 . S
C2670 C2671 1.349 . S
C2670 C2672 1.327 . S
C2670 H2695 0.950 . S
C2671 C2670 1.349 . S
C2671 C2687 1.349 . S
C2672 C2670 1.327 . S
C2672 C2691 1.429 . S
C2672 H2696 0.950 . S
C2673 C2690 1.574 . S
C2673 C2692 1.368 . S
C2673 H2697 0.949 . S
H2674 C2678 0.949 . S
C2675 C2676 1.349 . S
C2675 C2677 1.327 . S
C2675 H2698 0.950 . S
C2676 C2675 1.349 . S
C2676 C2688 1.349 . S
C2677 C2675 1.327 . S
C2677 C2693 1.429 . S
C2677 H2699 0.950 . S
C2678 H2674 0.949 . S
C2678 C2686 1.574 . S
C2678 C2694 1.368 . S
H2679 C2687 0.950 . S
H2680 C2685 0.950 . S
H2681 C2686 0.949 . S
H2682 C2688 0.950 . S
H2683 C2689 0.950 . S
H2684 C2690 0.949 . S
C2685 H2680 0.950 . S
C2685 C2687 1.327 . S
C2685 C2691 1.429 . S
C2686 C2678 1.574 . S
C2686 H2681 0.949 . S
C2686 C2692 1.368 . S
C2687 C2671 1.349 . S
C2687 H2679 0.950 . S
C2687 C2685 1.327 . S
C2688 C2676 1.349 . S
C2688 H2682 0.950 . S
C2688 C2689 1.327 . S
C2689 H2683 0.950 . S
C2689 C2688 1.327 . S
C2689 C2693 1.429 . S
C2690 C2673 1.574 . S
C2690 H2684 0.949 . S
C2690 C2694 1.368 . S
C2691 C2672 1.429 . S
C2691 C2685 1.429 . S
C2691 C2692 1.523 . S
C2692 C2673 1.368 . S
C2692 C2686 1.368 . S
C2692 C2691 1.523 . S
C2693 C2677 1.429 . S
C2693 C2689 1.429 . S
C2693 C2694 1.523 . S
C2694 C2678 1.368 . S
C2694 C2690 1.368 . S
C2694 C2693 1.523 . S
H2695 C2670 0.950 . S
H2696 C2672 0.950 . S
H2697 C2673 0.949 . S
H2698 C2675 0.950 . S
H2699 C2677 0.950 . S
C2700 C2701 1.349 . S
C2700 C2702 1.327 . S
C2700 H2725 0.950 . S
C2701 C2700 1.349 . S
C2701 C2717 1.349 . S
C2702 C2700 1.327 . S
C2702 C2721 1.429 . S
C2702 H2726 0.950 . S
C2703 C2720 1.574 . S
C2703 C2722 1.368 . S
C2703 H2727 0.949 . S
H2704 C2708 0.949 . S
C2705 C2706 1.349 . S
C2705 C2707 1.327 . S
C2705 H2728 0.950 . S
C2706 C2705 1.349 . S
C2706 C2718 1.349 . S
C2707 C2705 1.327 . S
C2707 C2723 1.429 . S
C2707 H2729 0.950 . S
C2708 H2704 0.949 . S
C2708 C2716 1.574 . S
C2708 C2724 1.368 . S
H2709 C2717 0.950 . S
H2710 C2715 0.950 . S
H2711 C2716 0.949 . S
H2712 C2718 0.950 . S
H2713 C2719 0.950 . S
H2714 C2720 0.949 . S
C2715 H2710 0.950 . S
C2715 C2717 1.327 . S
C2715 C2721 1.429 . S
C2716 C2708 1.574 . S
C2716 H2711 0.949 . S
C2716 C2722 1.368 . S
C2717 C2701 1.349 . S
C2717 H2709 0.950 . S
C2717 C2715 1.327 . S
C2718 C2706 1.349 . S
C2718 H2712 0.950 . S
C2718 C2719 1.327 . S
C2719 H2713 0.950 . S
C2719 C2718 1.327 . S
C2719 C2723 1.429 . S
C2720 C2703 1.574 . S
C2720 H2714 0.949 . S
C2720 C2724 1.368 . S
C2721 C2702 1.429 . S
C2721 C2715 1.429 . S
C2721 C2722 1.523 . S
C2722 C2703 1.368 . S
C2722 C2716 1.368 . S
C2722 C2721 1.523 . S
C2723 C2707 1.429 . S
C2723 C2719 1.429 . S
C2723 C2724 1.523 . S
C2724 C2708 1.368 . S
C2724 C2720 1.368 . S
C2724 C2723 1.523 . S
H2725 C2700 0.950 . S
H2726 C2702 0.950 . S
H2727 C2703 0.949 . S
H2728 C2705 0.950 . S
H2729 C2707 0.950 . S
C2730 C2731 1.349 . S
C2730 C2732 1.327 . S
C2730 H2755 0.950 . S
C2731 C2730 1.349 . S
C2731 C2747 1.349 . S
C2732 C2730 1.327 . S
C2732 C2751 1.429 . S
C2732 H2756 0.950 . S
C2733 C2750 1.574 . S
C2733 C2752 1.368 . S
C2733 H2757 0.949 . S
H2734 C2738 0.949 . S
C2735 C2736 1.349 . S
C2735 C2737 1.327 . S
C2735 H2758 0.950 . S
C2736 C2735 1.349 . S
C2736 C2748 1.349 . S
C2737 C2735 1.327 . S
C2737 C2753 1.429 . S
C2737 H2759 0.950 . S
C2738 H2734 0.949 . S
C2738 C2746 1.574 . S
C2738 C2754 1.368 . S
H2739 C2747 0.950 . S
H2740 C2745 0.950 . S
H2741 C2746 0.949 . S
H2742 C2748 0.950 . S
H2743 C2749 0.950 . S
H2744 C2750 0.949 . S
C2745 H2740 0.950 . S
C2745 C2747 1.327 . S
C2745 C2751 1.429 . S
C2746 C2738 1.574 . S
C2746 H2741 0.949 . S
C2746 C2752 1.368 . S
C2747 C2731 1.349 . S
C2747 H2739 0.950 . S
C2747 C2745 1.327 . S
C2748 C2736 1.349 . S
C2748 H2742 0.950 . S
C2748 C2749 1.327 . S
C2749 H2743 0.950 . S
C2749 C2748 1.327 . S
C2749 C2753 1.429 . S
C2750 C2733 1.574 . S
C2750 H2744 0.949 . S
C2750 C2754 1.368 . S
C2751 C2732 1.429 . S
C2751 C2745 1.429 . S
C2751 C2752 1.523 . S
C2752 C2733 1.368 . S
C2752 C2746 1.368 . S
C2752 C2751 1.523 . S
C2753 C2737 1.429 . S
C2753 C2749 1.429 . S
C2753 C2754 1.523 . S
C2754 C2738 1.368 . S
C2754 C2750 1.368 . S
C2754 C2753 1.523 . S
H2755 C2730 0.950 . S
H2756 C2732 0.950 . S
H2757 C2733 0.949 . S
H2758 C2735 0.950 . S
H2759 C2737 0.950 . S
C2760 C2761 1.349 . S
C2760 C2762 1.327 . S
C2760 H2785 0.950 . S
C2761 C2760 1.349 . S
C2761 C2777 1.349 . S
C2762 C2760 1.327 . S
C2762 C2781 1.429 . S
C2762 H2786 0.950 . S
C2763 C2780 1.574 . S
C2763 C2782 1.368 . S
C2763 H2787 0.949 . S
H2764 C2768 0.949 . S
C2765 C2766 1.349 . S
C2765 C2767 1.327 . S
C2765 H2788 0.950 . S
C2766 C2765 1.349 . S
C2766 C2778 1.349 . S
C2767 C2765 1.327 . S
C2767 C2783 1.429 . S
C2767 H2789 0.950 . S
C2768 H2764 0.949 . S
C2768 C2776 1.574 . S
C2768 C2784 1.368 . S
H2769 C2777 0.950 . S
H2770 C2775 0.950 . S
H2771 C2776 0.949 . S
H2772 C2778 0.950 . S
H2773 C2779 0.950 . S
H2774 C2780 0.949 . S
C2775 H2770 0.950 . S
C2775 C2777 1.327 . S
C2775 C2781 1.429 . S
C2776 C2768 1.574 . S
C2776 H2771 0.949 . S
C2776 C2782 1.368 . S
C2777 C2761 1.349 . S
C2777 H2769 0.950 . S
C2777 C2775 1.327 . S
C2778 C2766 1.349 . S
C2778 H2772 0.950 . S
C2778 C2779 1.327 . S
C2779 H2773 0.950 . S
C2779 C2778 1.327 . S
C2779 C2783 1.429 . S
C2780 C2763 1.574 . S
C2780 H2774 0.949 . S
C2780 C2784 1.368 . S
C2781 C2762 1.429 . S
C2781 C2775 1.429 . S
C2781 C2782 1.523 . S
C2782 C2763 1.368 . S
C2782 C2776 1.368 . S
C2782 C2781 1.523 . S
C2783 C2767 1.429 . S
C2783 C2779 1.429 . S
C2783 C2784 1.523 . S
C2784 C2768 1.368 . S
C2784 C2780 1.368 . S
C2784 C2783 1.523 . S
H2785 C2760 0.950 . S
H2786 C2762 0.950 . S
H2787 C2763 0.949 . S
H2788 C2765 0.950 . S
H2789 C2767 0.950 . S
C2790 C2791 1.349 . S
C2790 C2792 1.327 . S
C2790 H2815 0.950 . S
C2791 C2790 1.349 . S
C2791 C2807 1.349 . S
C2792 C2790 1.327 . S
C2792 C2811 1.429 . S
C2792 H2816 0.950 . S
C2793 C2810 1.574 . S
C2793 C2812 1.368 . S
C2793 H2817 0.949 . S
H2794 C2798 0.949 . S
C2795 C2796 1.349 . S
C2795 C2797 1.327 . S
C2795 H2818 0.950 . S
C2796 C2795 1.349 . S
C2796 C2808 1.349 . S
C2797 C2795 1.327 . S
C2797 C2813 1.429 . S
C2797 H2819 0.950 . S
C2798 H2794 0.949 . S
C2798 C2806 1.574 . S
C2798 C2814 1.368 . S
H2799 C2807 0.950 . S
H2800 C2805 0.950 . S
H2801 C2806 0.949 . S
H2802 C2808 0.950 . S
H2803 C2809 0.950 . S
H2804 C2810 0.949 . S
C2805 H2800 0.950 . S
C2805 C2807 1.327 . S
C2805 C2811 1.429 . S
C2806 C2798 1.574 . S
C2806 H2801 0.949 . S
C2806 C2812 1.368 . S
C2807 C2791 1.349 . S
C2807 H2799 0.950 . S
C2807 C2805 1.327 . S
C2808 C2796 1.349 . S
C2808 H2802 0.950 . S
C2808 C2809 1.327 . S
C2809 H2803 0.950 . S
C2809 C2808 1.327 . S
C2809 C2813 1.429 . S
C2810 C2793 1.574 . S
C2810 H2804 0.949 . S
C2810 C2814 1.368 . S
C2811 C2792 1.429 . S
C2811 C2805 1.429 . S
C2811 C2812 1.523 . S
C2812 C2793 1.368 . S
C2812 C2806 1.368 . S
C2812 C2811 1.523 . S
C2813 C2797 1.429 . S
C2813 C2809 1.429 . S
C2813 C2814 1.523 . S
C2814 C2798 1.368 . S
C2814 C2810 1.368 . S
C2814 C2813 1.523 . S
H2815 C2790 0.950 . S
H2816 C2792 0.950 . S
H2817 C2793 0.949 . S
H2818 C2795 0.950 . S
H2819 C2797 0.950 . S
C2820 C2821 1.349 . S
C2820 C2822 1.327 . S
C2820 H2845 0.950 . S
C2821 C2820 1.349 . S
C2821 C2837 1.349 . S
C2822 C2820 1.327 . S
C2822 C2841 1.429 . S
C2822 H2846 0.950 . S
C2823 C2840 1.574 . S
C2823 C2842 1.368 . S
C2823 H2847 0.949 . S
H2824 C2828 0.949 . S
C2825 C2826 1.349 . S
C2825 C2827 1.327 . S
C2825 H2848 0.950 . S
C2826 C2825 1.349 . S
C2826 C2838 1.349 . S
C2827 C2825 1.327 . S
C2827 C2843 1.429 . S
C2827 H2849 0.950 . S
C2828 H2824 0.949 . S
C2828 C2836 1.574 . S
C2828 C2844 1.368 . S
H2829 C2837 0.950 . S
H2830 C2835 0.950 . S
H2831 C2836 0.949 . S
H2832 C2838 0.950 . S
H2833 C2839 0.950 . S
H2834 C2840 0.949 . S
C2835 H2830 0.950 . S
C2835 C2837 1.327 . S
C2835 C2841 1.429 . S
C2836 C2828 1.574 . S
C2836 H2831 0.949 . S
C2836 C2842 1.368 . S
C2837 C2821 1.349 . S
C2837 H2829 0.950 . S
C2837 C2835 1.327 . S
C2838 C2826 1.349 . S
C2838 H2832 0.950 . S
C2838 C2839 1.327 . S
C2839 H2833 0.950 . S
C2839 C2838 1.327 . S
C2839 C2843 1.429 . S
C2840 C2823 1.574 . S
C2840 H2834 0.949 . S
C2840 C2844 1.368 . S
C2841 C2822 1.429 . S
C2841 C2835 1.429 . S
C2841 C2842 1.523 . S
C2842 C2823 1.368 . S
C2842 C2836 1.368 . S
C2842 C2841 1.523 . S
C2843 C2827 1.429 . S
C2843 C2839 1.429 . S
C2843 C2844 1.523 . S
C2844 C2828 1.368 . S
C2844 C2840 1.368 . S
C2844 C2843 1.523 . S
H2845 C2820 0.950 . S
H2846 C2822 0.950 . S
H2847 C2823 0.949 . S
H2848 C2825 0.950 . S
H2849 C2827 0.950 . S
C2850 C2851 1.349 . S
C2850 C2852 1.327 . S
C2850 H2875 0.950 . S
C2851 C2850 1.349 . S
C2851 C2867 1.349 . S
C2852 C2850 1.327 . S
C2852 C2871 1.429 . S
C2852 H2876 0.950 . S
C2853 C2870 1.574 . S
C2853 C2872 1.368 . S
C2853 H2877 0.949 . S
H2854 C2858 0.949 . S
C2855 C2856 1.349 . S
C2855 C2857 1.327 . S
C2855 H2878 0.950 . S
C2856 C2855 1.349 . S
C2856 C2868 1.349 . S
C2857 C2855 1.327 . S
C2857 C2873 1.429 . S
C2857 H2879 0.950 . S
C2858 H2854 0.949 . S
C2858 C2866 1.574 . S
C2858 C2874 1.368 . S
H2859 C2867 0.950 . S
H2860 C2865 0.950 . S
H2861 C2866 0.949 . S
H2862 C2868 0.950 . S
H2863 C2869 0.950 . S
H2864 C2870 0.949 . S
C2865 H2860 0.950 . S
C2865 C2867 1.327 . S
C2865 C2871 1.429 . S
C2866 C2858 1.574 . S
C2866 H2861 0.949 . S
C2866 C2872 1.368 . S
C2867 C2851 1.349 . S
C2867 H2859 0.950 . S
C2867 C2865 1.327 . S
C2868 C2856 1.349 . S
C2868 H2862 0.950 . S
C2868 C2869 1.327 . S
C2869 H2863 0.950 . S
C2869 C2868 1.327 . S
C2869 C2873 1.429 . S
C2870 C2853 1.574 . S
C2870 H2864 0.949 . S
C2870 C2874 1.368 . S
C2871 C2852 1.429 . S
C2871 C2865 1.429 . S
C2871 C2872 1.523 . S
C2872 C2853 1.368 . S
C2872 C2866 1.368 . S
C2872 C2871 1.523 . S
C2873 C2857 1.429 . S
C2873 C2869 1.429 . S
C2873 C2874 1.523 . S
C2874 C2858 1.368 . S
C2874 C2870 1.368 . S
C2874 C2873 1.523 . S
H2875 C2850 0.950 . S
H2876 C2852 0.950 . S
H2877 C2853 0.949 . S
H2878 C2855 0.950 . S
H2879 C2857 0.950 . S
C2880 C2881 1.349 . S
C2880 C2882 1.327 . S
C2880 H2905 0.950 . S
C2881 C2880 1.349 . S
C2881 C2897 1.349 . S
C2882 C2880 1.327 . S
C2882 C2901 1.429 . S
C2882 H2906 0.950 . S
C2883 C2900 1.574 . S
C2883 C2902 1.368 . S
C2883 H2907 0.949 . S
H2884 C2888 0.949 . S
C2885 C2886 1.349 . S
C2885 C2887 1.327 . S
C2885 H2908 0.950 . S
C2886 C2885 1.349 . S
C2886 C2898 1.349 . S
C2887 C2885 1.327 . S
C2887 C2903 1.429 . S
C2887 H2909 0.950 . S
C2888 H2884 0.949 . S
C2888 C2896 1.574 . S
C2888 C2904 1.368 . S
H2889 C2897 0.950 . S
H2890 C2895 0.950 . S
H2891 C2896 0.949 . S
H2892 C2898 0.950 . S
H2893 C2899 0.950 . S
H2894 C2900 0.949 . S
C2895 H2890 0.950 . S
C2895 C2897 1.327 . S
C2895 C2901 1.429 . S
C2896 C2888 1.574 . S
C2896 H2891 0.949 . S
C2896 C2902 1.368 . S
C2897 C2881 1.349 . S
C2897 H2889 0.950 . S
C2897 C2895 1.327 . S
C2898 C2886 1.349 . S
C2898 H2892 0.950 . S
C2898 C2899 1.327 . S
C2899 H2893 0.950 . S
C2899 C2898 1.327 . S
C2899 C2903 1.429 . S
C2900 C2883 1.574 . S
C2900 H2894 0.949 . S
C2900 C2904 1.368 . S
C2901 C2882 1.429 . S
C2901 C2895 1.429 . S
C2901 C2902 1.523 . S
C2902 C2883 1.368 . S
C2902 C2896 1.368 . S
C2902 C2901 1.523 . S
C2903 C2887 1.429 . S
C2903 C2899 1.429 . S
C2903 C2904 1.523 . S
C2904 C2888 1.368 . S
C2904 C2900 1.368 . S
C2904 C2903 1.523 . S
H2905 C2880 0.950 . S
H2906 C2882 0.950 . S
H2907 C2883 0.949 . S
H2908 C2885 0.950 . S
H2909 C2887 0.950 . S
C2910 C2911 1.349 . S
C2910 C2912 1.327 . S
C2910 H2935 0.950 . S
C2911 C2910 1.349 . S
C2911 C2927 1.349 . S
C2912 C2910 1.327 . S
C2912 C2931 1.429 . S
C2912 H2936 0.950 . S
C2913 C2930 1.574 . S
C2913 C2932 1.368 . S
C2913 H2937 0.949 . S
H2914 C2918 0.949 . S
C2915 C2916 1.349 . S
C2915 C2917 1.327 . S
C2915 H2938 0.950 . S
C2916 C2915 1.349 . S
C2916 C2928 1.349 . S
C2917 C2915 1.327 . S
C2917 C2933 1.429 . S
C2917 H2939 0.950 . S
C2918 H2914 0.949 . S
C2918 C2926 1.574 . S
C2918 C2934 1.368 . S
H2919 C2927 0.950 . S
H2920 C2925 0.950 . S
H2921 C2926 0.949 . S
H2922 C2928 0.950 . S
H2923 C2929 0.950 . S
H2924 C2930 0.949 . S
C2925 H2920 0.950 . S
C2925 C2927 1.327 . S
C2925 C2931 1.429 . S
C2926 C2918 1.574 . S
C2926 H2921 0.949 . S
C2926 C2932 1.368 . S
C2927 C2911 1.349 . S
C2927 H2919 0.950 . S
C2927 C2925 1.327 . S
C2928 C2916 1.349 . S
C2928 H2922 0.950 . S
C2928 C2929 1.327 . S
C2929 H2923 0.950 . S
C2929 C2928 1.327 . S
C2929 C2933 1.429 . S
C2930 C2913 1.574 . S
C2930 H2924 0.949 . S
C2930 C2934 1.368 . S
C2931 C2912 1.429 . S
C2931 C2925 1.429 . S
C2931 C2932 1.523 . S
C2932 C2913 1.368 . S
C2932 C2926 1.368 . S
C2932 C2931 1.523 . S
C2933 C2917 1.429 . S
C2933 C2929 1.429 . S
C2933 C2934 1.523 . S
C2934 C2918 1.368 . S
C2934 C2930 1.368 . S
C2934 C2933 1.523 . S
H2935 C2910 0.950 . S
H2936 C2912 0.950 . S
H2937 C2913 0.949 . S
H2938 C2915 0.950 . S
H2939 C2917 0.950 . S
C2940 C2941 1.349 . S
C2940 C2942 1.327 . S
C2940 H2965 0.950 . S
C2941 C2940 1.349 . S
C2941 C2957 1.349 . S
C2942 C2940 1.327 . S
C2942 C2961 1.429 . S
C2942 H2966 0.950 . S
C2943 C2960 1.574 . S
C2943 C2962 1.368 . S
C2943 H2967 0.949 . S
H2944 C2948 0.949 . S
C2945 C2946 1.349 . S
C2945 C2947 1.327 . S
C2945 H2968 0.950 . S
C2946 C2945 1.349 . S
C2946 C2958 1.349 . S
C2947 C2945 1.327 . S
C2947 C2963 1.429 . S
C2947 H2969 0.950 . S
C2948 H2944 0.949 . S
C2948 C2956 1.574 . S
C2948 C2964 1.368 . S
H2949 C2957 0.950 . S
H2950 C2955 0.950 . S
H2951 C2956 0.949 . S
H2952 C2958 0.950 . S
H2953 C2959 0.950 . S
H2954 C2960 0.949 . S
C2955 H2950 0.950 . S
C2955 C2957 1.327 . S
C2955 C2961 1.429 . S
C2956 C2948 1.574 . S
C2956 H2951 0.949 . S
C2956 C2962 1.368 . S
C2957 C2941 1.349 . S
C2957 H2949 0.950 . S
C2957 C2955 1.327 . S
C2958 C2946 1.349 . S
C2958 H2952 0.950 . S
C2958 C2959 1.327 . S
C2959 H2953 0.950 . S
C2959 C2958 1.327 . S
C2959 C2963 1.429 . S
C2960 C2943 1.574 . S
C2960 H2954 0.949 . S
C2960 C2964 1.368 . S
C2961 C2942 1.429 . S
C2961 C2955 1.429 . S
C2961 C2962 1.523 . S
C2962 C2943 1.368 . S
C2962 C2956 1.368 . S
C2962 C2961 1.523 . S
C2963 C2947 1.429 . S
C2963 C2959 1.429 . S
C2963 C2964 1.523 . S
C2964 C2948 1.368 . S
C2964 C2960 1.368 . S
C2964 C2963 1.523 . S
H2965 C2940 0.950 . S
H2966 C2942 0.950 . S
H2967 C2943 0.949 . S
H2968 C2945 0.950 . S
H2969 C2947 0.950 . S
C2970 C2971 1.349 . S
C2970 C2972 1.327 . S
C2970 H2995 0.950 . S
C2971 C2970 1.349 . S
C2971 C2987 1.349 . S
C2972 C2970 1.327 . S
C2972 C2991 1.429 . S
C2972 H2996 0.950 . S
C2973 C2990 1.574 . S
C2973 C2992 1.368 . S
C2973 H2997 0.949 . S
H2974 C2978 0.949 . S
C2975 C2976 1.349 . S
C2975 C2977 1.327 . S
C2975 H2998 0.950 . S
C2976 C2975 1.349 . S
C2976 C2988 1.349 . S
C2977 C2975 1.327 . S
C2977 C2993 1.429 . S
C2977 H2999 0.950 . S
C2978 H2974 0.949 . S
C2978 C2986 1.574 . S
C2978 C2994 1.368 . S
H2979 C2987 0.950 . S
H2980 C2985 0.950 . S
H2981 C2986 0.949 . S
H2982 C2988 0.950 . S
H2983 C2989 0.950 . S
H2984 C2990 0.949 . S
C2985 H2980 0.950 . S
C2985 C2987 1.327 . S
C2985 C2991 1.429 . S
C2986 C2978 1.574 . S
C2986 H2981 0.949 . S
C2986 C2992 1.368 . S
C2987 C2971 1.349 . S
C2987 H2979 0.950 . S
C2987 C2985 1.327 . S
C2988 C2976 1.349 . S
C2988 H2982 0.950 . S
C2988 C2989 1.327 . S
C2989 H2983 0.950 . S
C2989 C2988 1.327 . S
C2989 C2993 1.429 . S
C2990 C2973 1.574 . S
C2990 H2984 0.949 . S
C2990 C2994 1.368 . S
C2991 C2972 1.429 . S
C2991 C2985 1.429 . S
C2991 C2992 1.523 . S
C2992 C2973 1.368 . S
C2992 C2986 1.368 . S
C2992 C2991 1.523 . S
C2993 C2977 1.429 . S
C2993 C2989 1.429 . S
C2993 C2994 1.523 . S
C2994 C2978 1.368 . S
C2994 C2990 1.368 . S
C2994 C2993 1.523 . S
H2995 C2970 0.950 . S
H2996 C2972 0.950 . S
H2997 C2973 0.949 . S
H2998 C2975 0.950 . S
H2999 C2977 0.950 . S
C3000 C3001 1.349 . S
C3000 C3002 1.327 . S
C3000 H3025 0.950 . S
C3001 C3000 1.349 . S
C3001 C3017 1.349 . S
C3002 C3000 1.327 . S
C3002 C3021 1.429 . S
C3002 H3026 0.950 . S
C3003 C3020 1.574 . S
C3003 C3022 1.368 . S
C3003 H3027 0.949 . S
H3004 C3008 0.949 . S
C3005 C3006 1.349 . S
C3005 C3007 1.327 . S
C3005 H3028 0.950 . S
C3006 C3005 1.349 . S
C3006 C3018 1.349 . S
C3007 C3005 1.327 . S
C3007 C3023 1.429 . S
C3007 H3029 0.950 . S
C3008 H3004 0.949 . S
C3008 C3016 1.574 . S
C3008 C3024 1.368 . S
H3009 C3017 0.950 . S
H3010 C3015 0.950 . S
H3011 C3016 0.949 . S
H3012 C3018 0.950 . S
H3013 C3019 0.950 . S
H3014 C3020 0.949 . S
C3015 H3010 0.950 . S
C3015 C3017 1.327 . S
C3015 C3021 1.429 . S
C3016 C3008 1.574 . S
C3016 H3011 0.949 . S
C3016 C3022 1.368 . S
C3017 C3001 1.349 . S
C3017 H3009 0.950 . S
C3017 C3015 1.327 . S
C3018 C3006 1.349 . S
C3018 H3012 0.950 . S
C3018 C3019 1.327 . S
C3019 H3013 0.950 . S
C3019 C3018 1.327 . S
C3019 C3023 1.429 . S
C3020 C3003 1.574 . S
C3020 H3014 0.949 . S
C3020 C3024 1.368 . S
C3021 C3002 1.429 . S
C3021 C3015 1.429 . S
C3021 C3022 1.523 . S
C3022 C3003 1.368 . S
C3022 C3016 1.368 . S
C3022 C3021 1.523 . S
C3023 C3007 1.429 . S
C3023 C3019 1.429 . S
C3023 C3024 1.523 . S
C3024 C3008 1.368 . S
C3024 C3020 1.368 . S
C3024 C3023 1.523 . S
H3025 C3000 0.950 . S
H3026 C3002 0.950 . S
H3027 C3003 0.949 . S
H3028 C3005 0.950 . S
H3029 C3007 0.950 . S
C3030 C3031 1.349 . S
C3030 C3032 1.327 . S
C3030 H3055 0.950 . S
C3031 C3030 1.349 . S
C3031 C3047 1.349 . S
C3032 C3030 1.327 . S
C3032 C3051 1.429 . S
C3032 H3056 0.950 . S
C3033 C3050 1.574 . S
C3033 C3052 1.368 . S
C3033 H3057 0.949 . S
H3034 C3038 0.949 . S
C3035 C3036 1.349 . S
C3035 C3037 1.327 . S
C3035 H3058 0.950 . S
C3036 C3035 1.349 . S
C3036 C3048 1.349 . S
C3037 C3035 1.327 . S
C3037 C3053 1.429 . S
C3037 H3059 0.950 . S
C3038 H3034 0.949 . S
C3038 C3046 1.574 . S
C3038 C3054 1.368 . S
H3039 C3047 0.950 . S
H3040 C3045 0.950 . S
H3041 C3046 0.949 . S
H3042 C3048 0.950 . S
H3043 C3049 0.950 . S
H3044 C3050 0.949 . S
C3045 H3040 0.950 . S
C3045 C3047 1.327 . S
C3045 C3051 1.429 . S
C3046 C3038 1.574 . S
C3046 H3041 0.949 . S
C3046 C3052 1.368 . S
C3047 C3031 1.349 . S
C3047 H3039 0.950 . S
C3047 C3045 1.327 . S
C3048 C3036 1.349 . S
C3048 H3042 0.950 . S
C3048 C3049 1.327 . S
C3049 H3043 0.950 . S
C3049 C3048 1.327 . S
C3049 C3053 1.429 . S
C3050 C3033 1.574 . S
C3050 H3044 0.949 . S
C3050 C3054 1.368 . S
C3051 C3032 1.429 . S
C3051 C3045 1.429 . S
C3051 C3052 1.523 . S
C3052 C3033 1.368 . S
C3052 C3046 1.368 . S
C3052 C3051 1.523 . S
C3053 C3037 1.429 . S
C3053 C3049 1.429 . S
C3053 C3054 1.523 . S
C3054 C3038 1.368 . S
C3054 C3050 1.368 . S
C3054 C3053 1.523 . S
H3055 C3030 0.950 . S
H3056 C3032 0.950 . S
H3057 C3033 0.949 . S
H3058 C3035 0.950 . S
H3059 C3037 0.950 . S
C3060 C3061 1.349 . S
C3060 C3062 1.327 . S
C3060 H3085 0.950 . S
C3061 C3060 1.349 . S
C3061 C3077 1.349 . S
C3062 C3060 1.327 . S
C3062 C3081 1.429 . S
C3062 H3086 0.950 . S
C3063 C3080 1.574 . S
C3063 C3082 1.368 . S
C3063 H3087 0.949 . S
H3064 C3068 0.949 . S
C3065 C3066 1.349 . S
C3065 C3067 1.327 . S
C3065 H3088 0.950 . S
C3066 C3065 1.349 . S
C3066 C3078 1.349 . S
C3067 C3065 1.327 . S
C3067 C3083 1.429 . S
C3067 H3089 0.950 . S
C3068 H3064 0.949 . S
C3068 C3076 1.574 . S
C3068 C3084 1.368 . S
H3069 C3077 0.950 . S
H3070 C3075 0.950 . S
H3071 C3076 0.949 . S
H3072 C3078 0.950 . S
H3073 C3079 0.950 . S
H3074 C3080 0.949 . S
C3075 H3070 0.950 . S
C3075 C3077 1.327 . S
C3075 C3081 1.429 . S
C3076 C3068 1.574 . S
C3076 H3071 0.949 . S
C3076 C3082 1.368 . S
C3077 C3061 1.349 . S
C3077 H3069 0.950 . S
C3077 C3075 1.327 . S
C3078 C3066 1.349 . S
C3078 H3072 0.950 . S
C3078 C3079 1.327 . S
C3079 H3073 0.950 . S
C3079 C3078 1.327 . S
C3079 C3083 1.429 . S
C3080 C3063 1.574 . S
C3080 H3074 0.949 . S
C3080 C3084 1.368 . S
C3081 C3062 1.429 . S
C3081 C3075 1.429 . S
C3081 C3082 1.523 . S
C3082 C3063 1.368 . S
C3082 C3076 1.368 . S
C3082 C3081 1.523 . S
C3083 C3067 1.429 . S
C3083 C3079 1.429 . S
C3083 C3084 1.523 . S
C3084 C3068 1.368 . S
C3084 C3080 1.368 . S
C3084 C3083 1.523 . S
H3085 C3060 0.950 . S
H3086 C3062 0.950 . S
H3087 C3063 0.949 . S
H3088 C3065 0.950 . S
H3089 C3067 0.950 . S
C3090 C3091 1.349 . S
C3090 C3092 1.327 . S
C3090 H3115 0.950 . S
C3091 C3090 1.349 . S
C3091 C3107 1.349 . S
C3092 C3090 1.327 . S
C3092 C3111 1.429 . S
C3092 H3116 0.950 . S
C3093 C3110 1.574 . S
C3093 C3112 1.368 . S
C3093 H3117 0.949 . S
H3094 C3098 0.949 . S
C3095 C3096 1.349 . S
C3095 C3097 1.327 . S
C3095 H3118 0.950 . S
C3096 C3095 1.349 . S
C3096 C3108 1.349 . S
C3097 C3095 1.327 . S
C3097 C3113 1.429 . S
C3097 H3119 0.950 . S
C3098 H3094 0.949 . S
C3098 C3106 1.574 . S
C3098 C3114 1.368 . S
H3099 C3107 0.950 . S
H3100 C3105 0.950 . S
H3101 C3106 0.949 . S
H3102 C3108 0.950 . S
H3103 C3109 0.950 . S
H3104 C3110 0.949 . S
C3105 H3100 0.950 . S
C3105 C3107 1.327 . S
C3105 C3111 1.429 . S
C3106 C3098 1.574 . S
C3106 H3101 0.949 . S
C3106 C3112 1.368 . S
C3107 C3091 1.349 . S
C3107 H3099 0.950 . S
C3107 C3105 1.327 . S
C3108 C3096 1.349 . S
C3108 H3102 0.950 . S
C3108 C3109 1.327 . S
C3109 H3103 0.950 . S
C3109 C3108 1.327 . S
C3109 C3113 1.429 . S
C3110 C3093 1.574 . S
C3110 H3104 0.949 . S
C3110 C3114 1.368 . S
C3111 C3092 1.429 . S
C3111 C3105 1.429 . S
C3111 C3112 1.523 . S
C3112 C3093 1.368 . S
C3112 C3106 1.368 . S
C3112 C3111 1.523 . S
C3113 C3097 1.429 . S
C3113 C3109 1.429 . S
C3113 C3114 1.523 . S
C3114 C3098 1.368 . S
C3114 C3110 1.368 . S
C3114 C3113 1.523 . S
H3115 C3090 0.950 . S
H3116 C3092 0.950 . S
H3117 C3093 0.949 . S
H3118 C3095 0.950 . S
H3119 C3097 0.950 . S
C3120 C3121 1.349 . S
C3120 C3122 1.327 . S
C3120 H3145 0.950 . S
C3121 C3120 1.349 . S
C3121 C3137 1.349 . S
C3122 C3120 1.327 . S
C3122 C3141 1.429 . S
C3122 H3146 0.950 . S
C3123 C3140 1.574 . S
C3123 C3142 1.368 . S
C3123 H3147 0.949 . S
H3124 C3128 0.949 . S
C3125 C3126 1.349 . S
C3125 C3127 1.327 . S
C3125 H3148 0.950 . S
C3126 C3125 1.349 . S
C3126 C3138 1.349 . S
C3127 C3125 1.327 . S
C3127 C3143 1.429 . S
C3127 H3149 0.950 . S
C3128 H3124 0.949 . S
C3128 C3136 1.574 . S
C3128 C3144 1.368 . S
H3129 C3137 0.950 . S
H3130 C3135 0.950 . S
H3131 C3136 0.949 . S
H3132 C3138 0.950 . S
H3133 C3139 0.950 . S
H3134 C3140 0.949 . S
C3135 H3130 0.950 . S
C3135 C3137 1.327 . S
C3135 C3141 1.429 . S
C3136 C3128 1.574 . S
C3136 H3131 0.949 . S
C3136 C3142 1.368 . S
C3137 C3121 1.349 . S
C3137 H3129 0.950 . S
C3137 C3135 1.327 . S
C3138 C3126 1.349 . S
C3138 H3132 0.950 . S
C3138 C3139 1.327 . S
C3139 H3133 0.950 . S
C3139 C3138 1.327 . S
C3139 C3143 1.429 . S
C3140 C3123 1.574 . S
C3140 H3134 0.949 . S
C3140 C3144 1.368 . S
C3141 C3122 1.429 . S
C3141 C3135 1.429 . S
C3141 C3142 1.523 . S
C3142 C3123 1.368 . S
C3142 C3136 1.368 . S
C3142 C3141 1.523 . S
C3143 C3127 1.429 . S
C3143 C3139 1.429 . S
C3143 C3144 1.523 . S
C3144 C3128 1.368 . S
C3144 C3140 1.368 . S
C3144 C3143 1.523 . S
H3145 C3120 0.950 . S
H3146 C3122 0.950 . S
H3147 C3123 0.949 . S
H3148 C3125 0.950 . S
H3149 C3127 0.950 . S
C3150 C3151 1.349 . S
C3150 C3152 1.327 . S
C3150 H3175 0.950 . S
C3151 C3150 1.349 . S
C3151 C3167 1.349 . S
C3152 C3150 1.327 . S
C3152 C3171 1.429 . S
C3152 H3176 0.950 . S
C3153 C3170 1.574 . S
C3153 C3172 1.368 . S
C3153 H3177 0.949 . S
H3154 C3158 0.949 . S
C3155 C3156 1.349 . S
C3155 C3157 1.327 . S
C3155 H3178 0.950 . S
C3156 C3155 1.349 . S
C3156 C3168 1.349 . S
C3157 C3155 1.327 . S
C3157 C3173 1.429 . S
C3157 H3179 0.950 . S
C3158 H3154 0.949 . S
C3158 C3166 1.574 . S
C3158 C3174 1.368 . S
H3159 C3167 0.950 . S
H3160 C3165 0.950 . S
H3161 C3166 0.949 . S
H3162 C3168 0.950 . S
H3163 C3169 0.950 . S
H3164 C3170 0.949 . S
C3165 H3160 0.950 . S
C3165 C3167 1.327 . S
C3165 C3171 1.429 . S
C3166 C3158 1.574 . S
C3166 H3161 0.949 . S
C3166 C3172 1.368 . S
C3167 C3151 1.349 . S
C3167 H3159 0.950 . S
C3167 C3165 1.327 . S
C3168 C3156 1.349 . S
C3168 H3162 0.950 . S
C3168 C3169 1.327 . S
C3169 H3163 0.950 . S
C3169 C3168 1.327 . S
C3169 C3173 1.429 . S
C3170 C3153 1.574 . S
C3170 H3164 0.949 . S
C3170 C3174 1.368 . S
C3171 C3152 1.429 . S
C3171 C3165 1.429 . S
C3171 C3172 1.523 . S
C3172 C3153 1.368 . S
C3172 C3166 1.368 . S
C3172 C3171 1.523 . S
C3173 C3157 1.429 . S
C3173 C3169 1.429 . S
C3173 C3174 1.523 . S
C3174 C3158 1.368 . S
C3174 C3170 1.368 . S
C3174 C3173 1.523 . S
H3175 C3150 0.950 . S
H3176 C3152 0.950 . S
H3177 C3153 0.949 . S
H3178 C3155 0.950 . S
H3179 C3157 0.950 . S
C3180 C3181 1.349 . S
C3180 C3182 1.327 . S
C3180 H3205 0.950 . S
C3181 C3180 1.349 . S
C3181 C3197 1.349 . S
C3182 C3180 1.327 . S
C3182 C3201 1.429 . S
C3182 H3206 0.950 . S
C3183 C3200 1.574 . S
C3183 C3202 1.368 . S
C3183 H3207 0.949 . S
H3184 C3188 0.949 . S
C3185 C3186 1.349 . S
C3185 C3187 1.327 . S
C3185 H3208 0.950 . S
C3186 C3185 1.349 . S
C3186 C3198 1.349 . S
C3187 C3185 1.327 . S
C3187 C3203 1.429 . S
C3187 H3209 0.950 . S
C3188 H3184 0.949 . S
C3188 C3196 1.574 . S
C3188 C3204 1.368 . S
H3189 C3197 0.950 . S
H3190 C3195 0.950 . S
H3191 C3196 0.949 . S
H3192 C3198 0.950 . S
H3193 C3199 0.950 . S
H3194 C3200 0.949 . S
C3195 H3190 0.950 . S
C3195 C3197 1.327 . S
C3195 C3201 1.429 . S
C3196 C3188 1.574 . S
C3196 H3191 0.949 . S
C3196 C3202 1.368 . S
C3197 C3181 1.349 . S
C3197 H3189 0.950 . S
C3197 C3195 1.327 . S
C3198 C3186 1.349 . S
C3198 H3192 0.950 . S
C3198 C3199 1.327 . S
C3199 H3193 0.950 . S
C3199 C3198 1.327 . S
C3199 C3203 1.429 . S
C3200 C3183 1.574 . S
C3200 H3194 0.949 . S
C3200 C3204 1.368 . S
C3201 C3182 1.429 . S
C3201 C3195 1.429 . S
C3201 C3202 1.523 . S
C3202 C3183 1.368 . S
C3202 C3196 1.368 . S
C3202 C3201 1.523 . S
C3203 C3187 1.429 . S
C3203 C3199 1.429 . S
C3203 C3204 1.523 . S
C3204 C3188 1.368 . S
C3204 C3200 1.368 . S
C3204 C3203 1.523 . S
H3205 C3180 0.950 . S
H3206 C3182 0.950 . S
H3207 C3183 0.949 . S
H3208 C3185 0.950 . S
H3209 C3187 0.950 . S
C3210 C3211 1.349 . S
C3210 C3212 1.327 . S
C3210 H3235 0.950 . S
C3211 C3210 1.349 . S
C3211 C3227 1.349 . S
C3212 C3210 1.327 . S
C3212 C3231 1.429 . S
C3212 H3236 0.950 . S
C3213 C3230 1.574 . S
C3213 C3232 1.368 . S
C3213 H3237 0.949 . S
H3214 C3218 0.949 . S
C3215 C3216 1.349 . S
C3215 C3217 1.327 . S
C3215 H3238 0.950 . S
C3216 C3215 1.349 . S
C3216 C3228 1.349 . S
C3217 C3215 1.327 . S
C3217 C3233 1.429 . S
C3217 H3239 0.950 . S
C3218 H3214 0.949 . S
C3218 C3226 1.574 . S
C3218 C3234 1.368 . S
H3219 C3227 0.950 . S
H3220 C3225 0.950 . S
H3221 C3226 0.949 . S
H3222 C3228 0.950 . S
H3223 C3229 0.950 . S
H3224 C3230 0.949 . S
C3225 H3220 0.950 . S
C3225 C3227 1.327 . S
C3225 C3231 1.429 . S
C3226 C3218 1.574 . S
C3226 H3221 0.949 . S
C3226 C3232 1.368 . S
C3227 C3211 1.349 . S
C3227 H3219 0.950 . S
C3227 C3225 1.327 . S
C3228 C3216 1.349 . S
C3228 H3222 0.950 . S
C3228 C3229 1.327 . S
C3229 H3223 0.950 . S
C3229 C3228 1.327 . S
C3229 C3233 1.429 . S
C3230 C3213 1.574 . S
C3230 H3224 0.949 . S
C3230 C3234 1.368 . S
C3231 C3212 1.429 . S
C3231 C3225 1.429 . S
C3231 C3232 1.523 . S
C3232 C3213 1.368 . S
C3232 C3226 1.368 . S
C3232 C3231 1.523 . S
C3233 C3217 1.429 . S
C3233 C3229 1.429 . S
C3233 C3234 1.523 . S
C3234 C3218 1.368 . S
C3234 C3230 1.368 . S
C3234 C3233 1.523 . S
H3235 C3210 0.950 . S
H3236 C3212 0.950 . S
H3237 C3213 0.949 . S
H3238 C3215 0.950 . S
H3239 C3217 0.950 . S
C3240 C3241 1.349 . S
C3240 C3242 1.327 . S
C3240 H3265 0.950 . S
C3241 C3240 1.349 . S
C3241 C3257 1.349 . S
C3242 C3240 1.327 . S
C3242 C3261 1.429 . S
C3242 H3266 0.950 . S
C3243 C3260 1.574 . S
C3243 C3262 1.368 . S
C3243 H3267 0.949 . S
H3244 C3248 0.949 . S
C3245 C3246 1.349 . S
C3245 C3247 1.327 . S
C3245 H3268 0.950 . S
C3246 C3245 1.349 . S
C3246 C3258 1.349 . S
C3247 C3245 1.327 . S
C3247 C3263 1.429 . S
C3247 H3269 0.950 . S
C3248 H3244 0.949 . S
C3248 C3256 1.574 . S
C3248 C3264 1.368 . S
H3249 C3257 0.950 . S
H3250 C3255 0.950 . S
H3251 C3256 0.949 . S
H3252 C3258 0.950 . S
H3253 C3259 0.950 . S
H3254 C3260 0.949 . S
C3255 H3250 0.950 . S
C3255 C3257 1.327 . S
C3255 C3261 1.429 . S
C3256 C3248 1.574 . S
C3256 H3251 0.949 . S
C3256 C3262 1.368 . S
C3257 C3241 1.349 . S
C3257 H3249 0.950 . S
C3257 C3255 1.327 . S
C3258 C3246 1.349 . S
C3258 H3252 0.950 . S
C3258 C3259 1.327 . S
C3259 H3253 0.950 . S
C3259 C3258 1.327 . S
C3259 C3263 1.429 . S
C3260 C3243 1.574 . S
C3260 H3254 0.949 . S
C3260 C3264 1.368 . S
C3261 C3242 1.429 . S
C3261 C3255 1.429 . S
C3261 C3262 1.523 . S
C3262 C3243 1.368 . S
C3262 C3256 1.368 . S
C3262 C3261 1.523 . S
C3263 C3247 1.429 . S
C3263 C3259 1.429 . S
C3263 C3264 1.523 . S
C3264 C3248 1.368 . S
C3264 C3260 1.368 . S
C3264 C3263 1.523 . S
H3265 C3240 0.950 . S
H3266 C3242 0.950 . S
H3267 C3243 0.949 . S
H3268 C3245 0.950 . S
H3269 C3247 0.950 . S
C3270 C3271 1.349 . S
C3270 C3272 1.327 . S
C3270 H3295 0.950 . S
C3271 C3270 1.349 . S
C3271 C3287 1.349 . S
C3272 C3270 1.327 . S
C3272 C3291 1.429 . S
C3272 H3296 0.950 . S
C3273 C3290 1.574 . S
C3273 C3292 1.368 . S
C3273 H3297 0.949 . S
H3274 C3278 0.949 . S
C3275 C3276 1.349 . S
C3275 C3277 1.327 . S
C3275 H3298 0.950 . S
C3276 C3275 1.349 . S
C3276 C3288 1.349 . S
C3277 C3275 1.327 . S
C3277 C3293 1.429 . S
C3277 H3299 0.950 . S
C3278 H3274 0.949 . S
C3278 C3286 1.574 . S
C3278 C3294 1.368 . S
H3279 C3287 0.950 . S
H3280 C3285 0.950 . S
H3281 C3286 0.949 . S
H3282 C3288 0.950 . S
H3283 C3289 0.950 . S
H3284 C3290 0.949 . S
C3285 H3280 0.950 . S
C3285 C3287 1.327 . S
C3285 C3291 1.429 . S
C3286 C3278 1.574 . S
C3286 H3281 0.949 . S
C3286 C3292 1.368 . S
C3287 C3271 1.349 . S
C3287 H3279 0.950 . S
C3287 C3285 1.327 . S
C3288 C3276 1.349 . S
C3288 H3282 0.950 . S
C3288 C3289 1.327 . S
C3289 H3283 0.950 . S
C3289 C3288 1.327 . S
C3289 C3293 1.429 . S
C3290 C3273 1.574 . S
C3290 H3284 0.949 . S
C3290 C3294 1.368 . S
C3291 C3272 1.429 . S
C3291 C3285 1.429 . S
C3291 C3292 1.523 . S
C3292 C3273 1.368 . S
C3292 C3286 1.368 . S
C3292 C3291 1.523 . S
C3293 C3277 1.429 . S
C3293 C3289 1.429 . S
C3293 C3294 1.523 . S
C3294 C3278 1.368 . S
C3294 C3290 1.368 . S
C3294 C3293 1.523 . S
H3295 C3270 0.950 . S
H3296 C3272 0.950 . S
H3297 C3273 0.949 . S
H3298 C3275 0.950 . S
H3299 C3277 0.950 . S
C3300 C3301 1.349 . S
C3300 C3302 1.327 . S
C3300 H3325 0.950 . S
C3301 C3300 1.349 . S
C3301 C3317 1.349 . S
C3302 C3300 1.327 . S
C3302 C3321 1.429 . S
C3302 H3326 0.950 . S
C3303 C3320 1.574 . S
C3303 C3322 1.368 . S
C3303 H3327 0.949 . S
H3304 C3308 0.949 . S
C3305 C3306 1.349 . S
C3305 C3307 1.327 . S
C3305 H3328 0.950 . S
C3306 C3305 1.349 . S
C3306 C3318 1.349 . S
C3307 C3305 1.327 . S
C3307 C3323 1.429 . S
C3307 H3329 0.950 . S
C3308 H3304 0.949 . S
C3308 C3316 1.574 . S
C3308 C3324 1.368 . S
H3309 C3317 0.950 . S
H3310 C3315 0.950 . S
H3311 C3316 0.949 . S
H3312 C3318 0.950 . S
H3313 C3319 0.950 . S
H3314 C3320 0.949 . S
C3315 H3310 0.950 . S
C3315 C3317 1.327 . S
C3315 C3321 1.429 . S
C3316 C3308 1.574 . S
C3316 H3311 0.949 . S
C3316 C3322 1.368 . S
C3317 C3301 1.349 . S
C3317 H3309 0.950 . S
C3317 C3315 1.327 . S
C3318 C3306 1.349 . S
C3318 H3312 0.950 . S
C3318 C3319 1.327 . S
C3319 H3313 0.950 . S
C3319 C3318 1.327 . S
C3319 C3323 1.429 . S
C3320 C3303 1.574 . S
C3320 H3314 0.949 . S
C3320 C3324 1.368 . S
C3321 C3302 1.429 . S
C3321 C3315 1.429 . S
C3321 C3322 1.523 . S
C3322 C3303 1.368 . S
C3322 C3316 1.368 . S
C3322 C3321 1.523 . S
C3323 C3307 1.429 . S
C3323 C3319 1.429 . S
C3323 C3324 1.523 . S
C3324 C3308 1.368 . S
C3324 C3320 1.368 . S
C3324 C3323 1.523 . S
H3325 C3300 0.950 . S
H3326 C3302 0.950 . S
H3327 C3303 0.949 . S
H3328 C3305 0.950 . S
H3329 C3307 0.950 . S
C3330 C3331 1.349 . S
C3330 C3332 1.327 . S
C3330 H3355 0.950 . S
C3331 C3330 1.349 . S
C3331 C3347 1.349 . S
C3332 C3330 1.327 . S
C3332 C3351 1.429 . S
C3332 H3356 0.950 . S
C3333 C3350 1.574 . S
C3333 C3352 1.368 . S
C3333 H3357 0.949 . S
H3334 C3338 0.949 . S
C3335 C3336 1.349 . S
C3335 C3337 1.327 . S
C3335 H3358 0.950 . S
C3336 C3335 1.349 . S
C3336 C3348 1.349 . S
C3337 C3335 1.327 . S
C3337 C3353 1.429 . S
C3337 H3359 0.950 . S
C3338 H3334 0.949 . S
C3338 C3346 1.574 . S
C3338 C3354 1.368 . S
H3339 C3347 0.950 . S
H3340 C3345 0.950 . S
H3341 C3346 0.949 . S
H3342 C3348 0.950 . S
H3343 C3349 0.950 . S
H3344 C3350 0.949 . S
C3345 H3340 0.950 . S
C3345 C3347 1.327 . S
C3345 C3351 1.429 . S
C3346 C3338 1.574 . S
C3346 H3341 0.949 . S
C3346 C3352 1.368 . S
C3347 C3331 1.349 . S
C3347 H3339 0.950 . S
C3347 C3345 1.327 . S
C3348 C3336 1.349 . S
C3348 H3342 0.950 . S
C3348 C3349 1.327 . S
C3349 H3343 0.950 . S
C3349 C3348 1.327 . S
C3349 C3353 1.429 . S
C3350 C3333 1.574 . S
C3350 H3344 0.949 . S
C3350 C3354 1.368 . S
C3351 C3332 1.429 . S
C3351 C3345 1.429 . S
C3351 C3352 1.523 . S
C3352 C3333 1.368 . S
C3352 C3346 1.368 . S
C3352 C3351 1.523 . S
C3353 C3337 1.429 . S
C3353 C3349 1.429 . S
C3353 C3354 1.523 . S
C3354 C3338 1.368 . S
C3354 C3350 1.368 . S
C3354 C3353 1.523 . S
H3355 C3330 0.950 . S
H3356 C3332 0.950 . S
H3357 C3333 0.949 . S
H3358 C3335 0.950 . S
H3359 C3337 0.950 . S
C3360 C3361 1.349 . S
C3360 C3362 1.327 . S
C3360 H3385 0.950 . S
C3361 C3360 1.349 . S
C3361 C3377 1.349 . S
C3362 C3360 1.327 . S
C3362 C3381 1.429 . S
C3362 H3386 0.950 . S
C3363 C3380 1.574 . S
C3363 C3382 1.368 . S
C3363 H3387 0.949 . S
H3364 C3368 0.949 . S
C3365 C3366 1.349 . S
C3365 C3367 1.327 . S
C3365 H3388 0.950 . S
C3366 C3365 1.349 . S
C3366 C3378 1.349 . S
C3367 C3365 1.327 . S
C3367 C3383 1.429 . S
C3367 H3389 0.950 . S
C3368 H3364 0.949 . S
C3368 C3376 1.574 . S
C3368 C3384 1.368 . S
H3369 C3377 0.950 . S
H3370 C3375 0.950 . S
H3371 C3376 0.949 . S
H3372 C3378 0.950 . S
H3373 C3379 0.950 . S
H3374 C3380 0.949 . S
C3375 H3370 0.950 . S
C3375 C3377 1.327 . S
C3375 C3381 1.429 . S
C3376 C3368 1.574 . S
C3376 H3371 0.949 . S
C3376 C3382 1.368 . S
C3377 C3361 1.349 . S
C3377 H3369 0.950 . S
C3377 C3375 1.327 . S
C3378 C3366 1.349 . S
C3378 H3372 0.950 . S
C3378 C3379 1.327 . S
C3379 H3373 0.950 . S
C3379 C3378 1.327 . S
C3379 C3383 1.429 . S
C3380 C3363 1.574 . S
C3380 H3374 0.949 . S
C3380 C3384 1.368 . S
C3381 C3362 1.429 . S
C3381 C3375 1.429 . S
C3381 C3382 1.523 . S
C3382 C3363 1.368 . S
C3382 C3376 1.368 . S
C3382 C3381 1.523 . S
C3383 C3367 1.429 . S
C3383 C3379 1.429 . S
C3383 C3384 1.523 . S
C3384 C3368 1.368 . S
C3384 C3380 1.368 . S
C3384 C3383 1.523 . S
H3385 C3360 0.950 . S
H3386 C3362 0.950 . S
H3387 C3363 0.949 . S
H3388 C3365 0.950 . S
H3389 C3367 0.950 . S
C3390 C3391 1.349 . S
C3390 C3392 1.327 . S
C3390 H3415 0.950 . S
C3391 C3390 1.349 . S
C3391 C3407 1.349 . S
C3392 C3390 1.327 . S
C3392 C3411 1.429 . S
C3392 H3416 0.950 . S
C3393 C3410 1.574 . S
C3393 C3412 1.368 . S
C3393 H3417 0.949 . S
H3394 C3398 0.949 . S
C3395 C3396 1.349 . S
C3395 C3397 1.327 . S
C3395 H3418 0.950 . S
C3396 C3395 1.349 . S
C3396 C3408 1.349 . S
C3397 C3395 1.327 . S
C3397 C3413 1.429 . S
C3397 H3419 0.950 . S
C3398 H3394 0.949 . S
C3398 C3406 1.574 . S
C3398 C3414 1.368 . S
H3399 C3407 0.950 . S
H3400 C3405 0.950 . S
H3401 C3406 0.949 . S
H3402 C3408 0.950 . S
H3403 C3409 0.950 . S
H3404 C3410 0.949 . S
C3405 H3400 0.950 . S
C3405 C3407 1.327 . S
C3405 C3411 1.429 . S
C3406 C3398 1.574 . S
C3406 H3401 0.949 . S
C3406 C3412 1.368 . S
C3407 C3391 1.349 . S
C3407 H3399 0.950 . S
C3407 C3405 1.327 . S
C3408 C3396 1.349 . S
C3408 H3402 0.950 . S
C3408 C3409 1.327 . S
C3409 H3403 0.950 . S
C3409 C3408 1.327 . S
C3409 C3413 1.429 . S
C3410 C3393 1.574 . S
C3410 H3404 0.949 . S
C3410 C3414 1.368 . S
C3411 C3392 1.429 . S
C3411 C3405 1.429 . S
C3411 C3412 1.523 . S
C3412 C3393 1.368 . S
C3412 C3406 1.368 . S
C3412 C3411 1.523 . S
C3413 C3397 1.429 . S
C3413 C3409 1.429 . S
C3413 C3414 1.523 . S
C3414 C3398 1.368 . S
C3414 C3410 1.368 . S
C3414 C3413 1.523 . S
H3415 C3390 0.950 . S
H3416 C3392 0.950 . S
H3417 C3393 0.949 . S
H3418 C3395 0.950 . S
H3419 C3397 0.950 . S
C3420 C3421 1.349 . S
C3420 C3422 1.327 . S
C3420 H3445 0.950 . S
C3421 C3420 1.349 . S
C3421 C3437 1.349 . S
C3422 C3420 1.327 . S
C3422 C3441 1.429 . S
C3422 H3446 0.950 . S
C3423 C3440 1.574 . S
C3423 C3442 1.368 . S
C3423 H3447 0.949 . S
H3424 C3428 0.949 . S
C3425 C3426 1.349 . S
C3425 C3427 1.327 . S
C3425 H3448 0.950 . S
C3426 C3425 1.349 . S
C3426 C3438 1.349 . S
C3427 C3425 1.327 . S
C3427 C3443 1.429 . S
C3427 H3449 0.950 . S
C3428 H3424 0.949 . S
C3428 C3436 1.574 . S
C3428 C3444 1.368 . S
H3429 C3437 0.950 . S
H3430 C3435 0.950 . S
H3431 C3436 0.949 . S
H3432 C3438 0.950 . S
H3433 C3439 0.950 . S
H3434 C3440 0.949 . S
C3435 H3430 0.950 . S
C3435 C3437 1.327 . S
C3435 C3441 1.429 . S
C3436 C3428 1.574 . S
C3436 H3431 0.949 . S
C3436 C3442 1.368 . S
C3437 C3421 1.349 . S
C3437 H3429 0.950 . S
C3437 C3435 1.327 . S
C3438 C3426 1.349 . S
C3438 H3432 0.950 . S
C3438 C3439 1.327 . S
C3439 H3433 0.950 . S
C3439 C3438 1.327 . S
C3439 C3443 1.429 . S
C3440 C3423 1.574 . S
C3440 H3434 0.949 . S
C3440 C3444 1.368 . S
C3441 C3422 1.429 . S
C3441 C3435 1.429 . S
C3441 C3442 1.523 . S
C3442 C3423 1.368 . S
C3442 C3436 1.368 . S
C3442 C3441 1.523 . S
C3443 C3427 1.429 . S
C3443 C3439 1.429 . S
C3443 C3444 1.523 . S
C3444 C3428 1.368 . S
C3444 C3440 1.368 . S
C3444 C3443 1.523 . S
H3445 C3420 0.950 . S
H3446 C3422 0.950 . S
H3447 C3423 0.949 . S
H3448 C3425 0.950 . S
H3449 C3427 0.950 . S
C3450 C3451 1.349 . S
C3450 C3452 1.327 . S
C3450 H3475 0.950 . S
C3451 C3450 1.349 . S
C3451 C3467 1.349 . S
C3452 C3450 1.327 . S
C3452 C3471 1.429 . S
C3452 H3476 0.950 . S
C3453 C3470 1.574 . S
C3453 C3472 1.368 . S
C3453 H3477 0.949 . S
H3454 C3458 0.949 . S
C3455 C3456 1.349 . S
C3455 C3457 1.327 . S
C3455 H3478 0.950 . S
C3456 C3455 1.349 . S
C3456 C3468 1.349 . S
C3457 C3455 1.327 . S
C3457 C3473 1.429 . S
C3457 H3479 0.950 . S
C3458 H3454 0.949 . S
C3458 C3466 1.574 . S
C3458 C3474 1.368 . S
H3459 C3467 0.950 . S
H3460 C3465 0.950 . S
H3461 C3466 0.949 . S
H3462 C3468 0.950 . S
H3463 C3469 0.950 . S
H3464 C3470 0.949 . S
C3465 H3460 0.950 . S
C3465 C3467 1.327 . S
C3465 C3471 1.429 . S
C3466 C3458 1.574 . S
C3466 H3461 0.949 . S
C3466 C3472 1.368 . S
C3467 C3451 1.349 . S
C3467 H3459 0.950 . S
C3467 C3465 1.327 . S
C3468 C3456 1.349 . S
C3468 H3462 0.950 . S
C3468 C3469 1.327 . S
C3469 H3463 0.950 . S
C3469 C3468 1.327 . S
C3469 C3473 1.429 . S
C3470 C3453 1.574 . S
C3470 H3464 0.949 . S
C3470 C3474 1.368 . S
C3471 C3452 1.429 . S
C3471 C3465 1.429 . S
C3471 C3472 1.523 . S
C3472 C3453 1.368 . S
C3472 C3466 1.368 . S
C3472 C3471 1.523 . S
C3473 C3457 1.429 . S
C3473 C3469 1.429 . S
C3473 C3474 1.523 . S
C3474 C3458 1.368 . S
C3474 C3470 1.368 . S
C3474 C3473 1.523 . S
H3475 C3450 0.950 . S
H3476 C3452 0.950 . S
H3477 C3453 0.949 . S
H3478 C3455 0.950 . S
H3479 C3457 0.950 . S
C3480 C3481 1.349 . S
C3480 C3482 1.327 . S
C3480 H3505 0.950 . S
C3481 C3480 1.349 . S
C3481 C3497 1.349 . S
C3482 C3480 1.327 . S
C3482 C3501 1.429 . S
C3482 H3506 0.950 . S
C3483 C3500 1.574 . S
C3483 C3502 1.368 . S
C3483 H3507 0.949 . S
H3484 C3488 0.949 . S
C3485 C3486 1.349 . S
C3485 C3487 1.327 . S
C3485 H3508 0.950 . S
C3486 C3485 1.349 . S
C3486 C3498 1.349 . S
C3487 C3485 1.327 . S
C3487 C3503 1.429 . S
C3487 H3509 0.950 . S
C3488 H3484 0.949 . S
C3488 C3496 1.574 . S
C3488 C3504 1.368 . S
H3489 C3497 0.950 . S
H3490 C3495 0.950 . S
H3491 C3496 0.949 . S
H3492 C3498 0.950 . S
H3493 C3499 0.950 . S
H3494 C3500 0.949 . S
C3495 H3490 0.950 . S
C3495 C3497 1.327 . S
C3495 C3501 1.429 . S
C3496 C3488 1.574 . S
C3496 H3491 0.949 . S
C3496 C3502 1.368 . S
C3497 C3481 1.349 . S
C3497 H3489 0.950 . S
C3497 C3495 1.327 . S
C3498 C3486 1.349 . S
C3498 H3492 0.950 . S
C3498 C3499 1.327 . S
C3499 H3493 0.950 . S
C3499 C3498 1.327 . S
C3499 C3503 1.429 . S
C3500 C3483 1.574 . S
C3500 H3494 0.949 . S
C3500 C3504 1.368 . S
C3501 C3482 1.429 . S
C3501 C3495 1.429 . S
C3501 C3502 1.523 . S
C3502 C3483 1.368 . S
C3502 C3496 1.368 . S
C3502 C3501 1.523 . S
C3503 C3487 1.429 . S
C3503 C3499 1.429 . S
C3503 C3504 1.523 . S
C3504 C3488 1.368 . S
C3504 C3500 1.368 . S
C3504 C3503 1.523 . S
H3505 C3480 0.950 . S
H3506 C3482 0.950 . S
H3507 C3483 0.949 . S
H3508 C3485 0.950 . S
H3509 C3487 0.950 . S
C3510 C3511 1.349 . S
C3510 C3512 1.327 . S
C3510 H3535 0.950 . S
C3511 C3510 1.349 . S
C3511 C3527 1.349 . S
C3512 C3510 1.327 . S
C3512 C3531 1.429 . S
C3512 H3536 0.950 . S
C3513 C3530 1.574 . S
C3513 C3532 1.368 . S
C3513 H3537 0.949 . S
H3514 C3518 0.949 . S
C3515 C3516 1.349 . S
C3515 C3517 1.327 . S
C3515 H3538 0.950 . S
C3516 C3515 1.349 . S
C3516 C3528 1.349 . S
C3517 C3515 1.327 . S
C3517 C3533 1.429 . S
C3517 H3539 0.950 . S
C3518 H3514 0.949 . S
C3518 C3526 1.574 . S
C3518 C3534 1.368 . S
H3519 C3527 0.950 . S
H3520 C3525 0.950 . S
H3521 C3526 0.949 . S
H3522 C3528 0.950 . S
H3523 C3529 0.950 . S
H3524 C3530 0.949 . S
C3525 H3520 0.950 . S
C3525 C3527 1.327 . S
C3525 C3531 1.429 . S
C3526 C3518 1.574 . S
C3526 H3521 0.949 . S
C3526 C3532 1.368 . S
C3527 C3511 1.349 . S
C3527 H3519 0.950 . S
C3527 C3525 1.327 . S
C3528 C3516 1.349 . S
C3528 H3522 0.950 . S
C3528 C3529 1.327 . S
C3529 H3523 0.950 . S
C3529 C3528 1.327 . S
C3529 C3533 1.429 . S
C3530 C3513 1.574 . S
C3530 H3524 0.949 . S
C3530 C3534 1.368 . S
C3531 C3512 1.429 . S
C3531 C3525 1.429 . S
C3531 C3532 1.523 . S
C3532 C3513 1.368 . S
C3532 C3526 1.368 . S
C3532 C3531 1.523 . S
C3533 C3517 1.429 . S
C3533 C3529 1.429 . S
C3533 C3534 1.523 . S
C3534 C3518 1.368 . S
C3534 C3530 1.368 . S
C3534 C3533 1.523 . S
H3535 C3510 0.950 . S
H3536 C3512 0.950 . S
H3537 C3513 0.949 . S
H3538 C3515 0.950 . S
H3539 C3517 0.950 . S
C3540 C3541 1.349 . S
C3540 C3542 1.327 . S
C3540 H3565 0.950 . S
C3541 C3540 1.349 . S
C3541 C3557 1.349 . S
C3542 C3540 1.327 . S
C3542 C3561 1.429 . S
C3542 H3566 0.950 . S
C3543 C3560 1.574 . S
C3543 C3562 1.368 . S
C3543 H3567 0.949 . S
H3544 C3548 0.949 . S
C3545 C3546 1.349 . S
C3545 C3547 1.327 . S
C3545 H3568 0.950 . S
C3546 C3545 1.349 . S
C3546 C3558 1.349 . S
C3547 C3545 1.327 . S
C3547 C3563 1.429 . S
C3547 H3569 0.950 . S
C3548 H3544 0.949 . S
C3548 C3556 1.574 . S
C3548 C3564 1.368 . S
H3549 C3557 0.950 . S
H3550 C3555 0.950 . S
H3551 C3556 0.949 . S
H3552 C3558 0.950 . S
H3553 C3559 0.950 . S
H3554 C3560 0.949 . S
C3555 H3550 0.950 . S
C3555 C3557 1.327 . S
C3555 C3561 1.429 . S
C3556 C3548 1.574 . S
C3556 H3551 0.949 . S
C3556 C3562 1.368 . S
C3557 C3541 1.349 . S
C3557 H3549 0.950 . S
C3557 C3555 1.327 . S
C3558 C3546 1.349 . S
C3558 H3552 0.950 . S
C3558 C3559 1.327 . S
C3559 H3553 0.950 . S
C3559 C3558 1.327 . S
C3559 C3563 1.429 . S
C3560 C3543 1.574 . S
C3560 H3554 0.949 . S
C3560 C3564 1.368 . S
C3561 C3542 1.429 . S
C3561 C3555 1.429 . S
C3561 C3562 1.523 . S
C3562 C3543 1.368 . S
C3562 C3556 1.368 . S
C3562 C3561 1.523 . S
C3563 C3547 1.429 . S
C3563 C3559 1.429 . S
C3563 C3564 1.523 . S
C3564 C3548 1.368 . S
C3564 C3560 1.368 . S
C3564 C3563 1.523 . S
H3565 C3540 0.950 . S
H3566 C3542 0.950 . S
H3567 C3543 0.949 . S
H3568 C3545 0.950 . S
H3569 C3547 0.950 . S
C3570 C3571 1.349 . S
C3570 C3572 1.327 . S
C3570 H3595 0.950 . S
C3571 C3570 1.349 . S
C3571 C3587 1.349 . S
C3572 C3570 1.327 . S
C3572 C3591 1.429 . S
C3572 H3596 0.950 . S
C3573 C3590 1.574 . S
C3573 C3592 1.368 . S
C3573 H3597 0.949 . S
H3574 C3578 0.949 . S
C3575 C3576 1.349 . S
C3575 C3577 1.327 . S
C3575 H3598 0.950 . S
C3576 C3575 1.349 . S
C3576 C3588 1.349 . S
C3577 C3575 1.327 . S
C3577 C3593 1.429 . S
C3577 H3599 0.950 . S
C3578 H3574 0.949 . S
C3578 C3586 1.574 . S
C3578 C3594 1.368 . S
H3579 C3587 0.950 . S
H3580 C3585 0.950 . S
H3581 C3586 0.949 . S
H3582 C3588 0.950 . S
H3583 C3589 0.950 . S
H3584 C3590 0.949 . S
C3585 H3580 0.950 . S
C3585 C3587 1.327 . S
C3585 C3591 1.429 . S
C3586 C3578 1.574 . S
C3586 H3581 0.949 . S
C3586 C3592 1.368 . S
C3587 C3571 1.349 . S
C3587 H3579 0.950 . S
C3587 C3585 1.327 . S
C3588 C3576 1.349 . S
C3588 H3582 0.950 . S
C3588 C3589 1.327 . S
C3589 H3583 0.950 . S
C3589 C3588 1.327 . S
C3589 C3593 1.429 . S
C3590 C3573 1.574 . S
C3590 H3584 0.949 . S
C3590 C3594 1.368 . S
C3591 C3572 1.429 . S
C3591 C3585 1.429 . S
C3591 C3592 1.523 . S
C3592 C3573 1.368 . S
C3592 C3586 1.368 . S
C3592 C3591 1.523 . S
C3593 C3577 1.429 . S
C3593 C3589 1.429 . S
C3593 C3594 1.523 . S
C3594 C3578 1.368 . S
C3594 C3590 1.368 . S
C3594 C3593 1.523 . S
H3595 C3570 0.950 . S
H3596 C3572 0.950 . S
H3597 C3573 0.949 . S
H3598 C3575 0.950 . S
H3599 C3577 0.950 . S
C3600 C3601 1.349 . S
C3600 C3602 1.327 . S
C3600 H3625 0.950 . S
C3601 C3600 1.349 . S
C3601 C3617 1.349 . S
C3602 C3600 1.327 . S
C3602 C3621 1.429 . S
C3602 H3626 0.950 . S
C3603 C3620 1.574 . S
C3603 C3622 1.368 . S
C3603 H3627 0.949 . S
H3604 C3608 0.949 . S
C3605 C3606 1.349 . S
C3605 C3607 1.327 . S
C3605 H3628 0.950 . S
C3606 C3605 1.349 . S
C3606 C3618 1.349 . S
C3607 C3605 1.327 . S
C3607 C3623 1.429 . S
C3607 H3629 0.950 . S
C3608 H3604 0.949 . S
C3608 C3616 1.574 . S
C3608 C3624 1.368 . S
H3609 C3617 0.950 . S
H3610 C3615 0.950 . S
H3611 C3616 0.949 . S
H3612 C3618 0.950 . S
H3613 C3619 0.950 . S
H3614 C3620 0.949 . S
C3615 H3610 0.950 . S
C3615 C3617 1.327 . S
C3615 C3621 1.429 . S
C3616 C3608 1.574 . S
C3616 H3611 0.949 . S
C3616 C3622 1.368 . S
C3617 C3601 1.349 . S
C3617 H3609 0.950 . S
C3617 C3615 1.327 . S
C3618 C3606 1.349 . S
C3618 H3612 0.950 . S
C3618 C3619 1.327 . S
C3619 H3613 0.950 . S
C3619 C3618 1.327 . S
C3619 C3623 1.429 . S
C3620 C3603 1.574 . S
C3620 H3614 0.949 . S
C3620 C3624 1.368 . S
C3621 C3602 1.429 . S
C3621 C3615 1.429 . S
C3621 C3622 1.523 . S
C3622 C3603 1.368 . S
C3622 C3616 1.368 . S
C3622 C3621 1.523 . S
C3623 C3607 1.429 . S
C3623 C3619 1.429 . S
C3623 C3624 1.523 . S
C3624 C3608 1.368 . S
C3624 C3620 1.368 . S
C3624 C3623 1.523 . S
H3625 C3600 0.950 . S
H3626 C3602 0.950 . S
H3627 C3603 0.949 . S
H3628 C3605 0.950 . S
H3629 C3607 0.950 . S
C3630 C3631 1.349 . S
C3630 C3632 1.327 . S
C3630 H3655 0.950 . S
C3631 C3630 1.349 . S
C3631 C3647 1.349 . S
C3632 C3630 1.327 . S
C3632 C3651 1.429 . S
C3632 H3656 0.950 . S
C3633 C3650 1.574 . S
C3633 C3652 1.368 . S
C3633 H3657 0.949 . S
H3634 C3638 0.949 . S
C3635 C3636 1.349 . S
C3635 C3637 1.327 . S
C3635 H3658 0.950 . S
C3636 C3635 1.349 . S
C3636 C3648 1.349 . S
C3637 C3635 1.327 . S
C3637 C3653 1.429 . S
C3637 H3659 0.950 . S
C3638 H3634 0.949 . S
C3638 C3646 1.574 . S
C3638 C3654 1.368 . S
H3639 C3647 0.950 . S
H3640 C3645 0.950 . S
H3641 C3646 0.949 . S
H3642 C3648 0.950 . S
H3643 C3649 0.950 . S
H3644 C3650 0.949 . S
C3645 H3640 0.950 . S
C3645 C3647 1.327 . S
C3645 C3651 1.429 . S
C3646 C3638 1.574 . S
C3646 H3641 0.949 . S
C3646 C3652 1.368 . S
C3647 C3631 1.349 . S
C3647 H3639 0.950 . S
C3647 C3645 1.327 . S
C3648 C3636 1.349 . S
C3648 H3642 0.950 . S
C3648 C3649 1.327 . S
C3649 H3643 0.950 . S
C3649 C3648 1.327 . S
C3649 C3653 1.429 . S
C3650 C3633 1.574 . S
C3650 H3644 0.949 . S
C3650 C3654 1.368 . S
C3651 C3632 1.429 . S
C3651 C3645 1.429 . S
C3651 C3652 1.523 . S
C3652 C3633 1.368 . S
C3652 C3646 1.368 . S
C3652 C3651 1.523 . S
C3653 C3637 1.429 . S
C3653 C3649 1.429 . S
C3653 C3654 1.523 . S
C3654 C3638 1.368 . S
C3654 C3650 1.368 . S
C3654 C3653 1.523 . S
H3655 C3630 0.950 . S
H3656 C3632 0.950 . S
H3657 C3633 0.949 . S
H3658 C3635 0.950 . S
H3659 C3637 0.950 . S
C3660 C3661 1.349 . S
C3660 C3662 1.327 . S
C3660 H3685 0.950 . S
C3661 C3660 1.349 . S
C3661 C3677 1.349 . S
C3662 C3660 1.327 . S
C3662 C3681 1.429 . S
C3662 H3686 0.950 . S
C3663 C3680 1.574 . S
C3663 C3682 1.368 . S
C3663 H3687 0.949 . S
H3664 C3668 0.949 . S
C3665 C3666 1.349 . S
C3665 C3667 1.327 . S
C3665 H3688 0.950 . S
C3666 C3665 1.349 . S
C3666 C3678 1.349 . S
C3667 C3665 1.327 . S
C3667 C3683 1.429 . S
C3667 H3689 0.950 . S
C3668 H3664 0.949 . S
C3668 C3676 1.574 . S
C3668 C3684 1.368 . S
H3669 C3677 0.950 . S
H3670 C3675 0.950 . S
H3671 C3676 0.949 . S
H3672 C3678 0.950 . S
H3673 C3679 0.950 . S
H3674 C3680 0.949 . S
C3675 H3670 0.950 . S
C3675 C3677 1.327 . S
C3675 C3681 1.429 . S
C3676 C3668 1.574 . S
C3676 H3671 0.949 . S
C3676 C3682 1.368 . S
C3677 C3661 1.349 . S
C3677 H3669 0.950 . S
C3677 C3675 1.327 . S
C3678 C3666 1.349 . S
C3678 H3672 0.950 . S
C3678 C3679 1.327 . S
C3679 H3673 0.950 . S
C3679 C3678 1.327 . S
C3679 C3683 1.429 . S
C3680 C3663 1.574 . S
C3680 H3674 0.949 . S
C3680 C3684 1.368 . S
C3681 C3662 1.429 . S
C3681 C3675 1.429 . S
C3681 C3682 1.523 . S
C3682 C3663 1.368 . S
C3682 C3676 1.368 . S
C3682 C3681 1.523 . S
C3683 C3667 1.429 . S
C3683 C3679 1.429 . S
C3683 C3684 1.523 . S
C3684 C3668 1.368 . S
C3684 C3680 1.368 . S
C3684 C3683 1.523 . S
H3685 C3660 0.950 . S
H3686 C3662 0.950 . S
H3687 C3663 0.949 . S
H3688 C3665 0.950 . S
H3689 C3667 0.950 . S
C3690 C3691 1.349 . S
C3690 C3692 1.327 . S
C3690 H3715 0.950 . S
C3691 C3690 1.349 . S
C3691 C3707 1.349 . S
C3692 C3690 1.327 . S
C3692 C3711 1.429 . S
C3692 H3716 0.950 . S
C3693 C3710 1.574 . S
C3693 C3712 1.368 . S
C3693 H3717 0.949 . S
H3694 C3698 0.949 . S
C3695 C3696 1.349 . S
C3695 C3697 1.327 . S
C3695 H3718 0.950 . S
C3696 C3695 1.349 . S
C3696 C3708 1.349 . S
C3697 C3695 1.327 . S
C3697 C3713 1.429 . S
C3697 H3719 0.950 . S
C3698 H3694 0.949 . S
C3698 C3706 1.574 . S
C3698 C3714 1.368 . S
H3699 C3707 0.950 . S
H3700 C3705 0.950 . S
H3701 C3706 0.949 . S
H3702 C3708 0.950 . S
H3703 C3709 0.950 . S
H3704 C3710 0.949 . S
C3705 H3700 0.950 . S
C3705 C3707 1.327 . S
C3705 C3711 1.429 . S
C3706 C3698 1.574 . S
C3706 H3701 0.949 . S
C3706 C3712 1.368 . S
C3707 C3691 1.349 . S
C3707 H3699 0.950 . S
C3707 C3705 1.327 . S
C3708 C3696 1.349 . S
C3708 H3702 0.950 . S
C3708 C3709 1.327 . S
C3709 H3703 0.950 . S
C3709 C3708 1.327 . S
C3709 C3713 1.429 . S
C3710 C3693 1.574 . S
C3710 H3704 0.949 . S
C3710 C3714 1.368 . S
C3711 C3692 1.429 . S
C3711 C3705 1.429 . S
C3711 C3712 1.523 . S
C3712 C3693 1.368 . S
C3712 C3706 1.368 . S
C3712 C3711 1.523 . S
C3713 C3697 1.429 . S
C3713 C3709 1.429 . S
C3713 C3714 1.523 . S
C3714 C3698 1.368 . S
C3714 C3710 1.368 . S
C3714 C3713 1.523 . S
H3715 C3690 0.950 . S
H3716 C3692 0.950 . S
H3717 C3693 0.949 . S
H3718 C3695 0.950 . S
H3719 C3697 0.950 . S
C846 N300 1.470 . S
C841 C5 1.509 . S
C876 C327 1.570 . S
C871 C16 1.574 . S
C901 C23 1.519 . S
C906 C341 1.510 . S
C936 N359 1.437 . S
C931 C34 1.471 . S
C961 C43 1.561 . S
C966 C364 1.560 . S
C991 C50 1.498 . S
C996 C304 1.493 . S
C1021 C58 1.415 . S
C1026 N323 1.381 . S
C1056 N336 1.458 . S
C1051 C68 1.503 . S
C1086 N382 1.412 . S
C1081 C4 1.448 . S
C1111 C13 1.530 . S
C1116 N405 1.498 . S
C1141 C25 1.546 . S
C1146 N428 1.523 . S
C1176 N461 1.413 . S
C1171 C32 1.455 . S
C1201 C41 1.543 . S
C1206 C488 1.532 . S
C1236 C511 1.559 . S
C1231 C52 1.564 . S
C1261 C61 1.473 . S
C1266 C534 1.469 . S
C1296 C548 1.445 . S
C1291 C67 1.446 . S
C1321 C7 1.445 . S
C1326 C465 1.434 . S
C1351 C40 1.489 . S
C1356 N507 1.455 . S
C1386 N530 1.443 . S
C1381 C49 1.480 . S
C1411 C59 1.462 . S
C1416 N543 1.428 . S
C1446 N484 1.422 . S
C1441 C70 1.460 . S
C1476 C410 1.659 . S
C1471 C22 1.660 . S
C1501 C31 1.494 . S
C1506 C433 1.486 . S
C1536 C387 1.583 . S
C1531 C14 1.585 . S
C1566 C580 1.462 . S
C1561 C77 1.469 . S
C1591 C88 1.589 . S
C1596 C594 1.589 . S
C1621 C95 1.508 . S
C1626 N622 1.468 . S
C1656 N635 1.426 . S
C1651 C106 1.460 . S
C1681 C115 1.570 . S
C1686 C640 1.569 . S
C1711 C122 1.485 . S
C1716 N576 1.445 . S
C1741 C130 1.503 . S
C1746 N589 1.469 . S
C1771 C140 1.459 . S
C1776 C626 1.450 . S
C1806 N474 1.414 . S
C1801 C76 1.447 . S
C1831 C85 1.516 . S
C1836 N658 1.475 . S
C1866 N520 1.441 . S
C1861 C97 1.474 . S
C1891 C104 1.492 . S
C1896 C695 1.488 . S
C1921 C113 1.573 . S
C1926 C396 1.568 . S
C1956 C709 1.587 . S
C1951 C124 1.587 . S
C1981 C133 1.523 . S
C1986 C442 1.521 . S
C2016 N727 1.406 . S
C2011 C139 1.442 . S
C2041 C79 1.472 . S
C2046 N691 1.436 . S
C2076 N704 1.480 . S
C2071 C112 1.519 . S
C2101 C121 1.479 . S
C2106 N438 1.434 . S
C2136 C732 1.428 . S
C2131 C131 1.429 . S
C2161 C142 1.439 . S
C2166 N392 1.404 . S
C2191 C94 1.561 . S
C2196 C663 1.560 . S
C2221 C103 1.539 . S
C2226 C525 1.537 . S
C2251 C86 1.588 . S
C2256 C479 1.588 . S
C2281 C149 1.536 . S
C2286 C617 1.535 . S
C2316 C649 1.524 . S
C2311 C160 1.531 . S
C2341 C167 1.477 . S
C2346 N566 1.448 . S
C2371 C178 1.443 . S
C2376 N599 1.407 . S
C2401 C187 1.575 . S
C2406 C603 1.565 . S
C2431 C194 1.553 . S
C2436 N612 1.519 . S
C2466 N645 1.357 . S
C2461 C202 1.393 . S
C2491 C212 1.510 . S
C2496 C571 1.508 . S
C2526 N760 1.438 . S
C2521 C148 1.474 . S
C2551 C157 1.471 . S
C2556 N497 1.434 . S
C2586 N783 1.376 . S
C2581 C169 1.413 . S
C2611 C176 1.463 . S
C2616 N553 1.430 . S
C2641 C185 1.550 . S
C2646 C801 1.549 . S
C2671 C196 1.651 . S
C2676 C419 1.646 . S
C2706 N819 1.368 . S
C2701 C205 1.404 . S
C2731 C211 1.491 . S
C2736 C456 1.496 . S
C2766 C557 1.488 . S
C2761 C151 1.494 . S
C2796 N415 1.489 . S
C2791 C184 1.531 . S
C2821 C193 1.577 . S
C2826 C824 1.575 . S
C2851 C203 1.389 . S
C2856 N451 1.345 . S
C2886 N796 1.472 . S
C2881 C214 1.507 . S
C2916 C502 1.554 . S
C2911 C166 1.554 . S
C2946 C787 1.534 . S
C2941 C175 1.539 . S
C2976 C764 1.552 . S
C2971 C158 1.557 . S
C3001 C221 1.423 . S
C3006 N346 1.380 . S
C3031 C232 1.549 . S
C3036 C373 1.541 . S
C3066 C295 1.550 . S
C3061 C239 1.551 . S
C3096 N313 1.372 . S
C3091 C250 1.406 . S
C3126 C318 1.567 . S
C3121 C259 1.569 . S
C3156 C350 1.490 . S
C3151 C266 1.499 . S
C3186 N369 1.472 . S
C3181 C274 1.509 . S
C3211 C284 1.509 . S
C3216 N290 1.476 . S
C3241 C220 1.387 . S
C3246 N806 1.353 . S
C3276 N714 1.462 . S
C3271 C229 1.494 . S
C3306 C833 1.573 . S
C3301 C241 1.578 . S
C3336 C741 1.371 . S
C3331 C248 1.379 . S
C3361 C257 1.576 . S
C3366 C755 1.574 . S
C3396 C672 1.577 . S
C3391 C268 1.583 . S
C3426 C778 1.615 . S
C3421 C277 1.617 . S
C3451 C283 1.483 . S
C3456 N681 1.446 . S
C3486 N737 1.361 . S
C3481 C223 1.395 . S
C3516 N668 1.461 . S
C3511 C256 1.493 . S
C3546 N773 1.402 . S
C3541 C265 1.430 . S
C3571 C275 1.496 . S
C3576 C686 1.494 . S
C3601 C286 1.442 . S
C3606 N750 1.407 . S
C3631 C238 1.663 . S
C3636 C718 1.657 . S
C3661 C247 1.420 . S
C3666 N829 1.388 . S
C3696 C810 1.528 . S
C3691 C230 1.535 . S
