# Generated by pormake.
# Topology anh, (6,3)-cn, num edge types: 1
# Building blocks:
#     Node 0, Type 0, BuildingBlock: MIFKUJ_clean_sbu_0, # of connection points: 6
#     Node 1, Type 0, BuildingBlock: MIFKUJ_clean_sbu_0, # of connection points: 6
#     Node 2, Type 0, BuildingBlock: MIFKUJ_clean_sbu_0, # of connection points: 6
#     Node 3, Type 1, BuildingBlock: QEWDON_clean_linker_0, # of connection points: 3
#     Node 4, Type 1, BuildingBlock: QEWDON_clean_linker_0, # of connection points: 3
#     Node 5, Type 1, BuildingBlock: QEWDON_clean_linker_0, # of connection points: 3
#     Node 6, Type 1, BuildingBlock: QEWDON_clean_linker_0, # of connection points: 3
#     Node 7, Type 1, BuildingBlock: QEWDON_clean_linker_0, # of connection points: 3
#     Node 8, Type 1, BuildingBlock: QEWDON_clean_linker_0, # of connection points: 3
#     Edge 9, Type (0, 1), BuildingBlock: MIFKUJ_clean_linker_0, # of connection points: 2
#     Edge 10, Type (0, 1), BuildingBlock: MIFKUJ_clean_linker_0, # of connection points: 2
#     Edge 11, Type (0, 1), BuildingBlock: MIFKUJ_clean_linker_0, # of connection points: 2
#     Edge 12, Type (0, 1), BuildingBlock: MIFKUJ_clean_linker_0, # of connection points: 2
#     Edge 13, Type (0, 1), BuildingBlock: MIFKUJ_clean_linker_0, # of connection points: 2
#     Edge 14, Type (0, 1), BuildingBlock: MIFKUJ_clean_linker_0, # of connection points: 2
#     Edge 15, Type (0, 1), BuildingBlock: MIFKUJ_clean_linker_0, # of connection points: 2
#     Edge 16, Type (0, 1), BuildingBlock: MIFKUJ_clean_linker_0, # of connection points: 2
#     Edge 17, Type (0, 1), BuildingBlock: MIFKUJ_clean_linker_0, # of connection points: 2
#     Edge 18, Type (0, 1), BuildingBlock: MIFKUJ_clean_linker_0, # of connection points: 2
#     Edge 19, Type (0, 1), BuildingBlock: MIFKUJ_clean_linker_0, # of connection points: 2
#     Edge 20, Type (0, 1), BuildingBlock: MIFKUJ_clean_linker_0, # of connection points: 2
#     Edge 21, Type (0, 1), BuildingBlock: MIFKUJ_clean_linker_0, # of connection points: 2
#     Edge 22, Type (0, 1), BuildingBlock: MIFKUJ_clean_linker_0, # of connection points: 2
#     Edge 23, Type (0, 1), BuildingBlock: MIFKUJ_clean_linker_0, # of connection points: 2
#     Edge 24, Type (0, 1), BuildingBlock: MIFKUJ_clean_linker_0, # of connection points: 2
#     Edge 25, Type (0, 1), BuildingBlock: MIFKUJ_clean_linker_0, # of connection points: 2
#     Edge 26, Type (0, 1), BuildingBlock: MIFKUJ_clean_linker_0, # of connection points: 2
# Relax obj value: 0.065
# Max RMSD: 0.126
# Mean RMSD: 0.117
data_MOF--net-anh--node1-MIFKUJ_clean_sbu_0--node2-QEWDON_clean_linker_0--edge1-MIFKUJ_clean_linker_0
_symmetry_space_group_name_H-M    P1
_symmetry_Int_Tables_number       1
_symmetry_cell_setting            triclinic
loop_
_symmetry_equiv_pos_as_xyz
'x, y, z'
_cell_length_a     42.334301
_cell_length_b     42.240909
_cell_length_c     60.373713
_cell_angle_alpha  98.243301
_cell_angle_beta   94.961973
_cell_angle_gamma 119.97513
loop_
_atom_site_label
_atom_site_type_symbol
_atom_site_fract_x
_atom_site_fract_y
_atom_site_fract_z
_atom_type_partial_charge
Zn0 Zn 0.07181 0.62136 0.1723 0.0
Zn1 Zn 0.95688 0.54641 0.16405 0.0
C2 C 0.1083 0.57699 0.17269 0.0
O3 O 0.08445 0.55642 0.18465 0.0
C4 C 0.8909 0.54427 0.15172 0.0
O5 O 0.88509 0.51366 0.13843 0.0
O6 O 0.09714 0.67399 0.16765 0.0
O7 O 0.02338 0.5877 0.15281 0.0
O8 O 0.97046 0.54619 0.13239 0.0
C9 C 0.11503 0.67864 0.15135 0.0
O10 O 0.11127 0.64912 0.13796 0.0
O11 O 0.10632 0.60336 0.1663 0.0
C12 C 0.9097 0.4843 0.18254 0.0
O13 O 0.91262 0.51109 0.1982 0.0
O14 O 0.92779 0.49287 0.16648 0.0
O15 O 0.00143 0.57662 0.19109 0.0
O16 O 0.06133 0.61727 0.20389 0.0
O17 O 0.92199 0.56551 0.16504 0.0
C18 C 0.00443 0.56927 0.13332 0.0
C19 C 0.029 0.59533 0.20766 0.0
Zn20 Zn 0.53196 0.09283 0.49981 0.0
Zn21 Zn 0.5032 0.986 0.49319 0.0
C22 C 0.60172 0.1554 0.50453 0.0
O23 O 0.58628 0.16532 0.51987 0.0
C24 C 0.43291 0.91838 0.479 0.0
O25 O 0.45329 0.90856 0.46811 0.0
O26 O 0.5107 0.12511 0.49652 0.0
O27 O 0.50006 0.04316 0.47875 0.0
O28 O 0.51522 0.00387 0.46423 0.0
C29 C 0.51905 0.14036 0.47957 0.0
O30 O 0.53515 0.12978 0.46511 0.0
O31 O 0.58412 0.12177 0.49314 0.0
C32 C 0.5212 0.94105 0.51479 0.0
O33 O 0.50079 0.94546 0.52869 0.0
O34 O 0.52688 0.95683 0.498 0.0
O35 O 0.52167 0.02704 0.5215 0.0
O36 O 0.53677 0.08589 0.53205 0.0
O37 O 0.44802 0.95165 0.49055 0.0
C38 C 0.51222 0.03185 0.46295 0.0
C39 C 0.53299 0.05606 0.53704 0.0
Zn40 Zn 0.60511 0.51821 0.83964 0.0
Zn41 Zn 0.53042 0.54079 0.82971 0.0
C42 C 0.58884 0.4485 0.84767 0.0
O43 O 0.6073 0.4716 0.86741 0.0
C44 C 0.55661 0.61123 0.81288 0.0
O45 O 0.54458 0.5898 0.79234 0.0
O46 O 0.65883 0.53459 0.84425 0.0
O47 O 0.59974 0.54068 0.81293 0.0
O48 O 0.53899 0.51191 0.80407 0.0
C49 C 0.66707 0.52164 0.82682 0.0
O50 O 0.64127 0.50177 0.80852 0.0
O51 O 0.58101 0.46133 0.83154 0.0
C52 C 0.46666 0.53672 0.84112 0.0
O53 O 0.49234 0.56248 0.85815 0.0
O54 O 0.47617 0.52184 0.82533 0.0
O55 O 0.54326 0.53605 0.86104 0.0
O56 O 0.59246 0.53137 0.86989 0.0
O57 O 0.55483 0.59658 0.8301 0.0
C58 C 0.57053 0.52869 0.79848 0.0
C59 C 0.56555 0.5342 0.87547 0.0
H60 H 0.53315 0.13054 0.22982 0.0
C61 C 0.51051 0.10221 0.2225 0.0
C62 C 0.4939 0.07724 0.23679 0.0
C63 C 0.49608 0.09117 0.19893 0.0
H64 H 0.45029 0.02183 0.23832 0.0
C65 C 0.46363 0.04109 0.22736 0.0
C66 C 0.44998 0.02974 0.20396 0.0
C67 C 0.46633 0.05457 0.18979 0.0
C68 C 0.50993 0.11807 0.18383 0.0
H69 H 0.45499 0.04571 0.17169 0.0
C70 C 0.54809 0.1407 0.18416 0.0
C71 C 0.56083 0.16484 0.16895 0.0
C72 C 0.48458 0.12038 0.16846 0.0
H73 H 0.45501 0.10359 0.16808 0.0
C74 C 0.49711 0.1445 0.15351 0.0
H75 H 0.56773 0.1387 0.19576 0.0
C76 C 0.53498 0.16654 0.15365 0.0
H77 H 0.54409 0.18538 0.14204 0.0
H78 H 0.4774 0.14615 0.14179 0.0
H79 H 0.54695 0.57964 0.55591 0.0
C80 C 0.55228 0.55763 0.54992 0.0
C81 C 0.5581 0.5386 0.56555 0.0
C82 C 0.55112 0.54656 0.5265 0.0
H83 H 0.5666 0.49332 0.56965 0.0
C84 C 0.56284 0.50867 0.55776 0.0
C85 C 0.562 0.49773 0.53469 0.0
C86 C 0.55727 0.51729 0.51926 0.0
C87 C 0.54141 0.56365 0.50929 0.0
H88 H 0.55678 0.50846 0.5014 0.0
C89 C 0.55351 0.60191 0.51414 0.0
C90 C 0.54449 0.6179 0.49775 0.0
C91 C 0.51967 0.54158 0.48778 0.0
H92 H 0.50868 0.51173 0.48364 0.0
C93 C 0.51125 0.55764 0.47136 0.0
H94 H 0.57029 0.61948 0.53052 0.0
C95 C 0.5237 0.59569 0.47624 0.0
H96 H 0.51617 0.60756 0.46348 0.0
H97 H 0.49459 0.54043 0.45491 0.0
H98 H 0.11396 0.57063 0.89872 0.0
C99 C 0.08541 0.562 0.89258 0.0
C100 C 0.06122 0.55665 0.90806 0.0
C101 C 0.07294 0.55763 0.86931 0.0
H102 H 0.00636 0.54338 0.91249 0.0
C103 C 0.02471 0.54688 0.90035 0.0
C104 C 0.01203 0.54264 0.8773 0.0
C105 C 0.03609 0.54747 0.86184 0.0
C106 C 0.09833 0.56499 0.85271 0.0
H107 H 0.02639 0.54442 0.84401 0.0
C108 C 0.12195 0.55062 0.85255 0.0
C109 C 0.14426 0.55578 0.83585 0.0
C110 C 0.09804 0.58548 0.83632 0.0
H111 H 0.08062 0.59747 0.83628 0.0
C112 C 0.1203 0.59082 0.81984 0.0
H113 H 0.12215 0.53448 0.86494 0.0
C114 C 0.14314 0.5759 0.81948 0.0
H115 H 0.16044 0.58066 0.80664 0.0
H116 H 0.11985 0.6066 0.80731 0.0
H117 H 0.97604 0.52553 0.4451 0.0
C118 C 0.00394 0.54771 0.45308 0.0
C119 C 0.03048 0.56436 0.43932 0.0
C120 C 0.01309 0.56047 0.47703 0.0
H121 H 0.08627 0.6087 0.43943 0.0
C122 C 0.06613 0.59407 0.44978 0.0
C123 C 0.07595 0.60693 0.47338 0.0
C124 C 0.04958 0.59004 0.48697 0.0
C125 C 0.98433 0.54476 0.49161 0.0
H126 H 0.05772 0.6001 0.50527 0.0
C127 C 0.95532 0.50668 0.48626 0.0
C128 C 0.92783 0.49298 0.49989 0.0
C129 C 0.98529 0.56853 0.51094 0.0
H130 H 0.00615 0.59808 0.5153 0.0
C131 C 0.95887 0.55482 0.52478 0.0
H132 H 0.95377 0.48784 0.47143 0.0
C133 C 0.93043 0.51743 0.51937 0.0
H134 H 0.91028 0.50763 0.53047 0.0
H135 H 0.96021 0.57342 0.53965 0.0
H136 H 0.56628 0.00075 0.77975 0.0
C137 C 0.57275 0.02874 0.78708 0.0
C138 C 0.57881 0.05385 0.77281 0.0
C139 C 0.572 0.03872 0.81028 0.0
H140 H 0.59121 0.10874 0.77051 0.0
C141 C 0.58555 0.0895 0.7818 0.0
C142 C 0.58247 0.09958 0.80431 0.0
C143 C 0.57687 0.07438 0.8187 0.0
C144 C 0.56182 0.01034 0.82485 0.0
H145 H 0.57495 0.08195 0.83621 0.0
C146 C 0.57327 0.98386 0.82238 0.0
C147 C 0.56162 0.95593 0.83541 0.0
C148 C 0.53866 0.00835 0.84065 0.0
H149 H 0.52822 0.02713 0.84261 0.0
C150 C 0.52734 0.98114 0.85363 0.0
H151 H 0.59144 0.98518 0.8105 0.0
C152 C 0.53845 0.95508 0.85099 0.0
H153 H 0.52798 0.9336 0.86085 0.0
H154 H 0.50918 0.97976 0.86552 0.0
H155 H 0.50146 0.59118 0.1132 0.0
C156 C 0.52027 0.5853 0.12256 0.0
C157 C 0.53759 0.56915 0.11063 0.0
C158 C 0.5296 0.59681 0.14649 0.0
H159 H 0.57584 0.54978 0.11385 0.0
C160 C 0.56245 0.56242 0.12291 0.0
C161 C 0.57279 0.5746 0.14657 0.0
C162 C 0.55649 0.59195 0.15836 0.0
C163 C 0.51364 0.61679 0.15881 0.0
H164 H 0.56499 0.60188 0.17667 0.0
C165 C 0.47536 0.60325 0.15395 0.0
C166 C 0.46071 0.62326 0.16496 0.0
C167 C 0.53693 0.65026 0.17509 0.0
H168 H 0.56653 0.66153 0.17899 0.0
C169 C 0.52238 0.67007 0.18608 0.0
H170 H 0.45704 0.57736 0.14154 0.0
C171 C 0.48452 0.65681 0.18099 0.0
H172 H 0.47372 0.67251 0.18976 0.0
H173 H 0.54054 0.6959 0.19851 0.0
H174 H 0.16462 0.61987 0.15195 0.0
H175 H 0.21829 0.61534 0.14618 0.0
H176 H 0.17649 0.51833 0.17614 0.0
H177 H 0.12266 0.52345 0.18276 0.0
H178 H 0.24753 0.56703 0.19342 0.0
H179 H 0.17677 0.5113 0.11784 0.0
H180 H 0.13809 0.50814 0.08362 0.0
H181 H 0.2291 0.61019 0.07322 0.0
H182 H 0.26819 0.61439 0.10758 0.0
H183 H 0.40357 0.55554 0.16848 0.0
H184 H 0.33761 0.53562 0.16477 0.0
H185 H 0.36195 0.63967 0.14673 0.0
H186 H 0.42786 0.6599 0.15086 0.0
H187 H 0.29435 0.57472 0.1206 0.0
H188 H 0.35892 0.63705 0.19794 0.0
H189 H 0.39754 0.64728 0.23428 0.0
H190 H 0.31785 0.53732 0.24219 0.0
H191 H 0.27908 0.52616 0.20561 0.0
C192 C 0.16647 0.59725 0.15716 0.0
C193 C 0.13929 0.57194 0.16783 0.0
C194 C 0.19715 0.59454 0.15365 0.0
C195 C 0.20107 0.56602 0.16028 0.0
C196 C 0.17381 0.54036 0.17071 0.0
C197 C 0.14309 0.54328 0.17445 0.0
C198 C 0.23512 0.56507 0.15771 0.0
C199 C 0.25722 0.56754 0.17734 0.0
C200 C 0.2482 0.56678 0.13682 0.0
C201 C 0.22541 0.56322 0.11539 0.0
C202 C 0.18856 0.53309 0.10827 0.0
C203 C 0.16654 0.53115 0.08886 0.0
C204 C 0.18112 0.55903 0.07633 0.0
C205 C 0.21787 0.58865 0.08298 0.0
C206 C 0.24 0.59078 0.10239 0.0
C207 C 0.3946 0.57377 0.16334 0.0
C208 C 0.42058 0.60928 0.16007 0.0
C209 C 0.35708 0.56243 0.16125 0.0
C210 C 0.34505 0.58625 0.15552 0.0
C211 C 0.37072 0.62086 0.15106 0.0
C212 C 0.40827 0.63247 0.15356 0.0
C213 C 0.3066 0.57695 0.15634 0.0
C214 C 0.28393 0.57286 0.13645 0.0
C215 C 0.293 0.57404 0.177 0.0
C216 C 0.31645 0.58051 0.19884 0.0
C217 C 0.34989 0.61485 0.20726 0.0
C218 C 0.37175 0.62086 0.22793 0.0
C219 C 0.36024 0.5929 0.24049 0.0
C220 C 0.3268 0.55889 0.2324 0.0
C221 C 0.30489 0.55269 0.21169 0.0
H222 H 0.37716 0.59764 0.25652 0.0
H223 H 0.16394 0.5578 0.06152 0.0
H224 H 0.65573 0.1479 0.48634 0.0
H225 H 0.71376 0.19839 0.47828 0.0
H226 H 0.68161 0.27807 0.50058 0.0
H227 H 0.62455 0.22843 0.5089 0.0
H228 H 0.7092 0.28675 0.46054 0.0
H229 H 0.74031 0.27082 0.53611 0.0
H230 H 0.74586 0.23447 0.56313 0.0
H231 H 0.818 0.21453 0.52542 0.0
H232 H 0.81247 0.2504 0.498 0.0
H233 H 0.85538 0.46959 0.50078 0.0
H234 H 0.80299 0.40586 0.49457 0.0
H235 H 0.87388 0.36312 0.4786 0.0
H236 H 0.92728 0.4276 0.48564 0.0
H237 H 0.8303 0.32668 0.50741 0.0
H238 H 0.80853 0.35541 0.4364 0.0
H239 H 0.80244 0.39283 0.41039 0.0
H240 H 0.71188 0.38895 0.43951 0.0
H241 H 0.71774 0.35197 0.46592 0.0
C242 C 0.66123 0.17625 0.48948 0.0
C243 C 0.63611 0.18448 0.49868 0.0
C244 C 0.69426 0.20497 0.48491 0.0
C245 C 0.70208 0.24203 0.48907 0.0
C246 C 0.67625 0.24977 0.49742 0.0
C247 C 0.64382 0.22143 0.50235 0.0
C248 C 0.73745 0.27354 0.48558 0.0
C249 C 0.73575 0.29546 0.47069 0.0
C250 C 0.77218 0.28424 0.49836 0.0
C251 C 0.77558 0.26282 0.51485 0.0
C252 C 0.75708 0.25839 0.53347 0.0
C253 C 0.76028 0.23794 0.54888 0.0
C254 C 0.78216 0.22208 0.54594 0.0
C255 C 0.80099 0.22675 0.52764 0.0
C256 C 0.79784 0.24713 0.51217 0.0
C257 C 0.85996 0.44671 0.49594 0.0
C258 C 0.89562 0.45374 0.49387 0.0
C259 C 0.82981 0.41017 0.49213 0.0
C260 C 0.83426 0.37954 0.48578 0.0
C261 C 0.86971 0.3863 0.48334 0.0
C262 C 0.90012 0.42312 0.4872 0.0
C263 C 0.8019 0.34083 0.48294 0.0
C264 C 0.80408 0.31753 0.49667 0.0
C265 C 0.76746 0.32887 0.46913 0.0
C266 C 0.7637 0.35101 0.4532 0.0
C267 C 0.78746 0.36272 0.43735 0.0
C268 C 0.78403 0.38384 0.42252 0.0
C269 C 0.75682 0.39329 0.42331 0.0
C270 C 0.73293 0.38159 0.4389 0.0
C271 C 0.73626 0.36049 0.45378 0.0
H272 H 0.75422 0.40965 0.41182 0.0
H273 H 0.78461 0.20627 0.55789 0.0
H274 H 0.58108 0.65711 0.7827 0.0
H275 H 0.58966 0.71966 0.78602 0.0
H276 H 0.56401 0.71757 0.8536 0.0
H277 H 0.55488 0.65502 0.85018 0.0
H278 H 0.52357 0.73658 0.82811 0.0
H279 H 0.65108 0.77455 0.84608 0.0
H280 H 0.70875 0.77585 0.84071 0.0
H281 H 0.70742 0.81468 0.77889 0.0
H282 H 0.64939 0.8131 0.78371 0.0
H283 H 0.57804 0.92514 0.86838 0.0
H284 H 0.58403 0.87018 0.8631 0.0
H285 H 0.57621 0.86534 0.79096 0.0
H286 H 0.56828 0.91952 0.79585 0.0
H287 H 0.63449 0.85082 0.81691 0.0
H288 H 0.50429 0.81053 0.79977 0.0
H289 H 0.44817 0.81081 0.80747 0.0
H290 H 0.4567 0.77706 0.87042 0.0
H291 H 0.51332 0.77724 0.86327 0.0
C292 C 0.57743 0.67014 0.79826 0.0
C293 C 0.56682 0.65094 0.81602 0.0
C294 C 0.58265 0.70601 0.80024 0.0
C295 C 0.57739 0.72339 0.82005 0.0
C296 C 0.56808 0.70473 0.83811 0.0
C297 C 0.5631 0.66904 0.83618 0.0
C298 C 0.57928 0.75989 0.82152 0.0
C299 C 0.54802 0.76156 0.82585 0.0
C300 C 0.61085 0.79248 0.81817 0.0
C301 C 0.64563 0.79328 0.81512 0.0
C302 C 0.66286 0.783 0.83121 0.0
C303 C 0.69567 0.78387 0.82829 0.0
C304 C 0.71168 0.79522 0.80943 0.0
C305 C 0.69495 0.80582 0.79347 0.0
C306 C 0.66211 0.80497 0.79629 0.0
C307 C 0.57755 0.91255 0.85132 0.0
C308 C 0.57183 0.92652 0.83248 0.0
C309 C 0.58137 0.88127 0.8484 0.0
C310 C 0.58031 0.86352 0.82664 0.0
C311 C 0.57721 0.87872 0.80793 0.0
C312 C 0.57279 0.90982 0.81078 0.0
C313 C 0.57884 0.82718 0.82348 0.0
C314 C 0.61007 0.82562 0.81894 0.0
C315 C 0.54737 0.79463 0.8268 0.0
C316 C 0.51328 0.79436 0.83112 0.0
C317 C 0.49444 0.80358 0.81537 0.0
C318 C 0.46249 0.80357 0.81961 0.0
C319 C 0.44894 0.79408 0.83946 0.0
C320 C 0.46727 0.78448 0.85508 0.0
C321 C 0.49928 0.78452 0.85094 0.0
H322 H 0.42418 0.79405 0.8427 0.0
H323 H 0.7371 0.79591 0.80721 0.0
H324 H 0.89567 0.61092 0.16774 0.0
H325 H 0.84416 0.62172 0.16994 0.0
H326 H 0.7662 0.50459 0.14083 0.0
H327 H 0.81747 0.49437 0.13731 0.0
H328 H 0.74383 0.54288 0.12327 0.0
H329 H 0.79099 0.54851 0.20151 0.0
H330 H 0.84063 0.57483 0.23533 0.0
H331 H 0.8548 0.68343 0.23815 0.0
H332 H 0.80553 0.65781 0.2042 0.0
H333 H 0.57775 0.51334 0.14818 0.0
H334 H 0.6354 0.51295 0.15458 0.0
H335 H 0.69782 0.63354 0.17409 0.0
H336 H 0.63992 0.63388 0.16817 0.0
H337 H 0.73113 0.60079 0.19691 0.0
H338 H 0.68879 0.59903 0.11992 0.0
H339 H 0.64236 0.57724 0.085 0.0
H340 H 0.62081 0.46551 0.07971 0.0
H341 H 0.66789 0.48689 0.1144 0.0
C342 C 0.86749 0.58761 0.16172 0.0
C343 C 0.86046 0.55173 0.15251 0.0
C344 C 0.83807 0.59372 0.16313 0.0
C345 C 0.80116 0.56378 0.15605 0.0
C346 C 0.79434 0.52814 0.14647 0.0
C347 C 0.82367 0.52228 0.14453 0.0
C348 C 0.7693 0.56893 0.15855 0.0
C349 C 0.741 0.55512 0.13948 0.0
C350 C 0.76603 0.58626 0.17945 0.0
C351 C 0.79477 0.6013 0.20026 0.0
C352 C 0.80475 0.57801 0.20934 0.0
C353 C 0.83283 0.59281 0.22851 0.0
C354 C 0.8509 0.63079 0.23886 0.0
C355 C 0.8408 0.65402 0.23012 0.0
C356 C 0.81277 0.63937 0.21093 0.0
C357 C 0.60365 0.53958 0.15483 0.0
C358 C 0.6046 0.57362 0.15771 0.0
C359 C 0.63655 0.53941 0.15829 0.0
C360 C 0.67086 0.57328 0.16428 0.0
C361 C 0.67161 0.60714 0.16941 0.0
C362 C 0.63857 0.6073 0.16615 0.0
C363 C 0.7054 0.57329 0.16192 0.0
C364 C 0.73415 0.58841 0.18082 0.0
C365 C 0.70941 0.55748 0.14085 0.0
C366 C 0.68158 0.54448 0.11981 0.0
C367 C 0.67407 0.5698 0.11133 0.0
C368 C 0.64766 0.55754 0.0916 0.0
C369 C 0.6283 0.51995 0.08031 0.0
C370 C 0.63574 0.49461 0.08853 0.0
C371 C 0.66247 0.50682 0.10815 0.0
H372 H 0.60769 0.51057 0.06514 0.0
H373 H 0.87269 0.64221 0.25366 0.0
H374 H 0.39615 0.84362 0.4607 0.0
H375 H 0.33373 0.79605 0.46345 0.0
H376 H 0.31857 0.88088 0.50102 0.0
H377 H 0.38187 0.92892 0.49884 0.0
H378 H 0.29237 0.82218 0.52027 0.0
H379 H 0.27401 0.83887 0.44564 0.0
H380 H 0.28569 0.84614 0.40686 0.0
H381 H 0.26841 0.73559 0.39116 0.0
H382 H 0.2571 0.72782 0.42996 0.0
H383 H 0.09416 0.67495 0.49842 0.0
H384 H 0.15457 0.73351 0.50434 0.0
H385 H 0.20179 0.6715 0.47447 0.0
H386 H 0.14173 0.61338 0.46846 0.0
H387 H 0.20657 0.72608 0.45186 0.0
H388 H 0.22895 0.71445 0.53017 0.0
H389 H 0.21452 0.71016 0.56874 0.0
H390 H 0.2193 0.81521 0.57654 0.0
H391 H 0.23331 0.81989 0.53789 0.0
C392 C 0.37954 0.85234 0.4694 0.0
C393 C 0.39399 0.89012 0.47947 0.0
C394 C 0.34371 0.82505 0.4709 0.0
C395 C 0.32117 0.83488 0.48217 0.0
C396 C 0.3354 0.87263 0.4922 0.0
C397 C 0.3715 0.90005 0.49084 0.0
C398 C 0.28319 0.80523 0.48373 0.0
C399 C 0.27331 0.80152 0.50526 0.0
C400 C 0.25811 0.77839 0.46418 0.0
C401 C 0.26494 0.78287 0.44079 0.0
C402 C 0.27296 0.81621 0.43398 0.0
C403 C 0.27947 0.8204 0.41198 0.0
C404 C 0.27785 0.79137 0.39656 0.0
C405 C 0.26966 0.75806 0.40312 0.0
C406 C 0.26314 0.75372 0.4251 0.0
C407 C 0.11787 0.67382 0.49397 0.0
C408 C 0.11345 0.63982 0.48295 0.0
C409 C 0.15227 0.70723 0.49724 0.0
C410 C 0.18254 0.70685 0.48963 0.0
C411 C 0.17873 0.67244 0.48033 0.0
C412 C 0.14453 0.63925 0.47702 0.0
C413 C 0.21667 0.74199 0.48844 0.0
C414 C 0.22555 0.74692 0.46685 0.0
C415 C 0.24021 0.77023 0.50786 0.0
C416 C 0.23173 0.76729 0.53104 0.0
C417 C 0.22656 0.73645 0.54002 0.0
C418 C 0.21855 0.734 0.56192 0.0
C419 C 0.21587 0.76233 0.57505 0.0
C420 C 0.22131 0.79325 0.56633 0.0
C421 C 0.22932 0.79582 0.54445 0.0
H422 H 0.20967 0.76038 0.592 0.0
H423 H 0.2829 0.79467 0.37953 0.0
H424 H 0.56851 0.39777 0.8072 0.0
H425 H 0.56464 0.33716 0.80186 0.0
H426 H 0.5903 0.35161 0.87465 0.0
H427 H 0.5947 0.41211 0.88006 0.0
H428 H 0.63215 0.33041 0.85393 0.0
H429 H 0.50127 0.28894 0.84314 0.0
H430 H 0.44478 0.28546 0.82501 0.0
H431 H 0.45601 0.24028 0.75981 0.0
H432 H 0.51279 0.2439 0.77751 0.0
H433 H 0.60652 0.14785 0.84694 0.0
H434 H 0.60381 0.2046 0.85719 0.0
H435 H 0.55577 0.18866 0.78749 0.0
H436 H 0.55402 0.1305 0.77796 0.0
H437 H 0.52363 0.21078 0.80991 0.0
H438 H 0.65515 0.25704 0.8168 0.0
H439 H 0.71517 0.26451 0.83176 0.0
H440 H 0.7073 0.30363 0.89955 0.0
H441 H 0.64709 0.2961 0.885 0.0
C442 C 0.57273 0.38773 0.82206 0.0
C443 C 0.58188 0.40982 0.84405 0.0
C444 C 0.57055 0.35307 0.819 0.0
C445 C 0.57706 0.33965 0.83788 0.0
C446 C 0.58532 0.36133 0.85982 0.0
C447 C 0.58766 0.39592 0.86287 0.0
C448 C 0.57658 0.30371 0.8349 0.0
C449 C 0.60826 0.3041 0.84451 0.0
C450 C 0.54584 0.26954 0.82218 0.0
C451 C 0.51141 0.26693 0.81164 0.0
C452 C 0.49179 0.27844 0.82492 0.0
C453 C 0.45971 0.27642 0.81472 0.0
C454 C 0.44686 0.26272 0.79127 0.0
C455 C 0.466 0.2509 0.77797 0.0
C456 C 0.49809 0.25288 0.78808 0.0
C457 C 0.59491 0.15615 0.83388 0.0
C458 C 0.58146 0.13463 0.81141 0.0
C459 C 0.59394 0.18912 0.83969 0.0
C460 C 0.58042 0.20187 0.82304 0.0
C461 C 0.56654 0.18 0.80079 0.0
C462 C 0.56637 0.14676 0.7952 0.0
C463 C 0.5798 0.23735 0.8283 0.0
C464 C 0.5477 0.23694 0.81931 0.0
C465 C 0.6106 0.2717 0.84105 0.0
C466 C 0.64643 0.27556 0.84985 0.0
C467 C 0.66608 0.26693 0.83492 0.0
C468 C 0.70017 0.27125 0.84332 0.0
C469 C 0.71498 0.28442 0.8666 0.0
C470 C 0.69576 0.29335 0.88153 0.0
C471 C 0.66168 0.28908 0.87322 0.0
H472 H 0.74139 0.28781 0.87306 0.0
H473 H 0.42204 0.26121 0.7834 0.0
H474 H 0.50507 0.89436 0.54451 0.0
H475 H 0.52021 0.84563 0.54475 0.0
H476 H 0.58094 0.8797 0.49027 0.0
H477 H 0.56556 0.92808 0.48967 0.0
H478 H 0.52939 0.80517 0.48112 0.0
H479 H 0.62681 0.89664 0.5435 0.0
H480 H 0.65 0.94207 0.58023 0.0
H481 H 0.58131 0.85437 0.61304 0.0
H482 H 0.55741 0.80847 0.57644 0.0
H483 H 0.5813 0.67226 0.47449 0.0
H484 H 0.59021 0.73502 0.48124 0.0
H485 H 0.53748 0.71359 0.53998 0.0
H486 H 0.52992 0.65148 0.53375 0.0
H487 H 0.59002 0.78504 0.54726 0.0
H488 H 0.48747 0.6961 0.48768 0.0
H489 H 0.45658 0.64839 0.45184 0.0
H490 H 0.52616 0.72833 0.41481 0.0
H491 H 0.55786 0.7764 0.45053 0.0
C492 C 0.52213 0.89185 0.53284 0.0
C493 C 0.53393 0.91482 0.51698 0.0
C494 C 0.53086 0.86412 0.53305 0.0
C495 C 0.55182 0.85932 0.51759 0.0
C496 C 0.56473 0.88308 0.50231 0.0
C497 C 0.55593 0.91068 0.50203 0.0
C498 C 0.55774 0.82761 0.51606 0.0
C499 C 0.54338 0.80116 0.49541 0.0
C500 C 0.57471 0.82187 0.53502 0.0
C501 C 0.59022 0.84915 0.55721 0.0
C502 C 0.61661 0.88705 0.55854 0.0
C503 C 0.62987 0.91289 0.57933 0.0
C504 C 0.6171 0.90112 0.59895 0.0
C505 C 0.5912 0.86344 0.59783 0.0
C506 C 0.57786 0.83748 0.57708 0.0
C507 C 0.57235 0.6814 0.48907 0.0
C508 C 0.55461 0.65722 0.50349 0.0
C509 C 0.5774 0.71709 0.49292 0.0
C510 C 0.56376 0.72854 0.51082 0.0
C511 C 0.54816 0.70525 0.52607 0.0
C512 C 0.54374 0.66982 0.52247 0.0
C513 C 0.56201 0.76279 0.5122 0.0
C514 C 0.57674 0.78947 0.53283 0.0
C515 C 0.54458 0.76844 0.49335 0.0
C516 C 0.52532 0.73971 0.47181 0.0
C517 C 0.49635 0.70342 0.47192 0.0
C518 C 0.47868 0.67633 0.45163 0.0
C519 C 0.48948 0.68529 0.43107 0.0
C520 C 0.51788 0.72141 0.43076 0.0
C521 C 0.53571 0.7486 0.45102 0.0
H522 H 0.47576 0.66428 0.41537 0.0
H523 H 0.62727 0.92119 0.61501 0.0
H524 H 0.72944 0.56723 0.85931 0.0
H525 H 0.78867 0.56975 0.8618 0.0
H526 H 0.7465 0.48691 0.79895 0.0
H527 H 0.68732 0.48438 0.7962 0.0
H528 H 0.77772 0.46965 0.83427 0.0
H529 H 0.80991 0.57061 0.79742 0.0
H530 H 0.81545 0.62908 0.79038 0.0
H531 H 0.88675 0.68898 0.8555 0.0
H532 H 0.88118 0.63073 0.86312 0.0
H533 H 0.96018 0.49366 0.83964 0.0
H534 H 0.90076 0.48777 0.82593 0.0
H535 H 0.92134 0.57243 0.88404 0.0
H536 H 0.98068 0.57887 0.89756 0.0
H537 H 0.90058 0.58567 0.84375 0.0
H538 H 0.86135 0.482 0.88186 0.0
H539 H 0.85371 0.42268 0.88884 0.0
H540 H 0.79446 0.36715 0.82035 0.0
H541 H 0.80229 0.42635 0.81284 0.0
C542 C 0.73293 0.54987 0.8459 0.0
C543 C 0.70377 0.52557 0.82761 0.0
C544 C 0.76677 0.55144 0.84729 0.0
C545 C 0.77185 0.5286 0.83049 0.0
C546 C 0.74302 0.50476 0.81203 0.0
C547 C 0.70933 0.50347 0.81049 0.0
C548 C 0.80655 0.52808 0.83312 0.0
C549 C 0.80463 0.49479 0.83586 0.0
C550 C 0.84144 0.56101 0.83536 0.0
C551 C 0.84486 0.59619 0.83092 0.0
C552 C 0.8265 0.59617 0.81034 0.0
C553 C 0.8297 0.62929 0.80623 0.0
C554 C 0.85137 0.66271 0.8225 0.0
C555 C 0.86995 0.66307 0.84292 0.0
C556 C 0.86681 0.63 0.84713 0.0
C557 C 0.95186 0.51087 0.84947 0.0
C558 C 0.9749 0.53662 0.86969 0.0
C559 C 0.91795 0.50738 0.8417 0.0
C560 C 0.90678 0.52968 0.85401 0.0
C561 C 0.92957 0.55504 0.8743 0.0
C562 C 0.96325 0.55841 0.88211 0.0
C563 C 0.87179 0.52757 0.84572 0.0
C564 C 0.87367 0.56038 0.84179 0.0
C565 C 0.83687 0.49413 0.84231 0.0
C566 C 0.83291 0.45875 0.84668 0.0
C567 C 0.84713 0.45727 0.86819 0.0
C568 C 0.84266 0.42364 0.87227 0.0
C569 C 0.82373 0.3912 0.85503 0.0
C570 C 0.80922 0.39233 0.83367 0.0
C571 C 0.81368 0.42592 0.82949 0.0
H572 H 0.82019 0.36515 0.85824 0.0
H573 H 0.85383 0.68833 0.81928 0.0
H574 H 0.17002 0.69529 0.12672 0.0
H575 H 0.22682 0.75573 0.13074 0.0
H576 H 0.18648 0.80748 0.17787 0.0
H577 H 0.12961 0.74665 0.1745 0.0
H578 H 0.22746 0.8476 0.13954 0.0
H579 H 0.23627 0.79299 0.2045 0.0
H580 H 0.23114 0.74126 0.22151 0.0
H581 H 0.30842 0.73408 0.18256 0.0
H582 H 0.31363 0.78555 0.16512 0.0
H583 H 0.38069 0.0102 0.20953 0.0
H584 H 0.32337 0.94982 0.19405 0.0
H585 H 0.38608 0.90716 0.16233 0.0
H586 H 0.44361 0.96819 0.17752 0.0
H587 H 0.33571 0.86014 0.18809 0.0
H588 H 0.33615 0.92143 0.12841 0.0
H589 H 0.34203 0.97242 0.11037 0.0
H590 H 0.24864 0.96623 0.13685 0.0
H591 H 0.24254 0.91555 0.15538 0.0
C592 C 0.17276 0.71958 0.13761 0.0
C593 C 0.1455 0.71619 0.1505 0.0
C594 C 0.20526 0.75403 0.13987 0.0
C595 C 0.21067 0.78569 0.15468 0.0
C596 C 0.18252 0.78311 0.16635 0.0
C597 C 0.15018 0.74844 0.16442 0.0
C598 C 0.24709 0.82056 0.15956 0.0
C599 C 0.25112 0.85063 0.1503 0.0
C600 C 0.27802 0.82361 0.17287 0.0
C601 C 0.27492 0.7927 0.18329 0.0
C602 C 0.25184 0.78009 0.19938 0.0
C603 C 0.24901 0.75091 0.20915 0.0
C604 C 0.26933 0.73429 0.20305 0.0
C605 C 0.29263 0.74692 0.18723 0.0
C606 C 0.29555 0.77611 0.17741 0.0
C607 C 0.38203 0.98787 0.19918 0.0
C608 C 0.41609 0.99331 0.19464 0.0
C609 C 0.34947 0.95364 0.19028 0.0
C610 C 0.35063 0.92433 0.17693 0.0
C611 C 0.38478 0.92964 0.17252 0.0
C612 C 0.4174 0.96423 0.18114 0.0
C613 C 0.31605 0.88779 0.16855 0.0
C614 C 0.31228 0.85719 0.17711 0.0
C615 C 0.28549 0.88424 0.15444 0.0
C616 C 0.28911 0.9149 0.14347 0.0
C617 C 0.31709 0.93119 0.13059 0.0
C618 C 0.32041 0.95999 0.12023 0.0
C619 C 0.29578 0.97262 0.1225 0.0
C620 C 0.26773 0.95643 0.13512 0.0
C621 C 0.2643 0.92764 0.14555 0.0
H622 H 0.29837 0.9949 0.11445 0.0
H623 H 0.26711 0.7117 0.21063 0.0
H624 H 0.57162 0.19961 0.46596 0.0
H625 H 0.58055 0.26204 0.47048 0.0
H626 H 0.48185 0.22494 0.49996 0.0
H627 H 0.47272 0.16197 0.49536 0.0
H628 H 0.48965 0.27144 0.46801 0.0
H629 H 0.5583 0.26714 0.53411 0.0
H630 H 0.60356 0.25716 0.55565 0.0
H631 H 0.69136 0.33991 0.52851 0.0
H632 H 0.64645 0.34978 0.50636 0.0
H633 H 0.51341 0.42949 0.54123 0.0
H634 H 0.50846 0.37011 0.52578 0.0
H635 H 0.60296 0.42783 0.49379 0.0
H636 H 0.60756 0.48767 0.50893 0.0
H637 H 0.60182 0.37394 0.52203 0.0
H638 H 0.53253 0.38294 0.45928 0.0
H639 H 0.48656 0.39458 0.4403 0.0
H640 H 0.39935 0.30406 0.46313 0.0
H641 H 0.44491 0.29227 0.48259 0.0
C642 C 0.55115 0.20445 0.47269 0.0
C643 C 0.52109 0.17602 0.4799 0.0
C644 C 0.55655 0.24015 0.47552 0.0
C645 C 0.53189 0.24785 0.48558 0.0
C646 C 0.50102 0.21921 0.49207 0.0
C647 C 0.49586 0.18348 0.48949 0.0
C648 C 0.53956 0.28636 0.49053 0.0
C649 C 0.51406 0.29387 0.47987 0.0
C650 C 0.57201 0.31556 0.50556 0.0
C651 C 0.5989 0.30881 0.51831 0.0
C652 C 0.58716 0.28281 0.53245 0.0
C653 C 0.61279 0.2773 0.54486 0.0
C654 C 0.65032 0.29789 0.54345 0.0
C655 C 0.66228 0.324 0.52959 0.0
C656 C 0.63674 0.32949 0.51706 0.0
C657 C 0.53325 0.42947 0.53102 0.0
C658 C 0.56102 0.46282 0.52631 0.0
C659 C 0.53023 0.39568 0.52211 0.0
C660 C 0.55516 0.39488 0.50857 0.0
C661 C 0.58344 0.4282 0.50415 0.0
C662 C 0.58606 0.4621 0.51276 0.0
C663 C 0.55171 0.35888 0.49973 0.0
C664 C 0.57788 0.35171 0.50975 0.0
C665 C 0.51982 0.32999 0.48424 0.0
C666 C 0.49223 0.33693 0.47257 0.0
C667 C 0.50361 0.36575 0.46045 0.0
C668 C 0.47761 0.37233 0.44956 0.0
C669 C 0.44007 0.35013 0.45055 0.0
C670 C 0.42845 0.32126 0.4624 0.0
C671 C 0.45435 0.31459 0.47334 0.0
H672 H 0.41997 0.35524 0.44209 0.0
H673 H 0.67012 0.29356 0.55305 0.0
H674 H 0.40884 0.49456 0.80517 0.0
H675 H 0.34584 0.48326 0.80256 0.0
H676 H 0.37387 0.54502 0.8718 0.0
H677 H 0.43669 0.55638 0.8746 0.0
H678 H 0.30229 0.48099 0.86115 0.0
H679 H 0.38048 0.58942 0.83081 0.0
H680 H 0.42268 0.62162 0.8052 0.0
H681 H 0.33886 0.54586 0.74703 0.0
H682 H 0.29633 0.51288 0.77234 0.0
H683 H 0.19237 0.56236 0.87172 0.0
H684 H 0.23874 0.54414 0.87065 0.0
H685 H 0.19898 0.4974 0.79853 0.0
H686 H 0.153 0.51633 0.79949 0.0
H687 H 0.27051 0.54252 0.80653 0.0
H688 H 0.18797 0.44108 0.83788 0.0
H689 H 0.14658 0.40989 0.86409 0.0
H690 H 0.23765 0.472 0.92059 0.0
H691 H 0.2795 0.50396 0.89479 0.0
C692 C 0.40141 0.50529 0.81993 0.0
C693 C 0.42778 0.52676 0.84 0.0
C694 C 0.36546 0.49878 0.81841 0.0
C695 C 0.35543 0.51355 0.83695 0.0
C696 C 0.38113 0.53334 0.85735 0.0
C697 C 0.41708 0.54005 0.85884 0.0
C698 C 0.31946 0.51159 0.83458 0.0
C699 C 0.29517 0.4944 0.84925 0.0
C700 C 0.31005 0.52838 0.81866 0.0
C701 C 0.33542 0.54843 0.80344 0.0
C702 C 0.37117 0.57946 0.81256 0.0
C703 C 0.39512 0.59788 0.7981 0.0
C704 C 0.3835 0.58571 0.7745 0.0
C705 C 0.34785 0.55519 0.76531 0.0
C706 C 0.3238 0.53664 0.7797 0.0
C707 C 0.19307 0.54752 0.85575 0.0
C708 C 0.16935 0.54094 0.83567 0.0
C709 C 0.21945 0.53695 0.85516 0.0
C710 C 0.22212 0.51906 0.83453 0.0
C711 C 0.19742 0.51117 0.81461 0.0
C712 C 0.17129 0.52208 0.81516 0.0
C713 C 0.25317 0.51235 0.83339 0.0
C714 C 0.27683 0.52816 0.81809 0.0
C715 C 0.26192 0.49432 0.84878 0.0
C716 C 0.23684 0.4751 0.86439 0.0
C717 C 0.19913 0.4483 0.85592 0.0
C718 C 0.17559 0.43044 0.8707 0.0
C719 C 0.18946 0.439 0.89399 0.0
C720 C 0.22693 0.46539 0.90255 0.0
C721 C 0.2506 0.48334 0.88784 0.0
H722 H 0.17119 0.42515 0.90541 0.0
H723 H 0.40209 0.59999 0.76333 0.0
H724 H 0.87971 0.42591 0.14579 0.0
H725 H 0.82522 0.36362 0.1422 0.0
H726 H 0.82013 0.39164 0.21282 0.0
H727 H 0.87432 0.45437 0.21652 0.0
H728 H 0.80468 0.31457 0.19549 0.0
H729 H 0.76836 0.403 0.18041 0.0
H730 H 0.76786 0.45074 0.16146 0.0
H731 H 0.73349 0.37586 0.09629 0.0
H732 H 0.734 0.3277 0.11491 0.0
H733 H 0.61621 0.20634 0.20605 0.0
H734 H 0.68133 0.25152 0.20637 0.0
H735 H 0.66123 0.22318 0.13292 0.0
H736 H 0.59599 0.17791 0.13251 0.0
H737 H 0.69238 0.29595 0.14825 0.0
H738 H 0.71758 0.20316 0.16416 0.0
H739 H 0.71538 0.15461 0.18341 0.0
H740 H 0.76969 0.23573 0.24658 0.0
H741 H 0.77176 0.28469 0.22779 0.0
C742 C 0.8675 0.41858 0.1607 0.0
C743 C 0.88102 0.44506 0.18141 0.0
C744 C 0.8364 0.38304 0.15859 0.0
C745 C 0.81876 0.37333 0.17722 0.0
C746 C 0.83358 0.39877 0.1983 0.0
C747 C 0.86436 0.43456 0.20035 0.0
C748 C 0.78271 0.33828 0.17411 0.0
C749 C 0.77998 0.31036 0.18527 0.0
C750 C 0.75095 0.33272 0.16028 0.0
C751 C 0.75175 0.362 0.14901 0.0
C752 C 0.76118 0.39691 0.16202 0.0
C753 C 0.76073 0.42398 0.15135 0.0
C754 C 0.75078 0.41639 0.12767 0.0
C755 C 0.74127 0.38172 0.11462 0.0
C756 C 0.74159 0.35452 0.12522 0.0
C757 C 0.62588 0.2091 0.19 0.0
C758 C 0.60101 0.18891 0.16925 0.0
C759 C 0.66311 0.23482 0.1902 0.0
C760 C 0.67614 0.24053 0.16966 0.0
C761 C 0.6517 0.21919 0.14895 0.0
C762 C 0.61445 0.19355 0.14874 0.0
C763 C 0.71387 0.2719 0.1698 0.0
C764 C 0.71702 0.29947 0.15813 0.0
C765 C 0.74588 0.27694 0.18314 0.0
C766 C 0.74456 0.24756 0.19458 0.0
C767 C 0.72876 0.2106 0.1822 0.0
C768 C 0.7276 0.18301 0.19302 0.0
C769 C 0.74231 0.19206 0.21621 0.0
C770 C 0.75828 0.22875 0.22862 0.0
C771 C 0.7595 0.25645 0.21788 0.0
H772 H 0.7414 0.17067 0.22456 0.0
H773 H 0.75031 0.43732 0.11942 0.0
H774 H 0.04089 0.6307 0.11566 0.0
H775 H 0.06355 0.63372 0.07945 0.0
H776 H 0.02691 0.51636 0.06863 0.0
H777 H 0.0041 0.51338 0.1048 0.0
H778 H 0.0961 0.55999 0.05527 0.0
H779 H 0.97264 0.53706 0.04443 0.0
H780 H 0.92216 0.54803 0.05177 0.0
H781 H 0.98157 0.65582 0.03485 0.0
H782 H 0.03282 0.64577 0.02782 0.0
H783 H 0.05699 0.50653 0.933 0.0
H784 H 0.06149 0.51487 0.97447 0.0
H785 H 0.0948 0.63073 0.97972 0.0
H786 H 0.09024 0.62224 0.93828 0.0
H787 H 0.03246 0.59148 0.99714 0.0
H788 H 0.15566 0.61091 0.00627 0.0
H789 H 0.20318 0.59578 0.99779 0.0
H790 H 0.13953 0.48903 0.01533 0.0
H791 H 0.09153 0.50349 0.02381 0.0
C792 C 0.03845 0.60584 0.1057 0.0
C793 C 0.02115 0.57191 0.11287 0.0
C794 C 0.05126 0.60753 0.08508 0.0
C795 C 0.04684 0.57523 0.07139 0.0
C796 C 0.03078 0.54161 0.07903 0.0
C797 C 0.01759 0.53986 0.09953 0.0
C798 C 0.05561 0.57565 0.04819 0.0
C799 C 0.08214 0.56674 0.04251 0.0
C800 C 0.03749 0.58463 0.03161 0.0
C801 C 0.00683 0.5909 0.03593 0.0
C802 C 0.97517 0.5633 0.04254 0.0
C803 C 0.94637 0.56931 0.0466 0.0
C804 C 0.94872 0.60267 0.04387 0.0
C805 C 0.97985 0.63005 0.03703 0.0
C806 C 0.0088 0.62422 0.03302 0.0
C807 C 0.06676 0.53407 0.94321 0.0
C808 C 0.0738 0.56392 0.93273 0.0
C809 C 0.06927 0.53884 0.96683 0.0
C810 C 0.07858 0.57347 0.98018 0.0
C811 C 0.08775 0.60386 0.96975 0.0
C812 C 0.08541 0.59912 0.94617 0.0
C813 C 0.07341 0.57643 0.0042 0.0
C814 C 0.04707 0.58551 0.00999 0.0
C815 C 0.09129 0.56706 0.02067 0.0
C816 C 0.11999 0.55822 0.01558 0.0
C817 C 0.15173 0.58414 0.0082 0.0
C818 C 0.17877 0.57571 0.00344 0.0
C819 C 0.17436 0.54145 0.006 0.0
C820 C 0.14289 0.51554 0.01333 0.0
C821 C 0.1158 0.52386 0.01817 0.0
H822 H 0.19533 0.53499 0.00231 0.0
H823 H 0.92636 0.60724 0.04698 0.0
H824 H 0.56695 0.04281 0.43882 0.0
H825 H 0.57349 0.06194 0.40209 0.0
H826 H 0.4784 0.07398 0.40371 0.0
H827 H 0.47197 0.05529 0.44054 0.0
H828 H 0.48461 0.01866 0.36252 0.0
H829 H 0.53566 0.15828 0.39729 0.0
H830 H 0.57802 0.21319 0.42817 0.0
H831 H 0.66558 0.19108 0.42066 0.0
H832 H 0.62387 0.13669 0.38916 0.0
H833 H 0.45216 0.07835 0.26786 0.0
H834 H 0.46573 0.08232 0.30867 0.0
H835 H 0.57521 0.10373 0.3029 0.0
H836 H 0.56164 0.09997 0.26174 0.0
H837 H 0.56842 0.1434 0.3464 0.0
H838 H 0.51841 0.02065 0.29918 0.0
H839 H 0.4746 0.96781 0.26765 0.0
H840 H 0.3835 0.95294 0.30041 0.0
H841 H 0.42675 0.0062 0.33195 0.0
C842 C 0.54795 0.05028 0.43152 0.0
C843 C 0.51922 0.04802 0.44255 0.0
C844 C 0.55175 0.06123 0.41063 0.0
C845 C 0.52654 0.0695 0.40037 0.0
C846 C 0.49829 0.06801 0.41155 0.0
C847 C 0.49471 0.05744 0.43254 0.0
C848 C 0.52731 0.07593 0.37697 0.0
C849 C 0.50287 0.04588 0.35895 0.0
C850 C 0.55165 0.11116 0.37239 0.0
C851 C 0.57682 0.14366 0.39103 0.0
C852 C 0.564 0.16528 0.40224 0.0
C853 C 0.58785 0.19624 0.41982 0.0
C854 C 0.62438 0.2054 0.42656 0.0
C855 C 0.63726 0.18388 0.41548 0.0
C856 C 0.61361 0.15314 0.39767 0.0
C857 C 0.4795 0.08501 0.27544 0.0
C858 C 0.5058 0.08856 0.26178 0.0
C859 C 0.48723 0.08729 0.2987 0.0
C860 C 0.52127 0.09284 0.30868 0.0
C861 C 0.54882 0.09951 0.29546 0.0
C862 C 0.54109 0.09736 0.27204 0.0
C863 C 0.52537 0.08614 0.33187 0.0
C864 C 0.55056 0.116 0.34985 0.0
C865 C 0.50183 0.05044 0.33642 0.0
C866 C 0.47581 0.01759 0.31785 0.0
C867 C 0.48902 0.00625 0.2996 0.0
C868 C 0.46429 0.97622 0.28173 0.0
C869 C 0.42628 0.95707 0.28201 0.0
C870 C 0.41295 0.96782 0.30021 0.0
C871 C 0.43757 0.9979 0.31811 0.0
H872 H 0.40717 0.93386 0.26814 0.0
H873 H 0.64271 0.22922 0.4403 0.0
H874 H 0.62679 0.5875 0.78525 0.0
H875 H 0.62938 0.60031 0.74675 0.0
H876 H 0.52343 0.49869 0.72133 0.0
H877 H 0.51995 0.4864 0.75973 0.0
H878 H 0.59864 0.52064 0.69941 0.0
H879 H 0.506 0.55152 0.72077 0.0
H880 H 0.4848 0.58623 0.74534 0.0
H881 H 0.57619 0.69036 0.73758 0.0
H882 H 0.59838 0.65616 0.71331 0.0
H883 H 0.51443 0.49131 0.59033 0.0
H884 H 0.52235 0.50159 0.63175 0.0
H885 H 0.60879 0.61644 0.63755 0.0
H886 H 0.60103 0.6061 0.59569 0.0
H887 H 0.55565 0.60008 0.6712 0.0
H888 H 0.64086 0.56807 0.64354 0.0
H889 H 0.6593 0.5325 0.61731 0.0
H890 H 0.58293 0.43112 0.63676 0.0
H891 H 0.56351 0.46599 0.66281 0.0
C892 C 0.60411 0.56795 0.77141 0.0
C893 C 0.57313 0.53599 0.77538 0.0
C894 C 0.60555 0.5754 0.74956 0.0
C895 C 0.57641 0.55058 0.73144 0.0
C896 C 0.54593 0.51829 0.73526 0.0
C897 C 0.54402 0.51132 0.75713 0.0
C898 C 0.578 0.55725 0.70818 0.0
C899 C 0.58942 0.5381 0.69323 0.0
C900 C 0.56681 0.58079 0.70044 0.0
C901 C 0.55418 0.60132 0.71556 0.0
C902 C 0.52194 0.58181 0.72462 0.0
C903 C 0.5096 0.60138 0.73837 0.0
C904 C 0.52906 0.64047 0.74295 0.0
C905 C 0.56107 0.66008 0.73394 0.0
C906 C 0.57359 0.64062 0.72024 0.0
C907 C 0.53454 0.51899 0.60043 0.0
C908 C 0.55746 0.54783 0.58997 0.0
C909 C 0.53902 0.52482 0.62403 0.0
C910 C 0.56651 0.55956 0.63759 0.0
C911 C 0.58748 0.58943 0.62726 0.0
C912 C 0.583 0.58355 0.60346 0.0
C913 C 0.57536 0.56264 0.66227 0.0
C914 C 0.56589 0.58347 0.6775 0.0
C915 C 0.58849 0.5407 0.67035 0.0
C916 C 0.60055 0.51964 0.65502 0.0
C917 C 0.62779 0.53815 0.6421 0.0
C918 C 0.63844 0.51811 0.62728 0.0
C919 C 0.62225 0.47956 0.62534 0.0
C920 C 0.59544 0.46098 0.63827 0.0
C921 C 0.58463 0.48088 0.65309 0.0
H922 H 0.63052 0.46409 0.61385 0.0
H923 H 0.51943 0.65558 0.75356 0.0
H924 H 0.51847 0.08799 0.5742 0.0
H925 H 0.52913 0.08296 0.61362 0.0
H926 H 0.57827 0.01751 0.59349 0.0
H927 H 0.56476 0.02007 0.55378 0.0
H928 H 0.54122 0.9886 0.62192 0.0
H929 H 0.63009 0.11637 0.62426 0.0
H930 H 0.65435 0.18057 0.61846 0.0
H931 H 0.58384 0.19419 0.66094 0.0
H932 H 0.55881 0.12991 0.66677 0.0
H933 H 0.61859 0.03387 0.74639 0.0
H934 H 0.61385 0.02792 0.70472 0.0
H935 H 0.52066 0.04377 0.70203 0.0
H936 H 0.52494 0.0491 0.74311 0.0
H937 H 0.58973 0.09831 0.68583 0.0
H938 H 0.4999 0.96565 0.68056 0.0
H939 H 0.48168 0.90298 0.68716 0.0
H940 H 0.56414 0.90193 0.65085 0.0
H941 H 0.58332 0.96495 0.64441 0.0
C942 C 0.53163 0.07265 0.57827 0.0
C943 C 0.54088 0.0545 0.56103 0.0
C944 C 0.53809 0.07004 0.60086 0.0
C945 C 0.55547 0.05064 0.60683 0.0
C946 C 0.56489 0.03268 0.58949 0.0
C947 C 0.55727 0.03423 0.5668 0.0
C948 C 0.56262 0.04805 0.63097 0.0
C949 C 0.55253 0.01287 0.63579 0.0
C950 C 0.57748 0.07952 0.64934 0.0
C951 C 0.59237 0.11818 0.6458 0.0
C952 C 0.61957 0.13296 0.63223 0.0
C953 C 0.63349 0.16939 0.62896 0.0
C954 C 0.62059 0.19141 0.63929 0.0
C955 C 0.59379 0.17709 0.65294 0.0
C956 C 0.57976 0.14068 0.65626 0.0
C957 C 0.59647 0.03484 0.73667 0.0
C958 C 0.5722 0.04207 0.74778 0.0
C959 C 0.59387 0.03163 0.71301 0.0
C960 C 0.56705 0.0357 0.70046 0.0
C961 C 0.54156 0.04066 0.71146 0.0
C962 C 0.54397 0.04359 0.73486 0.0
C963 C 0.56747 0.03905 0.67644 0.0
C964 C 0.57908 0.0744 0.67176 0.0
C965 C 0.55494 0.00804 0.65831 0.0
C966 C 0.54343 0.97026 0.66232 0.0
C967 C 0.51449 0.9523 0.67426 0.0
C968 C 0.50391 0.91664 0.67791 0.0
C969 C 0.52185 0.89855 0.66953 0.0
C970 C 0.55035 0.91602 0.65741 0.0
C971 C 0.56108 0.9517 0.65376 0.0
H972 H 0.51358 0.87093 0.67235 0.0
H973 H 0.6314 0.2196 0.63673 0.0
H974 H 0.50678 0.53263 0.89172 0.0
H975 H 0.49578 0.53446 0.93058 0.0
H976 H 0.59811 0.53916 0.95224 0.0
H977 H 0.60937 0.53698 0.91303 0.0
H978 H 0.54211 0.49097 0.97122 0.0
H979 H 0.59415 0.61742 0.96225 0.0
H980 H 0.5995 0.66783 0.94374 0.0
H981 H 0.49007 0.64029 0.95343 0.0
H982 H 0.48387 0.58934 0.97175 0.0
H983 H 0.59299 0.58812 0.08648 0.0
H984 H 0.58831 0.57497 0.04536 0.0
H985 H 0.47005 0.52782 0.0363 0.0
H986 H 0.47423 0.53875 0.078 0.0
H987 H 0.52531 0.5919 0.01015 0.0
H988 H 0.47769 0.46741 0.02301 0.0
H989 H 0.47726 0.42007 0.04277 0.0
H990 H 0.5836 0.44708 0.02679 0.0
H991 H 0.58512 0.49531 0.00744 0.0
C992 C 0.5272 0.53429 0.90468 0.0
C993 C 0.5593 0.5352 0.89926 0.0
C994 C 0.52076 0.53528 0.92693 0.0
C995 C 0.54634 0.53745 0.94432 0.0
C996 C 0.57807 0.53758 0.93901 0.0
C997 C 0.58454 0.53651 0.91664 0.0
C998 C 0.54008 0.54011 0.9681 0.0
C999 C 0.5386 0.51312 0.97976 0.0
C1000 C 0.5347 0.56858 0.97904 0.0
C1001 C 0.53839 0.5993 0.96814 0.0
C1002 C 0.57111 0.62192 0.96027 0.0
C1003 C 0.57432 0.65062 0.94984 0.0
C1004 C 0.5451 0.65718 0.94735 0.0
C1005 C 0.51265 0.63512 0.95534 0.0
C1006 C 0.50928 0.60635 0.96577 0.0
C1007 C 0.56582 0.57404 0.07581 0.0
C1008 C 0.53384 0.5633 0.08548 0.0
C1009 C 0.56328 0.56697 0.05234 0.0
C1010 C 0.52882 0.54993 0.03796 0.0
C1011 C 0.49683 0.54066 0.04731 0.0
C1012 C 0.49928 0.54706 0.07102 0.0
C1013 C 0.52735 0.5428 0.01317 0.0
C1014 C 0.52791 0.56925 0.00138 0.0
C1015 C 0.53235 0.51413 0.00222 0.0
C1016 C 0.53171 0.48535 0.01401 0.0
C1017 C 0.50124 0.46367 0.02399 0.0
C1018 C 0.50075 0.43659 0.03507 0.0
C1019 C 0.53044 0.43065 0.0361 0.0
C1020 C 0.56062 0.45171 0.02598 0.0
C1021 C 0.56134 0.47898 0.01499 0.0
H1022 H 0.53001 0.40967 0.04468 0.0
H1023 H 0.54763 0.67942 0.93927 0.0
H1024 H 0.9655 0.56902 0.22564 0.0
H1025 H 0.95747 0.55474 0.26346 0.0
H1026 H 0.07446 0.59593 0.28055 0.0
H1027 H 0.08231 0.60906 0.24266 0.0
H1028 H 0.03229 0.52865 0.29178 0.0
H1029 H 0.03783 0.64763 0.30094 0.0
H1030 H 0.01697 0.68988 0.29133 0.0
H1031 H 0.90859 0.61535 0.30414 0.0
H1032 H 0.92871 0.57243 0.31358 0.0
H1033 H 0.07502 0.56073 0.41011 0.0
H1034 H 0.06702 0.5586 0.36971 0.0
H1035 H 0.95596 0.53714 0.36947 0.0
H1036 H 0.96571 0.54398 0.41081 0.0
H1037 H 0.9855 0.5859 0.34721 0.0
H1038 H 0.98083 0.46961 0.34212 0.0
H1039 H 0.00077 0.42654 0.35144 0.0
H1040 H 0.10436 0.49228 0.33011 0.0
H1041 H 0.08527 0.536 0.32092 0.0
C1042 C 0.98933 0.57459 0.23739 0.0
C1043 C 0.02433 0.58955 0.23104 0.0
C1044 C 0.98483 0.56684 0.25907 0.0
C1045 C 0.01538 0.57422 0.27481 0.0
C1046 C 0.05047 0.58982 0.26863 0.0
C1047 C 0.05495 0.59757 0.24702 0.0
C1048 C 0.01108 0.56537 0.29768 0.0
C1049 C 0.02223 0.54126 0.30401 0.0
C1050 C 0.9966 0.58068 0.31325 0.0
C1051 C 0.98465 0.60663 0.30771 0.0
C1052 C 0.00947 0.64012 0.30154 0.0
C1053 C 0.9978 0.66421 0.29616 0.0
C1054 C 0.96144 0.65524 0.29705 0.0
C1055 C 0.93672 0.62223 0.30341 0.0
C1056 C 0.94825 0.59803 0.3088 0.0
C1057 C 0.0488 0.55557 0.40155 0.0
C1058 C 0.02137 0.55346 0.41394 0.0
C1059 C 0.04393 0.55352 0.37817 0.0
C1060 C 0.01063 0.54715 0.36619 0.0
C1061 C 0.98201 0.54219 0.37823 0.0
C1062 C 0.9874 0.54557 0.40189 0.0
C1063 C 0.0074 0.54949 0.34173 0.0
C1064 C 0.99487 0.57249 0.335 0.0
C1065 C 0.02026 0.53276 0.32568 0.0
C1066 C 0.03162 0.50617 0.33091 0.0
C1067 C 0.00791 0.47497 0.3395 0.0
C1068 C 0.01907 0.45043 0.34475 0.0
C1069 C 0.05381 0.45669 0.34139 0.0
C1070 C 0.07744 0.48745 0.33269 0.0
C1071 C 0.06643 0.51206 0.32741 0.0
H1072 H 0.06241 0.43769 0.34549 0.0
H1073 H 0.95244 0.67391 0.29286 0.0
loop_
_geom_bond_atom_site_label_1
_geom_bond_atom_site_label_2
_geom_bond_distance
_geom_bond_site_symmetry_2
_ccdc_geom_bond_type
Zn0 O6 1.969 . S
Zn0 O7 1.965 . S
Zn0 O11 2.024 . S
Zn0 O16 1.969 . S
Zn1 O8 1.969 . S
Zn1 O14 1.969 . S
Zn1 O15 1.948 1_655 S
Zn1 O17 2.024 . S
C2 O3 1.229 . S
C2 O11 1.058 . S
O3 C2 1.229 . S
C4 O5 1.229 . S
C4 O17 1.058 . S
O5 C4 1.229 . S
O6 Zn0 1.969 . S
O6 C9 1.267 . S
O7 Zn0 1.965 . S
O7 C18 1.260 . S
O8 Zn1 1.969 . S
O8 C18 1.258 1_655 S
C9 O6 1.267 . S
C9 O10 1.228 . S
O10 C9 1.228 . S
O11 Zn0 2.024 . S
O11 C2 1.058 . S
C12 O13 1.228 . S
C12 O14 1.267 . S
O13 C12 1.228 . S
O14 Zn1 1.969 . S
O14 C12 1.267 . S
O15 Zn1 1.948 1_455 S
O15 C19 1.268 . S
O16 Zn0 1.969 . S
O16 C19 1.258 . S
O17 Zn1 2.024 . S
O17 C4 1.058 . S
C18 O7 1.260 . S
C18 O8 1.258 1_455 S
C19 O15 1.268 . S
C19 O16 1.258 . S
Zn20 O26 1.969 . S
Zn20 O27 1.965 . S
Zn20 O31 2.024 . S
Zn20 O36 1.969 . S
Zn21 O28 1.969 1_565 S
Zn21 O34 1.969 . S
Zn21 O35 1.965 1_565 S
Zn21 O37 2.024 . S
C22 O23 1.229 . S
C22 O31 1.058 . S
O23 C22 1.229 . S
C24 O25 1.229 . S
C24 O37 1.058 . S
O25 C24 1.229 . S
O26 Zn20 1.969 . S
O26 C29 1.267 . S
O27 Zn20 1.965 . S
O27 C38 1.260 . S
O28 Zn21 1.969 1_545 S
O28 C38 1.258 . S
C29 O26 1.267 . S
C29 O30 1.228 . S
O30 C29 1.228 . S
O31 Zn20 2.024 . S
O31 C22 1.058 . S
C32 O33 1.228 . S
C32 O34 1.267 . S
O33 C32 1.228 . S
O34 Zn21 1.969 . S
O34 C32 1.267 . S
O35 Zn21 1.965 1_545 S
O35 C39 1.260 . S
O36 Zn20 1.969 . S
O36 C39 1.258 . S
O37 Zn21 2.024 . S
O37 C24 1.058 . S
C38 O27 1.260 . S
C38 O28 1.258 . S
C39 O35 1.260 . S
C39 O36 1.258 . S
Zn40 O46 1.969 . S
Zn40 O47 1.965 . S
Zn40 O51 2.024 . S
Zn40 O56 1.969 . S
Zn41 O48 1.969 . S
Zn41 O54 1.969 . S
Zn41 O55 1.965 . S
Zn41 O57 2.024 . S
C42 O43 1.229 . S
C42 O51 1.058 . S
O43 C42 1.229 . S
C44 O45 1.229 . S
C44 O57 1.058 . S
O45 C44 1.229 . S
O46 Zn40 1.969 . S
O46 C49 1.267 . S
O47 Zn40 1.965 . S
O47 C58 1.260 . S
O48 Zn41 1.969 . S
O48 C58 1.258 . S
C49 O46 1.267 . S
C49 O50 1.228 . S
O50 C49 1.228 . S
O51 Zn40 2.024 . S
O51 C42 1.058 . S
C52 O53 1.228 . S
C52 O54 1.267 . S
O53 C52 1.228 . S
O54 Zn41 1.969 . S
O54 C52 1.267 . S
O55 Zn41 1.965 . S
O55 C59 1.260 . S
O56 Zn40 1.969 . S
O56 C59 1.258 . S
O57 Zn41 2.024 . S
O57 C44 1.058 . S
C58 O47 1.260 . S
C58 O48 1.258 . S
C59 O55 1.260 . S
C59 O56 1.258 . S
H60 C61 0.949 . S
C61 H60 0.949 . S
C61 C62 1.395 . S
C61 C63 1.391 . S
C62 C61 1.395 . S
C62 C65 1.390 . S
C63 C61 1.391 . S
C63 C67 1.387 . S
C63 C68 1.491 . S
H64 C65 0.950 . S
C65 C62 1.390 . S
C65 H64 0.950 . S
C65 C66 1.378 . S
C66 C65 1.378 . S
C66 C67 1.409 . S
C67 C63 1.387 . S
C67 C66 1.409 . S
C67 H69 0.951 . S
C68 C63 1.491 . S
C68 C70 1.382 . S
C68 C72 1.404 . S
H69 C67 0.951 . S
C70 C68 1.382 . S
C70 C71 1.390 . S
C70 H75 0.949 . S
C71 C70 1.390 . S
C71 C76 1.399 . S
C72 C68 1.404 . S
C72 H73 0.950 . S
C72 C74 1.375 . S
H73 C72 0.950 . S
C74 C72 1.375 . S
C74 C76 1.382 . S
C74 H78 0.950 . S
H75 C70 0.949 . S
C76 C71 1.399 . S
C76 C74 1.382 . S
C76 H77 0.952 . S
H77 C76 0.952 . S
H78 C74 0.950 . S
H79 C80 0.949 . S
C80 H79 0.949 . S
C80 C81 1.395 . S
C80 C82 1.391 . S
C81 C80 1.395 . S
C81 C84 1.390 . S
C82 C80 1.391 . S
C82 C86 1.387 . S
C82 C87 1.491 . S
H83 C84 0.950 . S
C84 C81 1.390 . S
C84 H83 0.950 . S
C84 C85 1.378 . S
C85 C84 1.378 . S
C85 C86 1.409 . S
C86 C82 1.387 . S
C86 C85 1.409 . S
C86 H88 0.951 . S
C87 C82 1.491 . S
C87 C89 1.382 . S
C87 C91 1.404 . S
H88 C86 0.951 . S
C89 C87 1.382 . S
C89 C90 1.390 . S
C89 H94 0.949 . S
C90 C89 1.390 . S
C90 C95 1.399 . S
C91 C87 1.404 . S
C91 H92 0.950 . S
C91 C93 1.375 . S
H92 C91 0.950 . S
C93 C91 1.375 . S
C93 C95 1.382 . S
C93 H97 0.950 . S
H94 C89 0.949 . S
C95 C90 1.399 . S
C95 C93 1.382 . S
C95 H96 0.952 . S
H96 C95 0.952 . S
H97 C93 0.950 . S
H98 C99 0.949 . S
C99 H98 0.949 . S
C99 C100 1.395 . S
C99 C101 1.391 . S
C100 C99 1.395 . S
C100 C103 1.390 . S
C101 C99 1.391 . S
C101 C105 1.387 . S
C101 C106 1.491 . S
H102 C103 0.950 1_655 S
C103 C100 1.390 . S
C103 H102 0.950 1_455 S
C103 C104 1.378 . S
C104 C103 1.378 . S
C104 C105 1.409 . S
C105 C101 1.387 . S
C105 C104 1.409 . S
C105 H107 0.951 . S
C106 C101 1.491 . S
C106 C108 1.382 . S
C106 C110 1.404 . S
H107 C105 0.951 . S
C108 C106 1.382 . S
C108 C109 1.390 . S
C108 H113 0.949 . S
C109 C108 1.390 . S
C109 C114 1.399 . S
C110 C106 1.404 . S
C110 H111 0.950 . S
C110 C112 1.375 . S
H111 C110 0.950 . S
C112 C110 1.375 . S
C112 C114 1.382 . S
C112 H116 0.950 . S
H113 C108 0.949 . S
C114 C109 1.399 . S
C114 C112 1.382 . S
C114 H115 0.952 . S
H115 C114 0.952 . S
H116 C112 0.950 . S
H117 C118 0.949 1_655 S
C118 H117 0.949 1_455 S
C118 C119 1.395 . S
C118 C120 1.391 . S
C119 C118 1.395 . S
C119 C122 1.390 . S
C120 C118 1.391 . S
C120 C124 1.387 . S
C120 C125 1.491 1_455 S
H121 C122 0.950 . S
C122 C119 1.390 . S
C122 H121 0.950 . S
C122 C123 1.378 . S
C123 C122 1.378 . S
C123 C124 1.409 . S
C124 C120 1.387 . S
C124 C123 1.409 . S
C124 H126 0.951 . S
C125 C120 1.491 1_655 S
C125 C127 1.382 . S
C125 C129 1.404 . S
H126 C124 0.951 . S
C127 C125 1.382 . S
C127 C128 1.390 . S
C127 H132 0.949 . S
C128 C127 1.390 . S
C128 C133 1.399 . S
C129 C125 1.404 . S
C129 H130 0.950 1_655 S
C129 C131 1.375 . S
H130 C129 0.950 1_455 S
C131 C129 1.375 . S
C131 C133 1.382 . S
C131 H135 0.950 . S
H132 C127 0.949 . S
C133 C128 1.399 . S
C133 C131 1.382 . S
C133 H134 0.952 . S
H134 C133 0.952 . S
H135 C131 0.950 . S
H136 C137 0.949 . S
C137 H136 0.949 . S
C137 C138 1.395 . S
C137 C139 1.391 . S
C138 C137 1.395 . S
C138 C141 1.390 . S
C139 C137 1.391 . S
C139 C143 1.387 . S
C139 C144 1.491 . S
H140 C141 0.950 . S
C141 C138 1.390 . S
C141 H140 0.950 . S
C141 C142 1.378 . S
C142 C141 1.378 . S
C142 C143 1.409 . S
C143 C139 1.387 . S
C143 C142 1.409 . S
C143 H145 0.951 . S
C144 C139 1.491 . S
C144 C146 1.382 1_545 S
C144 C148 1.404 . S
H145 C143 0.951 . S
C146 C144 1.382 1_565 S
C146 C147 1.390 . S
C146 H151 0.949 . S
C147 C146 1.390 . S
C147 C152 1.399 . S
C148 C144 1.404 . S
C148 H149 0.950 . S
C148 C150 1.375 1_545 S
H149 C148 0.950 . S
C150 C148 1.375 1_565 S
C150 C152 1.382 . S
C150 H154 0.950 . S
H151 C146 0.949 . S
C152 C147 1.399 . S
C152 C150 1.382 . S
C152 H153 0.952 . S
H153 C152 0.952 . S
H154 C150 0.950 . S
H155 C156 0.949 . S
C156 H155 0.949 . S
C156 C157 1.395 . S
C156 C158 1.391 . S
C157 C156 1.395 . S
C157 C160 1.390 . S
C158 C156 1.391 . S
C158 C162 1.387 . S
C158 C163 1.491 . S
H159 C160 0.950 . S
C160 C157 1.390 . S
C160 H159 0.950 . S
C160 C161 1.378 . S
C161 C160 1.378 . S
C161 C162 1.409 . S
C162 C158 1.387 . S
C162 C161 1.409 . S
C162 H164 0.951 . S
C163 C158 1.491 . S
C163 C165 1.382 . S
C163 C167 1.404 . S
H164 C162 0.951 . S
C165 C163 1.382 . S
C165 C166 1.390 . S
C165 H170 0.949 . S
C166 C165 1.390 . S
C166 C171 1.399 . S
C167 C163 1.404 . S
C167 H168 0.950 . S
C167 C169 1.375 . S
H168 C167 0.950 . S
C169 C167 1.375 . S
C169 C171 1.382 . S
C169 H173 0.950 . S
H170 C165 0.949 . S
C171 C166 1.399 . S
C171 C169 1.382 . S
C171 H172 0.952 . S
H172 C171 0.952 . S
H173 C169 0.950 . S
H174 C192 0.951 . S
H175 C194 0.951 . S
H176 C196 0.950 . S
H177 C197 0.950 . S
H178 C199 0.950 . S
H179 C202 0.950 . S
H180 C203 0.950 . S
H181 C205 0.950 . S
H182 C206 0.950 . S
H183 C207 0.951 . S
H184 C209 0.951 . S
H185 C211 0.950 . S
H186 C212 0.950 . S
H187 C214 0.950 . S
H188 C217 0.950 . S
H189 C218 0.950 . S
H190 C220 0.950 . S
H191 C221 0.950 . S
C192 H174 0.951 . S
C192 C193 1.366 . S
C192 C194 1.388 . S
C193 C192 1.366 . S
C193 C197 1.385 . S
C194 H175 0.951 . S
C194 C192 1.388 . S
C194 C195 1.366 . S
C195 C194 1.366 . S
C195 C196 1.414 . S
C195 C198 1.499 . S
C196 H176 0.950 . S
C196 C195 1.414 . S
C196 C197 1.374 . S
C197 H177 0.950 . S
C197 C193 1.385 . S
C197 C196 1.374 . S
C198 C195 1.499 . S
C198 C199 1.373 . S
C198 C200 1.389 . S
C199 H178 0.950 . S
C199 C198 1.373 . S
C199 C215 1.377 . S
C200 C198 1.389 . S
C200 C201 1.524 . S
C200 C214 1.377 . S
C201 C200 1.524 . S
C201 C202 1.397 . S
C201 C206 1.363 . S
C202 H179 0.950 . S
C202 C201 1.397 . S
C202 C203 1.334 . S
C203 H180 0.950 . S
C203 C202 1.334 . S
C203 C204 1.287 . S
C204 C203 1.287 . S
C204 C205 1.524 . S
C204 H223 0.913 . S
C205 H181 0.950 . S
C205 C204 1.524 . S
C205 C206 1.415 . S
C206 H182 0.950 . S
C206 C201 1.363 . S
C206 C205 1.415 . S
C207 H183 0.951 . S
C207 C208 1.366 . S
C207 C209 1.388 . S
C208 C207 1.366 . S
C208 C212 1.385 . S
C209 H184 0.951 . S
C209 C207 1.388 . S
C209 C210 1.366 . S
C210 C209 1.366 . S
C210 C211 1.414 . S
C210 C213 1.499 . S
C211 H185 0.950 . S
C211 C210 1.414 . S
C211 C212 1.374 . S
C212 H186 0.950 . S
C212 C208 1.385 . S
C212 C211 1.374 . S
C213 C210 1.499 . S
C213 C214 1.373 . S
C213 C215 1.389 . S
C214 H187 0.950 . S
C214 C200 1.377 . S
C214 C213 1.373 . S
C215 C199 1.377 . S
C215 C213 1.389 . S
C215 C216 1.524 . S
C216 C215 1.524 . S
C216 C217 1.397 . S
C216 C221 1.363 . S
C217 H188 0.950 . S
C217 C216 1.397 . S
C217 C218 1.334 . S
C218 H189 0.950 . S
C218 C217 1.334 . S
C218 C219 1.287 . S
C219 C218 1.287 . S
C219 C220 1.524 . S
C219 H222 0.999 . S
C220 H190 0.950 . S
C220 C219 1.524 . S
C220 C221 1.415 . S
C221 H191 0.950 . S
C221 C216 1.363 . S
C221 C220 1.415 . S
H222 C219 0.999 . S
H223 C204 0.913 . S
H224 C242 0.951 . S
H225 C244 0.951 . S
H226 C246 0.950 . S
H227 C247 0.950 . S
H228 C249 0.950 . S
H229 C252 0.950 . S
H230 C253 0.950 . S
H231 C255 0.950 . S
H232 C256 0.950 . S
H233 C257 0.951 . S
H234 C259 0.951 . S
H235 C261 0.950 . S
H236 C262 0.950 . S
H237 C264 0.950 . S
H238 C267 0.950 . S
H239 C268 0.950 . S
H240 C270 0.950 . S
H241 C271 0.950 . S
C242 H224 0.951 . S
C242 C243 1.366 . S
C242 C244 1.388 . S
C243 C242 1.366 . S
C243 C247 1.385 . S
C244 H225 0.951 . S
C244 C242 1.388 . S
C244 C245 1.366 . S
C245 C244 1.366 . S
C245 C246 1.414 . S
C245 C248 1.499 . S
C246 H226 0.950 . S
C246 C245 1.414 . S
C246 C247 1.374 . S
C247 H227 0.950 . S
C247 C243 1.385 . S
C247 C246 1.374 . S
C248 C245 1.499 . S
C248 C249 1.373 . S
C248 C250 1.389 . S
C249 H228 0.950 . S
C249 C248 1.373 . S
C249 C265 1.377 . S
C250 C248 1.389 . S
C250 C251 1.524 . S
C250 C264 1.377 . S
C251 C250 1.524 . S
C251 C252 1.397 . S
C251 C256 1.363 . S
C252 H229 0.950 . S
C252 C251 1.397 . S
C252 C253 1.334 . S
C253 H230 0.950 . S
C253 C252 1.334 . S
C253 C254 1.287 . S
C254 C253 1.287 . S
C254 C255 1.524 . S
C254 H273 0.913 . S
C255 H231 0.950 . S
C255 C254 1.524 . S
C255 C256 1.415 . S
C256 H232 0.950 . S
C256 C251 1.363 . S
C256 C255 1.415 . S
C257 H233 0.951 . S
C257 C258 1.366 . S
C257 C259 1.388 . S
C258 C257 1.366 . S
C258 C262 1.385 . S
C259 H234 0.951 . S
C259 C257 1.388 . S
C259 C260 1.366 . S
C260 C259 1.366 . S
C260 C261 1.414 . S
C260 C263 1.499 . S
C261 H235 0.950 . S
C261 C260 1.414 . S
C261 C262 1.374 . S
C262 H236 0.950 . S
C262 C258 1.385 . S
C262 C261 1.374 . S
C263 C260 1.499 . S
C263 C264 1.373 . S
C263 C265 1.389 . S
C264 H237 0.950 . S
C264 C250 1.377 . S
C264 C263 1.373 . S
C265 C249 1.377 . S
C265 C263 1.389 . S
C265 C266 1.524 . S
C266 C265 1.524 . S
C266 C267 1.397 . S
C266 C271 1.363 . S
C267 H238 0.950 . S
C267 C266 1.397 . S
C267 C268 1.334 . S
C268 H239 0.950 . S
C268 C267 1.334 . S
C268 C269 1.287 . S
C269 C268 1.287 . S
C269 C270 1.524 . S
C269 H272 0.999 . S
C270 H240 0.950 . S
C270 C269 1.524 . S
C270 C271 1.415 . S
C271 H241 0.950 . S
C271 C266 1.363 . S
C271 C270 1.415 . S
H272 C269 0.999 . S
H273 C254 0.913 . S
H274 C292 0.951 . S
H275 C294 0.951 . S
H276 C296 0.950 . S
H277 C297 0.950 . S
H278 C299 0.950 . S
H279 C302 0.950 . S
H280 C303 0.950 . S
H281 C305 0.950 . S
H282 C306 0.950 . S
H283 C307 0.951 . S
H284 C309 0.951 . S
H285 C311 0.950 . S
H286 C312 0.950 . S
H287 C314 0.950 . S
H288 C317 0.950 . S
H289 C318 0.950 . S
H290 C320 0.950 . S
H291 C321 0.950 . S
C292 H274 0.951 . S
C292 C293 1.366 . S
C292 C294 1.388 . S
C293 C292 1.366 . S
C293 C297 1.385 . S
C294 H275 0.951 . S
C294 C292 1.388 . S
C294 C295 1.366 . S
C295 C294 1.366 . S
C295 C296 1.414 . S
C295 C298 1.499 . S
C296 H276 0.950 . S
C296 C295 1.414 . S
C296 C297 1.374 . S
C297 H277 0.950 . S
C297 C293 1.385 . S
C297 C296 1.374 . S
C298 C295 1.499 . S
C298 C299 1.373 . S
C298 C300 1.389 . S
C299 H278 0.950 . S
C299 C298 1.373 . S
C299 C315 1.377 . S
C300 C298 1.389 . S
C300 C301 1.524 . S
C300 C314 1.377 . S
C301 C300 1.524 . S
C301 C302 1.397 . S
C301 C306 1.363 . S
C302 H279 0.950 . S
C302 C301 1.397 . S
C302 C303 1.334 . S
C303 H280 0.950 . S
C303 C302 1.334 . S
C303 C304 1.287 . S
C304 C303 1.287 . S
C304 C305 1.524 . S
C304 H323 0.913 . S
C305 H281 0.950 . S
C305 C304 1.524 . S
C305 C306 1.415 . S
C306 H282 0.950 . S
C306 C301 1.363 . S
C306 C305 1.415 . S
C307 H283 0.951 . S
C307 C308 1.366 . S
C307 C309 1.388 . S
C308 C307 1.366 . S
C308 C312 1.385 . S
C309 H284 0.951 . S
C309 C307 1.388 . S
C309 C310 1.366 . S
C310 C309 1.366 . S
C310 C311 1.414 . S
C310 C313 1.499 . S
C311 H285 0.950 . S
C311 C310 1.414 . S
C311 C312 1.374 . S
C312 H286 0.950 . S
C312 C308 1.385 . S
C312 C311 1.374 . S
C313 C310 1.499 . S
C313 C314 1.373 . S
C313 C315 1.389 . S
C314 H287 0.950 . S
C314 C300 1.377 . S
C314 C313 1.373 . S
C315 C299 1.377 . S
C315 C313 1.389 . S
C315 C316 1.524 . S
C316 C315 1.524 . S
C316 C317 1.397 . S
C316 C321 1.363 . S
C317 H288 0.950 . S
C317 C316 1.397 . S
C317 C318 1.334 . S
C318 H289 0.950 . S
C318 C317 1.334 . S
C318 C319 1.287 . S
C319 C318 1.287 . S
C319 C320 1.524 . S
C319 H322 0.999 . S
C320 H290 0.950 . S
C320 C319 1.524 . S
C320 C321 1.415 . S
C321 H291 0.950 . S
C321 C316 1.363 . S
C321 C320 1.415 . S
H322 C319 0.999 . S
H323 C304 0.913 . S
H324 C342 0.951 . S
H325 C344 0.951 . S
H326 C346 0.950 . S
H327 C347 0.950 . S
H328 C349 0.950 . S
H329 C352 0.950 . S
H330 C353 0.950 . S
H331 C355 0.950 . S
H332 C356 0.950 . S
H333 C357 0.951 . S
H334 C359 0.951 . S
H335 C361 0.950 . S
H336 C362 0.950 . S
H337 C364 0.950 . S
H338 C367 0.950 . S
H339 C368 0.950 . S
H340 C370 0.950 . S
H341 C371 0.950 . S
C342 H324 0.951 . S
C342 C343 1.366 . S
C342 C344 1.388 . S
C343 C342 1.366 . S
C343 C347 1.385 . S
C344 H325 0.951 . S
C344 C342 1.388 . S
C344 C345 1.366 . S
C345 C344 1.366 . S
C345 C346 1.414 . S
C345 C348 1.499 . S
C346 H326 0.950 . S
C346 C345 1.414 . S
C346 C347 1.374 . S
C347 H327 0.950 . S
C347 C343 1.385 . S
C347 C346 1.374 . S
C348 C345 1.499 . S
C348 C349 1.373 . S
C348 C350 1.389 . S
C349 H328 0.950 . S
C349 C348 1.373 . S
C349 C365 1.377 . S
C350 C348 1.389 . S
C350 C351 1.524 . S
C350 C364 1.377 . S
C351 C350 1.524 . S
C351 C352 1.397 . S
C351 C356 1.363 . S
C352 H329 0.950 . S
C352 C351 1.397 . S
C352 C353 1.334 . S
C353 H330 0.950 . S
C353 C352 1.334 . S
C353 C354 1.287 . S
C354 C353 1.287 . S
C354 C355 1.524 . S
C354 H373 0.913 . S
C355 H331 0.950 . S
C355 C354 1.524 . S
C355 C356 1.415 . S
C356 H332 0.950 . S
C356 C351 1.363 . S
C356 C355 1.415 . S
C357 H333 0.951 . S
C357 C358 1.366 . S
C357 C359 1.388 . S
C358 C357 1.366 . S
C358 C362 1.385 . S
C359 H334 0.951 . S
C359 C357 1.388 . S
C359 C360 1.366 . S
C360 C359 1.366 . S
C360 C361 1.414 . S
C360 C363 1.499 . S
C361 H335 0.950 . S
C361 C360 1.414 . S
C361 C362 1.374 . S
C362 H336 0.950 . S
C362 C358 1.385 . S
C362 C361 1.374 . S
C363 C360 1.499 . S
C363 C364 1.373 . S
C363 C365 1.389 . S
C364 H337 0.950 . S
C364 C350 1.377 . S
C364 C363 1.373 . S
C365 C349 1.377 . S
C365 C363 1.389 . S
C365 C366 1.524 . S
C366 C365 1.524 . S
C366 C367 1.397 . S
C366 C371 1.363 . S
C367 H338 0.950 . S
C367 C366 1.397 . S
C367 C368 1.334 . S
C368 H339 0.950 . S
C368 C367 1.334 . S
C368 C369 1.287 . S
C369 C368 1.287 . S
C369 C370 1.524 . S
C369 H372 0.999 . S
C370 H340 0.950 . S
C370 C369 1.524 . S
C370 C371 1.415 . S
C371 H341 0.950 . S
C371 C366 1.363 . S
C371 C370 1.415 . S
H372 C369 0.999 . S
H373 C354 0.913 . S
H374 C392 0.951 . S
H375 C394 0.951 . S
H376 C396 0.950 . S
H377 C397 0.950 . S
H378 C399 0.950 . S
H379 C402 0.950 . S
H380 C403 0.950 . S
H381 C405 0.950 . S
H382 C406 0.950 . S
H383 C407 0.951 . S
H384 C409 0.951 . S
H385 C411 0.950 . S
H386 C412 0.950 . S
H387 C414 0.950 . S
H388 C417 0.950 . S
H389 C418 0.950 . S
H390 C420 0.950 . S
H391 C421 0.950 . S
C392 H374 0.951 . S
C392 C393 1.366 . S
C392 C394 1.388 . S
C393 C392 1.366 . S
C393 C397 1.385 . S
C394 H375 0.951 . S
C394 C392 1.388 . S
C394 C395 1.366 . S
C395 C394 1.366 . S
C395 C396 1.414 . S
C395 C398 1.499 . S
C396 H376 0.950 . S
C396 C395 1.414 . S
C396 C397 1.374 . S
C397 H377 0.950 . S
C397 C393 1.385 . S
C397 C396 1.374 . S
C398 C395 1.499 . S
C398 C399 1.373 . S
C398 C400 1.389 . S
C399 H378 0.950 . S
C399 C398 1.373 . S
C399 C415 1.377 . S
C400 C398 1.389 . S
C400 C401 1.524 . S
C400 C414 1.377 . S
C401 C400 1.524 . S
C401 C402 1.397 . S
C401 C406 1.363 . S
C402 H379 0.950 . S
C402 C401 1.397 . S
C402 C403 1.334 . S
C403 H380 0.950 . S
C403 C402 1.334 . S
C403 C404 1.287 . S
C404 C403 1.287 . S
C404 C405 1.524 . S
C404 H423 0.913 . S
C405 H381 0.950 . S
C405 C404 1.524 . S
C405 C406 1.415 . S
C406 H382 0.950 . S
C406 C401 1.363 . S
C406 C405 1.415 . S
C407 H383 0.951 . S
C407 C408 1.366 . S
C407 C409 1.388 . S
C408 C407 1.366 . S
C408 C412 1.385 . S
C409 H384 0.951 . S
C409 C407 1.388 . S
C409 C410 1.366 . S
C410 C409 1.366 . S
C410 C411 1.414 . S
C410 C413 1.499 . S
C411 H385 0.950 . S
C411 C410 1.414 . S
C411 C412 1.374 . S
C412 H386 0.950 . S
C412 C408 1.385 . S
C412 C411 1.374 . S
C413 C410 1.499 . S
C413 C414 1.373 . S
C413 C415 1.389 . S
C414 H387 0.950 . S
C414 C400 1.377 . S
C414 C413 1.373 . S
C415 C399 1.377 . S
C415 C413 1.389 . S
C415 C416 1.524 . S
C416 C415 1.524 . S
C416 C417 1.397 . S
C416 C421 1.363 . S
C417 H388 0.950 . S
C417 C416 1.397 . S
C417 C418 1.334 . S
C418 H389 0.950 . S
C418 C417 1.334 . S
C418 C419 1.287 . S
C419 C418 1.287 . S
C419 C420 1.524 . S
C419 H422 0.999 . S
C420 H390 0.950 . S
C420 C419 1.524 . S
C420 C421 1.415 . S
C421 H391 0.950 . S
C421 C416 1.363 . S
C421 C420 1.415 . S
H422 C419 0.999 . S
H423 C404 0.913 . S
H424 C442 0.951 . S
H425 C444 0.951 . S
H426 C446 0.950 . S
H427 C447 0.950 . S
H428 C449 0.950 . S
H429 C452 0.950 . S
H430 C453 0.950 . S
H431 C455 0.950 . S
H432 C456 0.950 . S
H433 C457 0.951 . S
H434 C459 0.951 . S
H435 C461 0.950 . S
H436 C462 0.950 . S
H437 C464 0.950 . S
H438 C467 0.950 . S
H439 C468 0.950 . S
H440 C470 0.950 . S
H441 C471 0.950 . S
C442 H424 0.951 . S
C442 C443 1.366 . S
C442 C444 1.388 . S
C443 C442 1.366 . S
C443 C447 1.385 . S
C444 H425 0.951 . S
C444 C442 1.388 . S
C444 C445 1.366 . S
C445 C444 1.366 . S
C445 C446 1.414 . S
C445 C448 1.499 . S
C446 H426 0.950 . S
C446 C445 1.414 . S
C446 C447 1.374 . S
C447 H427 0.950 . S
C447 C443 1.385 . S
C447 C446 1.374 . S
C448 C445 1.499 . S
C448 C449 1.373 . S
C448 C450 1.389 . S
C449 H428 0.950 . S
C449 C448 1.373 . S
C449 C465 1.377 . S
C450 C448 1.389 . S
C450 C451 1.524 . S
C450 C464 1.377 . S
C451 C450 1.524 . S
C451 C452 1.397 . S
C451 C456 1.363 . S
C452 H429 0.950 . S
C452 C451 1.397 . S
C452 C453 1.334 . S
C453 H430 0.950 . S
C453 C452 1.334 . S
C453 C454 1.287 . S
C454 C453 1.287 . S
C454 C455 1.524 . S
C454 H473 0.913 . S
C455 H431 0.950 . S
C455 C454 1.524 . S
C455 C456 1.415 . S
C456 H432 0.950 . S
C456 C451 1.363 . S
C456 C455 1.415 . S
C457 H433 0.951 . S
C457 C458 1.366 . S
C457 C459 1.388 . S
C458 C457 1.366 . S
C458 C462 1.385 . S
C459 H434 0.951 . S
C459 C457 1.388 . S
C459 C460 1.366 . S
C460 C459 1.366 . S
C460 C461 1.414 . S
C460 C463 1.499 . S
C461 H435 0.950 . S
C461 C460 1.414 . S
C461 C462 1.374 . S
C462 H436 0.950 . S
C462 C458 1.385 . S
C462 C461 1.374 . S
C463 C460 1.499 . S
C463 C464 1.373 . S
C463 C465 1.389 . S
C464 H437 0.950 . S
C464 C450 1.377 . S
C464 C463 1.373 . S
C465 C449 1.377 . S
C465 C463 1.389 . S
C465 C466 1.524 . S
C466 C465 1.524 . S
C466 C467 1.397 . S
C466 C471 1.363 . S
C467 H438 0.950 . S
C467 C466 1.397 . S
C467 C468 1.334 . S
C468 H439 0.950 . S
C468 C467 1.334 . S
C468 C469 1.287 . S
C469 C468 1.287 . S
C469 C470 1.524 . S
C469 H472 0.999 . S
C470 H440 0.950 . S
C470 C469 1.524 . S
C470 C471 1.415 . S
C471 H441 0.950 . S
C471 C466 1.363 . S
C471 C470 1.415 . S
H472 C469 0.999 . S
H473 C454 0.913 . S
H474 C492 0.951 . S
H475 C494 0.951 . S
H476 C496 0.950 . S
H477 C497 0.950 . S
H478 C499 0.950 . S
H479 C502 0.950 . S
H480 C503 0.950 . S
H481 C505 0.950 . S
H482 C506 0.950 . S
H483 C507 0.951 . S
H484 C509 0.951 . S
H485 C511 0.950 . S
H486 C512 0.950 . S
H487 C514 0.950 . S
H488 C517 0.950 . S
H489 C518 0.950 . S
H490 C520 0.950 . S
H491 C521 0.950 . S
C492 H474 0.951 . S
C492 C493 1.366 . S
C492 C494 1.388 . S
C493 C492 1.366 . S
C493 C497 1.385 . S
C494 H475 0.951 . S
C494 C492 1.388 . S
C494 C495 1.366 . S
C495 C494 1.366 . S
C495 C496 1.414 . S
C495 C498 1.499 . S
C496 H476 0.950 . S
C496 C495 1.414 . S
C496 C497 1.374 . S
C497 H477 0.950 . S
C497 C493 1.385 . S
C497 C496 1.374 . S
C498 C495 1.499 . S
C498 C499 1.373 . S
C498 C500 1.389 . S
C499 H478 0.950 . S
C499 C498 1.373 . S
C499 C515 1.377 . S
C500 C498 1.389 . S
C500 C501 1.524 . S
C500 C514 1.377 . S
C501 C500 1.524 . S
C501 C502 1.397 . S
C501 C506 1.363 . S
C502 H479 0.950 . S
C502 C501 1.397 . S
C502 C503 1.334 . S
C503 H480 0.950 . S
C503 C502 1.334 . S
C503 C504 1.287 . S
C504 C503 1.287 . S
C504 C505 1.524 . S
C504 H523 0.913 . S
C505 H481 0.950 . S
C505 C504 1.524 . S
C505 C506 1.415 . S
C506 H482 0.950 . S
C506 C501 1.363 . S
C506 C505 1.415 . S
C507 H483 0.951 . S
C507 C508 1.366 . S
C507 C509 1.388 . S
C508 C507 1.366 . S
C508 C512 1.385 . S
C509 H484 0.951 . S
C509 C507 1.388 . S
C509 C510 1.366 . S
C510 C509 1.366 . S
C510 C511 1.414 . S
C510 C513 1.499 . S
C511 H485 0.950 . S
C511 C510 1.414 . S
C511 C512 1.374 . S
C512 H486 0.950 . S
C512 C508 1.385 . S
C512 C511 1.374 . S
C513 C510 1.499 . S
C513 C514 1.373 . S
C513 C515 1.389 . S
C514 H487 0.950 . S
C514 C500 1.377 . S
C514 C513 1.373 . S
C515 C499 1.377 . S
C515 C513 1.389 . S
C515 C516 1.524 . S
C516 C515 1.524 . S
C516 C517 1.397 . S
C516 C521 1.363 . S
C517 H488 0.950 . S
C517 C516 1.397 . S
C517 C518 1.334 . S
C518 H489 0.950 . S
C518 C517 1.334 . S
C518 C519 1.287 . S
C519 C518 1.287 . S
C519 C520 1.524 . S
C519 H522 0.999 . S
C520 H490 0.950 . S
C520 C519 1.524 . S
C520 C521 1.415 . S
C521 H491 0.950 . S
C521 C516 1.363 . S
C521 C520 1.415 . S
H522 C519 0.999 . S
H523 C504 0.913 . S
H524 C542 0.951 . S
H525 C544 0.951 . S
H526 C546 0.950 . S
H527 C547 0.950 . S
H528 C549 0.950 . S
H529 C552 0.950 . S
H530 C553 0.950 . S
H531 C555 0.950 . S
H532 C556 0.950 . S
H533 C557 0.951 . S
H534 C559 0.951 . S
H535 C561 0.950 . S
H536 C562 0.950 . S
H537 C564 0.950 . S
H538 C567 0.950 . S
H539 C568 0.950 . S
H540 C570 0.950 . S
H541 C571 0.950 . S
C542 H524 0.951 . S
C542 C543 1.366 . S
C542 C544 1.388 . S
C543 C542 1.366 . S
C543 C547 1.385 . S
C544 H525 0.951 . S
C544 C542 1.388 . S
C544 C545 1.366 . S
C545 C544 1.366 . S
C545 C546 1.414 . S
C545 C548 1.499 . S
C546 H526 0.950 . S
C546 C545 1.414 . S
C546 C547 1.374 . S
C547 H527 0.950 . S
C547 C543 1.385 . S
C547 C546 1.374 . S
C548 C545 1.499 . S
C548 C549 1.373 . S
C548 C550 1.389 . S
C549 H528 0.950 . S
C549 C548 1.373 . S
C549 C565 1.377 . S
C550 C548 1.389 . S
C550 C551 1.524 . S
C550 C564 1.377 . S
C551 C550 1.524 . S
C551 C552 1.397 . S
C551 C556 1.363 . S
C552 H529 0.950 . S
C552 C551 1.397 . S
C552 C553 1.334 . S
C553 H530 0.950 . S
C553 C552 1.334 . S
C553 C554 1.287 . S
C554 C553 1.287 . S
C554 C555 1.524 . S
C554 H573 0.913 . S
C555 H531 0.950 . S
C555 C554 1.524 . S
C555 C556 1.415 . S
C556 H532 0.950 . S
C556 C551 1.363 . S
C556 C555 1.415 . S
C557 H533 0.951 . S
C557 C558 1.366 . S
C557 C559 1.388 . S
C558 C557 1.366 . S
C558 C562 1.385 . S
C559 H534 0.951 . S
C559 C557 1.388 . S
C559 C560 1.366 . S
C560 C559 1.366 . S
C560 C561 1.414 . S
C560 C563 1.499 . S
C561 H535 0.950 . S
C561 C560 1.414 . S
C561 C562 1.374 . S
C562 H536 0.950 . S
C562 C558 1.385 . S
C562 C561 1.374 . S
C563 C560 1.499 . S
C563 C564 1.373 . S
C563 C565 1.389 . S
C564 H537 0.950 . S
C564 C550 1.377 . S
C564 C563 1.373 . S
C565 C549 1.377 . S
C565 C563 1.389 . S
C565 C566 1.524 . S
C566 C565 1.524 . S
C566 C567 1.397 . S
C566 C571 1.363 . S
C567 H538 0.950 . S
C567 C566 1.397 . S
C567 C568 1.334 . S
C568 H539 0.950 . S
C568 C567 1.334 . S
C568 C569 1.287 . S
C569 C568 1.287 . S
C569 C570 1.524 . S
C569 H572 0.999 . S
C570 H540 0.950 . S
C570 C569 1.524 . S
C570 C571 1.415 . S
C571 H541 0.950 . S
C571 C566 1.363 . S
C571 C570 1.415 . S
H572 C569 0.999 . S
H573 C554 0.913 . S
H574 C592 0.951 . S
H575 C594 0.951 . S
H576 C596 0.950 . S
H577 C597 0.950 . S
H578 C599 0.950 . S
H579 C602 0.950 . S
H580 C603 0.950 . S
H581 C605 0.950 . S
H582 C606 0.950 . S
H583 C607 0.951 1_545 S
H584 C609 0.951 . S
H585 C611 0.950 . S
H586 C612 0.950 . S
H587 C614 0.950 . S
H588 C617 0.950 . S
H589 C618 0.950 . S
H590 C620 0.950 . S
H591 C621 0.950 . S
C592 H574 0.951 . S
C592 C593 1.366 . S
C592 C594 1.388 . S
C593 C592 1.366 . S
C593 C597 1.385 . S
C594 H575 0.951 . S
C594 C592 1.388 . S
C594 C595 1.366 . S
C595 C594 1.366 . S
C595 C596 1.414 . S
C595 C598 1.499 . S
C596 H576 0.950 . S
C596 C595 1.414 . S
C596 C597 1.374 . S
C597 H577 0.950 . S
C597 C593 1.385 . S
C597 C596 1.374 . S
C598 C595 1.499 . S
C598 C599 1.373 . S
C598 C600 1.389 . S
C599 H578 0.950 . S
C599 C598 1.373 . S
C599 C615 1.377 . S
C600 C598 1.389 . S
C600 C601 1.524 . S
C600 C614 1.377 . S
C601 C600 1.524 . S
C601 C602 1.397 . S
C601 C606 1.363 . S
C602 H579 0.950 . S
C602 C601 1.397 . S
C602 C603 1.334 . S
C603 H580 0.950 . S
C603 C602 1.334 . S
C603 C604 1.287 . S
C604 C603 1.287 . S
C604 C605 1.524 . S
C604 H623 0.913 . S
C605 H581 0.950 . S
C605 C604 1.524 . S
C605 C606 1.415 . S
C606 H582 0.950 . S
C606 C601 1.363 . S
C606 C605 1.415 . S
C607 H583 0.951 1_565 S
C607 C608 1.366 . S
C607 C609 1.388 . S
C608 C607 1.366 . S
C608 C612 1.385 . S
C609 H584 0.951 . S
C609 C607 1.388 . S
C609 C610 1.366 . S
C610 C609 1.366 . S
C610 C611 1.414 . S
C610 C613 1.499 . S
C611 H585 0.950 . S
C611 C610 1.414 . S
C611 C612 1.374 . S
C612 H586 0.950 . S
C612 C608 1.385 . S
C612 C611 1.374 . S
C613 C610 1.499 . S
C613 C614 1.373 . S
C613 C615 1.389 . S
C614 H587 0.950 . S
C614 C600 1.377 . S
C614 C613 1.373 . S
C615 C599 1.377 . S
C615 C613 1.389 . S
C615 C616 1.524 . S
C616 C615 1.524 . S
C616 C617 1.397 . S
C616 C621 1.363 . S
C617 H588 0.950 . S
C617 C616 1.397 . S
C617 C618 1.334 . S
C618 H589 0.950 . S
C618 C617 1.334 . S
C618 C619 1.287 . S
C619 C618 1.287 . S
C619 C620 1.524 . S
C619 H622 0.999 . S
C620 H590 0.950 . S
C620 C619 1.524 . S
C620 C621 1.415 . S
C621 H591 0.950 . S
C621 C616 1.363 . S
C621 C620 1.415 . S
H622 C619 0.999 . S
H623 C604 0.913 . S
H624 C642 0.951 . S
H625 C644 0.951 . S
H626 C646 0.950 . S
H627 C647 0.950 . S
H628 C649 0.950 . S
H629 C652 0.950 . S
H630 C653 0.950 . S
H631 C655 0.950 . S
H632 C656 0.950 . S
H633 C657 0.951 . S
H634 C659 0.951 . S
H635 C661 0.950 . S
H636 C662 0.950 . S
H637 C664 0.950 . S
H638 C667 0.950 . S
H639 C668 0.950 . S
H640 C670 0.950 . S
H641 C671 0.950 . S
C642 H624 0.951 . S
C642 C643 1.366 . S
C642 C644 1.388 . S
C643 C642 1.366 . S
C643 C647 1.385 . S
C644 H625 0.951 . S
C644 C642 1.388 . S
C644 C645 1.366 . S
C645 C644 1.366 . S
C645 C646 1.414 . S
C645 C648 1.499 . S
C646 H626 0.950 . S
C646 C645 1.414 . S
C646 C647 1.374 . S
C647 H627 0.950 . S
C647 C643 1.385 . S
C647 C646 1.374 . S
C648 C645 1.499 . S
C648 C649 1.373 . S
C648 C650 1.389 . S
C649 H628 0.950 . S
C649 C648 1.373 . S
C649 C665 1.377 . S
C650 C648 1.389 . S
C650 C651 1.524 . S
C650 C664 1.377 . S
C651 C650 1.524 . S
C651 C652 1.397 . S
C651 C656 1.363 . S
C652 H629 0.950 . S
C652 C651 1.397 . S
C652 C653 1.334 . S
C653 H630 0.950 . S
C653 C652 1.334 . S
C653 C654 1.287 . S
C654 C653 1.287 . S
C654 C655 1.524 . S
C654 H673 0.913 . S
C655 H631 0.950 . S
C655 C654 1.524 . S
C655 C656 1.415 . S
C656 H632 0.950 . S
C656 C651 1.363 . S
C656 C655 1.415 . S
C657 H633 0.951 . S
C657 C658 1.366 . S
C657 C659 1.388 . S
C658 C657 1.366 . S
C658 C662 1.385 . S
C659 H634 0.951 . S
C659 C657 1.388 . S
C659 C660 1.366 . S
C660 C659 1.366 . S
C660 C661 1.414 . S
C660 C663 1.499 . S
C661 H635 0.950 . S
C661 C660 1.414 . S
C661 C662 1.374 . S
C662 H636 0.950 . S
C662 C658 1.385 . S
C662 C661 1.374 . S
C663 C660 1.499 . S
C663 C664 1.373 . S
C663 C665 1.389 . S
C664 H637 0.950 . S
C664 C650 1.377 . S
C664 C663 1.373 . S
C665 C649 1.377 . S
C665 C663 1.389 . S
C665 C666 1.524 . S
C666 C665 1.524 . S
C666 C667 1.397 . S
C666 C671 1.363 . S
C667 H638 0.950 . S
C667 C666 1.397 . S
C667 C668 1.334 . S
C668 H639 0.950 . S
C668 C667 1.334 . S
C668 C669 1.287 . S
C669 C668 1.287 . S
C669 C670 1.524 . S
C669 H672 0.999 . S
C670 H640 0.950 . S
C670 C669 1.524 . S
C670 C671 1.415 . S
C671 H641 0.950 . S
C671 C666 1.363 . S
C671 C670 1.415 . S
H672 C669 0.999 . S
H673 C654 0.913 . S
H674 C692 0.951 . S
H675 C694 0.951 . S
H676 C696 0.950 . S
H677 C697 0.950 . S
H678 C699 0.950 . S
H679 C702 0.950 . S
H680 C703 0.950 . S
H681 C705 0.950 . S
H682 C706 0.950 . S
H683 C707 0.951 . S
H684 C709 0.951 . S
H685 C711 0.950 . S
H686 C712 0.950 . S
H687 C714 0.950 . S
H688 C717 0.950 . S
H689 C718 0.950 . S
H690 C720 0.950 . S
H691 C721 0.950 . S
C692 H674 0.951 . S
C692 C693 1.366 . S
C692 C694 1.388 . S
C693 C692 1.366 . S
C693 C697 1.385 . S
C694 H675 0.951 . S
C694 C692 1.388 . S
C694 C695 1.366 . S
C695 C694 1.366 . S
C695 C696 1.414 . S
C695 C698 1.499 . S
C696 H676 0.950 . S
C696 C695 1.414 . S
C696 C697 1.374 . S
C697 H677 0.950 . S
C697 C693 1.385 . S
C697 C696 1.374 . S
C698 C695 1.499 . S
C698 C699 1.373 . S
C698 C700 1.389 . S
C699 H678 0.950 . S
C699 C698 1.373 . S
C699 C715 1.377 . S
C700 C698 1.389 . S
C700 C701 1.524 . S
C700 C714 1.377 . S
C701 C700 1.524 . S
C701 C702 1.397 . S
C701 C706 1.363 . S
C702 H679 0.950 . S
C702 C701 1.397 . S
C702 C703 1.334 . S
C703 H680 0.950 . S
C703 C702 1.334 . S
C703 C704 1.287 . S
C704 C703 1.287 . S
C704 C705 1.524 . S
C704 H723 0.913 . S
C705 H681 0.950 . S
C705 C704 1.524 . S
C705 C706 1.415 . S
C706 H682 0.950 . S
C706 C701 1.363 . S
C706 C705 1.415 . S
C707 H683 0.951 . S
C707 C708 1.366 . S
C707 C709 1.388 . S
C708 C707 1.366 . S
C708 C712 1.385 . S
C709 H684 0.951 . S
C709 C707 1.388 . S
C709 C710 1.366 . S
C710 C709 1.366 . S
C710 C711 1.414 . S
C710 C713 1.499 . S
C711 H685 0.950 . S
C711 C710 1.414 . S
C711 C712 1.374 . S
C712 H686 0.950 . S
C712 C708 1.385 . S
C712 C711 1.374 . S
C713 C710 1.499 . S
C713 C714 1.373 . S
C713 C715 1.389 . S
C714 H687 0.950 . S
C714 C700 1.377 . S
C714 C713 1.373 . S
C715 C699 1.377 . S
C715 C713 1.389 . S
C715 C716 1.524 . S
C716 C715 1.524 . S
C716 C717 1.397 . S
C716 C721 1.363 . S
C717 H688 0.950 . S
C717 C716 1.397 . S
C717 C718 1.334 . S
C718 H689 0.950 . S
C718 C717 1.334 . S
C718 C719 1.287 . S
C719 C718 1.287 . S
C719 C720 1.524 . S
C719 H722 0.999 . S
C720 H690 0.950 . S
C720 C719 1.524 . S
C720 C721 1.415 . S
C721 H691 0.950 . S
C721 C716 1.363 . S
C721 C720 1.415 . S
H722 C719 0.999 . S
H723 C704 0.913 . S
H724 C742 0.951 . S
H725 C744 0.951 . S
H726 C746 0.950 . S
H727 C747 0.950 . S
H728 C749 0.950 . S
H729 C752 0.950 . S
H730 C753 0.950 . S
H731 C755 0.950 . S
H732 C756 0.950 . S
H733 C757 0.951 . S
H734 C759 0.951 . S
H735 C761 0.950 . S
H736 C762 0.950 . S
H737 C764 0.950 . S
H738 C767 0.950 . S
H739 C768 0.950 . S
H740 C770 0.950 . S
H741 C771 0.950 . S
C742 H724 0.951 . S
C742 C743 1.366 . S
C742 C744 1.388 . S
C743 C742 1.366 . S
C743 C747 1.385 . S
C744 H725 0.951 . S
C744 C742 1.388 . S
C744 C745 1.366 . S
C745 C744 1.366 . S
C745 C746 1.414 . S
C745 C748 1.499 . S
C746 H726 0.950 . S
C746 C745 1.414 . S
C746 C747 1.374 . S
C747 H727 0.950 . S
C747 C743 1.385 . S
C747 C746 1.374 . S
C748 C745 1.499 . S
C748 C749 1.373 . S
C748 C750 1.389 . S
C749 H728 0.950 . S
C749 C748 1.373 . S
C749 C765 1.377 . S
C750 C748 1.389 . S
C750 C751 1.524 . S
C750 C764 1.377 . S
C751 C750 1.524 . S
C751 C752 1.397 . S
C751 C756 1.363 . S
C752 H729 0.950 . S
C752 C751 1.397 . S
C752 C753 1.334 . S
C753 H730 0.950 . S
C753 C752 1.334 . S
C753 C754 1.287 . S
C754 C753 1.287 . S
C754 C755 1.524 . S
C754 H773 0.913 . S
C755 H731 0.950 . S
C755 C754 1.524 . S
C755 C756 1.415 . S
C756 H732 0.950 . S
C756 C751 1.363 . S
C756 C755 1.415 . S
C757 H733 0.951 . S
C757 C758 1.366 . S
C757 C759 1.388 . S
C758 C757 1.366 . S
C758 C762 1.385 . S
C759 H734 0.951 . S
C759 C757 1.388 . S
C759 C760 1.366 . S
C760 C759 1.366 . S
C760 C761 1.414 . S
C760 C763 1.499 . S
C761 H735 0.950 . S
C761 C760 1.414 . S
C761 C762 1.374 . S
C762 H736 0.950 . S
C762 C758 1.385 . S
C762 C761 1.374 . S
C763 C760 1.499 . S
C763 C764 1.373 . S
C763 C765 1.389 . S
C764 H737 0.950 . S
C764 C750 1.377 . S
C764 C763 1.373 . S
C765 C749 1.377 . S
C765 C763 1.389 . S
C765 C766 1.524 . S
C766 C765 1.524 . S
C766 C767 1.397 . S
C766 C771 1.363 . S
C767 H738 0.950 . S
C767 C766 1.397 . S
C767 C768 1.334 . S
C768 H739 0.950 . S
C768 C767 1.334 . S
C768 C769 1.287 . S
C769 C768 1.287 . S
C769 C770 1.524 . S
C769 H772 0.999 . S
C770 H740 0.950 . S
C770 C769 1.524 . S
C770 C771 1.415 . S
C771 H741 0.950 . S
C771 C766 1.363 . S
C771 C770 1.415 . S
H772 C769 0.999 . S
H773 C754 0.913 . S
H774 C792 0.951 . S
H775 C794 0.951 . S
H776 C796 0.950 . S
H777 C797 0.950 . S
H778 C799 0.950 . S
H779 C802 0.950 . S
H780 C803 0.950 . S
H781 C805 0.950 . S
H782 C806 0.950 . S
H783 C807 0.951 . S
H784 C809 0.951 . S
H785 C811 0.950 . S
H786 C812 0.950 . S
H787 C814 0.950 1_655 S
H788 C817 0.950 . S
H789 C818 0.950 . S
H790 C820 0.950 . S
H791 C821 0.950 . S
C792 H774 0.951 . S
C792 C793 1.366 . S
C792 C794 1.388 . S
C793 C792 1.366 . S
C793 C797 1.385 . S
C794 H775 0.951 . S
C794 C792 1.388 . S
C794 C795 1.366 . S
C795 C794 1.366 . S
C795 C796 1.414 . S
C795 C798 1.499 . S
C796 H776 0.950 . S
C796 C795 1.414 . S
C796 C797 1.374 . S
C797 H777 0.950 . S
C797 C793 1.385 . S
C797 C796 1.374 . S
C798 C795 1.499 . S
C798 C799 1.373 . S
C798 C800 1.389 . S
C799 H778 0.950 . S
C799 C798 1.373 . S
C799 C815 1.377 . S
C800 C798 1.389 . S
C800 C801 1.524 1_455 S
C800 C814 1.377 1_554 S
C801 C800 1.524 1_655 S
C801 C802 1.397 . S
C801 C806 1.363 . S
C802 H779 0.950 . S
C802 C801 1.397 . S
C802 C803 1.334 . S
C803 H780 0.950 . S
C803 C802 1.334 . S
C803 C804 1.287 . S
C804 C803 1.287 . S
C804 C805 1.524 . S
C804 H823 0.913 . S
C805 H781 0.950 . S
C805 C804 1.524 . S
C805 C806 1.415 . S
C806 H782 0.950 . S
C806 C801 1.363 . S
C806 C805 1.415 . S
C807 H783 0.951 . S
C807 C808 1.366 . S
C807 C809 1.388 . S
C808 C807 1.366 . S
C808 C812 1.385 . S
C809 H784 0.951 . S
C809 C807 1.388 . S
C809 C810 1.366 . S
C810 C809 1.366 . S
C810 C811 1.414 . S
C810 C813 1.499 . S
C811 H785 0.950 . S
C811 C810 1.414 . S
C811 C812 1.374 . S
C812 H786 0.950 . S
C812 C808 1.385 . S
C812 C811 1.374 . S
C813 C810 1.499 . S
C813 C814 1.373 . S
C813 C815 1.389 1_556 S
C814 H787 0.950 1_455 S
C814 C800 1.377 1_556 S
C814 C813 1.373 . S
C815 C799 1.377 . S
C815 C813 1.389 1_554 S
C815 C816 1.524 . S
C816 C815 1.524 . S
C816 C817 1.397 1_554 S
C816 C821 1.363 . S
C817 H788 0.950 . S
C817 C816 1.397 1_556 S
C817 C818 1.334 . S
C818 H789 0.950 . S
C818 C817 1.334 . S
C818 C819 1.292 . S
C819 C818 1.292 . S
C819 C820 1.517 1_556 S
C819 H822 1.002 . S
C820 H790 0.950 . S
C820 C819 1.517 1_554 S
C820 C821 1.415 . S
C821 H791 0.950 . S
C821 C816 1.363 . S
C821 C820 1.415 . S
H822 C819 1.002 . S
H823 C804 0.913 . S
H824 C842 0.951 . S
H825 C844 0.951 . S
H826 C846 0.950 . S
H827 C847 0.950 . S
H828 C849 0.950 1_565 S
H829 C852 0.950 . S
H830 C853 0.950 . S
H831 C855 0.950 . S
H832 C856 0.950 . S
H833 C857 0.951 . S
H834 C859 0.951 . S
H835 C861 0.950 . S
H836 C862 0.950 . S
H837 C864 0.950 . S
H838 C867 0.950 . S
H839 C868 0.950 . S
H840 C870 0.950 . S
H841 C871 0.950 . S
C842 H824 0.951 . S
C842 C843 1.366 . S
C842 C844 1.388 . S
C843 C842 1.366 . S
C843 C847 1.385 . S
C844 H825 0.951 . S
C844 C842 1.388 . S
C844 C845 1.366 . S
C845 C844 1.366 . S
C845 C846 1.414 . S
C845 C848 1.499 . S
C846 H826 0.950 . S
C846 C845 1.414 . S
C846 C847 1.374 . S
C847 H827 0.950 . S
C847 C843 1.385 . S
C847 C846 1.374 . S
C848 C845 1.499 . S
C848 C849 1.373 . S
C848 C850 1.389 . S
C849 H828 0.950 1_545 S
C849 C848 1.373 . S
C849 C865 1.377 . S
C850 C848 1.389 . S
C850 C851 1.524 . S
C850 C864 1.377 . S
C851 C850 1.524 . S
C851 C852 1.397 . S
C851 C856 1.363 . S
C852 H829 0.950 . S
C852 C851 1.397 . S
C852 C853 1.334 . S
C853 H830 0.950 . S
C853 C852 1.334 . S
C853 C854 1.287 . S
C854 C853 1.287 . S
C854 C855 1.524 . S
C854 H873 0.913 . S
C855 H831 0.950 . S
C855 C854 1.524 . S
C855 C856 1.415 . S
C856 H832 0.950 . S
C856 C851 1.363 . S
C856 C855 1.415 . S
C857 H833 0.951 . S
C857 C858 1.366 . S
C857 C859 1.388 . S
C858 C857 1.366 . S
C858 C862 1.385 . S
C859 H834 0.951 . S
C859 C857 1.388 . S
C859 C860 1.366 . S
C860 C859 1.366 . S
C860 C861 1.414 . S
C860 C863 1.499 . S
C861 H835 0.950 . S
C861 C860 1.414 . S
C861 C862 1.374 . S
C862 H836 0.950 . S
C862 C858 1.385 . S
C862 C861 1.374 . S
C863 C860 1.499 . S
C863 C864 1.373 . S
C863 C865 1.389 . S
C864 H837 0.950 . S
C864 C850 1.377 . S
C864 C863 1.373 . S
C865 C849 1.377 . S
C865 C863 1.389 . S
C865 C866 1.524 1_545 S
C866 C865 1.524 1_565 S
C866 C867 1.397 . S
C866 C871 1.363 . S
C867 H838 0.950 . S
C867 C866 1.397 . S
C867 C868 1.334 . S
C868 H839 0.950 . S
C868 C867 1.334 . S
C868 C869 1.287 . S
C869 C868 1.287 . S
C869 C870 1.524 . S
C869 H872 0.999 . S
C870 H840 0.950 . S
C870 C869 1.524 . S
C870 C871 1.415 . S
C871 H841 0.950 . S
C871 C866 1.363 . S
C871 C870 1.415 . S
H872 C869 0.999 . S
H873 C854 0.913 . S
H874 C892 0.951 . S
H875 C894 0.951 . S
H876 C896 0.950 . S
H877 C897 0.950 . S
H878 C899 0.950 . S
H879 C902 0.950 . S
H880 C903 0.950 . S
H881 C905 0.950 . S
H882 C906 0.950 . S
H883 C907 0.951 . S
H884 C909 0.951 . S
H885 C911 0.950 . S
H886 C912 0.950 . S
H887 C914 0.950 . S
H888 C917 0.950 . S
H889 C918 0.950 . S
H890 C920 0.950 . S
H891 C921 0.950 . S
C892 H874 0.951 . S
C892 C893 1.366 . S
C892 C894 1.388 . S
C893 C892 1.366 . S
C893 C897 1.385 . S
C894 H875 0.951 . S
C894 C892 1.388 . S
C894 C895 1.366 . S
C895 C894 1.366 . S
C895 C896 1.414 . S
C895 C898 1.499 . S
C896 H876 0.950 . S
C896 C895 1.414 . S
C896 C897 1.374 . S
C897 H877 0.950 . S
C897 C893 1.385 . S
C897 C896 1.374 . S
C898 C895 1.499 . S
C898 C899 1.373 . S
C898 C900 1.389 . S
C899 H878 0.950 . S
C899 C898 1.373 . S
C899 C915 1.377 . S
C900 C898 1.389 . S
C900 C901 1.524 . S
C900 C914 1.377 . S
C901 C900 1.524 . S
C901 C902 1.397 . S
C901 C906 1.363 . S
C902 H879 0.950 . S
C902 C901 1.397 . S
C902 C903 1.334 . S
C903 H880 0.950 . S
C903 C902 1.334 . S
C903 C904 1.287 . S
C904 C903 1.287 . S
C904 C905 1.524 . S
C904 H923 0.913 . S
C905 H881 0.950 . S
C905 C904 1.524 . S
C905 C906 1.415 . S
C906 H882 0.950 . S
C906 C901 1.363 . S
C906 C905 1.415 . S
C907 H883 0.951 . S
C907 C908 1.366 . S
C907 C909 1.388 . S
C908 C907 1.366 . S
C908 C912 1.385 . S
C909 H884 0.951 . S
C909 C907 1.388 . S
C909 C910 1.366 . S
C910 C909 1.366 . S
C910 C911 1.414 . S
C910 C913 1.499 . S
C911 H885 0.950 . S
C911 C910 1.414 . S
C911 C912 1.374 . S
C912 H886 0.950 . S
C912 C908 1.385 . S
C912 C911 1.374 . S
C913 C910 1.499 . S
C913 C914 1.373 . S
C913 C915 1.389 . S
C914 H887 0.950 . S
C914 C900 1.377 . S
C914 C913 1.373 . S
C915 C899 1.377 . S
C915 C913 1.389 . S
C915 C916 1.524 . S
C916 C915 1.524 . S
C916 C917 1.397 . S
C916 C921 1.363 . S
C917 H888 0.950 . S
C917 C916 1.397 . S
C917 C918 1.334 . S
C918 H889 0.950 . S
C918 C917 1.334 . S
C918 C919 1.287 . S
C919 C918 1.287 . S
C919 C920 1.524 . S
C919 H922 0.999 . S
C920 H890 0.950 . S
C920 C919 1.524 . S
C920 C921 1.415 . S
C921 H891 0.950 . S
C921 C916 1.363 . S
C921 C920 1.415 . S
H922 C919 0.999 . S
H923 C904 0.913 . S
H924 C942 0.951 . S
H925 C944 0.951 . S
H926 C946 0.950 . S
H927 C947 0.950 . S
H928 C949 0.952 . S
H929 C952 0.950 . S
H930 C953 0.950 . S
H931 C955 0.950 . S
H932 C956 0.950 . S
H933 C957 0.951 . S
H934 C959 0.951 . S
H935 C961 0.950 . S
H936 C962 0.950 . S
H937 C964 0.950 . S
H938 C967 0.950 . S
H939 C968 0.950 . S
H940 C970 0.950 . S
H941 C971 0.950 . S
C942 H924 0.951 . S
C942 C943 1.366 . S
C942 C944 1.388 . S
C943 C942 1.366 . S
C943 C947 1.385 . S
C944 H925 0.951 . S
C944 C942 1.388 . S
C944 C945 1.366 . S
C945 C944 1.366 . S
C945 C946 1.414 . S
C945 C948 1.499 . S
C946 H926 0.950 . S
C946 C945 1.414 . S
C946 C947 1.374 . S
C947 H927 0.950 . S
C947 C943 1.385 . S
C947 C946 1.374 . S
C948 C945 1.499 . S
C948 C949 1.373 . S
C948 C950 1.389 . S
C949 H928 0.952 . S
C949 C948 1.373 . S
C949 C965 1.377 . S
C950 C948 1.389 . S
C950 C951 1.524 . S
C950 C964 1.377 . S
C951 C950 1.524 . S
C951 C952 1.397 . S
C951 C956 1.363 . S
C952 H929 0.950 . S
C952 C951 1.397 . S
C952 C953 1.334 . S
C953 H930 0.950 . S
C953 C952 1.334 . S
C953 C954 1.287 . S
C954 C953 1.287 . S
C954 C955 1.524 . S
C954 H973 0.913 . S
C955 H931 0.950 . S
C955 C954 1.524 . S
C955 C956 1.415 . S
C956 H932 0.950 . S
C956 C951 1.363 . S
C956 C955 1.415 . S
C957 H933 0.951 . S
C957 C958 1.366 . S
C957 C959 1.388 . S
C958 C957 1.366 . S
C958 C962 1.385 . S
C959 H934 0.951 . S
C959 C957 1.388 . S
C959 C960 1.366 . S
C960 C959 1.366 . S
C960 C961 1.414 . S
C960 C963 1.499 . S
C961 H935 0.950 . S
C961 C960 1.414 . S
C961 C962 1.374 . S
C962 H936 0.950 . S
C962 C958 1.385 . S
C962 C961 1.374 . S
C963 C960 1.499 . S
C963 C964 1.373 . S
C963 C965 1.389 . S
C964 H937 0.950 . S
C964 C950 1.377 . S
C964 C963 1.373 . S
C965 C949 1.377 . S
C965 C963 1.389 . S
C965 C966 1.524 1_545 S
C966 C965 1.524 1_565 S
C966 C967 1.397 . S
C966 C971 1.363 . S
C967 H938 0.950 . S
C967 C966 1.397 . S
C967 C968 1.334 . S
C968 H939 0.950 . S
C968 C967 1.334 . S
C968 C969 1.287 . S
C969 C968 1.287 . S
C969 C970 1.524 . S
C969 H972 0.999 . S
C970 H940 0.950 . S
C970 C969 1.524 . S
C970 C971 1.415 . S
C971 H941 0.950 . S
C971 C966 1.363 . S
C971 C970 1.415 . S
H972 C969 0.999 . S
H973 C954 0.913 . S
H974 C992 0.951 . S
H975 C994 0.951 . S
H976 C996 0.950 . S
H977 C997 0.950 . S
H978 C999 0.950 . S
H979 C1002 0.950 . S
H980 C1003 0.950 . S
H981 C1005 0.950 . S
H982 C1006 0.950 . S
H983 C1007 0.951 . S
H984 C1009 0.951 . S
H985 C1011 0.950 . S
H986 C1012 0.950 . S
H987 C1014 0.950 1_554 S
H988 C1017 0.950 . S
H989 C1018 0.950 . S
H990 C1020 0.950 . S
H991 C1021 0.950 1_556 S
C992 H974 0.951 . S
C992 C993 1.366 . S
C992 C994 1.388 . S
C993 C992 1.366 . S
C993 C997 1.385 . S
C994 H975 0.951 . S
C994 C992 1.388 . S
C994 C995 1.366 . S
C995 C994 1.366 . S
C995 C996 1.414 . S
C995 C998 1.499 . S
C996 H976 0.950 . S
C996 C995 1.414 . S
C996 C997 1.374 . S
C997 H977 0.950 . S
C997 C993 1.385 . S
C997 C996 1.374 . S
C998 C995 1.499 . S
C998 C999 1.373 . S
C998 C1000 1.389 . S
C999 H978 0.950 . S
C999 C998 1.373 . S
C999 C1015 1.377 . S
C1000 C998 1.389 . S
C1000 C1001 1.524 . S
C1000 C1014 1.377 . S
C1001 C1000 1.524 . S
C1001 C1002 1.397 . S
C1001 C1006 1.363 . S
C1002 H979 0.950 . S
C1002 C1001 1.397 . S
C1002 C1003 1.334 . S
C1003 H980 0.950 . S
C1003 C1002 1.334 . S
C1003 C1004 1.287 . S
C1004 C1003 1.287 . S
C1004 C1005 1.524 . S
C1004 H1023 0.913 . S
C1005 H981 0.950 . S
C1005 C1004 1.524 . S
C1005 C1006 1.415 . S
C1006 H982 0.950 . S
C1006 C1001 1.363 . S
C1006 C1005 1.415 . S
C1007 H983 0.951 . S
C1007 C1008 1.366 . S
C1007 C1009 1.388 . S
C1008 C1007 1.366 . S
C1008 C1012 1.385 . S
C1009 H984 0.951 . S
C1009 C1007 1.388 . S
C1009 C1010 1.366 . S
C1010 C1009 1.366 . S
C1010 C1011 1.414 . S
C1010 C1013 1.499 . S
C1011 H985 0.950 . S
C1011 C1010 1.414 . S
C1011 C1012 1.374 . S
C1012 H986 0.950 . S
C1012 C1008 1.385 . S
C1012 C1011 1.374 . S
C1013 C1010 1.499 . S
C1013 C1014 1.373 1_554 S
C1013 C1015 1.389 1_554 S
C1014 H987 0.950 1_556 S
C1014 C1000 1.377 . S
C1014 C1013 1.373 1_556 S
C1015 C999 1.377 . S
C1015 C1013 1.389 1_556 S
C1015 C1016 1.524 1_556 S
C1016 C1015 1.524 1_554 S
C1016 C1017 1.397 . S
C1016 C1021 1.363 . S
C1017 H988 0.950 . S
C1017 C1016 1.397 . S
C1017 C1018 1.334 . S
C1018 H989 0.950 . S
C1018 C1017 1.334 . S
C1018 C1019 1.287 . S
C1019 C1018 1.287 . S
C1019 C1020 1.524 . S
C1019 H1022 0.999 . S
C1020 H990 0.950 . S
C1020 C1019 1.524 . S
C1020 C1021 1.415 . S
C1021 H991 0.950 1_554 S
C1021 C1016 1.363 . S
C1021 C1020 1.415 . S
H1022 C1019 0.999 . S
H1023 C1004 0.913 . S
H1024 C1042 0.951 . S
H1025 C1044 0.951 . S
H1026 C1046 0.950 . S
H1027 C1047 0.950 . S
H1028 C1049 0.950 . S
H1029 C1052 0.950 . S
H1030 C1053 0.950 1_455 S
H1031 C1055 0.950 . S
H1032 C1056 0.950 . S
H1033 C1057 0.951 . S
H1034 C1059 0.951 . S
H1035 C1061 0.950 . S
H1036 C1062 0.950 . S
H1037 C1064 0.950 1_655 S
H1038 C1067 0.950 . S
H1039 C1068 0.950 . S
H1040 C1070 0.950 . S
H1041 C1071 0.950 . S
C1042 H1024 0.951 . S
C1042 C1043 1.366 1_655 S
C1042 C1044 1.388 . S
C1043 C1042 1.366 1_455 S
C1043 C1047 1.385 . S
C1044 H1025 0.951 . S
C1044 C1042 1.388 . S
C1044 C1045 1.366 1_655 S
C1045 C1044 1.366 1_455 S
C1045 C1046 1.414 . S
C1045 C1048 1.499 . S
C1046 H1026 0.950 . S
C1046 C1045 1.414 . S
C1046 C1047 1.374 . S
C1047 H1027 0.950 . S
C1047 C1043 1.385 . S
C1047 C1046 1.374 . S
C1048 C1045 1.499 . S
C1048 C1049 1.373 . S
C1048 C1050 1.389 . S
C1049 H1028 0.950 . S
C1049 C1048 1.373 . S
C1049 C1065 1.377 . S
C1050 C1048 1.389 . S
C1050 C1051 1.524 1_455 S
C1050 C1064 1.377 . S
C1051 C1050 1.524 1_655 S
C1051 C1052 1.397 1_655 S
C1051 C1056 1.363 . S
C1052 H1029 0.950 . S
C1052 C1051 1.397 1_455 S
C1052 C1053 1.334 1_455 S
C1053 H1030 0.950 1_655 S
C1053 C1052 1.334 1_655 S
C1053 C1054 1.287 . S
C1054 C1053 1.287 . S
C1054 C1055 1.524 . S
C1054 H1073 0.913 . S
C1055 H1031 0.950 . S
C1055 C1054 1.524 . S
C1055 C1056 1.415 . S
C1056 H1032 0.950 . S
C1056 C1051 1.363 . S
C1056 C1055 1.415 . S
C1057 H1033 0.951 . S
C1057 C1058 1.366 . S
C1057 C1059 1.388 . S
C1058 C1057 1.366 . S
C1058 C1062 1.385 1_455 S
C1059 H1034 0.951 . S
C1059 C1057 1.388 . S
C1059 C1060 1.366 . S
C1060 C1059 1.366 . S
C1060 C1061 1.414 1_455 S
C1060 C1063 1.499 . S
C1061 H1035 0.950 . S
C1061 C1060 1.414 1_655 S
C1061 C1062 1.374 . S
C1062 H1036 0.950 . S
C1062 C1058 1.385 1_655 S
C1062 C1061 1.374 . S
C1063 C1060 1.499 . S
C1063 C1064 1.373 . S
C1063 C1065 1.389 . S
C1064 H1037 0.950 1_455 S
C1064 C1050 1.377 . S
C1064 C1063 1.373 . S
C1065 C1049 1.377 . S
C1065 C1063 1.389 . S
C1065 C1066 1.524 . S
C1066 C1065 1.524 . S
C1066 C1067 1.397 . S
C1066 C1071 1.363 . S
C1067 H1038 0.950 . S
C1067 C1066 1.397 . S
C1067 C1068 1.334 . S
C1068 H1039 0.950 . S
C1068 C1067 1.334 . S
C1068 C1069 1.287 . S
C1069 C1068 1.287 . S
C1069 C1070 1.524 . S
C1069 H1072 0.999 . S
C1070 H1040 0.950 . S
C1070 C1069 1.524 . S
C1070 C1071 1.415 . S
C1071 H1041 0.950 . S
C1071 C1066 1.363 . S
C1071 C1070 1.415 . S
H1072 C1069 0.999 . S
H1073 C1054 0.913 . S
C193 C2 1.463 . S
C208 C166 1.478 . S
C243 C22 1.454 . S
C258 C128 1.473 . S
C293 C44 1.481 . S
C308 C147 1.505 . S
C343 C4 1.403 . S
C358 C161 1.490 . S
C408 C123 1.493 . S
C393 C24 1.417 . S
C458 C142 1.451 . S
C443 C42 1.366 . S
C493 C32 1.485 . S
C508 C90 1.430 . S
C543 C49 1.085 . S
C558 C104 1.101 1_655 S
C593 C9 1.078 . S
C608 C66 1.097 1_565 S
C658 C85 1.108 . S
C643 C29 1.077 . S
C708 C109 1.348 . S
C693 C52 1.346 . S
C743 C12 1.363 . S
C758 C71 1.348 . S
C808 C100 1.552 . S
C793 C18 1.568 . S
C843 C38 1.522 . S
C858 C62 1.508 . S
C893 C58 1.512 . S
C908 C81 1.545 . S
C958 C138 1.547 . S
C943 C39 1.545 . S
C1008 C157 1.564 . S
C993 C59 1.570 . S
C1043 C19 1.560 . S
C1058 C119 1.576 . S
