# Generated by pormake.
# Topology wbl, (4,4)-cn, num edge types: 1
# Building blocks:
#     Node 0, Type 0, BuildingBlock: MUDLON_clean_linker_0, # of connection points: 4
#     Node 1, Type 0, BuildingBlock: MUDLON_clean_linker_0, # of connection points: 4
#     Node 2, Type 0, BuildingBlock: MUDLON_clean_linker_0, # of connection points: 4
#     Node 3, Type 0, BuildingBlock: MUDLON_clean_linker_0, # of connection points: 4
#     Node 4, Type 0, BuildingBlock: MUDLON_clean_linker_0, # of connection points: 4
#     Node 5, Type 0, BuildingBlock: MUDLON_clean_linker_0, # of connection points: 4
#     Node 6, Type 0, BuildingBlock: MUDLON_clean_linker_0, # of connection points: 4
#     Node 7, Type 0, BuildingBlock: MUDLON_clean_linker_0, # of connection points: 4
#     Node 8, Type 1, BuildingBlock: GALJAG_clean_sbu_0, # of connection points: 4
#     Node 9, Type 1, BuildingBlock: GALJAG_clean_sbu_0, # of connection points: 4
#     Node 10, Type 1, BuildingBlock: GALJAG_clean_sbu_0, # of connection points: 4
#     Node 11, Type 1, BuildingBlock: GALJAG_clean_sbu_0, # of connection points: 4
#     Node 12, Type 1, BuildingBlock: GALJAG_clean_sbu_0, # of connection points: 4
#     Node 13, Type 1, BuildingBlock: GALJAG_clean_sbu_0, # of connection points: 4
#     Node 14, Type 1, BuildingBlock: GALJAG_clean_sbu_0, # of connection points: 4
#     Node 15, Type 1, BuildingBlock: GALJAG_clean_sbu_0, # of connection points: 4
#     Edge 16, Type (0, 1), BuildingBlock: TEMPAE_clean_linker_10, # of connection points: 2
#     Edge 17, Type (0, 1), BuildingBlock: TEMPAE_clean_linker_10, # of connection points: 2
#     Edge 18, Type (0, 1), BuildingBlock: TEMPAE_clean_linker_10, # of connection points: 2
#     Edge 19, Type (0, 1), BuildingBlock: TEMPAE_clean_linker_10, # of connection points: 2
#     Edge 20, Type (0, 1), BuildingBlock: TEMPAE_clean_linker_10, # of connection points: 2
#     Edge 21, Type (0, 1), BuildingBlock: TEMPAE_clean_linker_10, # of connection points: 2
#     Edge 22, Type (0, 1), BuildingBlock: TEMPAE_clean_linker_10, # of connection points: 2
#     Edge 23, Type (0, 1), BuildingBlock: TEMPAE_clean_linker_10, # of connection points: 2
#     Edge 24, Type (0, 1), BuildingBlock: TEMPAE_clean_linker_10, # of connection points: 2
#     Edge 25, Type (0, 1), BuildingBlock: TEMPAE_clean_linker_10, # of connection points: 2
#     Edge 26, Type (0, 1), BuildingBlock: TEMPAE_clean_linker_10, # of connection points: 2
#     Edge 27, Type (0, 1), BuildingBlock: TEMPAE_clean_linker_10, # of connection points: 2
#     Edge 28, Type (0, 1), BuildingBlock: TEMPAE_clean_linker_10, # of connection points: 2
#     Edge 29, Type (0, 1), BuildingBlock: TEMPAE_clean_linker_10, # of connection points: 2
#     Edge 30, Type (0, 1), BuildingBlock: TEMPAE_clean_linker_10, # of connection points: 2
#     Edge 31, Type (0, 1), BuildingBlock: TEMPAE_clean_linker_10, # of connection points: 2
#     Edge 32, Type (0, 1), BuildingBlock: TEMPAE_clean_linker_10, # of connection points: 2
#     Edge 33, Type (0, 1), BuildingBlock: TEMPAE_clean_linker_10, # of connection points: 2
#     Edge 34, Type (0, 1), BuildingBlock: TEMPAE_clean_linker_10, # of connection points: 2
#     Edge 35, Type (0, 1), BuildingBlock: TEMPAE_clean_linker_10, # of connection points: 2
#     Edge 36, Type (0, 1), BuildingBlock: TEMPAE_clean_linker_10, # of connection points: 2
#     Edge 37, Type (0, 1), BuildingBlock: TEMPAE_clean_linker_10, # of connection points: 2
#     Edge 38, Type (0, 1), BuildingBlock: TEMPAE_clean_linker_10, # of connection points: 2
#     Edge 39, Type (0, 1), BuildingBlock: TEMPAE_clean_linker_10, # of connection points: 2
#     Edge 40, Type (0, 1), BuildingBlock: TEMPAE_clean_linker_10, # of connection points: 2
#     Edge 41, Type (0, 1), BuildingBlock: TEMPAE_clean_linker_10, # of connection points: 2
#     Edge 42, Type (0, 1), BuildingBlock: TEMPAE_clean_linker_10, # of connection points: 2
#     Edge 43, Type (0, 1), BuildingBlock: TEMPAE_clean_linker_10, # of connection points: 2
#     Edge 44, Type (0, 1), BuildingBlock: TEMPAE_clean_linker_10, # of connection points: 2
#     Edge 45, Type (0, 1), BuildingBlock: TEMPAE_clean_linker_10, # of connection points: 2
#     Edge 46, Type (0, 1), BuildingBlock: TEMPAE_clean_linker_10, # of connection points: 2
#     Edge 47, Type (0, 1), BuildingBlock: TEMPAE_clean_linker_10, # of connection points: 2
# Relax obj value: 0.117
# Max RMSD: 0.152
# Mean RMSD: 0.139
data_MOF--net-wbl--node1-GALJAG_clean_sbu_0--node2-MUDLON_clean_linker_0--edge1-TEMPAE_clean_linker_10
_symmetry_space_group_name_H-M    P1
_symmetry_Int_Tables_number       1
_symmetry_cell_setting            triclinic
loop_
_symmetry_equiv_pos_as_xyz
'x, y, z'
_cell_length_a     52.949363
_cell_length_b     53.072578
_cell_length_c     85.984019
_cell_angle_alpha  90.022345
_cell_angle_beta   90.029617
_cell_angle_gamma 90.00931
loop_
_atom_site_label
_atom_site_type_symbol
_atom_site_fract_x
_atom_site_fract_y
_atom_site_fract_z
_atom_type_partial_charge
H0 H 0.10344 0.94259 0.34341 0.0
N1 N 0.05946 0.93043 0.32813 0.0
H2 H 0.11572 0.92926 0.3694 0.0
H3 H 0.03247 0.90346 0.34822 0.0
H4 H 0.04479 0.88994 0.37446 0.0
H5 H 0.06344 0.88683 0.31323 0.0
H6 H 0.09796 0.87292 0.29629 0.0
H7 H 0.09776 0.96034 0.31664 0.0
H8 H 0.13203 0.94662 0.29982 0.0
H9 H 0.07512 0.97726 0.33784 0.0
H10 H 0.01417 0.93724 0.31558 0.0
H11 H 0.05115 0.01621 0.33638 0.0
H12 H 0.98936 0.97613 0.31469 0.0
H13 H 0.95906 0.13406 0.34224 0.0
H14 H 0.94138 0.1465 0.36744 0.0
H15 H 0.91532 0.07021 0.37464 0.0
H16 H 0.93261 0.05813 0.34943 0.0
H17 H 0.91597 0.05734 0.32404 0.0
H18 H 0.87795 0.0666 0.30898 0.0
H19 H 0.91127 0.1366 0.29364 0.0
H20 H 0.94931 0.12717 0.30879 0.0
H21 H 0.99071 0.07283 0.34944 0.0
H22 H 0.01609 0.03499 0.34853 0.0
H23 H 0.98548 0.01722 0.30327 0.0
N24 N 0.95617 0.08916 0.32848 0.0
H25 H 0.95929 0.05461 0.30434 0.0
C26 C 0.06699 0.92378 0.34374 0.0
C27 C 0.09043 0.93114 0.35001 0.0
C28 C 0.09752 0.92343 0.36491 0.0
C29 C 0.0813 0.9084 0.37392 0.0
C30 C 0.05762 0.90163 0.36782 0.0
C31 C 0.0506 0.90922 0.35285 0.0
C32 C 0.07788 0.92451 0.3163 0.0
C33 C 0.07808 0.90011 0.31004 0.0
C34 C 0.09776 0.89223 0.30037 0.0
C35 C 0.11778 0.90864 0.29685 0.0
C36 C 0.11698 0.93348 0.30249 0.0
C37 C 0.09722 0.94139 0.31208 0.0
C38 C 0.04644 0.95421 0.32672 0.0
C39 C 0.05661 0.97681 0.33254 0.0
C40 C 0.0427 0.99914 0.33185 0.0
C41 C 0.01816 0.99936 0.32554 0.0
C42 C 0.00827 0.9768 0.31946 0.0
C43 C 0.02234 0.95451 0.32002 0.0
C44 C 0.94722 0.09528 0.34393 0.0
C45 C 0.94971 0.12005 0.34935 0.0
C46 C 0.93967 0.12706 0.36375 0.0
C47 C 0.92686 0.10935 0.37301 0.0
C48 C 0.92471 0.0844 0.36767 0.0
C49 C 0.93468 0.07743 0.35327 0.0
C50 C 0.93551 0.0917 0.31758 0.0
C51 C 0.91525 0.07451 0.31729 0.0
C52 C 0.8935 0.07985 0.3087 0.0
C53 C 0.89153 0.10245 0.30025 0.0
C54 C 0.9123 0.11895 0.29992 0.0
C55 C 0.93402 0.11362 0.30856 0.0
C56 C 0.97122 0.06614 0.32757 0.0
C57 C 0.98876 0.06058 0.33944 0.0
C58 C 0.00377 0.03902 0.33878 0.0
C59 C 0.00259 0.02273 0.32593 0.0
C60 C 0.98627 0.02888 0.31359 0.0
C61 C 0.97105 0.05042 0.31429 0.0
H62 H 0.95156 0.39862 0.59394 0.0
N63 N 0.94013 0.44251 0.57857 0.0
H64 H 0.93787 0.38676 0.61986 0.0
H65 H 0.91521 0.47085 0.59893 0.0
H66 H 0.90239 0.45961 0.62541 0.0
H67 H 0.89525 0.43936 0.565 0.0
H68 H 0.87881 0.40448 0.54928 0.0
H69 H 0.96819 0.40325 0.56645 0.0
H70 H 0.95195 0.36865 0.55086 0.0
H71 H 0.98735 0.42514 0.58632 0.0
H72 H 0.94696 0.48853 0.56734 0.0
H73 H 0.02674 0.44832 0.58448 0.0
H74 H 0.98612 0.51284 0.56657 0.0
H75 H 0.14501 0.54247 0.59404 0.0
H76 H 0.15574 0.5576 0.6202 0.0
H77 H 0.07801 0.57946 0.62731 0.0
H78 H 0.06744 0.56419 0.60131 0.0
H79 H 0.07294 0.58768 0.57781 0.0
H80 H 0.084 0.62454 0.56244 0.0
H81 H 0.14592 0.58324 0.5418 0.0
H82 H 0.13546 0.54681 0.55805 0.0
H83 H 0.08632 0.50517 0.5982 0.0
H84 H 0.04825 0.48005 0.5969 0.0
H85 H 0.02558 0.51988 0.55533 0.0
N86 N 0.10016 0.54391 0.57999 0.0
H87 H 0.06281 0.54609 0.55717 0.0
C88 C 0.93403 0.43559 0.59436 0.0
C89 C 0.94085 0.4121 0.60066 0.0
C90 C 0.93319 0.40541 0.61563 0.0
C91 C 0.91889 0.42217 0.62476 0.0
C92 C 0.91294 0.44602 0.61862 0.0
C93 C 0.92038 0.45258 0.60356 0.0
C94 C 0.93286 0.4241 0.56701 0.0
C95 C 0.90787 0.42428 0.5616 0.0
C96 C 0.89853 0.40436 0.55264 0.0
C97 C 0.91405 0.38372 0.549 0.0
C98 C 0.93948 0.38417 0.55368 0.0
C99 C 0.94884 0.40416 0.56256 0.0
C100 C 0.96414 0.45498 0.57668 0.0
C101 C 0.98695 0.44398 0.58156 0.0
C102 C 0.00954 0.45754 0.58077 0.0
C103 C 0.0098 0.48269 0.57551 0.0
C104 C 0.98692 0.49345 0.57044 0.0
C105 C 0.96443 0.47966 0.57094 0.0
C106 C 0.10552 0.55205 0.59573 0.0
C107 C 0.13032 0.55038 0.60132 0.0
C108 C 0.13641 0.55914 0.61619 0.0
C109 C 0.11769 0.56968 0.62579 0.0
C110 C 0.09277 0.57116 0.62024 0.0
C111 C 0.08674 0.56258 0.60534 0.0
C112 C 0.10365 0.56453 0.56922 0.0
C113 C 0.08883 0.58651 0.56996 0.0
C114 C 0.09506 0.60755 0.56098 0.0
C115 C 0.11604 0.60704 0.55092 0.0
C116 C 0.12998 0.58454 0.54964 0.0
C117 C 0.12389 0.56359 0.55876 0.0
C118 C 0.07727 0.52881 0.57842 0.0
C119 C 0.07298 0.50895 0.58894 0.0
C120 C 0.05125 0.49417 0.58801 0.0
C121 C 0.03348 0.49798 0.57608 0.0
C122 C 0.03835 0.51686 0.56499 0.0
C123 C 0.05992 0.53202 0.56608 0.0
H124 H 0.59908 0.44565 0.84258 0.0
N125 N 0.55555 0.43343 0.82688 0.0
H126 H 0.61152 0.431 0.86823 0.0
H127 H 0.52944 0.40385 0.84599 0.0
H128 H 0.54211 0.38859 0.87179 0.0
H129 H 0.55946 0.39074 0.81101 0.0
H130 H 0.59433 0.37753 0.79413 0.0
H131 H 0.59393 0.46395 0.81603 0.0
H132 H 0.62854 0.4509 0.79931 0.0
H133 H 0.57168 0.47978 0.83727 0.0
H134 H 0.50976 0.44099 0.81519 0.0
H135 H 0.54793 0.51881 0.83679 0.0
H136 H 0.48506 0.47999 0.8154 0.0
H137 H 0.46166 0.63762 0.8457 0.0
H138 H 0.44595 0.64907 0.87155 0.0
H139 H 0.41205 0.57529 0.87594 0.0
H140 H 0.42881 0.56373 0.85052 0.0
H141 H 0.41181 0.56735 0.82579 0.0
H142 H 0.37647 0.5799 0.80947 0.0
H143 H 0.41962 0.64363 0.79286 0.0
H144 H 0.45447 0.6316 0.81007 0.0
H145 H 0.48967 0.57624 0.85106 0.0
H146 H 0.51383 0.53764 0.84958 0.0
H147 H 0.48068 0.52134 0.80478 0.0
N148 N 0.45537 0.5942 0.83065 0.0
H149 H 0.45561 0.55937 0.80648 0.0
C150 C 0.56321 0.42576 0.84228 0.0
C151 C 0.58638 0.43334 0.84882 0.0
C152 C 0.5936 0.42478 0.86351 0.0
C153 C 0.5779 0.40847 0.872 0.0
C154 C 0.55455 0.40128 0.86558 0.0
C155 C 0.54733 0.40987 0.85085 0.0
C156 C 0.57394 0.42821 0.8149 0.0
C157 C 0.57418 0.40415 0.80817 0.0
C158 C 0.59407 0.39666 0.79853 0.0
C159 C 0.61426 0.41313 0.79554 0.0
C160 C 0.61336 0.43772 0.80158 0.0
C161 C 0.59339 0.44524 0.81113 0.0
C162 C 0.54256 0.45731 0.82611 0.0
C163 C 0.55301 0.47959 0.83222 0.0
C164 C 0.53918 0.50199 0.83212 0.0
C165 C 0.5144 0.50261 0.82619 0.0
C166 C 0.50416 0.48036 0.81988 0.0
C167 C 0.51817 0.45801 0.81982 0.0
C168 C 0.44634 0.59999 0.84613 0.0
C169 C 0.45097 0.62394 0.85233 0.0
C170 C 0.44182 0.63047 0.86704 0.0
C171 C 0.42763 0.61313 0.87582 0.0
C172 C 0.42315 0.58901 0.8696 0.0
C173 C 0.43244 0.58247 0.85495 0.0
C174 C 0.43572 0.59882 0.81932 0.0
C175 C 0.41371 0.58401 0.81865 0.0
C176 C 0.39357 0.59106 0.8091 0.0
C177 C 0.39504 0.61293 0.79987 0.0
C178 C 0.41761 0.62696 0.80001 0.0
C179 C 0.43764 0.62001 0.8097 0.0
C180 C 0.46925 0.57052 0.82944 0.0
C181 C 0.48694 0.56416 0.84104 0.0
C182 C 0.50123 0.54215 0.84006 0.0
C183 C 0.49909 0.52613 0.82711 0.0
C184 C 0.48229 0.53283 0.81514 0.0
C185 C 0.46775 0.5548 0.81619 0.0
H186 H 0.44147 0.90542 0.09214 0.0
N187 N 0.42999 0.94999 0.07756 0.0
H188 H 0.42965 0.89318 0.11839 0.0
H189 H 0.40581 0.97771 0.09863 0.0
H190 H 0.39424 0.96569 0.12525 0.0
H191 H 0.38407 0.94634 0.06548 0.0
H192 H 0.36718 0.91214 0.04946 0.0
H193 H 0.45783 0.91198 0.06394 0.0
H194 H 0.44131 0.87826 0.04771 0.0
H195 H 0.47675 0.93225 0.08623 0.0
H196 H 0.43831 0.99443 0.06431 0.0
H197 H 0.51661 0.95479 0.0844 0.0
H198 H 0.47835 0.01752 0.06271 0.0
H199 H 0.63499 0.04159 0.09259 0.0
H200 H 0.64624 0.05877 0.11814 0.0
H201 H 0.57215 0.09244 0.1217 0.0
H202 H 0.56127 0.07552 0.09614 0.0
H203 H 0.55966 0.08645 0.06937 0.0
H204 H 0.57033 0.12365 0.05385 0.0
H205 H 0.64445 0.09301 0.04518 0.0
H206 H 0.6335 0.05544 0.06041 0.0
H207 H 0.57325 0.01538 0.09849 0.0
H208 H 0.53486 0.99078 0.09722 0.0
H209 H 0.52081 0.01827 0.05079 0.0
N210 N 0.59195 0.04784 0.07703 0.0
H211 H 0.55918 0.04327 0.05199 0.0
C212 C 0.42438 0.94257 0.09335 0.0
C213 C 0.43131 0.91882 0.09925 0.0
C214 C 0.42467 0.91187 0.11436 0.0
C215 C 0.41102 0.92847 0.12393 0.0
C216 C 0.40452 0.95237 0.11811 0.0
C217 C 0.41119 0.95932 0.10297 0.0
C218 C 0.42214 0.9319 0.06597 0.0
C219 C 0.39675 0.9318 0.06134 0.0
C220 C 0.38716 0.91226 0.05217 0.0
C221 C 0.40286 0.89234 0.04742 0.0
C222 C 0.42863 0.89312 0.05138 0.0
C223 C 0.43818 0.91263 0.06059 0.0
C224 C 0.45435 0.96174 0.07544 0.0
C225 C 0.47682 0.95069 0.08092 0.0
C226 C 0.49969 0.96371 0.07995 0.0
C227 C 0.50064 0.98809 0.07357 0.0
C228 C 0.47832 0.99871 0.06759 0.0
C229 C 0.45544 0.98562 0.06854 0.0
C230 C 0.59742 0.05725 0.09246 0.0
C231 C 0.62121 0.05258 0.09896 0.0
C232 C 0.62752 0.06231 0.11356 0.0
C233 C 0.61009 0.077 0.12194 0.0
C234 C 0.58613 0.08151 0.11545 0.0
C235 C 0.57985 0.0718 0.10085 0.0
C236 C 0.59576 0.06791 0.06589 0.0
C237 C 0.57797 0.08738 0.06381 0.0
C238 C 0.58404 0.1086 0.05494 0.0
C239 C 0.60818 0.11108 0.04837 0.0
C240 C 0.6257 0.09144 0.05012 0.0
C241 C 0.61944 0.06999 0.05871 0.0
C242 C 0.56861 0.03325 0.07591 0.0
C243 C 0.56176 0.01684 0.08811 0.0
C244 C 0.53988 0.00228 0.08729 0.0
C245 C 0.52448 0.0029 0.07401 0.0
C246 C 0.53187 0.018 0.06139 0.0
C247 C 0.55388 0.03259 0.06219 0.0
H248 H 0.12991 0.52917 0.90418 0.0
N249 N 0.08844 0.53004 0.92152 0.0
H250 H 0.13632 0.54863 0.8788 0.0
H251 H 0.05253 0.55413 0.90422 0.0
H252 H 0.05803 0.57206 0.87836 0.0
H253 H 0.07749 0.57844 0.92935 0.0
H254 H 0.10276 0.60523 0.94668 0.0
H255 H 0.12351 0.51449 0.94137 0.0
H256 H 0.14816 0.54064 0.9592 0.0
H257 H 0.09433 0.48049 0.92216 0.0
H258 H 0.03925 0.53908 0.92875 0.0
H259 H 0.06178 0.4485 0.92584 0.0
H260 H 0.00586 0.50738 0.9312 0.0
H261 H 0.94743 0.35572 0.91246 0.0
H262 H 0.93066 0.34734 0.88644 0.0
H263 H 0.91942 0.42724 0.87955 0.0
H264 H 0.93575 0.43531 0.90572 0.0
H265 H 0.91311 0.43346 0.93029 0.0
H266 H 0.87547 0.427 0.94614 0.0
H267 H 0.90669 0.35688 0.96306 0.0
H268 H 0.94473 0.36417 0.94761 0.0
H269 H 0.99608 0.39936 0.91194 0.0
H270 H 0.02899 0.4311 0.91193 0.0
H271 H 0.98658 0.47485 0.94536 0.0
N272 N 0.95204 0.39999 0.92661 0.0
H273 H 0.95306 0.44379 0.94467 0.0
C274 C 0.09076 0.53991 0.906 0.0
C275 C 0.11415 0.53838 0.8985 0.0
C276 C 0.11767 0.54938 0.88392 0.0
C277 C 0.09765 0.56186 0.87636 0.0
C278 C 0.07401 0.56294 0.88385 0.0
C279 C 0.07069 0.55235 0.8986 0.0
C280 C 0.09899 0.54462 0.93399 0.0
C281 C 0.09257 0.57006 0.9361 0.0
C282 C 0.10698 0.58529 0.94604 0.0
C283 C 0.12782 0.57516 0.95407 0.0
C284 C 0.13265 0.54917 0.95289 0.0
C285 C 0.11847 0.53412 0.94286 0.0
C286 C 0.06902 0.51196 0.92483 0.0
C287 C 0.07506 0.48634 0.92432 0.0
C288 C 0.05632 0.46815 0.92627 0.0
C289 C 0.03092 0.47523 0.92844 0.0
C290 C 0.02513 0.5011 0.92959 0.0
C291 C 0.04411 0.51931 0.92798 0.0
C292 C 0.94288 0.39601 0.91098 0.0
C293 C 0.94142 0.37136 0.90527 0.0
C294 C 0.93197 0.36667 0.89039 0.0
C295 C 0.92378 0.38664 0.8809 0.0
C296 C 0.92531 0.41143 0.88664 0.0
C297 C 0.93473 0.41609 0.90156 0.0
C298 C 0.93188 0.39932 0.93789 0.0
C299 C 0.91213 0.41705 0.93773 0.0
C300 C 0.89048 0.41317 0.94669 0.0
C301 C 0.88783 0.39123 0.95575 0.0
C302 C 0.90813 0.37414 0.9564 0.0
C303 C 0.9299 0.37822 0.94758 0.0
C304 C 0.97158 0.41907 0.92793 0.0
C305 C 0.99377 0.41585 0.91923 0.0
C306 C 0.01279 0.43399 0.91939 0.0
C307 C 0.01061 0.4557 0.92868 0.0
C308 C 0.98875 0.45867 0.93781 0.0
C309 C 0.96941 0.44064 0.93743 0.0
H310 H 0.56198 0.40202 0.16252 0.0
N311 N 0.57229 0.44735 0.17663 0.0
H312 H 0.57514 0.38886 0.13678 0.0
H313 H 0.59654 0.47469 0.15543 0.0
H314 H 0.60867 0.46211 0.12906 0.0
H315 H 0.61707 0.44216 0.19012 0.0
H316 H 0.63163 0.40686 0.20616 0.0
H317 H 0.54196 0.41058 0.18977 0.0
H318 H 0.55637 0.37564 0.20564 0.0
H319 H 0.52553 0.43009 0.16779 0.0
H320 H 0.56492 0.49358 0.1875 0.0
H321 H 0.4861 0.45329 0.16874 0.0
H322 H 0.52571 0.51789 0.18743 0.0
H323 H 0.36568 0.54127 0.15993 0.0
H324 H 0.35303 0.55559 0.13398 0.0
H325 H 0.42842 0.58441 0.12639 0.0
H326 H 0.44108 0.56894 0.15187 0.0
H327 H 0.43514 0.59193 0.17463 0.0
H328 H 0.42365 0.62798 0.19033 0.0
H329 H 0.36768 0.58273 0.21414 0.0
H330 H 0.37787 0.54726 0.19709 0.0
H331 H 0.42628 0.50908 0.15471 0.0
H332 H 0.46504 0.48508 0.15603 0.0
H333 H 0.4857 0.52432 0.19822 0.0
N334 N 0.4106 0.54643 0.17357 0.0
H335 H 0.44781 0.54952 0.19637 0.0
C336 C 0.57866 0.43935 0.16106 0.0
C337 C 0.57227 0.41529 0.1554 0.0
C338 C 0.57959 0.40784 0.14051 0.0
C339 C 0.59303 0.42438 0.13077 0.0
C340 C 0.59877 0.44869 0.13631 0.0
C341 C 0.59171 0.456 0.15132 0.0
C342 C 0.57853 0.42919 0.18857 0.0
C343 C 0.60358 0.42806 0.19384 0.0
C344 C 0.61186 0.4079 0.20299 0.0
C345 C 0.59517 0.38837 0.20696 0.0
C346 C 0.5697 0.39029 0.20255 0.0
C347 C 0.56141 0.41049 0.19349 0.0
C348 C 0.54824 0.45999 0.17785 0.0
C349 C 0.5257 0.449 0.17246 0.0
C350 C 0.5031 0.46255 0.17277 0.0
C351 C 0.50256 0.48769 0.17803 0.0
C352 C 0.52515 0.49851 0.18354 0.0
C353 C 0.54766 0.48471 0.18352 0.0
C354 C 0.40417 0.55412 0.1579 0.0
C355 C 0.37945 0.55046 0.15255 0.0
C356 C 0.37226 0.55884 0.13778 0.0
C357 C 0.38967 0.57129 0.12809 0.0
C358 C 0.41458 0.57463 0.13342 0.0
C359 C 0.42179 0.56606 0.14811 0.0
C360 C 0.40682 0.56699 0.18438 0.0
C361 C 0.42024 0.58977 0.18309 0.0
C362 C 0.41388 0.61038 0.19238 0.0
C363 C 0.39448 0.60858 0.20354 0.0
C364 C 0.38222 0.5852 0.20543 0.0
C365 C 0.38819 0.56476 0.19583 0.0
C366 C 0.43421 0.53243 0.17484 0.0
C367 C 0.43936 0.51308 0.16408 0.0
C368 C 0.46148 0.4989 0.16502 0.0
C369 C 0.4788 0.50277 0.17719 0.0
C370 C 0.47325 0.52127 0.18841 0.0
C371 C 0.45128 0.53583 0.18731 0.0
H372 H 0.40361 0.93449 0.4065 0.0
N373 N 0.44632 0.92124 0.42264 0.0
H374 H 0.39252 0.92174 0.3802 0.0
H375 H 0.47382 0.89371 0.40308 0.0
H376 H 0.46285 0.88092 0.37647 0.0
H377 H 0.44069 0.87636 0.43574 0.0
H378 H 0.4049 0.86138 0.45121 0.0
H379 H 0.40794 0.95075 0.43457 0.0
H380 H 0.37264 0.9361 0.45014 0.0
H381 H 0.43012 0.96832 0.41366 0.0
H382 H 0.49133 0.92826 0.43561 0.0
H383 H 0.45348 0.00745 0.41581 0.0
H384 H 0.51564 0.96745 0.43712 0.0
H385 H 0.54205 0.12674 0.41087 0.0
H386 H 0.5591 0.13989 0.38565 0.0
H387 H 0.58854 0.06484 0.37846 0.0
H388 H 0.57182 0.05204 0.40368 0.0
H389 H 0.58802 0.0517 0.4292 0.0
H390 H 0.62545 0.06252 0.44444 0.0
H391 H 0.58904 0.13103 0.45971 0.0
H392 H 0.55159 0.12 0.4444 0.0
H393 H 0.51251 0.06541 0.40349 0.0
H394 H 0.48805 0.027 0.40393 0.0
H395 H 0.51943 0.00831 0.44884 0.0
N396 N 0.54666 0.08192 0.42455 0.0
H397 H 0.54482 0.04632 0.4482 0.0
C398 C 0.43968 0.91503 0.40681 0.0
C399 C 0.41684 0.92304 0.40005 0.0
C400 C 0.41052 0.9158 0.38493 0.0
C401 C 0.42683 0.90036 0.37624 0.0
C402 C 0.4498 0.89265 0.38293 0.0
C403 C 0.45615 0.9 0.39806 0.0
C404 C 0.42721 0.91459 0.43391 0.0
C405 C 0.42614 0.88959 0.43915 0.0
C406 C 0.4057 0.88109 0.44799 0.0
C407 C 0.3858 0.89751 0.45176 0.0
C408 C 0.38748 0.92289 0.4472 0.0
C409 C 0.40791 0.93137 0.43835 0.0
C410 C 0.45892 0.94517 0.42458 0.0
C411 C 0.44855 0.96786 0.41904 0.0
C412 C 0.46215 0.99034 0.42012 0.0
C413 C 0.48664 0.99067 0.42648 0.0
C414 C 0.49675 0.96803 0.43231 0.0
C415 C 0.48296 0.94558 0.43139 0.0
C416 C 0.55562 0.08852 0.40918 0.0
C417 C 0.55204 0.11316 0.40377 0.0
C418 C 0.56171 0.12057 0.38936 0.0
C419 C 0.57524 0.10341 0.38008 0.0
C420 C 0.57856 0.07861 0.38544 0.0
C421 C 0.56894 0.07124 0.39985 0.0
C422 C 0.56696 0.08516 0.43563 0.0
C423 C 0.58792 0.06885 0.43599 0.0
C424 C 0.60935 0.07511 0.44467 0.0
C425 C 0.6103 0.09777 0.45314 0.0
C426 C 0.58883 0.11335 0.45341 0.0
C427 C 0.56743 0.1071 0.4447 0.0
C428 C 0.53229 0.05846 0.42522 0.0
C429 C 0.51483 0.05287 0.41331 0.0
C430 C 0.50033 0.03095 0.4137 0.0
C431 C 0.50193 0.01427 0.42634 0.0
C432 C 0.51828 0.02032 0.43869 0.0
C433 C 0.53303 0.04223 0.43824 0.0
H434 H 0.04807 0.89874 0.65974 0.0
N435 N 0.06693 0.94044 0.67463 0.0
H436 H 0.05767 0.88527 0.63332 0.0
H437 H 0.09602 0.96372 0.65401 0.0
H438 H 0.10637 0.94996 0.62756 0.0
H439 H 0.11214 0.93831 0.68782 0.0
H440 H 0.12904 0.90467 0.70436 0.0
H441 H 0.03948 0.90157 0.68773 0.0
H442 H 0.05606 0.86838 0.70419 0.0
H443 H 0.01764 0.92491 0.67104 0.0
H444 H 0.06451 0.98865 0.68247 0.0
H445 H 0.98023 0.95053 0.67381 0.0
H446 H 0.02711 0.01545 0.68367 0.0
H447 H 0.86626 0.04953 0.66334 0.0
H448 H 0.85405 0.06505 0.63755 0.0
H449 H 0.93214 0.08246 0.6277 0.0
H450 H 0.94409 0.06723 0.65348 0.0
H451 H 0.93563 0.09569 0.6751 0.0
H452 H 0.92532 0.13215 0.69073 0.0
H453 H 0.8747 0.08647 0.71845 0.0
H454 H 0.88353 0.05044 0.70155 0.0
H455 H 0.92021 0.00669 0.66078 0.0
H456 H 0.95735 0.98008 0.66113 0.0
H457 H 0.99095 0.02824 0.6961 0.0
N458 N 0.91214 0.04965 0.67607 0.0
H459 H 0.9548 0.05593 0.69472 0.0
C460 C 0.07138 0.93235 0.65887 0.0
C461 C 0.06056 0.91023 0.6528 0.0
C462 C 0.06623 0.90242 0.63768 0.0
C463 C 0.08286 0.91648 0.62834 0.0
C464 C 0.09325 0.93885 0.63436 0.0
C465 C 0.08751 0.94667 0.64948 0.0
C466 C 0.0746 0.92267 0.68643 0.0
C467 C 0.09968 0.92337 0.69167 0.0
C468 C 0.10928 0.90417 0.70111 0.0
C469 C 0.09393 0.88375 0.70543 0.0
C470 C 0.06845 0.8837 0.70084 0.0
C471 C 0.05886 0.90291 0.69145 0.0
C472 C 0.04406 0.95468 0.67702 0.0
C473 C 0.01998 0.94435 0.6744 0.0
C474 C 0.99841 0.95937 0.67562 0.0
C475 C 0.00036 0.98534 0.67883 0.0
C476 C 0.02456 0.99553 0.68149 0.0
C477 C 0.04607 0.98028 0.68072 0.0
C478 C 0.90597 0.05718 0.66035 0.0
C479 C 0.8807 0.05647 0.65552 0.0
C480 C 0.87381 0.06527 0.6408 0.0
C481 C 0.89214 0.07506 0.63062 0.0
C482 C 0.91755 0.07533 0.63535 0.0
C483 C 0.92443 0.06649 0.65005 0.0
C484 C 0.90973 0.07041 0.68687 0.0
C485 C 0.92222 0.09348 0.68446 0.0
C486 C 0.91655 0.11437 0.69368 0.0
C487 C 0.89885 0.11258 0.70587 0.0
C488 C 0.88783 0.08891 0.70893 0.0
C489 C 0.89306 0.06816 0.69941 0.0
C490 C 0.93452 0.03389 0.67731 0.0
C491 C 0.9357 0.01172 0.66841 0.0
C492 C 0.95695 0.99622 0.66882 0.0
C493 C 0.97744 0.00181 0.67867 0.0
C494 C 0.97594 0.02352 0.68806 0.0
C495 C 0.9549 0.03946 0.68732 0.0
In496 In 0.32115 0.68086 0.00258 0.0
O497 O 0.31306 0.71925 0.01369 0.0
O498 O 0.34212 0.71719 0.99677 0.0
C499 C 0.27111 0.67236 0.99891 0.0
C500 C 0.33838 0.65548 0.02775 0.0
C501 C 0.34552 0.66319 0.97712 0.0
O502 O 0.2831 0.68808 0.99073 0.0
O503 O 0.28416 0.66177 0.00929 0.0
O504 O 0.32183 0.66487 0.97795 0.0
O505 O 0.35706 0.67024 0.9892 0.0
C506 C 0.3302 0.73069 0.00634 0.0
O507 O 0.33788 0.67918 0.02702 0.0
O508 O 0.33039 0.64446 0.01572 0.0
In509 In 0.32843 0.82704 0.24855 0.0
O510 O 0.32335 0.79093 0.23451 0.0
O511 O 0.34671 0.78898 0.2545 0.0
C512 C 0.27944 0.84027 0.25272 0.0
C513 C 0.34682 0.85145 0.22337 0.0
C514 C 0.35284 0.84007 0.27492 0.0
O515 O 0.28804 0.8191 0.25671 0.0
O516 O 0.29536 0.85452 0.24632 0.0
O517 O 0.3639 0.83894 0.26192 0.0
O518 O 0.32971 0.83439 0.27457 0.0
C519 C 0.33749 0.77762 0.24294 0.0
O520 O 0.3482 0.86059 0.2369 0.0
O521 O 0.33619 0.83025 0.22263 0.0
In522 In 0.17129 0.82695 0.50202 0.0
O523 O 0.13704 0.84166 0.51551 0.0
O524 O 0.17354 0.84682 0.52535 0.0
C525 C 0.14638 0.84568 0.47704 0.0
C526 C 0.16626 0.77792 0.51033 0.0
C527 C 0.22062 0.83584 0.49545 0.0
O528 O 0.16158 0.8586 0.48503 0.0
O529 O 0.14339 0.82342 0.4818 0.0
O530 O 0.20891 0.81702 0.49015 0.0
O531 O 0.20764 0.84972 0.50421 0.0
C532 C 0.15003 0.85002 0.52672 0.0
O533 O 0.17094 0.79523 0.51993 0.0
O534 O 0.16484 0.78514 0.49639 0.0
In535 In 0.17477 0.67436 0.75491 0.0
O536 O 0.14739 0.64585 0.76576 0.0
O537 O 0.16463 0.67294 0.78055 0.0
C538 C 0.1602 0.64892 0.72918 0.0
C539 C 0.2243 0.66709 0.76159 0.0
C540 C 0.16407 0.72378 0.75037 0.0
O541 O 0.1511 0.67001 0.73294 0.0
O542 O 0.17643 0.64036 0.73855 0.0
O543 O 0.18423 0.71376 0.74563 0.0
O544 O 0.14971 0.70908 0.75772 0.0
C545 C 0.15014 0.65417 0.77941 0.0
O546 O 0.20732 0.66872 0.77177 0.0
O547 O 0.21653 0.66978 0.74782 0.0
In548 In 0.82461 0.17454 0.50164 0.0
O549 O 0.81803 0.21436 0.51121 0.0
O550 O 0.85371 0.2062 0.50121 0.0
C551 C 0.77655 0.16037 0.49528 0.0
C552 C 0.83863 0.15244 0.52858 0.0
C553 C 0.84637 0.16089 0.47457 0.0
O554 O 0.7843 0.18261 0.49323 0.0
O555 O 0.79289 0.14552 0.50069 0.0
O556 O 0.84981 0.14895 0.48708 0.0
O557 O 0.83192 0.17972 0.47571 0.0
C558 C 0.83984 0.22222 0.50782 0.0
O559 O 0.85028 0.14897 0.51597 0.0
O560 O 0.81989 0.16704 0.5276 0.0
In561 In 0.8259 0.3299 0.74951 0.0
O562 O 0.84965 0.36028 0.73754 0.0
O563 O 0.83167 0.33285 0.72335 0.0
C564 C 0.84741 0.34258 0.77684 0.0
C565 C 0.8384 0.28131 0.74387 0.0
C566 C 0.77712 0.34441 0.75335 0.0
O567 O 0.85526 0.35094 0.76397 0.0
O568 O 0.82889 0.32768 0.77588 0.0
O569 O 0.78494 0.32275 0.75687 0.0
O570 O 0.79371 0.35857 0.74758 0.0
C571 C 0.84573 0.352 0.72399 0.0
O572 O 0.82113 0.29261 0.73659 0.0
O573 O 0.8492 0.2943 0.75419 0.0
In574 In 0.66717 0.33127 0.00162 0.0
O575 O 0.67513 0.28889 0.00261 0.0
O576 O 0.63956 0.30195 0.01077 0.0
C577 C 0.71683 0.34054 0.99639 0.0
C578 C 0.65328 0.3537 0.02838 0.0
C579 C 0.64347 0.34736 0.97544 0.0
O580 O 0.70542 0.32201 0.99049 0.0
O581 O 0.70337 0.35402 0.00512 0.0
O582 O 0.65464 0.36202 0.98467 0.0
O583 O 0.64399 0.32456 0.97946 0.0
C584 C 0.654 0.2834 0.00853 0.0
O585 O 0.64375 0.35953 0.0154 0.0
O586 O 0.66991 0.33666 0.02784 0.0
In587 In 0.6754 0.17446 0.25205 0.0
O588 O 0.65126 0.14729 0.26624 0.0
O589 O 0.66682 0.17909 0.27784 0.0
C590 C 0.66109 0.15346 0.22481 0.0
C591 C 0.72333 0.16054 0.25876 0.0
C592 C 0.66191 0.22275 0.24628 0.0
O593 O 0.64763 0.15246 0.2369 0.0
O594 O 0.68172 0.16503 0.22647 0.0
O595 O 0.68318 0.214 0.24249 0.0
O596 O 0.64764 0.20727 0.25305 0.0
C597 C 0.65352 0.15942 0.2788 0.0
O598 O 0.71544 0.18275 0.26072 0.0
O599 O 0.70716 0.14552 0.2533 0.0
C600 C 0.16455 0.90429 0.29444 0.0
C601 C 0.14042 0.89926 0.28849 0.0
C602 C 0.18622 0.8943 0.2874 0.0
C603 C 0.18375 0.87905 0.27397 0.0
C604 C 0.15948 0.87432 0.26769 0.0
C605 C 0.13805 0.88434 0.27509 0.0
C606 C 0.21173 0.89959 0.29458 0.0
C607 C 0.15615 0.85843 0.25327 0.0
C608 C 0.2444 0.87169 0.25092 0.0
C609 C 0.25356 0.84866 0.25658 0.0
C610 C 0.22102 0.88124 0.25587 0.0
C611 C 0.20666 0.86757 0.26689 0.0
C612 C 0.21536 0.84382 0.27216 0.0
C613 C 0.23865 0.83458 0.26686 0.0
C614 C 0.21221 0.90645 0.24981 0.0
C615 C 0.20069 0.82876 0.28401 0.0
H616 H 0.16645 0.91547 0.30494 0.0
H617 H 0.11942 0.88054 0.27042 0.0
H618 H 0.22073 0.88163 0.29818 0.0
H619 H 0.22435 0.90856 0.2859 0.0
H620 H 0.21042 0.91212 0.3049 0.0
H621 H 0.13613 0.85753 0.24943 0.0
H622 H 0.16773 0.86615 0.24363 0.0
H623 H 0.16289 0.83898 0.25551 0.0
H624 H 0.2558 0.88257 0.24289 0.0
H625 H 0.24566 0.81678 0.27128 0.0
H626 H 0.21281 0.92056 0.25932 0.0
H627 H 0.19236 0.9052 0.24575 0.0
H628 H 0.22414 0.91336 0.24007 0.0
H629 H 0.20028 0.83912 0.29522 0.0
H630 H 0.20909 0.80987 0.28605 0.0
H631 H 0.18085 0.82631 0.28016 0.0
C632 C 0.10633 0.64759 0.53696 0.0
C633 C 0.12422 0.63036 0.54264 0.0
C634 C 0.11378 0.67084 0.53066 0.0
C635 C 0.13978 0.6769 0.52977 0.0
C636 C 0.15798 0.65915 0.53478 0.0
C637 C 0.15 0.63622 0.54127 0.0
C638 C 0.09376 0.68932 0.52552 0.0
C639 C 0.1859 0.66477 0.53384 0.0
C640 C 0.15852 0.73239 0.5042 0.0
C641 C 0.16106 0.75171 0.51523 0.0
C642 C 0.15213 0.70777 0.50877 0.0
C643 C 0.1478 0.7025 0.52469 0.0
C644 C 0.15063 0.72191 0.53587 0.0
C645 C 0.15741 0.74621 0.53101 0.0
C646 C 0.14972 0.68747 0.49655 0.0
C647 C 0.14593 0.71715 0.55294 0.0
H648 H 0.0864 0.64308 0.53766 0.0
H649 H 0.16403 0.6233 0.54579 0.0
H650 H 0.09457 0.7064 0.53295 0.0
H651 H 0.09728 0.69541 0.51338 0.0
H652 H 0.07443 0.68125 0.52624 0.0
H653 H 0.19763 0.64804 0.53667 0.0
H654 H 0.19094 0.67143 0.52201 0.0
H655 H 0.19072 0.6801 0.5421 0.0
H656 H 0.16138 0.73656 0.49199 0.0
H657 H 0.15923 0.76109 0.53958 0.0
H658 H 0.13001 0.68039 0.49621 0.0
H659 H 0.16202 0.67126 0.49954 0.0
H660 H 0.15489 0.69434 0.48477 0.0
H661 H 0.1262 0.7107 0.55469 0.0
H662 H 0.14911 0.73424 0.56015 0.0
H663 H 0.15854 0.70196 0.5572 0.0
C664 C 0.3665 0.64771 0.79071 0.0
C665 C 0.37247 0.62193 0.79111 0.0
C666 C 0.3438 0.65625 0.78414 0.0
C667 C 0.3264 0.63859 0.77803 0.0
C668 C 0.33278 0.61269 0.77772 0.0
C669 C 0.3558 0.6047 0.78415 0.0
C670 C 0.33783 0.68407 0.78452 0.0
C671 C 0.31469 0.59323 0.77138 0.0
C672 C 0.25685 0.65479 0.78104 0.0
C673 C 0.25075 0.66101 0.76565 0.0
C674 C 0.2814 0.64757 0.78517 0.0
C675 C 0.30047 0.6468 0.77365 0.0
C676 C 0.2946 0.65353 0.75812 0.0
C677 C 0.26971 0.66043 0.75427 0.0
C678 C 0.2868 0.64036 0.80184 0.0
C679 C 0.31454 0.65325 0.74559 0.0
H680 H 0.37902 0.66122 0.79618 0.0
H681 H 0.36044 0.58482 0.78408 0.0
H682 H 0.33069 0.69045 0.77305 0.0
H683 H 0.32274 0.68767 0.79319 0.0
H684 H 0.35458 0.69559 0.78769 0.0
H685 H 0.32336 0.5742 0.77069 0.0
H686 H 0.29781 0.59214 0.779 0.0
H687 H 0.30807 0.59872 0.75962 0.0
H688 H 0.24227 0.65511 0.78989 0.0
H689 H 0.26508 0.66525 0.74236 0.0
H690 H 0.30184 0.65263 0.80668 0.0
H691 H 0.29379 0.62067 0.80236 0.0
H692 H 0.26983 0.64195 0.80938 0.0
H693 H 0.33065 0.66541 0.74903 0.0
H694 H 0.30714 0.65987 0.73421 0.0
H695 H 0.32201 0.63387 0.74413 0.0
C696 C 0.39931 0.84563 0.04413 0.0
C697 C 0.392 0.8699 0.03949 0.0
C698 C 0.38825 0.82413 0.03754 0.0
C699 C 0.36932 0.82688 0.02604 0.0
C700 C 0.36207 0.85128 0.02111 0.0
C701 C 0.37349 0.87252 0.02791 0.0
C702 C 0.3965 0.79843 0.04315 0.0
C703 C 0.34204 0.85493 0.00882 0.0
C704 C 0.35799 0.76806 0.00194 0.0
C705 C 0.33774 0.75692 0.00988 0.0
C706 C 0.36769 0.7915 0.00657 0.0
C707 C 0.3569 0.80406 0.01949 0.0
C708 C 0.33561 0.79351 0.02704 0.0
C709 C 0.32626 0.77006 0.02213 0.0
C710 C 0.39032 0.80217 0.99817 0.0
C711 C 0.32352 0.80636 0.04083 0.0
H712 H 0.41324 0.84341 0.05327 0.0
H713 H 0.36789 0.89121 0.02417 0.0
H714 H 0.38023 0.78841 0.04843 0.0
H715 H 0.40314 0.78691 0.03319 0.0
H716 H 0.41191 0.79953 0.05189 0.0
H717 H 0.3391 0.87512 0.00593 0.0
H718 H 0.34735 0.8447 0.99805 0.0
H719 H 0.32387 0.8469 0.01289 0.0
H720 H 0.36688 0.75804 0.99241 0.0
H721 H 0.31057 0.76157 0.0283 0.0
H722 H 0.40705 0.80151 0.00593 0.0
H723 H 0.38706 0.82221 0.9951 0.0
H724 H 0.39476 0.79154 0.98738 0.0
H725 H 0.33682 0.8062 0.0508 0.0
H726 H 0.30573 0.79695 0.04446 0.0
H727 H 0.31935 0.82635 0.03808 0.0
C728 C 0.17204 0.58785 0.96039 0.0
C729 C 0.14604 0.59183 0.96232 0.0
C730 C 0.18985 0.60349 0.96758 0.0
C731 C 0.18155 0.62385 0.9769 0.0
C732 C 0.15535 0.62813 0.97891 0.0
C733 C 0.13785 0.61206 0.97156 0.0
C734 C 0.21762 0.59828 0.96506 0.0
C735 C 0.14585 0.64965 0.98877 0.0
C736 C 0.23351 0.64523 0.00404 0.0
C737 C 0.24516 0.66404 0.99511 0.0
C738 C 0.21137 0.63335 0.99887 0.0
C739 C 0.2007 0.64041 0.98441 0.0
C740 C 0.21119 0.66084 0.97602 0.0
C741 C 0.23332 0.67245 0.98148 0.0
C742 C 0.20067 0.61182 0.00825 0.0
C743 C 0.20033 0.66906 0.9606 0.0
H744 H 0.17856 0.57268 0.95297 0.0
H745 H 0.1178 0.61522 0.97312 0.0
H746 H 0.22677 0.61484 0.95957 0.0
H747 H 0.22709 0.59505 0.9764 0.0
H748 H 0.2209 0.58156 0.95755 0.0
H749 H 0.1249 0.65041 0.98919 0.0
H750 H 0.15316 0.6478 0.00081 0.0
H751 H 0.15299 0.66779 0.98411 0.0
H752 H 0.24245 0.6388 0.01467 0.0
H753 H 0.24214 0.68709 0.97457 0.0
H754 H 0.20534 0.59373 0.00245 0.0
H755 H 0.1798 0.61314 0.00894 0.0
H756 H 0.20847 0.61134 0.02025 0.0
H757 H 0.205 0.65482 0.95159 0.0
H758 H 0.208 0.68755 0.95681 0.0
H759 H 0.17945 0.6704 0.96123 0.0
C760 C 0.36054 0.63493 0.21614 0.0
C761 C 0.38614 0.63141 0.21236 0.0
C762 C 0.35203 0.65742 0.22295 0.0
C763 C 0.36932 0.6773 0.22558 0.0
C764 C 0.39526 0.67364 0.22235 0.0
C765 C 0.4034 0.65062 0.21608 0.0
C766 C 0.32432 0.6603 0.22669 0.0
C767 C 0.41426 0.69453 0.22473 0.0
C768 C 0.34368 0.74393 0.22323 0.0
C769 C 0.3443 0.7515 0.23883 0.0
C770 C 0.35182 0.71984 0.2188 0.0
C771 C 0.36 0.70262 0.23033 0.0
C772 C 0.35984 0.70989 0.24618 0.0
C773 C 0.35241 0.73446 0.25023 0.0
C774 C 0.35231 0.71309 0.20173 0.0
C775 C 0.36759 0.69175 0.25884 0.0
H776 H 0.34682 0.62054 0.21323 0.0
H777 H 0.42332 0.64798 0.21373 0.0
H778 H 0.32182 0.66851 0.23846 0.0
H779 H 0.31544 0.67339 0.21825 0.0
H780 H 0.31412 0.64202 0.22617 0.0
H781 H 0.4339 0.68831 0.2223 0.0
H782 H 0.40968 0.71052 0.21691 0.0
H783 H 0.41335 0.70169 0.23683 0.0
H784 H 0.33763 0.75719 0.21439 0.0
H785 H 0.35276 0.7403 0.26231 0.0
H786 H 0.34011 0.69649 0.19954 0.0
H787 H 0.3718 0.70789 0.19823 0.0
H788 H 0.34578 0.72883 0.19423 0.0
H789 H 0.35653 0.67406 0.25786 0.0
H790 H 0.36476 0.69977 0.27065 0.0
H791 H 0.38778 0.6867 0.25749 0.0
C792 C 0.33875 0.89517 0.45389 0.0
C793 C 0.36257 0.88784 0.45942 0.0
C794 C 0.31652 0.88563 0.4605 0.0
C795 C 0.31808 0.86828 0.47297 0.0
C796 C 0.34204 0.86084 0.47867 0.0
C797 C 0.36402 0.87067 0.4718 0.0
C798 C 0.29134 0.89397 0.45403 0.0
C799 C 0.34443 0.8425 0.492 0.0
C800 C 0.25865 0.86346 0.49741 0.0
C801 C 0.24675 0.84235 0.49088 0.0
C802 C 0.2824 0.87149 0.49214 0.0
C803 C 0.29449 0.85815 0.47999 0.0
C804 C 0.28302 0.83623 0.47376 0.0
C805 C 0.25927 0.82856 0.47931 0.0
C806 C 0.29406 0.89486 0.49914 0.0
C807 C 0.29532 0.8215 0.46079 0.0
H808 H 0.33747 0.90803 0.44414 0.0
H809 H 0.38237 0.86506 0.47619 0.0
H810 H 0.28063 0.87739 0.44976 0.0
H811 H 0.2799 0.90287 0.46334 0.0
H812 H 0.2934 0.90762 0.44433 0.0
H813 H 0.36444 0.83865 0.49508 0.0
H814 H 0.33463 0.85004 0.50241 0.0
H815 H 0.33514 0.82442 0.48894 0.0
H816 H 0.24911 0.87414 0.50641 0.0
H817 H 0.25017 0.81221 0.47423 0.0
H818 H 0.29466 0.91005 0.49029 0.0
H819 H 0.3138 0.89107 0.50277 0.0
H820 H 0.28331 0.90181 0.50937 0.0
H821 H 0.29605 0.83324 0.45013 0.0
H822 H 0.28495 0.80384 0.45808 0.0
H823 H 0.31506 0.81668 0.46392 0.0
C824 C 0.09934 0.83725 0.70831 0.0
C825 C 0.10486 0.86163 0.7136 0.0
C826 C 0.11012 0.81602 0.71537 0.0
C827 C 0.12679 0.81919 0.7281 0.0
C828 C 0.13233 0.84374 0.73359 0.0
C829 C 0.12138 0.86471 0.72621 0.0
C830 C 0.10388 0.79018 0.70906 0.0
C831 C 0.14982 0.84782 0.74723 0.0
C832 C 0.13445 0.76023 0.75257 0.0
C833 C 0.15655 0.7498 0.74631 0.0
C834 C 0.12528 0.78356 0.74736 0.0
C835 C 0.13839 0.79662 0.73549 0.0
C836 C 0.16135 0.78673 0.72965 0.0
C837 C 0.17023 0.76347 0.73519 0.0
C838 C 0.10089 0.79361 0.75401 0.0
C839 C 0.17582 0.80002 0.71695 0.0
H840 H 0.08695 0.83477 0.69838 0.0
H841 H 0.1256 0.88353 0.73038 0.0
H842 H 0.12143 0.7806 0.70522 0.0
H843 H 0.09533 0.77842 0.71833 0.0
H844 H 0.09058 0.79098 0.69907 0.0
H845 H 0.15191 0.86807 0.75023 0.0
H846 H 0.1426 0.83761 0.75757 0.0
H847 H 0.16877 0.84001 0.74456 0.0
H848 H 0.12389 0.74981 0.76124 0.0
H849 H 0.18733 0.75549 0.73031 0.0
H850 H 0.08587 0.79271 0.74502 0.0
H851 H 0.10307 0.81366 0.7574 0.0
H852 H 0.09454 0.7827 0.76431 0.0
H853 H 0.16466 0.79961 0.70602 0.0
H854 H 0.19446 0.79111 0.7147 0.0
H855 H 0.17887 0.82009 0.72003 0.0
C856 C 0.66106 0.40846 0.79394 0.0
C857 C 0.63721 0.40398 0.78742 0.0
C858 C 0.68297 0.39854 0.78716 0.0
C859 C 0.68105 0.38397 0.77342 0.0
C860 C 0.65708 0.37984 0.76656 0.0
C861 C 0.63538 0.38975 0.77372 0.0
C862 C 0.70814 0.40312 0.79496 0.0
C863 C 0.65435 0.36471 0.75179 0.0
C864 C 0.74287 0.37668 0.75154 0.0
C865 C 0.75128 0.3532 0.75693 0.0
C866 C 0.71939 0.3864 0.75618 0.0
C867 C 0.70418 0.37246 0.76663 0.0
C868 C 0.71219 0.34833 0.77164 0.0
C869 C 0.73558 0.33892 0.76664 0.0
C870 C 0.71133 0.41203 0.7504 0.0
C871 C 0.69663 0.33297 0.7829 0.0
H872 H 0.66251 0.41909 0.80467 0.0
H873 H 0.61696 0.38637 0.76862 0.0
H874 H 0.71668 0.38488 0.79844 0.0
H875 H 0.72136 0.41229 0.78672 0.0
H876 H 0.70642 0.4152 0.80546 0.0
H877 H 0.63456 0.36435 0.74749 0.0
H878 H 0.66663 0.37266 0.74256 0.0
H879 H 0.66062 0.34504 0.75383 0.0
H880 H 0.75489 0.38772 0.74395 0.0
H881 H 0.74202 0.32077 0.77085 0.0
H882 H 0.71155 0.42567 0.76018 0.0
H883 H 0.69172 0.41129 0.74588 0.0
H884 H 0.72393 0.41922 0.74108 0.0
H885 H 0.69568 0.34285 0.79427 0.0
H886 H 0.70465 0.31388 0.78482 0.0
H887 H 0.677 0.33096 0.77858 0.0
C888 C 0.63651 0.14842 0.04681 0.0
C889 C 0.6158 0.13503 0.04094 0.0
C890 C 0.64298 0.17212 0.04081 0.0
C891 C 0.62871 0.18239 0.0284 0.0
C892 C 0.60827 0.1685 0.02208 0.0
C893 C 0.60181 0.1451 0.0286 0.0
C894 C 0.66452 0.18655 0.04812 0.0
C895 C 0.59301 0.17855 0.00861 0.0
C896 C 0.62812 0.25359 0.02422 0.0
C897 C 0.64697 0.25749 0.01304 0.0
C898 C 0.62192 0.22922 0.02925 0.0
C899 C 0.63442 0.20821 0.02264 0.0
C900 C 0.65299 0.21201 0.01101 0.0
C901 C 0.6593 0.23667 0.0065 0.0
C902 C 0.60246 0.22603 0.04194 0.0
C903 C 0.66628 0.19005 0.00343 0.0
H904 H 0.64712 0.14069 0.05649 0.0
H905 H 0.58584 0.13463 0.02406 0.0
H906 H 0.67876 0.19152 0.03918 0.0
H907 H 0.65735 0.20446 0.05311 0.0
H908 H 0.67401 0.17569 0.0575 0.0
H909 H 0.57908 0.16458 0.00425 0.0
H910 H 0.5827 0.19576 0.01225 0.0
H911 H 0.60571 0.18397 0.99891 0.0
H912 H 0.61867 0.26968 0.02937 0.0
H913 H 0.67377 0.23966 0.99778 0.0
H914 H 0.61113 0.21648 0.0521 0.0
H915 H 0.58679 0.21389 0.03779 0.0
H916 H 0.59445 0.24431 0.04584 0.0
H917 H 0.67761 0.17973 0.01222 0.0
H918 H 0.67902 0.19611 0.99388 0.0
H919 H 0.65221 0.1766 0.99867 0.0
C920 C 0.86676 0.12055 0.27797 0.0
C921 C 0.86726 0.10973 0.29285 0.0
C922 C 0.84395 0.12874 0.27132 0.0
C923 C 0.82118 0.12625 0.27982 0.0
C924 C 0.82156 0.1151 0.29477 0.0
C925 C 0.84457 0.10693 0.30108 0.0
C926 C 0.84423 0.14031 0.25528 0.0
C927 C 0.79772 0.11226 0.30425 0.0
C928 C 0.76524 0.1688 0.27117 0.0
C929 C 0.74908 0.1524 0.26315 0.0
C930 C 0.78906 0.16072 0.27633 0.0
C931 C 0.79694 0.13569 0.27329 0.0
C932 C 0.78101 0.1193 0.26477 0.0
C933 C 0.75721 0.12783 0.25985 0.0
C934 C 0.80546 0.17872 0.28545 0.0
C935 C 0.78881 0.09256 0.2612 0.0
H936 H 0.88423 0.12258 0.27153 0.0
H937 H 0.84489 0.09898 0.31269 0.0
H938 H 0.83111 0.12995 0.24751 0.0
H939 H 0.83751 0.16008 0.25588 0.0
H940 H 0.86337 0.14014 0.25 0.0
H941 H 0.80119 0.10278 0.31557 0.0
H942 H 0.78937 0.13107 0.30654 0.0
H943 H 0.78353 0.10118 0.29767 0.0
H944 H 0.75903 0.18782 0.27375 0.0
H945 H 0.74483 0.1151 0.25359 0.0
H946 H 0.8244 0.18017 0.28002 0.0
H947 H 0.80821 0.17143 0.29743 0.0
H948 H 0.79711 0.19788 0.28619 0.0
H949 H 0.80758 0.09234 0.25547 0.0
H950 H 0.77502 0.08278 0.25355 0.0
H951 H 0.7906 0.08174 0.27218 0.0
C952 C 0.88711 0.36284 0.52866 0.0
C953 C 0.90324 0.36089 0.54155 0.0
C954 C 0.87604 0.34127 0.52203 0.0
C955 C 0.88096 0.3173 0.5286 0.0
C956 C 0.89727 0.31527 0.5416 0.0
C957 C 0.90827 0.33706 0.54786 0.0
C958 C 0.85903 0.34413 0.50805 0.0
C959 C 0.9028 0.2901 0.54906 0.0
C960 C 0.8357 0.26256 0.52266 0.0
C961 C 0.84906 0.24763 0.51203 0.0
C962 C 0.8455 0.28569 0.52782 0.0
C963 C 0.86906 0.29421 0.52204 0.0
C964 C 0.88209 0.2797 0.5108 0.0
C965 C 0.87202 0.25649 0.50601 0.0
C966 C 0.83117 0.30051 0.53993 0.0
C967 C 0.90707 0.28828 0.5042 0.0
H968 H 0.88327 0.38123 0.52371 0.0
H969 H 0.92037 0.33551 0.55799 0.0
H970 H 0.86625 0.33251 0.49829 0.0
H971 H 0.83981 0.33716 0.51086 0.0
H972 H 0.85758 0.36401 0.50412 0.0
H973 H 0.91585 0.29178 0.55913 0.0
H974 H 0.88495 0.28131 0.5531 0.0
H975 H 0.91135 0.27715 0.54041 0.0
H976 H 0.81796 0.25576 0.52735 0.0
H977 H 0.88234 0.24508 0.49771 0.0
H978 H 0.82834 0.3202 0.53598 0.0
H979 H 0.84231 0.30126 0.55086 0.0
H980 H 0.81243 0.29209 0.54254 0.0
H981 H 0.90554 0.30788 0.49982 0.0
H982 H 0.91367 0.27597 0.49457 0.0
H983 H 0.92161 0.28824 0.5135 0.0
C984 C 0.63411 0.1171 0.47546 0.0
C985 C 0.6342 0.10609 0.46062 0.0
C986 C 0.65653 0.12616 0.48221 0.0
C987 C 0.67951 0.12434 0.47386 0.0
C988 C 0.67971 0.11308 0.45892 0.0
C989 C 0.65709 0.10408 0.45251 0.0
C990 C 0.65562 0.13783 0.49821 0.0
C991 C 0.70378 0.11092 0.4496 0.0
C992 C 0.73451 0.16802 0.48284 0.0
C993 C 0.75087 0.15192 0.49092 0.0
C994 C 0.71087 0.1595 0.47759 0.0
C995 C 0.70341 0.13433 0.48058 0.0
C996 C 0.71951 0.11827 0.4892 0.0
C997 C 0.74309 0.12723 0.49422 0.0
C998 C 0.69426 0.17717 0.46838 0.0
C999 C 0.71217 0.09138 0.49273 0.0
H1000 H 0.6165 0.11856 0.48181 0.0
H1001 H 0.65722 0.09601 0.44093 0.0
H1002 H 0.66871 0.12775 0.50613 0.0
H1003 H 0.66202 0.15772 0.49764 0.0
H1004 H 0.63635 0.13736 0.5033 0.0
H1005 H 0.70077 0.10144 0.43822 0.0
H1006 H 0.71172 0.12995 0.44744 0.0
H1007 H 0.71812 0.10014 0.45625 0.0
H1008 H 0.74043 0.18712 0.48026 0.0
H1009 H 0.75562 0.11472 0.50053 0.0
H1010 H 0.67515 0.17811 0.47363 0.0
H1011 H 0.69201 0.16993 0.45635 0.0
H1012 H 0.70217 0.19654 0.46779 0.0
H1013 H 0.69328 0.09078 0.49829 0.0
H1014 H 0.72598 0.08191 0.50051 0.0
H1015 H 0.71087 0.0805 0.48174 0.0
C1016 C 0.9075 0.15587 0.71675 0.0
C1017 C 0.89071 0.13568 0.71448 0.0
C1018 C 0.89914 0.17903 0.72272 0.0
C1019 C 0.87356 0.18185 0.72714 0.0
C1020 C 0.85691 0.16108 0.72597 0.0
C1021 C 0.86554 0.13843 0.71942 0.0
C1022 C 0.9174 0.20086 0.72351 0.0
C1023 C 0.82967 0.16309 0.73102 0.0
C1024 C 0.85711 0.23976 0.7512 0.0
C1025 C 0.84643 0.25551 0.7399 0.0
C1026 C 0.86536 0.21537 0.74735 0.0
C1027 C 0.86375 0.20706 0.73172 0.0
C1028 C 0.85311 0.22305 0.72027 0.0
C1029 C 0.84416 0.24692 0.72457 0.0
C1030 C 0.87572 0.19852 0.75996 0.0
C1031 C 0.8517 0.2152 0.70341 0.0
H1032 H 0.92714 0.15387 0.71348 0.0
H1033 H 0.85216 0.12328 0.71762 0.0
H1034 H 0.91103 0.21602 0.71554 0.0
H1035 H 0.9178 0.20891 0.73541 0.0
H1036 H 0.93691 0.19531 0.72023 0.0
H1037 H 0.82026 0.1444 0.73148 0.0
H1038 H 0.82836 0.17204 0.74266 0.0
H1039 H 0.81916 0.1752 0.72274 0.0
H1040 H 0.85871 0.2464 0.76308 0.0
H1041 H 0.83612 0.25923 0.71581 0.0
H1042 H 0.89581 0.19407 0.75758 0.0
H1043 H 0.86528 0.18039 0.7601 0.0
H1044 H 0.87437 0.2073 0.77166 0.0
H1045 H 0.87087 0.21054 0.69906 0.0
H1046 H 0.84354 0.23015 0.69589 0.0
H1047 H 0.83998 0.19799 0.70222 0.0
C1048 C 0.8405 0.39019 0.95567 0.0
C1049 C 0.86332 0.38512 0.96338 0.0
C1050 C 0.81724 0.38309 0.96211 0.0
C1051 C 0.8167 0.37027 0.97653 0.0
C1052 C 0.83957 0.36537 0.98451 0.0
C1053 C 0.8626 0.37296 0.97788 0.0
C1054 C 0.79325 0.38883 0.95328 0.0
C1055 C 0.83973 0.35168 -0.0001 0.0
C1056 C 0.75357 0.37002 0.99747 0.0
C1057 C 0.74328 0.347 0.99255 0.0
C1058 C 0.77781 0.37752 0.99274 0.0
C1059 C 0.79214 0.36151 0.98298 0.0
C1060 C 0.78223 0.3378 0.97849 0.0
C1061 C 0.75785 0.33088 0.98327 0.0
C1062 C 0.78764 0.40301 0.99769 0.0
C1063 C 0.79705 0.3201 0.96821 0.0
H1064 H 0.84079 0.39909 0.94434 0.0
H1065 H 0.88008 0.36922 0.98402 0.0
H1066 H 0.78377 0.37099 0.94993 0.0
H1067 H 0.77995 0.39946 0.96078 0.0
H1068 H 0.79682 0.39999 0.94257 0.0
H1069 H 0.85905 0.3499 0.00482 0.0
H1070 H 0.82766 0.36173 0.00842 0.0
H1071 H 0.83169 0.33252 0.9984 0.0
H1072 H 0.74239 0.38257 0.00464 0.0
H1073 H 0.75001 0.31302 0.9795 0.0
H1074 H 0.78957 0.41534 0.98734 0.0
H1075 H 0.80666 0.40114 0.00296 0.0
H1076 H 0.77495 0.41241 0.00618 0.0
H1077 H 0.7996 0.32868 0.95656 0.0
H1078 H 0.78751 0.3016 0.96676 0.0
H1079 H 0.81614 0.31688 0.97315 0.0
C1080 C 0.59829 0.34152 0.20794 0.0
C1081 C 0.60476 0.36497 0.21432 0.0
C1082 C 0.60822 0.31911 0.21401 0.0
C1083 C 0.62487 0.32013 0.22688 0.0
C1084 C 0.63118 0.34372 0.23355 0.0
C1085 C 0.62119 0.36592 0.22709 0.0
C1086 C 0.60125 0.29437 0.20644 0.0
C1087 C 0.64858 0.34549 0.24741 0.0
C1088 C 0.63142 0.25841 0.24877 0.0
C1089 C 0.65375 0.24863 0.24241 0.0
C1090 C 0.62239 0.28221 0.24435 0.0
C1091 C 0.63582 0.29639 0.23313 0.0
C1092 C 0.65877 0.28692 0.22701 0.0
C1093 C 0.66755 0.2632 0.23181 0.0
C1094 C 0.59803 0.2918 0.25129 0.0
C1095 C 0.6735 0.30135 0.2149 0.0
H1096 H 0.58595 0.34074 0.19789 0.0
H1097 H 0.62614 0.38404 0.23206 0.0
H1098 H 0.61853 0.28482 0.20214 0.0
H1099 H 0.59234 0.28168 0.2151 0.0
H1100 H 0.58801 0.29685 0.19654 0.0
H1101 H 0.65096 0.36519 0.25153 0.0
H1102 H 0.64109 0.33393 0.25712 0.0
H1103 H 0.66743 0.3378 0.24437 0.0
H1104 H 0.62078 0.24728 0.25706 0.0
H1105 H 0.68481 0.2557 0.22686 0.0
H1106 H 0.58324 0.29263 0.24216 0.0
H1107 H 0.60061 0.31122 0.25581 0.0
H1108 H 0.59114 0.27961 0.26089 0.0
H1109 H 0.66213 0.30293 0.2041 0.0
H1110 H 0.69174 0.29212 0.21202 0.0
H1111 H 0.67737 0.32078 0.21902 0.0
C1112 C 0.07307 0.90061 0.40226 0.0
C1113 C 0.08944 0.89934 0.38946 0.0
C1114 C 0.08079 0.89226 0.41702 0.0
C1115 C 0.10536 0.88221 0.41896 0.0
C1116 C 0.12187 0.8807 0.40605 0.0
C1117 C 0.11374 0.88935 0.39148 0.0
C1118 C 0.06276 0.89438 0.43055 0.0
C1119 C 0.14814 0.86989 0.40761 0.0
C1120 C 0.13714 0.88079 0.45855 0.0
C1121 C 0.13416 0.85547 0.46281 0.0
C1122 C 0.12713 0.88996 0.44453 0.0
C1123 C 0.11402 0.87333 0.43449 0.0
C1124 C 0.11041 0.84789 0.43892 0.0
C1125 C 0.12045 0.83928 0.45306 0.0
C1126 C 0.13118 0.91726 0.44028 0.0
C1127 C 0.09665 0.82957 0.42848 0.0
H1128 H 0.05435 0.90852 0.40076 0.0
H1129 H 0.12632 0.88801 0.38157 0.0
H1130 H 0.05943 0.87551 0.43571 0.0
H1131 H 0.07117 0.90638 0.43977 0.0
H1132 H 0.04428 0.90256 0.42709 0.0
H1133 H 0.15852 0.86979 0.39639 0.0
H1134 H 0.15916 0.88101 0.41617 0.0
H1135 H 0.14709 0.85028 0.41204 0.0
H1136 H 0.14764 0.89341 0.46607 0.0
H1137 H 0.11811 0.81968 0.4563 0.0
H1138 H 0.11288 0.9263 0.43737 0.0
H1139 H 0.14332 0.91851 0.42979 0.0
H1140 H 0.14027 0.9281 0.44981 0.0
H1141 H 0.07772 0.83703 0.42544 0.0
H1142 H 0.09433 0.81076 0.43397 0.0
H1143 H 0.10726 0.82721 0.41745 0.0
C1144 C 0.10883 0.57444 0.65428 0.0
C1145 C 0.12422 0.57969 0.64141 0.0
C1146 C 0.11436 0.5845 0.669 0.0
C1147 C 0.13568 0.60032 0.67084 0.0
C1148 C 0.15143 0.60547 0.65793 0.0
C1149 C 0.14555 0.59503 0.64337 0.0
C1150 C 0.09725 0.57841 0.68253 0.0
C1151 C 0.1742 0.62244 0.6594 0.0
C1152 C 0.13661 0.64746 0.70406 0.0
C1153 C 0.15306 0.63584 0.71464 0.0
C1154 C 0.13057 0.63595 0.68985 0.0
C1155 C 0.14112 0.61217 0.68617 0.0
C1156 C 0.15735 0.60012 0.69694 0.0
C1157 C 0.16319 0.61214 0.71104 0.0
C1158 C 0.11325 0.64945 0.67864 0.0
C1159 C 0.16882 0.57469 0.69345 0.0
H1160 H 0.09248 0.56236 0.65284 0.0
H1161 H 0.15732 0.59938 0.63342 0.0
H1162 H 0.10838 0.57006 0.69217 0.0
H1163 H 0.08852 0.59596 0.68703 0.0
H1164 H 0.08195 0.56508 0.67927 0.0
H1165 H 0.18487 0.62404 0.64832 0.0
H1166 H 0.16815 0.64157 0.66304 0.0
H1167 H 0.18711 0.61517 0.66852 0.0
H1168 H 0.12874 0.66579 0.70677 0.0
H1169 H 0.17588 0.60307 0.7192 0.0
H1170 H 0.09681 0.63735 0.67577 0.0
H1171 H 0.12341 0.65331 0.66761 0.0
H1172 H 0.10619 0.66759 0.68341 0.0
H1173 H 0.15373 0.56085 0.69076 0.0
H1174 H 0.18025 0.5674 0.70331 0.0
H1175 H 0.1811 0.57604 0.68304 0.0
C1176 C 0.41672 0.60293 0.90356 0.0
C1177 C 0.41709 0.6203 0.89125 0.0
C1178 C 0.4059 0.60915 0.91796 0.0
C1179 C 0.3954 0.63341 0.92017 0.0
C1180 C 0.39614 0.6512 0.90792 0.0
C1181 C 0.40684 0.6444 0.8936 0.0
C1182 C 0.40536 0.58964 0.93073 0.0
C1183 C 0.38523 0.6773 0.90985 0.0
C1184 C 0.34477 0.64344 0.95079 0.0
C1185 C 0.35859 0.65449 0.96292 0.0
C1186 C 0.35664 0.63599 0.93695 0.0
C1187 C 0.3829 0.63999 0.93513 0.0
C1188 C 0.39701 0.65089 0.9474 0.0
C1189 C 0.38469 0.65788 0.96121 0.0
C1190 C 0.341 0.62412 0.92421 0.0
C1191 C 0.425 0.65568 0.94581 0.0
H1192 H 0.42495 0.58442 0.90195 0.0
H1193 H 0.40668 0.65783 0.88411 0.0
H1194 H 0.4149 0.59703 0.94128 0.0
H1195 H 0.38551 0.58545 0.93398 0.0
H1196 H 0.4147 0.57177 0.92724 0.0
H1197 H 0.38838 0.6893 0.89945 0.0
H1198 H 0.36462 0.67602 0.91201 0.0
H1199 H 0.39381 0.68671 0.9201 0.0
H1200 H 0.32459 0.64068 0.9521 0.0
H1201 H 0.39542 0.66649 0.97054 0.0
H1202 H 0.34907 0.60558 0.92093 0.0
H1203 H 0.34143 0.6362 0.91369 0.0
H1204 H 0.321 0.62135 0.92773 0.0
H1205 H 0.43498 0.63789 0.94297 0.0
H1206 H 0.43336 0.66371 0.95658 0.0
H1207 H 0.42846 0.66897 0.93608 0.0
C1208 C 0.37809 0.92528 0.14479 0.0
C1209 C 0.40275 0.92032 0.13967 0.0
C1210 C 0.36932 0.91583 0.15904 0.0
C1211 C 0.38558 0.90102 0.16838 0.0
C1212 C 0.41076 0.89669 0.16355 0.0
C1213 C 0.41904 0.90642 0.14926 0.0
C1214 C 0.34234 0.92086 0.1638 0.0
C1215 C 0.42869 0.88105 0.17321 0.0
C1216 C 0.36775 0.88834 0.21053 0.0
C1217 C 0.35681 0.86434 0.20943 0.0
C1218 C 0.3772 0.9006 0.19727 0.0
C1219 C 0.3757 0.8885 0.18261 0.0
C1220 C 0.36471 0.86425 0.18147 0.0
C1221 C 0.35538 0.8525 0.19488 0.0
C1222 C 0.38875 0.92647 0.19891 0.0
C1223 C 0.36282 0.85068 0.16606 0.0
H1224 H 0.3653 0.93577 0.13738 0.0
H1225 H 0.43825 0.90286 0.14549 0.0
H1226 H 0.33154 0.90295 0.16376 0.0
H1227 H 0.34168 0.92846 0.17582 0.0
H1228 H 0.33279 0.93439 0.15589 0.0
H1229 H 0.44812 0.88088 0.16834 0.0
H1230 H 0.42948 0.88836 0.18529 0.0
H1231 H 0.42173 0.86135 0.17382 0.0
H1232 H 0.36888 0.89757 0.22176 0.0
H1233 H 0.34698 0.83393 0.19396 0.0
H1234 H 0.37835 0.94013 0.19154 0.0
H1235 H 0.40859 0.92618 0.19478 0.0
H1236 H 0.38847 0.9333 0.21113 0.0
H1237 H 0.35169 0.86213 0.15772 0.0
H1238 H 0.35377 0.83188 0.16717 0.0
H1239 H 0.38193 0.84816 0.16101 0.0
C1240 C 0.11866 0.56416 0.85016 0.0
C1241 C 0.10182 0.57448 0.86106 0.0
C1242 C 0.12467 0.577 0.8364 0.0
C1243 C 0.11304 0.60043 0.83318 0.0
C1244 C 0.09503 0.61035 0.84368 0.0
C1245 C 0.08989 0.59745 0.85758 0.0
C1246 C 0.14426 0.56595 0.8256 0.0
C1247 C 0.08183 0.63503 0.84049 0.0
C1248 C 0.14968 0.64613 0.80791 0.0
C1249 C 0.13917 0.64171 0.7932 0.0
C1250 C 0.14115 0.63297 0.82102 0.0
C1251 C 0.1212 0.61539 0.81945 0.0
C1252 C 0.10988 0.61151 0.80471 0.0
C1253 C 0.11924 0.6245 0.79169 0.0
C1254 C 0.15407 0.6373 0.83646 0.0
C1255 C 0.08814 0.5934 0.80267 0.0
H1256 H 0.12751 0.54615 0.85248 0.0
H1257 H 0.0771 0.60586 0.86592 0.0
H1258 H 0.13645 0.56408 0.81369 0.0
H1259 H 0.16075 0.57881 0.82489 0.0
H1260 H 0.15095 0.54716 0.82953 0.0
H1261 H 0.06623 0.63865 0.84883 0.0
H1262 H 0.09558 0.65074 0.84134 0.0
H1263 H 0.07403 0.6352 0.82851 0.0
H1264 H 0.16522 0.6593 0.8091 0.0
H1265 H 0.11103 0.62114 0.78032 0.0
H1266 H 0.16257 0.61942 0.84063 0.0
H1267 H 0.1401 0.64338 0.84531 0.0
H1268 H 0.16917 0.65179 0.83573 0.0
H1269 H 0.09452 0.57391 0.80516 0.0
H1270 H 0.08022 0.59394 0.79071 0.0
H1271 H 0.07287 0.59789 0.81106 0.0
C1272 C 0.35809 0.59302 0.11092 0.0
C1273 C 0.38177 0.5815 0.1127 0.0
C1274 C 0.35087 0.60386 0.09671 0.0
C1275 C 0.36786 0.60348 0.08401 0.0
C1276 C 0.39162 0.59156 0.08562 0.0
C1277 C 0.39822 0.58058 0.09991 0.0
C1278 C 0.32527 0.61623 0.09541 0.0
C1279 C 0.4103 0.59089 0.07236 0.0
C1280 C 0.34185 0.61606 0.04352 0.0
C1281 C 0.34684 0.64185 0.04179 0.0
C1282 C 0.3487 0.60324 0.05718 0.0
C1283 C 0.36114 0.61649 0.06926 0.0
C1284 C 0.3667 0.64241 0.06741 0.0
C1285 C 0.35932 0.65482 0.05374 0.0
C1286 C 0.34218 0.57567 0.05881 0.0
C1287 C 0.38024 0.65712 0.07993 0.0
H1288 H 0.34537 0.59419 0.12076 0.0
H1289 H 0.41637 0.57134 0.10107 0.0
H1290 H 0.32762 0.63674 0.09338 0.0
H1291 H 0.3148 0.60846 0.0853 0.0
H1292 H 0.31366 0.61353 0.10604 0.0
H1293 H 0.42772 0.5803 0.07537 0.0
H1294 H 0.40155 0.58207 0.06198 0.0
H1295 H 0.41566 0.61039 0.06909 0.0
H1296 H 0.33211 0.60599 0.03433 0.0
H1297 H 0.3633 0.67474 0.05241 0.0
H1298 H 0.3293 0.57299 0.06885 0.0
H1299 H 0.35949 0.56455 0.0612 0.0
H1300 H 0.33294 0.56799 0.04823 0.0
H1301 H 0.36876 0.65727 0.09072 0.0
H1302 H 0.38401 0.67691 0.07643 0.0
H1303 H 0.39849 0.64792 0.08277 0.0
C1304 C 0.40789 0.90838 0.34999 0.0
C1305 C 0.41929 0.89165 0.36048 0.0
C1306 C 0.39878 0.89998 0.33556 0.0
C1307 C 0.40108 0.87421 0.33155 0.0
C1308 C 0.41332 0.85739 0.34186 0.0
C1309 C 0.4223 0.86632 0.35621 0.0
C1310 C 0.38597 0.91854 0.32484 0.0
C1311 C 0.41608 0.82977 0.338 0.0
C1312 C 0.35225 0.84831 0.30347 0.0
C1313 C 0.36565 0.84796 0.28941 0.0
C1314 C 0.3637 0.8565 0.31728 0.0
C1315 C 0.38917 0.86461 0.31703 0.0
C1316 C 0.40291 0.86403 0.30291 0.0
C1317 C 0.39097 0.85568 0.28925 0.0
C1318 C 0.34842 0.85678 0.33211 0.0
C1319 C 0.43009 0.87255 0.30221 0.0
H1320 H 0.40586 0.92806 0.35314 0.0
H1321 H 0.43087 0.85324 0.36433 0.0
H1322 H 0.39466 0.91779 0.31311 0.0
H1323 H 0.36577 0.91343 0.3235 0.0
H1324 H 0.38713 0.93819 0.32924 0.0
H1325 H 0.42771 0.81957 0.34672 0.0
H1326 H 0.39715 0.82084 0.33751 0.0
H1327 H 0.42486 0.82743 0.32638 0.0
H1328 H 0.33268 0.84233 0.30368 0.0
H1329 H 0.4014 0.85545 0.2784 0.0
H1330 H 0.34699 0.87632 0.33661 0.0
H1331 H 0.35799 0.84536 0.34117 0.0
H1332 H 0.32902 0.84927 0.33041 0.0
H1333 H 0.43144 0.89267 0.30563 0.0
H1334 H 0.43833 0.87031 0.29041 0.0
H1335 H 0.44165 0.86162 0.3106 0.0
C1336 C 0.09265 0.92415 0.60016 0.0
C1337 C 0.09022 0.90731 0.61265 0.0
C1338 C 0.10097 0.91585 0.58552 0.0
C1339 C 0.10696 0.8901 0.58333 0.0
C1340 C 0.10395 0.87291 0.59578 0.0
C1341 C 0.09567 0.88173 0.61028 0.0
C1342 C 0.10391 0.93472 0.57251 0.0
C1343 C 0.11019 0.8453 0.59391 0.0
C1344 C 0.11248 0.86239 0.54269 0.0
C1345 C 0.13875 0.86163 0.54072 0.0
C1346 C 0.10177 0.87209 0.55638 0.0
C1347 C 0.11775 0.88128 0.56832 0.0
C1348 C 0.14426 0.8811 0.56621 0.0
C1349 C 0.15443 0.87124 0.55245 0.0
C1350 C 0.07342 0.87195 0.55824 0.0
C1351 C 0.16193 0.89083 0.57864 0.0
H1352 H 0.08814 0.94388 0.60185 0.0
H1353 H 0.09419 0.86865 0.61991 0.0
H1354 H 0.12407 0.93604 0.5691 0.0
H1355 H 0.09323 0.92841 0.56211 0.0
H1356 H 0.0972 0.9538 0.57586 0.0
H1357 H 0.10544 0.83417 0.60445 0.0
H1358 H 0.09978 0.8373 0.58385 0.0
H1359 H 0.13065 0.84307 0.59148 0.0
H1360 H 0.10029 0.85498 0.53364 0.0
H1361 H 0.17476 0.87078 0.55096 0.0
H1362 H 0.06657 0.89114 0.56114 0.0
H1363 H 0.06809 0.85944 0.56804 0.0
H1364 H 0.0636 0.86535 0.54758 0.0
H1365 H 0.15695 0.9105 0.58174 0.0
H1366 H 0.18201 0.89033 0.57491 0.0
H1367 H 0.15993 0.87929 0.58933 0.0
C1368 C 0.56927 0.39766 0.89993 0.0
C1369 C 0.58616 0.39874 0.88738 0.0
C1370 C 0.57714 0.38898 0.91459 0.0
C1371 C 0.60248 0.38119 0.91671 0.0
C1372 C 0.61952 0.38196 0.90404 0.0
C1373 C 0.61115 0.39069 0.88955 0.0
C1374 C 0.55846 0.38846 0.92784 0.0
C1375 C 0.64667 0.37371 0.90583 0.0
C1376 C 0.63203 0.38176 0.95694 0.0
C1377 C 0.63161 0.35612 0.96085 0.0
C1378 C 0.62205 0.39025 0.94276 0.0
C1379 C 0.61144 0.37266 0.93224 0.0
C1380 C 0.61047 0.34681 0.93627 0.0
C1381 C 0.62057 0.33885 0.95055 0.0
C1382 C 0.62341 0.41797 0.93888 0.0
C1383 C 0.59929 0.32751 0.92535 0.0
H1384 H 0.55 0.40406 0.89837 0.0
H1385 H 0.62419 0.39108 0.87983 0.0
H1386 H 0.55722 0.36917 0.93274 0.0
H1387 H 0.565 0.40108 0.93731 0.0
H1388 H 0.53927 0.39451 0.92417 0.0
H1389 H 0.65741 0.37514 0.89477 0.0
H1390 H 0.65622 0.38549 0.91473 0.0
H1391 H 0.64745 0.35391 0.90994 0.0
H1392 H 0.6405 0.3952 0.96488 0.0
H1393 H 0.62018 0.31901 0.95353 0.0
H1394 H 0.60435 0.42521 0.93592 0.0
H1395 H 0.63557 0.42081 0.92852 0.0
H1396 H 0.63116 0.42934 0.94863 0.0
H1397 H 0.57976 0.33295 0.92211 0.0
H1398 H 0.59887 0.30834 0.93054 0.0
H1399 H 0.61052 0.3268 0.91447 0.0
C1400 C 0.63041 0.07352 0.14821 0.0
C1401 C 0.61701 0.08789 0.13729 0.0
C1402 C 0.63744 0.08375 0.16264 0.0
C1403 C 0.63088 0.10895 0.16622 0.0
C1404 C 0.61721 0.1235 0.1553 0.0
C1405 C 0.61046 0.11281 0.14096 0.0
C1406 C 0.65197 0.06764 0.17401 0.0
C1407 C 0.60993 0.15046 0.15869 0.0
C1408 C 0.63015 0.12946 0.20857 0.0
C1409 C 0.65336 0.142 0.20987 0.0
C1410 C 0.62259 0.11856 0.19443 0.0
C1411 C 0.63866 0.12024 0.18131 0.0
C1412 C 0.66214 0.13284 0.18258 0.0
C1413 C 0.66921 0.14358 0.19685 0.0
C1414 C 0.5974 0.10529 0.19351 0.0
C1415 C 0.67979 0.13501 0.16885 0.0
H1416 H 0.63524 0.05415 0.14554 0.0
H1417 H 0.60042 0.12414 0.13249 0.0
H1418 H 0.67045 0.07653 0.17664 0.0
H1419 H 0.64145 0.06621 0.18514 0.0
H1420 H 0.6554 0.04832 0.1695 0.0
H1421 H 0.59883 0.15904 0.14908 0.0
H1422 H 0.59859 0.15139 0.16952 0.0
H1423 H 0.62715 0.16196 0.1606 0.0
H1424 H 0.61783 0.12819 0.2186 0.0
H1425 H 0.68718 0.15324 0.1978 0.0
H1426 H 0.60016 0.08542 0.18989 0.0
H1427 H 0.58535 0.11441 0.18458 0.0
H1428 H 0.58718 0.10552 0.20479 0.0
H1429 H 0.68491 0.11596 0.16457 0.0
H1430 H 0.69741 0.14534 0.17178 0.0
H1431 H 0.67021 0.14496 0.15916 0.0
C1432 C 0.92823 0.13308 0.39826 0.0
C1433 C 0.91532 0.11695 0.38805 0.0
C1434 C 0.91739 0.14052 0.41243 0.0
C1435 C 0.89309 0.13157 0.4165 0.0
C1436 C 0.87997 0.11527 0.40627 0.0
C1437 C 0.89122 0.1082 0.39216 0.0
C1438 C 0.93194 0.15792 0.42305 0.0
C1439 C 0.854 0.10537 0.4102 0.0
C1440 C 0.87373 0.13198 0.45902 0.0
C1441 C 0.85841 0.15348 0.45975 0.0
C1442 C 0.88522 0.12467 0.44503 0.0
C1443 C 0.88132 0.13927 0.43146 0.0
C1444 C 0.86594 0.16106 0.43214 0.0
C1445 C 0.85464 0.16789 0.44629 0.0
C1446 C 0.90144 0.10127 0.44473 0.0
C1447 C 0.86138 0.17712 0.41792 0.0
H1448 H 0.94697 0.13968 0.39524 0.0
H1449 H 0.88096 0.09606 0.38423 0.0
H1450 H 0.92086 0.17531 0.42524 0.0
H1451 H 0.93505 0.14869 0.43447 0.0
H1452 H 0.95057 0.16332 0.41813 0.0
H1453 H 0.84645 0.09264 0.40105 0.0
H1454 H 0.85462 0.09492 0.42137 0.0
H1455 H 0.84068 0.12131 0.41174 0.0
H1456 H 0.87671 0.12077 0.4694 0.0
H1457 H 0.84283 0.18456 0.4468 0.0
H1458 H 0.92078 0.10605 0.44075 0.0
H1459 H 0.89356 0.08748 0.43633 0.0
H1460 H 0.90275 0.09212 0.45632 0.0
H1461 H 0.87964 0.184 0.41323 0.0
H1462 H 0.84915 0.19363 0.42045 0.0
H1463 H 0.85231 0.16568 0.40868 0.0
C1464 C 0.92416 0.39914 0.65012 0.0
C1465 C 0.90933 0.41428 0.64031 0.0
C1466 C 0.91457 0.38989 0.66422 0.0
C1467 C 0.88968 0.39622 0.66876 0.0
C1468 C 0.87494 0.41223 0.65924 0.0
C1469 C 0.88486 0.42091 0.64509 0.0
C1470 C 0.93082 0.37273 0.67403 0.0
C1471 C 0.84839 0.41958 0.66376 0.0
C1472 C 0.85443 0.35153 0.69549 0.0
C1473 C 0.85695 0.36349 0.70994 0.0
C1474 C 0.86516 0.36191 0.68204 0.0
C1475 C 0.87853 0.38496 0.68303 0.0
C1476 C 0.88107 0.39719 0.69759 0.0
C1477 C 0.87033 0.38624 0.71091 0.0
C1478 C 0.86223 0.34817 0.66675 0.0
C1479 C 0.89501 0.4219 0.69907 0.0
H1480 H 0.94324 0.39429 0.6467 0.0
H1481 H 0.87308 0.43227 0.63754 0.0
H1482 H 0.9324 0.38025 0.68603 0.0
H1483 H 0.92186 0.35388 0.67486 0.0
H1484 H 0.95012 0.37043 0.66917 0.0
H1485 H 0.84015 0.43372 0.65569 0.0
H1486 H 0.8361 0.40264 0.66376 0.0
H1487 H 0.84816 0.42744 0.67572 0.0
H1488 H 0.84419 0.33388 0.69469 0.0
H1489 H 0.8723 0.39556 0.72206 0.0
H1490 H 0.88109 0.34391 0.66179 0.0
H1491 H 0.85217 0.36031 0.65827 0.0
H1492 H 0.85159 0.33024 0.668 0.0
H1493 H 0.91479 0.41965 0.69504 0.0
H1494 H 0.89526 0.42902 0.71122 0.0
H1495 H 0.88603 0.4363 0.69153 0.0
C1496 C 0.5725 0.12685 0.35479 0.0
C1497 C 0.58627 0.11146 0.36499 0.0
C1498 C 0.58287 0.13478 0.34059 0.0
C1499 C 0.6076 0.12711 0.33649 0.0
C1500 C 0.62156 0.1115 0.3467 0.0
C1501 C 0.61075 0.10391 0.36083 0.0
C1502 C 0.56741 0.1514 0.32998 0.0
C1503 C 0.64801 0.10299 0.34275 0.0
C1504 C 0.62736 0.12898 0.29404 0.0
C1505 C 0.64154 0.15127 0.29348 0.0
C1506 C 0.61606 0.12095 0.30795 0.0
C1507 C 0.61902 0.1356 0.32159 0.0
C1508 C 0.6332 0.1582 0.32107 0.0
C1509 C 0.64431 0.16575 0.30702 0.0
C1510 C 0.60111 0.09672 0.30807 0.0
C1511 C 0.63673 0.17434 0.33538 0.0
H1512 H 0.55347 0.13251 0.35784 0.0
H1513 H 0.62165 0.09234 0.36876 0.0
H1514 H 0.57747 0.16943 0.32792 0.0
H1515 H 0.56496 0.14212 0.31851 0.0
H1516 H 0.54845 0.15564 0.33486 0.0
H1517 H 0.65617 0.09054 0.35184 0.0
H1518 H 0.64797 0.09267 0.33153 0.0
H1519 H 0.6605 0.11961 0.34133 0.0
H1520 H 0.62515 0.11772 0.28361 0.0
H1521 H 0.65523 0.18302 0.30664 0.0
H1522 H 0.58153 0.10041 0.31206 0.0
H1523 H 0.60968 0.08324 0.31641 0.0
H1524 H 0.60032 0.08769 0.29642 0.0
H1525 H 0.61808 0.18011 0.34005 0.0
H1526 H 0.64802 0.19154 0.33297 0.0
H1527 H 0.64638 0.16332 0.3446 0.0
C1528 C 0.86704 0.07317 0.60589 0.0
C1529 C 0.88466 0.08568 0.61532 0.0
C1530 C 0.85946 0.08336 0.59157 0.0
C1531 C 0.86968 0.10665 0.58659 0.0
C1532 C 0.88757 0.1193 0.59602 0.0
C1533 C 0.89486 0.10866 0.61026 0.0
C1534 C 0.84043 0.06927 0.58178 0.0
C1535 C 0.8988 0.14424 0.59114 0.0
C1536 C 0.86704 0.12397 0.54375 0.0
C1537 C 0.84636 0.14046 0.54335 0.0
C1538 C 0.87472 0.11265 0.55773 0.0
C1539 C 0.86142 0.11802 0.57162 0.0
C1540 C 0.84046 0.13456 0.57127 0.0
C1541 C 0.83316 0.14557 0.55713 0.0
C1542 C 0.89715 0.09508 0.55765 0.0
C1543 C 0.82585 0.14078 0.58585 0.0
H1544 H 0.85932 0.05528 0.60967 0.0
H1545 H 0.90821 0.11859 0.6176 0.0
H1546 H 0.82341 0.08109 0.57997 0.0
H1547 H 0.8485 0.06521 0.57014 0.0
H1548 H 0.83455 0.05121 0.58722 0.0
H1549 H 0.9128 0.15144 0.59969 0.0
H1550 H 0.90821 0.1423 0.57968 0.0
H1551 H 0.88359 0.15846 0.5898 0.0
H1552 H 0.87729 0.11993 0.53313 0.0
H1553 H 0.81716 0.15831 0.55688 0.0
H1554 H 0.89157 0.07637 0.56227 0.0
H1555 H 0.91216 0.10256 0.56538 0.0
H1556 H 0.90515 0.09251 0.54581 0.0
H1557 H 0.81833 0.12326 0.59115 0.0
H1558 H 0.80984 0.15379 0.58357 0.0
H1559 H 0.83857 0.14963 0.59454 0.0
C1560 C 0.92466 0.36337 0.85552 0.0
C1561 C 0.91335 0.38148 0.86516 0.0
C1562 C 0.91441 0.35749 0.84092 0.0
C1563 C 0.8924 0.37011 0.83578 0.0
C1564 C 0.88116 0.38876 0.8453 0.0
C1565 C 0.89174 0.39418 0.8599 0.0
C1566 C 0.92694 0.3375 0.83108 0.0
C1567 C 0.85769 0.40265 0.8402 0.0
C1568 C 0.87732 0.36866 0.79258 0.0
C1569 C 0.85893 0.34969 0.79188 0.0
C1570 C 0.88824 0.37569 0.80682 0.0
C1571 C 0.88072 0.36326 0.82063 0.0
C1572 C 0.8622 0.34405 0.81997 0.0
C1573 C 0.85144 0.33757 0.8056 0.0
C1574 C 0.90778 0.39641 0.80709 0.0
C1575 C 0.85384 0.33024 0.83443 0.0
H1576 H 0.94159 0.35377 0.8594 0.0
H1577 H 0.88273 0.40798 0.86735 0.0
H1578 H 0.91357 0.32177 0.82898 0.0
H1579 H 0.9321 0.34539 0.81957 0.0
H1580 H 0.94424 0.3298 0.83663 0.0
H1581 H 0.85192 0.41739 0.84866 0.0
H1582 H 0.86089 0.41168 0.82873 0.0
H1583 H 0.84186 0.38916 0.83878 0.0
H1584 H 0.88309 0.37815 0.782 0.0
H1585 H 0.83725 0.32286 0.80511 0.0
H1586 H 0.92586 0.38906 0.81177 0.0
H1587 H 0.90153 0.41179 0.81494 0.0
H1588 H 0.91129 0.40443 0.79536 0.0
H1589 H 0.87028 0.32085 0.83995 0.0
H1590 H 0.83922 0.31578 0.83193 0.0
H1591 H 0.8461 0.34379 0.84302 0.0
C1592 C 0.62527 0.4231 0.10933 0.0
C1593 C 0.6015 0.41598 0.11508 0.0
C1594 C 0.63395 0.41432 0.09488 0.0
C1595 C 0.61871 0.39766 0.0861 0.0
C1596 C 0.5946 0.39065 0.09171 0.0
C1597 C 0.58619 0.40009 0.10604 0.0
C1598 C 0.65964 0.42249 0.08917 0.0
C1599 C 0.57788 0.37274 0.08273 0.0
C1600 C 0.63108 0.3878 0.04301 0.0
C1601 C 0.64511 0.36541 0.04312 0.0
C1602 C 0.6228 0.39883 0.05694 0.0
C1603 C 0.62828 0.38688 0.07127 0.0
C1604 C 0.64247 0.36427 0.07143 0.0
C1605 C 0.65093 0.35393 0.05735 0.0
C1606 C 0.60811 0.4232 0.05633 0.0
C1607 C 0.64833 0.35075 0.08646 0.0
H1608 H 0.63743 0.43507 0.11627 0.0
H1609 H 0.56759 0.39488 0.11019 0.0
H1610 H 0.6724 0.40595 0.08851 0.0
H1611 H 0.65813 0.43041 0.07726 0.0
H1612 H 0.66842 0.43684 0.09688 0.0
H1613 H 0.55956 0.3693 0.08865 0.0
H1614 H 0.57405 0.38036 0.07095 0.0
H1615 H 0.58766 0.35442 0.0812 0.0
H1616 H 0.62668 0.39678 0.03201 0.0
H1617 H 0.66166 0.33654 0.05746 0.0
H1618 H 0.61752 0.43766 0.06364 0.0
H1619 H 0.5889 0.42029 0.06115 0.0
H1620 H 0.60632 0.4306 0.0443 0.0
H1621 H 0.65893 0.36338 0.0944 0.0
H1622 H 0.65963 0.33338 0.08458 0.0
H1623 H 0.63049 0.34555 0.09242 0.0
loop_
_geom_bond_atom_site_label_1
_geom_bond_atom_site_label_2
_geom_bond_distance
_geom_bond_site_symmetry_2
_ccdc_geom_bond_type
H0 C27 0.929 . S
N1 C26 1.433 . S
N1 C32 1.435 . S
N1 C38 1.423 . S
H2 C28 0.930 . S
H3 C31 0.931 . S
H4 C30 0.929 . S
H5 C33 0.930 . S
H6 C34 0.932 . S
H7 C37 0.929 . S
H8 C36 0.931 . S
H9 C39 0.929 . S
H10 C43 0.932 . S
H11 C40 0.931 . S
H12 C42 0.929 . S
H13 C45 0.929 . S
H14 C46 0.930 . S
H15 C48 0.929 . S
H16 C49 0.931 . S
H17 C51 0.930 . S
H18 C52 0.932 . S
H19 C54 0.931 . S
H20 C55 0.929 . S
H21 C57 0.929 . S
H22 C58 0.931 1_455 S
H23 C60 0.929 . S
N24 C44 1.433 . S
N24 C50 1.435 . S
N24 C56 1.423 . S
H25 C61 0.932 . S
C26 N1 1.433 . S
C26 C27 1.363 . S
C26 C31 1.370 . S
C27 H0 0.929 . S
C27 C26 1.363 . S
C27 C28 1.385 . S
C28 H2 0.930 . S
C28 C27 1.385 . S
C28 C29 1.357 . S
C29 C28 1.357 . S
C29 C30 1.406 . S
C30 H4 0.929 . S
C30 C29 1.406 . S
C30 C31 1.391 . S
C31 H3 0.931 . S
C31 C26 1.370 . S
C31 C30 1.391 . S
C32 N1 1.435 . S
C32 C33 1.358 . S
C32 C37 1.371 . S
C33 H5 0.930 . S
C33 C32 1.358 . S
C33 C34 1.405 . S
C34 H6 0.932 . S
C34 C33 1.405 . S
C34 C35 1.383 . S
C35 C34 1.383 . S
C35 C36 1.393 . S
C36 H8 0.931 . S
C36 C35 1.393 . S
C36 C37 1.382 . S
C37 H7 0.929 . S
C37 C32 1.371 . S
C37 C36 1.382 . S
C38 N1 1.423 . S
C38 C39 1.362 . S
C38 C43 1.388 . S
C39 H9 0.929 . S
C39 C38 1.362 . S
C39 C40 1.376 1_565 S
C40 H11 0.931 . S
C40 C39 1.376 1_545 S
C40 C41 1.396 . S
C41 C40 1.396 . S
C41 C42 1.348 1_545 S
C41 C59 1.472 . S
C42 H12 0.929 . S
C42 C41 1.348 1_565 S
C42 C43 1.443 . S
C43 H10 0.932 . S
C43 C38 1.388 . S
C43 C42 1.443 . S
C44 N24 1.433 . S
C44 C45 1.363 . S
C44 C49 1.370 . S
C45 H13 0.929 . S
C45 C44 1.363 . S
C45 C46 1.385 . S
C46 H14 0.930 . S
C46 C45 1.385 . S
C46 C47 1.357 . S
C47 C46 1.357 . S
C47 C48 1.406 . S
C48 H15 0.929 . S
C48 C47 1.406 . S
C48 C49 1.391 . S
C49 H16 0.931 . S
C49 C44 1.370 . S
C49 C48 1.391 . S
C50 N24 1.435 . S
C50 C51 1.358 . S
C50 C55 1.371 . S
C51 H17 0.930 . S
C51 C50 1.358 . S
C51 C52 1.405 . S
C52 H18 0.932 . S
C52 C51 1.405 . S
C52 C53 1.383 . S
C53 C52 1.383 . S
C53 C54 1.393 . S
C54 H19 0.931 . S
C54 C53 1.393 . S
C54 C55 1.382 . S
C55 H20 0.929 . S
C55 C50 1.371 . S
C55 C54 1.382 . S
C56 N24 1.423 . S
C56 C57 1.362 . S
C56 C61 1.388 . S
C57 H21 0.929 . S
C57 C56 1.362 . S
C57 C58 1.376 . S
C58 H22 0.931 1_655 S
C58 C57 1.376 . S
C58 C59 1.396 1_655 S
C59 C41 1.472 . S
C59 C58 1.396 1_455 S
C59 C60 1.348 1_455 S
C60 H23 0.929 . S
C60 C59 1.348 1_655 S
C60 C61 1.443 . S
C61 H25 0.932 . S
C61 C56 1.388 . S
C61 C60 1.443 . S
H62 C89 0.929 . S
N63 C88 1.433 . S
N63 C94 1.435 . S
N63 C100 1.423 . S
H64 C90 0.930 . S
H65 C93 0.931 . S
H66 C92 0.929 . S
H67 C95 0.930 . S
H68 C96 0.932 . S
H69 C99 0.929 . S
H70 C98 0.931 . S
H71 C101 0.929 . S
H72 C105 0.932 . S
H73 C102 0.931 . S
H74 C104 0.929 . S
H75 C107 0.929 . S
H76 C108 0.930 . S
H77 C110 0.929 . S
H78 C111 0.931 . S
H79 C113 0.930 . S
H80 C114 0.932 . S
H81 C116 0.931 . S
H82 C117 0.929 . S
H83 C119 0.929 . S
H84 C120 0.931 . S
H85 C122 0.929 . S
N86 C106 1.433 . S
N86 C112 1.435 . S
N86 C118 1.423 . S
H87 C123 0.932 . S
C88 N63 1.433 . S
C88 C89 1.363 . S
C88 C93 1.370 . S
C89 H62 0.929 . S
C89 C88 1.363 . S
C89 C90 1.385 . S
C90 H64 0.930 . S
C90 C89 1.385 . S
C90 C91 1.357 . S
C91 C90 1.357 . S
C91 C92 1.406 . S
C92 H66 0.929 . S
C92 C91 1.406 . S
C92 C93 1.391 . S
C93 H65 0.931 . S
C93 C88 1.370 . S
C93 C92 1.391 . S
C94 N63 1.435 . S
C94 C95 1.358 . S
C94 C99 1.371 . S
C95 H67 0.930 . S
C95 C94 1.358 . S
C95 C96 1.405 . S
C96 H68 0.932 . S
C96 C95 1.405 . S
C96 C97 1.383 . S
C97 C96 1.383 . S
C97 C98 1.393 . S
C98 H70 0.931 . S
C98 C97 1.393 . S
C98 C99 1.382 . S
C99 H69 0.929 . S
C99 C94 1.371 . S
C99 C98 1.382 . S
C100 N63 1.423 . S
C100 C101 1.362 . S
C100 C105 1.388 . S
C101 H71 0.929 . S
C101 C100 1.362 . S
C101 C102 1.376 1_655 S
C102 H73 0.931 . S
C102 C101 1.376 1_455 S
C102 C103 1.396 . S
C103 C102 1.396 . S
C103 C104 1.348 1_455 S
C103 C121 1.472 . S
C104 H74 0.929 . S
C104 C103 1.348 1_655 S
C104 C105 1.443 . S
C105 H72 0.932 . S
C105 C100 1.388 . S
C105 C104 1.443 . S
C106 N86 1.433 . S
C106 C107 1.363 . S
C106 C111 1.370 . S
C107 H75 0.929 . S
C107 C106 1.363 . S
C107 C108 1.385 . S
C108 H76 0.930 . S
C108 C107 1.385 . S
C108 C109 1.357 . S
C109 C108 1.357 . S
C109 C110 1.406 . S
C110 H77 0.929 . S
C110 C109 1.406 . S
C110 C111 1.391 . S
C111 H78 0.931 . S
C111 C106 1.370 . S
C111 C110 1.391 . S
C112 N86 1.435 . S
C112 C113 1.358 . S
C112 C117 1.371 . S
C113 H79 0.930 . S
C113 C112 1.358 . S
C113 C114 1.405 . S
C114 H80 0.932 . S
C114 C113 1.405 . S
C114 C115 1.383 . S
C115 C114 1.383 . S
C115 C116 1.393 . S
C116 H81 0.931 . S
C116 C115 1.393 . S
C116 C117 1.382 . S
C117 H82 0.929 . S
C117 C112 1.371 . S
C117 C116 1.382 . S
C118 N86 1.423 . S
C118 C119 1.362 . S
C118 C123 1.388 . S
C119 H83 0.929 . S
C119 C118 1.362 . S
C119 C120 1.376 . S
C120 H84 0.931 . S
C120 C119 1.376 . S
C120 C121 1.396 . S
C121 C103 1.472 . S
C121 C120 1.396 . S
C121 C122 1.348 . S
C122 H85 0.929 . S
C122 C121 1.348 . S
C122 C123 1.443 . S
C123 H87 0.932 . S
C123 C118 1.388 . S
C123 C122 1.443 . S
H124 C151 0.929 . S
N125 C150 1.433 . S
N125 C156 1.435 . S
N125 C162 1.423 . S
H126 C152 0.930 . S
H127 C155 0.931 . S
H128 C154 0.929 . S
H129 C157 0.930 . S
H130 C158 0.932 . S
H131 C161 0.929 . S
H132 C160 0.931 . S
H133 C163 0.929 . S
H134 C167 0.932 . S
H135 C164 0.931 . S
H136 C166 0.929 . S
H137 C169 0.929 . S
H138 C170 0.930 . S
H139 C172 0.929 . S
H140 C173 0.931 . S
H141 C175 0.930 . S
H142 C176 0.932 . S
H143 C178 0.931 . S
H144 C179 0.929 . S
H145 C181 0.929 . S
H146 C182 0.931 . S
H147 C184 0.929 . S
N148 C168 1.433 . S
N148 C174 1.435 . S
N148 C180 1.423 . S
H149 C185 0.932 . S
C150 N125 1.433 . S
C150 C151 1.363 . S
C150 C155 1.370 . S
C151 H124 0.929 . S
C151 C150 1.363 . S
C151 C152 1.385 . S
C152 H126 0.930 . S
C152 C151 1.385 . S
C152 C153 1.357 . S
C153 C152 1.357 . S
C153 C154 1.406 . S
C154 H128 0.929 . S
C154 C153 1.406 . S
C154 C155 1.391 . S
C155 H127 0.931 . S
C155 C150 1.370 . S
C155 C154 1.391 . S
C156 N125 1.435 . S
C156 C157 1.358 . S
C156 C161 1.371 . S
C157 H129 0.930 . S
C157 C156 1.358 . S
C157 C158 1.405 . S
C158 H130 0.932 . S
C158 C157 1.405 . S
C158 C159 1.383 . S
C159 C158 1.383 . S
C159 C160 1.393 . S
C160 H132 0.931 . S
C160 C159 1.393 . S
C160 C161 1.382 . S
C161 H131 0.929 . S
C161 C156 1.371 . S
C161 C160 1.382 . S
C162 N125 1.423 . S
C162 C163 1.362 . S
C162 C167 1.388 . S
C163 H133 0.929 . S
C163 C162 1.362 . S
C163 C164 1.376 . S
C164 H135 0.931 . S
C164 C163 1.376 . S
C164 C165 1.396 . S
C165 C164 1.396 . S
C165 C166 1.348 . S
C165 C183 1.472 . S
C166 H136 0.929 . S
C166 C165 1.348 . S
C166 C167 1.443 . S
C167 H134 0.932 . S
C167 C162 1.388 . S
C167 C166 1.443 . S
C168 N148 1.433 . S
C168 C169 1.363 . S
C168 C173 1.370 . S
C169 H137 0.929 . S
C169 C168 1.363 . S
C169 C170 1.385 . S
C170 H138 0.930 . S
C170 C169 1.385 . S
C170 C171 1.357 . S
C171 C170 1.357 . S
C171 C172 1.406 . S
C172 H139 0.929 . S
C172 C171 1.406 . S
C172 C173 1.391 . S
C173 H140 0.931 . S
C173 C168 1.370 . S
C173 C172 1.391 . S
C174 N148 1.435 . S
C174 C175 1.358 . S
C174 C179 1.371 . S
C175 H141 0.930 . S
C175 C174 1.358 . S
C175 C176 1.405 . S
C176 H142 0.932 . S
C176 C175 1.405 . S
C176 C177 1.383 . S
C177 C176 1.383 . S
C177 C178 1.393 . S
C178 H143 0.931 . S
C178 C177 1.393 . S
C178 C179 1.382 . S
C179 H144 0.929 . S
C179 C174 1.371 . S
C179 C178 1.382 . S
C180 N148 1.423 . S
C180 C181 1.362 . S
C180 C185 1.388 . S
C181 H145 0.929 . S
C181 C180 1.362 . S
C181 C182 1.376 . S
C182 H146 0.931 . S
C182 C181 1.376 . S
C182 C183 1.396 . S
C183 C165 1.472 . S
C183 C182 1.396 . S
C183 C184 1.348 . S
C184 H147 0.929 . S
C184 C183 1.348 . S
C184 C185 1.443 . S
C185 H149 0.932 . S
C185 C180 1.388 . S
C185 C184 1.443 . S
H186 C213 0.929 . S
N187 C212 1.433 . S
N187 C218 1.435 . S
N187 C224 1.423 . S
H188 C214 0.930 . S
H189 C217 0.931 . S
H190 C216 0.929 . S
H191 C219 0.930 . S
H192 C220 0.932 . S
H193 C223 0.929 . S
H194 C222 0.931 . S
H195 C225 0.929 . S
H196 C229 0.932 . S
H197 C226 0.931 . S
H198 C228 0.929 . S
H199 C231 0.929 . S
H200 C232 0.930 . S
H201 C234 0.929 . S
H202 C235 0.931 . S
H203 C237 0.930 . S
H204 C238 0.932 . S
H205 C240 0.931 . S
H206 C241 0.929 . S
H207 C243 0.929 . S
H208 C244 0.931 1_565 S
H209 C246 0.929 . S
N210 C230 1.433 . S
N210 C236 1.435 . S
N210 C242 1.423 . S
H211 C247 0.932 . S
C212 N187 1.433 . S
C212 C213 1.363 . S
C212 C217 1.370 . S
C213 H186 0.929 . S
C213 C212 1.363 . S
C213 C214 1.385 . S
C214 H188 0.930 . S
C214 C213 1.385 . S
C214 C215 1.357 . S
C215 C214 1.357 . S
C215 C216 1.406 . S
C216 H190 0.929 . S
C216 C215 1.406 . S
C216 C217 1.391 . S
C217 H189 0.931 . S
C217 C212 1.370 . S
C217 C216 1.391 . S
C218 N187 1.435 . S
C218 C219 1.358 . S
C218 C223 1.371 . S
C219 H191 0.930 . S
C219 C218 1.358 . S
C219 C220 1.405 . S
C220 H192 0.932 . S
C220 C219 1.405 . S
C220 C221 1.383 . S
C221 C220 1.383 . S
C221 C222 1.393 . S
C222 H194 0.931 . S
C222 C221 1.393 . S
C222 C223 1.382 . S
C223 H193 0.929 . S
C223 C218 1.371 . S
C223 C222 1.382 . S
C224 N187 1.423 . S
C224 C225 1.362 . S
C224 C229 1.388 . S
C225 H195 0.929 . S
C225 C224 1.362 . S
C225 C226 1.376 . S
C226 H197 0.931 . S
C226 C225 1.376 . S
C226 C227 1.396 . S
C227 C226 1.396 . S
C227 C228 1.348 . S
C227 C245 1.445 1_565 S
C228 H198 0.929 . S
C228 C227 1.348 . S
C228 C229 1.443 . S
C229 H196 0.932 . S
C229 C224 1.388 . S
C229 C228 1.443 . S
C230 N210 1.433 . S
C230 C231 1.363 . S
C230 C235 1.370 . S
C231 H199 0.929 . S
C231 C230 1.363 . S
C231 C232 1.385 . S
C232 H200 0.930 . S
C232 C231 1.385 . S
C232 C233 1.357 . S
C233 C232 1.357 . S
C233 C234 1.406 . S
C234 H201 0.929 . S
C234 C233 1.406 . S
C234 C235 1.391 . S
C235 H202 0.931 . S
C235 C230 1.370 . S
C235 C234 1.391 . S
C236 N210 1.435 . S
C236 C237 1.358 . S
C236 C241 1.371 . S
C237 H203 0.930 . S
C237 C236 1.358 . S
C237 C238 1.405 . S
C238 H204 0.932 . S
C238 C237 1.405 . S
C238 C239 1.383 . S
C239 C238 1.383 . S
C239 C240 1.393 . S
C240 H205 0.931 . S
C240 C239 1.393 . S
C240 C241 1.382 . S
C241 H206 0.929 . S
C241 C236 1.371 . S
C241 C240 1.382 . S
C242 N210 1.423 . S
C242 C243 1.362 . S
C242 C247 1.388 . S
C243 H207 0.929 . S
C243 C242 1.362 . S
C243 C244 1.376 . S
C244 H208 0.931 1_545 S
C244 C243 1.376 . S
C244 C245 1.400 . S
C245 C227 1.445 1_545 S
C245 C244 1.400 . S
C245 C246 1.374 . S
C246 H209 0.929 . S
C246 C245 1.374 . S
C246 C247 1.443 . S
C247 H211 0.932 . S
C247 C242 1.388 . S
C247 C246 1.443 . S
H248 C275 0.929 . S
N249 C274 1.433 . S
N249 C280 1.435 . S
N249 C286 1.423 . S
H250 C276 0.930 . S
H251 C279 0.931 . S
H252 C278 0.929 . S
H253 C281 0.930 . S
H254 C282 0.932 . S
H255 C285 0.929 . S
H256 C284 0.931 . S
H257 C287 0.929 . S
H258 C291 0.932 . S
H259 C288 0.931 . S
H260 C290 0.929 . S
H261 C293 0.929 . S
H262 C294 0.930 . S
H263 C296 0.929 . S
H264 C297 0.931 . S
H265 C299 0.930 . S
H266 C300 0.932 . S
H267 C302 0.931 . S
H268 C303 0.929 . S
H269 C305 0.929 . S
H270 C306 0.931 1_455 S
H271 C308 0.929 . S
N272 C292 1.433 . S
N272 C298 1.435 . S
N272 C304 1.423 . S
H273 C309 0.932 . S
C274 N249 1.433 . S
C274 C275 1.363 . S
C274 C279 1.370 . S
C275 H248 0.929 . S
C275 C274 1.363 . S
C275 C276 1.385 . S
C276 H250 0.930 . S
C276 C275 1.385 . S
C276 C277 1.357 . S
C277 C276 1.357 . S
C277 C278 1.406 . S
C278 H252 0.929 . S
C278 C277 1.406 . S
C278 C279 1.391 . S
C279 H251 0.931 . S
C279 C274 1.370 . S
C279 C278 1.391 . S
C280 N249 1.435 . S
C280 C281 1.358 . S
C280 C285 1.371 . S
C281 H253 0.930 . S
C281 C280 1.358 . S
C281 C282 1.405 . S
C282 H254 0.932 . S
C282 C281 1.405 . S
C282 C283 1.383 . S
C283 C282 1.383 . S
C283 C284 1.393 . S
C284 H256 0.931 . S
C284 C283 1.393 . S
C284 C285 1.382 . S
C285 H255 0.929 . S
C285 C280 1.371 . S
C285 C284 1.382 . S
C286 N249 1.423 . S
C286 C287 1.362 . S
C286 C291 1.388 . S
C287 H257 0.929 . S
C287 C286 1.362 . S
C287 C288 1.376 . S
C288 H259 0.931 . S
C288 C287 1.376 . S
C288 C289 1.396 . S
C289 C288 1.396 . S
C289 C290 1.348 . S
C289 C307 1.509 . S
C290 H260 0.929 . S
C290 C289 1.348 . S
C290 C291 1.443 . S
C291 H258 0.932 . S
C291 C286 1.388 . S
C291 C290 1.443 . S
C292 N272 1.433 . S
C292 C293 1.363 . S
C292 C297 1.370 . S
C293 H261 0.929 . S
C293 C292 1.363 . S
C293 C294 1.385 . S
C294 H262 0.930 . S
C294 C293 1.385 . S
C294 C295 1.357 . S
C295 C294 1.357 . S
C295 C296 1.406 . S
C296 H263 0.929 . S
C296 C295 1.406 . S
C296 C297 1.391 . S
C297 H264 0.931 . S
C297 C292 1.370 . S
C297 C296 1.391 . S
C298 N272 1.435 . S
C298 C299 1.358 . S
C298 C303 1.371 . S
C299 H265 0.930 . S
C299 C298 1.358 . S
C299 C300 1.405 . S
C300 H266 0.932 . S
C300 C299 1.405 . S
C300 C301 1.383 . S
C301 C300 1.383 . S
C301 C302 1.393 . S
C302 H267 0.931 . S
C302 C301 1.393 . S
C302 C303 1.382 . S
C303 H268 0.929 . S
C303 C298 1.371 . S
C303 C302 1.382 . S
C304 N272 1.423 . S
C304 C305 1.362 . S
C304 C309 1.388 . S
C305 H269 0.929 . S
C305 C304 1.362 . S
C305 C306 1.376 . S
C306 H270 0.931 1_655 S
C306 C305 1.376 . S
C306 C307 1.392 1_655 S
C307 C289 1.509 . S
C307 C306 1.392 1_455 S
C307 C308 1.313 1_455 S
C308 H271 0.929 . S
C308 C307 1.313 1_655 S
C308 C309 1.443 . S
C309 H273 0.932 . S
C309 C304 1.388 . S
C309 C308 1.443 . S
H310 C337 0.929 . S
N311 C336 1.433 . S
N311 C342 1.435 . S
N311 C348 1.423 . S
H312 C338 0.930 . S
H313 C341 0.931 . S
H314 C340 0.929 . S
H315 C343 0.930 . S
H316 C344 0.932 . S
H317 C347 0.929 . S
H318 C346 0.931 . S
H319 C349 0.929 . S
H320 C353 0.932 . S
H321 C350 0.931 . S
H322 C352 0.929 . S
H323 C355 0.929 . S
H324 C356 0.930 . S
H325 C358 0.929 . S
H326 C359 0.931 . S
H327 C361 0.930 . S
H328 C362 0.932 . S
H329 C364 0.931 . S
H330 C365 0.929 . S
H331 C367 0.929 . S
H332 C368 0.931 . S
H333 C370 0.929 . S
N334 C354 1.433 . S
N334 C360 1.435 . S
N334 C366 1.423 . S
H335 C371 0.932 . S
C336 N311 1.433 . S
C336 C337 1.363 . S
C336 C341 1.370 . S
C337 H310 0.929 . S
C337 C336 1.363 . S
C337 C338 1.385 . S
C338 H312 0.930 . S
C338 C337 1.385 . S
C338 C339 1.357 . S
C339 C338 1.357 . S
C339 C340 1.406 . S
C340 H314 0.929 . S
C340 C339 1.406 . S
C340 C341 1.391 . S
C341 H313 0.931 . S
C341 C336 1.370 . S
C341 C340 1.391 . S
C342 N311 1.435 . S
C342 C343 1.358 . S
C342 C347 1.371 . S
C343 H315 0.930 . S
C343 C342 1.358 . S
C343 C344 1.405 . S
C344 H316 0.932 . S
C344 C343 1.405 . S
C344 C345 1.383 . S
C345 C344 1.383 . S
C345 C346 1.393 . S
C346 H318 0.931 . S
C346 C345 1.393 . S
C346 C347 1.382 . S
C347 H317 0.929 . S
C347 C342 1.371 . S
C347 C346 1.382 . S
C348 N311 1.423 . S
C348 C349 1.362 . S
C348 C353 1.388 . S
C349 H319 0.929 . S
C349 C348 1.362 . S
C349 C350 1.376 . S
C350 H321 0.931 . S
C350 C349 1.376 . S
C350 C351 1.396 . S
C351 C350 1.396 . S
C351 C352 1.348 . S
C351 C369 1.472 . S
C352 H322 0.929 . S
C352 C351 1.348 . S
C352 C353 1.443 . S
C353 H320 0.932 . S
C353 C348 1.388 . S
C353 C352 1.443 . S
C354 N334 1.433 . S
C354 C355 1.363 . S
C354 C359 1.370 . S
C355 H323 0.929 . S
C355 C354 1.363 . S
C355 C356 1.385 . S
C356 H324 0.930 . S
C356 C355 1.385 . S
C356 C357 1.357 . S
C357 C356 1.357 . S
C357 C358 1.406 . S
C358 H325 0.929 . S
C358 C357 1.406 . S
C358 C359 1.391 . S
C359 H326 0.931 . S
C359 C354 1.370 . S
C359 C358 1.391 . S
C360 N334 1.435 . S
C360 C361 1.358 . S
C360 C365 1.371 . S
C361 H327 0.930 . S
C361 C360 1.358 . S
C361 C362 1.405 . S
C362 H328 0.932 . S
C362 C361 1.405 . S
C362 C363 1.383 . S
C363 C362 1.383 . S
C363 C364 1.393 . S
C364 H329 0.931 . S
C364 C363 1.393 . S
C364 C365 1.382 . S
C365 H330 0.929 . S
C365 C360 1.371 . S
C365 C364 1.382 . S
C366 N334 1.423 . S
C366 C367 1.362 . S
C366 C371 1.388 . S
C367 H331 0.929 . S
C367 C366 1.362 . S
C367 C368 1.376 . S
C368 H332 0.931 . S
C368 C367 1.376 . S
C368 C369 1.396 . S
C369 C351 1.472 . S
C369 C368 1.396 . S
C369 C370 1.348 . S
C370 H333 0.929 . S
C370 C369 1.348 . S
C370 C371 1.443 . S
C371 H335 0.932 . S
C371 C366 1.388 . S
C371 C370 1.443 . S
H372 C399 0.929 . S
N373 C398 1.433 . S
N373 C404 1.435 . S
N373 C410 1.423 . S
H374 C400 0.930 . S
H375 C403 0.931 . S
H376 C402 0.929 . S
H377 C405 0.930 . S
H378 C406 0.932 . S
H379 C409 0.929 . S
H380 C408 0.931 . S
H381 C411 0.929 . S
H382 C415 0.932 . S
H383 C412 0.931 . S
H384 C414 0.929 . S
H385 C417 0.929 . S
H386 C418 0.930 . S
H387 C420 0.929 . S
H388 C421 0.931 . S
H389 C423 0.930 . S
H390 C424 0.932 . S
H391 C426 0.931 . S
H392 C427 0.929 . S
H393 C429 0.929 . S
H394 C430 0.931 . S
H395 C432 0.929 . S
N396 C416 1.433 . S
N396 C422 1.435 . S
N396 C428 1.423 . S
H397 C433 0.932 . S
C398 N373 1.433 . S
C398 C399 1.363 . S
C398 C403 1.370 . S
C399 H372 0.929 . S
C399 C398 1.363 . S
C399 C400 1.385 . S
C400 H374 0.930 . S
C400 C399 1.385 . S
C400 C401 1.357 . S
C401 C400 1.357 . S
C401 C402 1.406 . S
C402 H376 0.929 . S
C402 C401 1.406 . S
C402 C403 1.391 . S
C403 H375 0.931 . S
C403 C398 1.370 . S
C403 C402 1.391 . S
C404 N373 1.435 . S
C404 C405 1.358 . S
C404 C409 1.371 . S
C405 H377 0.930 . S
C405 C404 1.358 . S
C405 C406 1.405 . S
C406 H378 0.932 . S
C406 C405 1.405 . S
C406 C407 1.383 . S
C407 C406 1.383 . S
C407 C408 1.393 . S
C408 H380 0.931 . S
C408 C407 1.393 . S
C408 C409 1.382 . S
C409 H379 0.929 . S
C409 C404 1.371 . S
C409 C408 1.382 . S
C410 N373 1.423 . S
C410 C411 1.362 . S
C410 C415 1.388 . S
C411 H381 0.929 . S
C411 C410 1.362 . S
C411 C412 1.376 1_565 S
C412 H383 0.931 . S
C412 C411 1.376 1_545 S
C412 C413 1.396 . S
C413 C412 1.396 . S
C413 C414 1.348 1_545 S
C413 C431 1.472 . S
C414 H384 0.929 . S
C414 C413 1.348 1_565 S
C414 C415 1.443 . S
C415 H382 0.932 . S
C415 C410 1.388 . S
C415 C414 1.443 . S
C416 N396 1.433 . S
C416 C417 1.363 . S
C416 C421 1.370 . S
C417 H385 0.929 . S
C417 C416 1.363 . S
C417 C418 1.385 . S
C418 H386 0.930 . S
C418 C417 1.385 . S
C418 C419 1.357 . S
C419 C418 1.357 . S
C419 C420 1.406 . S
C420 H387 0.929 . S
C420 C419 1.406 . S
C420 C421 1.391 . S
C421 H388 0.931 . S
C421 C416 1.370 . S
C421 C420 1.391 . S
C422 N396 1.435 . S
C422 C423 1.358 . S
C422 C427 1.371 . S
C423 H389 0.930 . S
C423 C422 1.358 . S
C423 C424 1.405 . S
C424 H390 0.932 . S
C424 C423 1.405 . S
C424 C425 1.383 . S
C425 C424 1.383 . S
C425 C426 1.393 . S
C426 H391 0.931 . S
C426 C425 1.393 . S
C426 C427 1.382 . S
C427 H392 0.929 . S
C427 C422 1.371 . S
C427 C426 1.382 . S
C428 N396 1.423 . S
C428 C429 1.362 . S
C428 C433 1.388 . S
C429 H393 0.929 . S
C429 C428 1.362 . S
C429 C430 1.376 . S
C430 H394 0.931 . S
C430 C429 1.376 . S
C430 C431 1.396 . S
C431 C413 1.472 . S
C431 C430 1.396 . S
C431 C432 1.348 . S
C432 H395 0.929 . S
C432 C431 1.348 . S
C432 C433 1.443 . S
C433 H397 0.932 . S
C433 C428 1.388 . S
C433 C432 1.443 . S
H434 C461 0.929 . S
N435 C460 1.433 . S
N435 C466 1.435 . S
N435 C472 1.423 . S
H436 C462 0.930 . S
H437 C465 0.931 . S
H438 C464 0.929 . S
H439 C467 0.930 . S
H440 C468 0.932 . S
H441 C471 0.929 . S
H442 C470 0.931 . S
H443 C473 0.929 . S
H444 C477 0.932 . S
H445 C474 0.931 . S
H446 C476 0.929 . S
H447 C479 0.929 . S
H448 C480 0.930 . S
H449 C482 0.929 . S
H450 C483 0.931 . S
H451 C485 0.930 . S
H452 C486 0.932 . S
H453 C488 0.931 . S
H454 C489 0.929 . S
H455 C491 0.929 . S
H456 C492 0.931 1_565 S
H457 C494 0.929 . S
N458 C478 1.433 . S
N458 C484 1.435 . S
N458 C490 1.423 . S
H459 C495 0.932 . S
C460 N435 1.433 . S
C460 C461 1.363 . S
C460 C465 1.370 . S
C461 H434 0.929 . S
C461 C460 1.363 . S
C461 C462 1.385 . S
C462 H436 0.930 . S
C462 C461 1.385 . S
C462 C463 1.357 . S
C463 C462 1.357 . S
C463 C464 1.406 . S
C464 H438 0.929 . S
C464 C463 1.406 . S
C464 C465 1.391 . S
C465 H437 0.931 . S
C465 C460 1.370 . S
C465 C464 1.391 . S
C466 N435 1.435 . S
C466 C467 1.358 . S
C466 C471 1.371 . S
C467 H439 0.930 . S
C467 C466 1.358 . S
C467 C468 1.405 . S
C468 H440 0.932 . S
C468 C467 1.405 . S
C468 C469 1.383 . S
C469 C468 1.383 . S
C469 C470 1.393 . S
C470 H442 0.931 . S
C470 C469 1.393 . S
C470 C471 1.382 . S
C471 H441 0.929 . S
C471 C466 1.371 . S
C471 C470 1.382 . S
C472 N435 1.423 . S
C472 C473 1.362 . S
C472 C477 1.388 . S
C473 H443 0.929 . S
C473 C472 1.362 . S
C473 C474 1.376 1_455 S
C474 H445 0.931 . S
C474 C473 1.376 1_655 S
C474 C475 1.396 . S
C475 C474 1.396 . S
C475 C476 1.348 1_655 S
C475 C493 1.475 1_565 S
C476 H446 0.929 . S
C476 C475 1.348 1_455 S
C476 C477 1.443 . S
C477 H444 0.932 . S
C477 C472 1.388 . S
C477 C476 1.443 . S
C478 N458 1.433 . S
C478 C479 1.363 . S
C478 C483 1.370 . S
C479 H447 0.929 . S
C479 C478 1.363 . S
C479 C480 1.385 . S
C480 H448 0.930 . S
C480 C479 1.385 . S
C480 C481 1.357 . S
C481 C480 1.357 . S
C481 C482 1.406 . S
C482 H449 0.929 . S
C482 C481 1.406 . S
C482 C483 1.391 . S
C483 H450 0.931 . S
C483 C478 1.370 . S
C483 C482 1.391 . S
C484 N458 1.435 . S
C484 C485 1.358 . S
C484 C489 1.371 . S
C485 H451 0.930 . S
C485 C484 1.358 . S
C485 C486 1.405 . S
C486 H452 0.932 . S
C486 C485 1.405 . S
C486 C487 1.383 . S
C487 C486 1.383 . S
C487 C488 1.393 . S
C488 H453 0.931 . S
C488 C487 1.393 . S
C488 C489 1.382 . S
C489 H454 0.929 . S
C489 C484 1.371 . S
C489 C488 1.382 . S
C490 N458 1.423 . S
C490 C491 1.362 . S
C490 C495 1.388 . S
C491 H455 0.929 . S
C491 C490 1.362 . S
C491 C492 1.376 . S
C492 H456 0.931 1_545 S
C492 C491 1.376 . S
C492 C493 1.396 . S
C493 C475 1.475 1_545 S
C493 C492 1.396 . S
C493 C494 1.346 . S
C494 H457 0.929 . S
C494 C493 1.346 . S
C494 C495 1.443 . S
C495 H459 0.932 . S
C495 C490 1.388 . S
C495 C494 1.443 . S
In496 O497 2.294 . S
In496 O498 2.326 . S
In496 O502 2.266 1_554 S
In496 O503 2.326 1_554 S
In496 O504 2.266 1_554 S
In496 O505 2.326 1_554 S
In496 O507 2.294 . S
In496 O508 2.326 . S
O497 In496 2.294 . S
O497 C506 1.240 . S
O498 In496 2.326 . S
O498 C506 1.252 . S
C499 O502 1.252 . S
C499 O503 1.260 . S
C500 O507 1.240 . S
C500 O508 1.252 . S
C501 O504 1.252 . S
C501 O505 1.260 . S
O502 In496 2.266 1_556 S
O502 C499 1.252 . S
O503 In496 2.326 1_556 S
O503 C499 1.260 . S
O504 In496 2.266 1_556 S
O504 C501 1.252 . S
O505 In496 2.326 1_556 S
O505 C501 1.260 . S
C506 O497 1.240 . S
C506 O498 1.252 . S
O507 In496 2.294 . S
O507 C500 1.240 . S
O508 In496 2.326 . S
O508 C500 1.252 . S
In509 O510 2.294 . S
In509 O511 2.326 . S
In509 O515 2.266 . S
In509 O516 2.326 . S
In509 O517 2.266 . S
In509 O518 2.326 . S
In509 O520 2.294 . S
In509 O521 2.326 . S
O510 In509 2.294 . S
O510 C519 1.240 . S
O511 In509 2.326 . S
O511 C519 1.252 . S
C512 O515 1.252 . S
C512 O516 1.260 . S
C513 O520 1.240 . S
C513 O521 1.252 . S
C514 O517 1.252 . S
C514 O518 1.260 . S
O515 In509 2.266 . S
O515 C512 1.252 . S
O516 In509 2.326 . S
O516 C512 1.260 . S
O517 In509 2.266 . S
O517 C514 1.252 . S
O518 In509 2.326 . S
O518 C514 1.260 . S
C519 O510 1.240 . S
C519 O511 1.252 . S
O520 In509 2.294 . S
O520 C513 1.240 . S
O521 In509 2.326 . S
O521 C513 1.252 . S
In522 O523 2.294 . S
In522 O524 2.326 . S
In522 O528 2.266 . S
In522 O529 2.326 . S
In522 O530 2.266 . S
In522 O531 2.326 . S
In522 O533 2.294 . S
In522 O534 2.326 . S
O523 In522 2.294 . S
O523 C532 1.240 . S
O524 In522 2.326 . S
O524 C532 1.252 . S
C525 O528 1.252 . S
C525 O529 1.260 . S
C526 O533 1.240 . S
C526 O534 1.252 . S
C527 O530 1.252 . S
C527 O531 1.260 . S
O528 In522 2.266 . S
O528 C525 1.252 . S
O529 In522 2.326 . S
O529 C525 1.260 . S
O530 In522 2.266 . S
O530 C527 1.252 . S
O531 In522 2.326 . S
O531 C527 1.260 . S
C532 O523 1.240 . S
C532 O524 1.252 . S
O533 In522 2.294 . S
O533 C526 1.240 . S
O534 In522 2.326 . S
O534 C526 1.252 . S
In535 O536 2.294 . S
In535 O537 2.326 . S
In535 O541 2.266 . S
In535 O542 2.326 . S
In535 O543 2.266 . S
In535 O544 2.326 . S
In535 O546 2.294 . S
In535 O547 2.326 . S
O536 In535 2.294 . S
O536 C545 1.240 . S
O537 In535 2.326 . S
O537 C545 1.252 . S
C538 O541 1.252 . S
C538 O542 1.260 . S
C539 O546 1.240 . S
C539 O547 1.252 . S
C540 O543 1.252 . S
C540 O544 1.260 . S
O541 In535 2.266 . S
O541 C538 1.252 . S
O542 In535 2.326 . S
O542 C538 1.260 . S
O543 In535 2.266 . S
O543 C540 1.252 . S
O544 In535 2.326 . S
O544 C540 1.260 . S
C545 O536 1.240 . S
C545 O537 1.252 . S
O546 In535 2.294 . S
O546 C539 1.240 . S
O547 In535 2.326 . S
O547 C539 1.252 . S
In548 O549 2.294 . S
In548 O550 2.326 . S
In548 O554 2.266 . S
In548 O555 2.326 . S
In548 O556 2.266 . S
In548 O557 2.326 . S
In548 O559 2.294 . S
In548 O560 2.326 . S
O549 In548 2.294 . S
O549 C558 1.240 . S
O550 In548 2.326 . S
O550 C558 1.252 . S
C551 O554 1.252 . S
C551 O555 1.260 . S
C552 O559 1.240 . S
C552 O560 1.252 . S
C553 O556 1.252 . S
C553 O557 1.260 . S
O554 In548 2.266 . S
O554 C551 1.252 . S
O555 In548 2.326 . S
O555 C551 1.260 . S
O556 In548 2.266 . S
O556 C553 1.252 . S
O557 In548 2.326 . S
O557 C553 1.260 . S
C558 O549 1.240 . S
C558 O550 1.252 . S
O559 In548 2.294 . S
O559 C552 1.240 . S
O560 In548 2.326 . S
O560 C552 1.252 . S
In561 O562 2.294 . S
In561 O563 2.326 . S
In561 O567 2.266 . S
In561 O568 2.326 . S
In561 O569 2.266 . S
In561 O570 2.326 . S
In561 O572 2.294 . S
In561 O573 2.326 . S
O562 In561 2.294 . S
O562 C571 1.240 . S
O563 In561 2.326 . S
O563 C571 1.252 . S
C564 O567 1.252 . S
C564 O568 1.260 . S
C565 O572 1.240 . S
C565 O573 1.252 . S
C566 O569 1.252 . S
C566 O570 1.260 . S
O567 In561 2.266 . S
O567 C564 1.252 . S
O568 In561 2.326 . S
O568 C564 1.260 . S
O569 In561 2.266 . S
O569 C566 1.252 . S
O570 In561 2.326 . S
O570 C566 1.260 . S
C571 O562 1.240 . S
C571 O563 1.252 . S
O572 In561 2.294 . S
O572 C565 1.240 . S
O573 In561 2.326 . S
O573 C565 1.252 . S
In574 O575 2.294 . S
In574 O576 2.326 . S
In574 O580 2.266 1_554 S
In574 O581 2.326 1_554 S
In574 O582 2.266 1_554 S
In574 O583 2.326 1_554 S
In574 O585 2.294 . S
In574 O586 2.326 . S
O575 In574 2.294 . S
O575 C584 1.240 . S
O576 In574 2.326 . S
O576 C584 1.252 . S
C577 O580 1.252 . S
C577 O581 1.260 . S
C578 O585 1.240 . S
C578 O586 1.252 . S
C579 O582 1.252 . S
C579 O583 1.260 . S
O580 In574 2.266 1_556 S
O580 C577 1.252 . S
O581 In574 2.326 1_556 S
O581 C577 1.260 . S
O582 In574 2.266 1_556 S
O582 C579 1.252 . S
O583 In574 2.326 1_556 S
O583 C579 1.260 . S
C584 O575 1.240 . S
C584 O576 1.252 . S
O585 In574 2.294 . S
O585 C578 1.240 . S
O586 In574 2.326 . S
O586 C578 1.252 . S
In587 O588 2.294 . S
In587 O589 2.326 . S
In587 O593 2.266 . S
In587 O594 2.326 . S
In587 O595 2.266 . S
In587 O596 2.326 . S
In587 O598 2.294 . S
In587 O599 2.326 . S
O588 In587 2.294 . S
O588 C597 1.240 . S
O589 In587 2.326 . S
O589 C597 1.252 . S
C590 O593 1.252 . S
C590 O594 1.260 . S
C591 O598 1.240 . S
C591 O599 1.252 . S
C592 O595 1.252 . S
C592 O596 1.260 . S
O593 In587 2.266 . S
O593 C590 1.252 . S
O594 In587 2.326 . S
O594 C590 1.260 . S
O595 In587 2.266 . S
O595 C592 1.252 . S
O596 In587 2.326 . S
O596 C592 1.260 . S
C597 O588 1.240 . S
C597 O589 1.252 . S
O598 In587 2.294 . S
O598 C591 1.240 . S
O599 In587 2.326 . S
O599 C591 1.252 . S
C600 C601 1.391 . S
C600 C602 1.394 . S
C600 H616 0.931 . S
C601 C600 1.391 . S
C601 C605 1.376 . S
C602 C600 1.394 . S
C602 C603 1.369 . S
C602 C606 1.531 . S
C603 C602 1.369 . S
C603 C604 1.410 . S
C603 C611 1.503 . S
C604 C603 1.410 . S
C604 C605 1.392 . S
C604 C607 1.511 . S
C605 C601 1.376 . S
C605 C604 1.392 . S
C605 H617 0.929 . S
C606 C602 1.531 . S
C606 H618 0.960 . S
C606 H619 0.962 . S
C606 H620 0.960 . S
C607 C604 1.511 . S
C607 H621 0.961 . S
C607 H622 0.961 . S
C607 H623 0.961 . S
C608 C609 1.370 . S
C608 C610 1.363 . S
C608 H624 0.931 . S
C609 C608 1.370 . S
C609 C613 1.408 . S
C610 C608 1.363 . S
C610 C611 1.370 . S
C610 C614 1.524 . S
C611 C603 1.503 . S
C611 C610 1.370 . S
C611 C612 1.403 . S
C612 C611 1.403 . S
C612 C613 1.404 . S
C612 C615 1.539 . S
C613 C609 1.408 . S
C613 C612 1.404 . S
C613 H625 0.930 . S
C614 C610 1.524 . S
C614 H626 0.956 . S
C614 H627 0.961 . S
C614 H628 0.961 . S
C615 C612 1.539 . S
C615 H629 0.958 . S
C615 H630 0.961 . S
C615 H631 0.960 . S
H616 C600 0.931 . S
H617 C605 0.929 . S
H618 C606 0.960 . S
H619 C606 0.962 . S
H620 C606 0.960 . S
H621 C607 0.961 . S
H622 C607 0.961 . S
H623 C607 0.961 . S
H624 C608 0.931 . S
H625 C613 0.930 . S
H626 C614 0.956 . S
H627 C614 0.961 . S
H628 C614 0.961 . S
H629 C615 0.958 . S
H630 C615 0.961 . S
H631 C615 0.960 . S
C632 C633 1.391 . S
C632 C634 1.394 . S
C632 H648 0.931 . S
C633 C632 1.391 . S
C633 C637 1.376 . S
C634 C632 1.394 . S
C634 C635 1.369 . S
C634 C638 1.531 . S
C635 C634 1.369 . S
C635 C636 1.410 . S
C635 C643 1.503 . S
C636 C635 1.410 . S
C636 C637 1.392 . S
C636 C639 1.511 . S
C637 C633 1.376 . S
C637 C636 1.392 . S
C637 H649 0.929 . S
C638 C634 1.531 . S
C638 H650 0.960 . S
C638 H651 0.962 . S
C638 H652 0.960 . S
C639 C636 1.511 . S
C639 H653 0.961 . S
C639 H654 0.961 . S
C639 H655 0.961 . S
C640 C641 1.370 . S
C640 C642 1.363 . S
C640 H656 0.931 . S
C641 C640 1.370 . S
C641 C645 1.408 . S
C642 C640 1.363 . S
C642 C643 1.370 . S
C642 C646 1.524 . S
C643 C635 1.503 . S
C643 C642 1.370 . S
C643 C644 1.403 . S
C644 C643 1.403 . S
C644 C645 1.404 . S
C644 C647 1.539 . S
C645 C641 1.408 . S
C645 C644 1.404 . S
C645 H657 0.930 . S
C646 C642 1.524 . S
C646 H658 0.956 . S
C646 H659 0.961 . S
C646 H660 0.961 . S
C647 C644 1.539 . S
C647 H661 0.958 . S
C647 H662 0.961 . S
C647 H663 0.960 . S
H648 C632 0.931 . S
H649 C637 0.929 . S
H650 C638 0.960 . S
H651 C638 0.962 . S
H652 C638 0.960 . S
H653 C639 0.961 . S
H654 C639 0.961 . S
H655 C639 0.961 . S
H656 C640 0.931 . S
H657 C645 0.930 . S
H658 C646 0.956 . S
H659 C646 0.961 . S
H660 C646 0.961 . S
H661 C647 0.958 . S
H662 C647 0.961 . S
H663 C647 0.960 . S
C664 C665 1.391 . S
C664 C666 1.394 . S
C664 H680 0.931 . S
C665 C664 1.391 . S
C665 C669 1.376 . S
C666 C664 1.394 . S
C666 C667 1.369 . S
C666 C670 1.531 . S
C667 C666 1.369 . S
C667 C668 1.410 . S
C667 C675 1.503 . S
C668 C667 1.410 . S
C668 C669 1.392 . S
C668 C671 1.511 . S
C669 C665 1.376 . S
C669 C668 1.392 . S
C669 H681 0.929 . S
C670 C666 1.531 . S
C670 H682 0.960 . S
C670 H683 0.962 . S
C670 H684 0.960 . S
C671 C668 1.511 . S
C671 H685 0.961 . S
C671 H686 0.961 . S
C671 H687 0.961 . S
C672 C673 1.370 . S
C672 C674 1.363 . S
C672 H688 0.931 . S
C673 C672 1.370 . S
C673 C677 1.408 . S
C674 C672 1.363 . S
C674 C675 1.370 . S
C674 C678 1.524 . S
C675 C667 1.503 . S
C675 C674 1.370 . S
C675 C676 1.403 . S
C676 C675 1.403 . S
C676 C677 1.404 . S
C676 C679 1.539 . S
C677 C673 1.408 . S
C677 C676 1.404 . S
C677 H689 0.930 . S
C678 C674 1.524 . S
C678 H690 0.956 . S
C678 H691 0.961 . S
C678 H692 0.961 . S
C679 C676 1.539 . S
C679 H693 0.958 . S
C679 H694 0.961 . S
C679 H695 0.960 . S
H680 C664 0.931 . S
H681 C669 0.929 . S
H682 C670 0.960 . S
H683 C670 0.962 . S
H684 C670 0.960 . S
H685 C671 0.961 . S
H686 C671 0.961 . S
H687 C671 0.961 . S
H688 C672 0.931 . S
H689 C677 0.930 . S
H690 C678 0.956 . S
H691 C678 0.961 . S
H692 C678 0.961 . S
H693 C679 0.958 . S
H694 C679 0.961 . S
H695 C679 0.960 . S
C696 C697 1.391 . S
C696 C698 1.394 . S
C696 H712 0.931 . S
C697 C696 1.391 . S
C697 C701 1.376 . S
C698 C696 1.394 . S
C698 C699 1.369 . S
C698 C702 1.531 . S
C699 C698 1.369 . S
C699 C700 1.410 . S
C699 C707 1.503 . S
C700 C699 1.410 . S
C700 C701 1.392 . S
C700 C703 1.511 . S
C701 C697 1.376 . S
C701 C700 1.392 . S
C701 H713 0.929 . S
C702 C698 1.531 . S
C702 H714 0.960 . S
C702 H715 0.962 . S
C702 H716 0.960 . S
C703 C700 1.511 . S
C703 H717 0.961 . S
C703 H718 0.961 . S
C703 H719 0.961 . S
C704 C705 1.370 . S
C704 C706 1.363 . S
C704 H720 0.931 1_554 S
C705 C704 1.370 . S
C705 C709 1.408 . S
C706 C704 1.363 . S
C706 C707 1.370 . S
C706 C710 1.524 1_554 S
C707 C699 1.503 . S
C707 C706 1.370 . S
C707 C708 1.403 . S
C708 C707 1.403 . S
C708 C709 1.404 . S
C708 C711 1.539 . S
C709 C705 1.408 . S
C709 C708 1.404 . S
C709 H721 0.930 . S
C710 C706 1.524 1_556 S
C710 H722 0.956 1_556 S
C710 H723 0.961 . S
C710 H724 0.961 . S
C711 C708 1.539 . S
C711 H725 0.958 . S
C711 H726 0.961 . S
C711 H727 0.960 . S
H712 C696 0.931 . S
H713 C701 0.929 . S
H714 C702 0.960 . S
H715 C702 0.962 . S
H716 C702 0.960 . S
H717 C703 0.961 . S
H718 C703 0.961 . S
H719 C703 0.961 . S
H720 C704 0.931 1_556 S
H721 C709 0.930 . S
H722 C710 0.956 1_554 S
H723 C710 0.961 . S
H724 C710 0.961 . S
H725 C711 0.958 . S
H726 C711 0.961 . S
H727 C711 0.960 . S
C728 C729 1.391 . S
C728 C730 1.394 . S
C728 H744 0.931 . S
C729 C728 1.391 . S
C729 C733 1.376 . S
C730 C728 1.394 . S
C730 C731 1.369 . S
C730 C734 1.531 . S
C731 C730 1.369 . S
C731 C732 1.410 . S
C731 C739 1.503 . S
C732 C731 1.410 . S
C732 C733 1.392 . S
C732 C735 1.511 . S
C733 C729 1.376 . S
C733 C732 1.392 . S
C733 H745 0.929 . S
C734 C730 1.531 . S
C734 H746 0.960 . S
C734 H747 0.962 . S
C734 H748 0.960 . S
C735 C732 1.511 . S
C735 H749 0.961 . S
C735 H750 0.961 . S
C735 H751 0.961 . S
C736 C737 1.358 1_554 S
C736 C738 1.358 1_554 S
C736 H752 0.949 . S
C737 C736 1.358 1_556 S
C737 C741 1.408 . S
C738 C736 1.358 1_556 S
C738 C739 1.370 . S
C738 C742 1.524 1_556 S
C739 C731 1.503 . S
C739 C738 1.370 . S
C739 C740 1.403 . S
C740 C739 1.403 . S
C740 C741 1.404 . S
C740 C743 1.539 . S
C741 C737 1.408 . S
C741 C740 1.404 . S
C741 H753 0.930 . S
C742 C738 1.524 1_554 S
C742 H754 0.956 . S
C742 H755 0.961 . S
C742 H756 0.961 . S
C743 C740 1.539 . S
C743 H757 0.958 . S
C743 H758 0.961 . S
C743 H759 0.960 . S
H744 C728 0.931 . S
H745 C733 0.929 . S
H746 C734 0.960 . S
H747 C734 0.962 . S
H748 C734 0.960 . S
H749 C735 0.961 . S
H750 C735 0.961 . S
H751 C735 0.961 . S
H752 C736 0.949 . S
H753 C741 0.930 . S
H754 C742 0.956 . S
H755 C742 0.961 . S
H756 C742 0.961 . S
H757 C743 0.958 . S
H758 C743 0.961 . S
H759 C743 0.960 . S
C760 C761 1.391 . S
C760 C762 1.394 . S
C760 H776 0.931 . S
C761 C760 1.391 . S
C761 C765 1.376 . S
C762 C760 1.394 . S
C762 C763 1.369 . S
C762 C766 1.531 . S
C763 C762 1.369 . S
C763 C764 1.410 . S
C763 C771 1.503 . S
C764 C763 1.410 . S
C764 C765 1.392 . S
C764 C767 1.511 . S
C765 C761 1.376 . S
C765 C764 1.392 . S
C765 H777 0.929 . S
C766 C762 1.531 . S
C766 H778 0.960 . S
C766 H779 0.962 . S
C766 H780 0.960 . S
C767 C764 1.511 . S
C767 H781 0.961 . S
C767 H782 0.961 . S
C767 H783 0.961 . S
C768 C769 1.370 . S
C768 C770 1.363 . S
C768 H784 0.931 . S
C769 C768 1.370 . S
C769 C773 1.408 . S
C770 C768 1.363 . S
C770 C771 1.370 . S
C770 C774 1.524 . S
C771 C763 1.503 . S
C771 C770 1.370 . S
C771 C772 1.403 . S
C772 C771 1.403 . S
C772 C773 1.404 . S
C772 C775 1.539 . S
C773 C769 1.408 . S
C773 C772 1.404 . S
C773 H785 0.930 . S
C774 C770 1.524 . S
C774 H786 0.956 . S
C774 H787 0.961 . S
C774 H788 0.961 . S
C775 C772 1.539 . S
C775 H789 0.958 . S
C775 H790 0.961 . S
C775 H791 0.960 . S
H776 C760 0.931 . S
H777 C765 0.929 . S
H778 C766 0.960 . S
H779 C766 0.962 . S
H780 C766 0.960 . S
H781 C767 0.961 . S
H782 C767 0.961 . S
H783 C767 0.961 . S
H784 C768 0.931 . S
H785 C773 0.930 . S
H786 C774 0.956 . S
H787 C774 0.961 . S
H788 C774 0.961 . S
H789 C775 0.958 . S
H790 C775 0.961 . S
H791 C775 0.960 . S
C792 C793 1.391 . S
C792 C794 1.394 . S
C792 H808 0.931 . S
C793 C792 1.391 . S
C793 C797 1.376 . S
C794 C792 1.394 . S
C794 C795 1.369 . S
C794 C798 1.531 . S
C795 C794 1.369 . S
C795 C796 1.410 . S
C795 C803 1.503 . S
C796 C795 1.410 . S
C796 C797 1.392 . S
C796 C799 1.511 . S
C797 C793 1.376 . S
C797 C796 1.392 . S
C797 H809 0.929 . S
C798 C794 1.531 . S
C798 H810 0.960 . S
C798 H811 0.962 . S
C798 H812 0.960 . S
C799 C796 1.511 . S
C799 H813 0.961 . S
C799 H814 0.961 . S
C799 H815 0.961 . S
C800 C801 1.370 . S
C800 C802 1.363 . S
C800 H816 0.931 . S
C801 C800 1.370 . S
C801 C805 1.408 . S
C802 C800 1.363 . S
C802 C803 1.370 . S
C802 C806 1.524 . S
C803 C795 1.503 . S
C803 C802 1.370 . S
C803 C804 1.403 . S
C804 C803 1.403 . S
C804 C805 1.404 . S
C804 C807 1.539 . S
C805 C801 1.408 . S
C805 C804 1.404 . S
C805 H817 0.930 . S
C806 C802 1.524 . S
C806 H818 0.956 . S
C806 H819 0.961 . S
C806 H820 0.961 . S
C807 C804 1.539 . S
C807 H821 0.958 . S
C807 H822 0.961 . S
C807 H823 0.960 . S
H808 C792 0.931 . S
H809 C797 0.929 . S
H810 C798 0.960 . S
H811 C798 0.962 . S
H812 C798 0.960 . S
H813 C799 0.961 . S
H814 C799 0.961 . S
H815 C799 0.961 . S
H816 C800 0.931 . S
H817 C805 0.930 . S
H818 C806 0.956 . S
H819 C806 0.961 . S
H820 C806 0.961 . S
H821 C807 0.958 . S
H822 C807 0.961 . S
H823 C807 0.960 . S
C824 C825 1.391 . S
C824 C826 1.394 . S
C824 H840 0.931 . S
C825 C824 1.391 . S
C825 C829 1.376 . S
C826 C824 1.394 . S
C826 C827 1.369 . S
C826 C830 1.531 . S
C827 C826 1.369 . S
C827 C828 1.410 . S
C827 C835 1.503 . S
C828 C827 1.410 . S
C828 C829 1.392 . S
C828 C831 1.511 . S
C829 C825 1.376 . S
C829 C828 1.392 . S
C829 H841 0.929 . S
C830 C826 1.531 . S
C830 H842 0.960 . S
C830 H843 0.962 . S
C830 H844 0.960 . S
C831 C828 1.511 . S
C831 H845 0.961 . S
C831 H846 0.961 . S
C831 H847 0.961 . S
C832 C833 1.370 . S
C832 C834 1.363 . S
C832 H848 0.931 . S
C833 C832 1.370 . S
C833 C837 1.408 . S
C834 C832 1.363 . S
C834 C835 1.370 . S
C834 C838 1.524 . S
C835 C827 1.503 . S
C835 C834 1.370 . S
C835 C836 1.403 . S
C836 C835 1.403 . S
C836 C837 1.404 . S
C836 C839 1.539 . S
C837 C833 1.408 . S
C837 C836 1.404 . S
C837 H849 0.930 . S
C838 C834 1.524 . S
C838 H850 0.956 . S
C838 H851 0.961 . S
C838 H852 0.961 . S
C839 C836 1.539 . S
C839 H853 0.958 . S
C839 H854 0.961 . S
C839 H855 0.960 . S
H840 C824 0.931 . S
H841 C829 0.929 . S
H842 C830 0.960 . S
H843 C830 0.962 . S
H844 C830 0.960 . S
H845 C831 0.961 . S
H846 C831 0.961 . S
H847 C831 0.961 . S
H848 C832 0.931 . S
H849 C837 0.930 . S
H850 C838 0.956 . S
H851 C838 0.961 . S
H852 C838 0.961 . S
H853 C839 0.958 . S
H854 C839 0.961 . S
H855 C839 0.960 . S
C856 C857 1.391 . S
C856 C858 1.394 . S
C856 H872 0.931 . S
C857 C856 1.391 . S
C857 C861 1.376 . S
C858 C856 1.394 . S
C858 C859 1.369 . S
C858 C862 1.531 . S
C859 C858 1.369 . S
C859 C860 1.410 . S
C859 C867 1.503 . S
C860 C859 1.410 . S
C860 C861 1.392 . S
C860 C863 1.511 . S
C861 C857 1.376 . S
C861 C860 1.392 . S
C861 H873 0.929 . S
C862 C858 1.531 . S
C862 H874 0.960 . S
C862 H875 0.962 . S
C862 H876 0.960 . S
C863 C860 1.511 . S
C863 H877 0.961 . S
C863 H878 0.961 . S
C863 H879 0.961 . S
C864 C865 1.370 . S
C864 C866 1.363 . S
C864 H880 0.931 . S
C865 C864 1.370 . S
C865 C869 1.408 . S
C866 C864 1.363 . S
C866 C867 1.370 . S
C866 C870 1.524 . S
C867 C859 1.503 . S
C867 C866 1.370 . S
C867 C868 1.403 . S
C868 C867 1.403 . S
C868 C869 1.404 . S
C868 C871 1.539 . S
C869 C865 1.408 . S
C869 C868 1.404 . S
C869 H881 0.930 . S
C870 C866 1.524 . S
C870 H882 0.956 . S
C870 H883 0.961 . S
C870 H884 0.961 . S
C871 C868 1.539 . S
C871 H885 0.958 . S
C871 H886 0.961 . S
C871 H887 0.960 . S
H872 C856 0.931 . S
H873 C861 0.929 . S
H874 C862 0.960 . S
H875 C862 0.962 . S
H876 C862 0.960 . S
H877 C863 0.961 . S
H878 C863 0.961 . S
H879 C863 0.961 . S
H880 C864 0.931 . S
H881 C869 0.930 . S
H882 C870 0.956 . S
H883 C870 0.961 . S
H884 C870 0.961 . S
H885 C871 0.958 . S
H886 C871 0.961 . S
H887 C871 0.960 . S
C888 C889 1.391 . S
C888 C890 1.394 . S
C888 H904 0.931 . S
C889 C888 1.391 . S
C889 C893 1.376 . S
C890 C888 1.394 . S
C890 C891 1.369 . S
C890 C894 1.531 . S
C891 C890 1.369 . S
C891 C892 1.410 . S
C891 C899 1.503 . S
C892 C891 1.410 . S
C892 C893 1.392 . S
C892 C895 1.511 . S
C893 C889 1.376 . S
C893 C892 1.392 . S
C893 H905 0.929 . S
C894 C890 1.531 . S
C894 H906 0.960 . S
C894 H907 0.962 . S
C894 H908 0.960 . S
C895 C892 1.511 . S
C895 H909 0.961 . S
C895 H910 0.961 . S
C895 H911 0.961 1_554 S
C896 C897 1.370 . S
C896 C898 1.363 . S
C896 H912 0.931 . S
C897 C896 1.370 . S
C897 C901 1.408 . S
C898 C896 1.363 . S
C898 C899 1.370 . S
C898 C902 1.524 . S
C899 C891 1.503 . S
C899 C898 1.370 . S
C899 C900 1.403 . S
C900 C899 1.403 . S
C900 C901 1.404 . S
C900 C903 1.539 1_554 S
C901 C897 1.408 . S
C901 C900 1.404 . S
C901 H913 0.930 1_554 S
C902 C898 1.524 . S
C902 H914 0.956 . S
C902 H915 0.961 . S
C902 H916 0.961 . S
C903 C900 1.539 1_556 S
C903 H917 0.958 . S
C903 H918 0.961 . S
C903 H919 0.960 . S
H904 C888 0.931 . S
H905 C893 0.929 . S
H906 C894 0.960 . S
H907 C894 0.962 . S
H908 C894 0.960 . S
H909 C895 0.961 . S
H910 C895 0.961 . S
H911 C895 0.961 1_556 S
H912 C896 0.931 . S
H913 C901 0.930 1_556 S
H914 C902 0.956 . S
H915 C902 0.961 . S
H916 C902 0.961 . S
H917 C903 0.958 . S
H918 C903 0.961 . S
H919 C903 0.960 . S
C920 C921 1.391 . S
C920 C922 1.394 . S
C920 H936 0.931 . S
C921 C920 1.391 . S
C921 C925 1.376 . S
C922 C920 1.394 . S
C922 C923 1.369 . S
C922 C926 1.531 . S
C923 C922 1.369 . S
C923 C924 1.410 . S
C923 C931 1.503 . S
C924 C923 1.410 . S
C924 C925 1.392 . S
C924 C927 1.511 . S
C925 C921 1.376 . S
C925 C924 1.392 . S
C925 H937 0.929 . S
C926 C922 1.531 . S
C926 H938 0.960 . S
C926 H939 0.962 . S
C926 H940 0.960 . S
C927 C924 1.511 . S
C927 H941 0.961 . S
C927 H942 0.961 . S
C927 H943 0.961 . S
C928 C929 1.370 . S
C928 C930 1.363 . S
C928 H944 0.931 . S
C929 C928 1.370 . S
C929 C933 1.408 . S
C930 C928 1.363 . S
C930 C931 1.370 . S
C930 C934 1.524 . S
C931 C923 1.503 . S
C931 C930 1.370 . S
C931 C932 1.403 . S
C932 C931 1.403 . S
C932 C933 1.404 . S
C932 C935 1.539 . S
C933 C929 1.408 . S
C933 C932 1.404 . S
C933 H945 0.930 . S
C934 C930 1.524 . S
C934 H946 0.956 . S
C934 H947 0.961 . S
C934 H948 0.961 . S
C935 C932 1.539 . S
C935 H949 0.958 . S
C935 H950 0.961 . S
C935 H951 0.960 . S
H936 C920 0.931 . S
H937 C925 0.929 . S
H938 C926 0.960 . S
H939 C926 0.962 . S
H940 C926 0.960 . S
H941 C927 0.961 . S
H942 C927 0.961 . S
H943 C927 0.961 . S
H944 C928 0.931 . S
H945 C933 0.930 . S
H946 C934 0.956 . S
H947 C934 0.961 . S
H948 C934 0.961 . S
H949 C935 0.958 . S
H950 C935 0.961 . S
H951 C935 0.960 . S
C952 C953 1.391 . S
C952 C954 1.394 . S
C952 H968 0.931 . S
C953 C952 1.391 . S
C953 C957 1.376 . S
C954 C952 1.394 . S
C954 C955 1.369 . S
C954 C958 1.531 . S
C955 C954 1.369 . S
C955 C956 1.410 . S
C955 C963 1.503 . S
C956 C955 1.410 . S
C956 C957 1.392 . S
C956 C959 1.511 . S
C957 C953 1.376 . S
C957 C956 1.392 . S
C957 H969 0.929 . S
C958 C954 1.531 . S
C958 H970 0.960 . S
C958 H971 0.962 . S
C958 H972 0.960 . S
C959 C956 1.511 . S
C959 H973 0.961 . S
C959 H974 0.961 . S
C959 H975 0.961 . S
C960 C961 1.370 . S
C960 C962 1.363 . S
C960 H976 0.931 . S
C961 C960 1.370 . S
C961 C965 1.408 . S
C962 C960 1.363 . S
C962 C963 1.370 . S
C962 C966 1.524 . S
C963 C955 1.503 . S
C963 C962 1.370 . S
C963 C964 1.403 . S
C964 C963 1.403 . S
C964 C965 1.404 . S
C964 C967 1.539 . S
C965 C961 1.408 . S
C965 C964 1.404 . S
C965 H977 0.930 . S
C966 C962 1.524 . S
C966 H978 0.956 . S
C966 H979 0.961 . S
C966 H980 0.961 . S
C967 C964 1.539 . S
C967 H981 0.958 . S
C967 H982 0.961 . S
C967 H983 0.960 . S
H968 C952 0.931 . S
H969 C957 0.929 . S
H970 C958 0.960 . S
H971 C958 0.962 . S
H972 C958 0.960 . S
H973 C959 0.961 . S
H974 C959 0.961 . S
H975 C959 0.961 . S
H976 C960 0.931 . S
H977 C965 0.930 . S
H978 C966 0.956 . S
H979 C966 0.961 . S
H980 C966 0.961 . S
H981 C967 0.958 . S
H982 C967 0.961 . S
H983 C967 0.960 . S
C984 C985 1.391 . S
C984 C986 1.394 . S
C984 H1000 0.931 . S
C985 C984 1.391 . S
C985 C989 1.376 . S
C986 C984 1.394 . S
C986 C987 1.369 . S
C986 C990 1.531 . S
C987 C986 1.369 . S
C987 C988 1.410 . S
C987 C995 1.503 . S
C988 C987 1.410 . S
C988 C989 1.392 . S
C988 C991 1.511 . S
C989 C985 1.376 . S
C989 C988 1.392 . S
C989 H1001 0.929 . S
C990 C986 1.531 . S
C990 H1002 0.960 . S
C990 H1003 0.962 . S
C990 H1004 0.960 . S
C991 C988 1.511 . S
C991 H1005 0.961 . S
C991 H1006 0.961 . S
C991 H1007 0.961 . S
C992 C993 1.370 . S
C992 C994 1.363 . S
C992 H1008 0.931 . S
C993 C992 1.370 . S
C993 C997 1.408 . S
C994 C992 1.363 . S
C994 C995 1.370 . S
C994 C998 1.524 . S
C995 C987 1.503 . S
C995 C994 1.370 . S
C995 C996 1.403 . S
C996 C995 1.403 . S
C996 C997 1.404 . S
C996 C999 1.539 . S
C997 C993 1.408 . S
C997 C996 1.404 . S
C997 H1009 0.930 . S
C998 C994 1.524 . S
C998 H1010 0.956 . S
C998 H1011 0.961 . S
C998 H1012 0.961 . S
C999 C996 1.539 . S
C999 H1013 0.958 . S
C999 H1014 0.961 . S
C999 H1015 0.960 . S
H1000 C984 0.931 . S
H1001 C989 0.929 . S
H1002 C990 0.960 . S
H1003 C990 0.962 . S
H1004 C990 0.960 . S
H1005 C991 0.961 . S
H1006 C991 0.961 . S
H1007 C991 0.961 . S
H1008 C992 0.931 . S
H1009 C997 0.930 . S
H1010 C998 0.956 . S
H1011 C998 0.961 . S
H1012 C998 0.961 . S
H1013 C999 0.958 . S
H1014 C999 0.961 . S
H1015 C999 0.960 . S
C1016 C1017 1.391 . S
C1016 C1018 1.394 . S
C1016 H1032 0.931 . S
C1017 C1016 1.391 . S
C1017 C1021 1.376 . S
C1018 C1016 1.394 . S
C1018 C1019 1.369 . S
C1018 C1022 1.531 . S
C1019 C1018 1.369 . S
C1019 C1020 1.410 . S
C1019 C1027 1.503 . S
C1020 C1019 1.410 . S
C1020 C1021 1.392 . S
C1020 C1023 1.511 . S
C1021 C1017 1.376 . S
C1021 C1020 1.392 . S
C1021 H1033 0.929 . S
C1022 C1018 1.531 . S
C1022 H1034 0.960 . S
C1022 H1035 0.962 . S
C1022 H1036 0.960 . S
C1023 C1020 1.511 . S
C1023 H1037 0.961 . S
C1023 H1038 0.961 . S
C1023 H1039 0.961 . S
C1024 C1025 1.370 . S
C1024 C1026 1.363 . S
C1024 H1040 0.931 . S
C1025 C1024 1.370 . S
C1025 C1029 1.408 . S
C1026 C1024 1.363 . S
C1026 C1027 1.370 . S
C1026 C1030 1.524 . S
C1027 C1019 1.503 . S
C1027 C1026 1.370 . S
C1027 C1028 1.403 . S
C1028 C1027 1.403 . S
C1028 C1029 1.404 . S
C1028 C1031 1.539 . S
C1029 C1025 1.408 . S
C1029 C1028 1.404 . S
C1029 H1041 0.930 . S
C1030 C1026 1.524 . S
C1030 H1042 0.956 . S
C1030 H1043 0.961 . S
C1030 H1044 0.961 . S
C1031 C1028 1.539 . S
C1031 H1045 0.958 . S
C1031 H1046 0.961 . S
C1031 H1047 0.960 . S
H1032 C1016 0.931 . S
H1033 C1021 0.929 . S
H1034 C1022 0.960 . S
H1035 C1022 0.962 . S
H1036 C1022 0.960 . S
H1037 C1023 0.961 . S
H1038 C1023 0.961 . S
H1039 C1023 0.961 . S
H1040 C1024 0.931 . S
H1041 C1029 0.930 . S
H1042 C1030 0.956 . S
H1043 C1030 0.961 . S
H1044 C1030 0.961 . S
H1045 C1031 0.958 . S
H1046 C1031 0.961 . S
H1047 C1031 0.960 . S
C1048 C1049 1.391 . S
C1048 C1050 1.394 . S
C1048 H1064 0.931 . S
C1049 C1048 1.391 . S
C1049 C1053 1.376 . S
C1050 C1048 1.394 . S
C1050 C1051 1.369 . S
C1050 C1054 1.531 . S
C1051 C1050 1.369 . S
C1051 C1052 1.410 . S
C1051 C1059 1.503 . S
C1052 C1051 1.410 . S
C1052 C1053 1.392 . S
C1052 C1055 1.511 1_556 S
C1053 C1049 1.376 . S
C1053 C1052 1.392 . S
C1053 H1065 0.929 . S
C1054 C1050 1.531 . S
C1054 H1066 0.960 . S
C1054 H1067 0.962 . S
C1054 H1068 0.960 . S
C1055 C1052 1.511 1_554 S
C1055 H1069 0.961 . S
C1055 H1070 0.961 . S
C1055 H1071 0.961 . S
C1056 C1057 1.370 . S
C1056 C1058 1.363 . S
C1056 H1072 0.931 . S
C1057 C1056 1.370 . S
C1057 C1061 1.408 . S
C1058 C1056 1.363 . S
C1058 C1059 1.370 . S
C1058 C1062 1.524 . S
C1059 C1051 1.503 . S
C1059 C1058 1.370 . S
C1059 C1060 1.403 . S
C1060 C1059 1.403 . S
C1060 C1061 1.404 . S
C1060 C1063 1.539 . S
C1061 C1057 1.408 . S
C1061 C1060 1.404 . S
C1061 H1073 0.930 . S
C1062 C1058 1.524 . S
C1062 H1074 0.956 . S
C1062 H1075 0.935 1_556 S
C1062 H1076 0.961 1_556 S
C1063 C1060 1.539 . S
C1063 H1077 0.958 . S
C1063 H1078 0.961 . S
C1063 H1079 0.960 . S
H1064 C1048 0.931 . S
H1065 C1053 0.929 . S
H1066 C1054 0.960 . S
H1067 C1054 0.962 . S
H1068 C1054 0.960 . S
H1069 C1055 0.961 . S
H1070 C1055 0.961 . S
H1071 C1055 0.961 . S
H1072 C1056 0.931 . S
H1073 C1061 0.930 . S
H1074 C1062 0.956 . S
H1075 C1062 0.935 1_554 S
H1076 C1062 0.961 1_554 S
H1077 C1063 0.958 . S
H1078 C1063 0.961 . S
H1079 C1063 0.960 . S
C1080 C1081 1.391 . S
C1080 C1082 1.394 . S
C1080 H1096 0.931 . S
C1081 C1080 1.391 . S
C1081 C1085 1.376 . S
C1082 C1080 1.394 . S
C1082 C1083 1.369 . S
C1082 C1086 1.531 . S
C1083 C1082 1.369 . S
C1083 C1084 1.410 . S
C1083 C1091 1.503 . S
C1084 C1083 1.410 . S
C1084 C1085 1.392 . S
C1084 C1087 1.511 . S
C1085 C1081 1.376 . S
C1085 C1084 1.392 . S
C1085 H1097 0.929 . S
C1086 C1082 1.531 . S
C1086 H1098 0.960 . S
C1086 H1099 0.962 . S
C1086 H1100 0.960 . S
C1087 C1084 1.511 . S
C1087 H1101 0.961 . S
C1087 H1102 0.961 . S
C1087 H1103 0.961 . S
C1088 C1089 1.370 . S
C1088 C1090 1.363 . S
C1088 H1104 0.931 . S
C1089 C1088 1.370 . S
C1089 C1093 1.408 . S
C1090 C1088 1.363 . S
C1090 C1091 1.370 . S
C1090 C1094 1.524 . S
C1091 C1083 1.503 . S
C1091 C1090 1.370 . S
C1091 C1092 1.403 . S
C1092 C1091 1.403 . S
C1092 C1093 1.404 . S
C1092 C1095 1.539 . S
C1093 C1089 1.408 . S
C1093 C1092 1.404 . S
C1093 H1105 0.930 . S
C1094 C1090 1.524 . S
C1094 H1106 0.956 . S
C1094 H1107 0.961 . S
C1094 H1108 0.961 . S
C1095 C1092 1.539 . S
C1095 H1109 0.958 . S
C1095 H1110 0.961 . S
C1095 H1111 0.960 . S
H1096 C1080 0.931 . S
H1097 C1085 0.929 . S
H1098 C1086 0.960 . S
H1099 C1086 0.962 . S
H1100 C1086 0.960 . S
H1101 C1087 0.961 . S
H1102 C1087 0.961 . S
H1103 C1087 0.961 . S
H1104 C1088 0.931 . S
H1105 C1093 0.930 . S
H1106 C1094 0.956 . S
H1107 C1094 0.961 . S
H1108 C1094 0.961 . S
H1109 C1095 0.958 . S
H1110 C1095 0.961 . S
H1111 C1095 0.960 . S
C1112 C1113 1.391 . S
C1112 C1114 1.394 . S
C1112 H1128 0.931 . S
C1113 C1112 1.391 . S
C1113 C1117 1.376 . S
C1114 C1112 1.394 . S
C1114 C1115 1.369 . S
C1114 C1118 1.531 . S
C1115 C1114 1.369 . S
C1115 C1116 1.410 . S
C1115 C1123 1.503 . S
C1116 C1115 1.410 . S
C1116 C1117 1.392 . S
C1116 C1119 1.511 . S
C1117 C1113 1.376 . S
C1117 C1116 1.392 . S
C1117 H1129 0.929 . S
C1118 C1114 1.531 . S
C1118 H1130 0.960 . S
C1118 H1131 0.962 . S
C1118 H1132 0.960 . S
C1119 C1116 1.511 . S
C1119 H1133 0.961 . S
C1119 H1134 0.961 . S
C1119 H1135 0.961 . S
C1120 C1121 1.370 . S
C1120 C1122 1.363 . S
C1120 H1136 0.931 . S
C1121 C1120 1.370 . S
C1121 C1125 1.408 . S
C1122 C1120 1.363 . S
C1122 C1123 1.370 . S
C1122 C1126 1.524 . S
C1123 C1115 1.503 . S
C1123 C1122 1.370 . S
C1123 C1124 1.403 . S
C1124 C1123 1.403 . S
C1124 C1125 1.404 . S
C1124 C1127 1.539 . S
C1125 C1121 1.408 . S
C1125 C1124 1.404 . S
C1125 H1137 0.930 . S
C1126 C1122 1.524 . S
C1126 H1138 0.956 . S
C1126 H1139 0.961 . S
C1126 H1140 0.961 . S
C1127 C1124 1.539 . S
C1127 H1141 0.958 . S
C1127 H1142 0.961 . S
C1127 H1143 0.960 . S
H1128 C1112 0.931 . S
H1129 C1117 0.929 . S
H1130 C1118 0.960 . S
H1131 C1118 0.962 . S
H1132 C1118 0.960 . S
H1133 C1119 0.961 . S
H1134 C1119 0.961 . S
H1135 C1119 0.961 . S
H1136 C1120 0.931 . S
H1137 C1125 0.930 . S
H1138 C1126 0.956 . S
H1139 C1126 0.961 . S
H1140 C1126 0.961 . S
H1141 C1127 0.958 . S
H1142 C1127 0.961 . S
H1143 C1127 0.960 . S
C1144 C1145 1.391 . S
C1144 C1146 1.394 . S
C1144 H1160 0.931 . S
C1145 C1144 1.391 . S
C1145 C1149 1.376 . S
C1146 C1144 1.394 . S
C1146 C1147 1.369 . S
C1146 C1150 1.531 . S
C1147 C1146 1.369 . S
C1147 C1148 1.410 . S
C1147 C1155 1.503 . S
C1148 C1147 1.410 . S
C1148 C1149 1.392 . S
C1148 C1151 1.511 . S
C1149 C1145 1.376 . S
C1149 C1148 1.392 . S
C1149 H1161 0.929 . S
C1150 C1146 1.531 . S
C1150 H1162 0.960 . S
C1150 H1163 0.962 . S
C1150 H1164 0.960 . S
C1151 C1148 1.511 . S
C1151 H1165 0.961 . S
C1151 H1166 0.961 . S
C1151 H1167 0.961 . S
C1152 C1153 1.370 . S
C1152 C1154 1.363 . S
C1152 H1168 0.931 . S
C1153 C1152 1.370 . S
C1153 C1157 1.408 . S
C1154 C1152 1.363 . S
C1154 C1155 1.370 . S
C1154 C1158 1.524 . S
C1155 C1147 1.503 . S
C1155 C1154 1.370 . S
C1155 C1156 1.403 . S
C1156 C1155 1.403 . S
C1156 C1157 1.404 . S
C1156 C1159 1.539 . S
C1157 C1153 1.408 . S
C1157 C1156 1.404 . S
C1157 H1169 0.930 . S
C1158 C1154 1.524 . S
C1158 H1170 0.956 . S
C1158 H1171 0.961 . S
C1158 H1172 0.961 . S
C1159 C1156 1.539 . S
C1159 H1173 0.958 . S
C1159 H1174 0.961 . S
C1159 H1175 0.960 . S
H1160 C1144 0.931 . S
H1161 C1149 0.929 . S
H1162 C1150 0.960 . S
H1163 C1150 0.962 . S
H1164 C1150 0.960 . S
H1165 C1151 0.961 . S
H1166 C1151 0.961 . S
H1167 C1151 0.961 . S
H1168 C1152 0.931 . S
H1169 C1157 0.930 . S
H1170 C1158 0.956 . S
H1171 C1158 0.961 . S
H1172 C1158 0.961 . S
H1173 C1159 0.958 . S
H1174 C1159 0.961 . S
H1175 C1159 0.960 . S
C1176 C1177 1.391 . S
C1176 C1178 1.394 . S
C1176 H1192 0.931 . S
C1177 C1176 1.391 . S
C1177 C1181 1.376 . S
C1178 C1176 1.394 . S
C1178 C1179 1.369 . S
C1178 C1182 1.531 . S
C1179 C1178 1.369 . S
C1179 C1180 1.410 . S
C1179 C1187 1.503 . S
C1180 C1179 1.410 . S
C1180 C1181 1.392 . S
C1180 C1183 1.511 . S
C1181 C1177 1.376 . S
C1181 C1180 1.392 . S
C1181 H1193 0.929 . S
C1182 C1178 1.531 . S
C1182 H1194 0.960 . S
C1182 H1195 0.962 . S
C1182 H1196 0.960 . S
C1183 C1180 1.511 . S
C1183 H1197 0.961 . S
C1183 H1198 0.961 . S
C1183 H1199 0.961 . S
C1184 C1185 1.370 . S
C1184 C1186 1.363 . S
C1184 H1200 0.931 . S
C1185 C1184 1.370 . S
C1185 C1189 1.408 . S
C1186 C1184 1.363 . S
C1186 C1187 1.370 . S
C1186 C1190 1.524 . S
C1187 C1179 1.503 . S
C1187 C1186 1.370 . S
C1187 C1188 1.403 . S
C1188 C1187 1.403 . S
C1188 C1189 1.404 . S
C1188 C1191 1.539 . S
C1189 C1185 1.408 . S
C1189 C1188 1.404 . S
C1189 H1201 0.930 . S
C1190 C1186 1.524 . S
C1190 H1202 0.956 . S
C1190 H1203 0.961 . S
C1190 H1204 0.961 . S
C1191 C1188 1.539 . S
C1191 H1205 0.958 . S
C1191 H1206 0.961 . S
C1191 H1207 0.960 . S
H1192 C1176 0.931 . S
H1193 C1181 0.929 . S
H1194 C1182 0.960 . S
H1195 C1182 0.962 . S
H1196 C1182 0.960 . S
H1197 C1183 0.961 . S
H1198 C1183 0.961 . S
H1199 C1183 0.961 . S
H1200 C1184 0.931 . S
H1201 C1189 0.930 . S
H1202 C1190 0.956 . S
H1203 C1190 0.961 . S
H1204 C1190 0.961 . S
H1205 C1191 0.958 . S
H1206 C1191 0.961 . S
H1207 C1191 0.960 . S
C1208 C1209 1.391 . S
C1208 C1210 1.394 . S
C1208 H1224 0.931 . S
C1209 C1208 1.391 . S
C1209 C1213 1.376 . S
C1210 C1208 1.394 . S
C1210 C1211 1.369 . S
C1210 C1214 1.531 . S
C1211 C1210 1.369 . S
C1211 C1212 1.410 . S
C1211 C1219 1.503 . S
C1212 C1211 1.410 . S
C1212 C1213 1.392 . S
C1212 C1215 1.511 . S
C1213 C1209 1.376 . S
C1213 C1212 1.392 . S
C1213 H1225 0.929 . S
C1214 C1210 1.531 . S
C1214 H1226 0.960 . S
C1214 H1227 0.962 . S
C1214 H1228 0.960 . S
C1215 C1212 1.511 . S
C1215 H1229 0.961 . S
C1215 H1230 0.961 . S
C1215 H1231 0.961 . S
C1216 C1217 1.370 . S
C1216 C1218 1.363 . S
C1216 H1232 0.931 . S
C1217 C1216 1.370 . S
C1217 C1221 1.408 . S
C1218 C1216 1.363 . S
C1218 C1219 1.370 . S
C1218 C1222 1.524 . S
C1219 C1211 1.503 . S
C1219 C1218 1.370 . S
C1219 C1220 1.403 . S
C1220 C1219 1.403 . S
C1220 C1221 1.404 . S
C1220 C1223 1.539 . S
C1221 C1217 1.408 . S
C1221 C1220 1.404 . S
C1221 H1233 0.930 . S
C1222 C1218 1.524 . S
C1222 H1234 0.956 . S
C1222 H1235 0.961 . S
C1222 H1236 0.961 . S
C1223 C1220 1.539 . S
C1223 H1237 0.958 . S
C1223 H1238 0.961 . S
C1223 H1239 0.960 . S
H1224 C1208 0.931 . S
H1225 C1213 0.929 . S
H1226 C1214 0.960 . S
H1227 C1214 0.962 . S
H1228 C1214 0.960 . S
H1229 C1215 0.961 . S
H1230 C1215 0.961 . S
H1231 C1215 0.961 . S
H1232 C1216 0.931 . S
H1233 C1221 0.930 . S
H1234 C1222 0.956 . S
H1235 C1222 0.961 . S
H1236 C1222 0.961 . S
H1237 C1223 0.958 . S
H1238 C1223 0.961 . S
H1239 C1223 0.960 . S
C1240 C1241 1.391 . S
C1240 C1242 1.394 . S
C1240 H1256 0.931 . S
C1241 C1240 1.391 . S
C1241 C1245 1.376 . S
C1242 C1240 1.394 . S
C1242 C1243 1.369 . S
C1242 C1246 1.531 . S
C1243 C1242 1.369 . S
C1243 C1244 1.410 . S
C1243 C1251 1.503 . S
C1244 C1243 1.410 . S
C1244 C1245 1.392 . S
C1244 C1247 1.511 . S
C1245 C1241 1.376 . S
C1245 C1244 1.392 . S
C1245 H1257 0.929 . S
C1246 C1242 1.531 . S
C1246 H1258 0.960 . S
C1246 H1259 0.962 . S
C1246 H1260 0.960 . S
C1247 C1244 1.511 . S
C1247 H1261 0.961 . S
C1247 H1262 0.961 . S
C1247 H1263 0.961 . S
C1248 C1249 1.370 . S
C1248 C1250 1.363 . S
C1248 H1264 0.931 . S
C1249 C1248 1.370 . S
C1249 C1253 1.408 . S
C1250 C1248 1.363 . S
C1250 C1251 1.370 . S
C1250 C1254 1.524 . S
C1251 C1243 1.503 . S
C1251 C1250 1.370 . S
C1251 C1252 1.403 . S
C1252 C1251 1.403 . S
C1252 C1253 1.404 . S
C1252 C1255 1.539 . S
C1253 C1249 1.408 . S
C1253 C1252 1.404 . S
C1253 H1265 0.930 . S
C1254 C1250 1.524 . S
C1254 H1266 0.956 . S
C1254 H1267 0.961 . S
C1254 H1268 0.961 . S
C1255 C1252 1.539 . S
C1255 H1269 0.958 . S
C1255 H1270 0.961 . S
C1255 H1271 0.960 . S
H1256 C1240 0.931 . S
H1257 C1245 0.929 . S
H1258 C1246 0.960 . S
H1259 C1246 0.962 . S
H1260 C1246 0.960 . S
H1261 C1247 0.961 . S
H1262 C1247 0.961 . S
H1263 C1247 0.961 . S
H1264 C1248 0.931 . S
H1265 C1253 0.930 . S
H1266 C1254 0.956 . S
H1267 C1254 0.961 . S
H1268 C1254 0.961 . S
H1269 C1255 0.958 . S
H1270 C1255 0.961 . S
H1271 C1255 0.960 . S
C1272 C1273 1.391 . S
C1272 C1274 1.394 . S
C1272 H1288 0.931 . S
C1273 C1272 1.391 . S
C1273 C1277 1.376 . S
C1274 C1272 1.394 . S
C1274 C1275 1.369 . S
C1274 C1278 1.531 . S
C1275 C1274 1.369 . S
C1275 C1276 1.410 . S
C1275 C1283 1.503 . S
C1276 C1275 1.410 . S
C1276 C1277 1.392 . S
C1276 C1279 1.511 . S
C1277 C1273 1.376 . S
C1277 C1276 1.392 . S
C1277 H1289 0.929 . S
C1278 C1274 1.531 . S
C1278 H1290 0.960 . S
C1278 H1291 0.962 . S
C1278 H1292 0.960 . S
C1279 C1276 1.511 . S
C1279 H1293 0.961 . S
C1279 H1294 0.961 . S
C1279 H1295 0.961 . S
C1280 C1281 1.370 . S
C1280 C1282 1.363 . S
C1280 H1296 0.931 . S
C1281 C1280 1.370 . S
C1281 C1285 1.408 . S
C1282 C1280 1.363 . S
C1282 C1283 1.370 . S
C1282 C1286 1.524 . S
C1283 C1275 1.503 . S
C1283 C1282 1.370 . S
C1283 C1284 1.403 . S
C1284 C1283 1.403 . S
C1284 C1285 1.404 . S
C1284 C1287 1.539 . S
C1285 C1281 1.408 . S
C1285 C1284 1.404 . S
C1285 H1297 0.930 . S
C1286 C1282 1.524 . S
C1286 H1298 0.956 . S
C1286 H1299 0.961 . S
C1286 H1300 0.961 . S
C1287 C1284 1.539 . S
C1287 H1301 0.958 . S
C1287 H1302 0.961 . S
C1287 H1303 0.960 . S
H1288 C1272 0.931 . S
H1289 C1277 0.929 . S
H1290 C1278 0.960 . S
H1291 C1278 0.962 . S
H1292 C1278 0.960 . S
H1293 C1279 0.961 . S
H1294 C1279 0.961 . S
H1295 C1279 0.961 . S
H1296 C1280 0.931 . S
H1297 C1285 0.930 . S
H1298 C1286 0.956 . S
H1299 C1286 0.961 . S
H1300 C1286 0.961 . S
H1301 C1287 0.958 . S
H1302 C1287 0.961 . S
H1303 C1287 0.960 . S
C1304 C1305 1.391 . S
C1304 C1306 1.394 . S
C1304 H1320 0.931 . S
C1305 C1304 1.391 . S
C1305 C1309 1.376 . S
C1306 C1304 1.394 . S
C1306 C1307 1.369 . S
C1306 C1310 1.531 . S
C1307 C1306 1.369 . S
C1307 C1308 1.410 . S
C1307 C1315 1.503 . S
C1308 C1307 1.410 . S
C1308 C1309 1.392 . S
C1308 C1311 1.511 . S
C1309 C1305 1.376 . S
C1309 C1308 1.392 . S
C1309 H1321 0.929 . S
C1310 C1306 1.531 . S
C1310 H1322 0.960 . S
C1310 H1323 0.962 . S
C1310 H1324 0.960 . S
C1311 C1308 1.511 . S
C1311 H1325 0.961 . S
C1311 H1326 0.961 . S
C1311 H1327 0.961 . S
C1312 C1313 1.370 . S
C1312 C1314 1.363 . S
C1312 H1328 0.931 . S
C1313 C1312 1.370 . S
C1313 C1317 1.408 . S
C1314 C1312 1.363 . S
C1314 C1315 1.370 . S
C1314 C1318 1.524 . S
C1315 C1307 1.503 . S
C1315 C1314 1.370 . S
C1315 C1316 1.403 . S
C1316 C1315 1.403 . S
C1316 C1317 1.404 . S
C1316 C1319 1.539 . S
C1317 C1313 1.408 . S
C1317 C1316 1.404 . S
C1317 H1329 0.930 . S
C1318 C1314 1.524 . S
C1318 H1330 0.956 . S
C1318 H1331 0.961 . S
C1318 H1332 0.961 . S
C1319 C1316 1.539 . S
C1319 H1333 0.958 . S
C1319 H1334 0.961 . S
C1319 H1335 0.960 . S
H1320 C1304 0.931 . S
H1321 C1309 0.929 . S
H1322 C1310 0.960 . S
H1323 C1310 0.962 . S
H1324 C1310 0.960 . S
H1325 C1311 0.961 . S
H1326 C1311 0.961 . S
H1327 C1311 0.961 . S
H1328 C1312 0.931 . S
H1329 C1317 0.930 . S
H1330 C1318 0.956 . S
H1331 C1318 0.961 . S
H1332 C1318 0.961 . S
H1333 C1319 0.958 . S
H1334 C1319 0.961 . S
H1335 C1319 0.960 . S
C1336 C1337 1.391 . S
C1336 C1338 1.394 . S
C1336 H1352 0.931 . S
C1337 C1336 1.391 . S
C1337 C1341 1.376 . S
C1338 C1336 1.394 . S
C1338 C1339 1.369 . S
C1338 C1342 1.531 . S
C1339 C1338 1.369 . S
C1339 C1340 1.410 . S
C1339 C1347 1.503 . S
C1340 C1339 1.410 . S
C1340 C1341 1.392 . S
C1340 C1343 1.511 . S
C1341 C1337 1.376 . S
C1341 C1340 1.392 . S
C1341 H1353 0.929 . S
C1342 C1338 1.531 . S
C1342 H1354 0.960 . S
C1342 H1355 0.962 . S
C1342 H1356 0.960 . S
C1343 C1340 1.511 . S
C1343 H1357 0.961 . S
C1343 H1358 0.961 . S
C1343 H1359 0.961 . S
C1344 C1345 1.370 . S
C1344 C1346 1.363 . S
C1344 H1360 0.931 . S
C1345 C1344 1.370 . S
C1345 C1349 1.408 . S
C1346 C1344 1.363 . S
C1346 C1347 1.370 . S
C1346 C1350 1.524 . S
C1347 C1339 1.503 . S
C1347 C1346 1.370 . S
C1347 C1348 1.403 . S
C1348 C1347 1.403 . S
C1348 C1349 1.404 . S
C1348 C1351 1.539 . S
C1349 C1345 1.408 . S
C1349 C1348 1.404 . S
C1349 H1361 0.930 . S
C1350 C1346 1.524 . S
C1350 H1362 0.956 . S
C1350 H1363 0.961 . S
C1350 H1364 0.961 . S
C1351 C1348 1.539 . S
C1351 H1365 0.958 . S
C1351 H1366 0.961 . S
C1351 H1367 0.960 . S
H1352 C1336 0.931 . S
H1353 C1341 0.929 . S
H1354 C1342 0.960 . S
H1355 C1342 0.962 . S
H1356 C1342 0.960 . S
H1357 C1343 0.961 . S
H1358 C1343 0.961 . S
H1359 C1343 0.961 . S
H1360 C1344 0.931 . S
H1361 C1349 0.930 . S
H1362 C1350 0.956 . S
H1363 C1350 0.961 . S
H1364 C1350 0.961 . S
H1365 C1351 0.958 . S
H1366 C1351 0.961 . S
H1367 C1351 0.960 . S
C1368 C1369 1.391 . S
C1368 C1370 1.394 . S
C1368 H1384 0.931 . S
C1369 C1368 1.391 . S
C1369 C1373 1.376 . S
C1370 C1368 1.394 . S
C1370 C1371 1.369 . S
C1370 C1374 1.531 . S
C1371 C1370 1.369 . S
C1371 C1372 1.410 . S
C1371 C1379 1.503 . S
C1372 C1371 1.410 . S
C1372 C1373 1.392 . S
C1372 C1375 1.511 . S
C1373 C1369 1.376 . S
C1373 C1372 1.392 . S
C1373 H1385 0.929 . S
C1374 C1370 1.531 . S
C1374 H1386 0.960 . S
C1374 H1387 0.962 . S
C1374 H1388 0.960 . S
C1375 C1372 1.511 . S
C1375 H1389 0.961 . S
C1375 H1390 0.961 . S
C1375 H1391 0.961 . S
C1376 C1377 1.370 . S
C1376 C1378 1.363 . S
C1376 H1392 0.931 . S
C1377 C1376 1.370 . S
C1377 C1381 1.408 . S
C1378 C1376 1.363 . S
C1378 C1379 1.370 . S
C1378 C1382 1.524 . S
C1379 C1371 1.503 . S
C1379 C1378 1.370 . S
C1379 C1380 1.403 . S
C1380 C1379 1.403 . S
C1380 C1381 1.404 . S
C1380 C1383 1.539 . S
C1381 C1377 1.408 . S
C1381 C1380 1.404 . S
C1381 H1393 0.930 . S
C1382 C1378 1.524 . S
C1382 H1394 0.956 . S
C1382 H1395 0.961 . S
C1382 H1396 0.961 . S
C1383 C1380 1.539 . S
C1383 H1397 0.958 . S
C1383 H1398 0.961 . S
C1383 H1399 0.960 . S
H1384 C1368 0.931 . S
H1385 C1373 0.929 . S
H1386 C1374 0.960 . S
H1387 C1374 0.962 . S
H1388 C1374 0.960 . S
H1389 C1375 0.961 . S
H1390 C1375 0.961 . S
H1391 C1375 0.961 . S
H1392 C1376 0.931 . S
H1393 C1381 0.930 . S
H1394 C1382 0.956 . S
H1395 C1382 0.961 . S
H1396 C1382 0.961 . S
H1397 C1383 0.958 . S
H1398 C1383 0.961 . S
H1399 C1383 0.960 . S
C1400 C1401 1.391 . S
C1400 C1402 1.394 . S
C1400 H1416 0.931 . S
C1401 C1400 1.391 . S
C1401 C1405 1.376 . S
C1402 C1400 1.394 . S
C1402 C1403 1.369 . S
C1402 C1406 1.531 . S
C1403 C1402 1.369 . S
C1403 C1404 1.410 . S
C1403 C1411 1.503 . S
C1404 C1403 1.410 . S
C1404 C1405 1.392 . S
C1404 C1407 1.511 . S
C1405 C1401 1.376 . S
C1405 C1404 1.392 . S
C1405 H1417 0.929 . S
C1406 C1402 1.531 . S
C1406 H1418 0.960 . S
C1406 H1419 0.962 . S
C1406 H1420 0.960 . S
C1407 C1404 1.511 . S
C1407 H1421 0.961 . S
C1407 H1422 0.961 . S
C1407 H1423 0.961 . S
C1408 C1409 1.370 . S
C1408 C1410 1.363 . S
C1408 H1424 0.931 . S
C1409 C1408 1.370 . S
C1409 C1413 1.408 . S
C1410 C1408 1.363 . S
C1410 C1411 1.370 . S
C1410 C1414 1.524 . S
C1411 C1403 1.503 . S
C1411 C1410 1.370 . S
C1411 C1412 1.403 . S
C1412 C1411 1.403 . S
C1412 C1413 1.404 . S
C1412 C1415 1.539 . S
C1413 C1409 1.408 . S
C1413 C1412 1.404 . S
C1413 H1425 0.930 . S
C1414 C1410 1.524 . S
C1414 H1426 0.956 . S
C1414 H1427 0.961 . S
C1414 H1428 0.961 . S
C1415 C1412 1.539 . S
C1415 H1429 0.958 . S
C1415 H1430 0.961 . S
C1415 H1431 0.960 . S
H1416 C1400 0.931 . S
H1417 C1405 0.929 . S
H1418 C1406 0.960 . S
H1419 C1406 0.962 . S
H1420 C1406 0.960 . S
H1421 C1407 0.961 . S
H1422 C1407 0.961 . S
H1423 C1407 0.961 . S
H1424 C1408 0.931 . S
H1425 C1413 0.930 . S
H1426 C1414 0.956 . S
H1427 C1414 0.961 . S
H1428 C1414 0.961 . S
H1429 C1415 0.958 . S
H1430 C1415 0.961 . S
H1431 C1415 0.960 . S
C1432 C1433 1.391 . S
C1432 C1434 1.394 . S
C1432 H1448 0.931 . S
C1433 C1432 1.391 . S
C1433 C1437 1.376 . S
C1434 C1432 1.394 . S
C1434 C1435 1.369 . S
C1434 C1438 1.531 . S
C1435 C1434 1.369 . S
C1435 C1436 1.410 . S
C1435 C1443 1.503 . S
C1436 C1435 1.410 . S
C1436 C1437 1.392 . S
C1436 C1439 1.511 . S
C1437 C1433 1.376 . S
C1437 C1436 1.392 . S
C1437 H1449 0.929 . S
C1438 C1434 1.531 . S
C1438 H1450 0.960 . S
C1438 H1451 0.962 . S
C1438 H1452 0.960 . S
C1439 C1436 1.511 . S
C1439 H1453 0.961 . S
C1439 H1454 0.961 . S
C1439 H1455 0.961 . S
C1440 C1441 1.370 . S
C1440 C1442 1.363 . S
C1440 H1456 0.931 . S
C1441 C1440 1.370 . S
C1441 C1445 1.408 . S
C1442 C1440 1.363 . S
C1442 C1443 1.370 . S
C1442 C1446 1.524 . S
C1443 C1435 1.503 . S
C1443 C1442 1.370 . S
C1443 C1444 1.403 . S
C1444 C1443 1.403 . S
C1444 C1445 1.404 . S
C1444 C1447 1.539 . S
C1445 C1441 1.408 . S
C1445 C1444 1.404 . S
C1445 H1457 0.930 . S
C1446 C1442 1.524 . S
C1446 H1458 0.956 . S
C1446 H1459 0.961 . S
C1446 H1460 0.961 . S
C1447 C1444 1.539 . S
C1447 H1461 0.958 . S
C1447 H1462 0.961 . S
C1447 H1463 0.960 . S
H1448 C1432 0.931 . S
H1449 C1437 0.929 . S
H1450 C1438 0.960 . S
H1451 C1438 0.962 . S
H1452 C1438 0.960 . S
H1453 C1439 0.961 . S
H1454 C1439 0.961 . S
H1455 C1439 0.961 . S
H1456 C1440 0.931 . S
H1457 C1445 0.930 . S
H1458 C1446 0.956 . S
H1459 C1446 0.961 . S
H1460 C1446 0.961 . S
H1461 C1447 0.958 . S
H1462 C1447 0.961 . S
H1463 C1447 0.960 . S
C1464 C1465 1.391 . S
C1464 C1466 1.394 . S
C1464 H1480 0.931 . S
C1465 C1464 1.391 . S
C1465 C1469 1.376 . S
C1466 C1464 1.394 . S
C1466 C1467 1.369 . S
C1466 C1470 1.531 . S
C1467 C1466 1.369 . S
C1467 C1468 1.410 . S
C1467 C1475 1.503 . S
C1468 C1467 1.410 . S
C1468 C1469 1.392 . S
C1468 C1471 1.511 . S
C1469 C1465 1.376 . S
C1469 C1468 1.392 . S
C1469 H1481 0.929 . S
C1470 C1466 1.531 . S
C1470 H1482 0.960 . S
C1470 H1483 0.962 . S
C1470 H1484 0.960 . S
C1471 C1468 1.511 . S
C1471 H1485 0.961 . S
C1471 H1486 0.961 . S
C1471 H1487 0.961 . S
C1472 C1473 1.370 . S
C1472 C1474 1.363 . S
C1472 H1488 0.931 . S
C1473 C1472 1.370 . S
C1473 C1477 1.408 . S
C1474 C1472 1.363 . S
C1474 C1475 1.370 . S
C1474 C1478 1.524 . S
C1475 C1467 1.503 . S
C1475 C1474 1.370 . S
C1475 C1476 1.403 . S
C1476 C1475 1.403 . S
C1476 C1477 1.404 . S
C1476 C1479 1.539 . S
C1477 C1473 1.408 . S
C1477 C1476 1.404 . S
C1477 H1489 0.930 . S
C1478 C1474 1.524 . S
C1478 H1490 0.956 . S
C1478 H1491 0.961 . S
C1478 H1492 0.961 . S
C1479 C1476 1.539 . S
C1479 H1493 0.958 . S
C1479 H1494 0.961 . S
C1479 H1495 0.960 . S
H1480 C1464 0.931 . S
H1481 C1469 0.929 . S
H1482 C1470 0.960 . S
H1483 C1470 0.962 . S
H1484 C1470 0.960 . S
H1485 C1471 0.961 . S
H1486 C1471 0.961 . S
H1487 C1471 0.961 . S
H1488 C1472 0.931 . S
H1489 C1477 0.930 . S
H1490 C1478 0.956 . S
H1491 C1478 0.961 . S
H1492 C1478 0.961 . S
H1493 C1479 0.958 . S
H1494 C1479 0.961 . S
H1495 C1479 0.960 . S
C1496 C1497 1.391 . S
C1496 C1498 1.394 . S
C1496 H1512 0.931 . S
C1497 C1496 1.391 . S
C1497 C1501 1.376 . S
C1498 C1496 1.394 . S
C1498 C1499 1.369 . S
C1498 C1502 1.531 . S
C1499 C1498 1.369 . S
C1499 C1500 1.410 . S
C1499 C1507 1.503 . S
C1500 C1499 1.410 . S
C1500 C1501 1.392 . S
C1500 C1503 1.511 . S
C1501 C1497 1.376 . S
C1501 C1500 1.392 . S
C1501 H1513 0.929 . S
C1502 C1498 1.531 . S
C1502 H1514 0.960 . S
C1502 H1515 0.962 . S
C1502 H1516 0.960 . S
C1503 C1500 1.511 . S
C1503 H1517 0.961 . S
C1503 H1518 0.961 . S
C1503 H1519 0.961 . S
C1504 C1505 1.370 . S
C1504 C1506 1.363 . S
C1504 H1520 0.931 . S
C1505 C1504 1.370 . S
C1505 C1509 1.408 . S
C1506 C1504 1.363 . S
C1506 C1507 1.370 . S
C1506 C1510 1.524 . S
C1507 C1499 1.503 . S
C1507 C1506 1.370 . S
C1507 C1508 1.403 . S
C1508 C1507 1.403 . S
C1508 C1509 1.404 . S
C1508 C1511 1.539 . S
C1509 C1505 1.408 . S
C1509 C1508 1.404 . S
C1509 H1521 0.930 . S
C1510 C1506 1.524 . S
C1510 H1522 0.956 . S
C1510 H1523 0.961 . S
C1510 H1524 0.961 . S
C1511 C1508 1.539 . S
C1511 H1525 0.958 . S
C1511 H1526 0.961 . S
C1511 H1527 0.960 . S
H1512 C1496 0.931 . S
H1513 C1501 0.929 . S
H1514 C1502 0.960 . S
H1515 C1502 0.962 . S
H1516 C1502 0.960 . S
H1517 C1503 0.961 . S
H1518 C1503 0.961 . S
H1519 C1503 0.961 . S
H1520 C1504 0.931 . S
H1521 C1509 0.930 . S
H1522 C1510 0.956 . S
H1523 C1510 0.961 . S
H1524 C1510 0.961 . S
H1525 C1511 0.958 . S
H1526 C1511 0.961 . S
H1527 C1511 0.960 . S
C1528 C1529 1.391 . S
C1528 C1530 1.394 . S
C1528 H1544 0.931 . S
C1529 C1528 1.391 . S
C1529 C1533 1.376 . S
C1530 C1528 1.394 . S
C1530 C1531 1.369 . S
C1530 C1534 1.531 . S
C1531 C1530 1.369 . S
C1531 C1532 1.410 . S
C1531 C1539 1.503 . S
C1532 C1531 1.410 . S
C1532 C1533 1.392 . S
C1532 C1535 1.511 . S
C1533 C1529 1.376 . S
C1533 C1532 1.392 . S
C1533 H1545 0.929 . S
C1534 C1530 1.531 . S
C1534 H1546 0.960 . S
C1534 H1547 0.962 . S
C1534 H1548 0.960 . S
C1535 C1532 1.511 . S
C1535 H1549 0.961 . S
C1535 H1550 0.961 . S
C1535 H1551 0.961 . S
C1536 C1537 1.370 . S
C1536 C1538 1.363 . S
C1536 H1552 0.931 . S
C1537 C1536 1.370 . S
C1537 C1541 1.408 . S
C1538 C1536 1.363 . S
C1538 C1539 1.370 . S
C1538 C1542 1.524 . S
C1539 C1531 1.503 . S
C1539 C1538 1.370 . S
C1539 C1540 1.403 . S
C1540 C1539 1.403 . S
C1540 C1541 1.404 . S
C1540 C1543 1.539 . S
C1541 C1537 1.408 . S
C1541 C1540 1.404 . S
C1541 H1553 0.930 . S
C1542 C1538 1.524 . S
C1542 H1554 0.956 . S
C1542 H1555 0.961 . S
C1542 H1556 0.961 . S
C1543 C1540 1.539 . S
C1543 H1557 0.958 . S
C1543 H1558 0.961 . S
C1543 H1559 0.960 . S
H1544 C1528 0.931 . S
H1545 C1533 0.929 . S
H1546 C1534 0.960 . S
H1547 C1534 0.962 . S
H1548 C1534 0.960 . S
H1549 C1535 0.961 . S
H1550 C1535 0.961 . S
H1551 C1535 0.961 . S
H1552 C1536 0.931 . S
H1553 C1541 0.930 . S
H1554 C1542 0.956 . S
H1555 C1542 0.961 . S
H1556 C1542 0.961 . S
H1557 C1543 0.958 . S
H1558 C1543 0.961 . S
H1559 C1543 0.960 . S
C1560 C1561 1.391 . S
C1560 C1562 1.394 . S
C1560 H1576 0.931 . S
C1561 C1560 1.391 . S
C1561 C1565 1.376 . S
C1562 C1560 1.394 . S
C1562 C1563 1.369 . S
C1562 C1566 1.531 . S
C1563 C1562 1.369 . S
C1563 C1564 1.410 . S
C1563 C1571 1.503 . S
C1564 C1563 1.410 . S
C1564 C1565 1.392 . S
C1564 C1567 1.511 . S
C1565 C1561 1.376 . S
C1565 C1564 1.392 . S
C1565 H1577 0.929 . S
C1566 C1562 1.531 . S
C1566 H1578 0.960 . S
C1566 H1579 0.962 . S
C1566 H1580 0.960 . S
C1567 C1564 1.511 . S
C1567 H1581 0.961 . S
C1567 H1582 0.961 . S
C1567 H1583 0.961 . S
C1568 C1569 1.370 . S
C1568 C1570 1.363 . S
C1568 H1584 0.931 . S
C1569 C1568 1.370 . S
C1569 C1573 1.408 . S
C1570 C1568 1.363 . S
C1570 C1571 1.370 . S
C1570 C1574 1.524 . S
C1571 C1563 1.503 . S
C1571 C1570 1.370 . S
C1571 C1572 1.403 . S
C1572 C1571 1.403 . S
C1572 C1573 1.404 . S
C1572 C1575 1.539 . S
C1573 C1569 1.408 . S
C1573 C1572 1.404 . S
C1573 H1585 0.930 . S
C1574 C1570 1.524 . S
C1574 H1586 0.956 . S
C1574 H1587 0.961 . S
C1574 H1588 0.961 . S
C1575 C1572 1.539 . S
C1575 H1589 0.958 . S
C1575 H1590 0.961 . S
C1575 H1591 0.960 . S
H1576 C1560 0.931 . S
H1577 C1565 0.929 . S
H1578 C1566 0.960 . S
H1579 C1566 0.962 . S
H1580 C1566 0.960 . S
H1581 C1567 0.961 . S
H1582 C1567 0.961 . S
H1583 C1567 0.961 . S
H1584 C1568 0.931 . S
H1585 C1573 0.930 . S
H1586 C1574 0.956 . S
H1587 C1574 0.961 . S
H1588 C1574 0.961 . S
H1589 C1575 0.958 . S
H1590 C1575 0.961 . S
H1591 C1575 0.960 . S
C1592 C1593 1.391 . S
C1592 C1594 1.394 . S
C1592 H1608 0.931 . S
C1593 C1592 1.391 . S
C1593 C1597 1.376 . S
C1594 C1592 1.394 . S
C1594 C1595 1.369 . S
C1594 C1598 1.531 . S
C1595 C1594 1.369 . S
C1595 C1596 1.410 . S
C1595 C1603 1.503 . S
C1596 C1595 1.410 . S
C1596 C1597 1.392 . S
C1596 C1599 1.511 . S
C1597 C1593 1.376 . S
C1597 C1596 1.392 . S
C1597 H1609 0.929 . S
C1598 C1594 1.531 . S
C1598 H1610 0.960 . S
C1598 H1611 0.962 . S
C1598 H1612 0.960 . S
C1599 C1596 1.511 . S
C1599 H1613 0.961 . S
C1599 H1614 0.961 . S
C1599 H1615 0.961 . S
C1600 C1601 1.370 . S
C1600 C1602 1.363 . S
C1600 H1616 0.931 . S
C1601 C1600 1.370 . S
C1601 C1605 1.408 . S
C1602 C1600 1.363 . S
C1602 C1603 1.370 . S
C1602 C1606 1.524 . S
C1603 C1595 1.503 . S
C1603 C1602 1.370 . S
C1603 C1604 1.403 . S
C1604 C1603 1.403 . S
C1604 C1605 1.404 . S
C1604 C1607 1.539 . S
C1605 C1601 1.408 . S
C1605 C1604 1.404 . S
C1605 H1617 0.930 . S
C1606 C1602 1.524 . S
C1606 H1618 0.956 . S
C1606 H1619 0.961 . S
C1606 H1620 0.961 . S
C1607 C1604 1.539 . S
C1607 H1621 0.958 . S
C1607 H1622 0.961 . S
C1607 H1623 0.960 . S
H1608 C1592 0.931 . S
H1609 C1597 0.929 . S
H1610 C1598 0.960 . S
H1611 C1598 0.962 . S
H1612 C1598 0.960 . S
H1613 C1599 0.961 . S
H1614 C1599 0.961 . S
H1615 C1599 0.961 . S
H1616 C1600 0.931 . S
H1617 C1605 0.930 . S
H1618 C1606 0.956 . S
H1619 C1606 0.961 . S
H1620 C1606 0.961 . S
H1621 C1607 0.958 . S
H1622 C1607 0.961 . S
H1623 C1607 0.960 . S
C609 C512 1.425 . S
C601 C35 1.281 . S
C641 C526 1.418 . S
C633 C115 1.278 . S
C673 C539 1.421 . S
C665 C177 1.361 . S
C697 C221 1.289 . S
C705 C506 1.430 . S
C729 C283 1.280 . S
C737 C499 1.435 . S
C761 C363 1.364 . S
C769 C519 1.427 . S
C801 C527 1.426 . S
C793 C407 1.289 . S
C833 C540 1.431 . S
C825 C469 1.289 . S
C857 C159 1.291 . S
C865 C566 1.426 . S
C897 C584 1.419 . S
C889 C239 1.359 . S
C921 C53 1.320 . S
C929 C591 1.420 . S
C961 C558 1.428 . S
C953 C97 1.362 . S
C985 C425 1.333 . S
C993 C551 1.431 . S
C1017 C487 1.289 . S
C1025 C565 1.430 . S
C1057 C577 1.427 . S
C1049 C301 1.311 . S
C1081 C345 1.288 . S
C1089 C592 1.431 . S
C1121 C525 1.958 . S
C1113 C29 1.945 . S
C1153 C538 1.963 . S
C1145 C109 1.891 . S
C1177 C171 1.893 . S
C1185 C501 1.953 . S
C1209 C215 1.920 . S
C1217 C513 1.945 . S
C1241 C277 1.942 . S
C1249 C545 1.925 . S
C1281 C500 1.929 . S
C1273 C357 1.913 . S
C1313 C514 1.952 . S
C1305 C401 1.950 . S
C1345 C532 1.946 . S
C1337 C463 1.928 . S
C1377 C579 1.960 . S
C1369 C153 1.938 . S
C1409 C590 1.962 . S
C1401 C233 1.891 . S
C1433 C47 1.887 . S
C1441 C553 1.954 . S
C1473 C571 1.931 . S
C1465 C91 1.948 . S
C1505 C597 1.939 . S
C1497 C419 1.872 . S
C1529 C481 1.874 . S
C1537 C552 1.942 . S
C1569 C564 1.953 . S
C1561 C295 1.891 . S
C1601 C578 1.937 . S
C1593 C339 1.927 . S
