# Generated by pormake.
# Topology zzz, (3,6)-cn, num edge types: 1
# Building blocks:
#     Node 0, Type 0, BuildingBlock: QEWDON_clean_linker_0, # of connection points: 3
#     Node 1, Type 0, BuildingBlock: QEWDON_clean_linker_0, # of connection points: 3
#     Node 2, Type 0, BuildingBlock: QEWDON_clean_linker_0, # of connection points: 3
#     Node 3, Type 0, BuildingBlock: QEWDON_clean_linker_0, # of connection points: 3
#     Node 4, Type 0, BuildingBlock: QEWDON_clean_linker_0, # of connection points: 3
#     Node 5, Type 0, BuildingBlock: QEWDON_clean_linker_0, # of connection points: 3
#     Node 6, Type 0, BuildingBlock: QEWDON_clean_linker_0, # of connection points: 3
#     Node 7, Type 0, BuildingBlock: QEWDON_clean_linker_0, # of connection points: 3
#     Node 8, Type 1, BuildingBlock: CIFDUS_clean_sbu_1, # of connection points: 6
#     Node 9, Type 1, BuildingBlock: CIFDUS_clean_sbu_1, # of connection points: 6
#     Node 10, Type 1, BuildingBlock: CIFDUS_clean_sbu_1, # of connection points: 6
#     Node 11, Type 1, BuildingBlock: CIFDUS_clean_sbu_1, # of connection points: 6
#     Edge 12, Type (0, 1), BuildingBlock: EYOCIG_clean_linker_4, # of connection points: 2
#     Edge 13, Type (0, 1), BuildingBlock: EYOCIG_clean_linker_4, # of connection points: 2
#     Edge 14, Type (0, 1), BuildingBlock: EYOCIG_clean_linker_4, # of connection points: 2
#     Edge 15, Type (0, 1), BuildingBlock: EYOCIG_clean_linker_4, # of connection points: 2
#     Edge 16, Type (0, 1), BuildingBlock: EYOCIG_clean_linker_4, # of connection points: 2
#     Edge 17, Type (0, 1), BuildingBlock: EYOCIG_clean_linker_4, # of connection points: 2
#     Edge 18, Type (0, 1), BuildingBlock: EYOCIG_clean_linker_4, # of connection points: 2
#     Edge 19, Type (0, 1), BuildingBlock: EYOCIG_clean_linker_4, # of connection points: 2
#     Edge 20, Type (0, 1), BuildingBlock: EYOCIG_clean_linker_4, # of connection points: 2
#     Edge 21, Type (0, 1), BuildingBlock: EYOCIG_clean_linker_4, # of connection points: 2
#     Edge 22, Type (0, 1), BuildingBlock: EYOCIG_clean_linker_4, # of connection points: 2
#     Edge 23, Type (0, 1), BuildingBlock: EYOCIG_clean_linker_4, # of connection points: 2
#     Edge 24, Type (0, 1), BuildingBlock: EYOCIG_clean_linker_4, # of connection points: 2
#     Edge 25, Type (0, 1), BuildingBlock: EYOCIG_clean_linker_4, # of connection points: 2
#     Edge 26, Type (0, 1), BuildingBlock: EYOCIG_clean_linker_4, # of connection points: 2
#     Edge 27, Type (0, 1), BuildingBlock: EYOCIG_clean_linker_4, # of connection points: 2
#     Edge 28, Type (0, 1), BuildingBlock: EYOCIG_clean_linker_4, # of connection points: 2
#     Edge 29, Type (0, 1), BuildingBlock: EYOCIG_clean_linker_4, # of connection points: 2
#     Edge 30, Type (0, 1), BuildingBlock: EYOCIG_clean_linker_4, # of connection points: 2
#     Edge 31, Type (0, 1), BuildingBlock: EYOCIG_clean_linker_4, # of connection points: 2
#     Edge 32, Type (0, 1), BuildingBlock: EYOCIG_clean_linker_4, # of connection points: 2
#     Edge 33, Type (0, 1), BuildingBlock: EYOCIG_clean_linker_4, # of connection points: 2
#     Edge 34, Type (0, 1), BuildingBlock: EYOCIG_clean_linker_4, # of connection points: 2
#     Edge 35, Type (0, 1), BuildingBlock: EYOCIG_clean_linker_4, # of connection points: 2
# Relax obj value: 0.084
# Max RMSD: 0.176
# Mean RMSD: 0.065
data_MOF--net-zzz--node1-CIFDUS_clean_sbu_1--node2-QEWDON_clean_linker_0--edge1-EYOCIG_clean_linker_4
_symmetry_space_group_name_H-M    P1
_symmetry_Int_Tables_number       1
_symmetry_cell_setting            triclinic
loop_
_symmetry_equiv_pos_as_xyz
'x, y, z'
_cell_length_a     42.739889
_cell_length_b     42.717812
_cell_length_c     12.499792
_cell_angle_alpha  89.972861
_cell_angle_beta   90.032783
_cell_angle_gamma 90.006852
loop_
_atom_site_label
_atom_site_type_symbol
_atom_site_fract_x
_atom_site_fract_y
_atom_site_fract_z
_atom_type_partial_charge
H0 H 0.7882 0.54896 0.0038 0.0
C1 C 0.7998 0.55216 0.08005 0.0
C2 C 0.83125 0.54294 0.09089 0.0
C3 C 0.78407 0.56676 0.16657 0.0
H4 H 0.87159 0.54113 0.19255 0.0
C5 C 0.84716 0.54806 0.18602 0.0
C6 C 0.83275 0.56243 0.27214 0.0
C7 C 0.80108 0.57143 0.26391 0.0
C8 C 0.75107 0.57908 0.15333 0.0
H9 H 0.79 0.58203 0.33277 0.0
C10 C 0.7286 0.56496 0.08383 0.0
C11 C 0.6982 0.57797 0.07212 0.0
C12 C 0.74208 0.60635 0.20895 0.0
H13 H 0.75841 0.61875 0.25975 0.0
C14 C 0.71208 0.6188 0.19812 0.0
H15 H 0.73449 0.54393 0.0399 0.0
C16 C 0.69033 0.60477 0.13048 0.0
H17 H 0.66723 0.61505 0.12331 0.0
H18 H 0.70574 0.63973 0.24186 0.0
H19 H 0.97873 0.78991 0.00422 0.0
C20 C 0.97566 0.80148 0.08056 0.0
C21 C 0.9849 0.83294 0.09128 0.0
C22 C 0.96122 0.7857 0.16734 0.0
H23 H 0.98689 0.87325 0.19302 0.0
C24 C 0.97996 0.84881 0.18656 0.0
C25 C 0.96574 0.83434 0.27295 0.0
C26 C 0.95673 0.80266 0.26482 0.0
C27 C 0.9489 0.75268 0.15427 0.0
H28 H 0.94624 0.79153 0.33385 0.0
C29 C 0.96296 0.73023 0.08466 0.0
C30 C 0.94995 0.6998 0.07313 0.0
C31 C 0.92169 0.74368 0.21017 0.0
H32 H 0.90936 0.76001 0.26109 0.0
C33 C 0.90923 0.71366 0.19948 0.0
H34 H 0.98394 0.73613 0.04054 0.0
C35 C 0.92321 0.69191 0.13174 0.0
H36 H 0.91293 0.6688 0.1247 0.0
H37 H 0.88836 0.70731 0.24342 0.0
H38 H 0.73835 0.98095 0.00389 0.0
C39 C 0.72678 0.97787 0.08022 0.0
C40 C 0.69533 0.98706 0.09087 0.0
C41 C 0.74257 0.96345 0.16709 0.0
H42 H 0.65502 0.98899 0.19253 0.0
C43 C 0.67946 0.98209 0.18614 0.0
C44 C 0.69392 0.9679 0.2726 0.0
C45 C 0.72561 0.95893 0.26456 0.0
C46 C 0.77558 0.95115 0.15411 0.0
H47 H 0.73673 0.94846 0.33366 0.0
C48 C 0.79801 0.96522 0.08437 0.0
C49 C 0.82843 0.95223 0.07296 0.0
C50 C 0.78461 0.92397 0.21025 0.0
H51 H 0.7683 0.91163 0.26126 0.0
C52 C 0.81462 0.91153 0.19967 0.0
H53 H 0.79209 0.98618 0.04006 0.0
C54 C 0.83635 0.92551 0.13181 0.0
H55 H 0.85946 0.91525 0.12485 0.0
H56 H 0.82099 0.89067 0.2438 0.0
H57 H 0.54795 0.74013 0.00327 0.0
C58 C 0.55104 0.72853 0.07958 0.0
C59 C 0.54183 0.69705 0.09023 0.0
C60 C 0.56549 0.74428 0.16642 0.0
H61 H 0.53989 0.6567 0.19189 0.0
C62 C 0.54681 0.68115 0.18548 0.0
C63 C 0.56102 0.69558 0.27191 0.0
C64 C 0.57001 0.72728 0.26387 0.0
C65 C 0.57778 0.77731 0.15346 0.0
H66 H 0.58049 0.73838 0.33295 0.0
C67 C 0.56369 0.79978 0.08384 0.0
C68 C 0.57666 0.83022 0.07243 0.0
C69 C 0.60497 0.78633 0.20952 0.0
H70 H 0.61732 0.76999 0.26046 0.0
C71 C 0.61738 0.81636 0.19896 0.0
H72 H 0.54272 0.79387 0.0396 0.0
C73 C 0.60339 0.83813 0.13119 0.0
H74 H 0.61363 0.86126 0.12425 0.0
H75 H 0.63825 0.82273 0.24302 0.0
H76 H 0.2379 0.50272 0.35234 0.0
C77 C 0.2254 0.49316 0.28439 0.0
C78 C 0.1925 0.49395 0.28372 0.0
C79 C 0.24193 0.48166 0.1943 0.0
H80 H 0.15051 0.48458 0.19559 0.0
C81 C 0.17593 0.48318 0.19564 0.0
C82 C 0.19119 0.47219 0.10548 0.0
C83 C 0.22417 0.47079 0.10467 0.0
C84 C 0.27719 0.48406 0.18896 0.0
H85 H 0.23577 0.46212 0.03365 0.0
C86 C 0.29692 0.48095 0.28064 0.0
C87 C 0.32984 0.48488 0.27171 0.0
C88 C 0.2914 0.49127 0.09021 0.0
H89 H 0.27753 0.49507 0.01895 0.0
C90 C 0.32373 0.4948 0.08175 0.0
H91 H 0.28687 0.47569 0.3581 0.0
C92 C 0.34277 0.49166 0.1715 0.0
H93 H 0.36779 0.49498 0.16271 0.0
H94 H 0.33407 0.50048 0.00512 0.0
H95 H 0.02617 0.23979 0.35216 0.0
C96 C 0.03562 0.22735 0.28396 0.0
C97 C 0.0349 0.19442 0.28327 0.0
C98 C 0.04686 0.24394 0.19359 0.0
H99 H 0.04415 0.15247 0.19486 0.0
C100 C 0.04551 0.17791 0.1949 0.0
C101 C 0.05623 0.19324 0.10444 0.0
C102 C 0.05754 0.22624 0.10362 0.0
C103 C 0.04435 0.27922 0.18838 0.0
H104 H 0.06601 0.23789 0.03237 0.0
C105 C 0.04758 0.29892 0.28004 0.0
C106 C 0.04351 0.33184 0.27132 0.0
C107 C 0.03689 0.29347 0.08985 0.0
H108 H 0.03299 0.27962 0.01863 0.0
C109 C 0.03323 0.3258 0.08158 0.0
H110 H 0.05303 0.28885 0.35735 0.0
C111 C 0.03647 0.34482 0.17131 0.0
H112 H 0.03304 0.36984 0.16269 0.0
H113 H 0.02736 0.33618 0.00512 0.0
H114 H 0.28852 0.02746 0.3519 0.0
C115 C 0.30095 0.03691 0.28366 0.0
C116 C 0.33386 0.03617 0.28292 0.0
C117 C 0.28435 0.04819 0.1933 0.0
H118 H 0.37578 0.04543 0.19443 0.0
C119 C 0.35035 0.04679 0.1945 0.0
C120 C 0.33503 0.05755 0.10406 0.0
C121 C 0.30204 0.05888 0.1033 0.0
C122 C 0.24908 0.04571 0.18817 0.0
H123 H 0.29039 0.06739 0.03207 0.0
C124 C 0.22942 0.04892 0.27989 0.0
C125 C 0.1965 0.0449 0.27123 0.0
C126 C 0.23481 0.03832 0.08966 0.0
H127 H 0.24863 0.03444 0.0184 0.0
C128 C 0.20248 0.03471 0.08145 0.0
H129 H 0.23951 0.05432 0.35719 0.0
C130 C 0.1835 0.03793 0.17123 0.0
H131 H 0.15849 0.03454 0.16265 0.0
H132 H 0.19209 0.02889 0.00499 0.0
H133 H 0.50042 0.29024 0.35162 0.0
C134 C 0.49094 0.3027 0.28344 0.0
C135 C 0.49168 0.33563 0.28272 0.0
C136 C 0.47962 0.28613 0.19312 0.0
H137 H 0.48241 0.3776 0.19428 0.0
C138 C 0.48103 0.35216 0.19436 0.0
C139 C 0.47024 0.33686 0.10396 0.0
C140 C 0.4689 0.30386 0.10318 0.0
C141 C 0.48209 0.25085 0.18791 0.0
H142 H 0.46038 0.29222 0.03197 0.0
C143 C 0.47888 0.23114 0.27959 0.0
C144 C 0.4829 0.19822 0.27087 0.0
C145 C 0.48948 0.23662 0.08937 0.0
H146 H 0.49336 0.25048 0.01814 0.0
C147 C 0.49309 0.20428 0.08111 0.0
H148 H 0.4735 0.24121 0.3569 0.0
C149 C 0.48986 0.18526 0.17087 0.0
H150 H 0.49325 0.16023 0.16226 0.0
H151 H 0.4989 0.19392 0.00464 0.0
O152 O 0.0341 0.04702 0.79214 0.0
Mn153 Mn 0.01311 0.01325 0.69089 0.0
O154 O 0.99601 0.08208 0.82653 0.0
Mn155 Mn 0.96511 0.06256 0.74742 0.0
O156 O 0.99214 0.97948 0.58959 0.0
O157 O 0.05735 1.00524 0.62488 0.0
Mn158 Mn 0.06091 0.96393 0.63683 0.0
O159 O 0.01662 0.97736 0.80568 0.0
O160 O 0.03013 0.94412 0.55801 0.0
O161 O 0.0093 0.04915 0.57606 0.0
O162 O 0.96486 0.07492 0.60714 0.0
O163 O 0.0972 0.97488 0.57458 0.0
O164 O 0.06123 0.95184 0.7774 0.0
C165 C 0.941 0.02314 0.80082 0.0
C166 C 0.0243 0.07304 0.83262 0.0
C167 C 1.00193 0.95329 0.55039 0.0
C168 C 0.08541 1.00274 0.58149 0.0
C169 C 0.03628 0.95577 0.82964 0.0
C170 C 0.98949 0.07074 0.55321 0.0
O171 O 0.96901 0.0213 0.75702 0.0
O172 O 0.92891 0.05083 0.80951 0.0
O173 O 0.55088 0.01842 0.80524 0.0
Mn174 Mn 0.515 0.0148 0.69051 0.0
O175 O 0.57633 0.06308 0.77656 0.0
Mn176 Mn 0.56419 0.06276 0.63605 0.0
O177 O 0.4791 0.01088 0.57575 0.0
O178 O 0.50705 0.97068 0.75676 0.0
Mn179 Mn 0.46581 0.96664 0.74749 0.0
O180 O 0.4812 0.03572 0.79171 0.0
O181 O 0.4534 0.96638 0.60726 0.0
O182 O 0.54879 0.9939 0.58926 0.0
O183 O 0.58401 0.03201 0.55721 0.0
O184 O 0.47772 0.93046 0.80963 0.0
O185 O 0.44628 0.99752 0.82659 0.0
C186 C 0.52529 0.08714 0.58091 0.0
C187 C 0.57244 0.03812 0.82898 0.0
C188 C 0.45755 0.99101 0.55313 0.0
C189 C 0.50534 0.94266 0.80067 0.0
C190 C 0.45524 0.02585 0.83241 0.0
C191 C 0.57492 1.00376 0.54985 0.0
O192 O 0.52291 0.05907 0.62439 0.0
O193 O 0.55309 0.09904 0.57375 0.0
O194 O 0.51 0.55267 0.80474 0.0
Mn195 Mn 0.51352 0.51675 0.69018 0.0
O196 O 0.46552 0.57836 0.77557 0.0
Mn197 Mn 0.4658 0.56612 0.63519 0.0
O198 O 0.51734 0.48082 0.57557 0.0
O199 O 0.55759 0.50867 0.75659 0.0
Mn200 Mn 0.56146 0.4674 0.74744 0.0
O201 O 0.49247 0.48303 0.79147 0.0
O202 O 0.56171 0.45497 0.60727 0.0
O203 O 0.53456 0.55047 0.58884 0.0
O204 O 0.4966 0.5858 0.5562 0.0
O205 O 0.59766 0.47916 0.80963 0.0
O206 O 0.53052 0.44796 0.82653 0.0
C207 C 0.44124 0.52728 0.58046 0.0
C208 C 0.49041 0.57434 0.82821 0.0
C209 C 0.53713 0.4592 0.55305 0.0
C210 C 0.58559 0.50684 0.80056 0.0
C211 C 0.50224 0.45702 0.83226 0.0
C212 C 0.52481 0.57662 0.54912 0.0
O213 O 0.4693 0.52479 0.62395 0.0
O214 O 0.42949 0.55514 0.57299 0.0
O215 O 0.04515 0.49408 0.79225 0.0
Mn216 Mn 0.01147 0.51524 0.69097 0.0
O217 O 0.08001 0.53217 0.82894 0.0
Mn218 Mn 0.06067 0.56317 0.74977 0.0
O219 O 0.97779 0.53638 0.58967 0.0
O220 O 1.00358 0.47106 0.62412 0.0
Mn221 Mn 0.96226 0.46749 0.63477 0.0
O222 O 0.97551 0.51144 0.80526 0.0
O223 O 0.9426 0.49837 0.55592 0.0
O224 O 0.04745 0.51935 0.57668 0.0
O225 O 0.07336 0.56362 0.60989 0.0
O226 O 0.97332 0.43127 0.57225 0.0
O227 O 0.94986 0.46698 0.77497 0.0
C228 C 0.02115 0.58723 0.80231 0.0
C229 C 0.07103 0.50383 0.83385 0.0
C230 C 0.95171 0.52663 0.54943 0.0
C231 C 1.00115 0.44306 0.58018 0.0
C232 C 0.95385 0.49176 0.82819 0.0
C233 C 0.06911 0.53918 0.55492 0.0
O234 O 0.0194 0.55926 0.75804 0.0
O235 O 0.04881 0.5993 0.81209 0.0
C236 C 0.15314 0.04553 0.42461 0.0
C237 C 0.17516 0.0461 0.36257 0.0
C238 C 0.12574 0.03964 0.4878 0.0
C239 C 0.10371 0.02793 0.53508 0.0
C240 C 0.4823 0.1548 0.42426 0.0
C241 C 0.48172 0.17684 0.3622 0.0
C242 C 0.48824 0.12739 0.48745 0.0
C243 C 0.50002 0.10538 0.53467 0.0
C244 C 0.37333 0.48437 0.42485 0.0
C245 C 0.35125 0.48376 0.36295 0.0
C246 C 0.40078 0.4903 0.48775 0.0
C247 C 0.42286 0.50204 0.53467 0.0
C248 C 0.04414 0.37527 0.42459 0.0
C249 C 0.04472 0.35322 0.36261 0.0
C250 C 0.03821 0.40269 0.48761 0.0
C251 C 0.02644 0.42474 0.5346 0.0
C252 C 0.87465 0.97363 0.94852 0.0
C253 C 0.85235 0.9655 0.00267 0.0
C254 C 0.90164 0.98396 0.89021 0.0
C255 C 0.92306 0.99739 0.84514 0.0
C256 C 0.55516 0.87646 0.94813 0.0
C257 C 0.56335 0.85416 0.00226 0.0
C258 C 0.54471 0.90343 0.88983 0.0
C259 C 0.53118 0.92481 0.84482 0.0
C260 C 0.65195 0.55647 0.94792 0.0
C261 C 0.67426 0.56464 0.002 0.0
C262 C 0.62496 0.54608 0.88964 0.0
C263 C 0.60355 0.53262 0.84465 0.0
C264 C 0.9714 0.65356 0.94891 0.0
C265 C 0.96324 0.67586 0.003 0.0
C266 C 0.98181 0.62658 0.89071 0.0
C267 C 0.99531 0.60516 0.8459 0.0
C268 C 0.01296 0.15237 0.41291 0.0
C269 C 0.02149 0.17565 0.36684 0.0
C270 C 1.00551 0.12228 0.45218 0.0
C271 C 1.00023 0.09759 0.49516 0.0
C272 C 0.37591 0.01428 0.41264 0.0
C273 C 0.35263 0.02278 0.36656 0.0
C274 C 0.406 1.0069 0.45195 0.0
C275 C 0.43069 1.00168 0.49496 0.0
C276 C 0.51369 0.37763 0.41236 0.0
C277 C 0.50514 0.35438 0.36627 0.0
C278 C 0.52114 0.4077 0.45174 0.0
C279 C 0.5264 0.43238 0.4948 0.0
C280 C 0.15057 0.51612 0.41323 0.0
C281 C 0.17379 0.50752 0.36712 0.0
C282 C 0.12053 0.52351 0.45284 0.0
C283 C 0.09588 0.52863 0.49617 0.0
C284 C 0.00851 0.87416 0.96201 0.0
C285 C 0.99818 0.85136 0.00655 0.0
C286 C 0.01803 0.90389 0.92478 0.0
C287 C 0.02472 0.9285 0.88351 0.0
C288 C 0.65408 0.01058 0.96145 0.0
C289 C 0.67689 1.0003 0.00603 0.0
C290 C 0.62434 0.02001 0.92421 0.0
C291 C 0.59972 0.02663 0.88294 0.0
C292 C 0.51818 0.65588 0.96088 0.0
C293 C 0.52852 0.67866 0.00546 0.0
C294 C 0.50866 0.62617 0.9236 0.0
C295 C 0.50197 0.60157 0.88228 0.0
C296 C 0.87237 0.51915 0.96177 0.0
C297 C 0.84962 0.52953 0.00632 0.0
C298 C 0.90207 0.5097 0.92427 0.0
C299 C 0.92664 0.50315 0.88268 0.0
C300 C 0.06289 0.14954 0.95963 0.0
C301 C 0.06209 0.17335 0.01255 0.0
C302 C 0.0569 0.1196 0.9136 0.0
C303 C 0.04592 0.09579 0.87618 0.0
C304 C 0.3787 0.0643 0.95927 0.0
C305 C 0.3549 0.06347 0.01218 0.0
C306 C 0.40863 0.05837 0.91325 0.0
C307 C 0.43246 0.04743 0.87585 0.0
C308 C 0.46352 0.38057 0.95912 0.0
C309 C 0.46433 0.35676 0.01207 0.0
C310 C 0.46954 0.41051 0.91308 0.0
C311 C 0.48057 0.43431 0.87568 0.0
C312 C 0.14745 0.46519 0.96089 0.0
C313 C 0.17126 0.4661 0.0138 0.0
C314 C 0.11753 0.47113 0.91471 0.0
C315 C 0.09374 0.48213 0.87717 0.0
C316 C 0.96203 0.87746 0.42099 0.0
C317 C 0.96098 0.85408 0.36597 0.0
C318 C 0.96907 0.90701 0.4682 0.0
C319 C 0.98036 0.93063 0.50606 0.0
C320 C 0.6508 0.96407 0.42056 0.0
C321 C 0.67419 0.96308 0.36558 0.0
C322 C 0.62125 0.97102 0.46775 0.0
C323 C 0.59762 0.98224 0.5056 0.0
C324 C 0.56478 0.65242 0.41992 0.0
C325 C 0.56582 0.67582 0.36492 0.0
C326 C 0.55774 0.62286 0.46711 0.0
C327 C 0.54643 0.59926 0.50496 0.0
C328 C 0.87592 0.56648 0.42001 0.0
C329 C 0.85252 0.5674 0.36499 0.0
C330 C 0.90547 0.55954 0.46736 0.0
C331 C 0.92908 0.54826 0.50532 0.0
loop_
_geom_bond_atom_site_label_1
_geom_bond_atom_site_label_2
_geom_bond_distance
_geom_bond_site_symmetry_2
_ccdc_geom_bond_type
H0 C1 0.949 . S
C1 H0 0.949 . S
C1 C2 1.395 . S
C1 C3 1.391 1_556 S
C2 C1 1.395 . S
C2 C5 1.390 1_556 S
C3 C1 1.391 1_554 S
C3 C7 1.387 . S
C3 C8 1.491 . S
H4 C5 0.950 . S
C5 C2 1.390 1_554 S
C5 H4 0.950 . S
C5 C6 1.378 . S
C6 C5 1.378 . S
C6 C7 1.409 . S
C7 C3 1.387 . S
C7 C6 1.409 . S
C7 H9 0.951 . S
C8 C3 1.491 . S
C8 C10 1.382 1_554 S
C8 C12 1.404 . S
H9 C7 0.951 . S
C10 C8 1.382 1_556 S
C10 C11 1.390 . S
C10 H15 0.949 . S
C11 C10 1.390 . S
C11 C16 1.399 1_556 S
C12 C8 1.404 . S
C12 H13 0.950 . S
C12 C14 1.375 . S
H13 C12 0.950 . S
C14 C12 1.375 . S
C14 C16 1.382 . S
C14 H18 0.950 . S
H15 C10 0.949 . S
C16 C11 1.399 1_554 S
C16 C14 1.382 . S
C16 H17 0.952 . S
H17 C16 0.952 . S
H18 C14 0.950 . S
H19 C20 0.949 . S
C20 H19 0.949 . S
C20 C21 1.395 . S
C20 C22 1.391 1_556 S
C21 C20 1.395 . S
C21 C24 1.390 1_556 S
C22 C20 1.391 1_554 S
C22 C26 1.387 . S
C22 C27 1.491 . S
H23 C24 0.950 . S
C24 C21 1.390 1_554 S
C24 H23 0.950 . S
C24 C25 1.378 . S
C25 C24 1.378 . S
C25 C26 1.409 . S
C26 C22 1.387 . S
C26 C25 1.409 . S
C26 H28 0.951 . S
C27 C22 1.491 . S
C27 C29 1.382 1_554 S
C27 C31 1.404 . S
H28 C26 0.951 . S
C29 C27 1.382 1_556 S
C29 C30 1.390 . S
C29 H34 0.949 . S
C30 C29 1.390 . S
C30 C35 1.399 1_556 S
C31 C27 1.404 . S
C31 H32 0.950 . S
C31 C33 1.375 . S
H32 C31 0.950 . S
C33 C31 1.375 . S
C33 C35 1.382 . S
C33 H37 0.950 . S
H34 C29 0.949 . S
C35 C30 1.399 1_554 S
C35 C33 1.382 . S
C35 H36 0.952 . S
H36 C35 0.952 . S
H37 C33 0.950 . S
H38 C39 0.949 . S
C39 H38 0.949 . S
C39 C40 1.395 . S
C39 C41 1.391 1_556 S
C40 C39 1.395 . S
C40 C43 1.390 1_556 S
C41 C39 1.391 1_554 S
C41 C45 1.387 . S
C41 C46 1.491 . S
H42 C43 0.950 . S
C43 C40 1.390 1_554 S
C43 H42 0.950 . S
C43 C44 1.378 . S
C44 C43 1.378 . S
C44 C45 1.409 . S
C45 C41 1.387 . S
C45 C44 1.409 . S
C45 H47 0.951 . S
C46 C41 1.491 . S
C46 C48 1.382 1_554 S
C46 C50 1.404 . S
H47 C45 0.951 . S
C48 C46 1.382 1_556 S
C48 C49 1.390 . S
C48 H53 0.949 . S
C49 C48 1.390 . S
C49 C54 1.399 1_556 S
C50 C46 1.404 . S
C50 H51 0.950 . S
C50 C52 1.375 . S
H51 C50 0.950 . S
C52 C50 1.375 . S
C52 C54 1.382 . S
C52 H56 0.950 . S
H53 C48 0.949 . S
C54 C49 1.399 1_554 S
C54 C52 1.382 . S
C54 H55 0.952 . S
H55 C54 0.952 . S
H56 C52 0.950 . S
H57 C58 0.949 . S
C58 H57 0.949 . S
C58 C59 1.395 . S
C58 C60 1.391 1_556 S
C59 C58 1.395 . S
C59 C62 1.390 1_556 S
C60 C58 1.391 1_554 S
C60 C64 1.387 . S
C60 C65 1.491 . S
H61 C62 0.950 . S
C62 C59 1.390 1_554 S
C62 H61 0.950 . S
C62 C63 1.378 . S
C63 C62 1.378 . S
C63 C64 1.409 . S
C64 C60 1.387 . S
C64 C63 1.409 . S
C64 H66 0.951 . S
C65 C60 1.491 . S
C65 C67 1.382 1_554 S
C65 C69 1.404 . S
H66 C64 0.951 . S
C67 C65 1.382 1_556 S
C67 C68 1.390 . S
C67 H72 0.949 . S
C68 C67 1.390 . S
C68 C73 1.399 1_556 S
C69 C65 1.404 . S
C69 H70 0.950 . S
C69 C71 1.375 . S
H70 C69 0.950 . S
C71 C69 1.375 . S
C71 C73 1.382 . S
C71 H75 0.950 . S
H72 C67 0.949 . S
C73 C68 1.399 1_554 S
C73 C71 1.382 . S
C73 H74 0.952 . S
H74 C73 0.952 . S
H75 C71 0.950 . S
H76 C77 0.949 . S
C77 H76 0.949 . S
C77 C78 1.395 . S
C77 C79 1.391 . S
C78 C77 1.395 . S
C78 C81 1.390 . S
C79 C77 1.391 . S
C79 C83 1.387 . S
C79 C84 1.491 . S
H80 C81 0.950 . S
C81 C78 1.390 . S
C81 H80 0.950 . S
C81 C82 1.378 . S
C82 C81 1.378 . S
C82 C83 1.409 . S
C83 C79 1.387 . S
C83 C82 1.409 . S
C83 H85 0.951 . S
C84 C79 1.491 . S
C84 C86 1.382 . S
C84 C88 1.404 . S
H85 C83 0.951 . S
C86 C84 1.382 . S
C86 C87 1.390 . S
C86 H91 0.949 . S
C87 C86 1.390 . S
C87 C92 1.399 . S
C88 C84 1.404 . S
C88 H89 0.950 . S
C88 C90 1.375 . S
H89 C88 0.950 . S
C90 C88 1.375 . S
C90 C92 1.382 . S
C90 H94 0.950 . S
H91 C86 0.949 . S
C92 C87 1.399 . S
C92 C90 1.382 . S
C92 H93 0.952 . S
H93 C92 0.952 . S
H94 C90 0.950 . S
H95 C96 0.949 . S
C96 H95 0.949 . S
C96 C97 1.395 . S
C96 C98 1.391 . S
C97 C96 1.395 . S
C97 C100 1.390 . S
C98 C96 1.391 . S
C98 C102 1.387 . S
C98 C103 1.491 . S
H99 C100 0.950 . S
C100 C97 1.390 . S
C100 H99 0.950 . S
C100 C101 1.378 . S
C101 C100 1.378 . S
C101 C102 1.409 . S
C102 C98 1.387 . S
C102 C101 1.409 . S
C102 H104 0.951 . S
C103 C98 1.491 . S
C103 C105 1.382 . S
C103 C107 1.404 . S
H104 C102 0.951 . S
C105 C103 1.382 . S
C105 C106 1.390 . S
C105 H110 0.949 . S
C106 C105 1.390 . S
C106 C111 1.399 . S
C107 C103 1.404 . S
C107 H108 0.950 1_455 S
C107 C109 1.368 1_455 S
H108 C107 0.950 1_655 S
C109 C107 1.368 1_655 S
C109 C111 1.369 1_655 S
C109 H113 0.971 . S
H110 C105 0.949 . S
C111 C106 1.399 . S
C111 C109 1.369 1_455 S
C111 H112 0.952 . S
H112 C111 0.952 . S
H113 C109 0.971 . S
H114 C115 0.949 . S
C115 H114 0.949 . S
C115 C116 1.395 . S
C115 C117 1.391 . S
C116 C115 1.395 . S
C116 C119 1.390 . S
C117 C115 1.391 . S
C117 C121 1.387 . S
C117 C122 1.491 . S
H118 C119 0.950 . S
C119 C116 1.390 . S
C119 H118 0.950 . S
C119 C120 1.378 . S
C120 C119 1.378 . S
C120 C121 1.409 . S
C121 C117 1.387 . S
C121 C120 1.409 . S
C121 H123 0.951 . S
C122 C117 1.491 . S
C122 C124 1.382 . S
C122 C126 1.404 . S
H123 C121 0.951 . S
C124 C122 1.382 . S
C124 C125 1.390 . S
C124 H129 0.949 . S
C125 C124 1.390 . S
C125 C130 1.399 . S
C126 C122 1.404 . S
C126 H127 0.950 1_545 S
C126 C128 1.380 . S
H127 C126 0.950 1_565 S
C128 C126 1.380 . S
C128 C130 1.393 . S
C128 H132 0.934 1_545 S
H129 C124 0.949 . S
C130 C125 1.399 . S
C130 C128 1.393 . S
C130 H131 0.952 . S
H131 C130 0.952 . S
H132 C128 0.934 1_565 S
H133 C134 0.949 . S
C134 H133 0.949 . S
C134 C135 1.395 . S
C134 C136 1.391 . S
C135 C134 1.395 . S
C135 C138 1.390 . S
C136 C134 1.391 . S
C136 C140 1.387 . S
C136 C141 1.491 . S
H137 C138 0.950 . S
C138 C135 1.390 . S
C138 H137 0.950 . S
C138 C139 1.378 . S
C139 C138 1.378 . S
C139 C140 1.409 . S
C140 C136 1.387 . S
C140 C139 1.409 . S
C140 H142 0.951 . S
C141 C136 1.491 . S
C141 C143 1.382 . S
C141 C145 1.404 . S
H142 C140 0.951 . S
C143 C141 1.382 . S
C143 C144 1.390 . S
C143 H148 0.949 . S
C144 C143 1.390 . S
C144 C149 1.399 . S
C145 C141 1.404 . S
C145 H146 0.950 . S
C145 C147 1.375 . S
H146 C145 0.950 . S
C147 C145 1.375 . S
C147 C149 1.382 . S
C147 H151 0.950 . S
H148 C143 0.949 . S
C149 C144 1.399 . S
C149 C147 1.382 . S
C149 H150 0.952 . S
H150 C149 0.952 . S
H151 C147 0.950 . S
O152 Mn153 2.163 . S
O152 C166 1.244 . S
Mn153 O152 2.163 . S
Mn153 O156 2.160 1_445 S
Mn153 O157 2.221 1_545 S
Mn153 O159 2.161 1_445 S
Mn153 O161 2.160 . S
Mn153 O171 2.221 1_455 S
O154 Mn155 2.087 . S
O154 C166 1.256 1_655 S
Mn155 O154 2.087 . S
Mn155 O162 2.089 . S
Mn155 O171 2.290 . S
Mn155 O172 2.251 . S
O156 Mn153 2.160 1_665 S
O156 C167 1.239 . S
O157 Mn153 2.221 1_565 S
O157 Mn158 2.290 . S
O157 C168 1.278 . S
Mn158 O157 2.290 . S
Mn158 O160 2.089 . S
Mn158 O163 2.251 . S
Mn158 O164 2.087 . S
O159 Mn153 2.161 1_665 S
O159 C169 1.236 1_655 S
O160 Mn158 2.089 . S
O160 C167 1.256 1_455 S
O161 Mn153 2.160 . S
O161 C170 1.230 1_455 S
O162 Mn155 2.089 . S
O162 C170 1.276 . S
O163 Mn158 2.251 . S
O163 C168 1.241 . S
O164 Mn158 2.087 . S
O164 C169 1.256 . S
C165 O171 1.278 . S
C165 O172 1.241 . S
C166 O152 1.244 . S
C166 O154 1.256 1_455 S
C167 O156 1.239 . S
C167 O160 1.256 1_655 S
C168 O157 1.278 . S
C168 O163 1.241 . S
C169 O159 1.236 1_455 S
C169 O164 1.256 . S
C170 O161 1.230 1_655 S
C170 O162 1.276 . S
O171 Mn153 2.221 1_655 S
O171 Mn155 2.290 . S
O171 C165 1.278 . S
O172 Mn155 2.251 . S
O172 C165 1.241 . S
O173 Mn174 2.163 . S
O173 C187 1.244 . S
Mn174 O173 2.163 . S
Mn174 O177 2.160 . S
Mn174 O178 2.221 1_545 S
Mn174 O180 2.163 . S
Mn174 O182 2.160 1_545 S
Mn174 O192 2.221 . S
O175 Mn176 2.087 . S
O175 C187 1.256 . S
Mn176 O175 2.087 . S
Mn176 O183 2.089 . S
Mn176 O192 2.290 . S
Mn176 O193 2.251 . S
O177 Mn174 2.160 . S
O177 C188 1.244 . S
O178 Mn174 2.221 1_565 S
O178 Mn179 2.290 . S
O178 C189 1.278 . S
Mn179 O178 2.290 . S
Mn179 O181 2.089 . S
Mn179 O184 2.251 . S
Mn179 O185 2.087 . S
O180 Mn174 2.163 . S
O180 C190 1.244 . S
O181 Mn179 2.089 . S
O181 C188 1.245 1_565 S
O182 Mn174 2.160 1_565 S
O182 C191 1.239 . S
O183 Mn176 2.089 . S
O183 C191 1.256 1_545 S
O184 Mn179 2.251 . S
O184 C189 1.241 . S
O185 Mn179 2.087 . S
O185 C190 1.256 1_565 S
C186 O192 1.278 . S
C186 O193 1.241 . S
C187 O173 1.244 . S
C187 O175 1.256 . S
C188 O177 1.244 . S
C188 O181 1.245 1_545 S
C189 O178 1.278 . S
C189 O184 1.241 . S
C190 O180 1.244 . S
C190 O185 1.256 1_545 S
C191 O182 1.239 . S
C191 O183 1.256 1_565 S
O192 Mn174 2.221 . S
O192 Mn176 2.290 . S
O192 C186 1.278 . S
O193 Mn176 2.251 . S
O193 C186 1.241 . S
O194 Mn195 2.163 . S
O194 C208 1.244 . S
Mn195 O194 2.163 . S
Mn195 O198 2.160 . S
Mn195 O199 2.221 . S
Mn195 O201 2.163 . S
Mn195 O203 2.160 . S
Mn195 O213 2.221 . S
O196 Mn197 2.087 . S
O196 C208 1.256 . S
Mn197 O196 2.087 . S
Mn197 O204 2.089 . S
Mn197 O213 2.290 . S
Mn197 O214 2.251 . S
O198 Mn195 2.160 . S
O198 C209 1.239 . S
O199 Mn195 2.221 . S
O199 Mn200 2.290 . S
O199 C210 1.278 . S
Mn200 O199 2.290 . S
Mn200 O202 2.089 . S
Mn200 O205 2.251 . S
Mn200 O206 2.087 . S
O201 Mn195 2.163 . S
O201 C211 1.244 . S
O202 Mn200 2.089 . S
O202 C209 1.256 . S
O203 Mn195 2.160 . S
O203 C212 1.239 . S
O204 Mn197 2.089 . S
O204 C212 1.256 . S
O205 Mn200 2.251 . S
O205 C210 1.241 . S
O206 Mn200 2.087 . S
O206 C211 1.256 . S
C207 O213 1.278 . S
C207 O214 1.241 . S
C208 O194 1.244 . S
C208 O196 1.256 . S
C209 O198 1.239 . S
C209 O202 1.256 . S
C210 O199 1.278 . S
C210 O205 1.241 . S
C211 O201 1.244 . S
C211 O206 1.256 . S
C212 O203 1.239 . S
C212 O204 1.256 . S
O213 Mn195 2.221 . S
O213 Mn197 2.290 . S
O213 C207 1.278 . S
O214 Mn197 2.251 . S
O214 C207 1.241 . S
O215 Mn216 2.163 . S
O215 C229 1.244 . S
Mn216 O215 2.163 . S
Mn216 O219 2.160 1_455 S
Mn216 O220 2.221 1_455 S
Mn216 O222 2.163 1_455 S
Mn216 O224 2.160 . S
Mn216 O234 2.221 . S
O217 Mn218 2.087 . S
O217 C229 1.256 . S
Mn218 O217 2.087 . S
Mn218 O225 2.089 . S
Mn218 O234 2.290 . S
Mn218 O235 2.251 . S
O219 Mn216 2.160 1_655 S
O219 C230 1.239 . S
O220 Mn216 2.221 1_655 S
O220 Mn221 2.290 . S
O220 C231 1.278 . S
Mn221 O220 2.290 . S
Mn221 O223 2.089 . S
Mn221 O226 2.251 . S
Mn221 O227 2.087 . S
O222 Mn216 2.163 1_655 S
O222 C232 1.244 . S
O223 Mn221 2.089 . S
O223 C230 1.256 . S
O224 Mn216 2.160 . S
O224 C233 1.239 . S
O225 Mn218 2.089 . S
O225 C233 1.256 . S
O226 Mn221 2.251 . S
O226 C231 1.241 . S
O227 Mn221 2.087 . S
O227 C232 1.256 . S
C228 O234 1.278 . S
C228 O235 1.241 . S
C229 O215 1.244 . S
C229 O217 1.256 . S
C230 O219 1.239 . S
C230 O223 1.256 . S
C231 O220 1.278 . S
C231 O226 1.241 . S
C232 O222 1.244 . S
C232 O227 1.256 . S
C233 O224 1.239 . S
C233 O225 1.256 . S
O234 Mn216 2.221 . S
O234 Mn218 2.290 . S
O234 C228 1.278 . S
O235 Mn218 2.251 . S
O235 C228 1.241 . S
C236 C237 1.170 . S
C236 C238 1.380 . S
C237 C236 1.170 . S
C238 C236 1.380 . S
C238 C239 1.170 . S
C239 C238 1.170 . S
C240 C241 1.170 . S
C240 C242 1.380 . S
C241 C240 1.170 . S
C242 C240 1.380 . S
C242 C243 1.170 . S
C243 C242 1.170 . S
C244 C245 1.170 . S
C244 C246 1.380 . S
C245 C244 1.170 . S
C246 C244 1.380 . S
C246 C247 1.170 . S
C247 C246 1.170 . S
C248 C249 1.170 . S
C248 C250 1.380 . S
C249 C248 1.170 . S
C250 C248 1.380 . S
C250 C251 1.170 . S
C251 C250 1.170 . S
C252 C253 1.170 . S
C252 C254 1.380 . S
C253 C252 1.170 . S
C254 C252 1.380 . S
C254 C255 1.170 . S
C255 C254 1.170 . S
C256 C257 1.170 . S
C256 C258 1.380 . S
C257 C256 1.170 . S
C258 C256 1.380 . S
C258 C259 1.170 . S
C259 C258 1.170 . S
C260 C261 1.170 . S
C260 C262 1.380 . S
C261 C260 1.170 . S
C262 C260 1.380 . S
C262 C263 1.170 . S
C263 C262 1.170 . S
C264 C265 1.170 . S
C264 C266 1.380 . S
C265 C264 1.170 . S
C266 C264 1.380 . S
C266 C267 1.170 . S
C267 C266 1.170 . S
C268 C269 1.170 . S
C268 C270 1.380 . S
C269 C268 1.170 . S
C270 C268 1.380 . S
C270 C271 1.170 . S
C271 C270 1.170 . S
C272 C273 1.170 . S
C272 C274 1.380 . S
C273 C272 1.170 . S
C274 C272 1.380 . S
C274 C275 1.170 . S
C275 C274 1.170 . S
C276 C277 1.170 . S
C276 C278 1.380 . S
C277 C276 1.170 . S
C278 C276 1.380 . S
C278 C279 1.170 . S
C279 C278 1.170 . S
C280 C281 1.170 . S
C280 C282 1.380 . S
C281 C280 1.170 . S
C282 C280 1.380 . S
C282 C283 1.170 . S
C283 C282 1.170 . S
C284 C285 1.170 . S
C284 C286 1.380 . S
C285 C284 1.170 . S
C286 C284 1.380 . S
C286 C287 1.170 1_655 S
C287 C286 1.170 1_455 S
C288 C289 1.170 . S
C288 C290 1.380 . S
C289 C288 1.170 . S
C290 C288 1.380 . S
C290 C291 1.170 1_565 S
C291 C290 1.170 1_545 S
C292 C293 1.170 . S
C292 C294 1.380 . S
C293 C292 1.170 . S
C294 C292 1.380 . S
C294 C295 1.170 . S
C295 C294 1.170 . S
C296 C297 1.170 . S
C296 C298 1.380 . S
C297 C296 1.170 . S
C298 C296 1.380 . S
C298 C299 1.170 . S
C299 C298 1.170 . S
C300 C301 1.170 . S
C300 C302 1.380 1_554 S
C301 C300 1.170 . S
C302 C300 1.380 1_556 S
C302 C303 1.170 . S
C303 C302 1.170 . S
C304 C305 1.170 . S
C304 C306 1.380 1_554 S
C305 C304 1.170 . S
C306 C304 1.380 1_556 S
C306 C307 1.170 . S
C307 C306 1.170 . S
C308 C309 1.170 . S
C308 C310 1.380 1_554 S
C309 C308 1.170 . S
C310 C308 1.380 1_556 S
C310 C311 1.170 . S
C311 C310 1.170 . S
C312 C313 1.170 . S
C312 C314 1.380 1_554 S
C313 C312 1.170 . S
C314 C312 1.380 1_556 S
C314 C315 1.170 . S
C315 C314 1.170 . S
C316 C317 1.170 . S
C316 C318 1.380 . S
C317 C316 1.170 . S
C318 C316 1.380 . S
C318 C319 1.170 . S
C319 C318 1.170 . S
C320 C321 1.170 . S
C320 C322 1.380 . S
C321 C320 1.170 . S
C322 C320 1.380 . S
C322 C323 1.170 . S
C323 C322 1.170 . S
C324 C325 1.170 . S
C324 C326 1.380 . S
C325 C324 1.170 . S
C326 C324 1.380 . S
C326 C327 1.170 . S
C327 C326 1.170 . S
C328 C329 1.170 . S
C328 C330 1.380 . S
C329 C328 1.170 . S
C330 C328 1.380 . S
C330 C331 1.170 . S
C331 C330 1.170 . S
C237 C125 1.517 . S
C239 C168 1.444 1_545 S
C243 C186 1.503 . S
C241 C144 1.556 . S
C247 C207 1.460 . S
C245 C87 1.519 . S
C251 C231 1.494 1_455 S
C249 C106 1.566 . S
C255 C165 1.352 1_565 S
C253 C49 1.503 . S
C257 C68 1.507 . S
C259 C189 1.414 . S
C261 C11 1.500 . S
C263 C210 1.355 . S
C265 C30 1.527 . S
C267 C228 1.401 1_655 S
C271 C170 0.878 1_455 S
C269 C97 0.939 . S
C275 C188 0.932 . S
C273 C116 0.847 . S
C279 C209 0.930 . S
C277 C135 0.846 . S
C281 C78 0.867 . S
C283 C233 0.900 . S
C285 C21 0.960 . S
C287 C169 1.013 . S
C291 C187 1.027 . S
C289 C40 0.936 . S
C295 C208 0.984 . S
C293 C59 1.010 . S
C297 C2 0.995 . S
C299 C232 0.992 . S
C301 C101 1.604 . S
C303 C166 1.529 . S
C305 C120 1.584 . S
C307 C190 1.543 . S
C311 C211 1.547 . S
C309 C139 1.581 . S
C315 C229 1.559 . S
C313 C82 1.575 . S
C317 C25 1.478 . S
C319 C167 1.454 . S
C323 C191 1.406 . S
C321 C44 1.462 . S
C327 C212 1.432 . S
C325 C63 1.456 . S
C329 C6 1.489 . S
C331 C230 1.406 . S
