# Generated by pormake.
# Topology pyr, (3,6)-cn, num edge types: 1
# Building blocks:
#     Node 0, Type 0, BuildingBlock: VETTIZ_charged_linker_0, # of connection points: 3
#     Node 1, Type 0, BuildingBlock: VETTIZ_charged_linker_0, # of connection points: 3
#     Node 2, Type 0, BuildingBlock: VETTIZ_charged_linker_0, # of connection points: 3
#     Node 3, Type 0, BuildingBlock: VETTIZ_charged_linker_0, # of connection points: 3
#     Node 4, Type 0, BuildingBlock: VETTIZ_charged_linker_0, # of connection points: 3
#     Node 5, Type 0, BuildingBlock: VETTIZ_charged_linker_0, # of connection points: 3
#     Node 6, Type 0, BuildingBlock: VETTIZ_charged_linker_0, # of connection points: 3
#     Node 7, Type 0, BuildingBlock: VETTIZ_charged_linker_0, # of connection points: 3
#     Node 8, Type 1, BuildingBlock: BETDEL_clean_sbu_0, # of connection points: 6
#     Node 9, Type 1, BuildingBlock: BETDEL_clean_sbu_0, # of connection points: 6
#     Node 10, Type 1, BuildingBlock: BETDEL_clean_sbu_0, # of connection points: 6
#     Node 11, Type 1, BuildingBlock: BETDEL_clean_sbu_0, # of connection points: 6
#     Edge 12, Type (0, 1), BuildingBlock: MIFKUJ_clean_linker_0, # of connection points: 2
#     Edge 13, Type (0, 1), BuildingBlock: MIFKUJ_clean_linker_0, # of connection points: 2
#     Edge 14, Type (0, 1), BuildingBlock: MIFKUJ_clean_linker_0, # of connection points: 2
#     Edge 15, Type (0, 1), BuildingBlock: MIFKUJ_clean_linker_0, # of connection points: 2
#     Edge 16, Type (0, 1), BuildingBlock: MIFKUJ_clean_linker_0, # of connection points: 2
#     Edge 17, Type (0, 1), BuildingBlock: MIFKUJ_clean_linker_0, # of connection points: 2
#     Edge 18, Type (0, 1), BuildingBlock: MIFKUJ_clean_linker_0, # of connection points: 2
#     Edge 19, Type (0, 1), BuildingBlock: MIFKUJ_clean_linker_0, # of connection points: 2
#     Edge 20, Type (0, 1), BuildingBlock: MIFKUJ_clean_linker_0, # of connection points: 2
#     Edge 21, Type (0, 1), BuildingBlock: MIFKUJ_clean_linker_0, # of connection points: 2
#     Edge 22, Type (0, 1), BuildingBlock: MIFKUJ_clean_linker_0, # of connection points: 2
#     Edge 23, Type (0, 1), BuildingBlock: MIFKUJ_clean_linker_0, # of connection points: 2
#     Edge 24, Type (0, 1), BuildingBlock: MIFKUJ_clean_linker_0, # of connection points: 2
#     Edge 25, Type (0, 1), BuildingBlock: MIFKUJ_clean_linker_0, # of connection points: 2
#     Edge 26, Type (0, 1), BuildingBlock: MIFKUJ_clean_linker_0, # of connection points: 2
#     Edge 27, Type (0, 1), BuildingBlock: MIFKUJ_clean_linker_0, # of connection points: 2
#     Edge 28, Type (0, 1), BuildingBlock: MIFKUJ_clean_linker_0, # of connection points: 2
#     Edge 29, Type (0, 1), BuildingBlock: MIFKUJ_clean_linker_0, # of connection points: 2
#     Edge 30, Type (0, 1), BuildingBlock: MIFKUJ_clean_linker_0, # of connection points: 2
#     Edge 31, Type (0, 1), BuildingBlock: MIFKUJ_clean_linker_0, # of connection points: 2
#     Edge 32, Type (0, 1), BuildingBlock: MIFKUJ_clean_linker_0, # of connection points: 2
#     Edge 33, Type (0, 1), BuildingBlock: MIFKUJ_clean_linker_0, # of connection points: 2
#     Edge 34, Type (0, 1), BuildingBlock: MIFKUJ_clean_linker_0, # of connection points: 2
#     Edge 35, Type (0, 1), BuildingBlock: MIFKUJ_clean_linker_0, # of connection points: 2
# Relax obj value: 0.025
# Max RMSD: 0.089
# Mean RMSD: 0.038
data_MOF--net-pyr--node1-BETDEL_clean_sbu_0--node2-VETTIZ_charged_linker_0--edge1-MIFKUJ_clean_linker_0
_symmetry_space_group_name_H-M    P1
_symmetry_Int_Tables_number       1
_symmetry_cell_setting            triclinic
loop_
_symmetry_equiv_pos_as_xyz
'x, y, z'
_cell_length_a     56.186222
_cell_length_b     58.113635
_cell_length_c     53.594368
_cell_angle_alpha  91.689971
_cell_angle_beta   89.342954
_cell_angle_gamma 94.501354
loop_
_atom_site_label
_atom_site_type_symbol
_atom_site_fract_x
_atom_site_fract_y
_atom_site_fract_z
_atom_type_partial_charge
C0 C 0.17215 0.16779 0.24814 0.0
C1 C 0.154 0.17921 0.2605 0.0
C2 C 0.14853 0.20094 0.25207 0.0
C3 C 0.17713 0.19824 0.21813 0.0
C4 C 0.18352 0.17764 0.22722 0.0
C5 C 0.20283 0.16753 0.21172 0.0
H6 H 0.27011 0.16926 0.10624 0.0
C7 C 0.19081 0.2027 0.19486 0.0
C8 C 0.20611 0.18492 0.19114 0.0
H9 H 0.27211 0.1229 0.16762 0.0
H10 H 0.24216 0.14334 0.18982 0.0
H11 H 0.26944 0.21531 0.1406 0.0
H12 H 0.21319 0.17161 0.10571 0.0
H13 H 0.20612 0.20024 0.10247 0.0
H14 H 0.23311 0.19087 0.08828 0.0
H15 H 0.26453 0.21467 0.10754 0.0
H16 H 0.24906 0.23342 0.12847 0.0
C17 C 0.22546 0.16729 0.228 0.0
C18 C 0.1931 0.14342 0.20157 0.0
C19 C 0.16981 0.26776 0.14021 0.0
C20 C 0.17673 0.27418 0.11593 0.0
C21 C 0.19494 0.26272 0.10365 0.0
C22 C 0.20546 0.24467 0.11505 0.0
C23 C 0.19758 0.23785 0.1389 0.0
C24 C 0.18022 0.24953 0.15116 0.0
C25 C 0.17329 0.23938 0.17591 0.0
C26 C 0.18938 0.21965 0.17652 0.0
C27 C 0.20355 0.21883 0.15481 0.0
C28 C 0.17955 0.25789 0.19672 0.0
C29 C 0.14649 0.23072 0.17479 0.0
C30 C 0.2639 0.16345 0.12438 0.0
C31 C 0.27323 0.14439 0.13518 0.0
C32 C 0.26515 0.13759 0.15903 0.0
C33 C 0.24777 0.14945 0.17184 0.0
C34 C 0.23849 0.16841 0.16076 0.0
C35 C 0.24679 0.1753 0.13757 0.0
C36 C 0.23558 0.19637 0.12915 0.0
C37 C 0.21929 0.20106 0.15119 0.0
C38 C 0.22079 0.18441 0.16944 0.0
C39 C 0.25557 0.21604 0.12605 0.0
C40 C 0.22134 0.18967 0.10506 0.0
H41 H 0.15473 0.22687 0.22528 0.0
H42 H 0.17686 0.15106 0.25396 0.0
H43 H 0.1746 0.14404 0.19456 0.0
H44 H 0.20355 0.13701 0.18564 0.0
H45 H 0.19263 0.13047 0.21644 0.0
H46 H 0.22571 0.1807 0.24327 0.0
H47 H 0.22643 0.15032 0.23681 0.0
H48 H 0.24212 0.17147 0.21727 0.0
H49 H 0.15617 0.27643 0.15038 0.0
H50 H 0.20051 0.26714 0.08487 0.0
H51 H 0.21893 0.23638 0.10458 0.0
H52 H 0.19561 0.26924 0.19153 0.0
H53 H 0.16464 0.26908 0.20011 0.0
H54 H 0.18428 0.25028 0.21449 0.0
H55 H 0.14195 0.22287 0.15609 0.0
H56 H 0.14139 0.21699 0.18802 0.0
H57 H 0.13494 0.24516 0.17825 0.0
H58 H 0.13512 0.21045 0.26157 0.0
C59 C 0.16 0.2105 0.23101 0.0
C60 C 0.2333 0.84905 0.60359 0.0
C61 C 0.22374 0.86907 0.61362 0.0
C62 C 0.23398 0.87967 0.63543 0.0
C63 C 0.2616 0.84987 0.63752 0.0
C64 C 0.25227 0.83992 0.61566 0.0
C65 C 0.2649 0.81913 0.60716 0.0
H66 H 0.34443 0.74129 0.63183 0.0
C67 C 0.28044 0.83567 0.64594 0.0
C68 C 0.28261 0.81771 0.62815 0.0
H69 H 0.30347 0.7455 0.56471 0.0
H70 H 0.28625 0.77981 0.58157 0.0
H71 H 0.36121 0.79415 0.63459 0.0
H72 H 0.30386 0.75467 0.6713 0.0
H73 H 0.31681 0.77434 0.69369 0.0
H74 H 0.33463 0.75308 0.67918 0.0
H75 H 0.36623 0.77618 0.66036 0.0
H76 H 0.35956 0.8059 0.66503 0.0
C77 C 0.27755 0.82446 0.58188 0.0
C78 C 0.24642 0.79793 0.60614 0.0
C79 C 0.32072 0.85446 0.72933 0.0
C80 C 0.33799 0.8437 0.74262 0.0
C81 C 0.34703 0.82349 0.73237 0.0
C82 C 0.33914 0.81423 0.70925 0.0
C83 C 0.32195 0.82523 0.69615 0.0
C84 C 0.31299 0.84496 0.70623 0.0
C85 C 0.29473 0.85419 0.68969 0.0
C86 C 0.29436 0.83681 0.66794 0.0
C87 C 0.31032 0.81993 0.67188 0.0
C88 C 0.30415 0.87871 0.68172 0.0
C89 C 0.27064 0.8532 0.70415 0.0
C90 C 0.33156 0.74954 0.62093 0.0
C91 C 0.32488 0.74071 0.59721 0.0
C92 C 0.30863 0.7521 0.58314 0.0
C93 C 0.29874 0.77194 0.59295 0.0
C94 C 0.3055 0.78055 0.61688 0.0
C95 C 0.32194 0.76953 0.63023 0.0
C96 C 0.32823 0.78176 0.65459 0.0
C97 C 0.31267 0.80186 0.65388 0.0
C98 C 0.29914 0.80092 0.63195 0.0
C99 C 0.35521 0.78985 0.65388 0.0
C100 C 0.32072 0.7652 0.67594 0.0
H101 H 0.25959 0.879 0.66398 0.0
H102 H 0.22601 0.84039 0.58689 0.0
H103 H 0.2349 0.79763 0.62317 0.0
H104 H 0.25469 0.78134 0.60548 0.0
H105 H 0.23466 0.79847 0.58968 0.0
H106 H 0.28215 0.84331 0.58002 0.0
H107 H 0.266 0.81853 0.5659 0.0
H108 H 0.29484 0.81666 0.57997 0.0
H109 H 0.3136 0.87015 0.73653 0.0
H110 H 0.3601 0.81468 0.74238 0.0
H111 H 0.34672 0.79883 0.70252 0.0
H112 H 0.32398 0.88025 0.68022 0.0
H113 H 0.29891 0.8921 0.69548 0.0
H114 H 0.298 0.88292 0.66299 0.0
H115 H 0.2681 0.83714 0.715 0.0
H116 H 0.25499 0.85268 0.69187 0.0
H117 H 0.27 0.8681 0.71754 0.0
H118 H 0.22762 0.89548 0.64321 0.0
C119 C 0.25273 0.87016 0.64742 0.0
C120 C 0.62958 0.2599 0.87629 0.0
C121 C 0.60848 0.24794 0.86722 0.0
C122 C 0.59688 0.25729 0.847 0.0
C123 C 0.62716 0.28949 0.84534 0.0
C124 C 0.63845 0.28052 0.86524 0.0
C125 C 0.66036 0.29544 0.87308 0.0
H126 H 0.73623 0.3905 0.85622 0.0
C127 C 0.64095 0.31124 0.83828 0.0
C128 C 0.66039 0.31483 0.85465 0.0
H129 H 0.73982 0.3385 0.9118 0.0
H130 H 0.7037 0.31838 0.89585 0.0
H131 H 0.68186 0.39585 0.86188 0.0
H132 H 0.72028 0.35449 0.80992 0.0
H133 H 0.69892 0.36812 0.79311 0.0
H134 H 0.72181 0.38546 0.80982 0.0
H135 H 0.69646 0.408 0.83483 0.0
H136 H 0.66606 0.39531 0.83381 0.0
C137 C 0.65651 0.30421 0.9003 0.0
C138 C 0.6823 0.2811 0.86928 0.0
C139 C 0.61568 0.35706 0.76416 0.0
C140 C 0.62481 0.37812 0.75387 0.0
C141 C 0.64471 0.39022 0.76547 0.0
C142 C 0.65563 0.38143 0.78613 0.0
C143 C 0.64659 0.36029 0.79583 0.0
C144 C 0.62672 0.3486 0.78514 0.0
C145 C 0.61903 0.32691 0.79892 0.0
C146 C 0.63788 0.32734 0.8192 0.0
C147 C 0.65407 0.34691 0.8171 0.0
C148 C 0.59376 0.32947 0.80999 0.0
C149 C 0.62058 0.306 0.78059 0.0
C150 C 0.72935 0.37467 0.86482 0.0
C151 C 0.74101 0.3661 0.88531 0.0
C152 C 0.73113 0.34564 0.89618 0.0
C153 C 0.71018 0.33389 0.88679 0.0
C154 C 0.69877 0.34265 0.86628 0.0
C155 C 0.70835 0.36278 0.85573 0.0
C156 C 0.6936 0.36981 0.83437 0.0
C157 C 0.67373 0.35047 0.83365 0.0
C158 C 0.67687 0.33455 0.85232 0.0
C159 C 0.68406 0.39353 0.84132 0.0
C160 C 0.70936 0.36966 0.81047 0.0
H161 H 0.5964 0.28392 0.82073 0.0
H162 H 0.63926 0.2533 0.89153 0.0
H163 H 0.68044 0.27006 0.85198 0.0
H164 H 0.69916 0.29188 0.86674 0.0
H165 H 0.68422 0.26956 0.88518 0.0
H166 H 0.63744 0.30726 0.90385 0.0
H167 H 0.6616 0.29143 0.91389 0.0
H168 H 0.66639 0.32103 0.90454 0.0
H169 H 0.60045 0.34717 0.75599 0.0
H170 H 0.65182 0.4068 0.75879 0.0
H171 H 0.67071 0.39155 0.79382 0.0
H172 H 0.59145 0.34773 0.81567 0.0
H173 H 0.57973 0.324 0.79613 0.0
H174 H 0.59033 0.31969 0.82719 0.0
H175 H 0.63723 0.30797 0.76915 0.0
H176 H 0.62132 0.28951 0.79012 0.0
H177 H 0.60522 0.30448 0.76763 0.0
H178 H 0.58039 0.24891 0.83978 0.0
C179 C 0.6061 0.27783 0.83602 0.0
C180 C 0.87779 0.73494 0.35875 0.0
C181 C 0.86921 0.74589 0.38051 0.0
C182 C 0.85047 0.73429 0.39413 0.0
C183 C 0.84898 0.70199 0.36433 0.0
C184 C 0.86756 0.71308 0.35114 0.0
C185 C 0.87496 0.69887 0.32883 0.0
H186 H 0.8583 0.60137 0.25644 0.0
C187 C 0.84224 0.6796 0.35139 0.0
C188 C 0.85751 0.67761 0.33061 0.0
H189 H 0.9125 0.65787 0.24842 0.0
H190 H 0.89662 0.67749 0.28444 0.0
H191 H 0.86319 0.59835 0.31572 0.0
H192 H 0.8152 0.63236 0.26978 0.0
H193 H 0.79822 0.6206 0.29469 0.0
H194 H 0.81285 0.60164 0.27325 0.0
H195 H 0.83972 0.58284 0.29824 0.0
H196 H 0.83464 0.5943 0.32932 0.0
C197 C 0.90112 0.69307 0.33256 0.0
C198 C 0.87095 0.71251 0.30505 0.0
C199 C 0.77225 0.62737 0.38372 0.0
C200 C 0.76123 0.60607 0.37505 0.0
C201 C 0.77067 0.59529 0.35361 0.0
C202 C 0.79051 0.60558 0.34092 0.0
C203 C 0.80114 0.62697 0.34963 0.0
C204 C 0.79203 0.63749 0.37073 0.0
C205 C 0.80546 0.66033 0.37705 0.0
C206 C 0.82408 0.66179 0.35623 0.0
C207 C 0.82146 0.64218 0.34026 0.0
C208 C 0.81696 0.65867 0.40302 0.0
C209 C 0.78786 0.67945 0.37543 0.0
C210 C 0.86695 0.61786 0.26252 0.0
C211 C 0.88675 0.628 0.24939 0.0
C212 C 0.89706 0.64973 0.25786 0.0
C213 C 0.88792 0.66105 0.27896 0.0
C214 C 0.86824 0.65058 0.29193 0.0
C215 C 0.85814 0.62932 0.28364 0.0
C216 C 0.8375 0.62063 0.29984 0.0
C217 C 0.837 0.64008 0.31934 0.0
C218 C 0.85497 0.65765 0.31457 0.0
C219 C 0.84383 0.59775 0.31134 0.0
C220 C 0.81468 0.61848 0.28369 0.0
H221 H 0.82615 0.70475 0.39739 0.0
H222 H 0.89203 0.74324 0.34765 0.0
H223 H 0.85399 0.72116 0.30659 0.0
H224 H 0.86914 0.70141 0.28802 0.0
H225 H 0.88569 0.72609 0.30221 0.0
H226 H 0.90495 0.69107 0.35267 0.0
H227 H 0.91392 0.70696 0.32549 0.0
H228 H 0.90506 0.67642 0.32357 0.0
H229 H 0.7653 0.63626 0.39995 0.0
H230 H 0.76274 0.57878 0.34668 0.0
H231 H 0.79675 0.59647 0.32473 0.0
H232 H 0.82229 0.64092 0.406 0.0
H233 H 0.80432 0.66289 0.41825 0.0
H234 H 0.83366 0.6699 0.40515 0.0
H235 H 0.77553 0.67585 0.35944 0.0
H236 H 0.79682 0.69666 0.37201 0.0
H237 H 0.7768 0.68046 0.39269 0.0
H238 H 0.8438 0.74187 0.41127 0.0
C239 C 0.84032 0.71254 0.38616 0.0
C240 C 0.81275 0.73628 0.87653 0.0
C241 C 0.83291 0.72507 0.86861 0.0
C242 C 0.84598 0.7332 0.8476 0.0
C243 C 0.81989 0.76411 0.84386 0.0
C244 C 0.80661 0.75569 0.86393 0.0
C245 C 0.78635 0.77023 0.87059 0.0
H246 H 0.73099 0.86774 0.85433 0.0
C247 C 0.80967 0.78532 0.83593 0.0
C248 C 0.78989 0.78891 0.85139 0.0
H249 H 0.71309 0.81396 0.90693 0.0
H250 H 0.74425 0.79181 0.88965 0.0
H251 H 0.73739 0.83431 0.80777 0.0
H252 H 0.78852 0.86752 0.85899 0.0
H253 H 0.79998 0.87088 0.82852 0.0
H254 H 0.77235 0.88285 0.83698 0.0
H255 H 0.74804 0.86405 0.805 0.0
H256 H 0.76346 0.84105 0.79025 0.0
C257 C 0.76256 0.75521 0.86675 0.0
C258 C 0.79029 0.78 0.89758 0.0
C259 C 0.85127 0.8334 0.76824 0.0
C260 C 0.84649 0.85437 0.75757 0.0
C261 C 0.82578 0.86502 0.76519 0.0
C262 C 0.81051 0.85536 0.78357 0.0
C263 C 0.81592 0.83479 0.79455 0.0
C264 C 0.83576 0.82394 0.78653 0.0
C265 C 0.8384 0.80195 0.79998 0.0
C266 C 0.81698 0.80154 0.81754 0.0
C267 C 0.80406 0.82096 0.81446 0.0
C268 C 0.83636 0.78158 0.78058 0.0
C269 C 0.86232 0.80468 0.81428 0.0
C270 C 0.73394 0.85126 0.86221 0.0
C271 C 0.7198 0.84267 0.88217 0.0
C272 C 0.72375 0.8209 0.89151 0.0
C273 C 0.74193 0.80813 0.88154 0.0
C274 C 0.75634 0.81723 0.86203 0.0
C275 C 0.75196 0.83828 0.85241 0.0
C276 C 0.76868 0.84498 0.83129 0.0
C277 C 0.78411 0.82468 0.83012 0.0
C278 C 0.77693 0.80861 0.84831 0.0
C279 C 0.75377 0.84638 0.80728 0.0
C280 C 0.78314 0.86782 0.83909 0.0
H281 H 0.85047 0.75813 0.81959 0.0
H282 H 0.80217 0.7303 0.89242 0.0
H283 H 0.80955 0.78503 0.90086 0.0
H284 H 0.78121 0.79586 0.9016 0.0
H285 H 0.78432 0.76693 0.9115 0.0
H286 H 0.76418 0.74221 0.85129 0.0
H287 H 0.75722 0.74571 0.88386 0.0
H288 H 0.7478 0.76539 0.86112 0.0
H289 H 0.86704 0.82477 0.76294 0.0
H290 H 0.82132 0.88088 0.75689 0.0
H291 H 0.79519 0.86442 0.78866 0.0
H292 H 0.82416 0.78508 0.76516 0.0
H293 H 0.85402 0.77858 0.77211 0.0
H294 H 0.82848 0.76535 0.78855 0.0
H295 H 0.86557 0.82252 0.82231 0.0
H296 H 0.86266 0.79336 0.83041 0.0
H297 H 0.87759 0.80137 0.80168 0.0
H298 H 0.86176 0.72506 0.84128 0.0
C299 C 0.83954 0.75258 0.83516 0.0
C300 C 0.75861 0.14442 0.40625 0.0
C301 C 0.76739 0.12385 0.39681 0.0
C302 C 0.7555 0.11177 0.37682 0.0
C303 C 0.72742 0.1412 0.3751 0.0
C304 C 0.73869 0.15278 0.39511 0.0
C305 C 0.72754 0.17481 0.40215 0.0
H306 H 0.64757 0.25182 0.37577 0.0
C307 C 0.70809 0.15497 0.367 0.0
C308 C 0.70799 0.17468 0.38281 0.0
H309 H 0.69815 0.25599 0.43618 0.0
H310 H 0.71131 0.21864 0.42342 0.0
H311 H 0.63003 0.19829 0.38255 0.0
H312 H 0.6817 0.23383 0.33473 0.0
H313 H 0.66808 0.21104 0.31654 0.0
H314 H 0.65022 0.23316 0.32923 0.0
H315 H 0.62181 0.2147 0.35659 0.0
H316 H 0.6273 0.1846 0.35295 0.0
C317 C 0.71722 0.17267 0.42897 0.0
C318 C 0.74669 0.19521 0.39891 0.0
C319 C 0.66047 0.12953 0.28962 0.0
C320 C 0.64282 0.13978 0.27631 0.0
C321 C 0.63431 0.16053 0.28582 0.0
C322 C 0.64349 0.17108 0.30784 0.0
C323 C 0.66159 0.16097 0.32049 0.0
C324 C 0.66963 0.14044 0.31149 0.0
C325 C 0.68937 0.13255 0.32707 0.0
C326 C 0.6919 0.15184 0.34684 0.0
C327 C 0.67561 0.16838 0.34284 0.0
C328 C 0.68057 0.10914 0.33841 0.0
C329 C 0.71202 0.13177 0.31032 0.0
C330 C 0.66165 0.2448 0.38612 0.0
C331 C 0.67213 0.25696 0.40674 0.0
C332 C 0.6899 0.24693 0.42016 0.0
C333 C 0.69753 0.22531 0.41267 0.0
C334 C 0.6872 0.21361 0.39161 0.0
C335 C 0.66936 0.22331 0.37897 0.0
C336 C 0.66008 0.20849 0.35727 0.0
C337 C 0.67544 0.1883 0.35874 0.0
C338 C 0.69139 0.19138 0.37876 0.0
C339 C 0.63337 0.20117 0.36233 0.0
C340 C 0.66503 0.22223 0.33311 0.0
H341 H 0.72741 0.11034 0.35074 0.0
H342 H 0.76744 0.15415 0.42151 0.0
H343 H 0.7577 0.19244 0.38186 0.0
H344 H 0.739 0.21185 0.39634 0.0
H345 H 0.7589 0.19699 0.41513 0.0
H346 H 0.71001 0.15464 0.4324 0.0
H347 H 0.73118 0.17743 0.44312 0.0
H348 H 0.70196 0.18326 0.4324 0.0
H349 H 0.66724 0.11347 0.28306 0.0
H350 H 0.621 0.16903 0.27584 0.0
H351 H 0.63645 0.18696 0.31386 0.0
H352 H 0.6612 0.10866 0.34314 0.0
H353 H 0.68318 0.09455 0.32506 0.0
H354 H 0.68937 0.10602 0.35619 0.0
H355 H 0.71284 0.14567 0.29642 0.0
H356 H 0.7288 0.13489 0.32083 0.0
H357 H 0.71217 0.11501 0.29983 0.0
H358 H 0.76166 0.09568 0.36951 0.0
C359 C 0.73554 0.12028 0.366 0.0
C360 C 0.39095 0.65356 0.23863 0.0
C361 C 0.38063 0.6343 0.25141 0.0
C362 C 0.35871 0.62358 0.24288 0.0
C363 C 0.3578 0.65086 0.20953 0.0
C364 C 0.37917 0.66162 0.21794 0.0
C365 C 0.38713 0.68228 0.20264 0.0
H366 H 0.3657 0.75256 0.10738 0.0
C367 C 0.35023 0.66327 0.18755 0.0
C368 C 0.3673 0.68183 0.18344 0.0
H369 H 0.42514 0.75889 0.15836 0.0
H370 H 0.4097 0.72427 0.17869 0.0
H371 H 0.32485 0.73733 0.14787 0.0
H372 H 0.36748 0.69874 0.09707 0.0
H373 H 0.33934 0.68345 0.09849 0.0
H374 H 0.34193 0.71238 0.08677 0.0
H375 H 0.3217 0.73726 0.11456 0.0
H376 H 0.30598 0.71555 0.13312 0.0
C377 C 0.3876 0.7041 0.21998 0.0
C378 C 0.4115 0.67798 0.19035 0.0
C379 C 0.27428 0.63416 0.14151 0.0
C380 C 0.26338 0.64124 0.11979 0.0
C381 C 0.27394 0.66053 0.10729 0.0
C382 C 0.29487 0.67261 0.11623 0.0
C383 C 0.30562 0.6653 0.13789 0.0
C384 C 0.2954 0.64627 0.15004 0.0
C385 C 0.30979 0.64052 0.17225 0.0
C386 C 0.33025 0.65927 0.17146 0.0
C387 C 0.32759 0.67386 0.15141 0.0
C388 C 0.29405 0.64294 0.19597 0.0
C389 C 0.31854 0.61612 0.16752 0.0
C390 C 0.37559 0.74644 0.12274 0.0
C391 C 0.39667 0.75881 0.13126 0.0
C392 C 0.40866 0.75012 0.15159 0.0
C393 C 0.39971 0.72988 0.16336 0.0
C394 C 0.37846 0.71797 0.15482 0.0
C395 C 0.36692 0.72623 0.13467 0.0
C396 C 0.34477 0.71122 0.12782 0.0
C397 C 0.34461 0.69288 0.14747 0.0
C398 C 0.36439 0.69687 0.16332 0.0
C399 C 0.32308 0.726 0.13078 0.0
C400 C 0.34831 0.70096 0.10111 0.0
H401 H 0.33077 0.62261 0.21661 0.0
H402 H 0.40763 0.66237 0.24484 0.0
H403 H 0.41181 0.65965 0.18381 0.0
H404 H 0.41532 0.68824 0.17357 0.0
H405 H 0.42629 0.68168 0.20381 0.0
H406 H 0.37253 0.70277 0.23365 0.0
H407 H 0.40446 0.70639 0.23071 0.0
H408 H 0.38529 0.72001 0.20984 0.0
H409 H 0.26678 0.61925 0.15138 0.0
H410 H 0.26581 0.66647 0.09066 0.0
H411 H 0.30187 0.6872 0.10591 0.0
H412 H 0.2822 0.65727 0.19428 0.0
H413 H 0.28249 0.62686 0.19909 0.0
H414 H 0.30458 0.64745 0.21294 0.0
H415 H 0.32303 0.61327 0.14744 0.0
H416 H 0.33512 0.61347 0.17751 0.0
H417 H 0.30456 0.60248 0.17272 0.0
H418 H 0.35048 0.6086 0.25213 0.0
C419 C 0.34733 0.63168 0.2221 0.0
C420 C 0.12901 0.27028 0.64009 0.0
C421 C 0.13835 0.25841 0.61935 0.0
C422 C 0.15864 0.26857 0.60694 0.0
C423 C 0.16001 0.30157 0.6358 0.0
C424 C 0.14009 0.29171 0.64797 0.0
C425 C 0.13256 0.30655 0.66973 0.0
H426 H 0.15238 0.40338 0.74274 0.0
C427 C 0.16727 0.32385 0.64867 0.0
C428 C 0.15125 0.32688 0.6686 0.0
H429 H 0.09548 0.34932 0.74935 0.0
H430 H 0.11058 0.32934 0.71304 0.0
H431 H 0.14868 0.40734 0.68447 0.0
H432 H 0.1948 0.36966 0.72892 0.0
H433 H 0.21227 0.38331 0.70536 0.0
H434 H 0.197 0.40061 0.72789 0.0
H435 H 0.17396 0.42136 0.70043 0.0
H436 H 0.17661 0.40883 0.66938 0.0
C437 C 0.10715 0.31379 0.6646 0.0
C438 C 0.13458 0.29279 0.69383 0.0
C439 C 0.23965 0.37325 0.61733 0.0
C440 C 0.25064 0.39485 0.62512 0.0
C441 C 0.24097 0.40644 0.64595 0.0
C442 C 0.2209 0.39672 0.65876 0.0
C443 C 0.21017 0.37515 0.65071 0.0
C444 C 0.21952 0.36384 0.63025 0.0
C445 C 0.2056 0.34123 0.62413 0.0
C446 C 0.18632 0.34086 0.64425 0.0
C447 C 0.18916 0.36071 0.65984 0.0
C448 C 0.19509 0.34262 0.59765 0.0
C449 C 0.22242 0.3216 0.62707 0.0
C450 C 0.14333 0.38712 0.73649 0.0
C451 C 0.1228 0.37784 0.74902 0.0
C452 C 0.11124 0.35689 0.73995 0.0
C453 C 0.12011 0.34526 0.71892 0.0
C454 C 0.14072 0.35471 0.70666 0.0
C455 C 0.15185 0.3754 0.71539 0.0
C456 C 0.17308 0.38326 0.69959 0.0
C457 C 0.1731 0.36372 0.68014 0.0
C458 C 0.15418 0.34697 0.68443 0.0
C459 C 0.16808 0.40648 0.68791 0.0
C460 C 0.19556 0.38448 0.71617 0.0
H461 H 0.18482 0.29672 0.60472 0.0
H462 H 0.11359 0.26293 0.65023 0.0
H463 H 0.15073 0.28285 0.69308 0.0
H464 H 0.13669 0.30395 0.7108 0.0
H465 H 0.11879 0.28029 0.69627 0.0
H466 H 0.10464 0.31633 0.64432 0.0
H467 H 0.09328 0.30038 0.67065 0.0
H468 H 0.10365 0.33052 0.67366 0.0
H469 H 0.24668 0.36366 0.60164 0.0
H470 H 0.24875 0.42323 0.6522 0.0
H471 H 0.21446 0.40644 0.67441 0.0
H472 H 0.19006 0.36037 0.59414 0.0
H473 H 0.20825 0.33811 0.58304 0.0
H474 H 0.17842 0.33148 0.59498 0.0
H475 H 0.23486 0.32558 0.6429 0.0
H476 H 0.2128 0.30493 0.6316 0.0
H477 H 0.23339 0.31925 0.60995 0.0
H478 H 0.16602 0.26007 0.59069 0.0
C479 C 0.16948 0.28999 0.61503 0.0
Dy480 Dy 0.01038 0.00989 0.47438 0.0
C481 C 0.98495 0.97337 0.56974 0.0
C482 C 0.02461 0.03168 0.43172 0.0
Dy483 Dy 0.99395 0.99618 0.52651 0.0
O484 O 0.03583 0.01606 0.44237 0.0
O485 O 0.00517 0.03519 0.44411 0.0
O486 O 0.03337 0.98008 0.4731 0.0
O487 O 0.02798 0.99781 0.50718 0.0
C488 C 0.03722 0.98086 0.49694 0.0
C489 C 0.96617 0.02482 0.50468 0.0
O490 O 0.02122 0.02502 0.53655 0.0
O491 O 0.02094 0.04175 0.49792 0.0
O492 O 0.9797 0.99429 0.56573 0.0
O493 O 0.99532 0.9649 0.55015 0.0
O494 O 0.96856 0.02404 0.52868 0.0
O495 O 0.97627 0.00856 0.49403 0.0
O496 O 0.98424 0.9806 0.46286 0.0
O497 O 0.97996 0.96552 0.50251 0.0
C498 C 0.02622 0.04284 0.522 0.0
C499 C 0.97652 0.96386 0.47798 0.0
Dy500 Dy 0.51699 0.01624 0.01968 0.0
C501 C 0.4541 0.96001 0.94912 0.0
C502 C 0.54691 0.04615 0.04667 0.0
Dy503 Dy 0.48229 0.99101 0.97659 0.0
O504 O 0.52555 0.05019 0.03982 0.0
O505 O 0.55209 0.02588 0.03834 0.0
O506 O 0.50811 0.98937 0.04923 0.0
O507 O 0.49305 0.98585 0.01443 0.0
C508 C 0.49369 0.9763 0.03506 0.0
C509 C 0.50518 0.03136 0.96144 0.0
O510 O 0.4564 0.00968 1.00007 0.0
O511 O 0.48315 0.03383 0.02434 0.0
O512 O 0.47696 0.96423 0.94595 0.0
O513 O 0.44648 0.97276 0.96746 0.0
O514 O 0.49016 0.01863 0.9476 0.0
O515 O 0.50651 0.02137 0.98174 0.0
O516 O 0.54202 0.9988 0.99392 0.0
O517 O 0.51428 0.97053 0.97756 0.0
C518 C 0.46128 0.027 0.01647 0.0
C519 C 0.53659 0.97876 0.98197 0.0
Dy520 Dy 0.51169 0.48349 0.48255 0.0
C521 C 0.47372 0.55878 0.53613 0.0
C522 C 0.54123 0.45319 0.46188 0.0
Dy523 Dy 0.49737 0.52393 0.51489 0.0
O524 O 0.51822 0.45198 0.4587 0.0
O525 O 0.54795 0.47115 0.47571 0.0
O526 O 0.47375 0.46885 0.47898 0.0
O527 O 0.4848 0.48755 0.51161 0.0
C528 C 0.46699 0.47812 0.50005 0.0
C529 C 0.54204 0.5279 0.49656 0.0
O530 O 0.51086 0.50404 0.54616 0.0
O531 O 0.52582 0.47549 0.52048 0.0
O532 O 0.49176 0.56144 0.52091 0.0
O533 O 0.46888 0.53701 0.54035 0.0
O534 O 0.53635 0.53609 0.51848 0.0
O535 O 0.52361 0.51969 0.48537 0.0
O536 O 0.5008 0.50639 0.45247 0.0
O537 O 0.47691 0.52675 0.47915 0.0
C538 C 0.52278 0.48535 0.54289 0.0
C539 C 0.48388 0.52082 0.45626 0.0
Dy540 Dy 0.01124 0.48072 0.00806 0.0
C541 C 0.97326 0.56297 0.97642 0.0
C542 C 0.03647 0.4436 0.01607 0.0
Dy543 Dy 0.99698 0.52569 0.98811 0.0
O544 O 0.01636 0.44747 0.027 0.0
O545 O 0.0426 0.45982 1.00063 0.0
O546 O 0.9846 0.48205 0.0395 0.0
O547 O 1.00065 0.51282 0.02542 0.0
C548 C 0.98473 0.50443 0.04002 0.0
C549 C 0.02446 0.50176 0.95736 0.0
O550 O 0.02951 0.54034 0.00844 0.0
O551 O 0.04408 0.50489 0.01586 0.0
O552 O 0.98586 0.55131 0.96089 0.0
O553 O 0.97397 0.55457 0.99853 0.0
O554 O 0.02593 0.5242 0.959 0.0
O555 O 0.00756 0.49351 0.97087 0.0
O556 O 0.9791 0.46681 0.9865 0.0
O557 O 0.9633 0.50222 0.98335 0.0
C558 C 0.04664 0.52784 0.01611 0.0
C559 C 0.9612 0.47935 0.98114 0.0
H560 H 0.16968 0.15198 0.29702 0.0
H561 H 0.14521 0.12857 0.3262 0.0
H562 H 0.08199 0.15747 0.30021 0.0
H563 H 0.10601 0.18012 0.27007 0.0
H564 H 0.08698 0.15134 0.35639 0.0
H565 H 0.08893 0.11127 0.27534 0.0
H566 H 0.11007 0.09623 0.23849 0.0
H567 H 0.14902 0.05413 0.28546 0.0
H568 H 0.12838 0.06925 0.32264 0.0
H569 H 0.00459 0.06665 0.40853 0.0
H570 H 0.02412 0.09305 0.37829 0.0
H571 H 0.08743 0.05558 0.38013 0.0
H572 H 0.06778 0.02888 0.40949 0.0
H573 H 0.0805 0.06741 0.33483 0.0
H574 H 0.08082 0.10537 0.41534 0.0
H575 H 0.06259 0.12011 0.45407 0.0
H576 H 0.02409 0.16644 0.41187 0.0
H577 H 0.04141 0.15137 0.37275 0.0
C578 C 0.15058 0.15343 0.29747 0.0
C579 C 0.13983 0.16774 0.2809 0.0
C580 C 0.13669 0.14021 0.31433 0.0
C581 C 0.11186 0.1413 0.31517 0.0
C582 C 0.10117 0.15656 0.29985 0.0
C583 C 0.115 0.16956 0.28271 0.0
C584 C 0.09693 0.12486 0.33028 0.0
C585 C 0.0852 0.13302 0.35159 0.0
C586 C 0.09523 0.10098 0.32417 0.0
C587 C 0.10728 0.09155 0.30178 0.0
C588 C 0.10214 0.09895 0.27782 0.0
C589 C 0.11401 0.09039 0.25687 0.0
C590 C 0.13092 0.07428 0.25963 0.0
C591 C 0.13594 0.06663 0.28335 0.0
C592 C 0.12415 0.07518 0.30436 0.0
C593 C 0.02251 0.06389 0.40208 0.0
C594 C 0.03476 0.04586 0.41135 0.0
C595 C 0.03371 0.07904 0.38499 0.0
C596 C 0.05741 0.07654 0.37732 0.0
C597 C 0.06918 0.05788 0.3858 0.0
C598 C 0.05794 0.04265 0.40261 0.0
C599 C 0.07047 0.09372 0.36127 0.0
C600 C 0.08197 0.08573 0.33968 0.0
C601 C 0.07234 0.11768 0.3675 0.0
C602 C 0.0622 0.12703 0.39106 0.0
C603 C 0.06831 0.11855 0.41428 0.0
C604 C 0.05815 0.12698 0.43631 0.0
C605 C 0.04224 0.14423 0.43544 0.0
C606 C 0.03641 0.15306 0.41251 0.0
C607 C 0.04633 0.14453 0.39039 0.0
H608 H 0.03445 0.15077 0.45253 0.0
H609 H 0.1401 0.06768 0.2434 0.0
H610 H 0.38399 0.8482 0.75894 0.0
H611 H 0.39874 0.86453 0.79879 0.0
H612 H 0.32708 0.87836 0.82095 0.0
H613 H 0.31208 0.86182 0.78103 0.0
H614 H 0.35869 0.91514 0.83037 0.0
H615 H 0.3532 0.83482 0.84708 0.0
H616 H 0.35914 0.79367 0.83906 0.0
H617 H 0.43515 0.80881 0.84081 0.0
H618 H 0.42969 0.85012 0.84846 0.0
H619 H 0.40538 0.95323 0.94918 0.0
H620 H 0.38066 0.92987 0.91888 0.0
H621 H 0.44434 0.90871 0.8819 0.0
H622 H 0.46896 0.93172 0.9121 0.0
H623 H 0.41037 0.87313 0.88481 0.0
H624 H 0.41581 0.95326 0.86075 0.0
H625 H 0.41076 0.99479 0.8673 0.0
H626 H 0.33539 0.97989 0.8785 0.0
H627 H 0.34006 0.93821 0.87232 0.0
C628 C 0.3713 0.85441 0.77241 0.0
C629 C 0.34685 0.85359 0.7669 0.0
C630 C 0.37976 0.86375 0.79518 0.0
C631 C 0.36394 0.87232 0.81297 0.0
C632 C 0.33955 0.87175 0.80749 0.0
C633 C 0.33105 0.86239 0.78466 0.0
C634 C 0.37322 0.88263 0.83686 0.0
C635 C 0.36953 0.90579 0.84261 0.0
C636 C 0.38763 0.8705 0.85259 0.0
C637 C 0.39102 0.84562 0.84821 0.0
C638 C 0.37119 0.82941 0.84559 0.0
C639 C 0.37447 0.80604 0.84113 0.0
C640 C 0.39751 0.79863 0.83939 0.0
C641 C 0.41732 0.81457 0.84216 0.0
C642 C 0.41413 0.83796 0.8466 0.0
C643 C 0.41401 0.94332 0.93476 0.0
C644 C 0.43901 0.94437 0.93277 0.0
C645 C 0.39992 0.93007 0.91747 0.0
C646 C 0.41071 0.91778 0.89801 0.0
C647 C 0.43567 0.91805 0.89677 0.0
C648 C 0.44971 0.93128 0.91396 0.0
C649 C 0.39633 0.90575 0.8779 0.0
C650 C 0.39908 0.88228 0.87287 0.0
C651 C 0.38114 0.9176 0.86276 0.0
C652 C 0.37832 0.94263 0.8664 0.0
C653 C 0.39819 0.95883 0.86481 0.0
C654 C 0.39539 0.98239 0.86842 0.0
C655 C 0.37278 0.98997 0.8734 0.0
C656 C 0.3529 0.97399 0.8747 0.0
C657 C 0.35561 0.9504 0.87114 0.0
H658 H 0.37065 0.00821 0.87618 0.0
H659 H 0.40002 0.78053 0.83593 0.0
H660 H 0.64735 0.40311 0.71633 0.0
H661 H 0.62958 0.42155 0.68181 0.0
H662 H 0.55996 0.39186 0.70366 0.0
H663 H 0.57738 0.37492 0.73967 0.0
H664 H 0.60871 0.40919 0.64246 0.0
H665 H 0.51624 0.42443 0.68667 0.0
H666 H 0.4985 0.43162 0.72823 0.0
H667 H 0.5666 0.45991 0.75523 0.0
H668 H 0.58467 0.45316 0.71377 0.0
H669 H 0.53484 0.44094 0.54627 0.0
H670 H 0.55106 0.42266 0.58201 0.0
H671 H 0.54983 0.48653 0.62499 0.0
H672 H 0.53246 0.50465 0.58947 0.0
H673 H 0.53749 0.4538 0.65412 0.0
H674 H 0.60281 0.46644 0.59756 0.0
H675 H 0.62401 0.46488 0.55705 0.0
H676 H 0.61728 0.39078 0.55723 0.0
H677 H 0.59575 0.39189 0.59759 0.0
C678 C 0.62817 0.4008 0.71425 0.0
C679 C 0.61387 0.38778 0.73137 0.0
C680 C 0.61802 0.41116 0.69411 0.0
C681 C 0.59328 0.40857 0.69015 0.0
C682 C 0.57901 0.39473 0.70652 0.0
C683 C 0.58912 0.38469 0.727 0.0
C684 C 0.58261 0.42047 0.66899 0.0
C685 C 0.59311 0.41891 0.6451 0.0
C686 C 0.56259 0.43373 0.67225 0.0
C687 C 0.55184 0.43804 0.69719 0.0
C688 C 0.5274 0.43225 0.70146 0.0
C689 C 0.5173 0.43624 0.725 0.0
C690 C 0.53143 0.44614 0.74438 0.0
C691 C 0.55569 0.45216 0.74024 0.0
C692 C 0.56588 0.44824 0.71673 0.0
C693 C 0.538 0.45115 0.56332 0.0
C694 C 0.53249 0.47435 0.56491 0.0
C695 C 0.54743 0.44066 0.58378 0.0
C696 C 0.55225 0.45326 0.6062 0.0
C697 C 0.54639 0.47637 0.60797 0.0
C698 C 0.5365 0.48676 0.5876 0.0
C699 C 0.56348 0.44234 0.62764 0.0
C700 C 0.55307 0.44406 0.65152 0.0
C701 C 0.58419 0.43002 0.62459 0.0
C702 C 0.59748 0.42925 0.60051 0.0
C703 C 0.60574 0.44981 0.5889 0.0
C704 C 0.61782 0.44901 0.56597 0.0
C705 C 0.62193 0.42775 0.55455 0.0
C706 C 0.61406 0.40724 0.56609 0.0
C707 C 0.60194 0.40794 0.58901 0.0
H708 H 0.63125 0.42717 0.53677 0.0
H709 H 0.52358 0.4492 0.76259 0.0
H710 H 0.90467 0.64682 0.20591 0.0
H711 H 0.92135 0.62684 0.16982 0.0
H712 H 0.90721 0.56168 0.20578 0.0
H713 H 0.89165 0.58163 0.24244 0.0
H714 H 0.94957 0.56325 0.1849 0.0
H715 H 0.87158 0.57941 0.158 0.0
H716 H 0.83863 0.60368 0.14974 0.0
H717 H 0.88331 0.64321 0.09846 0.0
H718 H 0.91665 0.61936 0.10669 0.0
H719 H 0.95739 0.48793 0.07885 0.0
H720 H 0.94071 0.51012 0.11351 0.0
H721 H 0.96943 0.57351 0.08099 0.0
H722 H 0.98672 0.55137 0.04657 0.0
H723 H 0.92054 0.57376 0.09919 0.0
H724 H 0.99829 0.55671 0.12611 0.0
H725 H 0.0305 0.53142 0.13385 0.0
H726 H 0.98499 0.49245 0.18487 0.0
H727 H 0.95236 0.51733 0.17713 0.0
C728 C 0.90533 0.62826 0.2063 0.0
C729 C 0.8967 0.61587 0.22715 0.0
C730 C 0.91463 0.61681 0.18547 0.0
C731 C 0.91524 0.59267 0.18486 0.0
C732 C 0.90685 0.58029 0.20572 0.0
C733 C 0.8977 0.59173 0.2266 0.0
C734 C 0.92487 0.5803 0.16268 0.0
C735 C 0.94296 0.56537 0.16623 0.0
C736 C 0.91671 0.58339 0.13815 0.0
C737 C 0.89669 0.59775 0.13317 0.0
C738 C 0.87444 0.5934 0.14512 0.0
C739 C 0.85568 0.60706 0.14041 0.0
C740 C 0.85889 0.62502 0.12364 0.0
C741 C 0.88086 0.62932 0.11148 0.0
C742 C 0.89969 0.61572 0.11615 0.0
C743 C 0.96004 0.5066 0.07901 0.0
C744 C 0.97333 0.51793 0.06 0.0
C745 C 0.95053 0.51924 0.09882 0.0
C746 C 0.95394 0.54343 0.09985 0.0
C747 C 0.96657 0.55485 0.08049 0.0
C748 C 0.97639 0.54219 0.06084 0.0
C749 C 0.94495 0.55669 0.12158 0.0
C750 C 0.92708 0.57175 0.11791 0.0
C751 C 0.95317 0.55364 0.14601 0.0
C752 C 0.9728 0.53874 0.15084 0.0
C753 C 0.99508 0.54263 0.13881 0.0
C754 C 0.01342 0.52839 0.14323 0.0
C755 C 0.00977 0.5103 0.15979 0.0
C756 C 0.98778 0.50645 0.17202 0.0
C757 C 0.96936 0.52063 0.16764 0.0
H758 H 0.024 0.4993 0.16319 0.0
H759 H 0.84434 0.63557 0.12002 0.0
H760 H 0.3158 0.13307 0.15308 0.0
H761 H 0.34678 0.1132 0.1305 0.0
H762 H 0.30301 0.10752 0.06468 0.0
H763 H 0.27203 0.12764 0.08712 0.0
H764 H 0.32472 0.06542 0.07872 0.0
H765 H 0.34499 0.14586 0.06321 0.0
H766 H 0.35338 0.18691 0.0754 0.0
H767 H 0.41255 0.16989 0.11945 0.0
H768 H 0.40427 0.12866 0.10783 0.0
H769 H 0.41618 0.02803 0.99785 0.0
H770 H 0.38323 0.04831 0.01584 0.0
H771 H 0.42797 0.07313 0.07743 0.0
H772 H 0.46113 0.05368 0.05913 0.0
H773 H 0.40413 0.10632 0.06311 0.0
H774 H 0.3839 0.02684 0.08196 0.0
H775 H 0.37582 0.98518 0.07259 0.0
H776 H 0.31737 0.99915 0.02587 0.0
H777 H 0.32532 0.04095 0.03472 0.0
C778 C 0.31276 0.12745 0.13384 0.0
C779 C 0.29162 0.13187 0.12177 0.0
C780 C 0.33045 0.11622 0.12098 0.0
C781 C 0.32713 0.10903 0.09596 0.0
C782 C 0.30583 0.11299 0.084 0.0
C783 C 0.28828 0.12454 0.09675 0.0
C784 C 0.34614 0.09768 0.08226 0.0
C785 C 0.34199 0.07438 0.07491 0.0
C786 C 0.36876 0.10934 0.07795 0.0
C787 C 0.37386 0.13414 0.08483 0.0
C788 C 0.35966 0.15084 0.07567 0.0
C789 C 0.36442 0.17415 0.08244 0.0
C790 C 0.38345 0.181 0.09824 0.0
C791 C 0.39779 0.16456 0.10724 0.0
C792 C 0.39309 0.14122 0.10055 0.0
C793 C 0.41898 0.03782 0.01522 0.0
C794 C 0.44125 0.03923 0.02708 0.0
C795 C 0.4001 0.04932 0.02554 0.0
C796 C 0.403 0.062 0.04819 0.0
C797 C 0.42529 0.06351 0.05992 0.0
C798 C 0.44424 0.05234 0.04944 0.0
C799 C 0.38296 0.07379 0.05975 0.0
C800 C 0.38687 0.09726 0.06672 0.0
C801 C 0.36023 0.06215 0.06406 0.0
C802 C 0.35537 0.03703 0.05878 0.0
C803 C 0.36944 0.02104 0.06954 0.0
C804 C 0.36486 0.9974 0.06435 0.0
C805 C 0.34614 0.98953 0.04858 0.0
C806 C 0.3319 0.00528 0.03804 0.0
C807 C 0.33642 0.02894 0.04315 0.0
H808 H 0.34262 0.97122 0.04458 0.0
H809 H 0.38711 0.19905 0.10346 0.0
H810 H 0.21387 0.87022 0.56353 0.0
H811 H 0.18018 0.88629 0.54407 0.0
H812 H 0.15426 0.90781 0.61649 0.0
H813 H 0.18672 0.89001 0.63629 0.0
H814 H 0.11827 0.89322 0.5902 0.0
H815 H 0.18641 0.94584 0.57548 0.0
H816 H 0.22723 0.95826 0.56144 0.0
H817 H 0.20946 0.93604 0.48636 0.0
H818 H 0.1686 0.92321 0.50002 0.0
H819 H 0.04786 0.98133 0.54641 0.0
H820 H 0.0778 0.95979 0.56648 0.0
H821 H 0.09423 0.92744 0.49553 0.0
H822 H 0.06431 0.94888 0.47537 0.0
H823 H 0.13421 0.94717 0.52086 0.0
H824 H 0.06368 0.89687 0.53803 0.0
H825 H 0.02271 0.88853 0.55412 0.0
H826 H 0.04531 0.91119 0.62768 0.0
H827 H 0.08636 0.92001 0.61195 0.0
C828 C 0.20081 0.87796 0.57543 0.0
C829 C 0.20323 0.87892 0.60155 0.0
C830 C 0.18169 0.88748 0.5642 0.0
C831 C 0.16494 0.89874 0.57876 0.0
C832 C 0.16703 0.89936 0.60483 0.0
C833 C 0.18586 0.88944 0.61611 0.0
C834 C 0.14543 0.91014 0.56683 0.0
C835 C 0.12183 0.9052 0.57522 0.0
C836 C 0.14995 0.92566 0.54712 0.0
C837 C 0.17452 0.93334 0.53883 0.0
C838 C 0.19126 0.94344 0.55601 0.0
C839 C 0.2144 0.95058 0.54812 0.0
C840 C 0.22096 0.94788 0.52304 0.0
C841 C 0.20437 0.93809 0.50579 0.0
C842 C 0.18121 0.93089 0.51359 0.0
C843 C 0.05772 0.96945 0.53518 0.0
C844 C 0.05392 0.96678 0.50937 0.0
C845 C 0.07473 0.95714 0.54665 0.0
C846 C 0.08812 0.94201 0.53245 0.0
C847 C 0.08404 0.93906 0.50675 0.0
C848 C 0.06695 0.95125 0.49531 0.0
C849 C 0.10724 0.93011 0.54415 0.0
C850 C 0.13075 0.93507 0.53575 0.0
C851 C 0.10266 0.91506 0.56418 0.0
C852 C 0.07808 0.90926 0.57376 0.0
C853 C 0.05989 0.9002 0.55761 0.0
C854 C 0.03665 0.89538 0.56667 0.0
C855 C 0.03141 0.89936 0.5919 0.0
C856 C 0.0494 0.90812 0.60814 0.0
C857 C 0.07267 0.91301 0.59916 0.0
H858 H 0.01341 0.89561 0.59888 0.0
H859 H 0.23888 0.95342 0.51696 0.0
H860 H 0.77947 0.38509 0.85899 0.0
H861 H 0.81648 0.40458 0.87547 0.0
H862 H 0.79041 0.39415 0.9506 0.0
H863 H 0.75324 0.3749 0.93424 0.0
H864 H 0.81149 0.43798 0.94496 0.0
H865 H 0.83034 0.36 0.92646 0.0
H866 H 0.83316 0.32495 0.89986 0.0
H867 H 0.87987 0.36303 0.84919 0.0
H868 H 0.87705 0.39841 0.87533 0.0
H869 H 0.94565 0.43346 0.98272 0.0
H870 H 0.90802 0.41469 0.96705 0.0
H871 H 0.88839 0.48 0.94072 0.0
H872 H 0.92543 0.49896 0.9572 0.0
H873 H 0.8896 0.408 0.92318 0.0
H874 H 0.82934 0.48257 0.9403 0.0
H875 H 0.82669 0.51667 0.96842 0.0
H876 H 0.86252 0.483 0.02576 0.0
H877 H 0.86514 0.44859 0.99807 0.0
C878 C 0.78153 0.38711 0.87902 0.0
C879 C 0.7634 0.37834 0.89529 0.0
C880 C 0.80277 0.39813 0.88842 0.0
C881 C 0.80633 0.40069 0.91429 0.0
C882 C 0.7881 0.39235 0.93057 0.0
C883 C 0.76693 0.38118 0.92119 0.0
C884 C 0.82918 0.41177 0.9244 0.0
C885 C 0.82857 0.43144 0.94018 0.0
C886 C 0.85149 0.40315 0.91841 0.0
C887 C 0.8533 0.38189 0.90272 0.0
C888 C 0.84106 0.36094 0.90954 0.0
C889 C 0.84269 0.34101 0.89457 0.0
C890 C 0.85664 0.34178 0.87281 0.0
C891 C 0.86904 0.36247 0.86603 0.0
C892 C 0.86745 0.38246 0.88093 0.0
C893 C 0.93326 0.44384 0.97369 0.0
C894 C 0.9385 0.46776 0.97144 0.0
C895 C 0.91175 0.43307 0.96465 0.0
C896 C 0.89506 0.44592 0.95299 0.0
C897 C 0.90057 0.46973 0.95019 0.0
C898 C 0.92188 0.48056 0.95956 0.0
C899 C 0.87202 0.43437 0.94369 0.0
C900 C 0.87256 0.41461 0.92798 0.0
C901 C 0.84962 0.44278 0.94997 0.0
C902 C 0.84756 0.46308 0.96706 0.0
C903 C 0.8365 0.48239 0.95897 0.0
C904 C 0.83504 0.50178 0.97482 0.0
C905 C 0.84447 0.50202 0.99884 0.0
C906 C 0.85528 0.48281 0.00712 0.0
C907 C 0.85676 0.46336 0.99136 0.0
H908 H 0.84339 0.51708 0.01105 0.0
H909 H 0.85787 0.32633 0.86124 0.0
H910 H 0.72072 0.58558 0.35357 0.0
H911 H 0.68473 0.56894 0.37438 0.0
H912 H 0.71641 0.58606 0.44612 0.0
H913 H 0.75276 0.60243 0.42538 0.0
H914 H 0.69197 0.54167 0.44382 0.0
H915 H 0.67779 0.62001 0.42432 0.0
H916 H 0.67597 0.65295 0.39661 0.0
H917 H 0.62419 0.6136 0.35107 0.0
H918 H 0.62596 0.5803 0.37833 0.0
H919 H 0.58445 0.54284 0.51829 0.0
H920 H 0.62299 0.55187 0.49726 0.0
H921 H 0.59117 0.53142 0.42638 0.0
H922 H 0.55283 0.52195 0.44729 0.0
H923 H 0.61571 0.57607 0.42773 0.0
H924 H 0.62968 0.49801 0.44434 0.0
H925 H 0.63118 0.46352 0.46982 0.0
H926 H 0.68174 0.50052 0.51869 0.0
H927 H 0.6806 0.53526 0.49342 0.0
C928 C 0.72019 0.58555 0.37378 0.0
C929 C 0.7396 0.59539 0.38782 0.0
C930 C 0.69954 0.57615 0.38564 0.0
C931 C 0.69782 0.57641 0.4118 0.0
C932 C 0.71736 0.58569 0.42591 0.0
C933 C 0.73802 0.59522 0.41404 0.0
C934 C 0.67522 0.56791 0.42432 0.0
C935 C 0.67536 0.54938 0.44057 0.0
C936 C 0.6534 0.57753 0.41952 0.0
C937 C 0.65219 0.59759 0.40322 0.0
C938 C 0.66616 0.61832 0.40829 0.0
C939 C 0.66511 0.63707 0.39268 0.0
C940 C 0.65002 0.63535 0.37205 0.0
C941 C 0.63589 0.6149 0.36703 0.0
C942 C 0.6369 0.59609 0.38256 0.0
C943 C 0.58579 0.54004 0.49827 0.0
C944 C 0.56566 0.53187 0.48439 0.0
C945 C 0.60779 0.5451 0.4863 0.0
C946 C 0.60989 0.5423 0.46027 0.0
C947 C 0.5899 0.5337 0.44647 0.0
C948 C 0.56804 0.5283 0.45845 0.0
C949 C 0.63246 0.54992 0.44727 0.0
C950 C 0.63232 0.56834 0.43096 0.0
C951 C 0.65415 0.54005 0.45182 0.0
C952 C 0.65485 0.5193 0.46717 0.0
C953 C 0.64096 0.49886 0.46065 0.0
C954 C 0.64179 0.47924 0.47501 0.0
C955 C 0.65641 0.47987 0.49596 0.0
C956 C 0.67037 0.50008 0.50249 0.0
C957 C 0.66971 0.51971 0.48811 0.0
H958 H 0.65699 0.46468 0.50709 0.0
H959 H 0.64924 0.64988 0.35999 0.0
H960 H 0.12902 0.28007 0.11767 0.0
H961 H 0.10778 0.30873 0.09679 0.0
H962 H 0.17362 0.33594 0.0627 0.0
H963 H 0.1954 0.30794 0.08479 0.0
H964 H 0.14848 0.37007 0.07871 0.0
H965 H 0.13206 0.30203 0.02874 0.0
H966 H 0.1201 0.26097 0.01949 0.0
H967 H 0.05003 0.26972 0.04929 0.0
H968 H 0.06165 0.31077 0.05907 0.0
H969 H 0.08201 0.43852 1.00069 0.0
H970 H 0.10806 0.40922 0.01348 0.0
H971 H 0.05077 0.37772 0.05823 0.0
H972 H 0.02467 0.40702 0.0455 0.0
H973 H 0.07491 0.34574 0.03136 0.0
H974 H 0.09454 0.41408 0.08449 0.0
H975 H 0.10726 0.45543 0.09097 0.0
H976 H 0.17286 0.44585 0.05152 0.0
H977 H 0.1604 0.40451 0.04455 0.0
C978 C 0.13913 0.29234 0.10606 0.0
C979 C 0.16397 0.29176 0.10301 0.0
C980 C 0.12686 0.30852 0.09381 0.0
C981 C 0.13903 0.32419 0.07781 0.0
C982 C 0.16386 0.32387 0.07483 0.0
C983 C 0.17624 0.30776 0.08731 0.0
C984 C 0.12567 0.34112 0.06468 0.0
C985 C 0.13264 0.36472 0.06797 0.0
C986 C 0.10494 0.33415 0.05075 0.0
C987 C 0.0978 0.30947 0.0448 0.0
C988 C 0.11415 0.29517 0.03348 0.0
C989 C 0.10742 0.27189 0.02812 0.0
C990 C 0.08433 0.26273 0.03384 0.0
C991 C 0.06791 0.27684 0.04488 0.0
C992 C 0.07455 0.30012 0.05031 0.0
C993 C 0.07494 0.42517 0.01303 0.0
C994 C 0.05141 0.42495 0.02216 0.0
C995 C 0.08984 0.40856 0.02041 0.0
C996 C 0.08137 0.39144 0.03693 0.0
C997 C 0.05761 0.39079 0.04544 0.0
C998 C 0.04276 0.40752 0.03821 0.0
C999 C 0.09736 0.37457 0.04604 0.0
C1000 C 0.0909 0.351 0.04189 0.0
C1001 C 0.1187 0.38157 0.05889 0.0
C1002 C 0.12644 0.40627 0.0638 0.0
C1003 C 0.11164 0.42082 0.07712 0.0
C1004 C 0.1188 0.44425 0.08088 0.0
C1005 C 0.14081 0.45327 0.07157 0.0
C1006 C 0.15579 0.43885 0.05867 0.0
C1007 C 0.14871 0.41542 0.05484 0.0
H1008 H 0.14628 0.47143 0.07433 0.0
H1009 H 0.07916 0.2447 0.02967 0.0
H1010 H 0.60896 0.23591 0.9167 0.0
H1011 H 0.59281 0.19993 0.93517 0.0
H1012 H 0.56857 0.1742 0.86287 0.0
H1013 H 0.58537 0.20968 0.84402 0.0
H1014 H 0.53371 0.16807 0.89989 0.0
H1015 H 0.61688 0.15441 0.88778 0.0
H1016 H 0.66022 0.16327 0.89289 0.0
H1017 H 0.65194 0.16028 0.97251 0.0
H1018 H 0.60847 0.15172 0.96787 0.0
H1019 H 0.5046 0.05044 0.9161 0.0
H1020 H 0.52296 0.08766 0.90328 0.0
H1021 H 0.55095 0.10092 0.9774 0.0
H1022 H 0.533 0.06297 0.99015 0.0
H1023 H 0.58348 0.11541 0.94373 0.0
H1024 H 0.50162 0.12731 0.95715 0.0
H1025 H 0.45802 0.11935 0.95366 0.0
H1026 H 0.46301 0.1274 0.87434 0.0
H1027 H 0.50671 0.13508 0.8773 0.0
C1028 C 0.60054 0.22252 0.90457 0.0
C1029 C 0.59857 0.22592 0.87873 0.0
C1030 C 0.59118 0.20194 0.91525 0.0
C1031 C 0.57951 0.18427 0.90043 0.0
C1032 C 0.57738 0.18761 0.87473 0.0
C1033 C 0.58691 0.20805 0.86399 0.0
C1034 C 0.56921 0.16241 0.91161 0.0
C1035 C 0.54464 0.15644 0.90925 0.0
C1036 C 0.58327 0.14763 0.9247 0.0
C1037 C 0.60939 0.15268 0.92749 0.0
C1038 C 0.62427 0.15584 0.90638 0.0
C1039 C 0.64886 0.16077 0.9092 0.0
C1040 C 0.65882 0.1624 0.93302 0.0
C1041 C 0.6442 0.15905 0.95407 0.0
C1042 C 0.61959 0.15414 0.95136 0.0
C1043 C 0.5147 0.06124 0.92971 0.0
C1044 C 0.51719 0.05386 0.95421 0.0
C1045 C 0.5251 0.08264 0.92238 0.0
C1046 C 0.53795 0.09748 0.93946 0.0
C1047 C 0.541 0.08991 0.96387 0.0
C1048 C 0.5307 0.06827 0.97119 0.0
C1049 C 0.54799 0.12078 0.93154 0.0
C1050 C 0.57248 0.12708 0.93455 0.0
C1051 C 0.53379 0.13609 0.91932 0.0
C1052 C 0.50748 0.1316 0.91744 0.0
C1053 C 0.49345 0.12723 0.93894 0.0
C1054 C 0.46871 0.12279 0.93706 0.0
C1055 C 0.45776 0.12282 0.91378 0.0
C1056 C 0.47152 0.12736 0.89235 0.0
C1057 C 0.49627 0.13178 0.89412 0.0
H1058 H 0.4386 0.11938 0.91237 0.0
H1059 H 0.67786 0.16621 0.93515 0.0
H1060 H 0.91612 0.76352 0.37783 0.0
H1061 H 0.93317 0.80129 0.39264 0.0
H1062 H 0.8637 0.81834 0.41899 0.0
H1063 H 0.84623 0.78129 0.40273 0.0
H1064 H 0.8846 0.85445 0.4001 0.0
H1065 H 0.90785 0.80027 0.45876 0.0
H1066 H 0.92567 0.76551 0.47289 0.0
H1067 H 0.99408 0.79125 0.44441 0.0
H1068 H 0.97658 0.82604 0.42981 0.0
H1069 H 0.95914 0.92571 0.50302 0.0
H1070 H 0.93924 0.89007 0.48588 0.0
H1071 H 0.94473 0.91752 0.41195 0.0
H1072 H 0.96446 0.95355 0.42904 0.0
H1073 H 0.95511 0.85922 0.45535 0.0
H1074 H 0.89769 0.89303 0.37645 0.0
H1075 H 0.87371 0.92572 0.36811 0.0
H1076 H 0.86622 0.93945 0.44684 0.0
H1077 H 0.88994 0.90674 0.45567 0.0
C1078 C 0.90434 0.7754 0.38638 0.0
C1079 C 0.87975 0.76913 0.38919 0.0
C1080 C 0.91421 0.79695 0.39517 0.0
C1081 C 0.89984 0.8126 0.4074 0.0
C1082 C 0.87524 0.80659 0.40976 0.0
C1083 C 0.8653 0.78519 0.4007 0.0
C1084 C 0.9104 0.83509 0.41802 0.0
C1085 C 0.9001 0.85549 0.41209 0.0
C1086 C 0.93026 0.83652 0.4342 0.0
C1087 C 0.94085 0.81564 0.44296 0.0
C1088 C 0.92665 0.79843 0.45535 0.0
C1089 C 0.9367 0.77874 0.46347 0.0
C1090 C 0.96097 0.77614 0.45949 0.0
C1091 C 0.97527 0.79327 0.44744 0.0
C1092 C 0.9653 0.81298 0.43925 0.0
C1093 C 0.95602 0.92433 0.48313 0.0
C1094 C 0.96353 0.94255 0.46743 0.0
C1095 C 0.94465 0.90384 0.47332 0.0
C1096 C 0.9404 0.90104 0.44761 0.0
C1097 C 0.94755 0.91932 0.43188 0.0
C1098 C 0.95896 0.93987 0.44171 0.0
C1099 C 0.92942 0.87863 0.43729 0.0
C1100 C 0.93972 0.85823 0.44321 0.0
C1101 C 0.90906 0.87715 0.42182 0.0
C1102 C 0.89582 0.89757 0.41669 0.0
C1103 C 0.89098 0.90307 0.39198 0.0
C1104 C 0.87737 0.92156 0.38717 0.0
C1105 C 0.86836 0.93458 0.40694 0.0
C1106 C 0.87318 0.92932 0.43156 0.0
C1107 C 0.8868 0.91087 0.43647 0.0
H1108 H 0.85775 0.94883 0.40318 0.0
H1109 H 0.96872 0.76089 0.46579 0.0
H1110 H 0.35349 0.73707 0.55626 0.0
H1111 H 0.37675 0.70444 0.54435 0.0
H1112 H 0.34333 0.66512 0.60421 0.0
H1113 H 0.32101 0.69815 0.61673 0.0
H1114 H 0.38827 0.66318 0.60674 0.0
H1115 H 0.3327 0.65302 0.53961 0.0
H1116 H 0.30994 0.66356 0.50317 0.0
H1117 H 0.37526 0.6786 0.46239 0.0
H1118 H 0.39846 0.66856 0.49873 0.0
H1119 H 0.43708 0.55685 0.5701 0.0
H1120 H 0.41032 0.58727 0.58029 0.0
H1121 H 0.44933 0.63244 0.52909 0.0
H1122 H 0.4764 0.60242 0.51932 0.0
H1123 H 0.40067 0.62998 0.52174 0.0
H1124 H 0.4557 0.64208 0.59008 0.0
H1125 H 0.47818 0.63035 0.62622 0.0
H1126 H 0.41247 0.61009 0.66418 0.0
H1127 H 0.3896 0.62142 0.62809 0.0
C1128 C 0.35082 0.72122 0.56643 0.0
C1129 C 0.33555 0.71993 0.58731 0.0
C1130 C 0.36402 0.70258 0.55962 0.0
C1131 C 0.36171 0.68221 0.57329 0.0
C1132 C 0.3455 0.68064 0.59344 0.0
C1133 C 0.33268 0.69941 0.60051 0.0
C1134 C 0.37766 0.66339 0.56817 0.0
C1135 C 0.39057 0.65566 0.58819 0.0
C1136 C 0.38127 0.65396 0.54386 0.0
C1137 C 0.36734 0.6603 0.52206 0.0
C1138 C 0.34224 0.65882 0.52299 0.0
C1139 C 0.32925 0.66467 0.50232 0.0
C1140 C 0.34115 0.67183 0.48051 0.0
C1141 C 0.36607 0.67312 0.47932 0.0
C1142 C 0.37914 0.66735 0.49995 0.0
C1143 C 0.4401 0.5734 0.56134 0.0
C1144 C 0.45882 0.5774 0.54406 0.0
C1145 C 0.4248 0.59068 0.56707 0.0
C1146 C 0.42782 0.612 0.55532 0.0
C1147 C 0.44668 0.61606 0.53827 0.0
C1148 C 0.46219 0.59897 0.53284 0.0
C1149 C 0.41099 0.62994 0.56028 0.0
C1150 C 0.39807 0.63749 0.54026 0.0
C1151 C 0.40722 0.63913 0.58456 0.0
C1152 C 0.42095 0.63238 0.60629 0.0
C1153 C 0.44605 0.63494 0.60605 0.0
C1154 C 0.45886 0.62841 0.62654 0.0
C1155 C 0.44676 0.61943 0.64746 0.0
C1156 C 0.42182 0.61702 0.64795 0.0
C1157 C 0.40892 0.62352 0.62749 0.0
H1158 H 0.45671 0.61438 0.6633 0.0
H1159 H 0.33105 0.67631 0.46452 0.0
H1160 H 0.87075 0.83342 0.71951 0.0
H1161 H 0.89804 0.85198 0.68888 0.0
H1162 H 0.88698 0.91862 0.72262 0.0
H1163 H 0.86024 0.90028 0.75364 0.0
H1164 H 0.88142 0.91689 0.67135 0.0
H1165 H 0.93777 0.89496 0.73202 0.0
H1166 H 0.95666 0.86751 0.75825 0.0
H1167 H 0.97647 0.82889 0.69274 0.0
H1168 H 0.95737 0.85594 0.66612 0.0
H1169 H 0.9658 0.99018 0.61249 0.0
H1170 H 0.94618 0.96797 0.64595 0.0
H1171 H 0.96518 0.90468 0.60953 0.0
H1172 H 0.98542 0.92698 0.57618 0.0
H1173 H 0.96682 0.90218 0.66042 0.0
H1174 H 0.91143 0.92282 0.59962 0.0
H1175 H 0.89206 0.94897 0.57221 0.0
H1176 H 0.86929 0.9879 0.63626 0.0
H1177 H 0.88885 0.96218 0.66407 0.0
C1178 C 0.87437 0.852 0.72063 0.0
C1179 C 0.8632 0.86538 0.73897 0.0
C1180 C 0.88993 0.86256 0.70309 0.0
C1181 C 0.89455 0.88664 0.70359 0.0
C1182 C 0.88354 0.90001 0.7219 0.0
C1183 C 0.86814 0.8895 0.73949 0.0
C1184 C 0.91014 0.89815 0.68452 0.0
C1185 C 0.90016 0.91389 0.66916 0.0
C1186 C 0.93434 0.89354 0.68112 0.0
C1187 C 0.94591 0.87733 0.6971 0.0
C1188 C 0.94596 0.8805 0.72322 0.0
C1189 C 0.95675 0.86503 0.73815 0.0
C1190 C 0.9677 0.84643 0.72717 0.0
C1191 C 0.96794 0.84329 0.70122 0.0
C1192 C 0.95716 0.85869 0.6862 0.0
C1193 C 0.9662 0.97156 0.61188 0.0
C1194 C 0.97679 0.96022 0.59167 0.0
C1195 C 0.95494 0.95889 0.63094 0.0
C1196 C 0.95373 0.93467 0.62987 0.0
C1197 C 0.96577 0.92336 0.61059 0.0
C1198 C 0.97727 0.93608 0.59157 0.0
C1199 C 0.9382 0.92133 0.64769 0.0
C1200 C 0.94808 0.90515 0.66262 0.0
C1201 C 0.91376 0.92528 0.65056 0.0
C1202 C 0.90179 0.94069 0.63391 0.0
C1203 C 0.90243 0.93705 0.60786 0.0
C1204 C 0.89141 0.95179 0.59225 0.0
C1205 C 0.8795 0.97011 0.60248 0.0
C1206 C 0.87855 0.97371 0.62836 0.0
C1207 C 0.88958 0.95905 0.64405 0.0
H1208 H 0.87098 0.9815 0.59037 0.0
H1209 H 0.97604 0.83448 0.73876 0.0
H1210 H 0.66855 0.11926 0.23931 0.0
H1211 H 0.65437 0.10395 0.19883 0.0
H1212 H 0.58347 0.12311 0.21726 0.0
H1213 H 0.59718 0.13717 0.25839 0.0
H1214 H 0.58063 0.08278 0.19491 0.0
H1215 H 0.62237 0.15596 0.17868 0.0
H1216 H 0.65639 0.18547 0.17974 0.0
H1217 H 0.69926 0.13964 0.13799 0.0
H1218 H 0.66557 0.10971 0.13697 0.0
H1219 H 0.53252 0.08232 0.07455 0.0
H1220 H 0.55205 0.09998 0.11175 0.0
H1221 H 0.61193 0.05894 0.0989 0.0
H1222 H 0.59222 0.04076 0.06185 0.0
H1223 H 0.62152 0.10981 0.11726 0.0
H1224 H 0.57798 0.03639 0.13507 0.0
H1225 H 0.54234 0.00881 0.13313 0.0
H1226 H 0.50109 0.05817 0.17161 0.0
H1227 H 0.53643 0.08621 0.17338 0.0
C1228 C 0.64984 0.11984 0.23497 0.0
C1229 C 0.63402 0.12956 0.2521 0.0
C1230 C 0.64183 0.11137 0.21165 0.0
C1231 C 0.61797 0.11281 0.20481 0.0
C1232 C 0.60201 0.12197 0.22207 0.0
C1233 C 0.60993 0.13021 0.24549 0.0
C1234 C 0.60957 0.10481 0.17968 0.0
C1235 C 0.58948 0.08891 0.17799 0.0
C1236 C 0.62128 0.11252 0.15752 0.0
C1237 C 0.64153 0.13052 0.15797 0.0
C1238 C 0.63911 0.15211 0.16988 0.0
C1239 C 0.65832 0.16892 0.17045 0.0
C1240 C 0.68 0.16441 0.159 0.0
C1241 C 0.68247 0.14309 0.14688 0.0
C1242 C 0.66332 0.12621 0.14629 0.0
C1243 C 0.55011 0.07748 0.07929 0.0
C1244 C 0.56083 0.06006 0.06554 0.0
C1245 C 0.5612 0.08755 0.10051 0.0
C1246 C 0.58327 0.08057 0.10803 0.0
C1247 C 0.59489 0.06451 0.09325 0.0
C1248 C 0.58362 0.05414 0.0722 0.0
C1249 C 0.5927 0.08803 0.13276 0.0
C1250 C 0.61287 0.10373 0.1343 0.0
C1251 C 0.58093 0.08041 0.15481 0.0
C1252 C 0.55977 0.06347 0.1541 0.0
C1253 C 0.56125 0.04143 0.14291 0.0
C1254 C 0.54112 0.02571 0.14188 0.0
C1255 C 0.51944 0.03176 0.15218 0.0
C1256 C 0.51788 0.05352 0.1636 0.0
C1257 C 0.53796 0.06933 0.16463 0.0
H1258 H 0.50387 0.01956 0.15136 0.0
H1259 H 0.69485 0.17745 0.15946 0.0
H1260 H 0.42782 0.62633 0.25666 0.0
H1261 H 0.44638 0.60841 0.29168 0.0
H1262 H 0.37875 0.6033 0.33074 0.0
H1263 H 0.36016 0.62126 0.29591 0.0
H1264 H 0.41659 0.61772 0.36204 0.0
H1265 H 0.39678 0.55708 0.30065 0.0
H1266 H 0.39741 0.53852 0.2587 0.0
H1267 H 0.47383 0.53931 0.26126 0.0
H1268 H 0.47368 0.55819 0.30311 0.0
H1269 H 0.44014 0.53802 0.45395 0.0
H1270 H 0.42333 0.55776 0.41944 0.0
H1271 H 0.48738 0.54947 0.37593 0.0
H1272 H 0.50366 0.52852 0.41 0.0
H1273 H 0.45247 0.54324 0.34654 0.0
H1274 H 0.47293 0.60252 0.40847 0.0
H1275 H 0.47283 0.62133 0.45033 0.0
H1276 H 0.39686 0.62451 0.44687 0.0
H1277 H 0.39644 0.60535 0.40515 0.0
C1278 C 0.41699 0.62166 0.27285 0.0
C1279 C 0.39247 0.62509 0.2734 0.0
C1280 C 0.42758 0.61128 0.29279 0.0
C1281 C 0.41392 0.60428 0.31379 0.0
C1282 C 0.38965 0.60848 0.31476 0.0
C1283 C 0.37902 0.61862 0.29475 0.0
C1284 C 0.42461 0.59184 0.33435 0.0
C1285 C 0.42428 0.60134 0.35874 0.0
C1286 C 0.43512 0.57072 0.32998 0.0
C1287 C 0.43524 0.55927 0.30488 0.0
C1288 C 0.41374 0.55347 0.29218 0.0
C1289 C 0.41401 0.54286 0.26843 0.0
C1290 C 0.43566 0.5378 0.25729 0.0
C1291 C 0.45708 0.54328 0.2699 0.0
C1292 C 0.45691 0.55392 0.29363 0.0
C1293 C 0.45059 0.5403 0.43696 0.0
C1294 C 0.47327 0.53176 0.43475 0.0
C1295 C 0.44104 0.55181 0.41727 0.0
C1296 C 0.45427 0.55579 0.39514 0.0
C1297 C 0.47676 0.54681 0.39274 0.0
C1298 C 0.48609 0.53479 0.41225 0.0
C1299 C 0.44461 0.56908 0.37448 0.0
C1300 C 0.44504 0.55972 0.34999 0.0
C1301 C 0.43438 0.59046 0.37878 0.0
C1302 C 0.43464 0.60229 0.40375 0.0
C1303 C 0.45618 0.6071 0.41669 0.0
C1304 C 0.45622 0.61783 0.4404 0.0
C1305 C 0.43484 0.62405 0.45129 0.0
C1306 C 0.4134 0.61964 0.43843 0.0
C1307 C 0.41325 0.60886 0.41475 0.0
H1308 H 0.4349 0.63232 0.46966 0.0
H1309 H 0.43583 0.52958 0.23891 0.0
H1310 H 0.07652 0.38643 0.75962 0.0
H1311 H 0.0613 0.4071 0.79624 0.0
H1312 H 0.13263 0.41741 0.8255 0.0
H1313 H 0.14796 0.39671 0.78896 0.0
H1314 H 0.09846 0.40295 0.86144 0.0
H1315 H 0.1106 0.46075 0.79917 0.0
H1316 H 0.10585 0.47716 0.75777 0.0
H1317 H 0.02989 0.47441 0.76894 0.0
H1318 H 0.03417 0.45767 0.81028 0.0
H1319 H 0.0586 0.51778 0.92436 0.0
H1320 H 0.07738 0.49604 0.89074 0.0
H1321 H 0.03679 0.43373 0.91293 0.0
H1322 H 0.0183 0.45537 0.9469 0.0
H1323 H 0.05748 0.47464 0.85143 0.0
H1324 H 0.06722 0.38673 0.8959 0.0
H1325 H 0.0747 0.37026 0.9367 0.0
H1326 H 0.11048 0.43471 0.96158 0.0
H1327 H 0.10338 0.45153 0.92083 0.0
C1328 C 0.08892 0.39296 0.77395 0.0
C1329 C 0.11345 0.39001 0.7714 0.0
C1330 C 0.08023 0.40486 0.79477 0.0
C1331 C 0.09586 0.41388 0.81351 0.0
C1332 C 0.12028 0.41059 0.81125 0.0
C1333 C 0.12902 0.39892 0.7903 0.0
C1334 C 0.0868 0.42704 0.83532 0.0
C1335 C 0.08945 0.41862 0.85931 0.0
C1336 C 0.0753 0.44758 0.8325 0.0
C1337 C 0.07269 0.45775 0.80771 0.0
C1338 C 0.09287 0.46347 0.79271 0.0
C1339 C 0.09027 0.47286 0.76927 0.0
C1340 C 0.06758 0.47677 0.7607 0.0
C1341 C 0.04745 0.47135 0.77559 0.0
C1342 C 0.04996 0.46192 0.79903 0.0
C1343 C 0.05387 0.4994 0.92221 0.0
C1344 C 0.03694 0.48828 0.93817 0.0
C1345 C 0.06456 0.487 0.90295 0.0
C1346 C 0.0586 0.46321 0.8993 0.0
C1347 C 0.04196 0.45199 0.91554 0.0
C1348 C 0.03132 0.46439 0.93488 0.0
C1349 C 0.06894 0.45051 0.87776 0.0
C1350 C 0.06644 0.45897 0.8537 0.0
C1351 C 0.0807 0.43007 0.88057 0.0
C1352 C 0.0846 0.42042 0.90538 0.0
C1353 C 0.07667 0.39739 0.91008 0.0
C1354 C 0.08083 0.388 0.93319 0.0
C1355 C 0.09303 0.40144 0.9517 0.0
C1356 C 0.10096 0.42436 0.94723 0.0
C1357 C 0.09682 0.43385 0.92415 0.0
H1358 H 0.09643 0.394 0.96944 0.0
H1359 H 0.0656 0.48405 0.74255 0.0
H1360 H 0.67389 0.82815 0.89463 0.0
H1361 H 0.64322 0.85141 0.9129 0.0
H1362 H 0.69322 0.91167 0.91331 0.0
H1363 H 0.72402 0.88847 0.89526 0.0
H1364 H 0.66704 0.90662 0.95789 0.0
H1365 H 0.65321 0.90594 0.86933 0.0
H1366 H 0.64608 0.88765 0.8277 0.0
H1367 H 0.58164 0.85176 0.85478 0.0
H1368 H 0.58857 0.86958 0.89669 0.0
H1369 H 0.58426 0.99218 0.97751 0.0
H1370 H 0.61591 0.96889 0.96177 0.0
H1371 H 0.56455 0.9102 0.95179 0.0
H1372 H 0.53281 0.93344 0.96684 0.0
H1373 H 0.59195 0.91447 0.91216 0.0
H1374 H 0.60491 0.91438 1.00034 0.0
H1375 H 0.61164 0.93157 0.04253 0.0
H1376 H 0.67688 0.96737 0.01737 0.0
H1377 H 0.67037 0.95064 0.97492 0.0
C1378 C 0.67836 0.84631 0.89878 0.0
C1379 C 0.70126 0.85656 0.89343 0.0
C1380 C 0.66083 0.85958 0.90908 0.0
C1381 C 0.66597 0.88325 0.91426 0.0
C1382 C 0.68894 0.89342 0.90938 0.0
C1383 C 0.70641 0.88022 0.89891 0.0
C1384 C 0.64725 0.8975 0.9244 0.0
C1385 C 0.65072 0.9086 0.94781 0.0
C1386 C 0.6258 0.89956 0.91143 0.0
C1387 C 0.62154 0.88892 0.88621 0.0
C1388 C 0.63762 0.894 0.86646 0.0
C1389 C 0.6336 0.88374 0.84281 0.0
C1390 C 0.61346 0.86851 0.83861 0.0
C1391 C 0.59726 0.86354 0.85806 0.0
C1392 C 0.60121 0.87373 0.88176 0.0
C1393 C 0.57974 0.97429 0.97207 0.0
C1394 C 0.55603 0.96469 0.97334 0.0
C1395 C 0.59786 0.96097 0.96317 0.0
C1396 C 0.59262 0.93774 0.9558 0.0
C1397 C 0.56899 0.9281 0.95729 0.0
C1398 C 0.55087 0.94144 0.96592 0.0
C1399 C 0.61158 0.92358 0.94582 0.0
C1400 C 0.60821 0.91251 0.92235 0.0
C1401 C 0.63302 0.9214 0.95886 0.0
C1402 C 0.63703 0.93144 0.98439 0.0
C1403 C 0.6206 0.92606 0.00375 0.0
C1404 C 0.62439 0.9357 0.02772 0.0
C1405 C 0.64464 0.9506 0.03261 0.0
C1406 C 0.66118 0.95585 0.01354 0.0
C1407 C 0.65746 0.94628 0.98953 0.0
H1408 H 0.64754 0.95805 0.05118 0.0
H1409 H 0.61037 0.86059 0.82028 0.0
H1410 H 0.77922 0.12114 0.44595 0.0
H1411 H 0.8153 0.10673 0.4629 0.0
H1412 H 0.84092 0.09295 0.38815 0.0
H1413 H 0.80485 0.10718 0.37112 0.0
H1414 H 0.847 0.05763 0.41686 0.0
H1415 H 0.86416 0.13954 0.42301 0.0
H1416 H 0.85678 0.17968 0.43489 0.0
H1417 H 0.85509 0.16255 0.51231 0.0
H1418 H 0.86213 0.12219 0.50087 0.0
H1419 H 0.96017 0.03005 0.45486 0.0
H1420 H 0.93011 0.05126 0.43486 0.0
H1421 H 0.90163 0.06965 0.50728 0.0
H1422 H 0.93302 0.05019 0.52729 0.0
H1423 H 0.89854 0.10385 0.47747 0.0
H1424 H 0.87876 0.02058 0.46984 0.0
H1425 H 0.89074 0.98188 0.45739 0.0
H1426 H 0.89921 0.00272 0.38141 0.0
H1427 H 0.8876 0.04163 0.39347 0.0
C1428 C 0.79264 0.11519 0.43315 0.0
C1429 C 0.78922 0.11525 0.40723 0.0
C1430 C 0.81324 0.10699 0.44284 0.0
C1431 C 0.83092 0.099 0.42676 0.0
C1432 C 0.82749 0.09899 0.40088 0.0
C1433 C 0.80686 0.10706 0.3912 0.0
C1434 C 0.8528 0.09026 0.43693 0.0
C1435 C 0.8584 0.06785 0.42989 0.0
C1436 C 0.86758 0.1035 0.4541 0.0
C1437 C 0.86346 0.12779 0.46106 0.0
C1438 C 0.86204 0.14428 0.44256 0.0
C1439 C 0.85794 0.16709 0.44922 0.0
C1440 C 0.85541 0.17365 0.47434 0.0
C1441 C 0.85703 0.15743 0.49286 0.0
C1442 C 0.86109 0.1346 0.4863 0.0
C1443 C 0.94786 0.0391 0.46646 0.0
C1444 C 0.94886 0.03847 0.49257 0.0
C1445 C 0.93051 0.051 0.45505 0.0
C1446 C 0.91316 0.06151 0.46955 0.0
C1447 C 0.91472 0.06159 0.49568 0.0
C1448 C 0.93257 0.05033 0.50709 0.0
C1449 C 0.89251 0.07113 0.4577 0.0
C1450 C 0.88711 0.09367 0.46442 0.0
C1451 C 0.87792 0.05805 0.44019 0.0
C1452 C 0.88251 0.03404 0.43259 0.0
C1453 C 0.88303 0.01684 0.45046 0.0
C1454 C 0.88985 0.99491 0.44349 0.0
C1455 C 0.89593 0.98994 0.41867 0.0
C1456 C 0.89462 0.00666 0.40065 0.0
C1457 C 0.88787 0.02863 0.40752 0.0
H1458 H 0.90178 0.97317 0.4134 0.0
H1459 H 0.85224 0.19131 0.47945 0.0
H1460 H 0.25374 0.62688 0.07169 0.0
H1461 H 0.21683 0.60739 0.05525 0.0
H1462 H 0.18558 0.60811 0.12917 0.0
H1463 H 0.22286 0.62699 0.1458 0.0
H1464 H 0.17218 0.56928 0.10762 0.0
H1465 H 0.17223 0.64743 0.08334 0.0
H1466 H 0.18815 0.68383 0.06468 0.0
H1467 H 0.19182 0.64946 0.99286 0.0
H1468 H 0.17622 0.61277 0.01117 0.0
H1469 H 0.05549 0.57376 0.02882 0.0
H1470 H 0.09143 0.59285 0.04783 0.0
H1471 H 0.12432 0.52817 0.04568 0.0
H1472 H 0.08821 0.50885 0.02737 0.0
H1473 H 0.13497 0.6007 0.03371 0.0
H1474 H 0.16257 0.52562 0.09438 0.0
H1475 H 0.14334 0.49264 0.11695 0.0
H1476 H 0.07816 0.52645 0.12251 0.0
H1477 H 0.09715 0.55989 0.10058 0.0
C1478 C 0.23898 0.62289 0.08443 0.0
C1479 C 0.24114 0.62865 0.11002 0.0
C1480 C 0.21783 0.61179 0.07501 0.0
C1481 C 0.19811 0.60664 0.09083 0.0
C1482 C 0.20044 0.6119 0.11651 0.0
C1483 C 0.22176 0.62271 0.12602 0.0
C1484 C 0.17504 0.59603 0.08051 0.0
C1485 C 0.16408 0.57616 0.09144 0.0
C1486 C 0.16396 0.60526 0.0598 0.0
C1487 C 0.17326 0.62731 0.04868 0.0
C1488 C 0.17658 0.64761 0.0636 0.0
C1489 C 0.18553 0.66829 0.05308 0.0
C1490 C 0.19105 0.66894 0.02761 0.0
C1491 C 0.18757 0.64892 0.0126 0.0
C1492 C 0.17865 0.62818 0.02303 0.0
C1493 C 0.07037 0.56358 0.03236 0.0
C1494 C 0.06886 0.53972 0.02665 0.0
C1495 C 0.09097 0.57454 0.04323 0.0
C1496 C 0.11057 0.56195 0.04857 0.0
C1497 C 0.10931 0.53823 0.04231 0.0
C1498 C 0.08863 0.52721 0.03168 0.0
C1499 C 0.13236 0.57368 0.06049 0.0
C1500 C 0.14308 0.59378 0.04986 0.0
C1501 C 0.14273 0.56509 0.082 0.0
C1502 C 0.13124 0.54516 0.09554 0.0
C1503 C 0.14417 0.52608 0.10052 0.0
C1504 C 0.13331 0.5073 0.1132 0.0
C1505 C 0.1095 0.50738 0.121 0.0
C1506 C 0.09656 0.52634 0.11634 0.0
C1507 C 0.10738 0.54523 0.1038 0.0
H1508 H 0.10111 0.49278 0.13073 0.0
H1509 H 0.19797 0.68498 0.0195 0.0
H1510 H 0.25972 0.39409 0.57467 0.0
H1511 H 0.29543 0.41002 0.55283 0.0
H1512 H 0.32555 0.43561 0.62286 0.0
H1513 H 0.29017 0.41924 0.645 0.0
H1514 H 0.33121 0.46786 0.58495 0.0
H1515 H 0.3443 0.38788 0.5972 0.0
H1516 H 0.33385 0.34587 0.59434 0.0
H1517 H 0.33125 0.34862 0.51444 0.0
H1518 H 0.34136 0.39072 0.51686 0.0
H1519 H 0.45295 0.48824 0.54781 0.0
H1520 H 0.41484 0.47631 0.56795 0.0
H1521 H 0.3896 0.44374 0.49876 0.0
H1522 H 0.42787 0.45529 0.47869 0.0
H1523 H 0.38054 0.41555 0.53555 0.0
H1524 H 0.36805 0.49415 0.5217 0.0
H1525 H 0.37663 0.53642 0.52283 0.0
H1526 H 0.3765 0.53705 0.60295 0.0
H1527 H 0.36825 0.49469 0.60232 0.0
C1528 C 0.274 0.4029 0.58551 0.0
C1529 C 0.27206 0.40522 0.61167 0.0
C1530 C 0.29435 0.41213 0.57295 0.0
C1531 C 0.31321 0.42387 0.58624 0.0
C1532 C 0.31116 0.42668 0.61224 0.0
C1533 C 0.29086 0.41736 0.62485 0.0
C1534 C 0.33533 0.43267 0.57308 0.0
C1535 C 0.34219 0.45643 0.57439 0.0
C1536 C 0.34923 0.41782 0.55871 0.0
C1537 C 0.34335 0.39248 0.55723 0.0
C1538 C 0.34132 0.37955 0.57903 0.0
C1539 C 0.33549 0.35572 0.57749 0.0
C1540 C 0.33183 0.34459 0.55423 0.0
C1541 C 0.33406 0.35726 0.53245 0.0
C1542 C 0.33986 0.3811 0.5339 0.0
C1543 C 0.43917 0.47874 0.53685 0.0
C1544 C 0.44336 0.47262 0.51171 0.0
C1545 C 0.41735 0.472 0.54834 0.0
C1546 C 0.39924 0.45923 0.53485 0.0
C1547 C 0.4033 0.45353 0.50958 0.0
C1548 C 0.42513 0.46019 0.49811 0.0
C1549 C 0.37656 0.45083 0.54736 0.0
C1550 C 0.36959 0.42708 0.54601 0.0
C1551 C 0.36244 0.46576 0.56143 0.0
C1552 C 0.36772 0.4912 0.56195 0.0
C1553 C 0.37008 0.50326 0.53956 0.0
C1554 C 0.37484 0.52724 0.54011 0.0
C1555 C 0.3771 0.5394 0.56294 0.0
C1556 C 0.37473 0.52759 0.58528 0.0
C1557 C 0.36999 0.5036 0.58484 0.0
H1558 H 0.38053 0.55797 0.56329 0.0
H1559 H 0.32731 0.32614 0.55307 0.0
H1560 H 0.83508 0.72224 0.91933 0.0
H1561 H 0.85352 0.69317 0.94302 0.0
H1562 H 0.86924 0.6564 0.87446 0.0
H1563 H 0.85011 0.68498 0.85066 0.0
H1564 H 0.85629 0.62682 0.91189 0.0
H1565 H 0.91028 0.69502 0.90005 0.0
H1566 H 0.92235 0.73672 0.90332 0.0
H1567 H 0.91525 0.73506 0.98312 0.0
H1568 H 0.9028 0.69338 0.98028 0.0
H1569 H 0.96269 0.57436 0.92945 0.0
H1570 H 0.93388 0.60114 0.91693 0.0
H1571 H 0.91998 0.61852 0.99425 0.0
H1572 H 0.94856 0.59122 0.007 0.0
H1573 H 0.92786 0.65736 0.95945 0.0
H1574 H 0.87996 0.58728 0.97112 0.0
H1575 H 0.86983 0.54532 0.9671 0.0
H1576 H 0.86635 0.55008 0.88745 0.0
H1577 H 0.87699 0.59205 0.89095 0.0
C1578 C 0.8419 0.70765 0.90933 0.0
C1579 C 0.84137 0.70601 0.88309 0.0
C1580 C 0.85258 0.69115 0.92289 0.0
C1581 C 0.86305 0.67286 0.91045 0.0
C1582 C 0.86133 0.67045 0.88439 0.0
C1583 C 0.85061 0.6869 0.87082 0.0
C1584 C 0.87762 0.6574 0.92418 0.0
C1585 C 0.87194 0.63347 0.92228 0.0
C1586 C 0.89772 0.66617 0.93821 0.0
C1587 C 0.90533 0.69117 0.93994 0.0
C1588 C 0.91111 0.70359 0.91828 0.0
C1589 C 0.91805 0.72721 0.92005 0.0
C1590 C 0.91949 0.73855 0.94341 0.0
C1591 C 0.91407 0.72627 0.96504 0.0
C1592 C 0.90708 0.70265 0.96337 0.0
C1593 C 0.95365 0.58402 0.94378 0.0
C1594 C 0.95776 0.58079 0.96916 0.0
C1595 C 0.93716 0.59919 0.93662 0.0
C1596 C 0.92472 0.61152 0.95471 0.0
C1597 C 0.9294 0.609 0.98009 0.0
C1598 C 0.94568 0.5935 0.98731 0.0
C1599 C 0.90676 0.62687 0.94672 0.0
C1600 C 0.91188 0.65075 0.94958 0.0
C1601 C 0.88621 0.61805 0.93355 0.0
C1602 C 0.87947 0.59283 0.93129 0.0
C1603 C 0.87724 0.57937 0.95272 0.0
C1604 C 0.87137 0.55557 0.95054 0.0
C1605 C 0.86747 0.54502 0.92703 0.0
C1606 C 0.86939 0.55827 0.90565 0.0
C1607 C 0.87533 0.58208 0.90773 0.0
H1608 H 0.86293 0.52659 0.92539 0.0
H1609 H 0.92486 0.75684 0.94474 0.0
H1610 H 0.41788 0.79815 0.15391 0.0
H1611 H 0.43232 0.83417 0.13472 0.0
H1612 H 0.40987 0.80628 0.06257 0.0
H1613 H 0.39639 0.76966 0.08148 0.0
H1614 H 0.45163 0.83015 0.0579 0.0
H1615 H 0.37713 0.84532 0.09574 0.0
H1616 H 0.34681 0.84643 0.12929 0.0
H1617 H 0.3946 0.89184 0.17344 0.0
H1618 H 0.42535 0.89074 0.14028 0.0
H1619 H 0.46765 0.94381 0.00585 0.0
H1620 H 0.44849 0.90651 0.01914 0.0
H1621 H 0.47247 0.92191 0.09441 0.0
H1622 H 0.49145 0.95886 0.08129 0.0
H1623 H 0.42618 0.90412 0.09367 0.0
H1624 H 0.50158 0.8861 0.05597 0.0
H1625 H 0.53085 0.8857 0.02134 0.0
H1626 H 0.47951 0.84611 0.97548 0.0
H1627 H 0.4498 0.8466 0.00974 0.0
C1628 C 0.41628 0.79945 0.1339 0.0
C1629 C 0.40583 0.78084 0.11935 0.0
C1630 C 0.4243 0.82027 0.12295 0.0
C1631 C 0.42183 0.82322 0.09719 0.0
C1632 C 0.41186 0.80457 0.08249 0.0
C1633 C 0.40392 0.78366 0.09342 0.0
C1634 C 0.42959 0.84581 0.08577 0.0
C1635 C 0.44573 0.84627 0.06549 0.0
C1636 C 0.42209 0.867 0.09563 0.0
C1637 C 0.40361 0.86779 0.11559 0.0
C1638 C 0.38124 0.85541 0.11267 0.0
C1639 C 0.36397 0.85606 0.13161 0.0
C1640 C 0.3688 0.86916 0.15351 0.0
C1641 C 0.39089 0.88169 0.15648 0.0
C1642 C 0.40824 0.88108 0.1376 0.0
C1643 C 0.46865 0.93922 0.02523 0.0
C1644 C 0.48105 0.9542 0.04254 0.0
C1645 C 0.4578 0.91789 0.0328 0.0
C1646 C 0.45914 0.9113 0.0578 0.0
C1647 C 0.47112 0.92656 0.07507 0.0
C1648 C 0.48204 0.94768 0.06751 0.0
C1649 C 0.44857 0.88844 0.06625 0.0
C1650 C 0.43187 0.88795 0.08595 0.0
C1651 C 0.45541 0.86728 0.05573 0.0
C1652 C 0.4734 0.8666 0.03532 0.0
C1653 C 0.49649 0.87744 0.03844 0.0
C1654 C 0.51316 0.87719 0.01889 0.0
C1655 C 0.50702 0.86594 0.9962 0.0
C1656 C 0.48423 0.85485 0.99305 0.0
C1657 C 0.46747 0.8551 0.01253 0.0
H1658 H 0.51995 0.86579 0.98107 0.0
H1659 H 0.3554 0.86964 0.16815 0.0
H1660 H 0.0906 0.2447 0.61567 0.0
H1661 H 0.07233 0.20744 0.60032 0.0
H1662 H 0.14221 0.18329 0.58753 0.0
H1663 H 0.1606 0.2204 0.60299 0.0
H1664 H 0.1143 0.1724 0.5485 0.0
H1665 H 0.10799 0.16498 0.63705 0.0
H1666 H 0.09706 0.17637 0.6801 0.0
H1667 H 0.02311 0.17294 0.65985 0.0
H1668 H 0.03365 0.16183 0.61656 0.0
H1669 H 0.04872 0.04964 0.56705 0.0
H1670 H 0.0688 0.0855 0.58405 0.0
H1671 H 0.04987 0.12114 0.5185 0.0
H1672 H 0.03058 0.08527 0.50106 0.0
H1673 H 0.05439 0.12519 0.59778 0.0
H1674 H 0.09117 0.16505 0.50587 0.0
H1675 H 0.10455 0.15236 0.46405 0.0
H1676 H 0.1223 0.08793 0.49325 0.0
H1677 H 0.10951 0.10042 0.53535 0.0
C1678 C 0.10209 0.23137 0.60987 0.0
C1679 C 0.12709 0.23558 0.61056 0.0
C1680 C 0.09161 0.21008 0.60104 0.0
C1681 C 0.10589 0.19248 0.59289 0.0
C1682 C 0.13082 0.19662 0.59359 0.0
C1683 C 0.14131 0.21789 0.60238 0.0
C1684 C 0.09488 0.16987 0.5833 0.0
C1685 C 0.1012 0.16207 0.55927 0.0
C1686 C 0.07805 0.15619 0.59748 0.0
C1687 C 0.07164 0.16278 0.62351 0.0
C1688 C 0.08942 0.16683 0.64173 0.0
C1689 C 0.08329 0.1732 0.66618 0.0
C1690 C 0.05941 0.17543 0.67269 0.0
C1691 C 0.04161 0.17123 0.65477 0.0
C1692 C 0.04765 0.16487 0.63028 0.0
C1693 C 0.04892 0.0651 0.55622 0.0
C1694 C 0.03821 0.06453 0.53261 0.0
C1695 C 0.06036 0.08562 0.56599 0.0
C1696 C 0.06119 0.10602 0.55245 0.0
C1697 C 0.05001 0.10557 0.5291 0.0
C1698 C 0.03888 0.08501 0.51918 0.0
C1699 C 0.07358 0.12778 0.5628 0.0
C1700 C 0.0675 0.13547 0.58697 0.0
C1701 C 0.09095 0.14116 0.54889 0.0
C1702 C 0.09915 0.1336 0.52373 0.0
C1703 C 0.09807 0.14823 0.50341 0.0
C1704 C 0.10557 0.14109 0.47966 0.0
C1705 C 0.11419 0.11933 0.47598 0.0
C1706 C 0.11553 0.10474 0.4961 0.0
C1707 C 0.10817 0.11186 0.51992 0.0
H1708 H 0.11984 0.11377 0.45754 0.0
H1709 H 0.0547 0.18037 0.69163 0.0
H1710 H 0.66074 0.27312 0.45352 0.0
H1711 H 0.64251 0.30915 0.46431 0.0
H1712 H 0.64669 0.3281 0.38707 0.0
H1713 H 0.66529 0.29247 0.3763 0.0
H1714 H 0.65619 0.36565 0.41862 0.0
H1715 H 0.59662 0.30086 0.40916 0.0
H1716 H 0.57812 0.26222 0.41893 0.0
H1717 H 0.56866 0.2841 0.49539 0.0
H1718 H 0.58741 0.32279 0.48612 0.0
H1719 H 0.53086 0.4153 0.43152 0.0
H1720 H 0.55647 0.38378 0.42225 0.0
H1721 H 0.61198 0.41837 0.46786 0.0
H1722 H 0.58684 0.45014 0.47635 0.0
H1723 H 0.57374 0.35454 0.45282 0.0
H1724 H 0.66541 0.40515 0.44804 0.0
H1725 H 0.68219 0.44439 0.4381 0.0
H1726 H 0.6252 0.45103 0.38675 0.0
H1727 H 0.6082 0.41178 0.39624 0.0
C1728 C 0.65825 0.28524 0.43898 0.0
C1729 C 0.66411 0.2799 0.41404 0.0
C1730 C 0.64775 0.30572 0.44513 0.0
C1731 C 0.64298 0.3211 0.42641 0.0
C1732 C 0.65017 0.31644 0.40177 0.0
C1733 C 0.66058 0.296 0.39562 0.0
C1734 C 0.62863 0.34097 0.43187 0.0
C1735 C 0.63821 0.36327 0.42623 0.0
C1736 C 0.60507 0.3378 0.44149 0.0
C1737 C 0.59363 0.31461 0.44701 0.0
C1738 C 0.59074 0.29737 0.42809 0.0
C1739 C 0.58019 0.27548 0.43353 0.0
C1740 C 0.57228 0.27069 0.45778 0.0
C1741 C 0.57483 0.28782 0.47662 0.0
C1742 C 0.58541 0.30973 0.47129 0.0
C1743 C 0.54868 0.41628 0.43917 0.0
C1744 C 0.55702 0.43516 0.45442 0.0
C1745 C 0.56322 0.39825 0.43403 0.0
C1746 C 0.58621 0.39882 0.4442 0.0
C1747 C 0.59452 0.41777 0.45939 0.0
C1748 C 0.58013 0.43589 0.46424 0.0
C1749 C 0.60121 0.37926 0.43949 0.0
C1750 C 0.59176 0.357 0.44535 0.0
C1751 C 0.62476 0.38247 0.42982 0.0
C1752 C 0.6355 0.40558 0.42295 0.0
C1753 C 0.6566 0.41491 0.43445 0.0
C1754 C 0.66611 0.43717 0.42895 0.0
C1755 C 0.65475 0.4502 0.41183 0.0
C1756 C 0.63395 0.44094 0.40005 0.0
C1757 C 0.62437 0.41869 0.40548 0.0
H1758 H 0.66206 0.46748 0.40771 0.0
H1759 H 0.56411 0.25373 0.46195 0.0
loop_
_geom_bond_atom_site_label_1
_geom_bond_atom_site_label_2
_geom_bond_distance
_geom_bond_site_symmetry_2
_ccdc_geom_bond_type
C0 C1 1.391 . S
C0 C4 1.391 . S
C0 H42 0.948 . S
C1 C0 1.391 . S
C1 C2 1.391 . S
C2 C1 1.391 . S
C2 H58 0.947 . S
C2 C59 1.392 . S
C3 C4 1.391 . S
C3 C7 1.397 . S
C3 C59 1.419 . S
C4 C0 1.391 . S
C4 C3 1.391 . S
C4 C5 1.399 . S
C5 C4 1.399 . S
C5 C8 1.396 . S
C5 C17 1.453 . S
C5 C18 1.684 . S
H6 C30 0.948 . S
C7 C3 1.397 . S
C7 C8 1.394 . S
C7 C26 1.723 . S
C8 C5 1.396 . S
C8 C7 1.394 . S
C8 C38 1.723 . S
H9 C32 0.947 . S
H10 C33 0.948 . S
H11 C39 0.982 . S
H12 C40 0.979 . S
H13 C40 0.980 . S
H14 C40 0.983 . S
H15 C39 0.979 . S
H16 C39 0.977 . S
C17 C5 1.453 . S
C17 H46 0.982 . S
C17 H47 0.979 . S
C17 H48 0.977 . S
C18 C5 1.684 . S
C18 H43 0.979 . S
C18 H44 0.980 . S
C18 H45 0.983 . S
C19 C20 1.391 . S
C19 C24 1.391 . S
C19 H49 0.948 . S
C20 C19 1.391 . S
C20 C21 1.391 . S
C21 C20 1.391 . S
C21 C22 1.392 . S
C21 H50 0.947 . S
C22 C21 1.392 . S
C22 C23 1.419 . S
C22 H51 0.948 . S
C23 C22 1.419 . S
C23 C24 1.391 . S
C23 C27 1.397 . S
C24 C19 1.391 . S
C24 C23 1.391 . S
C24 C25 1.399 . S
C25 C24 1.399 . S
C25 C26 1.396 . S
C25 C28 1.453 . S
C25 C29 1.684 . S
C26 C7 1.723 . S
C26 C25 1.396 . S
C26 C27 1.394 . S
C27 C23 1.397 . S
C27 C26 1.394 . S
C27 C37 1.723 . S
C28 C25 1.453 . S
C28 H52 0.982 . S
C28 H53 0.979 . S
C28 H54 0.977 . S
C29 C25 1.684 . S
C29 H55 0.979 . S
C29 H56 0.980 . S
C29 H57 0.983 . S
C30 H6 0.948 . S
C30 C31 1.391 . S
C30 C35 1.391 . S
C31 C30 1.391 . S
C31 C32 1.391 . S
C32 H9 0.947 . S
C32 C31 1.391 . S
C32 C33 1.392 . S
C33 H10 0.948 . S
C33 C32 1.392 . S
C33 C34 1.419 . S
C34 C33 1.419 . S
C34 C35 1.391 . S
C34 C38 1.397 . S
C35 C30 1.391 . S
C35 C34 1.391 . S
C35 C36 1.399 . S
C36 C35 1.399 . S
C36 C37 1.396 . S
C36 C39 1.453 . S
C36 C40 1.684 . S
C37 C27 1.723 . S
C37 C36 1.396 . S
C37 C38 1.394 . S
C38 C8 1.723 . S
C38 C34 1.397 . S
C38 C37 1.394 . S
C39 H11 0.982 . S
C39 H15 0.979 . S
C39 H16 0.977 . S
C39 C36 1.453 . S
C40 H12 0.979 . S
C40 H13 0.980 . S
C40 H14 0.983 . S
C40 C36 1.684 . S
H41 C59 0.948 . S
H42 C0 0.948 . S
H43 C18 0.979 . S
H44 C18 0.980 . S
H45 C18 0.983 . S
H46 C17 0.982 . S
H47 C17 0.979 . S
H48 C17 0.977 . S
H49 C19 0.948 . S
H50 C21 0.947 . S
H51 C22 0.948 . S
H52 C28 0.982 . S
H53 C28 0.979 . S
H54 C28 0.977 . S
H55 C29 0.979 . S
H56 C29 0.980 . S
H57 C29 0.983 . S
H58 C2 0.947 . S
C59 C2 1.392 . S
C59 C3 1.419 . S
C59 H41 0.948 . S
C60 C61 1.391 . S
C60 C64 1.391 . S
C60 H102 0.948 . S
C61 C60 1.391 . S
C61 C62 1.391 . S
C62 C61 1.391 . S
C62 H118 0.947 . S
C62 C119 1.392 . S
C63 C64 1.391 . S
C63 C67 1.397 . S
C63 C119 1.419 . S
C64 C60 1.391 . S
C64 C63 1.391 . S
C64 C65 1.399 . S
C65 C64 1.399 . S
C65 C68 1.396 . S
C65 C77 1.453 . S
C65 C78 1.684 . S
H66 C90 0.948 . S
C67 C63 1.397 . S
C67 C68 1.394 . S
C67 C86 1.723 . S
C68 C65 1.396 . S
C68 C67 1.394 . S
C68 C98 1.723 . S
H69 C92 0.947 . S
H70 C93 0.948 . S
H71 C99 0.982 . S
H72 C100 0.979 . S
H73 C100 0.980 . S
H74 C100 0.983 . S
H75 C99 0.979 . S
H76 C99 0.977 . S
C77 C65 1.453 . S
C77 H106 0.982 . S
C77 H107 0.979 . S
C77 H108 0.977 . S
C78 C65 1.684 . S
C78 H103 0.979 . S
C78 H104 0.980 . S
C78 H105 0.983 . S
C79 C80 1.391 . S
C79 C84 1.391 . S
C79 H109 0.948 . S
C80 C79 1.391 . S
C80 C81 1.391 . S
C81 C80 1.391 . S
C81 C82 1.392 . S
C81 H110 0.947 . S
C82 C81 1.392 . S
C82 C83 1.419 . S
C82 H111 0.948 . S
C83 C82 1.419 . S
C83 C84 1.391 . S
C83 C87 1.397 . S
C84 C79 1.391 . S
C84 C83 1.391 . S
C84 C85 1.399 . S
C85 C84 1.399 . S
C85 C86 1.396 . S
C85 C88 1.453 . S
C85 C89 1.684 . S
C86 C67 1.723 . S
C86 C85 1.396 . S
C86 C87 1.394 . S
C87 C83 1.397 . S
C87 C86 1.394 . S
C87 C97 1.723 . S
C88 C85 1.453 . S
C88 H112 0.982 . S
C88 H113 0.979 . S
C88 H114 0.977 . S
C89 C85 1.684 . S
C89 H115 0.979 . S
C89 H116 0.980 . S
C89 H117 0.983 . S
C90 H66 0.948 . S
C90 C91 1.391 . S
C90 C95 1.391 . S
C91 C90 1.391 . S
C91 C92 1.391 . S
C92 H69 0.947 . S
C92 C91 1.391 . S
C92 C93 1.392 . S
C93 H70 0.948 . S
C93 C92 1.392 . S
C93 C94 1.419 . S
C94 C93 1.419 . S
C94 C95 1.391 . S
C94 C98 1.397 . S
C95 C90 1.391 . S
C95 C94 1.391 . S
C95 C96 1.399 . S
C96 C95 1.399 . S
C96 C97 1.396 . S
C96 C99 1.453 . S
C96 C100 1.684 . S
C97 C87 1.723 . S
C97 C96 1.396 . S
C97 C98 1.394 . S
C98 C68 1.723 . S
C98 C94 1.397 . S
C98 C97 1.394 . S
C99 H71 0.982 . S
C99 H75 0.979 . S
C99 H76 0.977 . S
C99 C96 1.453 . S
C100 H72 0.979 . S
C100 H73 0.980 . S
C100 H74 0.983 . S
C100 C96 1.684 . S
H101 C119 0.948 . S
H102 C60 0.948 . S
H103 C78 0.979 . S
H104 C78 0.980 . S
H105 C78 0.983 . S
H106 C77 0.982 . S
H107 C77 0.979 . S
H108 C77 0.977 . S
H109 C79 0.948 . S
H110 C81 0.947 . S
H111 C82 0.948 . S
H112 C88 0.982 . S
H113 C88 0.979 . S
H114 C88 0.977 . S
H115 C89 0.979 . S
H116 C89 0.980 . S
H117 C89 0.983 . S
H118 C62 0.947 . S
C119 C62 1.392 . S
C119 C63 1.419 . S
C119 H101 0.948 . S
C120 C121 1.391 . S
C120 C124 1.391 . S
C120 H162 0.948 . S
C121 C120 1.391 . S
C121 C122 1.391 . S
C122 C121 1.391 . S
C122 H178 0.947 . S
C122 C179 1.392 . S
C123 C124 1.391 . S
C123 C127 1.397 . S
C123 C179 1.419 . S
C124 C120 1.391 . S
C124 C123 1.391 . S
C124 C125 1.399 . S
C125 C124 1.399 . S
C125 C128 1.396 . S
C125 C137 1.453 . S
C125 C138 1.684 . S
H126 C150 0.948 . S
C127 C123 1.397 . S
C127 C128 1.394 . S
C127 C146 1.723 . S
C128 C125 1.396 . S
C128 C127 1.394 . S
C128 C158 1.723 . S
H129 C152 0.947 . S
H130 C153 0.948 . S
H131 C159 0.982 . S
H132 C160 0.979 . S
H133 C160 0.980 . S
H134 C160 0.983 . S
H135 C159 0.979 . S
H136 C159 0.977 . S
C137 C125 1.453 . S
C137 H166 0.982 . S
C137 H167 0.979 . S
C137 H168 0.977 . S
C138 C125 1.684 . S
C138 H163 0.979 . S
C138 H164 0.980 . S
C138 H165 0.983 . S
C139 C140 1.391 . S
C139 C144 1.391 . S
C139 H169 0.948 . S
C140 C139 1.391 . S
C140 C141 1.391 . S
C141 C140 1.391 . S
C141 C142 1.392 . S
C141 H170 0.947 . S
C142 C141 1.392 . S
C142 C143 1.419 . S
C142 H171 0.948 . S
C143 C142 1.419 . S
C143 C144 1.391 . S
C143 C147 1.397 . S
C144 C139 1.391 . S
C144 C143 1.391 . S
C144 C145 1.399 . S
C145 C144 1.399 . S
C145 C146 1.396 . S
C145 C148 1.453 . S
C145 C149 1.684 . S
C146 C127 1.723 . S
C146 C145 1.396 . S
C146 C147 1.394 . S
C147 C143 1.397 . S
C147 C146 1.394 . S
C147 C157 1.723 . S
C148 C145 1.453 . S
C148 H172 0.982 . S
C148 H173 0.979 . S
C148 H174 0.977 . S
C149 C145 1.684 . S
C149 H175 0.979 . S
C149 H176 0.980 . S
C149 H177 0.983 . S
C150 H126 0.948 . S
C150 C151 1.391 . S
C150 C155 1.391 . S
C151 C150 1.391 . S
C151 C152 1.391 . S
C152 H129 0.947 . S
C152 C151 1.391 . S
C152 C153 1.392 . S
C153 H130 0.948 . S
C153 C152 1.392 . S
C153 C154 1.419 . S
C154 C153 1.419 . S
C154 C155 1.391 . S
C154 C158 1.397 . S
C155 C150 1.391 . S
C155 C154 1.391 . S
C155 C156 1.399 . S
C156 C155 1.399 . S
C156 C157 1.396 . S
C156 C159 1.453 . S
C156 C160 1.684 . S
C157 C147 1.723 . S
C157 C156 1.396 . S
C157 C158 1.394 . S
C158 C128 1.723 . S
C158 C154 1.397 . S
C158 C157 1.394 . S
C159 H131 0.982 . S
C159 H135 0.979 . S
C159 H136 0.977 . S
C159 C156 1.453 . S
C160 H132 0.979 . S
C160 H133 0.980 . S
C160 H134 0.983 . S
C160 C156 1.684 . S
H161 C179 0.948 . S
H162 C120 0.948 . S
H163 C138 0.979 . S
H164 C138 0.980 . S
H165 C138 0.983 . S
H166 C137 0.982 . S
H167 C137 0.979 . S
H168 C137 0.977 . S
H169 C139 0.948 . S
H170 C141 0.947 . S
H171 C142 0.948 . S
H172 C148 0.982 . S
H173 C148 0.979 . S
H174 C148 0.977 . S
H175 C149 0.979 . S
H176 C149 0.980 . S
H177 C149 0.983 . S
H178 C122 0.947 . S
C179 C122 1.392 . S
C179 C123 1.419 . S
C179 H161 0.948 . S
C180 C181 1.391 . S
C180 C184 1.391 . S
C180 H222 0.948 . S
C181 C180 1.391 . S
C181 C182 1.391 . S
C182 C181 1.391 . S
C182 H238 0.947 . S
C182 C239 1.392 . S
C183 C184 1.391 . S
C183 C187 1.397 . S
C183 C239 1.419 . S
C184 C180 1.391 . S
C184 C183 1.391 . S
C184 C185 1.399 . S
C185 C184 1.399 . S
C185 C188 1.396 . S
C185 C197 1.453 . S
C185 C198 1.684 . S
H186 C210 0.948 . S
C187 C183 1.397 . S
C187 C188 1.394 . S
C187 C206 1.723 . S
C188 C185 1.396 . S
C188 C187 1.394 . S
C188 C218 1.723 . S
H189 C212 0.947 . S
H190 C213 0.948 . S
H191 C219 0.982 . S
H192 C220 0.979 . S
H193 C220 0.980 . S
H194 C220 0.983 . S
H195 C219 0.979 . S
H196 C219 0.977 . S
C197 C185 1.453 . S
C197 H226 0.982 . S
C197 H227 0.979 . S
C197 H228 0.977 . S
C198 C185 1.684 . S
C198 H223 0.979 . S
C198 H224 0.980 . S
C198 H225 0.983 . S
C199 C200 1.391 . S
C199 C204 1.391 . S
C199 H229 0.948 . S
C200 C199 1.391 . S
C200 C201 1.391 . S
C201 C200 1.391 . S
C201 C202 1.392 . S
C201 H230 0.947 . S
C202 C201 1.392 . S
C202 C203 1.419 . S
C202 H231 0.948 . S
C203 C202 1.419 . S
C203 C204 1.391 . S
C203 C207 1.397 . S
C204 C199 1.391 . S
C204 C203 1.391 . S
C204 C205 1.399 . S
C205 C204 1.399 . S
C205 C206 1.396 . S
C205 C208 1.453 . S
C205 C209 1.684 . S
C206 C187 1.723 . S
C206 C205 1.396 . S
C206 C207 1.394 . S
C207 C203 1.397 . S
C207 C206 1.394 . S
C207 C217 1.723 . S
C208 C205 1.453 . S
C208 H232 0.982 . S
C208 H233 0.979 . S
C208 H234 0.977 . S
C209 C205 1.684 . S
C209 H235 0.979 . S
C209 H236 0.980 . S
C209 H237 0.983 . S
C210 H186 0.948 . S
C210 C211 1.391 . S
C210 C215 1.391 . S
C211 C210 1.391 . S
C211 C212 1.391 . S
C212 H189 0.947 . S
C212 C211 1.391 . S
C212 C213 1.392 . S
C213 H190 0.948 . S
C213 C212 1.392 . S
C213 C214 1.419 . S
C214 C213 1.419 . S
C214 C215 1.391 . S
C214 C218 1.397 . S
C215 C210 1.391 . S
C215 C214 1.391 . S
C215 C216 1.399 . S
C216 C215 1.399 . S
C216 C217 1.396 . S
C216 C219 1.453 . S
C216 C220 1.684 . S
C217 C207 1.723 . S
C217 C216 1.396 . S
C217 C218 1.394 . S
C218 C188 1.723 . S
C218 C214 1.397 . S
C218 C217 1.394 . S
C219 H191 0.982 . S
C219 H195 0.979 . S
C219 H196 0.977 . S
C219 C216 1.453 . S
C220 H192 0.979 . S
C220 H193 0.980 . S
C220 H194 0.983 . S
C220 C216 1.684 . S
H221 C239 0.948 . S
H222 C180 0.948 . S
H223 C198 0.979 . S
H224 C198 0.980 . S
H225 C198 0.983 . S
H226 C197 0.982 . S
H227 C197 0.979 . S
H228 C197 0.977 . S
H229 C199 0.948 . S
H230 C201 0.947 . S
H231 C202 0.948 . S
H232 C208 0.982 . S
H233 C208 0.979 . S
H234 C208 0.977 . S
H235 C209 0.979 . S
H236 C209 0.980 . S
H237 C209 0.983 . S
H238 C182 0.947 . S
C239 C182 1.392 . S
C239 C183 1.419 . S
C239 H221 0.948 . S
C240 C241 1.391 . S
C240 C244 1.391 . S
C240 H282 0.948 . S
C241 C240 1.391 . S
C241 C242 1.391 . S
C242 C241 1.391 . S
C242 H298 0.947 . S
C242 C299 1.392 . S
C243 C244 1.391 . S
C243 C247 1.397 . S
C243 C299 1.419 . S
C244 C240 1.391 . S
C244 C243 1.391 . S
C244 C245 1.399 . S
C245 C244 1.399 . S
C245 C248 1.396 . S
C245 C257 1.453 . S
C245 C258 1.684 . S
H246 C270 0.948 . S
C247 C243 1.397 . S
C247 C248 1.394 . S
C247 C266 1.723 . S
C248 C245 1.396 . S
C248 C247 1.394 . S
C248 C278 1.723 . S
H249 C272 0.947 . S
H250 C273 0.948 . S
H251 C279 0.982 . S
H252 C280 0.979 . S
H253 C280 0.980 . S
H254 C280 0.983 . S
H255 C279 0.979 . S
H256 C279 0.977 . S
C257 C245 1.453 . S
C257 H286 0.982 . S
C257 H287 0.979 . S
C257 H288 0.977 . S
C258 C245 1.684 . S
C258 H283 0.979 . S
C258 H284 0.980 . S
C258 H285 0.983 . S
C259 C260 1.391 . S
C259 C264 1.391 . S
C259 H289 0.948 . S
C260 C259 1.391 . S
C260 C261 1.391 . S
C261 C260 1.391 . S
C261 C262 1.392 . S
C261 H290 0.947 . S
C262 C261 1.392 . S
C262 C263 1.419 . S
C262 H291 0.948 . S
C263 C262 1.419 . S
C263 C264 1.391 . S
C263 C267 1.397 . S
C264 C259 1.391 . S
C264 C263 1.391 . S
C264 C265 1.399 . S
C265 C264 1.399 . S
C265 C266 1.396 . S
C265 C268 1.453 . S
C265 C269 1.684 . S
C266 C247 1.723 . S
C266 C265 1.396 . S
C266 C267 1.394 . S
C267 C263 1.397 . S
C267 C266 1.394 . S
C267 C277 1.723 . S
C268 C265 1.453 . S
C268 H292 0.982 . S
C268 H293 0.979 . S
C268 H294 0.977 . S
C269 C265 1.684 . S
C269 H295 0.979 . S
C269 H296 0.980 . S
C269 H297 0.983 . S
C270 H246 0.948 . S
C270 C271 1.391 . S
C270 C275 1.391 . S
C271 C270 1.391 . S
C271 C272 1.391 . S
C272 H249 0.947 . S
C272 C271 1.391 . S
C272 C273 1.392 . S
C273 H250 0.948 . S
C273 C272 1.392 . S
C273 C274 1.419 . S
C274 C273 1.419 . S
C274 C275 1.391 . S
C274 C278 1.397 . S
C275 C270 1.391 . S
C275 C274 1.391 . S
C275 C276 1.399 . S
C276 C275 1.399 . S
C276 C277 1.396 . S
C276 C279 1.453 . S
C276 C280 1.684 . S
C277 C267 1.723 . S
C277 C276 1.396 . S
C277 C278 1.394 . S
C278 C248 1.723 . S
C278 C274 1.397 . S
C278 C277 1.394 . S
C279 H251 0.982 . S
C279 H255 0.979 . S
C279 H256 0.977 . S
C279 C276 1.453 . S
C280 H252 0.979 . S
C280 H253 0.980 . S
C280 H254 0.983 . S
C280 C276 1.684 . S
H281 C299 0.948 . S
H282 C240 0.948 . S
H283 C258 0.979 . S
H284 C258 0.980 . S
H285 C258 0.983 . S
H286 C257 0.982 . S
H287 C257 0.979 . S
H288 C257 0.977 . S
H289 C259 0.948 . S
H290 C261 0.947 . S
H291 C262 0.948 . S
H292 C268 0.982 . S
H293 C268 0.979 . S
H294 C268 0.977 . S
H295 C269 0.979 . S
H296 C269 0.980 . S
H297 C269 0.983 . S
H298 C242 0.947 . S
C299 C242 1.392 . S
C299 C243 1.419 . S
C299 H281 0.948 . S
C300 C301 1.391 . S
C300 C304 1.391 . S
C300 H342 0.948 . S
C301 C300 1.391 . S
C301 C302 1.391 . S
C302 C301 1.391 . S
C302 H358 0.947 . S
C302 C359 1.392 . S
C303 C304 1.391 . S
C303 C307 1.397 . S
C303 C359 1.419 . S
C304 C300 1.391 . S
C304 C303 1.391 . S
C304 C305 1.399 . S
C305 C304 1.399 . S
C305 C308 1.396 . S
C305 C317 1.453 . S
C305 C318 1.684 . S
H306 C330 0.948 . S
C307 C303 1.397 . S
C307 C308 1.394 . S
C307 C326 1.723 . S
C308 C305 1.396 . S
C308 C307 1.394 . S
C308 C338 1.723 . S
H309 C332 0.947 . S
H310 C333 0.948 . S
H311 C339 0.982 . S
H312 C340 0.979 . S
H313 C340 0.980 . S
H314 C340 0.983 . S
H315 C339 0.979 . S
H316 C339 0.977 . S
C317 C305 1.453 . S
C317 H346 0.982 . S
C317 H347 0.979 . S
C317 H348 0.977 . S
C318 C305 1.684 . S
C318 H343 0.979 . S
C318 H344 0.980 . S
C318 H345 0.983 . S
C319 C320 1.391 . S
C319 C324 1.391 . S
C319 H349 0.948 . S
C320 C319 1.391 . S
C320 C321 1.391 . S
C321 C320 1.391 . S
C321 C322 1.392 . S
C321 H350 0.947 . S
C322 C321 1.392 . S
C322 C323 1.419 . S
C322 H351 0.948 . S
C323 C322 1.419 . S
C323 C324 1.391 . S
C323 C327 1.397 . S
C324 C319 1.391 . S
C324 C323 1.391 . S
C324 C325 1.399 . S
C325 C324 1.399 . S
C325 C326 1.396 . S
C325 C328 1.453 . S
C325 C329 1.684 . S
C326 C307 1.723 . S
C326 C325 1.396 . S
C326 C327 1.394 . S
C327 C323 1.397 . S
C327 C326 1.394 . S
C327 C337 1.723 . S
C328 C325 1.453 . S
C328 H352 0.982 . S
C328 H353 0.979 . S
C328 H354 0.977 . S
C329 C325 1.684 . S
C329 H355 0.979 . S
C329 H356 0.980 . S
C329 H357 0.983 . S
C330 H306 0.948 . S
C330 C331 1.391 . S
C330 C335 1.391 . S
C331 C330 1.391 . S
C331 C332 1.391 . S
C332 H309 0.947 . S
C332 C331 1.391 . S
C332 C333 1.392 . S
C333 H310 0.948 . S
C333 C332 1.392 . S
C333 C334 1.419 . S
C334 C333 1.419 . S
C334 C335 1.391 . S
C334 C338 1.397 . S
C335 C330 1.391 . S
C335 C334 1.391 . S
C335 C336 1.399 . S
C336 C335 1.399 . S
C336 C337 1.396 . S
C336 C339 1.453 . S
C336 C340 1.684 . S
C337 C327 1.723 . S
C337 C336 1.396 . S
C337 C338 1.394 . S
C338 C308 1.723 . S
C338 C334 1.397 . S
C338 C337 1.394 . S
C339 H311 0.982 . S
C339 H315 0.979 . S
C339 H316 0.977 . S
C339 C336 1.453 . S
C340 H312 0.979 . S
C340 H313 0.980 . S
C340 H314 0.983 . S
C340 C336 1.684 . S
H341 C359 0.948 . S
H342 C300 0.948 . S
H343 C318 0.979 . S
H344 C318 0.980 . S
H345 C318 0.983 . S
H346 C317 0.982 . S
H347 C317 0.979 . S
H348 C317 0.977 . S
H349 C319 0.948 . S
H350 C321 0.947 . S
H351 C322 0.948 . S
H352 C328 0.982 . S
H353 C328 0.979 . S
H354 C328 0.977 . S
H355 C329 0.979 . S
H356 C329 0.980 . S
H357 C329 0.983 . S
H358 C302 0.947 . S
C359 C302 1.392 . S
C359 C303 1.419 . S
C359 H341 0.948 . S
C360 C361 1.391 . S
C360 C364 1.391 . S
C360 H402 0.948 . S
C361 C360 1.391 . S
C361 C362 1.391 . S
C362 C361 1.391 . S
C362 H418 0.947 . S
C362 C419 1.392 . S
C363 C364 1.391 . S
C363 C367 1.397 . S
C363 C419 1.419 . S
C364 C360 1.391 . S
C364 C363 1.391 . S
C364 C365 1.399 . S
C365 C364 1.399 . S
C365 C368 1.396 . S
C365 C377 1.453 . S
C365 C378 1.684 . S
H366 C390 0.948 . S
C367 C363 1.397 . S
C367 C368 1.394 . S
C367 C386 1.723 . S
C368 C365 1.396 . S
C368 C367 1.394 . S
C368 C398 1.723 . S
H369 C392 0.947 . S
H370 C393 0.948 . S
H371 C399 0.982 . S
H372 C400 0.979 . S
H373 C400 0.980 . S
H374 C400 0.983 . S
H375 C399 0.979 . S
H376 C399 0.977 . S
C377 C365 1.453 . S
C377 H406 0.982 . S
C377 H407 0.979 . S
C377 H408 0.977 . S
C378 C365 1.684 . S
C378 H403 0.979 . S
C378 H404 0.980 . S
C378 H405 0.983 . S
C379 C380 1.391 . S
C379 C384 1.391 . S
C379 H409 0.948 . S
C380 C379 1.391 . S
C380 C381 1.391 . S
C381 C380 1.391 . S
C381 C382 1.392 . S
C381 H410 0.947 . S
C382 C381 1.392 . S
C382 C383 1.419 . S
C382 H411 0.948 . S
C383 C382 1.419 . S
C383 C384 1.391 . S
C383 C387 1.397 . S
C384 C379 1.391 . S
C384 C383 1.391 . S
C384 C385 1.399 . S
C385 C384 1.399 . S
C385 C386 1.396 . S
C385 C388 1.453 . S
C385 C389 1.684 . S
C386 C367 1.723 . S
C386 C385 1.396 . S
C386 C387 1.394 . S
C387 C383 1.397 . S
C387 C386 1.394 . S
C387 C397 1.723 . S
C388 C385 1.453 . S
C388 H412 0.982 . S
C388 H413 0.979 . S
C388 H414 0.977 . S
C389 C385 1.684 . S
C389 H415 0.979 . S
C389 H416 0.980 . S
C389 H417 0.983 . S
C390 H366 0.948 . S
C390 C391 1.391 . S
C390 C395 1.391 . S
C391 C390 1.391 . S
C391 C392 1.391 . S
C392 H369 0.947 . S
C392 C391 1.391 . S
C392 C393 1.392 . S
C393 H370 0.948 . S
C393 C392 1.392 . S
C393 C394 1.419 . S
C394 C393 1.419 . S
C394 C395 1.391 . S
C394 C398 1.397 . S
C395 C390 1.391 . S
C395 C394 1.391 . S
C395 C396 1.399 . S
C396 C395 1.399 . S
C396 C397 1.396 . S
C396 C399 1.453 . S
C396 C400 1.684 . S
C397 C387 1.723 . S
C397 C396 1.396 . S
C397 C398 1.394 . S
C398 C368 1.723 . S
C398 C394 1.397 . S
C398 C397 1.394 . S
C399 H371 0.982 . S
C399 H375 0.979 . S
C399 H376 0.977 . S
C399 C396 1.453 . S
C400 H372 0.979 . S
C400 H373 0.980 . S
C400 H374 0.983 . S
C400 C396 1.684 . S
H401 C419 0.948 . S
H402 C360 0.948 . S
H403 C378 0.979 . S
H404 C378 0.980 . S
H405 C378 0.983 . S
H406 C377 0.982 . S
H407 C377 0.979 . S
H408 C377 0.977 . S
H409 C379 0.948 . S
H410 C381 0.947 . S
H411 C382 0.948 . S
H412 C388 0.982 . S
H413 C388 0.979 . S
H414 C388 0.977 . S
H415 C389 0.979 . S
H416 C389 0.980 . S
H417 C389 0.983 . S
H418 C362 0.947 . S
C419 C362 1.392 . S
C419 C363 1.419 . S
C419 H401 0.948 . S
C420 C421 1.391 . S
C420 C424 1.391 . S
C420 H462 0.948 . S
C421 C420 1.391 . S
C421 C422 1.391 . S
C422 C421 1.391 . S
C422 H478 0.947 . S
C422 C479 1.392 . S
C423 C424 1.391 . S
C423 C427 1.397 . S
C423 C479 1.419 . S
C424 C420 1.391 . S
C424 C423 1.391 . S
C424 C425 1.399 . S
C425 C424 1.399 . S
C425 C428 1.396 . S
C425 C437 1.453 . S
C425 C438 1.684 . S
H426 C450 0.948 . S
C427 C423 1.397 . S
C427 C428 1.394 . S
C427 C446 1.723 . S
C428 C425 1.396 . S
C428 C427 1.394 . S
C428 C458 1.723 . S
H429 C452 0.947 . S
H430 C453 0.948 . S
H431 C459 0.982 . S
H432 C460 0.979 . S
H433 C460 0.980 . S
H434 C460 0.983 . S
H435 C459 0.979 . S
H436 C459 0.977 . S
C437 C425 1.453 . S
C437 H466 0.982 . S
C437 H467 0.979 . S
C437 H468 0.977 . S
C438 C425 1.684 . S
C438 H463 0.979 . S
C438 H464 0.980 . S
C438 H465 0.983 . S
C439 C440 1.391 . S
C439 C444 1.391 . S
C439 H469 0.948 . S
C440 C439 1.391 . S
C440 C441 1.391 . S
C441 C440 1.391 . S
C441 C442 1.392 . S
C441 H470 0.947 . S
C442 C441 1.392 . S
C442 C443 1.419 . S
C442 H471 0.948 . S
C443 C442 1.419 . S
C443 C444 1.391 . S
C443 C447 1.397 . S
C444 C439 1.391 . S
C444 C443 1.391 . S
C444 C445 1.399 . S
C445 C444 1.399 . S
C445 C446 1.396 . S
C445 C448 1.453 . S
C445 C449 1.684 . S
C446 C427 1.723 . S
C446 C445 1.396 . S
C446 C447 1.394 . S
C447 C443 1.397 . S
C447 C446 1.394 . S
C447 C457 1.723 . S
C448 C445 1.453 . S
C448 H472 0.982 . S
C448 H473 0.979 . S
C448 H474 0.977 . S
C449 C445 1.684 . S
C449 H475 0.979 . S
C449 H476 0.980 . S
C449 H477 0.983 . S
C450 H426 0.948 . S
C450 C451 1.391 . S
C450 C455 1.391 . S
C451 C450 1.391 . S
C451 C452 1.391 . S
C452 H429 0.947 . S
C452 C451 1.391 . S
C452 C453 1.392 . S
C453 H430 0.948 . S
C453 C452 1.392 . S
C453 C454 1.419 . S
C454 C453 1.419 . S
C454 C455 1.391 . S
C454 C458 1.397 . S
C455 C450 1.391 . S
C455 C454 1.391 . S
C455 C456 1.399 . S
C456 C455 1.399 . S
C456 C457 1.396 . S
C456 C459 1.453 . S
C456 C460 1.684 . S
C457 C447 1.723 . S
C457 C456 1.396 . S
C457 C458 1.394 . S
C458 C428 1.723 . S
C458 C454 1.397 . S
C458 C457 1.394 . S
C459 H431 0.982 . S
C459 H435 0.979 . S
C459 H436 0.977 . S
C459 C456 1.453 . S
C460 H432 0.979 . S
C460 H433 0.980 . S
C460 H434 0.983 . S
C460 C456 1.684 . S
H461 C479 0.948 . S
H462 C420 0.948 . S
H463 C438 0.979 . S
H464 C438 0.980 . S
H465 C438 0.983 . S
H466 C437 0.982 . S
H467 C437 0.979 . S
H468 C437 0.977 . S
H469 C439 0.948 . S
H470 C441 0.947 . S
H471 C442 0.948 . S
H472 C448 0.982 . S
H473 C448 0.979 . S
H474 C448 0.977 . S
H475 C449 0.979 . S
H476 C449 0.980 . S
H477 C449 0.983 . S
H478 C422 0.947 . S
C479 C422 1.392 . S
C479 C423 1.419 . S
C479 H461 0.948 . S
Dy480 O484 2.398 . S
Dy480 O485 2.491 . S
Dy480 O486 2.403 1_545 S
Dy480 O487 2.664 1_545 S
Dy480 O491 2.326 . S
Dy480 O495 2.310 1_455 S
Dy480 O496 2.351 1_445 S
C481 O492 1.185 . S
C481 O493 1.355 . S
C482 O484 1.185 . S
C482 O485 1.355 . S
Dy483 O487 2.310 1_655 S
Dy483 O490 2.351 1_665 S
Dy483 O492 2.398 . S
Dy483 O493 2.491 . S
Dy483 O494 2.403 1_565 S
Dy483 O495 2.664 1_565 S
Dy483 O497 2.326 . S
O484 Dy480 2.398 . S
O484 C482 1.185 . S
O485 Dy480 2.491 . S
O485 C482 1.355 . S
O486 Dy480 2.403 1_565 S
O486 C488 1.254 . S
O487 Dy480 2.664 1_565 S
O487 Dy483 2.310 1_455 S
O487 C488 1.268 . S
C488 O486 1.254 . S
C488 O487 1.268 . S
C489 O494 1.254 . S
C489 O495 1.268 . S
O490 Dy483 2.351 1_445 S
O490 C498 1.249 . S
O491 Dy480 2.326 . S
O491 C498 1.267 . S
O492 C481 1.185 . S
O492 Dy483 2.398 . S
O493 C481 1.355 . S
O493 Dy483 2.491 . S
O494 Dy483 2.403 1_545 S
O494 C489 1.254 . S
O495 Dy480 2.310 1_655 S
O495 Dy483 2.664 1_545 S
O495 C489 1.268 . S
O496 Dy480 2.351 1_665 S
O496 C499 1.249 . S
O497 Dy483 2.326 . S
O497 C499 1.267 . S
C498 O490 1.249 . S
C498 O491 1.267 . S
C499 O496 1.249 . S
C499 O497 1.267 . S
Dy500 O504 2.398 . S
Dy500 O505 2.491 . S
Dy500 O506 2.403 1_545 S
Dy500 O507 2.664 1_545 S
Dy500 O511 2.326 . S
Dy500 O515 2.310 1_554 S
Dy500 O516 2.351 1_544 S
C501 O512 1.185 . S
C501 O513 1.355 . S
C502 O504 1.185 . S
C502 O505 1.355 . S
Dy503 O507 2.336 1_556 S
Dy503 O510 2.329 1_566 S
Dy503 O512 2.403 . S
Dy503 O513 2.528 . S
Dy503 O514 2.370 1_565 S
Dy503 O515 2.645 1_565 S
Dy503 O517 2.343 . S
O504 Dy500 2.398 . S
O504 C502 1.185 . S
O505 Dy500 2.491 . S
O505 C502 1.355 . S
O506 Dy500 2.403 1_565 S
O506 C508 1.254 . S
O507 Dy500 2.664 1_565 S
O507 Dy503 2.336 1_554 S
O507 C508 1.268 . S
C508 O506 1.254 . S
C508 O507 1.268 . S
C509 O514 1.254 . S
C509 O515 1.268 . S
O510 Dy503 2.329 1_544 S
O510 C518 1.249 . S
O511 Dy500 2.326 . S
O511 C518 1.267 . S
O512 C501 1.185 . S
O512 Dy503 2.403 . S
O513 C501 1.355 . S
O513 Dy503 2.528 . S
O514 Dy503 2.370 1_545 S
O514 C509 1.254 . S
O515 Dy500 2.310 1_556 S
O515 Dy503 2.645 1_545 S
O515 C509 1.268 . S
O516 Dy500 2.351 1_566 S
O516 C519 1.249 . S
O517 Dy503 2.343 . S
O517 C519 1.267 . S
C518 O510 1.249 . S
C518 O511 1.267 . S
C519 O516 1.249 . S
C519 O517 1.267 . S
Dy520 O524 2.398 . S
Dy520 O525 2.491 . S
Dy520 O526 2.403 . S
Dy520 O527 2.664 . S
Dy520 O531 2.326 . S
Dy520 O535 2.310 . S
Dy520 O536 2.351 . S
C521 O532 1.185 . S
C521 O533 1.355 . S
C522 O524 1.185 . S
C522 O525 1.355 . S
Dy523 O527 2.310 . S
Dy523 O530 2.351 . S
Dy523 O532 2.398 . S
Dy523 O533 2.491 . S
Dy523 O534 2.403 . S
Dy523 O535 2.664 . S
Dy523 O537 2.326 . S
O524 Dy520 2.398 . S
O524 C522 1.185 . S
O525 Dy520 2.491 . S
O525 C522 1.355 . S
O526 Dy520 2.403 . S
O526 C528 1.254 . S
O527 Dy520 2.664 . S
O527 Dy523 2.310 . S
O527 C528 1.268 . S
C528 O526 1.254 . S
C528 O527 1.268 . S
C529 O534 1.254 . S
C529 O535 1.268 . S
O530 Dy523 2.351 . S
O530 C538 1.249 . S
O531 Dy520 2.326 . S
O531 C538 1.267 . S
O532 C521 1.185 . S
O532 Dy523 2.398 . S
O533 C521 1.355 . S
O533 Dy523 2.491 . S
O534 Dy523 2.403 . S
O534 C529 1.254 . S
O535 Dy520 2.310 . S
O535 Dy523 2.664 . S
O535 C529 1.268 . S
O536 Dy520 2.351 . S
O536 C539 1.249 . S
O537 Dy523 2.326 . S
O537 C539 1.267 . S
C538 O530 1.249 . S
C538 O531 1.267 . S
C539 O536 1.249 . S
C539 O537 1.267 . S
Dy540 O544 2.398 . S
Dy540 O545 2.491 . S
Dy540 O546 2.403 1_455 S
Dy540 O547 2.664 1_455 S
Dy540 O551 2.326 . S
Dy540 O555 2.310 1_554 S
Dy540 O556 2.351 1_454 S
C541 O552 1.185 . S
C541 O553 1.355 . S
C542 O544 1.185 . S
C542 O545 1.355 . S
Dy543 O547 2.310 1_556 S
Dy543 O550 2.351 1_656 S
Dy543 O552 2.398 . S
Dy543 O553 2.491 . S
Dy543 O554 2.403 1_655 S
Dy543 O555 2.664 1_655 S
Dy543 O557 2.326 . S
O544 Dy540 2.398 . S
O544 C542 1.185 . S
O545 Dy540 2.491 . S
O545 C542 1.355 . S
O546 Dy540 2.403 1_655 S
O546 C548 1.254 . S
O547 Dy540 2.664 1_655 S
O547 Dy543 2.310 1_554 S
O547 C548 1.268 . S
C548 O546 1.254 . S
C548 O547 1.268 . S
C549 O554 1.254 . S
C549 O555 1.268 . S
O550 Dy543 2.351 1_454 S
O550 C558 1.249 . S
O551 Dy540 2.326 . S
O551 C558 1.267 . S
O552 C541 1.185 . S
O552 Dy543 2.398 . S
O553 C541 1.355 . S
O553 Dy543 2.491 . S
O554 Dy543 2.403 1_455 S
O554 C549 1.254 . S
O555 Dy540 2.310 1_556 S
O555 Dy543 2.664 1_455 S
O555 C549 1.268 . S
O556 Dy540 2.351 1_656 S
O556 C559 1.249 . S
O557 Dy543 2.326 . S
O557 C559 1.267 . S
C558 O550 1.249 . S
C558 O551 1.267 . S
C559 O556 1.249 . S
C559 O557 1.267 . S
H560 C578 0.951 . S
H561 C580 0.951 . S
H562 C582 0.950 . S
H563 C583 0.950 . S
H564 C585 0.950 . S
H565 C588 0.950 . S
H566 C589 0.950 . S
H567 C591 0.950 . S
H568 C592 0.950 . S
H569 C593 0.951 . S
H570 C595 0.951 . S
H571 C597 0.950 . S
H572 C598 0.950 . S
H573 C600 0.950 . S
H574 C603 0.950 . S
H575 C604 0.950 . S
H576 C606 0.950 . S
H577 C607 0.950 . S
C578 H560 0.951 . S
C578 C579 1.366 . S
C578 C580 1.388 . S
C579 C578 1.366 . S
C579 C583 1.385 . S
C580 H561 0.951 . S
C580 C578 1.388 . S
C580 C581 1.366 . S
C581 C580 1.366 . S
C581 C582 1.414 . S
C581 C584 1.499 . S
C582 H562 0.950 . S
C582 C581 1.414 . S
C582 C583 1.374 . S
C583 H563 0.950 . S
C583 C579 1.385 . S
C583 C582 1.374 . S
C584 C581 1.499 . S
C584 C585 1.373 . S
C584 C586 1.389 . S
C585 H564 0.950 . S
C585 C584 1.373 . S
C585 C601 1.377 . S
C586 C584 1.389 . S
C586 C587 1.524 . S
C586 C600 1.377 . S
C587 C586 1.524 . S
C587 C588 1.397 . S
C587 C592 1.363 . S
C588 H565 0.950 . S
C588 C587 1.397 . S
C588 C589 1.334 . S
C589 H566 0.950 . S
C589 C588 1.334 . S
C589 C590 1.287 . S
C590 C589 1.287 . S
C590 C591 1.524 . S
C590 H609 0.913 . S
C591 H567 0.950 . S
C591 C590 1.524 . S
C591 C592 1.415 . S
C592 H568 0.950 . S
C592 C587 1.363 . S
C592 C591 1.415 . S
C593 H569 0.951 . S
C593 C594 1.366 . S
C593 C595 1.388 . S
C594 C593 1.366 . S
C594 C598 1.385 . S
C595 H570 0.951 . S
C595 C593 1.388 . S
C595 C596 1.366 . S
C596 C595 1.366 . S
C596 C597 1.414 . S
C596 C599 1.499 . S
C597 H571 0.950 . S
C597 C596 1.414 . S
C597 C598 1.374 . S
C598 H572 0.950 . S
C598 C594 1.385 . S
C598 C597 1.374 . S
C599 C596 1.499 . S
C599 C600 1.373 . S
C599 C601 1.389 . S
C600 H573 0.950 . S
C600 C586 1.377 . S
C600 C599 1.373 . S
C601 C585 1.377 . S
C601 C599 1.389 . S
C601 C602 1.524 . S
C602 C601 1.524 . S
C602 C603 1.397 . S
C602 C607 1.363 . S
C603 H574 0.950 . S
C603 C602 1.397 . S
C603 C604 1.334 . S
C604 H575 0.950 . S
C604 C603 1.334 . S
C604 C605 1.287 . S
C605 C604 1.287 . S
C605 C606 1.524 . S
C605 H608 0.999 . S
C606 H576 0.950 . S
C606 C605 1.524 . S
C606 C607 1.415 . S
C607 H577 0.950 . S
C607 C602 1.363 . S
C607 C606 1.415 . S
H608 C605 0.999 . S
H609 C590 0.913 . S
H610 C628 0.951 . S
H611 C630 0.951 . S
H612 C632 0.950 . S
H613 C633 0.950 . S
H614 C635 0.950 . S
H615 C638 0.950 . S
H616 C639 0.950 . S
H617 C641 0.950 . S
H618 C642 0.950 . S
H619 C643 0.951 . S
H620 C645 0.951 . S
H621 C647 0.950 . S
H622 C648 0.950 . S
H623 C650 0.950 . S
H624 C653 0.950 . S
H625 C654 0.982 . S
H626 C656 0.950 . S
H627 C657 0.950 . S
C628 H610 0.951 . S
C628 C629 1.366 . S
C628 C630 1.388 . S
C629 C628 1.366 . S
C629 C633 1.385 . S
C630 H611 0.951 . S
C630 C628 1.388 . S
C630 C631 1.366 . S
C631 C630 1.366 . S
C631 C632 1.414 . S
C631 C634 1.499 . S
C632 H612 0.950 . S
C632 C631 1.414 . S
C632 C633 1.374 . S
C633 H613 0.950 . S
C633 C629 1.385 . S
C633 C632 1.374 . S
C634 C631 1.499 . S
C634 C635 1.373 . S
C634 C636 1.389 . S
C635 H614 0.950 . S
C635 C634 1.373 . S
C635 C651 1.377 . S
C636 C634 1.389 . S
C636 C637 1.524 . S
C636 C650 1.377 . S
C637 C636 1.524 . S
C637 C638 1.397 . S
C637 C642 1.363 . S
C638 H615 0.950 . S
C638 C637 1.397 . S
C638 C639 1.334 . S
C639 H616 0.950 . S
C639 C638 1.334 . S
C639 C640 1.287 . S
C640 C639 1.287 . S
C640 C641 1.524 . S
C640 H659 0.913 . S
C641 H617 0.950 . S
C641 C640 1.524 . S
C641 C642 1.415 . S
C642 H618 0.950 . S
C642 C637 1.363 . S
C642 C641 1.415 . S
C643 H619 0.951 . S
C643 C644 1.366 . S
C643 C645 1.388 . S
C644 C643 1.366 . S
C644 C648 1.385 . S
C645 H620 0.951 . S
C645 C643 1.388 . S
C645 C646 1.366 . S
C646 C645 1.366 . S
C646 C647 1.414 . S
C646 C649 1.499 . S
C647 H621 0.950 . S
C647 C646 1.414 . S
C647 C648 1.374 . S
C648 H622 0.950 . S
C648 C644 1.385 . S
C648 C647 1.374 . S
C649 C646 1.499 . S
C649 C650 1.373 . S
C649 C651 1.389 . S
C650 H623 0.950 . S
C650 C636 1.377 . S
C650 C649 1.373 . S
C651 C635 1.377 . S
C651 C649 1.389 . S
C651 C652 1.524 . S
C652 C651 1.524 . S
C652 C653 1.397 . S
C652 C657 1.363 . S
C653 H624 0.950 . S
C653 C652 1.397 . S
C653 C654 1.307 1_565 S
C654 H625 0.982 . S
C654 C653 1.307 1_545 S
C654 C655 1.282 1_545 S
C655 C654 1.282 1_565 S
C655 C656 1.524 . S
C655 H658 0.999 1_565 S
C656 H626 0.950 . S
C656 C655 1.524 . S
C656 C657 1.415 . S
C657 H627 0.950 . S
C657 C652 1.363 . S
C657 C656 1.415 . S
H658 C655 0.999 1_545 S
H659 C640 0.913 . S
H660 C678 0.951 . S
H661 C680 0.951 . S
H662 C682 0.950 . S
H663 C683 0.950 . S
H664 C685 0.950 . S
H665 C688 0.950 . S
H666 C689 0.950 . S
H667 C691 0.950 . S
H668 C692 0.950 . S
H669 C693 0.951 . S
H670 C695 0.951 . S
H671 C697 0.950 . S
H672 C698 0.950 . S
H673 C700 0.950 . S
H674 C703 0.950 . S
H675 C704 0.950 . S
H676 C706 0.950 . S
H677 C707 0.950 . S
C678 H660 0.951 . S
C678 C679 1.366 . S
C678 C680 1.388 . S
C679 C678 1.366 . S
C679 C683 1.385 . S
C680 H661 0.951 . S
C680 C678 1.388 . S
C680 C681 1.366 . S
C681 C680 1.366 . S
C681 C682 1.414 . S
C681 C684 1.499 . S
C682 H662 0.950 . S
C682 C681 1.414 . S
C682 C683 1.374 . S
C683 H663 0.950 . S
C683 C679 1.385 . S
C683 C682 1.374 . S
C684 C681 1.499 . S
C684 C685 1.373 . S
C684 C686 1.389 . S
C685 H664 0.950 . S
C685 C684 1.373 . S
C685 C701 1.377 . S
C686 C684 1.389 . S
C686 C687 1.524 . S
C686 C700 1.377 . S
C687 C686 1.524 . S
C687 C688 1.397 . S
C687 C692 1.363 . S
C688 H665 0.950 . S
C688 C687 1.397 . S
C688 C689 1.334 . S
C689 H666 0.950 . S
C689 C688 1.334 . S
C689 C690 1.287 . S
C690 C689 1.287 . S
C690 C691 1.524 . S
C690 H709 0.913 . S
C691 H667 0.950 . S
C691 C690 1.524 . S
C691 C692 1.415 . S
C692 H668 0.950 . S
C692 C687 1.363 . S
C692 C691 1.415 . S
C693 H669 0.951 . S
C693 C694 1.366 . S
C693 C695 1.388 . S
C694 C693 1.366 . S
C694 C698 1.385 . S
C695 H670 0.951 . S
C695 C693 1.388 . S
C695 C696 1.366 . S
C696 C695 1.366 . S
C696 C697 1.414 . S
C696 C699 1.499 . S
C697 H671 0.950 . S
C697 C696 1.414 . S
C697 C698 1.374 . S
C698 H672 0.950 . S
C698 C694 1.385 . S
C698 C697 1.374 . S
C699 C696 1.499 . S
C699 C700 1.373 . S
C699 C701 1.389 . S
C700 H673 0.950 . S
C700 C686 1.377 . S
C700 C699 1.373 . S
C701 C685 1.377 . S
C701 C699 1.389 . S
C701 C702 1.524 . S
C702 C701 1.524 . S
C702 C703 1.397 . S
C702 C707 1.363 . S
C703 H674 0.950 . S
C703 C702 1.397 . S
C703 C704 1.334 . S
C704 H675 0.950 . S
C704 C703 1.334 . S
C704 C705 1.287 . S
C705 C704 1.287 . S
C705 C706 1.524 . S
C705 H708 0.999 . S
C706 H676 0.950 . S
C706 C705 1.524 . S
C706 C707 1.415 . S
C707 H677 0.950 . S
C707 C702 1.363 . S
C707 C706 1.415 . S
H708 C705 0.999 . S
H709 C690 0.913 . S
H710 C728 0.951 . S
H711 C730 0.951 . S
H712 C732 0.950 . S
H713 C733 0.950 . S
H714 C735 0.950 . S
H715 C738 0.950 . S
H716 C739 0.950 . S
H717 C741 0.950 . S
H718 C742 0.950 . S
H719 C743 0.951 . S
H720 C745 0.951 . S
H721 C747 0.950 . S
H722 C748 0.950 . S
H723 C750 0.950 . S
H724 C753 0.950 . S
H725 C754 0.950 . S
H726 C756 0.950 . S
H727 C757 0.950 . S
C728 H710 0.951 . S
C728 C729 1.366 . S
C728 C730 1.388 . S
C729 C728 1.366 . S
C729 C733 1.385 . S
C730 H711 0.951 . S
C730 C728 1.388 . S
C730 C731 1.366 . S
C731 C730 1.366 . S
C731 C732 1.414 . S
C731 C734 1.499 . S
C732 H712 0.950 . S
C732 C731 1.414 . S
C732 C733 1.374 . S
C733 H713 0.950 . S
C733 C729 1.385 . S
C733 C732 1.374 . S
C734 C731 1.499 . S
C734 C735 1.373 . S
C734 C736 1.389 . S
C735 H714 0.950 . S
C735 C734 1.373 . S
C735 C751 1.377 . S
C736 C734 1.389 . S
C736 C737 1.524 . S
C736 C750 1.377 . S
C737 C736 1.524 . S
C737 C738 1.397 . S
C737 C742 1.363 . S
C738 H715 0.950 . S
C738 C737 1.397 . S
C738 C739 1.334 . S
C739 H716 0.950 . S
C739 C738 1.334 . S
C739 C740 1.287 . S
C740 C739 1.287 . S
C740 C741 1.524 . S
C740 H759 0.913 . S
C741 H717 0.950 . S
C741 C740 1.524 . S
C741 C742 1.415 . S
C742 H718 0.950 . S
C742 C737 1.363 . S
C742 C741 1.415 . S
C743 H719 0.951 . S
C743 C744 1.366 . S
C743 C745 1.388 . S
C744 C743 1.366 . S
C744 C748 1.385 . S
C745 H720 0.951 . S
C745 C743 1.388 . S
C745 C746 1.366 . S
C746 C745 1.366 . S
C746 C747 1.414 . S
C746 C749 1.499 . S
C747 H721 0.950 . S
C747 C746 1.414 . S
C747 C748 1.374 . S
C748 H722 0.950 . S
C748 C744 1.385 . S
C748 C747 1.374 . S
C749 C746 1.499 . S
C749 C750 1.373 . S
C749 C751 1.389 . S
C750 H723 0.950 . S
C750 C736 1.377 . S
C750 C749 1.373 . S
C751 C735 1.377 . S
C751 C749 1.389 . S
C751 C752 1.524 . S
C752 C751 1.524 . S
C752 C753 1.397 . S
C752 C757 1.363 . S
C753 H724 0.950 . S
C753 C752 1.397 . S
C753 C754 1.334 1_655 S
C754 H725 0.950 . S
C754 C753 1.334 1_455 S
C754 C755 1.287 . S
C755 C754 1.287 . S
C755 C756 1.524 1_455 S
C755 H758 0.999 . S
C756 H726 0.950 . S
C756 C755 1.524 1_655 S
C756 C757 1.415 . S
C757 H727 0.950 . S
C757 C752 1.363 . S
C757 C756 1.415 . S
H758 C755 0.999 . S
H759 C740 0.913 . S
H760 C778 0.951 . S
H761 C780 0.951 . S
H762 C782 0.950 . S
H763 C783 0.950 . S
H764 C785 0.950 . S
H765 C788 0.950 . S
H766 C789 0.950 . S
H767 C791 0.950 . S
H768 C792 0.950 . S
H769 C793 0.951 . S
H770 C795 0.951 . S
H771 C797 0.950 . S
H772 C798 0.950 . S
H773 C800 0.950 . S
H774 C803 0.950 . S
H775 C804 0.950 . S
H776 C806 0.950 . S
H777 C807 0.950 . S
C778 H760 0.951 . S
C778 C779 1.366 . S
C778 C780 1.388 . S
C779 C778 1.366 . S
C779 C783 1.385 . S
C780 H761 0.951 . S
C780 C778 1.388 . S
C780 C781 1.366 . S
C781 C780 1.366 . S
C781 C782 1.414 . S
C781 C784 1.499 . S
C782 H762 0.950 . S
C782 C781 1.414 . S
C782 C783 1.374 . S
C783 H763 0.950 . S
C783 C779 1.385 . S
C783 C782 1.374 . S
C784 C781 1.499 . S
C784 C785 1.373 . S
C784 C786 1.389 . S
C785 H764 0.950 . S
C785 C784 1.373 . S
C785 C801 1.377 . S
C786 C784 1.389 . S
C786 C787 1.524 . S
C786 C800 1.377 . S
C787 C786 1.524 . S
C787 C788 1.397 . S
C787 C792 1.363 . S
C788 H765 0.950 . S
C788 C787 1.397 . S
C788 C789 1.334 . S
C789 H766 0.950 . S
C789 C788 1.334 . S
C789 C790 1.287 . S
C790 C789 1.287 . S
C790 C791 1.524 . S
C790 H809 0.913 . S
C791 H767 0.950 . S
C791 C790 1.524 . S
C791 C792 1.415 . S
C792 H768 0.950 . S
C792 C787 1.363 . S
C792 C791 1.415 . S
C793 H769 0.951 . S
C793 C794 1.366 . S
C793 C795 1.388 . S
C794 C793 1.366 . S
C794 C798 1.385 . S
C795 H770 0.951 . S
C795 C793 1.388 . S
C795 C796 1.366 . S
C796 C795 1.366 . S
C796 C797 1.414 . S
C796 C799 1.499 . S
C797 H771 0.950 . S
C797 C796 1.414 . S
C797 C798 1.374 . S
C798 H772 0.950 . S
C798 C794 1.385 . S
C798 C797 1.374 . S
C799 C796 1.499 . S
C799 C800 1.373 . S
C799 C801 1.389 . S
C800 H773 0.950 . S
C800 C786 1.377 . S
C800 C799 1.373 . S
C801 C785 1.377 . S
C801 C799 1.389 . S
C801 C802 1.524 . S
C802 C801 1.524 . S
C802 C803 1.397 . S
C802 C807 1.363 . S
C803 H774 0.950 . S
C803 C802 1.397 . S
C803 C804 1.334 . S
C804 H775 0.950 . S
C804 C803 1.334 . S
C804 C805 1.287 . S
C805 C804 1.287 . S
C805 C806 1.524 . S
C805 H808 0.999 . S
C806 H776 0.950 . S
C806 C805 1.524 . S
C806 C807 1.415 . S
C807 H777 0.950 . S
C807 C802 1.363 . S
C807 C806 1.415 . S
H808 C805 0.999 . S
H809 C790 0.913 . S
H810 C828 0.951 . S
H811 C830 0.951 . S
H812 C832 0.950 . S
H813 C833 0.950 . S
H814 C835 0.950 . S
H815 C838 0.950 . S
H816 C839 0.950 . S
H817 C841 0.951 1_545 S
H818 C842 0.950 . S
H819 C843 0.951 . S
H820 C845 0.951 . S
H821 C847 0.950 . S
H822 C848 0.950 . S
H823 C850 0.950 . S
H824 C853 0.950 . S
H825 C854 0.950 . S
H826 C856 0.950 . S
H827 C857 0.950 . S
C828 H810 0.951 . S
C828 C829 1.366 . S
C828 C830 1.388 . S
C829 C828 1.366 . S
C829 C833 1.385 . S
C830 H811 0.951 . S
C830 C828 1.388 . S
C830 C831 1.366 . S
C831 C830 1.366 . S
C831 C832 1.414 . S
C831 C834 1.499 . S
C832 H812 0.950 . S
C832 C831 1.414 . S
C832 C833 1.374 . S
C833 H813 0.950 . S
C833 C829 1.385 . S
C833 C832 1.374 . S
C834 C831 1.499 . S
C834 C835 1.373 . S
C834 C836 1.389 . S
C835 H814 0.950 . S
C835 C834 1.373 . S
C835 C851 1.377 . S
C836 C834 1.389 . S
C836 C837 1.524 . S
C836 C850 1.377 . S
C837 C836 1.524 . S
C837 C838 1.397 . S
C837 C842 1.363 . S
C838 H815 0.950 . S
C838 C837 1.397 . S
C838 C839 1.334 . S
C839 H816 0.950 . S
C839 C838 1.334 . S
C839 C840 1.304 . S
C840 C839 1.304 . S
C840 C841 1.522 . S
C840 H859 0.898 1_565 S
C841 H817 0.951 1_565 S
C841 C840 1.522 . S
C841 C842 1.414 . S
C842 H818 0.950 . S
C842 C837 1.363 . S
C842 C841 1.414 . S
C843 H819 0.951 . S
C843 C844 1.366 . S
C843 C845 1.388 . S
C844 C843 1.366 . S
C844 C848 1.385 . S
C845 H820 0.951 . S
C845 C843 1.388 . S
C845 C846 1.366 . S
C846 C845 1.366 . S
C846 C847 1.414 . S
C846 C849 1.499 . S
C847 H821 0.950 . S
C847 C846 1.414 . S
C847 C848 1.374 . S
C848 H822 0.950 . S
C848 C844 1.385 . S
C848 C847 1.374 . S
C849 C846 1.499 . S
C849 C850 1.373 . S
C849 C851 1.389 . S
C850 H823 0.950 . S
C850 C836 1.377 . S
C850 C849 1.373 . S
C851 C835 1.377 . S
C851 C849 1.389 . S
C851 C852 1.524 . S
C852 C851 1.524 . S
C852 C853 1.397 . S
C852 C857 1.363 . S
C853 H824 0.950 . S
C853 C852 1.397 . S
C853 C854 1.334 . S
C854 H825 0.950 . S
C854 C853 1.334 . S
C854 C855 1.287 . S
C855 C854 1.287 . S
C855 C856 1.524 . S
C855 H858 0.999 . S
C856 H826 0.950 . S
C856 C855 1.524 . S
C856 C857 1.415 . S
C857 H827 0.950 . S
C857 C852 1.363 . S
C857 C856 1.415 . S
H858 C855 0.999 . S
H859 C840 0.898 1_545 S
H860 C878 0.951 . S
H861 C880 0.951 . S
H862 C882 0.950 . S
H863 C883 0.950 . S
H864 C885 0.950 . S
H865 C888 0.950 . S
H866 C889 0.950 . S
H867 C891 0.950 . S
H868 C892 0.950 . S
H869 C893 0.951 1_554 S
H870 C895 0.951 . S
H871 C897 0.950 . S
H872 C898 0.950 . S
H873 C900 0.950 . S
H874 C903 0.950 . S
H875 C904 0.950 . S
H876 C906 0.950 . S
H877 C907 0.950 . S
C878 H860 0.951 . S
C878 C879 1.366 . S
C878 C880 1.388 . S
C879 C878 1.366 . S
C879 C883 1.385 . S
C880 H861 0.951 . S
C880 C878 1.388 . S
C880 C881 1.366 . S
C881 C880 1.366 . S
C881 C882 1.414 . S
C881 C884 1.499 . S
C882 H862 0.950 . S
C882 C881 1.414 . S
C882 C883 1.374 . S
C883 H863 0.950 . S
C883 C879 1.385 . S
C883 C882 1.374 . S
C884 C881 1.499 . S
C884 C885 1.373 . S
C884 C886 1.389 . S
C885 H864 0.950 . S
C885 C884 1.373 . S
C885 C901 1.377 . S
C886 C884 1.389 . S
C886 C887 1.524 . S
C886 C900 1.377 . S
C887 C886 1.524 . S
C887 C888 1.397 . S
C887 C892 1.363 . S
C888 H865 0.950 . S
C888 C887 1.397 . S
C888 C889 1.334 . S
C889 H866 0.950 . S
C889 C888 1.334 . S
C889 C890 1.287 . S
C890 C889 1.287 . S
C890 C891 1.524 . S
C890 H909 0.913 . S
C891 H867 0.950 . S
C891 C890 1.524 . S
C891 C892 1.415 . S
C892 H868 0.950 . S
C892 C887 1.363 . S
C892 C891 1.415 . S
C893 H869 0.951 1_556 S
C893 C894 1.366 . S
C893 C895 1.388 . S
C894 C893 1.366 . S
C894 C898 1.385 . S
C895 H870 0.951 . S
C895 C893 1.388 . S
C895 C896 1.366 . S
C896 C895 1.366 . S
C896 C897 1.414 . S
C896 C899 1.499 . S
C897 H871 0.950 . S
C897 C896 1.414 . S
C897 C898 1.374 . S
C898 H872 0.950 . S
C898 C894 1.385 . S
C898 C897 1.374 . S
C899 C896 1.499 . S
C899 C900 1.373 . S
C899 C901 1.389 . S
C900 H873 0.950 . S
C900 C886 1.377 . S
C900 C899 1.373 . S
C901 C885 1.377 . S
C901 C899 1.389 . S
C901 C902 1.524 . S
C902 C901 1.524 . S
C902 C903 1.397 . S
C902 C907 1.362 . S
C903 H874 0.950 . S
C903 C902 1.397 . S
C903 C904 1.334 1_556 S
C904 H875 0.950 . S
C904 C903 1.334 1_554 S
C904 C905 1.287 . S
C905 C904 1.287 . S
C905 C906 1.524 . S
C905 H908 0.999 . S
C906 H876 0.950 . S
C906 C905 1.524 . S
C906 C907 1.416 1_554 S
C907 H877 0.950 . S
C907 C902 1.362 . S
C907 C906 1.416 1_556 S
H908 C905 0.999 . S
H909 C890 0.913 . S
H910 C928 0.951 . S
H911 C930 0.951 . S
H912 C932 0.950 . S
H913 C933 0.950 . S
H914 C935 0.950 . S
H915 C938 0.950 . S
H916 C939 0.950 . S
H917 C941 0.950 . S
H918 C942 0.950 . S
H919 C943 0.951 . S
H920 C945 0.951 . S
H921 C947 0.950 . S
H922 C948 0.950 . S
H923 C950 0.950 . S
H924 C953 0.950 . S
H925 C954 0.950 . S
H926 C956 0.950 . S
H927 C957 0.950 . S
C928 H910 0.951 . S
C928 C929 1.366 . S
C928 C930 1.388 . S
C929 C928 1.366 . S
C929 C933 1.385 . S
C930 H911 0.951 . S
C930 C928 1.388 . S
C930 C931 1.366 . S
C931 C930 1.366 . S
C931 C932 1.414 . S
C931 C934 1.499 . S
C932 H912 0.950 . S
C932 C931 1.414 . S
C932 C933 1.374 . S
C933 H913 0.950 . S
C933 C929 1.385 . S
C933 C932 1.374 . S
C934 C931 1.499 . S
C934 C935 1.373 . S
C934 C936 1.389 . S
C935 H914 0.950 . S
C935 C934 1.373 . S
C935 C951 1.377 . S
C936 C934 1.389 . S
C936 C937 1.524 . S
C936 C950 1.377 . S
C937 C936 1.524 . S
C937 C938 1.397 . S
C937 C942 1.363 . S
C938 H915 0.950 . S
C938 C937 1.397 . S
C938 C939 1.334 . S
C939 H916 0.950 . S
C939 C938 1.334 . S
C939 C940 1.287 . S
C940 C939 1.287 . S
C940 C941 1.524 . S
C940 H959 0.913 . S
C941 H917 0.950 . S
C941 C940 1.524 . S
C941 C942 1.415 . S
C942 H918 0.950 . S
C942 C937 1.363 . S
C942 C941 1.415 . S
C943 H919 0.951 . S
C943 C944 1.366 . S
C943 C945 1.388 . S
C944 C943 1.366 . S
C944 C948 1.385 . S
C945 H920 0.951 . S
C945 C943 1.388 . S
C945 C946 1.366 . S
C946 C945 1.366 . S
C946 C947 1.414 . S
C946 C949 1.499 . S
C947 H921 0.950 . S
C947 C946 1.414 . S
C947 C948 1.374 . S
C948 H922 0.950 . S
C948 C944 1.385 . S
C948 C947 1.374 . S
C949 C946 1.499 . S
C949 C950 1.373 . S
C949 C951 1.389 . S
C950 H923 0.950 . S
C950 C936 1.377 . S
C950 C949 1.373 . S
C951 C935 1.377 . S
C951 C949 1.389 . S
C951 C952 1.524 . S
C952 C951 1.524 . S
C952 C953 1.397 . S
C952 C957 1.363 . S
C953 H924 0.950 . S
C953 C952 1.397 . S
C953 C954 1.334 . S
C954 H925 0.950 . S
C954 C953 1.334 . S
C954 C955 1.287 . S
C955 C954 1.287 . S
C955 C956 1.524 . S
C955 H958 0.999 . S
C956 H926 0.950 . S
C956 C955 1.524 . S
C956 C957 1.415 . S
C957 H927 0.950 . S
C957 C952 1.363 . S
C957 C956 1.415 . S
H958 C955 0.999 . S
H959 C940 0.913 . S
H960 C978 0.951 . S
H961 C980 0.951 . S
H962 C982 0.950 . S
H963 C983 0.950 . S
H964 C985 0.950 . S
H965 C988 0.950 . S
H966 C989 0.950 . S
H967 C991 0.950 . S
H968 C992 0.950 . S
H969 C993 0.951 . S
H970 C995 0.951 . S
H971 C997 0.950 . S
H972 C998 0.950 . S
H973 C1000 0.950 . S
H974 C1003 0.950 . S
H975 C1004 0.950 . S
H976 C1006 0.950 . S
H977 C1007 0.950 . S
C978 H960 0.951 . S
C978 C979 1.366 . S
C978 C980 1.388 . S
C979 C978 1.366 . S
C979 C983 1.385 . S
C980 H961 0.951 . S
C980 C978 1.388 . S
C980 C981 1.366 . S
C981 C980 1.366 . S
C981 C982 1.414 . S
C981 C984 1.499 . S
C982 H962 0.950 . S
C982 C981 1.414 . S
C982 C983 1.374 . S
C983 H963 0.950 . S
C983 C979 1.385 . S
C983 C982 1.374 . S
C984 C981 1.499 . S
C984 C985 1.373 . S
C984 C986 1.389 . S
C985 H964 0.950 . S
C985 C984 1.373 . S
C985 C1001 1.377 . S
C986 C984 1.389 . S
C986 C987 1.524 . S
C986 C1000 1.377 . S
C987 C986 1.524 . S
C987 C988 1.397 . S
C987 C992 1.363 . S
C988 H965 0.950 . S
C988 C987 1.397 . S
C988 C989 1.334 . S
C989 H966 0.950 . S
C989 C988 1.334 . S
C989 C990 1.287 . S
C990 C989 1.287 . S
C990 C991 1.524 . S
C990 H1009 0.913 . S
C991 H967 0.950 . S
C991 C990 1.524 . S
C991 C992 1.415 . S
C992 H968 0.950 . S
C992 C987 1.363 . S
C992 C991 1.415 . S
C993 H969 0.951 . S
C993 C994 1.366 . S
C993 C995 1.388 . S
C994 C993 1.366 . S
C994 C998 1.385 . S
C995 H970 0.951 . S
C995 C993 1.388 . S
C995 C996 1.366 . S
C996 C995 1.366 . S
C996 C997 1.414 . S
C996 C999 1.499 . S
C997 H971 0.950 . S
C997 C996 1.414 . S
C997 C998 1.374 . S
C998 H972 0.950 . S
C998 C994 1.385 . S
C998 C997 1.374 . S
C999 C996 1.499 . S
C999 C1000 1.373 . S
C999 C1001 1.389 . S
C1000 H973 0.950 . S
C1000 C986 1.377 . S
C1000 C999 1.373 . S
C1001 C985 1.377 . S
C1001 C999 1.389 . S
C1001 C1002 1.524 . S
C1002 C1001 1.524 . S
C1002 C1003 1.397 . S
C1002 C1007 1.363 . S
C1003 H974 0.950 . S
C1003 C1002 1.397 . S
C1003 C1004 1.334 . S
C1004 H975 0.950 . S
C1004 C1003 1.334 . S
C1004 C1005 1.287 . S
C1005 C1004 1.287 . S
C1005 C1006 1.524 . S
C1005 H1008 0.999 . S
C1006 H976 0.950 . S
C1006 C1005 1.524 . S
C1006 C1007 1.415 . S
C1007 H977 0.950 . S
C1007 C1002 1.363 . S
C1007 C1006 1.415 . S
H1008 C1005 0.999 . S
H1009 C990 0.913 . S
H1010 C1028 0.951 . S
H1011 C1030 0.951 . S
H1012 C1032 0.950 . S
H1013 C1033 0.950 . S
H1014 C1035 0.950 . S
H1015 C1038 0.950 . S
H1016 C1039 0.950 . S
H1017 C1041 0.950 1_554 S
H1018 C1042 0.950 . S
H1019 C1043 0.951 . S
H1020 C1045 0.951 . S
H1021 C1047 0.950 . S
H1022 C1048 0.950 1_554 S
H1023 C1050 0.950 . S
H1024 C1053 0.950 . S
H1025 C1054 0.950 . S
H1026 C1056 0.950 . S
H1027 C1057 0.950 . S
C1028 H1010 0.951 . S
C1028 C1029 1.366 . S
C1028 C1030 1.388 . S
C1029 C1028 1.366 . S
C1029 C1033 1.385 . S
C1030 H1011 0.951 . S
C1030 C1028 1.388 . S
C1030 C1031 1.366 . S
C1031 C1030 1.366 . S
C1031 C1032 1.414 . S
C1031 C1034 1.499 . S
C1032 H1012 0.950 . S
C1032 C1031 1.414 . S
C1032 C1033 1.374 . S
C1033 H1013 0.950 . S
C1033 C1029 1.385 . S
C1033 C1032 1.374 . S
C1034 C1031 1.499 . S
C1034 C1035 1.373 . S
C1034 C1036 1.389 . S
C1035 H1014 0.950 . S
C1035 C1034 1.373 . S
C1035 C1051 1.377 . S
C1036 C1034 1.389 . S
C1036 C1037 1.524 . S
C1036 C1050 1.377 . S
C1037 C1036 1.524 . S
C1037 C1038 1.397 . S
C1037 C1042 1.363 . S
C1038 H1015 0.950 . S
C1038 C1037 1.397 . S
C1038 C1039 1.334 . S
C1039 H1016 0.950 . S
C1039 C1038 1.334 . S
C1039 C1040 1.287 . S
C1040 C1039 1.287 . S
C1040 C1041 1.524 . S
C1040 H1059 0.913 . S
C1041 H1017 0.950 1_556 S
C1041 C1040 1.524 . S
C1041 C1042 1.415 . S
C1042 H1018 0.950 . S
C1042 C1037 1.363 . S
C1042 C1041 1.415 . S
C1043 H1019 0.951 . S
C1043 C1044 1.366 . S
C1043 C1045 1.388 . S
C1044 C1043 1.366 . S
C1044 C1048 1.385 . S
C1045 H1020 0.951 . S
C1045 C1043 1.388 . S
C1045 C1046 1.366 . S
C1046 C1045 1.366 . S
C1046 C1047 1.414 . S
C1046 C1049 1.499 . S
C1047 H1021 0.950 . S
C1047 C1046 1.414 . S
C1047 C1048 1.374 . S
C1048 H1022 0.950 1_556 S
C1048 C1044 1.385 . S
C1048 C1047 1.374 . S
C1049 C1046 1.499 . S
C1049 C1050 1.373 . S
C1049 C1051 1.389 . S
C1050 H1023 0.950 . S
C1050 C1036 1.377 . S
C1050 C1049 1.373 . S
C1051 C1035 1.377 . S
C1051 C1049 1.389 . S
C1051 C1052 1.524 . S
C1052 C1051 1.524 . S
C1052 C1053 1.397 . S
C1052 C1057 1.363 . S
C1053 H1024 0.950 . S
C1053 C1052 1.397 . S
C1053 C1054 1.334 . S
C1054 H1025 0.950 . S
C1054 C1053 1.334 . S
C1054 C1055 1.287 . S
C1055 C1054 1.287 . S
C1055 C1056 1.524 . S
C1055 H1058 0.999 . S
C1056 H1026 0.950 . S
C1056 C1055 1.524 . S
C1056 C1057 1.415 . S
C1057 H1027 0.950 . S
C1057 C1052 1.363 . S
C1057 C1056 1.415 . S
H1058 C1055 0.999 . S
H1059 C1040 0.913 . S
H1060 C1078 0.951 . S
H1061 C1080 0.951 . S
H1062 C1082 0.950 . S
H1063 C1083 0.950 . S
H1064 C1085 0.950 . S
H1065 C1088 0.950 . S
H1066 C1089 0.950 . S
H1067 C1091 0.950 . S
H1068 C1092 0.950 . S
H1069 C1093 0.951 . S
H1070 C1095 0.951 . S
H1071 C1097 0.950 . S
H1072 C1098 0.950 1_455 S
H1073 C1100 0.950 . S
H1074 C1103 0.950 . S
H1075 C1104 0.950 . S
H1076 C1106 0.950 . S
H1077 C1107 0.950 . S
C1078 H1060 0.951 . S
C1078 C1079 1.366 . S
C1078 C1080 1.388 . S
C1079 C1078 1.366 . S
C1079 C1083 1.385 . S
C1080 H1061 0.951 . S
C1080 C1078 1.388 . S
C1080 C1081 1.366 . S
C1081 C1080 1.366 . S
C1081 C1082 1.414 . S
C1081 C1084 1.499 . S
C1082 H1062 0.950 . S
C1082 C1081 1.414 . S
C1082 C1083 1.374 . S
C1083 H1063 0.950 . S
C1083 C1079 1.385 . S
C1083 C1082 1.374 . S
C1084 C1081 1.499 . S
C1084 C1085 1.373 . S
C1084 C1086 1.389 . S
C1085 H1064 0.950 . S
C1085 C1084 1.373 . S
C1085 C1101 1.377 . S
C1086 C1084 1.389 . S
C1086 C1087 1.524 . S
C1086 C1100 1.377 . S
C1087 C1086 1.524 . S
C1087 C1088 1.397 . S
C1087 C1092 1.363 . S
C1088 H1065 0.950 . S
C1088 C1087 1.397 . S
C1088 C1089 1.334 . S
C1089 H1066 0.950 . S
C1089 C1088 1.334 . S
C1089 C1090 1.287 . S
C1090 C1089 1.287 . S
C1090 C1091 1.524 . S
C1090 H1109 0.913 . S
C1091 H1067 0.950 . S
C1091 C1090 1.524 . S
C1091 C1092 1.415 . S
C1092 H1068 0.950 . S
C1092 C1087 1.363 . S
C1092 C1091 1.415 . S
C1093 H1069 0.951 . S
C1093 C1094 1.366 . S
C1093 C1095 1.388 . S
C1094 C1093 1.366 . S
C1094 C1098 1.385 . S
C1095 H1070 0.951 . S
C1095 C1093 1.388 . S
C1095 C1096 1.366 . S
C1096 C1095 1.366 . S
C1096 C1097 1.414 . S
C1096 C1099 1.499 . S
C1097 H1071 0.950 . S
C1097 C1096 1.414 . S
C1097 C1098 1.374 . S
C1098 H1072 0.950 1_655 S
C1098 C1094 1.385 . S
C1098 C1097 1.374 . S
C1099 C1096 1.499 . S
C1099 C1100 1.373 . S
C1099 C1101 1.389 . S
C1100 H1073 0.950 . S
C1100 C1086 1.377 . S
C1100 C1099 1.373 . S
C1101 C1085 1.377 . S
C1101 C1099 1.389 . S
C1101 C1102 1.524 . S
C1102 C1101 1.524 . S
C1102 C1103 1.397 . S
C1102 C1107 1.363 . S
C1103 H1074 0.950 . S
C1103 C1102 1.397 . S
C1103 C1104 1.334 . S
C1104 H1075 0.950 . S
C1104 C1103 1.334 . S
C1104 C1105 1.287 . S
C1105 C1104 1.287 . S
C1105 C1106 1.524 . S
C1105 H1108 0.999 . S
C1106 H1076 0.950 . S
C1106 C1105 1.524 . S
C1106 C1107 1.415 . S
C1107 H1077 0.950 . S
C1107 C1102 1.363 . S
C1107 C1106 1.415 . S
H1108 C1105 0.999 . S
H1109 C1090 0.913 . S
H1110 C1128 0.951 . S
H1111 C1130 0.951 . S
H1112 C1132 0.950 . S
H1113 C1133 0.950 . S
H1114 C1135 0.950 . S
H1115 C1138 0.950 . S
H1116 C1139 0.950 . S
H1117 C1141 0.950 . S
H1118 C1142 0.950 . S
H1119 C1143 0.951 . S
H1120 C1145 0.951 . S
H1121 C1147 0.950 . S
H1122 C1148 0.950 . S
H1123 C1150 0.950 . S
H1124 C1153 0.950 . S
H1125 C1154 0.950 . S
H1126 C1156 0.950 . S
H1127 C1157 0.950 . S
C1128 H1110 0.951 . S
C1128 C1129 1.366 . S
C1128 C1130 1.388 . S
C1129 C1128 1.366 . S
C1129 C1133 1.385 . S
C1130 H1111 0.951 . S
C1130 C1128 1.388 . S
C1130 C1131 1.366 . S
C1131 C1130 1.366 . S
C1131 C1132 1.414 . S
C1131 C1134 1.499 . S
C1132 H1112 0.950 . S
C1132 C1131 1.414 . S
C1132 C1133 1.374 . S
C1133 H1113 0.950 . S
C1133 C1129 1.385 . S
C1133 C1132 1.374 . S
C1134 C1131 1.499 . S
C1134 C1135 1.373 . S
C1134 C1136 1.389 . S
C1135 H1114 0.950 . S
C1135 C1134 1.373 . S
C1135 C1151 1.377 . S
C1136 C1134 1.389 . S
C1136 C1137 1.524 . S
C1136 C1150 1.377 . S
C1137 C1136 1.524 . S
C1137 C1138 1.397 . S
C1137 C1142 1.363 . S
C1138 H1115 0.950 . S
C1138 C1137 1.397 . S
C1138 C1139 1.334 . S
C1139 H1116 0.950 . S
C1139 C1138 1.334 . S
C1139 C1140 1.287 . S
C1140 C1139 1.287 . S
C1140 C1141 1.524 . S
C1140 H1159 0.913 . S
C1141 H1117 0.950 . S
C1141 C1140 1.524 . S
C1141 C1142 1.415 . S
C1142 H1118 0.950 . S
C1142 C1137 1.363 . S
C1142 C1141 1.415 . S
C1143 H1119 0.951 . S
C1143 C1144 1.366 . S
C1143 C1145 1.388 . S
C1144 C1143 1.366 . S
C1144 C1148 1.385 . S
C1145 H1120 0.951 . S
C1145 C1143 1.388 . S
C1145 C1146 1.366 . S
C1146 C1145 1.366 . S
C1146 C1147 1.414 . S
C1146 C1149 1.499 . S
C1147 H1121 0.950 . S
C1147 C1146 1.414 . S
C1147 C1148 1.374 . S
C1148 H1122 0.950 . S
C1148 C1144 1.385 . S
C1148 C1147 1.374 . S
C1149 C1146 1.499 . S
C1149 C1150 1.373 . S
C1149 C1151 1.389 . S
C1150 H1123 0.950 . S
C1150 C1136 1.377 . S
C1150 C1149 1.373 . S
C1151 C1135 1.377 . S
C1151 C1149 1.389 . S
C1151 C1152 1.524 . S
C1152 C1151 1.524 . S
C1152 C1153 1.397 . S
C1152 C1157 1.363 . S
C1153 H1124 0.950 . S
C1153 C1152 1.397 . S
C1153 C1154 1.334 . S
C1154 H1125 0.950 . S
C1154 C1153 1.334 . S
C1154 C1155 1.287 . S
C1155 C1154 1.287 . S
C1155 C1156 1.524 . S
C1155 H1158 0.999 . S
C1156 H1126 0.950 . S
C1156 C1155 1.524 . S
C1156 C1157 1.415 . S
C1157 H1127 0.950 . S
C1157 C1152 1.363 . S
C1157 C1156 1.415 . S
H1158 C1155 0.999 . S
H1159 C1140 0.913 . S
H1160 C1178 0.951 . S
H1161 C1180 0.951 . S
H1162 C1182 0.950 . S
H1163 C1183 0.950 . S
H1164 C1185 0.950 . S
H1165 C1188 0.950 . S
H1166 C1189 0.950 . S
H1167 C1191 0.950 . S
H1168 C1192 0.950 . S
H1169 C1193 0.951 . S
H1170 C1195 0.951 . S
H1171 C1197 0.950 . S
H1172 C1198 0.950 . S
H1173 C1200 0.950 . S
H1174 C1203 0.950 . S
H1175 C1204 0.950 . S
H1176 C1206 0.950 . S
H1177 C1207 0.950 . S
C1178 H1160 0.951 . S
C1178 C1179 1.366 . S
C1178 C1180 1.388 . S
C1179 C1178 1.366 . S
C1179 C1183 1.385 . S
C1180 H1161 0.951 . S
C1180 C1178 1.388 . S
C1180 C1181 1.366 . S
C1181 C1180 1.366 . S
C1181 C1182 1.414 . S
C1181 C1184 1.499 . S
C1182 H1162 0.950 . S
C1182 C1181 1.414 . S
C1182 C1183 1.374 . S
C1183 H1163 0.950 . S
C1183 C1179 1.385 . S
C1183 C1182 1.374 . S
C1184 C1181 1.499 . S
C1184 C1185 1.373 . S
C1184 C1186 1.389 . S
C1185 H1164 0.950 . S
C1185 C1184 1.373 . S
C1185 C1201 1.377 . S
C1186 C1184 1.389 . S
C1186 C1187 1.524 . S
C1186 C1200 1.377 . S
C1187 C1186 1.524 . S
C1187 C1188 1.397 . S
C1187 C1192 1.363 . S
C1188 H1165 0.950 . S
C1188 C1187 1.397 . S
C1188 C1189 1.334 . S
C1189 H1166 0.950 . S
C1189 C1188 1.334 . S
C1189 C1190 1.287 . S
C1190 C1189 1.287 . S
C1190 C1191 1.524 . S
C1190 H1209 0.913 . S
C1191 H1167 0.950 . S
C1191 C1190 1.524 . S
C1191 C1192 1.415 . S
C1192 H1168 0.950 . S
C1192 C1187 1.363 . S
C1192 C1191 1.415 . S
C1193 H1169 0.951 . S
C1193 C1194 1.366 . S
C1193 C1195 1.388 . S
C1194 C1193 1.366 . S
C1194 C1198 1.385 . S
C1195 H1170 0.951 . S
C1195 C1193 1.388 . S
C1195 C1196 1.366 . S
C1196 C1195 1.366 . S
C1196 C1197 1.414 . S
C1196 C1199 1.499 . S
C1197 H1171 0.950 . S
C1197 C1196 1.414 . S
C1197 C1198 1.374 . S
C1198 H1172 0.950 . S
C1198 C1194 1.385 . S
C1198 C1197 1.374 . S
C1199 C1196 1.499 . S
C1199 C1200 1.373 . S
C1199 C1201 1.389 . S
C1200 H1173 0.950 . S
C1200 C1186 1.377 . S
C1200 C1199 1.373 . S
C1201 C1185 1.377 . S
C1201 C1199 1.389 . S
C1201 C1202 1.524 . S
C1202 C1201 1.524 . S
C1202 C1203 1.397 . S
C1202 C1207 1.363 . S
C1203 H1174 0.950 . S
C1203 C1202 1.397 . S
C1203 C1204 1.334 . S
C1204 H1175 0.950 . S
C1204 C1203 1.334 . S
C1204 C1205 1.287 . S
C1205 C1204 1.287 . S
C1205 C1206 1.524 . S
C1205 H1208 0.999 . S
C1206 H1176 0.950 . S
C1206 C1205 1.524 . S
C1206 C1207 1.415 . S
C1207 H1177 0.950 . S
C1207 C1202 1.363 . S
C1207 C1206 1.415 . S
H1208 C1205 0.999 . S
H1209 C1190 0.913 . S
H1210 C1228 0.951 . S
H1211 C1230 0.951 . S
H1212 C1232 0.950 . S
H1213 C1233 0.950 . S
H1214 C1235 0.950 . S
H1215 C1238 0.950 . S
H1216 C1239 0.950 . S
H1217 C1241 0.950 . S
H1218 C1242 0.950 . S
H1219 C1243 0.951 . S
H1220 C1245 0.951 . S
H1221 C1247 0.950 . S
H1222 C1248 0.950 . S
H1223 C1250 0.950 . S
H1224 C1253 0.950 . S
H1225 C1254 0.950 . S
H1226 C1256 0.950 . S
H1227 C1257 0.950 . S
C1228 H1210 0.951 . S
C1228 C1229 1.366 . S
C1228 C1230 1.388 . S
C1229 C1228 1.366 . S
C1229 C1233 1.385 . S
C1230 H1211 0.951 . S
C1230 C1228 1.388 . S
C1230 C1231 1.366 . S
C1231 C1230 1.366 . S
C1231 C1232 1.414 . S
C1231 C1234 1.499 . S
C1232 H1212 0.950 . S
C1232 C1231 1.414 . S
C1232 C1233 1.374 . S
C1233 H1213 0.950 . S
C1233 C1229 1.385 . S
C1233 C1232 1.374 . S
C1234 C1231 1.499 . S
C1234 C1235 1.373 . S
C1234 C1236 1.389 . S
C1235 H1214 0.950 . S
C1235 C1234 1.373 . S
C1235 C1251 1.377 . S
C1236 C1234 1.389 . S
C1236 C1237 1.524 . S
C1236 C1250 1.377 . S
C1237 C1236 1.524 . S
C1237 C1238 1.397 . S
C1237 C1242 1.363 . S
C1238 H1215 0.950 . S
C1238 C1237 1.397 . S
C1238 C1239 1.334 . S
C1239 H1216 0.950 . S
C1239 C1238 1.334 . S
C1239 C1240 1.287 . S
C1240 C1239 1.287 . S
C1240 C1241 1.524 . S
C1240 H1259 0.913 . S
C1241 H1217 0.950 . S
C1241 C1240 1.524 . S
C1241 C1242 1.415 . S
C1242 H1218 0.950 . S
C1242 C1237 1.363 . S
C1242 C1241 1.415 . S
C1243 H1219 0.951 . S
C1243 C1244 1.366 . S
C1243 C1245 1.388 . S
C1244 C1243 1.366 . S
C1244 C1248 1.385 . S
C1245 H1220 0.951 . S
C1245 C1243 1.388 . S
C1245 C1246 1.366 . S
C1246 C1245 1.366 . S
C1246 C1247 1.414 . S
C1246 C1249 1.499 . S
C1247 H1221 0.950 . S
C1247 C1246 1.414 . S
C1247 C1248 1.374 . S
C1248 H1222 0.950 . S
C1248 C1244 1.385 . S
C1248 C1247 1.374 . S
C1249 C1246 1.499 . S
C1249 C1250 1.373 . S
C1249 C1251 1.389 . S
C1250 H1223 0.950 . S
C1250 C1236 1.377 . S
C1250 C1249 1.373 . S
C1251 C1235 1.377 . S
C1251 C1249 1.389 . S
C1251 C1252 1.524 . S
C1252 C1251 1.524 . S
C1252 C1253 1.397 . S
C1252 C1257 1.363 . S
C1253 H1224 0.950 . S
C1253 C1252 1.397 . S
C1253 C1254 1.334 1_545 S
C1254 H1225 0.950 . S
C1254 C1253 1.334 1_565 S
C1254 C1255 1.287 . S
C1255 C1254 1.287 . S
C1255 C1256 1.524 . S
C1255 H1258 0.999 . S
C1256 H1226 0.950 . S
C1256 C1255 1.524 . S
C1256 C1257 1.415 1_565 S
C1257 H1227 0.950 . S
C1257 C1252 1.363 . S
C1257 C1256 1.415 1_545 S
H1258 C1255 0.999 . S
H1259 C1240 0.913 . S
H1260 C1278 0.951 . S
H1261 C1280 0.951 . S
H1262 C1282 0.950 . S
H1263 C1283 0.950 . S
H1264 C1285 0.950 . S
H1265 C1288 0.950 . S
H1266 C1289 0.950 . S
H1267 C1291 0.950 . S
H1268 C1292 0.950 . S
H1269 C1293 0.951 . S
H1270 C1295 0.951 . S
H1271 C1297 0.950 . S
H1272 C1298 0.950 . S
H1273 C1300 0.950 . S
H1274 C1303 0.950 . S
H1275 C1304 0.950 . S
H1276 C1306 0.950 . S
H1277 C1307 0.950 . S
C1278 H1260 0.951 . S
C1278 C1279 1.366 . S
C1278 C1280 1.388 . S
C1279 C1278 1.366 . S
C1279 C1283 1.385 . S
C1280 H1261 0.951 . S
C1280 C1278 1.388 . S
C1280 C1281 1.366 . S
C1281 C1280 1.366 . S
C1281 C1282 1.414 . S
C1281 C1284 1.499 . S
C1282 H1262 0.950 . S
C1282 C1281 1.414 . S
C1282 C1283 1.374 . S
C1283 H1263 0.950 . S
C1283 C1279 1.385 . S
C1283 C1282 1.374 . S
C1284 C1281 1.499 . S
C1284 C1285 1.373 . S
C1284 C1286 1.389 . S
C1285 H1264 0.950 . S
C1285 C1284 1.373 . S
C1285 C1301 1.377 . S
C1286 C1284 1.389 . S
C1286 C1287 1.524 . S
C1286 C1300 1.377 . S
C1287 C1286 1.524 . S
C1287 C1288 1.397 . S
C1287 C1292 1.363 . S
C1288 H1265 0.950 . S
C1288 C1287 1.397 . S
C1288 C1289 1.334 . S
C1289 H1266 0.950 . S
C1289 C1288 1.334 . S
C1289 C1290 1.287 . S
C1290 C1289 1.287 . S
C1290 C1291 1.524 . S
C1290 H1309 0.913 . S
C1291 H1267 0.950 . S
C1291 C1290 1.524 . S
C1291 C1292 1.415 . S
C1292 H1268 0.950 . S
C1292 C1287 1.363 . S
C1292 C1291 1.415 . S
C1293 H1269 0.951 . S
C1293 C1294 1.366 . S
C1293 C1295 1.388 . S
C1294 C1293 1.366 . S
C1294 C1298 1.385 . S
C1295 H1270 0.951 . S
C1295 C1293 1.388 . S
C1295 C1296 1.366 . S
C1296 C1295 1.366 . S
C1296 C1297 1.414 . S
C1296 C1299 1.499 . S
C1297 H1271 0.950 . S
C1297 C1296 1.414 . S
C1297 C1298 1.374 . S
C1298 H1272 0.950 . S
C1298 C1294 1.385 . S
C1298 C1297 1.374 . S
C1299 C1296 1.499 . S
C1299 C1300 1.373 . S
C1299 C1301 1.389 . S
C1300 H1273 0.950 . S
C1300 C1286 1.377 . S
C1300 C1299 1.373 . S
C1301 C1285 1.377 . S
C1301 C1299 1.389 . S
C1301 C1302 1.524 . S
C1302 C1301 1.524 . S
C1302 C1303 1.397 . S
C1302 C1307 1.363 . S
C1303 H1274 0.950 . S
C1303 C1302 1.397 . S
C1303 C1304 1.334 . S
C1304 H1275 0.950 . S
C1304 C1303 1.334 . S
C1304 C1305 1.287 . S
C1305 C1304 1.287 . S
C1305 C1306 1.524 . S
C1305 H1308 0.999 . S
C1306 H1276 0.950 . S
C1306 C1305 1.524 . S
C1306 C1307 1.415 . S
C1307 H1277 0.950 . S
C1307 C1302 1.363 . S
C1307 C1306 1.415 . S
H1308 C1305 0.999 . S
H1309 C1290 0.913 . S
H1310 C1328 0.951 . S
H1311 C1330 0.951 . S
H1312 C1332 0.950 . S
H1313 C1333 0.950 . S
H1314 C1335 0.950 . S
H1315 C1338 0.950 . S
H1316 C1339 0.950 . S
H1317 C1341 0.950 . S
H1318 C1342 0.950 . S
H1319 C1343 0.951 . S
H1320 C1345 0.951 . S
H1321 C1347 0.950 . S
H1322 C1348 0.922 1_655 S
H1323 C1350 0.950 . S
H1324 C1353 0.950 . S
H1325 C1354 0.950 . S
H1326 C1356 0.950 . S
H1327 C1357 0.950 . S
C1328 H1310 0.951 . S
C1328 C1329 1.366 . S
C1328 C1330 1.388 . S
C1329 C1328 1.366 . S
C1329 C1333 1.385 . S
C1330 H1311 0.951 . S
C1330 C1328 1.388 . S
C1330 C1331 1.366 . S
C1331 C1330 1.366 . S
C1331 C1332 1.414 . S
C1331 C1334 1.499 . S
C1332 H1312 0.950 . S
C1332 C1331 1.414 . S
C1332 C1333 1.374 . S
C1333 H1313 0.950 . S
C1333 C1329 1.385 . S
C1333 C1332 1.374 . S
C1334 C1331 1.499 . S
C1334 C1335 1.373 . S
C1334 C1336 1.389 . S
C1335 H1314 0.950 . S
C1335 C1334 1.373 . S
C1335 C1351 1.377 . S
C1336 C1334 1.389 . S
C1336 C1337 1.524 . S
C1336 C1350 1.377 . S
C1337 C1336 1.524 . S
C1337 C1338 1.397 . S
C1337 C1342 1.363 . S
C1338 H1315 0.950 . S
C1338 C1337 1.397 . S
C1338 C1339 1.334 . S
C1339 H1316 0.950 . S
C1339 C1338 1.334 . S
C1339 C1340 1.287 . S
C1340 C1339 1.287 . S
C1340 C1341 1.524 . S
C1340 H1359 0.913 . S
C1341 H1317 0.950 . S
C1341 C1340 1.524 . S
C1341 C1342 1.415 . S
C1342 H1318 0.950 . S
C1342 C1337 1.363 . S
C1342 C1341 1.415 . S
C1343 H1319 0.951 . S
C1343 C1344 1.366 . S
C1343 C1345 1.388 . S
C1344 C1343 1.366 . S
C1344 C1348 1.385 . S
C1345 H1320 0.951 . S
C1345 C1343 1.388 . S
C1345 C1346 1.366 . S
C1346 C1345 1.366 . S
C1346 C1347 1.414 . S
C1346 C1349 1.499 . S
C1347 H1321 0.950 . S
C1347 C1346 1.414 . S
C1347 C1348 1.374 . S
C1348 H1322 0.922 1_455 S
C1348 C1344 1.385 . S
C1348 C1347 1.374 . S
C1349 C1346 1.499 . S
C1349 C1350 1.373 . S
C1349 C1351 1.389 . S
C1350 H1323 0.950 . S
C1350 C1336 1.377 . S
C1350 C1349 1.373 . S
C1351 C1335 1.377 . S
C1351 C1349 1.389 . S
C1351 C1352 1.524 . S
C1352 C1351 1.524 . S
C1352 C1353 1.397 . S
C1352 C1357 1.363 . S
C1353 H1324 0.950 . S
C1353 C1352 1.397 . S
C1353 C1354 1.334 . S
C1354 H1325 0.950 . S
C1354 C1353 1.334 . S
C1354 C1355 1.287 . S
C1355 C1354 1.287 . S
C1355 C1356 1.524 . S
C1355 H1358 0.999 . S
C1356 H1326 0.950 . S
C1356 C1355 1.524 . S
C1356 C1357 1.415 . S
C1357 H1327 0.950 . S
C1357 C1352 1.363 . S
C1357 C1356 1.415 . S
H1358 C1355 0.999 . S
H1359 C1340 0.913 . S
H1360 C1378 0.951 . S
H1361 C1380 0.951 . S
H1362 C1382 0.950 . S
H1363 C1383 0.950 . S
H1364 C1385 0.950 . S
H1365 C1388 0.950 . S
H1366 C1389 0.950 . S
H1367 C1391 0.950 . S
H1368 C1392 0.950 . S
H1369 C1393 0.951 . S
H1370 C1395 0.951 . S
H1371 C1397 0.950 . S
H1372 C1398 0.950 . S
H1373 C1400 0.950 . S
H1374 C1403 0.950 . S
H1375 C1404 0.950 1_554 S
H1376 C1406 0.950 . S
H1377 C1407 0.950 . S
C1378 H1360 0.951 . S
C1378 C1379 1.366 . S
C1378 C1380 1.388 . S
C1379 C1378 1.366 . S
C1379 C1383 1.385 . S
C1380 H1361 0.951 . S
C1380 C1378 1.388 . S
C1380 C1381 1.366 . S
C1381 C1380 1.366 . S
C1381 C1382 1.414 . S
C1381 C1384 1.499 . S
C1382 H1362 0.950 . S
C1382 C1381 1.414 . S
C1382 C1383 1.374 . S
C1383 H1363 0.950 . S
C1383 C1379 1.385 . S
C1383 C1382 1.374 . S
C1384 C1381 1.499 . S
C1384 C1385 1.373 . S
C1384 C1386 1.389 . S
C1385 H1364 0.950 . S
C1385 C1384 1.373 . S
C1385 C1401 1.377 . S
C1386 C1384 1.389 . S
C1386 C1387 1.524 . S
C1386 C1400 1.377 . S
C1387 C1386 1.524 . S
C1387 C1388 1.397 . S
C1387 C1392 1.363 . S
C1388 H1365 0.950 . S
C1388 C1387 1.397 . S
C1388 C1389 1.334 . S
C1389 H1366 0.950 . S
C1389 C1388 1.334 . S
C1389 C1390 1.287 . S
C1390 C1389 1.287 . S
C1390 C1391 1.524 . S
C1390 H1409 0.913 . S
C1391 H1367 0.950 . S
C1391 C1390 1.524 . S
C1391 C1392 1.415 . S
C1392 H1368 0.950 . S
C1392 C1387 1.363 . S
C1392 C1391 1.415 . S
C1393 H1369 0.951 . S
C1393 C1394 1.366 . S
C1393 C1395 1.388 . S
C1394 C1393 1.366 . S
C1394 C1398 1.385 . S
C1395 H1370 0.951 . S
C1395 C1393 1.388 . S
C1395 C1396 1.366 . S
C1396 C1395 1.366 . S
C1396 C1397 1.414 . S
C1396 C1399 1.499 . S
C1397 H1371 0.950 . S
C1397 C1396 1.414 . S
C1397 C1398 1.374 . S
C1398 H1372 0.950 . S
C1398 C1394 1.385 . S
C1398 C1397 1.374 . S
C1399 C1396 1.499 . S
C1399 C1400 1.373 . S
C1399 C1401 1.389 . S
C1400 H1373 0.950 . S
C1400 C1386 1.377 . S
C1400 C1399 1.373 . S
C1401 C1385 1.377 . S
C1401 C1399 1.389 . S
C1401 C1402 1.524 . S
C1402 C1401 1.524 . S
C1402 C1403 1.397 . S
C1402 C1407 1.363 . S
C1403 H1374 0.950 . S
C1403 C1402 1.397 . S
C1403 C1404 1.334 . S
C1404 H1375 0.950 1_556 S
C1404 C1403 1.334 . S
C1404 C1405 1.301 . S
C1405 C1404 1.301 . S
C1405 C1406 1.548 . S
C1405 H1408 0.958 1_556 S
C1406 H1376 0.950 . S
C1406 C1405 1.548 . S
C1406 C1407 1.415 . S
C1407 H1377 0.950 . S
C1407 C1402 1.363 . S
C1407 C1406 1.415 . S
H1408 C1405 0.958 1_554 S
H1409 C1390 0.913 . S
H1410 C1428 0.951 . S
H1411 C1430 0.951 . S
H1412 C1432 0.950 . S
H1413 C1433 0.950 . S
H1414 C1435 0.950 . S
H1415 C1438 0.950 . S
H1416 C1439 0.950 . S
H1417 C1441 0.950 . S
H1418 C1442 0.950 . S
H1419 C1443 0.951 . S
H1420 C1445 0.951 . S
H1421 C1447 0.950 . S
H1422 C1448 0.950 . S
H1423 C1450 0.950 . S
H1424 C1453 0.950 . S
H1425 C1454 0.950 1_565 S
H1426 C1456 0.950 . S
H1427 C1457 0.950 . S
C1428 H1410 0.951 . S
C1428 C1429 1.366 . S
C1428 C1430 1.388 . S
C1429 C1428 1.366 . S
C1429 C1433 1.385 . S
C1430 H1411 0.951 . S
C1430 C1428 1.388 . S
C1430 C1431 1.366 . S
C1431 C1430 1.366 . S
C1431 C1432 1.414 . S
C1431 C1434 1.499 . S
C1432 H1412 0.950 . S
C1432 C1431 1.414 . S
C1432 C1433 1.374 . S
C1433 H1413 0.950 . S
C1433 C1429 1.385 . S
C1433 C1432 1.374 . S
C1434 C1431 1.499 . S
C1434 C1435 1.373 . S
C1434 C1436 1.389 . S
C1435 H1414 0.950 . S
C1435 C1434 1.373 . S
C1435 C1451 1.377 . S
C1436 C1434 1.389 . S
C1436 C1437 1.524 . S
C1436 C1450 1.377 . S
C1437 C1436 1.524 . S
C1437 C1438 1.397 . S
C1437 C1442 1.363 . S
C1438 H1415 0.950 . S
C1438 C1437 1.397 . S
C1438 C1439 1.334 . S
C1439 H1416 0.950 . S
C1439 C1438 1.334 . S
C1439 C1440 1.287 . S
C1440 C1439 1.287 . S
C1440 C1441 1.524 . S
C1440 H1459 0.913 . S
C1441 H1417 0.950 . S
C1441 C1440 1.524 . S
C1441 C1442 1.415 . S
C1442 H1418 0.950 . S
C1442 C1437 1.363 . S
C1442 C1441 1.415 . S
C1443 H1419 0.951 . S
C1443 C1444 1.366 . S
C1443 C1445 1.388 . S
C1444 C1443 1.366 . S
C1444 C1448 1.385 . S
C1445 H1420 0.951 . S
C1445 C1443 1.388 . S
C1445 C1446 1.366 . S
C1446 C1445 1.366 . S
C1446 C1447 1.414 . S
C1446 C1449 1.499 . S
C1447 H1421 0.950 . S
C1447 C1446 1.414 . S
C1447 C1448 1.374 . S
C1448 H1422 0.950 . S
C1448 C1444 1.385 . S
C1448 C1447 1.374 . S
C1449 C1446 1.499 . S
C1449 C1450 1.373 . S
C1449 C1451 1.389 . S
C1450 H1423 0.950 . S
C1450 C1436 1.377 . S
C1450 C1449 1.373 . S
C1451 C1435 1.377 . S
C1451 C1449 1.389 . S
C1451 C1452 1.524 . S
C1452 C1451 1.524 . S
C1452 C1453 1.397 . S
C1452 C1457 1.363 . S
C1453 H1424 0.950 . S
C1453 C1452 1.397 . S
C1453 C1454 1.334 . S
C1454 H1425 0.950 1_545 S
C1454 C1453 1.334 . S
C1454 C1455 1.287 . S
C1455 C1454 1.287 . S
C1455 C1456 1.524 . S
C1455 H1458 0.999 . S
C1456 H1426 0.950 . S
C1456 C1455 1.524 . S
C1456 C1457 1.415 . S
C1457 H1427 0.950 . S
C1457 C1452 1.363 . S
C1457 C1456 1.415 . S
H1458 C1455 0.999 . S
H1459 C1440 0.913 . S
H1460 C1478 0.951 . S
H1461 C1480 0.951 . S
H1462 C1482 0.950 . S
H1463 C1483 0.950 . S
H1464 C1485 0.950 . S
H1465 C1488 0.950 . S
H1466 C1489 0.950 . S
H1467 C1491 0.950 1_556 S
H1468 C1492 0.950 . S
H1469 C1493 0.951 . S
H1470 C1495 0.951 . S
H1471 C1497 0.950 . S
H1472 C1498 0.950 1_556 S
H1473 C1500 0.950 . S
H1474 C1503 0.950 . S
H1475 C1504 0.950 . S
H1476 C1506 0.950 . S
H1477 C1507 0.950 . S
C1478 H1460 0.951 . S
C1478 C1479 1.366 . S
C1478 C1480 1.388 . S
C1479 C1478 1.366 . S
C1479 C1483 1.385 . S
C1480 H1461 0.951 . S
C1480 C1478 1.388 . S
C1480 C1481 1.366 . S
C1481 C1480 1.366 . S
C1481 C1482 1.414 . S
C1481 C1484 1.499 . S
C1482 H1462 0.950 . S
C1482 C1481 1.414 . S
C1482 C1483 1.374 . S
C1483 H1463 0.950 . S
C1483 C1479 1.385 . S
C1483 C1482 1.374 . S
C1484 C1481 1.499 . S
C1484 C1485 1.373 . S
C1484 C1486 1.389 . S
C1485 H1464 0.950 . S
C1485 C1484 1.373 . S
C1485 C1501 1.377 . S
C1486 C1484 1.389 . S
C1486 C1487 1.524 . S
C1486 C1500 1.377 . S
C1487 C1486 1.524 . S
C1487 C1488 1.397 . S
C1487 C1492 1.363 . S
C1488 H1465 0.950 . S
C1488 C1487 1.397 . S
C1488 C1489 1.334 . S
C1489 H1466 0.950 . S
C1489 C1488 1.334 . S
C1489 C1490 1.287 . S
C1490 C1489 1.287 . S
C1490 C1491 1.524 . S
C1490 H1509 0.913 . S
C1491 H1467 0.950 1_554 S
C1491 C1490 1.524 . S
C1491 C1492 1.415 . S
C1492 H1468 0.950 . S
C1492 C1487 1.363 . S
C1492 C1491 1.415 . S
C1493 H1469 0.951 . S
C1493 C1494 1.366 . S
C1493 C1495 1.388 . S
C1494 C1493 1.366 . S
C1494 C1498 1.385 . S
C1495 H1470 0.951 . S
C1495 C1493 1.388 . S
C1495 C1496 1.366 . S
C1496 C1495 1.366 . S
C1496 C1497 1.414 . S
C1496 C1499 1.499 . S
C1497 H1471 0.950 . S
C1497 C1496 1.414 . S
C1497 C1498 1.374 . S
C1498 H1472 0.950 1_554 S
C1498 C1494 1.385 . S
C1498 C1497 1.374 . S
C1499 C1496 1.499 . S
C1499 C1500 1.373 . S
C1499 C1501 1.389 . S
C1500 H1473 0.950 . S
C1500 C1486 1.377 . S
C1500 C1499 1.373 . S
C1501 C1485 1.377 . S
C1501 C1499 1.389 . S
C1501 C1502 1.524 . S
C1502 C1501 1.524 . S
C1502 C1503 1.397 . S
C1502 C1507 1.363 . S
C1503 H1474 0.950 . S
C1503 C1502 1.397 . S
C1503 C1504 1.334 . S
C1504 H1475 0.950 . S
C1504 C1503 1.334 . S
C1504 C1505 1.287 . S
C1505 C1504 1.287 . S
C1505 C1506 1.524 . S
C1505 H1508 0.999 . S
C1506 H1476 0.950 . S
C1506 C1505 1.524 . S
C1506 C1507 1.415 . S
C1507 H1477 0.950 . S
C1507 C1502 1.363 . S
C1507 C1506 1.415 . S
H1508 C1505 0.999 . S
H1509 C1490 0.913 . S
H1510 C1528 0.951 . S
H1511 C1530 0.951 . S
H1512 C1532 0.950 . S
H1513 C1533 0.950 . S
H1514 C1535 0.950 . S
H1515 C1538 0.950 . S
H1516 C1539 0.950 . S
H1517 C1541 0.950 . S
H1518 C1542 0.950 . S
H1519 C1543 0.951 . S
H1520 C1545 0.951 . S
H1521 C1547 0.950 . S
H1522 C1548 0.950 . S
H1523 C1550 0.950 . S
H1524 C1553 0.950 . S
H1525 C1554 0.950 . S
H1526 C1556 0.950 . S
H1527 C1557 0.950 . S
C1528 H1510 0.951 . S
C1528 C1529 1.366 . S
C1528 C1530 1.388 . S
C1529 C1528 1.366 . S
C1529 C1533 1.385 . S
C1530 H1511 0.951 . S
C1530 C1528 1.388 . S
C1530 C1531 1.366 . S
C1531 C1530 1.366 . S
C1531 C1532 1.414 . S
C1531 C1534 1.499 . S
C1532 H1512 0.950 . S
C1532 C1531 1.414 . S
C1532 C1533 1.374 . S
C1533 H1513 0.950 . S
C1533 C1529 1.385 . S
C1533 C1532 1.374 . S
C1534 C1531 1.499 . S
C1534 C1535 1.373 . S
C1534 C1536 1.389 . S
C1535 H1514 0.950 . S
C1535 C1534 1.373 . S
C1535 C1551 1.377 . S
C1536 C1534 1.389 . S
C1536 C1537 1.524 . S
C1536 C1550 1.377 . S
C1537 C1536 1.524 . S
C1537 C1538 1.397 . S
C1537 C1542 1.363 . S
C1538 H1515 0.950 . S
C1538 C1537 1.397 . S
C1538 C1539 1.334 . S
C1539 H1516 0.950 . S
C1539 C1538 1.334 . S
C1539 C1540 1.287 . S
C1540 C1539 1.287 . S
C1540 C1541 1.524 . S
C1540 H1559 0.913 . S
C1541 H1517 0.950 . S
C1541 C1540 1.524 . S
C1541 C1542 1.415 . S
C1542 H1518 0.950 . S
C1542 C1537 1.363 . S
C1542 C1541 1.415 . S
C1543 H1519 0.951 . S
C1543 C1544 1.366 . S
C1543 C1545 1.388 . S
C1544 C1543 1.366 . S
C1544 C1548 1.385 . S
C1545 H1520 0.951 . S
C1545 C1543 1.388 . S
C1545 C1546 1.366 . S
C1546 C1545 1.366 . S
C1546 C1547 1.414 . S
C1546 C1549 1.499 . S
C1547 H1521 0.950 . S
C1547 C1546 1.414 . S
C1547 C1548 1.374 . S
C1548 H1522 0.950 . S
C1548 C1544 1.385 . S
C1548 C1547 1.374 . S
C1549 C1546 1.499 . S
C1549 C1550 1.373 . S
C1549 C1551 1.389 . S
C1550 H1523 0.950 . S
C1550 C1536 1.377 . S
C1550 C1549 1.373 . S
C1551 C1535 1.377 . S
C1551 C1549 1.389 . S
C1551 C1552 1.524 . S
C1552 C1551 1.524 . S
C1552 C1553 1.397 . S
C1552 C1557 1.363 . S
C1553 H1524 0.950 . S
C1553 C1552 1.397 . S
C1553 C1554 1.334 . S
C1554 H1525 0.950 . S
C1554 C1553 1.334 . S
C1554 C1555 1.287 . S
C1555 C1554 1.287 . S
C1555 C1556 1.524 . S
C1555 H1558 0.999 . S
C1556 H1526 0.950 . S
C1556 C1555 1.524 . S
C1556 C1557 1.415 . S
C1557 H1527 0.950 . S
C1557 C1552 1.363 . S
C1557 C1556 1.415 . S
H1558 C1555 0.999 . S
H1559 C1540 0.913 . S
H1560 C1578 0.951 . S
H1561 C1580 0.951 . S
H1562 C1582 0.950 . S
H1563 C1583 0.950 . S
H1564 C1585 0.950 . S
H1565 C1588 0.950 . S
H1566 C1589 0.950 . S
H1567 C1591 0.950 . S
H1568 C1592 0.950 . S
H1569 C1593 0.951 . S
H1570 C1595 0.951 . S
H1571 C1597 0.950 . S
H1572 C1598 0.950 . S
H1573 C1600 0.950 . S
H1574 C1603 0.950 . S
H1575 C1604 0.950 . S
H1576 C1606 0.950 . S
H1577 C1607 0.950 . S
C1578 H1560 0.951 . S
C1578 C1579 1.366 . S
C1578 C1580 1.388 . S
C1579 C1578 1.366 . S
C1579 C1583 1.385 . S
C1580 H1561 0.951 . S
C1580 C1578 1.388 . S
C1580 C1581 1.366 . S
C1581 C1580 1.366 . S
C1581 C1582 1.414 . S
C1581 C1584 1.499 . S
C1582 H1562 0.950 . S
C1582 C1581 1.414 . S
C1582 C1583 1.374 . S
C1583 H1563 0.950 . S
C1583 C1579 1.385 . S
C1583 C1582 1.374 . S
C1584 C1581 1.499 . S
C1584 C1585 1.373 . S
C1584 C1586 1.389 . S
C1585 H1564 0.950 . S
C1585 C1584 1.373 . S
C1585 C1601 1.377 . S
C1586 C1584 1.389 . S
C1586 C1587 1.524 . S
C1586 C1600 1.377 . S
C1587 C1586 1.524 . S
C1587 C1588 1.397 . S
C1587 C1592 1.363 . S
C1588 H1565 0.950 . S
C1588 C1587 1.397 . S
C1588 C1589 1.334 . S
C1589 H1566 0.950 . S
C1589 C1588 1.334 . S
C1589 C1590 1.287 . S
C1590 C1589 1.287 . S
C1590 C1591 1.524 . S
C1590 H1609 0.913 . S
C1591 H1567 0.950 . S
C1591 C1590 1.524 . S
C1591 C1592 1.415 . S
C1592 H1568 0.950 . S
C1592 C1587 1.363 . S
C1592 C1591 1.415 . S
C1593 H1569 0.951 . S
C1593 C1594 1.366 . S
C1593 C1595 1.388 . S
C1594 C1593 1.366 . S
C1594 C1598 1.385 . S
C1595 H1570 0.951 . S
C1595 C1593 1.388 . S
C1595 C1596 1.366 . S
C1596 C1595 1.366 . S
C1596 C1597 1.414 . S
C1596 C1599 1.499 . S
C1597 H1571 0.950 . S
C1597 C1596 1.414 . S
C1597 C1598 1.374 . S
C1598 H1572 0.950 . S
C1598 C1594 1.385 . S
C1598 C1597 1.374 . S
C1599 C1596 1.499 . S
C1599 C1600 1.373 . S
C1599 C1601 1.389 . S
C1600 H1573 0.950 . S
C1600 C1586 1.377 . S
C1600 C1599 1.373 . S
C1601 C1585 1.377 . S
C1601 C1599 1.389 . S
C1601 C1602 1.524 . S
C1602 C1601 1.524 . S
C1602 C1603 1.397 . S
C1602 C1607 1.363 . S
C1603 H1574 0.950 . S
C1603 C1602 1.397 . S
C1603 C1604 1.334 . S
C1604 H1575 0.950 . S
C1604 C1603 1.334 . S
C1604 C1605 1.287 . S
C1605 C1604 1.287 . S
C1605 C1606 1.524 . S
C1605 H1608 0.999 . S
C1606 H1576 0.950 . S
C1606 C1605 1.524 . S
C1606 C1607 1.415 . S
C1607 H1577 0.950 . S
C1607 C1602 1.363 . S
C1607 C1606 1.415 . S
H1608 C1605 0.999 . S
H1609 C1590 0.913 . S
H1610 C1628 0.951 . S
H1611 C1630 0.951 . S
H1612 C1632 0.950 . S
H1613 C1633 0.950 . S
H1614 C1635 0.950 . S
H1615 C1638 0.950 . S
H1616 C1639 0.950 . S
H1617 C1641 0.950 . S
H1618 C1642 0.950 . S
H1619 C1643 0.951 . S
H1620 C1645 0.951 . S
H1621 C1647 0.950 . S
H1622 C1648 0.950 . S
H1623 C1650 0.950 . S
H1624 C1653 0.950 . S
H1625 C1654 0.950 . S
H1626 C1656 0.950 . S
H1627 C1657 0.950 . S
C1628 H1610 0.951 . S
C1628 C1629 1.366 . S
C1628 C1630 1.388 . S
C1629 C1628 1.366 . S
C1629 C1633 1.385 . S
C1630 H1611 0.951 . S
C1630 C1628 1.388 . S
C1630 C1631 1.366 . S
C1631 C1630 1.366 . S
C1631 C1632 1.414 . S
C1631 C1634 1.499 . S
C1632 H1612 0.950 . S
C1632 C1631 1.414 . S
C1632 C1633 1.374 . S
C1633 H1613 0.950 . S
C1633 C1629 1.385 . S
C1633 C1632 1.374 . S
C1634 C1631 1.499 . S
C1634 C1635 1.373 . S
C1634 C1636 1.389 . S
C1635 H1614 0.950 . S
C1635 C1634 1.373 . S
C1635 C1651 1.377 . S
C1636 C1634 1.389 . S
C1636 C1637 1.524 . S
C1636 C1650 1.377 . S
C1637 C1636 1.524 . S
C1637 C1638 1.397 . S
C1637 C1642 1.363 . S
C1638 H1615 0.950 . S
C1638 C1637 1.397 . S
C1638 C1639 1.334 . S
C1639 H1616 0.950 . S
C1639 C1638 1.334 . S
C1639 C1640 1.287 . S
C1640 C1639 1.287 . S
C1640 C1641 1.524 . S
C1640 H1659 0.913 . S
C1641 H1617 0.950 . S
C1641 C1640 1.524 . S
C1641 C1642 1.415 . S
C1642 H1618 0.950 . S
C1642 C1637 1.363 . S
C1642 C1641 1.415 . S
C1643 H1619 0.951 . S
C1643 C1644 1.366 . S
C1643 C1645 1.388 . S
C1644 C1643 1.366 . S
C1644 C1648 1.385 . S
C1645 H1620 0.951 . S
C1645 C1643 1.388 . S
C1645 C1646 1.366 . S
C1646 C1645 1.366 . S
C1646 C1647 1.414 . S
C1646 C1649 1.499 . S
C1647 H1621 0.950 . S
C1647 C1646 1.414 . S
C1647 C1648 1.374 . S
C1648 H1622 0.950 . S
C1648 C1644 1.385 . S
C1648 C1647 1.374 . S
C1649 C1646 1.499 . S
C1649 C1650 1.373 . S
C1649 C1651 1.389 . S
C1650 H1623 0.950 . S
C1650 C1636 1.377 . S
C1650 C1649 1.373 . S
C1651 C1635 1.377 . S
C1651 C1649 1.389 . S
C1651 C1652 1.524 . S
C1652 C1651 1.524 . S
C1652 C1653 1.397 . S
C1652 C1657 1.363 . S
C1653 H1624 0.950 . S
C1653 C1652 1.397 . S
C1653 C1654 1.334 1_554 S
C1654 H1625 0.950 . S
C1654 C1653 1.334 1_556 S
C1654 C1655 1.287 . S
C1655 C1654 1.287 . S
C1655 C1656 1.524 . S
C1655 H1658 0.999 . S
C1656 H1626 0.950 . S
C1656 C1655 1.524 . S
C1656 C1657 1.415 1_556 S
C1657 H1627 0.950 . S
C1657 C1652 1.363 . S
C1657 C1656 1.415 1_554 S
H1658 C1655 0.999 . S
H1659 C1640 0.913 . S
H1660 C1678 0.951 . S
H1661 C1680 0.951 . S
H1662 C1682 0.950 . S
H1663 C1683 0.950 . S
H1664 C1685 0.950 . S
H1665 C1688 0.950 . S
H1666 C1689 0.950 . S
H1667 C1691 0.959 . S
H1668 C1692 0.950 . S
H1669 C1693 0.951 . S
H1670 C1695 0.951 . S
H1671 C1697 0.950 . S
H1672 C1698 0.950 1_655 S
H1673 C1700 0.950 . S
H1674 C1703 0.950 . S
H1675 C1704 0.950 . S
H1676 C1706 0.950 . S
H1677 C1707 0.950 . S
C1678 H1660 0.951 . S
C1678 C1679 1.366 . S
C1678 C1680 1.388 . S
C1679 C1678 1.366 . S
C1679 C1683 1.385 . S
C1680 H1661 0.951 . S
C1680 C1678 1.388 . S
C1680 C1681 1.366 . S
C1681 C1680 1.366 . S
C1681 C1682 1.414 . S
C1681 C1684 1.499 . S
C1682 H1662 0.950 . S
C1682 C1681 1.414 . S
C1682 C1683 1.374 . S
C1683 H1663 0.950 . S
C1683 C1679 1.385 . S
C1683 C1682 1.374 . S
C1684 C1681 1.499 . S
C1684 C1685 1.373 . S
C1684 C1686 1.389 . S
C1685 H1664 0.950 . S
C1685 C1684 1.373 . S
C1685 C1701 1.377 . S
C1686 C1684 1.389 . S
C1686 C1687 1.524 . S
C1686 C1700 1.377 . S
C1687 C1686 1.524 . S
C1687 C1688 1.397 . S
C1687 C1692 1.363 . S
C1688 H1665 0.950 . S
C1688 C1687 1.397 . S
C1688 C1689 1.334 . S
C1689 H1666 0.950 . S
C1689 C1688 1.334 . S
C1689 C1690 1.287 . S
C1690 C1689 1.287 . S
C1690 C1691 1.524 . S
C1690 H1709 0.913 . S
C1691 H1667 0.959 . S
C1691 C1690 1.524 . S
C1691 C1692 1.415 . S
C1692 H1668 0.950 . S
C1692 C1687 1.363 . S
C1692 C1691 1.415 . S
C1693 H1669 0.951 . S
C1693 C1694 1.366 . S
C1693 C1695 1.388 . S
C1694 C1693 1.366 . S
C1694 C1698 1.385 . S
C1695 H1670 0.951 . S
C1695 C1693 1.388 . S
C1695 C1696 1.366 . S
C1696 C1695 1.366 . S
C1696 C1697 1.414 . S
C1696 C1699 1.499 . S
C1697 H1671 0.950 . S
C1697 C1696 1.414 . S
C1697 C1698 1.374 . S
C1698 H1672 0.950 1_455 S
C1698 C1694 1.385 . S
C1698 C1697 1.374 . S
C1699 C1696 1.499 . S
C1699 C1700 1.373 . S
C1699 C1701 1.389 . S
C1700 H1673 0.950 . S
C1700 C1686 1.377 . S
C1700 C1699 1.373 . S
C1701 C1685 1.377 . S
C1701 C1699 1.389 . S
C1701 C1702 1.524 . S
C1702 C1701 1.524 . S
C1702 C1703 1.397 . S
C1702 C1707 1.363 . S
C1703 H1674 0.950 . S
C1703 C1702 1.397 . S
C1703 C1704 1.334 . S
C1704 H1675 0.950 . S
C1704 C1703 1.334 . S
C1704 C1705 1.287 . S
C1705 C1704 1.287 . S
C1705 C1706 1.524 . S
C1705 H1708 0.999 . S
C1706 H1676 0.950 . S
C1706 C1705 1.524 . S
C1706 C1707 1.415 . S
C1707 H1677 0.950 . S
C1707 C1702 1.363 . S
C1707 C1706 1.415 . S
H1708 C1705 0.999 . S
H1709 C1690 0.913 . S
H1710 C1728 0.951 . S
H1711 C1730 0.951 . S
H1712 C1732 0.950 . S
H1713 C1733 0.950 . S
H1714 C1735 0.950 . S
H1715 C1738 0.950 . S
H1716 C1739 0.950 . S
H1717 C1741 0.950 . S
H1718 C1742 0.950 . S
H1719 C1743 0.951 . S
H1720 C1745 0.951 . S
H1721 C1747 0.950 . S
H1722 C1748 0.950 . S
H1723 C1750 0.950 . S
H1724 C1753 0.950 . S
H1725 C1754 0.950 . S
H1726 C1756 0.950 . S
H1727 C1757 0.950 . S
C1728 H1710 0.951 . S
C1728 C1729 1.366 . S
C1728 C1730 1.388 . S
C1729 C1728 1.366 . S
C1729 C1733 1.385 . S
C1730 H1711 0.951 . S
C1730 C1728 1.388 . S
C1730 C1731 1.366 . S
C1731 C1730 1.366 . S
C1731 C1732 1.414 . S
C1731 C1734 1.499 . S
C1732 H1712 0.950 . S
C1732 C1731 1.414 . S
C1732 C1733 1.374 . S
C1733 H1713 0.950 . S
C1733 C1729 1.385 . S
C1733 C1732 1.374 . S
C1734 C1731 1.499 . S
C1734 C1735 1.373 . S
C1734 C1736 1.389 . S
C1735 H1714 0.950 . S
C1735 C1734 1.373 . S
C1735 C1751 1.377 . S
C1736 C1734 1.389 . S
C1736 C1737 1.524 . S
C1736 C1750 1.377 . S
C1737 C1736 1.524 . S
C1737 C1738 1.397 . S
C1737 C1742 1.363 . S
C1738 H1715 0.950 . S
C1738 C1737 1.397 . S
C1738 C1739 1.334 . S
C1739 H1716 0.950 . S
C1739 C1738 1.334 . S
C1739 C1740 1.287 . S
C1740 C1739 1.287 . S
C1740 C1741 1.524 . S
C1740 H1759 0.913 . S
C1741 H1717 0.950 . S
C1741 C1740 1.524 . S
C1741 C1742 1.415 . S
C1742 H1718 0.950 . S
C1742 C1737 1.363 . S
C1742 C1741 1.415 . S
C1743 H1719 0.951 . S
C1743 C1744 1.366 . S
C1743 C1745 1.388 . S
C1744 C1743 1.366 . S
C1744 C1748 1.385 . S
C1745 H1720 0.951 . S
C1745 C1743 1.388 . S
C1745 C1746 1.366 . S
C1746 C1745 1.366 . S
C1746 C1747 1.414 . S
C1746 C1749 1.499 . S
C1747 H1721 0.950 . S
C1747 C1746 1.414 . S
C1747 C1748 1.374 . S
C1748 H1722 0.950 . S
C1748 C1744 1.385 . S
C1748 C1747 1.374 . S
C1749 C1746 1.499 . S
C1749 C1750 1.373 . S
C1749 C1751 1.389 . S
C1750 H1723 0.950 . S
C1750 C1736 1.377 . S
C1750 C1749 1.373 . S
C1751 C1735 1.377 . S
C1751 C1749 1.389 . S
C1751 C1752 1.524 . S
C1752 C1751 1.524 . S
C1752 C1753 1.397 . S
C1752 C1757 1.363 . S
C1753 H1724 0.950 . S
C1753 C1752 1.397 . S
C1753 C1754 1.334 . S
C1754 H1725 0.950 . S
C1754 C1753 1.334 . S
C1754 C1755 1.287 . S
C1755 C1754 1.287 . S
C1755 C1756 1.524 . S
C1755 H1758 0.999 . S
C1756 H1726 0.950 . S
C1756 C1755 1.524 . S
C1756 C1757 1.415 . S
C1757 H1727 0.950 . S
C1757 C1752 1.363 . S
C1757 C1756 1.415 . S
H1758 C1755 0.999 . S
H1759 C1740 0.913 . S
C579 C1 1.490 . S
C594 C482 1.548 . S
C629 C80 1.346 . S
C644 C501 1.366 . S
C694 C538 1.728 . S
C679 C140 1.716 . S
C729 C211 1.639 . S
C744 C548 1.625 . S
C794 C518 2.049 . S
C779 C31 1.932 . S
C844 C488 1.444 . S
C829 C61 1.450 . S
C894 C559 1.478 . S
C879 C151 1.484 . S
C944 C529 1.349 . S
C929 C200 1.346 . S
C979 C20 1.761 . S
C994 C542 1.810 . S
C1044 C509 1.697 . S
C1029 C121 1.723 . S
C1079 C181 1.699 . S
C1094 C499 1.736 . S
C1129 C91 1.208 . S
C1144 C521 1.211 . S
C1194 C481 1.553 . S
C1179 C260 1.496 . S
C1229 C320 1.347 . S
C1244 C502 1.355 . S
C1279 C361 1.724 . S
C1294 C539 1.728 . S
C1329 C451 1.638 . S
C1344 C549 1.628 . S
C1379 C271 1.974 . S
C1394 C519 2.054 . S
C1444 C489 1.444 . S
C1429 C301 1.453 . S
C1494 C558 1.479 . S
C1479 C380 1.474 . S
C1544 C528 1.349 . S
C1529 C440 1.345 . S
C1579 C241 1.735 . S
C1594 C541 1.820 . S
C1644 C508 1.697 . S
C1629 C391 1.731 . S
C1694 C498 1.731 . S
C1679 C421 1.694 . S
C1729 C331 1.208 . S
C1744 C522 1.210 . S
