# Generated by pormake.
# Topology ctn, (3,4)-cn, num edge types: 1
# Building blocks:
#     Node 0, Type 0, BuildingBlock: PAMTOO_clean_linker_0, # of connection points: 3
#     Node 1, Type 0, BuildingBlock: PAMTOO_clean_linker_0, # of connection points: 3
#     Node 2, Type 0, BuildingBlock: PAMTOO_clean_linker_0, # of connection points: 3
#     Node 3, Type 0, BuildingBlock: PAMTOO_clean_linker_0, # of connection points: 3
#     Node 4, Type 0, BuildingBlock: PAMTOO_clean_linker_0, # of connection points: 3
#     Node 5, Type 0, BuildingBlock: PAMTOO_clean_linker_0, # of connection points: 3
#     Node 6, Type 0, BuildingBlock: PAMTOO_clean_linker_0, # of connection points: 3
#     Node 7, Type 0, BuildingBlock: PAMTOO_clean_linker_0, # of connection points: 3
#     Node 8, Type 0, BuildingBlock: PAMTOO_clean_linker_0, # of connection points: 3
#     Node 9, Type 0, BuildingBlock: PAMTOO_clean_linker_0, # of connection points: 3
#     Node 10, Type 0, BuildingBlock: PAMTOO_clean_linker_0, # of connection points: 3
#     Node 11, Type 0, BuildingBlock: PAMTOO_clean_linker_0, # of connection points: 3
#     Node 12, Type 0, BuildingBlock: PAMTOO_clean_linker_0, # of connection points: 3
#     Node 13, Type 0, BuildingBlock: PAMTOO_clean_linker_0, # of connection points: 3
#     Node 14, Type 0, BuildingBlock: PAMTOO_clean_linker_0, # of connection points: 3
#     Node 15, Type 0, BuildingBlock: PAMTOO_clean_linker_0, # of connection points: 3
#     Node 16, Type 1, BuildingBlock: QUQFOY_clean_sbu_1, # of connection points: 4
#     Node 17, Type 1, BuildingBlock: QUQFOY_clean_sbu_1, # of connection points: 4
#     Node 18, Type 1, BuildingBlock: QUQFOY_clean_sbu_1, # of connection points: 4
#     Node 19, Type 1, BuildingBlock: QUQFOY_clean_sbu_1, # of connection points: 4
#     Node 20, Type 1, BuildingBlock: QUQFOY_clean_sbu_1, # of connection points: 4
#     Node 21, Type 1, BuildingBlock: QUQFOY_clean_sbu_1, # of connection points: 4
#     Node 22, Type 1, BuildingBlock: QUQFOY_clean_sbu_1, # of connection points: 4
#     Node 23, Type 1, BuildingBlock: QUQFOY_clean_sbu_1, # of connection points: 4
#     Node 24, Type 1, BuildingBlock: QUQFOY_clean_sbu_1, # of connection points: 4
#     Node 25, Type 1, BuildingBlock: QUQFOY_clean_sbu_1, # of connection points: 4
#     Node 26, Type 1, BuildingBlock: QUQFOY_clean_sbu_1, # of connection points: 4
#     Node 27, Type 1, BuildingBlock: QUQFOY_clean_sbu_1, # of connection points: 4
#     Edge 28, Type (0, 1), BuildingBlock: AJUNOK_clean_linker_0, # of connection points: 2
#     Edge 29, Type (0, 1), BuildingBlock: AJUNOK_clean_linker_0, # of connection points: 2
#     Edge 30, Type (0, 1), BuildingBlock: AJUNOK_clean_linker_0, # of connection points: 2
#     Edge 31, Type (0, 1), BuildingBlock: AJUNOK_clean_linker_0, # of connection points: 2
#     Edge 32, Type (0, 1), BuildingBlock: AJUNOK_clean_linker_0, # of connection points: 2
#     Edge 33, Type (0, 1), BuildingBlock: AJUNOK_clean_linker_0, # of connection points: 2
#     Edge 34, Type (0, 1), BuildingBlock: AJUNOK_clean_linker_0, # of connection points: 2
#     Edge 35, Type (0, 1), BuildingBlock: AJUNOK_clean_linker_0, # of connection points: 2
#     Edge 36, Type (0, 1), BuildingBlock: AJUNOK_clean_linker_0, # of connection points: 2
#     Edge 37, Type (0, 1), BuildingBlock: AJUNOK_clean_linker_0, # of connection points: 2
#     Edge 38, Type (0, 1), BuildingBlock: AJUNOK_clean_linker_0, # of connection points: 2
#     Edge 39, Type (0, 1), BuildingBlock: AJUNOK_clean_linker_0, # of connection points: 2
#     Edge 40, Type (0, 1), BuildingBlock: AJUNOK_clean_linker_0, # of connection points: 2
#     Edge 41, Type (0, 1), BuildingBlock: AJUNOK_clean_linker_0, # of connection points: 2
#     Edge 42, Type (0, 1), BuildingBlock: AJUNOK_clean_linker_0, # of connection points: 2
#     Edge 43, Type (0, 1), BuildingBlock: AJUNOK_clean_linker_0, # of connection points: 2
#     Edge 44, Type (0, 1), BuildingBlock: AJUNOK_clean_linker_0, # of connection points: 2
#     Edge 45, Type (0, 1), BuildingBlock: AJUNOK_clean_linker_0, # of connection points: 2
#     Edge 46, Type (0, 1), BuildingBlock: AJUNOK_clean_linker_0, # of connection points: 2
#     Edge 47, Type (0, 1), BuildingBlock: AJUNOK_clean_linker_0, # of connection points: 2
#     Edge 48, Type (0, 1), BuildingBlock: AJUNOK_clean_linker_0, # of connection points: 2
#     Edge 49, Type (0, 1), BuildingBlock: AJUNOK_clean_linker_0, # of connection points: 2
#     Edge 50, Type (0, 1), BuildingBlock: AJUNOK_clean_linker_0, # of connection points: 2
#     Edge 51, Type (0, 1), BuildingBlock: AJUNOK_clean_linker_0, # of connection points: 2
#     Edge 52, Type (0, 1), BuildingBlock: AJUNOK_clean_linker_0, # of connection points: 2
#     Edge 53, Type (0, 1), BuildingBlock: AJUNOK_clean_linker_0, # of connection points: 2
#     Edge 54, Type (0, 1), BuildingBlock: AJUNOK_clean_linker_0, # of connection points: 2
#     Edge 55, Type (0, 1), BuildingBlock: AJUNOK_clean_linker_0, # of connection points: 2
#     Edge 56, Type (0, 1), BuildingBlock: AJUNOK_clean_linker_0, # of connection points: 2
#     Edge 57, Type (0, 1), BuildingBlock: AJUNOK_clean_linker_0, # of connection points: 2
#     Edge 58, Type (0, 1), BuildingBlock: AJUNOK_clean_linker_0, # of connection points: 2
#     Edge 59, Type (0, 1), BuildingBlock: AJUNOK_clean_linker_0, # of connection points: 2
#     Edge 60, Type (0, 1), BuildingBlock: AJUNOK_clean_linker_0, # of connection points: 2
#     Edge 61, Type (0, 1), BuildingBlock: AJUNOK_clean_linker_0, # of connection points: 2
#     Edge 62, Type (0, 1), BuildingBlock: AJUNOK_clean_linker_0, # of connection points: 2
#     Edge 63, Type (0, 1), BuildingBlock: AJUNOK_clean_linker_0, # of connection points: 2
#     Edge 64, Type (0, 1), BuildingBlock: AJUNOK_clean_linker_0, # of connection points: 2
#     Edge 65, Type (0, 1), BuildingBlock: AJUNOK_clean_linker_0, # of connection points: 2
#     Edge 66, Type (0, 1), BuildingBlock: AJUNOK_clean_linker_0, # of connection points: 2
#     Edge 67, Type (0, 1), BuildingBlock: AJUNOK_clean_linker_0, # of connection points: 2
#     Edge 68, Type (0, 1), BuildingBlock: AJUNOK_clean_linker_0, # of connection points: 2
#     Edge 69, Type (0, 1), BuildingBlock: AJUNOK_clean_linker_0, # of connection points: 2
#     Edge 70, Type (0, 1), BuildingBlock: AJUNOK_clean_linker_0, # of connection points: 2
#     Edge 71, Type (0, 1), BuildingBlock: AJUNOK_clean_linker_0, # of connection points: 2
#     Edge 72, Type (0, 1), BuildingBlock: AJUNOK_clean_linker_0, # of connection points: 2
#     Edge 73, Type (0, 1), BuildingBlock: AJUNOK_clean_linker_0, # of connection points: 2
#     Edge 74, Type (0, 1), BuildingBlock: AJUNOK_clean_linker_0, # of connection points: 2
#     Edge 75, Type (0, 1), BuildingBlock: AJUNOK_clean_linker_0, # of connection points: 2
# Relax obj value: 0.095
# Max RMSD: 0.212
# Mean RMSD: 0.142
data_MOF--net-ctn--node1-QUQFOY_clean_sbu_1--node2-PAMTOO_clean_linker_0--edge1-AJUNOK_clean_linker_0
_symmetry_space_group_name_H-M    P1
_symmetry_Int_Tables_number       1
_symmetry_cell_setting            triclinic
loop_
_symmetry_equiv_pos_as_xyz
'x, y, z'
_cell_length_a     39.606491
_cell_length_b     39.795218
_cell_length_c     40.523968
_cell_angle_alpha  87.254331
_cell_angle_beta   92.614478
_cell_angle_gamma 103.43868
loop_
_atom_site_label
_atom_site_type_symbol
_atom_site_fract_x
_atom_site_fract_y
_atom_site_fract_z
_atom_type_partial_charge
H0 H 0.0056 0.1302 0.0653 0.0
H1 H 0.05165 0.04361 0.08904 0.0
H2 H 0.0727 0.10089 0.99703 0.0
H3 H 0.06193 0.02463 0.99614 0.0
C4 C 0.07604 0.02019 0.01975 0.0
O5 O 0.08736 0.05096 0.03556 0.0
H6 H 0.05747 0.00157 0.03542 0.0
C7 C 0.02133 0.11281 0.05866 0.0
C8 C 0.03728 0.11794 0.02797 0.0
C9 C 0.02532 0.0855 0.08066 0.0
C10 C 0.04795 0.06483 0.07259 0.0
C11 C 0.0654 0.07079 0.04278 0.0
C12 C 0.05989 0.09716 0.02043 0.0
H13 H 0.30384 0.69389 0.28706 0.0
H14 H 0.24793 0.72035 0.19978 0.0
H15 H 0.33478 0.79472 0.23896 0.0
H16 H 0.26921 0.82282 0.20936 0.0
C17 C 0.26112 0.80161 0.19172 0.0
O18 O 0.2863 0.7827 0.19217 0.0
H19 H 0.23583 0.78493 0.19935 0.0
C20 C 0.30003 0.71249 0.26765 0.0
C21 C 0.32292 0.74527 0.26588 0.0
C22 C 0.27226 0.70349 0.24448 0.0
C23 C 0.26835 0.72721 0.21864 0.0
C24 C 0.29045 0.76016 0.21712 0.0
C25 C 0.3176 0.76922 0.24066 0.0
H26 H 0.96408 0.54847 0.10344 0.0
H27 H 0.94217 0.51131 0.00472 0.0
H28 H 0.0052 0.46435 0.0719 0.0
H29 H 0.03107 0.47933 0.00703 0.0
C30 C 0.00641 0.47195 0.99203 0.0
O31 O 0.97839 0.46442 0.01237 0.0
H32 H 0.00395 0.49412 0.97507 0.0
C33 C 0.96692 0.53097 0.08464 0.0
C34 C 0.98834 0.5074 0.09128 0.0
C35 C 0.94896 0.53187 0.05386 0.0
C36 C 0.95413 0.51003 0.02918 0.0
C37 C 0.97448 0.48601 0.03587 0.0
C38 C 0.99059 0.48404 0.067 0.0
H39 H 0.71056 0.87209 0.27906 0.0
H40 H 0.69436 0.76143 0.28307 0.0
H41 H 0.78919 0.82392 0.24583 0.0
H42 H 0.71071 0.73642 0.2304 0.0
C43 C 0.73846 0.73597 0.23566 0.0
O44 O 0.75408 0.76079 0.25776 0.0
H45 H 0.73781 0.71015 0.2477 0.0
C46 C 0.71941 0.84907 0.27412 0.0
C47 C 0.7526 0.85237 0.26162 0.0
C48 C 0.69804 0.81648 0.28168 0.0
C49 C 0.71022 0.78678 0.2767 0.0
C50 C 0.74243 0.78955 0.2624 0.0
C51 C 0.76354 0.82225 0.25491 0.0
H52 H 0.1097 0.96121 0.52816 0.0
H53 H 0.00911 0.95494 0.4798 0.0
H54 H 0.09619 0.03431 0.44983 0.0
H55 H 0.0369 0.05816 0.44841 0.0
C56 C 0.01611 0.03482 0.4429 0.0
O57 O 0.03057 0.00707 0.43838 0.0
H58 H 0.99865 0.02889 0.46421 0.0
C59 C 0.09292 0.97097 0.51015 0.0
C60 C 0.10695 0.00025 0.49015 0.0
C61 C 0.05753 0.95433 0.50687 0.0
C62 C 0.03652 0.967 0.48265 0.0
C63 C 0.05069 0.99542 0.46194 0.0
C64 C 0.08581 0.01175 0.46549 0.0
H65 H 0.1651 0.80497 0.80726 0.0
H66 H 0.1925 0.73127 0.74554 0.0
H67 H 0.25415 0.76306 0.83338 0.0
H68 H 0.29416 0.75708 0.77803 0.0
C69 C 0.27793 0.73323 0.76717 0.0
O70 O 0.2465 0.72359 0.78244 0.0
H71 H 0.27311 0.73863 0.7404 0.0
C72 C 0.18229 0.78839 0.80215 0.0
C73 C 0.21038 0.78658 0.82393 0.0
C74 C 0.17535 0.76819 0.77423 0.0
C75 C 0.19801 0.7475 0.76675 0.0
C76 C 0.22661 0.74598 0.78796 0.0
C77 C 0.23264 0.76531 0.81659 0.0
H78 H 0.92296 0.57343 0.53669 0.0
H79 H 0.96409 0.51964 0.46424 0.0
H80 H 0.03093 0.60491 0.51333 0.0
H81 H 0.0589 0.59979 0.44836 0.0
C82 C 0.0377 0.57724 0.44165 0.0
O83 O 0.02761 0.55742 0.46986 0.0
H84 H 0.01606 0.58794 0.43027 0.0
C85 C 0.94481 0.56984 0.52319 0.0
C86 C 0.97748 0.59213 0.52783 0.0
C87 C 0.93977 0.54385 0.50021 0.0
C88 C 0.96775 0.53971 0.4821 0.0
C89 C 0.00069 0.5614 0.48728 0.0
C90 C 0.00554 0.58771 0.51 0.0
H91 H 0.76061 0.83382 0.88055 0.0
H92 H 0.82538 0.77717 0.83466 0.0
H93 H 0.78388 0.85263 0.77775 0.0
H94 H 0.7891 0.79345 0.73935 0.0
C95 C 0.81031 0.78516 0.7541 0.0
O96 O 0.82417 0.8094 0.77718 0.0
H97 H 0.79887 0.75983 0.76667 0.0
C98 C 0.77296 0.82775 0.85901 0.0
C99 C 0.76861 0.8452 0.82866 0.0
C100 C 0.79289 0.80255 0.86161 0.0
C101 C 0.80982 0.79631 0.83352 0.0
C102 C 0.80655 0.81445 0.80353 0.0
C103 C 0.7859 0.83861 0.80108 0.0
H104 H 0.24705 0.32986 0.36917 0.0
H105 H 0.31729 0.2795 0.32325 0.0
H106 H 0.27851 0.35854 0.26946 0.0
H107 H 0.28997 0.30279 0.2264 0.0
C108 C 0.30844 0.29293 0.24364 0.0
O109 O 0.31974 0.31618 0.26818 0.0
H110 H 0.29447 0.26746 0.25435 0.0
C111 C 0.26143 0.32624 0.34803 0.0
C112 C 0.25932 0.34639 0.31881 0.0
C113 C 0.28192 0.30151 0.34995 0.0
C114 C 0.30132 0.29826 0.32256 0.0
C115 C 0.29997 0.31876 0.29377 0.0
C116 C 0.27895 0.34257 0.29183 0.0
H117 H 0.46052 0.05711 0.61229 0.0
H118 H 0.43989 0.01269 0.51637 0.0
H119 H 0.50684 0.97434 0.5867 0.0
H120 H 0.53132 0.98179 0.52199 0.0
C121 C 0.50661 0.97553 0.50696 0.0
O122 O 0.47869 0.96837 0.52743 0.0
H123 H 0.50492 0.99833 0.49054 0.0
C124 C 0.46411 0.03864 0.59478 0.0
C125 C 0.4857 0.01577 0.60366 0.0
C126 C 0.44746 0.03803 0.56324 0.0
C127 C 0.45259 0.014 0.54069 0.0
C128 C 0.47384 0.99119 0.54933 0.0
C129 C 0.49006 0.99191 0.58069 0.0
H130 H 0.23479 0.37808 0.79473 0.0
H131 H 0.19795 0.28275 0.74469 0.0
H132 H 0.2967 0.34852 0.72149 0.0
H133 H 0.25984 0.32425 0.66636 0.0
C134 C 0.24286 0.29925 0.67491 0.0
O135 O 0.25184 0.29169 0.70723 0.0
H136 H 0.21567 0.30254 0.67318 0.0
C137 C 0.23882 0.35966 0.7773 0.0
C138 C 0.26926 0.3669 0.75923 0.0
C139 C 0.21305 0.32929 0.77251 0.0
C140 C 0.21813 0.30566 0.74964 0.0
C141 C 0.24847 0.31262 0.73156 0.0
C142 C 0.27409 0.34289 0.73667 0.0
H143 H 0.81636 0.18486 0.77906 0.0
H144 H 0.75309 0.20721 0.69532 0.0
H145 H 0.84604 0.28098 0.72249 0.0
H146 H 0.78678 0.31228 0.70104 0.0
C147 C 0.77256 0.29162 0.68468 0.0
O148 O 0.7923 0.26767 0.68127 0.0
H149 H 0.74758 0.27859 0.69603 0.0
C150 C 0.81161 0.20193 0.75861 0.0
C151 C 0.83551 0.2336 0.75284 0.0
C152 C 0.78141 0.19236 0.73843 0.0
C153 C 0.77566 0.21447 0.71182 0.0
C154 C 0.79874 0.24638 0.70644 0.0
C155 C 0.82859 0.25597 0.72682 0.0
H156 H 0.50847 0.63728 0.57657 0.0
H157 H 0.55609 0.5513 0.59788 0.0
H158 H 0.56618 0.6032 0.50249 0.0
H159 H 0.55247 0.52551 0.50626 0.0
C160 C 0.57066 0.5229 0.52748 0.0
O161 O 0.58439 0.55478 0.5406 0.0
H162 H 0.55558 0.50534 0.54655 0.0
C163 C 0.52348 0.61961 0.56893 0.0
C164 C 0.53549 0.62277 0.53656 0.0
C165 C 0.53052 0.59397 0.59149 0.0
C166 C 0.55095 0.57194 0.58145 0.0
C167 C 0.56415 0.57564 0.54962 0.0
C168 C 0.55643 0.60101 0.52724 0.0
H169 H 0.6089 0.49177 0.05223 0.0
H170 H 0.5098 0.47655 0.9988 0.0
H171 H 0.58865 0.56816 0.98015 0.0
H172 H 0.52497 0.58202 0.97548 0.0
C173 C 0.50778 0.5577 0.96649 0.0
O174 O 0.52689 0.53339 0.96249 0.0
H175 H 0.48769 0.54766 0.98508 0.0
C176 C 0.59122 0.50058 0.0345 0.0
C177 C 0.602 0.53294 0.01808 0.0
C178 C 0.55777 0.47982 0.02797 0.0
C179 C 0.53571 0.49183 0.00427 0.0
C180 C 0.54708 0.52335 0.98693 0.0
C181 C 0.58012 0.54374 0.99376 0.0
H182 H 0.6658 0.30144 0.30348 0.0
H183 H 0.69409 0.22371 0.24745 0.0
H184 H 0.7533 0.25943 0.33551 0.0
H185 H 0.79523 0.24675 0.28213 0.0
C186 C 0.77684 0.22465 0.2705 0.0
O187 O 0.74621 0.21653 0.28726 0.0
H188 H 0.7711 0.23226 0.24445 0.0
C189 C 0.6833 0.28482 0.29954 0.0
C190 C 0.71035 0.28339 0.32274 0.0
C191 C 0.67733 0.26362 0.27227 0.0
C192 C 0.69886 0.24076 0.26806 0.0
C193 C 0.72638 0.23951 0.29073 0.0
C194 C 0.73208 0.26075 0.31803 0.0
H195 H 0.42699 0.08424 0.02423 0.0
H196 H 0.48108 0.02199 0.97201 0.0
H197 H 0.53829 0.1128 0.01981 0.0
H198 H 0.58495 0.09694 0.96769 0.0
C199 C 0.56006 0.08079 0.95798 0.0
O200 O 0.54292 0.06135 0.98389 0.0
H201 H 0.54508 0.09927 0.94677 0.0
C202 C 0.4509 0.07959 0.01546 0.0
C203 C 0.48253 0.10245 0.02333 0.0
C204 C 0.45008 0.05003 0.99763 0.0
C205 C 0.48127 0.04419 0.98655 0.0
C206 C 0.51296 0.06677 0.99471 0.0
C207 C 0.51362 0.09542 0.01368 0.0
O208 O 0.24689 0.86021 0.96517 0.0
Cd209 Cd 0.26458 0.88806 0.00628 0.0
Cd210 Cd 0.23801 0.9376 0.97228 0.0
O211 O 0.22702 0.90076 0.93661 0.0
O212 O 0.27621 0.85264 0.03817 0.0
O213 O 0.23893 0.88416 0.04866 0.0
C214 C 0.25526 0.86064 0.05819 0.0
C215 C 0.19307 0.96171 0.98855 0.0
C216 C 0.23294 0.87069 0.9391 0.0
C217 C 0.31451 0.95515 0.9893 0.0
O218 O 0.28874 0.96598 0.97686 0.0
O219 O 0.31011 0.92473 0.00198 0.0
O220 O 0.20827 0.97101 0.96099 0.0
O221 O 0.20362 0.93857 0.00711 0.0
O222 O 0.18619 0.54764 0.28276 0.0
Cd223 Cd 0.15682 0.5028 0.30383 0.0
Cd224 Cd 0.10259 0.52392 0.26422 0.0
O225 O 0.14299 0.56655 0.25796 0.0
O226 O 0.19182 0.48058 0.32753 0.0
O227 O 0.15755 0.45612 0.28671 0.0
C228 C 0.18216 0.45487 0.30845 0.0
C229 C 0.06657 0.51195 0.21677 0.0
C230 C 0.17498 0.57103 0.26628 0.0
C231 C 0.09396 0.51419 0.33769 0.0
O232 O 0.07981 0.51756 0.30934 0.0
O233 O 0.12453 0.50917 0.34052 0.0
O234 O 0.06493 0.53677 0.23533 0.0
O235 O 0.08796 0.49288 0.22559 0.0
O236 O 0.79085 0.72865 0.00995 0.0
Cd237 Cd 0.77975 0.69915 0.05296 0.0
Cd238 Cd 0.81051 0.65397 0.01748 0.0
O239 O 0.81541 0.69447 0.98227 0.0
O240 O 0.76161 0.72998 0.08157 0.0
O241 O 0.80517 0.70645 0.09746 0.0
C242 C 0.78363 0.72474 0.10443 0.0
C243 C 0.85427 0.62339 0.02675 0.0
C244 C 0.80457 0.72205 0.98397 0.0
C245 C 0.73527 0.62931 0.03615 0.0
O246 O 0.76124 0.62278 0.02268 0.0
O247 O 0.7378 0.65805 0.04942 0.0
O248 O 0.83502 0.6204 0.0001 0.0
O249 O 0.85024 0.6455 0.04768 0.0
O250 O 0.94555 0.04358 0.29494 0.0
Cd251 Cd 0.91842 0.03537 0.25015 0.0
Cd252 Cd 0.8699 0.06003 0.28557 0.0
O253 O 0.90691 0.06117 0.32313 0.0
O254 O 0.95414 0.02724 0.22027 0.0
O255 O 0.92678 0.06959 0.21145 0.0
C256 C 0.94919 0.0533 0.20222 0.0
C257 C 0.84404 0.10754 0.27905 0.0
C258 C 0.93614 0.05339 0.32173 0.0
C259 C 0.84793 0.988 0.25898 0.0
O260 O 0.84002 0.01188 0.27463 0.0
O261 O 0.87779 0.99219 0.24697 0.0
O262 O 0.83679 0.08515 0.30323 0.0
O263 O 0.86612 0.10291 0.25821 0.0
O264 O 0.26614 0.20244 0.48598 0.0
Cd265 Cd 0.26443 0.17295 0.52959 0.0
Cd266 Cd 0.30583 0.14365 0.49321 0.0
O267 O 0.31032 0.18822 0.46359 0.0
O268 O 0.23376 0.19357 0.55597 0.0
O269 O 0.2883 0.19521 0.57104 0.0
C270 C 0.25927 0.20292 0.57681 0.0
C271 C 0.35281 0.12329 0.51577 0.0
C272 C 0.28806 0.20669 0.46333 0.0
C273 C 0.23666 0.10041 0.50836 0.0
O274 O 0.26068 0.10575 0.48771 0.0
O275 O 0.23628 0.1226 0.52971 0.0
O276 O 0.34471 0.12161 0.48458 0.0
O277 O 0.33541 0.13859 0.53396 0.0
O278 O 0.45665 0.56662 0.81206 0.0
Cd279 Cd 0.4331 0.55312 0.76667 0.0
Cd280 Cd 0.37824 0.57501 0.79329 0.0
O281 O 0.41065 0.57683 0.83478 0.0
O282 O 0.47144 0.54666 0.73909 0.0
O283 O 0.43946 0.5844 0.72577 0.0
C284 C 0.46418 0.57001 0.71868 0.0
C285 C 0.35071 0.62107 0.78512 0.0
C286 C 0.44186 0.57367 0.83715 0.0
C287 C 0.36388 0.50215 0.77032 0.0
O288 O 0.3513 0.52665 0.77955 0.0
O289 O 0.3961 0.50712 0.76512 0.0
O290 O 0.34198 0.59771 0.80821 0.0
O291 O 0.37487 0.61806 0.76589 0.0
O292 O 0.73644 0.36147 0.46365 0.0
Cd293 Cd 0.75178 0.38929 0.50551 0.0
Cd294 Cd 0.72647 0.43878 0.46602 0.0
O295 O 0.71725 0.40036 0.43211 0.0
O296 O 0.77273 0.35632 0.53311 0.0
O297 O 0.72908 0.37618 0.5496 0.0
C298 C 0.75162 0.35775 0.55586 0.0
C299 C 0.68167 0.46258 0.48299 0.0
C300 C 0.72372 0.37055 0.43623 0.0
C301 C 0.80066 0.45833 0.48748 0.0
O302 O 0.77669 0.46771 0.47018 0.0
O303 O 0.79488 0.42938 0.50323 0.0
O304 O 0.69572 0.47123 0.45479 0.0
O305 O 0.69283 0.43973 0.50147 0.0
O306 O 0.69191 0.04205 0.79036 0.0
Cd307 Cd 0.66175 0.99813 0.8121 0.0
Cd308 Cd 0.60615 0.0228 0.77306 0.0
O309 O 0.6497 0.06087 0.76358 0.0
O310 O 0.69719 0.97694 0.83626 0.0
O311 O 0.66296 0.95109 0.7961 0.0
C312 C 0.68795 0.95082 0.81765 0.0
C313 C 0.56616 0.018 0.72791 0.0
C314 C 0.68154 0.06473 0.7721 0.0
C315 C 0.6014 0.01445 0.84758 0.0
O316 O 0.5873 0.02049 0.81979 0.0
O317 O 0.63024 0.00542 0.84914 0.0
O318 O 0.57225 0.04407 0.74657 0.0
O319 O 0.58139 0.99325 0.73581 0.0
O320 O 0.99782 0.3204 0.93088 0.0
Cd321 Cd 0.99267 0.27387 0.90852 0.0
Cd322 Cd 0.02837 0.31408 0.85961 0.0
O323 O 0.02634 0.35288 0.891 0.0
O324 O 0.97756 0.23746 0.94353 0.0
O325 O 0.02746 0.24457 0.91879 0.0
C326 C 0.00598 0.22768 0.94015 0.0
C327 C 0.08152 0.31576 0.8361 0.0
C328 C 0.01244 0.35006 0.91894 0.0
C329 C 0.95713 0.27297 0.84118 0.0
O330 O 0.98447 0.29386 0.83138 0.0
O331 O 0.95512 0.26195 0.87115 0.0
O332 O 0.06281 0.33722 0.82678 0.0
O333 O 0.07006 0.29306 0.85923 0.0
O334 O 0.49174 0.82435 0.44316 0.0
Cd335 Cd 0.48373 0.77762 0.42054 0.0
Cd336 Cd 0.51749 0.81717 0.37055 0.0
O337 O 0.51918 0.85652 0.40248 0.0
O338 O 0.47052 0.74131 0.45611 0.0
O339 O 0.51823 0.74754 0.42798 0.0
C340 C 0.49825 0.73105 0.45067 0.0
C341 C 0.5682 0.81491 0.34424 0.0
C342 C 0.50668 0.85385 0.43108 0.0
C343 C 0.44418 0.77855 0.35562 0.0
O344 O 0.47143 0.79875 0.34473 0.0
O345 O 0.44372 0.76677 0.38533 0.0
O346 O 0.55061 0.83753 0.33555 0.0
O347 O 0.55724 0.7936 0.3686 0.0
O348 O 0.94958 0.75869 0.69018 0.0
Cd349 Cd 0.99246 0.74784 0.67029 0.0
Cd350 Cd 0.97029 0.78096 0.61567 0.0
O351 O 0.92913 0.78167 0.64528 0.0
O352 O 0.01842 0.7332 0.70909 0.0
O353 O 0.04069 0.77784 0.67582 0.0
C354 C 0.04436 0.75798 0.70125 0.0
C355 C 0.99611 0.83196 0.58718 0.0
C356 C 0.9264 0.77186 0.67557 0.0
C357 C 0.97965 0.70851 0.60875 0.0
O358 O 0.97397 0.73585 0.59441 0.0
O359 O 0.98577 0.70724 0.63969 0.0
O360 O 0.96685 0.81294 0.57713 0.0
O361 O 0.01071 0.82222 0.61397 0.0
O362 O 0.45319 0.26461 0.18802 0.0
Cd363 Cd 0.49645 0.25528 0.16688 0.0
Cd364 Cd 0.47474 0.2917 0.11443 0.0
O365 O 0.43369 0.29052 0.14438 0.0
O366 O 0.5228 0.23607 0.20295 0.0
O367 O 0.54442 0.28488 0.175 0.0
C368 C 0.54871 0.26169 0.1972 0.0
C369 C 0.50227 0.34511 0.09125 0.0
C370 C 0.43032 0.27875 0.17408 0.0
C371 C 0.48263 0.22056 0.10183 0.0
O372 O 0.47605 0.24826 0.08925 0.0
O373 O 0.49025 0.21808 0.13244 0.0
O374 O 0.47311 0.32775 0.07915 0.0
O375 O 0.5161 0.33206 0.11679 0.0
C376 C 0.249 0.82663 0.86295 0.0
C377 C 0.21583 0.80656 0.85448 0.0
C378 C 0.25427 0.84733 0.89059 0.0
C379 C 0.22654 0.84875 0.91045 0.0
H380 H 0.27086 0.82689 0.84774 0.0
H381 H 0.28011 0.86266 0.89626 0.0
S382 S 0.13556 0.79913 0.90101 0.0
N383 N 0.1554 0.78755 0.86995 0.0
N384 N 0.16548 0.82745 0.9213 0.0
C385 C 0.19352 0.82845 0.90285 0.0
C386 C 0.18811 0.80708 0.87496 0.0
C387 C 0.08501 0.55329 0.419 0.0
C388 C 0.05024 0.556 0.41723 0.0
C389 C 0.09835 0.53701 0.39439 0.0
C390 C 0.07735 0.52296 0.36712 0.0
H391 H 0.10237 0.5652 0.43877 0.0
H392 H 0.12582 0.53744 0.39577 0.0
S393 S 0.98277 0.51737 0.35493 0.0
N394 N 0.99376 0.53877 0.38919 0.0
N395 N 0.0188 0.50852 0.34251 0.0
C396 C 0.04179 0.52296 0.36667 0.0
C397 C 0.02821 0.53933 0.3919 0.0
C398 C 0.8278 0.77519 0.90424 0.0
C399 C 0.79579 0.78254 0.89337 0.0
C400 C 0.83082 0.75572 0.93368 0.0
C401 C 0.80217 0.74371 0.95372 0.0
H402 H 0.85078 0.78462 0.88996 0.0
H403 H 0.85574 0.75032 0.94096 0.0
S404 S 0.71204 0.75271 0.93544 0.0
N405 N 0.73424 0.77326 0.9041 0.0
N406 N 0.74054 0.73866 0.96011 0.0
C407 C 0.77011 0.7507 0.94324 0.0
C408 C 0.76677 0.76965 0.91296 0.0
C409 C 0.96103 0.04214 0.41237 0.0
C410 C 0.99649 0.04221 0.41171 0.0
C411 C 0.94208 0.04729 0.38326 0.0
C412 C 0.95783 0.05235 0.35237 0.0
H413 H 0.94766 0.03744 0.43546 0.0
H414 H 0.91459 0.04603 0.38489 0.0
S415 S 0.05094 0.05811 0.33804 0.0
N416 N 0.04733 0.05051 0.3783 0.0
N417 N 0.01167 0.05952 0.32336 0.0
C418 C 0.99361 0.0537 0.3516 0.0
C419 C 0.01294 0.04886 0.38132 0.0
C420 C 0.28019 0.27109 0.64159 0.0
C421 C 0.24715 0.27127 0.65282 0.0
C422 C 0.28431 0.2476 0.61816 0.0
C423 C 0.25546 0.22368 0.60514 0.0
H424 H 0.30281 0.29005 0.65011 0.0
H425 H 0.30999 0.2493 0.6091 0.0
S426 S 0.16424 0.2102 0.63054 0.0
N427 N 0.18582 0.2429 0.65231 0.0
N428 N 0.19333 0.19906 0.60804 0.0
C429 C 0.22261 0.22225 0.61778 0.0
C430 C 0.21852 0.24592 0.64178 0.0
C431 C 0.48021 0.59172 0.62781 0.0
C432 C 0.51492 0.58938 0.62474 0.0
C433 C 0.46441 0.58669 0.6585 0.0
C434 C 0.48244 0.57844 0.68725 0.0
H435 H 0.46473 0.59672 0.6062 0.0
H436 H 0.43748 0.58808 0.65947 0.0
S437 S 0.57459 0.57248 0.69365 0.0
N438 N 0.56765 0.58125 0.65402 0.0
N439 N 0.53734 0.57015 0.71135 0.0
C440 C 0.51726 0.57663 0.68481 0.0
C441 C 0.53362 0.58244 0.65367 0.0
C442 C 0.79136 0.31385 0.62745 0.0
C443 C 0.76578 0.30786 0.65134 0.0
C444 C 0.78598 0.3293 0.59657 0.0
C445 C 0.75521 0.34033 0.58852 0.0
H446 H 0.81581 0.30653 0.63258 0.0
H447 H 0.80657 0.33319 0.5791 0.0
S448 S 0.6811 0.33285 0.64333 0.0
N449 N 0.70912 0.31543 0.66555 0.0
N450 N 0.69921 0.3452 0.60749 0.0
C451 C 0.72972 0.33533 0.61246 0.0
C452 C 0.73504 0.3191 0.6439 0.0
C453 C 0.50654 0.98616 0.65418 0.0
C454 C 0.50461 0.01706 0.63641 0.0
C455 C 0.52622 0.98654 0.68392 0.0
C456 C 0.54421 0.01786 0.69733 0.0
H457 H 0.49291 0.9614 0.64491 0.0
H458 H 0.52731 0.96216 0.6965 0.0
S459 S 0.54911 0.10585 0.66002 0.0
N460 N 0.52387 0.07976 0.63391 0.0
N461 N 0.55955 0.08055 0.69035 0.0
C462 C 0.54217 0.04895 0.68011 0.0
C463 C 0.52267 0.04855 0.64957 0.0
C464 C 0.86436 0.23959 0.8092 0.0
C465 C 0.86708 0.24352 0.77467 0.0
C466 C 0.89366 0.24873 0.83041 0.0
C467 C 0.92687 0.26238 0.81796 0.0
H468 H 0.83927 0.2298 0.81998 0.0
H469 H 0.89008 0.24558 0.85682 0.0
S470 S 0.94831 0.27548 0.7293 0.0
N471 N 0.90583 0.26011 0.72887 0.0
N472 N 0.96091 0.27797 0.76868 0.0
C473 C 0.93003 0.26607 0.78342 0.0
C474 C 0.90016 0.25653 0.76182 0.0
C475 C 0.49766 0.91095 0.50127 0.0
C476 C 0.50677 0.94455 0.48687 0.0
C477 C 0.49801 0.88191 0.48314 0.0
C478 C 0.50821 0.8853 0.45005 0.0
H479 H 0.48994 0.90701 0.52673 0.0
H480 H 0.49019 0.8566 0.49527 0.0
S481 S 0.53769 0.96811 0.40199 0.0
N482 N 0.52845 0.97984 0.43841 0.0
N483 N 0.52945 0.92547 0.40425 0.0
C484 C 0.51862 0.91894 0.43576 0.0
C485 C 0.51797 0.94847 0.45421 0.0
C486 C 0.16135 0.35091 0.78592 0.0
C487 C 0.17953 0.32447 0.78899 0.0
C488 C 0.12977 0.34764 0.80123 0.0
C489 C 0.11517 0.3179 0.82054 0.0
H490 H 0.17151 0.3743 0.77129 0.0
H491 H 0.11685 0.36882 0.79798 0.0
S492 S 0.15284 0.24125 0.83645 0.0
N493 N 0.18098 0.26757 0.81263 0.0
N494 N 0.1215 0.26134 0.84182 0.0
C495 C 0.13316 0.2912 0.82391 0.0
C496 C 0.1653 0.29446 0.80795 0.0
C497 C 0.55055 0.67183 0.49427 0.0
C498 C 0.52536 0.64851 0.51262 0.0
C499 C 0.54151 0.69796 0.47353 0.0
C500 C 0.507 0.70174 0.47055 0.0
H501 H 0.57757 0.67052 0.4967 0.0
H502 H 0.56188 0.71592 0.46054 0.0
S503 S 0.43069 0.64422 0.50991 0.0
N504 N 0.46402 0.62862 0.52377 0.0
N505 N 0.44711 0.67785 0.48545 0.0
C506 C 0.48141 0.67764 0.48775 0.0
C507 C 0.49057 0.65101 0.5086 0.0
C508 C 0.86175 0.76069 0.74393 0.0
C509 C 0.8388 0.78106 0.73236 0.0
C510 C 0.88975 0.75779 0.72526 0.0
C511 C 0.89604 0.77527 0.69427 0.0
H512 H 0.85813 0.74709 0.76778 0.0
H513 H 0.90661 0.74167 0.73535 0.0
S514 S 0.84411 0.83331 0.65372 0.0
N515 N 0.82459 0.81999 0.68871 0.0
N516 N 0.87707 0.81443 0.65328 0.0
C517 C 0.87326 0.79593 0.68249 0.0
C518 C 0.84479 0.79897 0.70167 0.0
C519 C 0.01972 0.8948 0.51418 0.0
C520 C 0.04247 0.92352 0.52825 0.0
C521 C 0.00487 0.86548 0.53354 0.0
C522 C 0.01252 0.86342 0.5677 0.0
H523 H 0.01353 0.8948 0.48786 0.0
H524 H 0.98756 0.84404 0.52149 0.0
S525 S 0.06893 0.93206 0.61716 0.0
N526 N 0.07047 0.94867 0.57898 0.0
N527 N 0.04356 0.89285 0.61511 0.0
C528 C 0.03525 0.8918 0.58221 0.0
C529 C 0.04998 0.92199 0.56256 0.0
C530 C 0.14118 0.77675 0.72215 0.0
C531 C 0.14207 0.76584 0.75559 0.0
C532 C 0.10935 0.77531 0.70484 0.0
C533 C 0.0776 0.76229 0.72037 0.0
H534 H 0.16517 0.78665 0.70945 0.0
H535 H 0.1096 0.78362 0.67899 0.0
S536 S 0.06649 0.73098 0.80783 0.0
N537 N 0.10895 0.7422 0.80372 0.0
N538 N 0.04925 0.739 0.77128 0.0
C539 C 0.07836 0.75146 0.75386 0.0
C540 C 0.1106 0.75335 0.77146 0.0
C541 C 0.98899 0.6553 0.5361 0.0
C542 C 0.98115 0.62138 0.54965 0.0
C543 C 0.98831 0.68334 0.55543 0.0
C544 C 0.98027 0.6784 0.58906 0.0
H545 H 0.9946 0.66004 0.51014 0.0
H546 H 0.99413 0.70908 0.54392 0.0
S547 S 0.95902 0.59429 0.63619 0.0
N548 N 0.96576 0.5841 0.59841 0.0
N549 N 0.96512 0.63682 0.63517 0.0
C550 C 0.97326 0.64453 0.60304 0.0
C551 C 0.97349 0.616 0.58319 0.0
C552 C 0.77835 0.91014 0.28483 0.0
C553 C 0.77662 0.88719 0.25907 0.0
C554 C 0.80081 0.9429 0.28396 0.0
C555 C 0.82311 0.95395 0.25763 0.0
H556 H 0.76265 0.90255 0.30632 0.0
H557 H 0.80138 0.9593 0.30466 0.0
S558 S 0.82774 0.90486 0.18308 0.0
N559 N 0.79798 0.87873 0.20545 0.0
N560 N 0.84148 0.94003 0.20454 0.0
C561 C 0.82174 0.9315 0.23157 0.0
C562 C 0.79827 0.89819 0.23215 0.0
C563 C 0.79178 0.17212 0.30017 0.0
C564 C 0.79371 0.19409 0.27172 0.0
C565 C 0.80794 0.14423 0.30207 0.0
C566 C 0.82743 0.13752 0.27593 0.0
H567 H 0.7776 0.17645 0.32119 0.0
H568 H 0.80533 0.12799 0.32446 0.0
S569 S 0.8428 0.18912 0.19698 0.0
N570 N 0.81807 0.20844 0.2175 0.0
N571 N 0.8488 0.15623 0.22113 0.0
C572 C 0.83039 0.15988 0.24767 0.0
C573 C 0.81361 0.18816 0.24565 0.0
C574 C 0.38714 0.03595 0.98038 0.0
C575 C 0.41664 0.02469 0.99246 0.0
C576 C 0.35439 0.01314 0.97878 0.0
C577 C 0.34984 0.97823 0.98946 0.0
H578 H 0.38932 0.06278 0.97259 0.0
H579 H 0.3324 0.02323 0.96974 0.0
S580 S 0.41944 0.93588 0.02249 0.0
N581 N 0.43962 0.97649 0.01477 0.0
N582 N 0.3783 0.93335 0.01156 0.0
C583 C 0.37945 0.96649 0.00085 0.0
C584 C 0.41279 0.98976 0.00235 0.0
C585 C 0.24178 0.39736 0.34071 0.0
C586 C 0.23759 0.37229 0.31667 0.0
C587 C 0.22333 0.42353 0.33801 0.0
C588 C 0.19968 0.42554 0.3113 0.0
H589 H 0.26018 0.3973 0.36133 0.0
H590 H 0.22801 0.44258 0.35691 0.0
S591 S 0.17757 0.36435 0.24299 0.0
N592 N 0.20688 0.34984 0.26621 0.0
N593 N 0.17207 0.39893 0.26107 0.0
C594 C 0.1945 0.39993 0.28758 0.0
C595 C 0.21352 0.3734 0.29026 0.0
C596 C 0.16524 0.03147 0.47023 0.0
C597 C 0.1427 0.02084 0.49652 0.0
C598 C 0.19691 0.05559 0.47475 0.0
C599 C 0.20683 0.0703 0.50562 0.0
H600 H 0.15773 0.02198 0.44572 0.0
H601 H 0.21273 0.06418 0.45349 0.0
S602 S 0.15847 0.04854 0.58306 0.0
N603 N 0.13358 0.02486 0.55497 0.0
N604 N 0.19307 0.0701 0.56357 0.0
C605 C 0.18541 0.05837 0.53252 0.0
C606 C 0.15335 0.03364 0.52795 0.0
C607 C 0.76617 0.12884 0.75315 0.0
C608 C 0.75544 0.15977 0.7458 0.0
C609 C 0.7421 0.09807 0.76129 0.0
C610 C 0.70641 0.09705 0.76207 0.0
H611 H 0.79338 0.1284 0.75258 0.0
H612 H 0.75154 0.07491 0.76695 0.0
S613 S 0.66521 0.17148 0.7466 0.0
N614 N 0.70696 0.18786 0.74139 0.0
N615 N 0.66164 0.12997 0.7557 0.0
C616 C 0.69534 0.12781 0.75463 0.0
C617 C 0.71986 0.15916 0.74674 0.0
C618 C 0.42783 0.07878 0.52149 0.0
C619 C 0.42513 0.06255 0.55324 0.0
C620 C 0.40525 0.09954 0.51012 0.0
C621 C 0.37934 0.10547 0.53019 0.0
H622 H 0.44724 0.07494 0.50498 0.0
H623 H 0.40773 0.11055 0.48513 0.0
S624 S 0.3614 0.06964 0.61549 0.0
N625 N 0.39427 0.05405 0.60466 0.0
N626 N 0.35267 0.0941 0.58367 0.0
C627 C 0.37713 0.09059 0.56246 0.0
C628 C 0.39981 0.06893 0.5739 0.0
C629 C 0.61063 0.48153 0.53458 0.0
C630 C 0.59955 0.50791 0.51585 0.0
C631 C 0.63714 0.46706 0.52378 0.0
C632 C 0.65375 0.47854 0.49391 0.0
H633 H 0.59854 0.47183 0.55765 0.0
H634 H 0.64455 0.44662 0.53898 0.0
S635 S 0.63533 0.54868 0.43692 0.0
N636 N 0.6079 0.54601 0.46694 0.0
N637 N 0.65767 0.5191 0.44642 0.0
C638 C 0.64322 0.50546 0.47529 0.0
C639 C 0.61624 0.52012 0.48637 0.0
C640 C 0.71394 0.34016 0.34823 0.0
C641 C 0.71469 0.30502 0.35216 0.0
C642 C 0.71605 0.36085 0.37557 0.0
C643 C 0.71914 0.3473 0.408 0.0
H644 H 0.71185 0.35183 0.32373 0.0
H645 H 0.71583 0.38786 0.37111 0.0
S646 S 0.72014 0.25617 0.43173 0.0
N647 N 0.71703 0.25706 0.39095 0.0
N648 N 0.72162 0.296 0.44246 0.0
C649 C 0.71964 0.31205 0.4123 0.0
C650 C 0.71734 0.29094 0.38438 0.0
C651 C 0.54752 0.05442 0.90217 0.0
C652 C 0.56716 0.05777 0.93204 0.0
C653 C 0.55722 0.03779 0.87569 0.0
C654 C 0.5869 0.0238 0.87816 0.0
H655 H 0.52553 0.06627 0.89866 0.0
H656 H 0.54236 0.03765 0.85256 0.0
S657 S 0.64276 0.02013 0.95389 0.0
N658 N 0.61426 0.04167 0.96458 0.0
N659 N 0.63271 0.01014 0.91501 0.0
C660 C 0.60475 0.02419 0.90913 0.0
C661 C 0.59481 0.04124 0.93603 0.0
C662 C 0.31485 0.27166 0.39199 0.0
C663 C 0.28306 0.27869 0.38011 0.0
C664 C 0.31636 0.24855 0.419 0.0
C665 C 0.28624 0.232 0.4356 0.0
H666 H 0.33883 0.28402 0.38023 0.0
H667 H 0.34133 0.24372 0.427 0.0
S668 S 0.19633 0.24004 0.41372 0.0
N669 N 0.22052 0.26579 0.38641 0.0
N670 N 0.22357 0.22358 0.4379 0.0
C671 C 0.25436 0.23905 0.42433 0.0
C672 C 0.25272 0.2621 0.39647 0.0
C673 C 0.45526 0.56057 0.92961 0.0
C674 C 0.49147 0.56543 0.93356 0.0
C675 C 0.43959 0.56503 0.89851 0.0
C676 C 0.45956 0.57411 0.87016 0.0
H677 H 0.43884 0.55243 0.95055 0.0
H678 H 0.4115 0.55987 0.89651 0.0
S679 S 0.55573 0.59337 0.86823 0.0
N680 N 0.54712 0.58279 0.90737 0.0
N681 N 0.51771 0.59042 0.84866 0.0
C682 C 0.49593 0.58045 0.87409 0.0
C683 C 0.51186 0.57636 0.90585 0.0
C684 C 0.77885 0.71737 0.19747 0.0
C685 C 0.75729 0.73976 0.20365 0.0
C686 C 0.79017 0.71492 0.16553 0.0
C687 C 0.78018 0.7347 0.13871 0.0
H688 H 0.78511 0.70001 0.21698 0.0
H689 H 0.80457 0.69553 0.16148 0.0
S690 S 0.7303 0.80249 0.1436 0.0
N691 N 0.73111 0.78593 0.1817 0.0
N692 N 0.75225 0.78145 0.12165 0.0
C693 C 0.76158 0.75965 0.14533 0.0
C694 C 0.75023 0.76221 0.17786 0.0
C695 C 0.02155 0.06897 0.14133 0.0
C696 C 0.00548 0.07831 0.11168 0.0
C697 C 0.00321 0.06127 0.17058 0.0
C698 C 0.96834 0.0634 0.17154 0.0
H699 H 0.04858 0.06763 0.14203 0.0
H700 H 0.01652 0.05379 0.1927 0.0
S701 S 0.91328 0.08438 0.10081 0.0
N702 N 0.95151 0.08691 0.085 0.0
N703 N 0.91796 0.07444 0.14051 0.0
C704 C 0.95193 0.07295 0.14238 0.0
C705 C 0.97026 0.07992 0.11234 0.0
C706 C 0.25493 0.85066 0.15147 0.0
C707 C 0.25634 0.81583 0.15709 0.0
C708 C 0.25258 0.86471 0.11923 0.0
C709 C 0.25197 0.84441 0.09167 0.0
H710 H 0.2565 0.86737 0.17209 0.0
H711 H 0.25287 0.89195 0.11584 0.0
S712 S 0.24982 0.75075 0.09314 0.0
N713 N 0.25246 0.76045 0.13249 0.0
N714 N 0.24957 0.7872 0.07195 0.0
C715 C 0.25159 0.80922 0.09698 0.0
C716 C 0.25323 0.79479 0.1297 0.0
C717 C 0.99323 0.51124 0.15325 0.0
C718 C 0.00839 0.50708 0.12337 0.0
C719 C 0.01196 0.51191 0.18354 0.0
C720 C 0.04621 0.50753 0.18524 0.0
H721 H 0.9667 0.51409 0.15329 0.0
H722 H 0.99956 0.51597 0.20583 0.0
S723 S 0.09885 0.49782 0.11462 0.0
N724 N 0.06091 0.50072 0.09762 0.0
N725 N 0.09503 0.49987 0.15482 0.0
C726 C 0.0616 0.50286 0.15585 0.0
C727 C 0.04296 0.50315 0.12487 0.0
C728 C 0.38639 0.76842 0.27763 0.0
C729 C 0.35313 0.754 0.28952 0.0
C730 C 0.41557 0.77603 0.29918 0.0
C731 C 0.41274 0.76942 0.33352 0.0
H732 H 0.38999 0.77342 0.25136 0.0
H733 H 0.44061 0.78699 0.2887 0.0
S734 S 0.33098 0.73369 0.37733 0.0
N735 N 0.31866 0.73486 0.33791 0.0
N736 N 0.37354 0.74858 0.37848 0.0
C737 C 0.37952 0.75517 0.34577 0.0
C738 C 0.34974 0.74762 0.32378 0.0
C739 C 0.99793 0.40723 0.98704 0.0
C740 C 0.00782 0.44081 0.97268 0.0
C741 C 0.9997 0.37817 0.96956 0.0
C742 C 0.01217 0.38151 0.93727 0.0
H743 H 0.98854 0.40331 0.01194 0.0
H744 H 0.99123 0.35288 0.98157 0.0
S745 S 0.04459 0.46427 0.88995 0.0
N746 N 0.0327 0.47603 0.92532 0.0
N747 N 0.0364 0.42163 0.89241 0.0
C748 C 0.02334 0.41513 0.92311 0.0
C749 C 0.02124 0.44467 0.94088 0.0
C750 C 0.6545 0.79461 0.32541 0.0
C751 C 0.6636 0.81399 0.29588 0.0
C752 C 0.62331 0.79451 0.34064 0.0
C753 C 0.60015 0.81384 0.32689 0.0
H754 H 0.67208 0.78025 0.33736 0.0
H755 H 0.61775 0.77981 0.36374 0.0
S756 S 0.61035 0.86572 0.24772 0.0
N757 N 0.64577 0.85056 0.25197 0.0
N758 N 0.58749 0.85079 0.28052 0.0
C759 C 0.60848 0.83233 0.29669 0.0
C760 C 0.6401 0.8323 0.28122 0.0
C761 C 0.05567 0.16872 0.98801 0.0
C762 C 0.02905 0.14435 0.00367 0.0
C763 C 0.04805 0.19519 0.96677 0.0
C764 C 0.01358 0.19826 0.96063 0.0
H765 H 0.08258 0.16791 0.99292 0.0
H766 H 0.06937 0.21391 0.95587 0.0
S767 S 0.93432 0.13806 0.99205 0.0
N768 N 0.96677 0.12281 0.00877 0.0
N769 N 0.9525 0.17272 0.96964 0.0
C770 C 0.98673 0.1732 0.97514 0.0
C771 C 0.99445 0.14621 0.99644 0.0
C772 C 0.34633 0.30313 0.19398 0.0
C773 C 0.3394 0.28818 0.22577 0.0
C774 C 0.37567 0.29979 0.17751 0.0
C775 C 0.39943 0.28165 0.19233 0.0
H776 H 0.32899 0.31758 0.18177 0.0
H777 H 0.37978 0.31176 0.153 0.0
S778 S 0.39299 0.23854 0.276 0.0
N779 N 0.35846 0.25517 0.27185 0.0
N780 N 0.41378 0.24883 0.24122 0.0
C781 C 0.39278 0.2668 0.22436 0.0
C782 C 0.36278 0.27014 0.241 0.0
C783 C 0.5273 0.41726 0.02653 0.0
C784 C 0.54581 0.44527 0.04489 0.0
C785 C 0.51383 0.38492 0.04177 0.0
C786 C 0.51889 0.37898 0.07589 0.0
H787 H 0.52298 0.42033 8e-05 0.0
H788 H 0.49929 0.36436 0.02663 0.0
S789 S 0.56518 0.44328 0.13543 0.0
N790 N 0.56788 0.46486 0.09945 0.0
N791 N 0.54381 0.40343 0.12775 0.0
C792 C 0.53809 0.4063 0.09453 0.0
C793 C 0.55128 0.43958 0.07912 0.0
C794 C 0.6208 0.23273 0.24715 0.0
C795 C 0.64649 0.26342 0.25025 0.0
C796 C 0.58934 0.2326 0.22992 0.0
C797 C 0.58257 0.26309 0.21478 0.0
H798 H 0.62458 0.20886 0.25909 0.0
H799 H 0.57014 0.20835 0.22859 0.0
S800 S 0.6425 0.34994 0.2144 0.0
N801 N 0.66392 0.32485 0.23607 0.0
N802 N 0.60489 0.32462 0.20309 0.0
C803 C 0.60855 0.29381 0.21688 0.0
C804 C 0.64046 0.29398 0.23481 0.0
C805 C 0.50174 0.1381 0.07256 0.0
C806 C 0.48297 0.13329 0.04229 0.0
C807 C 0.50129 0.16637 0.09165 0.0
C808 C 0.48248 0.19111 0.08087 0.0
H809 H 0.51636 0.11954 0.08182 0.0
H810 H 0.51601 0.16891 0.11496 0.0
S811 S 0.42995 0.19044 0.00257 0.0
N812 N 0.4456 0.15548 0.00189 0.0
N813 N 0.44502 0.20903 0.03753 0.0
C814 C 0.46404 0.1868 0.05028 0.0
C815 C 0.46417 0.15775 0.03107 0.0
C816 C 0.28183 0.43132 0.76104 0.0
C817 C 0.29427 0.40091 0.76187 0.0
C818 C 0.30456 0.46384 0.76345 0.0
C819 C 0.34073 0.46736 0.76653 0.0
H820 H 0.25423 0.43004 0.75821 0.0
H821 H 0.29361 0.48641 0.76276 0.0
S822 S 0.38651 0.3956 0.77091 0.0
N823 N 0.34498 0.3762 0.76686 0.0
N824 N 0.38794 0.43741 0.77075 0.0
C825 C 0.35359 0.43715 0.76716 0.0
C826 C 0.33033 0.40394 0.76496 0.0
C827 C 0.31232 0.69309 0.74543 0.0
C828 C 0.29727 0.7047 0.77222 0.0
C829 C 0.3302 0.66645 0.74982 0.0
C830 C 0.33334 0.6503 0.78109 0.0
H831 H 0.31008 0.70452 0.72087 0.0
H832 H 0.34099 0.65799 0.72846 0.0
S833 S 0.3016 0.67364 0.85971 0.0
N834 N 0.28924 0.70003 0.83146 0.0
N835 N 0.32185 0.64944 0.83963 0.0
C836 C 0.31917 0.66232 0.80819 0.0
C837 C 0.30151 0.68972 0.80379 0.0
C838 C 0.89014 0.49957 0.52187 0.0
C839 C 0.90496 0.5213 0.49552 0.0
C840 C 0.85629 0.47934 0.51892 0.0
C841 C 0.83588 0.48079 0.48976 0.0
H842 H 0.90484 0.49826 0.54493 0.0
H843 H 0.84588 0.46277 0.53982 0.0
S844 S 0.8632 0.53394 0.41372 0.0
N845 N 0.89741 0.54319 0.4394 0.0
N846 N 0.83318 0.5056 0.4339 0.0
C847 C 0.85045 0.50264 0.46325 0.0
C848 C 0.88522 0.52277 0.4661 0.0
C849 C 0.75179 0.89739 0.84862 0.0
C850 C 0.74663 0.87088 0.82597 0.0
C851 C 0.73228 0.92266 0.84593 0.0
C852 C 0.70661 0.92236 0.82059 0.0
H853 H 0.7716 0.89905 0.8682 0.0
H854 H 0.73772 0.94281 0.86377 0.0
S855 S 0.68153 0.85689 0.75623 0.0
N856 N 0.71298 0.84467 0.77832 0.0
N857 N 0.67628 0.8922 0.7731 0.0
C858 C 0.70064 0.89545 0.7982 0.0
C859 C 0.72068 0.86976 0.80089 0.0
C860 C 0.66695 0.54644 0.02093 0.0
C861 C 0.63586 0.55621 0.02627 0.0
C862 C 0.69912 0.56999 0.02494 0.0
C863 C 0.70124 0.60397 0.03478 0.0
H864 H 0.6663 0.52087 0.01246 0.0
H865 H 0.72242 0.56166 0.01971 0.0
S866 S 0.62667 0.64078 0.05427 0.0
N867 N 0.60877 0.60092 0.04353 0.0
N868 N 0.66893 0.64524 0.05144 0.0
C869 C 0.67013 0.6134 0.04149 0.0
C870 C 0.63751 0.58951 0.03711 0.0
C871 C 0.25871 0.63917 0.25449 0.0
C872 C 0.24698 0.66965 0.24784 0.0
C873 C 0.23525 0.60727 0.25973 0.0
C874 C 0.19915 0.6046 0.25832 0.0
H875 H 0.28627 0.63999 0.25585 0.0
H876 H 0.24554 0.58458 0.26516 0.0
S877 S 0.15518 0.67704 0.24254 0.0
N878 N 0.19699 0.69536 0.24087 0.0
N879 N 0.15284 0.63543 0.2499 0.0
C880 C 0.18707 0.63486 0.25114 0.0
C881 C 0.21099 0.66735 0.2461 0.0
C882 C 0.93305 0.58954 0.05743 0.0
C883 C 0.92438 0.55501 0.04745 0.0
C884 C 0.91024 0.61164 0.05099 0.0
C885 C 0.87826 0.60018 0.03384 0.0
H886 H 0.95783 0.59975 0.0699 0.0
H887 H 0.91797 0.63802 0.05894 0.0
S888 S 0.84128 0.51128 0.00589 0.0
N889 N 0.87972 0.50973 0.02253 0.0
N890 N 0.83793 0.55154 0.00916 0.0
C891 C 0.869 0.56565 0.0243 0.0
C892 C 0.89177 0.54302 0.03141 0.0
C893 C 0.12317 0.0133 0.98253 0.0
C894 C 0.10667 0.00536 0.01282 0.0
C895 C 0.15119 -0.00072 0.97516 0.0
C896 C 0.16403 0.9769 0.99787 0.0
H897 H 0.11406 0.03021 0.96423 0.0
H898 H 0.16261 0.00587 0.95125 0.0
S899 S 0.13145 0.95045 0.08193 0.0
N900 N 0.10629 0.97557 0.06653 0.0
N901 N 0.1589 0.949 0.05282 0.0
C902 C 0.1483 0.96956 0.0287 0.0
C903 C 0.11976 0.98395 0.03618 0.0
loop_
_geom_bond_atom_site_label_1
_geom_bond_atom_site_label_2
_geom_bond_distance
_geom_bond_site_symmetry_2
_ccdc_geom_bond_type
H0 C7 0.929 . S
H1 C10 0.930 . S
H2 C12 0.929 . S
H3 C4 0.969 . S
C4 H3 0.969 . S
C4 O5 1.550 . S
C4 H6 0.973 . S
O5 C4 1.550 . S
O5 C11 1.412 . S
H6 C4 0.973 . S
C7 H0 0.929 . S
C7 C8 1.400 . S
C7 C9 1.364 . S
C8 C7 1.400 . S
C8 C12 1.377 . S
C9 C7 1.364 . S
C9 C10 1.374 . S
C10 H1 0.930 . S
C10 C9 1.374 . S
C10 C11 1.383 . S
C11 O5 1.412 . S
C11 C10 1.383 . S
C11 C12 1.394 . S
C12 H2 0.929 . S
C12 C8 1.377 . S
C12 C11 1.394 . S
H13 C20 0.929 . S
H14 C23 0.930 . S
H15 C25 0.929 . S
H16 C17 0.969 . S
C17 H16 0.969 . S
C17 O18 1.550 . S
C17 H19 0.973 . S
O18 C17 1.550 . S
O18 C24 1.412 . S
H19 C17 0.973 . S
C20 H13 0.929 . S
C20 C21 1.400 . S
C20 C22 1.364 . S
C21 C20 1.400 . S
C21 C25 1.377 . S
C22 C20 1.364 . S
C22 C23 1.374 . S
C23 H14 0.930 . S
C23 C22 1.374 . S
C23 C24 1.383 . S
C24 O18 1.412 . S
C24 C23 1.383 . S
C24 C25 1.394 . S
C25 H15 0.929 . S
C25 C21 1.377 . S
C25 C24 1.394 . S
H26 C33 0.929 . S
H27 C36 0.930 . S
H28 C38 0.929 . S
H29 C30 0.969 . S
C30 H29 0.969 . S
C30 O31 1.550 . S
C30 H32 0.973 . S
O31 C30 1.550 . S
O31 C37 1.412 . S
H32 C30 0.973 . S
C33 H26 0.929 . S
C33 C34 1.400 . S
C33 C35 1.364 . S
C34 C33 1.400 . S
C34 C38 1.377 . S
C35 C33 1.364 . S
C35 C36 1.374 . S
C36 H27 0.930 . S
C36 C35 1.374 . S
C36 C37 1.383 . S
C37 O31 1.412 . S
C37 C36 1.383 . S
C37 C38 1.394 . S
C38 H28 0.929 . S
C38 C34 1.377 . S
C38 C37 1.394 . S
H39 C46 0.929 . S
H40 C49 0.930 . S
H41 C51 0.929 . S
H42 C43 0.969 . S
C43 H42 0.969 . S
C43 O44 1.550 . S
C43 H45 0.973 . S
O44 C43 1.550 . S
O44 C50 1.412 . S
H45 C43 0.973 . S
C46 H39 0.929 . S
C46 C47 1.400 . S
C46 C48 1.364 . S
C47 C46 1.400 . S
C47 C51 1.377 . S
C48 C46 1.364 . S
C48 C49 1.374 . S
C49 H40 0.930 . S
C49 C48 1.374 . S
C49 C50 1.383 . S
C50 O44 1.412 . S
C50 C49 1.383 . S
C50 C51 1.394 . S
C51 H41 0.929 . S
C51 C47 1.377 . S
C51 C50 1.394 . S
H52 C59 0.929 . S
H53 C62 0.930 . S
H54 C64 0.929 1_545 S
H55 C56 0.969 . S
C56 H55 0.969 . S
C56 O57 1.550 . S
C56 H58 0.973 . S
O57 C56 1.550 . S
O57 C63 1.412 . S
H58 C56 0.973 . S
C59 H52 0.929 . S
C59 C60 1.400 . S
C59 C61 1.364 . S
C60 C59 1.400 . S
C60 C64 1.377 . S
C61 C59 1.364 . S
C61 C62 1.374 . S
C62 H53 0.930 . S
C62 C61 1.374 . S
C62 C63 1.383 . S
C63 O57 1.412 . S
C63 C62 1.383 . S
C63 C64 1.394 . S
C64 H54 0.929 1_565 S
C64 C60 1.377 . S
C64 C63 1.394 . S
H65 C72 0.929 . S
H66 C75 0.930 . S
H67 C77 0.929 . S
H68 C69 0.969 . S
C69 H68 0.969 . S
C69 O70 1.550 . S
C69 H71 0.973 . S
O70 C69 1.550 . S
O70 C76 1.412 . S
H71 C69 0.973 . S
C72 H65 0.929 . S
C72 C73 1.400 . S
C72 C74 1.364 . S
C73 C72 1.400 . S
C73 C77 1.377 . S
C74 C72 1.364 . S
C74 C75 1.374 . S
C75 H66 0.930 . S
C75 C74 1.374 . S
C75 C76 1.383 . S
C76 O70 1.412 . S
C76 C75 1.383 . S
C76 C77 1.394 . S
C77 H67 0.929 . S
C77 C73 1.377 . S
C77 C76 1.394 . S
H78 C85 0.929 . S
H79 C88 0.930 . S
H80 C90 0.929 . S
H81 C82 0.969 . S
C82 H81 0.969 . S
C82 O83 1.550 . S
C82 H84 0.973 . S
O83 C82 1.550 . S
O83 C89 1.412 . S
H84 C82 0.973 . S
C85 H78 0.929 . S
C85 C86 1.400 . S
C85 C87 1.364 . S
C86 C85 1.400 . S
C86 C90 1.377 . S
C87 C85 1.364 . S
C87 C88 1.374 . S
C88 H79 0.930 . S
C88 C87 1.374 . S
C88 C89 1.383 . S
C89 O83 1.412 . S
C89 C88 1.383 . S
C89 C90 1.394 . S
C90 H80 0.929 . S
C90 C86 1.377 . S
C90 C89 1.394 . S
H91 C98 0.929 . S
H92 C101 0.930 . S
H93 C103 0.929 . S
H94 C95 0.969 . S
C95 H94 0.969 . S
C95 O96 1.550 . S
C95 H97 0.973 . S
O96 C95 1.550 . S
O96 C102 1.412 . S
H97 C95 0.973 . S
C98 H91 0.929 . S
C98 C99 1.400 . S
C98 C100 1.364 . S
C99 C98 1.400 . S
C99 C103 1.377 . S
C100 C98 1.364 . S
C100 C101 1.374 . S
C101 H92 0.930 . S
C101 C100 1.374 . S
C101 C102 1.383 . S
C102 O96 1.412 . S
C102 C101 1.383 . S
C102 C103 1.394 . S
C103 H93 0.929 . S
C103 C99 1.377 . S
C103 C102 1.394 . S
H104 C111 0.929 . S
H105 C114 0.930 . S
H106 C116 0.929 . S
H107 C108 0.969 . S
C108 H107 0.969 . S
C108 O109 1.550 . S
C108 H110 0.973 . S
O109 C108 1.550 . S
O109 C115 1.412 . S
H110 C108 0.973 . S
C111 H104 0.929 . S
C111 C112 1.400 . S
C111 C113 1.364 . S
C112 C111 1.400 . S
C112 C116 1.377 . S
C113 C111 1.364 . S
C113 C114 1.374 . S
C114 H105 0.930 . S
C114 C113 1.374 . S
C114 C115 1.383 . S
C115 O109 1.412 . S
C115 C114 1.383 . S
C115 C116 1.394 . S
C116 H106 0.929 . S
C116 C112 1.377 . S
C116 C115 1.394 . S
H117 C124 0.929 . S
H118 C127 0.930 . S
H119 C129 0.929 . S
H120 C121 0.969 . S
C121 H120 0.969 . S
C121 O122 1.550 . S
C121 H123 0.973 . S
O122 C121 1.550 . S
O122 C128 1.412 . S
H123 C121 0.973 . S
C124 H117 0.929 . S
C124 C125 1.400 . S
C124 C126 1.364 . S
C125 C124 1.400 . S
C125 C129 1.377 . S
C126 C124 1.364 . S
C126 C127 1.374 . S
C127 H118 0.930 . S
C127 C126 1.374 . S
C127 C128 1.383 . S
C128 O122 1.412 . S
C128 C127 1.383 . S
C128 C129 1.394 . S
C129 H119 0.929 . S
C129 C125 1.377 . S
C129 C128 1.394 . S
H130 C137 0.929 . S
H131 C140 0.930 . S
H132 C142 0.929 . S
H133 C134 0.969 . S
C134 H133 0.969 . S
C134 O135 1.550 . S
C134 H136 0.973 . S
O135 C134 1.550 . S
O135 C141 1.412 . S
H136 C134 0.973 . S
C137 H130 0.929 . S
C137 C138 1.400 . S
C137 C139 1.364 . S
C138 C137 1.400 . S
C138 C142 1.377 . S
C139 C137 1.364 . S
C139 C140 1.374 . S
C140 H131 0.930 . S
C140 C139 1.374 . S
C140 C141 1.383 . S
C141 O135 1.412 . S
C141 C140 1.383 . S
C141 C142 1.394 . S
C142 H132 0.929 . S
C142 C138 1.377 . S
C142 C141 1.394 . S
H143 C150 0.929 . S
H144 C153 0.930 . S
H145 C155 0.929 . S
H146 C147 0.969 . S
C147 H146 0.969 . S
C147 O148 1.550 . S
C147 H149 0.973 . S
O148 C147 1.550 . S
O148 C154 1.412 . S
H149 C147 0.973 . S
C150 H143 0.929 . S
C150 C151 1.400 . S
C150 C152 1.364 . S
C151 C150 1.400 . S
C151 C155 1.377 . S
C152 C150 1.364 . S
C152 C153 1.374 . S
C153 H144 0.930 . S
C153 C152 1.374 . S
C153 C154 1.383 . S
C154 O148 1.412 . S
C154 C153 1.383 . S
C154 C155 1.394 . S
C155 H145 0.929 . S
C155 C151 1.377 . S
C155 C154 1.394 . S
H156 C163 0.929 . S
H157 C166 0.930 . S
H158 C168 0.929 . S
H159 C160 0.969 . S
C160 H159 0.969 . S
C160 O161 1.550 . S
C160 H162 0.973 . S
O161 C160 1.550 . S
O161 C167 1.412 . S
H162 C160 0.973 . S
C163 H156 0.929 . S
C163 C164 1.400 . S
C163 C165 1.364 . S
C164 C163 1.400 . S
C164 C168 1.377 . S
C165 C163 1.364 . S
C165 C166 1.374 . S
C166 H157 0.930 . S
C166 C165 1.374 . S
C166 C167 1.383 . S
C167 O161 1.412 . S
C167 C166 1.383 . S
C167 C168 1.394 . S
C168 H158 0.929 . S
C168 C164 1.377 . S
C168 C167 1.394 . S
H169 C176 0.929 . S
H170 C179 0.930 . S
H171 C181 0.929 . S
H172 C173 0.969 . S
C173 H172 0.969 . S
C173 O174 1.550 . S
C173 H175 0.973 . S
O174 C173 1.550 . S
O174 C180 1.412 . S
H175 C173 0.973 . S
C176 H169 0.929 . S
C176 C177 1.400 . S
C176 C178 1.364 . S
C177 C176 1.400 . S
C177 C181 1.377 . S
C178 C176 1.364 . S
C178 C179 1.374 . S
C179 H170 0.930 . S
C179 C178 1.374 . S
C179 C180 1.383 . S
C180 O174 1.412 . S
C180 C179 1.383 . S
C180 C181 1.394 . S
C181 H171 0.929 . S
C181 C177 1.377 . S
C181 C180 1.394 . S
H182 C189 0.929 . S
H183 C192 0.930 . S
H184 C194 0.929 . S
H185 C186 0.969 . S
C186 H185 0.969 . S
C186 O187 1.550 . S
C186 H188 0.973 . S
O187 C186 1.550 . S
O187 C193 1.412 . S
H188 C186 0.973 . S
C189 H182 0.929 . S
C189 C190 1.400 . S
C189 C191 1.364 . S
C190 C189 1.400 . S
C190 C194 1.377 . S
C191 C189 1.364 . S
C191 C192 1.374 . S
C192 H183 0.930 . S
C192 C191 1.374 . S
C192 C193 1.383 . S
C193 O187 1.412 . S
C193 C192 1.383 . S
C193 C194 1.394 . S
C194 H184 0.929 . S
C194 C190 1.377 . S
C194 C193 1.394 . S
H195 C202 0.929 . S
H196 C205 0.930 . S
H197 C207 0.929 . S
H198 C199 0.969 . S
C199 H198 0.969 . S
C199 O200 1.550 . S
C199 H201 0.973 . S
O200 C199 1.550 . S
O200 C206 1.412 . S
H201 C199 0.973 . S
C202 H195 0.929 . S
C202 C203 1.400 . S
C202 C204 1.364 . S
C203 C202 1.400 . S
C203 C207 1.377 . S
C204 C202 1.364 . S
C204 C205 1.374 . S
C205 H196 0.930 . S
C205 C204 1.374 . S
C205 C206 1.383 . S
C206 O200 1.412 . S
C206 C205 1.383 . S
C206 C207 1.394 . S
C207 H197 0.929 . S
C207 C203 1.377 . S
C207 C206 1.394 . S
O208 Cd209 2.223 1_556 S
O208 C216 1.315 . S
Cd209 O208 2.223 1_554 S
Cd209 O212 2.297 . S
Cd209 O213 2.439 . S
Cd209 O219 2.240 . S
Cd210 O211 2.239 . S
Cd210 O218 2.223 . S
Cd210 O220 2.297 1_566 S
Cd210 O221 2.439 1_556 S
O211 Cd210 2.239 . S
O211 C216 1.298 . S
O212 Cd209 2.297 . S
O212 C214 1.247 . S
O213 Cd209 2.439 . S
O213 C214 1.208 . S
C214 O212 1.247 . S
C214 O213 1.208 . S
C215 O220 1.247 1_565 S
C215 O221 1.208 . S
C216 O208 1.315 . S
C216 O211 1.298 . S
C217 O218 1.315 . S
C217 O219 1.279 1_556 S
O218 Cd210 2.223 . S
O218 C217 1.315 . S
O219 Cd209 2.240 . S
O219 C217 1.279 1_554 S
O220 Cd210 2.297 1_544 S
O220 C215 1.247 1_545 S
O221 Cd210 2.439 1_554 S
O221 C215 1.208 . S
O222 Cd223 2.223 . S
O222 C230 1.315 . S
Cd223 O222 2.223 . S
Cd223 O226 2.297 . S
Cd223 O227 2.439 . S
Cd223 O233 2.240 . S
Cd224 O225 2.240 . S
Cd224 O232 2.223 . S
Cd224 O234 2.297 . S
Cd224 O235 2.439 . S
O225 Cd224 2.240 . S
O225 C230 1.279 . S
O226 Cd223 2.297 . S
O226 C228 1.247 . S
O227 Cd223 2.439 . S
O227 C228 1.208 . S
C228 O226 1.247 . S
C228 O227 1.208 . S
C229 O234 1.247 . S
C229 O235 1.208 . S
C230 O222 1.315 . S
C230 O225 1.279 . S
C231 O232 1.315 . S
C231 O233 1.279 . S
O232 Cd224 2.223 . S
O232 C231 1.315 . S
O233 Cd223 2.240 . S
O233 C231 1.279 . S
O234 Cd224 2.297 . S
O234 C229 1.247 . S
O235 Cd224 2.439 . S
O235 C229 1.208 . S
O236 Cd237 2.223 1_556 S
O236 C244 1.315 . S
Cd237 O236 2.223 1_554 S
Cd237 O240 2.297 . S
Cd237 O241 2.439 . S
Cd237 O247 2.240 . S
Cd238 O239 2.240 1_554 S
Cd238 O246 2.204 1_554 S
Cd238 O248 2.308 . S
Cd238 O249 2.473 . S
O239 Cd238 2.240 1_556 S
O239 C244 1.279 . S
O240 Cd237 2.297 . S
O240 C242 1.247 . S
O241 Cd237 2.439 . S
O241 C242 1.208 . S
C242 O240 1.247 . S
C242 O241 1.208 . S
C243 O248 1.247 . S
C243 O249 1.208 . S
C244 O236 1.315 . S
C244 O239 1.279 . S
C245 O246 1.315 . S
C245 O247 1.279 1_556 S
O246 Cd238 2.204 1_556 S
O246 C245 1.315 . S
O247 Cd237 2.240 . S
O247 C245 1.279 1_554 S
O248 Cd238 2.308 . S
O248 C243 1.247 . S
O249 Cd238 2.473 . S
O249 C243 1.208 . S
O250 Cd251 2.223 . S
O250 C258 1.315 . S
Cd251 O250 2.223 . S
Cd251 O254 2.297 . S
Cd251 O255 2.439 . S
Cd251 O261 2.240 . S
Cd252 O253 2.240 . S
Cd252 O260 2.223 . S
Cd252 O262 2.297 . S
Cd252 O263 2.439 . S
O253 Cd252 2.240 . S
O253 C258 1.279 . S
O254 Cd251 2.297 . S
O254 C256 1.247 . S
O255 Cd251 2.439 . S
O255 C256 1.208 . S
C256 O254 1.247 . S
C256 O255 1.208 . S
C257 O262 1.247 . S
C257 O263 1.208 . S
C258 O250 1.315 . S
C258 O253 1.279 . S
C259 O260 1.315 . S
C259 O261 1.279 . S
O260 Cd252 2.223 . S
O260 C259 1.315 . S
O261 Cd251 2.240 . S
O261 C259 1.279 . S
O262 Cd252 2.297 . S
O262 C257 1.247 . S
O263 Cd252 2.439 . S
O263 C257 1.208 . S
O264 Cd265 2.223 . S
O264 C272 1.315 . S
Cd265 O264 2.223 . S
Cd265 O268 2.297 . S
Cd265 O269 2.439 . S
Cd265 O275 2.240 . S
Cd266 O267 2.240 . S
Cd266 O274 2.223 . S
Cd266 O276 2.297 . S
Cd266 O277 2.439 . S
O267 Cd266 2.240 . S
O267 C272 1.279 . S
O268 Cd265 2.297 . S
O268 C270 1.247 . S
O269 Cd265 2.439 . S
O269 C270 1.208 . S
C270 O268 1.247 . S
C270 O269 1.208 . S
C271 O276 1.247 . S
C271 O277 1.208 . S
C272 O264 1.315 . S
C272 O267 1.279 . S
C273 O274 1.315 . S
C273 O275 1.279 . S
O274 Cd266 2.223 . S
O274 C273 1.315 . S
O275 Cd265 2.240 . S
O275 C273 1.279 . S
O276 Cd266 2.297 . S
O276 C271 1.247 . S
O277 Cd266 2.439 . S
O277 C271 1.208 . S
O278 Cd279 2.223 . S
O278 C286 1.315 . S
Cd279 O278 2.223 . S
Cd279 O282 2.297 . S
Cd279 O283 2.439 . S
Cd279 O289 2.240 . S
Cd280 O281 2.240 . S
Cd280 O288 2.223 . S
Cd280 O290 2.297 . S
Cd280 O291 2.439 . S
O281 Cd280 2.240 . S
O281 C286 1.279 . S
O282 Cd279 2.297 . S
O282 C284 1.247 . S
O283 Cd279 2.439 . S
O283 C284 1.208 . S
C284 O282 1.247 . S
C284 O283 1.208 . S
C285 O290 1.247 . S
C285 O291 1.208 . S
C286 O278 1.315 . S
C286 O281 1.279 . S
C287 O288 1.315 . S
C287 O289 1.279 . S
O288 Cd280 2.223 . S
O288 C287 1.315 . S
O289 Cd279 2.240 . S
O289 C287 1.279 . S
O290 Cd280 2.297 . S
O290 C285 1.247 . S
O291 Cd280 2.439 . S
O291 C285 1.208 . S
O292 Cd293 2.223 . S
O292 C300 1.315 . S
Cd293 O292 2.223 . S
Cd293 O296 2.297 . S
Cd293 O297 2.439 . S
Cd293 O303 2.240 . S
Cd294 O295 2.240 . S
Cd294 O302 2.223 . S
Cd294 O304 2.297 . S
Cd294 O305 2.439 . S
O295 Cd294 2.240 . S
O295 C300 1.279 . S
O296 Cd293 2.297 . S
O296 C298 1.247 . S
O297 Cd293 2.439 . S
O297 C298 1.208 . S
C298 O296 1.247 . S
C298 O297 1.208 . S
C299 O304 1.247 . S
C299 O305 1.208 . S
C300 O292 1.315 . S
C300 O295 1.279 . S
C301 O302 1.315 . S
C301 O303 1.279 . S
O302 Cd294 2.223 . S
O302 C301 1.315 . S
O303 Cd293 2.240 . S
O303 C301 1.279 . S
O304 Cd294 2.297 . S
O304 C299 1.247 . S
O305 Cd294 2.439 . S
O305 C299 1.208 . S
O306 Cd307 2.223 1_545 S
O306 C314 1.315 . S
Cd307 O306 2.223 1_565 S
Cd307 O310 2.297 . S
Cd307 O311 2.439 . S
Cd307 O317 2.240 1_565 S
Cd308 O309 2.240 . S
Cd308 O316 2.223 . S
Cd308 O318 2.297 . S
Cd308 O319 2.439 1_545 S
O309 Cd308 2.240 . S
O309 C314 1.279 . S
O310 Cd307 2.297 . S
O310 C312 1.247 . S
O311 Cd307 2.439 . S
O311 C312 1.208 . S
C312 O310 1.247 . S
C312 O311 1.208 . S
C313 O318 1.247 1_565 S
C313 O319 1.208 . S
C314 O306 1.315 . S
C314 O309 1.279 . S
C315 O316 1.315 . S
C315 O317 1.279 . S
O316 Cd308 2.223 . S
O316 C315 1.315 . S
O317 Cd307 2.240 1_545 S
O317 C315 1.279 . S
O318 Cd308 2.297 . S
O318 C313 1.247 1_545 S
O319 Cd308 2.439 1_565 S
O319 C313 1.208 . S
O320 Cd321 2.223 . S
O320 C328 1.315 . S
Cd321 O320 2.223 . S
Cd321 O324 2.297 . S
Cd321 O325 2.439 1_655 S
Cd321 O331 2.240 . S
Cd322 O323 2.240 . S
Cd322 O330 2.223 1_455 S
Cd322 O332 2.297 . S
Cd322 O333 2.439 . S
O323 Cd322 2.240 . S
O323 C328 1.279 1_455 S
O324 Cd321 2.297 . S
O324 C326 1.247 1_655 S
O325 Cd321 2.439 1_455 S
O325 C326 1.208 . S
C326 O324 1.247 1_455 S
C326 O325 1.208 . S
C327 O332 1.247 . S
C327 O333 1.208 . S
C328 O320 1.315 . S
C328 O323 1.279 1_655 S
C329 O330 1.315 . S
C329 O331 1.279 . S
O330 Cd322 2.223 1_655 S
O330 C329 1.315 . S
O331 Cd321 2.240 . S
O331 C329 1.279 . S
O332 Cd322 2.297 . S
O332 C327 1.247 . S
O333 Cd322 2.439 . S
O333 C327 1.208 . S
O334 Cd335 2.223 . S
O334 C342 1.315 . S
Cd335 O334 2.223 . S
Cd335 O338 2.297 . S
Cd335 O339 2.439 . S
Cd335 O345 2.240 . S
Cd336 O337 2.240 . S
Cd336 O344 2.223 . S
Cd336 O346 2.297 . S
Cd336 O347 2.439 . S
O337 Cd336 2.240 . S
O337 C342 1.279 . S
O338 Cd335 2.297 . S
O338 C340 1.247 . S
O339 Cd335 2.439 . S
O339 C340 1.208 . S
C340 O338 1.247 . S
C340 O339 1.208 . S
C341 O346 1.247 . S
C341 O347 1.208 . S
C342 O334 1.315 . S
C342 O337 1.279 . S
C343 O344 1.315 . S
C343 O345 1.279 . S
O344 Cd336 2.223 . S
O344 C343 1.315 . S
O345 Cd335 2.240 . S
O345 C343 1.279 . S
O346 Cd336 2.297 . S
O346 C341 1.247 . S
O347 Cd336 2.439 . S
O347 C341 1.208 . S
O348 Cd349 2.223 1_655 S
O348 C356 1.315 . S
Cd349 O348 2.223 1_455 S
Cd349 O352 2.297 . S
Cd349 O353 2.439 . S
Cd349 O359 2.240 . S
Cd350 O351 2.240 . S
Cd350 O358 2.223 . S
Cd350 O360 2.297 1_655 S
Cd350 O361 2.439 1_655 S
O351 Cd350 2.240 . S
O351 C356 1.279 . S
O352 Cd349 2.297 . S
O352 C354 1.247 . S
O353 Cd349 2.439 . S
O353 C354 1.208 . S
C354 O352 1.247 . S
C354 O353 1.208 . S
C355 O360 1.247 . S
C355 O361 1.208 . S
C356 O348 1.315 . S
C356 O351 1.279 . S
C357 O358 1.315 . S
C357 O359 1.279 1_655 S
O358 Cd350 2.223 . S
O358 C357 1.315 . S
O359 Cd349 2.240 . S
O359 C357 1.279 1_455 S
O360 Cd350 2.297 1_455 S
O360 C355 1.247 . S
O361 Cd350 2.439 1_455 S
O361 C355 1.208 . S
O362 Cd363 2.223 . S
O362 C370 1.315 . S
Cd363 O362 2.223 . S
Cd363 O366 2.297 . S
Cd363 O367 2.439 . S
Cd363 O373 2.240 . S
Cd364 O365 2.240 . S
Cd364 O372 2.223 . S
Cd364 O374 2.297 . S
Cd364 O375 2.439 . S
O365 Cd364 2.240 . S
O365 C370 1.279 . S
O366 Cd363 2.297 . S
O366 C368 1.247 . S
O367 Cd363 2.439 . S
O367 C368 1.208 . S
C368 O366 1.247 . S
C368 O367 1.208 . S
C369 O374 1.247 . S
C369 O375 1.208 . S
C370 O362 1.315 . S
C370 O365 1.279 . S
C371 O372 1.315 . S
C371 O373 1.279 . S
O372 Cd364 2.223 . S
O372 C371 1.315 . S
O373 Cd363 2.240 . S
O373 C371 1.279 . S
O374 Cd364 2.297 . S
O374 C369 1.247 . S
O375 Cd364 2.439 . S
O375 C369 1.208 . S
C376 C377 1.369 . S
C376 C378 1.419 . S
C376 H380 0.930 . S
C377 C376 1.369 . S
C377 C386 1.429 . S
C378 C376 1.419 . S
C378 C379 1.363 . S
C378 H381 0.929 . S
C379 C378 1.363 . S
C379 C385 1.428 . S
H380 C376 0.930 . S
H381 C378 0.929 . S
S382 N383 1.613 . S
S382 N384 1.610 . S
N383 S382 1.613 . S
N383 C386 1.350 . S
N384 S382 1.610 . S
N384 C385 1.351 . S
C385 C379 1.428 . S
C385 N384 1.351 . S
C385 C386 1.434 . S
C386 C377 1.429 . S
C386 N383 1.350 . S
C386 C385 1.434 . S
C387 C388 1.369 . S
C387 C389 1.419 . S
C387 H391 0.930 . S
C388 C387 1.369 . S
C388 C397 1.429 . S
C389 C387 1.419 . S
C389 C390 1.363 . S
C389 H392 0.929 . S
C390 C389 1.363 . S
C390 C396 1.428 . S
H391 C387 0.930 . S
H392 C389 0.929 . S
S393 N394 1.613 . S
S393 N395 1.610 1_655 S
N394 S393 1.613 . S
N394 C397 1.347 1_655 S
N395 S393 1.610 1_455 S
N395 C396 1.351 . S
C396 C390 1.428 . S
C396 N395 1.351 . S
C396 C397 1.436 . S
C397 C388 1.429 . S
C397 N394 1.347 1_455 S
C397 C396 1.436 . S
C398 C399 1.369 . S
C398 C400 1.419 . S
C398 H402 0.930 . S
C399 C398 1.369 . S
C399 C408 1.429 . S
C400 C398 1.419 . S
C400 C401 1.363 . S
C400 H403 0.929 . S
C401 C400 1.363 . S
C401 C407 1.428 . S
H402 C398 0.930 . S
H403 C400 0.929 . S
S404 N405 1.613 . S
S404 N406 1.610 . S
N405 S404 1.613 . S
N405 C408 1.350 . S
N406 S404 1.610 . S
N406 C407 1.351 . S
C407 C401 1.428 . S
C407 N406 1.351 . S
C407 C408 1.434 . S
C408 C399 1.429 . S
C408 N405 1.350 . S
C408 C407 1.434 . S
C409 C410 1.369 1_655 S
C409 C411 1.419 1_565 S
C409 H413 0.930 . S
C410 C409 1.369 1_455 S
C410 C419 1.429 . S
C411 C409 1.419 1_545 S
C411 C412 1.363 . S
C411 H414 0.929 . S
C412 C411 1.363 . S
C412 C418 1.428 . S
H413 C409 0.930 . S
H414 C411 0.929 . S
S415 N416 1.613 1_545 S
S415 N417 1.610 1_455 S
N416 S415 1.613 1_565 S
N416 C419 1.350 . S
N417 S415 1.610 1_655 S
N417 C418 1.351 . S
C418 C412 1.428 . S
C418 N417 1.351 . S
C418 C419 1.434 1_645 S
C419 C410 1.429 . S
C419 N416 1.350 . S
C419 C418 1.434 1_465 S
C420 C421 1.369 . S
C420 C422 1.419 . S
C420 H424 0.930 . S
C421 C420 1.369 . S
C421 C430 1.429 . S
C422 C420 1.419 . S
C422 C423 1.363 . S
C422 H425 0.929 . S
C423 C422 1.363 . S
C423 C429 1.428 . S
H424 C420 0.930 . S
H425 C422 0.929 . S
S426 N427 1.613 . S
S426 N428 1.610 . S
N427 S426 1.613 . S
N427 C430 1.350 . S
N428 S426 1.610 . S
N428 C429 1.351 . S
C429 C423 1.428 . S
C429 N428 1.351 . S
C429 C430 1.434 . S
C430 C421 1.429 . S
C430 N427 1.350 . S
C430 C429 1.434 . S
C431 C432 1.369 . S
C431 C433 1.419 . S
C431 H435 0.930 . S
C432 C431 1.369 . S
C432 C441 1.429 . S
C433 C431 1.419 . S
C433 C434 1.363 . S
C433 H436 0.929 . S
C434 C433 1.363 . S
C434 C440 1.428 . S
H435 C431 0.930 . S
H436 C433 0.929 . S
S437 N438 1.613 . S
S437 N439 1.610 . S
N438 S437 1.613 . S
N438 C441 1.350 . S
N439 S437 1.610 . S
N439 C440 1.351 . S
C440 C434 1.428 . S
C440 N439 1.351 . S
C440 C441 1.434 . S
C441 C432 1.429 . S
C441 N438 1.350 . S
C441 C440 1.434 . S
C442 C443 1.369 . S
C442 C444 1.419 . S
C442 H446 0.930 . S
C443 C442 1.369 . S
C443 C452 1.429 . S
C444 C442 1.419 . S
C444 C445 1.363 . S
C444 H447 0.929 . S
C445 C444 1.363 . S
C445 C451 1.428 . S
H446 C442 0.930 . S
H447 C444 0.929 . S
S448 N449 1.613 . S
S448 N450 1.610 . S
N449 S448 1.613 . S
N449 C452 1.350 . S
N450 S448 1.610 . S
N450 C451 1.351 . S
C451 C445 1.428 . S
C451 N450 1.351 . S
C451 C452 1.434 . S
C452 C443 1.429 . S
C452 N449 1.350 . S
C452 C451 1.434 . S
C453 C454 1.369 . S
C453 C455 1.419 . S
C453 H457 0.930 . S
C454 C453 1.369 . S
C454 C463 1.429 . S
C455 C453 1.419 . S
C455 C456 1.363 . S
C455 H458 0.929 . S
C456 C455 1.363 . S
C456 C462 1.428 . S
H457 C453 0.930 . S
H458 C455 0.929 . S
S459 N460 1.613 . S
S459 N461 1.610 . S
N460 S459 1.613 . S
N460 C463 1.350 1_545 S
N461 S459 1.610 . S
N461 C462 1.351 1_545 S
C462 C456 1.428 . S
C462 N461 1.351 1_565 S
C462 C463 1.434 . S
C463 C454 1.429 . S
C463 N460 1.350 1_565 S
C463 C462 1.434 . S
C464 C465 1.369 . S
C464 C466 1.419 . S
C464 H468 0.930 . S
C465 C464 1.369 . S
C465 C474 1.429 . S
C466 C464 1.419 . S
C466 C467 1.363 . S
C466 H469 0.929 . S
C467 C466 1.363 . S
C467 C473 1.428 . S
H468 C464 0.930 . S
H469 C466 0.929 . S
S470 N471 1.613 . S
S470 N472 1.610 . S
N471 S470 1.613 . S
N471 C474 1.350 . S
N472 S470 1.610 . S
N472 C473 1.351 . S
C473 C467 1.428 . S
C473 N472 1.351 . S
C473 C474 1.434 . S
C474 C465 1.429 . S
C474 N471 1.350 . S
C474 C473 1.434 . S
C475 C476 1.369 . S
C475 C477 1.419 . S
C475 H479 0.930 . S
C476 C475 1.369 . S
C476 C485 1.429 . S
C477 C475 1.419 . S
C477 C478 1.363 . S
C477 H480 0.929 . S
C478 C477 1.363 . S
C478 C484 1.428 . S
H479 C475 0.930 . S
H480 C477 0.929 . S
S481 N482 1.613 . S
S481 N483 1.610 . S
N482 S481 1.613 . S
N482 C485 1.350 . S
N483 S481 1.610 . S
N483 C484 1.351 . S
C484 C478 1.428 . S
C484 N483 1.351 . S
C484 C485 1.434 . S
C485 C476 1.429 . S
C485 N482 1.350 . S
C485 C484 1.434 . S
C486 C487 1.369 . S
C486 C488 1.419 . S
C486 H490 0.930 . S
C487 C486 1.369 . S
C487 C496 1.429 . S
C488 C486 1.419 . S
C488 C489 1.363 . S
C488 H491 0.929 . S
C489 C488 1.363 . S
C489 C495 1.428 . S
H490 C486 0.930 . S
H491 C488 0.929 . S
S492 N493 1.613 . S
S492 N494 1.610 . S
N493 S492 1.613 . S
N493 C496 1.350 . S
N494 S492 1.610 . S
N494 C495 1.351 . S
C495 C489 1.428 . S
C495 N494 1.351 . S
C495 C496 1.434 . S
C496 C487 1.429 . S
C496 N493 1.350 . S
C496 C495 1.434 . S
C497 C498 1.369 . S
C497 C499 1.419 . S
C497 H501 0.930 . S
C498 C497 1.369 . S
C498 C507 1.429 . S
C499 C497 1.419 . S
C499 C500 1.363 . S
C499 H502 0.929 . S
C500 C499 1.363 . S
C500 C506 1.428 . S
H501 C497 0.930 . S
H502 C499 0.929 . S
S503 N504 1.613 . S
S503 N505 1.610 . S
N504 S503 1.613 . S
N504 C507 1.350 . S
N505 S503 1.610 . S
N505 C506 1.351 . S
C506 C500 1.428 . S
C506 N505 1.351 . S
C506 C507 1.434 . S
C507 C498 1.429 . S
C507 N504 1.350 . S
C507 C506 1.434 . S
C508 C509 1.369 . S
C508 C510 1.419 . S
C508 H512 0.930 . S
C509 C508 1.369 . S
C509 C518 1.429 . S
C510 C508 1.419 . S
C510 C511 1.363 . S
C510 H513 0.929 . S
C511 C510 1.363 . S
C511 C517 1.428 . S
H512 C508 0.930 . S
H513 C510 0.929 . S
S514 N515 1.613 . S
S514 N516 1.610 . S
N515 S514 1.613 . S
N515 C518 1.350 . S
N516 S514 1.610 . S
N516 C517 1.351 . S
C517 C511 1.428 . S
C517 N516 1.351 . S
C517 C518 1.434 . S
C518 C509 1.429 . S
C518 N515 1.350 . S
C518 C517 1.434 . S
C519 C520 1.369 . S
C519 C521 1.419 . S
C519 H523 0.930 . S
C520 C519 1.369 . S
C520 C529 1.429 . S
C521 C519 1.419 . S
C521 C522 1.363 . S
C521 H524 0.929 . S
C522 C521 1.363 . S
C522 C528 1.428 . S
H523 C519 0.930 . S
H524 C521 0.929 . S
S525 N526 1.613 . S
S525 N527 1.610 . S
N526 S525 1.613 . S
N526 C529 1.350 . S
N527 S525 1.610 . S
N527 C528 1.351 . S
C528 C522 1.428 . S
C528 N527 1.351 . S
C528 C529 1.434 . S
C529 C520 1.429 . S
C529 N526 1.350 . S
C529 C528 1.434 . S
C530 C531 1.369 . S
C530 C532 1.419 . S
C530 H534 0.930 . S
C531 C530 1.369 . S
C531 C540 1.429 . S
C532 C530 1.419 . S
C532 C533 1.363 . S
C532 H535 0.929 . S
C533 C532 1.363 . S
C533 C539 1.428 . S
H534 C530 0.930 . S
H535 C532 0.929 . S
S536 N537 1.613 . S
S536 N538 1.610 . S
N537 S536 1.613 . S
N537 C540 1.350 . S
N538 S536 1.610 . S
N538 C539 1.351 . S
C539 C533 1.428 . S
C539 N538 1.351 . S
C539 C540 1.434 . S
C540 C531 1.429 . S
C540 N537 1.350 . S
C540 C539 1.434 . S
C541 C542 1.369 . S
C541 C543 1.419 . S
C541 H545 0.930 . S
C542 C541 1.369 . S
C542 C551 1.429 . S
C543 C541 1.419 . S
C543 C544 1.363 . S
C543 H546 0.929 . S
C544 C543 1.363 . S
C544 C550 1.428 . S
H545 C541 0.930 . S
H546 C543 0.929 . S
S547 N548 1.613 . S
S547 N549 1.610 . S
N548 S547 1.613 . S
N548 C551 1.350 . S
N549 S547 1.610 . S
N549 C550 1.351 . S
C550 C544 1.428 . S
C550 N549 1.351 . S
C550 C551 1.434 . S
C551 C542 1.429 . S
C551 N548 1.350 . S
C551 C550 1.434 . S
C552 C553 1.369 . S
C552 C554 1.419 . S
C552 H556 0.930 . S
C553 C552 1.369 . S
C553 C562 1.429 . S
C554 C552 1.419 . S
C554 C555 1.363 . S
C554 H557 0.929 . S
C555 C554 1.363 . S
C555 C561 1.428 . S
H556 C552 0.930 . S
H557 C554 0.929 . S
S558 N559 1.613 . S
S558 N560 1.610 1_565 S
N559 S558 1.613 . S
N559 C562 1.350 . S
N560 S558 1.610 1_545 S
N560 C561 1.351 1_545 S
C561 C555 1.428 . S
C561 N560 1.351 1_565 S
C561 C562 1.434 . S
C562 C553 1.429 . S
C562 N559 1.350 . S
C562 C561 1.434 . S
C563 C564 1.369 . S
C563 C565 1.419 . S
C563 H567 0.930 . S
C564 C563 1.369 . S
C564 C573 1.429 . S
C565 C563 1.419 . S
C565 C566 1.363 . S
C565 H568 0.929 . S
C566 C565 1.363 . S
C566 C572 1.428 . S
H567 C563 0.930 . S
H568 C565 0.929 . S
S569 N570 1.613 . S
S569 N571 1.610 . S
N570 S569 1.613 . S
N570 C573 1.350 . S
N571 S569 1.610 . S
N571 C572 1.351 . S
C572 C566 1.428 . S
C572 N571 1.351 . S
C572 C573 1.434 . S
C573 C564 1.429 . S
C573 N570 1.350 . S
C573 C572 1.434 . S
C574 C575 1.369 . S
C574 C576 1.419 . S
C574 H578 0.930 . S
C575 C574 1.369 . S
C575 C584 1.429 . S
C576 C574 1.419 . S
C576 C577 1.363 . S
C576 H579 0.929 . S
C577 C576 1.363 . S
C577 C583 1.428 1_556 S
H578 C574 0.930 . S
H579 C576 0.929 . S
S580 N581 1.613 . S
S580 N582 1.610 . S
N581 S580 1.613 . S
N581 C584 1.350 1_554 S
N582 S580 1.610 . S
N582 C583 1.351 . S
C583 C577 1.428 1_554 S
C583 N582 1.351 . S
C583 C584 1.434 1_554 S
C584 C575 1.429 . S
C584 N581 1.350 1_556 S
C584 C583 1.434 1_556 S
C585 C586 1.369 . S
C585 C587 1.419 . S
C585 H589 0.930 . S
C586 C585 1.369 . S
C586 C595 1.429 . S
C587 C585 1.419 . S
C587 C588 1.363 . S
C587 H590 0.929 . S
C588 C587 1.363 . S
C588 C594 1.428 . S
H589 C585 0.930 . S
H590 C587 0.929 . S
S591 N592 1.613 . S
S591 N593 1.610 . S
N592 S591 1.613 . S
N592 C595 1.350 . S
N593 S591 1.610 . S
N593 C594 1.351 . S
C594 C588 1.428 . S
C594 N593 1.351 . S
C594 C595 1.434 . S
C595 C586 1.429 . S
C595 N592 1.350 . S
C595 C594 1.434 . S
C596 C597 1.369 . S
C596 C598 1.419 . S
C596 H600 0.930 . S
C597 C596 1.369 . S
C597 C606 1.429 . S
C598 C596 1.419 . S
C598 C599 1.363 . S
C598 H601 0.929 . S
C599 C598 1.363 . S
C599 C605 1.428 . S
H600 C596 0.930 . S
H601 C598 0.929 . S
S602 N603 1.613 . S
S602 N604 1.610 1_565 S
N603 S602 1.613 . S
N603 C606 1.350 1_565 S
N604 S602 1.610 1_545 S
N604 C605 1.351 . S
C605 C599 1.428 . S
C605 N604 1.351 . S
C605 C606 1.434 . S
C606 C597 1.429 . S
C606 N603 1.350 1_545 S
C606 C605 1.434 . S
C607 C608 1.369 . S
C607 C609 1.419 . S
C607 H611 0.930 . S
C608 C607 1.369 . S
C608 C617 1.429 . S
C609 C607 1.419 . S
C609 C610 1.363 . S
C609 H612 0.929 . S
C610 C609 1.363 . S
C610 C616 1.428 . S
H611 C607 0.930 . S
H612 C609 0.929 . S
S613 N614 1.613 . S
S613 N615 1.610 . S
N614 S613 1.613 . S
N614 C617 1.350 . S
N615 S613 1.610 . S
N615 C616 1.351 . S
C616 C610 1.428 . S
C616 N615 1.351 . S
C616 C617 1.434 . S
C617 C608 1.429 . S
C617 N614 1.350 . S
C617 C616 1.434 . S
C618 C619 1.369 1_545 S
C618 C620 1.419 . S
C618 H622 0.930 . S
C619 C618 1.369 1_565 S
C619 C628 1.429 . S
C620 C618 1.419 . S
C620 C621 1.363 . S
C620 H623 0.929 . S
C621 C620 1.363 . S
C621 C627 1.428 . S
H622 C618 0.930 . S
H623 C620 0.929 . S
S624 N625 1.613 . S
S624 N626 1.610 1_565 S
N625 S624 1.613 . S
N625 C628 1.350 . S
N626 S624 1.610 1_545 S
N626 C627 1.351 . S
C627 C621 1.428 . S
C627 N626 1.351 . S
C627 C628 1.434 1_545 S
C628 C619 1.429 . S
C628 N625 1.350 . S
C628 C627 1.434 1_565 S
C629 C630 1.369 . S
C629 C631 1.419 . S
C629 H633 0.930 . S
C630 C629 1.369 . S
C630 C639 1.429 . S
C631 C629 1.419 . S
C631 C632 1.363 . S
C631 H634 0.929 . S
C632 C631 1.363 . S
C632 C638 1.428 . S
H633 C629 0.930 . S
H634 C631 0.929 . S
S635 N636 1.613 . S
S635 N637 1.610 . S
N636 S635 1.613 . S
N636 C639 1.350 . S
N637 S635 1.610 . S
N637 C638 1.351 . S
C638 C632 1.428 . S
C638 N637 1.351 . S
C638 C639 1.434 . S
C639 C630 1.429 . S
C639 N636 1.350 . S
C639 C638 1.434 . S
C640 C641 1.369 . S
C640 C642 1.419 . S
C640 H644 0.930 . S
C641 C640 1.369 . S
C641 C650 1.429 . S
C642 C640 1.419 . S
C642 C643 1.363 . S
C642 H645 0.929 . S
C643 C642 1.363 . S
C643 C649 1.428 . S
H644 C640 0.930 . S
H645 C642 0.929 . S
S646 N647 1.613 . S
S646 N648 1.610 . S
N647 S646 1.613 . S
N647 C650 1.350 . S
N648 S646 1.610 . S
N648 C649 1.351 . S
C649 C643 1.428 . S
C649 N648 1.351 . S
C649 C650 1.434 . S
C650 C641 1.429 . S
C650 N647 1.350 . S
C650 C649 1.434 . S
C651 C652 1.369 . S
C651 C653 1.419 . S
C651 H655 0.930 . S
C652 C651 1.369 . S
C652 C661 1.429 . S
C653 C651 1.419 . S
C653 C654 1.363 . S
C653 H656 0.929 . S
C654 C653 1.363 . S
C654 C660 1.428 . S
H655 C651 0.930 . S
H656 C653 0.929 . S
S657 N658 1.613 . S
S657 N659 1.610 . S
N658 S657 1.613 . S
N658 C661 1.350 . S
N659 S657 1.610 . S
N659 C660 1.351 . S
C660 C654 1.428 . S
C660 N659 1.351 . S
C660 C661 1.434 . S
C661 C652 1.429 . S
C661 N658 1.350 . S
C661 C660 1.434 . S
C662 C663 1.369 . S
C662 C664 1.419 . S
C662 H666 0.930 . S
C663 C662 1.369 . S
C663 C672 1.429 . S
C664 C662 1.419 . S
C664 C665 1.363 . S
C664 H667 0.929 . S
C665 C664 1.363 . S
C665 C671 1.428 . S
H666 C662 0.930 . S
H667 C664 0.929 . S
S668 N669 1.613 . S
S668 N670 1.610 . S
N669 S668 1.613 . S
N669 C672 1.350 . S
N670 S668 1.610 . S
N670 C671 1.351 . S
C671 C665 1.428 . S
C671 N670 1.351 . S
C671 C672 1.434 . S
C672 C663 1.429 . S
C672 N669 1.350 . S
C672 C671 1.434 . S
C673 C674 1.369 . S
C673 C675 1.419 . S
C673 H677 0.930 . S
C674 C673 1.369 . S
C674 C683 1.429 . S
C675 C673 1.419 . S
C675 C676 1.363 . S
C675 H678 0.929 . S
C676 C675 1.363 . S
C676 C682 1.428 . S
H677 C673 0.930 . S
H678 C675 0.929 . S
S679 N680 1.613 . S
S679 N681 1.610 . S
N680 S679 1.613 . S
N680 C683 1.350 . S
N681 S679 1.610 . S
N681 C682 1.351 . S
C682 C676 1.428 . S
C682 N681 1.351 . S
C682 C683 1.434 . S
C683 C674 1.429 . S
C683 N680 1.350 . S
C683 C682 1.434 . S
C684 C685 1.369 . S
C684 C686 1.419 . S
C684 H688 0.930 . S
C685 C684 1.369 . S
C685 C694 1.429 . S
C686 C684 1.419 . S
C686 C687 1.363 . S
C686 H689 0.929 . S
C687 C686 1.363 . S
C687 C693 1.428 . S
H688 C684 0.930 . S
H689 C686 0.929 . S
S690 N691 1.613 . S
S690 N692 1.610 . S
N691 S690 1.613 . S
N691 C694 1.350 . S
N692 S690 1.610 . S
N692 C693 1.351 . S
C693 C687 1.428 . S
C693 N692 1.351 . S
C693 C694 1.434 . S
C694 C685 1.429 . S
C694 N691 1.350 . S
C694 C693 1.434 . S
C695 C696 1.369 . S
C695 C697 1.419 . S
C695 H699 0.930 . S
C696 C695 1.369 . S
C696 C705 1.429 . S
C697 C695 1.419 . S
C697 C698 1.363 1_455 S
C697 H700 0.929 . S
C698 C697 1.363 1_655 S
C698 C704 1.428 . S
H699 C695 0.930 . S
H700 C697 0.929 . S
S701 N702 1.613 1_655 S
S701 N703 1.610 . S
N702 S701 1.613 1_455 S
N702 C705 1.350 . S
N703 S701 1.610 . S
N703 C704 1.351 . S
C704 C698 1.428 . S
C704 N703 1.351 . S
C704 C705 1.434 1_655 S
C705 C696 1.429 . S
C705 N702 1.350 . S
C705 C704 1.434 1_455 S
C706 C707 1.369 . S
C706 C708 1.419 . S
C706 H710 0.930 . S
C707 C706 1.369 . S
C707 C716 1.429 . S
C708 C706 1.419 . S
C708 C709 1.363 . S
C708 H711 0.929 . S
C709 C708 1.363 . S
C709 C715 1.428 . S
H710 C706 0.930 . S
H711 C708 0.929 . S
S712 N713 1.613 . S
S712 N714 1.610 . S
N713 S712 1.613 . S
N713 C716 1.350 . S
N714 S712 1.610 . S
N714 C715 1.351 . S
C715 C709 1.428 . S
C715 N714 1.351 . S
C715 C716 1.434 . S
C716 C707 1.429 . S
C716 N713 1.350 . S
C716 C715 1.434 . S
C717 C718 1.369 . S
C717 C719 1.419 . S
C717 H721 0.930 . S
C718 C717 1.369 . S
C718 C727 1.429 . S
C719 C717 1.419 . S
C719 C720 1.363 1_655 S
C719 H722 0.929 . S
C720 C719 1.363 1_455 S
C720 C726 1.428 . S
H721 C717 0.930 . S
H722 C719 0.929 . S
S723 N724 1.613 . S
S723 N725 1.610 . S
N724 S723 1.613 . S
N724 C727 1.350 1_455 S
N725 S723 1.610 . S
N725 C726 1.351 . S
C726 C720 1.428 . S
C726 N725 1.351 . S
C726 C727 1.434 1_455 S
C727 C718 1.429 . S
C727 N724 1.350 1_655 S
C727 C726 1.434 1_655 S
C728 C729 1.369 . S
C728 C730 1.419 . S
C728 H732 0.930 . S
C729 C728 1.369 . S
C729 C738 1.429 . S
C730 C728 1.419 . S
C730 C731 1.363 . S
C730 H733 0.929 . S
C731 C730 1.363 . S
C731 C737 1.428 . S
H732 C728 0.930 . S
H733 C730 0.929 . S
S734 N735 1.613 . S
S734 N736 1.610 . S
N735 S734 1.613 . S
N735 C738 1.350 . S
N736 S734 1.610 . S
N736 C737 1.351 . S
C737 C731 1.428 . S
C737 N736 1.351 . S
C737 C738 1.434 . S
C738 C729 1.429 . S
C738 N735 1.350 . S
C738 C737 1.434 . S
C739 C740 1.369 1_556 S
C739 C741 1.419 . S
C739 H743 0.930 . S
C740 C739 1.369 1_554 S
C740 C749 1.429 . S
C741 C739 1.419 . S
C741 C742 1.363 . S
C741 H744 0.929 . S
C742 C741 1.363 . S
C742 C748 1.428 . S
H743 C739 0.930 . S
H744 C741 0.929 . S
S745 N746 1.613 1_455 S
S745 N747 1.610 1_554 S
N746 S745 1.613 1_655 S
N746 C749 1.350 . S
N747 S745 1.610 1_556 S
N747 C748 1.351 1_455 S
C748 C742 1.428 . S
C748 N747 1.351 1_655 S
C748 C749 1.434 1_556 S
C749 C740 1.429 . S
C749 N746 1.350 . S
C749 C748 1.434 1_554 S
C750 C751 1.369 . S
C750 C752 1.419 . S
C750 H754 0.930 . S
C751 C750 1.369 . S
C751 C760 1.429 . S
C752 C750 1.419 . S
C752 C753 1.363 . S
C752 H755 0.929 . S
C753 C752 1.363 . S
C753 C759 1.428 . S
H754 C750 0.930 . S
H755 C752 0.929 . S
S756 N757 1.613 . S
S756 N758 1.610 . S
N757 S756 1.613 . S
N757 C760 1.350 . S
N758 S756 1.610 . S
N758 C759 1.351 . S
C759 C753 1.428 . S
C759 N758 1.351 . S
C759 C760 1.434 . S
C760 C751 1.429 . S
C760 N757 1.350 . S
C760 C759 1.434 . S
C761 C762 1.369 . S
C761 C763 1.419 . S
C761 H765 0.930 . S
C762 C761 1.369 . S
C762 C771 1.429 . S
C763 C761 1.419 . S
C763 C764 1.363 1_554 S
C763 H766 0.929 . S
C764 C763 1.363 1_556 S
C764 C770 1.430 . S
H765 C761 0.930 . S
H766 C763 0.929 . S
S767 N768 1.613 1_556 S
S767 N769 1.610 . S
N768 S767 1.613 1_554 S
N768 C771 1.350 . S
N769 S767 1.610 . S
N769 C770 1.362 . S
C770 C764 1.430 . S
C770 N769 1.362 . S
C770 C771 1.421 1_556 S
C771 C762 1.429 . S
C771 N768 1.350 . S
C771 C770 1.421 1_554 S
C772 C773 1.369 . S
C772 C774 1.419 . S
C772 H776 0.930 . S
C773 C772 1.369 . S
C773 C782 1.429 . S
C774 C772 1.419 . S
C774 C775 1.363 . S
C774 H777 0.929 . S
C775 C774 1.363 . S
C775 C781 1.428 . S
H776 C772 0.930 . S
H777 C774 0.929 . S
S778 N779 1.613 . S
S778 N780 1.610 . S
N779 S778 1.613 . S
N779 C782 1.350 . S
N780 S778 1.610 . S
N780 C781 1.351 . S
C781 C775 1.428 . S
C781 N780 1.351 . S
C781 C782 1.434 . S
C782 C773 1.429 . S
C782 N779 1.350 . S
C782 C781 1.434 . S
C783 C784 1.369 . S
C783 C785 1.419 1_556 S
C783 H787 0.930 . S
C784 C783 1.369 . S
C784 C793 1.429 . S
C785 C783 1.419 1_554 S
C785 C786 1.363 . S
C785 H788 0.929 . S
C786 C785 1.363 . S
C786 C792 1.428 . S
H787 C783 0.930 . S
H788 C785 0.929 . S
S789 N790 1.613 1_554 S
S789 N791 1.610 . S
N790 S789 1.613 1_556 S
N790 C793 1.350 . S
N791 S789 1.610 . S
N791 C792 1.351 . S
C792 C786 1.428 . S
C792 N791 1.351 . S
C792 C793 1.434 1_554 S
C793 C784 1.429 . S
C793 N790 1.350 . S
C793 C792 1.434 1_556 S
C794 C795 1.369 . S
C794 C796 1.419 . S
C794 H798 0.930 . S
C795 C794 1.369 . S
C795 C804 1.429 . S
C796 C794 1.419 . S
C796 C797 1.363 . S
C796 H799 0.929 . S
C797 C796 1.363 . S
C797 C803 1.428 . S
H798 C794 0.930 . S
H799 C796 0.929 . S
S800 N801 1.613 . S
S800 N802 1.610 . S
N801 S800 1.613 . S
N801 C804 1.350 . S
N802 S800 1.610 . S
N802 C803 1.351 . S
C803 C797 1.428 . S
C803 N802 1.351 . S
C803 C804 1.434 . S
C804 C795 1.429 . S
C804 N801 1.350 . S
C804 C803 1.434 . S
C805 C806 1.369 . S
C805 C807 1.419 . S
C805 H809 0.930 . S
C806 C805 1.369 . S
C806 C815 1.429 . S
C807 C805 1.419 . S
C807 C808 1.363 . S
C807 H810 0.929 . S
C808 C807 1.363 . S
C808 C814 1.428 . S
H809 C805 0.930 . S
H810 C807 0.929 . S
S811 N812 1.613 1_554 S
S811 N813 1.610 . S
N812 S811 1.613 1_556 S
N812 C815 1.350 1_556 S
N813 S811 1.610 . S
N813 C814 1.351 . S
C814 C808 1.428 . S
C814 N813 1.351 . S
C814 C815 1.434 . S
C815 C806 1.429 . S
C815 N812 1.350 1_554 S
C815 C814 1.434 . S
C816 C817 1.369 . S
C816 C818 1.419 . S
C816 H820 0.930 . S
C817 C816 1.369 . S
C817 C826 1.429 . S
C818 C816 1.419 . S
C818 C819 1.363 . S
C818 H821 0.929 . S
C819 C818 1.363 . S
C819 C825 1.428 . S
H820 C816 0.930 . S
H821 C818 0.929 . S
S822 N823 1.613 . S
S822 N824 1.610 . S
N823 S822 1.613 . S
N823 C826 1.350 . S
N824 S822 1.610 . S
N824 C825 1.351 . S
C825 C819 1.428 . S
C825 N824 1.351 . S
C825 C826 1.434 . S
C826 C817 1.429 . S
C826 N823 1.350 . S
C826 C825 1.434 . S
C827 C828 1.369 . S
C827 C829 1.419 . S
C827 H831 0.930 . S
C828 C827 1.369 . S
C828 C837 1.429 . S
C829 C827 1.419 . S
C829 C830 1.363 . S
C829 H832 0.929 . S
C830 C829 1.363 . S
C830 C836 1.428 . S
H831 C827 0.930 . S
H832 C829 0.929 . S
S833 N834 1.613 . S
S833 N835 1.610 . S
N834 S833 1.613 . S
N834 C837 1.350 . S
N835 S833 1.610 . S
N835 C836 1.351 . S
C836 C830 1.428 . S
C836 N835 1.351 . S
C836 C837 1.434 . S
C837 C828 1.429 . S
C837 N834 1.350 . S
C837 C836 1.434 . S
C838 C839 1.369 . S
C838 C840 1.419 . S
C838 H842 0.930 . S
C839 C838 1.369 . S
C839 C848 1.429 . S
C840 C838 1.419 . S
C840 C841 1.363 . S
C840 H843 0.929 . S
C841 C840 1.363 . S
C841 C847 1.428 . S
H842 C838 0.930 . S
H843 C840 0.929 . S
S844 N845 1.613 . S
S844 N846 1.610 . S
N845 S844 1.613 . S
N845 C848 1.350 . S
N846 S844 1.610 . S
N846 C847 1.351 . S
C847 C841 1.428 . S
C847 N846 1.351 . S
C847 C848 1.434 . S
C848 C839 1.429 . S
C848 N845 1.350 . S
C848 C847 1.434 . S
C849 C850 1.369 . S
C849 C851 1.419 . S
C849 H853 0.930 . S
C850 C849 1.369 . S
C850 C859 1.429 . S
C851 C849 1.419 . S
C851 C852 1.363 . S
C851 H854 0.929 . S
C852 C851 1.363 . S
C852 C858 1.428 . S
H853 C849 0.930 . S
H854 C851 0.929 . S
S855 N856 1.613 . S
S855 N857 1.610 . S
N856 S855 1.613 . S
N856 C859 1.350 . S
N857 S855 1.610 . S
N857 C858 1.351 . S
C858 C852 1.428 . S
C858 N857 1.351 . S
C858 C859 1.434 . S
C859 C850 1.429 . S
C859 N856 1.350 . S
C859 C858 1.434 . S
C860 C861 1.369 . S
C860 C862 1.419 . S
C860 H864 0.930 . S
C861 C860 1.369 . S
C861 C870 1.429 . S
C862 C860 1.419 . S
C862 C863 1.363 . S
C862 H865 0.929 . S
C863 C862 1.363 . S
C863 C869 1.428 . S
H864 C860 0.930 . S
H865 C862 0.929 . S
S866 N867 1.613 . S
S866 N868 1.610 . S
N867 S866 1.613 . S
N867 C870 1.350 . S
N868 S866 1.610 . S
N868 C869 1.351 . S
C869 C863 1.428 . S
C869 N868 1.351 . S
C869 C870 1.434 . S
C870 C861 1.429 . S
C870 N867 1.350 . S
C870 C869 1.434 . S
C871 C872 1.369 . S
C871 C873 1.419 . S
C871 H875 0.930 . S
C872 C871 1.369 . S
C872 C881 1.429 . S
C873 C871 1.419 . S
C873 C874 1.363 . S
C873 H876 0.929 . S
C874 C873 1.363 . S
C874 C880 1.428 . S
H875 C871 0.930 . S
H876 C873 0.929 . S
S877 N878 1.613 . S
S877 N879 1.610 . S
N878 S877 1.613 . S
N878 C881 1.350 . S
N879 S877 1.610 . S
N879 C880 1.351 . S
C880 C874 1.428 . S
C880 N879 1.351 . S
C880 C881 1.434 . S
C881 C872 1.429 . S
C881 N878 1.350 . S
C881 C880 1.434 . S
C882 C883 1.369 . S
C882 C884 1.419 . S
C882 H886 0.930 . S
C883 C882 1.369 . S
C883 C892 1.429 . S
C884 C882 1.419 . S
C884 C885 1.363 . S
C884 H887 0.929 . S
C885 C884 1.363 . S
C885 C891 1.428 . S
H886 C882 0.930 . S
H887 C884 0.929 . S
S888 N889 1.613 . S
S888 N890 1.610 . S
N889 S888 1.613 . S
N889 C892 1.350 . S
N890 S888 1.610 . S
N890 C891 1.351 . S
C891 C885 1.428 . S
C891 N890 1.351 . S
C891 C892 1.434 . S
C892 C883 1.429 . S
C892 N889 1.350 . S
C892 C891 1.434 . S
C893 C894 1.369 . S
C893 C895 1.419 . S
C893 H897 0.930 . S
C894 C893 1.369 . S
C894 C903 1.429 . S
C895 C893 1.419 . S
C895 C896 1.363 . S
C895 H898 0.929 . S
C896 C895 1.363 . S
C896 C902 1.428 . S
H897 C893 0.930 . S
H898 C895 0.929 . S
S899 N900 1.613 . S
S899 N901 1.610 . S
N900 S899 1.613 . S
N900 C903 1.350 . S
N901 S899 1.610 . S
N901 C902 1.351 . S
C902 C896 1.428 . S
C902 N901 1.351 . S
C902 C903 1.434 . S
C903 C894 1.429 . S
C903 N900 1.350 . S
C903 C902 1.434 . S
C379 C216 1.710 . S
C377 C73 1.720 . S
C390 C231 1.494 . S
C388 C82 1.531 1_455 S
C399 C100 1.929 . S
C401 C244 1.903 . S
C412 C258 1.468 . S
C410 C56 1.407 . S
C423 C270 1.456 . S
C421 C134 1.576 . S
C434 C284 1.473 . S
C432 C165 1.483 . S
C443 C147 1.431 . S
C445 C298 1.437 . S
C456 C313 1.685 . S
C454 C125 1.741 . S
C465 C151 1.465 . S
C467 C329 1.463 . S
C478 C342 1.480 . S
C476 C121 1.413 . S
C487 C139 1.716 . S
C489 C327 1.692 . S
C500 C340 1.373 . S
C498 C164 1.318 . S
C509 C95 1.583 . S
C511 C356 1.648 . S
C520 C61 1.480 . S
C522 C355 1.507 . S
C531 C74 1.681 . S
C533 C354 1.613 . S
C542 C86 1.849 . S
C544 C357 1.809 . S
C553 C47 1.609 . S
C555 C259 1.605 1_565 S
C564 C186 1.345 . S
C566 C257 1.380 . S
C577 C217 1.480 1_545 S
C575 C204 1.499 . S
C588 C228 1.927 . S
C586 C112 1.939 . S
C597 C60 1.455 1_545 S
C599 C273 1.463 . S
C610 C314 1.742 . S
C608 C152 1.731 . S
C621 C271 1.737 . S
C619 C126 1.753 . S
C632 C299 1.408 . S
C630 C160 1.261 . S
C643 C300 1.708 . S
C641 C190 1.719 . S
C652 C199 1.538 . S
C654 C315 1.495 . S
C663 C113 1.929 . S
C665 C272 1.903 . S
C676 C286 1.470 . S
C674 C173 1.403 . S
C685 C43 1.577 . S
C687 C242 1.459 . S
C698 C256 1.477 . S
C696 C9 1.477 . S
C709 C214 1.431 . S
C707 C17 1.440 . S
C720 C229 1.689 . S
C718 C34 1.740 . S
C729 C21 1.465 . S
C731 C343 1.464 . S
C740 C30 1.415 . S
C742 C328 1.479 . S
C751 C48 1.716 . S
C753 C341 1.691 . S
C762 C8 1.320 . S
C764 C326 1.375 . S
C775 C370 1.646 . S
C773 C108 1.582 . S
C786 C369 1.507 . S
C784 C178 1.480 . S
C797 C368 1.615 . S
C795 C191 1.680 . S
C806 C203 1.853 1_554 S
C808 C371 1.804 . S
C817 C138 1.608 . S
C819 C287 1.605 . S
C830 C285 1.375 . S
C828 C69 1.354 . S
C841 C301 1.478 . S
C839 C87 1.503 . S
C852 C312 1.927 . S
C850 C99 1.939 . S
C861 C177 1.455 . S
C863 C245 1.465 . S
C874 C230 1.742 . S
C872 C22 1.729 . S
C883 C35 1.753 . S
C885 C243 1.737 . S
C896 C215 1.407 1_545 S
C894 C4 1.274 . S
