# Generated by pormake.
# Topology zzz, (3,6)-cn, num edge types: 1
# Building blocks:
#     Node 0, Type 0, BuildingBlock: ESEHIV_clean_linker_0, # of connection points: 3
#     Node 1, Type 0, BuildingBlock: ESEHIV_clean_linker_0, # of connection points: 3
#     Node 2, Type 0, BuildingBlock: ESEHIV_clean_linker_0, # of connection points: 3
#     Node 3, Type 0, BuildingBlock: ESEHIV_clean_linker_0, # of connection points: 3
#     Node 4, Type 0, BuildingBlock: ESEHIV_clean_linker_0, # of connection points: 3
#     Node 5, Type 0, BuildingBlock: ESEHIV_clean_linker_0, # of connection points: 3
#     Node 6, Type 0, BuildingBlock: ESEHIV_clean_linker_0, # of connection points: 3
#     Node 7, Type 0, BuildingBlock: ESEHIV_clean_linker_0, # of connection points: 3
#     Node 8, Type 1, BuildingBlock: JUFBIX_clean_sbu_0, # of connection points: 6
#     Node 9, Type 1, BuildingBlock: JUFBIX_clean_sbu_0, # of connection points: 6
#     Node 10, Type 1, BuildingBlock: JUFBIX_clean_sbu_0, # of connection points: 6
#     Node 11, Type 1, BuildingBlock: JUFBIX_clean_sbu_0, # of connection points: 6
#     Edge 12, Type (0, 1), BuildingBlock: EYOCIG_clean_linker_4, # of connection points: 2
#     Edge 13, Type (0, 1), BuildingBlock: EYOCIG_clean_linker_4, # of connection points: 2
#     Edge 14, Type (0, 1), BuildingBlock: EYOCIG_clean_linker_4, # of connection points: 2
#     Edge 15, Type (0, 1), BuildingBlock: EYOCIG_clean_linker_4, # of connection points: 2
#     Edge 16, Type (0, 1), BuildingBlock: EYOCIG_clean_linker_4, # of connection points: 2
#     Edge 17, Type (0, 1), BuildingBlock: EYOCIG_clean_linker_4, # of connection points: 2
#     Edge 18, Type (0, 1), BuildingBlock: EYOCIG_clean_linker_4, # of connection points: 2
#     Edge 19, Type (0, 1), BuildingBlock: EYOCIG_clean_linker_4, # of connection points: 2
#     Edge 20, Type (0, 1), BuildingBlock: EYOCIG_clean_linker_4, # of connection points: 2
#     Edge 21, Type (0, 1), BuildingBlock: EYOCIG_clean_linker_4, # of connection points: 2
#     Edge 22, Type (0, 1), BuildingBlock: EYOCIG_clean_linker_4, # of connection points: 2
#     Edge 23, Type (0, 1), BuildingBlock: EYOCIG_clean_linker_4, # of connection points: 2
#     Edge 24, Type (0, 1), BuildingBlock: EYOCIG_clean_linker_4, # of connection points: 2
#     Edge 25, Type (0, 1), BuildingBlock: EYOCIG_clean_linker_4, # of connection points: 2
#     Edge 26, Type (0, 1), BuildingBlock: EYOCIG_clean_linker_4, # of connection points: 2
#     Edge 27, Type (0, 1), BuildingBlock: EYOCIG_clean_linker_4, # of connection points: 2
#     Edge 28, Type (0, 1), BuildingBlock: EYOCIG_clean_linker_4, # of connection points: 2
#     Edge 29, Type (0, 1), BuildingBlock: EYOCIG_clean_linker_4, # of connection points: 2
#     Edge 30, Type (0, 1), BuildingBlock: EYOCIG_clean_linker_4, # of connection points: 2
#     Edge 31, Type (0, 1), BuildingBlock: EYOCIG_clean_linker_4, # of connection points: 2
#     Edge 32, Type (0, 1), BuildingBlock: EYOCIG_clean_linker_4, # of connection points: 2
#     Edge 33, Type (0, 1), BuildingBlock: EYOCIG_clean_linker_4, # of connection points: 2
#     Edge 34, Type (0, 1), BuildingBlock: EYOCIG_clean_linker_4, # of connection points: 2
#     Edge 35, Type (0, 1), BuildingBlock: EYOCIG_clean_linker_4, # of connection points: 2
# Relax obj value: 0.270
# Max RMSD: 0.227
# Mean RMSD: 0.186
data_MOF--net-zzz--node1-JUFBIX_clean_sbu_0--node2-ESEHIV_clean_linker_0--edge1-EYOCIG_clean_linker_4
_symmetry_space_group_name_H-M    P1
_symmetry_Int_Tables_number       1
_symmetry_cell_setting            triclinic
loop_
_symmetry_equiv_pos_as_xyz
'x, y, z'
_cell_length_a     36.095515
_cell_length_b     35.179279
_cell_length_c     14.063093
_cell_angle_alpha  79.691728
_cell_angle_beta   90.339977
_cell_angle_gamma 93.509511
loop_
_atom_site_label
_atom_site_type_symbol
_atom_site_fract_x
_atom_site_fract_y
_atom_site_fract_z
_atom_type_partial_charge
H0 H 0.89721 0.47173 0.35906 0.0
H1 H 0.81019 0.46062 0.15499 0.0
H2 H 0.79016 0.51435 0.40121 0.0
C3 C 0.86858 0.47549 0.33706 0.0
C4 C 0.84511 0.49371 0.39115 0.0
C5 C 0.85593 0.4635 0.25266 0.0
C6 C 0.81951 0.46915 0.22209 0.0
C7 C 0.79562 0.48737 0.2753 0.0
C8 C 0.80833 0.49969 0.36052 0.0
H9 H 0.98922 0.82847 0.33313 0.0
H10 H 0.99518 0.74151 0.15704 0.0
H11 H 0.93457 0.71551 0.42709 0.0
C12 C 0.98243 0.79905 0.32214 0.0
C13 C 0.96087 0.7734 0.39046 0.0
C14 C 0.99476 0.78742 0.23885 0.0
C15 C 0.98582 0.75007 0.22294 0.0
C16 C 0.96408 0.72403 0.29017 0.0
C17 C 0.95143 0.73552 0.37481 0.0
H18 H 0.70081 0.02393 0.21668 0.0
H19 H 0.78613 0.03735 1.00034 0.0
H20 H 0.81072 0.98935 0.29738 0.0
C21 C 0.72959 0.02145 0.19757 0.0
C22 C 0.7543 0.00592 0.26854 0.0
C23 C 0.741 0.03277 0.10181 0.0
C24 C 0.77767 0.02911 0.07551 0.0
C25 C 0.80309 0.01351 0.14559 0.0
C26 C 0.79143 1.00184 0.24297 0.0
H27 H 0.53106 0.65104 0.28794 0.0
H28 H 0.55434 0.76615 0.34706 0.0
H29 H 0.52319 0.74889 0.0598 0.0
C30 C 0.53329 0.68221 0.26361 0.0
C31 C 0.52596 0.69736 0.16754 0.0
C32 C 0.54349 0.70657 0.32871 0.0
C33 C 0.54653 0.74704 0.29684 0.0
C34 C 0.53909 0.76244 0.19911 0.0
C35 C 0.52881 0.73734 0.13499 0.0
H36 H 0.15307 0.53762 0.28886 0.0
H37 H 0.24008 0.54861 0.49308 0.0
H38 H 0.26008 0.49488 0.24687 0.0
C39 C 0.1817 0.53383 0.3109 0.0
C40 C 0.20516 0.51558 0.25684 0.0
C41 C 0.19435 0.54579 0.39533 0.0
C42 C 0.23075 0.5401 0.42594 0.0
C43 C 0.25464 0.52186 0.37277 0.0
C44 C 0.24193 0.50956 0.28752 0.0
H45 H 0.06013 0.18069 0.31448 0.0
H46 H 0.0544 0.26762 0.49072 0.0
H47 H 0.11503 0.29353 0.22067 0.0
C48 C 0.06698 0.21009 0.3255 0.0
C49 C 0.08859 0.2357 0.25719 0.0
C50 C 0.0547 0.22174 0.40881 0.0
C51 C 0.06373 0.25906 0.42478 0.0
C52 C 0.08551 0.28507 0.35758 0.0
C53 C 0.09812 0.27355 0.27291 0.0
H54 H 0.34814 0.98478 0.43171 0.0
H55 H 0.26288 0.9715 0.64831 0.0
H56 H 0.23824 0.01951 0.35118 0.0
C57 C 0.31937 0.98733 0.45088 0.0
C58 C 0.2947 1.0029 0.37993 0.0
C59 C 0.30801 0.97607 0.54668 0.0
C60 C 0.27128 0.97977 0.57313 0.0
C61 C 0.24572 0.99535 0.50315 0.0
C62 C 0.25751 0.00703 0.40565 0.0
H63 H 0.51899 0.35758 0.36057 0.0
H64 H 0.49547 0.24252 0.3014 0.0
H65 H 0.52663 0.25969 0.58871 0.0
C66 C 0.51669 0.32641 0.3849 0.0
C67 C 0.52398 0.31125 0.48098 0.0
C68 C 0.50645 0.30208 0.31978 0.0
C69 C 0.50332 0.26161 0.35164 0.0
C70 C 0.51071 0.24619 0.44937 0.0
C71 C 0.52104 0.27126 0.51352 0.0
Co72 Co 0.03976 0.02072 0.87462 0.0
C73 C 0.96436 0.00513 0.91916 0.0
Co74 Co 0.00842 0.98841 0.77316 0.0
C75 C 0.0756 0.08671 0.94782 0.0
C76 C 0.0714 0.03526 0.05543 0.0
N77 N 0.06482 0.04851 0.96082 0.0
N78 N 0.08814 0.09737 0.03019 0.0
C79 C 0.08568 0.06525 0.09803 0.0
H80 H 0.07241 0.10688 0.88096 0.0
H81 H 0.06434 0.00617 0.09303 0.0
C82 C 0.08322 0.00434 0.72706 0.0
N83 N 0.98382 0.96064 0.68696 0.0
C84 C 0.9734 0.92237 0.69976 0.0
C85 C 0.97766 0.97384 0.59215 0.0
N86 N 0.96122 0.91168 0.61717 0.0
C87 C 0.96372 0.9438 0.54931 0.0
C88 C 0.01035 0.06738 0.71763 0.0
O89 O 0.08418 0.02009 0.80201 0.0
O90 O 0.05304 0.98822 0.70277 0.0
O91 O 0.99796 0.03587 0.69434 0.0
O92 O 0.02886 0.06727 0.79434 0.0
O93 O 0.96377 0.98907 0.8448 0.0
H94 H 0.98477 1.00294 0.55467 0.0
H95 H 0.97655 0.90221 0.76665 0.0
O96 O 0.99457 0.02088 0.94495 0.0
O97 O 0.05049 0.97333 0.95339 0.0
O98 O 0.01955 0.94182 0.8538 0.0
C99 C 0.03838 0.94176 0.93003 0.0
H100 H 0.09173 0.06405 0.17401 0.0
H101 H 0.95787 0.94497 0.47325 0.0
Co102 Co 0.50815 0.0143 0.88151 0.0
C103 C 0.53317 0.93976 0.93562 0.0
Co104 Co 0.54126 0.99422 0.76664 0.0
C105 C 0.44117 0.02237 0.99295 0.0
C106 C 0.49018 0.0454 0.0538 0.0
N107 N 0.4784 0.02886 0.97827 0.0
N108 N 0.42982 0.03412 0.07359 0.0
C109 C 0.46043 0.04857 0.11226 0.0
H110 H 0.42266 0.00829 0.9474 0.0
H111 H 0.5187 0.05377 0.06784 0.0
C112 C 0.51627 0.06878 0.71255 0.0
N113 N 0.571 0.97967 0.66992 0.0
C114 C 0.6082 0.98631 0.65504 0.0
C115 C 0.55926 0.96292 0.5947 0.0
N116 N 0.61956 0.97444 0.5746 0.0
C117 C 0.589 0.95976 0.53621 0.0
C118 C 0.46665 0.97588 0.75638 0.0
O119 O 0.50204 0.06268 0.79711 0.0
O120 O 0.53453 0.04287 0.68479 0.0
O121 O 0.49737 0.97286 0.71582 0.0
O122 O 0.46563 0.99282 0.82836 0.0
O123 O 0.54737 0.94584 0.85103 0.0
H124 H 0.53077 0.95435 0.58091 0.0
H125 H 0.62668 1.00056 0.70031 0.0
O126 O 0.51492 0.96566 0.96338 0.0
O127 O 0.55202 0.03569 0.93227 0.0
O128 O 0.58378 0.01569 0.81979 0.0
C129 C 0.58273 0.03265 0.89172 0.0
H130 H 0.46134 0.05966 0.17933 0.0
H131 H 0.58813 0.94852 0.46934 0.0
Co132 Co 0.5544 0.50474 0.8485 0.0
C133 C 0.5093 0.44582 0.95588 0.0
Co134 Co 0.49576 0.50389 0.79989 0.0
C135 C 0.6167 0.50302 0.9807 0.0
C136 C 0.63368 0.50782 0.83301 0.0
N137 N 0.60332 0.50531 0.88984 0.0
N138 N 0.65407 0.50402 0.98193 0.0
C139 C 0.66497 0.50699 0.88964 0.0
H140 H 0.59942 0.50052 0.04447 0.0
H141 H 0.63306 0.50999 0.75533 0.0
C142 C 0.54085 0.56282 0.69251 0.0
N143 N 0.44684 0.50333 0.75854 0.0
C144 C 0.43347 0.50574 0.66765 0.0
C145 C 0.41647 0.50073 0.81538 0.0
N146 N 0.39609 0.50473 0.66641 0.0
C147 C 0.38519 0.50163 0.75873 0.0
C148 C 0.5113 0.55182 0.93202 0.0
O149 O 0.56624 0.54828 0.74801 0.0
O150 O 0.50811 0.54713 0.70043 0.0
O151 O 0.48541 0.53905 0.8827 0.0
O152 O 0.54358 0.53962 0.93029 0.0
O153 O 0.48392 0.46035 0.90036 0.0
H154 H 0.41709 0.49846 0.89309 0.0
H155 H 0.45076 0.50835 0.60386 0.0
O156 O 0.54204 0.46151 0.94798 0.0
O157 O 0.56474 0.46958 0.7657 0.0
O158 O 0.50657 0.46902 0.71808 0.0
C159 C 0.53884 0.4568 0.71637 0.0
H160 H 0.69347 0.50832 0.86513 0.0
H161 H 0.35668 0.50026 0.78324 0.0
Co162 Co 0.02001 0.53141 0.85259 0.0
C163 C 0.08237 0.49263 0.92882 0.0
Co164 Co 0.03027 0.47784 0.79541 0.0
C165 C 0.98655 0.57801 0.97693 0.0
C166 C 0.03623 0.60561 0.90716 0.0
N167 N 0.0126 0.57403 0.91099 0.0
N168 N 0.99344 0.61044 0.01394 0.0
C169 C 0.0244 0.62807 0.97023 0.0
H170 H 0.96398 0.55682 1.00081 0.0
H171 H 0.0616 0.6111 0.86517 0.0
C172 C 0.9679 0.51662 0.71918 0.0
N173 N 0.03767 0.4352 0.73702 0.0
C174 C 0.06363 0.43124 0.67083 0.0
C175 C 0.0141 0.40355 0.74124 0.0
N176 N 0.05674 0.39876 0.63404 0.0
C177 C 0.02587 0.38108 0.67815 0.0
C178 C 0.98482 0.46341 0.95285 0.0
O179 O 0.97709 0.5408 0.77379 0.0
O180 O 0.98738 0.48785 0.71745 0.0
O181 O 1.00029 0.44654 0.89283 0.0
O182 O 0.9903 0.49959 0.94807 0.0
O183 O 0.07319 0.46845 0.8742 0.0
H184 H 0.9888 0.39802 0.78351 0.0
H185 H 0.08612 0.45248 0.64661 0.0
O186 O 0.06289 0.5214 0.93056 0.0
O187 O 0.04999 0.56271 0.75519 0.0
O188 O 0.05997 0.50966 0.69993 0.0
C189 C 0.06546 0.54584 0.69517 0.0
H190 H 0.03832 0.65436 0.98605 0.0
H191 H 0.01197 0.35473 0.6626 0.0
C192 C 0.17808 1.00184 0.57166 0.0
C193 C 0.20809 0.9999 0.53453 0.0
C194 C 0.14433 1.00323 0.62303 0.0
C195 C 0.11648 1.00378 0.67062 0.0
C196 C 0.508 0.17219 0.53171 0.0
C197 C 0.50832 0.20497 0.48675 0.0
C198 C 0.50961 0.13558 0.59314 0.0
C199 C 0.51242 0.10525 0.64835 0.0
C200 C 0.3197 0.51118 0.45664 0.0
C201 C 0.29118 0.51439 0.41127 0.0
C202 C 0.34979 0.50863 0.52212 0.0
C203 C 0.37251 0.50694 0.586 0.0
C204 C 0.09448 0.34947 0.4242 0.0
C205 C 0.09407 0.32291 0.38049 0.0
C206 C 0.08707 0.373 0.49254 0.0
C207 C 0.07491 0.38709 0.55713 0.0
C208 C 0.87001 0.00699 0.07549 0.0
C209 C 0.84042 0.00881 0.11412 0.0
C210 C 0.90318 0.00588 0.02241 0.0
C211 C 0.93092 0.00537 0.97478 0.0
C212 C 0.54163 0.83642 0.11667 0.0
C213 C 0.5414 0.80366 0.1617 0.0
C214 C 0.53994 0.87301 0.05515 0.0
C215 C 0.53708 0.90331 0.99988 0.0
C216 C 0.73051 0.4979 0.19156 0.0
C217 C 0.75905 0.49476 0.23688 0.0
C218 C 0.7004 0.50034 0.12613 0.0
C219 C 0.67767 0.50193 0.0623 0.0
C220 C 0.95534 0.6596 0.22362 0.0
C221 C 0.95563 0.68615 0.26734 0.0
C222 C 0.9629 0.63613 0.15526 0.0
C223 C 0.97516 0.62209 0.09072 0.0
C224 C 0.01992 0.16814 0.53626 0.0
C225 C 0.03551 0.19405 0.48134 0.0
C226 C 0.00962 0.13372 0.59929 0.0
C227 C 0.00892 0.10257 0.65043 0.0
C228 C 0.36454 0.95664 0.65806 0.0
C229 C 0.33595 0.96426 0.61682 0.0
C230 C 0.40119 0.95652 0.69221 0.0
C231 C 0.43236 0.9641 0.71627 0.0
C232 C 0.54063 0.36402 0.58738 0.0
C233 C 0.53341 0.33773 0.54504 0.0
C234 C 0.54485 0.3969 0.63121 0.0
C235 C 0.54413 0.42425 0.67133 0.0
C236 C 0.14544 0.57053 0.50426 0.0
C237 C 0.16847 0.55939 0.45634 0.0
C238 C 0.1165 0.57349 0.56805 0.0
C239 C 0.09256 0.56591 0.62838 0.0
C240 C 0.02955 0.841 0.11133 0.0
C241 C 0.01395 0.81512 0.16633 0.0
C242 C 0.0398 0.87541 0.04817 0.0
C243 C 0.04021 0.90657 0.99714 0.0
C244 C 0.68474 0.05212 0.98981 0.0
C245 C 0.71321 0.04453 0.03141 0.0
C246 C 0.64813 0.05215 0.95564 0.0
C247 C 0.61698 0.0445 0.93169 0.0
C248 C 0.50941 0.64457 0.06114 0.0
C249 C 0.51658 0.67085 0.1035 0.0
C250 C 0.50525 0.6117 0.01727 0.0
C251 C 0.506 0.58436 0.97712 0.0
C252 C 0.90484 0.43876 0.14375 0.0
C253 C 0.88181 0.4499 0.19166 0.0
C254 C 0.93377 0.43578 0.07997 0.0
C255 C 0.95772 0.44334 0.01964 0.0
C256 C 0.1039 0.19898 0.11795 0.0
C257 C 0.10027 0.22104 0.17345 0.0
C258 C 0.10159 0.16622 0.0721 0.0
C259 C 0.09516 0.13521 0.04797 0.0
C260 C 0.33233 0.02153 0.21731 0.0
C261 C 0.31012 0.01516 0.28352 0.0
C262 C 0.36421 0.02636 0.15615 0.0
C263 C 0.39399 0.02932 0.1151 0.0
C264 C 0.49772 0.34557 0.15039 0.0
C265 C 0.50017 0.32076 0.2214 0.0
C266 C 0.49856 0.37963 0.07889 0.0
C267 C 0.50206 0.40975 0.02179 0.0
C268 C 0.16976 0.49452 0.10862 0.0
C269 C 0.18964 0.50225 0.17286 0.0
C270 C 0.14151 0.48936 0.0409 0.0
C271 C 0.11516 0.48855 0.9877 0.0
C272 C 0.94551 0.81007 0.52969 0.0
C273 C 0.94916 0.78802 0.47421 0.0
C274 C 0.94781 0.84282 0.57547 0.0
C275 C 0.95421 0.87385 0.5995 0.0
C276 C 0.71695 0.98713 0.43119 0.0
C277 C 0.73904 0.9936 0.36486 0.0
C278 C 0.68513 0.98225 0.49222 0.0
C279 C 0.65536 0.97927 0.53312 0.0
C280 C 0.55232 0.6631 0.49807 0.0
C281 C 0.54982 0.6879 0.42708 0.0
C282 C 0.55155 0.62903 0.56955 0.0
C283 C 0.54808 0.59891 0.62663 0.0
C284 C 0.88051 0.51476 0.53936 0.0
C285 C 0.86063 0.50704 0.47513 0.0
C286 C 0.90877 0.51991 0.60709 0.0
C287 C 0.93512 0.5207 0.66029 0.0
loop_
_geom_bond_atom_site_label_1
_geom_bond_atom_site_label_2
_geom_bond_distance
_geom_bond_site_symmetry_2
_ccdc_geom_bond_type
H0 C3 0.931 . S
H1 C6 0.928 . S
H2 C8 0.930 . S
C3 H0 0.931 . S
C3 C4 1.413 . S
C3 C5 1.360 . S
C4 C3 1.413 . S
C4 C8 1.429 . S
C5 C3 1.360 . S
C5 C6 1.372 . S
C6 H1 0.928 . S
C6 C5 1.372 . S
C6 C7 1.404 . S
C7 C6 1.404 . S
C7 C8 1.391 . S
C8 H2 0.930 . S
C8 C4 1.429 . S
C8 C7 1.391 . S
H9 C12 0.931 . S
H10 C15 0.928 1_556 S
H11 C17 0.930 . S
C12 H9 0.931 . S
C12 C13 1.413 . S
C12 C14 1.360 . S
C13 C12 1.413 . S
C13 C17 1.429 . S
C14 C12 1.360 . S
C14 C15 1.372 . S
C15 H10 0.928 1_554 S
C15 C14 1.372 . S
C15 C16 1.404 . S
C16 C15 1.404 . S
C16 C17 1.391 . S
C17 H11 0.930 . S
C17 C13 1.429 . S
C17 C16 1.391 . S
H18 C21 0.931 . S
H19 C24 0.928 . S
H20 C26 0.928 . S
C21 H18 0.931 . S
C21 C22 1.413 . S
C21 C23 1.360 . S
C22 C21 1.413 . S
C22 C26 1.430 1_565 S
C23 C21 1.360 . S
C23 C24 1.375 1_554 S
C24 H19 0.928 . S
C24 C23 1.375 1_556 S
C24 C25 1.405 1_556 S
C25 C24 1.405 1_554 S
C25 C26 1.387 1_565 S
C26 H20 0.928 . S
C26 C22 1.430 1_545 S
C26 C25 1.387 1_545 S
H27 C30 0.931 . S
H28 C33 0.928 . S
H29 C35 0.930 . S
C30 H27 0.931 . S
C30 C31 1.413 . S
C30 C32 1.360 . S
C31 C30 1.413 . S
C31 C35 1.429 . S
C32 C30 1.360 . S
C32 C33 1.372 . S
C33 H28 0.928 . S
C33 C32 1.372 . S
C33 C34 1.404 . S
C34 C33 1.404 . S
C34 C35 1.391 . S
C35 H29 0.930 . S
C35 C31 1.429 . S
C35 C34 1.391 . S
H36 C39 0.931 . S
H37 C42 0.928 . S
H38 C44 0.930 . S
C39 H36 0.931 . S
C39 C40 1.413 . S
C39 C41 1.360 . S
C40 C39 1.413 . S
C40 C44 1.429 . S
C41 C39 1.360 . S
C41 C42 1.372 . S
C42 H37 0.928 . S
C42 C41 1.372 . S
C42 C43 1.404 . S
C43 C42 1.404 . S
C43 C44 1.391 . S
C44 H38 0.930 . S
C44 C40 1.429 . S
C44 C43 1.391 . S
H45 C48 0.931 . S
H46 C51 0.928 . S
H47 C53 0.930 . S
C48 H45 0.931 . S
C48 C49 1.413 . S
C48 C50 1.360 . S
C49 C48 1.413 . S
C49 C53 1.429 . S
C50 C48 1.360 . S
C50 C51 1.372 . S
C51 H46 0.928 . S
C51 C50 1.372 . S
C51 C52 1.404 . S
C52 C51 1.404 . S
C52 C53 1.391 . S
C53 H47 0.930 . S
C53 C49 1.429 . S
C53 C52 1.391 . S
H54 C57 0.930 . S
H55 C60 0.928 . S
H56 C62 0.930 . S
C57 H54 0.930 . S
C57 C58 1.414 . S
C57 C59 1.360 . S
C58 C57 1.414 . S
C58 C62 1.428 1_565 S
C59 C57 1.360 . S
C59 C60 1.371 . S
C60 H55 0.928 . S
C60 C59 1.371 . S
C60 C61 1.403 . S
C61 C60 1.403 . S
C61 C62 1.394 1_565 S
C62 H56 0.930 . S
C62 C58 1.428 1_545 S
C62 C61 1.394 1_545 S
H63 C66 0.931 . S
H64 C69 0.928 . S
H65 C71 0.930 . S
C66 H63 0.931 . S
C66 C67 1.413 . S
C66 C68 1.360 . S
C67 C66 1.413 . S
C67 C71 1.429 . S
C68 C66 1.360 . S
C68 C69 1.372 . S
C69 H64 0.928 . S
C69 C68 1.372 . S
C69 C70 1.404 . S
C70 C69 1.404 . S
C70 C71 1.391 . S
C71 H65 0.930 . S
C71 C67 1.429 . S
C71 C70 1.391 . S
Co72 N77 2.057 1_556 S
Co72 O89 2.021 1_545 S
Co72 O92 2.062 . S
Co72 O96 2.117 1_455 S
Co72 O97 2.020 1_545 S
C73 O93 1.259 . S
C73 O96 1.258 . S
Co74 N83 2.057 1_455 S
Co74 O90 2.117 . S
Co74 O91 2.020 1_565 S
Co74 O93 2.021 1_465 S
Co74 O98 2.062 1_455 S
C75 N77 1.316 . S
C75 N78 1.347 . S
C75 H80 0.931 . S
C76 N77 1.375 . S
C76 C79 1.350 . S
C76 H81 0.930 1_455 S
N77 Co72 2.057 1_554 S
N77 C75 1.316 . S
N77 C76 1.375 . S
N78 C75 1.347 . S
N78 C79 1.373 . S
C79 C76 1.350 . S
C79 N78 1.373 . S
C79 H100 0.931 . S
H80 C75 0.931 . S
H81 C76 0.930 1_655 S
C82 O89 1.259 . S
C82 O90 1.258 . S
N83 Co74 2.057 1_655 S
N83 C84 1.316 . S
N83 C85 1.375 1_655 S
C84 N83 1.316 . S
C84 N86 1.347 . S
C84 H95 0.931 . S
C85 N83 1.375 1_455 S
C85 C87 1.350 . S
C85 H94 0.930 . S
N86 C84 1.347 . S
N86 C87 1.373 1_655 S
C87 C85 1.350 . S
C87 N86 1.373 1_455 S
C87 H101 0.931 . S
C88 O91 1.256 . S
C88 O92 1.255 . S
O89 Co72 2.021 1_565 S
O89 C82 1.259 . S
O90 Co74 2.117 . S
O90 C82 1.258 . S
O91 Co74 2.020 1_545 S
O91 C88 1.256 . S
O92 Co72 2.062 . S
O92 C88 1.255 . S
O93 C73 1.259 . S
O93 Co74 2.021 1_645 S
H94 C85 0.930 . S
H95 C84 0.931 . S
O96 Co72 2.117 1_655 S
O96 C73 1.258 . S
O97 Co72 2.020 1_565 S
O97 C99 1.270 . S
O98 Co74 2.062 1_655 S
O98 C99 1.247 1_655 S
C99 O97 1.270 . S
C99 O98 1.247 1_455 S
H100 C79 0.931 . S
H101 C87 0.931 . S
Co102 N107 2.058 1_546 S
Co102 O119 2.021 . S
Co102 O122 2.062 1_545 S
Co102 O126 2.117 1_545 S
Co102 O127 2.020 . S
C103 O123 1.259 . S
C103 O126 1.258 . S
Co104 N113 2.057 1_565 S
Co104 O120 2.117 1_565 S
Co104 O121 2.020 . S
Co104 O123 2.021 . S
Co104 O128 2.062 1_565 S
C105 N107 1.294 1_545 S
C105 N108 1.347 . S
C105 H110 0.931 . S
C106 N107 1.397 . S
C106 C109 1.350 . S
C106 H111 0.930 . S
N107 Co102 2.058 1_564 S
N107 C105 1.294 1_565 S
N107 C106 1.397 . S
N108 C105 1.347 . S
N108 C109 1.373 1_545 S
C109 C106 1.350 . S
C109 N108 1.373 1_565 S
C109 H130 0.931 . S
H110 C105 0.931 . S
H111 C106 0.930 . S
C112 O119 1.259 . S
C112 O120 1.258 . S
N113 Co104 2.057 1_545 S
N113 C114 1.316 1_545 S
N113 C115 1.375 . S
C114 N113 1.316 1_565 S
C114 N116 1.347 . S
C114 H125 0.931 . S
C115 N113 1.375 . S
C115 C117 1.350 . S
C115 H124 0.930 . S
N116 C114 1.347 . S
N116 C117 1.373 1_565 S
C117 C115 1.350 . S
C117 N116 1.373 1_545 S
C117 H131 0.931 . S
C118 O121 1.256 . S
C118 O122 1.255 . S
O119 Co102 2.021 . S
O119 C112 1.259 . S
O120 Co104 2.117 1_545 S
O120 C112 1.258 . S
O121 Co104 2.020 . S
O121 C118 1.256 . S
O122 Co102 2.062 1_565 S
O122 C118 1.255 . S
O123 C103 1.259 . S
O123 Co104 2.021 . S
H124 C115 0.930 . S
H125 C114 0.931 . S
O126 Co102 2.117 1_565 S
O126 C103 1.258 . S
O127 Co102 2.020 . S
O127 C129 1.256 . S
O128 Co104 2.062 1_545 S
O128 C129 1.255 . S
C129 O127 1.256 . S
C129 O128 1.255 . S
H130 C109 0.931 . S
H131 C117 0.931 . S
Co132 N137 2.057 . S
Co132 O149 2.021 . S
Co132 O152 2.062 . S
Co132 O156 2.117 . S
Co132 O157 2.020 . S
C133 O153 1.259 . S
C133 O156 1.258 . S
Co134 N143 2.057 . S
Co134 O150 2.117 . S
Co134 O151 2.020 . S
Co134 O153 2.021 . S
Co134 O158 2.062 . S
C135 N137 1.316 . S
C135 N138 1.347 . S
C135 H140 0.931 . S
C136 N137 1.375 . S
C136 C139 1.350 1_556 S
C136 H141 0.930 1_556 S
N137 Co132 2.057 . S
N137 C135 1.316 . S
N137 C136 1.375 . S
N138 C135 1.347 . S
N138 C139 1.373 1_556 S
C139 C136 1.350 1_554 S
C139 N138 1.373 1_554 S
C139 H160 0.931 . S
H140 C135 0.931 . S
H141 C136 0.930 1_554 S
C142 O149 1.259 . S
C142 O150 1.258 . S
N143 Co134 2.057 . S
N143 C144 1.316 . S
N143 C145 1.375 . S
C144 N143 1.316 . S
C144 N146 1.347 . S
C144 H155 0.931 . S
C145 N143 1.375 . S
C145 C147 1.350 . S
C145 H154 0.930 . S
N146 C144 1.347 . S
N146 C147 1.373 . S
C147 C145 1.350 . S
C147 N146 1.373 . S
C147 H161 0.931 . S
C148 O151 1.256 . S
C148 O152 1.255 . S
O149 Co132 2.021 . S
O149 C142 1.259 . S
O150 Co134 2.117 . S
O150 C142 1.258 . S
O151 Co134 2.020 . S
O151 C148 1.256 . S
O152 Co132 2.062 . S
O152 C148 1.255 . S
O153 C133 1.259 . S
O153 Co134 2.021 . S
H154 C145 0.930 . S
H155 C144 0.931 . S
O156 Co132 2.117 . S
O156 C133 1.258 . S
O157 Co132 2.020 . S
O157 C159 1.256 . S
O158 Co134 2.062 . S
O158 C159 1.255 . S
C159 O157 1.256 . S
C159 O158 1.255 . S
H160 C139 0.931 . S
H161 C147 0.931 . S
Co162 N167 2.057 . S
Co162 O179 2.021 1_455 S
Co162 O182 2.062 1_455 S
Co162 O186 2.117 . S
Co162 O187 2.020 . S
C163 O183 1.259 . S
C163 O186 1.258 . S
Co164 N173 2.057 . S
Co164 O180 2.117 1_455 S
Co164 O181 2.020 1_455 S
Co164 O183 2.021 . S
Co164 O188 2.062 . S
C165 N167 1.316 1_655 S
C165 N168 1.347 . S
C165 H170 0.931 . S
C166 N167 1.375 . S
C166 C169 1.350 . S
C166 H171 0.930 . S
N167 Co162 2.057 . S
N167 C165 1.316 1_455 S
N167 C166 1.375 . S
N168 C165 1.347 . S
N168 C169 1.373 1_655 S
C169 C166 1.350 . S
C169 N168 1.373 1_455 S
C169 H190 0.931 . S
H170 C165 0.931 . S
H171 C166 0.930 . S
C172 O179 1.259 . S
C172 O180 1.258 . S
N173 Co164 2.057 . S
N173 C174 1.316 . S
N173 C175 1.375 . S
C174 N173 1.316 . S
C174 N176 1.347 . S
C174 H185 0.931 . S
C175 N173 1.375 . S
C175 C177 1.350 . S
C175 H184 0.930 1_455 S
N176 C174 1.347 . S
N176 C177 1.373 . S
C177 C175 1.350 . S
C177 N176 1.373 . S
C177 H191 0.931 . S
C178 O181 1.256 . S
C178 O182 1.255 . S
O179 Co162 2.021 1_655 S
O179 C172 1.259 . S
O180 Co164 2.117 1_655 S
O180 C172 1.258 . S
O181 Co164 2.020 1_655 S
O181 C178 1.256 . S
O182 Co162 2.062 1_655 S
O182 C178 1.255 . S
O183 C163 1.259 . S
O183 Co164 2.021 . S
H184 C175 0.930 1_655 S
H185 C174 0.931 . S
O186 Co162 2.117 . S
O186 C163 1.258 . S
O187 Co162 2.020 . S
O187 C189 1.256 . S
O188 Co164 2.062 . S
O188 C189 1.255 . S
C189 O187 1.256 . S
C189 O188 1.255 . S
H190 C169 0.931 . S
H191 C177 0.931 . S
C192 C193 1.170 . S
C192 C194 1.380 . S
C193 C192 1.170 . S
C194 C192 1.380 . S
C194 C195 1.170 . S
C195 C194 1.170 . S
C196 C197 1.170 . S
C196 C198 1.380 . S
C197 C196 1.170 . S
C198 C196 1.380 . S
C198 C199 1.170 . S
C199 C198 1.170 . S
C200 C201 1.170 . S
C200 C202 1.380 . S
C201 C200 1.170 . S
C202 C200 1.380 . S
C202 C203 1.170 . S
C203 C202 1.170 . S
C204 C205 1.170 . S
C204 C206 1.380 . S
C205 C204 1.170 . S
C206 C204 1.380 . S
C206 C207 1.170 . S
C207 C206 1.170 . S
C208 C209 1.170 1_556 S
C208 C210 1.380 . S
C209 C208 1.170 1_554 S
C210 C208 1.380 . S
C210 C211 1.170 . S
C211 C210 1.170 . S
C212 C213 1.170 . S
C212 C214 1.380 1_554 S
C213 C212 1.170 . S
C214 C212 1.380 1_556 S
C214 C215 1.170 . S
C215 C214 1.170 . S
C216 C217 1.170 . S
C216 C218 1.380 . S
C217 C216 1.170 . S
C218 C216 1.380 . S
C218 C219 1.170 1_554 S
C219 C218 1.170 1_556 S
C220 C221 1.170 1_556 S
C220 C222 1.380 . S
C221 C220 1.170 1_554 S
C222 C220 1.380 . S
C222 C223 1.170 . S
C223 C222 1.170 . S
C224 C225 1.170 . S
C224 C226 1.380 . S
C225 C224 1.170 . S
C226 C224 1.380 . S
C226 C227 1.170 . S
C227 C226 1.170 . S
C228 C229 1.166 1_565 S
C228 C230 1.380 . S
C229 C228 1.166 1_545 S
C230 C228 1.380 . S
C230 C231 1.170 . S
C231 C230 1.170 . S
C232 C233 1.170 . S
C232 C234 1.380 . S
C233 C232 1.170 . S
C234 C232 1.380 . S
C234 C235 1.170 . S
C235 C234 1.170 . S
C236 C237 1.170 . S
C236 C238 1.380 . S
C237 C236 1.170 . S
C238 C236 1.380 . S
C238 C239 1.170 . S
C239 C238 1.170 . S
C240 C241 1.170 . S
C240 C242 1.380 . S
C241 C240 1.170 . S
C242 C240 1.380 . S
C242 C243 1.170 . S
C243 C242 1.170 . S
C244 C245 1.170 1_545 S
C244 C246 1.380 . S
C245 C244 1.170 1_565 S
C246 C244 1.380 . S
C246 C247 1.170 . S
C247 C246 1.170 . S
C248 C249 1.170 . S
C248 C250 1.380 1_554 S
C249 C248 1.170 . S
C250 C248 1.380 1_556 S
C250 C251 1.170 . S
C251 C250 1.170 . S
C252 C253 1.170 . S
C252 C254 1.380 . S
C253 C252 1.170 . S
C254 C252 1.380 . S
C254 C255 1.170 1_554 S
C255 C254 1.170 1_556 S
C256 C257 1.170 . S
C256 C258 1.380 . S
C257 C256 1.170 . S
C258 C256 1.380 . S
C258 C259 1.170 . S
C259 C258 1.170 . S
C260 C261 1.170 . S
C260 C262 1.380 . S
C261 C260 1.170 . S
C262 C260 1.380 . S
C262 C263 1.170 . S
C263 C262 1.170 . S
C264 C265 1.170 . S
C264 C266 1.380 . S
C265 C264 1.170 . S
C266 C264 1.380 . S
C266 C267 1.170 . S
C267 C266 1.170 . S
C268 C269 1.170 . S
C268 C270 1.380 . S
C269 C268 1.170 . S
C270 C268 1.380 . S
C270 C271 1.170 . S
C271 C270 1.170 . S
C272 C273 1.170 . S
C272 C274 1.380 . S
C273 C272 1.170 . S
C274 C272 1.380 . S
C274 C275 1.170 . S
C275 C274 1.170 . S
C276 C277 1.170 1_565 S
C276 C278 1.380 . S
C277 C276 1.170 1_545 S
C278 C276 1.380 . S
C278 C279 1.170 . S
C279 C278 1.170 . S
C280 C281 1.170 . S
C280 C282 1.380 . S
C281 C280 1.170 . S
C282 C280 1.380 . S
C282 C283 1.170 . S
C283 C282 1.170 . S
C284 C285 1.170 . S
C284 C286 1.380 . S
C285 C284 1.170 . S
C286 C284 1.380 . S
C286 C287 1.170 . S
C287 C286 1.170 . S
C193 C61 1.648 . S
C195 C82 1.646 . S
C199 C112 1.777 . S
C197 C70 1.774 . S
C203 N146 1.343 . S
C201 C43 1.366 . S
C207 N176 1.517 . S
C205 C52 1.514 . S
C211 C73 1.653 . S
C209 C25 1.645 1_545 S
C213 C34 1.758 . S
C215 C103 1.795 . S
C217 C7 1.403 . S
C219 N138 1.312 . S
C221 C16 1.499 . S
C223 N168 1.490 . S
C227 C88 0.715 . S
C225 C50 0.685 . S
C231 C118 0.829 . S
C229 C59 0.766 1_545 S
C235 C159 1.120 . S
C233 C67 1.092 . S
C237 C41 0.626 . S
C239 C189 0.615 . S
C241 C14 0.780 1_556 S
C243 C99 0.644 1_655 S
C247 C129 0.786 . S
C245 C23 0.837 1_556 S
C251 C148 1.101 . S
C249 C31 1.110 . S
C253 C5 0.614 . S
C255 C178 0.611 . S
C257 C49 1.529 . S
C259 N78 1.531 . S
C261 C58 1.434 1_545 S
C263 N108 1.432 . S
C267 C133 1.711 1_554 S
C265 C68 1.644 . S
C271 C163 1.529 1_554 S
C269 C40 1.479 . S
C273 C13 1.506 . S
C275 N86 1.535 . S
C279 N116 1.433 . S
C277 C22 1.440 1_545 S
C283 C142 1.705 . S
C281 C32 1.662 . S
C285 C4 1.475 . S
C287 C172 1.528 . S
