# Generated by pormake.
# Topology anh, (6,3)-cn, num edge types: 1
# Building blocks:
#     Node 0, Type 0, BuildingBlock: PAMTOO_clean_sbu_0, # of connection points: 6
#     Node 1, Type 0, BuildingBlock: PAMTOO_clean_sbu_0, # of connection points: 6
#     Node 2, Type 0, BuildingBlock: PAMTOO_clean_sbu_0, # of connection points: 6
#     Node 3, Type 1, BuildingBlock: BETDIP_clean_linker_0, # of connection points: 3
#     Node 4, Type 1, BuildingBlock: BETDIP_clean_linker_0, # of connection points: 3
#     Node 5, Type 1, BuildingBlock: BETDIP_clean_linker_0, # of connection points: 3
#     Node 6, Type 1, BuildingBlock: BETDIP_clean_linker_0, # of connection points: 3
#     Node 7, Type 1, BuildingBlock: BETDIP_clean_linker_0, # of connection points: 3
#     Node 8, Type 1, BuildingBlock: BETDIP_clean_linker_0, # of connection points: 3
#     Edge 9, Type (0, 1), BuildingBlock: UVAHIK_clean_linker_0, # of connection points: 2
#     Edge 10, Type (0, 1), BuildingBlock: UVAHIK_clean_linker_0, # of connection points: 2
#     Edge 11, Type (0, 1), BuildingBlock: UVAHIK_clean_linker_0, # of connection points: 2
#     Edge 12, Type (0, 1), BuildingBlock: UVAHIK_clean_linker_0, # of connection points: 2
#     Edge 13, Type (0, 1), BuildingBlock: UVAHIK_clean_linker_0, # of connection points: 2
#     Edge 14, Type (0, 1), BuildingBlock: UVAHIK_clean_linker_0, # of connection points: 2
#     Edge 15, Type (0, 1), BuildingBlock: UVAHIK_clean_linker_0, # of connection points: 2
#     Edge 16, Type (0, 1), BuildingBlock: UVAHIK_clean_linker_0, # of connection points: 2
#     Edge 17, Type (0, 1), BuildingBlock: UVAHIK_clean_linker_0, # of connection points: 2
#     Edge 18, Type (0, 1), BuildingBlock: UVAHIK_clean_linker_0, # of connection points: 2
#     Edge 19, Type (0, 1), BuildingBlock: UVAHIK_clean_linker_0, # of connection points: 2
#     Edge 20, Type (0, 1), BuildingBlock: UVAHIK_clean_linker_0, # of connection points: 2
#     Edge 21, Type (0, 1), BuildingBlock: UVAHIK_clean_linker_0, # of connection points: 2
#     Edge 22, Type (0, 1), BuildingBlock: UVAHIK_clean_linker_0, # of connection points: 2
#     Edge 23, Type (0, 1), BuildingBlock: UVAHIK_clean_linker_0, # of connection points: 2
#     Edge 24, Type (0, 1), BuildingBlock: UVAHIK_clean_linker_0, # of connection points: 2
#     Edge 25, Type (0, 1), BuildingBlock: UVAHIK_clean_linker_0, # of connection points: 2
#     Edge 26, Type (0, 1), BuildingBlock: UVAHIK_clean_linker_0, # of connection points: 2
# Relax obj value: 0.126
# Max RMSD: 0.204
# Mean RMSD: 0.122
data_MOF--net-anh--node1-PAMTOO_clean_sbu_0--node2-BETDIP_clean_linker_0--edge1-UVAHIK_clean_linker_0
_symmetry_space_group_name_H-M    P1
_symmetry_Int_Tables_number       1
_symmetry_cell_setting            triclinic
loop_
_symmetry_equiv_pos_as_xyz
'x, y, z'
_cell_length_a     39.030796
_cell_length_b     38.39481
_cell_length_c     64.114982
_cell_angle_alpha  92.387919
_cell_angle_beta   97.123778
_cell_angle_gamma 104.85069
loop_
_atom_site_label
_atom_site_type_symbol
_atom_site_fract_x
_atom_site_fract_y
_atom_site_fract_z
_atom_type_partial_charge
Dy0 Dy 0.09706 0.63345 0.15702 0.0
Dy1 Dy 0.0698 0.54572 0.14394 0.0
C2 C 0.08912 0.60318 0.10956 0.0
O3 O 1.0374 0.62081 0.14706 0.0
O4 O 1.02329 0.56165 0.15487 0.0
O5 O 0.0995 0.68817 0.14922 0.0
O6 O 0.12487 0.67809 0.17954 0.0
O7 O 0.08524 0.55158 0.17892 0.0
O8 O 0.07841 0.60838 0.18564 0.0
O9 O 0.12805 0.56041 0.14033 0.0
O10 O 0.14673 0.61351 0.1615 0.0
O11 O 0.07335 0.49085 0.14698 0.0
O12 O 1.03188 0.50186 0.12455 0.0
C13 C 1.01382 0.59148 0.1511 0.0
O14 O 0.10919 0.62636 0.12451 0.0
O15 O 0.06692 0.57322 0.11385 0.0
C16 C 0.15466 0.72833 0.16329 0.0
C17 C 0.22112 0.77695 0.15998 0.0
C18 C 0.21284 0.74109 0.15119 0.0
C19 C 0.17991 0.71699 0.15285 0.0
C20 C 0.16233 0.76419 0.17164 0.0
C21 C 0.19529 0.78837 0.16998 0.0
C22 C 0.12122 0.70228 0.16635 0.0
C23 C 0.08181 0.57728 0.19204 0.0
C24 C 0.15374 0.5864 0.15108 0.0
C25 C 1.01659 0.44828 0.14157 0.0
C26 C 0.9601 0.39554 0.15467 0.0
C27 C 0.98183 0.42364 0.16902 0.0
C28 C 1.00965 0.44988 0.1625 0.0
C29 C 0.99552 0.42003 0.12731 0.0
C30 C 0.96752 0.39393 0.13376 0.0
C31 C 1.04392 0.47712 0.13403 0.0
H32 H 0.23195 0.73154 0.14319 0.0
H33 H 0.17437 0.68931 0.1463 0.0
H34 H 0.14316 0.77328 0.17984 0.0
H35 H 0.20098 0.81564 0.17716 0.0
H36 H 0.97728 0.42549 0.1853 0.0
H37 H 1.02542 0.47168 0.17374 0.0
H38 H 1.00023 0.41861 0.11103 0.0
H39 H 0.95107 0.3731 0.12218 0.0
Dy40 Dy 0.54751 0.02903 0.50889 0.0
Dy41 Dy 0.63552 0.0476 0.51526 0.0
C42 C 0.59278 0.03649 0.55369 0.0
O43 O 0.56516 0.08772 0.50386 0.0
O44 O 0.62205 0.09982 0.52194 0.0
O45 O 0.49926 0.01529 0.52339 0.0
O46 O 0.49602 0.02187 0.4899 0.0
O47 O 0.61685 0.06041 0.48295 0.0
O48 O 0.5641 0.01659 0.47788 0.0
O49 O 0.61751 0.98788 0.50684 0.0
O50 O 0.55991 0.97651 0.5148 0.0
O51 O 0.68486 0.04792 0.50316 0.0
O52 O 0.68607 0.07087 0.53479 0.0
C53 C 0.59489 0.11071 0.51291 0.0
O54 O 0.56914 0.0493 0.54233 0.0
O55 O 0.61737 0.02605 0.54487 0.0
C56 C 0.45012 0.97703 0.50182 0.0
C57 C 0.39815 0.90982 0.49795 0.0
C58 C 0.39467 0.93906 0.51076 0.0
C59 C 0.42037 0.97232 0.51261 0.0
C60 C 0.45371 0.9481 0.48891 0.0
C61 C 0.42785 0.9149 0.48688 0.0
C62 C 0.47834 0.01125 0.5055 0.0
C63 C 0.59033 0.03877 0.47029 0.0
C64 C 0.58758 0.96535 0.51049 0.0
C65 C 0.72947 0.10122 0.51501 0.0
C66 C 0.77676 0.16634 0.50655 0.0
C67 C 0.73959 0.16231 0.50397 0.0
C68 C 0.71618 0.13004 0.5081 0.0
C69 C 0.76642 0.10496 0.51767 0.0
C70 C 0.78993 0.13728 0.51347 0.0
C71 C 0.70459 0.0676 0.51957 0.0
H72 H 0.37256 0.93605 0.51979 0.0
H73 H 0.41742 0.99421 0.52288 0.0
H74 H 0.47672 0.95101 0.48061 0.0
H75 H 0.43118 0.89324 0.47662 0.0
H76 H 0.72854 0.18427 0.499 0.0
H77 H 0.68767 0.1276 0.50599 0.0
H78 H 0.77706 0.0829 0.52297 0.0
H79 H 0.81836 0.13934 0.51538 0.0
Dy80 Dy 0.58937 0.47677 0.84366 0.0
Dy81 Dy 0.50325 0.44652 0.82787 0.0
C82 C 0.55829 0.46199 0.79499 0.0
O83 O 0.56733 0.52434 0.84865 0.0
O84 O 0.51706 0.50597 0.82409 0.0
O85 O 0.63882 0.51863 0.84662 0.0
O86 O 0.63808 0.4671 0.85933 0.0
O87 O 0.50873 0.47025 0.86091 0.0
O88 O 0.5636 0.46152 0.8723 0.0
O89 O 0.52219 0.39918 0.83863 0.0
O90 O 0.57948 0.41921 0.83142 0.0
O91 O 0.45038 0.417 0.83317 0.0
O92 O 0.45842 0.44026 0.80338 0.0
C93 C 0.54104 0.53157 0.8362 0.0
O94 O 0.58127 0.48429 0.80932 0.0
O95 O 0.53059 0.43821 0.80018 0.0
C96 C 0.68917 0.49653 0.8447 0.0
C97 C 0.75065 0.49887 0.82547 0.0
C98 C 0.71694 0.49245 0.81313 0.0
C99 C 0.68638 0.49112 0.82269 0.0
C100 C 0.72246 0.50178 0.85708 0.0
C101 C 0.75297 0.5029 0.84756 0.0
C102 C 0.65785 0.49797 0.85484 0.0
C103 C 0.53327 0.46741 0.87622 0.0
C104 C 0.55262 0.39288 0.83526 0.0
C105 C 0.40571 0.44189 0.81664 0.0
C106 C 0.35246 0.47933 0.8166 0.0
C107 C 0.38205 0.48751 0.8326 0.0
C108 C 0.40855 0.46909 0.83255 0.0
C109 C 0.37594 0.43311 0.80089 0.0
C110 C 0.3495 0.45175 0.80083 0.0
C111 C 0.43516 0.42498 0.81537 0.0
H112 H 0.71433 0.48904 0.7961 0.0
H113 H 0.66071 0.48671 0.81291 0.0
H114 H 0.72502 0.50594 0.87409 0.0
H115 H 0.77861 0.50846 0.85749 0.0
H116 H 0.38536 0.50904 0.84475 0.0
H117 H 0.43169 0.47672 0.84465 0.0
H118 H 0.37357 0.41241 0.78838 0.0
H119 H 0.3269 0.44482 0.78837 0.0
H120 H 0.57885 0.06182 0.18514 0.0
H121 H 0.6349 0.10258 0.24695 0.0
H122 H 0.54273 0.0109 0.2397 0.0
H123 H 0.64004 0.15703 0.22976 0.0
C124 C 0.65022 0.14794 0.21607 0.0
C125 C 0.58175 0.06037 0.20209 0.0
C126 C 0.55819 0.03297 0.21104 0.0
C127 C 0.60902 0.08606 0.21502 0.0
C128 C 0.61293 0.08375 0.23703 0.0
C129 C 0.58931 0.05656 0.2462 0.0
C130 C 0.56195 0.03142 0.23297 0.0
N131 N 0.6329 0.11336 0.20563 0.0
H132 H 0.5948 0.50974 0.5158 0.0
H133 H 0.57357 0.55905 0.57278 0.0
H134 H 0.59418 0.45444 0.57279 0.0
H135 H 0.53289 0.57558 0.54477 0.0
C136 C 0.55496 0.58815 0.53643 0.0
C137 C 0.59171 0.50892 0.53236 0.0
C138 C 0.59557 0.47878 0.54317 0.0
C139 C 0.5834 0.53786 0.5429 0.0
C140 C 0.5795 0.53664 0.56444 0.0
C141 C 0.58311 0.5065 0.57526 0.0
C142 C 0.59125 0.47781 0.56451 0.0
N143 N 0.5796 0.56829 0.53185 0.0
H144 H 0.11383 0.71181 0.83564 0.0
H145 H 0.15624 0.74166 0.9008 0.0
H146 H 0.06772 0.64765 0.88356 0.0
H147 H 0.18928 0.78306 0.83593 0.0
C148 C 0.18193 0.75911 0.84453 0.0
C149 C 0.1132 0.70656 0.85208 0.0
C150 C 0.0881 0.67639 0.85764 0.0
C151 C 0.13749 0.73024 0.86769 0.0
C152 C 0.1368 0.72364 0.88898 0.0
C153 C 0.11255 0.69297 0.89484 0.0
C154 C 0.08791 0.67005 0.87906 0.0
N155 N 0.16328 0.76054 0.86212 0.0
H156 H 0.09961 0.56006 0.47696 0.0
H157 H 1.04655 0.51008 0.41598 0.0
H158 H 0.14282 0.59637 0.4208 0.0
H159 H 0.99767 0.50307 0.43383 0.0
C160 C 1.00807 0.49275 0.44812 0.0
C161 C 0.09821 0.55797 0.45995 0.0
C162 C 0.1246 0.58094 0.45023 0.0
C163 C 0.06977 0.53245 0.44772 0.0
C164 C 0.0681 0.5299 0.4256 0.0
C165 C 0.09412 0.55319 0.41576 0.0
C166 C 0.12245 0.57834 0.42823 0.0
N167 N 1.04359 0.5092 0.45798 0.0
H168 H 0.55867 0.99508 0.83372 0.0
H169 H 0.55218 0.93723 0.77362 0.0
H170 H 0.57387 0.05286 0.77808 0.0
H171 H 0.50488 0.89857 0.79063 0.0
C172 C 0.52387 0.89664 0.80417 0.0
C173 C 0.56008 0.99508 0.81695 0.0
C174 C 0.56718 0.0279 0.80727 0.0
C175 C 0.55433 0.96216 0.80485 0.0
C176 C 0.55618 0.9624 0.78304 0.0
C177 C 0.56292 0.99502 0.77328 0.0
C178 C 0.56857 0.02754 0.78554 0.0
N179 N 0.54714 0.92901 0.81471 0.0
H180 H 0.55096 0.58646 0.1564 0.0
H181 H 0.59599 0.56568 0.10065 0.0
H182 H 0.48381 0.55872 0.09627 0.0
H183 H 0.61706 0.52812 0.12884 0.0
C184 C 0.63165 0.55371 0.13746 0.0
C185 C 0.54786 0.58007 0.13955 0.0
C186 C 0.51369 0.57355 0.12734 0.0
C187 C 0.57753 0.57597 0.12998 0.0
C188 C 0.573 0.56748 0.10811 0.0
C189 C 0.53943 0.56126 0.09581 0.0
C190 C 0.51004 0.56431 0.10558 0.0
N191 N 0.6116 0.57875 0.14212 0.0
C192 C 0.22038 0.61548 0.15914 0.0
C193 C 0.19182 0.58547 0.1511 0.0
C194 C 0.25609 0.61475 0.15859 0.0
C195 C 0.31083 0.56486 0.13147 0.0
H196 H 0.38693 0.61246 0.17615 0.0
C197 C 0.45116 0.54331 0.13301 0.0
C198 C 0.48053 0.57403 0.13658 0.0
C199 C 0.41723 0.54506 0.13709 0.0
C200 C 0.36604 0.59925 0.16346 0.0
H201 H 0.17892 0.53082 0.13658 0.0
H202 H 0.24068 0.52923 0.13604 0.0
H203 H 0.32538 0.61481 0.17842 0.0
H204 H 0.49763 0.6303 0.14825 0.0
H205 H 0.43805 0.63345 0.15563 0.0
H206 H 0.35119 0.54914 0.11655 0.0
C207 C 0.23567 0.55378 0.14234 0.0
C208 C 0.33065 0.60065 0.16472 0.0
C209 C 0.20005 0.55459 0.14277 0.0
C210 C 0.47559 0.6061 0.14559 0.0
C211 C 0.4414 0.60789 0.1497 0.0
C212 C 0.34599 0.5633 0.13028 0.0
C213 C 0.26434 0.58394 0.15005 0.0
C214 C 0.3024 0.58324 0.14879 0.0
C215 C 0.4115 0.57765 0.1448 0.0
C216 C 0.37414 0.58019 0.14631 0.0
H217 H 0.21518 0.63985 0.16559 0.0
H218 H 0.2772 0.6387 0.16446 0.0
H219 H 0.29026 0.55193 0.11856 0.0
H220 H 0.45415 0.5182 0.1261 0.0
H221 H 0.39517 0.52098 0.1336 0.0
C222 C 0.79233 0.21921 0.48453 0.0
C223 C 0.80152 0.20072 0.50195 0.0
C224 C 0.8151 0.25188 0.48037 0.0
C225 C 0.90885 0.30614 0.49029 0.0
H226 H 0.86799 0.38401 0.47265 0.0
C227 C 0.99677 0.44631 0.47479 0.0
C228 C 0.98478 0.4615 0.45665 0.0
C229 C 0.97461 0.41576 0.48197 0.0
C230 C 0.87981 0.36244 0.47739 0.0
H231 H 0.84193 0.20227 0.5287 0.0
H232 H 0.88188 0.25926 0.52131 0.0
H233 H 0.82914 0.32795 0.48188 0.0
H234 H 0.94045 0.45711 0.43192 0.0
H235 H 0.90191 0.40368 0.44425 0.0
H236 H 0.95946 0.34044 0.48548 0.0
C237 C 0.85711 0.24824 0.51079 0.0
C238 C 0.85753 0.33032 0.48268 0.0
C239 C 0.83425 0.21556 0.515 0.0
C240 C 0.95023 0.44597 0.446 0.0
C241 C 0.92811 0.4155 0.45315 0.0
C242 C 0.93115 0.33828 0.48494 0.0
C243 C 0.84769 0.26685 0.49349 0.0
C244 C 0.87173 0.30164 0.48895 0.0
C245 C 0.94008 0.39989 0.47116 0.0
C246 C 0.91682 0.36665 0.47818 0.0
H247 H 0.76767 0.20823 0.47392 0.0
H248 H 0.80737 0.26519 0.46668 0.0
H249 H 0.92055 0.28441 0.49486 0.0
H250 H 1.02331 0.45776 0.48335 0.0
H251 H 0.98448 0.40463 0.49602 0.0
C252 C 0.51106 0.57771 0.82179 0.0
C253 C 0.53878 0.56953 0.83524 0.0
C254 C 0.50981 0.6135 0.8199 0.0
C255 C 0.54302 0.70626 0.84565 0.0
H256 H 0.51986 0.73352 0.78914 0.0
C257 C 0.5522 0.85509 0.82573 0.0
C258 C 0.52543 0.86024 0.8103 0.0
C259 C 0.55425 0.82005 0.82998 0.0
C260 C 0.52594 0.72634 0.80508 0.0
H261 H 0.58646 0.59281 0.85769 0.0
H262 H 0.58426 0.6554 0.85431 0.0
H263 H 0.52235 0.67186 0.79442 0.0
H264 H 0.47932 0.83313 0.78774 0.0
H265 H 0.48235 0.77231 0.79536 0.0
H266 H 0.54646 0.76095 0.85627 0.0
C267 C 0.56341 0.63398 0.8453 0.0
C268 C 0.52739 0.69091 0.8081 0.0
C269 C 0.56474 0.59808 0.84716 0.0
C270 C 0.50034 0.8299 0.79964 0.0
C271 C 0.50228 0.79505 0.8039 0.0
C272 C 0.54147 0.74183 0.84263 0.0
C273 C 0.53618 0.64214 0.83142 0.0
C274 C 0.53562 0.68028 0.82842 0.0
C275 C 0.52958 0.78959 0.81887 0.0
C276 C 0.53255 0.75221 0.8223 0.0
H277 H 0.49043 0.55648 0.81248 0.0
H278 H 0.48809 0.61875 0.80935 0.0
H279 H 0.54923 0.69891 0.86153 0.0
H280 H 0.57201 0.87802 0.83416 0.0
H281 H 0.57575 0.81686 0.84151 0.0
C282 C 0.96087 0.61759 0.14206 0.0
C283 C 0.97576 0.59166 0.15184 0.0
C284 C 0.92443 0.61609 0.14202 0.0
C285 C 0.83795 0.55145 0.15039 0.0
H286 H 0.8021 0.63668 0.14844 0.0
C287 C 0.68722 0.53735 0.13121 0.0
C288 C 0.67151 0.56183 0.14071 0.0
C289 C 0.72435 0.54315 0.13345 0.0
C290 C 0.8116 0.61258 0.14923 0.0
H291 H 0.96415 0.54485 0.17012 0.0
H292 H 0.90176 0.54308 0.17083 0.0
H293 H 0.86649 0.64314 0.15139 0.0
H294 H 0.68276 0.6121 0.16003 0.0
H295 H 0.74821 0.62196 0.1646 0.0
H296 H 0.78361 0.52092 0.14906 0.0
C297 C 0.91748 0.56382 0.16239 0.0
C298 C 0.84868 0.61624 0.15061 0.0
C299 C 0.95358 0.56497 0.16213 0.0
C300 C 0.69405 0.59267 0.15255 0.0
C301 C 0.7316 0.59837 0.15503 0.0
C302 C 0.80115 0.54785 0.14925 0.0
C303 C 0.90198 0.5889 0.152 0.0
C304 C 0.86248 0.58566 0.15107 0.0
C305 C 0.74731 0.57345 0.14561 0.0
C306 C 0.78717 0.57823 0.14831 0.0
H307 H 0.97712 0.63849 0.13395 0.0
H308 H 0.91374 0.63573 0.13364 0.0
H309 H 0.84695 0.52704 0.15033 0.0
H310 H 0.67065 0.51354 0.12176 0.0
H311 H 0.73498 0.5238 0.12538 0.0
C312 C 0.33465 0.87187 0.49631 0.0
C313 C 0.37124 0.87408 0.49639 0.0
C314 C 0.30943 0.8383 0.49476 0.0
C315 C 0.29424 0.74497 0.47419 0.0
H316 H 0.21859 0.72413 0.50938 0.0
C317 C 0.18945 0.60837 0.46215 0.0
C318 C 0.15385 0.60923 0.4625 0.0
C319 C 0.2175 0.63839 0.47002 0.0
C320 C 0.23935 0.72959 0.49931 0.0
H321 H 0.40988 0.84236 0.49552 0.0
H322 H 0.36567 0.78391 0.49216 0.0
H323 H 0.26437 0.78181 0.51532 0.0
H324 H 0.11926 0.64115 0.47184 0.0
H325 H 0.16808 0.69421 0.48506 0.0
H326 H 0.26879 0.69386 0.45751 0.0
C327 C 0.35664 0.80828 0.49325 0.0
C328 C 0.2656 0.76259 0.50276 0.0
C329 C 0.38191 0.8418 0.49503 0.0
C330 C 0.14664 0.63985 0.47172 0.0
C331 C 0.17468 0.67018 0.47929 0.0
C332 C 0.26783 0.71224 0.47056 0.0
C333 C 0.32014 0.80619 0.49304 0.0
C334 C 0.29317 0.77066 0.49015 0.0
C335 C 0.21046 0.67023 0.47794 0.0
C336 C 0.23988 0.70413 0.48298 0.0
H337 H 0.32532 0.89607 0.497 0.0
H338 H 0.2814 0.83748 0.49434 0.0
H339 H 0.31489 0.75068 0.46403 0.0
H340 H 0.19549 0.58494 0.45502 0.0
H341 H 0.24468 0.63703 0.46921 0.0
C342 C 0.5282 0.32677 0.83964 0.0
C343 C 0.55664 0.3555 0.83568 0.0
C344 C 0.532 0.29151 0.83995 0.0
C345 C 0.58532 0.23405 0.8201 0.0
H346 H 0.54423 0.1684 0.86026 0.0
C347 C 0.60288 0.09093 0.81847 0.0
C348 C 0.57169 0.06314 0.819 0.0
C349 C 0.6041 0.12665 0.82445 0.0
C350 C 0.55571 0.18635 0.84888 0.0
H351 H 0.61165 0.36964 0.8293 0.0
H352 H 0.61828 0.3083 0.82995 0.0
H353 H 0.53996 0.23087 0.86241 0.0
H354 H 0.51803 0.05034 0.82724 0.0
H355 H 0.51983 0.11298 0.83756 0.0
H356 H 0.60041 0.18969 0.80624 0.0
C357 C 0.59286 0.31293 0.83255 0.0
C358 C 0.55322 0.22214 0.85009 0.0
C359 C 0.58908 0.34817 0.83225 0.0
C360 C 0.54255 0.07131 0.827 0.0
C361 C 0.54361 0.10721 0.83283 0.0
C362 C 0.58776 0.19839 0.81888 0.0
C363 C 0.56431 0.28411 0.83629 0.0
C364 C 0.56787 0.24637 0.83563 0.0
C365 C 0.57392 0.13548 0.83081 0.0
C366 C 0.57291 0.17399 0.83319 0.0
H367 H 0.50284 0.3314 0.84237 0.0
H368 H 0.50933 0.26992 0.84262 0.0
H369 H 0.59629 0.25171 0.80846 0.0
H370 H 0.62566 0.08521 0.81231 0.0
H371 H 0.62818 0.14759 0.8232 0.0
C372 C 0.61406 0.91235 0.507 0.0
C373 C 0.58507 0.92613 0.51072 0.0
C374 C 0.61184 0.87551 0.50836 0.0
C375 C 0.56394 0.79675 0.53357 0.0
H376 H 0.59617 0.73974 0.49257 0.0
C377 C 0.53212 0.64275 0.53454 0.0
C378 C 0.55894 0.62587 0.53092 0.0
C379 C 0.53605 0.67906 0.53092 0.0
C380 C 0.58744 0.75539 0.50429 0.0
H381 H 0.53057 0.91158 0.5181 0.0
H382 H 0.52688 0.84781 0.52045 0.0
H383 H 0.60215 0.80404 0.4884 0.0
H384 H 0.61077 0.63348 0.52028 0.0
H385 H 0.61802 0.69733 0.51423 0.0
H386 H 0.54958 0.74865 0.54964 0.0
C387 C 0.55148 0.86548 0.51677 0.0
C388 C 0.59084 0.79219 0.50188 0.0
C389 C 0.5536 0.90211 0.51532 0.0
C390 C 0.58958 0.64579 0.52314 0.0
C391 C 0.59365 0.68233 0.51961 0.0
C392 C 0.56073 0.76018 0.53604 0.0
C393 C 0.58069 0.85181 0.51359 0.0
C394 C 0.57869 0.81313 0.51637 0.0
C395 C 0.56713 0.69954 0.52376 0.0
C396 C 0.57198 0.73886 0.5213 0.0
H397 H 0.63867 0.93005 0.50337 0.0
H398 H 0.63484 0.86576 0.50589 0.0
H399 H 0.55504 0.81232 0.54526 0.0
H400 H 0.50816 0.62792 0.54044 0.0
H401 H 0.51471 0.69113 0.53384 0.0
C402 C 0.81232 0.49143 0.82416 0.0
C403 C 0.78384 0.50489 0.81554 0.0
C404 C 0.84604 0.50331 0.81778 0.0
C405 C 0.89857 0.58676 0.80187 0.0
H406 H 0.97261 0.53578 0.80428 0.0
C407 C 1.04292 0.66686 0.82496 0.0
C408 C 0.06062 0.65235 0.84149 0.0
C409 C 1.01253 0.6452 0.81232 0.0
C410 C 0.95227 0.55046 0.8035 0.0
H411 H 0.76749 0.53876 0.79212 0.0
H412 H 0.82638 0.55933 0.78089 0.0
H413 H 0.90969 0.5016 0.79896 0.0
H414 H 0.06297 0.6028 0.85597 0.0
H415 H 1.00916 0.56571 0.83493 0.0
H416 H 0.94043 0.63535 0.80814 0.0
C417 C 0.82268 0.53986 0.79272 0.0
C418 C 0.91625 0.53085 0.80035 0.0
C419 C 0.78891 0.5279 0.79906 0.0
C420 C 1.04927 0.61507 0.84379 0.0
C421 C 1.01865 0.59358 0.8314 0.0
C422 C 0.93444 0.6063 0.80523 0.0
C423 C 0.85194 0.52896 0.80269 0.0
C424 C 0.88911 0.54882 0.80043 0.0
C425 C 0.9989 0.60874 0.81615 0.0
C426 C 0.96179 0.58837 0.80709 0.0
H427 H 0.809 0.4732 0.83664 0.0
H428 H 0.86804 0.49451 0.82586 0.0
H429 H 0.87838 0.60148 0.80224 0.0
H430 H 1.05104 0.69541 0.82263 0.0
H431 H 0.99856 0.65759 0.80035 0.0
C432 C 0.28797 0.78911 0.16416 0.0
C433 C 0.25725 0.80174 0.15981 0.0
C434 C 0.32208 0.8128 0.16564 0.0
C435 C 0.37269 0.9033 0.15322 0.0
H436 H 0.43771 0.89532 0.20254 0.0
C437 C 0.49977 0.01638 0.18725 0.0
C438 C 0.52866 0.00598 0.19799 0.0
C439 C 0.46838 0.99022 0.17882 0.0
C440 C 0.42031 0.89758 0.18842 0.0
H441 H 0.23835 0.8489 0.15268 0.0
H442 H 0.29807 0.89045 0.15557 0.0
H443 H 0.37959 0.85199 0.19491 0.0
H444 H 0.54887 0.9606 0.20712 0.0
H445 H 0.49487 0.91481 0.19167 0.0
H446 H 0.41352 0.94931 0.14692 0.0
C447 C 0.29568 0.86214 0.15772 0.0
C448 C 0.38685 0.87271 0.18409 0.0
C449 C 0.26149 0.83842 0.15629 0.0
C450 C 0.52678 0.96913 0.19892 0.0
C451 C 0.49572 0.94302 0.19027 0.0
C452 C 0.40641 0.92818 0.1575 0.0
C453 C 0.32634 0.84969 0.1628 0.0
C454 C 0.36254 0.87536 0.16653 0.0
C455 C 0.46557 0.95324 0.18089 0.0
C456 C 0.43057 0.92572 0.17524 0.0
H457 H 0.28572 0.76111 0.16714 0.0
H458 H 0.34519 0.80231 0.16935 0.0
H459 H 0.3546 0.90585 0.13947 0.0
H460 H 0.50061 0.04473 0.18659 0.0
H461 H 0.44568 -0.00088 0.17184 0.0
C462 C 0.5696 0.16293 0.50362 0.0
C463 C 0.59808 0.15004 0.51292 0.0
C464 C 0.57268 0.20007 0.50382 0.0
C465 C 0.62206 0.28567 0.53364 0.0
H466 H 0.58432 0.32986 0.48581 0.0
C467 C 0.63407 0.43702 0.5396 0.0
C468 C 0.60275 0.44707 0.53258 0.0
C469 C 0.63736 0.40273 0.53375 0.0
C470 C 0.59485 0.3179 0.49933 0.0
H471 H 0.65252 0.16629 0.52928 0.0
H472 H 0.65779 0.23086 0.5296 0.0
H473 H 0.58187 0.26551 0.48271 0.0
H474 H 0.55104 0.4303 0.51324 0.0
H475 H 0.55631 0.36991 0.5032 0.0
H476 H 0.63412 0.33737 0.55052 0.0
C477 C 0.63292 0.21224 0.52237 0.0
C478 C 0.59341 0.28104 0.49756 0.0
C479 C 0.62989 0.17517 0.52214 0.0
C480 C 0.57565 0.4232 0.51855 0.0
C481 C 0.57873 0.38863 0.51287 0.0
C482 C 0.62336 0.32234 0.53544 0.0
C483 C 0.60426 0.22513 0.51337 0.0
C484 C 0.60685 0.2645 0.51475 0.0
C485 C 0.60906 0.37751 0.52108 0.0
C486 C 0.60966 0.33896 0.51836 0.0
H487 H 0.54476 0.14436 0.49631 0.0
H488 H 0.54999 0.20911 0.49694 0.0
H489 H 0.63204 0.27366 0.5473 0.0
H490 H 0.65522 0.45507 0.55052 0.0
H491 H 0.66146 0.39542 0.53994 0.0
C492 C 0.31491 0.51479 0.79706 0.0
C493 C 0.32594 0.50093 0.81594 0.0
C494 C 0.29294 0.53839 0.79693 0.0
C495 C 0.23305 0.57252 0.82821 0.0
H496 H 0.26713 0.66187 0.80204 0.0
C497 C 0.20145 0.70379 0.85401 0.0
C498 C 0.1939 0.72686 0.83869 0.0
C499 C 0.21245 0.67334 0.84844 0.0
C500 C 0.2568 0.63683 0.80908 0.0
H501 H 0.32119 0.49934 0.84922 0.0
H502 H 0.2831 0.54069 0.84907 0.0
H503 H 0.29444 0.61224 0.79703 0.0
H504 H 0.19316 0.7371 0.80574 0.0
H505 H 0.21271 0.68356 0.79586 0.0
H506 H 0.19612 0.59748 0.84077 0.0
C507 C 0.29126 0.53327 0.83434 0.0
C508 C 0.27244 0.60838 0.8062 0.0
C509 C 0.31336 0.50989 0.83449 0.0
C510 C 0.19853 0.71946 0.81777 0.0
C511 C 0.2097 0.68892 0.81216 0.0
C512 C 0.2174 0.60091 0.83106 0.0
C513 C 0.28138 0.54834 0.81565 0.0
C514 C 0.26136 0.5763 0.81621 0.0
C515 C 0.2166 0.66545 0.82745 0.0
C516 C 0.22979 0.63374 0.82201 0.0
H517 H 0.32441 0.50853 0.78255 0.0
H518 H 0.28552 0.54938 0.78227 0.0
H519 H 0.22354 0.54788 0.83581 0.0
H520 H 0.19958 0.70956 0.87044 0.0
H521 H 0.2186 0.65644 0.86071 0.0
C522 C 0.91995 0.33229 0.15335 0.0
C523 C 0.92916 0.36873 0.16126 0.0
C524 C 0.89021 0.30747 0.15906 0.0
C525 C 0.83103 0.29168 0.20004 0.0
H526 H 0.7635 0.22688 0.15692 0.0
C527 C 0.69467 0.20771 0.21799 0.0
C528 C 0.68139 0.17238 0.2086 0.0
C529 C 0.7249 0.231 0.21185 0.0
C530 C 0.78232 0.24439 0.16922 0.0
H531 H 0.91379 0.4075 0.1813 0.0
H532 H 0.8625 0.36407 0.19156 0.0
H533 H 0.81687 0.26826 0.14721 0.0
H534 H 0.68923 0.13349 0.18539 0.0
H535 H 0.74257 0.17388 0.17493 0.0
H536 H 0.79698 0.26772 0.22212 0.0
C537 C 0.8785 0.35471 0.18105 0.0
C538 C 0.81287 0.26816 0.16362 0.0
C539 C 0.90803 0.37958 0.1752 0.0
C540 C 0.69875 0.16072 0.19281 0.0
C541 C 0.72924 0.18395 0.18677 0.0
C542 C 0.80069 0.26776 0.20566 0.0
C543 C 0.86916 0.31843 0.17297 0.0
C544 C 0.83738 0.29227 0.17896 0.0
C545 C 0.74285 0.21935 0.19631 0.0
C546 C 0.77573 0.24402 0.1903 0.0
H547 H 0.93589 0.3228 0.14285 0.0
H548 H 0.88391 0.27959 0.15279 0.0
H549 H 0.84973 0.30955 0.21226 0.0
H550 H 0.68166 0.21737 0.23015 0.0
H551 H 0.73408 0.25825 0.21926 0.0
C552 C 0.07877 0.58469 0.07077 0.0
C553 C 0.09157 0.61168 0.08743 0.0
C554 C 0.08172 0.59318 0.04993 0.0
C555 C 0.08856 0.66784 0.01586 0.0
H556 H 0.13082 0.61212 0.97967 0.0
C557 C 0.11876 0.71166 0.9336 0.0
C558 C 0.11275 0.6843 0.91727 0.0
C559 C 0.11747 0.70299 0.95452 0.0
C560 C 0.11846 0.62768 0.98942 0.0
H561 H 0.11703 0.6688 0.09529 0.0
H562 H 0.1215 0.68355 0.05897 0.0
H563 H 0.12412 0.59551 0.01554 0.0
H564 H 0.10206 0.62634 0.91037 0.0
H565 H 0.09805 0.61121 0.94646 0.0
H566 H 0.08188 0.69944 0.98976 0.0
C567 C 0.10942 0.65587 0.06203 0.0
C568 C 0.11474 0.61816 0.00999 0.0
C569 C 0.10701 0.64732 0.08283 0.0
C570 C 0.1061 0.64814 0.92245 0.0
C571 C 0.10438 0.63946 0.94327 0.0
C572 C 0.09179 0.67706 0.99521 0.0
C573 C 0.09691 0.62891 0.0454 0.0
C574 C 0.09989 0.63825 0.02341 0.0
C575 C 0.10985 0.66671 0.9596 0.0
C576 C 0.10689 0.65719 0.98172 0.0
H577 H 0.06683 0.55698 0.07383 0.0
H578 H 0.07173 0.57195 0.03733 0.0
H579 H 0.0767 0.68355 0.02586 0.0
H580 H 0.12377 0.73977 0.93021 0.0
H581 H 0.12244 0.72478 0.96669 0.0
C582 C 0.60963 0.07131 0.43914 0.0
C583 C 0.58994 0.04022 0.4473 0.0
C584 C 0.60983 0.07291 0.41745 0.0
C585 C 0.56172 0.02711 0.36566 0.0
H586 H 0.6478 0.08144 0.34534 0.0
C587 C 0.58411 0.02091 0.27828 0.0
C588 C 0.59251 0.05459 0.26951 0.0
C589 C 0.58457 0.01899 0.3 0.0
C590 C 0.62358 0.06631 0.35085 0.0
H591 H 0.55522 0.98629 0.43925 0.0
H592 H 0.55675 0.98831 0.4014 0.0
H593 H 0.64695 0.07743 0.38313 0.0
H594 H 0.60881 0.11269 0.27706 0.0
H595 H 0.61109 0.10907 0.31513 0.0
H596 H 0.53903 0.01506 0.33314 0.0
C597 C 0.57118 0.012 0.41163 0.0
C598 C 0.62291 0.06415 0.3725 0.0
C599 C 0.57044 0.0107 0.43335 0.0
C600 C 0.60266 0.08627 0.28319 0.0
C601 C 0.60377 0.08428 0.30498 0.0
C602 C 0.56268 0.02872 0.344 0.0
C603 C 0.59091 0.04316 0.40337 0.0
C604 C 0.59187 0.04475 0.38024 0.0
C605 C 0.5942 0.05064 0.31351 0.0
C606 C 0.59353 0.04851 0.33643 0.0
H607 H 0.6246 0.09468 0.44951 0.0
H608 H 0.62459 0.09771 0.41176 0.0
H609 H 0.5371 0.01251 0.37092 0.0
H610 H 0.57706 0.9959 0.26837 0.0
H611 H 0.57756 0.99272 0.30628 0.0
C612 C 0.54 0.44041 0.75679 0.0
C613 C 0.56257 0.46534 0.77249 0.0
C614 C 0.54245 0.44521 0.73548 0.0
C615 C 0.6017 0.49539 0.69936 0.0
H616 H 0.51359 0.47303 0.66017 0.0
C617 C 0.5968 0.53282 0.61276 0.0
C618 C 0.57828 0.50444 0.59775 0.0
C619 C 0.59429 0.52939 0.63419 0.0
C620 C 0.53841 0.47925 0.67094 0.0
H621 H 0.60585 0.51458 0.77812 0.0
H622 H 0.60955 0.52336 0.74108 0.0
H623 H 0.51123 0.46349 0.69738 0.0
H624 H 0.54157 0.45093 0.59317 0.0
H625 H 0.53691 0.44506 0.63055 0.0
H626 H 0.62873 0.5116 0.67283 0.0
C627 C 0.59038 0.49972 0.74515 0.0
C628 C 0.53712 0.47359 0.69224 0.0
C629 C 0.58813 0.49475 0.76644 0.0
C630 C 0.55632 0.4731 0.60446 0.0
C631 C 0.55348 0.46985 0.62581 0.0
C632 C 0.60294 0.50136 0.67809 0.0
C633 C 0.56734 0.47521 0.72939 0.0
C634 C 0.56877 0.48135 0.70671 0.0
C635 C 0.5728 0.49773 0.64092 0.0
C636 C 0.57132 0.49313 0.66365 0.0
H637 H 0.52016 0.41734 0.76092 0.0
H638 H 0.52478 0.42539 0.72379 0.0
H639 H 0.62665 0.50119 0.70997 0.0
H640 H 0.61403 0.55718 0.60797 0.0
H641 H 0.60924 0.55141 0.64552 0.0
C642 C 0.56701 0.04703 0.58652 0.0
C643 C 0.59088 0.0327 0.5764 0.0
C644 C 0.56432 0.04237 0.6078 0.0
C645 C 0.57973 0.98361 0.64972 0.0
H646 H 0.5763 0.06442 0.68698 0.0
C647 C 0.58448 0.97694 0.74022 0.0
C648 C 0.56378 0.99564 0.75027 0.0
C649 C 0.58744 0.98019 0.71881 0.0
C650 C 0.5767 0.04141 0.67675 0.0
H651 H 0.63071 0.00226 0.58072 0.0
H652 H 0.62591 0.9941 0.6179 0.0
H653 H 0.58258 0.07315 0.65012 0.0
H654 H 0.52844 0.03077 0.74568 0.0
H655 H 0.53291 0.03586 0.70833 0.0
H656 H 0.57339 0.95172 0.67629 0.0
C657 C 0.6092 0.00881 0.6093 0.0
C658 C 0.58042 0.04649 0.65563 0.0
C659 C 0.61211 0.01372 0.58806 0.0
C660 C 0.54508 0.01655 0.73839 0.0
C661 C 0.54779 0.01959 0.71702 0.0
C662 C 0.57577 0.97845 0.67084 0.0
C663 C 0.58523 0.02303 0.61938 0.0
C664 C 0.58188 0.01764 0.64188 0.0
C665 C 0.56952 0.00201 0.70704 0.0
C666 C 0.57406 0.00727 0.68459 0.0
H667 H 0.55022 0.06173 0.57799 0.0
H668 H 0.54537 0.05335 0.6151 0.0
H669 H 0.58039 0.96078 0.63941 0.0
H670 H 0.59935 0.96083 0.74908 0.0
H671 H 0.60464 0.96652 0.71167 0.0
C672 C 0.55004 0.4629 0.91471 0.0
C673 C 0.52784 0.47296 0.8984 0.0
C674 C 0.54656 0.47003 0.93575 0.0
C675 C 0.51862 0.53241 0.96997 0.0
H676 H 0.52201 0.46148 0.01097 0.0
C677 C 0.5122 0.56335 0.05831 0.0
C678 C 0.53483 0.55013 0.07291 0.0
C679 C 0.50778 0.55253 0.03683 0.0
C680 C 0.5214 0.48173 -0.00023 0.0
H681 H 0.48419 0.49793 0.89134 0.0
H682 H 0.47845 0.5108 0.92827 0.0
H683 H 0.52028 0.44452 0.9737 0.0
H684 H 0.57008 0.51462 0.07631 0.0
H685 H 0.56353 0.49696 0.03893 0.0
H686 H 0.52101 0.57002 -0.00398 0.0
C687 C 0.49847 0.49733 0.92467 0.0
C688 C 0.52023 0.47193 0.97842 0.0
C689 C 0.50164 0.48978 0.90357 0.0
C690 C 0.55286 0.5258 0.0655 0.0
C691 C 0.54863 0.51518 0.04405 0.0
C692 C 0.52012 0.54234 0.99136 0.0
C693 C 0.52107 0.48772 0.94095 0.0
C694 C 0.51928 0.49728 0.96335 0.0
C695 C 0.52599 0.52833 0.02943 0.0
C696 C 0.52203 0.51724 0.00656 0.0
H697 H 0.57042 0.44982 0.91125 0.0
H698 H 0.56457 0.46263 0.94798 0.0
H699 H 0.51829 0.5526 0.9587 0.0
H700 H 0.49814 0.58237 0.06345 0.0
H701 H 0.48986 0.56294 0.02605 0.0
C702 C 0.08522 0.60077 0.22935 0.0
C703 C 0.0821 0.57147 0.21471 0.0
C704 C 0.08662 0.59595 0.25083 0.0
C705 C 0.06279 0.5292 0.28921 0.0
H706 H 0.13483 0.59965 0.32733 0.0
C707 C 0.08404 0.51964 0.38004 0.0
C708 C 0.09134 0.55241 0.39247 0.0
C709 C 0.08298 0.51954 0.35813 0.0
C710 C 0.11431 0.57994 0.31694 0.0
H711 H 0.07719 0.51386 0.21116 0.0
H712 H 0.07941 0.50544 0.24892 0.0
H713 H 0.13276 0.60376 0.28945 0.0
H714 H 0.10154 0.61052 0.39169 0.0
H715 H 0.09924 0.61038 0.35362 0.0
H716 H 1.04386 0.50584 0.3168 0.0
C717 C 0.08086 0.53214 0.24362 0.0
C718 C 0.11322 0.58226 0.29524 0.0
C719 C 0.07978 0.53702 0.22205 0.0
C720 C 0.09661 0.58491 0.38255 0.0
C721 C 0.09538 0.58481 0.36073 0.0
C722 C 0.06374 0.527 0.31101 0.0
C723 C 0.0847 0.56168 0.25822 0.0
C724 C 0.08713 0.55729 0.28116 0.0
C725 C 0.08905 0.55221 0.34826 0.0
C726 C 0.08917 0.55274 0.32511 0.0
H727 H 0.08703 0.62767 0.22427 0.0
H728 H 0.08907 0.61911 0.2617 0.0
H729 H 1.04229 0.5097 0.27869 0.0
H730 H 0.08005 0.49421 0.38731 0.0
H731 H 0.07824 0.49399 0.34898 0.0
loop_
_geom_bond_atom_site_label_1
_geom_bond_atom_site_label_2
_geom_bond_distance
_geom_bond_site_symmetry_2
_ccdc_geom_bond_type
Dy0 O3 2.314 . S
Dy0 O5 2.395 . S
Dy0 O6 2.379 . S
Dy0 O8 2.339 . S
Dy0 O10 2.298 . S
Dy0 O14 2.275 . S
Dy0 C22 2.738 . S
Dy1 O4 2.298 1_455 S
Dy1 O7 2.275 . S
Dy1 O9 2.307 . S
Dy1 O11 2.395 1_455 S
Dy1 O12 2.379 1_455 S
Dy1 O15 2.339 . S
Dy1 C31 2.738 1_455 S
C2 O14 1.254 . S
C2 O15 1.257 . S
O3 Dy0 2.314 . S
O3 C13 1.263 1_455 S
O4 Dy1 2.298 1_655 S
O4 C13 1.236 . S
O5 Dy0 2.395 . S
O5 C22 1.255 . S
O6 Dy0 2.379 . S
O6 C22 1.249 . S
O7 Dy1 2.275 . S
O7 C23 1.254 . S
O8 Dy0 2.339 . S
O8 C23 1.257 . S
O9 Dy1 2.307 . S
O9 C24 1.266 . S
O10 Dy0 2.298 . S
O10 C24 1.236 . S
O11 Dy1 2.395 1_655 S
O11 C31 1.255 . S
O12 Dy1 2.379 1_655 S
O12 C31 1.249 . S
C13 O3 1.263 1_655 S
C13 O4 1.236 . S
O14 Dy0 2.275 . S
O14 C2 1.254 . S
O15 Dy1 2.339 . S
O15 C2 1.257 . S
C16 C19 1.344 . S
C16 C20 1.328 . S
C16 C22 1.516 . S
C17 C18 1.304 . S
C17 C21 1.323 . S
C18 C17 1.304 . S
C18 C19 1.371 . S
C18 H32 0.930 . S
C19 C16 1.344 . S
C19 C18 1.371 . S
C19 H33 0.931 . S
C20 C16 1.328 . S
C20 C21 1.433 . S
C20 H34 0.931 . S
C21 C17 1.323 . S
C21 C20 1.433 . S
C21 H35 0.933 . S
C22 Dy0 2.738 . S
C22 O5 1.255 . S
C22 O6 1.249 . S
C22 C16 1.516 . S
C23 O7 1.254 . S
C23 O8 1.257 . S
C24 O9 1.266 . S
C24 O10 1.236 . S
C25 C28 1.344 . S
C25 C29 1.328 . S
C25 C31 1.516 . S
C26 C27 1.304 . S
C26 C30 1.323 . S
C27 C26 1.304 . S
C27 C28 1.371 . S
C27 H36 0.930 . S
C28 C25 1.344 . S
C28 C27 1.371 . S
C28 H37 0.931 . S
C29 C25 1.328 . S
C29 C30 1.433 . S
C29 H38 0.931 . S
C30 C26 1.323 . S
C30 C29 1.433 . S
C30 H39 0.933 . S
C31 Dy1 2.738 1_655 S
C31 O11 1.255 . S
C31 O12 1.249 . S
C31 C25 1.516 . S
H32 C18 0.930 . S
H33 C19 0.931 . S
H34 C20 0.931 . S
H35 C21 0.933 . S
H36 C27 0.930 . S
H37 C28 0.931 . S
H38 C29 0.931 . S
H39 C30 0.933 . S
Dy40 O43 2.307 . S
Dy40 O45 2.395 1_545 S
Dy40 O46 2.379 1_545 S
Dy40 O48 2.339 . S
Dy40 O50 2.298 1_545 S
Dy40 O54 2.275 . S
Dy40 C62 2.738 1_545 S
Dy41 O44 2.298 . S
Dy41 O47 2.275 . S
Dy41 O49 2.307 . S
Dy41 O51 2.395 . S
Dy41 O52 2.379 . S
Dy41 O55 2.339 . S
Dy41 C71 2.738 . S
C42 O54 1.254 . S
C42 O55 1.257 . S
O43 Dy40 2.307 . S
O43 C53 1.266 . S
O44 Dy41 2.298 . S
O44 C53 1.236 . S
O45 Dy40 2.395 1_565 S
O45 C62 1.255 . S
O46 Dy40 2.379 1_565 S
O46 C62 1.249 . S
O47 Dy41 2.275 . S
O47 C63 1.254 . S
O48 Dy40 2.339 . S
O48 C63 1.257 . S
O49 Dy41 2.307 . S
O49 C64 1.266 1_545 S
O50 Dy40 2.298 1_565 S
O50 C64 1.236 . S
O51 Dy41 2.395 . S
O51 C71 1.255 . S
O52 Dy41 2.379 . S
O52 C71 1.249 . S
C53 O43 1.266 . S
C53 O44 1.236 . S
O54 Dy40 2.275 . S
O54 C42 1.254 . S
O55 Dy41 2.339 . S
O55 C42 1.257 . S
C56 C59 1.344 . S
C56 C60 1.328 . S
C56 C62 1.516 . S
C57 C58 1.304 . S
C57 C61 1.323 . S
C58 C57 1.304 . S
C58 C59 1.371 . S
C58 H72 0.930 . S
C59 C56 1.344 . S
C59 C58 1.371 . S
C59 H73 0.931 . S
C60 C56 1.328 . S
C60 C61 1.433 . S
C60 H74 0.931 . S
C61 C57 1.323 . S
C61 C60 1.433 . S
C61 H75 0.933 . S
C62 Dy40 2.738 1_565 S
C62 O45 1.255 . S
C62 O46 1.249 . S
C62 C56 1.516 . S
C63 O47 1.254 . S
C63 O48 1.257 . S
C64 O49 1.266 1_565 S
C64 O50 1.236 . S
C65 C68 1.344 . S
C65 C69 1.328 . S
C65 C71 1.516 . S
C66 C67 1.304 . S
C66 C70 1.323 . S
C67 C66 1.304 . S
C67 C68 1.371 . S
C67 H76 0.930 . S
C68 C65 1.344 . S
C68 C67 1.371 . S
C68 H77 0.931 . S
C69 C65 1.328 . S
C69 C70 1.433 . S
C69 H78 0.931 . S
C70 C66 1.323 . S
C70 C69 1.433 . S
C70 H79 0.933 . S
C71 Dy41 2.738 . S
C71 O51 1.255 . S
C71 O52 1.249 . S
C71 C65 1.516 . S
H72 C58 0.930 . S
H73 C59 0.931 . S
H74 C60 0.931 . S
H75 C61 0.933 . S
H76 C67 0.930 . S
H77 C68 0.931 . S
H78 C69 0.931 . S
H79 C70 0.933 . S
Dy80 O83 2.307 . S
Dy80 O85 2.395 . S
Dy80 O86 2.379 . S
Dy80 O88 2.339 . S
Dy80 O90 2.298 . S
Dy80 O94 2.275 . S
Dy80 C102 2.738 . S
Dy81 O84 2.298 . S
Dy81 O87 2.275 . S
Dy81 O89 2.307 . S
Dy81 O91 2.395 . S
Dy81 O92 2.379 . S
Dy81 O95 2.339 . S
Dy81 C111 2.738 . S
C82 O94 1.254 . S
C82 O95 1.257 . S
O83 Dy80 2.307 . S
O83 C93 1.266 . S
O84 Dy81 2.298 . S
O84 C93 1.236 . S
O85 Dy80 2.395 . S
O85 C102 1.255 . S
O86 Dy80 2.379 . S
O86 C102 1.249 . S
O87 Dy81 2.275 . S
O87 C103 1.254 . S
O88 Dy80 2.339 . S
O88 C103 1.257 . S
O89 Dy81 2.307 . S
O89 C104 1.266 . S
O90 Dy80 2.298 . S
O90 C104 1.236 . S
O91 Dy81 2.395 . S
O91 C111 1.255 . S
O92 Dy81 2.379 . S
O92 C111 1.249 . S
C93 O83 1.266 . S
C93 O84 1.236 . S
O94 Dy80 2.275 . S
O94 C82 1.254 . S
O95 Dy81 2.339 . S
O95 C82 1.257 . S
C96 C99 1.344 . S
C96 C100 1.328 . S
C96 C102 1.516 . S
C97 C98 1.304 . S
C97 C101 1.323 . S
C98 C97 1.304 . S
C98 C99 1.371 . S
C98 H112 0.930 . S
C99 C96 1.344 . S
C99 C98 1.371 . S
C99 H113 0.931 . S
C100 C96 1.328 . S
C100 C101 1.433 . S
C100 H114 0.931 . S
C101 C97 1.323 . S
C101 C100 1.433 . S
C101 H115 0.933 . S
C102 Dy80 2.738 . S
C102 O85 1.255 . S
C102 O86 1.249 . S
C102 C96 1.516 . S
C103 O87 1.254 . S
C103 O88 1.257 . S
C104 O89 1.266 . S
C104 O90 1.236 . S
C105 C108 1.344 . S
C105 C109 1.328 . S
C105 C111 1.516 . S
C106 C107 1.304 . S
C106 C110 1.323 . S
C107 C106 1.304 . S
C107 C108 1.371 . S
C107 H116 0.930 . S
C108 C105 1.344 . S
C108 C107 1.371 . S
C108 H117 0.931 . S
C109 C105 1.328 . S
C109 C110 1.433 . S
C109 H118 0.931 . S
C110 C106 1.323 . S
C110 C109 1.433 . S
C110 H119 0.933 . S
C111 Dy81 2.738 . S
C111 O91 1.255 . S
C111 O92 1.249 . S
C111 C105 1.516 . S
H112 C98 0.930 . S
H113 C99 0.931 . S
H114 C100 0.931 . S
H115 C101 0.933 . S
H116 C107 0.930 . S
H117 C108 0.931 . S
H118 C109 0.931 . S
H119 C110 0.933 . S
H120 C125 0.930 . S
H121 C128 0.930 . S
H122 C130 0.930 . S
H123 C124 1.016 . S
C124 H123 1.016 . S
C124 N131 1.286 . S
C125 H120 0.930 . S
C125 C126 1.397 . S
C125 C127 1.361 . S
C126 C125 1.397 . S
C126 C130 1.390 . S
C127 C125 1.361 . S
C127 C128 1.393 . S
C127 N131 1.413 . S
C128 H121 0.930 . S
C128 C127 1.393 . S
C128 C129 1.399 . S
C129 C128 1.399 . S
C129 C130 1.381 . S
C130 H122 0.930 . S
C130 C126 1.390 . S
C130 C129 1.381 . S
N131 C124 1.286 . S
N131 C127 1.413 . S
H132 C137 0.930 . S
H133 C140 0.930 . S
H134 C142 0.930 . S
H135 C136 1.016 . S
C136 H135 1.016 . S
C136 N143 1.286 . S
C137 H132 0.930 . S
C137 C138 1.397 . S
C137 C139 1.361 . S
C138 C137 1.397 . S
C138 C142 1.390 . S
C139 C137 1.361 . S
C139 C140 1.393 . S
C139 N143 1.413 . S
C140 H133 0.930 . S
C140 C139 1.393 . S
C140 C141 1.399 . S
C141 C140 1.399 . S
C141 C142 1.381 . S
C142 H134 0.930 . S
C142 C138 1.390 . S
C142 C141 1.381 . S
N143 C136 1.286 . S
N143 C139 1.413 . S
H144 C149 0.930 . S
H145 C152 0.930 . S
H146 C154 0.930 . S
H147 C148 1.016 . S
C148 H147 1.016 . S
C148 N155 1.286 . S
C149 H144 0.930 . S
C149 C150 1.397 1_455 S
C149 C151 1.361 . S
C150 C149 1.397 1_655 S
C150 C154 1.390 . S
C151 C149 1.361 . S
C151 C152 1.393 . S
C151 N155 1.413 . S
C152 H145 0.930 . S
C152 C151 1.393 . S
C152 C153 1.399 . S
C153 C152 1.399 . S
C153 C154 1.381 1_455 S
C154 H146 0.930 . S
C154 C150 1.390 . S
C154 C153 1.381 1_655 S
N155 C148 1.286 . S
N155 C151 1.413 . S
H156 C161 0.930 . S
H157 C164 0.930 . S
H158 C166 0.930 . S
H159 C160 1.016 . S
C160 H159 1.016 . S
C160 N167 1.286 . S
C161 H156 0.930 . S
C161 C162 1.397 . S
C161 C163 1.361 . S
C162 C161 1.397 . S
C162 C166 1.390 . S
C163 C161 1.361 . S
C163 C164 1.393 1_455 S
C163 N167 1.413 1_455 S
C164 H157 0.930 . S
C164 C163 1.393 1_655 S
C164 C165 1.399 1_655 S
C165 C164 1.399 1_455 S
C165 C166 1.381 . S
C166 H158 0.930 . S
C166 C162 1.390 . S
C166 C165 1.381 . S
N167 C160 1.286 . S
N167 C163 1.413 1_655 S
H168 C173 0.930 . S
H169 C176 0.930 . S
H170 C178 0.930 . S
H171 C172 1.016 . S
C172 H171 1.016 . S
C172 N179 1.286 . S
C173 H168 0.930 . S
C173 C174 1.397 . S
C173 C175 1.361 1_545 S
C174 C173 1.397 . S
C174 C178 1.390 . S
C175 C173 1.361 1_565 S
C175 C176 1.393 . S
C175 N179 1.413 . S
C176 H169 0.930 . S
C176 C175 1.393 . S
C176 C177 1.399 1_565 S
C177 C176 1.399 1_545 S
C177 C178 1.381 . S
C178 H170 0.930 . S
C178 C174 1.390 . S
C178 C177 1.381 . S
N179 C172 1.286 . S
N179 C175 1.413 . S
H180 C185 0.930 . S
H181 C188 0.930 . S
H182 C190 0.930 . S
H183 C184 1.016 . S
C184 H183 1.016 . S
C184 N191 1.286 . S
C185 H180 0.930 . S
C185 C186 1.397 . S
C185 C187 1.361 . S
C186 C185 1.397 . S
C186 C190 1.390 . S
C187 C185 1.361 . S
C187 C188 1.393 . S
C187 N191 1.413 . S
C188 H181 0.930 . S
C188 C187 1.393 . S
C188 C189 1.399 . S
C189 C188 1.399 . S
C189 C190 1.381 . S
C190 H182 0.930 . S
C190 C186 1.390 . S
C190 C189 1.381 . S
N191 C184 1.286 . S
N191 C187 1.413 . S
C192 C193 1.349 . S
C192 C194 1.327 . S
C192 H217 0.950 . S
C193 C192 1.349 . S
C193 C209 1.349 . S
C194 C192 1.327 . S
C194 C213 1.429 . S
C194 H218 0.950 . S
C195 C212 1.574 . S
C195 C214 1.368 . S
C195 H219 0.949 . S
H196 C200 0.949 . S
C197 C198 1.349 . S
C197 C199 1.327 . S
C197 H220 0.950 . S
C198 C197 1.349 . S
C198 C210 1.349 . S
C199 C197 1.327 . S
C199 C215 1.429 . S
C199 H221 0.950 . S
C200 H196 0.949 . S
C200 C208 1.574 . S
C200 C216 1.368 . S
H201 C209 0.950 . S
H202 C207 0.950 . S
H203 C208 0.949 . S
H204 C210 0.950 . S
H205 C211 0.950 . S
H206 C212 0.949 . S
C207 H202 0.950 . S
C207 C209 1.327 . S
C207 C213 1.429 . S
C208 C200 1.574 . S
C208 H203 0.949 . S
C208 C214 1.368 . S
C209 C193 1.349 . S
C209 H201 0.950 . S
C209 C207 1.327 . S
C210 C198 1.349 . S
C210 H204 0.950 . S
C210 C211 1.327 . S
C211 H205 0.950 . S
C211 C210 1.327 . S
C211 C215 1.429 . S
C212 C195 1.574 . S
C212 H206 0.949 . S
C212 C216 1.368 . S
C213 C194 1.429 . S
C213 C207 1.429 . S
C213 C214 1.523 . S
C214 C195 1.368 . S
C214 C208 1.368 . S
C214 C213 1.523 . S
C215 C199 1.429 . S
C215 C211 1.429 . S
C215 C216 1.523 . S
C216 C200 1.368 . S
C216 C212 1.368 . S
C216 C215 1.523 . S
H217 C192 0.950 . S
H218 C194 0.950 . S
H219 C195 0.949 . S
H220 C197 0.950 . S
H221 C199 0.950 . S
C222 C223 1.349 . S
C222 C224 1.327 . S
C222 H247 0.950 . S
C223 C222 1.349 . S
C223 C239 1.349 . S
C224 C222 1.327 . S
C224 C243 1.429 . S
C224 H248 0.950 . S
C225 C242 1.574 . S
C225 C244 1.368 . S
C225 H249 0.949 . S
H226 C230 0.949 . S
C227 C228 1.349 . S
C227 C229 1.327 . S
C227 H250 0.950 . S
C228 C227 1.349 . S
C228 C240 1.349 . S
C229 C227 1.327 . S
C229 C245 1.429 . S
C229 H251 0.950 . S
C230 H226 0.949 . S
C230 C238 1.574 . S
C230 C246 1.368 . S
H231 C239 0.950 . S
H232 C237 0.950 . S
H233 C238 0.949 . S
H234 C240 0.950 . S
H235 C241 0.950 . S
H236 C242 0.949 . S
C237 H232 0.950 . S
C237 C239 1.327 . S
C237 C243 1.429 . S
C238 C230 1.574 . S
C238 H233 0.949 . S
C238 C244 1.368 . S
C239 C223 1.349 . S
C239 H231 0.950 . S
C239 C237 1.327 . S
C240 C228 1.349 . S
C240 H234 0.950 . S
C240 C241 1.327 . S
C241 H235 0.950 . S
C241 C240 1.327 . S
C241 C245 1.429 . S
C242 C225 1.574 . S
C242 H236 0.949 . S
C242 C246 1.368 . S
C243 C224 1.429 . S
C243 C237 1.429 . S
C243 C244 1.523 . S
C244 C225 1.368 . S
C244 C238 1.368 . S
C244 C243 1.523 . S
C245 C229 1.429 . S
C245 C241 1.429 . S
C245 C246 1.523 . S
C246 C230 1.368 . S
C246 C242 1.368 . S
C246 C245 1.523 . S
H247 C222 0.950 . S
H248 C224 0.950 . S
H249 C225 0.949 . S
H250 C227 0.950 . S
H251 C229 0.950 . S
C252 C253 1.349 . S
C252 C254 1.327 . S
C252 H277 0.950 . S
C253 C252 1.349 . S
C253 C269 1.349 . S
C254 C252 1.327 . S
C254 C273 1.429 . S
C254 H278 0.950 . S
C255 C272 1.574 . S
C255 C274 1.368 . S
C255 H279 0.949 . S
H256 C260 0.949 . S
C257 C258 1.349 . S
C257 C259 1.327 . S
C257 H280 0.950 . S
C258 C257 1.349 . S
C258 C270 1.349 . S
C259 C257 1.327 . S
C259 C275 1.429 . S
C259 H281 0.950 . S
C260 H256 0.949 . S
C260 C268 1.574 . S
C260 C276 1.368 . S
H261 C269 0.950 . S
H262 C267 0.950 . S
H263 C268 0.949 . S
H264 C270 0.950 . S
H265 C271 0.950 . S
H266 C272 0.949 . S
C267 H262 0.950 . S
C267 C269 1.327 . S
C267 C273 1.429 . S
C268 C260 1.574 . S
C268 H263 0.949 . S
C268 C274 1.368 . S
C269 C253 1.349 . S
C269 H261 0.950 . S
C269 C267 1.327 . S
C270 C258 1.349 . S
C270 H264 0.950 . S
C270 C271 1.327 . S
C271 H265 0.950 . S
C271 C270 1.327 . S
C271 C275 1.429 . S
C272 C255 1.574 . S
C272 H266 0.949 . S
C272 C276 1.368 . S
C273 C254 1.429 . S
C273 C267 1.429 . S
C273 C274 1.523 . S
C274 C255 1.368 . S
C274 C268 1.368 . S
C274 C273 1.523 . S
C275 C259 1.429 . S
C275 C271 1.429 . S
C275 C276 1.523 . S
C276 C260 1.368 . S
C276 C272 1.368 . S
C276 C275 1.523 . S
H277 C252 0.950 . S
H278 C254 0.950 . S
H279 C255 0.949 . S
H280 C257 0.950 . S
H281 C259 0.950 . S
C282 C283 1.349 . S
C282 C284 1.327 . S
C282 H307 0.950 . S
C283 C282 1.349 . S
C283 C299 1.349 . S
C284 C282 1.327 . S
C284 C303 1.429 . S
C284 H308 0.950 . S
C285 C302 1.574 . S
C285 C304 1.368 . S
C285 H309 0.949 . S
H286 C290 0.949 . S
C287 C288 1.349 . S
C287 C289 1.327 . S
C287 H310 0.950 . S
C288 C287 1.349 . S
C288 C300 1.349 . S
C289 C287 1.327 . S
C289 C305 1.429 . S
C289 H311 0.950 . S
C290 H286 0.949 . S
C290 C298 1.574 . S
C290 C306 1.368 . S
H291 C299 0.950 . S
H292 C297 0.950 . S
H293 C298 0.949 . S
H294 C300 0.950 . S
H295 C301 0.950 . S
H296 C302 0.949 . S
C297 H292 0.950 . S
C297 C299 1.327 . S
C297 C303 1.429 . S
C298 C290 1.574 . S
C298 H293 0.949 . S
C298 C304 1.368 . S
C299 C283 1.349 . S
C299 H291 0.950 . S
C299 C297 1.327 . S
C300 C288 1.349 . S
C300 H294 0.950 . S
C300 C301 1.327 . S
C301 H295 0.950 . S
C301 C300 1.327 . S
C301 C305 1.429 . S
C302 C285 1.574 . S
C302 H296 0.949 . S
C302 C306 1.368 . S
C303 C284 1.429 . S
C303 C297 1.429 . S
C303 C304 1.523 . S
C304 C285 1.368 . S
C304 C298 1.368 . S
C304 C303 1.523 . S
C305 C289 1.429 . S
C305 C301 1.429 . S
C305 C306 1.523 . S
C306 C290 1.368 . S
C306 C302 1.368 . S
C306 C305 1.523 . S
H307 C282 0.950 . S
H308 C284 0.950 . S
H309 C285 0.949 . S
H310 C287 0.950 . S
H311 C289 0.950 . S
C312 C313 1.349 . S
C312 C314 1.327 . S
C312 H337 0.950 . S
C313 C312 1.349 . S
C313 C329 1.349 . S
C314 C312 1.327 . S
C314 C333 1.429 . S
C314 H338 0.950 . S
C315 C332 1.574 . S
C315 C334 1.368 . S
C315 H339 0.949 . S
H316 C320 0.949 . S
C317 C318 1.349 . S
C317 C319 1.327 . S
C317 H340 0.950 . S
C318 C317 1.349 . S
C318 C330 1.349 . S
C319 C317 1.327 . S
C319 C335 1.429 . S
C319 H341 0.950 . S
C320 H316 0.949 . S
C320 C328 1.574 . S
C320 C336 1.368 . S
H321 C329 0.950 . S
H322 C327 0.950 . S
H323 C328 0.949 . S
H324 C330 0.950 . S
H325 C331 0.950 . S
H326 C332 0.949 . S
C327 H322 0.950 . S
C327 C329 1.327 . S
C327 C333 1.429 . S
C328 C320 1.574 . S
C328 H323 0.949 . S
C328 C334 1.368 . S
C329 C313 1.349 . S
C329 H321 0.950 . S
C329 C327 1.327 . S
C330 C318 1.349 . S
C330 H324 0.950 . S
C330 C331 1.327 . S
C331 H325 0.950 . S
C331 C330 1.327 . S
C331 C335 1.429 . S
C332 C315 1.574 . S
C332 H326 0.949 . S
C332 C336 1.368 . S
C333 C314 1.429 . S
C333 C327 1.429 . S
C333 C334 1.523 . S
C334 C315 1.368 . S
C334 C328 1.368 . S
C334 C333 1.523 . S
C335 C319 1.429 . S
C335 C331 1.429 . S
C335 C336 1.523 . S
C336 C320 1.368 . S
C336 C332 1.368 . S
C336 C335 1.523 . S
H337 C312 0.950 . S
H338 C314 0.950 . S
H339 C315 0.949 . S
H340 C317 0.950 . S
H341 C319 0.950 . S
C342 C343 1.349 . S
C342 C344 1.327 . S
C342 H367 0.950 . S
C343 C342 1.349 . S
C343 C359 1.349 . S
C344 C342 1.327 . S
C344 C363 1.429 . S
C344 H368 0.950 . S
C345 C362 1.574 . S
C345 C364 1.368 . S
C345 H369 0.949 . S
H346 C350 0.949 . S
C347 C348 1.349 . S
C347 C349 1.327 . S
C347 H370 0.950 . S
C348 C347 1.349 . S
C348 C360 1.349 . S
C349 C347 1.327 . S
C349 C365 1.429 . S
C349 H371 0.950 . S
C350 H346 0.949 . S
C350 C358 1.574 . S
C350 C366 1.368 . S
H351 C359 0.950 . S
H352 C357 0.950 . S
H353 C358 0.949 . S
H354 C360 0.950 . S
H355 C361 0.950 . S
H356 C362 0.949 . S
C357 H352 0.950 . S
C357 C359 1.327 . S
C357 C363 1.429 . S
C358 C350 1.574 . S
C358 H353 0.949 . S
C358 C364 1.368 . S
C359 C343 1.349 . S
C359 H351 0.950 . S
C359 C357 1.327 . S
C360 C348 1.349 . S
C360 H354 0.950 . S
C360 C361 1.327 . S
C361 H355 0.950 . S
C361 C360 1.327 . S
C361 C365 1.429 . S
C362 C345 1.574 . S
C362 H356 0.949 . S
C362 C366 1.368 . S
C363 C344 1.429 . S
C363 C357 1.429 . S
C363 C364 1.523 . S
C364 C345 1.368 . S
C364 C358 1.368 . S
C364 C363 1.523 . S
C365 C349 1.429 . S
C365 C361 1.429 . S
C365 C366 1.523 . S
C366 C350 1.368 . S
C366 C362 1.368 . S
C366 C365 1.523 . S
H367 C342 0.950 . S
H368 C344 0.950 . S
H369 C345 0.949 . S
H370 C347 0.950 . S
H371 C349 0.950 . S
C372 C373 1.349 . S
C372 C374 1.327 . S
C372 H397 0.950 . S
C373 C372 1.349 . S
C373 C389 1.349 . S
C374 C372 1.327 . S
C374 C393 1.429 . S
C374 H398 0.950 . S
C375 C392 1.574 . S
C375 C394 1.368 . S
C375 H399 0.949 . S
H376 C380 0.949 . S
C377 C378 1.349 . S
C377 C379 1.327 . S
C377 H400 0.950 . S
C378 C377 1.349 . S
C378 C390 1.349 . S
C379 C377 1.327 . S
C379 C395 1.429 . S
C379 H401 0.950 . S
C380 H376 0.949 . S
C380 C388 1.574 . S
C380 C396 1.368 . S
H381 C389 0.950 . S
H382 C387 0.950 . S
H383 C388 0.949 . S
H384 C390 0.950 . S
H385 C391 0.950 . S
H386 C392 0.949 . S
C387 H382 0.950 . S
C387 C389 1.327 . S
C387 C393 1.429 . S
C388 C380 1.574 . S
C388 H383 0.949 . S
C388 C394 1.368 . S
C389 C373 1.349 . S
C389 H381 0.950 . S
C389 C387 1.327 . S
C390 C378 1.349 . S
C390 H384 0.950 . S
C390 C391 1.327 . S
C391 H385 0.950 . S
C391 C390 1.327 . S
C391 C395 1.429 . S
C392 C375 1.574 . S
C392 H386 0.949 . S
C392 C396 1.368 . S
C393 C374 1.429 . S
C393 C387 1.429 . S
C393 C394 1.523 . S
C394 C375 1.368 . S
C394 C388 1.368 . S
C394 C393 1.523 . S
C395 C379 1.429 . S
C395 C391 1.429 . S
C395 C396 1.523 . S
C396 C380 1.368 . S
C396 C392 1.368 . S
C396 C395 1.523 . S
H397 C372 0.950 . S
H398 C374 0.950 . S
H399 C375 0.949 . S
H400 C377 0.950 . S
H401 C379 0.950 . S
C402 C403 1.349 . S
C402 C404 1.327 . S
C402 H427 0.950 . S
C403 C402 1.349 . S
C403 C419 1.349 . S
C404 C402 1.327 . S
C404 C423 1.429 . S
C404 H428 0.950 . S
C405 C422 1.574 . S
C405 C424 1.368 . S
C405 H429 0.949 . S
H406 C410 0.949 . S
C407 C408 1.349 . S
C407 C409 1.327 . S
C407 H430 0.950 . S
C408 C407 1.349 . S
C408 C420 1.349 . S
C409 C407 1.327 . S
C409 C425 1.429 . S
C409 H431 0.950 . S
C410 H406 0.949 . S
C410 C418 1.574 . S
C410 C426 1.368 . S
H411 C419 0.950 . S
H412 C417 0.950 . S
H413 C418 0.949 . S
H414 C420 0.950 . S
H415 C421 0.950 . S
H416 C422 0.949 . S
C417 H412 0.950 . S
C417 C419 1.327 . S
C417 C423 1.429 . S
C418 C410 1.574 . S
C418 H413 0.949 . S
C418 C424 1.368 . S
C419 C403 1.349 . S
C419 H411 0.950 . S
C419 C417 1.327 . S
C420 C408 1.349 . S
C420 H414 0.950 . S
C420 C421 1.327 . S
C421 H415 0.950 . S
C421 C420 1.327 . S
C421 C425 1.429 . S
C422 C405 1.574 . S
C422 H416 0.949 . S
C422 C426 1.368 . S
C423 C404 1.429 . S
C423 C417 1.429 . S
C423 C424 1.523 . S
C424 C405 1.368 . S
C424 C418 1.368 . S
C424 C423 1.523 . S
C425 C409 1.429 . S
C425 C421 1.429 . S
C425 C426 1.523 . S
C426 C410 1.368 . S
C426 C422 1.368 . S
C426 C425 1.523 . S
H427 C402 0.950 . S
H428 C404 0.950 . S
H429 C405 0.949 . S
H430 C407 0.950 . S
H431 C409 0.950 . S
C432 C433 1.349 . S
C432 C434 1.327 . S
C432 H457 0.950 . S
C433 C432 1.349 . S
C433 C449 1.349 . S
C434 C432 1.327 . S
C434 C453 1.429 . S
C434 H458 0.950 . S
C435 C452 1.574 . S
C435 C454 1.368 . S
C435 H459 0.949 . S
H436 C440 0.949 . S
C437 C438 1.349 . S
C437 C439 1.327 . S
C437 H460 0.950 . S
C438 C437 1.349 . S
C438 C450 1.349 1_545 S
C439 C437 1.327 . S
C439 C455 1.429 1_545 S
C439 H461 0.950 . S
C440 H436 0.949 . S
C440 C448 1.574 . S
C440 C456 1.368 . S
H441 C449 0.950 . S
H442 C447 0.950 . S
H443 C448 0.949 . S
H444 C450 0.950 . S
H445 C451 0.950 . S
H446 C452 0.949 . S
C447 H442 0.950 . S
C447 C449 1.327 . S
C447 C453 1.429 . S
C448 C440 1.574 . S
C448 H443 0.949 . S
C448 C454 1.368 . S
C449 C433 1.349 . S
C449 H441 0.950 . S
C449 C447 1.327 . S
C450 C438 1.349 1_565 S
C450 H444 0.950 . S
C450 C451 1.327 . S
C451 H445 0.950 . S
C451 C450 1.327 . S
C451 C455 1.429 . S
C452 C435 1.574 . S
C452 H446 0.949 . S
C452 C456 1.368 . S
C453 C434 1.429 . S
C453 C447 1.429 . S
C453 C454 1.523 . S
C454 C435 1.368 . S
C454 C448 1.368 . S
C454 C453 1.523 . S
C455 C439 1.429 1_565 S
C455 C451 1.429 . S
C455 C456 1.523 . S
C456 C440 1.368 . S
C456 C452 1.368 . S
C456 C455 1.523 . S
H457 C432 0.950 . S
H458 C434 0.950 . S
H459 C435 0.949 . S
H460 C437 0.950 . S
H461 C439 0.950 . S
C462 C463 1.349 . S
C462 C464 1.327 . S
C462 H487 0.950 . S
C463 C462 1.349 . S
C463 C479 1.349 . S
C464 C462 1.327 . S
C464 C483 1.429 . S
C464 H488 0.950 . S
C465 C482 1.574 . S
C465 C484 1.368 . S
C465 H489 0.949 . S
H466 C470 0.949 . S
C467 C468 1.349 . S
C467 C469 1.327 . S
C467 H490 0.950 . S
C468 C467 1.349 . S
C468 C480 1.349 . S
C469 C467 1.327 . S
C469 C485 1.429 . S
C469 H491 0.950 . S
C470 H466 0.949 . S
C470 C478 1.574 . S
C470 C486 1.368 . S
H471 C479 0.950 . S
H472 C477 0.950 . S
H473 C478 0.949 . S
H474 C480 0.950 . S
H475 C481 0.950 . S
H476 C482 0.949 . S
C477 H472 0.950 . S
C477 C479 1.327 . S
C477 C483 1.429 . S
C478 C470 1.574 . S
C478 H473 0.949 . S
C478 C484 1.368 . S
C479 C463 1.349 . S
C479 H471 0.950 . S
C479 C477 1.327 . S
C480 C468 1.349 . S
C480 H474 0.950 . S
C480 C481 1.327 . S
C481 H475 0.950 . S
C481 C480 1.327 . S
C481 C485 1.429 . S
C482 C465 1.574 . S
C482 H476 0.949 . S
C482 C486 1.368 . S
C483 C464 1.429 . S
C483 C477 1.429 . S
C483 C484 1.523 . S
C484 C465 1.368 . S
C484 C478 1.368 . S
C484 C483 1.523 . S
C485 C469 1.429 . S
C485 C481 1.429 . S
C485 C486 1.523 . S
C486 C470 1.368 . S
C486 C482 1.368 . S
C486 C485 1.523 . S
H487 C462 0.950 . S
H488 C464 0.950 . S
H489 C465 0.949 . S
H490 C467 0.950 . S
H491 C469 0.950 . S
C492 C493 1.349 . S
C492 C494 1.327 . S
C492 H517 0.950 . S
C493 C492 1.349 . S
C493 C509 1.349 . S
C494 C492 1.327 . S
C494 C513 1.429 . S
C494 H518 0.950 . S
C495 C512 1.574 . S
C495 C514 1.368 . S
C495 H519 0.949 . S
H496 C500 0.949 . S
C497 C498 1.349 . S
C497 C499 1.327 . S
C497 H520 0.950 . S
C498 C497 1.349 . S
C498 C510 1.349 . S
C499 C497 1.327 . S
C499 C515 1.429 . S
C499 H521 0.950 . S
C500 H496 0.949 . S
C500 C508 1.574 . S
C500 C516 1.368 . S
H501 C509 0.950 . S
H502 C507 0.950 . S
H503 C508 0.949 . S
H504 C510 0.950 . S
H505 C511 0.950 . S
H506 C512 0.949 . S
C507 H502 0.950 . S
C507 C509 1.327 . S
C507 C513 1.429 . S
C508 C500 1.574 . S
C508 H503 0.949 . S
C508 C514 1.368 . S
C509 C493 1.349 . S
C509 H501 0.950 . S
C509 C507 1.327 . S
C510 C498 1.349 . S
C510 H504 0.950 . S
C510 C511 1.327 . S
C511 H505 0.950 . S
C511 C510 1.327 . S
C511 C515 1.429 . S
C512 C495 1.574 . S
C512 H506 0.949 . S
C512 C516 1.368 . S
C513 C494 1.429 . S
C513 C507 1.429 . S
C513 C514 1.523 . S
C514 C495 1.368 . S
C514 C508 1.368 . S
C514 C513 1.523 . S
C515 C499 1.429 . S
C515 C511 1.429 . S
C515 C516 1.523 . S
C516 C500 1.368 . S
C516 C512 1.368 . S
C516 C515 1.523 . S
H517 C492 0.950 . S
H518 C494 0.950 . S
H519 C495 0.949 . S
H520 C497 0.950 . S
H521 C499 0.950 . S
C522 C523 1.349 . S
C522 C524 1.327 . S
C522 H547 0.950 . S
C523 C522 1.349 . S
C523 C539 1.349 . S
C524 C522 1.327 . S
C524 C543 1.429 . S
C524 H548 0.950 . S
C525 C542 1.574 . S
C525 C544 1.368 . S
C525 H549 0.949 . S
H526 C530 0.949 . S
C527 C528 1.349 . S
C527 C529 1.327 . S
C527 H550 0.950 . S
C528 C527 1.349 . S
C528 C540 1.349 . S
C529 C527 1.327 . S
C529 C545 1.429 . S
C529 H551 0.950 . S
C530 H526 0.949 . S
C530 C538 1.574 . S
C530 C546 1.368 . S
H531 C539 0.950 . S
H532 C537 0.950 . S
H533 C538 0.949 . S
H534 C540 0.950 . S
H535 C541 0.950 . S
H536 C542 0.949 . S
C537 H532 0.950 . S
C537 C539 1.327 . S
C537 C543 1.429 . S
C538 C530 1.574 . S
C538 H533 0.949 . S
C538 C544 1.368 . S
C539 C523 1.349 . S
C539 H531 0.950 . S
C539 C537 1.327 . S
C540 C528 1.349 . S
C540 H534 0.950 . S
C540 C541 1.327 . S
C541 H535 0.950 . S
C541 C540 1.327 . S
C541 C545 1.429 . S
C542 C525 1.574 . S
C542 H536 0.949 . S
C542 C546 1.368 . S
C543 C524 1.429 . S
C543 C537 1.429 . S
C543 C544 1.523 . S
C544 C525 1.368 . S
C544 C538 1.368 . S
C544 C543 1.523 . S
C545 C529 1.429 . S
C545 C541 1.429 . S
C545 C546 1.523 . S
C546 C530 1.368 . S
C546 C542 1.368 . S
C546 C545 1.523 . S
H547 C522 0.950 . S
H548 C524 0.950 . S
H549 C525 0.949 . S
H550 C527 0.950 . S
H551 C529 0.950 . S
C552 C553 1.349 . S
C552 C554 1.327 . S
C552 H577 0.950 1_455 S
C553 C552 1.349 . S
C553 C569 1.349 . S
C554 C552 1.327 . S
C554 C573 1.429 . S
C554 H578 0.950 1_455 S
C555 C572 1.574 . S
C555 C574 1.368 . S
C555 H579 0.949 . S
H556 C560 0.949 1_656 S
C557 C558 1.349 . S
C557 C559 1.327 . S
C557 H580 0.950 . S
C558 C557 1.349 . S
C558 C570 1.349 . S
C559 C557 1.327 . S
C559 C575 1.429 . S
C559 H581 0.950 . S
C560 H556 0.949 1_454 S
C560 C568 1.574 . S
C560 C576 1.368 1_554 S
H561 C569 0.950 . S
H562 C567 0.950 . S
H563 C568 0.949 1_655 S
H564 C570 0.950 1_655 S
H565 C571 0.950 1_655 S
H566 C572 0.949 . S
C567 H562 0.950 . S
C567 C569 1.327 . S
C567 C573 1.429 . S
C568 C560 1.574 . S
C568 H563 0.949 1_455 S
C568 C574 1.368 . S
C569 C553 1.349 . S
C569 H561 0.950 . S
C569 C567 1.327 . S
C570 C558 1.349 . S
C570 H564 0.950 1_455 S
C570 C571 1.327 . S
C571 H565 0.950 1_455 S
C571 C570 1.327 . S
C571 C575 1.429 . S
C572 C555 1.574 . S
C572 H566 0.949 . S
C572 C576 1.368 1_554 S
C573 C554 1.429 . S
C573 C567 1.429 . S
C573 C574 1.523 . S
C574 C555 1.368 . S
C574 C568 1.368 . S
C574 C573 1.523 . S
C575 C559 1.429 . S
C575 C571 1.429 . S
C575 C576 1.523 . S
C576 C560 1.368 1_556 S
C576 C572 1.368 1_556 S
C576 C575 1.523 . S
H577 C552 0.950 1_655 S
H578 C554 0.950 1_655 S
H579 C555 0.949 . S
H580 C557 0.950 . S
H581 C559 0.950 . S
C582 C583 1.349 . S
C582 C584 1.327 . S
C582 H607 0.950 . S
C583 C582 1.349 . S
C583 C599 1.349 . S
C584 C582 1.327 . S
C584 C603 1.429 . S
C584 H608 0.950 . S
C585 C602 1.574 . S
C585 C604 1.368 . S
C585 H609 0.949 . S
H586 C590 0.949 . S
C587 C588 1.349 . S
C587 C589 1.327 . S
C587 H610 0.950 . S
C588 C587 1.349 . S
C588 C600 1.349 . S
C589 C587 1.327 . S
C589 C605 1.429 . S
C589 H611 0.950 . S
C590 H586 0.949 . S
C590 C598 1.574 . S
C590 C606 1.368 . S
H591 C599 0.950 . S
H592 C597 0.950 . S
H593 C598 0.949 . S
H594 C600 0.950 . S
H595 C601 0.950 . S
H596 C602 0.949 . S
C597 H592 0.950 . S
C597 C599 1.327 . S
C597 C603 1.429 . S
C598 C590 1.574 . S
C598 H593 0.949 . S
C598 C604 1.368 . S
C599 C583 1.349 . S
C599 H591 0.950 . S
C599 C597 1.327 . S
C600 C588 1.349 . S
C600 H594 0.950 . S
C600 C601 1.327 . S
C601 H595 0.950 . S
C601 C600 1.327 . S
C601 C605 1.429 . S
C602 C585 1.574 . S
C602 H596 0.949 . S
C602 C606 1.368 . S
C603 C584 1.429 . S
C603 C597 1.429 . S
C603 C604 1.523 . S
C604 C585 1.368 . S
C604 C598 1.368 . S
C604 C603 1.523 . S
C605 C589 1.429 . S
C605 C601 1.429 . S
C605 C606 1.523 . S
C606 C590 1.368 . S
C606 C602 1.368 . S
C606 C605 1.523 . S
H607 C582 0.950 . S
H608 C584 0.950 . S
H609 C585 0.949 . S
H610 C587 0.950 . S
H611 C589 0.950 . S
C612 C613 1.349 . S
C612 C614 1.327 . S
C612 H637 0.950 . S
C613 C612 1.349 . S
C613 C629 1.349 . S
C614 C612 1.327 . S
C614 C633 1.429 . S
C614 H638 0.950 . S
C615 C632 1.574 . S
C615 C634 1.368 . S
C615 H639 0.949 . S
H616 C620 0.949 . S
C617 C618 1.349 . S
C617 C619 1.327 . S
C617 H640 0.950 . S
C618 C617 1.349 . S
C618 C630 1.349 . S
C619 C617 1.327 . S
C619 C635 1.429 . S
C619 H641 0.950 . S
C620 H616 0.949 . S
C620 C628 1.574 . S
C620 C636 1.368 . S
H621 C629 0.950 . S
H622 C627 0.950 . S
H623 C628 0.949 . S
H624 C630 0.950 . S
H625 C631 0.950 . S
H626 C632 0.949 . S
C627 H622 0.950 . S
C627 C629 1.327 . S
C627 C633 1.429 . S
C628 C620 1.574 . S
C628 H623 0.949 . S
C628 C634 1.368 . S
C629 C613 1.349 . S
C629 H621 0.950 . S
C629 C627 1.327 . S
C630 C618 1.349 . S
C630 H624 0.950 . S
C630 C631 1.327 . S
C631 H625 0.950 . S
C631 C630 1.327 . S
C631 C635 1.429 . S
C632 C615 1.574 . S
C632 H626 0.949 . S
C632 C636 1.368 . S
C633 C614 1.429 . S
C633 C627 1.429 . S
C633 C634 1.523 . S
C634 C615 1.368 . S
C634 C628 1.368 . S
C634 C633 1.523 . S
C635 C619 1.429 . S
C635 C631 1.429 . S
C635 C636 1.523 . S
C636 C620 1.368 . S
C636 C632 1.368 . S
C636 C635 1.523 . S
H637 C612 0.950 . S
H638 C614 0.950 . S
H639 C615 0.949 . S
H640 C617 0.950 . S
H641 C619 0.950 . S
C642 C643 1.349 . S
C642 C644 1.327 . S
C642 H667 0.950 . S
C643 C642 1.349 . S
C643 C659 1.349 . S
C644 C642 1.327 . S
C644 C663 1.429 . S
C644 H668 0.950 . S
C645 C662 1.573 1_545 S
C645 C664 1.368 . S
C645 H669 0.949 1_545 S
H646 C650 0.949 . S
C647 C648 1.349 1_565 S
C647 C649 1.327 . S
C647 H670 0.950 . S
C648 C647 1.349 1_545 S
C648 C660 1.349 . S
C649 C647 1.327 . S
C649 C665 1.429 1_565 S
C649 H671 0.950 . S
C650 H646 0.949 . S
C650 C658 1.574 . S
C650 C666 1.368 . S
H651 C659 0.950 1_565 S
H652 C657 0.950 1_565 S
H653 C658 0.949 . S
H654 C660 0.950 . S
H655 C661 0.950 . S
H656 C662 0.953 . S
C657 H652 0.950 1_545 S
C657 C659 1.327 . S
C657 C663 1.429 . S
C658 C650 1.574 . S
C658 H653 0.949 . S
C658 C664 1.368 . S
C659 C643 1.349 . S
C659 H651 0.950 1_545 S
C659 C657 1.327 . S
C660 C648 1.349 . S
C660 H654 0.950 . S
C660 C661 1.327 . S
C661 H655 0.950 . S
C661 C660 1.327 . S
C661 C665 1.429 . S
C662 C645 1.573 1_565 S
C662 H656 0.953 . S
C662 C666 1.364 1_565 S
C663 C644 1.429 . S
C663 C657 1.429 . S
C663 C664 1.523 . S
C664 C645 1.368 . S
C664 C658 1.368 . S
C664 C663 1.523 . S
C665 C649 1.429 1_545 S
C665 C661 1.429 . S
C665 C666 1.523 . S
C666 C650 1.368 . S
C666 C662 1.364 1_545 S
C666 C665 1.523 . S
H667 C642 0.950 . S
H668 C644 0.950 . S
H669 C645 0.949 1_565 S
H670 C647 0.950 . S
H671 C649 0.950 . S
C672 C673 1.349 . S
C672 C674 1.327 . S
C672 H697 0.950 . S
C673 C672 1.349 . S
C673 C689 1.349 . S
C674 C672 1.327 . S
C674 C693 1.429 . S
C674 H698 0.950 . S
C675 C692 1.574 . S
C675 C694 1.368 . S
C675 H699 0.949 . S
H676 C680 0.949 1_554 S
C677 C678 1.349 . S
C677 C679 1.327 . S
C677 H700 0.950 . S
C678 C677 1.349 . S
C678 C690 1.349 . S
C679 C677 1.327 . S
C679 C695 1.429 . S
C679 H701 0.950 . S
C680 H676 0.949 1_556 S
C680 C688 1.574 . S
C680 C696 1.368 1_556 S
H681 C689 0.950 . S
H682 C687 0.950 . S
H683 C688 0.949 . S
H684 C690 0.950 . S
H685 C691 0.950 . S
H686 C692 0.970 . S
C687 H682 0.950 . S
C687 C689 1.327 . S
C687 C693 1.429 . S
C688 C680 1.574 . S
C688 H683 0.949 . S
C688 C694 1.368 . S
C689 C673 1.349 . S
C689 H681 0.950 . S
C689 C687 1.327 . S
C690 C678 1.349 . S
C690 H684 0.950 . S
C690 C691 1.327 . S
C691 H685 0.950 . S
C691 C690 1.327 . S
C691 C695 1.429 . S
C692 C675 1.574 . S
C692 H686 0.970 . S
C692 C696 1.368 1_556 S
C693 C674 1.429 . S
C693 C687 1.429 . S
C693 C694 1.523 . S
C694 C675 1.368 . S
C694 C688 1.368 . S
C694 C693 1.523 . S
C695 C679 1.429 . S
C695 C691 1.429 . S
C695 C696 1.523 . S
C696 C680 1.368 1_554 S
C696 C692 1.368 1_554 S
C696 C695 1.523 . S
H697 C672 0.950 . S
H698 C674 0.950 . S
H699 C675 0.949 . S
H700 C677 0.950 . S
H701 C679 0.950 . S
C702 C703 1.349 . S
C702 C704 1.327 . S
C702 H727 0.950 . S
C703 C702 1.349 . S
C703 C719 1.349 . S
C704 C702 1.327 . S
C704 C723 1.429 . S
C704 H728 0.950 . S
C705 C722 1.574 . S
C705 C724 1.368 . S
C705 H729 0.949 . S
H706 C710 0.949 . S
C707 C708 1.349 . S
C707 C709 1.327 . S
C707 H730 0.950 . S
C708 C707 1.349 . S
C708 C720 1.349 . S
C709 C707 1.327 . S
C709 C725 1.429 . S
C709 H731 0.950 . S
C710 H706 0.949 . S
C710 C718 1.574 . S
C710 C726 1.368 . S
H711 C719 0.950 . S
H712 C717 0.950 . S
H713 C718 0.949 . S
H714 C720 0.950 . S
H715 C721 0.950 . S
H716 C722 0.949 . S
C717 H712 0.950 . S
C717 C719 1.327 . S
C717 C723 1.429 . S
C718 C710 1.574 . S
C718 H713 0.949 . S
C718 C724 1.368 . S
C719 C703 1.349 . S
C719 H711 0.950 . S
C719 C717 1.327 . S
C720 C708 1.349 . S
C720 H714 0.950 . S
C720 C721 1.327 . S
C721 H715 0.950 . S
C721 C720 1.327 . S
C721 C725 1.429 . S
C722 C705 1.574 . S
C722 H716 0.949 . S
C722 C726 1.368 . S
C723 C704 1.429 . S
C723 C717 1.429 . S
C723 C724 1.523 . S
C724 C705 1.368 . S
C724 C718 1.368 . S
C724 C723 1.523 . S
C725 C709 1.429 . S
C725 C721 1.429 . S
C725 C726 1.523 . S
C726 C710 1.368 . S
C726 C722 1.368 . S
C726 C725 1.523 . S
H727 C702 0.950 . S
H728 C704 0.950 . S
H729 C705 0.949 . S
H730 C707 0.950 . S
H731 C709 0.950 . S
C193 C24 3.234 . S
C198 C186 3.213 . S
C223 C66 1.136 . S
C228 C160 1.134 . S
C253 C93 1.788 . S
C258 C172 1.741 . S
C283 C13 2.738 . S
C288 C184 2.630 . S
C318 C162 1.032 . S
C313 C57 1.041 . S
C348 C174 1.783 . S
C343 C104 1.817 . S
C373 C64 1.983 . S
C378 C136 1.906 . S
C403 C97 0.617 . S
C408 C150 0.618 . S
C433 C17 1.092 . S
C438 C126 1.091 . S
C468 C138 1.623 . S
C463 C53 1.644 . S
C498 C148 0.412 . S
C493 C106 0.344 . S
C523 C26 1.151 . S
C528 C124 1.147 . S
C558 C153 1.251 . S
C553 C2 1.219 . S
C583 C63 1.490 . S
C588 C129 1.503 . S
C613 C82 1.468 . S
C618 C141 1.497 . S
C648 C177 1.466 . S
C643 C42 1.440 . S
C678 C189 1.796 . S
C673 C103 1.752 . S
C703 C23 1.523 . S
C708 C165 1.531 . S
