# Generated by pormake.
# Topology hwx, (6,3)-cn, num edge types: 1
# Building blocks:
#     Node 0, Type 0, BuildingBlock: IZENUY_clean_sbu_0, # of connection points: 6
#     Node 1, Type 0, BuildingBlock: IZENUY_clean_sbu_0, # of connection points: 6
#     Node 2, Type 0, BuildingBlock: IZENUY_clean_sbu_0, # of connection points: 6
#     Node 3, Type 0, BuildingBlock: IZENUY_clean_sbu_0, # of connection points: 6
#     Node 4, Type 1, BuildingBlock: BETDIP_clean_linker_0, # of connection points: 3
#     Node 5, Type 1, BuildingBlock: BETDIP_clean_linker_0, # of connection points: 3
#     Node 6, Type 1, BuildingBlock: BETDIP_clean_linker_0, # of connection points: 3
#     Node 7, Type 1, BuildingBlock: BETDIP_clean_linker_0, # of connection points: 3
#     Node 8, Type 1, BuildingBlock: BETDIP_clean_linker_0, # of connection points: 3
#     Node 9, Type 1, BuildingBlock: BETDIP_clean_linker_0, # of connection points: 3
#     Node 10, Type 1, BuildingBlock: BETDIP_clean_linker_0, # of connection points: 3
#     Node 11, Type 1, BuildingBlock: BETDIP_clean_linker_0, # of connection points: 3
#     Edge 12, Type (0, 1), BuildingBlock: CIFDUS_clean_linker_0, # of connection points: 2
#     Edge 13, Type (0, 1), BuildingBlock: CIFDUS_clean_linker_0, # of connection points: 2
#     Edge 14, Type (0, 1), BuildingBlock: CIFDUS_clean_linker_0, # of connection points: 2
#     Edge 15, Type (0, 1), BuildingBlock: CIFDUS_clean_linker_0, # of connection points: 2
#     Edge 16, Type (0, 1), BuildingBlock: CIFDUS_clean_linker_0, # of connection points: 2
#     Edge 17, Type (0, 1), BuildingBlock: CIFDUS_clean_linker_0, # of connection points: 2
#     Edge 18, Type (0, 1), BuildingBlock: CIFDUS_clean_linker_0, # of connection points: 2
#     Edge 19, Type (0, 1), BuildingBlock: CIFDUS_clean_linker_0, # of connection points: 2
#     Edge 20, Type (0, 1), BuildingBlock: CIFDUS_clean_linker_0, # of connection points: 2
#     Edge 21, Type (0, 1), BuildingBlock: CIFDUS_clean_linker_0, # of connection points: 2
#     Edge 22, Type (0, 1), BuildingBlock: CIFDUS_clean_linker_0, # of connection points: 2
#     Edge 23, Type (0, 1), BuildingBlock: CIFDUS_clean_linker_0, # of connection points: 2
#     Edge 24, Type (0, 1), BuildingBlock: CIFDUS_clean_linker_0, # of connection points: 2
#     Edge 25, Type (0, 1), BuildingBlock: CIFDUS_clean_linker_0, # of connection points: 2
#     Edge 26, Type (0, 1), BuildingBlock: CIFDUS_clean_linker_0, # of connection points: 2
#     Edge 27, Type (0, 1), BuildingBlock: CIFDUS_clean_linker_0, # of connection points: 2
#     Edge 28, Type (0, 1), BuildingBlock: CIFDUS_clean_linker_0, # of connection points: 2
#     Edge 29, Type (0, 1), BuildingBlock: CIFDUS_clean_linker_0, # of connection points: 2
#     Edge 30, Type (0, 1), BuildingBlock: CIFDUS_clean_linker_0, # of connection points: 2
#     Edge 31, Type (0, 1), BuildingBlock: CIFDUS_clean_linker_0, # of connection points: 2
#     Edge 32, Type (0, 1), BuildingBlock: CIFDUS_clean_linker_0, # of connection points: 2
#     Edge 33, Type (0, 1), BuildingBlock: CIFDUS_clean_linker_0, # of connection points: 2
#     Edge 34, Type (0, 1), BuildingBlock: CIFDUS_clean_linker_0, # of connection points: 2
#     Edge 35, Type (0, 1), BuildingBlock: CIFDUS_clean_linker_0, # of connection points: 2
# Relax obj value: 0.003
# Max RMSD: 0.059
# Mean RMSD: 0.047
data_MOF--net-hwx--node1-IZENUY_clean_sbu_0--node2-BETDIP_clean_linker_0--edge1-CIFDUS_clean_linker_0
_symmetry_space_group_name_H-M    P1
_symmetry_Int_Tables_number       1
_symmetry_cell_setting            triclinic
loop_
_symmetry_equiv_pos_as_xyz
'x, y, z'
_cell_length_a     44.925783
_cell_length_b     44.825235
_cell_length_c     18.333679
_cell_angle_alpha  92.457494
_cell_angle_beta   91.877122
_cell_angle_gamma 89.693529
loop_
_atom_site_label
_atom_site_type_symbol
_atom_site_fract_x
_atom_site_fract_y
_atom_site_fract_z
_atom_type_partial_charge
Fe0 Fe 0.24398 0.2566 0.09784 0.0
Fe1 Fe 0.24982 0.25625 0.9322 0.0
O2 O 0.23394 0.24149 0.01008 0.0
Fe3 Fe 0.20804 0.21176 0.00095 0.0
O4 O 0.17938 0.23362 0.04542 0.0
O5 O 0.20798 0.24927 0.13821 0.0
O6 O 0.22924 0.29256 0.07559 0.0
C7 C 0.23787 0.30766 0.02399 0.0
C8 C 0.24477 0.1973 0.12325 0.0
O9 O 0.25188 0.2952 0.97154 0.0
C10 C 0.24731 0.19328 0.89808 0.0
O11 O 0.28186 0.26703 0.07461 0.0
O12 O 0.28733 0.24746 0.96427 0.0
O13 O 0.22034 0.19461 0.08673 0.0
O14 O 0.25923 0.22132 0.12434 0.0
C15 C 0.19203 0.24861 0.88369 0.0
O16 O 0.25013 0.22005 0.87893 0.0
O17 O 0.23456 0.18772 0.95597 0.0
C18 C 0.29849 0.25723 0.02449 0.0
O19 O 0.21365 0.26611 0.89521 0.0
O20 O 0.19141 0.22363 0.91358 0.0
C21 C 0.18235 0.24548 0.10861 0.0
Fe22 Fe 0.27906 0.74881 0.59014 0.0
Fe23 Fe 0.32324 0.70933 0.50514 0.0
O24 O 0.29506 0.73731 0.50639 0.0
Fe25 Fe 0.28308 0.75353 0.424 0.0
O26 O 0.27618 0.7911 0.46618 0.0
O27 O 0.29036 0.78691 0.58117 0.0
O28 O 0.314 0.74427 0.64476 0.0
C29 C 0.34094 0.74308 0.62559 0.0
C30 C 0.2294 0.7477 0.48907 0.0
O31 O 0.34771 0.73219 0.56382 0.0
C32 C 0.28924 0.69159 0.38554 0.0
O33 O 0.26667 0.71125 0.60529 0.0
O34 O 0.30941 0.68961 0.58267 0.0
O35 O 0.24515 0.74204 0.43465 0.0
O36 O 0.24136 0.75585 0.55036 0.0
C37 C 0.34285 0.74937 0.4021 0.0
O38 O 0.30051 0.68476 0.44642 0.0
O39 O 0.28746 0.71866 0.36763 0.0
C40 C 0.28365 0.68886 0.60829 0.0
O41 O 0.34253 0.72357 0.42732 0.0
O42 O 0.32039 0.7662 0.4069 0.0
C43 C 0.2846 0.80284 0.52765 0.0
Fe44 Fe 0.77859 0.78195 0.9096 0.0
Fe45 Fe 0.7723 0.77883 0.07502 0.0
O46 O 0.78969 0.79402 -0.00049 0.0
Fe47 Fe 0.81807 0.82136 0.01328 0.0
O48 O 0.80797 0.84142 0.93042 0.0
O49 O 0.76704 0.81938 0.8879 0.0
O50 O 0.73967 0.7748 0.93043 0.0
C51 C 0.72382 0.78464 0.98197 0.0
C52 C 0.84119 0.78774 0.90128 0.0
O53 O 0.73554 0.79121 0.04399 0.0
C54 C 0.83056 0.78105 0.12576 0.0
O55 O 0.78941 0.74391 0.92625 0.0
O56 O 0.76717 0.7413 0.0309 0.0
O57 O 0.84503 0.79816 0.96577 0.0
O58 O 0.81542 0.78665 0.87126 0.0
C59 C 0.77882 0.84043 0.11644 0.0
O60 O 0.80765 0.76538 0.11177 0.0
O61 O 0.83319 0.80639 0.09869 0.0
C62 C 0.77963 0.72869 0.97647 0.0
O63 O 0.77443 0.81356 0.13225 0.0
O64 O 0.79337 0.84659 0.06154 0.0
C65 C 0.78368 0.84198 0.89331 0.0
Fe66 Fe 0.70887 0.31424 0.49123 0.0
Fe67 Fe 0.75059 0.27418 0.58056 0.0
O68 O 0.736 0.28552 0.4954 0.0
Fe69 Fe 0.74849 0.26777 0.41407 0.0
O70 O 0.74305 0.30047 0.35832 0.0
O71 O 0.73226 0.33703 0.43651 0.0
O72 O 0.72376 0.33552 0.57309 0.0
C73 C 0.74874 0.33444 0.60755 0.0
C74 C 0.68899 0.27111 0.38252 0.0
O75 O 0.76462 0.31118 0.60368 0.0
C76 C 0.74476 0.21991 0.50872 0.0
O77 O 0.68341 0.29351 0.54425 0.0
O78 O 0.71617 0.2817 0.62997 0.0
O79 O 0.71145 0.25439 0.39011 0.0
O80 O 0.68912 0.29768 0.40964 0.0
C81 C 0.80096 0.27359 0.4909 0.0
O82 O 0.73734 0.23621 0.56296 0.0
O83 O 0.75585 0.23145 0.45397 0.0
C84 C 0.68947 0.28405 0.6066 0.0
O85 O 0.78776 0.26493 0.54636 0.0
O86 O 0.7863 0.28022 0.43393 0.0
C87 C 0.74105 0.3281 0.37465 0.0
H88 H 0.23953 0.54064 0.86326 0.0
H89 H 0.2416 0.54282 0.09864 0.0
H90 H 0.23109 0.6241 0.98424 0.0
H91 H 0.22562 0.49462 0.07882 0.0
C92 C 0.23642 0.48629 0.02984 0.0
C93 C 0.23798 0.55305 0.91509 0.0
C94 C 0.2341 0.58408 0.91639 0.0
C95 C 0.23974 0.53778 0.98017 0.0
C96 C 0.23888 0.55409 0.04782 0.0
C97 C 0.23534 0.58538 0.04963 0.0
C98 C 0.23254 0.59993 0.98354 0.0
N99 N 0.24351 0.50624 0.97493 0.0
H100 H 0.99158 0.75472 0.63615 0.0
H101 H 0.99738 0.76553 0.4043 0.0
H102 H 0.91205 0.75876 0.50018 0.0
H103 H 0.04312 0.74611 0.42242 0.0
C104 C 0.05089 0.7536 0.4768 0.0
C105 C 0.98083 0.75665 0.58275 0.0
C106 C 0.94964 0.7557 0.57527 0.0
C107 C 0.99842 0.75941 0.52144 0.0
C108 C 0.98436 0.76235 0.45191 0.0
C109 C 0.9531 0.76152 0.44387 0.0
C110 C 0.93615 0.7582 0.50578 0.0
N111 N 0.03001 0.75967 0.53229 0.0
H112 H 0.75578 0.49391 0.13347 0.0
H113 H 0.75392 0.49793 0.89941 0.0
H114 H 0.75797 0.413 -0.00244 0.0
H115 H 0.77795 0.5415 0.92554 0.0
C116 C 0.76765 0.55072 0.97436 0.0
C117 C 0.75631 0.4825 0.08025 0.0
C118 C 0.75652 0.45107 0.07407 0.0
C119 C 0.75656 0.49962 0.01794 0.0
C120 C 0.75536 0.48514 0.94814 0.0
C121 C 0.75577 0.45387 0.94088 0.0
C122 C 0.75712 0.43712 0.00382 0.0
N123 N 0.75736 0.5313 0.0274 0.0
H124 H 0.02913 0.26752 0.37341 0.0
H125 H 0.02748 0.25162 0.60368 0.0
H126 H 0.11051 0.26663 0.50373 0.0
H127 H 0.98606 0.22631 0.56882 0.0
C128 C 0.97546 0.24097 0.52999 0.0
C129 C 0.04072 0.26515 0.42562 0.0
C130 C 0.07181 0.26852 0.43147 0.0
C131 C 0.02449 0.25854 0.48708 0.0
C132 C 0.0396 0.25566 0.55507 0.0
C133 C 0.07056 0.25889 0.56127 0.0
C134 C 0.08641 0.26523 0.49939 0.0
N135 N 0.993 0.25581 0.47966 0.0
H136 H 0.73708 0.99418 0.63307 0.0
H137 H 0.73274 0.98717 0.3975 0.0
H138 H 0.72867 0.90836 0.52148 0.0
H139 H 0.75853 0.02956 0.40919 0.0
C140 C 0.74934 0.04185 0.45561 0.0
C141 C 0.73482 0.98078 0.58257 0.0
C142 C 0.73175 0.94971 0.58467 0.0
C143 C 0.73553 0.99461 0.51537 0.0
C144 C 0.73294 0.97693 0.44984 0.0
C145 C 0.73033 0.94573 0.45152 0.0
C146 C 0.72949 0.93249 0.51926 0.0
N147 N 0.7389 0.02619 0.51555 0.0
H148 H 0.53757 0.27797 0.86486 0.0
H149 H 0.52436 0.26282 0.09246 0.0
H150 H 0.61262 0.27016 0.01525 0.0
H151 H 0.482 0.28811 0.06725 0.0
C152 C 0.47466 0.27753 0.01538 0.0
C153 C 0.54664 0.27427 0.91923 0.0
C154 C 0.57764 0.27496 0.93309 0.0
C155 C 0.52711 0.2703 0.97642 0.0
C156 C 0.53886 0.26629 0.04764 0.0
C157 C 0.56965 0.26623 0.06135 0.0
C158 C 0.58877 0.27009 0.00394 0.0
N159 N 0.49584 0.27046 0.96126 0.0
H160 H 0.25734 0.03384 0.38068 0.0
H161 H 0.27706 0.03965 0.61267 0.0
H162 H 0.27088 0.11928 0.49018 0.0
H163 H 0.28673 0.99021 0.5978 0.0
C164 C 0.2761 0.98152 0.54735 0.0
C165 C 0.26238 0.04712 0.43033 0.0
C166 C 0.26426 0.07816 0.4278 0.0
C167 C 0.26758 0.03285 0.49601 0.0
C168 C 0.27384 0.05019 0.56104 0.0
C169 C 0.27549 0.08161 0.5591 0.0
C170 C 0.27076 0.09513 0.49207 0.0
N171 N 0.26577 1.00115 0.4932 0.0
H172 H 0.49089 0.79884 0.1456 0.0
H173 H 0.48856 0.7959 0.90964 0.0
H174 H 0.40729 0.80081 0.0263 0.0
H175 H 0.53708 0.78974 0.91924 0.0
C176 C 0.54548 0.79317 0.97506 0.0
C177 C 0.47847 0.79908 0.09392 0.0
C178 C 0.44732 0.80073 0.09327 0.0
C179 C 0.49384 0.79763 0.02838 0.0
C180 C 0.47744 0.79725 0.96103 0.0
C181 C 0.44607 0.79886 0.96008 0.0
C182 C 0.43145 0.8008 0.02647 0.0
N183 N 0.52556 0.79662 0.03363 0.0
H184 H 0.1764 0.28591 0.22069 0.0
H185 H 0.12888 0.21662 0.09567 0.0
H186 H 0.08785 0.22047 0.18009 0.0
H187 H 0.06869 0.23916 0.29828 0.0
H188 H 0.11624 0.30896 0.42152 0.0
H189 H 0.15379 0.30963 0.32846 0.0
C190 C 0.15688 0.27191 0.21155 0.0
C191 C 0.15585 0.25068 0.15302 0.0
C192 C 0.13343 0.27428 0.2601 0.0
C193 C 0.13024 0.23306 0.14072 0.0
C194 C 0.10682 0.23518 0.18908 0.0
C195 C 0.0868 0.25509 0.30359 0.0
C196 C 0.09 0.27362 0.36716 0.0
C197 C 0.10856 0.25512 0.25016 0.0
C198 C 0.11363 0.29412 0.37353 0.0
C199 C 0.13514 0.29447 0.3205 0.0
H200 H 0.2332 0.68242 0.68439 0.0
H201 H 0.31542 0.6377 0.62973 0.0
H202 H 0.30489 0.59851 0.71321 0.0
H203 H 0.2755 0.58036 0.8127 0.0
H204 H 0.19461 0.62625 0.87134 0.0
H205 H 0.20121 0.66133 0.77462 0.0
C206 C 0.24867 0.66394 0.69002 0.0
C207 C 0.27532 0.66334 0.65184 0.0
C208 C 0.24274 0.6417 0.73902 0.0
C209 C 0.29492 0.63899 0.65922 0.0
C210 C 0.28893 0.61652 0.70695 0.0
C211 C 0.25893 0.59755 0.80279 0.0
C212 C 0.2347 0.6009 0.84889 0.0
C213 C 0.26335 0.6181 0.74865 0.0
C214 C 0.21352 0.62345 0.83645 0.0
C215 C 0.21736 0.64354 0.78151 0.0
H216 H 0.88375 0.80738 0.1658 0.0
H217 H 0.82856 0.73188 0.20867 0.0
H218 H 0.8636 0.71738 0.3052 0.0
H219 H 0.90765 0.72825 0.38403 0.0
H220 H 0.96245 0.80415 0.34442 0.0
H221 H 0.9303 0.81589 0.23881 0.0
C222 C 0.87945 0.78764 0.19591 0.0
C223 C 0.85323 0.77103 0.18045 0.0
C224 C 0.89971 0.77941 0.25178 0.0
C225 C 0.84833 0.74528 0.21956 0.0
C226 C 0.86839 0.73693 0.27488 0.0
C227 C 0.91273 0.74719 0.35174 0.0
C228 C 0.93723 0.76547 0.37239 0.0
C229 C 0.89381 0.75414 0.29237 0.0
C230 C 0.94383 0.78964 0.32945 0.0
C231 C 0.92526 0.79653 0.26955 0.0
H232 H 0.71829 0.38585 0.64422 0.0
H233 H 0.79814 0.33622 0.69822 0.0
H234 H 0.80848 0.37019 0.80278 0.0
H235 H 0.7925 0.411 0.88622 0.0
H236 H 0.71338 0.46137 0.83319 0.0
H237 H 0.70533 0.43046 0.72078 0.0
C238 C 0.73819 0.38272 0.67817 0.0
C239 C 0.75709 0.35813 0.66365 0.0
C240 C 0.74407 0.40239 0.73886 0.0
C241 C 0.78294 0.35468 0.70813 0.0
C242 C 0.78891 0.37409 0.76828 0.0
C243 C 0.77372 0.41538 0.84944 0.0
C244 C 0.75342 0.43818 0.86801 0.0
C245 C 0.76924 0.39751 0.78528 0.0
C246 C 0.72934 0.44395 0.81975 0.0
C247 C 0.72465 0.42617 0.75579 0.0
H248 H 0.63532 0.29813 0.35878 0.0
H249 H 0.68848 0.22233 0.28812 0.0
H250 H 0.65293 0.21116 0.18779 0.0
H251 H 0.61097 0.2273 0.10992 0.0
H252 H 0.55805 0.30324 0.17832 0.0
H253 H 0.58881 0.30959 0.29067 0.0
C254 C 0.63889 0.27891 0.32206 0.0
C255 C 0.66488 0.26155 0.32999 0.0
C256 C 0.61842 0.27266 0.264 0.0
C257 C 0.66888 0.23635 0.28284 0.0
C258 C 0.64858 0.22993 0.22525 0.0
C259 C 0.60578 0.24471 0.15056 0.0
C260 C 0.58261 0.26493 0.13615 0.0
C261 C 0.62389 0.24856 0.21385 0.0
C262 C 0.57579 0.28736 0.18881 0.0
C263 C 0.59355 0.29118 0.25251 0.0
H264 H 0.28539 0.19134 0.78403 0.0
H265 H 0.22432 0.13726 0.89782 0.0
H266 H 0.23047 0.09634 0.80817 0.0
H267 H 0.24881 0.07767 0.68987 0.0
H268 H 0.31145 0.1305 0.57804 0.0
H269 H 0.30941 0.16961 0.67455 0.0
C270 C 0.27369 0.17049 0.78952 0.0
C271 C 0.25413 0.16768 0.8471 0.0
C272 C 0.27752 0.14668 0.73788 0.0
C273 C 0.23947 0.14026 0.85399 0.0
C274 C 0.2429 0.11673 0.80257 0.0
C275 C 0.26268 0.09732 0.68768 0.0
C276 C 0.2798 0.10134 0.62611 0.0
C277 C 0.26134 0.11988 0.74334 0.0
C278 C 0.29759 0.12708 0.6242 0.0
C279 C 0.2964 0.14954 0.67929 0.0
H280 H 0.34851 0.79989 0.32604 0.0
H281 H 0.39429 0.71819 0.37843 0.0
H282 H 0.43337 0.72932 0.29469 0.0
H283 H 0.4515 0.75925 0.19601 0.0
H284 H 0.4045 0.8395 0.13958 0.0
H285 H 0.36928 0.83225 0.23617 0.0
C286 C 0.36719 0.78466 0.31984 0.0
C287 C 0.36814 0.75801 0.35765 0.0
C288 C 0.38943 0.79095 0.27073 0.0
C289 C 0.39273 0.7387 0.34936 0.0
C290 C 0.41516 0.74504 0.30148 0.0
C291 C 0.43403 0.77554 0.20645 0.0
C292 C 0.43049 0.79984 0.16111 0.0
C293 C 0.41334 0.77069 0.26046 0.0
C294 C 0.40754 0.82062 0.17407 0.0
C295 C 0.38733 0.81638 0.22889 0.0
H296 H 0.73155 0.85338 0.82048 0.0
H297 H 0.81961 0.88908 0.86568 0.0
H298 H 0.80938 0.92899 0.78169 0.0
H299 H 0.77748 0.95014 0.68446 0.0
H300 H 0.69047 0.91292 0.63632 0.0
H301 H 0.69792 0.87759 0.73335 0.0
C302 C 0.74845 0.87001 0.81245 0.0
C303 C 0.77649 0.86789 0.84833 0.0
C304 C 0.74253 0.89272 0.76365 0.0
C305 C 0.79793 0.88997 0.83823 0.0
C306 C 0.79211 0.91283 0.79016 0.0
C307 C 0.75989 0.93487 0.69699 0.0
C308 C 0.73346 0.93405 0.65391 0.0
C309 C 0.76476 0.91399 0.7512 0.0
C310 C 0.71092 0.9139 0.66934 0.0
C311 C 0.71529 0.89359 0.72427 0.0
H312 H 0.8437 0.74756 0.78799 0.0
H313 H 0.8968 0.8125 0.91331 0.0
H314 H 0.93706 0.80594 0.82703 0.0
H315 H 0.95449 0.78588 0.70795 0.0
H316 H 0.90131 0.71999 0.58552 0.0
H317 H 0.86391 0.72259 0.67894 0.0
C318 C 0.86425 0.76002 0.79679 0.0
C319 C 0.86715 0.7808 0.85606 0.0
C320 C 0.8872 0.75609 0.74723 0.0
C321 C 0.89404 0.79642 0.86781 0.0
C322 C 0.917 0.79277 0.81833 0.0
C323 C 0.93508 0.77157 0.7027 0.0
C324 C 0.93039 0.75323 0.63915 0.0
C325 C 0.9135 0.77323 0.75672 0.0
C326 C 0.9051 0.7348 0.63315 0.0
C327 C 0.88371 0.73624 0.68654 0.0
H328 H 0.76551 0.38411 0.37365 0.0
H329 H 0.71607 0.31855 0.24067 0.0
H330 H 0.71491 0.35144 0.13838 0.0
H331 H 0.72794 0.39818 0.08616 0.0
H332 H 0.78218 0.46235 0.21169 0.0
H333 H 0.78067 0.43119 0.31772 0.0
C334 C 0.75454 0.3772 0.32217 0.0
C335 C 0.74105 0.34894 0.31445 0.0
C336 C 0.75462 0.39601 0.26237 0.0
C337 C 0.72693 0.34007 0.24755 0.0
C338 C 0.72613 0.3589 0.18911 0.0
C339 C 0.74002 0.40527 0.13599 0.0
C340 C 0.7554 0.4326 0.14001 0.0
C341 C 0.74009 0.38677 0.19568 0.0
C342 C 0.76986 0.44164 0.20664 0.0
C343 C 0.76923 0.42367 0.26735 0.0
H344 H 0.14287 0.21631 0.8381 0.0
H345 H 0.18902 0.29877 0.80502 0.0
H346 H 0.1537 0.31034 0.70702 0.0
H347 H 0.11214 0.29557 0.62453 0.0
H348 H 0.06594 0.21319 0.6543 0.0
H349 H 0.0984 0.20339 0.76077 0.0
C350 C 0.14507 0.2369 0.80979 0.0
C351 C 0.16888 0.25636 0.82832 0.0
C352 C 0.12465 0.24349 0.75296 0.0
C353 C 0.17116 0.28314 0.79156 0.0
C354 C 0.15094 0.28986 0.73542 0.0
C355 C 0.10908 0.27559 0.65478 0.0
C356 C 0.08701 0.25497 0.63146 0.0
C357 C 0.12801 0.26995 0.71477 0.0
C358 C 0.0828 0.2294 0.67157 0.0
C359 C 0.10149 0.2237 0.73197 0.0
H360 H 0.24263 0.69046 0.2878 0.0
H361 H 0.31717 0.63811 0.36436 0.0
H362 H 0.30517 0.59863 0.272 0.0
H363 H 0.27582 0.58093 0.16282 0.0
H364 H 0.19974 0.63224 0.0905 0.0
H365 H 0.20961 0.6698 0.1885 0.0
C366 C 0.25615 0.67035 0.28415 0.0
C367 C 0.28101 0.66736 0.33171 0.0
C368 C 0.24875 0.64747 0.23196 0.0
C369 C 0.29801 0.64095 0.32784 0.0
C370 C 0.29115 0.61837 0.27513 0.0
C371 C 0.26093 0.59989 0.16977 0.0
C372 C 0.23734 0.60397 0.11879 0.0
C373 C 0.26681 0.62155 0.22617 0.0
C374 C 0.21834 0.62881 0.12839 0.0
C375 C 0.22402 0.65038 0.18422 0.0
H376 H 0.34127 0.78953 0.72491 0.0
H377 H 0.39501 0.71622 0.64373 0.0
H378 H 0.43428 0.72894 0.73533 0.0
H379 H 0.45147 0.75861 0.84524 0.0
H380 H 0.39851 0.8334 0.92191 0.0
H381 H 0.3612 0.82285 0.82467 0.0
C382 C 0.36164 0.77644 0.72736 0.0
C383 C 0.3651 0.75171 0.67876 0.0
C384 C 0.38435 0.78427 0.77907 0.0
C385 C 0.39182 0.73527 0.68109 0.0
C386 C 0.41427 0.74254 0.73337 0.0
C387 C 0.43217 0.77306 0.83937 0.0
C388 C 0.42758 0.79649 0.89132 0.0
C389 C 0.41062 0.76676 0.78338 0.0
C390 C 0.40234 0.81495 0.88317 0.0
C391 C 0.38092 0.80887 0.8278 0.0
H392 H 0.73505 0.83997 0.21518 0.0
H393 H 0.80278 0.89619 0.13242 0.0
H394 H 0.79155 0.93524 0.22435 0.0
H395 H 0.7659 0.95138 0.33555 0.0
H396 H 0.69701 0.89596 0.41606 0.0
H397 H 0.70516 0.85879 0.31745 0.0
C398 C 0.7472 0.86086 0.21705 0.0
C399 C 0.77 0.86498 0.16783 0.0
C400 C 0.7405 0.88335 0.26976 0.0
C401 C 0.7852 0.89237 0.16993 0.0
C402 C 0.77884 0.91473 0.22259 0.0
C403 C 0.75211 0.93157 0.33047 0.0
C404 C 0.7312 0.92628 0.38383 0.0
C405 C 0.75695 0.91023 0.27369 0.0
C406 C 0.71369 0.90031 0.37655 0.0
C407 C 0.71832 0.87903 0.32018 0.0
H408 H 0.68671 0.30667 0.74401 0.0
H409 H 0.63753 0.25384 0.58003 0.0
H410 H 0.59737 0.24703 0.66554 0.0
H411 H 0.57751 0.25467 0.78961 0.0
H412 H 0.6256 0.31172 0.94803 0.0
H413 H 0.66476 0.31851 0.86203 0.0
C414 C 0.66719 0.29361 0.72731 0.0
C415 C 0.66511 0.28027 0.65687 0.0
C416 C 0.64401 0.29062 0.77571 0.0
C417 C 0.63951 0.26405 0.63461 0.0
C418 C 0.61662 0.26022 0.68334 0.0
C419 C 0.59632 0.26893 0.80479 0.0
C420 C 0.59897 0.28194 0.87593 0.0
C421 C 0.61872 0.27326 0.75436 0.0
C422 C 0.62344 0.30059 0.8945 0.0
C423 C 0.64584 0.30464 0.84528 0.0
H424 H 0.21509 0.14687 0.15699 0.0
H425 H 0.29701 0.19533 0.20219 0.0
H426 H 0.3115 0.16062 0.29533 0.0
H427 H 0.29904 0.11954 0.37179 0.0
H428 H 0.21709 0.07129 0.33051 0.0
H429 H 0.20475 0.10246 0.22695 0.0
C430 C 0.23625 0.14963 0.18664 0.0
C431 C 0.25464 0.17401 0.17346 0.0
C432 C 0.24444 0.12967 0.24089 0.0
C433 C 0.28215 0.17707 0.21191 0.0
C434 C 0.29054 0.1572 0.26522 0.0
C435 C 0.27862 0.11572 0.33954 0.0
C436 C 0.25882 0.09353 0.35889 0.0
C437 C 0.27153 0.13394 0.28138 0.0
C438 C 0.23266 0.08831 0.3163 0.0
C439 C 0.22553 0.10624 0.25757 0.0
H440 H 0.25988 0.3505 0.93719 0.0
H441 H 0.2074 0.3392 0.12741 0.0
H442 H 0.20291 0.39291 0.14584 0.0
H443 H 0.21431 0.44343 0.1103 0.0
H444 H 0.2657 0.45591 0.91961 0.0
H445 H 0.27023 0.40176 0.89939 0.0
C446 C 0.24736 0.3598 0.9824 0.0
C447 C 0.23422 0.34063 0.03095 0.0
C448 C 0.24474 0.39105 0.99303 0.0
C449 C 0.21799 0.35321 0.08923 0.0
C450 C 0.21536 0.38405 0.10005 0.0
C451 C 0.22651 0.43425 0.06436 0.0
C452 C 0.23965 0.45359 0.01675 0.0
C453 C 0.22879 0.40318 0.05273 0.0
C454 C 0.25531 0.44148 0.95714 0.0
C455 C 0.25791 0.41049 0.94551 0.0
H456 H 0.18611 0.76361 0.58675 0.0
H457 H 0.19818 0.72901 0.36598 0.0
H458 H 0.14464 0.72803 0.34371 0.0
H459 H 0.09409 0.73736 0.38514 0.0
H460 H 0.0808 0.77146 0.6051 0.0
H461 H 0.13477 0.77229 0.62917 0.0
C462 C 0.17702 0.7558 0.53388 0.0
C463 C 0.19641 0.74657 0.47819 0.0
C464 C 0.14586 0.75524 0.521 0.0
C465 C 0.18405 0.73645 0.40999 0.0
C466 C 0.1533 0.73583 0.39699 0.0
C467 C 0.10304 0.74497 0.43837 0.0
C468 C 0.0835 0.75433 0.49307 0.0
C469 C 0.13401 0.74529 0.45183 0.0
C470 C 0.09535 0.76409 0.5619 0.0
C471 C 0.12624 0.76458 0.57572 0.0
H472 H 0.75706 0.68791 0.06668 0.0
H473 H 0.80382 0.69489 0.86593 0.0
H474 H 0.80402 0.64076 0.8483 0.0
H475 H 0.79056 0.59129 0.88855 0.0
H476 H 0.7441 0.58371 0.08897 0.0
H477 H 0.7441 0.63809 0.10788 0.0
C478 C 0.76735 0.67761 0.01914 0.0
C479 C 0.78029 0.6956 0.96766 0.0
C480 C 0.7674 0.6463 0.00909 0.0
C481 C 0.79358 0.68174 0.90645 0.0
C482 C 0.79372 0.65072 0.89619 0.0
C483 C 0.78046 0.6016 0.93637 0.0
C484 C 0.76738 0.58357 0.98716 0.0
C485 C 0.78061 0.6328 0.94693 0.0
C486 C 0.75436 0.5971 0.049 0.0
C487 C 0.75435 0.62821 0.05984 0.0
H488 H 0.83811 0.24585 0.58612 0.0
H489 H 0.83766 0.29671 0.39138 0.0
H490 H 0.89177 0.29155 0.38625 0.0
H491 H 0.93915 0.27168 0.43603 0.0
H492 H 0.93886 0.21957 0.62847 0.0
H493 H 0.88499 0.22609 0.63543 0.0
C494 C 0.84981 0.25599 0.54273 0.0
C495 C 0.83383 0.27165 0.48925 0.0
C496 C 0.88078 0.25257 0.53949 0.0
C497 C 0.8494 0.28445 0.43315 0.0
C498 C 0.88035 0.2815 0.43015 0.0
C499 C 0.92728 0.26178 0.47944 0.0
C500 C 0.94286 0.24513 0.53174 0.0
C501 C 0.89625 0.26543 0.48277 0.0
C502 C 0.92722 0.23239 0.58756 0.0
C503 C 0.89648 0.23615 0.59164 0.0
H504 H 0.76169 0.17913 0.40441 0.0
H505 H 0.7242 0.18633 0.61832 0.0
H506 H 0.72212 0.13186 0.62134 0.0
H507 H 0.7312 0.08203 0.56296 0.0
H508 H 0.76889 0.07565 0.34936 0.0
H509 H 0.77063 0.13002 0.3466 0.0
C510 C 0.75306 0.16888 0.45186 0.0
C511 C 0.7432 0.1869 0.51113 0.0
C512 C 0.75197 0.13765 0.45328 0.0
C513 C 0.73202 0.17307 0.57195 0.0
C514 C 0.73081 0.1419 0.57373 0.0
C515 C 0.73979 0.09256 0.51589 0.0
C516 C 0.74995 0.07488 0.45635 0.0
C517 C 0.74077 0.12394 0.51471 0.0
C518 C 0.76099 0.08884 0.39578 0.0
C519 C 0.76198 0.1199 0.39416 0.0
H520 H 0.34121 0.24621 0.92344 0.0
H521 H 0.32937 0.27644 0.14766 0.0
H522 H 0.38263 0.28514 0.1636 0.0
H523 H 0.43244 0.28543 0.11384 0.0
H524 H 0.4452 0.25516 0.89064 0.0
H525 H 0.39175 0.24529 0.87428 0.0
C526 C 0.35029 0.25457 0.97587 0.0
C527 C 0.33118 0.26083 0.03407 0.0
C528 C 0.38109 0.25968 0.9848 0.0
C529 C 0.34342 0.27158 0.1017 0.0
C530 C 0.37393 0.2766 0.11098 0.0
C531 C 0.42347 0.27668 0.0616 0.0
C532 C 0.44258 0.27118 0.00353 0.0
C533 C 0.39289 0.27098 0.05282 0.0
C534 C 0.43086 0.25966 0.93619 0.0
C535 C 0.40032 0.254 0.92685 0.0
H536 H 0.2633 0.84606 0.43792 0.0
H537 H 0.30895 0.8339 0.64561 0.0
H538 H 0.31006 0.88766 0.66987 0.0
H539 H 0.29779 0.93848 0.63333 0.0
H540 H 0.25197 0.95101 0.42641 0.0
H541 H 0.25118 0.89713 0.40109 0.0
C542 C 0.27359 0.85517 0.48831 0.0
C543 C 0.2859 0.83581 0.53979 0.0
C544 C 0.27406 0.88632 0.50242 0.0
C545 C 0.2991 0.84813 0.60498 0.0
C546 C 0.29979 0.87896 0.61907 0.0
C547 C 0.2876 0.92935 0.58279 0.0
C548 C 0.275 0.94874 0.53207 0.0
C549 C 0.28723 0.89828 0.56843 0.0
C550 C 0.26189 0.93665 0.46662 0.0
C551 C 0.26143 0.90577 0.45195 0.0
H552 H 0.68095 0.7953 0.08329 0.0
H553 H 0.69257 0.77755 0.85254 0.0
H554 H 0.63886 0.77894 0.83054 0.0
H555 H 0.58826 0.78455 0.87629 0.0
H556 H 0.57617 0.80172 0.10669 0.0
H557 H 0.63009 0.80118 0.12908 0.0
C558 C 0.67175 0.79179 0.02818 0.0
C559 C 0.69094 0.78619 0.96982 0.0
C560 C 0.64063 0.79245 0.01569 0.0
C561 C 0.67848 0.78171 0.89874 0.0
C562 C 0.64768 0.78254 0.88594 0.0
C563 C 0.59747 0.78819 0.93137 0.0
C564 C 0.57821 0.79312 0.98955 0.0
C565 C 0.62853 0.78775 0.94394 0.0
C566 C 0.59043 0.79782 0.06074 0.0
C567 C 0.62132 0.79753 0.07365 0.0
loop_
_geom_bond_atom_site_label_1
_geom_bond_atom_site_label_2
_geom_bond_distance
_geom_bond_site_symmetry_2
_ccdc_geom_bond_type
Fe0 O2 1.918 . S
Fe0 O5 1.997 . S
Fe0 O6 2.002 . S
Fe0 O11 1.976 . S
Fe0 O14 1.996 . S
Fe1 O2 1.918 1_556 S
Fe1 O9 1.997 . S
Fe1 O12 1.996 . S
Fe1 O16 1.976 . S
Fe1 O19 2.002 . S
O2 Fe0 1.918 . S
O2 Fe1 1.918 1_554 S
O2 Fe3 1.918 1_554 S
Fe3 O2 1.918 1_556 S
Fe3 O4 1.992 1_556 S
Fe3 O13 1.965 1_556 S
Fe3 O17 2.006 . S
Fe3 O20 2.007 . S
O4 Fe3 1.992 1_554 S
O4 C21 1.295 . S
O5 Fe0 1.997 . S
O5 C21 1.235 . S
O6 Fe0 2.002 . S
O6 C7 1.295 . S
C7 O6 1.295 . S
C7 O9 1.235 1_554 S
C8 O13 1.287 . S
C8 O14 1.255 . S
O9 Fe1 1.997 . S
O9 C7 1.235 1_556 S
C10 O16 1.287 . S
C10 O17 1.255 . S
O11 Fe0 1.976 . S
O11 C18 1.287 . S
O12 Fe1 1.996 . S
O12 C18 1.255 1_556 S
O13 Fe3 1.965 1_554 S
O13 C8 1.287 . S
O14 Fe0 1.996 . S
O14 C8 1.255 . S
C15 O19 1.295 . S
C15 O20 1.235 . S
O16 Fe1 1.976 . S
O16 C10 1.287 . S
O17 Fe3 2.006 . S
O17 C10 1.255 . S
C18 O11 1.287 . S
C18 O12 1.255 1_554 S
O19 Fe1 2.002 . S
O19 C15 1.295 . S
O20 Fe3 2.007 . S
O20 C15 1.235 . S
C21 O4 1.295 . S
C21 O5 1.235 . S
Fe22 O24 1.918 . S
Fe22 O27 1.997 . S
Fe22 O28 2.002 . S
Fe22 O33 1.976 . S
Fe22 O36 1.996 . S
Fe23 O24 1.918 . S
Fe23 O31 1.997 . S
Fe23 O34 1.996 . S
Fe23 O38 1.976 . S
Fe23 O41 2.002 . S
O24 Fe22 1.918 . S
O24 Fe23 1.918 . S
O24 Fe25 1.918 . S
Fe25 O24 1.918 . S
Fe25 O26 2.002 . S
Fe25 O35 1.976 . S
Fe25 O39 1.996 . S
Fe25 O42 1.997 . S
O26 Fe25 2.002 . S
O26 C43 1.295 . S
O27 Fe22 1.997 . S
O27 C43 1.235 . S
O28 Fe22 2.002 . S
O28 C29 1.295 . S
C29 O28 1.295 . S
C29 O31 1.235 . S
C30 O35 1.287 . S
C30 O36 1.255 . S
O31 Fe23 1.997 . S
O31 C29 1.235 . S
C32 O38 1.287 . S
C32 O39 1.255 . S
O33 Fe22 1.976 . S
O33 C40 1.287 . S
O34 Fe23 1.996 . S
O34 C40 1.255 . S
O35 Fe25 1.976 . S
O35 C30 1.287 . S
O36 Fe22 1.996 . S
O36 C30 1.255 . S
C37 O41 1.295 . S
C37 O42 1.235 . S
O38 Fe23 1.976 . S
O38 C32 1.287 . S
O39 Fe25 1.996 . S
O39 C32 1.255 . S
C40 O33 1.287 . S
C40 O34 1.255 . S
O41 Fe23 2.002 . S
O41 C37 1.295 . S
O42 Fe25 1.997 . S
O42 C37 1.235 . S
C43 O26 1.295 . S
C43 O27 1.235 . S
Fe44 O46 1.918 1_556 S
Fe44 O49 1.997 . S
Fe44 O50 2.002 . S
Fe44 O55 1.976 . S
Fe44 O58 1.996 . S
Fe45 O46 1.918 . S
Fe45 O53 1.997 . S
Fe45 O56 1.996 . S
Fe45 O60 1.976 . S
Fe45 O63 2.002 . S
O46 Fe44 1.918 1_554 S
O46 Fe45 1.918 . S
O46 Fe47 1.918 . S
Fe47 O46 1.918 . S
Fe47 O48 2.002 1_554 S
Fe47 O57 1.976 1_554 S
Fe47 O61 1.996 . S
Fe47 O64 1.997 . S
O48 Fe47 2.002 1_556 S
O48 C65 1.295 . S
O49 Fe44 1.997 . S
O49 C65 1.235 . S
O50 Fe44 2.002 . S
O50 C51 1.295 1_556 S
C51 O50 1.295 1_554 S
C51 O53 1.235 . S
C52 O57 1.287 . S
C52 O58 1.255 . S
O53 Fe45 1.997 . S
O53 C51 1.235 . S
C54 O60 1.287 . S
C54 O61 1.255 . S
O55 Fe44 1.976 . S
O55 C62 1.287 1_556 S
O56 Fe45 1.996 . S
O56 C62 1.255 . S
O57 Fe47 1.976 1_556 S
O57 C52 1.287 . S
O58 Fe44 1.996 . S
O58 C52 1.255 . S
C59 O63 1.295 . S
C59 O64 1.235 . S
O60 Fe45 1.976 . S
O60 C54 1.287 . S
O61 Fe47 1.996 . S
O61 C54 1.255 . S
C62 O55 1.287 1_554 S
C62 O56 1.255 . S
O63 Fe45 2.002 . S
O63 C59 1.295 . S
O64 Fe47 1.997 . S
O64 C59 1.235 . S
C65 O48 1.295 . S
C65 O49 1.235 . S
Fe66 O68 1.918 . S
Fe66 O71 1.997 . S
Fe66 O72 2.002 . S
Fe66 O77 1.976 . S
Fe66 O80 1.996 . S
Fe67 O68 1.918 . S
Fe67 O75 1.997 . S
Fe67 O78 1.996 . S
Fe67 O82 1.976 . S
Fe67 O85 2.002 . S
O68 Fe66 1.918 . S
O68 Fe67 1.918 . S
O68 Fe69 1.918 . S
Fe69 O68 1.918 . S
Fe69 O70 2.002 . S
Fe69 O79 1.976 . S
Fe69 O83 1.996 . S
Fe69 O86 1.997 . S
O70 Fe69 2.002 . S
O70 C87 1.295 . S
O71 Fe66 1.997 . S
O71 C87 1.235 . S
O72 Fe66 2.002 . S
O72 C73 1.295 . S
C73 O72 1.295 . S
C73 O75 1.235 . S
C74 O79 1.287 . S
C74 O80 1.255 . S
O75 Fe67 1.997 . S
O75 C73 1.235 . S
C76 O82 1.287 . S
C76 O83 1.255 . S
O77 Fe66 1.976 . S
O77 C84 1.287 . S
O78 Fe67 1.996 . S
O78 C84 1.255 . S
O79 Fe69 1.976 . S
O79 C74 1.287 . S
O80 Fe66 1.996 . S
O80 C74 1.255 . S
C81 O85 1.295 . S
C81 O86 1.235 . S
O82 Fe67 1.976 . S
O82 C76 1.287 . S
O83 Fe69 1.996 . S
O83 C76 1.255 . S
C84 O77 1.287 . S
C84 O78 1.255 . S
O85 Fe67 2.002 . S
O85 C81 1.295 . S
O86 Fe69 1.997 . S
O86 C81 1.235 . S
C87 O70 1.295 . S
C87 O71 1.235 . S
H88 C93 0.930 . S
H89 C96 0.930 . S
H90 C98 0.930 1_554 S
H91 C92 1.016 . S
C92 H91 1.016 . S
C92 N99 1.286 1_554 S
C93 H88 0.930 . S
C93 C94 1.397 . S
C93 C95 1.361 . S
C94 C93 1.397 . S
C94 C98 1.396 . S
C95 C93 1.361 . S
C95 C96 1.393 1_556 S
C95 N99 1.413 . S
C96 H89 0.930 . S
C96 C95 1.393 1_554 S
C96 C97 1.399 . S
C97 C96 1.399 . S
C97 C98 1.376 1_554 S
C98 H90 0.930 1_556 S
C98 C94 1.396 . S
C98 C97 1.376 1_556 S
N99 C92 1.286 1_556 S
N99 C95 1.413 . S
H100 C105 0.930 . S
H101 C108 0.928 1_455 S
H102 C110 0.930 . S
H103 C104 1.016 . S
C104 H103 1.016 . S
C104 N111 1.286 . S
C105 H100 0.930 . S
C105 C106 1.397 . S
C105 C107 1.361 1_655 S
C106 C105 1.397 . S
C106 C110 1.390 . S
C107 C105 1.361 1_455 S
C107 C108 1.393 1_455 S
C107 N111 1.413 . S
C108 H101 0.928 1_655 S
C108 C107 1.393 1_655 S
C108 C109 1.399 . S
C109 C108 1.399 . S
C109 C110 1.381 . S
C110 H102 0.930 . S
C110 C106 1.390 . S
C110 C109 1.381 . S
N111 C104 1.286 . S
N111 C107 1.413 . S
H112 C117 0.930 . S
H113 C120 0.930 . S
H114 C122 0.930 . S
H115 C116 1.016 1_556 S
C116 H115 1.016 1_554 S
C116 N123 1.286 . S
C117 H112 0.930 . S
C117 C118 1.397 . S
C117 C119 1.361 . S
C118 C117 1.397 . S
C118 C122 1.390 . S
C119 C117 1.361 . S
C119 C120 1.393 1_554 S
C119 N123 1.413 . S
C120 H113 0.930 . S
C120 C119 1.393 1_556 S
C120 C121 1.399 . S
C121 C120 1.399 . S
C121 C122 1.381 1_556 S
C122 H114 0.930 . S
C122 C118 1.390 . S
C122 C121 1.381 1_554 S
N123 C116 1.286 . S
N123 C119 1.413 . S
H124 C129 0.930 . S
H125 C132 0.930 . S
H126 C134 0.930 . S
H127 C128 1.016 . S
C128 H127 1.016 . S
C128 N135 1.286 . S
C129 H124 0.930 . S
C129 C130 1.397 . S
C129 C131 1.358 1_455 S
C130 C129 1.397 . S
C130 C134 1.390 . S
C131 C129 1.358 1_655 S
C131 C132 1.391 1_655 S
C131 N135 1.418 . S
C132 H125 0.930 . S
C132 C131 1.391 1_455 S
C132 C133 1.399 . S
C133 C132 1.399 . S
C133 C134 1.381 . S
C134 H126 0.930 . S
C134 C130 1.390 . S
C134 C133 1.381 . S
N135 C128 1.286 . S
N135 C131 1.418 . S
H136 C141 0.930 . S
H137 C144 0.930 1_545 S
H138 C146 0.930 . S
H139 C140 1.016 . S
C140 H139 1.016 . S
C140 N147 1.286 . S
C141 H136 0.930 . S
C141 C142 1.397 . S
C141 C143 1.361 1_565 S
C142 C141 1.397 . S
C142 C146 1.390 . S
C143 C141 1.361 1_545 S
C143 C144 1.393 1_545 S
C143 N147 1.413 . S
C144 H137 0.930 1_565 S
C144 C143 1.393 1_565 S
C144 C145 1.399 . S
C145 C144 1.399 . S
C145 C146 1.381 . S
C146 H138 0.930 . S
C146 C142 1.390 . S
C146 C145 1.381 . S
N147 C140 1.286 . S
N147 C143 1.413 . S
H148 C153 0.930 . S
H149 C156 0.930 . S
H150 C158 0.930 . S
H151 C152 1.016 . S
C152 H151 1.016 . S
C152 N159 1.286 1_554 S
C153 H148 0.930 . S
C153 C154 1.397 . S
C153 C155 1.361 . S
C154 C153 1.397 . S
C154 C158 1.390 1_556 S
C155 C153 1.361 . S
C155 C156 1.393 1_556 S
C155 N159 1.413 . S
C156 H149 0.930 . S
C156 C155 1.393 1_554 S
C156 C157 1.399 . S
C157 C156 1.399 . S
C157 C158 1.381 . S
C158 H150 0.930 . S
C158 C154 1.390 1_554 S
C158 C157 1.381 . S
N159 C152 1.286 1_556 S
N159 C155 1.413 . S
H160 C165 0.930 . S
H161 C168 0.929 . S
H162 C170 0.930 . S
H163 C164 1.016 . S
C164 H163 1.016 . S
C164 N171 1.286 . S
C165 H160 0.930 . S
C165 C166 1.397 . S
C165 C167 1.361 1_545 S
C166 C165 1.397 . S
C166 C170 1.390 . S
C167 C165 1.361 1_565 S
C167 C168 1.393 1_565 S
C167 N171 1.413 . S
C168 H161 0.929 . S
C168 C167 1.393 1_545 S
C168 C169 1.399 . S
C169 C168 1.399 . S
C169 C170 1.381 . S
C170 H162 0.930 . S
C170 C166 1.390 . S
C170 C169 1.381 . S
N171 C164 1.286 . S
N171 C167 1.413 . S
H172 C177 0.930 . S
H173 C180 0.930 . S
H174 C182 0.930 . S
H175 C176 1.016 . S
C176 H175 1.016 . S
C176 N183 1.286 1_556 S
C177 H172 0.930 . S
C177 C178 1.397 . S
C177 C179 1.361 . S
C178 C177 1.397 . S
C178 C182 1.390 . S
C179 C177 1.361 . S
C179 C180 1.393 1_554 S
C179 N183 1.413 . S
C180 H173 0.930 . S
C180 C179 1.393 1_556 S
C180 C181 1.399 . S
C181 C180 1.399 . S
C181 C182 1.381 1_556 S
C182 H174 0.930 . S
C182 C178 1.390 . S
C182 C181 1.381 1_554 S
N183 C176 1.286 1_554 S
N183 C179 1.413 . S
H184 C190 0.930 . S
H185 C193 0.930 . S
H186 C194 0.930 . S
H187 C195 0.930 . S
H188 C198 0.930 . S
H189 C199 0.930 . S
C190 H184 0.930 . S
C190 C191 1.355 . S
C190 C192 1.415 . S
C191 C190 1.355 . S
C191 C193 1.419 . S
C192 C190 1.415 . S
C192 C197 1.425 . S
C192 C199 1.409 . S
C193 H185 0.930 . S
C193 C191 1.419 . S
C193 C194 1.362 . S
C194 H186 0.930 . S
C194 C193 1.362 . S
C194 C197 1.409 . S
C195 H187 0.930 . S
C195 C196 1.355 . S
C195 C197 1.415 . S
C196 C195 1.355 . S
C196 C198 1.419 . S
C197 C192 1.425 . S
C197 C194 1.409 . S
C197 C195 1.415 . S
C198 H188 0.930 . S
C198 C196 1.419 . S
C198 C199 1.362 . S
C199 H189 0.930 . S
C199 C192 1.409 . S
C199 C198 1.362 . S
H200 C206 0.930 . S
H201 C209 0.930 . S
H202 C210 0.930 . S
H203 C211 0.930 . S
H204 C214 0.930 . S
H205 C215 0.930 . S
C206 H200 0.930 . S
C206 C207 1.355 . S
C206 C208 1.415 . S
C207 C206 1.355 . S
C207 C209 1.419 . S
C208 C206 1.415 . S
C208 C213 1.425 . S
C208 C215 1.409 . S
C209 H201 0.930 . S
C209 C207 1.419 . S
C209 C210 1.362 . S
C210 H202 0.930 . S
C210 C209 1.362 . S
C210 C213 1.409 . S
C211 H203 0.930 . S
C211 C212 1.355 . S
C211 C213 1.415 . S
C212 C211 1.355 . S
C212 C214 1.419 . S
C213 C208 1.425 . S
C213 C210 1.409 . S
C213 C211 1.415 . S
C214 H204 0.930 . S
C214 C212 1.419 . S
C214 C215 1.362 . S
C215 H205 0.930 . S
C215 C208 1.409 . S
C215 C214 1.362 . S
H216 C222 0.930 . S
H217 C225 0.930 . S
H218 C226 0.930 . S
H219 C227 0.930 . S
H220 C230 0.930 . S
H221 C231 0.930 . S
C222 H216 0.930 . S
C222 C223 1.355 . S
C222 C224 1.415 . S
C223 C222 1.355 . S
C223 C225 1.419 . S
C224 C222 1.415 . S
C224 C229 1.425 . S
C224 C231 1.409 . S
C225 H217 0.930 . S
C225 C223 1.419 . S
C225 C226 1.362 . S
C226 H218 0.930 . S
C226 C225 1.362 . S
C226 C229 1.409 . S
C227 H219 0.930 . S
C227 C228 1.355 . S
C227 C229 1.415 . S
C228 C227 1.355 . S
C228 C230 1.419 . S
C229 C224 1.425 . S
C229 C226 1.409 . S
C229 C227 1.415 . S
C230 H220 0.930 . S
C230 C228 1.419 . S
C230 C231 1.362 . S
C231 H221 0.930 . S
C231 C224 1.409 . S
C231 C230 1.362 . S
H232 C238 0.930 . S
H233 C241 0.930 . S
H234 C242 0.930 . S
H235 C243 0.930 . S
H236 C246 0.930 . S
H237 C247 0.930 . S
C238 H232 0.930 . S
C238 C239 1.355 . S
C238 C240 1.415 . S
C239 C238 1.355 . S
C239 C241 1.419 . S
C240 C238 1.415 . S
C240 C245 1.425 . S
C240 C247 1.409 . S
C241 H233 0.930 . S
C241 C239 1.419 . S
C241 C242 1.362 . S
C242 H234 0.930 . S
C242 C241 1.362 . S
C242 C245 1.409 . S
C243 H235 0.930 . S
C243 C244 1.355 . S
C243 C245 1.415 . S
C244 C243 1.355 . S
C244 C246 1.419 . S
C245 C240 1.425 . S
C245 C242 1.409 . S
C245 C243 1.415 . S
C246 H236 0.930 . S
C246 C244 1.419 . S
C246 C247 1.362 . S
C247 H237 0.930 . S
C247 C240 1.409 . S
C247 C246 1.362 . S
H248 C254 0.930 . S
H249 C257 0.930 . S
H250 C258 0.930 . S
H251 C259 0.930 . S
H252 C262 0.930 . S
H253 C263 0.930 . S
C254 H248 0.930 . S
C254 C255 1.355 . S
C254 C256 1.415 . S
C255 C254 1.355 . S
C255 C257 1.419 . S
C256 C254 1.415 . S
C256 C261 1.425 . S
C256 C263 1.409 . S
C257 H249 0.930 . S
C257 C255 1.419 . S
C257 C258 1.362 . S
C258 H250 0.930 . S
C258 C257 1.362 . S
C258 C261 1.409 . S
C259 H251 0.930 . S
C259 C260 1.355 . S
C259 C261 1.415 . S
C260 C259 1.355 . S
C260 C262 1.419 . S
C261 C256 1.425 . S
C261 C258 1.409 . S
C261 C259 1.415 . S
C262 H252 0.930 . S
C262 C260 1.419 . S
C262 C263 1.362 . S
C263 H253 0.930 . S
C263 C256 1.409 . S
C263 C262 1.362 . S
H264 C270 0.930 . S
H265 C273 0.930 . S
H266 C274 0.930 . S
H267 C275 0.930 . S
H268 C278 0.930 . S
H269 C279 0.930 . S
C270 H264 0.930 . S
C270 C271 1.355 . S
C270 C272 1.415 . S
C271 C270 1.355 . S
C271 C273 1.419 . S
C272 C270 1.415 . S
C272 C277 1.425 . S
C272 C279 1.409 . S
C273 H265 0.930 . S
C273 C271 1.419 . S
C273 C274 1.362 . S
C274 H266 0.930 . S
C274 C273 1.362 . S
C274 C277 1.409 . S
C275 H267 0.930 . S
C275 C276 1.355 . S
C275 C277 1.415 . S
C276 C275 1.355 . S
C276 C278 1.419 . S
C277 C272 1.425 . S
C277 C274 1.409 . S
C277 C275 1.415 . S
C278 H268 0.930 . S
C278 C276 1.419 . S
C278 C279 1.362 . S
C279 H269 0.930 . S
C279 C272 1.409 . S
C279 C278 1.362 . S
H280 C286 0.930 . S
H281 C289 0.930 . S
H282 C290 0.930 . S
H283 C291 0.930 . S
H284 C294 0.930 . S
H285 C295 0.930 . S
C286 H280 0.930 . S
C286 C287 1.355 . S
C286 C288 1.415 . S
C287 C286 1.355 . S
C287 C289 1.419 . S
C288 C286 1.415 . S
C288 C293 1.425 . S
C288 C295 1.409 . S
C289 H281 0.930 . S
C289 C287 1.419 . S
C289 C290 1.362 . S
C290 H282 0.930 . S
C290 C289 1.362 . S
C290 C293 1.409 . S
C291 H283 0.930 . S
C291 C292 1.355 . S
C291 C293 1.415 . S
C292 C291 1.355 . S
C292 C294 1.419 . S
C293 C288 1.425 . S
C293 C290 1.409 . S
C293 C291 1.415 . S
C294 H284 0.930 . S
C294 C292 1.419 . S
C294 C295 1.362 . S
C295 H285 0.930 . S
C295 C288 1.409 . S
C295 C294 1.362 . S
H296 C302 0.930 . S
H297 C305 0.930 . S
H298 C306 0.930 . S
H299 C307 0.930 . S
H300 C310 0.930 . S
H301 C311 0.930 . S
C302 H296 0.930 . S
C302 C303 1.355 . S
C302 C304 1.415 . S
C303 C302 1.355 . S
C303 C305 1.419 . S
C304 C302 1.415 . S
C304 C309 1.425 . S
C304 C311 1.409 . S
C305 H297 0.930 . S
C305 C303 1.419 . S
C305 C306 1.362 . S
C306 H298 0.930 . S
C306 C305 1.362 . S
C306 C309 1.409 . S
C307 H299 0.930 . S
C307 C308 1.355 . S
C307 C309 1.415 . S
C308 C307 1.355 . S
C308 C310 1.419 . S
C309 C304 1.425 . S
C309 C306 1.409 . S
C309 C307 1.415 . S
C310 H300 0.930 . S
C310 C308 1.419 . S
C310 C311 1.362 . S
C311 H301 0.930 . S
C311 C304 1.409 . S
C311 C310 1.362 . S
H312 C318 0.930 . S
H313 C321 0.930 . S
H314 C322 0.930 . S
H315 C323 0.930 . S
H316 C326 0.930 . S
H317 C327 0.930 . S
C318 H312 0.930 . S
C318 C319 1.355 . S
C318 C320 1.415 . S
C319 C318 1.355 . S
C319 C321 1.419 . S
C320 C318 1.415 . S
C320 C325 1.425 . S
C320 C327 1.409 . S
C321 H313 0.930 . S
C321 C319 1.419 . S
C321 C322 1.362 . S
C322 H314 0.930 . S
C322 C321 1.362 . S
C322 C325 1.409 . S
C323 H315 0.930 . S
C323 C324 1.355 . S
C323 C325 1.415 . S
C324 C323 1.355 . S
C324 C326 1.419 . S
C325 C320 1.425 . S
C325 C322 1.409 . S
C325 C323 1.415 . S
C326 H316 0.930 . S
C326 C324 1.419 . S
C326 C327 1.362 . S
C327 H317 0.930 . S
C327 C320 1.409 . S
C327 C326 1.362 . S
H328 C334 0.930 . S
H329 C337 0.930 . S
H330 C338 0.930 . S
H331 C339 0.930 . S
H332 C342 0.930 . S
H333 C343 0.930 . S
C334 H328 0.930 . S
C334 C335 1.355 . S
C334 C336 1.415 . S
C335 C334 1.355 . S
C335 C337 1.419 . S
C336 C334 1.415 . S
C336 C341 1.425 . S
C336 C343 1.409 . S
C337 H329 0.930 . S
C337 C335 1.419 . S
C337 C338 1.362 . S
C338 H330 0.930 . S
C338 C337 1.362 . S
C338 C341 1.409 . S
C339 H331 0.930 . S
C339 C340 1.355 . S
C339 C341 1.415 . S
C340 C339 1.355 . S
C340 C342 1.419 . S
C341 C336 1.425 . S
C341 C338 1.409 . S
C341 C339 1.415 . S
C342 H332 0.930 . S
C342 C340 1.419 . S
C342 C343 1.362 . S
C343 H333 0.930 . S
C343 C336 1.409 . S
C343 C342 1.362 . S
H344 C350 0.930 . S
H345 C353 0.930 . S
H346 C354 0.930 . S
H347 C355 0.930 . S
H348 C358 0.930 . S
H349 C359 0.930 . S
C350 H344 0.930 . S
C350 C351 1.355 . S
C350 C352 1.415 . S
C351 C350 1.355 . S
C351 C353 1.419 . S
C352 C350 1.415 . S
C352 C357 1.425 . S
C352 C359 1.409 . S
C353 H345 0.930 . S
C353 C351 1.419 . S
C353 C354 1.362 . S
C354 H346 0.930 . S
C354 C353 1.362 . S
C354 C357 1.409 . S
C355 H347 0.930 . S
C355 C356 1.355 . S
C355 C357 1.415 . S
C356 C355 1.355 . S
C356 C358 1.419 . S
C357 C352 1.425 . S
C357 C354 1.409 . S
C357 C355 1.415 . S
C358 H348 0.930 . S
C358 C356 1.419 . S
C358 C359 1.362 . S
C359 H349 0.930 . S
C359 C352 1.409 . S
C359 C358 1.362 . S
H360 C366 0.930 . S
H361 C369 0.930 . S
H362 C370 0.930 . S
H363 C371 0.930 . S
H364 C374 0.930 . S
H365 C375 0.930 . S
C366 H360 0.930 . S
C366 C367 1.355 . S
C366 C368 1.415 . S
C367 C366 1.355 . S
C367 C369 1.419 . S
C368 C366 1.415 . S
C368 C373 1.425 . S
C368 C375 1.409 . S
C369 H361 0.930 . S
C369 C367 1.419 . S
C369 C370 1.362 . S
C370 H362 0.930 . S
C370 C369 1.362 . S
C370 C373 1.409 . S
C371 H363 0.930 . S
C371 C372 1.355 . S
C371 C373 1.415 . S
C372 C371 1.355 . S
C372 C374 1.419 . S
C373 C368 1.425 . S
C373 C370 1.409 . S
C373 C371 1.415 . S
C374 H364 0.930 . S
C374 C372 1.419 . S
C374 C375 1.362 . S
C375 H365 0.930 . S
C375 C368 1.409 . S
C375 C374 1.362 . S
H376 C382 0.930 . S
H377 C385 0.930 . S
H378 C386 0.930 . S
H379 C387 0.930 . S
H380 C390 0.930 . S
H381 C391 0.930 . S
C382 H376 0.930 . S
C382 C383 1.355 . S
C382 C384 1.415 . S
C383 C382 1.355 . S
C383 C385 1.419 . S
C384 C382 1.415 . S
C384 C389 1.425 . S
C384 C391 1.409 . S
C385 H377 0.930 . S
C385 C383 1.419 . S
C385 C386 1.362 . S
C386 H378 0.930 . S
C386 C385 1.362 . S
C386 C389 1.409 . S
C387 H379 0.930 . S
C387 C388 1.355 . S
C387 C389 1.415 . S
C388 C387 1.355 . S
C388 C390 1.419 . S
C389 C384 1.425 . S
C389 C386 1.409 . S
C389 C387 1.415 . S
C390 H380 0.930 . S
C390 C388 1.419 . S
C390 C391 1.362 . S
C391 H381 0.930 . S
C391 C384 1.409 . S
C391 C390 1.362 . S
H392 C398 0.930 . S
H393 C401 0.930 . S
H394 C402 0.930 . S
H395 C403 0.930 . S
H396 C406 0.930 . S
H397 C407 0.930 . S
C398 H392 0.930 . S
C398 C399 1.355 . S
C398 C400 1.415 . S
C399 C398 1.355 . S
C399 C401 1.419 . S
C400 C398 1.415 . S
C400 C405 1.425 . S
C400 C407 1.409 . S
C401 H393 0.930 . S
C401 C399 1.419 . S
C401 C402 1.362 . S
C402 H394 0.930 . S
C402 C401 1.362 . S
C402 C405 1.409 . S
C403 H395 0.930 . S
C403 C404 1.355 . S
C403 C405 1.415 . S
C404 C403 1.355 . S
C404 C406 1.419 . S
C405 C400 1.425 . S
C405 C402 1.409 . S
C405 C403 1.415 . S
C406 H396 0.930 . S
C406 C404 1.419 . S
C406 C407 1.362 . S
C407 H397 0.930 . S
C407 C400 1.409 . S
C407 C406 1.362 . S
H408 C414 0.930 . S
H409 C417 0.930 . S
H410 C418 0.930 . S
H411 C419 0.930 . S
H412 C422 0.930 . S
H413 C423 0.930 . S
C414 H408 0.930 . S
C414 C415 1.355 . S
C414 C416 1.415 . S
C415 C414 1.355 . S
C415 C417 1.419 . S
C416 C414 1.415 . S
C416 C421 1.425 . S
C416 C423 1.409 . S
C417 H409 0.930 . S
C417 C415 1.419 . S
C417 C418 1.362 . S
C418 H410 0.930 . S
C418 C417 1.362 . S
C418 C421 1.409 . S
C419 H411 0.930 . S
C419 C420 1.355 . S
C419 C421 1.415 . S
C420 C419 1.355 . S
C420 C422 1.419 . S
C421 C416 1.425 . S
C421 C418 1.409 . S
C421 C419 1.415 . S
C422 H412 0.930 . S
C422 C420 1.419 . S
C422 C423 1.362 . S
C423 H413 0.930 . S
C423 C416 1.409 . S
C423 C422 1.362 . S
H424 C430 0.930 . S
H425 C433 0.930 . S
H426 C434 0.930 . S
H427 C435 0.930 . S
H428 C438 0.930 . S
H429 C439 0.930 . S
C430 H424 0.930 . S
C430 C431 1.355 . S
C430 C432 1.415 . S
C431 C430 1.355 . S
C431 C433 1.419 . S
C432 C430 1.415 . S
C432 C437 1.425 . S
C432 C439 1.409 . S
C433 H425 0.930 . S
C433 C431 1.419 . S
C433 C434 1.362 . S
C434 H426 0.930 . S
C434 C433 1.362 . S
C434 C437 1.409 . S
C435 H427 0.930 . S
C435 C436 1.355 . S
C435 C437 1.415 . S
C436 C435 1.355 . S
C436 C438 1.419 . S
C437 C432 1.425 . S
C437 C434 1.409 . S
C437 C435 1.415 . S
C438 H428 0.930 . S
C438 C436 1.419 . S
C438 C439 1.362 . S
C439 H429 0.930 . S
C439 C432 1.409 . S
C439 C438 1.362 . S
H440 C446 0.930 . S
H441 C449 0.930 . S
H442 C450 0.930 . S
H443 C451 0.930 . S
H444 C454 0.930 . S
H445 C455 0.930 . S
C446 H440 0.930 . S
C446 C447 1.355 1_556 S
C446 C448 1.415 . S
C447 C446 1.355 1_554 S
C447 C449 1.419 . S
C448 C446 1.415 . S
C448 C453 1.425 1_556 S
C448 C455 1.409 . S
C449 H441 0.930 . S
C449 C447 1.419 . S
C449 C450 1.362 . S
C450 H442 0.930 . S
C450 C449 1.362 . S
C450 C453 1.409 . S
C451 H443 0.930 . S
C451 C452 1.355 . S
C451 C453 1.415 . S
C452 C451 1.355 . S
C452 C454 1.419 1_554 S
C453 C448 1.425 1_554 S
C453 C450 1.409 . S
C453 C451 1.415 . S
C454 H444 0.930 . S
C454 C452 1.419 1_556 S
C454 C455 1.362 . S
C455 H445 0.930 . S
C455 C448 1.409 . S
C455 C454 1.362 . S
H456 C462 0.930 . S
H457 C465 0.930 . S
H458 C466 0.930 . S
H459 C467 0.930 . S
H460 C470 0.930 . S
H461 C471 0.930 . S
C462 H456 0.930 . S
C462 C463 1.355 . S
C462 C464 1.415 . S
C463 C462 1.355 . S
C463 C465 1.419 . S
C464 C462 1.415 . S
C464 C469 1.425 . S
C464 C471 1.409 . S
C465 H457 0.930 . S
C465 C463 1.419 . S
C465 C466 1.362 . S
C466 H458 0.930 . S
C466 C465 1.362 . S
C466 C469 1.409 . S
C467 H459 0.930 . S
C467 C468 1.355 . S
C467 C469 1.415 . S
C468 C467 1.355 . S
C468 C470 1.419 . S
C469 C464 1.425 . S
C469 C466 1.409 . S
C469 C467 1.415 . S
C470 H460 0.930 . S
C470 C468 1.419 . S
C470 C471 1.362 . S
C471 H461 0.930 . S
C471 C464 1.409 . S
C471 C470 1.362 . S
H472 C478 0.930 1_556 S
H473 C481 0.930 . S
H474 C482 0.930 . S
H475 C483 0.930 . S
H476 C486 0.930 . S
H477 C487 0.930 . S
C478 H472 0.930 1_554 S
C478 C479 1.355 . S
C478 C480 1.415 . S
C479 C478 1.355 . S
C479 C481 1.419 . S
C480 C478 1.415 . S
C480 C485 1.425 . S
C480 C487 1.409 1_554 S
C481 H473 0.930 . S
C481 C479 1.419 . S
C481 C482 1.362 . S
C482 H474 0.930 . S
C482 C481 1.362 . S
C482 C485 1.409 . S
C483 H475 0.930 . S
C483 C484 1.355 . S
C483 C485 1.415 . S
C484 C483 1.355 . S
C484 C486 1.419 1_554 S
C485 C480 1.425 . S
C485 C482 1.409 . S
C485 C483 1.415 . S
C486 H476 0.930 . S
C486 C484 1.419 1_556 S
C486 C487 1.362 . S
C487 H477 0.930 . S
C487 C480 1.409 1_556 S
C487 C486 1.362 . S
H488 C494 0.930 . S
H489 C497 0.930 . S
H490 C498 0.930 . S
H491 C499 0.930 . S
H492 C502 0.930 . S
H493 C503 0.930 . S
C494 H488 0.930 . S
C494 C495 1.355 . S
C494 C496 1.415 . S
C495 C494 1.355 . S
C495 C497 1.419 . S
C496 C494 1.415 . S
C496 C501 1.425 . S
C496 C503 1.409 . S
C497 H489 0.930 . S
C497 C495 1.419 . S
C497 C498 1.362 . S
C498 H490 0.930 . S
C498 C497 1.362 . S
C498 C501 1.409 . S
C499 H491 0.930 . S
C499 C500 1.355 . S
C499 C501 1.415 . S
C500 C499 1.355 . S
C500 C502 1.419 . S
C501 C496 1.425 . S
C501 C498 1.409 . S
C501 C499 1.415 . S
C502 H492 0.930 . S
C502 C500 1.419 . S
C502 C503 1.362 . S
C503 H493 0.930 . S
C503 C496 1.409 . S
C503 C502 1.362 . S
H504 C510 0.930 . S
H505 C513 0.930 . S
H506 C514 0.930 . S
H507 C515 0.930 . S
H508 C518 0.930 . S
H509 C519 0.930 . S
C510 H504 0.930 . S
C510 C511 1.355 . S
C510 C512 1.415 . S
C511 C510 1.355 . S
C511 C513 1.419 . S
C512 C510 1.415 . S
C512 C517 1.425 . S
C512 C519 1.409 . S
C513 H505 0.930 . S
C513 C511 1.419 . S
C513 C514 1.362 . S
C514 H506 0.930 . S
C514 C513 1.362 . S
C514 C517 1.409 . S
C515 H507 0.930 . S
C515 C516 1.355 . S
C515 C517 1.415 . S
C516 C515 1.355 . S
C516 C518 1.419 . S
C517 C512 1.425 . S
C517 C514 1.409 . S
C517 C515 1.415 . S
C518 H508 0.930 . S
C518 C516 1.419 . S
C518 C519 1.362 . S
C519 H509 0.930 . S
C519 C512 1.409 . S
C519 C518 1.362 . S
H520 C526 0.930 . S
H521 C529 0.930 . S
H522 C530 0.930 . S
H523 C531 0.930 . S
H524 C534 0.930 . S
H525 C535 0.930 . S
C526 H520 0.930 . S
C526 C527 1.355 . S
C526 C528 1.415 . S
C527 C526 1.355 . S
C527 C529 1.419 1_554 S
C528 C526 1.415 . S
C528 C533 1.426 1_554 S
C528 C535 1.409 . S
C529 H521 0.930 . S
C529 C527 1.419 1_556 S
C529 C530 1.362 . S
C530 H522 0.930 . S
C530 C529 1.362 . S
C530 C533 1.409 . S
C531 H523 0.930 . S
C531 C532 1.355 1_556 S
C531 C533 1.415 . S
C532 C531 1.355 1_554 S
C532 C534 1.419 . S
C533 C528 1.426 1_556 S
C533 C530 1.409 . S
C533 C531 1.415 . S
C534 H524 0.930 . S
C534 C532 1.419 . S
C534 C535 1.362 . S
C535 H525 0.930 . S
C535 C528 1.409 . S
C535 C534 1.362 . S
H536 C542 0.930 . S
H537 C545 0.930 . S
H538 C546 0.930 . S
H539 C547 0.930 . S
H540 C550 0.930 . S
H541 C551 0.930 . S
C542 H536 0.930 . S
C542 C543 1.355 . S
C542 C544 1.415 . S
C543 C542 1.355 . S
C543 C545 1.419 . S
C544 C542 1.415 . S
C544 C549 1.425 . S
C544 C551 1.409 . S
C545 H537 0.930 . S
C545 C543 1.419 . S
C545 C546 1.362 . S
C546 H538 0.930 . S
C546 C545 1.362 . S
C546 C549 1.409 . S
C547 H539 0.930 . S
C547 C548 1.355 . S
C547 C549 1.415 . S
C548 C547 1.355 . S
C548 C550 1.419 . S
C549 C544 1.425 . S
C549 C546 1.409 . S
C549 C547 1.415 . S
C550 H540 0.930 . S
C550 C548 1.419 . S
C550 C551 1.362 . S
C551 H541 0.930 . S
C551 C544 1.409 . S
C551 C550 1.362 . S
H552 C558 0.930 . S
H553 C561 0.930 . S
H554 C562 0.930 . S
H555 C563 0.930 . S
H556 C566 0.930 . S
H557 C567 0.930 . S
C558 H552 0.930 . S
C558 C559 1.364 . S
C558 C560 1.415 . S
C559 C558 1.364 . S
C559 C561 1.407 1_554 S
C560 C558 1.415 . S
C560 C565 1.425 1_554 S
C560 C567 1.409 . S
C561 H553 0.930 . S
C561 C559 1.407 1_556 S
C561 C562 1.362 . S
C562 H554 0.930 . S
C562 C561 1.362 . S
C562 C565 1.409 . S
C563 H555 0.930 . S
C563 C564 1.355 1_556 S
C563 C565 1.415 . S
C564 C563 1.355 1_554 S
C564 C566 1.419 . S
C565 C560 1.425 1_556 S
C565 C562 1.409 . S
C565 C563 1.415 . S
C566 H556 0.930 . S
C566 C564 1.419 . S
C566 C567 1.362 . S
C567 H557 0.930 . S
C567 C560 1.409 . S
C567 C566 1.362 . S
C191 C21 1.495 . S
C196 C130 1.476 . S
C207 C40 1.488 . S
C212 C94 1.483 . S
C228 C109 1.464 . S
C223 C54 1.472 . S
C239 C73 1.529 . S
C244 C121 1.475 . S
C260 C157 1.462 . S
C255 C74 1.462 . S
C276 C169 1.488 . S
C271 C10 1.504 . S
C292 C178 1.499 . S
C287 C37 1.474 . S
C308 C142 1.505 . S
C303 C65 1.495 . S
C319 C52 1.442 . S
C324 C106 1.433 . S
C335 C87 1.492 . S
C340 C118 1.519 . S
C351 C15 1.493 . S
C356 C133 1.518 . S
C372 C97 1.444 . S
C367 C32 1.501 . S
C383 C29 1.515 . S
C388 C181 1.466 . S
C404 C145 1.486 . S
C399 C59 1.541 . S
C420 C154 1.435 . S
C415 C84 1.458 . S
C431 C8 1.470 . S
C436 C166 1.474 . S
C452 C92 1.534 . S
C447 C7 1.511 . S
C468 C104 1.479 . S
C463 C30 1.477 . S
C479 C62 1.526 . S
C484 C116 1.504 . S
C495 C81 1.513 . S
C500 C128 1.504 . S
C516 C140 1.490 . S
C511 C76 1.528 . S
C527 C18 1.471 . S
C532 C152 1.467 . S
C543 C43 1.534 . S
C548 C164 1.523 . S
C559 C51 1.490 . S
C564 C176 1.514 1_554 S
