# Generated by pormake.
# Topology eea, (3,6)-cn, num edge types: 1
# Building blocks:
#     Node 0, Type 0, BuildingBlock: PAMTOO_clean_linker_0, # of connection points: 3
#     Node 1, Type 0, BuildingBlock: PAMTOO_clean_linker_0, # of connection points: 3
#     Node 2, Type 0, BuildingBlock: PAMTOO_clean_linker_0, # of connection points: 3
#     Node 3, Type 0, BuildingBlock: PAMTOO_clean_linker_0, # of connection points: 3
#     Node 4, Type 0, BuildingBlock: PAMTOO_clean_linker_0, # of connection points: 3
#     Node 5, Type 0, BuildingBlock: PAMTOO_clean_linker_0, # of connection points: 3
#     Node 6, Type 0, BuildingBlock: PAMTOO_clean_linker_0, # of connection points: 3
#     Node 7, Type 0, BuildingBlock: PAMTOO_clean_linker_0, # of connection points: 3
#     Node 8, Type 0, BuildingBlock: PAMTOO_clean_linker_0, # of connection points: 3
#     Node 9, Type 0, BuildingBlock: PAMTOO_clean_linker_0, # of connection points: 3
#     Node 10, Type 0, BuildingBlock: PAMTOO_clean_linker_0, # of connection points: 3
#     Node 11, Type 0, BuildingBlock: PAMTOO_clean_linker_0, # of connection points: 3
#     Node 12, Type 0, BuildingBlock: PAMTOO_clean_linker_0, # of connection points: 3
#     Node 13, Type 0, BuildingBlock: PAMTOO_clean_linker_0, # of connection points: 3
#     Node 14, Type 0, BuildingBlock: PAMTOO_clean_linker_0, # of connection points: 3
#     Node 15, Type 0, BuildingBlock: PAMTOO_clean_linker_0, # of connection points: 3
#     Node 16, Type 0, BuildingBlock: PAMTOO_clean_linker_0, # of connection points: 3
#     Node 17, Type 0, BuildingBlock: PAMTOO_clean_linker_0, # of connection points: 3
#     Node 18, Type 1, BuildingBlock: CUWYAW_clean_sbu_0, # of connection points: 6
#     Node 19, Type 1, BuildingBlock: CUWYAW_clean_sbu_0, # of connection points: 6
#     Node 20, Type 1, BuildingBlock: CUWYAW_clean_sbu_0, # of connection points: 6
#     Node 21, Type 1, BuildingBlock: CUWYAW_clean_sbu_0, # of connection points: 6
#     Node 22, Type 1, BuildingBlock: CUWYAW_clean_sbu_0, # of connection points: 6
#     Node 23, Type 1, BuildingBlock: CUWYAW_clean_sbu_0, # of connection points: 6
#     Node 24, Type 1, BuildingBlock: CUWYAW_clean_sbu_0, # of connection points: 6
#     Node 25, Type 1, BuildingBlock: CUWYAW_clean_sbu_0, # of connection points: 6
#     Node 26, Type 1, BuildingBlock: CUWYAW_clean_sbu_0, # of connection points: 6
#     Edge 27, Type (0, 1), BuildingBlock: KIFKEQ_clean_linker_1, # of connection points: 2
#     Edge 28, Type (0, 1), BuildingBlock: KIFKEQ_clean_linker_1, # of connection points: 2
#     Edge 29, Type (0, 1), BuildingBlock: KIFKEQ_clean_linker_1, # of connection points: 2
#     Edge 30, Type (0, 1), BuildingBlock: KIFKEQ_clean_linker_1, # of connection points: 2
#     Edge 31, Type (0, 1), BuildingBlock: KIFKEQ_clean_linker_1, # of connection points: 2
#     Edge 32, Type (0, 1), BuildingBlock: KIFKEQ_clean_linker_1, # of connection points: 2
#     Edge 33, Type (0, 1), BuildingBlock: KIFKEQ_clean_linker_1, # of connection points: 2
#     Edge 34, Type (0, 1), BuildingBlock: KIFKEQ_clean_linker_1, # of connection points: 2
#     Edge 35, Type (0, 1), BuildingBlock: KIFKEQ_clean_linker_1, # of connection points: 2
#     Edge 36, Type (0, 1), BuildingBlock: KIFKEQ_clean_linker_1, # of connection points: 2
#     Edge 37, Type (0, 1), BuildingBlock: KIFKEQ_clean_linker_1, # of connection points: 2
#     Edge 38, Type (0, 1), BuildingBlock: KIFKEQ_clean_linker_1, # of connection points: 2
#     Edge 39, Type (0, 1), BuildingBlock: KIFKEQ_clean_linker_1, # of connection points: 2
#     Edge 40, Type (0, 1), BuildingBlock: KIFKEQ_clean_linker_1, # of connection points: 2
#     Edge 41, Type (0, 1), BuildingBlock: KIFKEQ_clean_linker_1, # of connection points: 2
#     Edge 42, Type (0, 1), BuildingBlock: KIFKEQ_clean_linker_1, # of connection points: 2
#     Edge 43, Type (0, 1), BuildingBlock: KIFKEQ_clean_linker_1, # of connection points: 2
#     Edge 44, Type (0, 1), BuildingBlock: KIFKEQ_clean_linker_1, # of connection points: 2
#     Edge 45, Type (0, 1), BuildingBlock: KIFKEQ_clean_linker_1, # of connection points: 2
#     Edge 46, Type (0, 1), BuildingBlock: KIFKEQ_clean_linker_1, # of connection points: 2
#     Edge 47, Type (0, 1), BuildingBlock: KIFKEQ_clean_linker_1, # of connection points: 2
#     Edge 48, Type (0, 1), BuildingBlock: KIFKEQ_clean_linker_1, # of connection points: 2
#     Edge 49, Type (0, 1), BuildingBlock: KIFKEQ_clean_linker_1, # of connection points: 2
#     Edge 50, Type (0, 1), BuildingBlock: KIFKEQ_clean_linker_1, # of connection points: 2
#     Edge 51, Type (0, 1), BuildingBlock: KIFKEQ_clean_linker_1, # of connection points: 2
#     Edge 52, Type (0, 1), BuildingBlock: KIFKEQ_clean_linker_1, # of connection points: 2
#     Edge 53, Type (0, 1), BuildingBlock: KIFKEQ_clean_linker_1, # of connection points: 2
#     Edge 54, Type (0, 1), BuildingBlock: KIFKEQ_clean_linker_1, # of connection points: 2
#     Edge 55, Type (0, 1), BuildingBlock: KIFKEQ_clean_linker_1, # of connection points: 2
#     Edge 56, Type (0, 1), BuildingBlock: KIFKEQ_clean_linker_1, # of connection points: 2
#     Edge 57, Type (0, 1), BuildingBlock: KIFKEQ_clean_linker_1, # of connection points: 2
#     Edge 58, Type (0, 1), BuildingBlock: KIFKEQ_clean_linker_1, # of connection points: 2
#     Edge 59, Type (0, 1), BuildingBlock: KIFKEQ_clean_linker_1, # of connection points: 2
#     Edge 60, Type (0, 1), BuildingBlock: KIFKEQ_clean_linker_1, # of connection points: 2
#     Edge 61, Type (0, 1), BuildingBlock: KIFKEQ_clean_linker_1, # of connection points: 2
#     Edge 62, Type (0, 1), BuildingBlock: KIFKEQ_clean_linker_1, # of connection points: 2
#     Edge 63, Type (0, 1), BuildingBlock: KIFKEQ_clean_linker_1, # of connection points: 2
#     Edge 64, Type (0, 1), BuildingBlock: KIFKEQ_clean_linker_1, # of connection points: 2
#     Edge 65, Type (0, 1), BuildingBlock: KIFKEQ_clean_linker_1, # of connection points: 2
#     Edge 66, Type (0, 1), BuildingBlock: KIFKEQ_clean_linker_1, # of connection points: 2
#     Edge 67, Type (0, 1), BuildingBlock: KIFKEQ_clean_linker_1, # of connection points: 2
#     Edge 68, Type (0, 1), BuildingBlock: KIFKEQ_clean_linker_1, # of connection points: 2
#     Edge 69, Type (0, 1), BuildingBlock: KIFKEQ_clean_linker_1, # of connection points: 2
#     Edge 70, Type (0, 1), BuildingBlock: KIFKEQ_clean_linker_1, # of connection points: 2
#     Edge 71, Type (0, 1), BuildingBlock: KIFKEQ_clean_linker_1, # of connection points: 2
#     Edge 72, Type (0, 1), BuildingBlock: KIFKEQ_clean_linker_1, # of connection points: 2
#     Edge 73, Type (0, 1), BuildingBlock: KIFKEQ_clean_linker_1, # of connection points: 2
#     Edge 74, Type (0, 1), BuildingBlock: KIFKEQ_clean_linker_1, # of connection points: 2
#     Edge 75, Type (0, 1), BuildingBlock: KIFKEQ_clean_linker_1, # of connection points: 2
#     Edge 76, Type (0, 1), BuildingBlock: KIFKEQ_clean_linker_1, # of connection points: 2
#     Edge 77, Type (0, 1), BuildingBlock: KIFKEQ_clean_linker_1, # of connection points: 2
#     Edge 78, Type (0, 1), BuildingBlock: KIFKEQ_clean_linker_1, # of connection points: 2
#     Edge 79, Type (0, 1), BuildingBlock: KIFKEQ_clean_linker_1, # of connection points: 2
#     Edge 80, Type (0, 1), BuildingBlock: KIFKEQ_clean_linker_1, # of connection points: 2
# Relax obj value: 0.057
# Max RMSD: 0.206
# Mean RMSD: 0.145
data_MOF--net-eea--node1-CUWYAW_clean_sbu_0--node2-PAMTOO_clean_linker_0--edge1-KIFKEQ_clean_linker_1
_symmetry_space_group_name_H-M    P1
_symmetry_Int_Tables_number       1
_symmetry_cell_setting            triclinic
loop_
_symmetry_equiv_pos_as_xyz
'x, y, z'
_cell_length_a     55.45391
_cell_length_b     55.115864
_cell_length_c     70.501497
_cell_angle_alpha  93.320996
_cell_angle_beta   93.172717
_cell_angle_gamma 120.01758
loop_
_atom_site_label
_atom_site_type_symbol
_atom_site_fract_x
_atom_site_fract_y
_atom_site_fract_z
_atom_type_partial_charge
H0 H 0.23279 0.07264 0.42337 0.0
H1 H 0.23436 0.15144 0.4235 0.0
H2 H 0.21085 0.09782 0.37134 0.0
H3 H 0.24308 0.15836 0.36619 0.0
C4 C 0.23784 0.16674 0.37908 0.0
O5 O 0.21706 0.14472 0.38741 0.0
H6 H 0.25717 0.17824 0.38918 0.0
C7 C 0.23033 0.08781 0.41565 0.0
C8 C 0.22142 0.08179 0.39597 0.0
C9 C 0.23535 0.11294 0.42573 0.0
C10 C 0.23063 0.13195 0.41604 0.0
C11 C 0.22171 0.1263 0.39652 0.0
C12 C 0.21727 0.10146 0.38651 0.0
H13 H 0.94797 0.18226 0.43381 0.0
H14 H 0.87261 0.1013 0.42399 0.0
H15 H 0.92652 0.13217 0.37947 0.0
H16 H 0.86735 0.09483 0.3635 0.0
C17 C 0.85918 0.08594 0.37703 0.0
O18 O 0.88114 0.08982 0.38958 0.0
H19 H 0.84896 0.09715 0.38324 0.0
C20 C 0.93401 0.16351 0.42438 0.0
C21 C 0.94073 0.16028 0.40572 0.0
C22 C 0.90924 0.14262 0.43103 0.0
C23 C 0.89143 0.11796 0.41901 0.0
C24 C 0.89794 0.11424 0.40061 0.0
C25 C 0.9223 0.13535 0.39394 0.0
H26 H 0.84378 0.77364 0.43656 0.0
H27 H 0.92341 0.7773 0.43971 0.0
H28 H 0.89462 0.79962 0.38956 0.0
H29 H 0.92217 0.76886 0.38028 0.0
C30 C 0.93559 0.77316 0.39379 0.0
O31 O 0.9348 0.79355 0.40563 0.0
H32 H 0.9274 0.75337 0.40092 0.0
C33 C 0.86272 0.77788 0.43022 0.0
C34 C 0.86662 0.78688 0.41184 0.0
C35 C 0.88315 0.77461 0.44057 0.0
C36 C 0.90737 0.77969 0.43203 0.0
C37 C 0.91138 0.78858 0.41367 0.0
C38 C 0.89125 0.7926 0.40372 0.0
H39 H 0.07016 0.24441 0.58004 0.0
H40 H 0.14652 0.24147 0.5852 0.0
H41 H 0.09737 0.22531 0.63262 0.0
H42 H 0.16166 0.25767 0.6426 0.0
C43 C 0.16666 0.24929 0.6296 0.0
O44 O 0.14207 0.22784 0.62002 0.0
H45 H 0.17742 0.26666 0.62037 0.0
C46 C 0.08528 0.24134 0.58836 0.0
C47 C 0.08091 0.23464 0.60729 0.0
C48 C 0.10902 0.24415 0.58017 0.0
C49 C 0.128 0.23938 0.59107 0.0
C50 C 0.12384 0.23279 0.60991 0.0
C51 C 0.10052 0.23071 0.61807 0.0
H52 H 0.77673 0.83611 0.59748 0.0
H53 H 0.78647 0.9188 0.60083 0.0
H54 H 0.81687 0.89379 0.64843 0.0
H55 H 0.795 0.93037 0.66172 0.0
C56 C 0.79321 0.93772 0.64765 0.0
O57 O 0.81003 0.9336 0.63569 0.0
H58 H 0.77093 0.92527 0.6415 0.0
C59 C 0.78434 0.85646 0.60536 0.0
C60 C 0.79735 0.86201 0.62412 0.0
C61 C 0.78047 0.8768 0.59671 0.0
C62 C 0.78902 0.9027 0.60721 0.0
C63 C 0.80166 0.90844 0.62587 0.0
C64 C 0.80619 0.88841 0.63418 0.0
H65 H 0.1773 0.94725 0.58991 0.0
H66 H 0.09633 0.87135 0.58196 0.0
H67 H 0.12511 0.92107 0.63616 0.0
H68 H 0.09938 0.85794 0.63644 0.0
C69 C 0.08264 0.85115 0.6245 0.0
O70 O 0.08473 0.87473 0.61707 0.0
H71 H 0.0856 0.83811 0.61327 0.0
C72 C 0.15791 0.93237 0.59534 0.0
C73 C 0.15357 0.93714 0.6143 0.0
C74 C 0.13736 0.90884 0.58335 0.0
C75 C 0.11257 0.88959 0.59086 0.0
C76 C 0.10837 0.89379 0.60992 0.0
C77 C 0.12865 0.91776 0.62151 0.0
H78 H 0.90391 0.40749 0.75809 0.0
H79 H 0.90408 0.4856 0.75839 0.0
H80 H 0.87964 0.43155 0.7064 0.0
H81 H 0.90748 0.49121 0.69967 0.0
C82 C 0.90439 0.49984 0.71337 0.0
O83 O 0.88504 0.47796 0.72264 0.0
H84 H 0.92477 0.51129 0.7224 0.0
C85 C 0.90103 0.42245 0.75041 0.0
C86 C 0.89151 0.41614 0.73082 0.0
C87 C 0.90591 0.44752 0.76049 0.0
C88 C 0.90061 0.46623 0.7509 0.0
C89 C 0.89103 0.46025 0.7315 0.0
C90 C 0.88668 0.43547 0.72148 0.0
H91 H 0.61653 0.51421 0.76731 0.0
H92 H 0.53959 0.43414 0.75841 0.0
H93 H 0.59041 0.46584 0.71229 0.0
H94 H 0.52771 0.43214 0.69986 0.0
C95 C 0.52149 0.42052 0.71275 0.0
O96 O 0.54498 0.42367 0.72299 0.0
H97 H 0.51117 0.42955 0.72147 0.0
C98 C 0.60149 0.49565 0.75808 0.0
C99 C 0.60638 0.4928 0.73891 0.0
C100 C 0.5774 0.47471 0.76539 0.0
C101 C 0.55839 0.45055 0.75326 0.0
C102 C 0.56307 0.44748 0.73421 0.0
C103 C 0.58687 0.46862 0.72701 0.0
H104 H 0.51143 0.10522 0.76994 0.0
H105 H 0.59054 0.10826 0.77158 0.0
H106 H 0.55906 0.12704 0.72106 0.0
H107 H 0.5868 0.09414 0.71411 0.0
C108 C 0.60209 0.10221 0.72705 0.0
O109 O 0.60062 0.12351 0.7372 0.0
H110 H 0.5965 0.08436 0.7359 0.0
C111 C 0.52951 0.10838 0.76289 0.0
C112 C 0.53221 0.1162 0.74412 0.0
C113 C 0.5502 0.10516 0.77291 0.0
C114 C 0.57437 0.11075 0.76418 0.0
C115 C 0.57746 0.11867 0.74556 0.0
C116 C 0.55648 0.12136 0.73556 0.0
H117 H 0.73615 0.57811 0.91425 0.0
H118 H 0.8114 0.57338 0.918 0.0
H119 H 0.76498 0.55946 0.96658 0.0
H120 H 0.82804 0.59065 0.97512 0.0
C121 C 0.83281 0.58151 0.96238 0.0
O122 O 0.80803 0.56017 0.95293 0.0
H123 H 0.8439 0.59838 0.95286 0.0
C124 C 0.75136 0.57516 0.92254 0.0
C125 C 0.7474 0.56865 0.94159 0.0
C126 C 0.77448 0.57722 0.91386 0.0
C127 C 0.79333 0.57181 0.92427 0.0
C128 C 0.78969 0.56533 0.94315 0.0
C129 C 0.76702 0.56399 0.95182 0.0
H130 H 0.45738 0.1789 0.92842 0.0
H131 H 0.45848 0.25766 0.93381 0.0
H132 H 0.47824 0.22744 0.9833 0.0
H133 H 0.45316 0.26277 0.99319 0.0
C134 C 0.45573 0.27234 0.97947 0.0
O135 O 0.47526 0.2691 0.97002 0.0
H136 H 0.43517 0.26146 0.97063 0.0
C137 C 0.45992 0.19688 0.9373 0.0
C138 C 0.46798 0.20006 0.95704 0.0
C139 C 0.4563 0.21742 0.92871 0.0
C140 C 0.46108 0.24151 0.94006 0.0
C141 C 0.46916 0.24503 0.95959 0.0
C142 C 0.47232 0.22434 0.96807 0.0
H143 H 0.84704 0.27952 0.92448 0.0
H144 H 0.76671 0.20353 0.91835 0.0
H145 H 0.79418 0.25724 0.97073 0.0
H146 H 0.76892 0.19461 0.97386 0.0
C147 C 0.75288 0.18681 0.96136 0.0
O148 O 0.75467 0.20963 0.95294 0.0
H149 H 0.75716 0.17377 0.95098 0.0
C150 C 0.82777 0.26551 0.93038 0.0
C151 C 0.8234 0.27205 0.94906 0.0
C152 C 0.80738 0.24112 0.91905 0.0
C153 C 0.78252 0.22265 0.92672 0.0
C154 C 0.77823 0.22822 0.94548 0.0
C155 C 0.7984 0.25295 0.9565 0.0
H156 H 0.56986 0.74193 0.09166 0.0
H157 H 0.5696 0.81986 0.09282 0.0
H158 H 0.54571 0.76686 0.04035 0.0
H159 H 0.57353 0.82616 0.0341 0.0
C160 C 0.57032 0.83482 0.04775 0.0
O161 O 0.55092 0.81297 0.05702 0.0
H162 H 0.59064 0.8463 0.05685 0.0
C163 C 0.56693 0.757 0.08416 0.0
C164 C 0.55756 0.75105 0.06455 0.0
C165 C 0.57161 0.78181 0.09449 0.0
C166 C 0.56625 0.80067 0.08513 0.0
C167 C 0.55681 0.79506 0.0657 0.0
C168 C 0.55263 0.77049 0.05544 0.0
H169 H 0.2834 0.84909 0.1001 0.0
H170 H 0.20753 0.76835 0.09116 0.0
H171 H 0.25806 0.80024 0.0451 0.0
H172 H 0.1977 0.76286 0.0311 0.0
C173 C 0.19085 0.75344 0.0447 0.0
O174 O 0.21388 0.75743 0.0561 0.0
H175 H 0.18083 0.76409 0.05203 0.0
C176 C 0.26855 0.83071 0.09069 0.0
C177 C 0.27389 0.82789 0.07157 0.0
C178 C 0.24465 0.80947 0.098 0.0
C179 C 0.22616 0.78499 0.08599 0.0
C180 C 0.23126 0.78172 0.06711 0.0
C181 C 0.25485 0.80311 0.05988 0.0
H182 H 0.1744 0.43411 0.10108 0.0
H183 H 0.25431 0.43839 0.10542 0.0
H184 H 0.22779 0.46329 0.05557 0.0
H185 H 0.25354 0.42837 0.04822 0.0
C186 C 0.26894 0.43595 0.06108 0.0
O187 O 0.26735 0.45662 0.07198 0.0
H188 H 0.26359 0.41765 0.06942 0.0
C189 C 0.19356 0.4385 0.09501 0.0
C190 C 0.19851 0.44893 0.07705 0.0
C191 C 0.21363 0.43488 0.10552 0.0
C192 C 0.23872 0.44142 0.0977 0.0
C193 C 0.24359 0.4513 0.07964 0.0
C194 C 0.22372 0.45544 0.06947 0.0
H195 H 0.4051 0.91291 0.24666 0.0
H196 H 0.47887 0.90533 0.2528 0.0
H197 H 0.42597 0.8864 0.29823 0.0
H198 H 0.487 0.91523 0.31199 0.0
C199 C 0.49434 0.91019 0.29876 0.0
O200 O 0.47165 0.88959 0.28705 0.0
H201 H 0.50532 0.92987 0.29156 0.0
C202 C 0.41865 0.90757 0.25481 0.0
C203 C 0.41238 0.89894 0.27317 0.0
C204 C 0.4429 0.9105 0.24734 0.0
C205 C 0.46037 0.90384 0.25832 0.0
C206 C 0.45433 0.8954 0.27661 0.0
C207 C 0.43049 0.89307 0.28406 0.0
H208 H 0.12007 0.5068 0.26355 0.0
H209 H 0.12141 0.58565 0.26809 0.0
H210 H 0.14644 0.55894 0.31733 0.0
H211 H 0.12205 0.59462 0.32812 0.0
C212 C 0.12289 0.60308 0.3141 0.0
O213 O 0.14146 0.59939 0.30375 0.0
H214 H 0.10156 0.59141 0.30628 0.0
C215 C 0.12385 0.52551 0.27215 0.0
C216 C 0.13383 0.52995 0.29163 0.0
C217 C 0.11878 0.54517 0.26358 0.0
C218 C 0.12441 0.56985 0.27453 0.0
C219 C 0.13462 0.57476 0.29375 0.0
C220 C 0.13902 0.55483 0.30232 0.0
H221 H 0.50848 0.6157 0.25631 0.0
H222 H 0.43116 0.53659 0.25109 0.0
H223 H 0.46064 0.58721 0.30482 0.0
H224 H 0.43425 0.52614 0.30744 0.0
C225 C 0.419 0.51839 0.29448 0.0
O226 O 0.4201 0.54098 0.28623 0.0
H227 H 0.42501 0.5065 0.28436 0.0
C228 C 0.49073 0.60003 0.26284 0.0
C229 C 0.48761 0.60488 0.28217 0.0
C230 C 0.47078 0.57538 0.25154 0.0
C231 C 0.44681 0.55572 0.25954 0.0
C232 C 0.44325 0.56017 0.27868 0.0
C233 C 0.4636 0.58453 0.28995 0.0
C234 C 0.53516 0.02554 0.06939 0.0
Eu235 Eu 0.51974 0.02317 0.03343 0.0
C236 C 0.52254 0.01236 0.08667 0.0
C237 C 0.51862 0.02827 0.10117 0.0
C238 C 0.50782 0.01667 0.11795 0.0
C239 C 0.50095 0.98896 0.12074 0.0
C240 C 0.50455 0.9729 0.10611 0.0
C241 C 0.51523 0.98447 0.08926 0.0
C242 C 0.50674 0.05922 0.01778 0.0
C243 C 0.45277 0.97713 0.02403 0.0
C244 C 0.47825 1.00496 0.95669 0.0
Eu245 Eu 0.49398 1.0059 0.99239 0.0
C246 C 0.49067 0.01732 0.93911 0.0
C247 C 0.50025 1.00368 0.92679 0.0
C248 C 0.51009 0.01422 0.90954 0.0
C249 C 0.51043 0.03853 0.90413 0.0
C250 C 0.50135 0.05248 0.91662 0.0
C251 C 0.49149 0.04194 0.93389 0.0
C252 C 0.50776 0.96998 0.00756 0.0
C253 C 0.56144 0.05094 1.00196 0.0
O254 O 0.53762 0.00974 0.05593 0.0
O255 O 0.5275 0.04251 0.06262 0.0
O256 O 0.52917 0.06724 0.02913 0.0
O257 O 0.4917 0.03274 0.01575 0.0
O258 O 0.47553 0.98765 0.03615 0.0
O259 O 0.45388 0.98377 0.00628 0.0
O260 O 0.47806 0.02194 0.97039 0.0
O261 O 0.48388 0.98638 0.96315 0.0
O262 O 0.48573 0.96194 0.99576 0.0
O263 O 0.52227 0.9965 0.00997 0.0
O264 O 0.53884 0.04066 0.98965 0.0
O265 O 0.55987 0.04426 0.01971 0.0
H266 H 0.52415 0.04984 0.0996 0.0
H267 H 0.50493 0.02951 0.12877 0.0
H268 H 0.49983 0.95163 0.10787 0.0
H269 H 0.51812 0.97166 0.07841 0.0
H270 H 0.49975 0.98457 0.93029 0.0
H271 H 0.51723 1.00315 0.90034 0.0
H272 H 0.50098 0.07104 0.91277 0.0
H273 H 0.48395 0.05277 0.94295 0.0
C274 C 0.01929 0.53329 0.0691 0.0
Eu275 Eu 1.00831 0.51102 0.03381 0.0
C276 C 0.03045 0.53068 0.08793 0.0
C277 C 0.01663 0.5059 0.09707 0.0
C278 C 0.02655 0.50472 0.11548 0.0
C279 C 0.05052 0.52821 0.12506 0.0
C280 C 0.06466 0.55272 0.1157 0.0
C281 C 0.05465 0.55396 0.09736 0.0
C282 C 0.97036 0.45664 0.02108 0.0
C283 C 0.05049 0.48783 0.02392 0.0
C284 C 0.9991 0.46976 0.95758 0.0
Eu285 Eu 0.01085 0.49349 0.9925 0.0
C286 C 0.98881 0.47194 0.93836 0.0
C287 C 1.0031 0.49637 0.92895 0.0
C288 C 0.99388 0.49699 0.9102 0.0
C289 C 0.97015 0.47326 0.90057 0.0
C290 C 0.95556 0.44912 0.91021 0.0
C291 C 0.96486 0.44846 0.92888 0.0
C292 C 0.04928 0.54763 0.00501 0.0
C293 C 0.96995 0.51874 1.00241 0.0
O294 O 0.03698 0.54347 0.0562 0.0
O295 O 0.99467 0.51272 0.06195 0.0
O296 O 0.96526 0.47186 0.03306 0.0
O297 O 0.99548 0.47005 0.01748 0.0
O298 O 0.04533 0.50395 0.03564 0.0
O299 O 0.03594 0.47675 0.00711 0.0
O300 O 0.98108 0.46146 0.97038 0.0
O301 O 0.0242 0.48955 0.96459 0.0
O302 O 0.05378 0.53222 0.99274 0.0
O303 O 0.02418 0.53468 0.0088 0.0
O304 O 0.9755 0.50341 0.99018 0.0
O305 O 0.98331 0.52795 0.01969 0.0
H306 H 0.99794 0.48755 0.09016 0.0
H307 H 0.01538 0.48544 0.12224 0.0
H308 H 0.08299 0.57128 0.12278 0.0
H309 H 0.06556 0.57336 0.09067 0.0
H310 H 0.02159 0.51486 0.93593 0.0
H311 H 1.00538 0.51598 0.90319 0.0
H312 H 0.93743 0.43037 0.90311 0.0
H313 H 0.95361 0.42933 0.93581 0.0
C314 C 0.48653 0.48757 0.95111 0.0
Eu315 Eu 0.50231 0.51072 0.9862 0.0
C316 C 0.49928 0.48855 0.9331 0.0
C317 C 0.51599 0.51409 0.92536 0.0
C318 C 0.52709 0.51424 0.90798 0.0
C319 C 0.52192 0.48893 0.89812 0.0
C320 C 0.50558 0.46349 0.90607 0.0
C321 C 0.4943 0.46332 0.92334 0.0
C322 C 0.51587 0.56361 0.99901 0.0
C323 C 0.5703 0.53834 0.99481 0.0
C324 C 0.54566 0.55458 0.06188 0.0
Eu325 Eu 0.52984 0.53039 0.02703 0.0
C326 C 0.53353 0.55338 0.08023 0.0
C327 C 0.52259 0.52907 0.09001 0.0
C328 C 0.51278 0.52903 0.10788 0.0
C329 C 0.51357 0.55321 0.1163 0.0
C330 C 0.52394 0.57728 0.1063 0.0
C331 C 0.53391 0.57738 0.0885 0.0
C332 C 0.51596 0.47715 0.01476 0.0
C333 C 0.46156 0.50156 0.01828 0.0
O334 O 0.49295 0.47616 0.96482 0.0
O335 O 0.4856 0.50991 0.95734 0.0
O336 O 0.49319 0.54649 0.98811 0.0
O337 O 0.53076 0.55262 1.00191 0.0
O338 O 0.54737 0.52254 0.98309 0.0
O339 O 0.56936 0.54741 0.01236 0.0
O340 O 0.5378 0.56483 0.04812 0.0
O341 O 0.54794 0.53299 0.05579 0.0
O342 O 0.53793 0.49398 0.02635 0.0
O343 O 0.50139 0.48836 0.01136 0.0
O344 O 0.48439 0.51805 0.02999 0.0
O345 O 0.46296 0.49234 1.0009 0.0
H346 H 0.52039 0.53392 0.93266 0.0
H347 H 0.53984 0.53419 0.90231 0.0
H348 H 0.50097 0.44362 0.89872 0.0
H349 H 0.48146 0.44339 0.92902 0.0
H350 H 0.52189 0.51017 0.08401 0.0
H351 H 0.50464 0.51007 0.11514 0.0
H352 H 0.52514 0.59634 0.11249 0.0
H353 H 0.54238 0.59643 0.08131 0.0
C354 C 0.20416 0.35257 0.40154 0.0
Eu355 Eu 0.18759 0.35313 0.36636 0.0
C356 C 0.19119 0.34011 0.4189 0.0
C357 C 0.17517 0.34918 0.42859 0.0
C358 C 0.16366 0.33757 0.44524 0.0
C359 C 0.16782 0.31657 0.45248 0.0
C360 C 0.18358 0.30731 0.44267 0.0
C361 C 0.19525 0.31906 0.42611 0.0
C362 C 0.17402 0.38995 0.35266 0.0
C363 C 0.11995 0.3085 0.35797 0.0
C364 C 0.14244 0.33773 0.29063 0.0
Eu365 Eu 0.15993 0.33746 0.32565 0.0
C366 C 0.15356 0.35055 0.27294 0.0
C367 C 0.17026 0.34318 0.26255 0.0
C368 C 0.17871 0.35388 0.24508 0.0
C369 C 0.17065 0.37218 0.23762 0.0
C370 C 0.15459 0.38011 0.24832 0.0
C371 C 0.14605 0.36932 0.26574 0.0
C372 C 0.17415 0.30087 0.33912 0.0
C373 C 0.22772 0.38146 0.3342 0.0
O374 O 0.20237 0.33496 0.38749 0.0
O375 O 0.20051 0.37269 0.39563 0.0
O376 O 0.19675 0.39755 0.36359 0.0
O377 O 0.15899 0.36348 0.35017 0.0
O378 O 0.14301 0.3189 0.36979 0.0
O379 O 0.12053 0.31509 0.34022 0.0
O380 O 0.14322 0.3545 0.30489 0.0
O381 O 0.14838 0.3189 0.29617 0.0
O382 O 0.15159 0.29316 0.32796 0.0
O383 O 0.18875 0.32734 0.34176 0.0
O384 O 0.20462 0.37244 0.32258 0.0
O385 O 0.22681 0.37348 0.35157 0.0
H386 H 0.17156 0.36533 0.42341 0.0
H387 H 0.1514 0.34493 0.4524 0.0
H388 H 0.18744 0.29141 0.44803 0.0
H389 H 0.20764 0.3118 0.41898 0.0
H390 H 0.17637 0.32869 0.26767 0.0
H391 H 0.1908 0.34707 0.23714 0.0
H392 H 0.1484 0.39452 0.24317 0.0
H393 H 0.13317 0.37533 0.27345 0.0
C394 C 0.68279 0.86694 0.40192 0.0
Eu395 Eu 0.67359 0.84506 0.36663 0.0
C396 C 0.69296 0.86404 0.42103 0.0
C397 C 0.67669 0.84062 0.43095 0.0
C398 C 0.68581 0.83924 0.44954 0.0
C399 C 0.71139 0.86121 0.45859 0.0
C400 C 0.72786 0.88436 0.44852 0.0
C401 C 0.71868 0.8858 0.42998 0.0
C402 C 0.63453 0.7911 0.35389 0.0
C403 C 0.71528 0.82074 0.35829 0.0
C404 C 0.66545 0.80201 0.29138 0.0
Eu405 Eu 0.67671 0.82627 0.32612 0.0
C406 C 0.65474 0.80387 0.2722 0.0
C407 C 0.66824 0.82855 0.26292 0.0
C408 C 0.6588 0.82903 0.2442 0.0
C409 C 0.63562 0.80493 0.23446 0.0
C410 C 0.62175 0.78051 0.24396 0.0
C411 C 0.63129 0.77998 0.26261 0.0
C412 C 0.71599 0.88034 0.33828 0.0
C413 C 0.63702 0.85339 0.33456 0.0
O414 O 0.70117 0.87732 0.38945 0.0
O415 O 0.65847 0.84645 0.39426 0.0
O416 O 0.62935 0.80758 0.36452 0.0
O417 O 0.66001 0.8033 0.35113 0.0
O418 O 0.71018 0.83739 0.36951 0.0
O419 O 0.70099 0.80931 0.34146 0.0
O420 O 0.64758 0.79312 0.30427 0.0
O421 O 0.69028 0.82244 0.29831 0.0
O422 O 0.7204 0.8641 0.32671 0.0
O423 O 0.69072 0.86817 0.34164 0.0
O424 O 0.64154 0.83652 0.32302 0.0
O425 O 0.65106 0.86368 0.35156 0.0
H426 H 0.65672 0.82349 0.4245 0.0
H427 H 0.6728 0.821 0.45685 0.0
H428 H 0.74748 0.90179 0.45518 0.0
H429 H 0.73149 0.90423 0.42275 0.0
H430 H 0.68632 0.84737 0.26998 0.0
H431 H 0.66972 0.84824 0.23732 0.0
H432 H 0.60404 0.7615 0.23676 0.0
H433 H 0.62064 0.76068 0.26943 0.0
C434 C 0.1507 0.81806 0.28328 0.0
Eu435 Eu 0.16685 0.84118 0.31836 0.0
C436 C 0.16346 0.81962 0.26519 0.0
C437 C 0.17951 0.84537 0.25751 0.0
C438 C 0.19088 0.8461 0.24016 0.0
C439 C 0.18668 0.82118 0.23028 0.0
C440 C 0.17093 0.79553 0.23814 0.0
C441 C 0.15937 0.79478 0.25538 0.0
C442 C 0.18001 0.89394 0.33125 0.0
C443 C 0.23503 0.86931 0.32612 0.0
C444 C 0.21224 0.88564 0.39368 0.0
Eu445 Eu 0.1954 0.86127 0.3589 0.0
C446 C 0.20047 0.88587 0.41194 0.0
C447 C 0.18299 0.86083 0.41996 0.0
C448 C 0.17337 0.86178 0.43778 0.0
C449 C 0.18084 0.88774 0.44783 0.0
C450 C 0.19781 0.9127 0.43954 0.0
C451 C 0.20758 0.91175 0.42181 0.0
C452 C 0.18212 0.80825 0.34644 0.0
C453 C 0.12702 0.83187 0.351 0.0
O454 O 0.1577 0.80686 0.29684 0.0
O455 O 0.14919 0.83998 0.28971 0.0
O456 O 0.15716 0.87655 0.3206 0.0
O457 O 0.19525 0.88326 0.33387 0.0
O458 O 0.21187 0.85359 0.3146 0.0
O459 O 0.23455 0.87815 0.34383 0.0
O460 O 0.20576 0.89675 0.3798 0.0
O461 O 0.21235 0.86274 0.38779 0.0
O462 O 0.20438 0.82547 0.35767 0.0
O463 O 0.16704 0.81903 0.34341 0.0
O464 O 0.15009 0.84911 0.3623 0.0
O465 O 0.12807 0.82214 0.33369 0.0
H466 H 0.18323 0.86493 0.26484 0.0
H467 H 0.20315 0.86621 0.23455 0.0
H468 H 0.16706 0.77594 0.23078 0.0
H469 H 0.14706 0.77469 0.26101 0.0
H470 H 0.17696 0.84053 0.41259 0.0
H471 H 0.16006 0.84219 0.44369 0.0
H472 H 0.20417 0.93304 0.447 0.0
H473 H 0.22106 0.93132 0.41591 0.0
C474 C 0.86755 0.68793 0.73537 0.0
Eu475 Eu 0.8521 0.68726 0.69966 0.0
C476 C 0.85437 0.6748 0.75255 0.0
C477 C 0.84051 0.68536 0.76342 0.0
C478 C 0.82911 0.67347 0.78001 0.0
C479 C 0.83133 0.65078 0.78614 0.0
C480 C 0.84495 0.64005 0.77517 0.0
C481 C 0.85645 0.65201 0.75862 0.0
C482 C 0.83797 0.72289 0.68454 0.0
C483 C 0.78504 0.64091 0.6902 0.0
C484 C 0.81077 0.66683 0.6225 0.0
Eu485 Eu 0.82637 0.66969 0.65854 0.0
C486 C 0.82216 0.68135 0.60534 0.0
C487 C 0.83405 0.67087 0.59248 0.0
C488 C 0.84322 0.68334 0.57565 0.0
C489 C 0.84049 0.70643 0.57118 0.0
C490 C 0.82892 0.71714 0.58415 0.0
C491 C 0.81981 0.70473 0.60103 0.0
C492 C 0.84077 0.6344 0.67399 0.0
C493 C 0.89309 0.71652 0.66816 0.0
O494 O 0.8681 0.67126 0.72161 0.0
O495 O 0.86208 0.70665 0.72896 0.0
O496 O 0.85986 0.73105 0.69652 0.0
O497 O 0.82364 0.69634 0.68191 0.0
O498 O 0.8077 0.65235 0.7025 0.0
O499 O 0.78617 0.64658 0.67222 0.0
O500 O 0.80586 0.68055 0.63607 0.0
O501 O 0.82132 0.6521 0.62916 0.0
O502 O 0.81842 0.62599 0.66245 0.0
O503 O 0.85507 0.66094 0.67618 0.0
O504 O 0.87023 0.70647 0.65614 0.0
O505 O 0.892 0.70907 0.68569 0.0
H506 H 0.83861 0.70297 0.75922 0.0
H507 H 0.81851 0.68204 0.78805 0.0
H508 H 0.84737 0.62285 0.77965 0.0
H509 H 0.86726 0.64359 0.75067 0.0
H510 H 0.83581 0.65266 0.59524 0.0
H511 H 0.85165 0.67432 0.56583 0.0
H512 H 0.82677 0.73508 0.5812 0.0
H513 H 0.81058 0.71322 0.61056 0.0
C514 C 0.35026 0.19732 0.73426 0.0
Eu515 Eu 0.34067 0.17605 0.69882 0.0
C516 C 0.36391 0.19742 0.75289 0.0
C517 C 0.35402 0.17305 0.76254 0.0
C518 C 0.36581 0.1744 0.78092 0.0
C519 C 0.38768 0.20012 0.79002 0.0
C520 C 0.39806 0.22423 0.78006 0.0
C521 C 0.38623 0.2229 0.76175 0.0
C522 C 0.30192 0.12317 0.68408 0.0
C523 C 0.38258 0.15214 0.68929 0.0
C524 C 0.33598 0.14033 0.62187 0.0
Eu525 Eu 0.34567 0.16131 0.65743 0.0
C526 C 0.32429 0.14209 0.60296 0.0
C527 C 0.33832 0.16593 0.59294 0.0
C528 C 0.32811 0.16601 0.57435 0.0
C529 C 0.30367 0.1423 0.56543 0.0
C530 C 0.2893 0.11878 0.57569 0.0
C531 C 0.29956 0.11865 0.59421 0.0
C532 C 0.38424 0.21428 0.67214 0.0
C533 C 0.30418 0.186 0.66724 0.0
O534 O 0.36666 0.21003 0.72107 0.0
O535 O 0.32735 0.17417 0.72742 0.0
O536 O 0.29681 0.13827 0.6962 0.0
O537 O 0.32746 0.13584 0.68124 0.0
O538 O 0.37574 0.16616 0.70163 0.0
O539 O 0.37093 0.14438 0.6715 0.0
O540 O 0.31835 0.12893 0.63465 0.0
O541 O 0.35992 0.16185 0.6292 0.0
O542 O 0.38941 0.19929 0.65997 0.0
O543 O 0.35869 0.20148 0.67488 0.0
O544 O 0.31103 0.17225 0.65463 0.0
O545 O 0.31575 0.19317 0.68503 0.0
H546 H 0.33678 0.15308 0.75611 0.0
H547 H 0.35714 0.15548 0.78824 0.0
H548 H 0.41521 0.24427 0.78649 0.0
H549 H 0.39421 0.24199 0.75463 0.0
H550 H 0.35746 0.18434 0.59927 0.0
H551 H 0.3395 0.18455 0.56689 0.0
H552 H 0.27064 0.10003 0.56914 0.0
H553 H 0.2885 0.09989 0.60153 0.0
C554 C 0.81903 0.15209 0.61797 0.0
Eu555 Eu 0.8354 0.17509 0.65308 0.0
C556 C 0.8311 0.15279 0.5997 0.0
C557 C 0.84777 0.17817 0.5918 0.0
C558 C 0.85777 0.17799 0.57401 0.0
C559 C 0.85143 0.15244 0.56381 0.0
C560 C 0.83536 0.12717 0.57207 0.0
C561 C 0.82524 0.12737 0.58976 0.0
C562 C 0.8486 0.22775 0.66623 0.0
C563 C 0.90347 0.20322 0.6611 0.0
C564 C 0.87997 0.21871 0.72868 0.0
Eu565 Eu 0.8635 0.1947 0.69379 0.0
C566 C 0.86839 0.21784 0.74722 0.0
C567 C 0.85703 0.19347 0.75694 0.0
C568 C 0.84785 0.19373 0.775 0.0
C569 C 0.84969 0.2183 0.78369 0.0
C570 C 0.86051 0.24246 0.77377 0.0
C571 C 0.86985 0.24225 0.75577 0.0
C572 C 0.85038 0.14186 0.68109 0.0
C573 C 0.79505 0.16531 0.68551 0.0
O574 O 0.82564 0.14058 0.63152 0.0
O575 O 0.81845 0.17455 0.62435 0.0
O576 O 0.8258 0.21052 0.65547 0.0
O577 O 0.86373 0.21697 0.66884 0.0
O578 O 0.8804 0.1873 0.64954 0.0
O579 O 0.90277 0.21213 0.67876 0.0
O580 O 0.87215 0.2292 0.71506 0.0
O581 O 0.88168 0.19685 0.72243 0.0
O582 O 0.87244 0.15888 0.69255 0.0
O583 O 0.83533 0.15266 0.67803 0.0
O584 O 0.81797 0.18191 0.69713 0.0
O585 O 0.79635 0.15624 0.66806 0.0
H586 H 0.85277 0.19815 0.5992 0.0
H587 H 0.86987 0.19782 0.56805 0.0
H588 H 0.83053 0.10715 0.56485 0.0
H589 H 0.81258 0.10755 0.59563 0.0
H590 H 0.85552 0.17426 0.75073 0.0
H591 H 0.83933 0.17469 0.78219 0.0
H592 H 0.86252 0.26182 0.78015 0.0
H593 H 0.87868 0.26136 0.74864 0.0
H594 H 0.30617 0.82205 0.04532 0.0
H595 H 0.30002 0.88536 0.08048 0.0
H596 H 0.34786 0.85892 0.03312 0.0
H597 H 0.34262 0.92194 0.06891 0.0
H598 H 0.43902 0.96987 0.06071 0.0
H599 H 0.395 0.93453 0.07165 0.0
H600 H 0.36115 0.90202 0.01324 0.0
H601 H 0.40506 0.93771 1.00218 0.0
C602 C 0.31342 0.84374 0.05036 0.0
C603 C 0.29946 0.85051 0.06396 0.0
C604 C 0.33746 0.86487 0.0434 0.0
C605 C 0.34848 0.89326 0.05009 0.0
C606 C 0.33471 0.90017 0.06364 0.0
C607 C 0.31036 0.87911 0.07036 0.0
C608 C 0.42213 0.95534 0.05017 0.0
C609 C 0.42553 0.95663 0.03056 0.0
C610 C 0.3969 0.93519 0.05646 0.0
C611 C 0.3747 0.91552 0.0433 0.0
C612 C 0.378 0.91685 0.02369 0.0
C613 C 0.40306 0.93738 0.01737 0.0
H614 H 0.20709 0.4968 0.06203 0.0
H615 H 0.14264 0.41191 0.06894 0.0
H616 H 0.17168 0.50606 0.04751 0.0
H617 H 0.10727 0.42106 0.05424 0.0
H618 H 0.05744 0.44423 0.01054 0.0
H619 H 0.09403 0.43427 0.02158 0.0
H620 H 0.13052 0.50828 0.06204 0.0
H621 H 0.09393 0.51805 0.05131 0.0
C622 C 0.18541 0.48002 0.06015 0.0
C623 C 0.17753 0.45368 0.06664 0.0
C624 C 0.16518 0.48536 0.05197 0.0
C625 C 0.13678 0.46428 0.04982 0.0
C626 C 0.12904 0.4376 0.05563 0.0
C627 C 0.1492 0.43243 0.06412 0.0
C628 C 0.07333 0.4584 0.02174 0.0
C629 C 0.07275 0.48186 0.03011 0.0
C630 C 0.09417 0.45265 0.02808 0.0
C631 C 0.11511 0.47059 0.04259 0.0
C632 C 0.11478 0.49427 0.0507 0.0
C633 C 0.09371 0.49972 0.04464 0.0
H634 H 0.51748 0.7186 0.0348 0.0
H635 H 0.58612 0.72264 0.06988 0.0
H636 H 0.50898 0.67511 0.01788 0.0
H637 H 0.57567 0.67769 0.05442 0.0
H638 H 0.56688 0.60723 0.01346 0.0
H639 H 0.57791 0.65333 0.02783 0.0
H640 H 0.4901 0.62775 0.02 0.0
H641 H 0.47972 0.58254 0.00445 0.0
C642 C 0.53082 0.71033 0.03896 0.0
C643 C 0.55248 0.72438 0.05387 0.0
C644 C 0.52555 0.6849 0.02945 0.0
C645 C 0.54138 0.67241 0.03479 0.0
C646 C 0.56316 0.68659 0.0496 0.0
C647 C 0.56883 0.71231 0.05881 0.0
C648 C 0.55006 0.61168 0.01473 0.0
C649 C 0.52251 0.59147 0.00778 0.0
C650 C 0.55628 0.63804 0.02314 0.0
C651 C 0.53494 0.64457 0.02522 0.0
C652 C 0.50729 0.62401 0.01832 0.0
C653 C 0.50122 0.59792 0.00952 0.0
H654 H 0.83773 0.28192 0.98809 0.0
H655 H 0.85793 0.32353 0.93623 0.0
H656 H 0.87289 0.32586 0.00646 0.0
H657 H 0.89413 0.36652 0.95459 0.0
H658 H 0.97767 0.42399 0.99406 0.0
H659 H 0.94182 0.37902 0.97704 0.0
H660 H 0.87997 0.37944 0.01134 0.0
H661 H 0.91555 0.42513 0.02782 0.0
C662 C 0.84945 0.30027 0.98054 0.0
C663 C 0.84487 0.29883 0.96053 0.0
C664 C 0.86974 0.32537 0.99111 0.0
C665 C 0.88631 0.3494 0.98188 0.0
C666 C 0.88187 0.34812 0.96199 0.0
C667 C 0.8612 0.32331 0.95148 0.0
C668 C 0.9564 0.41458 0.9979 0.0
C669 C 0.94928 0.4283 0.01202 0.0
C670 C 0.93596 0.38884 0.98821 0.0
C671 C 0.90818 0.37591 0.99286 0.0
C672 C 0.90127 0.389 0.00754 0.0
C673 C 0.92159 0.41511 0.01692 0.0
H674 H 0.72167 0.59977 0.93619 0.0
H675 H 0.71687 0.53256 0.96761 0.0
H676 H 0.67972 0.59415 0.94952 0.0
H677 H 0.67588 0.5283 0.98167 0.0
H678 H 0.61908 0.55186 0.01585 0.0
H679 H 0.66324 0.56092 0.00382 0.0
H680 H 0.62721 0.551 0.94607 0.0
H681 H 0.58299 0.54134 0.95794 0.0
C682 C 0.71178 0.58379 0.94588 0.0
C683 C 0.72272 0.56646 0.95063 0.0
C684 C 0.68787 0.58079 0.95363 0.0
C685 C 0.67468 0.56085 0.96662 0.0
C686 C 0.6859 0.54406 0.97183 0.0
C687 C 0.70949 0.54665 0.96381 0.0
C688 C 0.6207 0.55185 1.0006 0.0
C689 C 0.5976 0.54586 0.98783 0.0
C690 C 0.64587 0.55688 0.99375 0.0
C691 C 0.64853 0.55665 0.97405 0.0
C692 C 0.62571 0.55146 0.96133 0.0
C693 C 0.60041 0.54583 0.96813 0.0
H694 H 0.50698 0.20881 0.98647 0.0
H695 H 0.44 0.1425 0.94788 0.0
H696 H 0.51465 0.17437 1.00112 0.0
H697 H 0.4496 0.10827 0.96134 0.0
H698 H 0.45616 0.04919 1.00168 0.0
H699 H 0.44595 0.08271 0.98723 0.0
H700 H 0.53381 0.14617 0.99659 0.0
H701 H 0.54337 0.11316 0.012 0.0
C702 C 0.4938 0.1869 0.98106 0.0
C703 C 0.47276 0.17865 0.96594 0.0
C704 C 0.49863 0.16706 0.98926 0.0
C705 C 0.48302 0.13836 0.98235 0.0
C706 C 0.46192 0.13005 0.96725 0.0
C707 C 0.45671 0.14987 0.95927 0.0
C708 C 0.47317 0.07037 1.00063 0.0
C709 C 0.50047 0.07875 0.00813 0.0
C710 C 0.46741 0.08959 0.99223 0.0
C711 C 0.48898 0.11743 0.99083 0.0
C712 C 0.51644 0.1253 0.99786 0.0
C713 C 0.52203 0.1063 0.00658 0.0
H714 H 0.73958 0.15273 0.99002 0.0
H715 H 0.70133 0.17751 0.94612 0.0
H716 H 0.69358 0.11981 0.9994 0.0
H717 H 0.65518 0.14546 0.95597 0.0
H718 H 0.57523 0.06409 0.96566 0.0
H719 H 0.621 0.09711 0.95584 0.0
H720 H 0.65591 0.11723 0.01481 0.0
H721 H 0.61057 0.08356 0.02447 0.0
C722 C 0.72129 0.15153 0.98265 0.0
C723 C 0.72416 0.16831 0.96774 0.0
C724 C 0.69487 0.13272 0.98805 0.0
C725 C 0.6705 0.13009 0.97862 0.0
C726 C 0.67338 0.14672 0.96351 0.0
C727 C 0.69988 0.16541 0.95801 0.0
C728 C 0.59272 0.07551 0.97651 0.0
C729 C 0.58922 0.07098 0.99584 0.0
C730 C 0.61897 0.09465 0.9709 0.0
C731 C 0.64233 0.10992 0.9845 0.0
C732 C 0.63865 0.10552 0.00385 0.0
C733 C 0.61252 0.08623 0.00942 0.0
H734 H 0.83533 0.53574 0.94632 0.0
H735 H 0.87473 0.60413 0.99124 0.0
H736 H 0.86744 0.51973 0.95612 0.0
H737 H 0.90784 0.58908 1.00053 0.0
H738 H 0.9453 0.54 0.0251 0.0
H739 H 0.91145 0.55377 0.01548 0.0
H740 H 0.91444 0.53066 0.95636 0.0
H741 H 0.94752 0.51577 0.96613 0.0
C742 C 0.85075 0.54725 0.95839 0.0
C743 C 0.85195 0.57068 0.96845 0.0
C744 C 0.86945 0.53829 0.96387 0.0
C745 C 0.89019 0.55294 0.97924 0.0
C746 C 0.89174 0.5768 0.98895 0.0
C747 C 0.87286 0.58554 0.98361 0.0
C748 C 0.93872 0.53782 0.01004 0.0
C749 C 0.94918 0.52686 0.99638 0.0
C750 C 0.91939 0.5459 0.00449 0.0
C751 C 0.91025 0.54355 0.98511 0.0
C752 C 0.92065 0.53242 0.97144 0.0
C753 C 0.93976 0.52402 0.97702 0.0
H754 H 0.42302 0.29526 0.98608 0.0
H755 H 0.50948 0.31874 0.98327 0.0
H756 H 0.43725 0.34455 0.99435 0.0
H757 H 0.52368 0.368 0.9906 0.0
H758 H 0.54278 0.44918 0.02465 0.0
H759 H 0.52815 0.40005 0.01597 0.0
H760 H 0.45517 0.38921 0.98237 0.0
H761 H 0.46931 0.43818 0.99189 0.0
C762 C 0.44503 0.31106 0.98692 0.0
C763 C 0.465 0.30316 0.98359 0.0
C764 C 0.45321 0.33934 0.99155 0.0
C765 C 0.48164 0.36042 0.99305 0.0
C766 C 0.50163 0.35241 0.9898 0.0
C767 C 0.49345 0.32412 0.98535 0.0
C768 C 0.52361 0.43627 0.01542 0.0
C769 C 0.50721 0.4475 0.00892 0.0
C770 C 0.5153 0.40811 0.01029 0.0
C771 C 0.49049 0.39053 0.99837 0.0
C772 C 0.47419 0.40194 0.99177 0.0
C773 C 0.4824 0.43008 0.99707 0.0
H774 H 0.13382 0.72793 0.0394 0.0
H775 H 0.20065 0.7093 0.03876 0.0
H776 H 0.09961 0.67833 0.03026 0.0
H777 H 0.16655 0.65955 0.03044 0.0
H778 H 0.10187 0.57904 0.99456 0.0
H779 H 0.1357 0.62829 0.00458 0.0
H780 H 0.0773 0.63249 0.0409 0.0
H781 H 0.043 0.58335 0.03015 0.0
C782 C 0.14112 0.71309 0.03764 0.0
C783 C 0.16984 0.7224 0.04024 0.0
C784 C 0.12152 0.68462 0.03249 0.0
C785 C 0.1302 0.66475 0.02969 0.0
C786 C 0.15903 0.67419 0.03226 0.0
C787 C 0.17861 0.70269 0.03726 0.0
C788 C 0.09627 0.59051 0.00468 0.0
C789 C 0.0698 0.57739 0.01156 0.0
C790 C 0.11577 0.61874 0.01056 0.0
C791 C 0.10938 0.63451 0.02364 0.0
C792 C 0.08287 0.62119 0.03062 0.0
C793 C 0.06326 0.59297 0.02459 0.0
H794 H 0.28877 0.45776 0.02764 0.0
H795 H 0.31463 0.44066 0.08162 0.0
H796 H 0.33574 0.47498 0.01769 0.0
H797 H 0.36161 0.45747 0.07167 0.0
H798 H 0.44965 0.51405 0.05353 0.0
H799 H 0.4037 0.4999 0.06418 0.0
H800 H 0.36453 0.45487 0.00882 0.0
H801 H 0.41031 0.46928 0.99806 0.0
C802 C 0.30457 0.45765 0.03732 0.0
C803 C 0.29808 0.44742 0.05522 0.0
C804 C 0.33139 0.46738 0.03163 0.0
C805 C 0.35234 0.46731 0.0438 0.0
C806 C 0.34601 0.45792 0.06199 0.0
C807 C 0.31914 0.44814 0.06765 0.0
C808 C 0.43124 0.50114 0.04362 0.0
C809 C 0.43371 0.4928 0.02493 0.0
C810 C 0.40489 0.49294 0.04976 0.0
C811 C 0.38044 0.47632 0.03734 0.0
C812 C 0.38295 0.46802 0.01866 0.0
C813 C 0.40924 0.47613 0.01254 0.0
H814 H 0.51631 0.82626 0.04502 0.0
H815 H 0.60211 0.88893 0.03953 0.0
H816 H 0.50147 0.8594 0.0369 0.0
H817 H 0.58719 0.92185 0.03052 0.0
H818 H 0.55494 0.98321 0.03057 0.0
H819 H 0.5695 0.95091 0.04171 0.0
H820 H 0.49565 0.88093 0.01052 0.0
H821 H 0.48064 0.91308 1.00023 0.0
C822 C 0.53207 0.84721 0.0422 0.0
C823 C 0.56055 0.85524 0.04337 0.0
C824 C 0.52351 0.86617 0.03732 0.0
C825 C 0.5431 0.89343 0.03306 0.0
C826 C 0.57154 0.9013 0.03408 0.0
C827 C 0.58012 0.88241 0.03914 0.0
C828 C 0.54173 0.96088 0.02631 0.0
C829 C 0.51662 0.95064 0.01461 0.0
C830 C 0.55018 0.94236 0.03253 0.0
C831 C 0.53379 0.91321 0.02703 0.0
C832 C 0.5086 0.9031 0.01536 0.0
C833 C 0.50007 0.92158 0.00931 0.0
H834 H 0.97458 0.15399 0.38108 0.0
H835 H 0.96658 0.2179 0.41402 0.0
H836 H 0.01657 0.19063 0.36903 0.0
H837 H 0.00958 0.25425 0.40271 0.0
H838 H 0.10673 0.30218 0.39483 0.0
H839 H 0.06286 0.26704 0.40618 0.0
H840 H 0.0285 0.23314 0.34803 0.0
H841 H 0.07214 0.26862 0.33657 0.0
C842 C 0.98151 0.17575 0.38569 0.0
C843 C 0.96686 0.18275 0.39856 0.0
C844 C 1.00573 0.19673 0.37883 0.0
C845 C 0.01628 0.22523 0.38494 0.0
C846 C 1.00198 0.23239 0.3979 0.0
C847 C 0.97743 0.21145 0.40448 0.0
C848 C 0.08975 0.28738 0.38445 0.0
C849 C 0.09289 0.28821 0.36479 0.0
C850 C 0.06463 0.26736 0.39096 0.0
C851 C 0.04237 0.24737 0.37798 0.0
C852 C 0.04542 0.24825 0.35833 0.0
C853 C 0.07032 0.26865 0.35179 0.0
H854 H 0.87373 0.83362 0.39587 0.0
H855 H 0.81086 0.74898 0.40481 0.0
H856 H 0.83724 0.84147 0.38143 0.0
H857 H 0.77444 0.75668 0.39016 0.0
H858 H 0.7226 0.77701 0.34584 0.0
H859 H 0.75989 0.76816 0.35708 0.0
H860 H 0.79596 0.84331 0.39645 0.0
H861 H 0.75866 0.85197 0.38554 0.0
C862 C 0.85216 0.8166 0.39445 0.0
C863 C 0.84502 0.79075 0.40147 0.0
C864 C 0.83133 0.82112 0.38632 0.0
C865 C 0.80308 0.79969 0.38475 0.0
C866 C 0.79608 0.77347 0.3911 0.0
C867 C 0.81684 0.76913 0.39955 0.0
C868 C 0.73851 0.79162 0.35688 0.0
C869 C 0.73765 0.81511 0.36486 0.0
C870 C 0.75977 0.78652 0.36331 0.0
C871 C 0.78082 0.80515 0.37754 0.0
C872 C 0.78013 0.82879 0.38533 0.0
C873 C 0.75864 0.83359 0.37918 0.0
H874 H 0.18175 0.04936 0.36603 0.0
H875 H 0.24943 0.053 0.40202 0.0
H876 H 0.17321 1.00563 0.3494 0.0
H877 H 0.23903 0.00794 0.38674 0.0
H878 H 0.23094 0.93767 0.34581 0.0
H879 H 0.24181 0.98377 0.36011 0.0
H880 H 0.15403 0.95812 0.35184 0.0
H881 H 0.14378 0.91284 0.33646 0.0
C882 C 0.19486 0.04094 0.37045 0.0
C883 C 0.21626 0.05495 0.38552 0.0
C884 C 0.18959 0.01541 0.36109 0.0
C885 C 0.2052 1.00281 0.36673 0.0
C886 C 0.22671 0.01694 0.38171 0.0
C887 C 0.23235 0.04272 0.3908 0.0
C888 C 0.21408 0.94208 0.34698 0.0
C889 C 0.18657 0.92181 0.33997 0.0
C890 C 0.22021 0.96845 0.35533 0.0
C891 C 0.19884 0.97495 0.35726 0.0
C892 C 0.17123 0.95436 0.3503 0.0
C893 C 0.16524 0.92824 0.34158 0.0
H894 H 0.48049 0.63527 0.31165 0.0
H895 H 0.54453 0.63458 0.27969 0.0
H896 H 0.51573 0.67822 0.33026 0.0
H897 H 0.57909 0.67903 0.29673 0.0
H898 H 0.64222 0.74874 0.33963 0.0
H899 H 0.60695 0.70279 0.32403 0.0
H900 H 0.5435 0.72583 0.33009 0.0
H901 H 0.57865 0.77079 0.34694 0.0
C902 C 0.50202 0.64418 0.30851 0.0
C903 C 0.50935 0.63121 0.29394 0.0
C904 C 0.52232 0.66931 0.31901 0.0
C905 C 0.55052 0.68263 0.31503 0.0
C906 C 0.55783 0.6695 0.30056 0.0
C907 C 0.53769 0.64406 0.2904 0.0
C908 C 0.62063 0.74373 0.33773 0.0
C909 C 0.61309 0.76318 0.34455 0.0
C910 C 0.60034 0.71745 0.3286 0.0
C911 C 0.57207 0.71025 0.32559 0.0
C912 C 0.56475 0.73003 0.33243 0.0
C913 C 0.58495 0.756 0.34199 0.0
H914 H 0.35876 0.8686 0.25683 0.0
H915 H 0.40889 0.92289 0.30707 0.0
H916 H 0.3166 0.86262 0.26991 0.0
H917 H 0.36701 0.91847 0.31986 0.0
H918 H 0.28374 0.881 0.34631 0.0
H919 H 0.32679 0.88874 0.33364 0.0
H920 H 0.29055 0.8835 0.27652 0.0
H921 H 0.24713 0.87404 0.28918 0.0
C922 C 0.36069 0.87957 0.27059 0.0
C923 C 0.38696 0.89614 0.28098 0.0
C924 C 0.33657 0.87637 0.27808 0.0
C925 C 0.33819 0.89017 0.29599 0.0
C926 C 0.36471 0.90706 0.30623 0.0
C927 C 0.38878 0.90978 0.29888 0.0
C928 C 0.28515 0.8817 0.33107 0.0
C929 C 0.26207 0.87676 0.31873 0.0
C930 C 0.3099 0.88628 0.32376 0.0
C931 C 0.3123 0.88657 0.30396 0.0
C932 C 0.2894 0.88266 0.29176 0.0
C933 C 0.26451 0.87749 0.29903 0.0
H934 H 0.10519 0.47211 0.28388 0.0
H935 H 0.17474 0.53981 0.32002 0.0
H936 H 0.11532 0.43845 0.29753 0.0
H937 H 0.18295 0.50594 0.33506 0.0
H938 H 0.21074 0.44386 0.3466 0.0
H939 H 0.20106 0.47686 0.33126 0.0
H940 H 0.11288 0.41406 0.32351 0.0
H941 H 0.1232 0.38056 0.33778 0.0
C942 C 0.12262 0.47994 0.29476 0.0
C943 C 0.13919 0.50895 0.30066 0.0
C944 C 0.12813 0.46043 0.3029 0.0
C945 C 0.15003 0.46922 0.31749 0.0
C946 C 0.16625 0.49818 0.32362 0.0
C947 C 0.16114 0.51773 0.3152 0.0
C948 C 0.18931 0.43718 0.34157 0.0
C949 C 0.16769 0.40976 0.34344 0.0
C950 C 0.18364 0.45618 0.33289 0.0
C951 C 0.15607 0.44847 0.32623 0.0
C952 C 0.13444 0.42083 0.32813 0.0
C953 C 0.14025 0.40161 0.33646 0.0
H954 H 0.37483 0.47445 0.27228 0.0
H955 H 0.39752 0.51955 0.32837 0.0
H956 H 0.32825 0.44159 0.28136 0.0
H957 H 0.35089 0.48715 0.33747 0.0
H958 H 0.27924 0.40494 0.35427 0.0
H959 H 0.32445 0.43838 0.34421 0.0
H960 H 0.28428 0.43741 0.28967 0.0
H961 H 0.23887 0.40345 0.29962 0.0
C962 C 0.36971 0.47734 0.28653 0.0
C963 C 0.38986 0.4991 0.29977 0.0
C964 C 0.34302 0.45868 0.29171 0.0
C965 C 0.33588 0.46151 0.31023 0.0
C966 C 0.35585 0.48396 0.32323 0.0
C967 C 0.38249 0.50261 0.31803 0.0
C968 C 0.27995 0.41175 0.3401 0.0
C969 C 0.25532 0.40143 0.32777 0.0
C970 C 0.30593 0.43115 0.33438 0.0
C971 C 0.30805 0.44078 0.31617 0.0
C972 C 0.28346 0.43028 0.30374 0.0
C973 C 0.25739 0.41088 0.30949 0.0
H974 H 0.50194 0.88987 0.33175 0.0
H975 H 0.53124 0.90721 0.27599 0.0
H976 H 0.53563 0.87483 0.33962 0.0
H977 H 0.56535 0.89248 0.28386 0.0
H978 H 0.60482 0.83868 0.30019 0.0
H979 H 0.56931 0.85089 0.29095 0.0
H980 H 0.58665 0.89825 0.3459 0.0
H981 H 0.62166 0.88593 0.35521 0.0
C982 C 0.5157 0.8905 0.32122 0.0
C983 C 0.51448 0.90016 0.30342 0.0
C984 C 0.53503 0.88199 0.32572 0.0
C985 C 0.55338 0.88277 0.31244 0.0
C986 C 0.55144 0.89155 0.29436 0.0
C987 C 0.53213 0.90014 0.2899 0.0
C988 C 0.60107 0.85173 0.31027 0.0
C989 C 0.61607 0.86128 0.32845 0.0
C990 C 0.5808 0.85879 0.30495 0.0
C991 C 0.57503 0.87536 0.31775 0.0
C992 C 0.59023 0.88505 0.33583 0.0
C993 C 0.61049 0.87813 0.3411 0.0
H994 H 0.0901 0.62598 0.32065 0.0
H995 H 0.17633 0.64965 0.31635 0.0
H996 H 0.10419 0.6754 0.32797 0.0
H997 H 0.19037 0.69905 0.32275 0.0
H998 H 0.20995 0.78112 0.35596 0.0
H999 H 0.19563 0.73197 0.34774 0.0
H1000 H 0.12115 0.71944 0.31524 0.0
H1001 H 0.13504 0.76848 0.32428 0.0
C1002 C 0.11202 0.64184 0.32093 0.0
C1003 C 0.13197 0.63395 0.31748 0.0
C1004 C 0.12011 0.6702 0.32503 0.0
C1005 C 0.14844 0.69139 0.32585 0.0
C1006 C 0.16841 0.68339 0.32244 0.0
C1007 C 0.16032 0.65502 0.31853 0.0
C1008 C 0.19052 0.76785 0.34705 0.0
C1009 C 0.17361 0.77862 0.34075 0.0
C1010 C 0.18238 0.73967 0.34219 0.0
C1011 C 0.15723 0.72159 0.33074 0.0
C1012 C 0.14045 0.73255 0.32429 0.0
C1013 C 0.1485 0.76073 0.32932 0.0
H1014 H 0.80231 0.06112 0.37046 0.0
H1015 H 0.86835 0.04124 0.37257 0.0
H1016 H 0.76784 0.01157 0.36148 0.0
H1017 H 0.83392 0.9915 0.36438 0.0
H1018 H 0.76928 0.9105 0.32862 0.0
H1019 H 0.80361 0.95974 0.33839 0.0
H1020 H 0.74451 0.96624 0.37278 0.0
H1021 H 0.70983 0.91718 0.3623 0.0
C1022 C 0.80936 0.04601 0.36933 0.0
C1023 C 0.83793 0.05496 0.37265 0.0
C1024 C 0.78961 0.01757 0.36427 0.0
C1025 C 0.79797 0.99736 0.3623 0.0
C1026 C 0.82666 1.00642 0.36556 0.0
C1027 C 0.84641 0.0349 0.37048 0.0
C1028 C 0.76365 0.92249 0.33826 0.0
C1029 C 0.73688 0.91005 0.34467 0.0
C1030 C 0.78342 0.9507 0.34401 0.0
C1031 C 0.77696 0.96711 0.35644 0.0
C1032 C 0.75015 0.95445 0.36298 0.0
C1033 C 0.7303 0.92627 0.3571 0.0
H1034 H 0.9813 0.82737 0.39449 0.0
H1035 H 0.95558 0.73983 0.38108 0.0
H1036 H 0.02775 0.84113 0.38487 0.0
H1037 H 1.00203 0.7536 0.37137 0.0
H1038 H 0.07549 0.792 0.33391 0.0
H1039 H 0.02993 0.77813 0.34501 0.0
H1040 H 0.07014 0.83774 0.39499 0.0
H1041 H 0.11587 0.85182 0.38389 0.0
C1042 C 0.98568 0.81104 0.38977 0.0
C1043 C 0.96498 0.78241 0.38897 0.0
C1044 C 0.01229 0.81894 0.38426 0.0
C1045 C 0.01857 0.79845 0.37745 0.0
C1046 C 0.99779 0.76988 0.37648 0.0
C1047 C 0.9713 0.76199 0.38216 0.0
C1048 C 0.07469 0.80215 0.34729 0.0
C1049 C 0.09937 0.82304 0.358 0.0
C1050 C 0.04856 0.79407 0.3537 0.0
C1051 C 0.04645 0.80682 0.37088 0.0
C1052 C 0.0711 0.82771 0.38161 0.0
C1053 C 0.09729 0.83564 0.37529 0.0
H1054 H 0.2445 0.21335 0.40027 0.0
H1055 H 0.20818 0.16402 0.34592 0.0
H1056 H 0.22846 0.24562 0.39138 0.0
H1057 H 0.19245 0.19639 0.33679 0.0
H1058 H 0.14459 0.24364 0.33425 0.0
H1059 H 0.15921 0.21105 0.34457 0.0
H1060 H 0.23836 0.2814 0.36925 0.0
H1061 H 0.2235 0.31397 0.35908 0.0
C1062 C 0.23323 0.2096 0.38636 0.0
C1063 C 0.22799 0.18658 0.37361 0.0
C1064 C 0.22414 0.22808 0.38124 0.0
C1065 C 0.20932 0.22371 0.36332 0.0
C1066 C 0.20361 0.20027 0.35075 0.0
C1067 C 0.21276 0.18185 0.35588 0.0
C1068 C 0.16508 0.25211 0.34192 0.0
C1069 C 0.18293 0.28132 0.34585 0.0
C1070 C 0.17352 0.23345 0.34775 0.0
C1071 C 0.20001 0.24359 0.35767 0.0
C1072 C 0.21771 0.27287 0.36182 0.0
C1073 C 0.20926 0.29154 0.35594 0.0
H1074 H 0.66017 0.5171 0.75501 0.0
H1075 H 0.61066 0.51808 0.70599 0.0
H1076 H 0.70255 0.55291 0.74292 0.0
H1077 H 0.65292 0.55489 0.69413 0.0
H1078 H 0.73722 0.60062 0.66879 0.0
H1079 H 0.694 0.56493 0.68026 0.0
H1080 H 0.7281 0.60043 0.73839 0.0
H1081 H 0.77158 0.63505 0.72693 0.0
C1082 C 0.65837 0.52529 0.74174 0.0
C1083 C 0.63212 0.51485 0.73147 0.0
C1084 C 0.68267 0.54598 0.7348 0.0
C1085 C 0.68135 0.55713 0.71754 0.0
C1086 C 0.65496 0.54662 0.7073 0.0
C1087 C 0.63067 0.52559 0.71412 0.0
C1088 C 0.73537 0.60084 0.68401 0.0
C1089 C 0.7579 0.62058 0.69694 0.0
C1090 C 0.7105 0.58042 0.69062 0.0
C1091 C 0.70743 0.57949 0.71033 0.0
C1092 C 0.72978 0.59988 0.72316 0.0
C1093 C 0.75473 0.61997 0.71657 0.0
H1094 H 0.53759 0.15486 0.71908 0.0
H1095 H 0.47544 0.08381 0.74544 0.0
H1096 H 0.50056 0.16122 0.70406 0.0
H1097 H 0.43894 0.09128 0.73119 0.0
H1098 H 0.39568 0.14575 0.72571 0.0
H1099 H 0.43132 0.13504 0.73718 0.0
H1100 H 0.45329 0.13177 0.67971 0.0
H1101 H 0.41702 0.14193 0.66802 0.0
C1102 C 0.51611 0.14039 0.72152 0.0
C1103 C 0.50967 0.11904 0.73374 0.0
C1104 C 0.49495 0.14413 0.71296 0.0
C1105 C 0.46701 0.12688 0.71664 0.0
C1106 C 0.46041 0.10508 0.72834 0.0
C1107 C 0.48141 0.101 0.73662 0.0
C1108 C 0.40798 0.1426 0.71548 0.0
C1109 C 0.40354 0.14463 0.69596 0.0
C1110 C 0.42828 0.13636 0.72205 0.0
C1111 C 0.44497 0.13258 0.70931 0.0
C1112 C 0.44068 0.13467 0.68979 0.0
C1113 C 0.41988 0.14032 0.68313 0.0
H1114 H 0.91978 0.38749 0.73643 0.0
H1115 H 0.851 0.38329 0.70141 0.0
H1116 H 0.90896 0.34223 0.72128 0.0
H1117 H 0.8421 0.33944 0.68482 0.0
H1118 H 0.81252 0.24673 0.67189 0.0
H1119 H 0.82311 0.29209 0.68732 0.0
H1120 H 0.91093 0.31762 0.69467 0.0
H1121 H 0.89972 0.27141 0.6804 0.0
C1122 C 0.90239 0.37706 0.72544 0.0
C1123 C 0.88613 0.3892 0.7204 0.0
C1124 C 0.8965 0.35116 0.71642 0.0
C1125 C 0.87457 0.33684 0.70171 0.0
C1126 C 0.85879 0.34936 0.6963 0.0
C1127 C 0.86429 0.37497 0.70563 0.0
C1128 C 0.83406 0.26212 0.67684 0.0
C1129 C 0.85531 0.25564 0.67498 0.0
C1130 C 0.84025 0.2883 0.68557 0.0
C1131 C 0.86798 0.30889 0.69228 0.0
C1132 C 0.88926 0.30231 0.69011 0.0
C1133 C 0.88293 0.27588 0.68176 0.0
H1134 H 0.20827 0.95358 0.62369 0.0
H1135 H 0.14701 0.97866 0.63144 0.0
H1136 H 0.24413 0.99699 0.64206 0.0
H1137 H 0.18295 0.02299 0.64869 0.0
H1138 H 0.24735 0.09244 0.69105 0.0
H1139 H 0.21181 0.04631 0.67604 0.0
H1140 H 0.27275 0.04449 0.64109 0.0
H1141 H 0.30865 0.08952 0.65742 0.0
C1142 C 0.2026 0.96856 0.62933 0.0
C1143 C 0.17495 0.96283 0.62628 0.0
C1144 C 0.22318 0.99363 0.6397 0.0
C1145 C 0.21675 0.01392 0.64688 0.0
C1146 C 0.18884 0.00786 0.64383 0.0
C1147 C 0.16816 0.9825 0.63384 0.0
C1148 C 0.25314 0.082 0.68026 0.0
C1149 C 0.28068 0.09478 0.6752 0.0
C1150 C 0.23265 0.0556 0.67146 0.0
C1151 C 0.23904 0.04147 0.65706 0.0
C1152 C 0.26686 0.05427 0.65223 0.0
C1153 C 0.28747 0.08039 0.66139 0.0
H1154 H 0.07781 0.25952 0.64101 0.0
H1155 H 0.02688 0.20179 0.59223 0.0
H1156 H 0.03588 0.25444 0.65422 0.0
H1157 H 0.98486 0.1954 0.60569 0.0
H1158 H 0.91533 0.20707 0.62414 0.0
H1159 H 0.95878 0.2167 0.6115 0.0
H1160 H 0.99594 0.22457 0.66877 0.0
H1161 H 0.9527 0.21647 0.68143 0.0
C1162 C 0.05755 0.24553 0.63324 0.0
C1163 C 0.05552 0.23118 0.61557 0.0
C1164 C 0.03347 0.24247 0.64082 0.0
C1165 C 1.0068 0.2246 0.63103 0.0
C1166 C 1.00495 0.20993 0.61346 0.0
C1167 C 0.02902 0.2134 0.60576 0.0
C1168 C 0.93288 0.2111 0.63404 0.0
C1169 C 0.9306 0.21093 0.65377 0.0
C1170 C 0.95779 0.21638 0.62678 0.0
C1171 C 0.98094 0.22101 0.63903 0.0
C1172 C 0.97878 0.22143 0.65886 0.0
C1173 C 0.95395 0.21667 0.66615 0.0
H1174 H 0.80841 0.82293 0.60673 0.0
H1175 H 0.79668 0.85188 0.66199 0.0
H1176 H 0.81573 0.78789 0.62148 0.0
H1177 H 0.80602 0.81804 0.67667 0.0
H1178 H 0.86518 0.77986 0.69157 0.0
H1179 H 0.85374 0.81265 0.67717 0.0
H1180 H 0.78302 0.74308 0.64346 0.0
H1181 H 0.79351 0.71001 0.65864 0.0
C1182 C 0.80712 0.8218 0.62194 0.0
C1183 C 0.80189 0.84047 0.63308 0.0
C1184 C 0.81152 0.80179 0.63036 0.0
C1185 C 0.81145 0.8004 0.65015 0.0
C1186 C 0.80633 0.8189 0.66136 0.0
C1187 C 0.80126 0.83847 0.65292 0.0
C1188 C 0.84708 0.77152 0.68118 0.0
C1189 C 0.83046 0.74238 0.676 0.0
C1190 C 0.84056 0.79027 0.67299 0.0
C1191 C 0.81764 0.78031 0.65918 0.0
C1192 C 0.80095 0.75121 0.65397 0.0
C1193 C 0.80706 0.73236 0.66255 0.0
H1194 H 0.07028 0.81703 0.65318 0.0
H1195 H 0.03101 0.84309 0.61088 0.0
H1196 H 0.0247 0.78483 0.6635 0.0
H1197 H 0.98534 0.81176 0.62169 0.0
H1198 H 0.90563 0.73058 0.63187 0.0
H1199 H 0.95097 0.76355 0.62153 0.0
H1200 H 0.98787 0.78254 0.67998 0.0
H1201 H 0.94284 0.74885 0.69016 0.0
C1202 C 0.05188 0.81628 0.64638 0.0
C1203 C 0.05433 0.83318 0.63161 0.0
C1204 C 0.02571 0.79788 0.65232 0.0
C1205 C 1.00119 0.79578 0.6436 0.0
C1206 C 1.00366 0.8126 0.62868 0.0
C1207 C 0.02989 0.83087 0.62263 0.0
C1208 C 0.92344 0.74178 0.64251 0.0
C1209 C 0.92059 0.7369 0.66184 0.0
C1210 C 0.94946 0.76089 0.6366 0.0
C1211 C 0.97325 0.77581 0.64988 0.0
C1212 C 0.97023 0.77112 0.66925 0.0
C1213 C 0.9443 0.75184 0.67513 0.0
H1214 H 0.20687 0.26955 0.65959 0.0
H1215 H 0.17204 0.20683 0.61103 0.0
H1216 H 0.24039 0.25468 0.66809 0.0
H1217 H 0.20455 0.19089 0.61997 0.0
H1218 H 0.28493 0.18754 0.63088 0.0
H1219 H 0.25207 0.20293 0.62148 0.0
H1220 H 0.24319 0.21759 0.68093 0.0
H1221 H 0.27674 0.20338 0.69024 0.0
C1222 C 0.2061 0.25221 0.65096 0.0
C1223 C 0.18629 0.23879 0.63505 0.0
C1224 C 0.22521 0.24358 0.65584 0.0
C1225 C 0.225 0.22127 0.64489 0.0
C1226 C 0.20548 0.20821 0.6287 0.0
C1227 C 0.18656 0.21709 0.62371 0.0
C1228 C 0.27594 0.19407 0.64191 0.0
C1229 C 0.28361 0.19442 0.6613 0.0
C1230 C 0.25696 0.20276 0.63654 0.0
C1231 C 0.245 0.21169 0.65044 0.0
C1232 C 0.2524 0.21151 0.66981 0.0
C1233 C 0.27156 0.20317 0.67517 0.0
H1234 H 0.76012 0.96015 0.6546 0.0
H1235 H 0.84613 0.98447 0.64865 0.0
H1236 H 0.77387 0.00947 0.66185 0.0
H1237 H 0.85988 0.03388 0.65507 0.0
H1238 H 0.87902 0.1152 0.68963 0.0
H1239 H 0.86531 0.06638 0.68067 0.0
H1240 H 0.79008 0.05349 0.64907 0.0
H1241 H 0.80338 0.1022 0.65882 0.0
C1242 C 0.7819 0.97615 0.65447 0.0
C1243 C 0.80191 0.96849 0.65062 0.0
C1244 C 0.78981 1.00444 0.65853 0.0
C1245 C 0.818 0.0258 0.65895 0.0
C1246 C 0.83802 0.01806 0.65506 0.0
C1247 C 0.83012 0.98973 0.65116 0.0
C1248 C 0.85956 0.10192 0.68075 0.0
C1249 C 0.84225 0.11247 0.67493 0.0
C1250 C 0.85179 0.07395 0.67546 0.0
C1251 C 0.82659 0.05587 0.66407 0.0
C1252 C 0.80944 0.06664 0.65805 0.0
C1253 C 0.81714 0.09461 0.66349 0.0
H1254 H 0.48301 0.38222 0.73409 0.0
H1255 H 0.51516 0.38946 0.67913 0.0
H1256 H 0.45019 0.33198 0.7252 0.0
H1257 H 0.48211 0.33949 0.66997 0.0
H1258 H 0.43934 0.24415 0.6665 0.0
H1259 H 0.47279 0.29345 0.67701 0.0
H1260 H 0.40826 0.30082 0.70389 0.0
H1261 H 0.37491 0.25122 0.69361 0.0
C1262 C 0.48282 0.373 0.72005 0.0
C1263 C 0.50119 0.38968 0.70716 0.0
C1264 C 0.46401 0.34432 0.71492 0.0
C1265 C 0.46339 0.33168 0.69683 0.0
C1266 C 0.48217 0.34842 0.68407 0.0
C1267 C 0.50095 0.37707 0.68923 0.0
C1268 C 0.43234 0.2563 0.6747 0.0
C1269 C 0.40452 0.24391 0.67917 0.0
C1270 C 0.45147 0.28461 0.68064 0.0
C1271 C 0.44321 0.30122 0.69119 0.0
C1272 C 0.41542 0.28861 0.69595 0.0
C1273 C 0.39627 0.26024 0.68999 0.0
H1274 H 0.64728 0.10675 0.74824 0.0
H1275 H 0.6226 0.12294 0.69352 0.0
H1276 H 0.69436 0.12274 0.73872 0.0
H1277 H 0.66966 0.13936 0.684 0.0
H1278 H 0.74384 0.13255 0.66539 0.0
H1279 H 0.69805 0.1186 0.67591 0.0
H1280 H 0.73701 0.1645 0.73108 0.0
H1281 H 0.78304 0.17821 0.72066 0.0
C1282 C 0.65206 0.11383 0.73419 0.0
C1283 C 0.63129 0.11308 0.72143 0.0
C1284 C 0.679 0.12316 0.72878 0.0
C1285 C 0.6857 0.13205 0.71052 0.0
C1286 C 0.66504 0.13211 0.69801 0.0
C1287 C 0.63816 0.12283 0.70345 0.0
C1288 C 0.74274 0.13968 0.67979 0.0
C1289 C 0.76719 0.15652 0.69217 0.0
C1290 C 0.71643 0.13182 0.68577 0.0
C1291 C 0.71385 0.14056 0.7043 0.0
C1292 C 0.73826 0.15723 0.71676 0.0
C1293 C 0.76465 0.16517 0.71075 0.0
H1294 H 0.85064 0.49194 0.71219 0.0
H1295 H 0.93587 0.55343 0.70413 0.0
H1296 H 0.83578 0.52514 0.70439 0.0
H1297 H 0.92083 0.58642 0.69544 0.0
H1298 H 0.88897 0.64826 0.69605 0.0
H1299 H 0.90399 0.61621 0.70707 0.0
H1300 H 0.82874 0.54558 0.67775 0.0
H1301 H 0.81335 0.57746 0.66758 0.0
C1302 C 0.86628 0.51263 0.70886 0.0
C1303 C 0.89462 0.52031 0.70917 0.0
C1304 C 0.85769 0.53163 0.70417 0.0
C1305 C 0.87707 0.55856 0.69927 0.0
C1306 C 0.90538 0.56612 0.69949 0.0
C1307 C 0.91401 0.54719 0.70435 0.0
C1308 C 0.87556 0.62585 0.69218 0.0
C1309 C 0.84995 0.61533 0.68104 0.0
C1310 C 0.88426 0.60748 0.69833 0.0
C1311 C 0.8676 0.57823 0.69332 0.0
C1312 C 0.84192 0.56786 0.68221 0.0
C1313 C 0.83316 0.58617 0.67622 0.0
H1314 H 0.49496 0.94764 0.23762 0.0
H1315 H 0.40839 0.89841 0.21438 0.0
H1316 H 0.50805 0.96559 0.20691 0.0
H1317 H 0.42136 0.91759 0.18378 0.0
H1318 H 0.46024 0.93534 0.12642 0.0
H1319 H 0.44586 0.91595 0.15677 0.0
H1320 H 0.50414 0.99721 0.18691 0.0
H1321 H 0.51951 0.01612 0.15676 0.0
C1322 C 0.47869 0.94056 0.22593 0.0
C1323 C 0.45062 0.92145 0.22847 0.0
C1324 C 0.48616 0.95119 0.20837 0.0
C1325 C 0.46575 0.94319 0.19288 0.0
C1326 C 0.43765 0.92402 0.19537 0.0
C1327 C 0.43017 0.91327 0.21297 0.0
C1328 C 0.47014 0.94899 0.13954 0.0
C1329 C 0.4911 0.97728 0.13912 0.0
C1330 C 0.46165 0.93796 0.15693 0.0
C1331 C 0.47391 0.95498 0.1743 0.0
C1332 C 0.49454 0.98337 0.17383 0.0
C1333 C 0.50308 0.99434 0.15649 0.0
H1334 H 0.13597 0.52681 0.23304 0.0
H1335 H 0.07701 0.55251 0.248 0.0
H1336 H 0.11876 0.5201 0.19934 0.0
H1337 H 0.06024 0.54639 0.21437 0.0
H1338 H 0.01851 0.50732 0.15463 0.0
H1339 H 0.03431 0.50892 0.18792 0.0
H1340 H 0.12002 0.55037 0.17417 0.0
H1341 H 0.10416 0.54819 0.14076 0.0
C1342 C 0.11921 0.53083 0.22913 0.0
C1343 C 0.10787 0.54023 0.24315 0.0
C1344 C 0.10954 0.52723 0.20984 0.0
C1345 C 0.08815 0.53273 0.2042 0.0
C1346 C 0.07654 0.5417 0.21827 0.0
C1347 C 0.08633 0.54548 0.23751 0.0
C1348 C 0.04069 0.51637 0.15865 0.0
C1349 C 0.0601 0.52768 0.14507 0.0
C1350 C 0.04976 0.51755 0.17776 0.0
C1351 C 0.07842 0.52991 0.1837 0.0
C1352 C 0.09779 0.54054 0.17002 0.0
C1353 C 0.08873 0.53953 0.15093 0.0
H1354 H 0.51886 0.5822 0.23837 0.0
H1355 H 0.43334 0.55669 0.21954 0.0
H1356 H 0.52743 0.57505 0.20553 0.0
H1357 H 0.44181 0.54909 0.18658 0.0
H1358 H 0.48173 0.57491 0.129 0.0
H1359 H 0.46997 0.57855 0.16157 0.0
H1360 H 0.51356 0.53621 0.18014 0.0
H1361 H 0.52575 0.53305 0.14771 0.0
C1362 C 0.50189 0.57507 0.22719 0.0
C1363 C 0.47547 0.57016 0.23153 0.0
C1364 C 0.50671 0.5707 0.2084 0.0
C1365 C 0.48529 0.56146 0.19346 0.0
C1366 C 0.45879 0.5564 0.19778 0.0
C1367 C 0.45388 0.56053 0.21664 0.0
C1368 C 0.48876 0.56637 0.14005 0.0
C1369 C 0.50476 0.55379 0.13579 0.0
C1370 C 0.48181 0.56822 0.15866 0.0
C1371 C 0.49093 0.55776 0.17344 0.0
C1372 C 0.50646 0.54471 0.16909 0.0
C1373 C 0.51322 0.54267 0.15048 0.0
H1374 H 0.8876 0.4676 0.7894 0.0
H1375 H 0.94764 0.44179 0.77804 0.0
H1376 H 0.90405 0.47691 0.82337 0.0
H1377 H 0.96362 0.45046 0.81198 0.0
H1378 H 1.00331 0.49293 0.8714 0.0
H1379 H 0.98858 0.48945 0.8376 0.0
H1380 H 0.90223 0.44869 0.84992 0.0
H1381 H 0.91701 0.4528 0.8838 0.0
C1382 C 0.90442 0.46409 0.79415 0.0
C1383 C 0.91628 0.45388 0.78107 0.0
C1384 C 0.91367 0.46919 0.8136 0.0
C1385 C 0.93512 0.46441 0.82035 0.0
C1386 C 0.94727 0.45464 0.80721 0.0
C1387 C 0.93791 0.44938 0.7878 0.0
C1388 C 0.98122 0.48367 0.86694 0.0
C1389 C 0.96131 0.47306 0.88026 0.0
C1390 C 0.97277 0.48141 0.84755 0.0
C1391 C 0.94424 0.46863 0.84108 0.0
C1392 C 0.92438 0.45881 0.85448 0.0
C1393 C 0.93282 0.46093 0.87385 0.0
H1394 H 0.58628 0.52267 0.78613 0.0
H1395 H 0.55585 0.43428 0.79037 0.0
H1396 H 0.57585 0.52769 0.81876 0.0
H1397 H 0.54396 0.43893 0.82253 0.0
H1398 H 0.54711 0.45985 0.88585 0.0
H1399 H 0.56297 0.45787 0.85452 0.0
H1400 H 0.53651 0.51528 0.83647 0.0
H1401 H 0.52127 0.51767 0.86795 0.0
C1402 C 0.5775 0.50432 0.79404 0.0
C1403 C 0.57185 0.47804 0.78555 0.0
C1404 C 0.57116 0.50713 0.81269 0.0
C1405 C 0.55892 0.48371 0.82332 0.0
C1406 C 0.55366 0.45753 0.81491 0.0
C1407 C 0.56012 0.45476 0.79632 0.0
C1408 C 0.54474 0.47206 0.87517 0.0
C1409 C 0.53286 0.48884 0.87935 0.0
C1410 C 0.55375 0.47088 0.85718 0.0
C1411 C 0.5509 0.48628 0.84286 0.0
C1412 C 0.53945 0.50346 0.84719 0.0
C1413 C 0.53064 0.5048 0.86524 0.0
H1414 H 0.58814 0.12505 0.80471 0.0
H1415 H 0.50264 0.06276 0.78479 0.0
H1416 H 0.58044 0.10876 0.83659 0.0
H1417 H 0.49475 0.04709 0.8166 0.0
H1418 H 0.49685 0.00655 0.86996 0.0
H1419 H 0.50854 0.02251 0.8385 0.0
H1420 H 0.55356 0.10888 0.86354 0.0
H1421 H 0.54262 0.09283 0.8952 0.0
C1422 C 0.56777 0.10785 0.80713 0.0
C1423 C 0.54597 0.09526 0.79226 0.0
C1424 C 0.56328 0.0987 0.8254 0.0
C1425 C 0.53699 0.07662 0.82912 0.0
C1426 C 0.51534 0.06392 0.81418 0.0
C1427 C 0.51977 0.07312 0.79599 0.0
C1428 C 0.50965 0.02892 0.86882 0.0
C1429 C 0.51878 0.04841 0.88511 0.0
C1430 C 0.51607 0.03809 0.85076 0.0
C1431 C 0.53181 0.06697 0.8485 0.0
C1432 C 0.54155 0.08647 0.86482 0.0
C1433 C 0.53503 0.0773 0.88292 0.0
H1434 H 0.10097 0.28348 0.56338 0.0
H1435 H 0.12966 0.22458 0.55249 0.0
H1436 H 0.11209 0.29932 0.53184 0.0
H1437 H 0.14221 0.24151 0.52139 0.0
H1438 H 0.14096 0.26141 0.45999 0.0
H1439 H 0.12401 0.24251 0.49005 0.0
H1440 H 0.15282 0.32672 0.51585 0.0
H1441 H 0.16923 0.34542 0.48572 0.0
C1442 C 0.10945 0.27374 0.55422 0.0
C1443 C 0.11449 0.25279 0.56053 0.0
C1444 C 0.11619 0.28311 0.53621 0.0
C1445 C 0.12825 0.27187 0.52409 0.0
C1446 C 0.13271 0.25048 0.53024 0.0
C1447 C 0.12586 0.24102 0.54821 0.0
C1448 C 0.14363 0.27583 0.4721 0.0
C1449 C 0.15646 0.30489 0.47051 0.0
C1450 C 0.13397 0.26503 0.48934 0.0
C1451 C 0.1371 0.28308 0.50542 0.0
C1452 C 0.14961 0.31212 0.5037 0.0
C1453 C 0.15909 0.32288 0.48644 0.0
H1454 H 0.74147 0.88877 0.58167 0.0
H1455 H 0.79223 0.85298 0.56616 0.0
H1456 H 0.72405 0.88301 0.5482 0.0
H1457 H 0.77422 0.8465 0.53273 0.0
H1458 H 0.76374 0.87544 0.47397 0.0
H1459 H 0.77912 0.87713 0.50738 0.0
H1460 H 0.69473 0.84667 0.52202 0.0
H1461 H 0.6795 0.84572 0.48869 0.0
C1462 C 0.74879 0.87953 0.57111 0.0
C1463 C 0.76831 0.87144 0.57655 0.0
C1464 C 0.7386 0.87597 0.55197 0.0
C1465 C 0.7478 0.86435 0.53781 0.0
C1466 C 0.76694 0.85578 0.54329 0.0
C1467 C 0.77703 0.85922 0.56245 0.0
C1468 C 0.74849 0.86914 0.48433 0.0
C1469 C 0.72043 0.86054 0.47869 0.0
C1470 C 0.75723 0.86983 0.50344 0.0
C1471 C 0.73814 0.86207 0.51735 0.0
C1472 C 0.70999 0.85304 0.51166 0.0
C1473 C 0.70122 0.85221 0.49254 0.0
H1474 H 0.12378 0.85941 0.56225 0.0
H1475 H 0.16094 0.94882 0.55834 0.0
H1476 H 0.13155 0.85292 0.52909 0.0
H1477 H 0.17005 0.94257 0.52562 0.0
H1478 H 0.16041 0.9205 0.46189 0.0
H1479 H 0.14784 0.92431 0.49408 0.0
H1480 H 0.16884 0.86198 0.50977 0.0
H1481 H 0.1809 0.85787 0.47747 0.0
C1482 C 0.13354 0.87768 0.55433 0.0
C1483 C 0.14181 0.90466 0.56304 0.0
C1484 C 0.1383 0.874 0.53536 0.0
C1485 C 0.1515 0.89722 0.52463 0.0
C1486 C 0.15952 0.92414 0.53332 0.0
C1487 C 0.15467 0.92779 0.55222 0.0
C1488 C 0.16231 0.90761 0.47223 0.0
C1489 C 0.17174 0.88896 0.46715 0.0
C1490 C 0.15518 0.90983 0.49071 0.0
C1491 C 0.15748 0.8936 0.50462 0.0
C1492 C 0.16642 0.87454 0.4994 0.0
C1493 C 0.17338 0.87219 0.48087 0.0
H1494 H 0.61376 0.77646 0.11169 0.0
H1495 H 0.55267 0.80054 0.12375 0.0
H1496 H 0.62956 0.78427 0.14563 0.0
H1497 H 0.56885 0.80888 0.15776 0.0
H1498 H 0.58226 0.78313 0.21763 0.0
H1499 H 0.56745 0.77962 0.1838 0.0
H1500 H 0.65391 0.82298 0.17168 0.0
H1501 H 0.66869 0.82597 0.20542 0.0
C1502 C 0.60376 0.78349 0.12161 0.0
C1503 C 0.58189 0.78776 0.11507 0.0
C1504 C 0.61299 0.78824 0.14102 0.0
C1505 C 0.60046 0.79721 0.15437 0.0
C1506 C 0.57877 0.80177 0.14783 0.0
C1507 C 0.56967 0.79722 0.12836 0.0
C1508 C 0.59808 0.79195 0.20773 0.0
C1509 C 0.62663 0.80473 0.21417 0.0
C1510 C 0.58962 0.79017 0.1884 0.0
C1511 C 0.60951 0.80094 0.17507 0.0
C1512 C 0.63808 0.81425 0.18158 0.0
C1513 C 0.64655 0.8162 0.20093 0.0
H1514 H 0.25205 0.85698 0.11855 0.0
H1515 H 0.22418 0.76918 0.12313 0.0
H1516 H 0.24108 0.86164 0.15111 0.0
H1517 H 0.2118 0.77341 0.15518 0.0
H1518 H 0.21368 0.79382 0.21831 0.0
H1519 H 0.2303 0.7927 0.18714 0.0
H1520 H 0.20139 0.84805 0.16872 0.0
H1521 H 0.18537 0.8496 0.20006 0.0
C1522 C 0.24371 0.8387 0.12651 0.0
C1523 C 0.2389 0.81267 0.11814 0.0
C1524 C 0.23708 0.84128 0.14512 0.0
C1525 C 0.22541 0.81788 0.15581 0.0
C1526 C 0.22104 0.79199 0.14752 0.0
C1527 C 0.22778 0.78945 0.12898 0.0
C1528 C 0.21092 0.80577 0.20759 0.0
C1529 C 0.1981 0.82169 0.21161 0.0
C1530 C 0.22038 0.80508 0.18969 0.0
C1531 C 0.21704 0.82013 0.1753 0.0
C1532 C 0.2047 0.83652 0.1795 0.0
C1533 C 0.19544 0.83736 0.19746 0.0
H1534 H 0.16561 0.39156 0.11636 0.0
H1535 H 0.24977 0.45525 0.1381 0.0
H1536 H 0.15601 0.3763 0.14821 0.0
H1537 H 0.24009 0.44029 0.17009 0.0
H1538 H 0.21997 0.38849 0.22167 0.0
H1539 H 0.23083 0.40244 0.1896 0.0
H1540 H 0.14903 0.39304 0.17838 0.0
H1541 H 0.1377 0.37778 0.20997 0.0
C1542 C 0.18202 0.40237 0.12799 0.0
C1543 C 0.20839 0.42469 0.12475 0.0
C1544 C 0.17651 0.3937 0.14626 0.0
C1545 C 0.19719 0.40723 0.16177 0.0
C1546 C 0.22378 0.4292 0.15845 0.0
C1547 C 0.22933 0.43779 0.14012 0.0
C1548 C 0.20422 0.38917 0.21229 0.0
C1549 C 0.17794 0.38198 0.21842 0.0
C1550 C 0.21056 0.39747 0.19397 0.0
C1551 C 0.19077 0.39877 0.18136 0.0
C1552 C 0.16463 0.39187 0.18759 0.0
C1553 C 0.15828 0.38352 0.20584 0.0
H1554 H 0.7678 0.6179 0.898 0.0
H1555 H 0.79286 0.55652 0.88526 0.0
H1556 H 0.77857 0.63413 0.86649 0.0
H1557 H 0.80487 0.57365 0.8541 0.0
H1558 H 0.80219 0.5953 0.79299 0.0
H1559 H 0.78582 0.57614 0.82311 0.0
H1560 H 0.81983 0.66055 0.85035 0.0
H1561 H 0.8359 0.67959 0.82027 0.0
C1562 C 0.77537 0.60769 0.88842 0.0
C1563 C 0.77953 0.58595 0.8942 0.0
C1564 C 0.78189 0.61725 0.87044 0.0
C1565 C 0.7928 0.60536 0.8578 0.0
C1566 C 0.7963 0.58314 0.86339 0.0
C1567 C 0.78973 0.57354 0.88137 0.0
C1568 C 0.80617 0.60973 0.80543 0.0
C1569 C 0.82035 0.63896 0.80424 0.0
C1570 C 0.79682 0.59877 0.8227 0.0
C1571 C 0.80151 0.61679 0.83918 0.0
C1572 C 0.81541 0.64601 0.83789 0.0
C1573 C 0.82467 0.65695 0.82063 0.0
H1574 H 0.47695 0.25745 0.90355 0.0
H1575 H 0.41664 0.16968 0.90678 0.0
H1576 H 0.46138 0.25272 0.86986 0.0
H1577 H 0.40109 0.16493 0.87296 0.0
H1578 H 0.39846 0.16259 0.80726 0.0
H1579 H 0.41607 0.16606 0.84046 0.0
H1580 H 0.41942 0.24567 0.85135 0.0
H1581 H 0.4017 0.24215 0.81839 0.0
C1582 C 0.46028 0.23716 0.89708 0.0
C1583 C 0.44785 0.21401 0.9079 0.0
C1584 C 0.45138 0.23445 0.87777 0.0
C1585 C 0.42984 0.20851 0.86876 0.0
C1586 C 0.41791 0.18514 0.87943 0.0
C1587 C 0.42681 0.18786 0.8988 0.0
C1588 C 0.40283 0.18075 0.81678 0.0
C1589 C 0.39883 0.20217 0.81011 0.0
C1590 C 0.41292 0.18274 0.83579 0.0
C1591 C 0.4193 0.20622 0.84851 0.0
C1592 C 0.41525 0.22757 0.84183 0.0
C1593 C 0.40511 0.22556 0.8229 0.0
H1594 H 0.77075 0.22395 0.88685 0.0
H1595 H 0.85477 0.24498 0.90634 0.0
H1596 H 0.77929 0.21616 0.854 0.0
H1597 H 0.8635 0.23775 0.87352 0.0
H1598 H 0.86104 0.19692 0.8148 0.0
H1599 H 0.84916 0.20004 0.84734 0.0
H1600 H 0.80827 0.24535 0.82964 0.0
H1601 H 0.81963 0.2417 0.79699 0.0
C1602 C 0.79096 0.2267 0.88413 0.0
C1603 C 0.81212 0.23518 0.89918 0.0
C1604 C 0.79594 0.2225 0.86531 0.0
C1605 C 0.8221 0.22642 0.86114 0.0
C1606 C 0.84305 0.23433 0.87626 0.0
C1607 C 0.83815 0.23874 0.89504 0.0
C1608 C 0.84918 0.2072 0.81779 0.0
C1609 C 0.84131 0.2191 0.80331 0.0
C1610 C 0.84262 0.20923 0.83648 0.0
C1611 C 0.82787 0.22303 0.84109 0.0
C1612 C 0.81947 0.23439 0.82653 0.0
C1613 C 0.8262 0.23254 0.80786 0.0
H1614 H 0.27666 0.10649 0.44317 0.0
H1615 H 0.21785 0.13387 0.45473 0.0
H1616 H 0.29331 0.11572 0.47698 0.0
H1617 H 0.23499 0.14372 0.48862 0.0
H1618 H 0.25001 0.12191 0.54956 0.0
H1619 H 0.23391 0.11659 0.5158 0.0
H1620 H 0.31944 0.1555 0.5018 0.0
H1621 H 0.33546 0.16016 0.53544 0.0
C1622 C 0.26729 0.11449 0.45295 0.0
C1623 C 0.24584 0.11931 0.4463 0.0
C1624 C 0.27705 0.12008 0.4723 0.0
C1625 C 0.26552 0.13052 0.48548 0.0
C1626 C 0.24416 0.13551 0.47883 0.0
C1627 C 0.2345 0.13008 0.45942 0.0
C1628 C 0.26536 0.12937 0.53926 0.0
C1629 C 0.294 0.14134 0.54517 0.0
C1630 C 0.25616 0.12656 0.51995 0.0
C1631 C 0.2754 0.13549 0.50612 0.0
C1632 C 0.30408 0.14812 0.51209 0.0
C1633 C 0.31328 0.15107 0.53139 0.0
H1634 H 0.943 0.16083 0.46478 0.0
H1635 H 0.85862 0.13265 0.44125 0.0
H1636 H 0.92972 0.16408 0.4969 0.0
H1637 H 0.84542 0.13642 0.47318 0.0
H1638 H 0.82233 0.11419 0.53282 0.0
H1639 H 0.83727 0.1128 0.50127 0.0
H1640 H 0.91592 0.18912 0.51865 0.0
H1641 H 0.90154 0.18962 0.5507 0.0
C1642 C 0.92172 0.1557 0.46647 0.0
C1643 C 0.9018 0.14627 0.45051 0.0
C1644 C 0.91409 0.1576 0.48487 0.0
C1645 C 0.8864 0.15027 0.4877 0.0
C1646 C 0.86675 0.1416 0.47163 0.0
C1647 C 0.87432 0.13951 0.4533 0.0
C1648 C 0.84299 0.13048 0.53006 0.0
C1649 C 0.86075 0.15195 0.54441 0.0
C1650 C 0.85141 0.12993 0.51181 0.0
C1651 C 0.87775 0.15095 0.5073 0.0
C1652 C 0.89558 0.17244 0.52164 0.0
C1653 C 0.88719 0.17292 0.53997 0.0
H1654 H 0.86492 0.79498 0.46913 0.0
H1655 H 0.89251 0.73561 0.45665 0.0
H1656 H 0.85635 0.78017 0.50114 0.0
H1657 H 0.88366 0.7205 0.48869 0.0
H1658 H 0.88721 0.71748 0.55345 0.0
H1659 H 0.89923 0.73531 0.52238 0.0
H1660 H 0.82358 0.73966 0.51593 0.0
H1661 H 0.81173 0.72209 0.54695 0.0
C1662 C 0.869 0.77863 0.47321 0.0
C1663 C 0.87916 0.76629 0.46032 0.0
C1664 C 0.86407 0.77012 0.49156 0.0
C1665 C 0.86911 0.74899 0.49746 0.0
C1666 C 0.87985 0.73705 0.48469 0.0
C1667 C 0.88488 0.74566 0.46632 0.0
C1668 C 0.87316 0.72223 0.54536 0.0
C1669 C 0.84854 0.71842 0.55268 0.0
C1670 C 0.88002 0.73239 0.52755 0.0
C1671 C 0.86238 0.73892 0.51664 0.0
C1672 C 0.8379 0.73533 0.52407 0.0
C1673 C 0.83109 0.72525 0.54188 0.0
loop_
_geom_bond_atom_site_label_1
_geom_bond_atom_site_label_2
_geom_bond_distance
_geom_bond_site_symmetry_2
_ccdc_geom_bond_type
H0 C7 0.929 . S
H1 C10 0.930 . S
H2 C12 0.929 . S
H3 C4 0.969 . S
C4 H3 0.969 . S
C4 O5 1.550 . S
C4 H6 0.973 . S
O5 C4 1.550 . S
O5 C11 1.412 . S
H6 C4 0.973 . S
C7 H0 0.929 . S
C7 C8 1.400 . S
C7 C9 1.364 . S
C8 C7 1.400 . S
C8 C12 1.377 . S
C9 C7 1.364 . S
C9 C10 1.374 . S
C10 H1 0.930 . S
C10 C9 1.374 . S
C10 C11 1.383 . S
C11 O5 1.412 . S
C11 C10 1.383 . S
C11 C12 1.394 . S
C12 H2 0.929 . S
C12 C8 1.377 . S
C12 C11 1.394 . S
H13 C20 0.929 . S
H14 C23 0.930 . S
H15 C25 0.929 . S
H16 C17 0.969 . S
C17 H16 0.969 . S
C17 O18 1.550 . S
C17 H19 0.973 . S
O18 C17 1.550 . S
O18 C24 1.412 . S
H19 C17 0.973 . S
C20 H13 0.929 . S
C20 C21 1.400 . S
C20 C22 1.364 . S
C21 C20 1.400 . S
C21 C25 1.377 . S
C22 C20 1.364 . S
C22 C23 1.374 . S
C23 H14 0.930 . S
C23 C22 1.374 . S
C23 C24 1.383 . S
C24 O18 1.412 . S
C24 C23 1.383 . S
C24 C25 1.394 . S
C25 H15 0.929 . S
C25 C21 1.377 . S
C25 C24 1.394 . S
H26 C33 0.929 . S
H27 C36 0.930 . S
H28 C38 0.929 . S
H29 C30 0.969 . S
C30 H29 0.969 . S
C30 O31 1.550 . S
C30 H32 0.973 . S
O31 C30 1.550 . S
O31 C37 1.412 . S
H32 C30 0.973 . S
C33 H26 0.929 . S
C33 C34 1.400 . S
C33 C35 1.364 . S
C34 C33 1.400 . S
C34 C38 1.377 . S
C35 C33 1.364 . S
C35 C36 1.374 . S
C36 H27 0.930 . S
C36 C35 1.374 . S
C36 C37 1.383 . S
C37 O31 1.412 . S
C37 C36 1.383 . S
C37 C38 1.394 . S
C38 H28 0.929 . S
C38 C34 1.377 . S
C38 C37 1.394 . S
H39 C46 0.929 . S
H40 C49 0.930 . S
H41 C51 0.929 . S
H42 C43 0.969 . S
C43 H42 0.969 . S
C43 O44 1.550 . S
C43 H45 0.973 . S
O44 C43 1.550 . S
O44 C50 1.412 . S
H45 C43 0.973 . S
C46 H39 0.929 . S
C46 C47 1.400 . S
C46 C48 1.364 . S
C47 C46 1.400 . S
C47 C51 1.377 . S
C48 C46 1.364 . S
C48 C49 1.374 . S
C49 H40 0.930 . S
C49 C48 1.374 . S
C49 C50 1.383 . S
C50 O44 1.412 . S
C50 C49 1.383 . S
C50 C51 1.394 . S
C51 H41 0.929 . S
C51 C47 1.377 . S
C51 C50 1.394 . S
H52 C59 0.929 . S
H53 C62 0.930 . S
H54 C64 0.929 . S
H55 C56 0.969 . S
C56 H55 0.969 . S
C56 O57 1.550 . S
C56 H58 0.973 . S
O57 C56 1.550 . S
O57 C63 1.412 . S
H58 C56 0.973 . S
C59 H52 0.929 . S
C59 C60 1.400 . S
C59 C61 1.364 . S
C60 C59 1.400 . S
C60 C64 1.377 . S
C61 C59 1.364 . S
C61 C62 1.374 . S
C62 H53 0.930 . S
C62 C61 1.374 . S
C62 C63 1.383 . S
C63 O57 1.412 . S
C63 C62 1.383 . S
C63 C64 1.394 . S
C64 H54 0.929 . S
C64 C60 1.377 . S
C64 C63 1.394 . S
H65 C72 0.929 . S
H66 C75 0.930 . S
H67 C77 0.929 . S
H68 C69 0.969 . S
C69 H68 0.969 . S
C69 O70 1.550 . S
C69 H71 0.973 . S
O70 C69 1.550 . S
O70 C76 1.412 . S
H71 C69 0.973 . S
C72 H65 0.929 . S
C72 C73 1.400 . S
C72 C74 1.364 . S
C73 C72 1.400 . S
C73 C77 1.377 . S
C74 C72 1.364 . S
C74 C75 1.374 . S
C75 H66 0.930 . S
C75 C74 1.374 . S
C75 C76 1.383 . S
C76 O70 1.412 . S
C76 C75 1.383 . S
C76 C77 1.394 . S
C77 H67 0.929 . S
C77 C73 1.377 . S
C77 C76 1.394 . S
H78 C85 0.929 . S
H79 C88 0.930 . S
H80 C90 0.929 . S
H81 C82 0.969 . S
C82 H81 0.969 . S
C82 O83 1.550 . S
C82 H84 0.973 . S
O83 C82 1.550 . S
O83 C89 1.412 . S
H84 C82 0.973 . S
C85 H78 0.929 . S
C85 C86 1.400 . S
C85 C87 1.364 . S
C86 C85 1.400 . S
C86 C90 1.377 . S
C87 C85 1.364 . S
C87 C88 1.374 . S
C88 H79 0.930 . S
C88 C87 1.374 . S
C88 C89 1.383 . S
C89 O83 1.412 . S
C89 C88 1.383 . S
C89 C90 1.394 . S
C90 H80 0.929 . S
C90 C86 1.377 . S
C90 C89 1.394 . S
H91 C98 0.929 . S
H92 C101 0.930 . S
H93 C103 0.929 . S
H94 C95 0.969 . S
C95 H94 0.969 . S
C95 O96 1.550 . S
C95 H97 0.973 . S
O96 C95 1.550 . S
O96 C102 1.412 . S
H97 C95 0.973 . S
C98 H91 0.929 . S
C98 C99 1.400 . S
C98 C100 1.364 . S
C99 C98 1.400 . S
C99 C103 1.377 . S
C100 C98 1.364 . S
C100 C101 1.374 . S
C101 H92 0.930 . S
C101 C100 1.374 . S
C101 C102 1.383 . S
C102 O96 1.412 . S
C102 C101 1.383 . S
C102 C103 1.394 . S
C103 H93 0.929 . S
C103 C99 1.377 . S
C103 C102 1.394 . S
H104 C111 0.929 . S
H105 C114 0.930 . S
H106 C116 0.929 . S
H107 C108 0.969 . S
C108 H107 0.969 . S
C108 O109 1.550 . S
C108 H110 0.973 . S
O109 C108 1.550 . S
O109 C115 1.412 . S
H110 C108 0.973 . S
C111 H104 0.929 . S
C111 C112 1.400 . S
C111 C113 1.364 . S
C112 C111 1.400 . S
C112 C116 1.377 . S
C113 C111 1.364 . S
C113 C114 1.374 . S
C114 H105 0.930 . S
C114 C113 1.374 . S
C114 C115 1.383 . S
C115 O109 1.412 . S
C115 C114 1.383 . S
C115 C116 1.394 . S
C116 H106 0.929 . S
C116 C112 1.377 . S
C116 C115 1.394 . S
H117 C124 0.929 . S
H118 C127 0.930 . S
H119 C129 0.929 . S
H120 C121 0.969 . S
C121 H120 0.969 . S
C121 O122 1.550 . S
C121 H123 0.973 . S
O122 C121 1.550 . S
O122 C128 1.412 . S
H123 C121 0.973 . S
C124 H117 0.929 . S
C124 C125 1.400 . S
C124 C126 1.364 . S
C125 C124 1.400 . S
C125 C129 1.377 . S
C126 C124 1.364 . S
C126 C127 1.374 . S
C127 H118 0.930 . S
C127 C126 1.374 . S
C127 C128 1.383 . S
C128 O122 1.412 . S
C128 C127 1.383 . S
C128 C129 1.394 . S
C129 H119 0.929 . S
C129 C125 1.377 . S
C129 C128 1.394 . S
H130 C137 0.929 . S
H131 C140 0.930 . S
H132 C142 0.929 . S
H133 C134 0.969 . S
C134 H133 0.969 . S
C134 O135 1.550 . S
C134 H136 0.973 . S
O135 C134 1.550 . S
O135 C141 1.412 . S
H136 C134 0.973 . S
C137 H130 0.929 . S
C137 C138 1.400 . S
C137 C139 1.364 . S
C138 C137 1.400 . S
C138 C142 1.377 . S
C139 C137 1.364 . S
C139 C140 1.374 . S
C140 H131 0.930 . S
C140 C139 1.374 . S
C140 C141 1.383 . S
C141 O135 1.412 . S
C141 C140 1.383 . S
C141 C142 1.394 . S
C142 H132 0.929 . S
C142 C138 1.377 . S
C142 C141 1.394 . S
H143 C150 0.929 . S
H144 C153 0.930 . S
H145 C155 0.929 . S
H146 C147 0.969 . S
C147 H146 0.969 . S
C147 O148 1.550 . S
C147 H149 0.973 . S
O148 C147 1.550 . S
O148 C154 1.412 . S
H149 C147 0.973 . S
C150 H143 0.929 . S
C150 C151 1.400 . S
C150 C152 1.364 . S
C151 C150 1.400 . S
C151 C155 1.377 . S
C152 C150 1.364 . S
C152 C153 1.374 . S
C153 H144 0.930 . S
C153 C152 1.374 . S
C153 C154 1.383 . S
C154 O148 1.412 . S
C154 C153 1.383 . S
C154 C155 1.394 . S
C155 H145 0.929 . S
C155 C151 1.377 . S
C155 C154 1.394 . S
H156 C163 0.929 . S
H157 C166 0.930 . S
H158 C168 0.929 . S
H159 C160 0.969 . S
C160 H159 0.969 . S
C160 O161 1.550 . S
C160 H162 0.973 . S
O161 C160 1.550 . S
O161 C167 1.412 . S
H162 C160 0.973 . S
C163 H156 0.929 . S
C163 C164 1.400 . S
C163 C165 1.364 . S
C164 C163 1.400 . S
C164 C168 1.377 . S
C165 C163 1.364 . S
C165 C166 1.374 . S
C166 H157 0.930 . S
C166 C165 1.374 . S
C166 C167 1.383 . S
C167 O161 1.412 . S
C167 C166 1.383 . S
C167 C168 1.394 . S
C168 H158 0.929 . S
C168 C164 1.377 . S
C168 C167 1.394 . S
H169 C176 0.929 . S
H170 C179 0.930 . S
H171 C181 0.929 . S
H172 C173 0.969 . S
C173 H172 0.969 . S
C173 O174 1.550 . S
C173 H175 0.973 . S
O174 C173 1.550 . S
O174 C180 1.412 . S
H175 C173 0.973 . S
C176 H169 0.929 . S
C176 C177 1.400 . S
C176 C178 1.364 . S
C177 C176 1.400 . S
C177 C181 1.377 . S
C178 C176 1.364 . S
C178 C179 1.374 . S
C179 H170 0.930 . S
C179 C178 1.374 . S
C179 C180 1.383 . S
C180 O174 1.412 . S
C180 C179 1.383 . S
C180 C181 1.394 . S
C181 H171 0.929 . S
C181 C177 1.377 . S
C181 C180 1.394 . S
H182 C189 0.929 . S
H183 C192 0.930 . S
H184 C194 0.929 . S
H185 C186 0.969 . S
C186 H185 0.969 . S
C186 O187 1.550 . S
C186 H188 0.973 . S
O187 C186 1.550 . S
O187 C193 1.412 . S
H188 C186 0.973 . S
C189 H182 0.929 . S
C189 C190 1.400 . S
C189 C191 1.364 . S
C190 C189 1.400 . S
C190 C194 1.377 . S
C191 C189 1.364 . S
C191 C192 1.374 . S
C192 H183 0.930 . S
C192 C191 1.374 . S
C192 C193 1.383 . S
C193 O187 1.412 . S
C193 C192 1.383 . S
C193 C194 1.394 . S
C194 H184 0.929 . S
C194 C190 1.377 . S
C194 C193 1.394 . S
H195 C202 0.929 . S
H196 C205 0.930 . S
H197 C207 0.929 . S
H198 C199 0.969 . S
C199 H198 0.969 . S
C199 O200 1.550 . S
C199 H201 0.973 . S
O200 C199 1.550 . S
O200 C206 1.412 . S
H201 C199 0.973 . S
C202 H195 0.929 . S
C202 C203 1.400 . S
C202 C204 1.364 . S
C203 C202 1.400 . S
C203 C207 1.377 . S
C204 C202 1.364 . S
C204 C205 1.374 . S
C205 H196 0.930 . S
C205 C204 1.374 . S
C205 C206 1.383 . S
C206 O200 1.412 . S
C206 C205 1.383 . S
C206 C207 1.394 . S
C207 H197 0.929 . S
C207 C203 1.377 . S
C207 C206 1.394 . S
H208 C215 0.929 . S
H209 C218 0.930 . S
H210 C220 0.929 . S
H211 C212 0.969 . S
C212 H211 0.969 . S
C212 O213 1.550 . S
C212 H214 0.973 . S
O213 C212 1.550 . S
O213 C219 1.412 . S
H214 C212 0.973 . S
C215 H208 0.929 . S
C215 C216 1.400 . S
C215 C217 1.364 . S
C216 C215 1.400 . S
C216 C220 1.377 . S
C217 C215 1.364 . S
C217 C218 1.374 . S
C218 H209 0.930 . S
C218 C217 1.374 . S
C218 C219 1.383 . S
C219 O213 1.412 . S
C219 C218 1.383 . S
C219 C220 1.394 . S
C220 H210 0.929 . S
C220 C216 1.377 . S
C220 C219 1.394 . S
H221 C228 0.929 . S
H222 C231 0.930 . S
H223 C233 0.929 . S
H224 C225 0.969 . S
C225 H224 0.969 . S
C225 O226 1.550 . S
C225 H227 0.973 . S
O226 C225 1.550 . S
O226 C232 1.412 . S
H227 C225 0.973 . S
C228 H221 0.929 . S
C228 C229 1.400 . S
C228 C230 1.364 . S
C229 C228 1.400 . S
C229 C233 1.377 . S
C230 C228 1.364 . S
C230 C231 1.374 . S
C231 H222 0.930 . S
C231 C230 1.374 . S
C231 C232 1.383 . S
C232 O226 1.412 . S
C232 C231 1.383 . S
C232 C233 1.394 . S
C233 H223 0.929 . S
C233 C229 1.377 . S
C233 C232 1.394 . S
C234 Eu235 2.835 . S
C234 C236 1.500 1_545 S
C234 O254 1.257 1_545 S
C234 O255 1.260 . S
Eu235 C234 2.835 . S
Eu235 O254 2.473 1_545 S
Eu235 O255 2.480 . S
Eu235 O256 2.430 . S
Eu235 O257 2.670 1_554 S
Eu235 O258 2.394 1_545 S
Eu235 O263 2.355 1_545 S
Eu235 O265 2.374 . S
C236 C234 1.500 1_565 S
C236 C237 1.377 1_565 S
C236 C241 1.377 . S
C237 C236 1.377 1_545 S
C237 C238 1.394 1_545 S
C237 H266 0.931 . S
C238 C237 1.394 1_565 S
C238 C239 1.388 . S
C238 H267 0.928 1_565 S
C239 C238 1.388 . S
C239 C240 1.394 . S
C240 C239 1.394 . S
C240 C241 1.378 . S
C240 H268 0.931 . S
C241 C236 1.377 . S
C241 C240 1.378 . S
C241 H269 0.931 . S
C242 O256 1.259 . S
C242 O257 1.270 1_554 S
C243 O258 1.251 . S
C243 O259 1.251 1_554 S
C244 Eu245 2.835 1_545 S
C244 C246 1.500 . S
C244 O260 1.257 . S
C244 O261 1.260 1_545 S
Eu245 C244 2.835 1_565 S
Eu245 O257 2.355 1_565 S
Eu245 O259 2.374 . S
Eu245 O260 2.473 1_565 S
Eu245 O261 2.480 . S
Eu245 O262 2.430 . S
Eu245 O263 2.670 1_556 S
Eu245 O264 2.394 1_565 S
C246 C244 1.500 . S
C246 C247 1.377 . S
C246 C251 1.377 . S
C247 C246 1.377 . S
C247 C248 1.395 . S
C247 H270 0.931 1_545 S
C248 C247 1.395 . S
C248 C249 1.383 . S
C248 H271 0.896 1_545 S
C249 C248 1.383 . S
C249 C250 1.394 . S
C250 C249 1.394 . S
C250 C251 1.378 . S
C250 H272 0.931 . S
C251 C246 1.377 . S
C251 C250 1.378 . S
C251 H273 0.931 . S
C252 O262 1.259 1_554 S
C252 O263 1.270 . S
C253 O264 1.251 . S
C253 O265 1.251 1_556 S
O254 C234 1.257 1_565 S
O254 Eu235 2.473 1_565 S
O255 C234 1.260 . S
O255 Eu235 2.480 . S
O256 Eu235 2.430 . S
O256 C242 1.259 . S
O257 Eu235 2.670 1_556 S
O257 C242 1.270 1_556 S
O257 Eu245 2.355 1_545 S
O258 Eu235 2.394 1_565 S
O258 C243 1.251 . S
O259 C243 1.251 1_556 S
O259 Eu245 2.374 . S
O260 C244 1.257 . S
O260 Eu245 2.473 1_545 S
O261 C244 1.260 1_565 S
O261 Eu245 2.480 . S
O262 Eu245 2.430 . S
O262 C252 1.259 1_556 S
O263 Eu235 2.355 1_565 S
O263 Eu245 2.670 1_554 S
O263 C252 1.270 . S
O264 Eu245 2.394 1_545 S
O264 C253 1.251 . S
O265 Eu235 2.374 . S
O265 C253 1.251 1_554 S
H266 C237 0.931 . S
H267 C238 0.928 1_545 S
H268 C240 0.931 . S
H269 C241 0.931 . S
H270 C247 0.931 1_565 S
H271 C248 0.896 1_565 S
H272 C250 0.931 . S
H273 C251 0.931 . S
C274 Eu275 2.835 1_455 S
C274 C276 1.500 . S
C274 O294 1.257 . S
C274 O295 1.260 1_455 S
Eu275 C274 2.835 1_655 S
Eu275 O294 2.473 1_655 S
Eu275 O295 2.480 . S
Eu275 O296 2.430 . S
Eu275 O297 2.670 1_554 S
Eu275 O298 2.394 1_655 S
Eu275 O303 2.355 1_655 S
Eu275 O305 2.374 . S
C276 C274 1.500 . S
C276 C277 1.377 . S
C276 C281 1.377 . S
C277 C276 1.377 . S
C277 C278 1.395 . S
C277 H306 0.931 1_455 S
C278 C277 1.395 . S
C278 C279 1.383 . S
C278 H307 0.931 . S
C279 C278 1.383 . S
C279 C280 1.394 . S
C280 C279 1.394 . S
C280 C281 1.378 . S
C280 H308 0.931 . S
C281 C276 1.377 . S
C281 C280 1.378 . S
C281 H309 0.931 . S
C282 O296 1.259 . S
C282 O297 1.270 1_554 S
C283 O298 1.251 . S
C283 O299 1.251 . S
C284 Eu285 2.835 1_655 S
C284 C286 1.500 . S
C284 O300 1.257 . S
C284 O301 1.260 1_655 S
Eu285 C284 2.835 1_455 S
Eu285 O297 2.355 1_455 S
Eu285 O299 2.374 1_556 S
Eu285 O300 2.473 1_455 S
Eu285 O301 2.480 . S
Eu285 O302 2.430 . S
Eu285 O303 2.670 1_556 S
Eu285 O304 2.394 1_455 S
C286 C284 1.500 . S
C286 C287 1.386 . S
C286 C291 1.377 . S
C287 C286 1.386 . S
C287 C288 1.405 . S
C287 H310 0.913 1_655 S
C288 C287 1.405 . S
C288 C289 1.383 . S
C288 H311 0.931 1_655 S
C289 C288 1.383 . S
C289 C290 1.394 . S
C290 C289 1.394 . S
C290 C291 1.378 . S
C290 H312 0.931 . S
C291 C286 1.377 . S
C291 C290 1.378 . S
C291 H313 0.931 . S
C292 O302 1.259 1_554 S
C292 O303 1.270 . S
C293 O304 1.251 . S
C293 O305 1.251 1_556 S
O294 C274 1.257 . S
O294 Eu275 2.473 1_455 S
O295 C274 1.260 1_655 S
O295 Eu275 2.480 . S
O296 Eu275 2.430 . S
O296 C282 1.259 . S
O297 Eu275 2.670 1_556 S
O297 C282 1.270 1_556 S
O297 Eu285 2.355 1_655 S
O298 Eu275 2.394 1_455 S
O298 C283 1.251 . S
O299 C283 1.251 . S
O299 Eu285 2.374 1_554 S
O300 C284 1.257 . S
O300 Eu285 2.473 1_655 S
O301 C284 1.260 1_455 S
O301 Eu285 2.480 . S
O302 Eu285 2.430 . S
O302 C292 1.259 1_556 S
O303 Eu275 2.355 1_455 S
O303 Eu285 2.670 1_554 S
O303 C292 1.270 . S
O304 Eu285 2.394 1_655 S
O304 C293 1.251 . S
O305 Eu275 2.374 . S
O305 C293 1.251 1_554 S
H306 C277 0.931 1_655 S
H307 C278 0.931 . S
H308 C280 0.931 . S
H309 C281 0.931 . S
H310 C287 0.913 1_455 S
H311 C288 0.931 1_455 S
H312 C290 0.931 . S
H313 C291 0.931 . S
C314 Eu315 2.835 . S
C314 C316 1.500 . S
C314 O334 1.257 . S
C314 O335 1.260 . S
Eu315 C314 2.835 . S
Eu315 O334 2.473 . S
Eu315 O335 2.480 . S
Eu315 O336 2.430 . S
Eu315 O337 2.670 1_556 S
Eu315 O338 2.394 . S
Eu315 O343 2.355 1_556 S
Eu315 O345 2.374 1_556 S
C316 C314 1.500 . S
C316 C317 1.377 . S
C316 C321 1.377 . S
C317 C316 1.377 . S
C317 C318 1.395 . S
C317 H346 0.931 . S
C318 C317 1.395 . S
C318 C319 1.383 . S
C318 H347 0.931 . S
C319 C318 1.383 . S
C319 C320 1.394 . S
C320 C319 1.394 . S
C320 C321 1.378 . S
C320 H348 0.931 . S
C321 C316 1.377 . S
C321 C320 1.378 . S
C321 H349 0.931 . S
C322 O336 1.259 1_554 S
C322 O337 1.270 . S
C323 O338 1.251 . S
C323 O339 1.251 1_556 S
C324 Eu325 2.835 . S
C324 C326 1.500 . S
C324 O340 1.257 . S
C324 O341 1.260 . S
Eu325 C324 2.835 . S
Eu325 O337 2.355 . S
Eu325 O339 2.374 . S
Eu325 O340 2.473 . S
Eu325 O341 2.480 . S
Eu325 O342 2.430 . S
Eu325 O343 2.670 . S
Eu325 O344 2.394 . S
C326 C324 1.500 . S
C326 C327 1.377 . S
C326 C331 1.377 . S
C327 C326 1.377 . S
C327 C328 1.395 . S
C327 H350 0.931 . S
C328 C327 1.395 . S
C328 C329 1.383 . S
C328 H351 0.931 . S
C329 C328 1.383 . S
C329 C330 1.394 . S
C330 C329 1.394 . S
C330 C331 1.378 . S
C330 H352 0.931 . S
C331 C326 1.377 . S
C331 C330 1.378 . S
C331 H353 0.931 . S
C332 O342 1.259 . S
C332 O343 1.270 . S
C333 O344 1.251 . S
C333 O345 1.251 . S
O334 C314 1.257 . S
O334 Eu315 2.473 . S
O335 C314 1.260 . S
O335 Eu315 2.480 . S
O336 Eu315 2.430 . S
O336 C322 1.259 1_556 S
O337 Eu315 2.670 1_554 S
O337 C322 1.270 . S
O337 Eu325 2.355 . S
O338 Eu315 2.394 . S
O338 C323 1.251 . S
O339 C323 1.251 1_554 S
O339 Eu325 2.374 . S
O340 C324 1.257 . S
O340 Eu325 2.473 . S
O341 C324 1.260 . S
O341 Eu325 2.480 . S
O342 Eu325 2.430 . S
O342 C332 1.259 . S
O343 Eu315 2.355 1_554 S
O343 Eu325 2.670 . S
O343 C332 1.270 . S
O344 Eu325 2.394 . S
O344 C333 1.251 . S
O345 Eu315 2.374 1_554 S
O345 C333 1.251 . S
H346 C317 0.931 . S
H347 C318 0.931 . S
H348 C320 0.931 . S
H349 C321 0.931 . S
H350 C327 0.931 . S
H351 C328 0.931 . S
H352 C330 0.931 . S
H353 C331 0.931 . S
C354 Eu355 2.835 . S
C354 C356 1.500 . S
C354 O374 1.257 . S
C354 O375 1.260 . S
Eu355 C354 2.835 . S
Eu355 O374 2.473 . S
Eu355 O375 2.480 . S
Eu355 O376 2.430 . S
Eu355 O377 2.670 . S
Eu355 O378 2.394 . S
Eu355 O383 2.355 . S
Eu355 O385 2.374 . S
C356 C354 1.500 . S
C356 C357 1.377 . S
C356 C361 1.377 . S
C357 C356 1.377 . S
C357 C358 1.395 . S
C357 H386 0.931 . S
C358 C357 1.395 . S
C358 C359 1.383 . S
C358 H387 0.931 . S
C359 C358 1.383 . S
C359 C360 1.394 . S
C360 C359 1.394 . S
C360 C361 1.378 . S
C360 H388 0.931 . S
C361 C356 1.377 . S
C361 C360 1.378 . S
C361 H389 0.931 . S
C362 O376 1.259 . S
C362 O377 1.270 . S
C363 O378 1.251 . S
C363 O379 1.251 . S
C364 Eu365 2.835 . S
C364 C366 1.500 . S
C364 O380 1.257 . S
C364 O381 1.260 . S
Eu365 C364 2.835 . S
Eu365 O377 2.355 . S
Eu365 O379 2.374 . S
Eu365 O380 2.473 . S
Eu365 O381 2.480 . S
Eu365 O382 2.430 . S
Eu365 O383 2.670 . S
Eu365 O384 2.394 . S
C366 C364 1.500 . S
C366 C367 1.377 . S
C366 C371 1.377 . S
C367 C366 1.377 . S
C367 C368 1.395 . S
C367 H390 0.931 . S
C368 C367 1.395 . S
C368 C369 1.383 . S
C368 H391 0.931 . S
C369 C368 1.383 . S
C369 C370 1.394 . S
C370 C369 1.394 . S
C370 C371 1.378 . S
C370 H392 0.931 . S
C371 C366 1.377 . S
C371 C370 1.378 . S
C371 H393 0.931 . S
C372 O382 1.259 . S
C372 O383 1.270 . S
C373 O384 1.251 . S
C373 O385 1.251 . S
O374 C354 1.257 . S
O374 Eu355 2.473 . S
O375 C354 1.260 . S
O375 Eu355 2.480 . S
O376 Eu355 2.430 . S
O376 C362 1.259 . S
O377 Eu355 2.670 . S
O377 C362 1.270 . S
O377 Eu365 2.355 . S
O378 Eu355 2.394 . S
O378 C363 1.251 . S
O379 C363 1.251 . S
O379 Eu365 2.374 . S
O380 C364 1.257 . S
O380 Eu365 2.473 . S
O381 C364 1.260 . S
O381 Eu365 2.480 . S
O382 Eu365 2.430 . S
O382 C372 1.259 . S
O383 Eu355 2.355 . S
O383 Eu365 2.670 . S
O383 C372 1.270 . S
O384 Eu365 2.394 . S
O384 C373 1.251 . S
O385 Eu355 2.374 . S
O385 C373 1.251 . S
H386 C357 0.931 . S
H387 C358 0.931 . S
H388 C360 0.931 . S
H389 C361 0.931 . S
H390 C367 0.931 . S
H391 C368 0.931 . S
H392 C370 0.931 . S
H393 C371 0.931 . S
C394 Eu395 2.835 . S
C394 C396 1.500 . S
C394 O414 1.257 . S
C394 O415 1.260 . S
Eu395 C394 2.835 . S
Eu395 O414 2.473 . S
Eu395 O415 2.480 . S
Eu395 O416 2.430 . S
Eu395 O417 2.670 . S
Eu395 O418 2.394 . S
Eu395 O423 2.355 . S
Eu395 O425 2.374 . S
C396 C394 1.500 . S
C396 C397 1.377 . S
C396 C401 1.377 . S
C397 C396 1.377 . S
C397 C398 1.395 . S
C397 H426 0.931 . S
C398 C397 1.395 . S
C398 C399 1.383 . S
C398 H427 0.931 . S
C399 C398 1.383 . S
C399 C400 1.394 . S
C400 C399 1.394 . S
C400 C401 1.378 . S
C400 H428 0.931 . S
C401 C396 1.377 . S
C401 C400 1.378 . S
C401 H429 0.931 . S
C402 O416 1.259 . S
C402 O417 1.270 . S
C403 O418 1.251 . S
C403 O419 1.251 . S
C404 Eu405 2.835 . S
C404 C406 1.500 . S
C404 O420 1.257 . S
C404 O421 1.260 . S
Eu405 C404 2.835 . S
Eu405 O417 2.355 . S
Eu405 O419 2.374 . S
Eu405 O420 2.473 . S
Eu405 O421 2.480 . S
Eu405 O422 2.430 . S
Eu405 O423 2.670 . S
Eu405 O424 2.394 . S
C406 C404 1.500 . S
C406 C407 1.377 . S
C406 C411 1.377 . S
C407 C406 1.377 . S
C407 C408 1.395 . S
C407 H430 0.931 . S
C408 C407 1.395 . S
C408 C409 1.383 . S
C408 H431 0.931 . S
C409 C408 1.383 . S
C409 C410 1.394 . S
C410 C409 1.394 . S
C410 C411 1.378 . S
C410 H432 0.931 . S
C411 C406 1.377 . S
C411 C410 1.378 . S
C411 H433 0.931 . S
C412 O422 1.259 . S
C412 O423 1.270 . S
C413 O424 1.251 . S
C413 O425 1.251 . S
O414 C394 1.257 . S
O414 Eu395 2.473 . S
O415 C394 1.260 . S
O415 Eu395 2.480 . S
O416 Eu395 2.430 . S
O416 C402 1.259 . S
O417 Eu395 2.670 . S
O417 C402 1.270 . S
O417 Eu405 2.355 . S
O418 Eu395 2.394 . S
O418 C403 1.251 . S
O419 C403 1.251 . S
O419 Eu405 2.374 . S
O420 C404 1.257 . S
O420 Eu405 2.473 . S
O421 C404 1.260 . S
O421 Eu405 2.480 . S
O422 Eu405 2.430 . S
O422 C412 1.259 . S
O423 Eu395 2.355 . S
O423 Eu405 2.670 . S
O423 C412 1.270 . S
O424 Eu405 2.394 . S
O424 C413 1.251 . S
O425 Eu395 2.374 . S
O425 C413 1.251 . S
H426 C397 0.931 . S
H427 C398 0.931 . S
H428 C400 0.931 . S
H429 C401 0.931 . S
H430 C407 0.931 . S
H431 C408 0.931 . S
H432 C410 0.931 . S
H433 C411 0.931 . S
C434 Eu435 2.835 . S
C434 C436 1.500 . S
C434 O454 1.257 . S
C434 O455 1.260 . S
Eu435 C434 2.835 . S
Eu435 O454 2.473 . S
Eu435 O455 2.480 . S
Eu435 O456 2.430 . S
Eu435 O457 2.670 . S
Eu435 O458 2.394 . S
Eu435 O463 2.355 . S
Eu435 O465 2.374 . S
C436 C434 1.500 . S
C436 C437 1.377 . S
C436 C441 1.377 . S
C437 C436 1.377 . S
C437 C438 1.395 . S
C437 H466 0.931 . S
C438 C437 1.395 . S
C438 C439 1.383 . S
C438 H467 0.931 . S
C439 C438 1.383 . S
C439 C440 1.394 . S
C440 C439 1.394 . S
C440 C441 1.378 . S
C440 H468 0.931 . S
C441 C436 1.377 . S
C441 C440 1.378 . S
C441 H469 0.931 . S
C442 O456 1.259 . S
C442 O457 1.270 . S
C443 O458 1.251 . S
C443 O459 1.251 . S
C444 Eu445 2.835 . S
C444 C446 1.500 . S
C444 O460 1.257 . S
C444 O461 1.260 . S
Eu445 C444 2.835 . S
Eu445 O457 2.355 . S
Eu445 O459 2.374 . S
Eu445 O460 2.473 . S
Eu445 O461 2.480 . S
Eu445 O462 2.430 . S
Eu445 O463 2.670 . S
Eu445 O464 2.394 . S
C446 C444 1.500 . S
C446 C447 1.377 . S
C446 C451 1.377 . S
C447 C446 1.377 . S
C447 C448 1.395 . S
C447 H470 0.931 . S
C448 C447 1.395 . S
C448 C449 1.383 . S
C448 H471 0.931 . S
C449 C448 1.383 . S
C449 C450 1.394 . S
C450 C449 1.394 . S
C450 C451 1.378 . S
C450 H472 0.931 . S
C451 C446 1.377 . S
C451 C450 1.378 . S
C451 H473 0.931 . S
C452 O462 1.259 . S
C452 O463 1.270 . S
C453 O464 1.251 . S
C453 O465 1.251 . S
O454 C434 1.257 . S
O454 Eu435 2.473 . S
O455 C434 1.260 . S
O455 Eu435 2.480 . S
O456 Eu435 2.430 . S
O456 C442 1.259 . S
O457 Eu435 2.670 . S
O457 C442 1.270 . S
O457 Eu445 2.355 . S
O458 Eu435 2.394 . S
O458 C443 1.251 . S
O459 C443 1.251 . S
O459 Eu445 2.374 . S
O460 C444 1.257 . S
O460 Eu445 2.473 . S
O461 C444 1.260 . S
O461 Eu445 2.480 . S
O462 Eu445 2.430 . S
O462 C452 1.259 . S
O463 Eu435 2.355 . S
O463 Eu445 2.670 . S
O463 C452 1.270 . S
O464 Eu445 2.394 . S
O464 C453 1.251 . S
O465 Eu435 2.374 . S
O465 C453 1.251 . S
H466 C437 0.931 . S
H467 C438 0.931 . S
H468 C440 0.931 . S
H469 C441 0.931 . S
H470 C447 0.931 . S
H471 C448 0.931 . S
H472 C450 0.931 . S
H473 C451 0.931 . S
C474 Eu475 2.835 . S
C474 C476 1.500 . S
C474 O494 1.257 . S
C474 O495 1.260 . S
Eu475 C474 2.835 . S
Eu475 O494 2.473 . S
Eu475 O495 2.480 . S
Eu475 O496 2.430 . S
Eu475 O497 2.670 . S
Eu475 O498 2.394 . S
Eu475 O503 2.355 . S
Eu475 O505 2.374 . S
C476 C474 1.500 . S
C476 C477 1.377 . S
C476 C481 1.377 . S
C477 C476 1.377 . S
C477 C478 1.395 . S
C477 H506 0.931 . S
C478 C477 1.395 . S
C478 C479 1.383 . S
C478 H507 0.931 . S
C479 C478 1.383 . S
C479 C480 1.394 . S
C480 C479 1.394 . S
C480 C481 1.378 . S
C480 H508 0.931 . S
C481 C476 1.377 . S
C481 C480 1.378 . S
C481 H509 0.931 . S
C482 O496 1.259 . S
C482 O497 1.270 . S
C483 O498 1.251 . S
C483 O499 1.251 . S
C484 Eu485 2.835 . S
C484 C486 1.500 . S
C484 O500 1.257 . S
C484 O501 1.260 . S
Eu485 C484 2.835 . S
Eu485 O497 2.355 . S
Eu485 O499 2.374 . S
Eu485 O500 2.473 . S
Eu485 O501 2.480 . S
Eu485 O502 2.430 . S
Eu485 O503 2.670 . S
Eu485 O504 2.394 . S
C486 C484 1.500 . S
C486 C487 1.377 . S
C486 C491 1.377 . S
C487 C486 1.377 . S
C487 C488 1.395 . S
C487 H510 0.931 . S
C488 C487 1.395 . S
C488 C489 1.383 . S
C488 H511 0.931 . S
C489 C488 1.383 . S
C489 C490 1.394 . S
C490 C489 1.394 . S
C490 C491 1.378 . S
C490 H512 0.931 . S
C491 C486 1.377 . S
C491 C490 1.378 . S
C491 H513 0.931 . S
C492 O502 1.259 . S
C492 O503 1.270 . S
C493 O504 1.251 . S
C493 O505 1.251 . S
O494 C474 1.257 . S
O494 Eu475 2.473 . S
O495 C474 1.260 . S
O495 Eu475 2.480 . S
O496 Eu475 2.430 . S
O496 C482 1.259 . S
O497 Eu475 2.670 . S
O497 C482 1.270 . S
O497 Eu485 2.355 . S
O498 Eu475 2.394 . S
O498 C483 1.251 . S
O499 C483 1.251 . S
O499 Eu485 2.374 . S
O500 C484 1.257 . S
O500 Eu485 2.473 . S
O501 C484 1.260 . S
O501 Eu485 2.480 . S
O502 Eu485 2.430 . S
O502 C492 1.259 . S
O503 Eu475 2.355 . S
O503 Eu485 2.670 . S
O503 C492 1.270 . S
O504 Eu485 2.394 . S
O504 C493 1.251 . S
O505 Eu475 2.374 . S
O505 C493 1.251 . S
H506 C477 0.931 . S
H507 C478 0.931 . S
H508 C480 0.931 . S
H509 C481 0.931 . S
H510 C487 0.931 . S
H511 C488 0.931 . S
H512 C490 0.931 . S
H513 C491 0.931 . S
C514 Eu515 2.835 . S
C514 C516 1.500 . S
C514 O534 1.257 . S
C514 O535 1.260 . S
Eu515 C514 2.835 . S
Eu515 O534 2.473 . S
Eu515 O535 2.480 . S
Eu515 O536 2.430 . S
Eu515 O537 2.670 . S
Eu515 O538 2.394 . S
Eu515 O543 2.355 . S
Eu515 O545 2.374 . S
C516 C514 1.500 . S
C516 C517 1.377 . S
C516 C521 1.377 . S
C517 C516 1.377 . S
C517 C518 1.395 . S
C517 H546 0.931 . S
C518 C517 1.395 . S
C518 C519 1.383 . S
C518 H547 0.931 . S
C519 C518 1.383 . S
C519 C520 1.394 . S
C520 C519 1.394 . S
C520 C521 1.378 . S
C520 H548 0.931 . S
C521 C516 1.377 . S
C521 C520 1.378 . S
C521 H549 0.931 . S
C522 O536 1.259 . S
C522 O537 1.270 . S
C523 O538 1.251 . S
C523 O539 1.251 . S
C524 Eu525 2.835 . S
C524 C526 1.500 . S
C524 O540 1.257 . S
C524 O541 1.260 . S
Eu525 C524 2.835 . S
Eu525 O537 2.355 . S
Eu525 O539 2.374 . S
Eu525 O540 2.473 . S
Eu525 O541 2.480 . S
Eu525 O542 2.430 . S
Eu525 O543 2.670 . S
Eu525 O544 2.394 . S
C526 C524 1.500 . S
C526 C527 1.377 . S
C526 C531 1.377 . S
C527 C526 1.377 . S
C527 C528 1.395 . S
C527 H550 0.931 . S
C528 C527 1.395 . S
C528 C529 1.383 . S
C528 H551 0.931 . S
C529 C528 1.383 . S
C529 C530 1.394 . S
C530 C529 1.394 . S
C530 C531 1.378 . S
C530 H552 0.931 . S
C531 C526 1.377 . S
C531 C530 1.378 . S
C531 H553 0.931 . S
C532 O542 1.259 . S
C532 O543 1.270 . S
C533 O544 1.251 . S
C533 O545 1.251 . S
O534 C514 1.257 . S
O534 Eu515 2.473 . S
O535 C514 1.260 . S
O535 Eu515 2.480 . S
O536 Eu515 2.430 . S
O536 C522 1.259 . S
O537 Eu515 2.670 . S
O537 C522 1.270 . S
O537 Eu525 2.355 . S
O538 Eu515 2.394 . S
O538 C523 1.251 . S
O539 C523 1.251 . S
O539 Eu525 2.374 . S
O540 C524 1.257 . S
O540 Eu525 2.473 . S
O541 C524 1.260 . S
O541 Eu525 2.480 . S
O542 Eu525 2.430 . S
O542 C532 1.259 . S
O543 Eu515 2.355 . S
O543 Eu525 2.670 . S
O543 C532 1.270 . S
O544 Eu525 2.394 . S
O544 C533 1.251 . S
O545 Eu515 2.374 . S
O545 C533 1.251 . S
H546 C517 0.931 . S
H547 C518 0.931 . S
H548 C520 0.931 . S
H549 C521 0.931 . S
H550 C527 0.931 . S
H551 C528 0.931 . S
H552 C530 0.931 . S
H553 C531 0.931 . S
C554 Eu555 2.835 . S
C554 C556 1.500 . S
C554 O574 1.257 . S
C554 O575 1.260 . S
Eu555 C554 2.835 . S
Eu555 O574 2.473 . S
Eu555 O575 2.480 . S
Eu555 O576 2.430 . S
Eu555 O577 2.670 . S
Eu555 O578 2.394 . S
Eu555 O583 2.355 . S
Eu555 O585 2.374 . S
C556 C554 1.500 . S
C556 C557 1.377 . S
C556 C561 1.377 . S
C557 C556 1.377 . S
C557 C558 1.395 . S
C557 H586 0.931 . S
C558 C557 1.395 . S
C558 C559 1.383 . S
C558 H587 0.931 . S
C559 C558 1.383 . S
C559 C560 1.394 . S
C560 C559 1.394 . S
C560 C561 1.378 . S
C560 H588 0.931 . S
C561 C556 1.377 . S
C561 C560 1.378 . S
C561 H589 0.931 . S
C562 O576 1.259 . S
C562 O577 1.270 . S
C563 O578 1.251 . S
C563 O579 1.251 . S
C564 Eu565 2.835 . S
C564 C566 1.500 . S
C564 O580 1.257 . S
C564 O581 1.260 . S
Eu565 C564 2.835 . S
Eu565 O577 2.355 . S
Eu565 O579 2.374 . S
Eu565 O580 2.473 . S
Eu565 O581 2.480 . S
Eu565 O582 2.430 . S
Eu565 O583 2.670 . S
Eu565 O584 2.394 . S
C566 C564 1.500 . S
C566 C567 1.377 . S
C566 C571 1.377 . S
C567 C566 1.377 . S
C567 C568 1.395 . S
C567 H590 0.931 . S
C568 C567 1.395 . S
C568 C569 1.383 . S
C568 H591 0.931 . S
C569 C568 1.383 . S
C569 C570 1.394 . S
C570 C569 1.394 . S
C570 C571 1.378 . S
C570 H592 0.931 . S
C571 C566 1.377 . S
C571 C570 1.378 . S
C571 H593 0.931 . S
C572 O582 1.259 . S
C572 O583 1.270 . S
C573 O584 1.251 . S
C573 O585 1.251 . S
O574 C554 1.257 . S
O574 Eu555 2.473 . S
O575 C554 1.260 . S
O575 Eu555 2.480 . S
O576 Eu555 2.430 . S
O576 C562 1.259 . S
O577 Eu555 2.670 . S
O577 C562 1.270 . S
O577 Eu565 2.355 . S
O578 Eu555 2.394 . S
O578 C563 1.251 . S
O579 C563 1.251 . S
O579 Eu565 2.374 . S
O580 C564 1.257 . S
O580 Eu565 2.473 . S
O581 C564 1.260 . S
O581 Eu565 2.480 . S
O582 Eu565 2.430 . S
O582 C572 1.259 . S
O583 Eu555 2.355 . S
O583 Eu565 2.670 . S
O583 C572 1.270 . S
O584 Eu565 2.394 . S
O584 C573 1.251 . S
O585 Eu555 2.374 . S
O585 C573 1.251 . S
H586 C557 0.931 . S
H587 C558 0.931 . S
H588 C560 0.931 . S
H589 C561 0.931 . S
H590 C567 0.931 . S
H591 C568 0.931 . S
H592 C570 0.931 . S
H593 C571 0.931 . S
H594 C602 0.950 . S
H595 C607 0.950 . S
H596 C604 0.950 . S
H597 C606 0.950 . S
H598 C608 0.950 . S
H599 C610 0.950 . S
H600 C612 0.950 . S
H601 C613 0.950 . S
C602 H594 0.950 . S
C602 C603 1.386 . S
C602 C604 1.391 . S
C603 C602 1.386 . S
C603 C607 1.393 . S
C604 H596 0.950 . S
C604 C602 1.391 . S
C604 C605 1.400 . S
C605 C604 1.400 . S
C605 C606 1.398 . S
C605 C611 1.491 . S
C606 H597 0.950 . S
C606 C605 1.398 . S
C606 C607 1.391 . S
C607 H595 0.950 . S
C607 C603 1.393 . S
C607 C606 1.391 . S
C608 H598 0.950 . S
C608 C609 1.386 . S
C608 C610 1.391 . S
C609 C608 1.386 . S
C609 C613 1.393 . S
C610 H599 0.950 . S
C610 C608 1.391 . S
C610 C611 1.400 . S
C611 C605 1.491 . S
C611 C610 1.400 . S
C611 C612 1.398 . S
C612 H600 0.950 . S
C612 C611 1.398 . S
C612 C613 1.391 . S
C613 H601 0.950 . S
C613 C609 1.393 . S
C613 C612 1.391 . S
H614 C622 0.950 . S
H615 C627 0.950 . S
H616 C624 0.950 . S
H617 C626 0.950 . S
H618 C628 0.950 . S
H619 C630 0.950 . S
H620 C632 0.950 . S
H621 C633 0.950 . S
C622 H614 0.950 . S
C622 C623 1.386 . S
C622 C624 1.391 . S
C623 C622 1.386 . S
C623 C627 1.393 . S
C624 H616 0.950 . S
C624 C622 1.391 . S
C624 C625 1.400 . S
C625 C624 1.400 . S
C625 C626 1.398 . S
C625 C631 1.491 . S
C626 H617 0.950 . S
C626 C625 1.398 . S
C626 C627 1.391 . S
C627 H615 0.950 . S
C627 C623 1.393 . S
C627 C626 1.391 . S
C628 H618 0.950 . S
C628 C629 1.386 . S
C628 C630 1.391 . S
C629 C628 1.386 . S
C629 C633 1.393 . S
C630 H619 0.950 . S
C630 C628 1.391 . S
C630 C631 1.400 . S
C631 C625 1.491 . S
C631 C630 1.400 . S
C631 C632 1.398 . S
C632 H620 0.950 . S
C632 C631 1.398 . S
C632 C633 1.391 . S
C633 H621 0.950 . S
C633 C629 1.393 . S
C633 C632 1.391 . S
H634 C642 0.950 . S
H635 C647 0.950 . S
H636 C644 0.950 . S
H637 C646 0.950 . S
H638 C648 0.950 . S
H639 C650 0.950 . S
H640 C652 0.950 . S
H641 C653 0.950 . S
C642 H634 0.950 . S
C642 C643 1.386 . S
C642 C644 1.391 . S
C643 C642 1.386 . S
C643 C647 1.393 . S
C644 H636 0.950 . S
C644 C642 1.391 . S
C644 C645 1.400 . S
C645 C644 1.400 . S
C645 C646 1.398 . S
C645 C651 1.491 . S
C646 H637 0.950 . S
C646 C645 1.398 . S
C646 C647 1.391 . S
C647 H635 0.950 . S
C647 C643 1.393 . S
C647 C646 1.391 . S
C648 H638 0.950 . S
C648 C649 1.386 . S
C648 C650 1.391 . S
C649 C648 1.386 . S
C649 C653 1.393 . S
C650 H639 0.950 . S
C650 C648 1.391 . S
C650 C651 1.400 . S
C651 C645 1.491 . S
C651 C650 1.400 . S
C651 C652 1.398 . S
C652 H640 0.950 . S
C652 C651 1.398 . S
C652 C653 1.391 . S
C653 H641 0.950 . S
C653 C649 1.393 . S
C653 C652 1.391 . S
H654 C662 0.950 . S
H655 C667 0.950 . S
H656 C664 0.950 1_554 S
H657 C666 0.950 . S
H658 C668 0.950 . S
H659 C670 0.950 . S
H660 C672 0.950 . S
H661 C673 0.950 . S
C662 H654 0.950 . S
C662 C663 1.386 . S
C662 C664 1.391 . S
C663 C662 1.386 . S
C663 C667 1.393 . S
C664 H656 0.950 1_556 S
C664 C662 1.391 . S
C664 C665 1.400 . S
C665 C664 1.400 . S
C665 C666 1.398 . S
C665 C671 1.491 . S
C666 H657 0.950 . S
C666 C665 1.398 . S
C666 C667 1.391 . S
C667 H655 0.950 . S
C667 C663 1.393 . S
C667 C666 1.391 . S
C668 H658 0.950 . S
C668 C669 1.386 . S
C668 C670 1.391 . S
C669 C668 1.386 . S
C669 C673 1.393 1_556 S
C670 H659 0.950 . S
C670 C668 1.391 . S
C670 C671 1.400 . S
C671 C665 1.491 . S
C671 C670 1.400 . S
C671 C672 1.398 1_556 S
C672 H660 0.950 . S
C672 C671 1.398 1_554 S
C672 C673 1.391 . S
C673 H661 0.950 . S
C673 C669 1.393 1_554 S
C673 C672 1.391 . S
H674 C682 0.950 . S
H675 C687 0.950 . S
H676 C684 0.950 . S
H677 C686 0.950 . S
H678 C688 0.950 1_554 S
H679 C690 0.950 . S
H680 C692 0.950 . S
H681 C693 0.950 . S
C682 H674 0.950 . S
C682 C683 1.386 . S
C682 C684 1.391 . S
C683 C682 1.386 . S
C683 C687 1.393 . S
C684 H676 0.950 . S
C684 C682 1.391 . S
C684 C685 1.400 . S
C685 C684 1.400 . S
C685 C686 1.398 . S
C685 C691 1.491 . S
C686 H677 0.950 . S
C686 C685 1.398 . S
C686 C687 1.391 . S
C687 H675 0.950 . S
C687 C683 1.393 . S
C687 C686 1.391 . S
C688 H678 0.950 1_556 S
C688 C689 1.386 . S
C688 C690 1.391 . S
C689 C688 1.386 . S
C689 C693 1.393 . S
C690 H679 0.950 . S
C690 C688 1.391 . S
C690 C691 1.400 . S
C691 C685 1.491 . S
C691 C690 1.400 . S
C691 C692 1.398 . S
C692 H680 0.950 . S
C692 C691 1.398 . S
C692 C693 1.391 . S
C693 H681 0.950 . S
C693 C689 1.393 . S
C693 C692 1.391 . S
H694 C702 0.950 . S
H695 C707 0.950 . S
H696 C704 0.950 . S
H697 C706 0.950 . S
H698 C708 0.948 . S
H699 C710 0.950 . S
H700 C712 0.950 . S
H701 C713 0.950 . S
C702 H694 0.950 . S
C702 C703 1.386 . S
C702 C704 1.391 . S
C703 C702 1.386 . S
C703 C707 1.393 . S
C704 H696 0.950 . S
C704 C702 1.391 . S
C704 C705 1.400 . S
C705 C704 1.400 . S
C705 C706 1.398 . S
C705 C711 1.491 . S
C706 H697 0.950 . S
C706 C705 1.398 . S
C706 C707 1.391 . S
C707 H695 0.950 . S
C707 C703 1.393 . S
C707 C706 1.391 . S
C708 H698 0.948 . S
C708 C709 1.385 . S
C708 C710 1.391 . S
C709 C708 1.385 . S
C709 C713 1.410 . S
C710 H699 0.950 . S
C710 C708 1.391 . S
C710 C711 1.400 . S
C711 C705 1.491 . S
C711 C710 1.400 . S
C711 C712 1.398 . S
C712 H700 0.950 . S
C712 C711 1.398 . S
C712 C713 1.391 . S
C713 H701 0.950 . S
C713 C709 1.410 . S
C713 C712 1.391 . S
H714 C722 0.919 1_554 S
H715 C727 0.950 . S
H716 C724 0.950 1_554 S
H717 C726 0.950 . S
H718 C728 0.950 . S
H719 C730 0.950 . S
H720 C732 0.950 . S
H721 C733 0.950 . S
C722 H714 0.919 1_556 S
C722 C723 1.386 . S
C722 C724 1.391 . S
C723 C722 1.386 . S
C723 C727 1.393 . S
C724 H716 0.950 1_556 S
C724 C722 1.391 . S
C724 C725 1.400 . S
C725 C724 1.400 . S
C725 C726 1.398 . S
C725 C731 1.491 . S
C726 H717 0.950 . S
C726 C725 1.398 . S
C726 C727 1.391 . S
C727 H715 0.950 . S
C727 C723 1.393 . S
C727 C726 1.391 . S
C728 H718 0.950 . S
C728 C729 1.386 . S
C728 C730 1.391 . S
C729 C728 1.386 . S
C729 C733 1.393 1_556 S
C730 H719 0.950 . S
C730 C728 1.391 . S
C730 C731 1.400 . S
C731 C725 1.491 . S
C731 C730 1.400 . S
C731 C732 1.398 1_556 S
C732 H720 0.950 . S
C732 C731 1.398 1_554 S
C732 C733 1.391 . S
C733 H721 0.950 . S
C733 C729 1.393 1_554 S
C733 C732 1.391 . S
H734 C742 0.950 . S
H735 C747 0.950 . S
H736 C744 0.950 . S
H737 C746 0.950 . S
H738 C748 0.950 1_554 S
H739 C750 0.950 . S
H740 C752 0.950 . S
H741 C753 0.950 . S
C742 H734 0.950 . S
C742 C743 1.386 . S
C742 C744 1.391 . S
C743 C742 1.386 . S
C743 C747 1.393 . S
C744 H736 0.950 . S
C744 C742 1.391 . S
C744 C745 1.400 . S
C745 C744 1.400 . S
C745 C746 1.398 . S
C745 C751 1.491 . S
C746 H737 0.950 . S
C746 C745 1.398 . S
C746 C747 1.391 . S
C747 H735 0.950 . S
C747 C743 1.393 . S
C747 C746 1.391 . S
C748 H738 0.950 1_556 S
C748 C749 1.386 . S
C748 C750 1.391 . S
C749 C748 1.386 . S
C749 C753 1.393 . S
C750 H739 0.950 . S
C750 C748 1.391 . S
C750 C751 1.400 . S
C751 C745 1.491 . S
C751 C750 1.400 . S
C751 C752 1.398 . S
C752 H740 0.950 . S
C752 C751 1.398 . S
C752 C753 1.391 . S
C753 H741 0.950 . S
C753 C749 1.393 . S
C753 C752 1.391 . S
H754 C762 0.950 . S
H755 C767 0.950 . S
H756 C764 0.952 . S
H757 C766 0.950 . S
H758 C768 0.950 . S
H759 C770 0.950 . S
H760 C772 0.945 . S
H761 C773 0.950 . S
C762 H754 0.950 . S
C762 C763 1.386 . S
C762 C764 1.391 . S
C763 C762 1.386 . S
C763 C767 1.393 . S
C764 H756 0.952 . S
C764 C762 1.391 . S
C764 C765 1.400 . S
C765 C764 1.400 . S
C765 C766 1.398 . S
C765 C771 1.491 . S
C766 H757 0.950 . S
C766 C765 1.398 . S
C766 C767 1.391 . S
C767 H755 0.950 . S
C767 C763 1.393 . S
C767 C766 1.391 . S
C768 H758 0.950 . S
C768 C769 1.386 1_556 S
C768 C770 1.391 . S
C769 C768 1.386 1_554 S
C769 C773 1.393 . S
C770 H759 0.950 . S
C770 C768 1.391 . S
C770 C771 1.400 . S
C771 C765 1.491 . S
C771 C770 1.400 . S
C771 C772 1.396 1_556 S
C772 H760 0.945 . S
C772 C771 1.396 1_554 S
C772 C773 1.391 . S
C773 H761 0.950 . S
C773 C769 1.393 . S
C773 C772 1.391 . S
H774 C782 0.950 . S
H775 C787 0.950 . S
H776 C784 0.950 . S
H777 C786 0.950 . S
H778 C788 0.950 . S
H779 C790 0.950 . S
H780 C792 0.950 . S
H781 C793 0.950 . S
C782 H774 0.950 . S
C782 C783 1.386 . S
C782 C784 1.391 . S
C783 C782 1.386 . S
C783 C787 1.393 . S
C784 H776 0.950 . S
C784 C782 1.391 . S
C784 C785 1.400 . S
C785 C784 1.400 . S
C785 C786 1.398 . S
C785 C791 1.491 . S
C786 H777 0.950 . S
C786 C785 1.398 . S
C786 C787 1.391 . S
C787 H775 0.950 . S
C787 C783 1.393 . S
C787 C786 1.391 . S
C788 H778 0.950 . S
C788 C789 1.386 . S
C788 C790 1.391 . S
C789 C788 1.386 . S
C789 C793 1.393 . S
C790 H779 0.950 . S
C790 C788 1.391 . S
C790 C791 1.400 . S
C791 C785 1.491 . S
C791 C790 1.400 . S
C791 C792 1.398 . S
C792 H780 0.950 . S
C792 C791 1.398 . S
C792 C793 1.391 . S
C793 H781 0.950 . S
C793 C789 1.393 . S
C793 C792 1.391 . S
H794 C802 0.950 . S
H795 C807 0.950 . S
H796 C804 0.950 . S
H797 C806 0.950 . S
H798 C808 0.950 . S
H799 C810 0.950 . S
H800 C812 0.950 . S
H801 C813 0.950 . S
C802 H794 0.950 . S
C802 C803 1.386 . S
C802 C804 1.391 . S
C803 C802 1.386 . S
C803 C807 1.393 . S
C804 H796 0.950 . S
C804 C802 1.391 . S
C804 C805 1.400 . S
C805 C804 1.400 . S
C805 C806 1.398 . S
C805 C811 1.491 . S
C806 H797 0.950 . S
C806 C805 1.398 . S
C806 C807 1.391 . S
C807 H795 0.950 . S
C807 C803 1.393 . S
C807 C806 1.391 . S
C808 H798 0.950 . S
C808 C809 1.386 . S
C808 C810 1.391 . S
C809 C808 1.386 . S
C809 C813 1.393 . S
C810 H799 0.950 . S
C810 C808 1.391 . S
C810 C811 1.400 . S
C811 C805 1.491 . S
C811 C810 1.400 . S
C811 C812 1.398 . S
C812 H800 0.950 . S
C812 C811 1.398 . S
C812 C813 1.391 . S
C813 H801 0.950 . S
C813 C809 1.393 . S
C813 C812 1.391 . S
H814 C822 0.950 . S
H815 C827 0.950 . S
H816 C824 0.950 . S
H817 C826 0.950 . S
H818 C828 0.950 . S
H819 C830 0.950 . S
H820 C832 0.950 . S
H821 C833 0.950 . S
C822 H814 0.950 . S
C822 C823 1.386 . S
C822 C824 1.391 . S
C823 C822 1.386 . S
C823 C827 1.393 . S
C824 H816 0.950 . S
C824 C822 1.391 . S
C824 C825 1.400 . S
C825 C824 1.400 . S
C825 C826 1.398 . S
C825 C831 1.491 . S
C826 H817 0.950 . S
C826 C825 1.398 . S
C826 C827 1.391 . S
C827 H815 0.950 . S
C827 C823 1.393 . S
C827 C826 1.391 . S
C828 H818 0.950 . S
C828 C829 1.386 . S
C828 C830 1.391 . S
C829 C828 1.386 . S
C829 C833 1.393 . S
C830 H819 0.950 . S
C830 C828 1.391 . S
C830 C831 1.400 . S
C831 C825 1.491 . S
C831 C830 1.400 . S
C831 C832 1.398 . S
C832 H820 0.950 . S
C832 C831 1.398 . S
C832 C833 1.391 . S
C833 H821 0.950 . S
C833 C829 1.393 . S
C833 C832 1.391 . S
H834 C842 0.950 . S
H835 C847 0.950 . S
H836 C844 0.950 . S
H837 C846 0.950 . S
H838 C848 0.950 . S
H839 C850 0.950 . S
H840 C852 0.950 . S
H841 C853 0.950 . S
C842 H834 0.950 . S
C842 C843 1.386 . S
C842 C844 1.391 . S
C843 C842 1.386 . S
C843 C847 1.393 . S
C844 H836 0.950 . S
C844 C842 1.391 . S
C844 C845 1.400 . S
C845 C844 1.400 . S
C845 C846 1.398 . S
C845 C851 1.491 1_655 S
C846 H837 0.950 . S
C846 C845 1.398 . S
C846 C847 1.391 . S
C847 H835 0.950 . S
C847 C843 1.393 . S
C847 C846 1.391 . S
C848 H838 0.950 . S
C848 C849 1.386 . S
C848 C850 1.391 . S
C849 C848 1.386 . S
C849 C853 1.393 . S
C850 H839 0.950 . S
C850 C848 1.391 . S
C850 C851 1.400 . S
C851 C845 1.491 1_455 S
C851 C850 1.400 . S
C851 C852 1.398 . S
C852 H840 0.950 . S
C852 C851 1.398 . S
C852 C853 1.391 . S
C853 H841 0.950 . S
C853 C849 1.393 . S
C853 C852 1.391 . S
H854 C862 0.950 . S
H855 C867 0.950 . S
H856 C864 0.950 . S
H857 C866 0.950 . S
H858 C868 0.950 . S
H859 C870 0.950 . S
H860 C872 0.950 . S
H861 C873 0.950 . S
C862 H854 0.950 . S
C862 C863 1.386 . S
C862 C864 1.391 . S
C863 C862 1.386 . S
C863 C867 1.393 . S
C864 H856 0.950 . S
C864 C862 1.391 . S
C864 C865 1.400 . S
C865 C864 1.400 . S
C865 C866 1.398 . S
C865 C871 1.491 . S
C866 H857 0.950 . S
C866 C865 1.398 . S
C866 C867 1.391 . S
C867 H855 0.950 . S
C867 C863 1.393 . S
C867 C866 1.391 . S
C868 H858 0.950 . S
C868 C869 1.386 . S
C868 C870 1.391 . S
C869 C868 1.386 . S
C869 C873 1.393 . S
C870 H859 0.950 . S
C870 C868 1.391 . S
C870 C871 1.400 . S
C871 C865 1.491 . S
C871 C870 1.400 . S
C871 C872 1.398 . S
C872 H860 0.950 . S
C872 C871 1.398 . S
C872 C873 1.391 . S
C873 H861 0.950 . S
C873 C869 1.393 . S
C873 C872 1.391 . S
H874 C882 0.950 . S
H875 C887 0.950 . S
H876 C884 0.950 . S
H877 C886 0.950 . S
H878 C888 0.950 . S
H879 C890 0.950 1_545 S
H880 C892 0.950 . S
H881 C893 0.950 . S
C882 H874 0.950 . S
C882 C883 1.386 . S
C882 C884 1.391 . S
C883 C882 1.386 . S
C883 C887 1.393 . S
C884 H876 0.950 . S
C884 C882 1.391 . S
C884 C885 1.400 . S
C885 C884 1.400 . S
C885 C886 1.398 . S
C885 C891 1.491 . S
C886 H877 0.950 . S
C886 C885 1.398 . S
C886 C887 1.391 . S
C887 H875 0.950 . S
C887 C883 1.393 . S
C887 C886 1.391 . S
C888 H878 0.950 . S
C888 C889 1.386 . S
C888 C890 1.391 . S
C889 C888 1.386 . S
C889 C893 1.393 . S
C890 H879 0.950 1_565 S
C890 C888 1.391 . S
C890 C891 1.400 1_565 S
C891 C885 1.491 . S
C891 C890 1.400 1_545 S
C891 C892 1.398 1_545 S
C892 H880 0.950 . S
C892 C891 1.398 1_565 S
C892 C893 1.391 . S
C893 H881 0.950 . S
C893 C889 1.393 . S
C893 C892 1.391 . S
H894 C902 0.950 . S
H895 C907 0.950 . S
H896 C904 0.950 . S
H897 C906 0.950 . S
H898 C908 0.950 . S
H899 C910 0.950 . S
H900 C912 0.950 . S
H901 C913 0.950 . S
C902 H894 0.950 . S
C902 C903 1.386 . S
C902 C904 1.391 . S
C903 C902 1.386 . S
C903 C907 1.393 . S
C904 H896 0.950 . S
C904 C902 1.391 . S
C904 C905 1.400 . S
C905 C904 1.400 . S
C905 C906 1.398 . S
C905 C911 1.491 . S
C906 H897 0.950 . S
C906 C905 1.398 . S
C906 C907 1.391 . S
C907 H895 0.950 . S
C907 C903 1.393 . S
C907 C906 1.391 . S
C908 H898 0.950 . S
C908 C909 1.386 . S
C908 C910 1.391 . S
C909 C908 1.386 . S
C909 C913 1.393 . S
C910 H899 0.950 . S
C910 C908 1.391 . S
C910 C911 1.400 . S
C911 C905 1.491 . S
C911 C910 1.400 . S
C911 C912 1.398 . S
C912 H900 0.950 . S
C912 C911 1.398 . S
C912 C913 1.391 . S
C913 H901 0.950 . S
C913 C909 1.393 . S
C913 C912 1.391 . S
H914 C922 0.950 . S
H915 C927 0.950 . S
H916 C924 0.950 . S
H917 C926 0.950 . S
H918 C928 0.950 . S
H919 C930 0.950 . S
H920 C932 0.950 . S
H921 C933 0.950 . S
C922 H914 0.950 . S
C922 C923 1.386 . S
C922 C924 1.391 . S
C923 C922 1.386 . S
C923 C927 1.393 . S
C924 H916 0.950 . S
C924 C922 1.391 . S
C924 C925 1.400 . S
C925 C924 1.400 . S
C925 C926 1.398 . S
C925 C931 1.491 . S
C926 H917 0.950 . S
C926 C925 1.398 . S
C926 C927 1.391 . S
C927 H915 0.950 . S
C927 C923 1.393 . S
C927 C926 1.391 . S
C928 H918 0.950 . S
C928 C929 1.386 . S
C928 C930 1.391 . S
C929 C928 1.386 . S
C929 C933 1.393 . S
C930 H919 0.950 . S
C930 C928 1.391 . S
C930 C931 1.400 . S
C931 C925 1.491 . S
C931 C930 1.400 . S
C931 C932 1.398 . S
C932 H920 0.950 . S
C932 C931 1.398 . S
C932 C933 1.391 . S
C933 H921 0.950 . S
C933 C929 1.393 . S
C933 C932 1.391 . S
H934 C942 0.950 . S
H935 C947 0.950 . S
H936 C944 0.950 . S
H937 C946 0.950 . S
H938 C948 0.950 . S
H939 C950 0.950 . S
H940 C952 0.950 . S
H941 C953 0.950 . S
C942 H934 0.950 . S
C942 C943 1.386 . S
C942 C944 1.391 . S
C943 C942 1.386 . S
C943 C947 1.393 . S
C944 H936 0.950 . S
C944 C942 1.391 . S
C944 C945 1.400 . S
C945 C944 1.400 . S
C945 C946 1.398 . S
C945 C951 1.491 . S
C946 H937 0.950 . S
C946 C945 1.398 . S
C946 C947 1.391 . S
C947 H935 0.950 . S
C947 C943 1.393 . S
C947 C946 1.391 . S
C948 H938 0.950 . S
C948 C949 1.386 . S
C948 C950 1.391 . S
C949 C948 1.386 . S
C949 C953 1.393 . S
C950 H939 0.950 . S
C950 C948 1.391 . S
C950 C951 1.400 . S
C951 C945 1.491 . S
C951 C950 1.400 . S
C951 C952 1.398 . S
C952 H940 0.950 . S
C952 C951 1.398 . S
C952 C953 1.391 . S
C953 H941 0.950 . S
C953 C949 1.393 . S
C953 C952 1.391 . S
H954 C962 0.950 . S
H955 C967 0.950 . S
H956 C964 0.950 . S
H957 C966 0.950 . S
H958 C968 0.950 . S
H959 C970 0.950 . S
H960 C972 0.950 . S
H961 C973 0.950 . S
C962 H954 0.950 . S
C962 C963 1.386 . S
C962 C964 1.391 . S
C963 C962 1.386 . S
C963 C967 1.393 . S
C964 H956 0.950 . S
C964 C962 1.391 . S
C964 C965 1.400 . S
C965 C964 1.400 . S
C965 C966 1.398 . S
C965 C971 1.491 . S
C966 H957 0.950 . S
C966 C965 1.398 . S
C966 C967 1.391 . S
C967 H955 0.950 . S
C967 C963 1.393 . S
C967 C966 1.391 . S
C968 H958 0.950 . S
C968 C969 1.386 . S
C968 C970 1.391 . S
C969 C968 1.386 . S
C969 C973 1.393 . S
C970 H959 0.950 . S
C970 C968 1.391 . S
C970 C971 1.400 . S
C971 C965 1.491 . S
C971 C970 1.400 . S
C971 C972 1.398 . S
C972 H960 0.950 . S
C972 C971 1.398 . S
C972 C973 1.391 . S
C973 H961 0.950 . S
C973 C969 1.393 . S
C973 C972 1.391 . S
H974 C982 0.950 . S
H975 C987 0.950 . S
H976 C984 0.950 . S
H977 C986 0.950 . S
H978 C988 0.950 . S
H979 C990 0.950 . S
H980 C992 0.950 . S
H981 C993 0.950 . S
C982 H974 0.950 . S
C982 C983 1.386 . S
C982 C984 1.391 . S
C983 C982 1.386 . S
C983 C987 1.393 . S
C984 H976 0.950 . S
C984 C982 1.391 . S
C984 C985 1.400 . S
C985 C984 1.400 . S
C985 C986 1.398 . S
C985 C991 1.491 . S
C986 H977 0.950 . S
C986 C985 1.398 . S
C986 C987 1.391 . S
C987 H975 0.950 . S
C987 C983 1.393 . S
C987 C986 1.391 . S
C988 H978 0.950 . S
C988 C989 1.386 . S
C988 C990 1.391 . S
C989 C988 1.386 . S
C989 C993 1.393 . S
C990 H979 0.950 . S
C990 C988 1.391 . S
C990 C991 1.400 . S
C991 C985 1.491 . S
C991 C990 1.400 . S
C991 C992 1.398 . S
C992 H980 0.950 . S
C992 C991 1.398 . S
C992 C993 1.391 . S
C993 H981 0.950 . S
C993 C989 1.393 . S
C993 C992 1.391 . S
H994 C1002 0.950 . S
H995 C1007 0.950 . S
H996 C1004 0.950 . S
H997 C1006 0.950 . S
H998 C1008 0.950 . S
H999 C1010 0.950 . S
H1000 C1012 0.950 . S
H1001 C1013 0.950 . S
C1002 H994 0.950 . S
C1002 C1003 1.386 . S
C1002 C1004 1.391 . S
C1003 C1002 1.386 . S
C1003 C1007 1.393 . S
C1004 H996 0.950 . S
C1004 C1002 1.391 . S
C1004 C1005 1.400 . S
C1005 C1004 1.400 . S
C1005 C1006 1.398 . S
C1005 C1011 1.491 . S
C1006 H997 0.950 . S
C1006 C1005 1.398 . S
C1006 C1007 1.391 . S
C1007 H995 0.950 . S
C1007 C1003 1.393 . S
C1007 C1006 1.391 . S
C1008 H998 0.950 . S
C1008 C1009 1.386 . S
C1008 C1010 1.391 . S
C1009 C1008 1.386 . S
C1009 C1013 1.393 . S
C1010 H999 0.950 . S
C1010 C1008 1.391 . S
C1010 C1011 1.400 . S
C1011 C1005 1.491 . S
C1011 C1010 1.400 . S
C1011 C1012 1.398 . S
C1012 H1000 0.950 . S
C1012 C1011 1.398 . S
C1012 C1013 1.391 . S
C1013 H1001 0.950 . S
C1013 C1009 1.393 . S
C1013 C1012 1.391 . S
H1014 C1022 0.950 . S
H1015 C1027 0.950 . S
H1016 C1024 0.950 . S
H1017 C1026 0.950 . S
H1018 C1028 0.950 . S
H1019 C1030 0.950 . S
H1020 C1032 0.950 . S
H1021 C1033 0.950 . S
C1022 H1014 0.950 . S
C1022 C1023 1.386 . S
C1022 C1024 1.391 1_545 S
C1023 C1022 1.386 . S
C1023 C1027 1.393 . S
C1024 H1016 0.950 . S
C1024 C1022 1.391 1_565 S
C1024 C1025 1.400 . S
C1025 C1024 1.400 . S
C1025 C1026 1.398 . S
C1025 C1031 1.491 . S
C1026 H1017 0.950 . S
C1026 C1025 1.398 . S
C1026 C1027 1.391 1_565 S
C1027 H1015 0.950 . S
C1027 C1023 1.393 . S
C1027 C1026 1.391 1_545 S
C1028 H1018 0.950 . S
C1028 C1029 1.386 . S
C1028 C1030 1.391 . S
C1029 C1028 1.386 . S
C1029 C1033 1.393 . S
C1030 H1019 0.950 . S
C1030 C1028 1.391 . S
C1030 C1031 1.400 . S
C1031 C1025 1.491 . S
C1031 C1030 1.400 . S
C1031 C1032 1.398 . S
C1032 H1020 0.950 . S
C1032 C1031 1.398 . S
C1032 C1033 1.391 . S
C1033 H1021 0.950 . S
C1033 C1029 1.393 . S
C1033 C1032 1.391 . S
H1034 C1042 0.950 1_655 S
H1035 C1047 0.950 . S
H1036 C1044 0.950 . S
H1037 C1046 0.950 . S
H1038 C1048 0.950 . S
H1039 C1050 0.950 . S
H1040 C1052 0.950 . S
H1041 C1053 0.950 . S
C1042 H1034 0.950 1_455 S
C1042 C1043 1.386 1_455 S
C1042 C1044 1.391 . S
C1043 C1042 1.386 1_655 S
C1043 C1047 1.393 . S
C1044 H1036 0.950 . S
C1044 C1042 1.391 . S
C1044 C1045 1.400 . S
C1045 C1044 1.400 . S
C1045 C1046 1.398 . S
C1045 C1051 1.491 . S
C1046 H1037 0.950 . S
C1046 C1045 1.398 . S
C1046 C1047 1.391 1_455 S
C1047 H1035 0.950 . S
C1047 C1043 1.393 . S
C1047 C1046 1.391 1_655 S
C1048 H1038 0.950 . S
C1048 C1049 1.386 . S
C1048 C1050 1.391 . S
C1049 C1048 1.386 . S
C1049 C1053 1.393 . S
C1050 H1039 0.950 . S
C1050 C1048 1.391 . S
C1050 C1051 1.400 . S
C1051 C1045 1.491 . S
C1051 C1050 1.400 . S
C1051 C1052 1.398 . S
C1052 H1040 0.950 . S
C1052 C1051 1.398 . S
C1052 C1053 1.391 . S
C1053 H1041 0.950 . S
C1053 C1049 1.393 . S
C1053 C1052 1.391 . S
H1054 C1062 0.950 . S
H1055 C1067 0.950 . S
H1056 C1064 0.950 . S
H1057 C1066 0.950 . S
H1058 C1068 0.950 . S
H1059 C1070 0.950 . S
H1060 C1072 0.950 . S
H1061 C1073 0.950 . S
C1062 H1054 0.950 . S
C1062 C1063 1.386 . S
C1062 C1064 1.391 . S
C1063 C1062 1.386 . S
C1063 C1067 1.393 . S
C1064 H1056 0.950 . S
C1064 C1062 1.391 . S
C1064 C1065 1.400 . S
C1065 C1064 1.400 . S
C1065 C1066 1.398 . S
C1065 C1071 1.491 . S
C1066 H1057 0.950 . S
C1066 C1065 1.398 . S
C1066 C1067 1.391 . S
C1067 H1055 0.950 . S
C1067 C1063 1.393 . S
C1067 C1066 1.391 . S
C1068 H1058 0.950 . S
C1068 C1069 1.386 . S
C1068 C1070 1.391 . S
C1069 C1068 1.386 . S
C1069 C1073 1.393 . S
C1070 H1059 0.950 . S
C1070 C1068 1.391 . S
C1070 C1071 1.400 . S
C1071 C1065 1.491 . S
C1071 C1070 1.400 . S
C1071 C1072 1.398 . S
C1072 H1060 0.950 . S
C1072 C1071 1.398 . S
C1072 C1073 1.391 . S
C1073 H1061 0.950 . S
C1073 C1069 1.393 . S
C1073 C1072 1.391 . S
H1074 C1082 0.950 . S
H1075 C1087 0.950 . S
H1076 C1084 0.950 . S
H1077 C1086 0.950 . S
H1078 C1088 0.950 . S
H1079 C1090 0.950 . S
H1080 C1092 0.950 . S
H1081 C1093 0.950 . S
C1082 H1074 0.950 . S
C1082 C1083 1.386 . S
C1082 C1084 1.391 . S
C1083 C1082 1.386 . S
C1083 C1087 1.393 . S
C1084 H1076 0.950 . S
C1084 C1082 1.391 . S
C1084 C1085 1.400 . S
C1085 C1084 1.400 . S
C1085 C1086 1.398 . S
C1085 C1091 1.491 . S
C1086 H1077 0.950 . S
C1086 C1085 1.398 . S
C1086 C1087 1.391 . S
C1087 H1075 0.950 . S
C1087 C1083 1.393 . S
C1087 C1086 1.391 . S
C1088 H1078 0.950 . S
C1088 C1089 1.386 . S
C1088 C1090 1.391 . S
C1089 C1088 1.386 . S
C1089 C1093 1.393 . S
C1090 H1079 0.950 . S
C1090 C1088 1.391 . S
C1090 C1091 1.400 . S
C1091 C1085 1.491 . S
C1091 C1090 1.400 . S
C1091 C1092 1.398 . S
C1092 H1080 0.950 . S
C1092 C1091 1.398 . S
C1092 C1093 1.391 . S
C1093 H1081 0.950 . S
C1093 C1089 1.393 . S
C1093 C1092 1.391 . S
H1094 C1102 0.950 . S
H1095 C1107 0.950 . S
H1096 C1104 0.950 . S
H1097 C1106 0.950 . S
H1098 C1108 0.950 . S
H1099 C1110 0.950 . S
H1100 C1112 0.950 . S
H1101 C1113 0.950 . S
C1102 H1094 0.950 . S
C1102 C1103 1.386 . S
C1102 C1104 1.391 . S
C1103 C1102 1.386 . S
C1103 C1107 1.393 . S
C1104 H1096 0.950 . S
C1104 C1102 1.391 . S
C1104 C1105 1.400 . S
C1105 C1104 1.400 . S
C1105 C1106 1.398 . S
C1105 C1111 1.491 . S
C1106 H1097 0.950 . S
C1106 C1105 1.398 . S
C1106 C1107 1.391 . S
C1107 H1095 0.950 . S
C1107 C1103 1.393 . S
C1107 C1106 1.391 . S
C1108 H1098 0.950 . S
C1108 C1109 1.386 . S
C1108 C1110 1.391 . S
C1109 C1108 1.386 . S
C1109 C1113 1.393 . S
C1110 H1099 0.950 . S
C1110 C1108 1.391 . S
C1110 C1111 1.400 . S
C1111 C1105 1.491 . S
C1111 C1110 1.400 . S
C1111 C1112 1.398 . S
C1112 H1100 0.950 . S
C1112 C1111 1.398 . S
C1112 C1113 1.391 . S
C1113 H1101 0.950 . S
C1113 C1109 1.393 . S
C1113 C1112 1.391 . S
H1114 C1122 0.950 . S
H1115 C1127 0.950 . S
H1116 C1124 0.950 . S
H1117 C1126 0.950 . S
H1118 C1128 0.950 . S
H1119 C1130 0.950 . S
H1120 C1132 0.950 . S
H1121 C1133 0.950 . S
C1122 H1114 0.950 . S
C1122 C1123 1.386 . S
C1122 C1124 1.391 . S
C1123 C1122 1.386 . S
C1123 C1127 1.393 . S
C1124 H1116 0.950 . S
C1124 C1122 1.391 . S
C1124 C1125 1.400 . S
C1125 C1124 1.400 . S
C1125 C1126 1.398 . S
C1125 C1131 1.491 . S
C1126 H1117 0.950 . S
C1126 C1125 1.398 . S
C1126 C1127 1.391 . S
C1127 H1115 0.950 . S
C1127 C1123 1.393 . S
C1127 C1126 1.391 . S
C1128 H1118 0.950 . S
C1128 C1129 1.386 . S
C1128 C1130 1.391 . S
C1129 C1128 1.386 . S
C1129 C1133 1.393 . S
C1130 H1119 0.950 . S
C1130 C1128 1.391 . S
C1130 C1131 1.400 . S
C1131 C1125 1.491 . S
C1131 C1130 1.400 . S
C1131 C1132 1.398 . S
C1132 H1120 0.950 . S
C1132 C1131 1.398 . S
C1132 C1133 1.391 . S
C1133 H1121 0.950 . S
C1133 C1129 1.393 . S
C1133 C1132 1.391 . S
H1134 C1142 0.950 . S
H1135 C1147 0.950 . S
H1136 C1144 0.950 . S
H1137 C1146 0.950 . S
H1138 C1148 0.950 . S
H1139 C1150 0.950 . S
H1140 C1152 0.950 . S
H1141 C1153 0.950 . S
C1142 H1134 0.950 . S
C1142 C1143 1.386 . S
C1142 C1144 1.391 . S
C1143 C1142 1.386 . S
C1143 C1147 1.393 . S
C1144 H1136 0.950 . S
C1144 C1142 1.391 . S
C1144 C1145 1.400 . S
C1145 C1144 1.400 . S
C1145 C1146 1.398 . S
C1145 C1151 1.491 1_565 S
C1146 H1137 0.950 . S
C1146 C1145 1.398 . S
C1146 C1147 1.391 . S
C1147 H1135 0.950 . S
C1147 C1143 1.393 . S
C1147 C1146 1.391 . S
C1148 H1138 0.950 . S
C1148 C1149 1.386 . S
C1148 C1150 1.391 . S
C1149 C1148 1.386 . S
C1149 C1153 1.393 . S
C1150 H1139 0.950 . S
C1150 C1148 1.391 . S
C1150 C1151 1.400 . S
C1151 C1145 1.491 1_545 S
C1151 C1150 1.400 . S
C1151 C1152 1.398 . S
C1152 H1140 0.950 . S
C1152 C1151 1.398 . S
C1152 C1153 1.391 . S
C1153 H1141 0.950 . S
C1153 C1149 1.393 . S
C1153 C1152 1.391 . S
H1154 C1162 0.950 . S
H1155 C1167 0.950 . S
H1156 C1164 0.950 . S
H1157 C1166 0.950 . S
H1158 C1168 0.950 . S
H1159 C1170 0.950 . S
H1160 C1172 0.950 . S
H1161 C1173 0.950 . S
C1162 H1154 0.950 . S
C1162 C1163 1.386 . S
C1162 C1164 1.391 . S
C1163 C1162 1.386 . S
C1163 C1167 1.393 . S
C1164 H1156 0.950 . S
C1164 C1162 1.391 . S
C1164 C1165 1.400 . S
C1165 C1164 1.400 . S
C1165 C1166 1.398 . S
C1165 C1171 1.491 1_455 S
C1166 H1157 0.950 . S
C1166 C1165 1.398 . S
C1166 C1167 1.391 . S
C1167 H1155 0.950 . S
C1167 C1163 1.393 . S
C1167 C1166 1.391 . S
C1168 H1158 0.950 . S
C1168 C1169 1.386 . S
C1168 C1170 1.391 . S
C1169 C1168 1.386 . S
C1169 C1173 1.393 . S
C1170 H1159 0.950 . S
C1170 C1168 1.391 . S
C1170 C1171 1.400 . S
C1171 C1165 1.491 1_655 S
C1171 C1170 1.400 . S
C1171 C1172 1.398 . S
C1172 H1160 0.950 . S
C1172 C1171 1.398 . S
C1172 C1173 1.391 . S
C1173 H1161 0.950 . S
C1173 C1169 1.393 . S
C1173 C1172 1.391 . S
H1174 C1182 0.950 . S
H1175 C1187 0.950 . S
H1176 C1184 0.950 . S
H1177 C1186 0.950 . S
H1178 C1188 0.950 . S
H1179 C1190 0.950 . S
H1180 C1192 0.950 . S
H1181 C1193 0.950 . S
C1182 H1174 0.950 . S
C1182 C1183 1.386 . S
C1182 C1184 1.391 . S
C1183 C1182 1.386 . S
C1183 C1187 1.393 . S
C1184 H1176 0.950 . S
C1184 C1182 1.391 . S
C1184 C1185 1.400 . S
C1185 C1184 1.400 . S
C1185 C1186 1.398 . S
C1185 C1191 1.491 . S
C1186 H1177 0.950 . S
C1186 C1185 1.398 . S
C1186 C1187 1.391 . S
C1187 H1175 0.950 . S
C1187 C1183 1.393 . S
C1187 C1186 1.391 . S
C1188 H1178 0.950 . S
C1188 C1189 1.386 . S
C1188 C1190 1.391 . S
C1189 C1188 1.386 . S
C1189 C1193 1.393 . S
C1190 H1179 0.950 . S
C1190 C1188 1.391 . S
C1190 C1191 1.400 . S
C1191 C1185 1.491 . S
C1191 C1190 1.400 . S
C1191 C1192 1.398 . S
C1192 H1180 0.950 . S
C1192 C1191 1.398 . S
C1192 C1193 1.391 . S
C1193 H1181 0.950 . S
C1193 C1189 1.393 . S
C1193 C1192 1.391 . S
H1194 C1202 0.950 . S
H1195 C1207 0.950 . S
H1196 C1204 0.950 . S
H1197 C1206 0.950 . S
H1198 C1208 0.950 . S
H1199 C1210 0.950 . S
H1200 C1212 0.950 . S
H1201 C1213 0.950 . S
C1202 H1194 0.950 . S
C1202 C1203 1.386 . S
C1202 C1204 1.391 1_455 S
C1203 C1202 1.386 . S
C1203 C1207 1.393 . S
C1204 H1196 0.950 . S
C1204 C1202 1.391 1_655 S
C1204 C1205 1.400 . S
C1205 C1204 1.400 . S
C1205 C1206 1.398 . S
C1205 C1211 1.491 . S
C1206 H1197 0.950 . S
C1206 C1205 1.398 . S
C1206 C1207 1.391 1_655 S
C1207 H1195 0.950 . S
C1207 C1203 1.393 . S
C1207 C1206 1.391 1_455 S
C1208 H1198 0.950 . S
C1208 C1209 1.386 . S
C1208 C1210 1.391 . S
C1209 C1208 1.386 . S
C1209 C1213 1.393 . S
C1210 H1199 0.950 . S
C1210 C1208 1.391 . S
C1210 C1211 1.400 . S
C1211 C1205 1.491 . S
C1211 C1210 1.400 . S
C1211 C1212 1.398 . S
C1212 H1200 0.950 . S
C1212 C1211 1.398 . S
C1212 C1213 1.391 . S
C1213 H1201 0.950 . S
C1213 C1209 1.393 . S
C1213 C1212 1.391 . S
H1214 C1222 0.950 . S
H1215 C1227 0.950 . S
H1216 C1224 0.950 . S
H1217 C1226 0.950 . S
H1218 C1228 0.950 . S
H1219 C1230 0.950 . S
H1220 C1232 0.950 . S
H1221 C1233 0.950 . S
C1222 H1214 0.950 . S
C1222 C1223 1.386 . S
C1222 C1224 1.391 . S
C1223 C1222 1.386 . S
C1223 C1227 1.393 . S
C1224 H1216 0.950 . S
C1224 C1222 1.391 . S
C1224 C1225 1.400 . S
C1225 C1224 1.400 . S
C1225 C1226 1.398 . S
C1225 C1231 1.491 . S
C1226 H1217 0.950 . S
C1226 C1225 1.398 . S
C1226 C1227 1.391 . S
C1227 H1215 0.950 . S
C1227 C1223 1.393 . S
C1227 C1226 1.391 . S
C1228 H1218 0.950 . S
C1228 C1229 1.386 . S
C1228 C1230 1.391 . S
C1229 C1228 1.386 . S
C1229 C1233 1.393 . S
C1230 H1219 0.950 . S
C1230 C1228 1.391 . S
C1230 C1231 1.400 . S
C1231 C1225 1.491 . S
C1231 C1230 1.400 . S
C1231 C1232 1.398 . S
C1232 H1220 0.950 . S
C1232 C1231 1.398 . S
C1232 C1233 1.391 . S
C1233 H1221 0.950 . S
C1233 C1229 1.393 . S
C1233 C1232 1.391 . S
H1234 C1242 0.950 . S
H1235 C1247 0.950 . S
H1236 C1244 0.950 . S
H1237 C1246 0.950 . S
H1238 C1248 0.950 . S
H1239 C1250 0.950 . S
H1240 C1252 0.950 . S
H1241 C1253 0.950 . S
C1242 H1234 0.950 . S
C1242 C1243 1.386 . S
C1242 C1244 1.391 1_565 S
C1243 C1242 1.386 . S
C1243 C1247 1.393 . S
C1244 H1236 0.950 . S
C1244 C1242 1.391 1_545 S
C1244 C1245 1.400 . S
C1245 C1244 1.400 . S
C1245 C1246 1.398 . S
C1245 C1251 1.491 . S
C1246 H1237 0.950 . S
C1246 C1245 1.398 . S
C1246 C1247 1.391 1_545 S
C1247 H1235 0.950 . S
C1247 C1243 1.393 . S
C1247 C1246 1.391 1_565 S
C1248 H1238 0.950 . S
C1248 C1249 1.386 . S
C1248 C1250 1.391 . S
C1249 C1248 1.386 . S
C1249 C1253 1.393 . S
C1250 H1239 0.950 . S
C1250 C1248 1.391 . S
C1250 C1251 1.400 . S
C1251 C1245 1.491 . S
C1251 C1250 1.400 . S
C1251 C1252 1.398 . S
C1252 H1240 0.950 . S
C1252 C1251 1.398 . S
C1252 C1253 1.391 . S
C1253 H1241 0.950 . S
C1253 C1249 1.393 . S
C1253 C1252 1.391 . S
H1254 C1262 0.950 . S
H1255 C1267 0.950 . S
H1256 C1264 0.950 . S
H1257 C1266 0.950 . S
H1258 C1268 0.950 . S
H1259 C1270 0.950 . S
H1260 C1272 0.950 . S
H1261 C1273 0.950 . S
C1262 H1254 0.950 . S
C1262 C1263 1.386 . S
C1262 C1264 1.391 . S
C1263 C1262 1.386 . S
C1263 C1267 1.393 . S
C1264 H1256 0.950 . S
C1264 C1262 1.391 . S
C1264 C1265 1.400 . S
C1265 C1264 1.400 . S
C1265 C1266 1.398 . S
C1265 C1271 1.491 . S
C1266 H1257 0.950 . S
C1266 C1265 1.398 . S
C1266 C1267 1.391 . S
C1267 H1255 0.950 . S
C1267 C1263 1.393 . S
C1267 C1266 1.391 . S
C1268 H1258 0.950 . S
C1268 C1269 1.386 . S
C1268 C1270 1.391 . S
C1269 C1268 1.386 . S
C1269 C1273 1.393 . S
C1270 H1259 0.950 . S
C1270 C1268 1.391 . S
C1270 C1271 1.400 . S
C1271 C1265 1.491 . S
C1271 C1270 1.400 . S
C1271 C1272 1.398 . S
C1272 H1260 0.950 . S
C1272 C1271 1.398 . S
C1272 C1273 1.391 . S
C1273 H1261 0.950 . S
C1273 C1269 1.393 . S
C1273 C1272 1.391 . S
H1274 C1282 0.950 . S
H1275 C1287 0.950 . S
H1276 C1284 0.950 . S
H1277 C1286 0.950 . S
H1278 C1288 0.950 . S
H1279 C1290 0.950 . S
H1280 C1292 0.950 . S
H1281 C1293 0.950 . S
C1282 H1274 0.950 . S
C1282 C1283 1.386 . S
C1282 C1284 1.391 . S
C1283 C1282 1.386 . S
C1283 C1287 1.393 . S
C1284 H1276 0.950 . S
C1284 C1282 1.391 . S
C1284 C1285 1.400 . S
C1285 C1284 1.400 . S
C1285 C1286 1.398 . S
C1285 C1291 1.491 . S
C1286 H1277 0.950 . S
C1286 C1285 1.398 . S
C1286 C1287 1.391 . S
C1287 H1275 0.950 . S
C1287 C1283 1.393 . S
C1287 C1286 1.391 . S
C1288 H1278 0.950 . S
C1288 C1289 1.386 . S
C1288 C1290 1.391 . S
C1289 C1288 1.386 . S
C1289 C1293 1.393 . S
C1290 H1279 0.950 . S
C1290 C1288 1.391 . S
C1290 C1291 1.400 . S
C1291 C1285 1.491 . S
C1291 C1290 1.400 . S
C1291 C1292 1.398 . S
C1292 H1280 0.950 . S
C1292 C1291 1.398 . S
C1292 C1293 1.391 . S
C1293 H1281 0.950 . S
C1293 C1289 1.393 . S
C1293 C1292 1.391 . S
H1294 C1302 0.950 . S
H1295 C1307 0.950 . S
H1296 C1304 0.950 . S
H1297 C1306 0.950 . S
H1298 C1308 0.950 . S
H1299 C1310 0.950 . S
H1300 C1312 0.950 . S
H1301 C1313 0.950 . S
C1302 H1294 0.950 . S
C1302 C1303 1.386 . S
C1302 C1304 1.391 . S
C1303 C1302 1.386 . S
C1303 C1307 1.393 . S
C1304 H1296 0.950 . S
C1304 C1302 1.391 . S
C1304 C1305 1.400 . S
C1305 C1304 1.400 . S
C1305 C1306 1.398 . S
C1305 C1311 1.491 . S
C1306 H1297 0.950 . S
C1306 C1305 1.398 . S
C1306 C1307 1.391 . S
C1307 H1295 0.950 . S
C1307 C1303 1.393 . S
C1307 C1306 1.391 . S
C1308 H1298 0.950 . S
C1308 C1309 1.386 . S
C1308 C1310 1.391 . S
C1309 C1308 1.386 . S
C1309 C1313 1.393 . S
C1310 H1299 0.950 . S
C1310 C1308 1.391 . S
C1310 C1311 1.400 . S
C1311 C1305 1.491 . S
C1311 C1310 1.400 . S
C1311 C1312 1.398 . S
C1312 H1300 0.950 . S
C1312 C1311 1.398 . S
C1312 C1313 1.391 . S
C1313 H1301 0.950 . S
C1313 C1309 1.393 . S
C1313 C1312 1.391 . S
H1314 C1322 0.950 . S
H1315 C1327 0.950 . S
H1316 C1324 0.950 . S
H1317 C1326 0.950 . S
H1318 C1328 0.950 . S
H1319 C1330 0.950 . S
H1320 C1332 0.950 . S
H1321 C1333 0.950 1_545 S
C1322 H1314 0.950 . S
C1322 C1323 1.386 . S
C1322 C1324 1.391 . S
C1323 C1322 1.386 . S
C1323 C1327 1.393 . S
C1324 H1316 0.950 . S
C1324 C1322 1.391 . S
C1324 C1325 1.400 . S
C1325 C1324 1.400 . S
C1325 C1326 1.398 . S
C1325 C1331 1.491 . S
C1326 H1317 0.950 . S
C1326 C1325 1.398 . S
C1326 C1327 1.391 . S
C1327 H1315 0.950 . S
C1327 C1323 1.393 . S
C1327 C1326 1.391 . S
C1328 H1318 0.950 . S
C1328 C1329 1.386 . S
C1328 C1330 1.391 . S
C1329 C1328 1.386 . S
C1329 C1333 1.393 . S
C1330 H1319 0.950 . S
C1330 C1328 1.391 . S
C1330 C1331 1.400 . S
C1331 C1325 1.491 . S
C1331 C1330 1.400 . S
C1331 C1332 1.398 . S
C1332 H1320 0.950 . S
C1332 C1331 1.398 . S
C1332 C1333 1.391 . S
C1333 H1321 0.950 1_565 S
C1333 C1329 1.393 . S
C1333 C1332 1.391 . S
H1334 C1342 0.950 . S
H1335 C1347 0.950 . S
H1336 C1344 0.950 . S
H1337 C1346 0.950 . S
H1338 C1348 0.950 . S
H1339 C1350 0.950 . S
H1340 C1352 0.950 . S
H1341 C1353 0.950 . S
C1342 H1334 0.950 . S
C1342 C1343 1.386 . S
C1342 C1344 1.391 . S
C1343 C1342 1.386 . S
C1343 C1347 1.393 . S
C1344 H1336 0.950 . S
C1344 C1342 1.391 . S
C1344 C1345 1.400 . S
C1345 C1344 1.400 . S
C1345 C1346 1.398 . S
C1345 C1351 1.491 . S
C1346 H1337 0.950 . S
C1346 C1345 1.398 . S
C1346 C1347 1.391 . S
C1347 H1335 0.950 . S
C1347 C1343 1.393 . S
C1347 C1346 1.391 . S
C1348 H1338 0.950 . S
C1348 C1349 1.386 . S
C1348 C1350 1.391 . S
C1349 C1348 1.386 . S
C1349 C1353 1.393 . S
C1350 H1339 0.950 . S
C1350 C1348 1.391 . S
C1350 C1351 1.400 . S
C1351 C1345 1.491 . S
C1351 C1350 1.400 . S
C1351 C1352 1.398 . S
C1352 H1340 0.950 . S
C1352 C1351 1.398 . S
C1352 C1353 1.391 . S
C1353 H1341 0.950 . S
C1353 C1349 1.393 . S
C1353 C1352 1.391 . S
H1354 C1362 0.950 . S
H1355 C1367 0.950 . S
H1356 C1364 0.950 . S
H1357 C1366 0.950 . S
H1358 C1368 0.950 . S
H1359 C1370 0.950 . S
H1360 C1372 0.950 . S
H1361 C1373 0.950 . S
C1362 H1354 0.950 . S
C1362 C1363 1.386 . S
C1362 C1364 1.391 . S
C1363 C1362 1.386 . S
C1363 C1367 1.393 . S
C1364 H1356 0.950 . S
C1364 C1362 1.391 . S
C1364 C1365 1.400 . S
C1365 C1364 1.400 . S
C1365 C1366 1.398 . S
C1365 C1371 1.491 . S
C1366 H1357 0.950 . S
C1366 C1365 1.398 . S
C1366 C1367 1.391 . S
C1367 H1355 0.950 . S
C1367 C1363 1.393 . S
C1367 C1366 1.391 . S
C1368 H1358 0.950 . S
C1368 C1369 1.386 . S
C1368 C1370 1.391 . S
C1369 C1368 1.386 . S
C1369 C1373 1.393 . S
C1370 H1359 0.950 . S
C1370 C1368 1.391 . S
C1370 C1371 1.400 . S
C1371 C1365 1.491 . S
C1371 C1370 1.400 . S
C1371 C1372 1.398 . S
C1372 H1360 0.950 . S
C1372 C1371 1.398 . S
C1372 C1373 1.391 . S
C1373 H1361 0.950 . S
C1373 C1369 1.393 . S
C1373 C1372 1.391 . S
H1374 C1382 0.950 . S
H1375 C1387 0.950 . S
H1376 C1384 0.950 . S
H1377 C1386 0.950 . S
H1378 C1388 0.950 1_455 S
H1379 C1390 0.950 . S
H1380 C1392 0.950 . S
H1381 C1393 0.950 . S
C1382 H1374 0.950 . S
C1382 C1383 1.386 . S
C1382 C1384 1.391 . S
C1383 C1382 1.386 . S
C1383 C1387 1.393 . S
C1384 H1376 0.950 . S
C1384 C1382 1.391 . S
C1384 C1385 1.400 . S
C1385 C1384 1.400 . S
C1385 C1386 1.398 . S
C1385 C1391 1.491 . S
C1386 H1377 0.950 . S
C1386 C1385 1.398 . S
C1386 C1387 1.391 . S
C1387 H1375 0.950 . S
C1387 C1383 1.393 . S
C1387 C1386 1.391 . S
C1388 H1378 0.950 1_655 S
C1388 C1389 1.386 . S
C1388 C1390 1.391 . S
C1389 C1388 1.386 . S
C1389 C1393 1.393 . S
C1390 H1379 0.950 . S
C1390 C1388 1.391 . S
C1390 C1391 1.400 . S
C1391 C1385 1.491 . S
C1391 C1390 1.400 . S
C1391 C1392 1.398 . S
C1392 H1380 0.950 . S
C1392 C1391 1.398 . S
C1392 C1393 1.391 . S
C1393 H1381 0.950 . S
C1393 C1389 1.393 . S
C1393 C1392 1.391 . S
H1394 C1402 0.950 . S
H1395 C1407 0.950 . S
H1396 C1404 0.950 . S
H1397 C1406 0.950 . S
H1398 C1408 0.950 . S
H1399 C1410 0.950 . S
H1400 C1412 0.950 . S
H1401 C1413 0.950 . S
C1402 H1394 0.950 . S
C1402 C1403 1.386 . S
C1402 C1404 1.391 . S
C1403 C1402 1.386 . S
C1403 C1407 1.393 . S
C1404 H1396 0.950 . S
C1404 C1402 1.391 . S
C1404 C1405 1.400 . S
C1405 C1404 1.400 . S
C1405 C1406 1.398 . S
C1405 C1411 1.491 . S
C1406 H1397 0.950 . S
C1406 C1405 1.398 . S
C1406 C1407 1.391 . S
C1407 H1395 0.950 . S
C1407 C1403 1.393 . S
C1407 C1406 1.391 . S
C1408 H1398 0.950 . S
C1408 C1409 1.386 . S
C1408 C1410 1.391 . S
C1409 C1408 1.386 . S
C1409 C1413 1.393 . S
C1410 H1399 0.950 . S
C1410 C1408 1.391 . S
C1410 C1411 1.400 . S
C1411 C1405 1.491 . S
C1411 C1410 1.400 . S
C1411 C1412 1.398 . S
C1412 H1400 0.950 . S
C1412 C1411 1.398 . S
C1412 C1413 1.391 . S
C1413 H1401 0.950 . S
C1413 C1409 1.393 . S
C1413 C1412 1.391 . S
H1414 C1422 0.950 . S
H1415 C1427 0.950 . S
H1416 C1424 0.950 . S
H1417 C1426 0.950 . S
H1418 C1428 0.950 . S
H1419 C1430 0.950 . S
H1420 C1432 0.950 . S
H1421 C1433 0.950 . S
C1422 H1414 0.950 . S
C1422 C1423 1.386 . S
C1422 C1424 1.391 . S
C1423 C1422 1.386 . S
C1423 C1427 1.393 . S
C1424 H1416 0.950 . S
C1424 C1422 1.391 . S
C1424 C1425 1.400 . S
C1425 C1424 1.400 . S
C1425 C1426 1.398 . S
C1425 C1431 1.491 . S
C1426 H1417 0.950 . S
C1426 C1425 1.398 . S
C1426 C1427 1.391 . S
C1427 H1415 0.950 . S
C1427 C1423 1.393 . S
C1427 C1426 1.391 . S
C1428 H1418 0.950 . S
C1428 C1429 1.386 . S
C1428 C1430 1.391 . S
C1429 C1428 1.386 . S
C1429 C1433 1.393 . S
C1430 H1419 0.950 . S
C1430 C1428 1.391 . S
C1430 C1431 1.400 . S
C1431 C1425 1.491 . S
C1431 C1430 1.400 . S
C1431 C1432 1.398 . S
C1432 H1420 0.950 . S
C1432 C1431 1.398 . S
C1432 C1433 1.391 . S
C1433 H1421 0.950 . S
C1433 C1429 1.393 . S
C1433 C1432 1.391 . S
H1434 C1442 0.950 . S
H1435 C1447 0.950 . S
H1436 C1444 0.950 . S
H1437 C1446 0.950 . S
H1438 C1448 0.950 . S
H1439 C1450 0.950 . S
H1440 C1452 0.950 . S
H1441 C1453 0.950 . S
C1442 H1434 0.950 . S
C1442 C1443 1.386 . S
C1442 C1444 1.391 . S
C1443 C1442 1.386 . S
C1443 C1447 1.393 . S
C1444 H1436 0.950 . S
C1444 C1442 1.391 . S
C1444 C1445 1.400 . S
C1445 C1444 1.400 . S
C1445 C1446 1.398 . S
C1445 C1451 1.491 . S
C1446 H1437 0.950 . S
C1446 C1445 1.398 . S
C1446 C1447 1.391 . S
C1447 H1435 0.950 . S
C1447 C1443 1.393 . S
C1447 C1446 1.391 . S
C1448 H1438 0.950 . S
C1448 C1449 1.386 . S
C1448 C1450 1.391 . S
C1449 C1448 1.386 . S
C1449 C1453 1.393 . S
C1450 H1439 0.950 . S
C1450 C1448 1.391 . S
C1450 C1451 1.400 . S
C1451 C1445 1.491 . S
C1451 C1450 1.400 . S
C1451 C1452 1.398 . S
C1452 H1440 0.950 . S
C1452 C1451 1.398 . S
C1452 C1453 1.391 . S
C1453 H1441 0.950 . S
C1453 C1449 1.393 . S
C1453 C1452 1.391 . S
H1454 C1462 0.950 . S
H1455 C1467 0.950 . S
H1456 C1464 0.950 . S
H1457 C1466 0.950 . S
H1458 C1468 0.950 . S
H1459 C1470 0.950 . S
H1460 C1472 0.950 . S
H1461 C1473 0.950 . S
C1462 H1454 0.950 . S
C1462 C1463 1.386 . S
C1462 C1464 1.391 . S
C1463 C1462 1.386 . S
C1463 C1467 1.393 . S
C1464 H1456 0.950 . S
C1464 C1462 1.391 . S
C1464 C1465 1.400 . S
C1465 C1464 1.400 . S
C1465 C1466 1.398 . S
C1465 C1471 1.491 . S
C1466 H1457 0.950 . S
C1466 C1465 1.398 . S
C1466 C1467 1.391 . S
C1467 H1455 0.950 . S
C1467 C1463 1.393 . S
C1467 C1466 1.391 . S
C1468 H1458 0.950 . S
C1468 C1469 1.386 . S
C1468 C1470 1.391 . S
C1469 C1468 1.386 . S
C1469 C1473 1.393 . S
C1470 H1459 0.950 . S
C1470 C1468 1.391 . S
C1470 C1471 1.400 . S
C1471 C1465 1.491 . S
C1471 C1470 1.400 . S
C1471 C1472 1.398 . S
C1472 H1460 0.950 . S
C1472 C1471 1.398 . S
C1472 C1473 1.391 . S
C1473 H1461 0.950 . S
C1473 C1469 1.393 . S
C1473 C1472 1.391 . S
H1474 C1482 0.950 . S
H1475 C1487 0.950 . S
H1476 C1484 0.950 . S
H1477 C1486 0.950 . S
H1478 C1488 0.950 . S
H1479 C1490 0.950 . S
H1480 C1492 0.950 . S
H1481 C1493 0.950 . S
C1482 H1474 0.950 . S
C1482 C1483 1.386 . S
C1482 C1484 1.391 . S
C1483 C1482 1.386 . S
C1483 C1487 1.393 . S
C1484 H1476 0.950 . S
C1484 C1482 1.391 . S
C1484 C1485 1.400 . S
C1485 C1484 1.400 . S
C1485 C1486 1.398 . S
C1485 C1491 1.491 . S
C1486 H1477 0.950 . S
C1486 C1485 1.398 . S
C1486 C1487 1.391 . S
C1487 H1475 0.950 . S
C1487 C1483 1.393 . S
C1487 C1486 1.391 . S
C1488 H1478 0.950 . S
C1488 C1489 1.386 . S
C1488 C1490 1.391 . S
C1489 C1488 1.386 . S
C1489 C1493 1.393 . S
C1490 H1479 0.950 . S
C1490 C1488 1.391 . S
C1490 C1491 1.400 . S
C1491 C1485 1.491 . S
C1491 C1490 1.400 . S
C1491 C1492 1.398 . S
C1492 H1480 0.950 . S
C1492 C1491 1.398 . S
C1492 C1493 1.391 . S
C1493 H1481 0.950 . S
C1493 C1489 1.393 . S
C1493 C1492 1.391 . S
H1494 C1502 0.950 . S
H1495 C1507 0.950 . S
H1496 C1504 0.950 . S
H1497 C1506 0.950 . S
H1498 C1508 0.950 . S
H1499 C1510 0.950 . S
H1500 C1512 0.950 . S
H1501 C1513 0.950 . S
C1502 H1494 0.950 . S
C1502 C1503 1.386 . S
C1502 C1504 1.391 . S
C1503 C1502 1.386 . S
C1503 C1507 1.393 . S
C1504 H1496 0.950 . S
C1504 C1502 1.391 . S
C1504 C1505 1.400 . S
C1505 C1504 1.400 . S
C1505 C1506 1.398 . S
C1505 C1511 1.491 . S
C1506 H1497 0.950 . S
C1506 C1505 1.398 . S
C1506 C1507 1.391 . S
C1507 H1495 0.950 . S
C1507 C1503 1.393 . S
C1507 C1506 1.391 . S
C1508 H1498 0.950 . S
C1508 C1509 1.386 . S
C1508 C1510 1.391 . S
C1509 C1508 1.386 . S
C1509 C1513 1.393 . S
C1510 H1499 0.950 . S
C1510 C1508 1.391 . S
C1510 C1511 1.400 . S
C1511 C1505 1.491 . S
C1511 C1510 1.400 . S
C1511 C1512 1.398 . S
C1512 H1500 0.950 . S
C1512 C1511 1.398 . S
C1512 C1513 1.391 . S
C1513 H1501 0.950 . S
C1513 C1509 1.393 . S
C1513 C1512 1.391 . S
H1514 C1522 0.950 . S
H1515 C1527 0.950 . S
H1516 C1524 0.950 . S
H1517 C1526 0.950 . S
H1518 C1528 0.950 . S
H1519 C1530 0.950 . S
H1520 C1532 0.950 . S
H1521 C1533 0.950 . S
C1522 H1514 0.950 . S
C1522 C1523 1.386 . S
C1522 C1524 1.391 . S
C1523 C1522 1.386 . S
C1523 C1527 1.393 . S
C1524 H1516 0.950 . S
C1524 C1522 1.391 . S
C1524 C1525 1.400 . S
C1525 C1524 1.400 . S
C1525 C1526 1.398 . S
C1525 C1531 1.491 . S
C1526 H1517 0.950 . S
C1526 C1525 1.398 . S
C1526 C1527 1.391 . S
C1527 H1515 0.950 . S
C1527 C1523 1.393 . S
C1527 C1526 1.391 . S
C1528 H1518 0.950 . S
C1528 C1529 1.386 . S
C1528 C1530 1.391 . S
C1529 C1528 1.386 . S
C1529 C1533 1.393 . S
C1530 H1519 0.950 . S
C1530 C1528 1.391 . S
C1530 C1531 1.400 . S
C1531 C1525 1.491 . S
C1531 C1530 1.400 . S
C1531 C1532 1.398 . S
C1532 H1520 0.950 . S
C1532 C1531 1.398 . S
C1532 C1533 1.391 . S
C1533 H1521 0.950 . S
C1533 C1529 1.393 . S
C1533 C1532 1.391 . S
H1534 C1542 0.950 . S
H1535 C1547 0.950 . S
H1536 C1544 0.950 . S
H1537 C1546 0.950 . S
H1538 C1548 0.950 . S
H1539 C1550 0.950 . S
H1540 C1552 0.950 . S
H1541 C1553 0.950 . S
C1542 H1534 0.950 . S
C1542 C1543 1.386 . S
C1542 C1544 1.391 . S
C1543 C1542 1.386 . S
C1543 C1547 1.393 . S
C1544 H1536 0.950 . S
C1544 C1542 1.391 . S
C1544 C1545 1.400 . S
C1545 C1544 1.400 . S
C1545 C1546 1.398 . S
C1545 C1551 1.491 . S
C1546 H1537 0.950 . S
C1546 C1545 1.398 . S
C1546 C1547 1.391 . S
C1547 H1535 0.950 . S
C1547 C1543 1.393 . S
C1547 C1546 1.391 . S
C1548 H1538 0.950 . S
C1548 C1549 1.386 . S
C1548 C1550 1.391 . S
C1549 C1548 1.386 . S
C1549 C1553 1.393 . S
C1550 H1539 0.950 . S
C1550 C1548 1.391 . S
C1550 C1551 1.400 . S
C1551 C1545 1.491 . S
C1551 C1550 1.400 . S
C1551 C1552 1.398 . S
C1552 H1540 0.950 . S
C1552 C1551 1.398 . S
C1552 C1553 1.391 . S
C1553 H1541 0.950 . S
C1553 C1549 1.393 . S
C1553 C1552 1.391 . S
H1554 C1562 0.950 . S
H1555 C1567 0.950 . S
H1556 C1564 0.950 . S
H1557 C1566 0.950 . S
H1558 C1568 0.950 . S
H1559 C1570 0.950 . S
H1560 C1572 0.950 . S
H1561 C1573 0.950 . S
C1562 H1554 0.950 . S
C1562 C1563 1.386 . S
C1562 C1564 1.391 . S
C1563 C1562 1.386 . S
C1563 C1567 1.393 . S
C1564 H1556 0.950 . S
C1564 C1562 1.391 . S
C1564 C1565 1.400 . S
C1565 C1564 1.400 . S
C1565 C1566 1.398 . S
C1565 C1571 1.491 . S
C1566 H1557 0.950 . S
C1566 C1565 1.398 . S
C1566 C1567 1.391 . S
C1567 H1555 0.950 . S
C1567 C1563 1.393 . S
C1567 C1566 1.391 . S
C1568 H1558 0.950 . S
C1568 C1569 1.386 . S
C1568 C1570 1.391 . S
C1569 C1568 1.386 . S
C1569 C1573 1.393 . S
C1570 H1559 0.950 . S
C1570 C1568 1.391 . S
C1570 C1571 1.400 . S
C1571 C1565 1.491 . S
C1571 C1570 1.400 . S
C1571 C1572 1.398 . S
C1572 H1560 0.950 . S
C1572 C1571 1.398 . S
C1572 C1573 1.391 . S
C1573 H1561 0.950 . S
C1573 C1569 1.393 . S
C1573 C1572 1.391 . S
H1574 C1582 0.950 . S
H1575 C1587 0.950 . S
H1576 C1584 0.950 . S
H1577 C1586 0.950 . S
H1578 C1588 0.950 . S
H1579 C1590 0.950 . S
H1580 C1592 0.950 . S
H1581 C1593 0.950 . S
C1582 H1574 0.950 . S
C1582 C1583 1.386 . S
C1582 C1584 1.391 . S
C1583 C1582 1.386 . S
C1583 C1587 1.393 . S
C1584 H1576 0.950 . S
C1584 C1582 1.391 . S
C1584 C1585 1.400 . S
C1585 C1584 1.400 . S
C1585 C1586 1.398 . S
C1585 C1591 1.491 . S
C1586 H1577 0.950 . S
C1586 C1585 1.398 . S
C1586 C1587 1.391 . S
C1587 H1575 0.950 . S
C1587 C1583 1.393 . S
C1587 C1586 1.391 . S
C1588 H1578 0.950 . S
C1588 C1589 1.386 . S
C1588 C1590 1.391 . S
C1589 C1588 1.386 . S
C1589 C1593 1.393 . S
C1590 H1579 0.950 . S
C1590 C1588 1.391 . S
C1590 C1591 1.400 . S
C1591 C1585 1.491 . S
C1591 C1590 1.400 . S
C1591 C1592 1.398 . S
C1592 H1580 0.950 . S
C1592 C1591 1.398 . S
C1592 C1593 1.391 . S
C1593 H1581 0.950 . S
C1593 C1589 1.393 . S
C1593 C1592 1.391 . S
H1594 C1602 0.950 . S
H1595 C1607 0.950 . S
H1596 C1604 0.950 . S
H1597 C1606 0.950 . S
H1598 C1608 0.950 . S
H1599 C1610 0.950 . S
H1600 C1612 0.950 . S
H1601 C1613 0.950 . S
C1602 H1594 0.950 . S
C1602 C1603 1.386 . S
C1602 C1604 1.391 . S
C1603 C1602 1.386 . S
C1603 C1607 1.393 . S
C1604 H1596 0.950 . S
C1604 C1602 1.391 . S
C1604 C1605 1.400 . S
C1605 C1604 1.400 . S
C1605 C1606 1.398 . S
C1605 C1611 1.491 . S
C1606 H1597 0.950 . S
C1606 C1605 1.398 . S
C1606 C1607 1.391 . S
C1607 H1595 0.950 . S
C1607 C1603 1.393 . S
C1607 C1606 1.391 . S
C1608 H1598 0.950 . S
C1608 C1609 1.386 . S
C1608 C1610 1.391 . S
C1609 C1608 1.386 . S
C1609 C1613 1.393 . S
C1610 H1599 0.950 . S
C1610 C1608 1.391 . S
C1610 C1611 1.400 . S
C1611 C1605 1.491 . S
C1611 C1610 1.400 . S
C1611 C1612 1.398 . S
C1612 H1600 0.950 . S
C1612 C1611 1.398 . S
C1612 C1613 1.391 . S
C1613 H1601 0.950 . S
C1613 C1609 1.393 . S
C1613 C1612 1.391 . S
H1614 C1622 0.950 . S
H1615 C1627 0.950 . S
H1616 C1624 0.950 . S
H1617 C1626 0.950 . S
H1618 C1628 0.950 . S
H1619 C1630 0.950 . S
H1620 C1632 0.950 . S
H1621 C1633 0.950 . S
C1622 H1614 0.950 . S
C1622 C1623 1.386 . S
C1622 C1624 1.391 . S
C1623 C1622 1.386 . S
C1623 C1627 1.393 . S
C1624 H1616 0.950 . S
C1624 C1622 1.391 . S
C1624 C1625 1.400 . S
C1625 C1624 1.400 . S
C1625 C1626 1.398 . S
C1625 C1631 1.491 . S
C1626 H1617 0.950 . S
C1626 C1625 1.398 . S
C1626 C1627 1.391 . S
C1627 H1615 0.950 . S
C1627 C1623 1.393 . S
C1627 C1626 1.391 . S
C1628 H1618 0.950 . S
C1628 C1629 1.386 . S
C1628 C1630 1.391 . S
C1629 C1628 1.386 . S
C1629 C1633 1.393 . S
C1630 H1619 0.950 . S
C1630 C1628 1.391 . S
C1630 C1631 1.400 . S
C1631 C1625 1.491 . S
C1631 C1630 1.400 . S
C1631 C1632 1.398 . S
C1632 H1620 0.950 . S
C1632 C1631 1.398 . S
C1632 C1633 1.391 . S
C1633 H1621 0.950 . S
C1633 C1629 1.393 . S
C1633 C1632 1.391 . S
H1634 C1642 0.950 . S
H1635 C1647 0.950 . S
H1636 C1644 0.950 . S
H1637 C1646 0.950 . S
H1638 C1648 0.950 . S
H1639 C1650 0.950 . S
H1640 C1652 0.950 . S
H1641 C1653 0.950 . S
C1642 H1634 0.950 . S
C1642 C1643 1.386 . S
C1642 C1644 1.391 . S
C1643 C1642 1.386 . S
C1643 C1647 1.393 . S
C1644 H1636 0.950 . S
C1644 C1642 1.391 . S
C1644 C1645 1.400 . S
C1645 C1644 1.400 . S
C1645 C1646 1.398 . S
C1645 C1651 1.491 . S
C1646 H1637 0.950 . S
C1646 C1645 1.398 . S
C1646 C1647 1.391 . S
C1647 H1635 0.950 . S
C1647 C1643 1.393 . S
C1647 C1646 1.391 . S
C1648 H1638 0.950 . S
C1648 C1649 1.386 . S
C1648 C1650 1.391 . S
C1649 C1648 1.386 . S
C1649 C1653 1.393 . S
C1650 H1639 0.950 . S
C1650 C1648 1.391 . S
C1650 C1651 1.400 . S
C1651 C1645 1.491 . S
C1651 C1650 1.400 . S
C1651 C1652 1.398 . S
C1652 H1640 0.950 . S
C1652 C1651 1.398 . S
C1652 C1653 1.391 . S
C1653 H1641 0.950 . S
C1653 C1649 1.393 . S
C1653 C1652 1.391 . S
H1654 C1662 0.950 . S
H1655 C1667 0.950 . S
H1656 C1664 0.950 . S
H1657 C1666 0.950 . S
H1658 C1668 0.950 . S
H1659 C1670 0.950 . S
H1660 C1672 0.950 . S
H1661 C1673 0.950 . S
C1662 H1654 0.950 . S
C1662 C1663 1.386 . S
C1662 C1664 1.391 . S
C1663 C1662 1.386 . S
C1663 C1667 1.393 . S
C1664 H1656 0.950 . S
C1664 C1662 1.391 . S
C1664 C1665 1.400 . S
C1665 C1664 1.400 . S
C1665 C1666 1.398 . S
C1665 C1671 1.491 . S
C1666 H1657 0.950 . S
C1666 C1665 1.398 . S
C1666 C1667 1.391 . S
C1667 H1655 0.950 . S
C1667 C1663 1.393 . S
C1667 C1666 1.391 . S
C1668 H1658 0.950 . S
C1668 C1669 1.386 . S
C1668 C1670 1.391 . S
C1669 C1668 1.386 . S
C1669 C1673 1.393 . S
C1670 H1659 0.950 . S
C1670 C1668 1.391 . S
C1670 C1671 1.400 . S
C1671 C1665 1.491 . S
C1671 C1670 1.400 . S
C1671 C1672 1.398 . S
C1672 H1660 0.950 . S
C1672 C1671 1.398 . S
C1672 C1673 1.391 . S
C1673 H1661 0.950 . S
C1673 C1669 1.393 . S
C1673 C1672 1.391 . S
C603 C177 1.664 . S
C609 C243 1.662 . S
C623 C190 1.783 . S
C629 C283 1.778 . S
C643 C164 1.603 . S
C649 C322 1.571 . S
C663 C151 1.478 . S
C669 C282 1.427 1_556 S
C689 C323 1.493 . S
C683 C125 1.499 . S
C703 C138 1.367 . S
C709 C242 1.329 1_556 S
C729 C253 1.619 . S
C723 C147 1.633 . S
C749 C293 1.642 . S
C743 C121 1.598 . S
C763 C134 1.627 . S
C769 C332 1.674 . S
C783 C173 1.483 . S
C789 C292 1.512 . S
C803 C186 1.446 . S
C809 C333 1.431 . S
C829 C252 1.464 . S
C823 C160 1.426 . S
C849 C363 1.662 . S
C843 C21 1.664 . S
C863 C34 1.783 . S
C869 C403 1.777 . S
C883 C8 1.602 . S
C889 C442 1.565 . S
C903 C229 1.485 . S
C909 C402 1.441 . S
C923 C203 1.499 . S
C929 C443 1.494 . S
C943 C216 1.352 . S
C949 C362 1.339 . S
C963 C225 1.627 . S
C969 C373 1.639 . S
C983 C199 1.609 . S
C989 C413 1.631 . S
C1009 C452 1.674 . S
C1003 C212 1.627 . S
C1023 C17 1.483 . S
C1029 C412 1.512 . S
C1049 C453 1.435 . S
C1043 C30 1.426 . S
C1063 C4 1.434 . S
C1069 C372 1.472 . S
C1089 C483 1.652 . S
C1083 C99 1.656 . S
C1103 C112 1.783 . S
C1109 C523 1.778 . S
C1129 C562 1.560 . S
C1123 C86 1.586 . S
C1149 C522 1.441 . S
C1143 C73 1.472 . S
C1169 C563 1.500 . S
C1163 C47 1.502 . S
C1183 C60 1.360 . S
C1189 C482 1.354 . S
C1203 C69 1.639 . S
C1209 C493 1.627 . S
C1223 C43 1.614 . S
C1229 C533 1.632 . S
C1249 C572 1.674 . S
C1243 C56 1.627 . S
C1263 C95 1.476 . S
C1269 C532 1.508 . S
C1283 C108 1.442 . S
C1289 C573 1.445 . S
C1303 C82 1.425 . S
C1309 C492 1.463 . S
C1323 C204 1.500 . S
C1329 C239 1.493 . S
C1349 C279 1.921 . S
C1343 C217 1.924 . S
C1363 C230 1.564 . S
C1369 C329 1.577 . S
C1383 C87 1.762 . S
C1389 C289 1.781 . S
C1403 C100 1.680 . S
C1409 C319 1.682 . S
C1429 C249 1.320 . S
C1423 C113 1.306 . S
C1443 C48 1.500 . S
C1449 C359 1.492 . S
C1463 C61 1.927 . S
C1469 C399 1.928 . S
C1483 C74 1.561 . S
C1489 C449 1.576 . S
C1503 C165 1.770 . S
C1509 C409 1.783 . S
C1529 C439 1.682 . S
C1523 C178 1.679 . S
C1543 C191 1.314 . S
C1549 C369 1.319 . S
C1563 C126 1.500 . S
C1569 C479 1.492 . S
C1583 C139 1.917 . S
C1589 C519 1.917 . S
C1609 C569 1.569 . S
C1603 C152 1.549 . S
C1623 C9 1.772 . S
C1629 C529 1.784 . S
C1643 C22 1.675 . S
C1649 C559 1.676 . S
C1663 C35 1.309 . S
C1669 C489 1.318 . S
