# Generated by pormake.
# Topology eea, (3,6)-cn, num edge types: 1
# Building blocks:
#     Node 0, Type 0, BuildingBlock: BELTOD_clean_linker_0, # of connection points: 3
#     Node 1, Type 0, BuildingBlock: BELTOD_clean_linker_0, # of connection points: 3
#     Node 2, Type 0, BuildingBlock: BELTOD_clean_linker_0, # of connection points: 3
#     Node 3, Type 0, BuildingBlock: BELTOD_clean_linker_0, # of connection points: 3
#     Node 4, Type 0, BuildingBlock: BELTOD_clean_linker_0, # of connection points: 3
#     Node 5, Type 0, BuildingBlock: BELTOD_clean_linker_0, # of connection points: 3
#     Node 6, Type 0, BuildingBlock: BELTOD_clean_linker_0, # of connection points: 3
#     Node 7, Type 0, BuildingBlock: BELTOD_clean_linker_0, # of connection points: 3
#     Node 8, Type 0, BuildingBlock: BELTOD_clean_linker_0, # of connection points: 3
#     Node 9, Type 0, BuildingBlock: BELTOD_clean_linker_0, # of connection points: 3
#     Node 10, Type 0, BuildingBlock: BELTOD_clean_linker_0, # of connection points: 3
#     Node 11, Type 0, BuildingBlock: BELTOD_clean_linker_0, # of connection points: 3
#     Node 12, Type 0, BuildingBlock: BELTOD_clean_linker_0, # of connection points: 3
#     Node 13, Type 0, BuildingBlock: BELTOD_clean_linker_0, # of connection points: 3
#     Node 14, Type 0, BuildingBlock: BELTOD_clean_linker_0, # of connection points: 3
#     Node 15, Type 0, BuildingBlock: BELTOD_clean_linker_0, # of connection points: 3
#     Node 16, Type 0, BuildingBlock: BELTOD_clean_linker_0, # of connection points: 3
#     Node 17, Type 0, BuildingBlock: BELTOD_clean_linker_0, # of connection points: 3
#     Node 18, Type 1, BuildingBlock: LEVNOQ01_clean_sbu_1, # of connection points: 6
#     Node 19, Type 1, BuildingBlock: LEVNOQ01_clean_sbu_1, # of connection points: 6
#     Node 20, Type 1, BuildingBlock: LEVNOQ01_clean_sbu_1, # of connection points: 6
#     Node 21, Type 1, BuildingBlock: LEVNOQ01_clean_sbu_1, # of connection points: 6
#     Node 22, Type 1, BuildingBlock: LEVNOQ01_clean_sbu_1, # of connection points: 6
#     Node 23, Type 1, BuildingBlock: LEVNOQ01_clean_sbu_1, # of connection points: 6
#     Node 24, Type 1, BuildingBlock: LEVNOQ01_clean_sbu_1, # of connection points: 6
#     Node 25, Type 1, BuildingBlock: LEVNOQ01_clean_sbu_1, # of connection points: 6
#     Node 26, Type 1, BuildingBlock: LEVNOQ01_clean_sbu_1, # of connection points: 6
#     Edge 27, Type (0, 1), BuildingBlock: ZUJKAS_clean_linker_0, # of connection points: 2
#     Edge 28, Type (0, 1), BuildingBlock: ZUJKAS_clean_linker_0, # of connection points: 2
#     Edge 29, Type (0, 1), BuildingBlock: ZUJKAS_clean_linker_0, # of connection points: 2
#     Edge 30, Type (0, 1), BuildingBlock: ZUJKAS_clean_linker_0, # of connection points: 2
#     Edge 31, Type (0, 1), BuildingBlock: ZUJKAS_clean_linker_0, # of connection points: 2
#     Edge 32, Type (0, 1), BuildingBlock: ZUJKAS_clean_linker_0, # of connection points: 2
#     Edge 33, Type (0, 1), BuildingBlock: ZUJKAS_clean_linker_0, # of connection points: 2
#     Edge 34, Type (0, 1), BuildingBlock: ZUJKAS_clean_linker_0, # of connection points: 2
#     Edge 35, Type (0, 1), BuildingBlock: ZUJKAS_clean_linker_0, # of connection points: 2
#     Edge 36, Type (0, 1), BuildingBlock: ZUJKAS_clean_linker_0, # of connection points: 2
#     Edge 37, Type (0, 1), BuildingBlock: ZUJKAS_clean_linker_0, # of connection points: 2
#     Edge 38, Type (0, 1), BuildingBlock: ZUJKAS_clean_linker_0, # of connection points: 2
#     Edge 39, Type (0, 1), BuildingBlock: ZUJKAS_clean_linker_0, # of connection points: 2
#     Edge 40, Type (0, 1), BuildingBlock: ZUJKAS_clean_linker_0, # of connection points: 2
#     Edge 41, Type (0, 1), BuildingBlock: ZUJKAS_clean_linker_0, # of connection points: 2
#     Edge 42, Type (0, 1), BuildingBlock: ZUJKAS_clean_linker_0, # of connection points: 2
#     Edge 43, Type (0, 1), BuildingBlock: ZUJKAS_clean_linker_0, # of connection points: 2
#     Edge 44, Type (0, 1), BuildingBlock: ZUJKAS_clean_linker_0, # of connection points: 2
#     Edge 45, Type (0, 1), BuildingBlock: ZUJKAS_clean_linker_0, # of connection points: 2
#     Edge 46, Type (0, 1), BuildingBlock: ZUJKAS_clean_linker_0, # of connection points: 2
#     Edge 47, Type (0, 1), BuildingBlock: ZUJKAS_clean_linker_0, # of connection points: 2
#     Edge 48, Type (0, 1), BuildingBlock: ZUJKAS_clean_linker_0, # of connection points: 2
#     Edge 49, Type (0, 1), BuildingBlock: ZUJKAS_clean_linker_0, # of connection points: 2
#     Edge 50, Type (0, 1), BuildingBlock: ZUJKAS_clean_linker_0, # of connection points: 2
#     Edge 51, Type (0, 1), BuildingBlock: ZUJKAS_clean_linker_0, # of connection points: 2
#     Edge 52, Type (0, 1), BuildingBlock: ZUJKAS_clean_linker_0, # of connection points: 2
#     Edge 53, Type (0, 1), BuildingBlock: ZUJKAS_clean_linker_0, # of connection points: 2
#     Edge 54, Type (0, 1), BuildingBlock: ZUJKAS_clean_linker_0, # of connection points: 2
#     Edge 55, Type (0, 1), BuildingBlock: ZUJKAS_clean_linker_0, # of connection points: 2
#     Edge 56, Type (0, 1), BuildingBlock: ZUJKAS_clean_linker_0, # of connection points: 2
#     Edge 57, Type (0, 1), BuildingBlock: ZUJKAS_clean_linker_0, # of connection points: 2
#     Edge 58, Type (0, 1), BuildingBlock: ZUJKAS_clean_linker_0, # of connection points: 2
#     Edge 59, Type (0, 1), BuildingBlock: ZUJKAS_clean_linker_0, # of connection points: 2
#     Edge 60, Type (0, 1), BuildingBlock: ZUJKAS_clean_linker_0, # of connection points: 2
#     Edge 61, Type (0, 1), BuildingBlock: ZUJKAS_clean_linker_0, # of connection points: 2
#     Edge 62, Type (0, 1), BuildingBlock: ZUJKAS_clean_linker_0, # of connection points: 2
#     Edge 63, Type (0, 1), BuildingBlock: ZUJKAS_clean_linker_0, # of connection points: 2
#     Edge 64, Type (0, 1), BuildingBlock: ZUJKAS_clean_linker_0, # of connection points: 2
#     Edge 65, Type (0, 1), BuildingBlock: ZUJKAS_clean_linker_0, # of connection points: 2
#     Edge 66, Type (0, 1), BuildingBlock: ZUJKAS_clean_linker_0, # of connection points: 2
#     Edge 67, Type (0, 1), BuildingBlock: ZUJKAS_clean_linker_0, # of connection points: 2
#     Edge 68, Type (0, 1), BuildingBlock: ZUJKAS_clean_linker_0, # of connection points: 2
#     Edge 69, Type (0, 1), BuildingBlock: ZUJKAS_clean_linker_0, # of connection points: 2
#     Edge 70, Type (0, 1), BuildingBlock: ZUJKAS_clean_linker_0, # of connection points: 2
#     Edge 71, Type (0, 1), BuildingBlock: ZUJKAS_clean_linker_0, # of connection points: 2
#     Edge 72, Type (0, 1), BuildingBlock: ZUJKAS_clean_linker_0, # of connection points: 2
#     Edge 73, Type (0, 1), BuildingBlock: ZUJKAS_clean_linker_0, # of connection points: 2
#     Edge 74, Type (0, 1), BuildingBlock: ZUJKAS_clean_linker_0, # of connection points: 2
#     Edge 75, Type (0, 1), BuildingBlock: ZUJKAS_clean_linker_0, # of connection points: 2
#     Edge 76, Type (0, 1), BuildingBlock: ZUJKAS_clean_linker_0, # of connection points: 2
#     Edge 77, Type (0, 1), BuildingBlock: ZUJKAS_clean_linker_0, # of connection points: 2
#     Edge 78, Type (0, 1), BuildingBlock: ZUJKAS_clean_linker_0, # of connection points: 2
#     Edge 79, Type (0, 1), BuildingBlock: ZUJKAS_clean_linker_0, # of connection points: 2
#     Edge 80, Type (0, 1), BuildingBlock: ZUJKAS_clean_linker_0, # of connection points: 2
# Relax obj value: 0.089
# Max RMSD: 0.175
# Mean RMSD: 0.085
data_MOF--net-eea--node1-LEVNOQ01_clean_sbu_1--node2-BELTOD_clean_linker_0--edge1-ZUJKAS_clean_linker_0
_symmetry_space_group_name_H-M    P1
_symmetry_Int_Tables_number       1
_symmetry_cell_setting            triclinic
loop_
_symmetry_equiv_pos_as_xyz
'x, y, z'
_cell_length_a     78.409258
_cell_length_b     77.729671
_cell_length_c     77.253206
_cell_angle_alpha  90.768962
_cell_angle_beta   90.401856
_cell_angle_gamma 119.96182
loop_
_atom_site_label
_atom_site_type_symbol
_atom_site_fract_x
_atom_site_fract_y
_atom_site_fract_z
_atom_type_partial_charge
P0 P 0.29105 0.14829 0.38776 0.0
H1 H 0.28717 0.12472 0.35653 0.0
H2 H 0.26657 0.08914 0.34954 0.0
H3 H 0.24335 0.07926 0.40131 0.0
H4 H 0.26339 0.11442 0.408 0.0
H5 H 0.30246 0.18949 0.38149 0.0
H6 H 0.2831 0.20576 0.376 0.0
H7 H 0.22993 0.14843 0.37408 0.0
H8 H 0.24921 0.13237 0.37928 0.0
H9 H 0.31884 0.14531 0.41095 0.0
H10 H 0.2706 0.1568 0.41541 0.0
O11 O 0.3127 0.15842 0.37788 0.0
H12 H 0.32076 0.14424 0.44252 0.0
H13 H 0.27225 0.15547 0.44684 0.0
C14 C 0.27723 0.12211 0.38291 0.0
C15 C 0.27775 0.11479 0.36637 0.0
C16 C 0.26594 0.09453 0.36239 0.0
C17 C 0.25329 0.08144 0.37487 0.0
C18 C 0.2527 0.08898 0.39133 0.0
C19 C 0.26446 0.10912 0.39527 0.0
C20 C 0.27734 0.15976 0.38058 0.0
C21 C 0.28669 0.18045 0.37947 0.0
C22 C 0.27561 0.18971 0.3765 0.0
C23 C 0.255 0.17835 0.37471 0.0
C24 C 0.2458 0.15756 0.37519 0.0
C25 C 0.25687 0.14835 0.3782 0.0
C26 C 0.29489 0.15154 0.41084 0.0
C27 C 0.30896 0.14802 0.41873 0.0
C28 C 0.30985 0.14714 0.43675 0.0
C29 C 0.29655 0.14963 0.44716 0.0
C30 C 0.28283 0.15371 0.4392 0.0
C31 C 0.28194 0.15455 0.42119 0.0
P32 P 0.88621 0.11458 0.40929 0.0
H33 H 0.88133 0.08486 0.38363 0.0
H34 H 0.85281 0.06046 0.36692 0.0
H35 H 0.81929 0.08726 0.3853 0.0
H36 H 0.84797 0.11155 0.40221 0.0
H37 H 0.92751 0.14114 0.41672 0.0
H38 H 0.95293 0.16986 0.40176 0.0
H39 H 0.90969 0.16492 0.36399 0.0
H40 H 0.88425 0.13606 0.37904 0.0
H41 H 0.86684 0.09269 0.43989 0.0
H42 H 0.88402 0.15014 0.41887 0.0
O43 O 0.89676 0.10167 0.41587 0.0
H44 H 0.85319 0.10058 0.46506 0.0
H45 H 0.87015 0.15808 0.44396 0.0
C46 C 0.86638 0.09932 0.39468 0.0
C47 C 0.86793 0.08565 0.38384 0.0
C48 C 0.85169 0.07193 0.37407 0.0
C49 C 0.83371 0.0718 0.375 0.0
C50 C 0.83287 0.08685 0.38458 0.0
C51 C 0.84918 0.10059 0.39434 0.0
C52 C 0.90423 0.13628 0.3987 0.0
C53 C 0.9235 0.14633 0.40528 0.0
C54 C 0.93793 0.16284 0.39684 0.0
C55 C 0.93321 0.16957 0.38173 0.0
C56 C 0.91368 0.15989 0.37553 0.0
C57 C 0.89921 0.14339 0.38407 0.0
C58 C 0.87684 0.12101 0.42782 0.0
C59 C 0.86772 0.10703 0.44076 0.0
C60 C 0.85972 0.11147 0.455 0.0
C61 C 0.86057 0.12994 0.45643 0.0
C62 C 0.86948 0.14383 0.44326 0.0
C63 C 0.87745 0.13932 0.42897 0.0
P64 P 0.85422 0.70705 0.39019 0.0
H65 H 0.83212 0.7061 0.35925 0.0
H66 H 0.81613 0.725 0.35102 0.0
H67 H 0.83351 0.75637 0.40038 0.0
H68 H 0.84888 0.73707 0.40862 0.0
H69 H 0.88202 0.69529 0.37768 0.0
H70 H 0.9163 0.71434 0.36872 0.0
H71 H 0.91587 0.76894 0.37883 0.0
H72 H 0.88157 0.74982 0.38746 0.0
H73 H 0.82222 0.68313 0.41323 0.0
H74 H 0.88445 0.72499 0.41794 0.0
O75 O 0.84309 0.68466 0.38054 0.0
H76 H 0.81998 0.68108 0.44476 0.0
H77 H 0.88241 0.72274 0.44938 0.0
C78 C 0.8413 0.7199 0.38465 0.0
C79 C 0.83222 0.71686 0.36835 0.0
C80 C 0.82329 0.72784 0.36361 0.0
C81 C 0.82354 0.74222 0.37505 0.0
C82 C 0.83273 0.7452 0.39138 0.0
C83 C 0.84155 0.73416 0.39612 0.0
C84 C 0.87913 0.72111 0.38285 0.0
C85 C 0.88926 0.71135 0.37778 0.0
C86 C 0.9089 0.72227 0.37282 0.0
C87 C 0.9188 0.74318 0.37303 0.0
C88 C 0.90858 0.75288 0.37824 0.0
C89 C 0.88894 0.74193 0.38319 0.0
C90 C 0.85349 0.70402 0.41324 0.0
C91 C 0.83545 0.6916 0.42105 0.0
C92 C 0.83421 0.69045 0.43906 0.0
C93 C 0.85103 0.70178 0.44957 0.0
C94 C 0.86915 0.71402 0.44165 0.0
C95 C 0.87036 0.71517 0.42363 0.0
P96 P 0.1419 0.2903 0.61853 0.0
H97 H 0.12044 0.28468 0.65051 0.0
H98 H 0.08544 0.26447 0.65762 0.0
H99 H 0.07178 0.24483 0.60425 0.0
H100 H 0.10667 0.26435 0.5973 0.0
H101 H 0.17875 0.30186 0.63748 0.0
H102 H 0.19492 0.28321 0.64598 0.0
H103 H 0.14581 0.22947 0.62456 0.0
H104 H 0.12987 0.24827 0.61593 0.0
H105 H 0.12665 0.30701 0.59318 0.0
H106 H 0.16575 0.28296 0.59338 0.0
O107 O 0.15191 0.31229 0.62881 0.0
H108 H 0.13026 0.31108 0.56174 0.0
H109 H 0.16926 0.28682 0.5622 0.0
C110 C 0.11608 0.27648 0.6233 0.0
C111 C 0.10988 0.27613 0.64033 0.0
C112 C 0.08998 0.26454 0.6444 0.0
C113 C 0.07603 0.25328 0.63142 0.0
C114 C 0.08228 0.25362 0.6144 0.0
C115 C 0.1022 0.26489 0.61042 0.0
C116 C 0.153 0.27637 0.6263 0.0
C117 C 0.17134 0.28602 0.63485 0.0
C118 C 0.18054 0.27532 0.63975 0.0
C119 C 0.17162 0.25484 0.63598 0.0
C120 C 0.15312 0.24524 0.62755 0.0
C121 C 0.14392 0.25593 0.62273 0.0
C122 C 0.14565 0.29439 0.5956 0.0
C123 C 0.13601 0.30264 0.58647 0.0
C124 C 0.138 0.30485 0.56852 0.0
C125 C 0.14996 0.29917 0.55948 0.0
C126 C 0.16004 0.29147 0.5688 0.0
C127 C 0.15792 0.28912 0.58668 0.0
P128 P 0.76395 0.88352 0.60154 0.0
H129 H 0.78589 0.90991 0.63022 0.0
H130 H 0.78245 0.93576 0.64501 0.0
H131 H 0.72526 0.91375 0.62066 0.0
H132 H 0.72905 0.88801 0.60563 0.0
H133 H 0.77994 0.85879 0.59145 0.0
H134 H 0.77576 0.82768 0.60223 0.0
H135 H 0.73673 0.82738 0.64163 0.0
H136 H 0.74114 0.85889 0.6307 0.0
H137 H 0.76692 0.90611 0.57094 0.0
H138 H 0.72769 0.84761 0.59016 0.0
O139 O 0.78743 0.89767 0.59597 0.0
H140 H 0.74714 0.8978 0.54429 0.0
H141 H 0.70783 0.83923 0.56359 0.0
C142 C 0.75809 0.89764 0.61639 0.0
C143 C 0.77237 0.91029 0.62847 0.0
C144 C 0.77024 0.92496 0.63708 0.0
C145 C 0.75374 0.92711 0.6337 0.0
C146 C 0.73832 0.91273 0.62321 0.0
C147 C 0.74051 0.89805 0.61458 0.0
C148 C 0.76122 0.86126 0.61056 0.0
C149 C 0.77054 0.85208 0.60245 0.0
C150 C 0.76787 0.83414 0.60845 0.0
C151 C 0.75569 0.82499 0.62262 0.0
C152 C 0.74617 0.83415 0.63067 0.0
C153 C 0.74879 0.85216 0.62455 0.0
C154 C 0.74901 0.87733 0.58227 0.0
C155 C 0.75405 0.89149 0.5694 0.0
C156 C 0.74266 0.88678 0.55427 0.0
C157 C 0.72599 0.86784 0.55187 0.0
C158 C 0.72074 0.85384 0.56501 0.0
C159 C 0.7321 0.85862 0.58018 0.0
P160 P 0.1472 0.84692 0.61799 0.0
H161 H 0.17203 0.87234 0.6469 0.0
H162 H 0.18802 0.90829 0.65237 0.0
H163 H 0.16314 0.91457 0.60433 0.0
H164 H 0.14823 0.87922 0.59865 0.0
H165 H 0.12106 0.8097 0.63528 0.0
H166 H 0.08666 0.79452 0.64405 0.0
H167 H 0.08381 0.8447 0.62406 0.0
H168 H 0.118 0.85978 0.61554 0.0
H169 H 0.18006 0.86043 0.59482 0.0
H170 H 0.11665 0.82726 0.59054 0.0
O171 O 0.15898 0.83707 0.62829 0.0
H172 H 0.18219 0.86321 0.56333 0.0
H173 H 0.11872 0.83011 0.55908 0.0
C174 C 0.15928 0.87321 0.62224 0.0
C175 C 0.17025 0.88158 0.63751 0.0
C176 C 0.17919 0.90207 0.64069 0.0
C177 C 0.17701 0.91436 0.6287 0.0
C178 C 0.16558 0.9057 0.61363 0.0
C179 C 0.15694 0.8854 0.6104 0.0
C180 C 0.12223 0.83606 0.62513 0.0
C181 C 0.11307 0.8175 0.63297 0.0
C182 C 0.09339 0.8088 0.63785 0.0
C183 C 0.0826 0.81851 0.63484 0.0
C184 C 0.09185 0.83705 0.62686 0.0
C185 C 0.11146 0.84569 0.62198 0.0
C186 C 0.14825 0.84377 0.59502 0.0
C187 C 0.16663 0.85334 0.58708 0.0
C188 C 0.16781 0.85513 0.56913 0.0
C189 C 0.1506 0.84722 0.55884 0.0
C190 C 0.13221 0.8364 0.56673 0.0
C191 C 0.13103 0.83477 0.58474 0.0
P192 P 0.95741 0.47884 0.72079 0.0
H193 H 0.95816 0.45284 0.69314 0.0
H194 H 0.93847 0.41684 0.6879 0.0
H195 H 0.90487 0.41143 0.73366 0.0
H196 H 0.92463 0.4471 0.7389 0.0
H197 H 0.97034 0.52056 0.71568 0.0
H198 H 0.95223 0.53814 0.71028 0.0
H199 H 0.89809 0.48188 0.70543 0.0
H200 H 0.91618 0.46452 0.7105 0.0
H201 H 0.97863 0.46752 0.74454 0.0
H202 H 0.94302 0.49547 0.74795 0.0
O203 O 0.97919 0.48825 0.71122 0.0
H204 H 0.97871 0.46545 0.77611 0.0
H205 H 0.9433 0.49362 0.77947 0.0
C206 C 0.94306 0.45254 0.71655 0.0
C207 C 0.9466 0.44384 0.70205 0.0
C208 C 0.93527 0.42332 0.69902 0.0
C209 C 0.92022 0.41129 0.71046 0.0
C210 C 0.9166 0.42021 0.72482 0.0
C211 C 0.92787 0.44063 0.7278 0.0
C212 C 0.94467 0.49127 0.71337 0.0
C213 C 0.95465 0.51205 0.71304 0.0
C214 C 0.94426 0.52205 0.71014 0.0
C215 C 0.92372 0.51137 0.70758 0.0
C216 C 0.91393 0.49052 0.70721 0.0
C217 C 0.92431 0.48056 0.71016 0.0
C218 C 0.96104 0.48182 0.74388 0.0
C219 C 0.97126 0.47365 0.75209 0.0
C220 C 0.9711 0.47227 0.77008 0.0
C221 C 0.96081 0.47917 0.78014 0.0
C222 C 0.95137 0.48824 0.77197 0.0
C223 C 0.95131 0.48938 0.75393 0.0
P224 P 0.54988 0.44742 0.74108 0.0
H225 H 0.54557 0.42084 0.71254 0.0
H226 H 0.51612 0.39377 0.69843 0.0
H227 H 0.48008 0.41315 0.72462 0.0
H228 H 0.50947 0.44045 0.73842 0.0
H229 H 0.58814 0.47846 0.7526 0.0
H230 H 0.61561 0.50508 0.73729 0.0
H231 H 0.57932 0.49023 0.69102 0.0
H232 H 0.55177 0.46378 0.70647 0.0
H233 H 0.53313 0.42561 0.77235 0.0
H234 H 0.54641 0.48204 0.75142 0.0
O235 O 0.56044 0.43425 0.74688 0.0
H236 H 0.51949 0.43251 0.79805 0.0
H237 H 0.53251 0.48902 0.77712 0.0
C238 C 0.52952 0.43208 0.72696 0.0
C239 C 0.53142 0.41972 0.71472 0.0
C240 C 0.51469 0.40449 0.7065 0.0
C241 C 0.49605 0.40159 0.71054 0.0
C242 C 0.49443 0.41537 0.72125 0.0
C243 C 0.51118 0.43073 0.72933 0.0
C244 C 0.56814 0.46907 0.73058 0.0
C245 C 0.58601 0.4812 0.73926 0.0
C246 C 0.60165 0.49629 0.7305 0.0
C247 C 0.59958 0.49938 0.71292 0.0
C248 C 0.58123 0.48807 0.70457 0.0
C249 C 0.56555 0.47291 0.71337 0.0
C250 C 0.54121 0.45355 0.76028 0.0
C251 C 0.53325 0.43958 0.77339 0.0
C252 C 0.52523 0.44343 0.78795 0.0
C253 C 0.52488 0.46128 0.78956 0.0
C254 C 0.53278 0.47524 0.77629 0.0
C255 C 0.54077 0.47131 0.76166 0.0
P256 P 0.51958 0.03969 0.72429 0.0
H257 H 0.49513 0.03621 0.69411 0.0
H258 H 0.47865 0.05452 0.68555 0.0
H259 H 0.50073 0.0907 0.73227 0.0
H260 H 0.51639 0.07186 0.74097 0.0
H261 H 0.54598 0.0285 0.70733 0.0
H262 H 0.58017 0.04783 0.69816 0.0
H263 H 0.58257 0.10155 0.71718 0.0
H264 H 0.54843 0.08218 0.72618 0.0
H265 H 0.48728 0.02598 0.74827 0.0
H266 H 0.54975 0.04758 0.75118 0.0
O267 O 0.50858 0.0171 0.71503 0.0
H268 H 0.48585 0.02536 0.77987 0.0
H269 H 0.54836 0.04694 0.78283 0.0
C270 C 0.5067 0.05248 0.71828 0.0
C271 C 0.4962 0.04794 0.70257 0.0
C272 C 0.48696 0.05857 0.69762 0.0
C273 C 0.48835 0.07412 0.70823 0.0
C274 C 0.49902 0.07862 0.72393 0.0
C275 C 0.50808 0.06789 0.7289 0.0
C276 C 0.54454 0.05394 0.71711 0.0
C277 C 0.55381 0.04444 0.70939 0.0
C278 C 0.5734 0.05551 0.70427 0.0
C279 C 0.58404 0.07625 0.70689 0.0
C280 C 0.57467 0.08566 0.71471 0.0
C281 C 0.55513 0.07458 0.71988 0.0
C282 C 0.51865 0.03719 0.74742 0.0
C283 C 0.50066 0.03051 0.75572 0.0
C284 C 0.49989 0.03028 0.77374 0.0
C285 C 0.51706 0.03645 0.78376 0.0
C286 C 0.53493 0.04221 0.7754 0.0
C287 C 0.53573 0.04263 0.75731 0.0
P288 P 0.81047 0.62615 0.95101 0.0
H289 H 0.78654 0.62949 0.9783 0.0
H290 H 0.75161 0.60944 0.98503 0.0
H291 H 0.74294 0.57175 0.94029 0.0
H292 H 0.77772 0.5922 0.93341 0.0
H293 H 0.85173 0.6382 0.95626 0.0
H294 H 0.8684 0.62022 0.96532 0.0
H295 H 0.81199 0.56795 0.97385 0.0
H296 H 0.79548 0.58595 0.96498 0.0
H297 H 0.7996 0.64634 0.9255 0.0
H298 H 0.82733 0.61037 0.92558 0.0
O299 O 0.82035 0.6488 0.96004 0.0
H300 H 0.80231 0.64857 0.89388 0.0
H301 H 0.83021 0.6127 0.89424 0.0
C302 C 0.78457 0.61251 0.95521 0.0
C303 C 0.77703 0.61707 0.96983 0.0
C304 C 0.75712 0.60546 0.97375 0.0
C305 C 0.74451 0.58894 0.96322 0.0
C306 C 0.75218 0.58452 0.94852 0.0
C307 C 0.77205 0.5962 0.94457 0.0
C308 C 0.8224 0.6135 0.95995 0.0
C309 C 0.84298 0.62297 0.96034 0.0
C310 C 0.85246 0.61263 0.96537 0.0
C311 C 0.84147 0.59261 0.97016 0.0
C312 C 0.82085 0.58338 0.97034 0.0
C313 C 0.81139 0.59371 0.96519 0.0
C314 C 0.81356 0.62851 0.92794 0.0
C315 C 0.80642 0.63909 0.91874 0.0
C316 C 0.80783 0.64022 0.90071 0.0
C317 C 0.81655 0.63088 0.89163 0.0
C318 C 0.82368 0.62028 0.90092 0.0
C319 C 0.82206 0.61898 0.9189 0.0
P320 P 0.42734 0.20798 0.93661 0.0
H321 H 0.45219 0.23522 0.96381 0.0
H322 H 0.45319 0.26486 0.97618 0.0
H323 H 0.39684 0.24747 0.95234 0.0
H324 H 0.39572 0.21772 0.94003 0.0
H325 H 0.42823 0.1737 0.92348 0.0
H326 H 0.42659 0.14496 0.93751 0.0
H327 H 0.41604 0.16488 0.98658 0.0
H328 H 0.4172 0.19359 0.97238 0.0
H329 H 0.43219 0.23193 0.90674 0.0
H330 H 0.3898 0.17372 0.92443 0.0
O331 O 0.45086 0.21946 0.93068 0.0
H332 H 0.41282 0.22611 0.88024 0.0
H333 H 0.37018 0.16776 0.89789 0.0
C334 C 0.42423 0.22476 0.95057 0.0
C335 C 0.43968 0.23736 0.96181 0.0
C336 C 0.44019 0.25416 0.96897 0.0
C337 C 0.42515 0.25832 0.96503 0.0
C338 C 0.40849 0.24438 0.95559 0.0
C339 C 0.40799 0.22754 0.94841 0.0
C340 C 0.42263 0.18557 0.94685 0.0
C341 C 0.42493 0.17157 0.93714 0.0
C342 C 0.42391 0.15517 0.94512 0.0
C343 C 0.42086 0.15271 0.96298 0.0
C344 C 0.41811 0.16647 0.97272 0.0
C345 C 0.41885 0.18282 0.96463 0.0
C346 C 0.41266 0.20309 0.91728 0.0
C347 C 0.41871 0.21786 0.90486 0.0
C348 C 0.40751 0.21458 0.88982 0.0
C349 C 0.38996 0.19647 0.88697 0.0
C350 C 0.38375 0.18177 0.89963 0.0
C351 C 0.39496 0.18514 0.91478 0.0
P352 P 0.81489 0.18184 0.95087 0.0
H353 H 0.84095 0.20795 0.97883 0.0
H354 H 0.8576 0.2441 0.98342 0.0
H355 H 0.83206 0.24947 0.93546 0.0
H356 H 0.81586 0.21373 0.93089 0.0
H357 H 0.7861 0.14149 0.96019 0.0
H358 H 0.75153 0.12597 0.96843 0.0
H359 H 0.75444 0.18287 0.96568 0.0
H360 H 0.78886 0.19826 0.95768 0.0
H361 H 0.84691 0.19376 0.92702 0.0
H362 H 0.78339 0.16234 0.92414 0.0
O363 O 0.8268 0.17204 0.96102 0.0
H364 H 0.84817 0.19535 0.89542 0.0
H365 H 0.78467 0.16357 0.89251 0.0
C366 C 0.82756 0.20827 0.95437 0.0
C367 C 0.83913 0.217 0.96928 0.0
C368 C 0.8485 0.23759 0.97193 0.0
C369 C 0.84627 0.24963 0.9597 0.0
C370 C 0.83443 0.24068 0.94491 0.0
C371 C 0.82514 0.22022 0.94229 0.0
C372 C 0.79016 0.17105 0.95861 0.0
C373 C 0.77935 0.15064 0.96162 0.0
C374 C 0.75958 0.14179 0.96616 0.0
C375 C 0.7503 0.15324 0.96767 0.0
C376 C 0.76126 0.17373 0.96482 0.0
C377 C 0.78099 0.18254 0.96022 0.0
C378 C 0.81511 0.17792 0.92792 0.0
C379 C 0.83325 0.18673 0.91958 0.0
C380 C 0.83397 0.18782 0.90159 0.0
C381 C 0.81651 0.17982 0.89168 0.0
C382 C 0.7983 0.16987 0.89996 0.0
C383 C 0.79759 0.16909 0.91802 0.0
P384 P 0.62357 0.81053 0.054 0.0
H385 H 0.62248 0.78351 0.02647 0.0
H386 H 0.60208 0.74739 0.02212 0.0
H387 H 0.57099 0.74393 0.06906 0.0
H388 H 0.59119 0.77972 0.07328 0.0
H389 H 0.63567 0.85239 0.05251 0.0
H390 H 0.6174 0.86963 0.04674 0.0
H391 H 0.56605 0.81361 0.03242 0.0
H392 H 0.58419 0.7965 0.03862 0.0
H393 H 0.64804 0.8036 0.07801 0.0
H394 H 0.60616 0.82416 0.0808 0.0
O395 O 0.64521 0.81916 0.04432 0.0
H396 H 0.649 0.8028 0.10966 0.0
H397 H 0.60724 0.82356 0.11234 0.0
C398 C 0.60869 0.78417 0.05043 0.0
C399 C 0.61131 0.77491 0.03582 0.0
C400 C 0.59959 0.75435 0.0333 0.0
C401 C 0.58512 0.74287 0.04538 0.0
C402 C 0.58228 0.75235 0.05974 0.0
C403 C 0.59386 0.77282 0.06217 0.0
C404 C 0.6113 0.82321 0.04608 0.0
C405 C 0.6206 0.84391 0.04779 0.0
C406 C 0.61013 0.85373 0.04447 0.0
C407 C 0.59018 0.84294 0.03934 0.0
C408 C 0.58126 0.82228 0.03672 0.0
C409 C 0.59171 0.81249 0.04014 0.0
C410 C 0.6274 0.81434 0.07704 0.0
C411 C 0.63947 0.80844 0.08543 0.0
C412 C 0.63982 0.80777 0.10347 0.0
C413 C 0.62808 0.813 0.1134 0.0
C414 C 0.61654 0.81961 0.10499 0.0
C415 C 0.61604 0.82008 0.08694 0.0
P416 P 0.21566 0.77663 0.0765 0.0
H417 H 0.21248 0.74561 0.05331 0.0
H418 H 0.18538 0.72053 0.03586 0.0
H419 H 0.15104 0.74874 0.04738 0.0
H420 H 0.17834 0.77364 0.06534 0.0
H421 H 0.25637 0.80326 0.08618 0.0
H422 H 0.28427 0.82829 0.0701 0.0
H423 H 0.24537 0.82048 0.02708 0.0
H424 H 0.21743 0.79565 0.04335 0.0
H425 H 0.1927 0.7545 0.10551 0.0
H426 H 0.21478 0.81325 0.08544 0.0
O427 O 0.22533 0.76367 0.08493 0.0
H428 H 0.17896 0.76297 0.13014 0.0
H429 H 0.20063 0.82186 0.11008 0.0
C430 C 0.19696 0.7608 0.06118 0.0
C431 C 0.19921 0.74653 0.0519 0.0
C432 C 0.18376 0.73238 0.04166 0.0
C433 C 0.16586 0.73242 0.04044 0.0
C434 C 0.16449 0.74808 0.04837 0.0
C435 C 0.18 0.76222 0.0587 0.0
C436 C 0.23501 0.79739 0.0658 0.0
C437 C 0.25383 0.80712 0.07338 0.0
C438 C 0.26974 0.82125 0.06413 0.0
C439 C 0.26699 0.8259 0.0472 0.0
C440 C 0.24788 0.81703 0.04006 0.0
C441 C 0.23194 0.80283 0.04934 0.0
C442 C 0.20508 0.78339 0.09394 0.0
C443 C 0.19448 0.76923 0.1064 0.0
C444 C 0.18643 0.77404 0.12037 0.0
C445 C 0.18866 0.79309 0.12206 0.0
C446 C 0.19885 0.80713 0.10922 0.0
C447 C 0.20693 0.80226 0.09517 0.0
P448 P 0.18679 0.37265 0.0558 0.0
H449 H 0.16826 0.3756 0.02403 0.0
H450 H 0.15283 0.39519 0.01633 0.0
H451 H 0.16324 0.41942 0.06852 0.0
H452 H 0.17827 0.39963 0.07614 0.0
H453 H 0.21358 0.36082 0.04061 0.0
H454 H 0.24794 0.3799 0.03166 0.0
H455 H 0.24899 0.43439 0.04579 0.0
H456 H 0.21473 0.41527 0.05471 0.0
H457 H 0.15778 0.34298 0.07847 0.0
H458 H 0.2149 0.39565 0.08391 0.0
O459 O 0.17534 0.35044 0.04584 0.0
H460 H 0.15543 0.34049 0.11001 0.0
H461 H 0.21268 0.39319 0.11532 0.0
C462 C 0.17404 0.38583 0.05071 0.0
C463 C 0.16697 0.38494 0.03384 0.0
C464 C 0.15835 0.39631 0.02943 0.0
C465 C 0.15682 0.40889 0.04182 0.0
C466 C 0.16392 0.40968 0.05874 0.0
C467 C 0.17253 0.39833 0.06312 0.0
C468 C 0.21157 0.38665 0.04812 0.0
C469 C 0.22114 0.37688 0.04157 0.0
C470 C 0.24074 0.38779 0.03641 0.0
C471 C 0.25111 0.40864 0.03799 0.0
C472 C 0.24139 0.41835 0.04451 0.0
C473 C 0.22178 0.40744 0.0495 0.0
C474 C 0.18662 0.3693 0.07882 0.0
C475 C 0.16998 0.35377 0.08643 0.0
C476 C 0.16865 0.35238 0.10444 0.0
C477 C 0.18385 0.3667 0.11512 0.0
C478 C 0.20065 0.38207 0.10742 0.0
C479 C 0.20201 0.38336 0.08942 0.0
P480 P 0.47673 0.95653 0.28561 0.0
H481 H 0.4551 0.96074 0.31456 0.0
H482 H 0.42031 0.94215 0.32248 0.0
H483 H 0.40769 0.90437 0.27709 0.0
H484 H 0.44234 0.92297 0.26926 0.0
H485 H 0.51678 0.97023 0.2981 0.0
H486 H 0.53383 0.95261 0.3071 0.0
H487 H 0.48011 0.89657 0.29896 0.0
H488 H 0.46319 0.9142 0.29019 0.0
H489 H 0.45802 0.96892 0.25981 0.0
H490 H 0.4998 0.94815 0.26039 0.0
O491 O 0.48745 0.97945 0.29419 0.0
H492 H 0.45965 0.97057 0.2282 0.0
H493 H 0.50186 0.95021 0.22901 0.0
C494 C 0.45117 0.9434 0.2912 0.0
C495 C 0.4448 0.94855 0.30627 0.0
C496 C 0.42497 0.93793 0.31078 0.0
C497 C 0.41135 0.92182 0.3004 0.0
C498 C 0.4179 0.9166 0.28541 0.0
C499 C 0.43764 0.92733 0.28084 0.0
C500 C 0.48862 0.94357 0.29386 0.0
C501 C 0.50861 0.95417 0.29854 0.0
C502 C 0.51837 0.94407 0.30351 0.0
C503 C 0.50828 0.92319 0.30379 0.0
C504 C 0.4882 0.91266 0.29917 0.0
C505 C 0.4785 0.92276 0.29413 0.0
C506 C 0.47861 0.95824 0.26244 0.0
C507 C 0.46756 0.96476 0.25313 0.0
C508 C 0.46856 0.96574 0.23509 0.0
C509 C 0.48077 0.96035 0.22607 0.0
C510 C 0.49198 0.95403 0.23552 0.0
C511 C 0.49093 0.95301 0.25353 0.0
P512 P 0.08828 0.54761 0.26944 0.0
H513 H 0.10644 0.56945 0.3011 0.0
H514 H 0.10275 0.59476 0.31647 0.0
H515 H 0.04993 0.57877 0.2865 0.0
H516 H 0.0539 0.55343 0.27098 0.0
H517 H 0.09555 0.51865 0.25294 0.0
H518 H 0.10075 0.49247 0.26426 0.0
H519 H 0.08595 0.50328 0.31547 0.0
H520 H 0.08045 0.52943 0.30401 0.0
H521 H 0.09261 0.57117 0.23932 0.0
H522 H 0.05303 0.51172 0.2563 0.0
O523 O 0.11175 0.56345 0.26485 0.0
H524 H 0.0755 0.56322 0.21133 0.0
H525 H 0.03606 0.50344 0.22807 0.0
C526 C 0.08078 0.56003 0.28464 0.0
C527 C 0.09363 0.57084 0.29832 0.0
C528 C 0.09135 0.58523 0.30722 0.0
C529 C 0.07624 0.58906 0.30243 0.0
C530 C 0.0619 0.57636 0.29024 0.0
C531 C 0.0642 0.56191 0.28133 0.0
C532 C 0.08767 0.52594 0.27764 0.0
C533 C 0.09295 0.51508 0.26652 0.0
C534 C 0.096 0.50023 0.27299 0.0
C535 C 0.09396 0.49615 0.29072 0.0
C536 C 0.08754 0.50621 0.30173 0.0
C537 C 0.0845 0.52118 0.29521 0.0
C538 C 0.07441 0.54184 0.24959 0.0
C539 C 0.08025 0.55637 0.23697 0.0
C540 C 0.07052 0.55178 0.22098 0.0
C541 C 0.05471 0.53258 0.21741 0.0
C542 C 0.04823 0.51833 0.23046 0.0
C543 C 0.05799 0.52299 0.24651 0.0
P544 P 0.47734 0.51038 0.28319 0.0
H545 H 0.50161 0.53519 0.31251 0.0
H546 H 0.518 0.57113 0.31824 0.0
H547 H 0.4965 0.5787 0.26885 0.0
H548 H 0.48099 0.54334 0.26305 0.0
H549 H 0.44861 0.47158 0.29637 0.0
H550 H 0.41438 0.45767 0.30539 0.0
H551 H 0.41716 0.51334 0.29433 0.0
H552 H 0.45115 0.52712 0.28551 0.0
H553 H 0.50889 0.51597 0.2605 0.0
H554 H 0.44745 0.49833 0.25532 0.0
O555 O 0.48841 0.49982 0.29354 0.0
H556 H 0.51194 0.51767 0.22903 0.0
H557 H 0.45032 0.49973 0.22388 0.0
C558 C 0.49052 0.5367 0.2872 0.0
C559 C 0.50075 0.54471 0.30286 0.0
C560 C 0.50991 0.56518 0.30618 0.0
C561 C 0.50868 0.57779 0.29392 0.0
C562 C 0.49818 0.56953 0.27837 0.0
C563 C 0.48927 0.54923 0.27503 0.0
C564 C 0.45257 0.50049 0.29063 0.0
C565 C 0.44189 0.48082 0.29606 0.0
C566 C 0.42232 0.47287 0.30108 0.0
C567 C 0.41317 0.48449 0.30063 0.0
C568 C 0.42394 0.50417 0.2951 0.0
C569 C 0.44343 0.51205 0.29004 0.0
C570 C 0.47791 0.5067 0.26024 0.0
C571 C 0.49592 0.51187 0.25256 0.0
C572 C 0.49765 0.51292 0.23459 0.0
C573 C 0.48137 0.50892 0.22399 0.0
C574 C 0.46317 0.50313 0.23172 0.0
C575 C 0.46146 0.50207 0.24972 0.0
O576 O 0.49583 0.97747 0.96109 0.0
Mg577 Mg 0.51638 0.98078 0.98 0.0
O578 O 0.49826 0.00343 0.97491 0.0
Mg579 Mg 0.50264 0.0004 0.0048 0.0
O580 O 0.50569 0.9722 0.0042 0.0
O581 O 0.51504 0.95509 0.98694 0.0
O582 O 0.50667 -0.00112 0.03495 0.0
O583 O 0.46922 0.9798 0.00653 0.0
Mg584 Mg 0.48293 0.02186 0.02798 0.0
O585 O 0.49935 0.02736 0.00673 0.0
O586 O 0.49857 0.01903 0.0487 0.0
O587 O 0.45613 0.99589 0.02013 0.0
O588 O 0.49119 0.04896 0.01654 0.0
C589 C 0.54862 0.0219 0.99184 0.0
C590 C 0.49412 0.99276 0.96113 0.0
C591 C 0.50822 0.95711 0.0015 0.0
C592 C 0.50543 0.00732 0.04886 0.0
C593 C 0.45436 0.98074 0.01192 0.0
C594 C 0.49844 0.04322 0.00432 0.0
O595 O 0.544 0.0077 0.98105 0.0
O596 O 0.53607 0.0215 0.00249 0.0
O597 O 0.01573 0.51549 0.95627 0.0
Mg598 Mg 0.0131 0.53263 0.97585 0.0
O599 O 0.99544 0.48838 0.97036 0.0
Mg600 Mg 0.99632 0.49537 0.00027 0.0
O601 O 0.02158 0.52719 -0.00096 0.0
O602 O 0.0382 0.55628 0.98605 0.0
O603 O -0.00292 0.50307 0.0303 0.0
O604 O 0.02127 0.48711 0.00357 0.0
Mg605 Mg 0.98249 0.46113 0.02306 0.0
O606 O 0.96983 0.46279 0.00054 0.0
O607 O 0.97792 0.47522 0.04373 0.0
O608 O 0.00968 0.46206 0.02154 0.0
O609 O 0.95829 0.43544 0.01675 0.0
C610 C 0.97096 0.51767 0.98771 0.0
C611 C 0.0042 0.49692 0.95647 0.0
C612 C 0.0362 0.54519 -0.00096 0.0
C613 C 0.9881 0.49389 0.04389 0.0
C614 C 0.02354 0.47462 0.01241 0.0
C615 C 0.95665 0.44442 0.00345 0.0
O616 O 0.98501 0.53007 0.97852 0.0
O617 O 0.97251 0.50474 0.9966 0.0
O618 O 0.50539 0.48526 0.04533 0.0
Mg619 Mg 0.48098 0.46895 0.02881 0.0
O620 O 0.50617 0.51058 0.03237 0.0
Mg621 Mg 0.50007 0.50284 0.0026 0.0
O622 O 0.48919 0.46989 0.00395 0.0
O623 O 0.47579 0.44201 0.01894 0.0
O624 O 0.49432 0.49725 0.97252 0.0
O625 O 0.5314 0.50687 0.00027 0.0
Mg626 Mg 0.52997 0.54246 0.98079 0.0
O627 O 0.51093 0.53547 0.00052 0.0
O628 O 0.51254 0.52609 0.95943 0.0
O629 O 0.55201 0.53581 0.98844 0.0
O630 O 0.52781 0.56615 0.99104 0.0
C631 C 0.45562 0.48725 0.0175 0.0
C632 C 0.50974 0.50324 0.04566 0.0
C633 C 0.48301 0.45113 0.00469 0.0
C634 C 0.49962 0.50778 0.95887 0.0
C635 C 0.54857 0.51972 0.99542 0.0
C636 C 0.51516 0.55371 0.00161 0.0
O637 O 0.45828 0.47654 0.02831 0.0
O638 O 0.46833 0.49715 0.00601 0.0
O639 O 0.18003 0.31837 0.29067 0.0
Mg640 Mg 0.19558 0.31381 0.31067 0.0
O641 O 0.16775 0.3334 0.30691 0.0
Mg642 Mg 0.17004 0.3269 0.33625 0.0
O643 O 0.17649 0.3024 0.33018 0.0
O644 O 0.1886 0.28519 0.31777 0.0
O645 O 0.17284 0.31722 0.36553 0.0
O646 O 0.13778 0.3034 0.33443 0.0
Mg647 Mg 0.1586 0.33653 0.36047 0.0
O648 O 0.16206 0.35315 0.33964 0.0
O649 O 0.1834 0.34635 0.37696 0.0
O650 O 0.13308 0.30732 0.36172 0.0
O651 O 0.14859 0.35512 0.36471 0.0
C652 C 0.2193 0.35284 0.33172 0.0
C653 C 0.17095 0.328 0.29213 0.0
C654 C 0.17783 0.28656 0.32961 0.0
C655 C 0.18074 0.32912 0.37841 0.0
C656 C 0.12688 0.29761 0.34757 0.0
C657 C 0.15406 0.3611 0.3492 0.0
O658 O 0.2198 0.3398 0.32192 0.0
O659 O 0.20315 0.3509 0.33734 0.0
O660 O 0.68519 0.84566 0.29563 0.0
Mg661 Mg 0.67534 0.85557 0.31632 0.0
O662 O 0.65863 0.82088 0.30571 0.0
Mg663 Mg 0.66197 0.82641 0.3364 0.0
O664 O 0.68834 0.85967 0.34014 0.0
O665 O 0.6964 0.88358 0.32043 0.0
O666 O 0.66308 0.83038 0.36731 0.0
O667 O 0.68722 0.8189 0.33625 0.0
Mg668 Mg 0.6489 0.79358 0.35567 0.0
O669 O 0.63661 0.79353 0.33234 0.0
O670 O 0.63866 0.80245 0.37645 0.0
O671 O 0.67762 0.79776 0.35755 0.0
O672 O 0.62875 0.76617 0.34775 0.0
C673 C 0.63473 0.84497 0.3252 0.0
C674 C 0.66994 0.82914 0.293 0.0
C675 C 0.6994 0.87784 0.33513 0.0
C676 C 0.65157 0.82024 0.37947 0.0
C677 C 0.69066 0.80866 0.34695 0.0
C678 C 0.62585 0.77455 0.33465 0.0
O679 O 0.64769 0.8541 0.31395 0.0
O680 O 0.63741 0.83474 0.33648 0.0
O681 O 0.1615 0.81198 0.38346 0.0
Mg682 Mg 0.14601 0.79794 0.36101 0.0
O683 O 0.16924 0.83887 0.36891 0.0
Mg684 Mg 0.16533 0.83125 0.33894 0.0
O685 O 0.16116 0.79918 0.33928 0.0
O686 O 0.14659 0.7729 0.35681 0.0
O687 O 0.16043 0.82287 0.30788 0.0
O688 O 0.19821 0.84047 0.3396 0.0
Mg689 Mg 0.17908 0.85599 0.31802 0.0
O690 O 0.17238 0.86491 0.34072 0.0
O691 O 0.1575 0.84781 0.29909 0.0
O692 O 0.20194 0.84928 0.31268 0.0
O693 O 0.194 0.88551 0.3214 0.0
C694 C 0.11679 0.80785 0.34685 0.0
C695 C 0.16844 0.83048 0.38319 0.0
C696 C 0.15676 0.78121 0.34325 0.0
C697 C 0.15599 0.8312 0.29583 0.0
C698 C 0.20825 0.84486 0.32596 0.0
C699 C 0.18479 0.88277 0.33573 0.0
O700 O 0.11871 0.79589 0.35653 0.0
O701 O 0.1317 0.82159 0.33924 0.0
O702 O 0.83283 0.64996 0.62367 0.0
Mg703 Mg 0.85276 0.64849 0.64081 0.0
O704 O 0.83277 0.67242 0.64135 0.0
Mg705 Mg 0.83647 0.6641 0.66988 0.0
O706 O 0.83997 0.63703 0.66358 0.0
O707 O 0.84928 0.62099 0.64527 0.0
O708 O 0.83962 0.65387 0.69844 0.0
O709 O 0.80384 0.643 0.66995 0.0
Mg710 Mg 0.82733 0.67649 0.69669 0.0
O711 O 0.83142 0.69165 0.67461 0.0
O712 O 0.85258 0.68259 0.71131 0.0
O713 O 0.79982 0.6487 0.69714 0.0
O714 O 0.82246 0.69923 0.69994 0.0
C715 C 0.88344 0.6874 0.65906 0.0
C716 C 0.8295 0.66405 0.62642 0.0
C717 C 0.84197 0.62181 0.65996 0.0
C718 C 0.84866 0.66484 0.71157 0.0
C719 C 0.793 0.63876 0.6831 0.0
C720 C 0.82642 0.7026 0.68375 0.0
O721 O 0.87999 0.67476 0.64693 0.0
O722 O 0.86987 0.68585 0.66906 0.0
O723 O 0.34877 0.16855 0.62872 0.0
Mg724 Mg 0.34314 0.18711 0.64499 0.0
O725 O 0.32088 0.14878 0.64085 0.0
Mg726 Mg 0.32629 0.15674 0.67073 0.0
O727 O 0.3515 0.18875 0.67009 0.0
O728 O 0.3672 0.21371 0.65176 0.0
O729 O 0.32816 0.16174 0.70163 0.0
O730 O 0.35169 0.14961 0.67038 0.0
Mg731 Mg 0.31573 0.11969 0.69322 0.0
O732 O 0.30202 0.12519 0.67288 0.0
O733 O 0.30707 0.13234 0.71243 0.0
O734 O 0.34675 0.13222 0.69392 0.0
O735 O 0.30276 0.0974 0.6744 0.0
C736 C 0.30143 0.17686 0.65665 0.0
C737 C 0.3321 0.1531 0.62787 0.0
C738 C 0.36523 0.20665 0.66708 0.0
C739 C 0.31831 0.15095 0.71442 0.0
C740 C 0.35792 0.14258 0.68197 0.0
C741 C 0.29834 0.10865 0.66572 0.0
O742 O 0.31447 0.18462 0.64501 0.0
O743 O 0.30313 0.16688 0.66891 0.0
O744 O 0.82232 0.1412 0.71546 0.0
Mg745 Mg 0.80716 0.12285 0.69419 0.0
O746 O 0.83526 0.16907 0.70084 0.0
Mg747 Mg 0.82957 0.16315 0.67121 0.0
O748 O 0.82195 0.13078 0.67136 0.0
O749 O 0.81998 0.1063 0.68653 0.0
O750 O 0.82406 0.15825 0.64123 0.0
O751 O 0.86297 0.16967 0.66864 0.0
Mg752 Mg 0.85505 0.19524 0.65927 0.0
O753 O 0.83308 0.19583 0.67225 0.0
O754 O 0.8521 0.184 0.63411 0.0
O755 O 0.88006 0.20159 0.67347 0.0
O756 O 0.85498 0.22061 0.6558 0.0
C757 C 0.78058 0.13762 0.6795 0.0
C758 C 0.83231 0.15992 0.71503 0.0
C759 C 0.82719 0.11763 0.67341 0.0
C760 C 0.83634 0.16854 0.6297 0.0
C761 C 0.87958 0.18526 0.67166 0.0
C762 C 0.84055 0.21378 0.66639 0.0
O763 O 0.78127 0.12328 0.68664 0.0
O764 O 0.79614 0.15295 0.67419 0.0
H765 H 0.30136 0.8257 0.04379 0.0
H766 H 0.3314 0.8507 0.03001 0.0
H767 H 0.3014 0.88154 0.01338 0.0
H768 H 0.2713 0.85673 0.02746 0.0
H769 H 0.34132 0.8684 0.99492 0.0
H770 H 0.34604 0.91909 0.04877 0.0
H771 H 0.32978 0.89258 0.0493 0.0
H772 H 0.32358 0.90759 0.03614 0.0
C773 C 0.30114 0.83774 0.03708 0.0
C774 C 0.2842 0.83959 0.03699 0.0
C775 C 0.31819 0.85181 0.02904 0.0
C776 C 0.31854 0.86793 0.02084 0.0
C777 C 0.30131 0.86914 0.01972 0.0
H778 H 0.4212 0.9822 0.00502 0.0
H779 H 0.38762 0.95421 0.00231 0.0
C780 C 0.28419 0.85503 0.02775 0.0
C781 C 0.33757 0.88478 0.01581 0.0
H782 H 0.37174 0.93151 0.0291 0.0
C783 C 0.34796 0.88235 0.00218 0.0
C784 C 0.34615 0.90274 0.02554 0.0
C785 C 0.33595 0.90573 0.04085 0.0
C786 C 0.36687 0.89762 0.99797 0.0
C787 C 0.37554 0.9155 0.00789 0.0
C788 C 0.36495 0.91789 0.02136 0.0
C789 C 0.39596 0.93173 0.00548 0.0
C790 C 0.37733 0.89446 0.98302 0.0
C791 C 0.41182 0.92832 0.00761 0.0
C792 C 0.43106 0.94431 0.00888 0.0
C793 C 0.43455 0.96386 0.00853 0.0
C794 C 0.41879 0.96722 0.00562 0.0
C795 C 0.39966 0.95127 0.00394 0.0
H796 H 0.36671 0.88328 0.97355 0.0
H797 H 0.38671 0.90853 0.97619 0.0
H798 H 0.38688 0.88881 0.98799 0.0
H799 H 0.40929 0.91342 0.00929 0.0
H800 H 0.44304 0.94142 0.01112 0.0
H801 H 0.16207 0.42982 0.01216 0.0
H802 H 0.14664 0.44935 0.00415 0.0
H803 H 0.11626 0.43544 0.05274 0.0
H804 H 0.13143 0.41579 0.06077 0.0
H805 H 0.10678 0.43526 0.00052 0.0
H806 H 0.13874 0.49539 0.0502 0.0
H807 H 0.1492 0.4798 0.04536 0.0
H808 H 0.12851 0.47128 0.05954 0.0
C809 C 0.15209 0.43093 0.02114 0.0
C810 C 0.14796 0.42124 0.0371 0.0
C811 C 0.14343 0.44222 0.01659 0.0
C812 C 0.13062 0.44417 0.02798 0.0
C813 C 0.12655 0.43461 0.04396 0.0
H814 H 0.0374 0.46223 0.03864 0.0
H815 H 0.06728 0.46016 0.03981 0.0
C816 C 0.13518 0.42332 0.04851 0.0
C817 C 0.12008 0.45468 0.02267 0.0
H818 H 0.1078 0.4887 0.03709 0.0
C819 C 0.10734 0.44731 0.00822 0.0
C820 C 0.12101 0.47052 0.03266 0.0
C821 C 0.13527 0.47985 0.0477 0.0
C822 C 0.09421 0.45413 0.00439 0.0
C823 C 0.09408 0.46891 0.01518 0.0
C824 C 0.1079 0.47735 0.02884 0.0
C825 C 0.07743 0.47284 0.01463 0.0
C826 C 0.07955 0.44437 0.98967 0.0
C827 C 0.07341 0.48118 0.00021 0.0
C828 C 0.05614 0.48243 -0.00051 0.0
C829 C 0.04266 0.47512 0.01312 0.0
C830 C 0.04726 0.4676 0.02776 0.0
C831 C 0.06446 0.46657 0.02854 0.0
H832 H 0.08023 0.43162 0.98377 0.0
H833 H 0.06435 0.439 0.99428 0.0
H834 H 0.08258 0.4554 0.97947 0.0
H835 H 0.08338 0.48631 0.98941 0.0
H836 H 0.05304 0.48846 0.98812 0.0
H837 H 0.57687 0.71524 0.07008 0.0
H838 H 0.55731 0.67909 0.06682 0.0
H839 H 0.5466 0.68502 0.01298 0.0
H840 H 0.56635 0.72127 0.01611 0.0
H841 H 0.51782 0.65354 0.05598 0.0
H842 H 0.57159 0.6498 0.01173 0.0
H843 H 0.57731 0.67198 0.02403 0.0
H844 H 0.56243 0.66561 0.00462 0.0
C845 C 0.57022 0.70883 0.05758 0.0
C846 C 0.57318 0.72102 0.04332 0.0
C847 C 0.55904 0.68821 0.05576 0.0
C848 C 0.55064 0.67943 0.03966 0.0
C849 C 0.55321 0.69155 0.02546 0.0
H850 H 0.48826 0.56506 0.99671 0.0
H851 H 0.49059 0.59384 0.012 0.0
C852 C 0.56453 0.7122 0.02724 0.0
C853 C 0.54005 0.65757 0.0376 0.0
H854 H 0.54209 0.61988 0.01654 0.0
C855 C 0.52309 0.64612 0.04738 0.0
C856 C 0.54714 0.64802 0.0265 0.0
C857 C 0.56571 0.65943 0.01623 0.0
C858 C 0.51285 0.62526 0.04607 0.0
C859 C 0.5199 0.61588 0.03487 0.0
C860 C 0.53685 0.6273 0.02519 0.0
C861 C 0.51 0.59421 0.03219 0.0
C862 C 0.49466 0.61328 0.05656 0.0
C863 C 0.51863 0.58387 0.03948 0.0
C864 C 0.51713 0.56727 0.03082 0.0
C865 C 0.50717 0.56119 0.01481 0.0
C866 C 0.49585 0.56946 0.00916 0.0
C867 C 0.4972 0.58593 0.01788 0.0
H868 H 0.49122 0.62282 0.06498 0.0
H869 H 0.48192 0.60429 0.04772 0.0
H870 H 0.49669 0.60279 0.06475 0.0
H871 H 0.5287 0.5902 0.05044 0.0
H872 H 0.52614 0.56119 0.03526 0.0
H873 H 0.86493 0.27819 0.93558 0.0
H874 H 0.87974 0.31414 0.93952 0.0
H875 H 0.8645 0.30636 0.99349 0.0
H876 H 0.84934 0.27029 0.98964 0.0
H877 H 0.86122 0.33673 0.95346 0.0
H878 H 0.92543 0.3451 0.99185 0.0
H879 H 0.91015 0.32328 0.97863 0.0
H880 H 0.90152 0.32674 -0.00087 0.0
C881 C 0.86458 0.28411 0.94827 0.0
C882 C 0.85596 0.27143 0.96231 0.0
C883 C 0.87303 0.30461 0.95047 0.0
C884 C 0.87314 0.31278 0.96676 0.0
C885 C 0.86461 0.30024 0.98083 0.0
H886 H 0.9185 0.42589 0.0119 0.0
H887 H 0.89347 0.39503 0.99805 0.0
C888 C 0.8561 0.2797 0.97864 0.0
C889 C 0.88288 0.33451 0.96911 0.0
H890 H 0.92281 0.37375 0.98836 0.0
C891 C 0.87471 0.3449 0.96104 0.0
C892 C 0.90048 0.34498 0.97895 0.0
C893 C 0.91006 0.33454 0.98756 0.0
C894 C 0.88367 0.36565 0.96283 0.0
C895 C 0.90122 0.376 0.97268 0.0
C896 C 0.90939 0.36561 0.98064 0.0
C897 C 0.91126 0.39757 0.97593 0.0
C898 C 0.87446 0.37647 0.95441 0.0
C899 C 0.92886 0.40986 0.96733 0.0
C900 C 0.94317 0.42763 0.9752 0.0
C901 C 0.93989 0.43291 0.99173 0.0
C902 C 0.9212 0.42206 -0.00094 0.0
C903 C 0.90689 0.40446 0.99115 0.0
H904 H 0.86115 0.36634 0.94656 0.0
H905 H 0.8703 0.3839 0.96455 0.0
H906 H 0.88534 0.38823 0.94597 0.0
H907 H 0.93249 0.40459 0.95565 0.0
H908 H 0.9576 0.43567 0.96949 0.0
H909 H 0.71251 0.57257 0.94119 0.0
H910 H 0.67774 0.55297 0.94881 0.0
H911 H 0.69411 0.55738 0.00273 0.0
H912 H 0.72893 0.57659 0.99528 0.0
H913 H 0.65783 0.51473 0.97966 0.0
H914 H 0.65731 0.58611 0.98592 0.0
H915 H 0.67189 0.58278 0.96968 0.0
H916 H 0.679 0.58502 0.99204 0.0
C917 C 0.70875 0.56902 0.95463 0.0
C918 C 0.72348 0.57626 0.96765 0.0
C919 C 0.68891 0.55781 0.95893 0.0
C920 C 0.68353 0.55366 0.97628 0.0
C921 C 0.69811 0.56033 0.98926 0.0
H922 H 0.57515 0.53054 0.02169 0.0
H923 H 0.60761 0.53328 0.0197 0.0
C924 C 0.71794 0.57152 0.98499 0.0
C925 C 0.6627 0.54454 0.98107 0.0
H926 H 0.62807 0.55687 0.99169 0.0
C927 C 0.65123 0.52384 0.98237 0.0
C928 C 0.65434 0.55659 0.98454 0.0
C929 C 0.66615 0.57888 0.983 0.0
C930 C 0.63134 0.51483 0.98711 0.0
C931 C 0.623 0.52695 0.99059 0.0
C932 C 0.63462 0.54764 0.9893 0.0
C933 C 0.60196 0.51891 0.99444 0.0
C934 C 0.61944 0.49255 0.98844 0.0
C935 C 0.58775 0.50897 0.98132 0.0
C936 C 0.56924 0.50734 0.98252 0.0
C937 C 0.56482 0.51565 0.99682 0.0
C938 C 0.57829 0.52388 0.01066 0.0
C939 C 0.59676 0.52542 0.00951 0.0
H940 H 0.62901 0.48582 0.98937 0.0
H941 H 0.60976 0.48826 -0.00012 0.0
H942 H 0.60991 0.48628 0.97671 0.0
H943 H 0.59157 0.5042 0.96945 0.0
H944 H 0.55903 0.50116 0.97163 0.0
H945 H 0.39752 0.11265 0.96007 0.0
H946 H 0.40794 0.0883 0.966 0.0
H947 H 0.46244 0.13511 0.98825 0.0
H948 H 0.45158 0.15901 0.98312 0.0
H949 H 0.43774 0.0902 0.94964 0.0
H950 H 0.45349 0.09145 0.01932 0.0
H951 H 0.4389 0.10166 0.01104 0.0
H952 H 0.46542 0.11642 0.01184 0.0
C953 C 0.41125 0.11739 0.96703 0.0
C954 C 0.42373 0.1375 0.97133 0.0
C955 C 0.41727 0.10358 0.97028 0.0
C956 C 0.43595 0.10985 0.9776 0.0
C957 C 0.44775 0.12976 0.98303 0.0
H958 H 0.52251 0.08032 0.99257 0.0
H959 H 0.50671 0.09673 0.97858 0.0
C960 C 0.44158 0.14346 0.98009 0.0
C961 C 0.44461 0.09675 0.9769 0.0
H962 H 0.4734 0.08385 0.00011 0.0
C963 C 0.44529 0.08852 0.96074 0.0
C964 C 0.45424 0.09435 0.99139 0.0
C965 C 0.45276 0.10127 0.00938 0.0
C966 C 0.45649 0.07914 0.95847 0.0
C967 C 0.46736 0.07822 0.97268 0.0
C968 C 0.46566 0.08533 0.98903 0.0
C969 C 0.48019 0.06938 0.97153 0.0
C970 C 0.45709 0.07083 0.94089 0.0
C971 C 0.47163 0.0487 0.96993 0.0
C972 C 0.48111 0.03936 0.97733 0.0
C973 C 0.49855 0.05068 0.98706 0.0
C974 C 0.50896 0.07133 0.98527 0.0
C975 C 0.49976 0.08071 0.97749 0.0
H976 H 0.45132 0.07643 0.93054 0.0
H977 H 0.47235 0.07458 0.93773 0.0
H978 H 0.44786 0.0544 0.94099 0.0
H979 H 0.45656 0.03964 0.96536 0.0
H980 H 0.47289 0.02333 0.97843 0.0
H981 H 0.72046 0.11872 0.95402 0.0
H982 H 0.68572 0.10197 0.96168 0.0
H983 H 0.6973 0.14944 0.99785 0.0
H984 H 0.73231 0.16632 0.99037 0.0
H985 H 0.67353 0.09181 -0.0014 0.0
H986 H 0.64708 0.13851 0.96696 0.0
H987 H 0.66827 0.13764 0.95904 0.0
H988 H 0.66996 0.15019 0.97914 0.0
C989 C 0.71565 0.12559 0.96364 0.0
C990 C 0.72912 0.14369 0.97176 0.0
C991 C 0.69581 0.1161 0.96788 0.0
C992 C 0.68906 0.12455 0.98026 0.0
C993 C 0.70229 0.14285 0.98813 0.0
H994 H 0.56635 0.05252 0.01576 0.0
H995 H 0.60033 0.08052 0.01545 0.0
C996 C 0.72222 0.15241 0.98386 0.0
C997 C 0.66839 0.1132 0.98567 0.0
H998 H 0.62309 0.10823 0.97876 0.0
C999 C 0.66253 0.0956 0.99463 0.0
C1000 C 0.65421 0.11832 0.98046 0.0
C1001 C 0.66003 0.13716 0.97083 0.0
C1002 C 0.64264 0.08237 0.9977 0.0
C1003 C 0.62836 0.08687 0.99157 0.0
C1004 C 0.63422 0.10499 0.98347 0.0
C1005 C 0.60741 0.07151 0.99122 0.0
C1006 C 0.63685 0.06307 0.00655 0.0
C1007 C 0.60037 0.05744 0.97765 0.0
C1008 C 0.58122 0.04143 0.97785 0.0
C1009 C 0.56872 0.03926 0.99163 0.0
C1010 C 0.57567 0.05376 0.00501 0.0
C1011 C 0.59497 0.06978 0.00483 0.0
H1012 H 0.64972 0.06294 0.0125 0.0
H1013 H 0.62592 0.06036 0.01675 0.0
H1014 H 0.62982 0.05064 0.99694 0.0
H1015 H 0.60989 0.0586 0.96708 0.0
H1016 H 0.5763 0.03069 0.96725 0.0
H1017 H 0.87126 0.59253 0.95238 0.0
H1018 H 0.88841 0.57438 0.95893 0.0
H1019 H 0.85146 0.54844 0.00311 0.0
H1020 H 0.83413 0.56666 0.99662 0.0
H1021 H 0.90877 0.57864 0.99069 0.0
H1022 H 0.85018 0.50032 0.97725 0.0
H1023 H 0.84884 0.52118 0.96877 0.0
H1024 H 0.84429 0.51528 0.99123 0.0
C1025 C 0.86681 0.58302 0.96353 0.0
C1026 C 0.85149 0.58117 0.97409 0.0
C1027 C 0.87651 0.57255 0.96718 0.0
C1028 C 0.8711 0.55997 0.98142 0.0
C1029 C 0.85563 0.55782 0.99189 0.0
H1030 H 0.9454 0.50988 0.01452 0.0
H1031 H 0.91806 0.51696 0.01538 0.0
C1032 C 0.84582 0.56828 0.98821 0.0
C1033 C 0.88274 0.55034 0.98573 0.0
H1034 H 0.88174 0.50585 0.98499 0.0
C1035 C 0.90278 0.5627 0.98973 0.0
C1036 C 0.87482 0.52953 0.98451 0.0
C1037 C 0.85338 0.51571 0.98012 0.0
C1038 C 0.91533 0.55491 0.99182 0.0
C1039 C 0.90767 0.53424 0.98981 0.0
C1040 C 0.88746 0.52169 0.9866 0.0
C1041 C 0.92116 0.5262 0.98875 0.0
C1042 C 0.93697 0.56891 0.99537 0.0
C1043 C 0.93146 0.52863 0.97341 0.0
C1044 C 0.94712 0.52498 0.97298 0.0
C1045 C 0.95262 0.51859 0.98784 0.0
C1046 C 0.94141 0.51479 0.0029 0.0
C1047 C 0.92581 0.51875 0.00339 0.0
H1048 H 0.94005 0.58402 -0.00078 0.0
H1049 H 0.94243 0.56308 0.00576 0.0
H1050 H 0.94536 0.57011 0.98349 0.0
H1051 H 0.92804 0.53439 0.96201 0.0
H1052 H 0.95535 0.52777 0.96114 0.0
H1053 H 0.44994 0.28781 0.94513 0.0
H1054 H 0.45897 0.32274 0.94681 0.0
H1055 H 0.41897 0.31013 0.98912 0.0
H1056 H 0.4099 0.27479 0.98743 0.0
H1057 H 0.43633 0.3415 0.94414 0.0
H1058 H 0.47334 0.35301 0.00847 0.0
H1059 H 0.46572 0.33089 0.9954 0.0
H1060 H 0.44783 0.33403 0.0073 0.0
C1061 C 0.44308 0.29256 0.95476 0.0
C1062 C 0.4295 0.27894 0.96632 0.0
C1063 C 0.44811 0.31239 0.95562 0.0
C1064 C 0.43973 0.31896 0.96813 0.0
C1065 C 0.42569 0.30526 0.97947 0.0
H1066 H 0.45242 0.433 0.98255 0.0
H1067 H 0.44332 0.40161 0.96784 0.0
C1068 C 0.42053 0.28523 0.97853 0.0
C1069 C 0.44685 0.3404 0.96972 0.0
H1070 H 0.47391 0.38064 0.99603 0.0
C1071 C 0.44454 0.35015 0.95547 0.0
C1072 C 0.45784 0.35154 0.98438 0.0
C1073 C 0.46152 0.34193 -0.00027 0.0
C1074 C 0.45299 0.37088 0.95552 0.0
C1075 C 0.46378 0.38199 0.9703 0.0
C1076 C 0.46594 0.37214 0.98455 0.0
C1077 C 0.47156 0.40359 0.97231 0.0
C1078 C 0.45051 0.38062 0.9397 0.0
C1079 C 0.4909 0.41582 0.97861 0.0
C1080 C 0.49595 0.4336 0.98732 0.0
C1081 C 0.4818 0.43939 0.98942 0.0
C1082 C 0.46355 0.42878 0.98083 0.0
C1083 C 0.45837 0.41083 0.97238 0.0
H1084 H 0.44843 0.37153 0.92782 0.0
H1085 H 0.43718 0.38202 0.94115 0.0
H1086 H 0.46338 0.39568 0.93797 0.0
H1087 H 0.50131 0.4105 0.9786 0.0
H1088 H 0.51003 0.44155 0.99407 0.0
H1089 H 0.16207 0.70845 0.01248 0.0
H1090 H 0.13702 0.67333 0.00937 0.0
H1091 H 0.10431 0.67995 0.05099 0.0
H1092 H 0.12939 0.7147 0.05463 0.0
H1093 H 0.13166 0.65066 0.04238 0.0
H1094 H 0.06221 0.64158 0.01355 0.0
H1095 H 0.08609 0.66239 0.00864 0.0
H1096 H 0.07528 0.66139 0.02924 0.0
C1097 C 0.14926 0.70256 0.02064 0.0
C1098 C 0.148 0.71423 0.03411 0.0
C1099 C 0.13498 0.68255 0.01881 0.0
C1100 C 0.11909 0.67415 0.03015 0.0
C1101 C 0.11651 0.68628 0.04213 0.0
H1102 H 0.02735 0.55301 0.03088 0.0
H1103 H 0.04998 0.58355 0.04681 0.0
C1104 C 0.13085 0.70622 0.04409 0.0
C1105 C 0.10722 0.65244 0.03149 0.0
H1106 H 0.06158 0.61294 0.02369 0.0
C1107 C 0.11629 0.64233 0.03838 0.0
C1108 C 0.08717 0.64188 0.02662 0.0
C1109 C 0.07701 0.65224 0.01901 0.0
C1110 C 0.10586 0.62166 0.04008 0.0
C1111 C 0.08598 0.61091 0.03453 0.0
C1112 C 0.07675 0.62121 0.02825 0.0
C1113 C 0.07543 0.58913 0.03185 0.0
C1114 C 0.11633 0.61154 0.04753 0.0
C1115 C 0.08273 0.58116 0.0195 0.0
C1116 C 0.06984 0.56372 0.0105 0.0
C1117 C 0.04964 0.55421 0.01381 0.0
C1118 C 0.04295 0.56012 0.02824 0.0
C1119 C 0.05585 0.57766 0.03724 0.0
H1120 H 0.12782 0.62139 0.05713 0.0
H1121 H 0.10592 0.59743 0.05385 0.0
H1122 H 0.1238 0.60818 0.03696 0.0
H1123 H 0.09769 0.58975 0.01499 0.0
H1124 H 0.0752 0.55938 -0.00067 0.0
H1125 H 0.28083 0.43865 0.0569 0.0
H1126 H 0.31606 0.4563 0.05061 0.0
H1127 H 0.30449 0.42208 0.00324 0.0
H1128 H 0.26912 0.40441 0.00933 0.0
H1129 H 0.335 0.42615 0.03741 0.0
H1130 H 0.34552 0.49169 0.00029 0.0
H1131 H 0.32776 0.48193 0.01744 0.0
H1132 H 0.32335 0.46782 0.99775 0.0
C1133 C 0.28574 0.43515 0.04497 0.0
C1134 C 0.27225 0.42015 0.03359 0.0
C1135 C 0.30583 0.44522 0.04142 0.0
C1136 C 0.31271 0.44056 0.02641 0.0
C1137 C 0.29932 0.42592 0.01482 0.0
H1138 H 0.43197 0.48384 0.99003 0.0
H1139 H 0.39701 0.47428 0.99145 0.0
C1140 C 0.27921 0.41578 0.01838 0.0
C1141 C 0.33405 0.44958 0.02376 0.0
H1142 H 0.37398 0.48962 0.00672 0.0
C1143 C 0.34356 0.44 0.03068 0.0
C1144 C 0.34496 0.4675 0.01484 0.0
C1145 C 0.33501 0.47797 0.00708 0.0
C1146 C 0.3639 0.448 0.02905 0.0
C1147 C 0.37504 0.46633 0.02061 0.0
C1148 C 0.36542 0.47571 0.01334 0.0
C1149 C 0.39669 0.47578 0.01943 0.0
C1150 C 0.37323 0.43661 0.03625 0.0
C1151 C 0.40821 0.48079 0.03462 0.0
C1152 C 0.42794 0.48592 0.03385 0.0
C1153 C 0.43659 0.48664 0.01783 0.0
C1154 C 0.4256 0.48351 0.00251 0.0
C1155 C 0.40567 0.47799 0.00331 0.0
H1156 H 0.3622 0.42068 0.03798 0.0
H1157 H 0.38495 0.4376 0.02764 0.0
H1158 H 0.37996 0.443 0.04912 0.0
H1159 H 0.40165 0.47962 0.04716 0.0
H1160 H 0.43621 0.48843 0.04582 0.0
H1161 H 0.60116 0.87907 0.02519 0.0
H1162 H 0.58224 0.89628 0.02422 0.0
H1163 H 0.5335 0.84658 0.04852 0.0
H1164 H 0.55257 0.8296 0.05018 0.0
H1165 H 0.54699 0.88419 0.00778 0.0
H1166 H 0.54065 0.89362 0.07841 0.0
H1167 H 0.55781 0.88688 0.06955 0.0
H1168 H 0.53223 0.86852 0.07125 0.0
C1169 C 0.5865 0.8719 0.0305 0.0
C1170 C 0.57841 0.85301 0.03781 0.0
C1171 C 0.57569 0.88171 0.02989 0.0
C1172 C 0.55663 0.87285 0.03662 0.0
C1173 C 0.54835 0.85385 0.04363 0.0
H1174 H 0.48214 0.91782 0.00268 0.0
H1175 H 0.48955 0.89405 0.01635 0.0
C1176 C 0.55917 0.84405 0.0443 0.0
C1177 C 0.54518 0.88322 0.03555 0.0
H1178 H 0.52299 0.90346 0.05973 0.0
C1179 C 0.54166 0.88832 0.01913 0.0
C1180 C 0.53842 0.88872 0.05043 0.0
C1181 C 0.54259 0.88433 0.06844 0.0
C1182 C 0.53176 0.89896 0.01712 0.0
C1183 C 0.52464 0.90417 0.03195 0.0
C1184 C 0.52809 0.89905 0.04842 0.0
C1185 C 0.51527 0.91652 0.03028 0.0
C1186 C 0.52966 0.90519 -0.00086 0.0
C1187 C 0.52597 0.93667 0.03523 0.0
C1188 C 0.52137 0.95019 0.02782 0.0
C1189 C 0.50623 0.94358 0.01531 0.0
C1190 C 0.4938 0.92315 0.0124 0.0
C1191 C 0.49812 0.9096 0.02009 0.0
H1192 H 0.53946 0.90355 0.98976 0.0
H1193 H 0.51425 0.89574 0.99444 0.0
H1194 H 0.53312 0.92089 -0.00078 0.0
H1195 H 0.5392 0.94225 0.04315 0.0
H1196 H 0.53125 0.96594 0.03008 0.0
H1197 H 0.93933 0.1698 0.34705 0.0
H1198 H 0.96976 0.19214 0.33206 0.0
H1199 H 0.99358 0.22676 0.37918 0.0
H1200 H 0.96315 0.20479 0.39413 0.0
H1201 H 0.00439 0.24901 0.34655 0.0
H1202 H 0.01663 0.18416 0.34835 0.0
H1203 H 0.99449 0.18096 0.33816 0.0
H1204 H -0.00209 0.18507 0.36114 0.0
C1205 C 0.95079 0.18262 0.35401 0.0
C1206 C 0.94912 0.18546 0.3718 0.0
C1207 C 0.96814 0.19525 0.34546 0.0
C1208 C 0.98389 0.21079 0.35465 0.0
C1209 C 0.98152 0.21476 0.37194 0.0
H1210 H 0.1021 0.27675 0.3735 0.0
H1211 H 0.06671 0.25345 0.37081 0.0
C1212 C 0.96424 0.20216 0.38048 0.0
C1213 C 0.00378 0.22105 0.34744 0.0
H1214 H 0.04388 0.21526 0.34273 0.0
C1215 C 0.01294 0.2416 0.34516 0.0
C1216 C 0.0148 0.21121 0.34587 0.0
C1217 C 0.00559 0.18915 0.34856 0.0
C1218 C 0.03321 0.2528 0.34233 0.0
C1219 C 0.04437 0.24312 0.34187 0.0
C1220 C 0.03507 0.22246 0.34304 0.0
C1221 C 0.06593 0.25462 0.34288 0.0
C1222 C 0.04288 0.27508 0.34105 0.0
C1223 C 0.07704 0.26226 0.32796 0.0
C1224 C 0.09725 0.27543 0.32943 0.0
C1225 C 0.10643 0.28124 0.34587 0.0
C1226 C 0.09536 0.27266 0.3607 0.0
C1227 C 0.07522 0.25936 0.3592 0.0
H1228 H 0.03199 0.28025 0.34092 0.0
H1229 H 0.05315 0.28226 0.35222 0.0
H1230 H 0.05167 0.28004 0.32908 0.0
H1231 H 0.06995 0.25866 0.31529 0.0
H1232 H 0.10546 0.28184 0.31777 0.0
H1233 H 0.82436 0.75824 0.34344 0.0
H1234 H 0.80834 0.77709 0.33505 0.0
H1235 H 0.78625 0.77225 0.38676 0.0
H1236 H 0.80178 0.75308 0.39517 0.0
H1237 H 0.76748 0.76284 0.33699 0.0
H1238 H 0.81009 0.83186 0.37626 0.0
H1239 H 0.81916 0.81506 0.37144 0.0
H1240 H 0.80183 0.80968 0.38852 0.0
C1241 C 0.81605 0.76115 0.35302 0.0
C1242 C 0.81435 0.75414 0.36998 0.0
C1243 C 0.8071 0.77208 0.34824 0.0
C1244 C 0.79648 0.77639 0.36038 0.0
C1245 C 0.79485 0.76954 0.37733 0.0
H1246 H 0.70766 0.80188 0.3746 0.0
H1247 H 0.73719 0.79898 0.3752 0.0
C1248 C 0.8037 0.75854 0.3821 0.0
C1249 C 0.78554 0.78642 0.35508 0.0
H1250 H 0.77786 0.82457 0.36636 0.0
C1251 C 0.77002 0.77661 0.34304 0.0
C1252 C 0.78898 0.80438 0.36301 0.0
C1253 C 0.80605 0.81598 0.37541 0.0
C1254 C 0.75687 0.78349 0.33971 0.0
C1255 C 0.75961 0.80084 0.34842 0.0
C1256 C 0.77587 0.81133 0.35965 0.0
C1257 C 0.74398 0.80618 0.34826 0.0
C1258 C 0.7393 0.77133 0.32792 0.0
C1259 C 0.73844 0.81192 0.33302 0.0
C1260 C 0.72147 0.81364 0.33263 0.0
C1261 C 0.70982 0.80938 0.34744 0.0
C1262 C 0.71613 0.80481 0.36289 0.0
C1263 C 0.7331 0.80334 0.3633 0.0
H1264 H 0.73804 0.75695 0.32393 0.0
H1265 H 0.7255 0.76826 0.33443 0.0
H1266 H 0.74065 0.77982 0.31608 0.0
H1267 H 0.74681 0.81437 0.32131 0.0
H1268 H 0.717 0.81737 0.32061 0.0
H1269 H 0.26488 0.05783 0.35839 0.0
H1270 H 0.24695 0.02156 0.35627 0.0
H1271 H 0.1974 0.01981 0.38182 0.0
H1272 H 0.21503 0.05616 0.38358 0.0
H1273 H 0.23323 -0.00197 0.38782 0.0
H1274 H 0.17313 0.98018 0.33952 0.0
H1275 H 0.19549 0.00403 0.34018 0.0
H1276 H 0.17746 -0.00208 0.35665 0.0
C1277 C 0.24998 0.04977 0.36313 0.0
C1278 C 0.24142 0.05981 0.37128 0.0
C1279 C 0.23982 0.02908 0.36204 0.0
C1280 C 0.22093 0.01812 0.36896 0.0
C1281 C 0.21193 0.02806 0.37634 0.0
H1282 H 0.15953 0.8874 0.35729 0.0
H1283 H 0.16541 0.91882 0.37094 0.0
C1284 C 0.22208 0.04878 0.37744 0.0
C1285 C 0.2115 0.99631 0.36957 0.0
H1286 H 0.1764 0.95364 0.34973 0.0
C1287 C 0.22057 0.98825 0.37974 0.0
C1288 C 0.19478 0.98366 0.35929 0.0
C1289 C 0.18459 0.99176 0.3482 0.0
C1290 C 0.21417 0.96792 0.37896 0.0
C1291 C 0.19849 0.9555 0.36758 0.0
C1292 C 0.18838 0.96328 0.35849 0.0
C1293 C 0.19536 0.93591 0.36202 0.0
C1294 C 0.22492 0.96007 0.38959 0.0
C1295 C 0.21029 0.93526 0.35272 0.0
C1296 C 0.2069 0.91768 0.34479 0.0
C1297 C 0.18851 0.90034 0.34606 0.0
C1298 C 0.17381 0.90063 0.35614 0.0
C1299 C 0.17714 0.91847 0.36391 0.0
H1300 H 0.23149 0.96924 0.40154 0.0
H1301 H 0.21495 0.94441 0.39324 0.0
H1302 H 0.23709 0.96068 0.38187 0.0
H1303 H 0.22433 0.94862 0.35088 0.0
H1304 H 0.21856 0.91779 0.33724 0.0
H1305 H 0.51066 0.59747 0.32434 0.0
H1306 H 0.52592 0.63348 0.32905 0.0
H1307 H 0.54272 0.64289 0.2755 0.0
H1308 H 0.52828 0.60721 0.27078 0.0
H1309 H 0.56729 0.66152 0.32142 0.0
H1310 H 0.51471 0.67649 0.28533 0.0
H1311 H 0.50798 0.65248 0.29405 0.0
H1312 H 0.52154 0.66032 0.27433 0.0
C1313 C 0.51772 0.60722 0.31361 0.0
C1314 C 0.51815 0.59948 0.29715 0.0
C1315 C 0.52619 0.62771 0.31628 0.0
C1316 C 0.53492 0.64064 0.30248 0.0
C1317 C 0.53551 0.63301 0.28614 0.0
H1318 H 0.62943 0.75895 0.30439 0.0
H1319 H 0.60371 0.72698 0.29241 0.0
C1320 C 0.52728 0.61264 0.2835 0.0
C1321 C 0.54518 0.66228 0.30533 0.0
H1322 H 0.54627 0.70459 0.29218 0.0
C1323 C 0.56262 0.67095 0.31519 0.0
C1324 C 0.53887 0.67439 0.29723 0.0
C1325 C 0.51965 0.6655 0.28725 0.0
C1326 C 0.5744 0.69158 0.31666 0.0
C1327 C 0.56867 0.70374 0.30778 0.0
C1328 C 0.5508 0.69512 0.29852 0.0
C1329 C 0.58095 0.72547 0.30907 0.0
C1330 C 0.59301 0.70022 0.32761 0.0
C1331 C 0.57604 0.73575 0.32122 0.0
C1332 C 0.59066 0.75395 0.32799 0.0
C1333 C 0.61011 0.76194 0.3225 0.0
C1334 C 0.61439 0.75306 0.30858 0.0
C1335 C 0.59976 0.73483 0.3018 0.0
H1336 H 0.59328 0.68897 0.33616 0.0
H1337 H 0.60593 0.70592 0.31902 0.0
H1338 H 0.59462 0.71282 0.33579 0.0
H1339 H 0.56158 0.72867 0.32696 0.0
H1340 H 0.58725 0.76058 0.33888 0.0
H1341 H 0.38719 0.88157 0.30079 0.0
H1342 H 0.35175 0.86323 0.3065 0.0
H1343 H 0.35265 0.9185 0.31573 0.0
H1344 H 0.38803 0.93695 0.31001 0.0
H1345 H 0.33058 0.87021 0.33966 0.0
H1346 H 0.31106 0.88258 0.27335 0.0
H1347 H 0.33348 0.88222 0.27813 0.0
H1348 H 0.33139 0.9034 0.28435 0.0
C1349 C 0.37981 0.88978 0.3041 0.0
C1350 C 0.39029 0.91066 0.30492 0.0
C1351 C 0.35967 0.8793 0.30744 0.0
C1352 C 0.34975 0.8896 0.31149 0.0
C1353 C 0.36019 0.91039 0.31265 0.0
H1354 H 0.23839 0.86613 0.34848 0.0
H1355 H 0.27249 0.87364 0.34564 0.0
C1356 C 0.38035 0.92087 0.30945 0.0
C1357 C 0.32828 0.87878 0.31376 0.0
H1358 H 0.28565 0.86968 0.29383 0.0
C1359 C 0.32064 0.86983 0.32963 0.0
C1360 C 0.3155 0.87811 0.3005 0.0
C1361 C 0.32315 0.88695 0.28304 0.0
C1362 C 0.30039 0.86085 0.33285 0.0
C1363 C 0.28769 0.86122 0.31992 0.0
C1364 C 0.29536 0.86944 0.30377 0.0
C1365 C 0.26669 0.85452 0.32308 0.0
C1366 C 0.29288 0.85115 0.35005 0.0
C1367 C 0.25212 0.84151 0.31121 0.0
C1368 C 0.23282 0.83779 0.31249 0.0
C1369 C 0.22775 0.84667 0.32588 0.0
C1370 C 0.24201 0.85888 0.33824 0.0
C1371 C 0.26143 0.86303 0.3367 0.0
H1372 H 0.30266 0.8461 0.35573 0.0
H1373 H 0.29265 0.86212 0.35924 0.0
H1374 H 0.27774 0.83822 0.34878 0.0
H1375 H 0.25585 0.83483 0.30058 0.0
H1376 H 0.22194 0.82832 0.30284 0.0
H1377 H 0.12916 0.49881 0.28571 0.0
H1378 H 0.14015 0.47619 0.29561 0.0
H1379 H 0.08508 0.44146 0.32171 0.0
H1380 H 0.07388 0.46418 0.31164 0.0
H1381 H 0.14358 0.46573 0.33006 0.0
H1382 H 0.09087 0.40154 0.2887 0.0
H1383 H 0.09599 0.42659 0.28516 0.0
H1384 H 0.08025 0.41247 0.30245 0.0
C1385 C 0.11938 0.4863 0.29351 0.0
C1386 C 0.10058 0.48294 0.29772 0.0
C1387 C 0.12569 0.4735 0.2992 0.0
C1388 C 0.11328 0.45708 0.3091 0.0
C1389 C 0.09469 0.45396 0.31382 0.0
H1390 H 0.14051 0.38187 0.3672 0.0
H1391 H 0.13199 0.40575 0.35626 0.0
C1392 C 0.08838 0.46691 0.30819 0.0
C1393 C 0.12 0.44329 0.31428 0.0
H1394 H 0.1114 0.39612 0.30785 0.0
C1395 C 0.13659 0.45051 0.32522 0.0
C1396 C 0.111 0.42364 0.30759 0.0
C1397 C 0.09363 0.41555 0.2952 0.0
C1398 C 0.14423 0.43838 0.32998 0.0
C1399 C 0.13487 0.41853 0.32374 0.0
C1400 C 0.11852 0.41141 0.31251 0.0
C1401 C 0.14077 0.40448 0.33003 0.0
C1402 C 0.16224 0.44684 0.34164 0.0
C1403 C 0.14831 0.3957 0.31873 0.0
C1404 C 0.15321 0.38187 0.32494 0.0
C1405 C 0.15041 0.37661 0.34246 0.0
C1406 C 0.14294 0.38561 0.35364 0.0
C1407 C 0.13811 0.39934 0.34746 0.0
H1408 H 0.17064 0.46333 0.34145 0.0
H1409 H 0.15761 0.44232 0.35515 0.0
H1410 H 0.17215 0.44113 0.33779 0.0
H1411 H 0.1503 0.39949 0.30517 0.0
H1412 H 0.15881 0.37507 0.31602 0.0
H1413 H 0.38221 0.44834 0.29128 0.0
H1414 H 0.34793 0.43395 0.3 0.0
H1415 H 0.36265 0.48707 0.32971 0.0
H1416 H 0.39715 0.50159 0.32112 0.0
H1417 H 0.34103 0.44898 0.34762 0.0
H1418 H 0.30605 0.44985 0.28528 0.0
H1419 H 0.32326 0.44106 0.28339 0.0
H1420 H 0.33189 0.46635 0.29013 0.0
C1421 C 0.37816 0.45695 0.29967 0.0
C1422 C 0.39234 0.47602 0.3056 0.0
C1423 C 0.35856 0.44883 0.30447 0.0
C1424 C 0.3528 0.45959 0.31529 0.0
C1425 C 0.36685 0.47866 0.3212 0.0
H1426 H 0.22555 0.39065 0.33382 0.0
H1427 H 0.25767 0.42145 0.33367 0.0
C1428 C 0.38648 0.4869 0.31628 0.0
C1429 C 0.33233 0.45005 0.32133 0.0
H1430 H 0.28505 0.42575 0.30596 0.0
C1431 C 0.32872 0.44433 0.33867 0.0
C1432 C 0.31637 0.44429 0.30965 0.0
C1433 C 0.31952 0.45085 0.2911 0.0
C1434 C 0.30955 0.4314 0.34423 0.0
C1435 C 0.29379 0.42412 0.33212 0.0
C1436 C 0.29722 0.43133 0.31521 0.0
C1437 C 0.27458 0.40648 0.33565 0.0
C1438 C 0.3064 0.4247 0.36273 0.0
C1439 C 0.27361 0.38805 0.33708 0.0
C1440 C 0.25545 0.37058 0.33684 0.0
C1441 C 0.23796 0.37127 0.33539 0.0
C1442 C 0.23886 0.38979 0.33513 0.0
C1443 C 0.25713 0.40733 0.335 0.0
H1444 H 0.31834 0.43573 0.3714 0.0
H1445 H 0.29202 0.42225 0.36744 0.0
H1446 H 0.3064 0.41046 0.36351 0.0
H1447 H 0.28693 0.3871 0.33731 0.0
H1448 H 0.25511 0.35647 0.33706 0.0
H1449 H 0.49548 0.8906 0.32425 0.0
H1450 H 0.51298 0.87281 0.33154 0.0
H1451 H 0.56207 0.91349 0.30089 0.0
H1452 H 0.54467 0.93118 0.29338 0.0
H1453 H 0.52879 0.8548 0.30792 0.0
H1454 H 0.58621 0.915 0.34945 0.0
H1455 H 0.56323 0.91386 0.3439 0.0
H1456 H 0.5829 0.92299 0.32861 0.0
C1457 C 0.50997 0.89569 0.31901 0.0
C1458 C 0.51879 0.91241 0.30837 0.0
C1459 C 0.51994 0.88556 0.32322 0.0
C1460 C 0.53889 0.89207 0.31696 0.0
C1461 C 0.5476 0.90852 0.30614 0.0
H1462 H 0.61812 0.85286 0.29783 0.0
H1463 H 0.5913 0.86023 0.2982 0.0
C1464 C 0.53767 0.91864 0.30191 0.0
C1465 C 0.54968 0.88165 0.32151 0.0
H1466 H 0.59276 0.88951 0.33981 0.0
C1467 C 0.54261 0.86222 0.31515 0.0
C1468 C 0.56755 0.89131 0.33113 0.0
C1469 C 0.57537 0.91188 0.33882 0.0
C1470 C 0.55365 0.85267 0.31726 0.0
C1471 C 0.57209 0.86284 0.32592 0.0
C1472 C 0.57857 0.88177 0.33318 0.0
C1473 C 0.58606 0.85536 0.32562 0.0
C1474 C 0.54592 0.83205 0.30975 0.0
C1475 C 0.59179 0.84999 0.34093 0.0
C1476 C 0.60704 0.84555 0.34074 0.0
C1477 C 0.617 0.84696 0.3253 0.0
C1478 C 0.61077 0.85178 0.30993 0.0
C1479 C 0.59538 0.85585 0.31009 0.0
H1480 H 0.52982 0.82453 0.30705 0.0
H1481 H 0.55346 0.83301 0.29739 0.0
H1482 H 0.54901 0.82283 0.3187 0.0
H1483 H 0.58484 0.84975 0.35306 0.0
H1484 H 0.61163 0.84195 0.35276 0.0
H1485 H 0.08728 0.60952 0.33354 0.0
H1486 H 0.10363 0.64573 0.33665 0.0
H1487 H 0.0881 0.64961 0.28378 0.0
H1488 H 0.07208 0.61376 0.28045 0.0
H1489 H 0.13606 0.66677 0.31311 0.0
H1490 H 0.08161 0.6927 0.30987 0.0
H1491 H 0.075 0.66789 0.31628 0.0
H1492 H 0.0786 0.67437 0.29385 0.0
C1493 C 0.08671 0.61806 0.3228 0.0
C1494 C 0.07872 0.60882 0.30667 0.0
C1495 C 0.09609 0.63869 0.32458 0.0
C1496 C 0.09724 0.65022 0.31035 0.0
C1497 C 0.08722 0.64091 0.29492 0.0
H1498 H 0.15301 0.77642 0.30812 0.0
H1499 H 0.1455 0.74521 0.2935 0.0
C1500 C 0.07793 0.62032 0.29311 0.0
C1501 C 0.11143 0.67169 0.31063 0.0
H1502 H 0.11504 0.71699 0.30837 0.0
C1503 C 0.13154 0.67783 0.31205 0.0
C1504 C 0.10544 0.6859 0.30872 0.0
C1505 C 0.08399 0.67998 0.30721 0.0
C1506 C 0.14591 0.698 0.31213 0.0
C1507 C 0.13991 0.71235 0.31106 0.0
C1508 C 0.11977 0.70606 0.30891 0.0
C1509 C 0.15323 0.73354 0.31566 0.0
C1510 C 0.16727 0.70361 0.31357 0.0
C1511 C 0.16216 0.73819 0.33215 0.0
C1512 C 0.16669 0.75603 0.34032 0.0
C1513 C 0.16205 0.76922 0.33219 0.0
C1514 C 0.15653 0.76631 0.31464 0.0
C1515 C 0.15215 0.74843 0.30634 0.0
H1516 H 0.16992 0.69273 0.30634 0.0
H1517 H 0.17721 0.71868 0.30858 0.0
H1518 H 0.1711 0.7032 0.32736 0.0
H1519 H 0.16306 0.72705 0.33974 0.0
H1520 H 0.17122 0.75822 0.35384 0.0
H1521 H 0.82706 0.05055 0.34464 0.0
H1522 H 0.80187 0.01564 0.34022 0.0
H1523 H 0.77454 0.01741 0.38796 0.0
H1524 H 0.79955 0.05202 0.39253 0.0
H1525 H 0.80138 0.9901 0.36651 0.0
H1526 H 0.72739 0.98183 0.35607 0.0
H1527 H 0.7499 0.00461 0.35179 0.0
H1528 H 0.74167 -0.00173 0.37363 0.0
C1529 C 0.81526 0.04366 0.35385 0.0
C1530 C 0.81545 0.05388 0.36907 0.0
C1531 C 0.80092 0.02378 0.35132 0.0
C1532 C 0.78654 0.01402 0.36387 0.0
C1533 C 0.78542 0.02478 0.37805 0.0
H1534 H 0.6988 0.88922 0.36856 0.0
H1535 H 0.72328 0.92146 0.38139 0.0
C1536 C 0.79973 0.04463 0.3806 0.0
C1537 C 0.77508 0.99218 0.36379 0.0
H1538 H 0.72852 0.95266 0.36183 0.0
C1539 C 0.78543 0.98186 0.36548 0.0
C1540 C 0.75433 0.98164 0.36291 0.0
C1541 C 0.74262 0.9921 0.36087 0.0
C1542 C 0.77554 0.96111 0.36584 0.0
C1543 C 0.75481 0.95048 0.36429 0.0
C1544 C 0.74443 0.96087 0.36329 0.0
C1545 C 0.74377 0.92899 0.36035 0.0
C1546 C 0.78741 0.95078 0.36761 0.0
C1547 C 0.74783 0.9222 0.34488 0.0
C1548 C 0.73395 0.90404 0.33762 0.0
C1549 C 0.71591 0.89243 0.34575 0.0
C1550 C 0.71275 0.89799 0.36221 0.0
C1551 C 0.72665 0.91636 0.36947 0.0
H1552 H 0.80115 0.96007 0.37526 0.0
H1553 H 0.77886 0.93617 0.37388 0.0
H1554 H 0.79172 0.94834 0.35455 0.0
H1555 H 0.76072 0.93179 0.33746 0.0
H1556 H 0.73656 0.89991 0.32486 0.0
H1557 H 0.9365 0.77657 0.35325 0.0
H1558 H 0.97091 0.79464 0.344 0.0
H1559 H 0.98263 0.75393 0.37194 0.0
H1560 H 0.94854 0.73608 0.38155 0.0
H1561 H 0.00983 0.80966 0.36876 0.0
H1562 H 0.99523 0.75395 0.31645 0.0
H1563 H 0.97635 0.75858 0.32472 0.0
H1564 H 0.98414 0.74421 0.33699 0.0
C1565 C 0.94649 0.77165 0.35763 0.0
C1566 C 0.93975 0.75475 0.36798 0.0
C1567 C 0.96608 0.78196 0.35229 0.0
C1568 C 0.97912 0.77546 0.35721 0.0
C1569 C 0.97263 0.75901 0.36793 0.0
H1570 H 0.0833 0.78041 0.36212 0.0
H1571 H 0.05093 0.77715 0.3609 0.0
C1572 C 0.95314 0.74875 0.37328 0.0
C1573 C -0.00062 0.78506 0.35066 0.0
H1574 H 0.02874 0.77458 0.32558 0.0
C1575 C 0.01401 0.80244 0.35892 0.0
C1576 C 0.00463 0.77555 0.33779 0.0
C1577 C 0.98928 0.7571 0.32833 0.0
C1578 C 0.03402 0.8096 0.35561 0.0
C1579 C 0.0393 0.79909 0.34379 0.0
C1580 C 0.02458 0.78267 0.33454 0.0
C1581 C 0.05933 0.80188 0.3439 0.0
C1582 C 0.04948 0.8273 0.36579 0.0
C1583 C 0.07478 0.81689 0.33458 0.0
C1584 C 0.09359 0.81887 0.33522 0.0
C1585 C 0.09703 0.80583 0.3452 0.0
C1586 C 0.0813 0.79075 0.35429 0.0
C1587 C 0.06272 0.78883 0.35365 0.0
H1588 H 0.04307 0.83497 0.37326 0.0
H1589 H 0.05706 0.82235 0.37496 0.0
H1590 H 0.06074 0.83804 0.35693 0.0
H1591 H 0.0723 0.82702 0.32691 0.0
H1592 H 0.1054 0.83061 0.32806 0.0
H1593 H 0.22301 0.1683 0.35362 0.0
H1594 H 0.20251 0.18393 0.35291 0.0
H1595 H 0.23893 0.22547 0.39306 0.0
H1596 H 0.25944 0.21001 0.39387 0.0
H1597 H 0.18096 0.19047 0.37986 0.0
H1598 H 0.2408 0.26036 0.35274 0.0
H1599 H 0.24169 0.23763 0.35288 0.0
H1600 H 0.24753 0.25274 0.37224 0.0
C1601 C 0.22659 0.18074 0.36232 0.0
C1602 C 0.24295 0.1881 0.37367 0.0
C1603 C 0.21484 0.18956 0.36195 0.0
C1604 C 0.2193 0.20585 0.37289 0.0
C1605 C 0.23542 0.21304 0.38439 0.0
H1606 H 0.18513 0.29239 0.36404 0.0
H1607 H 0.1879 0.26854 0.38216 0.0
C1608 C 0.2472 0.2043 0.38472 0.0
C1609 C 0.20776 0.21606 0.37168 0.0
H1610 H 0.21174 0.26002 0.36027 0.0
C1611 C 0.18765 0.20573 0.37571 0.0
C1612 C 0.21657 0.23589 0.36616 0.0
C1613 C 0.23777 0.24729 0.36059 0.0
C1614 C 0.17607 0.21481 0.37424 0.0
C1615 C 0.18492 0.23461 0.36868 0.0
C1616 C 0.2051 0.24498 0.36501 0.0
C1617 C 0.17352 0.24421 0.3636 0.0
C1618 C 0.15448 0.20319 0.37833 0.0
C1619 C 0.16262 0.2378 0.34805 0.0
C1620 C 0.16092 0.25146 0.33772 0.0
C1621 C 0.16993 0.27148 0.34299 0.0
C1622 C 0.17762 0.27697 0.35987 0.0
C1623 C 0.17935 0.26331 0.37021 0.0
H1624 H 0.15107 0.19042 0.38674 0.0
H1625 H 0.14965 0.21285 0.3848 0.0
H1626 H 0.14586 0.19731 0.36609 0.0
H1627 H 0.15812 0.22319 0.34263 0.0
H1628 H 0.15499 0.24698 0.32468 0.0
H1629 H 0.6036 0.52817 0.6905 0.0
H1630 H 0.63373 0.55181 0.67552 0.0
H1631 H 0.66463 0.52464 0.69851 0.0
H1632 H 0.6348 0.50104 0.71309 0.0
H1633 H 0.66741 0.57828 0.69269 0.0
H1634 H 0.68387 0.53193 0.6492 0.0
H1635 H 0.65956 0.52344 0.65766 0.0
H1636 H 0.67776 0.5211 0.67019 0.0
C1637 C 0.61679 0.52712 0.69203 0.0
C1638 C 0.61706 0.51303 0.70307 0.0
C1639 C 0.63388 0.5405 0.68347 0.0
C1640 C 0.65123 0.53965 0.68564 0.0
C1641 C 0.65125 0.52519 0.69627 0.0
H1642 H 0.76718 0.62007 0.70911 0.0
H1643 H 0.73188 0.59661 0.7061 0.0
C1644 C 0.63432 0.51197 0.70485 0.0
C1645 C 0.67016 0.55538 0.67912 0.0
H1646 H 0.71272 0.56136 0.6621 0.0
C1647 C 0.67716 0.57476 0.68552 0.0
C1648 C 0.68273 0.55086 0.6695 0.0
C1649 C 0.67547 0.53072 0.66109 0.0
C1650 C 0.69702 0.58918 0.68414 0.0
C1651 C 0.71009 0.58387 0.67648 0.0
C1652 C 0.7027 0.56517 0.66843 0.0
C1653 C 0.73155 0.59695 0.67807 0.0
C1654 C 0.70399 0.60971 0.69161 0.0
C1655 C 0.74307 0.60397 0.66328 0.0
C1656 C 0.76325 0.6171 0.66497 0.0
C1657 C 0.77213 0.62339 0.68148 0.0
C1658 C 0.76066 0.61569 0.69626 0.0
C1659 C 0.74053 0.60241 0.69455 0.0
H1660 H 0.69188 0.61322 0.69179 0.0
H1661 H 0.70911 0.61045 0.70517 0.0
H1662 H 0.71639 0.62121 0.68412 0.0
H1663 H 0.73637 0.5997 0.65047 0.0
H1664 H 0.77175 0.62279 0.65333 0.0
H1665 H 0.48557 0.0863 0.67565 0.0
H1666 H 0.46937 0.10492 0.66708 0.0
H1667 H 0.45409 0.1074 0.72017 0.0
H1668 H 0.46952 0.08819 0.72883 0.0
H1669 H 0.427 0.09127 0.6757 0.0
H1670 H 0.4809 0.16664 0.70115 0.0
H1671 H 0.48776 0.1483 0.69541 0.0
H1672 H 0.47517 0.14625 0.71525 0.0
C1673 C 0.47865 0.09067 0.68551 0.0
C1674 C 0.47886 0.08573 0.70295 0.0
C1675 C 0.46961 0.10149 0.6806 0.0
C1676 C 0.4609 0.10779 0.69305 0.0
C1677 C 0.46115 0.10302 0.71044 0.0
H1678 H 0.38119 0.14606 0.7093 0.0
H1679 H 0.41058 0.14286 0.7089 0.0
C1680 C 0.46999 0.09205 0.71535 0.0
C1681 C 0.45006 0.11791 0.68781 0.0
H1682 H 0.44893 0.16096 0.69341 0.0
C1683 C 0.43194 0.10664 0.67917 0.0
C1684 C 0.45661 0.13789 0.69254 0.0
C1685 C 0.47625 0.15061 0.7015 0.0
C1686 C 0.41957 0.11448 0.67601 0.0
C1687 C 0.4258 0.13431 0.68121 0.0
C1688 C 0.44434 0.14587 0.68922 0.0
C1689 C 0.41184 0.14186 0.68096 0.0
C1690 C 0.39934 0.10102 0.66824 0.0
C1691 C 0.40358 0.14366 0.66536 0.0
C1692 C 0.38672 0.14553 0.66556 0.0
C1693 C 0.37793 0.14541 0.68137 0.0
C1694 C 0.38744 0.14568 0.69693 0.0
C1695 C 0.40432 0.14403 0.69673 0.0
H1696 H 0.39578 0.08529 0.66736 0.0
H1697 H 0.3879 0.10177 0.67608 0.0
H1698 H 0.39859 0.10596 0.65499 0.0
H1699 H 0.40939 0.14227 0.65306 0.0
H1700 H 0.37976 0.14554 0.65339 0.0
H1701 H 0.909 0.38232 0.73452 0.0
H1702 H 0.88872 0.34638 0.72992 0.0
H1703 H 0.8843 0.35494 0.67542 0.0
H1704 H 0.90438 0.39102 0.6799 0.0
H1705 H 0.84619 0.32623 0.69631 0.0
H1706 H 0.91016 0.31362 0.70024 0.0
H1707 H 0.90887 0.33034 0.71586 0.0
H1708 H 0.91276 0.33696 0.69352 0.0
C1709 C 0.90356 0.37658 0.72157 0.0
C1710 C 0.90826 0.3895 0.70756 0.0
C1711 C 0.89204 0.35608 0.71899 0.0
C1712 C 0.88502 0.34814 0.70237 0.0
C1713 C 0.88956 0.3609 0.68835 0.0
H1714 H 0.83467 0.24001 0.64855 0.0
H1715 H 0.83982 0.27159 0.66028 0.0
C1716 C 0.90117 0.38144 0.6909 0.0
C1717 C 0.8736 0.32644 0.69954 0.0
H1718 H 0.87885 0.28559 0.69605 0.0
C1719 C 0.85323 0.31726 0.69636 0.0
C1720 C 0.88294 0.31493 0.69966 0.0
C1721 C 0.9049 0.32435 0.70241 0.0
C1722 C 0.84197 0.2967 0.69305 0.0
C1723 C 0.85138 0.28526 0.69294 0.0
C1724 C 0.87166 0.29443 0.69648 0.0
C1725 C 0.84131 0.26432 0.68696 0.0
C1726 C 0.82017 0.28728 0.6895 0.0
C1727 C 0.83929 0.24939 0.69821 0.0
C1728 C 0.83598 0.23114 0.69152 0.0
C1729 C 0.83517 0.22797 0.67353 0.0
C1730 C 0.83509 0.24211 0.66247 0.0
C1731 C 0.83804 0.26016 0.66916 0.0
H1732 H 0.81449 0.29737 0.69306 0.0
H1733 H 0.81717 0.28345 0.6755 0.0
H1734 H 0.81201 0.2733 0.69678 0.0
H1735 H 0.84198 0.25248 0.71198 0.0
H1736 H 0.83639 0.22056 0.70025 0.0
H1737 H 0.18194 0.93501 0.65929 0.0
H1738 H 0.19822 0.97118 0.6635 0.0
H1739 H 0.20964 0.97898 0.60885 0.0
H1740 H 0.19436 0.94318 0.60457 0.0
H1741 H 0.24036 -0.00148 0.65012 0.0
H1742 H 0.18242 0.0136 0.62535 0.0
H1743 H 0.17693 0.99049 0.63529 0.0
H1744 H 0.18579 0.99536 0.61356 0.0
C1745 C 0.18803 0.94443 0.64819 0.0
C1746 C 0.18672 0.93617 0.63156 0.0
C1747 C 0.19707 0.96502 0.65059 0.0
C1748 C 0.20464 0.97754 0.63639 0.0
C1749 C 0.2034 0.96942 0.61986 0.0
H1750 H 0.30069 0.09466 0.6341 0.0
H1751 H 0.2738 0.0633 0.62245 0.0
C1752 C 0.19464 0.94895 0.61747 0.0
C1753 C 0.21561 -0.00076 0.63881 0.0
H1754 H 0.21466 0.04145 0.62898 0.0
C1755 C 0.23474 0.00795 0.64564 0.0
C1756 C 0.20802 0.01131 0.63309 0.0
C1757 C 0.1871 0.00232 0.62651 0.0
C1758 C 0.24685 0.02858 0.6464 0.0
C1759 C 0.23973 0.04074 0.63967 0.0
C1760 C 0.22024 0.03204 0.63354 0.0
C1761 C 0.25223 0.06256 0.6402 0.0
C1762 C 0.26713 0.03713 0.65456 0.0
C1763 C 0.24812 0.07359 0.65225 0.0
C1764 C 0.2633 0.09186 0.65842 0.0
C1765 C 0.28259 0.09876 0.65282 0.0
C1766 C 0.28586 0.08949 0.63858 0.0
C1767 C 0.27057 0.07149 0.63208 0.0
H1768 H 0.26841 0.02612 0.66267 0.0
H1769 H 0.27823 0.04169 0.64422 0.0
H1770 H 0.27077 0.0504 0.66277 0.0
H1771 H 0.23396 0.067 0.65851 0.0
H1772 H 0.26055 0.09882 0.66947 0.0
H1773 H 0.05945 0.22401 0.65515 0.0
H1774 H 0.02436 0.20349 0.6617 0.0
H1775 H 0.01056 0.23566 0.62427 0.0
H1776 H 0.04542 0.25541 0.61716 0.0
H1777 H 0.00013 0.21333 0.67497 0.0
H1778 H 0.97028 0.18081 0.61031 0.0
H1779 H 0.99636 0.19369 0.61512 0.0
H1780 H 0.98421 0.20731 0.60918 0.0
C1781 C 0.04881 0.22649 0.64826 0.0
C1782 C 0.05498 0.24111 0.63559 0.0
C1783 C 0.02882 0.21477 0.65194 0.0
C1784 C 0.0147 0.21762 0.64314 0.0
C1785 C 0.021 0.23257 0.63073 0.0
H1786 H 0.9117 0.21511 0.65743 0.0
H1787 H 0.94275 0.2169 0.65086 0.0
C1788 C 0.04093 0.24401 0.62681 0.0
C1789 C 0.99359 0.2061 0.6478 0.0
H1790 H 0.9472 0.18295 0.63011 0.0
C1791 C 0.98855 0.20615 0.66521 0.0
C1792 C 0.9784 0.19648 0.63514 0.0
C1793 C 0.98263 0.19438 0.61644 0.0
C1794 C 0.96887 0.19836 0.67005 0.0
C1795 C 0.95393 0.19041 0.65717 0.0
C1796 C 0.95876 0.18903 0.63996 0.0
C1797 C 0.93433 0.18787 0.66066 0.0
C1798 C 0.96419 0.2 0.68869 0.0
C1799 C 0.91921 0.17074 0.66826 0.0
C1800 C 0.90111 0.16954 0.67194 0.0
C1801 C 0.89831 0.18567 0.66841 0.0
C1802 C 0.91355 0.20262 0.66071 0.0
C1803 C 0.93126 0.20363 0.65677 0.0
H1804 H 0.97735 0.20564 0.69733 0.0
H1805 H 0.95816 0.21022 0.68978 0.0
H1806 H 0.95271 0.18524 0.69321 0.0
H1807 H 0.92145 0.15846 0.67137 0.0
H1808 H 0.88951 0.15626 0.67773 0.0
H1809 H 0.75933 0.81741 0.65637 0.0
H1810 H 0.76738 0.79265 0.66666 0.0
H1811 H 0.7588 0.76774 0.61498 0.0
H1812 H 0.75022 0.79211 0.60467 0.0
H1813 H 0.74877 0.73951 0.64418 0.0
H1814 H 0.82318 0.80692 0.64752 0.0
H1815 H 0.80445 0.80844 0.65959 0.0
H1816 H 0.80262 0.8064 0.63638 0.0
C1817 C 0.75833 0.80613 0.64736 0.0
C1818 C 0.75465 0.80693 0.62966 0.0
C1819 C 0.76302 0.79208 0.65323 0.0
C1820 C 0.76412 0.7788 0.64145 0.0
C1821 C 0.75817 0.77804 0.62419 0.0
H1822 H 0.81802 0.70398 0.64954 0.0
H1823 H 0.80357 0.72294 0.63741 0.0
C1824 C 0.75342 0.79202 0.61832 0.0
C1825 C 0.77472 0.76838 0.6463 0.0
H1826 H 0.82064 0.77699 0.657 0.0
C1827 C 0.76448 0.74761 0.64695 0.0
C1828 C 0.79527 0.77913 0.64955 0.0
C1829 C 0.80713 0.80144 0.6481 0.0
C1830 C 0.77424 0.73728 0.65148 0.0
C1831 C 0.79471 0.74811 0.65512 0.0
C1832 C 0.80496 0.76883 0.65411 0.0
C1833 C 0.80544 0.73836 0.6615 0.0
C1834 C 0.76257 0.71498 0.65287 0.0
C1835 C 0.81216 0.74168 0.67872 0.0
C1836 C 0.82046 0.73105 0.68561 0.0
C1837 C 0.82226 0.717 0.67535 0.0
C1838 C 0.81686 0.71476 0.65772 0.0
C1839 C 0.8084 0.72537 0.65084 0.0
H1840 H 0.74644 0.70917 0.65209 0.0
H1841 H 0.7666 0.7081 0.64216 0.0
H1842 H 0.7661 0.71029 0.66527 0.0
H1843 H 0.81016 0.75185 0.68704 0.0
H1844 H 0.82459 0.73314 0.69922 0.0
H1845 H 0.05405 0.77982 0.63005 0.0
H1846 H 0.01952 0.76424 0.63835 0.0
H1847 H 0.029 0.82045 0.65832 0.0
H1848 H 0.06379 0.83621 0.65031 0.0
H1849 H 0.00778 0.77084 0.67761 0.0
H1850 H 0.97798 0.79121 0.62059 0.0
H1851 H -0.00138 0.78724 0.61789 0.0
H1852 H 0.00173 0.80837 0.63016 0.0
C1853 C 0.04886 0.78885 0.63634 0.0
C1854 C 0.06164 0.80919 0.63966 0.0
C1855 C 0.02914 0.77998 0.64094 0.0
C1856 C 0.02189 0.79128 0.64889 0.0
C1857 C 0.03445 0.8116 0.65211 0.0
H1858 H 0.8949 0.72396 0.67377 0.0
H1859 H 0.92835 0.75304 0.67455 0.0
C1860 C 0.05423 0.82053 0.64749 0.0
C1861 C 0.00122 0.78131 0.65424 0.0
H1862 H 0.95502 0.7655 0.63822 0.0
C1863 C 0.9962 0.77008 0.66931 0.0
C1864 C 0.98631 0.78051 0.64334 0.0
C1865 C 0.99127 0.79248 0.62707 0.0
C1866 C 0.97648 0.75689 0.67313 0.0
C1867 C 0.96162 0.7549 0.6615 0.0
C1868 C 0.96656 0.76723 0.64712 0.0
C1869 C 0.94166 0.73761 0.66216 0.0
C1870 C 0.97162 0.74411 0.68887 0.0
C1871 C 0.93836 0.71953 0.65504 0.0
C1872 C 0.91946 0.70312 0.65442 0.0
C1873 C 0.90354 0.70447 0.66106 0.0
C1874 C 0.90696 0.72251 0.66866 0.0
C1875 C 0.92595 0.73908 0.66906 0.0
H1876 H 0.98416 0.75003 0.69826 0.0
H1877 H 0.95855 0.74299 0.69542 0.0
H1878 H 0.96799 0.72889 0.68477 0.0
H1879 H 0.9504 0.71823 0.64966 0.0
H1880 H 0.9173 0.6894 0.64859 0.0
H1881 H 0.17503 0.22809 0.61518 0.0
H1882 H 0.19411 0.21161 0.62076 0.0
H1883 H 0.21134 0.24036 0.67102 0.0
H1884 H 0.19211 0.25685 0.66561 0.0
H1885 H 0.2376 0.23628 0.63028 0.0
H1886 H 0.19215 0.17847 0.67783 0.0
H1887 H 0.18149 0.18815 0.66269 0.0
H1888 H 0.19578 0.20312 0.68085 0.0
C1889 C 0.18255 0.23061 0.62757 0.0
C1890 C 0.18206 0.24378 0.63996 0.0
C1891 C 0.19348 0.22123 0.6307 0.0
C1892 C 0.20395 0.22464 0.64635 0.0
C1893 C 0.20315 0.23738 0.65895 0.0
H1894 H 0.28432 0.18567 0.68348 0.0
H1895 H 0.25984 0.19652 0.6813 0.0
C1896 C 0.19231 0.2469 0.65577 0.0
C1897 C 0.21714 0.21633 0.64873 0.0
H1898 H 0.22262 0.18133 0.67038 0.0
C1899 C 0.23435 0.22424 0.63901 0.0
C1900 C 0.21292 0.20085 0.66033 0.0
C1901 C 0.19456 0.19199 0.67103 0.0
C1902 C 0.24761 0.21719 0.64062 0.0
C1903 C 0.24316 0.2012 0.65181 0.0
C1904 C 0.22597 0.19342 0.6617 0.0
C1905 C 0.25632 0.1926 0.65343 0.0
C1906 C 0.26653 0.22741 0.63064 0.0
C1907 C 0.26189 0.18602 0.63864 0.0
C1908 C 0.27615 0.18032 0.63983 0.0
C1909 C 0.28457 0.18032 0.65593 0.0
C1910 C 0.27797 0.18546 0.67093 0.0
C1911 C 0.26403 0.19168 0.66967 0.0
H1912 H 0.27046 0.24282 0.62733 0.0
H1913 H 0.27898 0.22802 0.6381 0.0
H1914 H 0.26465 0.21913 0.61831 0.0
H1915 H 0.25563 0.18585 0.62605 0.0
H1916 H 0.28084 0.17618 0.6281 0.0
H1917 H 0.74331 0.94834 0.61271 0.0
H1918 H 0.75583 0.98395 0.61486 0.0
H1919 H 0.78078 0.98593 0.66522 0.0
H1920 H 0.76785 0.95001 0.66345 0.0
H1921 H 0.7578 0.01377 0.64578 0.0
H1922 H 0.82634 0.01503 0.62519 0.0
H1923 H 0.80219 0.99374 0.62122 0.0
H1924 H 0.81264 -0.0009 0.64267 0.0
C1925 C 0.75059 0.95607 0.62464 0.0
C1926 C 0.75497 0.9464 0.63777 0.0
C1927 C 0.75788 0.97649 0.62576 0.0
C1928 C 0.76956 0.98746 0.63999 0.0
C1929 C 0.77196 0.97759 0.65404 0.0
H1930 H 0.84935 0.09996 0.6741 0.0
H1931 H 0.83724 0.0682 0.65924 0.0
C1932 C 0.7646 0.95713 0.65299 0.0
C1933 C 0.78171 0.0092 0.63892 0.0
H1934 H 0.82865 0.04596 0.63124 0.0
C1935 C 0.77324 0.02094 0.64245 0.0
C1936 C 0.80177 0.01822 0.63448 0.0
C1937 C 0.81137 0.00596 0.63056 0.0
C1938 C 0.78464 0.04174 0.64257 0.0
C1939 C 0.80493 0.05094 0.63833 0.0
C1940 C 0.81311 0.03899 0.63414 0.0
C1941 C 0.8184 0.07254 0.64132 0.0
C1942 C 0.77507 0.05351 0.64841 0.0
C1943 C 0.81413 0.08669 0.63454 0.0
C1944 C 0.82092 0.1049 0.64328 0.0
C1945 C 0.83208 0.10887 0.65864 0.0
C1946 C 0.8403 0.09692 0.66254 0.0
C1947 C 0.83318 0.07859 0.65412 0.0
H1948 H 0.76044 0.04394 0.65424 0.0
H1949 H 0.7845 0.06511 0.65814 0.0
H1950 H 0.77285 0.06088 0.63712 0.0
H1951 H 0.80354 0.08268 0.62402 0.0
H1952 H 0.81473 0.1141 0.63972 0.0
H1953 H 0.48262 0.37398 0.73455 0.0
H1954 H 0.45813 0.33897 0.73102 0.0
H1955 H 0.44644 0.34931 0.67856 0.0
H1956 H 0.4722 0.38449 0.68187 0.0
H1957 H 0.42116 0.31818 0.72498 0.0
H1958 H 0.46043 0.3075 0.67004 0.0
H1959 H 0.47057 0.33058 0.68211 0.0
H1960 H 0.45208 0.32466 0.66552 0.0
C1961 C 0.47461 0.36874 0.72234 0.0
C1962 C 0.4791 0.38161 0.70844 0.0
C1963 C 0.46063 0.3488 0.72033 0.0
C1964 C 0.45073 0.34144 0.70444 0.0
C1965 C 0.45434 0.35461 0.69079 0.0
H1966 H 0.35278 0.22644 0.68659 0.0
H1967 H 0.37416 0.25839 0.70049 0.0
C1968 C 0.46879 0.37463 0.69269 0.0
C1969 C 0.43763 0.31979 0.70222 0.0
H1970 H 0.43028 0.27989 0.67779 0.0
C1971 C 0.42322 0.30974 0.71473 0.0
C1972 C 0.44068 0.30879 0.6891 0.0
C1973 C 0.4569 0.3184 0.67604 0.0
C1974 C 0.4118 0.28899 0.71453 0.0
C1975 C 0.4142 0.27806 0.70093 0.0
C1976 C 0.42857 0.28816 0.6884 0.0
C1977 C 0.40075 0.25652 0.69808 0.0
C1978 C 0.39766 0.27914 0.72912 0.0
C1979 C 0.4083 0.2443 0.69267 0.0
C1980 C 0.39611 0.22635 0.68395 0.0
C1981 C 0.3762 0.22024 0.68128 0.0
C1982 C 0.36814 0.23098 0.68879 0.0
C1983 C 0.38039 0.24921 0.6969 0.0
H1984 H 0.40347 0.28787 0.74139 0.0
H1985 H 0.38353 0.27855 0.72604 0.0
H1986 H 0.39477 0.26382 0.73125 0.0
H1987 H 0.42395 0.24957 0.69358 0.0
H1988 H 0.40251 0.2182 0.67806 0.0
H1989 H 0.6025 0.11214 0.69066 0.0
H1990 H 0.63701 0.1308 0.68164 0.0
H1991 H 0.64703 0.08536 0.70242 0.0
H1992 H 0.61286 0.06684 0.71172 0.0
H1993 H 0.67557 0.13966 0.70713 0.0
H1994 H 0.66049 0.09583 0.6458 0.0
H1995 H 0.64243 0.10059 0.65583 0.0
H1996 H 0.64754 0.08237 0.66465 0.0
C1997 C 0.61214 0.10626 0.69347 0.0
C1998 C 0.60494 0.08793 0.70176 0.0
C1999 C 0.63178 0.11691 0.68829 0.0
C2000 C 0.64439 0.10934 0.69133 0.0
C2001 C 0.63738 0.09131 0.6999 0.0
H2002 H 0.74463 0.10546 0.68512 0.0
H2003 H 0.7128 0.10364 0.68482 0.0
C2004 C 0.61785 0.0807 0.70507 0.0
C2005 C 0.6648 0.11957 0.68516 0.0
H2006 H 0.69365 0.11263 0.65639 0.0
C2007 C 0.67964 0.1343 0.69574 0.0
C2008 C 0.66988 0.11252 0.67026 0.0
C2009 C 0.65429 0.09704 0.65835 0.0
C2010 C 0.69959 0.14091 0.6926 0.0
C2011 C 0.70458 0.1325 0.67855 0.0
C2012 C 0.68975 0.11903 0.66715 0.0
C2013 C 0.72417 0.13419 0.67756 0.0
C2014 C 0.71508 0.15552 0.70511 0.0
C2015 C 0.74113 0.15198 0.67333 0.0
C2016 C 0.75956 0.15311 0.67347 0.0
C2017 C 0.76119 0.13647 0.67794 0.0
C2018 C 0.74401 0.11861 0.68173 0.0
C2019 C 0.72574 0.1175 0.68152 0.0
H2020 H 0.70866 0.16017 0.71571 0.0
H2021 H 0.72338 0.14884 0.7109 0.0
H2022 H 0.72573 0.16894 0.69808 0.0
H2023 H 0.74014 0.16497 0.6701 0.0
H2024 H 0.77252 0.16708 0.67047 0.0
H2025 H 0.89317 0.50335 0.68535 0.0
H2026 H 0.87399 0.52035 0.68399 0.0
H2027 H 0.90903 0.55956 0.72597 0.0
H2028 H 0.92825 0.5427 0.72741 0.0
H2029 H 0.85164 0.52664 0.70972 0.0
H2030 H 0.9147 0.59721 0.6869 0.0
H2031 H 0.91491 0.57412 0.68672 0.0
H2032 H 0.91933 0.5881 0.70659 0.0
C2033 C 0.89673 0.51556 0.69432 0.0
C2034 C 0.91235 0.52185 0.70635 0.0
C2035 C 0.88575 0.5252 0.69355 0.0
C2036 C 0.89022 0.54128 0.70479 0.0
C2037 C 0.90556 0.54737 0.71701 0.0
H2038 H 0.85257 0.62774 0.69407 0.0
H2039 H 0.85958 0.60558 0.71107 0.0
C2040 C 0.91659 0.53781 0.71774 0.0
C2041 C 0.87935 0.55219 0.70325 0.0
H2042 H 0.88515 0.597 0.69197 0.0
C2043 C 0.85895 0.54208 0.706 0.0
C2044 C 0.88896 0.5723 0.69837 0.0
C2045 C 0.91064 0.58357 0.69431 0.0
C2046 C 0.84784 0.55155 0.70367 0.0
C2047 C 0.85743 0.57153 0.69848 0.0
C2048 C 0.8779 0.58177 0.69631 0.0
C2049 C 0.84658 0.58132 0.69229 0.0
C2050 C 0.82594 0.54007 0.70644 0.0
C2051 C 0.83585 0.57452 0.67668 0.0
C2052 C 0.83199 0.58718 0.66695 0.0
C2053 C 0.83866 0.60673 0.67278 0.0
C2054 C 0.84704 0.61264 0.68943 0.0
C2055 C 0.85113 0.60002 0.69911 0.0
H2056 H 0.82179 0.52741 0.71521 0.0
H2057 H 0.82065 0.54982 0.71193 0.0
H2058 H 0.8183 0.53399 0.69381 0.0
H2059 H 0.83247 0.5603 0.67105 0.0
H2060 H 0.82555 0.58237 0.6541 0.0
H2061 H 0.48267 0.93444 0.20281 0.0
H2062 H 0.48901 0.93911 0.17172 0.0
H2063 H 0.48854 0.99428 0.175 0.0
H2064 H 0.48276 0.99006 0.20609 0.0
H2065 H 0.46769 0.94654 0.14368 0.0
H2066 H 0.54382 0.00856 0.15593 0.0
H2067 H 0.52948 0.99112 0.1724 0.0
H2068 H 0.52501 0.01096 0.16699 0.0
C2069 C 0.48394 0.94758 0.19691 0.0
C2070 C 0.48249 0.96203 0.20697 0.0
C2071 C 0.4874 0.95013 0.17915 0.0
C2072 C 0.48956 0.96719 0.17121 0.0
C2073 C 0.48719 0.98115 0.18101 0.0
H2074 H 0.51237 0.02813 0.07898 0.0
H2075 H 0.51054 0.01599 0.10804 0.0
C2076 C 0.48372 0.97863 0.19874 0.0
C2077 C 0.49523 0.971 0.15286 0.0
H2078 H 0.53149 0.00421 0.12702 0.0
C2079 C 0.48173 0.95895 0.13994 0.0
C2080 C 0.51363 0.9871 0.14816 0.0
C2081 C 0.52893 0.0001 0.16158 0.0
C2082 C 0.48564 0.9634 0.12233 0.0
C2083 C 0.50377 0.98006 0.11765 0.0
C2084 C 0.51765 0.99142 0.13062 0.0
C2085 C 0.50741 0.9878 0.09982 0.0
C2086 C 0.46988 0.95101 0.10903 0.0
C2087 C 0.50719 0.97636 0.08547 0.0
C2088 C 0.50811 0.98328 0.06863 0.0
C2089 C 0.50936 0.00175 0.06603 0.0
C2090 C 0.51119 0.01374 0.08051 0.0
C2091 C 0.51016 0.00682 0.09718 0.0
H2092 H 0.45554 0.9409 0.11507 0.0
H2093 H 0.46773 0.96064 0.09984 0.0
H2094 H 0.47447 0.94177 0.10152 0.0
H2095 H 0.50559 0.96184 0.08726 0.0
H2096 H 0.5067 0.97373 0.05772 0.0
H2097 H 0.01549 0.51103 0.20848 0.0
H2098 H 0.00102 0.50359 0.17914 0.0
H2099 H 0.05918 0.53551 0.15769 0.0
H2100 H 0.07367 0.54238 0.18671 0.0
H2101 H 0.00474 0.53085 0.15454 0.0
H2102 H 0.03401 0.48378 0.12981 0.0
H2103 H 0.03377 0.48912 0.15259 0.0
H2104 H 0.05315 0.50666 0.13912 0.0
C2105 C 0.02515 0.51617 0.19747 0.0
C2106 C 0.04569 0.5274 0.19986 0.0
C2107 C 0.01688 0.512 0.18077 0.0
C2108 C 0.02907 0.51882 0.16629 0.0
C2109 C 0.04954 0.52981 0.16868 0.0
H2110 H 0.02235 0.52561 0.05605 0.0
H2111 H 0.03123 0.53399 0.08678 0.0
C2112 C 0.05778 0.53396 0.18529 0.0
C2113 C 0.02062 0.51557 0.14861 0.0
H2114 H 0.0237 0.49895 0.10834 0.0
C2115 C 0.00866 0.52367 0.14445 0.0
C2116 C 0.02566 0.50604 0.13556 0.0
C2117 C 0.03717 0.49572 0.13953 0.0
C2118 C 0.00235 0.5233 0.12733 0.0
C2119 C 0.00831 0.51475 0.11419 0.0
C2120 C 0.01967 0.50603 0.11845 0.0
C2121 C 0.00205 0.51356 0.09597 0.0
C2122 C 0.98977 0.53242 0.12329 0.0
C2123 C 0.98257 0.50002 0.09112 0.0
C2124 C 0.97751 0.49529 0.07369 0.0
C2125 C 0.99188 0.50398 0.06088 0.0
C2126 C 0.01097 0.51892 0.06565 0.0
C2127 C 0.01607 0.52356 0.08317 0.0
H2128 H 0.98893 0.5411 0.13446 0.0
H2129 H 0.99566 0.54227 0.11198 0.0
H2130 H 0.97462 0.52046 0.11986 0.0
H2131 H 0.97164 0.492 0.10083 0.0
H2132 H 0.9627 0.48365 0.07032 0.0
H2133 H 0.50124 0.49715 0.2025 0.0
H2134 H 0.50579 0.50207 0.17133 0.0
H2135 H 0.47104 0.53098 0.17123 0.0
H2136 H 0.46667 0.52643 0.20259 0.0
H2137 H 0.47213 0.48799 0.1456 0.0
H2138 H 0.52502 0.56955 0.14592 0.0
H2139 H 0.52236 0.55479 0.16467 0.0
H2140 H 0.50314 0.5598 0.15879 0.0
C2141 C 0.49469 0.5047 0.1959 0.0
C2142 C 0.48362 0.51142 0.205 0.0
C2143 C 0.49726 0.50744 0.17811 0.0
C2144 C 0.48891 0.51705 0.1691 0.0
C2145 C 0.47775 0.52372 0.17805 0.0
H2146 H 0.49868 0.52995 0.05608 0.0
H2147 H 0.49398 0.53693 0.08618 0.0
C2148 C 0.47511 0.52091 0.19589 0.0
C2149 C 0.4915 0.51928 0.15021 0.0
H2150 H 0.51943 0.55216 0.11931 0.0
C2151 C 0.48224 0.50206 0.13979 0.0
C2152 C 0.50447 0.53772 0.14272 0.0
C2153 C 0.51442 0.55661 0.15351 0.0
C2154 C 0.48637 0.5026 0.12216 0.0
C2155 C 0.50049 0.52076 0.11491 0.0
C2156 C 0.50885 0.53825 0.12505 0.0
C2157 C 0.50756 0.52116 0.09718 0.0
C2158 C 0.476 0.4836 0.1115 0.0
C2159 C 0.51785 0.51112 0.09355 0.0
C2160 C 0.52047 0.50704 0.07647 0.0
C2161 C 0.51299 0.51312 0.06276 0.0
C2162 C 0.50468 0.52515 0.0664 0.0
C2163 C 0.50188 0.52907 0.08357 0.0
H2164 H 0.46216 0.4724 0.11764 0.0
H2165 H 0.47245 0.48643 0.09827 0.0
H2166 H 0.48579 0.47717 0.11029 0.0
H2167 H 0.52255 0.50514 0.10396 0.0
H2168 H 0.52702 0.49784 0.07403 0.0
H2169 H 0.95048 0.4449 0.79688 0.0
H2170 H 0.95098 0.44029 0.82809 0.0
H2171 H 0.96867 0.50193 0.83713 0.0
H2172 H 0.96777 0.50647 0.80588 0.0
H2173 H 0.98384 0.45889 0.84723 0.0
H2174 H 0.92865 0.47561 0.87473 0.0
H2175 H 0.92925 0.47055 0.85192 0.0
H2176 H 0.94547 0.49494 0.86094 0.0
C2177 C 0.95425 0.45739 0.80557 0.0
C2178 C 0.95935 0.47611 0.79904 0.0
C2179 C 0.9544 0.45471 0.82337 0.0
C2180 C 0.9597 0.4707 0.83495 0.0
C2181 C 0.96408 0.48925 0.82847 0.0
H2182 H 0.02511 0.50725 0.92685 0.0
H2183 H 0.01213 0.49597 0.89764 0.0
C2184 C 0.96373 0.4919 0.81063 0.0
C2185 C 0.96321 0.46866 0.85347 0.0
H2186 H 0.9541 0.47848 0.89446 0.0
C2187 C 0.97701 0.46278 0.85757 0.0
C2188 C 0.95416 0.47351 0.86696 0.0
C2189 C 0.9384 0.4788 0.86343 0.0
C2190 C 0.98287 0.46276 0.87472 0.0
C2191 C 0.97491 0.46902 0.88809 0.0
C2192 C 0.96024 0.47375 0.88414 0.0
C2193 C 0.98336 0.47319 0.90583 0.0
C2194 C -0.002 0.45663 0.87834 0.0
C2195 C 0.97159 0.46383 0.92014 0.0
C2196 C 0.97903 0.47025 0.93697 0.0
C2197 C -0.00179 0.48632 0.9396 0.0
C2198 C 0.0103 0.49477 0.92523 0.0
C2199 C 0.00291 0.48832 0.90851 0.0
H2200 H -0.00214 0.44648 0.868 0.0
H2201 H 0.01287 0.47004 0.87874 0.0
H2202 H 0.99543 0.44917 0.89098 0.0
H2203 H 0.95642 0.45219 0.91828 0.0
H2204 H 0.96929 0.46366 0.94778 0.0
H2205 H 0.54051 0.49575 0.80873 0.0
H2206 H 0.52903 0.50099 0.8367 0.0
H2207 H 0.47976 0.44124 0.83404 0.0
H2208 H 0.49095 0.43591 0.80599 0.0
H2209 H 0.47644 0.4807 0.847 0.0
H2210 H 0.52865 0.46168 0.87914 0.0
H2211 H 0.53655 0.47724 0.86041 0.0
H2212 H 0.51794 0.45164 0.85803 0.0
C2213 C 0.52698 0.4839 0.81391 0.0
C2214 C 0.51672 0.46535 0.8053 0.0
C2215 C 0.5205 0.4869 0.82986 0.0
C2216 C 0.50363 0.47145 0.83731 0.0
C2217 C 0.4928 0.45329 0.82838 0.0
H2218 H 0.48455 0.46882 0.94841 0.0
H2219 H 0.48009 0.45656 0.9183 0.0
C2220 C 0.4993 0.45025 0.81248 0.0
C2221 C 0.49845 0.47359 0.85517 0.0
H2222 H 0.51108 0.47178 0.89708 0.0
C2223 C 0.48384 0.47862 0.85801 0.0
C2224 C 0.50801 0.47058 0.86935 0.0
C2225 C 0.52365 0.46491 0.86674 0.0
C2226 C 0.4789 0.48129 0.87488 0.0
C2227 C 0.489 0.47898 0.88914 0.0
C2228 C 0.50318 0.47332 0.88618 0.0
C2229 C 0.48704 0.48467 0.90707 0.0
C2230 C 0.46307 0.48671 0.87724 0.0
C2231 C 0.49177 0.50428 0.91069 0.0
C2232 C 0.49418 0.5112 0.92773 0.0
C2233 C 0.49221 0.49875 0.94154 0.0
C2234 C 0.48609 0.4787 0.93802 0.0
C2235 C 0.48362 0.47174 0.92085 0.0
H2236 H 0.45221 0.48079 0.86634 0.0
H2237 H 0.45517 0.481 0.88957 0.0
H2238 H 0.46991 0.50312 0.87741 0.0
H2239 H 0.49495 0.51468 0.90035 0.0
H2240 H 0.49878 0.52671 0.93003 0.0
H2241 H 0.53276 0.02193 0.80717 0.0
H2242 H 0.5285 0.02018 0.83863 0.0
H2243 H 0.49564 0.05096 0.83485 0.0
H2244 H 0.49955 0.05242 0.8034 0.0
H2245 H 0.53752 0.04836 0.86521 0.0
H2246 H 0.45666 -0.00132 0.85694 0.0
H2247 H 0.47346 0.00462 0.83925 0.0
H2248 H 0.46656 0.02228 0.84666 0.0
C2249 C 0.52483 0.0285 0.8131 0.0
C2250 C 0.51618 0.03699 0.80287 0.0
C2251 C 0.52241 0.02752 0.83104 0.0
C2252 C 0.51142 0.0351 0.83899 0.0
C2253 C 0.50376 0.0446 0.8289 0.0
H2254 H 0.50391 0.0308 0.95298 0.0
H2255 H 0.50649 0.04386 0.92381 0.0
C2256 C 0.50599 0.04541 0.81097 0.0
C2257 C 0.50693 0.03186 0.85763 0.0
H2258 H 0.46909 0.00666 0.88545 0.0
C2259 C 0.52257 0.03944 0.86971 0.0
C2260 C 0.48738 0.02008 0.86337 0.0
C2261 C 0.47003 0.01078 0.85091 0.0
C2262 C 0.51922 0.03505 0.88735 0.0
C2263 C 0.49967 0.02305 0.89304 0.0
C2264 C 0.48402 0.01604 0.88104 0.0
C2265 C 0.49536 0.01531 0.91083 0.0
C2266 C 0.53667 0.04238 0.89959 0.0
C2267 C 0.4871 0.99484 0.91318 0.0
C2268 C 0.48526 0.98733 0.92976 0.0
C2269 C 0.49167 0.00016 0.94432 0.0
C2270 C 0.49865 0.02052 0.94203 0.0
C2271 C 0.50044 0.02805 0.92537 0.0
H2272 H 0.55082 0.04866 0.89261 0.0
H2273 H 0.53728 0.0542 0.90823 0.0
H2274 H 0.53524 0.03014 0.90782 0.0
H2275 H 0.48297 0.98474 0.90213 0.0
H2276 H 0.47976 0.97156 0.93109 0.0
H2277 H 0.12069 0.28933 0.53517 0.0
H2278 H 0.12377 0.29049 0.50356 0.0
H2279 H 0.18637 0.31415 0.50911 0.0
H2280 H 0.18344 0.31307 0.54059 0.0
H2281 H 0.1459 0.32227 0.48195 0.0
H2282 H 0.16944 0.26612 0.4766 0.0
H2283 H 0.15847 0.26948 0.49589 0.0
H2284 H 0.1842 0.28574 0.49184 0.0
C2285 C 0.13513 0.29492 0.52963 0.0
C2286 C 0.15181 0.30092 0.54037 0.0
C2287 C 0.13684 0.29546 0.51159 0.0
C2288 C 0.15522 0.30193 0.504 0.0
C2289 C 0.17196 0.30853 0.5147 0.0
H2290 H 0.20137 0.3511 0.40655 0.0
H2291 H 0.19368 0.342 0.43679 0.0
C2292 C 0.17027 0.30796 0.53268 0.0
C2293 C 0.15719 0.30227 0.48491 0.0
H2294 H 0.17551 0.28682 0.45193 0.0
C2295 C 0.15214 0.31433 0.47535 0.0
C2296 C 0.16496 0.29157 0.47625 0.0
C2297 C 0.16939 0.27733 0.48564 0.0
C2298 C 0.15573 0.31688 0.45753 0.0
C2299 C 0.16484 0.30732 0.44916 0.0
C2300 C 0.16884 0.29437 0.45848 0.0
C2301 C 0.17132 0.31163 0.43099 0.0
C2302 C 0.15003 0.33002 0.44783 0.0
C2303 C 0.16217 0.29716 0.4178 0.0
C2304 C 0.16669 0.30227 0.40042 0.0
C2305 C 0.18041 0.32193 0.39609 0.0
C2306 C 0.1907 0.33586 0.40948 0.0
C2307 C 0.18619 0.33075 0.42675 0.0
H2308 H 0.13893 0.33217 0.45493 0.0
H2309 H 0.16329 0.34482 0.44618 0.0
H2310 H 0.144 0.32366 0.43476 0.0
H2311 H 0.15078 0.28225 0.42088 0.0
H2312 H 0.15839 0.29126 0.3904 0.0
H2313 H 0.71262 0.83384 0.53243 0.0
H2314 H 0.69637 0.82648 0.5039 0.0
H2315 H 0.69772 0.88261 0.50555 0.0
H2316 H 0.71383 0.89005 0.53416 0.0
H2317 H 0.6587 0.84079 0.4928 0.0
H2318 H 0.73099 0.86656 0.46118 0.0
H2319 H 0.72509 0.85124 0.48001 0.0
H2320 H 0.72917 0.876 0.48217 0.0
C2321 C 0.7091 0.84443 0.52686 0.0
C2322 C 0.71458 0.86258 0.53543 0.0
C2323 C 0.69989 0.84023 0.5106 0.0
C2324 C 0.69597 0.85406 0.50275 0.0
C2325 C 0.70068 0.87181 0.51151 0.0
H2326 H 0.67699 0.85791 0.39213 0.0
H2327 H 0.68595 0.86786 0.42263 0.0
C2328 C 0.70998 0.87608 0.52773 0.0
C2329 C 0.68836 0.8507 0.48484 0.0
H2330 H 0.70297 0.85376 0.44305 0.0
C2331 C 0.6683 0.84368 0.48185 0.0
C2332 C 0.70108 0.85473 0.47075 0.0
C2333 C 0.72283 0.86263 0.47353 0.0
C2334 C 0.66049 0.84031 0.46494 0.0
C2335 C 0.67315 0.84386 0.45076 0.0
C2336 C 0.69331 0.8512 0.45388 0.0
C2337 C 0.66577 0.83882 0.43265 0.0
C2338 C 0.63882 0.83309 0.4625 0.0
C2339 C 0.65129 0.81936 0.42822 0.0
C2340 C 0.64592 0.8138 0.41097 0.0
C2341 C 0.65531 0.82745 0.39766 0.0
C2342 C 0.66948 0.84711 0.40208 0.0
C2343 C 0.67462 0.85276 0.41948 0.0
H2344 H 0.63303 0.83788 0.47351 0.0
H2345 H 0.63582 0.83859 0.45032 0.0
H2346 H 0.6306 0.81661 0.462 0.0
H2347 H 0.64472 0.80816 0.43803 0.0
H2348 H 0.63507 0.79846 0.40807 0.0
H2349 H 0.17297 0.88265 0.54328 0.0
H2350 H 0.17693 0.8891 0.51225 0.0
H2351 H 0.13532 0.82737 0.50114 0.0
H2352 H 0.13115 0.82089 0.53219 0.0
H2353 H 0.19163 0.87272 0.49067 0.0
H2354 H 0.11783 0.85467 0.46679 0.0
H2355 H 0.1247 0.859 0.48948 0.0
H2356 H 0.11669 0.83502 0.47954 0.0
C2357 C 0.16458 0.87049 0.5342 0.0
C2358 C 0.15193 0.85121 0.54009 0.0
C2359 C 0.16672 0.87424 0.51651 0.0
C2360 C 0.15623 0.8588 0.5044 0.0
C2361 C 0.14317 0.83963 0.51026 0.0
H2362 H 0.17816 0.82026 0.41345 0.0
H2363 H 0.17815 0.83344 0.44218 0.0
C2364 C 0.14092 0.83589 0.52798 0.0
C2365 C 0.1608 0.86208 0.48578 0.0
H2366 H 0.1393 0.85201 0.44561 0.0
C2367 C 0.18027 0.86868 0.48082 0.0
C2368 C 0.14606 0.85714 0.47293 0.0
C2369 C 0.1252 0.85127 0.47746 0.0
C2370 C 0.18505 0.86885 0.46338 0.0
C2371 C 0.16996 0.86208 0.45066 0.0
C2372 C 0.15083 0.8571 0.45546 0.0
C2373 C 0.17293 0.85663 0.43304 0.0
C2374 C 0.20601 0.87525 0.45874 0.0
C2375 C 0.1703 0.86556 0.41836 0.0
C2376 C 0.17046 0.8581 0.40179 0.0
C2377 C 0.17281 0.84139 0.39984 0.0
C2378 C 0.17636 0.83317 0.41456 0.0
C2379 C 0.17641 0.84072 0.43099 0.0
H2380 H 0.21656 0.88557 0.46873 0.0
H2381 H 0.2078 0.86197 0.45794 0.0
H2382 H 0.2098 0.8826 0.446 0.0
H2383 H 0.16746 0.87779 0.41977 0.0
H2384 H 0.1675 0.86458 0.39065 0.0
H2385 H 0.63088 0.8397 0.13829 0.0
H2386 H 0.63224 0.83667 0.16979 0.0
H2387 H 0.62413 0.77789 0.16272 0.0
H2388 H 0.62311 0.78097 0.1313 0.0
H2389 H 0.60711 0.80899 0.1946 0.0
H2390 H 0.67764 0.80894 0.18756 0.0
H2391 H 0.66663 0.81542 0.17013 0.0
H2392 H 0.65727 0.7898 0.17534 0.0
C2393 C 0.6292 0.82608 0.1435 0.0
C2394 C 0.62732 0.81073 0.13241 0.0
C2395 C 0.6299 0.82433 0.16145 0.0
C2396 C 0.62861 0.80718 0.16852 0.0
C2397 C 0.62555 0.79139 0.15748 0.0
H2398 H 0.64124 0.79235 0.28086 0.0
H2399 H 0.62802 0.78363 0.25095 0.0
C2400 C 0.62506 0.7932 0.13958 0.0
C2401 C 0.63227 0.80654 0.18724 0.0
H2402 H 0.66551 0.80605 0.21569 0.0
C2403 C 0.61971 0.80807 0.19925 0.0
C2404 C 0.64888 0.80558 0.19321 0.0
C2405 C 0.6635 0.80502 0.18093 0.0
C2406 C 0.62357 0.80899 0.21714 0.0
C2407 C 0.64029 0.80827 0.223 0.0
C2408 C 0.65251 0.80621 0.21104 0.0
C2409 C 0.64732 0.81295 0.24111 0.0
C2410 C 0.61044 0.81176 0.22967 0.0
C2411 C 0.6627 0.83208 0.24517 0.0
C2412 C 0.67049 0.83691 0.26189 0.0
C2413 C 0.66293 0.82274 0.27501 0.0
C2414 C 0.64744 0.80348 0.27095 0.0
C2415 C 0.63978 0.79856 0.254 0.0
H2416 H 0.59733 0.81083 0.22314 0.0
H2417 H 0.60544 0.8003 0.23979 0.0
H2418 H 0.61891 0.8265 0.23627 0.0
H2419 H 0.66866 0.84333 0.23533 0.0
H2420 H 0.68211 0.85201 0.26462 0.0
H2421 H 0.15373 0.77046 0.13838 0.0
H2422 H 0.1445 0.77662 0.16702 0.0
H2423 H 0.19758 0.83368 0.17 0.0
H2424 H 0.20726 0.82748 0.14152 0.0
H2425 H 0.17925 0.79086 0.19766 0.0
H2426 H 0.14304 0.83578 0.18571 0.0
H2427 H 0.14146 0.81763 0.16991 0.0
H2428 H 0.16436 0.84015 0.17353 0.0
C2429 C 0.16336 0.78441 0.14504 0.0
C2430 C 0.18136 0.79837 0.1378 0.0
C2431 C 0.158 0.78793 0.16133 0.0
C2432 C 0.17041 0.80553 0.17052 0.0
C2433 C 0.18781 0.82003 0.16297 0.0
H2434 H 0.16852 0.85556 0.26862 0.0
H2435 H 0.17058 0.8475 0.23866 0.0
C2436 C 0.19325 0.8165 0.14668 0.0
C2437 C 0.16619 0.80779 0.18871 0.0
H2438 H 0.14605 0.82845 0.21465 0.0
C2439 C 0.17194 0.799 0.20148 0.0
C2440 C 0.15687 0.81858 0.19344 0.0
C2441 C 0.15098 0.82862 0.18001 0.0
C2442 C 0.16901 0.80114 0.2191 0.0
C2443 C 0.15929 0.81167 0.22396 0.0
C2444 C 0.15328 0.82018 0.21099 0.0
C2445 C 0.15696 0.8158 0.24239 0.0
C2446 C 0.17724 0.79289 0.23225 0.0
C2447 C 0.1484 0.80065 0.25468 0.0
C2448 C 0.14774 0.80534 0.2722 0.0
C2449 C 0.15488 0.82515 0.27747 0.0
C2450 C 0.16261 0.84008 0.26499 0.0
C2451 C 0.16381 0.8355 0.24776 0.0
H2452 H 0.18879 0.7903 0.22662 0.0
H2453 H 0.18369 0.80308 0.24363 0.0
H2454 H 0.16523 0.7784 0.23673 0.0
H2455 H 0.14243 0.78525 0.25079 0.0
H2456 H 0.14168 0.79357 0.28155 0.0
H2457 H 0.17099 0.33432 0.13566 0.0
H2458 H 0.16725 0.3331 0.16715 0.0
H2459 H 0.1886 0.39607 0.16925 0.0
H2460 H 0.19227 0.39745 0.13768 0.0
H2461 H 0.20305 0.364 0.19284 0.0
H2462 H 0.13068 0.36129 0.19554 0.0
H2463 H 0.13674 0.3509 0.17712 0.0
H2464 H 0.14934 0.37726 0.18059 0.0
C2465 C 0.17476 0.34788 0.1428 0.0
C2466 C 0.18191 0.36597 0.13422 0.0
C2467 C 0.17267 0.34717 0.16075 0.0
C2468 C 0.17752 0.36447 0.17038 0.0
C2469 C 0.1847 0.38257 0.16194 0.0
H2470 H 0.17459 0.36405 0.28474 0.0
H2471 H 0.17485 0.37635 0.25545 0.0
C2472 C 0.18691 0.38333 0.14397 0.0
C2473 C 0.17554 0.36346 0.18936 0.0
H2474 H 0.14288 0.35543 0.22155 0.0
C2475 C 0.19011 0.36253 0.19921 0.0
C2476 C 0.15867 0.36166 0.19751 0.0
C2477 C 0.14286 0.36282 0.18726 0.0
C2478 C 0.1878 0.35893 0.21699 0.0
C2479 C 0.17037 0.35591 0.22498 0.0
C2480 C 0.15622 0.35781 0.21532 0.0
C2481 C 0.16578 0.34809 0.24265 0.0
C2482 C 0.20356 0.35738 0.22701 0.0
C2483 C 0.15972 0.32803 0.24503 0.0
C2484 C 0.15974 0.3211 0.26154 0.0
C2485 C 0.16561 0.33408 0.27597 0.0
C2486 C 0.16985 0.35375 0.2738 0.0
C2487 C 0.17008 0.36079 0.25713 0.0
H2488 H 0.21759 0.36371 0.21984 0.0
H2489 H 0.20639 0.36518 0.23975 0.0
H2490 H 0.19846 0.34151 0.22943 0.0
H2491 H 0.15634 0.31806 0.23397 0.0
H2492 H 0.15635 0.30586 0.26291 0.0
H2493 H 0.84881 0.6392 0.87263 0.0
H2494 H 0.8519 0.64097 0.84116 0.0
H2495 H 0.79142 0.62683 0.83595 0.0
H2496 H 0.78834 0.62533 0.86756 0.0
H2497 H 0.83138 0.61223 0.8159 0.0
H2498 H 0.82031 0.67707 0.80797 0.0
H2499 H 0.8247 0.6698 0.82886 0.0
H2500 H 0.80085 0.65612 0.81859 0.0
C2501 C 0.83616 0.63642 0.86477 0.0
C2502 C 0.81836 0.63218 0.87253 0.0
C2503 C 0.83794 0.63744 0.8468 0.0
C2504 C 0.82195 0.6342 0.83621 0.0
C2505 C 0.80406 0.62975 0.84389 0.0
H2506 H 0.82316 0.62717 0.72236 0.0
H2507 H 0.81573 0.61702 0.75257 0.0
C2508 C 0.80232 0.6289 0.86192 0.0
C2509 C 0.82433 0.63568 0.81716 0.0
H2510 H 0.82584 0.66342 0.78271 0.0
C2511 C 0.83003 0.62331 0.80859 0.0
C2512 C 0.82255 0.65017 0.80768 0.0
C2513 C 0.81692 0.66417 0.81621 0.0
C2514 C 0.8345 0.62541 0.7909 0.0
C2515 C 0.83317 0.64018 0.78156 0.0
C2516 C 0.82689 0.65213 0.78998 0.0
C2517 C 0.83945 0.64453 0.76334 0.0
C2518 C 0.84137 0.61239 0.78243 0.0
C2519 C 0.85565 0.66302 0.75942 0.0
C2520 C 0.85994 0.66881 0.74226 0.0
C2521 C 0.84805 0.65625 0.72867 0.0
C2522 C 0.83275 0.63707 0.73254 0.0
C2523 C 0.8284 0.6313 0.7498 0.0
H2524 H 0.84396 0.60334 0.79197 0.0
H2525 H 0.83006 0.60219 0.77289 0.0
H2526 H 0.85519 0.62162 0.77531 0.0
H2527 H 0.8644 0.67339 0.76971 0.0
H2528 H 0.87178 0.68368 0.73968 0.0
H2529 H 0.37316 0.16283 0.86654 0.0
H2530 H 0.35764 0.15836 0.83792 0.0
H2531 H 0.36622 0.21756 0.8415 0.0
H2532 H 0.3814 0.22207 0.87026 0.0
H2533 H 0.32349 0.16733 0.82709 0.0
H2534 H 0.39687 0.21205 0.79675 0.0
H2535 H 0.39405 0.19929 0.81682 0.0
H2536 H 0.39164 0.22101 0.81651 0.0
C2537 C 0.37137 0.17474 0.8614 0.0
C2538 C 0.37867 0.19288 0.87056 0.0
C2539 C 0.3626 0.17219 0.84505 0.0
C2540 C 0.36104 0.18773 0.83764 0.0
C2541 C 0.36751 0.20551 0.84702 0.0
H2542 H 0.33702 0.19007 0.72628 0.0
H2543 H 0.34558 0.20173 0.75662 0.0
C2544 C 0.37624 0.20807 0.86337 0.0
C2545 C 0.35364 0.18571 0.8197 0.0
H2546 H 0.36922 0.19718 0.77816 0.0
C2547 C 0.33341 0.17401 0.81637 0.0
C2548 C 0.36666 0.19472 0.80587 0.0
C2549 C 0.38855 0.20746 0.80901 0.0
C2550 C 0.32582 0.17063 0.79939 0.0
C2551 C 0.33895 0.17864 0.78538 0.0
C2552 C 0.35914 0.19107 0.78885 0.0
C2553 C 0.33242 0.1722 0.76719 0.0
C2554 C 0.3038 0.15832 0.79672 0.0
C2555 C 0.3224 0.15187 0.76306 0.0
C2556 C 0.31717 0.14528 0.74604 0.0
C2557 C 0.32239 0.15883 0.73246 0.0
C2558 C 0.33263 0.17929 0.73646 0.0
C2559 C 0.33754 0.18593 0.75375 0.0
H2560 H 0.29594 0.16036 0.80777 0.0
H2561 H 0.2989 0.16219 0.7846 0.0
H2562 H 0.29941 0.14236 0.79607 0.0
H2563 H 0.31907 0.14098 0.77299 0.0
H2564 H 0.30969 0.12941 0.74353 0.0
H2565 H 0.79899 0.15157 0.86614 0.0
H2566 H 0.80376 0.15637 0.83484 0.0
H2567 H 0.84031 0.21956 0.84363 0.0
H2568 H 0.83608 0.21472 0.87491 0.0
H2569 H 0.79725 0.17862 0.81062 0.0
H2570 H 0.87727 0.20524 0.81906 0.0
H2571 H 0.86002 0.19397 0.83633 0.0
H2572 H 0.86832 0.21925 0.83062 0.0
C2573 C 0.80788 0.16647 0.86132 0.0
C2574 C 0.81752 0.18274 0.87282 0.0
C2575 C 0.81056 0.16922 0.8435 0.0
C2576 C 0.82274 0.18828 0.837 0.0
C2577 C 0.83129 0.20469 0.84844 0.0
H2578 H 0.83388 0.19497 0.72324 0.0
H2579 H 0.83439 0.20759 0.75271 0.0
C2580 C 0.82886 0.20192 0.86624 0.0
C2581 C 0.82757 0.19065 0.81841 0.0
H2582 H 0.86522 0.20174 0.79063 0.0
C2583 C 0.81215 0.18401 0.80619 0.0
C2584 C 0.84705 0.19761 0.81276 0.0
C2585 C 0.86413 0.20429 0.82534 0.0
C2586 C 0.81557 0.18334 0.78847 0.0
C2587 C 0.83493 0.1897 0.78292 0.0
C2588 C 0.85047 0.19719 0.79502 0.0
C2589 C 0.8386 0.18522 0.76522 0.0
C2590 C 0.79832 0.1746 0.7759 0.0
C2591 C 0.84181 0.16919 0.76266 0.0
C2592 C 0.84146 0.16199 0.74601 0.0
C2593 C 0.83809 0.17084 0.73166 0.0
C2594 C 0.83666 0.18801 0.73412 0.0
C2595 C 0.83678 0.19511 0.75089 0.0
H2596 H 0.78404 0.1692 0.7825 0.0
H2597 H 0.80011 0.18601 0.76647 0.0
H2598 H 0.79784 0.16201 0.7685 0.0
H2599 H 0.84328 0.16143 0.77361 0.0
H2600 H 0.84266 0.14875 0.74442 0.0
H2601 H 0.29992 0.12125 0.46486 0.0
H2602 H 0.30141 0.11824 0.49628 0.0
H2603 H 0.29446 0.16941 0.50395 0.0
H2604 H 0.2931 0.17267 0.4725 0.0
H2605 H 0.33059 0.16717 0.51999 0.0
H2606 H 0.25527 0.10601 0.53492 0.0
H2607 H 0.26659 0.1043 0.51519 0.0
H2608 H 0.2599 0.12311 0.51756 0.0
C2609 C 0.29871 0.13187 0.47323 0.0
C2610 C 0.29661 0.14734 0.46621 0.0
C2611 C 0.29933 0.12998 0.49114 0.0
C2612 C 0.29787 0.14351 0.50232 0.0
C2613 C 0.29542 0.15874 0.49544 0.0
H2614 H 0.2974 0.14709 0.61463 0.0
H2615 H 0.28792 0.1431 0.58395 0.0
C2616 C 0.29466 0.16057 0.47751 0.0
C2617 C 0.30089 0.14285 0.52113 0.0
H2618 H 0.27897 0.11745 0.55766 0.0
C2619 C 0.31933 0.15636 0.52828 0.0
C2620 C 0.28603 0.12888 0.5318 0.0
C2621 C 0.26574 0.11474 0.52462 0.0
C2622 C 0.3235 0.15614 0.54592 0.0
C2623 C 0.30893 0.14156 0.55659 0.0
C2624 C 0.29025 0.12833 0.54944 0.0
C2625 C 0.31274 0.14045 0.5753 0.0
C2626 C 0.34334 0.1719 0.55294 0.0
C2627 C 0.3292 0.13915 0.58075 0.0
C2628 C 0.33489 0.14193 0.59821 0.0
C2629 C 0.32372 0.14515 0.61056 0.0
C2630 C 0.30614 0.14439 0.60535 0.0
C2631 C 0.30077 0.14221 0.58781 0.0
H2632 H 0.35017 0.18506 0.54449 0.0
H2633 H 0.34215 0.17692 0.56617 0.0
H2634 H 0.3534 0.16574 0.55348 0.0
H2635 H 0.33825 0.13705 0.5714 0.0
H2636 H 0.34847 0.14242 0.60198 0.0
H2637 H 0.87795 0.16458 0.47541 0.0
H2638 H 0.86761 0.17067 0.5036 0.0
H2639 H 0.81608 0.11236 0.50112 0.0
H2640 H 0.82606 0.10624 0.4728 0.0
H2641 H 0.82319 0.16118 0.51612 0.0
H2642 H 0.85832 0.12029 0.54391 0.0
H2643 H 0.86682 0.13401 0.52415 0.0
H2644 H 0.84394 0.11103 0.52416 0.0
C2645 C 0.86413 0.15329 0.48063 0.0
C2646 C 0.85291 0.13483 0.47204 0.0
C2647 C 0.85829 0.15678 0.49671 0.0
C2648 C 0.84118 0.14189 0.50431 0.0
C2649 C 0.82933 0.12396 0.49534 0.0
H2650 H 0.81139 0.13221 0.61417 0.0
H2651 H 0.80871 0.12415 0.58296 0.0
C2652 C 0.83514 0.12045 0.47929 0.0
C2653 C 0.837 0.14407 0.52247 0.0
H2654 H 0.84385 0.13249 0.56336 0.0
C2655 C 0.82751 0.15481 0.52648 0.0
C2656 C 0.84278 0.13573 0.53581 0.0
C2657 C 0.8536 0.12465 0.53195 0.0
C2658 C 0.8238 0.15758 0.54374 0.0
C2659 C 0.82981 0.14943 0.55711 0.0
C2660 C 0.83896 0.13838 0.55301 0.0
C2661 C 0.82914 0.15428 0.5755 0.0
C2662 C 0.81375 0.1694 0.5476 0.0
C2663 C 0.84147 0.17378 0.58143 0.0
C2664 C 0.8432 0.1783 0.59903 0.0
C2665 C 0.83262 0.1634 0.61111 0.0
C2666 C 0.81968 0.14394 0.60514 0.0
C2667 C 0.81812 0.13936 0.58739 0.0
H2668 H 0.8056 0.17018 0.53609 0.0
H2669 H 0.80336 0.16285 0.55846 0.0
H2670 H 0.82501 0.18479 0.55147 0.0
H2671 H 0.85038 0.1854 0.57248 0.0
H2672 H 0.85321 0.19349 0.60321 0.0
H2673 H 0.86831 0.73287 0.47293 0.0
H2674 H 0.86543 0.73157 0.50453 0.0
H2675 H 0.82703 0.66811 0.50092 0.0
H2676 H 0.83023 0.66916 0.46947 0.0
H2677 H 0.83052 0.7168 0.52475 0.0
H2678 H 0.87023 0.67558 0.53585 0.0
H2679 H 0.87182 0.68803 0.51584 0.0
H2680 H 0.85101 0.66389 0.51974 0.0
C2681 C 0.85946 0.71861 0.4789 0.0
C2682 C 0.84955 0.70109 0.46871 0.0
C2683 C 0.85771 0.71794 0.49691 0.0
C2684 C 0.84618 0.69974 0.50502 0.0
C2685 C 0.8362 0.68227 0.4949 0.0
H2686 H 0.80491 0.64448 0.59953 0.0
H2687 H 0.80795 0.6572 0.57031 0.0
C2688 C 0.83791 0.68292 0.47693 0.0
C2689 C 0.8443 0.69877 0.52405 0.0
H2690 H 0.84998 0.67558 0.55889 0.0
C2691 C 0.83502 0.70805 0.53232 0.0
C2692 C 0.85046 0.68759 0.53387 0.0
C2693 C 0.86162 0.67837 0.52592 0.0
C2694 C 0.83061 0.70532 0.55004 0.0
C2695 C 0.83564 0.69307 0.55952 0.0
C2696 C 0.84587 0.68473 0.55144 0.0
C2697 C 0.82952 0.68743 0.57755 0.0
C2698 C 0.8199 0.71476 0.5584 0.0
C2699 C 0.83975 0.70054 0.5914 0.0
C2700 C 0.83777 0.69332 0.60823 0.0
C2701 C 0.82584 0.6729 0.61116 0.0
C2702 C 0.81415 0.66028 0.59755 0.0
C2703 C 0.81594 0.66751 0.58087 0.0
H2704 H 0.81616 0.72311 0.54901 0.0
H2705 H 0.80615 0.70315 0.56433 0.0
H2706 H 0.82924 0.72512 0.56894 0.0
H2707 H 0.85045 0.71592 0.58902 0.0
H2708 H 0.84711 0.70327 0.6185 0.0
loop_
_geom_bond_atom_site_label_1
_geom_bond_atom_site_label_2
_geom_bond_distance
_geom_bond_site_symmetry_2
_ccdc_geom_bond_type
P0 O11 1.490 . S
P0 C14 1.812 . S
P0 C20 1.803 . S
P0 C26 1.819 . S
H1 C15 0.941 . S
H2 C16 0.939 . S
H3 C18 0.940 . S
H4 C19 0.940 . S
H5 C21 0.939 . S
H6 C22 0.942 . S
H7 C24 0.940 . S
H8 C25 0.939 . S
H9 C27 0.941 . S
H10 C31 0.939 . S
O11 P0 1.490 . S
H12 C28 0.939 . S
H13 C30 0.940 . S
C14 P0 1.812 . S
C14 C15 1.389 . S
C14 C19 1.391 . S
C15 H1 0.941 . S
C15 C14 1.389 . S
C15 C16 1.397 . S
C16 H2 0.939 . S
C16 C15 1.397 . S
C16 C17 1.378 . S
C17 C16 1.378 . S
C17 C18 1.378 . S
C18 H3 0.940 . S
C18 C17 1.378 . S
C18 C19 1.396 . S
C19 H4 0.940 . S
C19 C14 1.391 . S
C19 C18 1.396 . S
C20 P0 1.803 . S
C20 C21 1.378 . S
C20 C25 1.400 . S
C21 H5 0.939 . S
C21 C20 1.378 . S
C21 C22 1.361 . S
C22 H6 0.942 . S
C22 C21 1.361 . S
C22 C23 1.369 . S
C23 C22 1.369 . S
C23 C24 1.404 . S
C24 H7 0.940 . S
C24 C23 1.404 . S
C24 C25 1.389 . S
C25 H8 0.939 . S
C25 C20 1.400 . S
C25 C24 1.389 . S
C26 P0 1.819 . S
C26 C27 1.391 . S
C26 C31 1.391 . S
C27 H9 0.941 . S
C27 C26 1.391 . S
C27 C28 1.396 . S
C28 H12 0.939 . S
C28 C27 1.396 . S
C28 C29 1.397 . S
C29 C28 1.397 . S
C29 C30 1.385 . S
C30 H13 0.940 . S
C30 C29 1.385 . S
C30 C31 1.388 . S
C31 H10 0.939 . S
C31 C26 1.391 . S
C31 C30 1.388 . S
P32 O43 1.490 . S
P32 C46 1.812 . S
P32 C52 1.803 . S
P32 C58 1.819 . S
H33 C47 0.941 . S
H34 C48 0.939 . S
H35 C50 0.940 . S
H36 C51 0.940 . S
H37 C53 0.939 . S
H38 C54 0.942 . S
H39 C56 0.940 . S
H40 C57 0.939 . S
H41 C59 0.941 . S
H42 C63 0.939 . S
O43 P32 1.490 . S
H44 C60 0.939 . S
H45 C62 0.940 . S
C46 P32 1.812 . S
C46 C47 1.389 . S
C46 C51 1.391 . S
C47 H33 0.941 . S
C47 C46 1.389 . S
C47 C48 1.397 . S
C48 H34 0.939 . S
C48 C47 1.397 . S
C48 C49 1.378 . S
C49 C48 1.378 . S
C49 C50 1.378 . S
C50 H35 0.940 . S
C50 C49 1.378 . S
C50 C51 1.396 . S
C51 H36 0.940 . S
C51 C46 1.391 . S
C51 C50 1.396 . S
C52 P32 1.803 . S
C52 C53 1.378 . S
C52 C57 1.400 . S
C53 H37 0.939 . S
C53 C52 1.378 . S
C53 C54 1.361 . S
C54 H38 0.942 . S
C54 C53 1.361 . S
C54 C55 1.369 . S
C55 C54 1.369 . S
C55 C56 1.404 . S
C56 H39 0.940 . S
C56 C55 1.404 . S
C56 C57 1.389 . S
C57 H40 0.939 . S
C57 C52 1.400 . S
C57 C56 1.389 . S
C58 P32 1.819 . S
C58 C59 1.391 . S
C58 C63 1.391 . S
C59 H41 0.941 . S
C59 C58 1.391 . S
C59 C60 1.396 . S
C60 H44 0.939 . S
C60 C59 1.396 . S
C60 C61 1.397 . S
C61 C60 1.397 . S
C61 C62 1.385 . S
C62 H45 0.940 . S
C62 C61 1.385 . S
C62 C63 1.388 . S
C63 H42 0.939 . S
C63 C58 1.391 . S
C63 C62 1.388 . S
P64 O75 1.490 . S
P64 C78 1.812 . S
P64 C84 1.803 . S
P64 C90 1.819 . S
H65 C79 0.941 . S
H66 C80 0.939 . S
H67 C82 0.940 . S
H68 C83 0.940 . S
H69 C85 0.939 . S
H70 C86 0.942 . S
H71 C88 0.940 . S
H72 C89 0.939 . S
H73 C91 0.941 . S
H74 C95 0.939 . S
O75 P64 1.490 . S
H76 C92 0.939 . S
H77 C94 0.940 . S
C78 P64 1.812 . S
C78 C79 1.389 . S
C78 C83 1.391 . S
C79 H65 0.941 . S
C79 C78 1.389 . S
C79 C80 1.397 . S
C80 H66 0.939 . S
C80 C79 1.397 . S
C80 C81 1.378 . S
C81 C80 1.378 . S
C81 C82 1.378 . S
C82 H67 0.940 . S
C82 C81 1.378 . S
C82 C83 1.396 . S
C83 H68 0.940 . S
C83 C78 1.391 . S
C83 C82 1.396 . S
C84 P64 1.803 . S
C84 C85 1.378 . S
C84 C89 1.400 . S
C85 H69 0.939 . S
C85 C84 1.378 . S
C85 C86 1.361 . S
C86 H70 0.942 . S
C86 C85 1.361 . S
C86 C87 1.369 . S
C87 C86 1.369 . S
C87 C88 1.404 . S
C88 H71 0.940 . S
C88 C87 1.404 . S
C88 C89 1.389 . S
C89 H72 0.939 . S
C89 C84 1.400 . S
C89 C88 1.389 . S
C90 P64 1.819 . S
C90 C91 1.391 . S
C90 C95 1.391 . S
C91 H73 0.941 . S
C91 C90 1.391 . S
C91 C92 1.396 . S
C92 H76 0.939 . S
C92 C91 1.396 . S
C92 C93 1.397 . S
C93 C92 1.397 . S
C93 C94 1.385 . S
C94 H77 0.940 . S
C94 C93 1.385 . S
C94 C95 1.388 . S
C95 H74 0.939 . S
C95 C90 1.391 . S
C95 C94 1.388 . S
P96 O107 1.490 . S
P96 C110 1.812 . S
P96 C116 1.803 . S
P96 C122 1.819 . S
H97 C111 0.941 . S
H98 C112 0.939 . S
H99 C114 0.940 . S
H100 C115 0.940 . S
H101 C117 0.939 . S
H102 C118 0.942 . S
H103 C120 0.940 . S
H104 C121 0.939 . S
H105 C123 0.941 . S
H106 C127 0.939 . S
O107 P96 1.490 . S
H108 C124 0.939 . S
H109 C126 0.940 . S
C110 P96 1.812 . S
C110 C111 1.389 . S
C110 C115 1.391 . S
C111 H97 0.941 . S
C111 C110 1.389 . S
C111 C112 1.397 . S
C112 H98 0.939 . S
C112 C111 1.397 . S
C112 C113 1.378 . S
C113 C112 1.378 . S
C113 C114 1.378 . S
C114 H99 0.940 . S
C114 C113 1.378 . S
C114 C115 1.396 . S
C115 H100 0.940 . S
C115 C110 1.391 . S
C115 C114 1.396 . S
C116 P96 1.803 . S
C116 C117 1.378 . S
C116 C121 1.400 . S
C117 H101 0.939 . S
C117 C116 1.378 . S
C117 C118 1.361 . S
C118 H102 0.942 . S
C118 C117 1.361 . S
C118 C119 1.369 . S
C119 C118 1.369 . S
C119 C120 1.404 . S
C120 H103 0.940 . S
C120 C119 1.404 . S
C120 C121 1.389 . S
C121 H104 0.939 . S
C121 C116 1.400 . S
C121 C120 1.389 . S
C122 P96 1.819 . S
C122 C123 1.391 . S
C122 C127 1.391 . S
C123 H105 0.941 . S
C123 C122 1.391 . S
C123 C124 1.396 . S
C124 H108 0.939 . S
C124 C123 1.396 . S
C124 C125 1.397 . S
C125 C124 1.397 . S
C125 C126 1.385 . S
C126 H109 0.940 . S
C126 C125 1.385 . S
C126 C127 1.388 . S
C127 H106 0.939 . S
C127 C122 1.391 . S
C127 C126 1.388 . S
P128 O139 1.490 . S
P128 C142 1.812 . S
P128 C148 1.803 . S
P128 C154 1.819 . S
H129 C143 0.941 . S
H130 C144 0.939 . S
H131 C146 0.940 . S
H132 C147 0.940 . S
H133 C149 0.939 . S
H134 C150 0.942 . S
H135 C152 0.940 . S
H136 C153 0.939 . S
H137 C155 0.941 . S
H138 C159 0.939 . S
O139 P128 1.490 . S
H140 C156 0.939 . S
H141 C158 0.940 . S
C142 P128 1.812 . S
C142 C143 1.389 . S
C142 C147 1.391 . S
C143 H129 0.941 . S
C143 C142 1.389 . S
C143 C144 1.397 . S
C144 H130 0.939 . S
C144 C143 1.397 . S
C144 C145 1.378 . S
C145 C144 1.378 . S
C145 C146 1.378 . S
C146 H131 0.940 . S
C146 C145 1.378 . S
C146 C147 1.396 . S
C147 H132 0.940 . S
C147 C142 1.391 . S
C147 C146 1.396 . S
C148 P128 1.803 . S
C148 C149 1.378 . S
C148 C153 1.400 . S
C149 H133 0.939 . S
C149 C148 1.378 . S
C149 C150 1.361 . S
C150 H134 0.942 . S
C150 C149 1.361 . S
C150 C151 1.369 . S
C151 C150 1.369 . S
C151 C152 1.404 . S
C152 H135 0.940 . S
C152 C151 1.404 . S
C152 C153 1.389 . S
C153 H136 0.939 . S
C153 C148 1.400 . S
C153 C152 1.389 . S
C154 P128 1.819 . S
C154 C155 1.391 . S
C154 C159 1.391 . S
C155 H137 0.941 . S
C155 C154 1.391 . S
C155 C156 1.396 . S
C156 H140 0.939 . S
C156 C155 1.396 . S
C156 C157 1.397 . S
C157 C156 1.397 . S
C157 C158 1.385 . S
C158 H141 0.940 . S
C158 C157 1.385 . S
C158 C159 1.388 . S
C159 H138 0.939 . S
C159 C154 1.391 . S
C159 C158 1.388 . S
P160 O171 1.490 . S
P160 C174 1.812 . S
P160 C180 1.803 . S
P160 C186 1.819 . S
H161 C175 0.941 . S
H162 C176 0.939 . S
H163 C178 0.940 . S
H164 C179 0.940 . S
H165 C181 0.939 . S
H166 C182 0.942 . S
H167 C184 0.940 . S
H168 C185 0.939 . S
H169 C187 0.941 . S
H170 C191 0.939 . S
O171 P160 1.490 . S
H172 C188 0.939 . S
H173 C190 0.940 . S
C174 P160 1.812 . S
C174 C175 1.389 . S
C174 C179 1.391 . S
C175 H161 0.941 . S
C175 C174 1.389 . S
C175 C176 1.397 . S
C176 H162 0.939 . S
C176 C175 1.397 . S
C176 C177 1.378 . S
C177 C176 1.378 . S
C177 C178 1.378 . S
C178 H163 0.940 . S
C178 C177 1.378 . S
C178 C179 1.396 . S
C179 H164 0.940 . S
C179 C174 1.391 . S
C179 C178 1.396 . S
C180 P160 1.803 . S
C180 C181 1.378 . S
C180 C185 1.400 . S
C181 H165 0.939 . S
C181 C180 1.378 . S
C181 C182 1.361 . S
C182 H166 0.942 . S
C182 C181 1.361 . S
C182 C183 1.369 . S
C183 C182 1.369 . S
C183 C184 1.404 . S
C184 H167 0.940 . S
C184 C183 1.404 . S
C184 C185 1.389 . S
C185 H168 0.939 . S
C185 C180 1.400 . S
C185 C184 1.389 . S
C186 P160 1.819 . S
C186 C187 1.391 . S
C186 C191 1.391 . S
C187 H169 0.941 . S
C187 C186 1.391 . S
C187 C188 1.396 . S
C188 H172 0.939 . S
C188 C187 1.396 . S
C188 C189 1.397 . S
C189 C188 1.397 . S
C189 C190 1.385 . S
C190 H173 0.940 . S
C190 C189 1.385 . S
C190 C191 1.388 . S
C191 H170 0.939 . S
C191 C186 1.391 . S
C191 C190 1.388 . S
P192 O203 1.490 . S
P192 C206 1.812 . S
P192 C212 1.803 . S
P192 C218 1.819 . S
H193 C207 0.941 . S
H194 C208 0.939 . S
H195 C210 0.940 . S
H196 C211 0.940 . S
H197 C213 0.939 . S
H198 C214 0.942 . S
H199 C216 0.940 . S
H200 C217 0.939 . S
H201 C219 0.941 . S
H202 C223 0.939 . S
O203 P192 1.490 . S
H204 C220 0.939 . S
H205 C222 0.940 . S
C206 P192 1.812 . S
C206 C207 1.389 . S
C206 C211 1.391 . S
C207 H193 0.941 . S
C207 C206 1.389 . S
C207 C208 1.397 . S
C208 H194 0.939 . S
C208 C207 1.397 . S
C208 C209 1.378 . S
C209 C208 1.378 . S
C209 C210 1.378 . S
C210 H195 0.940 . S
C210 C209 1.378 . S
C210 C211 1.396 . S
C211 H196 0.940 . S
C211 C206 1.391 . S
C211 C210 1.396 . S
C212 P192 1.803 . S
C212 C213 1.378 . S
C212 C217 1.400 . S
C213 H197 0.939 . S
C213 C212 1.378 . S
C213 C214 1.361 . S
C214 H198 0.942 . S
C214 C213 1.361 . S
C214 C215 1.369 . S
C215 C214 1.369 . S
C215 C216 1.404 . S
C216 H199 0.940 . S
C216 C215 1.404 . S
C216 C217 1.389 . S
C217 H200 0.939 . S
C217 C212 1.400 . S
C217 C216 1.389 . S
C218 P192 1.819 . S
C218 C219 1.391 . S
C218 C223 1.391 . S
C219 H201 0.941 . S
C219 C218 1.391 . S
C219 C220 1.396 . S
C220 H204 0.939 . S
C220 C219 1.396 . S
C220 C221 1.397 . S
C221 C220 1.397 . S
C221 C222 1.385 . S
C222 H205 0.940 . S
C222 C221 1.385 . S
C222 C223 1.388 . S
C223 H202 0.939 . S
C223 C218 1.391 . S
C223 C222 1.388 . S
P224 O235 1.490 . S
P224 C238 1.812 . S
P224 C244 1.803 . S
P224 C250 1.819 . S
H225 C239 0.941 . S
H226 C240 0.939 . S
H227 C242 0.940 . S
H228 C243 0.940 . S
H229 C245 0.939 . S
H230 C246 0.942 . S
H231 C248 0.940 . S
H232 C249 0.939 . S
H233 C251 0.941 . S
H234 C255 0.939 . S
O235 P224 1.490 . S
H236 C252 0.939 . S
H237 C254 0.940 . S
C238 P224 1.812 . S
C238 C239 1.389 . S
C238 C243 1.391 . S
C239 H225 0.941 . S
C239 C238 1.389 . S
C239 C240 1.397 . S
C240 H226 0.939 . S
C240 C239 1.397 . S
C240 C241 1.378 . S
C241 C240 1.378 . S
C241 C242 1.378 . S
C242 H227 0.940 . S
C242 C241 1.378 . S
C242 C243 1.396 . S
C243 H228 0.940 . S
C243 C238 1.391 . S
C243 C242 1.396 . S
C244 P224 1.803 . S
C244 C245 1.378 . S
C244 C249 1.400 . S
C245 H229 0.939 . S
C245 C244 1.378 . S
C245 C246 1.361 . S
C246 H230 0.942 . S
C246 C245 1.361 . S
C246 C247 1.369 . S
C247 C246 1.369 . S
C247 C248 1.404 . S
C248 H231 0.940 . S
C248 C247 1.404 . S
C248 C249 1.389 . S
C249 H232 0.939 . S
C249 C244 1.400 . S
C249 C248 1.389 . S
C250 P224 1.819 . S
C250 C251 1.391 . S
C250 C255 1.391 . S
C251 H233 0.941 . S
C251 C250 1.391 . S
C251 C252 1.396 . S
C252 H236 0.939 . S
C252 C251 1.396 . S
C252 C253 1.397 . S
C253 C252 1.397 . S
C253 C254 1.385 . S
C254 H237 0.940 . S
C254 C253 1.385 . S
C254 C255 1.388 . S
C255 H234 0.939 . S
C255 C250 1.391 . S
C255 C254 1.388 . S
P256 O267 1.490 . S
P256 C270 1.812 . S
P256 C276 1.803 . S
P256 C282 1.819 . S
H257 C271 0.941 . S
H258 C272 0.939 . S
H259 C274 0.940 . S
H260 C275 0.940 . S
H261 C277 0.939 . S
H262 C278 0.942 . S
H263 C280 0.940 . S
H264 C281 0.939 . S
H265 C283 0.941 . S
H266 C287 0.939 . S
O267 P256 1.490 . S
H268 C284 0.939 . S
H269 C286 0.940 . S
C270 P256 1.812 . S
C270 C271 1.389 . S
C270 C275 1.391 . S
C271 H257 0.941 . S
C271 C270 1.389 . S
C271 C272 1.397 . S
C272 H258 0.939 . S
C272 C271 1.397 . S
C272 C273 1.378 . S
C273 C272 1.378 . S
C273 C274 1.378 . S
C274 H259 0.940 . S
C274 C273 1.378 . S
C274 C275 1.396 . S
C275 H260 0.940 . S
C275 C270 1.391 . S
C275 C274 1.396 . S
C276 P256 1.803 . S
C276 C277 1.378 . S
C276 C281 1.400 . S
C277 H261 0.939 . S
C277 C276 1.378 . S
C277 C278 1.361 . S
C278 H262 0.942 . S
C278 C277 1.361 . S
C278 C279 1.369 . S
C279 C278 1.369 . S
C279 C280 1.404 . S
C280 H263 0.940 . S
C280 C279 1.404 . S
C280 C281 1.389 . S
C281 H264 0.939 . S
C281 C276 1.400 . S
C281 C280 1.389 . S
C282 P256 1.819 . S
C282 C283 1.391 . S
C282 C287 1.391 . S
C283 H265 0.941 . S
C283 C282 1.391 . S
C283 C284 1.396 . S
C284 H268 0.939 . S
C284 C283 1.396 . S
C284 C285 1.397 . S
C285 C284 1.397 . S
C285 C286 1.385 . S
C286 H269 0.940 . S
C286 C285 1.385 . S
C286 C287 1.388 . S
C287 H266 0.939 . S
C287 C282 1.391 . S
C287 C286 1.388 . S
P288 O299 1.490 . S
P288 C302 1.812 . S
P288 C308 1.803 . S
P288 C314 1.819 . S
H289 C303 0.941 . S
H290 C304 0.939 . S
H291 C306 0.940 . S
H292 C307 0.940 . S
H293 C309 0.939 . S
H294 C310 0.942 . S
H295 C312 0.940 . S
H296 C313 0.939 . S
H297 C315 0.941 . S
H298 C319 0.939 . S
O299 P288 1.490 . S
H300 C316 0.939 . S
H301 C318 0.940 . S
C302 P288 1.812 . S
C302 C303 1.389 . S
C302 C307 1.391 . S
C303 H289 0.941 . S
C303 C302 1.389 . S
C303 C304 1.397 . S
C304 H290 0.939 . S
C304 C303 1.397 . S
C304 C305 1.378 . S
C305 C304 1.378 . S
C305 C306 1.378 . S
C306 H291 0.940 . S
C306 C305 1.378 . S
C306 C307 1.396 . S
C307 H292 0.940 . S
C307 C302 1.391 . S
C307 C306 1.396 . S
C308 P288 1.803 . S
C308 C309 1.378 . S
C308 C313 1.400 . S
C309 H293 0.939 . S
C309 C308 1.378 . S
C309 C310 1.361 . S
C310 H294 0.942 . S
C310 C309 1.361 . S
C310 C311 1.369 . S
C311 C310 1.369 . S
C311 C312 1.404 . S
C312 H295 0.940 . S
C312 C311 1.404 . S
C312 C313 1.389 . S
C313 H296 0.939 . S
C313 C308 1.400 . S
C313 C312 1.389 . S
C314 P288 1.819 . S
C314 C315 1.391 . S
C314 C319 1.391 . S
C315 H297 0.941 . S
C315 C314 1.391 . S
C315 C316 1.396 . S
C316 H300 0.939 . S
C316 C315 1.396 . S
C316 C317 1.397 . S
C317 C316 1.397 . S
C317 C318 1.385 . S
C318 H301 0.940 . S
C318 C317 1.385 . S
C318 C319 1.388 . S
C319 H298 0.939 . S
C319 C314 1.391 . S
C319 C318 1.388 . S
P320 O331 1.490 . S
P320 C334 1.812 . S
P320 C340 1.803 . S
P320 C346 1.819 . S
H321 C335 0.941 . S
H322 C336 0.939 . S
H323 C338 0.940 . S
H324 C339 0.940 . S
H325 C341 0.939 . S
H326 C342 0.942 . S
H327 C344 0.940 . S
H328 C345 0.939 . S
H329 C347 0.941 . S
H330 C351 0.939 . S
O331 P320 1.490 . S
H332 C348 0.939 . S
H333 C350 0.940 . S
C334 P320 1.812 . S
C334 C335 1.389 . S
C334 C339 1.391 . S
C335 H321 0.941 . S
C335 C334 1.389 . S
C335 C336 1.397 . S
C336 H322 0.939 . S
C336 C335 1.397 . S
C336 C337 1.378 . S
C337 C336 1.378 . S
C337 C338 1.378 . S
C338 H323 0.940 . S
C338 C337 1.378 . S
C338 C339 1.396 . S
C339 H324 0.940 . S
C339 C334 1.391 . S
C339 C338 1.396 . S
C340 P320 1.803 . S
C340 C341 1.378 . S
C340 C345 1.400 . S
C341 H325 0.939 . S
C341 C340 1.378 . S
C341 C342 1.361 . S
C342 H326 0.942 . S
C342 C341 1.361 . S
C342 C343 1.369 . S
C343 C342 1.369 . S
C343 C344 1.404 . S
C344 H327 0.940 . S
C344 C343 1.404 . S
C344 C345 1.389 . S
C345 H328 0.939 . S
C345 C340 1.400 . S
C345 C344 1.389 . S
C346 P320 1.819 . S
C346 C347 1.391 . S
C346 C351 1.391 . S
C347 H329 0.941 . S
C347 C346 1.391 . S
C347 C348 1.396 . S
C348 H332 0.939 . S
C348 C347 1.396 . S
C348 C349 1.397 . S
C349 C348 1.397 . S
C349 C350 1.385 . S
C350 H333 0.940 . S
C350 C349 1.385 . S
C350 C351 1.388 . S
C351 H330 0.939 . S
C351 C346 1.391 . S
C351 C350 1.388 . S
P352 O363 1.490 . S
P352 C366 1.812 . S
P352 C372 1.803 . S
P352 C378 1.819 . S
H353 C367 0.941 . S
H354 C368 0.939 . S
H355 C370 0.940 . S
H356 C371 0.940 . S
H357 C373 0.939 . S
H358 C374 0.942 . S
H359 C376 0.940 . S
H360 C377 0.939 . S
H361 C379 0.941 . S
H362 C383 0.939 . S
O363 P352 1.490 . S
H364 C380 0.939 . S
H365 C382 0.940 . S
C366 P352 1.812 . S
C366 C367 1.389 . S
C366 C371 1.391 . S
C367 H353 0.941 . S
C367 C366 1.389 . S
C367 C368 1.397 . S
C368 H354 0.939 . S
C368 C367 1.397 . S
C368 C369 1.378 . S
C369 C368 1.378 . S
C369 C370 1.378 . S
C370 H355 0.940 . S
C370 C369 1.378 . S
C370 C371 1.396 . S
C371 H356 0.940 . S
C371 C366 1.391 . S
C371 C370 1.396 . S
C372 P352 1.803 . S
C372 C373 1.378 . S
C372 C377 1.400 . S
C373 H357 0.939 . S
C373 C372 1.378 . S
C373 C374 1.361 . S
C374 H358 0.942 . S
C374 C373 1.361 . S
C374 C375 1.369 . S
C375 C374 1.369 . S
C375 C376 1.404 . S
C376 H359 0.940 . S
C376 C375 1.404 . S
C376 C377 1.389 . S
C377 H360 0.939 . S
C377 C372 1.400 . S
C377 C376 1.389 . S
C378 P352 1.819 . S
C378 C379 1.391 . S
C378 C383 1.391 . S
C379 H361 0.941 . S
C379 C378 1.391 . S
C379 C380 1.396 . S
C380 H364 0.939 . S
C380 C379 1.396 . S
C380 C381 1.397 . S
C381 C380 1.397 . S
C381 C382 1.385 . S
C382 H365 0.940 . S
C382 C381 1.385 . S
C382 C383 1.388 . S
C383 H362 0.939 . S
C383 C378 1.391 . S
C383 C382 1.388 . S
P384 O395 1.490 . S
P384 C398 1.812 . S
P384 C404 1.803 . S
P384 C410 1.819 . S
H385 C399 0.941 . S
H386 C400 0.939 . S
H387 C402 0.940 . S
H388 C403 0.940 . S
H389 C405 0.939 . S
H390 C406 0.942 . S
H391 C408 0.940 . S
H392 C409 0.939 . S
H393 C411 0.941 . S
H394 C415 0.939 . S
O395 P384 1.490 . S
H396 C412 0.939 . S
H397 C414 0.940 . S
C398 P384 1.812 . S
C398 C399 1.389 . S
C398 C403 1.391 . S
C399 H385 0.941 . S
C399 C398 1.389 . S
C399 C400 1.397 . S
C400 H386 0.939 . S
C400 C399 1.397 . S
C400 C401 1.378 . S
C401 C400 1.378 . S
C401 C402 1.378 . S
C402 H387 0.940 . S
C402 C401 1.378 . S
C402 C403 1.396 . S
C403 H388 0.940 . S
C403 C398 1.391 . S
C403 C402 1.396 . S
C404 P384 1.803 . S
C404 C405 1.378 . S
C404 C409 1.400 . S
C405 H389 0.939 . S
C405 C404 1.378 . S
C405 C406 1.361 . S
C406 H390 0.942 . S
C406 C405 1.361 . S
C406 C407 1.369 . S
C407 C406 1.369 . S
C407 C408 1.404 . S
C408 H391 0.940 . S
C408 C407 1.404 . S
C408 C409 1.389 . S
C409 H392 0.939 . S
C409 C404 1.400 . S
C409 C408 1.389 . S
C410 P384 1.819 . S
C410 C411 1.391 . S
C410 C415 1.391 . S
C411 H393 0.941 . S
C411 C410 1.391 . S
C411 C412 1.396 . S
C412 H396 0.939 . S
C412 C411 1.396 . S
C412 C413 1.397 . S
C413 C412 1.397 . S
C413 C414 1.385 . S
C414 H397 0.940 . S
C414 C413 1.385 . S
C414 C415 1.388 . S
C415 H394 0.939 . S
C415 C410 1.391 . S
C415 C414 1.388 . S
P416 O427 1.490 . S
P416 C430 1.812 . S
P416 C436 1.803 . S
P416 C442 1.819 . S
H417 C431 0.941 . S
H418 C432 0.939 . S
H419 C434 0.940 . S
H420 C435 0.940 . S
H421 C437 0.939 . S
H422 C438 0.942 . S
H423 C440 0.940 . S
H424 C441 0.939 . S
H425 C443 0.941 . S
H426 C447 0.939 . S
O427 P416 1.490 . S
H428 C444 0.939 . S
H429 C446 0.940 . S
C430 P416 1.812 . S
C430 C431 1.389 . S
C430 C435 1.391 . S
C431 H417 0.941 . S
C431 C430 1.389 . S
C431 C432 1.397 . S
C432 H418 0.939 . S
C432 C431 1.397 . S
C432 C433 1.378 . S
C433 C432 1.378 . S
C433 C434 1.378 . S
C434 H419 0.940 . S
C434 C433 1.378 . S
C434 C435 1.396 . S
C435 H420 0.940 . S
C435 C430 1.391 . S
C435 C434 1.396 . S
C436 P416 1.803 . S
C436 C437 1.378 . S
C436 C441 1.400 . S
C437 H421 0.939 . S
C437 C436 1.378 . S
C437 C438 1.361 . S
C438 H422 0.942 . S
C438 C437 1.361 . S
C438 C439 1.369 . S
C439 C438 1.369 . S
C439 C440 1.404 . S
C440 H423 0.940 . S
C440 C439 1.404 . S
C440 C441 1.389 . S
C441 H424 0.939 . S
C441 C436 1.400 . S
C441 C440 1.389 . S
C442 P416 1.819 . S
C442 C443 1.391 . S
C442 C447 1.391 . S
C443 H425 0.941 . S
C443 C442 1.391 . S
C443 C444 1.396 . S
C444 H428 0.939 . S
C444 C443 1.396 . S
C444 C445 1.397 . S
C445 C444 1.397 . S
C445 C446 1.385 . S
C446 H429 0.940 . S
C446 C445 1.385 . S
C446 C447 1.388 . S
C447 H426 0.939 . S
C447 C442 1.391 . S
C447 C446 1.388 . S
P448 O459 1.490 . S
P448 C462 1.812 . S
P448 C468 1.803 . S
P448 C474 1.819 . S
H449 C463 0.941 . S
H450 C464 0.939 . S
H451 C466 0.940 . S
H452 C467 0.940 . S
H453 C469 0.939 . S
H454 C470 0.942 . S
H455 C472 0.940 . S
H456 C473 0.939 . S
H457 C475 0.941 . S
H458 C479 0.939 . S
O459 P448 1.490 . S
H460 C476 0.939 . S
H461 C478 0.940 . S
C462 P448 1.812 . S
C462 C463 1.389 . S
C462 C467 1.391 . S
C463 H449 0.941 . S
C463 C462 1.389 . S
C463 C464 1.397 . S
C464 H450 0.939 . S
C464 C463 1.397 . S
C464 C465 1.378 . S
C465 C464 1.378 . S
C465 C466 1.378 . S
C466 H451 0.940 . S
C466 C465 1.378 . S
C466 C467 1.396 . S
C467 H452 0.940 . S
C467 C462 1.391 . S
C467 C466 1.396 . S
C468 P448 1.803 . S
C468 C469 1.378 . S
C468 C473 1.400 . S
C469 H453 0.939 . S
C469 C468 1.378 . S
C469 C470 1.361 . S
C470 H454 0.942 . S
C470 C469 1.361 . S
C470 C471 1.369 . S
C471 C470 1.369 . S
C471 C472 1.404 . S
C472 H455 0.940 . S
C472 C471 1.404 . S
C472 C473 1.389 . S
C473 H456 0.939 . S
C473 C468 1.400 . S
C473 C472 1.389 . S
C474 P448 1.819 . S
C474 C475 1.391 . S
C474 C479 1.391 . S
C475 H457 0.941 . S
C475 C474 1.391 . S
C475 C476 1.396 . S
C476 H460 0.939 . S
C476 C475 1.396 . S
C476 C477 1.397 . S
C477 C476 1.397 . S
C477 C478 1.385 . S
C478 H461 0.940 . S
C478 C477 1.385 . S
C478 C479 1.388 . S
C479 H458 0.939 . S
C479 C474 1.391 . S
C479 C478 1.388 . S
P480 O491 1.490 . S
P480 C494 1.812 . S
P480 C500 1.803 . S
P480 C506 1.819 . S
H481 C495 0.941 . S
H482 C496 0.939 . S
H483 C498 0.940 . S
H484 C499 0.940 . S
H485 C501 0.939 . S
H486 C502 0.942 . S
H487 C504 0.940 . S
H488 C505 0.939 . S
H489 C507 0.941 . S
H490 C511 0.939 . S
O491 P480 1.490 . S
H492 C508 0.939 . S
H493 C510 0.940 . S
C494 P480 1.812 . S
C494 C495 1.389 . S
C494 C499 1.391 . S
C495 H481 0.941 . S
C495 C494 1.389 . S
C495 C496 1.397 . S
C496 H482 0.939 . S
C496 C495 1.397 . S
C496 C497 1.378 . S
C497 C496 1.378 . S
C497 C498 1.378 . S
C498 H483 0.940 . S
C498 C497 1.378 . S
C498 C499 1.396 . S
C499 H484 0.940 . S
C499 C494 1.391 . S
C499 C498 1.396 . S
C500 P480 1.803 . S
C500 C501 1.378 . S
C500 C505 1.400 . S
C501 H485 0.939 . S
C501 C500 1.378 . S
C501 C502 1.361 . S
C502 H486 0.942 . S
C502 C501 1.361 . S
C502 C503 1.369 . S
C503 C502 1.369 . S
C503 C504 1.404 . S
C504 H487 0.940 . S
C504 C503 1.404 . S
C504 C505 1.389 . S
C505 H488 0.939 . S
C505 C500 1.400 . S
C505 C504 1.389 . S
C506 P480 1.819 . S
C506 C507 1.391 . S
C506 C511 1.391 . S
C507 H489 0.941 . S
C507 C506 1.391 . S
C507 C508 1.396 . S
C508 H492 0.939 . S
C508 C507 1.396 . S
C508 C509 1.397 . S
C509 C508 1.397 . S
C509 C510 1.385 . S
C510 H493 0.940 . S
C510 C509 1.385 . S
C510 C511 1.388 . S
C511 H490 0.939 . S
C511 C506 1.391 . S
C511 C510 1.388 . S
P512 O523 1.490 . S
P512 C526 1.812 . S
P512 C532 1.803 . S
P512 C538 1.819 . S
H513 C527 0.941 . S
H514 C528 0.939 . S
H515 C530 0.940 . S
H516 C531 0.940 . S
H517 C533 0.939 . S
H518 C534 0.942 . S
H519 C536 0.940 . S
H520 C537 0.939 . S
H521 C539 0.941 . S
H522 C543 0.939 . S
O523 P512 1.490 . S
H524 C540 0.939 . S
H525 C542 0.940 . S
C526 P512 1.812 . S
C526 C527 1.389 . S
C526 C531 1.391 . S
C527 H513 0.941 . S
C527 C526 1.389 . S
C527 C528 1.397 . S
C528 H514 0.939 . S
C528 C527 1.397 . S
C528 C529 1.378 . S
C529 C528 1.378 . S
C529 C530 1.378 . S
C530 H515 0.940 . S
C530 C529 1.378 . S
C530 C531 1.396 . S
C531 H516 0.940 . S
C531 C526 1.391 . S
C531 C530 1.396 . S
C532 P512 1.803 . S
C532 C533 1.378 . S
C532 C537 1.400 . S
C533 H517 0.939 . S
C533 C532 1.378 . S
C533 C534 1.361 . S
C534 H518 0.942 . S
C534 C533 1.361 . S
C534 C535 1.369 . S
C535 C534 1.369 . S
C535 C536 1.404 . S
C536 H519 0.940 . S
C536 C535 1.404 . S
C536 C537 1.389 . S
C537 H520 0.939 . S
C537 C532 1.400 . S
C537 C536 1.389 . S
C538 P512 1.819 . S
C538 C539 1.391 . S
C538 C543 1.391 . S
C539 H521 0.941 . S
C539 C538 1.391 . S
C539 C540 1.396 . S
C540 H524 0.939 . S
C540 C539 1.396 . S
C540 C541 1.397 . S
C541 C540 1.397 . S
C541 C542 1.385 . S
C542 H525 0.940 . S
C542 C541 1.385 . S
C542 C543 1.388 . S
C543 H522 0.939 . S
C543 C538 1.391 . S
C543 C542 1.388 . S
P544 O555 1.490 . S
P544 C558 1.812 . S
P544 C564 1.803 . S
P544 C570 1.819 . S
H545 C559 0.941 . S
H546 C560 0.939 . S
H547 C562 0.940 . S
H548 C563 0.940 . S
H549 C565 0.939 . S
H550 C566 0.942 . S
H551 C568 0.940 . S
H552 C569 0.939 . S
H553 C571 0.941 . S
H554 C575 0.939 . S
O555 P544 1.490 . S
H556 C572 0.939 . S
H557 C574 0.940 . S
C558 P544 1.812 . S
C558 C559 1.389 . S
C558 C563 1.391 . S
C559 H545 0.941 . S
C559 C558 1.389 . S
C559 C560 1.397 . S
C560 H546 0.939 . S
C560 C559 1.397 . S
C560 C561 1.378 . S
C561 C560 1.378 . S
C561 C562 1.378 . S
C562 H547 0.940 . S
C562 C561 1.378 . S
C562 C563 1.396 . S
C563 H548 0.940 . S
C563 C558 1.391 . S
C563 C562 1.396 . S
C564 P544 1.803 . S
C564 C565 1.378 . S
C564 C569 1.400 . S
C565 H549 0.939 . S
C565 C564 1.378 . S
C565 C566 1.361 . S
C566 H550 0.942 . S
C566 C565 1.361 . S
C566 C567 1.369 . S
C567 C566 1.369 . S
C567 C568 1.404 . S
C568 H551 0.940 . S
C568 C567 1.404 . S
C568 C569 1.389 . S
C569 H552 0.939 . S
C569 C564 1.400 . S
C569 C568 1.389 . S
C570 P544 1.819 . S
C570 C571 1.391 . S
C570 C575 1.391 . S
C571 H553 0.941 . S
C571 C570 1.391 . S
C571 C572 1.396 . S
C572 H556 0.939 . S
C572 C571 1.396 . S
C572 C573 1.397 . S
C573 C572 1.397 . S
C573 C574 1.385 . S
C574 H557 0.940 . S
C574 C573 1.385 . S
C574 C575 1.388 . S
C575 H554 0.939 . S
C575 C570 1.391 . S
C575 C574 1.388 . S
O576 Mg577 1.990 . S
O576 C590 1.253 1_565 S
Mg577 O576 1.990 . S
Mg577 O580 2.180 1_556 S
Mg577 O581 2.117 . S
Mg577 O595 2.030 1_565 S
O578 Mg579 2.072 1_556 S
O578 C590 1.260 . S
Mg579 O578 2.072 1_554 S
Mg579 O580 2.099 1_545 S
Mg579 O582 2.079 . S
Mg579 O583 2.072 1_545 S
Mg579 O585 2.099 . S
Mg579 O596 2.079 . S
O580 Mg577 2.180 1_554 S
O580 Mg579 2.099 1_565 S
O580 C591 1.279 . S
O581 Mg577 2.117 . S
O581 C591 1.250 1_556 S
O582 Mg579 2.079 . S
O582 C592 1.264 . S
O583 Mg579 2.072 1_565 S
O583 C593 1.260 . S
Mg584 O585 2.180 . S
Mg584 O586 2.042 . S
Mg584 O587 1.990 1_545 S
Mg584 O588 2.117 . S
O585 Mg579 2.099 . S
O585 Mg584 2.180 . S
O585 C594 1.279 . S
O586 Mg584 2.042 . S
O586 C592 1.239 . S
O587 Mg584 1.990 1_565 S
O587 C593 1.253 . S
O588 Mg584 2.117 . S
O588 C594 1.250 . S
C589 O595 1.248 . S
C589 O596 1.264 1_556 S
C590 O576 1.253 1_545 S
C590 O578 1.260 . S
C591 O580 1.279 . S
C591 O581 1.250 1_554 S
C592 O582 1.264 . S
C592 O586 1.239 . S
C593 O583 1.260 . S
C593 O587 1.253 . S
C594 O585 1.279 . S
C594 O588 1.250 . S
O595 Mg577 2.030 1_545 S
O595 C589 1.248 . S
O596 Mg579 2.079 . S
O596 C589 1.264 1_554 S
O597 Mg598 1.990 . S
O597 C611 1.254 . S
Mg598 O597 1.990 . S
Mg598 O601 2.180 1_556 S
Mg598 O602 2.117 . S
Mg598 O616 2.030 1_455 S
O599 Mg600 2.072 1_556 S
O599 C611 1.260 1_655 S
Mg600 O599 2.072 1_554 S
Mg600 O601 2.096 1_655 S
Mg600 O603 2.078 . S
Mg600 O604 2.035 1_655 S
Mg600 O606 2.103 . S
Mg600 O617 2.116 . S
O601 Mg598 2.180 1_554 S
O601 Mg600 2.096 1_455 S
O601 C612 1.279 . S
O602 Mg598 2.117 . S
O602 C612 1.250 1_556 S
O603 Mg600 2.078 . S
O603 C613 1.245 1_655 S
O604 Mg600 2.035 1_455 S
O604 C614 1.260 . S
Mg605 O606 2.180 . S
Mg605 O607 2.030 1_655 S
Mg605 O608 1.990 1_655 S
Mg605 O609 2.117 . S
O606 Mg600 2.103 . S
O606 Mg605 2.180 . S
O606 C615 1.279 . S
O607 Mg605 2.030 1_455 S
O607 C613 1.248 . S
O608 Mg605 1.990 1_455 S
O608 C614 1.253 . S
O609 Mg605 2.117 . S
O609 C615 1.250 . S
C610 O616 1.248 . S
C610 O617 1.264 1_556 S
C611 O597 1.254 . S
C611 O599 1.260 1_455 S
C612 O601 1.279 . S
C612 O602 1.250 1_554 S
C613 O603 1.245 1_455 S
C613 O607 1.248 . S
C614 O604 1.260 . S
C614 O608 1.253 . S
C615 O606 1.279 . S
C615 O609 1.250 . S
O616 Mg598 2.030 1_655 S
O616 C610 1.248 . S
O617 Mg600 2.116 . S
O617 C610 1.264 1_554 S
O618 Mg619 1.990 . S
O618 C632 1.253 . S
Mg619 O618 1.990 . S
Mg619 O622 2.180 . S
Mg619 O623 2.117 . S
Mg619 O637 2.030 . S
O620 Mg621 2.127 . S
O620 C632 1.260 . S
Mg621 O620 2.127 . S
Mg621 O622 2.106 . S
Mg621 O624 2.024 1_554 S
Mg621 O625 2.070 1_554 S
Mg621 O627 2.091 1_554 S
Mg621 O638 2.081 . S
O622 Mg619 2.180 . S
O622 Mg621 2.106 . S
O622 C633 1.279 . S
O623 Mg619 2.117 . S
O623 C633 1.250 . S
O624 Mg621 2.024 1_556 S
O624 C634 1.264 . S
O625 Mg621 2.070 1_556 S
O625 C635 1.261 . S
Mg626 O627 2.180 . S
Mg626 O628 2.030 . S
Mg626 O629 1.990 . S
Mg626 O630 2.099 1_556 S
O627 Mg621 2.091 1_556 S
O627 Mg626 2.180 . S
O627 C636 1.279 1_556 S
O628 Mg626 2.030 . S
O628 C634 1.248 . S
O629 Mg626 1.990 . S
O629 C635 1.253 . S
O630 Mg626 2.099 1_554 S
O630 C636 1.258 . S
C631 O637 1.248 . S
C631 O638 1.264 . S
C632 O618 1.253 . S
C632 O620 1.260 . S
C633 O622 1.279 . S
C633 O623 1.250 . S
C634 O624 1.264 . S
C634 O628 1.248 . S
C635 O625 1.261 . S
C635 O629 1.253 . S
C636 O627 1.279 1_554 S
C636 O630 1.258 . S
O637 Mg619 2.030 . S
O637 C631 1.248 . S
O638 Mg621 2.081 . S
O638 C631 1.264 . S
O639 Mg640 1.990 . S
O639 C653 1.253 . S
Mg640 O639 1.990 . S
Mg640 O643 2.180 . S
Mg640 O644 2.117 . S
Mg640 O658 2.030 . S
O641 Mg642 2.072 . S
O641 C653 1.260 . S
Mg642 O641 2.072 . S
Mg642 O643 2.099 . S
Mg642 O645 2.079 . S
Mg642 O646 2.072 . S
Mg642 O648 2.099 . S
Mg642 O659 2.079 . S
O643 Mg640 2.180 . S
O643 Mg642 2.099 . S
O643 C654 1.279 . S
O644 Mg640 2.117 . S
O644 C654 1.250 . S
O645 Mg642 2.079 . S
O645 C655 1.264 . S
O646 Mg642 2.072 . S
O646 C656 1.260 . S
Mg647 O648 2.180 . S
Mg647 O649 2.030 . S
Mg647 O650 1.990 . S
Mg647 O651 2.117 . S
O648 Mg642 2.099 . S
O648 Mg647 2.180 . S
O648 C657 1.279 . S
O649 Mg647 2.030 . S
O649 C655 1.248 . S
O650 Mg647 1.990 . S
O650 C656 1.253 . S
O651 Mg647 2.117 . S
O651 C657 1.250 . S
C652 O658 1.248 . S
C652 O659 1.264 . S
C653 O639 1.253 . S
C653 O641 1.260 . S
C654 O643 1.279 . S
C654 O644 1.250 . S
C655 O645 1.264 . S
C655 O649 1.248 . S
C656 O646 1.260 . S
C656 O650 1.253 . S
C657 O648 1.279 . S
C657 O651 1.250 . S
O658 Mg640 2.030 . S
O658 C652 1.248 . S
O659 Mg642 2.079 . S
O659 C652 1.264 . S
O660 Mg661 1.990 . S
O660 C674 1.253 . S
Mg661 O660 1.990 . S
Mg661 O664 2.180 . S
Mg661 O665 2.117 . S
Mg661 O679 2.030 . S
O662 Mg663 2.072 . S
O662 C674 1.260 . S
Mg663 O662 2.072 . S
Mg663 O664 2.099 . S
Mg663 O666 2.079 . S
Mg663 O667 2.072 . S
Mg663 O669 2.099 . S
Mg663 O680 2.079 . S
O664 Mg661 2.180 . S
O664 Mg663 2.099 . S
O664 C675 1.279 . S
O665 Mg661 2.117 . S
O665 C675 1.250 . S
O666 Mg663 2.079 . S
O666 C676 1.264 . S
O667 Mg663 2.072 . S
O667 C677 1.260 . S
Mg668 O669 2.180 . S
Mg668 O670 2.030 . S
Mg668 O671 1.990 . S
Mg668 O672 2.117 . S
O669 Mg663 2.099 . S
O669 Mg668 2.180 . S
O669 C678 1.279 . S
O670 Mg668 2.030 . S
O670 C676 1.248 . S
O671 Mg668 1.990 . S
O671 C677 1.253 . S
O672 Mg668 2.117 . S
O672 C678 1.250 . S
C673 O679 1.248 . S
C673 O680 1.264 . S
C674 O660 1.253 . S
C674 O662 1.260 . S
C675 O664 1.279 . S
C675 O665 1.250 . S
C676 O666 1.264 . S
C676 O670 1.248 . S
C677 O667 1.260 . S
C677 O671 1.253 . S
C678 O669 1.279 . S
C678 O672 1.250 . S
O679 Mg661 2.030 . S
O679 C673 1.248 . S
O680 Mg663 2.079 . S
O680 C673 1.264 . S
O681 Mg682 1.990 . S
O681 C695 1.253 . S
Mg682 O681 1.990 . S
Mg682 O685 2.180 . S
Mg682 O686 2.117 . S
Mg682 O700 2.030 . S
O683 Mg684 2.072 . S
O683 C695 1.260 . S
Mg684 O683 2.072 . S
Mg684 O685 2.099 . S
Mg684 O687 2.079 . S
Mg684 O688 2.072 . S
Mg684 O690 2.099 . S
Mg684 O701 2.079 . S
O685 Mg682 2.180 . S
O685 Mg684 2.099 . S
O685 C696 1.279 . S
O686 Mg682 2.117 . S
O686 C696 1.250 . S
O687 Mg684 2.079 . S
O687 C697 1.264 . S
O688 Mg684 2.072 . S
O688 C698 1.260 . S
Mg689 O690 2.180 . S
Mg689 O691 2.030 . S
Mg689 O692 1.990 . S
Mg689 O693 2.117 . S
O690 Mg684 2.099 . S
O690 Mg689 2.180 . S
O690 C699 1.279 . S
O691 Mg689 2.030 . S
O691 C697 1.248 . S
O692 Mg689 1.990 . S
O692 C698 1.253 . S
O693 Mg689 2.117 . S
O693 C699 1.250 . S
C694 O700 1.248 . S
C694 O701 1.264 . S
C695 O681 1.253 . S
C695 O683 1.260 . S
C696 O685 1.279 . S
C696 O686 1.250 . S
C697 O687 1.264 . S
C697 O691 1.248 . S
C698 O688 1.260 . S
C698 O692 1.253 . S
C699 O690 1.279 . S
C699 O693 1.250 . S
O700 Mg682 2.030 . S
O700 C694 1.248 . S
O701 Mg684 2.079 . S
O701 C694 1.264 . S
O702 Mg703 1.990 . S
O702 C716 1.253 . S
Mg703 O702 1.990 . S
Mg703 O706 2.180 . S
Mg703 O707 2.117 . S
Mg703 O721 2.030 . S
O704 Mg705 2.072 . S
O704 C716 1.260 . S
Mg705 O704 2.072 . S
Mg705 O706 2.099 . S
Mg705 O708 2.079 . S
Mg705 O709 2.072 . S
Mg705 O711 2.099 . S
Mg705 O722 2.079 . S
O706 Mg703 2.180 . S
O706 Mg705 2.099 . S
O706 C717 1.279 . S
O707 Mg703 2.117 . S
O707 C717 1.250 . S
O708 Mg705 2.079 . S
O708 C718 1.264 . S
O709 Mg705 2.072 . S
O709 C719 1.260 . S
Mg710 O711 2.180 . S
Mg710 O712 2.030 . S
Mg710 O713 1.990 . S
Mg710 O714 2.117 . S
O711 Mg705 2.099 . S
O711 Mg710 2.180 . S
O711 C720 1.279 . S
O712 Mg710 2.030 . S
O712 C718 1.248 . S
O713 Mg710 1.990 . S
O713 C719 1.253 . S
O714 Mg710 2.117 . S
O714 C720 1.250 . S
C715 O721 1.248 . S
C715 O722 1.264 . S
C716 O702 1.253 . S
C716 O704 1.260 . S
C717 O706 1.279 . S
C717 O707 1.250 . S
C718 O708 1.264 . S
C718 O712 1.248 . S
C719 O709 1.260 . S
C719 O713 1.253 . S
C720 O711 1.279 . S
C720 O714 1.250 . S
O721 Mg703 2.030 . S
O721 C715 1.248 . S
O722 Mg705 2.079 . S
O722 C715 1.264 . S
O723 Mg724 1.990 . S
O723 C737 1.253 . S
Mg724 O723 1.990 . S
Mg724 O727 2.180 . S
Mg724 O728 2.117 . S
Mg724 O742 2.030 . S
O725 Mg726 2.072 . S
O725 C737 1.260 . S
Mg726 O725 2.072 . S
Mg726 O727 2.099 . S
Mg726 O729 2.079 . S
Mg726 O730 2.072 . S
Mg726 O732 2.099 . S
Mg726 O743 2.079 . S
O727 Mg724 2.180 . S
O727 Mg726 2.099 . S
O727 C738 1.279 . S
O728 Mg724 2.117 . S
O728 C738 1.250 . S
O729 Mg726 2.079 . S
O729 C739 1.264 . S
O730 Mg726 2.072 . S
O730 C740 1.260 . S
Mg731 O732 2.180 . S
Mg731 O733 2.030 . S
Mg731 O734 1.990 . S
Mg731 O735 2.117 . S
O732 Mg726 2.099 . S
O732 Mg731 2.180 . S
O732 C741 1.279 . S
O733 Mg731 2.030 . S
O733 C739 1.248 . S
O734 Mg731 1.990 . S
O734 C740 1.253 . S
O735 Mg731 2.117 . S
O735 C741 1.250 . S
C736 O742 1.248 . S
C736 O743 1.264 . S
C737 O723 1.253 . S
C737 O725 1.260 . S
C738 O727 1.279 . S
C738 O728 1.250 . S
C739 O729 1.264 . S
C739 O733 1.248 . S
C740 O730 1.260 . S
C740 O734 1.253 . S
C741 O732 1.279 . S
C741 O735 1.250 . S
O742 Mg724 2.030 . S
O742 C736 1.248 . S
O743 Mg726 2.079 . S
O743 C736 1.264 . S
O744 Mg745 1.990 . S
O744 C758 1.253 . S
Mg745 O744 1.990 . S
Mg745 O748 2.180 . S
Mg745 O749 2.117 . S
Mg745 O763 2.030 . S
O746 Mg747 2.072 . S
O746 C758 1.260 . S
Mg747 O746 2.072 . S
Mg747 O748 2.099 . S
Mg747 O750 2.079 . S
Mg747 O751 2.072 . S
Mg747 O753 2.099 . S
Mg747 O764 2.079 . S
O748 Mg745 2.180 . S
O748 Mg747 2.099 . S
O748 C759 1.279 . S
O749 Mg745 2.117 . S
O749 C759 1.250 . S
O750 Mg747 2.079 . S
O750 C760 1.264 . S
O751 Mg747 2.072 . S
O751 C761 1.260 . S
Mg752 O753 2.180 . S
Mg752 O754 2.030 . S
Mg752 O755 1.990 . S
Mg752 O756 2.117 . S
O753 Mg747 2.099 . S
O753 Mg752 2.180 . S
O753 C762 1.279 . S
O754 Mg752 2.030 . S
O754 C760 1.248 . S
O755 Mg752 1.990 . S
O755 C761 1.253 . S
O756 Mg752 2.117 . S
O756 C762 1.250 . S
C757 O763 1.248 . S
C757 O764 1.264 . S
C758 O744 1.253 . S
C758 O746 1.260 . S
C759 O748 1.279 . S
C759 O749 1.250 . S
C760 O750 1.264 . S
C760 O754 1.248 . S
C761 O751 1.260 . S
C761 O755 1.253 . S
C762 O753 1.279 . S
C762 O756 1.250 . S
O763 Mg745 2.030 . S
O763 C757 1.248 . S
O764 Mg747 2.079 . S
O764 C757 1.264 . S
H765 C773 0.929 . S
H766 C775 0.930 . S
H767 C777 0.930 . S
H768 C780 0.929 . S
H769 C783 0.930 . S
H770 C785 0.960 . S
H771 C785 0.960 . S
H772 C785 0.960 . S
C773 H765 0.929 . S
C773 C774 1.377 . S
C773 C775 1.384 . S
C774 C773 1.377 . S
C774 C780 1.390 . S
C775 H766 0.930 . S
C775 C773 1.384 . S
C775 C776 1.372 . S
C776 C775 1.372 . S
C776 C777 1.400 . S
C776 C781 1.490 . S
C777 H767 0.930 . S
C777 C776 1.400 . S
C777 C780 1.386 . S
H778 C794 0.930 . S
H779 C795 0.931 . S
C780 H768 0.929 . S
C780 C774 1.390 . S
C780 C777 1.386 . S
C781 C776 1.490 . S
C781 C783 1.395 . S
C781 C784 1.403 . S
H782 C788 0.930 . S
C783 H769 0.930 . S
C783 C781 1.395 . S
C783 C786 1.403 . S
C784 C781 1.403 . S
C784 C785 1.524 . S
C784 C788 1.400 . S
C785 H770 0.960 . S
C785 H771 0.960 . S
C785 H772 0.960 . S
C785 C784 1.524 . S
C786 C783 1.403 . S
C786 C787 1.392 . S
C786 C790 1.525 . S
C787 C786 1.392 . S
C787 C788 1.385 . S
C787 C789 1.478 . S
C788 H782 0.930 . S
C788 C784 1.400 . S
C788 C787 1.385 . S
C789 C787 1.478 . S
C789 C791 1.381 . S
C789 C795 1.383 . S
C790 C786 1.525 . S
C790 H796 0.947 1_554 S
C790 H797 0.926 1_554 S
C790 H798 0.980 . S
C791 C789 1.381 . S
C791 C792 1.394 . S
C791 H799 0.930 . S
C792 C791 1.394 . S
C792 C793 1.383 . S
C792 H800 0.929 . S
C793 C792 1.383 . S
C793 C794 1.377 . S
C794 H778 0.930 . S
C794 C793 1.377 . S
C794 C795 1.379 . S
C795 H779 0.931 . S
C795 C789 1.383 . S
C795 C794 1.379 . S
H796 C790 0.947 1_556 S
H797 C790 0.926 1_556 S
H798 C790 0.980 . S
H799 C791 0.930 . S
H800 C792 0.929 . S
H801 C809 0.929 . S
H802 C811 0.930 . S
H803 C813 0.930 . S
H804 C816 0.929 . S
H805 C819 0.930 . S
H806 C821 0.960 . S
H807 C821 0.960 . S
H808 C821 0.960 . S
C809 H801 0.929 . S
C809 C810 1.377 . S
C809 C811 1.384 . S
C810 C809 1.377 . S
C810 C816 1.390 . S
C811 H802 0.930 . S
C811 C809 1.384 . S
C811 C812 1.372 . S
C812 C811 1.372 . S
C812 C813 1.400 . S
C812 C817 1.490 . S
C813 H803 0.930 . S
C813 C812 1.400 . S
C813 C816 1.386 . S
H814 C830 0.930 . S
H815 C831 0.931 . S
C816 H804 0.929 . S
C816 C810 1.390 . S
C816 C813 1.386 . S
C817 C812 1.490 . S
C817 C819 1.395 . S
C817 C820 1.403 . S
H818 C824 0.930 . S
C819 H805 0.930 . S
C819 C817 1.395 . S
C819 C822 1.403 . S
C820 C817 1.403 . S
C820 C821 1.524 . S
C820 C824 1.400 . S
C821 H806 0.960 . S
C821 H807 0.960 . S
C821 H808 0.960 . S
C821 C820 1.524 . S
C822 C819 1.403 . S
C822 C823 1.392 . S
C822 C826 1.495 1_554 S
C823 C822 1.392 . S
C823 C824 1.385 . S
C823 C825 1.478 . S
C824 H818 0.930 . S
C824 C820 1.400 . S
C824 C823 1.385 . S
C825 C823 1.478 . S
C825 C827 1.381 . S
C825 C831 1.383 . S
C826 C822 1.495 1_556 S
C826 H832 0.959 . S
C826 H833 0.961 . S
C826 H834 0.960 . S
C827 C825 1.381 . S
C827 C828 1.394 . S
C827 H835 0.930 1_554 S
C828 C827 1.394 . S
C828 C829 1.383 . S
C828 H836 0.929 1_554 S
C829 C828 1.383 . S
C829 C830 1.377 . S
C830 H814 0.930 . S
C830 C829 1.377 . S
C830 C831 1.379 . S
C831 H815 0.931 . S
C831 C825 1.383 . S
C831 C830 1.379 . S
H832 C826 0.959 . S
H833 C826 0.961 . S
H834 C826 0.960 . S
H835 C827 0.930 1_556 S
H836 C828 0.929 1_556 S
H837 C845 0.929 . S
H838 C847 0.930 . S
H839 C849 0.930 . S
H840 C852 0.929 . S
H841 C855 0.930 . S
H842 C857 0.960 . S
H843 C857 0.960 . S
H844 C857 0.960 . S
C845 H837 0.929 . S
C845 C846 1.377 . S
C845 C847 1.384 . S
C846 C845 1.377 . S
C846 C852 1.390 . S
C847 H838 0.930 . S
C847 C845 1.384 . S
C847 C848 1.372 . S
C848 C847 1.372 . S
C848 C849 1.400 . S
C848 C853 1.490 . S
C849 H839 0.930 . S
C849 C848 1.400 . S
C849 C852 1.386 . S
H850 C866 0.930 1_556 S
H851 C867 0.931 1_556 S
C852 H840 0.929 . S
C852 C846 1.390 . S
C852 C849 1.386 . S
C853 C848 1.490 . S
C853 C855 1.395 . S
C853 C856 1.403 . S
H854 C860 0.930 . S
C855 H841 0.930 . S
C855 C853 1.395 . S
C855 C858 1.403 . S
C856 C853 1.403 . S
C856 C857 1.524 . S
C856 C860 1.400 . S
C857 H842 0.960 . S
C857 H843 0.960 . S
C857 H844 0.960 . S
C857 C856 1.524 . S
C858 C855 1.403 . S
C858 C859 1.392 . S
C858 C862 1.495 . S
C859 C858 1.392 . S
C859 C860 1.385 . S
C859 C861 1.478 . S
C860 H854 0.930 . S
C860 C856 1.400 . S
C860 C859 1.385 . S
C861 C859 1.478 . S
C861 C863 1.381 . S
C861 C867 1.383 . S
C862 C858 1.495 . S
C862 H868 0.959 . S
C862 H869 0.961 . S
C862 H870 0.960 . S
C863 C861 1.381 . S
C863 C864 1.394 . S
C863 H871 0.930 . S
C864 C863 1.394 . S
C864 C865 1.383 . S
C864 H872 0.929 . S
C865 C864 1.383 . S
C865 C866 1.377 . S
C866 H850 0.930 1_554 S
C866 C865 1.377 . S
C866 C867 1.379 . S
C867 H851 0.931 1_554 S
C867 C861 1.383 . S
C867 C866 1.379 . S
H868 C862 0.959 . S
H869 C862 0.961 . S
H870 C862 0.960 . S
H871 C863 0.930 . S
H872 C864 0.929 . S
H873 C881 0.929 . S
H874 C883 0.930 . S
H875 C885 0.960 . S
H876 C888 0.929 . S
H877 C891 0.930 . S
H878 C893 0.935 1_554 S
H879 C893 0.960 . S
H880 C893 0.960 1_554 S
C881 H873 0.929 . S
C881 C882 1.377 . S
C881 C883 1.384 . S
C882 C881 1.377 . S
C882 C888 1.390 . S
C883 H874 0.930 . S
C883 C881 1.384 . S
C883 C884 1.372 . S
C884 C883 1.372 . S
C884 C885 1.400 . S
C884 C889 1.490 . S
C885 H875 0.960 . S
C885 C884 1.400 . S
C885 C888 1.386 . S
H886 C902 0.930 . S
H887 C903 0.931 . S
C888 H876 0.929 . S
C888 C882 1.390 . S
C888 C885 1.386 . S
C889 C884 1.490 . S
C889 C891 1.395 . S
C889 C892 1.403 . S
H890 C896 0.930 . S
C891 H877 0.930 . S
C891 C889 1.395 . S
C891 C894 1.403 . S
C892 C889 1.403 . S
C892 C893 1.524 . S
C892 C896 1.400 . S
C893 H878 0.935 1_556 S
C893 H879 0.960 . S
C893 H880 0.960 1_556 S
C893 C892 1.524 . S
C894 C891 1.403 . S
C894 C895 1.392 . S
C894 C898 1.495 . S
C895 C894 1.392 . S
C895 C896 1.385 . S
C895 C897 1.478 . S
C896 H890 0.930 . S
C896 C892 1.400 . S
C896 C895 1.385 . S
C897 C895 1.478 . S
C897 C899 1.381 . S
C897 C903 1.383 1_556 S
C898 C894 1.495 . S
C898 H904 0.959 . S
C898 H905 0.961 . S
C898 H906 0.960 . S
C899 C897 1.381 . S
C899 C900 1.394 . S
C899 H907 0.930 . S
C900 C899 1.394 . S
C900 C901 1.383 . S
C900 H908 0.929 . S
C901 C900 1.383 . S
C901 C902 1.377 1_556 S
C902 H886 0.930 . S
C902 C901 1.377 1_554 S
C902 C903 1.379 . S
C903 H887 0.931 . S
C903 C897 1.383 1_554 S
C903 C902 1.379 . S
H904 C898 0.959 . S
H905 C898 0.961 . S
H906 C898 0.960 . S
H907 C899 0.930 . S
H908 C900 0.929 . S
H909 C917 0.929 . S
H910 C919 0.930 . S
H911 C921 0.930 . S
H912 C924 0.929 . S
H913 C927 0.930 . S
H914 C929 0.960 . S
H915 C929 0.960 . S
H916 C929 0.960 . S
C917 H909 0.929 . S
C917 C918 1.377 . S
C917 C919 1.384 . S
C918 C917 1.377 . S
C918 C924 1.390 . S
C919 H910 0.930 . S
C919 C917 1.384 . S
C919 C920 1.372 . S
C920 C919 1.372 . S
C920 C921 1.400 . S
C920 C925 1.490 . S
C921 H911 0.930 . S
C921 C920 1.400 . S
C921 C924 1.386 . S
H922 C938 0.930 . S
H923 C939 0.931 . S
C924 H912 0.929 . S
C924 C918 1.390 . S
C924 C921 1.386 . S
C925 C920 1.490 . S
C925 C927 1.395 . S
C925 C928 1.403 . S
H926 C932 0.930 . S
C927 H913 0.930 . S
C927 C925 1.395 . S
C927 C930 1.403 . S
C928 C925 1.403 . S
C928 C929 1.524 . S
C928 C932 1.400 . S
C929 H914 0.960 . S
C929 H915 0.960 . S
C929 H916 0.960 . S
C929 C928 1.524 . S
C930 C927 1.403 . S
C930 C931 1.392 . S
C930 C934 1.495 . S
C931 C930 1.392 . S
C931 C932 1.385 . S
C931 C933 1.478 . S
C932 H926 0.930 . S
C932 C928 1.400 . S
C932 C931 1.385 . S
C933 C931 1.478 . S
C933 C935 1.381 . S
C933 C939 1.383 1_556 S
C934 C930 1.495 . S
C934 H940 0.959 . S
C934 H941 0.961 . S
C934 H942 0.960 . S
C935 C933 1.381 . S
C935 C936 1.394 . S
C935 H943 0.930 . S
C936 C935 1.394 . S
C936 C937 1.383 . S
C936 H944 0.929 . S
C937 C936 1.383 . S
C937 C938 1.377 1_556 S
C938 H922 0.930 . S
C938 C937 1.377 1_554 S
C938 C939 1.379 . S
C939 H923 0.931 . S
C939 C933 1.383 1_554 S
C939 C938 1.379 . S
H940 C934 0.959 . S
H941 C934 0.961 . S
H942 C934 0.960 . S
H943 C935 0.930 . S
H944 C936 0.929 . S
H945 C953 0.929 . S
H946 C955 0.930 . S
H947 C957 0.930 . S
H948 C960 0.929 . S
H949 C963 0.930 . S
H950 C965 0.960 . S
H951 C965 0.960 . S
H952 C965 0.960 . S
C953 H945 0.929 . S
C953 C954 1.377 . S
C953 C955 1.384 . S
C954 C953 1.377 . S
C954 C960 1.390 . S
C955 H946 0.930 . S
C955 C953 1.384 . S
C955 C956 1.372 . S
C956 C955 1.372 . S
C956 C957 1.400 . S
C956 C961 1.490 . S
C957 H947 0.930 . S
C957 C956 1.400 . S
C957 C960 1.386 . S
H958 C974 0.930 . S
H959 C975 0.931 . S
C960 H948 0.929 . S
C960 C954 1.390 . S
C960 C957 1.386 . S
C961 C956 1.490 . S
C961 C963 1.395 . S
C961 C964 1.403 . S
H962 C968 0.930 1_554 S
C963 H949 0.930 . S
C963 C961 1.395 . S
C963 C966 1.403 . S
C964 C961 1.403 . S
C964 C965 1.524 1_556 S
C964 C968 1.400 . S
C965 H950 0.960 . S
C965 H951 0.960 . S
C965 H952 0.960 . S
C965 C964 1.524 1_554 S
C966 C963 1.403 . S
C966 C967 1.392 . S
C966 C970 1.495 . S
C967 C966 1.392 . S
C967 C968 1.385 . S
C967 C969 1.478 . S
C968 H962 0.930 1_556 S
C968 C964 1.400 . S
C968 C967 1.385 . S
C969 C967 1.478 . S
C969 C971 1.381 . S
C969 C975 1.383 . S
C970 C966 1.495 . S
C970 H976 0.959 . S
C970 H977 0.961 . S
C970 H978 0.960 . S
C971 C969 1.381 . S
C971 C972 1.394 . S
C971 H979 0.930 . S
C972 C971 1.394 . S
C972 C973 1.383 . S
C972 H980 0.929 1_556 S
C973 C972 1.383 . S
C973 C974 1.377 . S
C974 H958 0.930 . S
C974 C973 1.377 . S
C974 C975 1.379 . S
C975 H959 0.931 . S
C975 C969 1.383 . S
C975 C974 1.379 . S
H976 C970 0.959 . S
H977 C970 0.961 . S
H978 C970 0.960 . S
H979 C971 0.930 . S
H980 C972 0.929 1_554 S
H981 C989 0.929 . S
H982 C991 0.930 . S
H983 C993 0.930 . S
H984 C996 0.929 . S
H985 C999 0.930 . S
H986 C1001 0.960 . S
H987 C1001 0.960 . S
H988 C1001 0.960 . S
C989 H981 0.929 . S
C989 C990 1.377 . S
C989 C991 1.384 . S
C990 C989 1.377 . S
C990 C996 1.390 . S
C991 H982 0.930 . S
C991 C989 1.384 . S
C991 C992 1.372 . S
C992 C991 1.372 . S
C992 C993 1.400 . S
C992 C997 1.490 . S
C993 H983 0.930 . S
C993 C992 1.400 . S
C993 C996 1.386 . S
H994 C1010 0.930 . S
H995 C1011 0.931 . S
C996 H984 0.929 . S
C996 C990 1.390 . S
C996 C993 1.386 . S
C997 C992 1.490 . S
C997 C999 1.395 . S
C997 C1000 1.403 . S
H998 C1004 0.930 . S
C999 H985 0.930 . S
C999 C997 1.395 . S
C999 C1002 1.403 . S
C1000 C997 1.403 . S
C1000 C1001 1.524 . S
C1000 C1004 1.400 . S
C1001 H986 0.960 . S
C1001 H987 0.960 . S
C1001 H988 0.960 . S
C1001 C1000 1.524 . S
C1002 C999 1.403 . S
C1002 C1003 1.392 . S
C1002 C1006 1.495 . S
C1003 C1002 1.392 . S
C1003 C1004 1.385 . S
C1003 C1005 1.478 . S
C1004 H998 0.930 . S
C1004 C1000 1.400 . S
C1004 C1003 1.385 . S
C1005 C1003 1.478 . S
C1005 C1007 1.381 . S
C1005 C1011 1.383 1_556 S
C1006 C1002 1.495 . S
C1006 H1012 0.959 . S
C1006 H1013 0.961 1_556 S
C1006 H1014 0.960 . S
C1007 C1005 1.381 . S
C1007 C1008 1.394 . S
C1007 H1015 0.930 . S
C1008 C1007 1.394 . S
C1008 C1009 1.383 . S
C1008 H1016 0.929 . S
C1009 C1008 1.383 . S
C1009 C1010 1.377 1_556 S
C1010 H994 0.930 . S
C1010 C1009 1.377 1_554 S
C1010 C1011 1.379 . S
C1011 H995 0.931 . S
C1011 C1005 1.383 1_554 S
C1011 C1010 1.379 . S
H1012 C1006 0.959 . S
H1013 C1006 0.961 1_554 S
H1014 C1006 0.960 . S
H1015 C1007 0.930 . S
H1016 C1008 0.929 . S
H1017 C1025 0.929 . S
H1018 C1027 0.930 . S
H1019 C1029 0.978 . S
H1020 C1032 0.929 . S
H1021 C1035 0.930 . S
H1022 C1037 0.960 . S
H1023 C1037 0.960 . S
H1024 C1037 0.960 . S
C1025 H1017 0.929 . S
C1025 C1026 1.377 . S
C1025 C1027 1.384 . S
C1026 C1025 1.377 . S
C1026 C1032 1.390 . S
C1027 H1018 0.930 . S
C1027 C1025 1.384 . S
C1027 C1028 1.372 . S
C1028 C1027 1.372 . S
C1028 C1029 1.400 . S
C1028 C1033 1.490 . S
C1029 H1019 0.978 . S
C1029 C1028 1.400 . S
C1029 C1032 1.386 . S
H1030 C1046 0.930 . S
H1031 C1047 0.931 . S
C1032 H1020 0.929 . S
C1032 C1026 1.390 . S
C1032 C1029 1.386 . S
C1033 C1028 1.490 . S
C1033 C1035 1.395 . S
C1033 C1036 1.403 . S
H1034 C1040 0.930 . S
C1035 H1021 0.930 . S
C1035 C1033 1.395 . S
C1035 C1038 1.403 . S
C1036 C1033 1.403 . S
C1036 C1037 1.524 . S
C1036 C1040 1.400 . S
C1037 H1022 0.960 . S
C1037 H1023 0.960 . S
C1037 H1024 0.960 . S
C1037 C1036 1.524 . S
C1038 C1035 1.403 . S
C1038 C1039 1.392 . S
C1038 C1042 1.495 . S
C1039 C1038 1.392 . S
C1039 C1040 1.385 . S
C1039 C1041 1.478 . S
C1040 H1034 0.930 . S
C1040 C1036 1.400 . S
C1040 C1039 1.385 . S
C1041 C1039 1.478 . S
C1041 C1043 1.381 . S
C1041 C1047 1.383 1_556 S
C1042 C1038 1.495 . S
C1042 H1048 0.959 . S
C1042 H1049 0.961 . S
C1042 H1050 0.960 . S
C1043 C1041 1.381 . S
C1043 C1044 1.394 . S
C1043 H1051 0.930 . S
C1044 C1043 1.394 . S
C1044 C1045 1.383 . S
C1044 H1052 0.929 . S
C1045 C1044 1.383 . S
C1045 C1046 1.377 1_556 S
C1046 H1030 0.930 . S
C1046 C1045 1.377 1_554 S
C1046 C1047 1.379 . S
C1047 H1031 0.931 . S
C1047 C1041 1.383 1_554 S
C1047 C1046 1.379 . S
H1048 C1042 0.959 . S
H1049 C1042 0.961 . S
H1050 C1042 0.960 . S
H1051 C1043 0.930 . S
H1052 C1044 0.929 . S
H1053 C1061 0.929 . S
H1054 C1063 0.930 . S
H1055 C1065 0.930 . S
H1056 C1068 0.929 . S
H1057 C1071 0.930 . S
H1058 C1073 0.960 . S
H1059 C1073 0.960 . S
H1060 C1073 0.960 . S
C1061 H1053 0.929 . S
C1061 C1062 1.377 . S
C1061 C1063 1.384 . S
C1062 C1061 1.377 . S
C1062 C1068 1.390 . S
C1063 H1054 0.930 . S
C1063 C1061 1.384 . S
C1063 C1064 1.372 . S
C1064 C1063 1.372 . S
C1064 C1065 1.400 . S
C1064 C1069 1.490 . S
C1065 H1055 0.930 . S
C1065 C1064 1.400 . S
C1065 C1068 1.386 . S
H1066 C1082 0.930 . S
H1067 C1083 0.931 . S
C1068 H1056 0.929 . S
C1068 C1062 1.390 . S
C1068 C1065 1.386 . S
C1069 C1064 1.490 . S
C1069 C1071 1.395 . S
C1069 C1072 1.403 . S
H1070 C1076 0.930 1_554 S
C1071 H1057 0.930 . S
C1071 C1069 1.395 . S
C1071 C1074 1.403 . S
C1072 C1069 1.403 . S
C1072 C1073 1.524 1_556 S
C1072 C1076 1.400 . S
C1073 H1058 0.960 . S
C1073 H1059 0.960 . S
C1073 H1060 0.960 . S
C1073 C1072 1.524 1_554 S
C1074 C1071 1.403 . S
C1074 C1075 1.392 . S
C1074 C1078 1.495 . S
C1075 C1074 1.392 . S
C1075 C1076 1.385 . S
C1075 C1077 1.478 . S
C1076 H1070 0.930 1_556 S
C1076 C1072 1.400 . S
C1076 C1075 1.385 . S
C1077 C1075 1.478 . S
C1077 C1079 1.381 . S
C1077 C1083 1.383 1_556 S
C1078 C1074 1.495 . S
C1078 H1084 0.959 . S
C1078 H1085 0.961 . S
C1078 H1086 0.960 . S
C1079 C1077 1.381 . S
C1079 C1080 1.394 . S
C1079 H1087 0.930 . S
C1080 C1079 1.394 . S
C1080 C1081 1.383 . S
C1080 H1088 0.929 . S
C1081 C1080 1.383 . S
C1081 C1082 1.377 1_556 S
C1082 H1066 0.930 . S
C1082 C1081 1.377 1_554 S
C1082 C1083 1.379 . S
C1083 H1067 0.931 . S
C1083 C1077 1.383 1_554 S
C1083 C1082 1.379 . S
H1084 C1078 0.959 . S
H1085 C1078 0.961 . S
H1086 C1078 0.960 . S
H1087 C1079 0.930 . S
H1088 C1080 0.929 . S
H1089 C1097 0.929 . S
H1090 C1099 0.930 . S
H1091 C1101 0.930 . S
H1092 C1104 0.929 . S
H1093 C1107 0.930 . S
H1094 C1109 0.960 . S
H1095 C1109 0.960 . S
H1096 C1109 0.960 . S
C1097 H1089 0.929 . S
C1097 C1098 1.377 . S
C1097 C1099 1.384 . S
C1098 C1097 1.377 . S
C1098 C1104 1.390 . S
C1099 H1090 0.930 . S
C1099 C1097 1.384 . S
C1099 C1100 1.372 . S
C1100 C1099 1.372 . S
C1100 C1101 1.400 . S
C1100 C1105 1.490 . S
C1101 H1091 0.930 . S
C1101 C1100 1.400 . S
C1101 C1104 1.386 . S
H1102 C1118 0.930 . S
H1103 C1119 0.931 . S
C1104 H1092 0.929 . S
C1104 C1098 1.390 . S
C1104 C1101 1.386 . S
C1105 C1100 1.490 . S
C1105 C1107 1.395 . S
C1105 C1108 1.403 . S
H1106 C1112 0.930 . S
C1107 H1093 0.930 . S
C1107 C1105 1.395 . S
C1107 C1110 1.403 . S
C1108 C1105 1.403 . S
C1108 C1109 1.524 . S
C1108 C1112 1.400 . S
C1109 H1094 0.960 . S
C1109 H1095 0.960 . S
C1109 H1096 0.960 . S
C1109 C1108 1.524 . S
C1110 C1107 1.403 . S
C1110 C1111 1.392 . S
C1110 C1114 1.495 . S
C1111 C1110 1.392 . S
C1111 C1112 1.385 . S
C1111 C1113 1.478 . S
C1112 H1106 0.930 . S
C1112 C1108 1.400 . S
C1112 C1111 1.385 . S
C1113 C1111 1.478 . S
C1113 C1115 1.381 . S
C1113 C1119 1.383 . S
C1114 C1110 1.495 . S
C1114 H1120 0.959 . S
C1114 H1121 0.961 . S
C1114 H1122 0.960 . S
C1115 C1113 1.381 . S
C1115 C1116 1.394 . S
C1115 H1123 0.962 . S
C1116 C1115 1.394 . S
C1116 C1117 1.383 . S
C1116 H1124 0.929 1_554 S
C1117 C1116 1.383 . S
C1117 C1118 1.377 . S
C1118 H1102 0.930 . S
C1118 C1117 1.377 . S
C1118 C1119 1.379 . S
C1119 H1103 0.931 . S
C1119 C1113 1.383 . S
C1119 C1118 1.379 . S
H1120 C1114 0.959 . S
H1121 C1114 0.961 . S
H1122 C1114 0.960 . S
H1123 C1115 0.962 . S
H1124 C1116 0.929 1_556 S
H1125 C1133 0.929 . S
H1126 C1135 0.930 . S
H1127 C1137 0.930 . S
H1128 C1140 0.929 . S
H1129 C1143 0.930 . S
H1130 C1145 0.960 . S
H1131 C1145 0.960 . S
H1132 C1145 0.960 . S
C1133 H1125 0.929 . S
C1133 C1134 1.377 . S
C1133 C1135 1.384 . S
C1134 C1133 1.377 . S
C1134 C1140 1.390 . S
C1135 H1126 0.930 . S
C1135 C1133 1.384 . S
C1135 C1136 1.372 . S
C1136 C1135 1.372 . S
C1136 C1137 1.400 . S
C1136 C1141 1.490 . S
C1137 H1127 0.930 . S
C1137 C1136 1.400 . S
C1137 C1140 1.386 . S
H1138 C1154 0.991 . S
H1139 C1155 0.931 1_556 S
C1140 H1128 0.929 . S
C1140 C1134 1.390 . S
C1140 C1137 1.386 . S
C1141 C1136 1.490 . S
C1141 C1143 1.395 . S
C1141 C1144 1.403 . S
H1142 C1148 0.930 . S
C1143 H1129 0.930 . S
C1143 C1141 1.395 . S
C1143 C1146 1.403 . S
C1144 C1141 1.403 . S
C1144 C1145 1.524 . S
C1144 C1148 1.400 . S
C1145 H1130 0.960 . S
C1145 H1131 0.960 . S
C1145 H1132 0.960 . S
C1145 C1144 1.524 . S
C1146 C1143 1.403 . S
C1146 C1147 1.392 . S
C1146 C1150 1.495 . S
C1147 C1146 1.392 . S
C1147 C1148 1.385 . S
C1147 C1149 1.478 . S
C1148 H1142 0.930 . S
C1148 C1144 1.400 . S
C1148 C1147 1.385 . S
C1149 C1147 1.478 . S
C1149 C1151 1.381 . S
C1149 C1155 1.383 . S
C1150 C1146 1.495 . S
C1150 H1156 0.959 . S
C1150 H1157 0.961 . S
C1150 H1158 0.960 . S
C1151 C1149 1.381 . S
C1151 C1152 1.394 . S
C1151 H1159 0.930 . S
C1152 C1151 1.394 . S
C1152 C1153 1.383 . S
C1152 H1160 0.929 . S
C1153 C1152 1.383 . S
C1153 C1154 1.334 1_554 S
C1154 H1138 0.991 . S
C1154 C1153 1.334 1_556 S
C1154 C1155 1.364 1_556 S
C1155 H1139 0.931 1_554 S
C1155 C1149 1.383 . S
C1155 C1154 1.364 1_554 S
H1156 C1150 0.959 . S
H1157 C1150 0.961 . S
H1158 C1150 0.960 . S
H1159 C1151 0.930 . S
H1160 C1152 0.929 . S
H1161 C1169 0.929 . S
H1162 C1171 0.930 . S
H1163 C1173 0.930 . S
H1164 C1176 0.929 . S
H1165 C1179 0.930 . S
H1166 C1181 0.960 . S
H1167 C1181 0.960 . S
H1168 C1181 0.960 . S
C1169 H1161 0.929 . S
C1169 C1170 1.377 . S
C1169 C1171 1.384 . S
C1170 C1169 1.377 . S
C1170 C1176 1.390 . S
C1171 H1162 0.930 . S
C1171 C1169 1.384 . S
C1171 C1172 1.372 . S
C1172 C1171 1.372 . S
C1172 C1173 1.400 . S
C1172 C1177 1.490 . S
C1173 H1163 0.930 . S
C1173 C1172 1.400 . S
C1173 C1176 1.386 . S
H1174 C1190 0.930 . S
H1175 C1191 0.931 . S
C1176 H1164 0.929 . S
C1176 C1170 1.390 . S
C1176 C1173 1.386 . S
C1177 C1172 1.490 . S
C1177 C1179 1.395 . S
C1177 C1180 1.403 . S
H1178 C1184 0.930 . S
C1179 H1165 0.930 . S
C1179 C1177 1.395 . S
C1179 C1182 1.403 . S
C1180 C1177 1.403 . S
C1180 C1181 1.524 . S
C1180 C1184 1.400 . S
C1181 H1166 0.960 . S
C1181 H1167 0.960 . S
C1181 H1168 0.960 . S
C1181 C1180 1.524 . S
C1182 C1179 1.403 . S
C1182 C1183 1.392 . S
C1182 C1186 1.495 1_554 S
C1183 C1182 1.392 . S
C1183 C1184 1.385 . S
C1183 C1185 1.478 . S
C1184 H1178 0.930 . S
C1184 C1180 1.400 . S
C1184 C1183 1.385 . S
C1185 C1183 1.478 . S
C1185 C1187 1.381 . S
C1185 C1191 1.383 . S
C1186 C1182 1.495 1_556 S
C1186 H1192 0.959 . S
C1186 H1193 0.961 . S
C1186 H1194 0.960 . S
C1187 C1185 1.381 . S
C1187 C1188 1.394 . S
C1187 H1195 0.930 . S
C1188 C1187 1.394 . S
C1188 C1189 1.383 . S
C1188 H1196 0.929 . S
C1189 C1188 1.383 . S
C1189 C1190 1.377 . S
C1190 H1174 0.930 . S
C1190 C1189 1.377 . S
C1190 C1191 1.379 . S
C1191 H1175 0.931 . S
C1191 C1185 1.383 . S
C1191 C1190 1.379 . S
H1192 C1186 0.959 . S
H1193 C1186 0.961 . S
H1194 C1186 0.960 . S
H1195 C1187 0.930 . S
H1196 C1188 0.929 . S
H1197 C1205 0.929 . S
H1198 C1207 0.930 . S
H1199 C1209 0.930 . S
H1200 C1212 0.929 . S
H1201 C1215 0.930 . S
H1202 C1217 0.960 . S
H1203 C1217 0.960 . S
H1204 C1217 0.960 . S
C1205 H1197 0.929 . S
C1205 C1206 1.377 . S
C1205 C1207 1.384 . S
C1206 C1205 1.377 . S
C1206 C1212 1.390 . S
C1207 H1198 0.930 . S
C1207 C1205 1.384 . S
C1207 C1208 1.372 . S
C1208 C1207 1.372 . S
C1208 C1209 1.400 . S
C1208 C1213 1.490 1_655 S
C1209 H1199 0.930 . S
C1209 C1208 1.400 . S
C1209 C1212 1.386 . S
H1210 C1226 0.930 . S
H1211 C1227 0.931 . S
C1212 H1200 0.929 . S
C1212 C1206 1.390 . S
C1212 C1209 1.386 . S
C1213 C1208 1.490 1_455 S
C1213 C1215 1.395 . S
C1213 C1216 1.403 . S
H1214 C1220 0.930 . S
C1215 H1201 0.930 . S
C1215 C1213 1.395 . S
C1215 C1218 1.403 . S
C1216 C1213 1.403 . S
C1216 C1217 1.524 . S
C1216 C1220 1.400 . S
C1217 H1202 0.960 . S
C1217 H1203 0.960 . S
C1217 H1204 0.960 . S
C1217 C1216 1.524 . S
C1218 C1215 1.403 . S
C1218 C1219 1.392 . S
C1218 C1222 1.495 . S
C1219 C1218 1.392 . S
C1219 C1220 1.385 . S
C1219 C1221 1.478 . S
C1220 H1214 0.930 . S
C1220 C1216 1.400 . S
C1220 C1219 1.385 . S
C1221 C1219 1.478 . S
C1221 C1223 1.381 . S
C1221 C1227 1.383 . S
C1222 C1218 1.495 . S
C1222 H1228 0.959 . S
C1222 H1229 0.961 . S
C1222 H1230 0.960 . S
C1223 C1221 1.381 . S
C1223 C1224 1.394 . S
C1223 H1231 0.930 . S
C1224 C1223 1.394 . S
C1224 C1225 1.383 . S
C1224 H1232 0.929 . S
C1225 C1224 1.383 . S
C1225 C1226 1.377 . S
C1226 H1210 0.930 . S
C1226 C1225 1.377 . S
C1226 C1227 1.379 . S
C1227 H1211 0.931 . S
C1227 C1221 1.383 . S
C1227 C1226 1.379 . S
H1228 C1222 0.959 . S
H1229 C1222 0.961 . S
H1230 C1222 0.960 . S
H1231 C1223 0.930 . S
H1232 C1224 0.929 . S
H1233 C1241 0.929 . S
H1234 C1243 0.930 . S
H1235 C1245 0.930 . S
H1236 C1248 0.929 . S
H1237 C1251 0.930 . S
H1238 C1253 0.960 . S
H1239 C1253 0.960 . S
H1240 C1253 0.960 . S
C1241 H1233 0.929 . S
C1241 C1242 1.377 . S
C1241 C1243 1.384 . S
C1242 C1241 1.377 . S
C1242 C1248 1.390 . S
C1243 H1234 0.930 . S
C1243 C1241 1.384 . S
C1243 C1244 1.372 . S
C1244 C1243 1.372 . S
C1244 C1245 1.400 . S
C1244 C1249 1.490 . S
C1245 H1235 0.930 . S
C1245 C1244 1.400 . S
C1245 C1248 1.386 . S
H1246 C1262 0.930 . S
H1247 C1263 0.931 . S
C1248 H1236 0.929 . S
C1248 C1242 1.390 . S
C1248 C1245 1.386 . S
C1249 C1244 1.490 . S
C1249 C1251 1.395 . S
C1249 C1252 1.403 . S
H1250 C1256 0.930 . S
C1251 H1237 0.930 . S
C1251 C1249 1.395 . S
C1251 C1254 1.403 . S
C1252 C1249 1.403 . S
C1252 C1253 1.524 . S
C1252 C1256 1.400 . S
C1253 H1238 0.960 . S
C1253 H1239 0.960 . S
C1253 H1240 0.960 . S
C1253 C1252 1.524 . S
C1254 C1251 1.403 . S
C1254 C1255 1.392 . S
C1254 C1258 1.495 . S
C1255 C1254 1.392 . S
C1255 C1256 1.385 . S
C1255 C1257 1.478 . S
C1256 H1250 0.930 . S
C1256 C1252 1.400 . S
C1256 C1255 1.385 . S
C1257 C1255 1.478 . S
C1257 C1259 1.381 . S
C1257 C1263 1.383 . S
C1258 C1254 1.495 . S
C1258 H1264 0.959 . S
C1258 H1265 0.961 . S
C1258 H1266 0.960 . S
C1259 C1257 1.381 . S
C1259 C1260 1.394 . S
C1259 H1267 0.930 . S
C1260 C1259 1.394 . S
C1260 C1261 1.383 . S
C1260 H1268 0.929 . S
C1261 C1260 1.383 . S
C1261 C1262 1.377 . S
C1262 H1246 0.930 . S
C1262 C1261 1.377 . S
C1262 C1263 1.379 . S
C1263 H1247 0.931 . S
C1263 C1257 1.383 . S
C1263 C1262 1.379 . S
H1264 C1258 0.959 . S
H1265 C1258 0.961 . S
H1266 C1258 0.960 . S
H1267 C1259 0.930 . S
H1268 C1260 0.929 . S
H1269 C1277 0.929 . S
H1270 C1279 0.930 . S
H1271 C1281 0.930 . S
H1272 C1284 0.929 . S
H1273 C1287 0.930 . S
H1274 C1289 0.960 . S
H1275 C1289 0.960 1_545 S
H1276 C1289 0.960 . S
C1277 H1269 0.929 . S
C1277 C1278 1.377 . S
C1277 C1279 1.384 . S
C1278 C1277 1.377 . S
C1278 C1284 1.390 . S
C1279 H1270 0.930 . S
C1279 C1277 1.384 . S
C1279 C1280 1.372 . S
C1280 C1279 1.372 . S
C1280 C1281 1.400 . S
C1280 C1285 1.490 1_545 S
C1281 H1271 0.930 . S
C1281 C1280 1.400 . S
C1281 C1284 1.386 . S
H1282 C1298 0.930 . S
H1283 C1299 0.931 . S
C1284 H1272 0.929 . S
C1284 C1278 1.390 . S
C1284 C1281 1.386 . S
C1285 C1280 1.490 1_565 S
C1285 C1287 1.395 . S
C1285 C1288 1.403 . S
H1286 C1292 0.930 . S
C1287 H1273 0.930 . S
C1287 C1285 1.395 . S
C1287 C1290 1.403 . S
C1288 C1285 1.403 . S
C1288 C1289 1.524 . S
C1288 C1292 1.400 . S
C1289 H1274 0.960 . S
C1289 H1275 0.960 1_565 S
C1289 H1276 0.960 . S
C1289 C1288 1.524 . S
C1290 C1287 1.403 . S
C1290 C1291 1.392 . S
C1290 C1294 1.495 . S
C1291 C1290 1.392 . S
C1291 C1292 1.385 . S
C1291 C1293 1.478 . S
C1292 H1286 0.930 . S
C1292 C1288 1.400 . S
C1292 C1291 1.385 . S
C1293 C1291 1.478 . S
C1293 C1295 1.381 . S
C1293 C1299 1.383 . S
C1294 C1290 1.495 . S
C1294 H1300 0.959 . S
C1294 H1301 0.961 . S
C1294 H1302 0.960 . S
C1295 C1293 1.381 . S
C1295 C1296 1.394 . S
C1295 H1303 0.930 . S
C1296 C1295 1.394 . S
C1296 C1297 1.383 . S
C1296 H1304 0.929 . S
C1297 C1296 1.383 . S
C1297 C1298 1.377 . S
C1298 H1282 0.930 . S
C1298 C1297 1.377 . S
C1298 C1299 1.379 . S
C1299 H1283 0.931 . S
C1299 C1293 1.383 . S
C1299 C1298 1.379 . S
H1300 C1294 0.959 . S
H1301 C1294 0.961 . S
H1302 C1294 0.960 . S
H1303 C1295 0.930 . S
H1304 C1296 0.929 . S
H1305 C1313 0.929 . S
H1306 C1315 0.930 . S
H1307 C1317 0.930 . S
H1308 C1320 0.929 . S
H1309 C1323 0.930 . S
H1310 C1325 0.960 . S
H1311 C1325 0.960 . S
H1312 C1325 0.960 . S
C1313 H1305 0.929 . S
C1313 C1314 1.377 . S
C1313 C1315 1.384 . S
C1314 C1313 1.377 . S
C1314 C1320 1.390 . S
C1315 H1306 0.930 . S
C1315 C1313 1.384 . S
C1315 C1316 1.372 . S
C1316 C1315 1.372 . S
C1316 C1317 1.400 . S
C1316 C1321 1.490 . S
C1317 H1307 0.930 . S
C1317 C1316 1.400 . S
C1317 C1320 1.386 . S
H1318 C1334 0.930 . S
H1319 C1335 0.931 . S
C1320 H1308 0.929 . S
C1320 C1314 1.390 . S
C1320 C1317 1.386 . S
C1321 C1316 1.490 . S
C1321 C1323 1.395 . S
C1321 C1324 1.403 . S
H1322 C1328 0.930 . S
C1323 H1309 0.930 . S
C1323 C1321 1.395 . S
C1323 C1326 1.403 . S
C1324 C1321 1.403 . S
C1324 C1325 1.524 . S
C1324 C1328 1.400 . S
C1325 H1310 0.960 . S
C1325 H1311 0.960 . S
C1325 H1312 0.960 . S
C1325 C1324 1.524 . S
C1326 C1323 1.403 . S
C1326 C1327 1.392 . S
C1326 C1330 1.495 . S
C1327 C1326 1.392 . S
C1327 C1328 1.385 . S
C1327 C1329 1.478 . S
C1328 H1322 0.930 . S
C1328 C1324 1.400 . S
C1328 C1327 1.385 . S
C1329 C1327 1.478 . S
C1329 C1331 1.381 . S
C1329 C1335 1.383 . S
C1330 C1326 1.495 . S
C1330 H1336 0.959 . S
C1330 H1337 0.961 . S
C1330 H1338 0.960 . S
C1331 C1329 1.381 . S
C1331 C1332 1.394 . S
C1331 H1339 0.930 . S
C1332 C1331 1.394 . S
C1332 C1333 1.383 . S
C1332 H1340 0.929 . S
C1333 C1332 1.383 . S
C1333 C1334 1.377 . S
C1334 H1318 0.930 . S
C1334 C1333 1.377 . S
C1334 C1335 1.379 . S
C1335 H1319 0.931 . S
C1335 C1329 1.383 . S
C1335 C1334 1.379 . S
H1336 C1330 0.959 . S
H1337 C1330 0.961 . S
H1338 C1330 0.960 . S
H1339 C1331 0.930 . S
H1340 C1332 0.929 . S
H1341 C1349 0.929 . S
H1342 C1351 0.930 . S
H1343 C1353 0.930 . S
H1344 C1356 0.929 . S
H1345 C1359 0.930 . S
H1346 C1361 0.960 . S
H1347 C1361 0.960 . S
H1348 C1361 0.960 . S
C1349 H1341 0.929 . S
C1349 C1350 1.377 . S
C1349 C1351 1.384 . S
C1350 C1349 1.377 . S
C1350 C1356 1.390 . S
C1351 H1342 0.930 . S
C1351 C1349 1.384 . S
C1351 C1352 1.372 . S
C1352 C1351 1.372 . S
C1352 C1353 1.400 . S
C1352 C1357 1.490 . S
C1353 H1343 0.930 . S
C1353 C1352 1.400 . S
C1353 C1356 1.386 . S
H1354 C1370 0.930 . S
H1355 C1371 0.931 . S
C1356 H1344 0.929 . S
C1356 C1350 1.390 . S
C1356 C1353 1.386 . S
C1357 C1352 1.490 . S
C1357 C1359 1.395 . S
C1357 C1360 1.403 . S
H1358 C1364 0.930 . S
C1359 H1345 0.930 . S
C1359 C1357 1.395 . S
C1359 C1362 1.403 . S
C1360 C1357 1.403 . S
C1360 C1361 1.524 . S
C1360 C1364 1.400 . S
C1361 H1346 0.960 . S
C1361 H1347 0.960 . S
C1361 H1348 0.960 . S
C1361 C1360 1.524 . S
C1362 C1359 1.403 . S
C1362 C1363 1.392 . S
C1362 C1366 1.495 . S
C1363 C1362 1.392 . S
C1363 C1364 1.385 . S
C1363 C1365 1.478 . S
C1364 H1358 0.930 . S
C1364 C1360 1.400 . S
C1364 C1363 1.385 . S
C1365 C1363 1.478 . S
C1365 C1367 1.381 . S
C1365 C1371 1.383 . S
C1366 C1362 1.495 . S
C1366 H1372 0.959 . S
C1366 H1373 0.961 . S
C1366 H1374 0.960 . S
C1367 C1365 1.381 . S
C1367 C1368 1.394 . S
C1367 H1375 0.930 . S
C1368 C1367 1.394 . S
C1368 C1369 1.383 . S
C1368 H1376 0.929 . S
C1369 C1368 1.383 . S
C1369 C1370 1.377 . S
C1370 H1354 0.930 . S
C1370 C1369 1.377 . S
C1370 C1371 1.379 . S
C1371 H1355 0.931 . S
C1371 C1365 1.383 . S
C1371 C1370 1.379 . S
H1372 C1366 0.959 . S
H1373 C1366 0.961 . S
H1374 C1366 0.960 . S
H1375 C1367 0.930 . S
H1376 C1368 0.929 . S
H1377 C1385 0.929 . S
H1378 C1387 0.930 . S
H1379 C1389 0.930 . S
H1380 C1392 0.929 . S
H1381 C1395 0.930 . S
H1382 C1397 0.960 . S
H1383 C1397 0.960 . S
H1384 C1397 0.960 . S
C1385 H1377 0.929 . S
C1385 C1386 1.377 . S
C1385 C1387 1.384 . S
C1386 C1385 1.377 . S
C1386 C1392 1.390 . S
C1387 H1378 0.930 . S
C1387 C1385 1.384 . S
C1387 C1388 1.372 . S
C1388 C1387 1.372 . S
C1388 C1389 1.400 . S
C1388 C1393 1.490 . S
C1389 H1379 0.930 . S
C1389 C1388 1.400 . S
C1389 C1392 1.386 . S
H1390 C1406 0.930 . S
H1391 C1407 0.931 . S
C1392 H1380 0.929 . S
C1392 C1386 1.390 . S
C1392 C1389 1.386 . S
C1393 C1388 1.490 . S
C1393 C1395 1.395 . S
C1393 C1396 1.403 . S
H1394 C1400 0.930 . S
C1395 H1381 0.930 . S
C1395 C1393 1.395 . S
C1395 C1398 1.403 . S
C1396 C1393 1.403 . S
C1396 C1397 1.524 . S
C1396 C1400 1.400 . S
C1397 H1382 0.960 . S
C1397 H1383 0.960 . S
C1397 H1384 0.960 . S
C1397 C1396 1.524 . S
C1398 C1395 1.403 . S
C1398 C1399 1.392 . S
C1398 C1402 1.495 . S
C1399 C1398 1.392 . S
C1399 C1400 1.385 . S
C1399 C1401 1.478 . S
C1400 H1394 0.930 . S
C1400 C1396 1.400 . S
C1400 C1399 1.385 . S
C1401 C1399 1.478 . S
C1401 C1403 1.381 . S
C1401 C1407 1.383 . S
C1402 C1398 1.495 . S
C1402 H1408 0.959 . S
C1402 H1409 0.961 . S
C1402 H1410 0.960 . S
C1403 C1401 1.381 . S
C1403 C1404 1.394 . S
C1403 H1411 0.930 . S
C1404 C1403 1.394 . S
C1404 C1405 1.383 . S
C1404 H1412 0.929 . S
C1405 C1404 1.383 . S
C1405 C1406 1.377 . S
C1406 H1390 0.930 . S
C1406 C1405 1.377 . S
C1406 C1407 1.379 . S
C1407 H1391 0.931 . S
C1407 C1401 1.383 . S
C1407 C1406 1.379 . S
H1408 C1402 0.959 . S
H1409 C1402 0.961 . S
H1410 C1402 0.960 . S
H1411 C1403 0.930 . S
H1412 C1404 0.929 . S
H1413 C1421 0.929 . S
H1414 C1423 0.930 . S
H1415 C1425 0.930 . S
H1416 C1428 0.929 . S
H1417 C1431 0.930 . S
H1418 C1433 0.960 . S
H1419 C1433 0.960 . S
H1420 C1433 0.960 . S
C1421 H1413 0.929 . S
C1421 C1422 1.377 . S
C1421 C1423 1.384 . S
C1422 C1421 1.377 . S
C1422 C1428 1.390 . S
C1423 H1414 0.930 . S
C1423 C1421 1.384 . S
C1423 C1424 1.372 . S
C1424 C1423 1.372 . S
C1424 C1425 1.400 . S
C1424 C1429 1.490 . S
C1425 H1415 0.930 . S
C1425 C1424 1.400 . S
C1425 C1428 1.386 . S
H1426 C1442 0.930 . S
H1427 C1443 0.931 . S
C1428 H1416 0.929 . S
C1428 C1422 1.390 . S
C1428 C1425 1.386 . S
C1429 C1424 1.490 . S
C1429 C1431 1.395 . S
C1429 C1432 1.403 . S
H1430 C1436 0.930 . S
C1431 H1417 0.930 . S
C1431 C1429 1.395 . S
C1431 C1434 1.403 . S
C1432 C1429 1.403 . S
C1432 C1433 1.524 . S
C1432 C1436 1.400 . S
C1433 H1418 0.960 . S
C1433 H1419 0.960 . S
C1433 H1420 0.960 . S
C1433 C1432 1.524 . S
C1434 C1431 1.403 . S
C1434 C1435 1.392 . S
C1434 C1438 1.495 . S
C1435 C1434 1.392 . S
C1435 C1436 1.385 . S
C1435 C1437 1.478 . S
C1436 H1430 0.930 . S
C1436 C1432 1.400 . S
C1436 C1435 1.385 . S
C1437 C1435 1.478 . S
C1437 C1439 1.381 . S
C1437 C1443 1.383 . S
C1438 C1434 1.495 . S
C1438 H1444 0.959 . S
C1438 H1445 0.961 . S
C1438 H1446 0.960 . S
C1439 C1437 1.381 . S
C1439 C1440 1.394 . S
C1439 H1447 0.930 . S
C1440 C1439 1.394 . S
C1440 C1441 1.383 . S
C1440 H1448 0.929 . S
C1441 C1440 1.383 . S
C1441 C1442 1.377 . S
C1442 H1426 0.930 . S
C1442 C1441 1.377 . S
C1442 C1443 1.379 . S
C1443 H1427 0.931 . S
C1443 C1437 1.383 . S
C1443 C1442 1.379 . S
H1444 C1438 0.959 . S
H1445 C1438 0.961 . S
H1446 C1438 0.960 . S
H1447 C1439 0.930 . S
H1448 C1440 0.929 . S
H1449 C1457 0.929 . S
H1450 C1459 0.930 . S
H1451 C1461 0.930 . S
H1452 C1464 0.929 . S
H1453 C1467 0.930 . S
H1454 C1469 0.960 . S
H1455 C1469 0.960 . S
H1456 C1469 0.960 . S
C1457 H1449 0.929 . S
C1457 C1458 1.377 . S
C1457 C1459 1.384 . S
C1458 C1457 1.377 . S
C1458 C1464 1.390 . S
C1459 H1450 0.930 . S
C1459 C1457 1.384 . S
C1459 C1460 1.372 . S
C1460 C1459 1.372 . S
C1460 C1461 1.400 . S
C1460 C1465 1.490 . S
C1461 H1451 0.930 . S
C1461 C1460 1.400 . S
C1461 C1464 1.386 . S
H1462 C1478 0.930 . S
H1463 C1479 0.931 . S
C1464 H1452 0.929 . S
C1464 C1458 1.390 . S
C1464 C1461 1.386 . S
C1465 C1460 1.490 . S
C1465 C1467 1.395 . S
C1465 C1468 1.403 . S
H1466 C1472 0.930 . S
C1467 H1453 0.930 . S
C1467 C1465 1.395 . S
C1467 C1470 1.403 . S
C1468 C1465 1.403 . S
C1468 C1469 1.524 . S
C1468 C1472 1.400 . S
C1469 H1454 0.960 . S
C1469 H1455 0.960 . S
C1469 H1456 0.960 . S
C1469 C1468 1.524 . S
C1470 C1467 1.403 . S
C1470 C1471 1.392 . S
C1470 C1474 1.495 . S
C1471 C1470 1.392 . S
C1471 C1472 1.385 . S
C1471 C1473 1.478 . S
C1472 H1466 0.930 . S
C1472 C1468 1.400 . S
C1472 C1471 1.385 . S
C1473 C1471 1.478 . S
C1473 C1475 1.381 . S
C1473 C1479 1.383 . S
C1474 C1470 1.495 . S
C1474 H1480 0.959 . S
C1474 H1481 0.961 . S
C1474 H1482 0.960 . S
C1475 C1473 1.381 . S
C1475 C1476 1.394 . S
C1475 H1483 0.930 . S
C1476 C1475 1.394 . S
C1476 C1477 1.383 . S
C1476 H1484 0.929 . S
C1477 C1476 1.383 . S
C1477 C1478 1.377 . S
C1478 H1462 0.930 . S
C1478 C1477 1.377 . S
C1478 C1479 1.379 . S
C1479 H1463 0.931 . S
C1479 C1473 1.383 . S
C1479 C1478 1.379 . S
H1480 C1474 0.959 . S
H1481 C1474 0.961 . S
H1482 C1474 0.960 . S
H1483 C1475 0.930 . S
H1484 C1476 0.929 . S
H1485 C1493 0.929 . S
H1486 C1495 0.930 . S
H1487 C1497 0.930 . S
H1488 C1500 0.929 . S
H1489 C1503 0.930 . S
H1490 C1505 0.960 . S
H1491 C1505 0.960 . S
H1492 C1505 0.960 . S
C1493 H1485 0.929 . S
C1493 C1494 1.377 . S
C1493 C1495 1.384 . S
C1494 C1493 1.377 . S
C1494 C1500 1.390 . S
C1495 H1486 0.930 . S
C1495 C1493 1.384 . S
C1495 C1496 1.372 . S
C1496 C1495 1.372 . S
C1496 C1497 1.400 . S
C1496 C1501 1.490 . S
C1497 H1487 0.930 . S
C1497 C1496 1.400 . S
C1497 C1500 1.386 . S
H1498 C1514 0.930 . S
H1499 C1515 0.931 . S
C1500 H1488 0.929 . S
C1500 C1494 1.390 . S
C1500 C1497 1.386 . S
C1501 C1496 1.490 . S
C1501 C1503 1.395 . S
C1501 C1504 1.403 . S
H1502 C1508 0.930 . S
C1503 H1489 0.930 . S
C1503 C1501 1.395 . S
C1503 C1506 1.403 . S
C1504 C1501 1.403 . S
C1504 C1505 1.524 . S
C1504 C1508 1.400 . S
C1505 H1490 0.960 . S
C1505 H1491 0.960 . S
C1505 H1492 0.960 . S
C1505 C1504 1.524 . S
C1506 C1503 1.403 . S
C1506 C1507 1.392 . S
C1506 C1510 1.495 . S
C1507 C1506 1.392 . S
C1507 C1508 1.385 . S
C1507 C1509 1.478 . S
C1508 H1502 0.930 . S
C1508 C1504 1.400 . S
C1508 C1507 1.385 . S
C1509 C1507 1.478 . S
C1509 C1511 1.381 . S
C1509 C1515 1.383 . S
C1510 C1506 1.495 . S
C1510 H1516 0.959 . S
C1510 H1517 0.961 . S
C1510 H1518 0.960 . S
C1511 C1509 1.381 . S
C1511 C1512 1.394 . S
C1511 H1519 0.930 . S
C1512 C1511 1.394 . S
C1512 C1513 1.383 . S
C1512 H1520 0.929 . S
C1513 C1512 1.383 . S
C1513 C1514 1.377 . S
C1514 H1498 0.930 . S
C1514 C1513 1.377 . S
C1514 C1515 1.379 . S
C1515 H1499 0.931 . S
C1515 C1509 1.383 . S
C1515 C1514 1.379 . S
H1516 C1510 0.959 . S
H1517 C1510 0.961 . S
H1518 C1510 0.960 . S
H1519 C1511 0.930 . S
H1520 C1512 0.929 . S
H1521 C1529 0.929 . S
H1522 C1531 0.930 . S
H1523 C1533 0.930 . S
H1524 C1536 0.929 . S
H1525 C1539 0.930 . S
H1526 C1541 0.960 . S
H1527 C1541 0.960 1_545 S
H1528 C1541 0.960 1_545 S
C1529 H1521 0.929 . S
C1529 C1530 1.377 . S
C1529 C1531 1.384 . S
C1530 C1529 1.377 . S
C1530 C1536 1.390 . S
C1531 H1522 0.930 . S
C1531 C1529 1.384 . S
C1531 C1532 1.372 . S
C1532 C1531 1.372 . S
C1532 C1533 1.400 . S
C1532 C1537 1.490 1_545 S
C1533 H1523 0.930 . S
C1533 C1532 1.400 . S
C1533 C1536 1.386 . S
H1534 C1550 0.930 . S
H1535 C1551 0.931 . S
C1536 H1524 0.929 . S
C1536 C1530 1.390 . S
C1536 C1533 1.386 . S
C1537 C1532 1.490 1_565 S
C1537 C1539 1.395 . S
C1537 C1540 1.403 . S
H1538 C1544 0.930 . S
C1539 H1525 0.930 . S
C1539 C1537 1.395 . S
C1539 C1542 1.403 . S
C1540 C1537 1.403 . S
C1540 C1541 1.524 . S
C1540 C1544 1.400 . S
C1541 H1526 0.960 . S
C1541 H1527 0.960 1_565 S
C1541 H1528 0.960 1_565 S
C1541 C1540 1.524 . S
C1542 C1539 1.403 . S
C1542 C1543 1.392 . S
C1542 C1546 1.495 . S
C1543 C1542 1.392 . S
C1543 C1544 1.385 . S
C1543 C1545 1.478 . S
C1544 H1538 0.930 . S
C1544 C1540 1.400 . S
C1544 C1543 1.385 . S
C1545 C1543 1.478 . S
C1545 C1547 1.381 . S
C1545 C1551 1.383 . S
C1546 C1542 1.495 . S
C1546 H1552 0.959 . S
C1546 H1553 0.961 . S
C1546 H1554 0.960 . S
C1547 C1545 1.381 . S
C1547 C1548 1.394 . S
C1547 H1555 0.930 . S
C1548 C1547 1.394 . S
C1548 C1549 1.383 . S
C1548 H1556 0.929 . S
C1549 C1548 1.383 . S
C1549 C1550 1.377 . S
C1550 H1534 0.930 . S
C1550 C1549 1.377 . S
C1550 C1551 1.379 . S
C1551 H1535 0.931 . S
C1551 C1545 1.383 . S
C1551 C1550 1.379 . S
H1552 C1546 0.959 . S
H1553 C1546 0.961 . S
H1554 C1546 0.960 . S
H1555 C1547 0.930 . S
H1556 C1548 0.929 . S
H1557 C1565 0.929 . S
H1558 C1567 0.930 . S
H1559 C1569 0.930 . S
H1560 C1572 0.929 . S
H1561 C1575 0.930 . S
H1562 C1577 0.906 1_455 S
H1563 C1577 1.013 . S
H1564 C1577 0.978 . S
C1565 H1557 0.929 . S
C1565 C1566 1.377 . S
C1565 C1567 1.384 . S
C1566 C1565 1.377 . S
C1566 C1572 1.390 . S
C1567 H1558 0.930 . S
C1567 C1565 1.384 . S
C1567 C1568 1.372 . S
C1568 C1567 1.372 . S
C1568 C1569 1.400 . S
C1568 C1573 1.490 1_655 S
C1569 H1559 0.930 . S
C1569 C1568 1.400 . S
C1569 C1572 1.386 . S
H1570 C1586 0.930 . S
H1571 C1587 0.931 . S
C1572 H1560 0.929 . S
C1572 C1566 1.390 . S
C1572 C1569 1.386 . S
C1573 C1568 1.490 1_455 S
C1573 C1575 1.395 . S
C1573 C1576 1.403 . S
H1574 C1580 0.930 . S
C1575 H1561 0.930 . S
C1575 C1573 1.395 . S
C1575 C1578 1.403 . S
C1576 C1573 1.403 . S
C1576 C1577 1.512 1_455 S
C1576 C1580 1.400 . S
C1577 H1562 0.906 1_655 S
C1577 H1563 1.013 . S
C1577 H1564 0.978 . S
C1577 C1576 1.512 1_655 S
C1578 C1575 1.403 . S
C1578 C1579 1.392 . S
C1578 C1582 1.495 . S
C1579 C1578 1.392 . S
C1579 C1580 1.385 . S
C1579 C1581 1.478 . S
C1580 H1574 0.930 . S
C1580 C1576 1.400 . S
C1580 C1579 1.385 . S
C1581 C1579 1.478 . S
C1581 C1583 1.381 . S
C1581 C1587 1.383 . S
C1582 C1578 1.495 . S
C1582 H1588 0.959 . S
C1582 H1589 0.961 . S
C1582 H1590 0.960 . S
C1583 C1581 1.381 . S
C1583 C1584 1.394 . S
C1583 H1591 0.930 . S
C1584 C1583 1.394 . S
C1584 C1585 1.383 . S
C1584 H1592 0.929 . S
C1585 C1584 1.383 . S
C1585 C1586 1.377 . S
C1586 H1570 0.930 . S
C1586 C1585 1.377 . S
C1586 C1587 1.379 . S
C1587 H1571 0.931 . S
C1587 C1581 1.383 . S
C1587 C1586 1.379 . S
H1588 C1582 0.959 . S
H1589 C1582 0.961 . S
H1590 C1582 0.960 . S
H1591 C1583 0.930 . S
H1592 C1584 0.929 . S
H1593 C1601 0.929 . S
H1594 C1603 0.930 . S
H1595 C1605 0.930 . S
H1596 C1608 0.929 . S
H1597 C1611 0.930 . S
H1598 C1613 0.960 . S
H1599 C1613 0.960 . S
H1600 C1613 0.960 . S
C1601 H1593 0.929 . S
C1601 C1602 1.377 . S
C1601 C1603 1.384 . S
C1602 C1601 1.377 . S
C1602 C1608 1.390 . S
C1603 H1594 0.930 . S
C1603 C1601 1.384 . S
C1603 C1604 1.372 . S
C1604 C1603 1.372 . S
C1604 C1605 1.400 . S
C1604 C1609 1.490 . S
C1605 H1595 0.930 . S
C1605 C1604 1.400 . S
C1605 C1608 1.386 . S
H1606 C1622 0.930 . S
H1607 C1623 0.931 . S
C1608 H1596 0.929 . S
C1608 C1602 1.390 . S
C1608 C1605 1.386 . S
C1609 C1604 1.490 . S
C1609 C1611 1.395 . S
C1609 C1612 1.403 . S
H1610 C1616 0.930 . S
C1611 H1597 0.930 . S
C1611 C1609 1.395 . S
C1611 C1614 1.403 . S
C1612 C1609 1.403 . S
C1612 C1613 1.524 . S
C1612 C1616 1.400 . S
C1613 H1598 0.960 . S
C1613 H1599 0.960 . S
C1613 H1600 0.960 . S
C1613 C1612 1.524 . S
C1614 C1611 1.403 . S
C1614 C1615 1.392 . S
C1614 C1618 1.495 . S
C1615 C1614 1.392 . S
C1615 C1616 1.385 . S
C1615 C1617 1.478 . S
C1616 H1610 0.930 . S
C1616 C1612 1.400 . S
C1616 C1615 1.385 . S
C1617 C1615 1.478 . S
C1617 C1619 1.381 . S
C1617 C1623 1.383 . S
C1618 C1614 1.495 . S
C1618 H1624 0.959 . S
C1618 H1625 0.961 . S
C1618 H1626 0.960 . S
C1619 C1617 1.381 . S
C1619 C1620 1.394 . S
C1619 H1627 0.930 . S
C1620 C1619 1.394 . S
C1620 C1621 1.383 . S
C1620 H1628 0.929 . S
C1621 C1620 1.383 . S
C1621 C1622 1.377 . S
C1622 H1606 0.930 . S
C1622 C1621 1.377 . S
C1622 C1623 1.379 . S
C1623 H1607 0.931 . S
C1623 C1617 1.383 . S
C1623 C1622 1.379 . S
H1624 C1618 0.959 . S
H1625 C1618 0.961 . S
H1626 C1618 0.960 . S
H1627 C1619 0.930 . S
H1628 C1620 0.929 . S
H1629 C1637 0.929 . S
H1630 C1639 0.930 . S
H1631 C1641 0.930 . S
H1632 C1644 0.929 . S
H1633 C1647 0.930 . S
H1634 C1649 0.960 . S
H1635 C1649 0.960 . S
H1636 C1649 0.960 . S
C1637 H1629 0.929 . S
C1637 C1638 1.377 . S
C1637 C1639 1.384 . S
C1638 C1637 1.377 . S
C1638 C1644 1.390 . S
C1639 H1630 0.930 . S
C1639 C1637 1.384 . S
C1639 C1640 1.372 . S
C1640 C1639 1.372 . S
C1640 C1641 1.400 . S
C1640 C1645 1.490 . S
C1641 H1631 0.930 . S
C1641 C1640 1.400 . S
C1641 C1644 1.386 . S
H1642 C1658 0.930 . S
H1643 C1659 0.931 . S
C1644 H1632 0.929 . S
C1644 C1638 1.390 . S
C1644 C1641 1.386 . S
C1645 C1640 1.490 . S
C1645 C1647 1.395 . S
C1645 C1648 1.403 . S
H1646 C1652 0.930 . S
C1647 H1633 0.930 . S
C1647 C1645 1.395 . S
C1647 C1650 1.403 . S
C1648 C1645 1.403 . S
C1648 C1649 1.524 . S
C1648 C1652 1.400 . S
C1649 H1634 0.960 . S
C1649 H1635 0.960 . S
C1649 H1636 0.960 . S
C1649 C1648 1.524 . S
C1650 C1647 1.403 . S
C1650 C1651 1.392 . S
C1650 C1654 1.495 . S
C1651 C1650 1.392 . S
C1651 C1652 1.385 . S
C1651 C1653 1.478 . S
C1652 H1646 0.930 . S
C1652 C1648 1.400 . S
C1652 C1651 1.385 . S
C1653 C1651 1.478 . S
C1653 C1655 1.381 . S
C1653 C1659 1.383 . S
C1654 C1650 1.495 . S
C1654 H1660 0.959 . S
C1654 H1661 0.961 . S
C1654 H1662 0.960 . S
C1655 C1653 1.381 . S
C1655 C1656 1.394 . S
C1655 H1663 0.930 . S
C1656 C1655 1.394 . S
C1656 C1657 1.383 . S
C1656 H1664 0.929 . S
C1657 C1656 1.383 . S
C1657 C1658 1.377 . S
C1658 H1642 0.930 . S
C1658 C1657 1.377 . S
C1658 C1659 1.379 . S
C1659 H1643 0.931 . S
C1659 C1653 1.383 . S
C1659 C1658 1.379 . S
H1660 C1654 0.959 . S
H1661 C1654 0.961 . S
H1662 C1654 0.960 . S
H1663 C1655 0.930 . S
H1664 C1656 0.929 . S
H1665 C1673 0.929 . S
H1666 C1675 0.930 . S
H1667 C1677 0.930 . S
H1668 C1680 0.929 . S
H1669 C1683 0.930 . S
H1670 C1685 0.960 . S
H1671 C1685 0.960 . S
H1672 C1685 0.960 . S
C1673 H1665 0.929 . S
C1673 C1674 1.377 . S
C1673 C1675 1.384 . S
C1674 C1673 1.377 . S
C1674 C1680 1.390 . S
C1675 H1666 0.930 . S
C1675 C1673 1.384 . S
C1675 C1676 1.372 . S
C1676 C1675 1.372 . S
C1676 C1677 1.400 . S
C1676 C1681 1.490 . S
C1677 H1667 0.930 . S
C1677 C1676 1.400 . S
C1677 C1680 1.386 . S
H1678 C1694 0.930 . S
H1679 C1695 0.931 . S
C1680 H1668 0.929 . S
C1680 C1674 1.390 . S
C1680 C1677 1.386 . S
C1681 C1676 1.490 . S
C1681 C1683 1.395 . S
C1681 C1684 1.403 . S
H1682 C1688 0.930 . S
C1683 H1669 0.930 . S
C1683 C1681 1.395 . S
C1683 C1686 1.403 . S
C1684 C1681 1.403 . S
C1684 C1685 1.524 . S
C1684 C1688 1.400 . S
C1685 H1670 0.960 . S
C1685 H1671 0.960 . S
C1685 H1672 0.960 . S
C1685 C1684 1.524 . S
C1686 C1683 1.403 . S
C1686 C1687 1.392 . S
C1686 C1690 1.495 . S
C1687 C1686 1.392 . S
C1687 C1688 1.385 . S
C1687 C1689 1.478 . S
C1688 H1682 0.930 . S
C1688 C1684 1.400 . S
C1688 C1687 1.385 . S
C1689 C1687 1.478 . S
C1689 C1691 1.381 . S
C1689 C1695 1.383 . S
C1690 C1686 1.495 . S
C1690 H1696 0.959 . S
C1690 H1697 0.961 . S
C1690 H1698 0.960 . S
C1691 C1689 1.381 . S
C1691 C1692 1.394 . S
C1691 H1699 0.930 . S
C1692 C1691 1.394 . S
C1692 C1693 1.383 . S
C1692 H1700 0.929 . S
C1693 C1692 1.383 . S
C1693 C1694 1.377 . S
C1694 H1678 0.930 . S
C1694 C1693 1.377 . S
C1694 C1695 1.379 . S
C1695 H1679 0.931 . S
C1695 C1689 1.383 . S
C1695 C1694 1.379 . S
H1696 C1690 0.959 . S
H1697 C1690 0.961 . S
H1698 C1690 0.960 . S
H1699 C1691 0.930 . S
H1700 C1692 0.929 . S
H1701 C1709 0.929 . S
H1702 C1711 0.930 . S
H1703 C1713 0.930 . S
H1704 C1716 0.929 . S
H1705 C1719 0.930 . S
H1706 C1721 0.960 . S
H1707 C1721 0.960 . S
H1708 C1721 0.960 . S
C1709 H1701 0.929 . S
C1709 C1710 1.377 . S
C1709 C1711 1.384 . S
C1710 C1709 1.377 . S
C1710 C1716 1.390 . S
C1711 H1702 0.930 . S
C1711 C1709 1.384 . S
C1711 C1712 1.372 . S
C1712 C1711 1.372 . S
C1712 C1713 1.400 . S
C1712 C1717 1.490 . S
C1713 H1703 0.930 . S
C1713 C1712 1.400 . S
C1713 C1716 1.386 . S
H1714 C1730 0.930 . S
H1715 C1731 0.931 . S
C1716 H1704 0.929 . S
C1716 C1710 1.390 . S
C1716 C1713 1.386 . S
C1717 C1712 1.490 . S
C1717 C1719 1.395 . S
C1717 C1720 1.403 . S
H1718 C1724 0.930 . S
C1719 H1705 0.930 . S
C1719 C1717 1.395 . S
C1719 C1722 1.403 . S
C1720 C1717 1.403 . S
C1720 C1721 1.524 . S
C1720 C1724 1.400 . S
C1721 H1706 0.960 . S
C1721 H1707 0.960 . S
C1721 H1708 0.960 . S
C1721 C1720 1.524 . S
C1722 C1719 1.403 . S
C1722 C1723 1.392 . S
C1722 C1726 1.495 . S
C1723 C1722 1.392 . S
C1723 C1724 1.385 . S
C1723 C1725 1.478 . S
C1724 H1718 0.930 . S
C1724 C1720 1.400 . S
C1724 C1723 1.385 . S
C1725 C1723 1.478 . S
C1725 C1727 1.381 . S
C1725 C1731 1.383 . S
C1726 C1722 1.495 . S
C1726 H1732 0.959 . S
C1726 H1733 0.961 . S
C1726 H1734 0.960 . S
C1727 C1725 1.381 . S
C1727 C1728 1.394 . S
C1727 H1735 0.930 . S
C1728 C1727 1.394 . S
C1728 C1729 1.383 . S
C1728 H1736 0.929 . S
C1729 C1728 1.383 . S
C1729 C1730 1.377 . S
C1730 H1714 0.930 . S
C1730 C1729 1.377 . S
C1730 C1731 1.379 . S
C1731 H1715 0.931 . S
C1731 C1725 1.383 . S
C1731 C1730 1.379 . S
H1732 C1726 0.959 . S
H1733 C1726 0.961 . S
H1734 C1726 0.960 . S
H1735 C1727 0.930 . S
H1736 C1728 0.929 . S
H1737 C1745 0.929 . S
H1738 C1747 0.930 . S
H1739 C1749 0.930 . S
H1740 C1752 0.929 . S
H1741 C1755 0.930 . S
H1742 C1757 0.960 . S
H1743 C1757 0.960 . S
H1744 C1757 0.960 . S
C1745 H1737 0.929 . S
C1745 C1746 1.377 . S
C1745 C1747 1.384 . S
C1746 C1745 1.377 . S
C1746 C1752 1.390 . S
C1747 H1738 0.930 . S
C1747 C1745 1.384 . S
C1747 C1748 1.372 . S
C1748 C1747 1.372 . S
C1748 C1749 1.400 . S
C1748 C1753 1.490 1_565 S
C1749 H1739 0.930 . S
C1749 C1748 1.400 . S
C1749 C1752 1.386 . S
H1750 C1766 0.930 . S
H1751 C1767 0.931 . S
C1752 H1740 0.929 . S
C1752 C1746 1.390 . S
C1752 C1749 1.386 . S
C1753 C1748 1.490 1_545 S
C1753 C1755 1.395 . S
C1753 C1756 1.403 . S
H1754 C1760 0.930 . S
C1755 H1741 0.930 . S
C1755 C1753 1.395 . S
C1755 C1758 1.403 . S
C1756 C1753 1.403 . S
C1756 C1757 1.524 . S
C1756 C1760 1.400 . S
C1757 H1742 0.960 . S
C1757 H1743 0.960 . S
C1757 H1744 0.960 . S
C1757 C1756 1.524 . S
C1758 C1755 1.403 . S
C1758 C1759 1.392 . S
C1758 C1762 1.495 . S
C1759 C1758 1.392 . S
C1759 C1760 1.385 . S
C1759 C1761 1.478 . S
C1760 H1754 0.930 . S
C1760 C1756 1.400 . S
C1760 C1759 1.385 . S
C1761 C1759 1.478 . S
C1761 C1763 1.381 . S
C1761 C1767 1.383 . S
C1762 C1758 1.495 . S
C1762 H1768 0.959 . S
C1762 H1769 0.961 . S
C1762 H1770 0.960 . S
C1763 C1761 1.381 . S
C1763 C1764 1.394 . S
C1763 H1771 0.930 . S
C1764 C1763 1.394 . S
C1764 C1765 1.383 . S
C1764 H1772 0.929 . S
C1765 C1764 1.383 . S
C1765 C1766 1.377 . S
C1766 H1750 0.930 . S
C1766 C1765 1.377 . S
C1766 C1767 1.379 . S
C1767 H1751 0.931 . S
C1767 C1761 1.383 . S
C1767 C1766 1.379 . S
H1768 C1762 0.959 . S
H1769 C1762 0.961 . S
H1770 C1762 0.960 . S
H1771 C1763 0.930 . S
H1772 C1764 0.929 . S
H1773 C1781 0.929 . S
H1774 C1783 0.930 . S
H1775 C1785 0.930 . S
H1776 C1788 0.929 . S
H1777 C1791 0.918 1_455 S
H1778 C1793 0.960 . S
H1779 C1793 0.960 . S
H1780 C1793 0.960 . S
C1781 H1773 0.929 . S
C1781 C1782 1.377 . S
C1781 C1783 1.384 . S
C1782 C1781 1.377 . S
C1782 C1788 1.390 . S
C1783 H1774 0.930 . S
C1783 C1781 1.384 . S
C1783 C1784 1.372 . S
C1784 C1783 1.372 . S
C1784 C1785 1.400 . S
C1784 C1789 1.490 1_455 S
C1785 H1775 0.930 . S
C1785 C1784 1.400 . S
C1785 C1788 1.386 . S
H1786 C1802 0.930 . S
H1787 C1803 0.931 . S
C1788 H1776 0.929 . S
C1788 C1782 1.390 . S
C1788 C1785 1.386 . S
C1789 C1784 1.490 1_655 S
C1789 C1791 1.395 . S
C1789 C1792 1.403 . S
H1790 C1796 0.930 . S
C1791 H1777 0.918 1_655 S
C1791 C1789 1.395 . S
C1791 C1794 1.403 . S
C1792 C1789 1.403 . S
C1792 C1793 1.524 . S
C1792 C1796 1.400 . S
C1793 H1778 0.960 . S
C1793 H1779 0.960 . S
C1793 H1780 0.960 . S
C1793 C1792 1.524 . S
C1794 C1791 1.403 . S
C1794 C1795 1.392 . S
C1794 C1798 1.495 . S
C1795 C1794 1.392 . S
C1795 C1796 1.385 . S
C1795 C1797 1.478 . S
C1796 H1790 0.930 . S
C1796 C1792 1.400 . S
C1796 C1795 1.385 . S
C1797 C1795 1.478 . S
C1797 C1799 1.381 . S
C1797 C1803 1.383 . S
C1798 C1794 1.495 . S
C1798 H1804 0.959 . S
C1798 H1805 0.961 . S
C1798 H1806 0.960 . S
C1799 C1797 1.381 . S
C1799 C1800 1.394 . S
C1799 H1807 0.930 . S
C1800 C1799 1.394 . S
C1800 C1801 1.383 . S
C1800 H1808 0.929 . S
C1801 C1800 1.383 . S
C1801 C1802 1.377 . S
C1802 H1786 0.930 . S
C1802 C1801 1.377 . S
C1802 C1803 1.379 . S
C1803 H1787 0.931 . S
C1803 C1797 1.383 . S
C1803 C1802 1.379 . S
H1804 C1798 0.959 . S
H1805 C1798 0.961 . S
H1806 C1798 0.960 . S
H1807 C1799 0.930 . S
H1808 C1800 0.929 . S
H1809 C1817 0.929 . S
H1810 C1819 0.930 . S
H1811 C1821 0.930 . S
H1812 C1824 0.929 . S
H1813 C1827 0.930 . S
H1814 C1829 0.960 . S
H1815 C1829 0.960 . S
H1816 C1829 0.960 . S
C1817 H1809 0.929 . S
C1817 C1818 1.377 . S
C1817 C1819 1.384 . S
C1818 C1817 1.377 . S
C1818 C1824 1.390 . S
C1819 H1810 0.930 . S
C1819 C1817 1.384 . S
C1819 C1820 1.372 . S
C1820 C1819 1.372 . S
C1820 C1821 1.400 . S
C1820 C1825 1.490 . S
C1821 H1811 0.930 . S
C1821 C1820 1.400 . S
C1821 C1824 1.386 . S
H1822 C1838 0.930 . S
H1823 C1839 0.931 . S
C1824 H1812 0.929 . S
C1824 C1818 1.390 . S
C1824 C1821 1.386 . S
C1825 C1820 1.490 . S
C1825 C1827 1.395 . S
C1825 C1828 1.403 . S
H1826 C1832 0.930 . S
C1827 H1813 0.930 . S
C1827 C1825 1.395 . S
C1827 C1830 1.403 . S
C1828 C1825 1.403 . S
C1828 C1829 1.524 . S
C1828 C1832 1.400 . S
C1829 H1814 0.960 . S
C1829 H1815 0.960 . S
C1829 H1816 0.960 . S
C1829 C1828 1.524 . S
C1830 C1827 1.403 . S
C1830 C1831 1.392 . S
C1830 C1834 1.495 . S
C1831 C1830 1.392 . S
C1831 C1832 1.385 . S
C1831 C1833 1.478 . S
C1832 H1826 0.930 . S
C1832 C1828 1.400 . S
C1832 C1831 1.385 . S
C1833 C1831 1.478 . S
C1833 C1835 1.381 . S
C1833 C1839 1.383 . S
C1834 C1830 1.495 . S
C1834 H1840 0.959 . S
C1834 H1841 0.961 . S
C1834 H1842 0.960 . S
C1835 C1833 1.381 . S
C1835 C1836 1.394 . S
C1835 H1843 0.930 . S
C1836 C1835 1.394 . S
C1836 C1837 1.383 . S
C1836 H1844 0.929 . S
C1837 C1836 1.383 . S
C1837 C1838 1.377 . S
C1838 H1822 0.930 . S
C1838 C1837 1.377 . S
C1838 C1839 1.379 . S
C1839 H1823 0.931 . S
C1839 C1833 1.383 . S
C1839 C1838 1.379 . S
H1840 C1834 0.959 . S
H1841 C1834 0.961 . S
H1842 C1834 0.960 . S
H1843 C1835 0.930 . S
H1844 C1836 0.929 . S
H1845 C1853 0.929 . S
H1846 C1855 0.930 . S
H1847 C1857 0.930 . S
H1848 C1860 0.929 . S
H1849 C1863 0.930 1_455 S
H1850 C1865 0.960 . S
H1851 C1865 0.960 . S
H1852 C1865 0.960 . S
C1853 H1845 0.929 . S
C1853 C1854 1.377 . S
C1853 C1855 1.384 . S
C1854 C1853 1.377 . S
C1854 C1860 1.390 . S
C1855 H1846 0.930 . S
C1855 C1853 1.384 . S
C1855 C1856 1.372 . S
C1856 C1855 1.372 . S
C1856 C1857 1.400 . S
C1856 C1861 1.495 . S
C1857 H1847 0.930 . S
C1857 C1856 1.400 . S
C1857 C1860 1.386 . S
H1858 C1874 0.930 . S
H1859 C1875 0.931 . S
C1860 H1848 0.929 . S
C1860 C1854 1.390 . S
C1860 C1857 1.386 . S
C1861 C1856 1.495 . S
C1861 C1863 1.395 1_455 S
C1861 C1864 1.397 1_455 S
H1862 C1868 0.930 . S
C1863 H1849 0.930 1_655 S
C1863 C1861 1.395 1_655 S
C1863 C1866 1.403 . S
C1864 C1861 1.397 1_655 S
C1864 C1865 1.524 . S
C1864 C1868 1.400 . S
C1865 H1850 0.960 . S
C1865 H1851 0.960 . S
C1865 H1852 0.960 . S
C1865 C1864 1.524 . S
C1866 C1863 1.403 . S
C1866 C1867 1.392 . S
C1866 C1870 1.495 . S
C1867 C1866 1.392 . S
C1867 C1868 1.385 . S
C1867 C1869 1.478 . S
C1868 H1862 0.930 . S
C1868 C1864 1.400 . S
C1868 C1867 1.385 . S
C1869 C1867 1.478 . S
C1869 C1871 1.381 . S
C1869 C1875 1.383 . S
C1870 C1866 1.495 . S
C1870 H1876 0.959 . S
C1870 H1877 0.961 . S
C1870 H1878 0.960 . S
C1871 C1869 1.381 . S
C1871 C1872 1.394 . S
C1871 H1879 0.930 . S
C1872 C1871 1.394 . S
C1872 C1873 1.383 . S
C1872 H1880 0.929 . S
C1873 C1872 1.383 . S
C1873 C1874 1.377 . S
C1874 H1858 0.930 . S
C1874 C1873 1.377 . S
C1874 C1875 1.379 . S
C1875 H1859 0.931 . S
C1875 C1869 1.383 . S
C1875 C1874 1.379 . S
H1876 C1870 0.959 . S
H1877 C1870 0.961 . S
H1878 C1870 0.960 . S
H1879 C1871 0.930 . S
H1880 C1872 0.929 . S
H1881 C1889 0.929 . S
H1882 C1891 0.930 . S
H1883 C1893 0.930 . S
H1884 C1896 0.929 . S
H1885 C1899 0.930 . S
H1886 C1901 0.960 . S
H1887 C1901 0.960 . S
H1888 C1901 0.960 . S
C1889 H1881 0.929 . S
C1889 C1890 1.377 . S
C1889 C1891 1.384 . S
C1890 C1889 1.377 . S
C1890 C1896 1.390 . S
C1891 H1882 0.930 . S
C1891 C1889 1.384 . S
C1891 C1892 1.372 . S
C1892 C1891 1.372 . S
C1892 C1893 1.400 . S
C1892 C1897 1.490 . S
C1893 H1883 0.930 . S
C1893 C1892 1.400 . S
C1893 C1896 1.386 . S
H1894 C1910 0.930 . S
H1895 C1911 0.931 . S
C1896 H1884 0.929 . S
C1896 C1890 1.390 . S
C1896 C1893 1.386 . S
C1897 C1892 1.490 . S
C1897 C1899 1.395 . S
C1897 C1900 1.403 . S
H1898 C1904 0.930 . S
C1899 H1885 0.930 . S
C1899 C1897 1.395 . S
C1899 C1902 1.403 . S
C1900 C1897 1.403 . S
C1900 C1901 1.524 . S
C1900 C1904 1.400 . S
C1901 H1886 0.960 . S
C1901 H1887 0.960 . S
C1901 H1888 0.960 . S
C1901 C1900 1.524 . S
C1902 C1899 1.403 . S
C1902 C1903 1.392 . S
C1902 C1906 1.495 . S
C1903 C1902 1.392 . S
C1903 C1904 1.385 . S
C1903 C1905 1.478 . S
C1904 H1898 0.930 . S
C1904 C1900 1.400 . S
C1904 C1903 1.385 . S
C1905 C1903 1.478 . S
C1905 C1907 1.381 . S
C1905 C1911 1.383 . S
C1906 C1902 1.495 . S
C1906 H1912 0.959 . S
C1906 H1913 0.961 . S
C1906 H1914 0.960 . S
C1907 C1905 1.381 . S
C1907 C1908 1.394 . S
C1907 H1915 0.930 . S
C1908 C1907 1.394 . S
C1908 C1909 1.383 . S
C1908 H1916 0.929 . S
C1909 C1908 1.383 . S
C1909 C1910 1.377 . S
C1910 H1894 0.930 . S
C1910 C1909 1.377 . S
C1910 C1911 1.379 . S
C1911 H1895 0.931 . S
C1911 C1905 1.383 . S
C1911 C1910 1.379 . S
H1912 C1906 0.959 . S
H1913 C1906 0.961 . S
H1914 C1906 0.960 . S
H1915 C1907 0.930 . S
H1916 C1908 0.929 . S
H1917 C1925 0.929 . S
H1918 C1927 0.930 . S
H1919 C1929 0.930 . S
H1920 C1932 0.929 . S
H1921 C1935 0.930 . S
H1922 C1937 0.960 . S
H1923 C1937 0.960 . S
H1924 C1937 0.960 . S
C1925 H1917 0.929 . S
C1925 C1926 1.377 . S
C1925 C1927 1.384 . S
C1926 C1925 1.377 . S
C1926 C1932 1.390 . S
C1927 H1918 0.930 . S
C1927 C1925 1.384 . S
C1927 C1928 1.372 . S
C1928 C1927 1.372 . S
C1928 C1929 1.400 . S
C1928 C1933 1.490 1_565 S
C1929 H1919 0.930 . S
C1929 C1928 1.400 . S
C1929 C1932 1.386 . S
H1930 C1946 0.930 . S
H1931 C1947 0.931 . S
C1932 H1920 0.929 . S
C1932 C1926 1.390 . S
C1932 C1929 1.386 . S
C1933 C1928 1.490 1_545 S
C1933 C1935 1.395 . S
C1933 C1936 1.403 . S
H1934 C1940 0.930 . S
C1935 H1921 0.930 . S
C1935 C1933 1.395 . S
C1935 C1938 1.403 . S
C1936 C1933 1.403 . S
C1936 C1937 1.524 . S
C1936 C1940 1.400 . S
C1937 H1922 0.960 . S
C1937 H1923 0.960 . S
C1937 H1924 0.960 . S
C1937 C1936 1.524 . S
C1938 C1935 1.403 . S
C1938 C1939 1.392 . S
C1938 C1942 1.495 . S
C1939 C1938 1.392 . S
C1939 C1940 1.385 . S
C1939 C1941 1.478 . S
C1940 H1934 0.930 . S
C1940 C1936 1.400 . S
C1940 C1939 1.385 . S
C1941 C1939 1.478 . S
C1941 C1943 1.381 . S
C1941 C1947 1.383 . S
C1942 C1938 1.495 . S
C1942 H1948 0.959 . S
C1942 H1949 0.961 . S
C1942 H1950 0.960 . S
C1943 C1941 1.381 . S
C1943 C1944 1.394 . S
C1943 H1951 0.930 . S
C1944 C1943 1.394 . S
C1944 C1945 1.383 . S
C1944 H1952 0.929 . S
C1945 C1944 1.383 . S
C1945 C1946 1.377 . S
C1946 H1930 0.930 . S
C1946 C1945 1.377 . S
C1946 C1947 1.379 . S
C1947 H1931 0.931 . S
C1947 C1941 1.383 . S
C1947 C1946 1.379 . S
H1948 C1942 0.959 . S
H1949 C1942 0.961 . S
H1950 C1942 0.960 . S
H1951 C1943 0.930 . S
H1952 C1944 0.929 . S
H1953 C1961 0.929 . S
H1954 C1963 0.930 . S
H1955 C1965 0.930 . S
H1956 C1968 0.929 . S
H1957 C1971 0.930 . S
H1958 C1973 0.960 . S
H1959 C1973 0.960 . S
H1960 C1973 0.960 . S
C1961 H1953 0.929 . S
C1961 C1962 1.377 . S
C1961 C1963 1.384 . S
C1962 C1961 1.377 . S
C1962 C1968 1.390 . S
C1963 H1954 0.930 . S
C1963 C1961 1.384 . S
C1963 C1964 1.372 . S
C1964 C1963 1.372 . S
C1964 C1965 1.400 . S
C1964 C1969 1.490 . S
C1965 H1955 0.930 . S
C1965 C1964 1.400 . S
C1965 C1968 1.386 . S
H1966 C1982 0.930 . S
H1967 C1983 0.931 . S
C1968 H1956 0.929 . S
C1968 C1962 1.390 . S
C1968 C1965 1.386 . S
C1969 C1964 1.490 . S
C1969 C1971 1.395 . S
C1969 C1972 1.403 . S
H1970 C1976 0.930 . S
C1971 H1957 0.930 . S
C1971 C1969 1.395 . S
C1971 C1974 1.403 . S
C1972 C1969 1.403 . S
C1972 C1973 1.524 . S
C1972 C1976 1.400 . S
C1973 H1958 0.960 . S
C1973 H1959 0.960 . S
C1973 H1960 0.960 . S
C1973 C1972 1.524 . S
C1974 C1971 1.403 . S
C1974 C1975 1.392 . S
C1974 C1978 1.495 . S
C1975 C1974 1.392 . S
C1975 C1976 1.385 . S
C1975 C1977 1.478 . S
C1976 H1970 0.930 . S
C1976 C1972 1.400 . S
C1976 C1975 1.385 . S
C1977 C1975 1.478 . S
C1977 C1979 1.381 . S
C1977 C1983 1.383 . S
C1978 C1974 1.495 . S
C1978 H1984 0.959 . S
C1978 H1985 0.961 . S
C1978 H1986 0.960 . S
C1979 C1977 1.381 . S
C1979 C1980 1.394 . S
C1979 H1987 0.930 . S
C1980 C1979 1.394 . S
C1980 C1981 1.383 . S
C1980 H1988 0.929 . S
C1981 C1980 1.383 . S
C1981 C1982 1.377 . S
C1982 H1966 0.930 . S
C1982 C1981 1.377 . S
C1982 C1983 1.379 . S
C1983 H1967 0.931 . S
C1983 C1977 1.383 . S
C1983 C1982 1.379 . S
H1984 C1978 0.959 . S
H1985 C1978 0.961 . S
H1986 C1978 0.960 . S
H1987 C1979 0.930 . S
H1988 C1980 0.929 . S
H1989 C1997 0.929 . S
H1990 C1999 0.930 . S
H1991 C2001 0.930 . S
H1992 C2004 0.929 . S
H1993 C2007 0.930 . S
H1994 C2009 0.960 . S
H1995 C2009 0.960 . S
H1996 C2009 0.960 . S
C1997 H1989 0.929 . S
C1997 C1998 1.377 . S
C1997 C1999 1.384 . S
C1998 C1997 1.377 . S
C1998 C2004 1.390 . S
C1999 H1990 0.930 . S
C1999 C1997 1.384 . S
C1999 C2000 1.372 . S
C2000 C1999 1.372 . S
C2000 C2001 1.400 . S
C2000 C2005 1.490 . S
C2001 H1991 0.930 . S
C2001 C2000 1.400 . S
C2001 C2004 1.386 . S
H2002 C2018 0.930 . S
H2003 C2019 0.931 . S
C2004 H1992 0.929 . S
C2004 C1998 1.390 . S
C2004 C2001 1.386 . S
C2005 C2000 1.490 . S
C2005 C2007 1.395 . S
C2005 C2008 1.403 . S
H2006 C2012 0.930 . S
C2007 H1993 0.930 . S
C2007 C2005 1.395 . S
C2007 C2010 1.403 . S
C2008 C2005 1.403 . S
C2008 C2009 1.524 . S
C2008 C2012 1.400 . S
C2009 H1994 0.960 . S
C2009 H1995 0.960 . S
C2009 H1996 0.960 . S
C2009 C2008 1.524 . S
C2010 C2007 1.403 . S
C2010 C2011 1.392 . S
C2010 C2014 1.495 . S
C2011 C2010 1.392 . S
C2011 C2012 1.385 . S
C2011 C2013 1.478 . S
C2012 H2006 0.930 . S
C2012 C2008 1.400 . S
C2012 C2011 1.385 . S
C2013 C2011 1.478 . S
C2013 C2015 1.381 . S
C2013 C2019 1.383 . S
C2014 C2010 1.495 . S
C2014 H2020 0.959 . S
C2014 H2021 0.961 . S
C2014 H2022 0.960 . S
C2015 C2013 1.381 . S
C2015 C2016 1.394 . S
C2015 H2023 0.930 . S
C2016 C2015 1.394 . S
C2016 C2017 1.383 . S
C2016 H2024 0.929 . S
C2017 C2016 1.383 . S
C2017 C2018 1.377 . S
C2018 H2002 0.930 . S
C2018 C2017 1.377 . S
C2018 C2019 1.379 . S
C2019 H2003 0.931 . S
C2019 C2013 1.383 . S
C2019 C2018 1.379 . S
H2020 C2014 0.959 . S
H2021 C2014 0.961 . S
H2022 C2014 0.960 . S
H2023 C2015 0.930 . S
H2024 C2016 0.929 . S
H2025 C2033 0.929 . S
H2026 C2035 0.930 . S
H2027 C2037 0.930 . S
H2028 C2040 0.929 . S
H2029 C2043 0.930 . S
H2030 C2045 0.960 . S
H2031 C2045 0.960 . S
H2032 C2045 0.960 . S
C2033 H2025 0.929 . S
C2033 C2034 1.377 . S
C2033 C2035 1.384 . S
C2034 C2033 1.377 . S
C2034 C2040 1.390 . S
C2035 H2026 0.930 . S
C2035 C2033 1.384 . S
C2035 C2036 1.372 . S
C2036 C2035 1.372 . S
C2036 C2037 1.400 . S
C2036 C2041 1.490 . S
C2037 H2027 0.930 . S
C2037 C2036 1.400 . S
C2037 C2040 1.386 . S
H2038 C2054 0.930 . S
H2039 C2055 0.931 . S
C2040 H2028 0.929 . S
C2040 C2034 1.390 . S
C2040 C2037 1.386 . S
C2041 C2036 1.490 . S
C2041 C2043 1.395 . S
C2041 C2044 1.403 . S
H2042 C2048 0.930 . S
C2043 H2029 0.930 . S
C2043 C2041 1.395 . S
C2043 C2046 1.403 . S
C2044 C2041 1.403 . S
C2044 C2045 1.524 . S
C2044 C2048 1.400 . S
C2045 H2030 0.960 . S
C2045 H2031 0.960 . S
C2045 H2032 0.960 . S
C2045 C2044 1.524 . S
C2046 C2043 1.403 . S
C2046 C2047 1.392 . S
C2046 C2050 1.495 . S
C2047 C2046 1.392 . S
C2047 C2048 1.385 . S
C2047 C2049 1.478 . S
C2048 H2042 0.930 . S
C2048 C2044 1.400 . S
C2048 C2047 1.385 . S
C2049 C2047 1.478 . S
C2049 C2051 1.381 . S
C2049 C2055 1.383 . S
C2050 C2046 1.495 . S
C2050 H2056 0.959 . S
C2050 H2057 0.961 . S
C2050 H2058 0.960 . S
C2051 C2049 1.381 . S
C2051 C2052 1.394 . S
C2051 H2059 0.930 . S
C2052 C2051 1.394 . S
C2052 C2053 1.383 . S
C2052 H2060 0.929 . S
C2053 C2052 1.383 . S
C2053 C2054 1.377 . S
C2054 H2038 0.930 . S
C2054 C2053 1.377 . S
C2054 C2055 1.379 . S
C2055 H2039 0.931 . S
C2055 C2049 1.383 . S
C2055 C2054 1.379 . S
H2056 C2050 0.959 . S
H2057 C2050 0.961 . S
H2058 C2050 0.960 . S
H2059 C2051 0.930 . S
H2060 C2052 0.929 . S
H2061 C2069 0.929 . S
H2062 C2071 0.930 . S
H2063 C2073 0.930 . S
H2064 C2076 0.929 . S
H2065 C2079 0.930 . S
H2066 C2081 0.960 . S
H2067 C2081 0.960 . S
H2068 C2081 0.960 . S
C2069 H2061 0.929 . S
C2069 C2070 1.377 . S
C2069 C2071 1.384 . S
C2070 C2069 1.377 . S
C2070 C2076 1.390 . S
C2071 H2062 0.930 . S
C2071 C2069 1.384 . S
C2071 C2072 1.372 . S
C2072 C2071 1.372 . S
C2072 C2073 1.400 . S
C2072 C2077 1.490 . S
C2073 H2063 0.930 . S
C2073 C2072 1.400 . S
C2073 C2076 1.386 . S
H2074 C2090 0.930 . S
H2075 C2091 0.886 1_545 S
C2076 H2064 0.929 . S
C2076 C2070 1.390 . S
C2076 C2073 1.386 . S
C2077 C2072 1.490 . S
C2077 C2079 1.395 . S
C2077 C2080 1.403 . S
H2078 C2084 0.930 1_545 S
C2079 H2065 0.930 . S
C2079 C2077 1.395 . S
C2079 C2082 1.403 . S
C2080 C2077 1.403 . S
C2080 C2081 1.524 1_565 S
C2080 C2084 1.400 . S
C2081 H2066 0.960 . S
C2081 H2067 0.960 . S
C2081 H2068 0.960 . S
C2081 C2080 1.524 1_545 S
C2082 C2079 1.403 . S
C2082 C2083 1.392 . S
C2082 C2086 1.495 . S
C2083 C2082 1.392 . S
C2083 C2084 1.385 . S
C2083 C2085 1.478 . S
C2084 H2078 0.930 1_565 S
C2084 C2080 1.400 . S
C2084 C2083 1.385 . S
C2085 C2083 1.478 . S
C2085 C2087 1.381 . S
C2085 C2091 1.445 . S
C2086 C2082 1.495 . S
C2086 H2092 0.959 . S
C2086 H2093 0.961 . S
C2086 H2094 0.960 . S
C2087 C2085 1.381 . S
C2087 C2088 1.394 . S
C2087 H2095 0.930 . S
C2088 C2087 1.394 . S
C2088 C2089 1.383 . S
C2088 H2096 0.929 . S
C2089 C2088 1.383 . S
C2089 C2090 1.377 1_565 S
C2090 H2074 0.930 . S
C2090 C2089 1.377 1_545 S
C2090 C2091 1.364 1_545 S
C2091 H2075 0.886 1_565 S
C2091 C2085 1.445 . S
C2091 C2090 1.364 1_565 S
H2092 C2086 0.959 . S
H2093 C2086 0.961 . S
H2094 C2086 0.960 . S
H2095 C2087 0.930 . S
H2096 C2088 0.929 . S
H2097 C2105 0.929 . S
H2098 C2107 0.930 . S
H2099 C2109 0.930 . S
H2100 C2112 0.929 . S
H2101 C2115 0.930 . S
H2102 C2117 0.960 . S
H2103 C2117 0.960 . S
H2104 C2117 0.960 . S
C2105 H2097 0.929 . S
C2105 C2106 1.377 . S
C2105 C2107 1.384 . S
C2106 C2105 1.377 . S
C2106 C2112 1.390 . S
C2107 H2098 0.930 . S
C2107 C2105 1.384 . S
C2107 C2108 1.372 . S
C2108 C2107 1.372 . S
C2108 C2109 1.400 . S
C2108 C2113 1.490 . S
C2109 H2099 0.930 . S
C2109 C2108 1.400 . S
C2109 C2112 1.386 . S
H2110 C2126 0.930 . S
H2111 C2127 0.931 . S
C2112 H2100 0.929 . S
C2112 C2106 1.390 . S
C2112 C2109 1.386 . S
C2113 C2108 1.490 . S
C2113 C2115 1.395 . S
C2113 C2116 1.403 . S
H2114 C2120 0.930 . S
C2115 H2101 0.930 . S
C2115 C2113 1.395 . S
C2115 C2118 1.403 . S
C2116 C2113 1.403 . S
C2116 C2117 1.524 . S
C2116 C2120 1.400 . S
C2117 H2102 0.960 . S
C2117 H2103 0.960 . S
C2117 H2104 0.960 . S
C2117 C2116 1.524 . S
C2118 C2115 1.403 . S
C2118 C2119 1.392 . S
C2118 C2122 1.495 1_455 S
C2119 C2118 1.392 . S
C2119 C2120 1.385 . S
C2119 C2121 1.478 . S
C2120 H2114 0.930 . S
C2120 C2116 1.400 . S
C2120 C2119 1.385 . S
C2121 C2119 1.478 . S
C2121 C2123 1.381 1_455 S
C2121 C2127 1.383 . S
C2122 C2118 1.495 1_655 S
C2122 H2128 0.959 . S
C2122 H2129 0.961 1_655 S
C2122 H2130 0.960 . S
C2123 C2121 1.381 1_655 S
C2123 C2124 1.394 . S
C2123 H2131 0.930 . S
C2124 C2123 1.394 . S
C2124 C2125 1.383 1_655 S
C2124 H2132 0.929 . S
C2125 C2124 1.383 1_455 S
C2125 C2126 1.377 . S
C2126 H2110 0.930 . S
C2126 C2125 1.377 . S
C2126 C2127 1.379 . S
C2127 H2111 0.931 . S
C2127 C2121 1.383 . S
C2127 C2126 1.379 . S
H2128 C2122 0.959 . S
H2129 C2122 0.961 1_455 S
H2130 C2122 0.960 . S
H2131 C2123 0.930 . S
H2132 C2124 0.929 . S
H2133 C2141 0.929 . S
H2134 C2143 0.930 . S
H2135 C2145 0.930 . S
H2136 C2148 0.929 . S
H2137 C2151 0.930 . S
H2138 C2153 0.960 . S
H2139 C2153 0.960 . S
H2140 C2153 0.960 . S
C2141 H2133 0.929 . S
C2141 C2142 1.377 . S
C2141 C2143 1.384 . S
C2142 C2141 1.377 . S
C2142 C2148 1.390 . S
C2143 H2134 0.930 . S
C2143 C2141 1.384 . S
C2143 C2144 1.372 . S
C2144 C2143 1.372 . S
C2144 C2145 1.400 . S
C2144 C2149 1.490 . S
C2145 H2135 0.930 . S
C2145 C2144 1.400 . S
C2145 C2148 1.386 . S
H2146 C2162 0.930 . S
H2147 C2163 0.931 . S
C2148 H2136 0.929 . S
C2148 C2142 1.390 . S
C2148 C2145 1.386 . S
C2149 C2144 1.490 . S
C2149 C2151 1.395 . S
C2149 C2152 1.403 . S
H2150 C2156 0.930 . S
C2151 H2137 0.930 . S
C2151 C2149 1.395 . S
C2151 C2154 1.403 . S
C2152 C2149 1.403 . S
C2152 C2153 1.524 . S
C2152 C2156 1.400 . S
C2153 H2138 0.960 . S
C2153 H2139 0.960 . S
C2153 H2140 0.960 . S
C2153 C2152 1.524 . S
C2154 C2151 1.403 . S
C2154 C2155 1.392 . S
C2154 C2158 1.495 . S
C2155 C2154 1.392 . S
C2155 C2156 1.385 . S
C2155 C2157 1.478 . S
C2156 H2150 0.930 . S
C2156 C2152 1.400 . S
C2156 C2155 1.385 . S
C2157 C2155 1.478 . S
C2157 C2159 1.381 . S
C2157 C2163 1.383 . S
C2158 C2154 1.495 . S
C2158 H2164 0.959 . S
C2158 H2165 0.961 . S
C2158 H2166 0.960 . S
C2159 C2157 1.381 . S
C2159 C2160 1.394 . S
C2159 H2167 0.930 . S
C2160 C2159 1.394 . S
C2160 C2161 1.383 . S
C2160 H2168 0.929 . S
C2161 C2160 1.383 . S
C2161 C2162 1.377 . S
C2162 H2146 0.930 . S
C2162 C2161 1.377 . S
C2162 C2163 1.379 . S
C2163 H2147 0.931 . S
C2163 C2157 1.383 . S
C2163 C2162 1.379 . S
H2164 C2158 0.959 . S
H2165 C2158 0.961 . S
H2166 C2158 0.960 . S
H2167 C2159 0.930 . S
H2168 C2160 0.929 . S
H2169 C2177 0.929 . S
H2170 C2179 0.930 . S
H2171 C2181 0.930 . S
H2172 C2184 0.929 . S
H2173 C2187 0.930 . S
H2174 C2189 0.960 . S
H2175 C2189 0.960 . S
H2176 C2189 0.960 . S
C2177 H2169 0.929 . S
C2177 C2178 1.377 . S
C2177 C2179 1.384 . S
C2178 C2177 1.377 . S
C2178 C2184 1.390 . S
C2179 H2170 0.930 . S
C2179 C2177 1.384 . S
C2179 C2180 1.372 . S
C2180 C2179 1.372 . S
C2180 C2181 1.400 . S
C2180 C2185 1.490 . S
C2181 H2171 0.930 . S
C2181 C2180 1.400 . S
C2181 C2184 1.386 . S
H2182 C2198 0.930 . S
H2183 C2199 0.941 1_455 S
C2184 H2172 0.929 . S
C2184 C2178 1.390 . S
C2184 C2181 1.386 . S
C2185 C2180 1.490 . S
C2185 C2187 1.395 . S
C2185 C2188 1.403 . S
H2186 C2192 0.930 . S
C2187 H2173 0.930 . S
C2187 C2185 1.395 . S
C2187 C2190 1.403 . S
C2188 C2185 1.403 . S
C2188 C2189 1.524 . S
C2188 C2192 1.400 . S
C2189 H2174 0.960 . S
C2189 H2175 0.960 . S
C2189 H2176 0.960 . S
C2189 C2188 1.524 . S
C2190 C2187 1.403 . S
C2190 C2191 1.392 . S
C2190 C2194 1.495 1_655 S
C2191 C2190 1.392 . S
C2191 C2192 1.385 . S
C2191 C2193 1.478 . S
C2192 H2186 0.930 . S
C2192 C2188 1.400 . S
C2192 C2191 1.385 . S
C2193 C2191 1.478 . S
C2193 C2195 1.381 . S
C2193 C2199 1.383 . S
C2194 C2190 1.495 1_455 S
C2194 H2200 0.959 . S
C2194 H2201 0.961 . S
C2194 H2202 0.960 . S
C2195 C2193 1.381 . S
C2195 C2196 1.394 . S
C2195 H2203 0.930 . S
C2196 C2195 1.394 . S
C2196 C2197 1.383 . S
C2196 H2204 0.929 . S
C2197 C2196 1.383 . S
C2197 C2198 1.382 1_655 S
C2198 H2182 0.930 . S
C2198 C2197 1.382 1_455 S
C2198 C2199 1.376 1_455 S
C2199 H2183 0.941 1_655 S
C2199 C2193 1.383 . S
C2199 C2198 1.376 1_655 S
H2200 C2194 0.959 . S
H2201 C2194 0.961 . S
H2202 C2194 0.960 . S
H2203 C2195 0.930 . S
H2204 C2196 0.929 . S
H2205 C2213 0.929 . S
H2206 C2215 0.930 . S
H2207 C2217 0.930 . S
H2208 C2220 0.929 . S
H2209 C2223 0.930 . S
H2210 C2225 0.960 . S
H2211 C2225 0.960 . S
H2212 C2225 0.960 . S
C2213 H2205 0.929 . S
C2213 C2214 1.377 . S
C2213 C2215 1.384 . S
C2214 C2213 1.377 . S
C2214 C2220 1.390 . S
C2215 H2206 0.930 . S
C2215 C2213 1.384 . S
C2215 C2216 1.372 . S
C2216 C2215 1.372 . S
C2216 C2217 1.400 . S
C2216 C2221 1.490 . S
C2217 H2207 0.930 . S
C2217 C2216 1.400 . S
C2217 C2220 1.386 . S
H2218 C2234 0.930 . S
H2219 C2235 0.931 . S
C2220 H2208 0.929 . S
C2220 C2214 1.390 . S
C2220 C2217 1.386 . S
C2221 C2216 1.490 . S
C2221 C2223 1.395 . S
C2221 C2224 1.403 . S
H2222 C2228 0.930 . S
C2223 H2209 0.930 . S
C2223 C2221 1.395 . S
C2223 C2226 1.403 . S
C2224 C2221 1.403 . S
C2224 C2225 1.524 . S
C2224 C2228 1.400 . S
C2225 H2210 0.960 . S
C2225 H2211 0.960 . S
C2225 H2212 0.960 . S
C2225 C2224 1.524 . S
C2226 C2223 1.403 . S
C2226 C2227 1.392 . S
C2226 C2230 1.495 . S
C2227 C2226 1.392 . S
C2227 C2228 1.385 . S
C2227 C2229 1.478 . S
C2228 H2222 0.930 . S
C2228 C2224 1.400 . S
C2228 C2227 1.385 . S
C2229 C2227 1.478 . S
C2229 C2231 1.381 . S
C2229 C2235 1.383 . S
C2230 C2226 1.495 . S
C2230 H2236 0.959 . S
C2230 H2237 0.961 . S
C2230 H2238 0.960 . S
C2231 C2229 1.381 . S
C2231 C2232 1.394 . S
C2231 H2239 0.930 . S
C2232 C2231 1.394 . S
C2232 C2233 1.383 . S
C2232 H2240 0.929 . S
C2233 C2232 1.383 . S
C2233 C2234 1.377 . S
C2234 H2218 0.930 . S
C2234 C2233 1.377 . S
C2234 C2235 1.379 . S
C2235 H2219 0.931 . S
C2235 C2229 1.383 . S
C2235 C2234 1.379 . S
H2236 C2230 0.959 . S
H2237 C2230 0.961 . S
H2238 C2230 0.960 . S
H2239 C2231 0.930 . S
H2240 C2232 0.929 . S
H2241 C2249 0.929 . S
H2242 C2251 0.930 . S
H2243 C2253 0.930 . S
H2244 C2256 0.929 . S
H2245 C2259 0.930 . S
H2246 C2261 0.960 . S
H2247 C2261 0.988 . S
H2248 C2261 0.960 . S
C2249 H2241 0.929 . S
C2249 C2250 1.377 . S
C2249 C2251 1.384 . S
C2250 C2249 1.377 . S
C2250 C2256 1.390 . S
C2251 H2242 0.930 . S
C2251 C2249 1.384 . S
C2251 C2252 1.372 . S
C2252 C2251 1.372 . S
C2252 C2253 1.400 . S
C2252 C2257 1.490 . S
C2253 H2243 0.930 . S
C2253 C2252 1.400 . S
C2253 C2256 1.386 . S
H2254 C2270 0.930 . S
H2255 C2271 0.931 . S
C2256 H2244 0.929 . S
C2256 C2250 1.390 . S
C2256 C2253 1.386 . S
C2257 C2252 1.490 . S
C2257 C2259 1.395 . S
C2257 C2260 1.403 . S
H2258 C2264 0.930 . S
C2259 H2245 0.930 . S
C2259 C2257 1.395 . S
C2259 C2262 1.403 . S
C2260 C2257 1.403 . S
C2260 C2261 1.524 . S
C2260 C2264 1.400 . S
C2261 H2246 0.960 . S
C2261 H2247 0.988 . S
C2261 H2248 0.960 . S
C2261 C2260 1.524 . S
C2262 C2259 1.403 . S
C2262 C2263 1.392 . S
C2262 C2266 1.495 . S
C2263 C2262 1.392 . S
C2263 C2264 1.385 . S
C2263 C2265 1.478 . S
C2264 H2258 0.930 . S
C2264 C2260 1.400 . S
C2264 C2263 1.385 . S
C2265 C2263 1.478 . S
C2265 C2267 1.381 . S
C2265 C2271 1.383 . S
C2266 C2262 1.495 . S
C2266 H2272 0.959 . S
C2266 H2273 0.961 . S
C2266 H2274 0.960 . S
C2267 C2265 1.381 . S
C2267 C2268 1.402 . S
C2267 H2275 0.932 . S
C2268 C2267 1.402 . S
C2268 C2269 1.408 . S
C2268 H2276 0.897 1_545 S
C2269 C2268 1.408 . S
C2269 C2270 1.377 . S
C2270 H2254 0.930 . S
C2270 C2269 1.377 . S
C2270 C2271 1.379 . S
C2271 H2255 0.931 . S
C2271 C2265 1.383 . S
C2271 C2270 1.379 . S
H2272 C2266 0.959 . S
H2273 C2266 0.961 . S
H2274 C2266 0.960 . S
H2275 C2267 0.932 . S
H2276 C2268 0.897 1_565 S
H2277 C2285 0.929 . S
H2278 C2287 0.930 . S
H2279 C2289 0.930 . S
H2280 C2292 0.929 . S
H2281 C2295 0.930 . S
H2282 C2297 0.960 . S
H2283 C2297 0.960 . S
H2284 C2297 0.960 . S
C2285 H2277 0.929 . S
C2285 C2286 1.377 . S
C2285 C2287 1.384 . S
C2286 C2285 1.377 . S
C2286 C2292 1.390 . S
C2287 H2278 0.930 . S
C2287 C2285 1.384 . S
C2287 C2288 1.372 . S
C2288 C2287 1.372 . S
C2288 C2289 1.400 . S
C2288 C2293 1.490 . S
C2289 H2279 0.930 . S
C2289 C2288 1.400 . S
C2289 C2292 1.386 . S
H2290 C2306 0.930 . S
H2291 C2307 0.931 . S
C2292 H2280 0.929 . S
C2292 C2286 1.390 . S
C2292 C2289 1.386 . S
C2293 C2288 1.490 . S
C2293 C2295 1.395 . S
C2293 C2296 1.403 . S
H2294 C2300 0.930 . S
C2295 H2281 0.930 . S
C2295 C2293 1.395 . S
C2295 C2298 1.403 . S
C2296 C2293 1.403 . S
C2296 C2297 1.524 . S
C2296 C2300 1.400 . S
C2297 H2282 0.960 . S
C2297 H2283 0.960 . S
C2297 H2284 0.960 . S
C2297 C2296 1.524 . S
C2298 C2295 1.403 . S
C2298 C2299 1.392 . S
C2298 C2302 1.495 . S
C2299 C2298 1.392 . S
C2299 C2300 1.385 . S
C2299 C2301 1.478 . S
C2300 H2294 0.930 . S
C2300 C2296 1.400 . S
C2300 C2299 1.385 . S
C2301 C2299 1.478 . S
C2301 C2303 1.381 . S
C2301 C2307 1.383 . S
C2302 C2298 1.495 . S
C2302 H2308 0.959 . S
C2302 H2309 0.961 . S
C2302 H2310 0.960 . S
C2303 C2301 1.381 . S
C2303 C2304 1.394 . S
C2303 H2311 0.930 . S
C2304 C2303 1.394 . S
C2304 C2305 1.383 . S
C2304 H2312 0.929 . S
C2305 C2304 1.383 . S
C2305 C2306 1.377 . S
C2306 H2290 0.930 . S
C2306 C2305 1.377 . S
C2306 C2307 1.379 . S
C2307 H2291 0.931 . S
C2307 C2301 1.383 . S
C2307 C2306 1.379 . S
H2308 C2302 0.959 . S
H2309 C2302 0.961 . S
H2310 C2302 0.960 . S
H2311 C2303 0.930 . S
H2312 C2304 0.929 . S
H2313 C2321 0.929 . S
H2314 C2323 0.930 . S
H2315 C2325 0.930 . S
H2316 C2328 0.929 . S
H2317 C2331 0.930 . S
H2318 C2333 0.960 . S
H2319 C2333 0.960 . S
H2320 C2333 0.960 . S
C2321 H2313 0.929 . S
C2321 C2322 1.377 . S
C2321 C2323 1.384 . S
C2322 C2321 1.377 . S
C2322 C2328 1.390 . S
C2323 H2314 0.930 . S
C2323 C2321 1.384 . S
C2323 C2324 1.372 . S
C2324 C2323 1.372 . S
C2324 C2325 1.400 . S
C2324 C2329 1.490 . S
C2325 H2315 0.930 . S
C2325 C2324 1.400 . S
C2325 C2328 1.386 . S
H2326 C2342 0.930 . S
H2327 C2343 0.931 . S
C2328 H2316 0.929 . S
C2328 C2322 1.390 . S
C2328 C2325 1.386 . S
C2329 C2324 1.490 . S
C2329 C2331 1.395 . S
C2329 C2332 1.403 . S
H2330 C2336 0.930 . S
C2331 H2317 0.930 . S
C2331 C2329 1.395 . S
C2331 C2334 1.403 . S
C2332 C2329 1.403 . S
C2332 C2333 1.524 . S
C2332 C2336 1.400 . S
C2333 H2318 0.960 . S
C2333 H2319 0.960 . S
C2333 H2320 0.960 . S
C2333 C2332 1.524 . S
C2334 C2331 1.403 . S
C2334 C2335 1.392 . S
C2334 C2338 1.495 . S
C2335 C2334 1.392 . S
C2335 C2336 1.385 . S
C2335 C2337 1.478 . S
C2336 H2330 0.930 . S
C2336 C2332 1.400 . S
C2336 C2335 1.385 . S
C2337 C2335 1.478 . S
C2337 C2339 1.381 . S
C2337 C2343 1.383 . S
C2338 C2334 1.495 . S
C2338 H2344 0.959 . S
C2338 H2345 0.961 . S
C2338 H2346 0.960 . S
C2339 C2337 1.381 . S
C2339 C2340 1.394 . S
C2339 H2347 0.930 . S
C2340 C2339 1.394 . S
C2340 C2341 1.383 . S
C2340 H2348 0.929 . S
C2341 C2340 1.383 . S
C2341 C2342 1.377 . S
C2342 H2326 0.930 . S
C2342 C2341 1.377 . S
C2342 C2343 1.379 . S
C2343 H2327 0.931 . S
C2343 C2337 1.383 . S
C2343 C2342 1.379 . S
H2344 C2338 0.959 . S
H2345 C2338 0.961 . S
H2346 C2338 0.960 . S
H2347 C2339 0.930 . S
H2348 C2340 0.929 . S
H2349 C2357 0.929 . S
H2350 C2359 0.930 . S
H2351 C2361 0.930 . S
H2352 C2364 0.929 . S
H2353 C2367 0.930 . S
H2354 C2369 0.960 . S
H2355 C2369 0.960 . S
H2356 C2369 0.960 . S
C2357 H2349 0.929 . S
C2357 C2358 1.377 . S
C2357 C2359 1.384 . S
C2358 C2357 1.377 . S
C2358 C2364 1.390 . S
C2359 H2350 0.930 . S
C2359 C2357 1.384 . S
C2359 C2360 1.372 . S
C2360 C2359 1.372 . S
C2360 C2361 1.400 . S
C2360 C2365 1.490 . S
C2361 H2351 0.930 . S
C2361 C2360 1.400 . S
C2361 C2364 1.386 . S
H2362 C2378 0.930 . S
H2363 C2379 0.931 . S
C2364 H2352 0.929 . S
C2364 C2358 1.390 . S
C2364 C2361 1.386 . S
C2365 C2360 1.490 . S
C2365 C2367 1.395 . S
C2365 C2368 1.403 . S
H2366 C2372 0.930 . S
C2367 H2353 0.930 . S
C2367 C2365 1.395 . S
C2367 C2370 1.403 . S
C2368 C2365 1.403 . S
C2368 C2369 1.524 . S
C2368 C2372 1.400 . S
C2369 H2354 0.960 . S
C2369 H2355 0.960 . S
C2369 H2356 0.960 . S
C2369 C2368 1.524 . S
C2370 C2367 1.403 . S
C2370 C2371 1.392 . S
C2370 C2374 1.495 . S
C2371 C2370 1.392 . S
C2371 C2372 1.385 . S
C2371 C2373 1.478 . S
C2372 H2366 0.930 . S
C2372 C2368 1.400 . S
C2372 C2371 1.385 . S
C2373 C2371 1.478 . S
C2373 C2375 1.381 . S
C2373 C2379 1.383 . S
C2374 C2370 1.495 . S
C2374 H2380 0.959 . S
C2374 H2381 0.961 . S
C2374 H2382 0.960 . S
C2375 C2373 1.381 . S
C2375 C2376 1.394 . S
C2375 H2383 0.930 . S
C2376 C2375 1.394 . S
C2376 C2377 1.383 . S
C2376 H2384 0.929 . S
C2377 C2376 1.383 . S
C2377 C2378 1.377 . S
C2378 H2362 0.930 . S
C2378 C2377 1.377 . S
C2378 C2379 1.379 . S
C2379 H2363 0.931 . S
C2379 C2373 1.383 . S
C2379 C2378 1.379 . S
H2380 C2374 0.959 . S
H2381 C2374 0.961 . S
H2382 C2374 0.960 . S
H2383 C2375 0.930 . S
H2384 C2376 0.929 . S
H2385 C2393 0.929 . S
H2386 C2395 0.930 . S
H2387 C2397 0.930 . S
H2388 C2400 0.929 . S
H2389 C2403 0.930 . S
H2390 C2405 0.960 . S
H2391 C2405 0.960 . S
H2392 C2405 0.960 . S
C2393 H2385 0.929 . S
C2393 C2394 1.377 . S
C2393 C2395 1.384 . S
C2394 C2393 1.377 . S
C2394 C2400 1.390 . S
C2395 H2386 0.930 . S
C2395 C2393 1.384 . S
C2395 C2396 1.372 . S
C2396 C2395 1.372 . S
C2396 C2397 1.400 . S
C2396 C2401 1.490 . S
C2397 H2387 0.930 . S
C2397 C2396 1.400 . S
C2397 C2400 1.386 . S
H2398 C2414 0.930 . S
H2399 C2415 0.931 . S
C2400 H2388 0.929 . S
C2400 C2394 1.390 . S
C2400 C2397 1.386 . S
C2401 C2396 1.490 . S
C2401 C2403 1.395 . S
C2401 C2404 1.403 . S
H2402 C2408 0.930 . S
C2403 H2389 0.930 . S
C2403 C2401 1.395 . S
C2403 C2406 1.403 . S
C2404 C2401 1.403 . S
C2404 C2405 1.524 . S
C2404 C2408 1.400 . S
C2405 H2390 0.960 . S
C2405 H2391 0.960 . S
C2405 H2392 0.960 . S
C2405 C2404 1.524 . S
C2406 C2403 1.403 . S
C2406 C2407 1.392 . S
C2406 C2410 1.495 . S
C2407 C2406 1.392 . S
C2407 C2408 1.385 . S
C2407 C2409 1.478 . S
C2408 H2402 0.930 . S
C2408 C2404 1.400 . S
C2408 C2407 1.385 . S
C2409 C2407 1.478 . S
C2409 C2411 1.381 . S
C2409 C2415 1.383 . S
C2410 C2406 1.495 . S
C2410 H2416 0.959 . S
C2410 H2417 0.961 . S
C2410 H2418 0.960 . S
C2411 C2409 1.381 . S
C2411 C2412 1.394 . S
C2411 H2419 0.930 . S
C2412 C2411 1.394 . S
C2412 C2413 1.383 . S
C2412 H2420 0.929 . S
C2413 C2412 1.383 . S
C2413 C2414 1.377 . S
C2414 H2398 0.930 . S
C2414 C2413 1.377 . S
C2414 C2415 1.379 . S
C2415 H2399 0.931 . S
C2415 C2409 1.383 . S
C2415 C2414 1.379 . S
H2416 C2410 0.959 . S
H2417 C2410 0.961 . S
H2418 C2410 0.960 . S
H2419 C2411 0.930 . S
H2420 C2412 0.929 . S
H2421 C2429 0.929 . S
H2422 C2431 0.930 . S
H2423 C2433 0.930 . S
H2424 C2436 0.929 . S
H2425 C2439 0.930 . S
H2426 C2441 0.960 . S
H2427 C2441 0.960 . S
H2428 C2441 0.960 . S
C2429 H2421 0.929 . S
C2429 C2430 1.377 . S
C2429 C2431 1.384 . S
C2430 C2429 1.377 . S
C2430 C2436 1.390 . S
C2431 H2422 0.930 . S
C2431 C2429 1.384 . S
C2431 C2432 1.372 . S
C2432 C2431 1.372 . S
C2432 C2433 1.400 . S
C2432 C2437 1.490 . S
C2433 H2423 0.930 . S
C2433 C2432 1.400 . S
C2433 C2436 1.386 . S
H2434 C2450 0.930 . S
H2435 C2451 0.931 . S
C2436 H2424 0.929 . S
C2436 C2430 1.390 . S
C2436 C2433 1.386 . S
C2437 C2432 1.490 . S
C2437 C2439 1.395 . S
C2437 C2440 1.403 . S
H2438 C2444 0.930 . S
C2439 H2425 0.930 . S
C2439 C2437 1.395 . S
C2439 C2442 1.403 . S
C2440 C2437 1.403 . S
C2440 C2441 1.524 . S
C2440 C2444 1.400 . S
C2441 H2426 0.960 . S
C2441 H2427 0.960 . S
C2441 H2428 0.960 . S
C2441 C2440 1.524 . S
C2442 C2439 1.403 . S
C2442 C2443 1.392 . S
C2442 C2446 1.495 . S
C2443 C2442 1.392 . S
C2443 C2444 1.385 . S
C2443 C2445 1.478 . S
C2444 H2438 0.930 . S
C2444 C2440 1.400 . S
C2444 C2443 1.385 . S
C2445 C2443 1.478 . S
C2445 C2447 1.381 . S
C2445 C2451 1.383 . S
C2446 C2442 1.495 . S
C2446 H2452 0.959 . S
C2446 H2453 0.961 . S
C2446 H2454 0.960 . S
C2447 C2445 1.381 . S
C2447 C2448 1.394 . S
C2447 H2455 0.930 . S
C2448 C2447 1.394 . S
C2448 C2449 1.383 . S
C2448 H2456 0.929 . S
C2449 C2448 1.383 . S
C2449 C2450 1.377 . S
C2450 H2434 0.930 . S
C2450 C2449 1.377 . S
C2450 C2451 1.379 . S
C2451 H2435 0.931 . S
C2451 C2445 1.383 . S
C2451 C2450 1.379 . S
H2452 C2446 0.959 . S
H2453 C2446 0.961 . S
H2454 C2446 0.960 . S
H2455 C2447 0.930 . S
H2456 C2448 0.929 . S
H2457 C2465 0.929 . S
H2458 C2467 0.930 . S
H2459 C2469 0.930 . S
H2460 C2472 0.929 . S
H2461 C2475 0.930 . S
H2462 C2477 0.960 . S
H2463 C2477 0.960 . S
H2464 C2477 0.960 . S
C2465 H2457 0.929 . S
C2465 C2466 1.377 . S
C2465 C2467 1.384 . S
C2466 C2465 1.377 . S
C2466 C2472 1.390 . S
C2467 H2458 0.930 . S
C2467 C2465 1.384 . S
C2467 C2468 1.372 . S
C2468 C2467 1.372 . S
C2468 C2469 1.400 . S
C2468 C2473 1.490 . S
C2469 H2459 0.930 . S
C2469 C2468 1.400 . S
C2469 C2472 1.386 . S
H2470 C2486 0.930 . S
H2471 C2487 0.931 . S
C2472 H2460 0.929 . S
C2472 C2466 1.390 . S
C2472 C2469 1.386 . S
C2473 C2468 1.490 . S
C2473 C2475 1.395 . S
C2473 C2476 1.403 . S
H2474 C2480 0.930 . S
C2475 H2461 0.930 . S
C2475 C2473 1.395 . S
C2475 C2478 1.403 . S
C2476 C2473 1.403 . S
C2476 C2477 1.524 . S
C2476 C2480 1.400 . S
C2477 H2462 0.960 . S
C2477 H2463 0.960 . S
C2477 H2464 0.960 . S
C2477 C2476 1.524 . S
C2478 C2475 1.403 . S
C2478 C2479 1.392 . S
C2478 C2482 1.495 . S
C2479 C2478 1.392 . S
C2479 C2480 1.385 . S
C2479 C2481 1.478 . S
C2480 H2474 0.930 . S
C2480 C2476 1.400 . S
C2480 C2479 1.385 . S
C2481 C2479 1.478 . S
C2481 C2483 1.381 . S
C2481 C2487 1.383 . S
C2482 C2478 1.495 . S
C2482 H2488 0.959 . S
C2482 H2489 0.961 . S
C2482 H2490 0.960 . S
C2483 C2481 1.381 . S
C2483 C2484 1.394 . S
C2483 H2491 0.930 . S
C2484 C2483 1.394 . S
C2484 C2485 1.383 . S
C2484 H2492 0.929 . S
C2485 C2484 1.383 . S
C2485 C2486 1.377 . S
C2486 H2470 0.930 . S
C2486 C2485 1.377 . S
C2486 C2487 1.379 . S
C2487 H2471 0.931 . S
C2487 C2481 1.383 . S
C2487 C2486 1.379 . S
H2488 C2482 0.959 . S
H2489 C2482 0.961 . S
H2490 C2482 0.960 . S
H2491 C2483 0.930 . S
H2492 C2484 0.929 . S
H2493 C2501 0.929 . S
H2494 C2503 0.930 . S
H2495 C2505 0.930 . S
H2496 C2508 0.929 . S
H2497 C2511 0.930 . S
H2498 C2513 0.960 . S
H2499 C2513 0.960 . S
H2500 C2513 0.960 . S
C2501 H2493 0.929 . S
C2501 C2502 1.377 . S
C2501 C2503 1.384 . S
C2502 C2501 1.377 . S
C2502 C2508 1.390 . S
C2503 H2494 0.930 . S
C2503 C2501 1.384 . S
C2503 C2504 1.372 . S
C2504 C2503 1.372 . S
C2504 C2505 1.400 . S
C2504 C2509 1.490 . S
C2505 H2495 0.930 . S
C2505 C2504 1.400 . S
C2505 C2508 1.386 . S
H2506 C2522 0.930 . S
H2507 C2523 0.931 . S
C2508 H2496 0.929 . S
C2508 C2502 1.390 . S
C2508 C2505 1.386 . S
C2509 C2504 1.490 . S
C2509 C2511 1.395 . S
C2509 C2512 1.403 . S
H2510 C2516 0.930 . S
C2511 H2497 0.930 . S
C2511 C2509 1.395 . S
C2511 C2514 1.403 . S
C2512 C2509 1.403 . S
C2512 C2513 1.524 . S
C2512 C2516 1.400 . S
C2513 H2498 0.960 . S
C2513 H2499 0.960 . S
C2513 H2500 0.960 . S
C2513 C2512 1.524 . S
C2514 C2511 1.403 . S
C2514 C2515 1.392 . S
C2514 C2518 1.495 . S
C2515 C2514 1.392 . S
C2515 C2516 1.385 . S
C2515 C2517 1.478 . S
C2516 H2510 0.930 . S
C2516 C2512 1.400 . S
C2516 C2515 1.385 . S
C2517 C2515 1.478 . S
C2517 C2519 1.381 . S
C2517 C2523 1.383 . S
C2518 C2514 1.495 . S
C2518 H2524 0.959 . S
C2518 H2525 0.961 . S
C2518 H2526 0.960 . S
C2519 C2517 1.381 . S
C2519 C2520 1.394 . S
C2519 H2527 0.930 . S
C2520 C2519 1.394 . S
C2520 C2521 1.383 . S
C2520 H2528 0.929 . S
C2521 C2520 1.383 . S
C2521 C2522 1.377 . S
C2522 H2506 0.930 . S
C2522 C2521 1.377 . S
C2522 C2523 1.379 . S
C2523 H2507 0.931 . S
C2523 C2517 1.383 . S
C2523 C2522 1.379 . S
H2524 C2518 0.959 . S
H2525 C2518 0.961 . S
H2526 C2518 0.960 . S
H2527 C2519 0.930 . S
H2528 C2520 0.929 . S
H2529 C2537 0.929 . S
H2530 C2539 0.930 . S
H2531 C2541 0.930 . S
H2532 C2544 0.929 . S
H2533 C2547 0.930 . S
H2534 C2549 0.960 . S
H2535 C2549 0.960 . S
H2536 C2549 0.960 . S
C2537 H2529 0.929 . S
C2537 C2538 1.377 . S
C2537 C2539 1.384 . S
C2538 C2537 1.377 . S
C2538 C2544 1.390 . S
C2539 H2530 0.930 . S
C2539 C2537 1.384 . S
C2539 C2540 1.372 . S
C2540 C2539 1.372 . S
C2540 C2541 1.400 . S
C2540 C2545 1.490 . S
C2541 H2531 0.930 . S
C2541 C2540 1.400 . S
C2541 C2544 1.386 . S
H2542 C2558 0.930 . S
H2543 C2559 0.931 . S
C2544 H2532 0.929 . S
C2544 C2538 1.390 . S
C2544 C2541 1.386 . S
C2545 C2540 1.490 . S
C2545 C2547 1.395 . S
C2545 C2548 1.403 . S
H2546 C2552 0.930 . S
C2547 H2533 0.930 . S
C2547 C2545 1.395 . S
C2547 C2550 1.403 . S
C2548 C2545 1.403 . S
C2548 C2549 1.524 . S
C2548 C2552 1.400 . S
C2549 H2534 0.960 . S
C2549 H2535 0.960 . S
C2549 H2536 0.960 . S
C2549 C2548 1.524 . S
C2550 C2547 1.403 . S
C2550 C2551 1.392 . S
C2550 C2554 1.495 . S
C2551 C2550 1.392 . S
C2551 C2552 1.385 . S
C2551 C2553 1.478 . S
C2552 H2546 0.930 . S
C2552 C2548 1.400 . S
C2552 C2551 1.385 . S
C2553 C2551 1.478 . S
C2553 C2555 1.381 . S
C2553 C2559 1.383 . S
C2554 C2550 1.495 . S
C2554 H2560 0.959 . S
C2554 H2561 0.961 . S
C2554 H2562 0.960 . S
C2555 C2553 1.381 . S
C2555 C2556 1.394 . S
C2555 H2563 0.930 . S
C2556 C2555 1.394 . S
C2556 C2557 1.383 . S
C2556 H2564 0.929 . S
C2557 C2556 1.383 . S
C2557 C2558 1.377 . S
C2558 H2542 0.930 . S
C2558 C2557 1.377 . S
C2558 C2559 1.379 . S
C2559 H2543 0.931 . S
C2559 C2553 1.383 . S
C2559 C2558 1.379 . S
H2560 C2554 0.959 . S
H2561 C2554 0.961 . S
H2562 C2554 0.960 . S
H2563 C2555 0.930 . S
H2564 C2556 0.929 . S
H2565 C2573 0.929 . S
H2566 C2575 0.930 . S
H2567 C2577 0.930 . S
H2568 C2580 0.929 . S
H2569 C2583 0.930 . S
H2570 C2585 0.960 . S
H2571 C2585 0.960 . S
H2572 C2585 0.960 . S
C2573 H2565 0.929 . S
C2573 C2574 1.377 . S
C2573 C2575 1.384 . S
C2574 C2573 1.377 . S
C2574 C2580 1.390 . S
C2575 H2566 0.930 . S
C2575 C2573 1.384 . S
C2575 C2576 1.372 . S
C2576 C2575 1.372 . S
C2576 C2577 1.400 . S
C2576 C2581 1.490 . S
C2577 H2567 0.930 . S
C2577 C2576 1.400 . S
C2577 C2580 1.386 . S
H2578 C2594 0.930 . S
H2579 C2595 0.931 . S
C2580 H2568 0.929 . S
C2580 C2574 1.390 . S
C2580 C2577 1.386 . S
C2581 C2576 1.490 . S
C2581 C2583 1.395 . S
C2581 C2584 1.403 . S
H2582 C2588 0.930 . S
C2583 H2569 0.930 . S
C2583 C2581 1.395 . S
C2583 C2586 1.403 . S
C2584 C2581 1.403 . S
C2584 C2585 1.524 . S
C2584 C2588 1.400 . S
C2585 H2570 0.960 . S
C2585 H2571 0.960 . S
C2585 H2572 0.960 . S
C2585 C2584 1.524 . S
C2586 C2583 1.403 . S
C2586 C2587 1.392 . S
C2586 C2590 1.495 . S
C2587 C2586 1.392 . S
C2587 C2588 1.385 . S
C2587 C2589 1.478 . S
C2588 H2582 0.930 . S
C2588 C2584 1.400 . S
C2588 C2587 1.385 . S
C2589 C2587 1.478 . S
C2589 C2591 1.381 . S
C2589 C2595 1.383 . S
C2590 C2586 1.495 . S
C2590 H2596 0.959 . S
C2590 H2597 0.961 . S
C2590 H2598 0.960 . S
C2591 C2589 1.381 . S
C2591 C2592 1.394 . S
C2591 H2599 0.930 . S
C2592 C2591 1.394 . S
C2592 C2593 1.383 . S
C2592 H2600 0.929 . S
C2593 C2592 1.383 . S
C2593 C2594 1.377 . S
C2594 H2578 0.930 . S
C2594 C2593 1.377 . S
C2594 C2595 1.379 . S
C2595 H2579 0.931 . S
C2595 C2589 1.383 . S
C2595 C2594 1.379 . S
H2596 C2590 0.959 . S
H2597 C2590 0.961 . S
H2598 C2590 0.960 . S
H2599 C2591 0.930 . S
H2600 C2592 0.929 . S
H2601 C2609 0.929 . S
H2602 C2611 0.930 . S
H2603 C2613 0.930 . S
H2604 C2616 0.929 . S
H2605 C2619 0.930 . S
H2606 C2621 0.960 . S
H2607 C2621 0.960 . S
H2608 C2621 0.960 . S
C2609 H2601 0.929 . S
C2609 C2610 1.377 . S
C2609 C2611 1.384 . S
C2610 C2609 1.377 . S
C2610 C2616 1.390 . S
C2611 H2602 0.930 . S
C2611 C2609 1.384 . S
C2611 C2612 1.372 . S
C2612 C2611 1.372 . S
C2612 C2613 1.400 . S
C2612 C2617 1.490 . S
C2613 H2603 0.930 . S
C2613 C2612 1.400 . S
C2613 C2616 1.386 . S
H2614 C2630 0.930 . S
H2615 C2631 0.931 . S
C2616 H2604 0.929 . S
C2616 C2610 1.390 . S
C2616 C2613 1.386 . S
C2617 C2612 1.490 . S
C2617 C2619 1.395 . S
C2617 C2620 1.403 . S
H2618 C2624 0.930 . S
C2619 H2605 0.930 . S
C2619 C2617 1.395 . S
C2619 C2622 1.403 . S
C2620 C2617 1.403 . S
C2620 C2621 1.524 . S
C2620 C2624 1.400 . S
C2621 H2606 0.960 . S
C2621 H2607 0.960 . S
C2621 H2608 0.960 . S
C2621 C2620 1.524 . S
C2622 C2619 1.403 . S
C2622 C2623 1.392 . S
C2622 C2626 1.495 . S
C2623 C2622 1.392 . S
C2623 C2624 1.385 . S
C2623 C2625 1.478 . S
C2624 H2618 0.930 . S
C2624 C2620 1.400 . S
C2624 C2623 1.385 . S
C2625 C2623 1.478 . S
C2625 C2627 1.381 . S
C2625 C2631 1.383 . S
C2626 C2622 1.495 . S
C2626 H2632 0.959 . S
C2626 H2633 0.961 . S
C2626 H2634 0.960 . S
C2627 C2625 1.381 . S
C2627 C2628 1.394 . S
C2627 H2635 0.930 . S
C2628 C2627 1.394 . S
C2628 C2629 1.383 . S
C2628 H2636 0.929 . S
C2629 C2628 1.383 . S
C2629 C2630 1.377 . S
C2630 H2614 0.930 . S
C2630 C2629 1.377 . S
C2630 C2631 1.379 . S
C2631 H2615 0.931 . S
C2631 C2625 1.383 . S
C2631 C2630 1.379 . S
H2632 C2626 0.959 . S
H2633 C2626 0.961 . S
H2634 C2626 0.960 . S
H2635 C2627 0.930 . S
H2636 C2628 0.929 . S
H2637 C2645 0.929 . S
H2638 C2647 0.930 . S
H2639 C2649 0.930 . S
H2640 C2652 0.929 . S
H2641 C2655 0.930 . S
H2642 C2657 0.960 . S
H2643 C2657 0.960 . S
H2644 C2657 0.960 . S
C2645 H2637 0.929 . S
C2645 C2646 1.377 . S
C2645 C2647 1.384 . S
C2646 C2645 1.377 . S
C2646 C2652 1.390 . S
C2647 H2638 0.930 . S
C2647 C2645 1.384 . S
C2647 C2648 1.372 . S
C2648 C2647 1.372 . S
C2648 C2649 1.400 . S
C2648 C2653 1.490 . S
C2649 H2639 0.930 . S
C2649 C2648 1.400 . S
C2649 C2652 1.386 . S
H2650 C2666 0.930 . S
H2651 C2667 0.931 . S
C2652 H2640 0.929 . S
C2652 C2646 1.390 . S
C2652 C2649 1.386 . S
C2653 C2648 1.490 . S
C2653 C2655 1.395 . S
C2653 C2656 1.403 . S
H2654 C2660 0.930 . S
C2655 H2641 0.930 . S
C2655 C2653 1.395 . S
C2655 C2658 1.403 . S
C2656 C2653 1.403 . S
C2656 C2657 1.524 . S
C2656 C2660 1.400 . S
C2657 H2642 0.960 . S
C2657 H2643 0.960 . S
C2657 H2644 0.960 . S
C2657 C2656 1.524 . S
C2658 C2655 1.403 . S
C2658 C2659 1.392 . S
C2658 C2662 1.495 . S
C2659 C2658 1.392 . S
C2659 C2660 1.385 . S
C2659 C2661 1.478 . S
C2660 H2654 0.930 . S
C2660 C2656 1.400 . S
C2660 C2659 1.385 . S
C2661 C2659 1.478 . S
C2661 C2663 1.381 . S
C2661 C2667 1.383 . S
C2662 C2658 1.495 . S
C2662 H2668 0.959 . S
C2662 H2669 0.961 . S
C2662 H2670 0.960 . S
C2663 C2661 1.381 . S
C2663 C2664 1.394 . S
C2663 H2671 0.930 . S
C2664 C2663 1.394 . S
C2664 C2665 1.383 . S
C2664 H2672 0.929 . S
C2665 C2664 1.383 . S
C2665 C2666 1.377 . S
C2666 H2650 0.930 . S
C2666 C2665 1.377 . S
C2666 C2667 1.379 . S
C2667 H2651 0.931 . S
C2667 C2661 1.383 . S
C2667 C2666 1.379 . S
H2668 C2662 0.959 . S
H2669 C2662 0.961 . S
H2670 C2662 0.960 . S
H2671 C2663 0.930 . S
H2672 C2664 0.929 . S
H2673 C2681 0.929 . S
H2674 C2683 0.930 . S
H2675 C2685 0.930 . S
H2676 C2688 0.929 . S
H2677 C2691 0.930 . S
H2678 C2693 0.960 . S
H2679 C2693 0.960 . S
H2680 C2693 0.960 . S
C2681 H2673 0.929 . S
C2681 C2682 1.377 . S
C2681 C2683 1.384 . S
C2682 C2681 1.377 . S
C2682 C2688 1.390 . S
C2683 H2674 0.930 . S
C2683 C2681 1.384 . S
C2683 C2684 1.372 . S
C2684 C2683 1.372 . S
C2684 C2685 1.400 . S
C2684 C2689 1.490 . S
C2685 H2675 0.930 . S
C2685 C2684 1.400 . S
C2685 C2688 1.386 . S
H2686 C2702 0.930 . S
H2687 C2703 0.931 . S
C2688 H2676 0.929 . S
C2688 C2682 1.390 . S
C2688 C2685 1.386 . S
C2689 C2684 1.490 . S
C2689 C2691 1.395 . S
C2689 C2692 1.403 . S
H2690 C2696 0.930 . S
C2691 H2677 0.930 . S
C2691 C2689 1.395 . S
C2691 C2694 1.403 . S
C2692 C2689 1.403 . S
C2692 C2693 1.524 . S
C2692 C2696 1.400 . S
C2693 H2678 0.960 . S
C2693 H2679 0.960 . S
C2693 H2680 0.960 . S
C2693 C2692 1.524 . S
C2694 C2691 1.403 . S
C2694 C2695 1.392 . S
C2694 C2698 1.495 . S
C2695 C2694 1.392 . S
C2695 C2696 1.385 . S
C2695 C2697 1.478 . S
C2696 H2690 0.930 . S
C2696 C2692 1.400 . S
C2696 C2695 1.385 . S
C2697 C2695 1.478 . S
C2697 C2699 1.381 . S
C2697 C2703 1.383 . S
C2698 C2694 1.495 . S
C2698 H2704 0.959 . S
C2698 H2705 0.961 . S
C2698 H2706 0.960 . S
C2699 C2697 1.381 . S
C2699 C2700 1.394 . S
C2699 H2707 0.930 . S
C2700 C2699 1.394 . S
C2700 C2701 1.383 . S
C2700 H2708 0.929 . S
C2701 C2700 1.383 . S
C2701 C2702 1.377 . S
C2702 H2686 0.930 . S
C2702 C2701 1.377 . S
C2702 C2703 1.379 . S
C2703 H2687 0.931 . S
C2703 C2697 1.383 . S
C2703 C2702 1.379 . S
H2704 C2698 0.959 . S
H2705 C2698 0.961 . S
H2706 C2698 0.960 . S
H2707 C2699 0.930 . S
H2708 C2700 0.929 . S
C774 C439 1.280 . S
C793 C593 1.299 . S
C810 C465 1.429 . S
C829 C614 1.318 . S
C846 C401 1.319 . S
C865 C636 1.185 . S
C882 C369 1.332 . S
C901 C615 1.185 1_556 S
C937 C635 1.378 . S
C918 C305 1.439 . S
C954 C343 1.249 . S
C973 C594 1.121 1_556 S
C1009 C589 1.226 . S
C990 C375 1.338 . S
C1045 C610 1.225 . S
C1026 C311 1.338 . S
C1062 C337 1.308 . S
C1081 C633 1.176 1_556 S
C1098 C433 1.273 . S
C1117 C612 1.184 . S
C1134 C471 1.300 . S
C1153 C631 1.182 . S
C1189 C591 1.105 . S
C1170 C407 1.350 . S
C1225 C656 1.229 . S
C1206 C55 1.288 . S
C1242 C81 1.429 . S
C1261 C677 1.310 . S
C1278 C17 1.322 . S
C1297 C699 1.118 . S
C1314 C561 1.334 . S
C1333 C678 1.072 . S
C1350 C497 1.440 . S
C1369 C698 1.357 . S
C1386 C535 1.236 . S
C1405 C657 1.128 . S
C1422 C567 1.337 . S
C1441 C652 1.257 . S
C1458 C503 1.337 . S
C1477 C673 1.283 . S
C1513 C696 1.175 . S
C1494 C529 1.321 . S
C1530 C49 1.275 . S
C1549 C675 1.169 . S
C1585 C694 1.238 . S
C1566 C87 1.300 . S
C1602 C23 1.352 . S
C1621 C654 1.203 . S
C1657 C719 1.231 . S
C1638 C247 1.291 . S
C1674 C273 1.429 . S
C1693 C740 1.299 . S
C1729 C762 1.166 . S
C1710 C209 1.320 . S
C1765 C741 1.081 . S
C1746 C177 1.334 . S
C1801 C761 1.340 . S
C1782 C113 1.441 . S
C1818 C151 1.244 . S
C1837 C720 1.068 . S
C1854 C183 1.338 . S
C1873 C715 1.251 . S
C1890 C119 1.339 . S
C1909 C736 1.221 . S
C1945 C759 1.130 . S
C1926 C145 1.307 . S
C1962 C241 1.262 . S
C1981 C738 1.136 . S
C1998 C279 1.300 . S
C2017 C757 1.229 . S
C2034 C215 1.352 . S
C2053 C717 1.203 . S
C2070 C509 1.396 . S
C2089 C592 1.344 1_565 S
C2125 C613 1.395 . S
C2106 C541 1.355 . S
C2142 C573 1.487 . S
C2161 C632 1.426 . S
C2178 C221 1.554 . S
C2197 C611 1.526 1_655 S
C2214 C253 1.365 . S
C2233 C634 1.388 . S
C2269 C590 1.461 . S
C2250 C285 1.505 . S
C2286 C125 1.400 . S
C2305 C655 1.338 . S
C2322 C157 1.349 . S
C2341 C676 1.377 . S
C2358 C189 1.490 . S
C2377 C695 1.462 . S
C2394 C413 1.550 . S
C2413 C674 1.512 . S
C2449 C697 1.374 . S
C2430 C445 1.372 . S
C2466 C477 1.506 . S
C2485 C653 1.454 . S
C2502 C317 1.395 . S
C2521 C718 1.374 . S
C2538 C349 1.348 . S
C2557 C739 1.371 . S
C2593 C758 1.436 . S
C2574 C381 1.486 . S
C2610 C29 1.553 . S
C2629 C737 1.505 . S
C2646 C61 1.365 . S
C2665 C760 1.386 . S
C2682 C93 1.507 . S
C2701 C716 1.497 . S
