# Generated by pormake.
# Topology sit, (3,6)-cn, num edge types: 1
# Building blocks:
#     Node 0, Type 0, BuildingBlock: VETTIZ_charged_linker_0, # of connection points: 3
#     Node 1, Type 0, BuildingBlock: VETTIZ_charged_linker_0, # of connection points: 3
#     Node 2, Type 0, BuildingBlock: VETTIZ_charged_linker_0, # of connection points: 3
#     Node 3, Type 0, BuildingBlock: VETTIZ_charged_linker_0, # of connection points: 3
#     Node 4, Type 1, BuildingBlock: MIDCAF_clean_sbu_0, # of connection points: 6
#     Node 5, Type 1, BuildingBlock: MIDCAF_clean_sbu_0, # of connection points: 6
#     Edge 6, Type (0, 1), BuildingBlock: TEMPAE_clean_linker_10, # of connection points: 2
#     Edge 7, Type (0, 1), BuildingBlock: TEMPAE_clean_linker_10, # of connection points: 2
#     Edge 8, Type (0, 1), BuildingBlock: TEMPAE_clean_linker_10, # of connection points: 2
#     Edge 9, Type (0, 1), BuildingBlock: TEMPAE_clean_linker_10, # of connection points: 2
#     Edge 10, Type (0, 1), BuildingBlock: TEMPAE_clean_linker_10, # of connection points: 2
#     Edge 11, Type (0, 1), BuildingBlock: TEMPAE_clean_linker_10, # of connection points: 2
#     Edge 12, Type (0, 1), BuildingBlock: TEMPAE_clean_linker_10, # of connection points: 2
#     Edge 13, Type (0, 1), BuildingBlock: TEMPAE_clean_linker_10, # of connection points: 2
#     Edge 14, Type (0, 1), BuildingBlock: TEMPAE_clean_linker_10, # of connection points: 2
#     Edge 15, Type (0, 1), BuildingBlock: TEMPAE_clean_linker_10, # of connection points: 2
#     Edge 16, Type (0, 1), BuildingBlock: TEMPAE_clean_linker_10, # of connection points: 2
#     Edge 17, Type (0, 1), BuildingBlock: TEMPAE_clean_linker_10, # of connection points: 2
# Relax obj value: 0.113
# Max RMSD: 0.194
# Mean RMSD: 0.109
data_MOF--net-sit--node1-MIDCAF_clean_sbu_0--node2-VETTIZ_charged_linker_0--edge1-TEMPAE_clean_linker_10
_symmetry_space_group_name_H-M    P1
_symmetry_Int_Tables_number       1
_symmetry_cell_setting            triclinic
loop_
_symmetry_equiv_pos_as_xyz
'x, y, z'
_cell_length_a     28.60424
_cell_length_b     38.646166
_cell_length_c     42.975446
_cell_angle_alpha  89.832891
_cell_angle_beta   89.413415
_cell_angle_gamma 84.192951
loop_
_atom_site_label
_atom_site_type_symbol
_atom_site_fract_x
_atom_site_fract_y
_atom_site_fract_z
_atom_type_partial_charge
C0 C 0.06328 0.19258 0.08776 0.0
C1 C 0.10367 0.16941 0.09272 0.0
C2 C 0.14708 0.17719 0.08033 0.0
C3 C 0.11056 0.23204 0.06047 0.0
C4 C 0.06755 0.22386 0.07174 0.0
C5 C 0.02918 0.25302 0.0666 0.0
H6 H 0.9663 0.41433 0.00827 0.0
C7 C 0.10427 0.26781 0.04793 0.0
C8 C 0.05667 0.28046 0.05159 0.0
H9 H 0.87493 0.34382 0.04951 0.0
H10 H 0.94234 0.3029 0.06086 0.0
H11 H 0.04301 0.40542 0.06076 0.0
H12 H 0.0313 0.35897 0.97099 0.0
H13 H 0.08901 0.37043 0.97422 0.0
H14 H 0.04058 0.40373 0.97697 0.0
H15 H 0.06055 0.42647 0.02596 0.0
H16 H 0.10111 0.39655 0.04731 0.0
C17 C 0.0082 0.26501 0.09859 0.0
C18 C -0.00686 0.23982 0.04403 0.0
C19 C 0.24454 0.32253 0.00244 0.0
C20 C 0.24985 0.35625 0.99161 0.0
C21 C 0.21134 0.38189 0.9927 0.0
C22 C 0.16753 0.37388 0.00368 0.0
C23 C 0.16226 0.3399 0.01389 0.0
C24 C 0.20059 0.31509 0.01388 0.0
C25 C 0.1889 0.28118 0.02782 0.0
C26 C 0.13683 0.28948 0.03508 0.0
C27 C 0.12149 0.3237 0.02643 0.0
C28 C 0.21843 0.2742 0.0577 0.0
C29 C 0.19755 0.25262 0.00264 0.0
C30 C 0.96052 0.39056 0.02046 0.0
C31 C 0.91488 0.38244 0.02772 0.0
C32 C 0.90954 0.35064 0.04308 0.0
C33 C 0.94874 0.32684 0.04963 0.0
C34 C -0.0061 0.33486 0.04083 0.0
C35 C -0.00091 0.36667 0.02715 0.0
C36 C 0.04928 0.37117 0.01924 0.0
C37 C 0.0734 0.33632 0.02937 0.0
C38 C 0.04102 0.31497 0.04199 0.0
C39 C 0.06449 0.40156 0.03907 0.0
C40 C 0.0531 0.37658 0.98355 0.0
H41 H 0.18488 0.21296 0.05562 0.0
H42 H 0.02974 0.1874 0.09772 0.0
H43 H 0.0113 0.22348 0.02539 0.0
H44 H 0.97226 0.26104 0.03168 0.0
H45 H 0.96892 0.2237 0.05652 0.0
H46 H 0.03632 0.26495 0.11629 0.0
H47 H 0.98233 0.24744 0.10701 0.0
H48 H 0.99117 0.29194 0.09826 0.0
H49 H 0.27402 0.30258 0.00223 0.0
H50 H 0.21496 0.40799 0.98436 0.0
H51 H 0.13936 0.39438 0.0034 0.0
H52 H 0.22848 0.29878 0.06795 0.0
H53 H 0.25139 0.25728 0.05277 0.0
H54 H 0.1987 0.26238 0.07655 0.0
H55 H 0.18406 0.26248 0.97974 0.0
H56 H 0.17909 0.22946 0.00765 0.0
H57 H 0.23568 0.24434 -0.00022 0.0
H58 H 0.17857 0.15976 0.08435 0.0
C59 C 0.15068 0.20824 0.06402 0.0
C60 C 0.19016 0.64156 0.02263 0.0
C61 C 0.18984 0.6093 0.00729 0.0
C62 C 0.14622 0.5964 0.00191 0.0
C63 C 0.10498 0.64784 0.02509 0.0
C64 C 0.14742 0.66052 0.03091 0.0
C65 C 0.14095 0.69635 0.04518 0.0
H66 H 0.99162 0.83001 0.10131 0.0
C67 C 0.06706 0.67446 0.03464 0.0
C68 C 0.08762 0.7032 0.04619 0.0
H69 H 0.14339 0.81963 0.10223 0.0
H70 H 0.14545 0.76602 0.07309 0.0
H71 H 0.98266 0.80534 0.02989 0.0
H72 H 0.97834 0.75075 0.11725 0.0
H73 H 0.93115 0.74035 0.09411 0.0
H74 H 0.93443 0.7847 0.10553 0.0
H75 H 0.9308 0.8086 0.05394 0.0
H76 H 0.94245 0.77431 0.02556 0.0
C77 C 0.16338 0.72186 0.02304 0.0
C78 C 0.16224 0.69397 0.07817 0.0
C79 C 0.89847 0.65036 0.01867 0.0
C80 C 0.85555 0.6711 0.02109 0.0
C81 C 0.85458 0.70522 0.03265 0.0
C82 C 0.8963 0.71854 0.04163 0.0
C83 C 0.93934 0.69766 0.0384 0.0
C84 C 0.93975 0.66426 0.02691 0.0
C85 C 0.98853 0.64689 0.02208 0.0
C86 C 0.01755 0.67505 0.03318 0.0
C87 C 0.98873 0.70457 0.04303 0.0
C88 C -0.00415 0.63929 0.98675 0.0
C89 C -0.00559 0.61428 0.04331 0.0
C90 C 0.02525 0.81633 0.09488 0.0
C91 C 0.06738 0.82887 0.10418 0.0
C92 C 0.11049 0.8106 0.09511 0.0
C93 C 0.11158 0.77924 0.07858 0.0
C94 C 0.0691 0.76604 0.07097 0.0
C95 C 0.02689 0.785 0.07845 0.0
C96 C 0.98518 0.76716 0.06846 0.0
C97 C 0.00924 0.73366 0.055 0.0
C98 C 0.05844 0.73308 0.05648 0.0
C99 C 0.95847 0.78995 0.04331 0.0
C100 C 0.95532 0.76043 0.09772 0.0
H101 H 0.07239 0.60393 0.00587 0.0
H102 H 0.22281 0.65227 0.02757 0.0
H103 H 0.15454 0.66947 0.08993 0.0
H104 H 0.14732 0.715 0.09373 0.0
H105 H 0.20103 0.69419 0.0771 0.0
H106 H 0.15775 0.71512 -0.00171 0.0
H107 H 0.20187 0.72093 0.0267 0.0
H108 H 0.14755 0.74898 0.02551 0.0
H109 H 0.90017 0.62444 0.00888 0.0
H110 H 0.82164 0.72165 0.03426 0.0
H111 H 0.89357 0.74473 0.05018 0.0
H112 H 0.97173 0.65692 0.97227 0.0
H113 H 0.98933 0.61218 0.98108 0.0
H114 H 0.03138 0.64397 0.97836 0.0
H115 H 0.97736 0.61988 0.06639 0.0
H116 H 0.03147 0.60558 0.0485 0.0
H117 H 0.97789 0.59234 0.03279 0.0
H118 H 0.1442 0.57225 0.98955 0.0
C119 C 0.1041 0.61525 0.01097 0.0
C120 C 0.57734 0.68791 0.58265 0.0
C121 C 0.62053 0.67219 0.59364 0.0
C122 C 0.66247 0.68473 0.58296 0.0
C123 C 0.61772 0.72949 0.55273 0.0
C124 C 0.57672 0.71646 0.5625 0.0
C125 C 0.53352 0.73757 0.55059 0.0
H126 H 0.43857 0.87535 0.46692 0.0
C127 C 0.60462 0.76101 0.53385 0.0
C128 C 0.55521 0.76587 0.53266 0.0
H129 H 0.36475 0.79844 0.51464 0.0
H130 H 0.43881 0.76992 0.53323 0.0
H131 H 0.50619 0.88748 0.52017 0.0
H132 H 0.52105 0.82276 0.43918 0.0
H133 H 0.57365 0.8422 0.44245 0.0
H134 H 0.51909 0.86931 0.43808 0.0
H135 H 0.52196 0.90432 0.48305 0.0
H136 H 0.56588 0.8861 0.51006 0.0
C137 C 0.50394 0.75236 0.57885 0.0
C138 C 0.50751 0.71409 0.52895 0.0
C139 C 0.73026 0.83102 0.48655 0.0
C140 C 0.72707 0.86215 0.46908 0.0
C141 C 0.68233 0.87965 0.46337 0.0
C142 C 0.6416 0.86599 0.47361 0.0
C143 C 0.64514 0.83451 0.49012 0.0
C144 C 0.68881 0.81778 0.49693 0.0
C145 C 0.68497 0.78545 0.51625 0.0
C146 C 0.63183 0.78526 0.51896 0.0
C147 C 0.60906 0.81399 0.50336 0.0
C148 C 0.70778 0.79073 0.54819 0.0
C149 C 0.70783 0.75376 0.49775 0.0
C150 C 0.43839 0.85223 0.48124 0.0
C151 C 0.3961 0.83877 0.48903 0.0
C152 C 0.3971 0.80917 0.50834 0.0
C153 C 0.44009 0.79261 0.5189 0.0
C154 C 0.48234 0.80603 0.51023 0.0
C155 C 0.48071 0.83561 0.49199 0.0
C156 C 0.5284 0.84678 0.48519 0.0
C157 C 0.55939 0.81858 0.50176 0.0
C158 C 0.53246 0.79474 0.51637 0.0
C159 C 0.53098 0.88311 0.50011 0.0
C160 C 0.53623 0.84552 0.4494 0.0
H161 H 0.69434 0.72178 0.55547 0.0
H162 H 0.54446 0.67937 0.59085 0.0
H163 H 0.53298 0.69688 0.5148 0.0
H164 H 0.48507 0.72897 0.51182 0.0
H165 H 0.48573 0.69719 0.54265 0.0
H166 H 0.52708 0.75937 0.59801 0.0
H167 H 0.48123 0.73299 0.58816 0.0
H168 H 0.48182 0.77666 0.57342 0.0
H169 H 0.76405 0.817 0.4916 0.0
H170 H 0.67866 0.9042 0.45095 0.0
H171 H 0.60888 0.88055 0.46805 0.0
H172 H 0.70195 0.81842 0.55558 0.0
H173 H 0.74633 0.78338 0.54718 0.0
H174 H 0.69237 0.77609 0.56714 0.0
H175 H 0.69798 0.75595 0.47279 0.0
H176 H 0.69607 0.7289 0.50579 0.0
H177 H 0.74677 0.75206 0.499 0.0
H178 H 0.69619 0.67294 0.59098 0.0
C179 C 0.66131 0.71317 0.56247 0.0
C180 C 0.66288 0.20309 0.47619 0.0
C181 C 0.66593 0.17324 0.45743 0.0
C182 C 0.62591 0.15573 0.45277 0.0
C183 C 0.58081 0.19659 0.48676 0.0
C184 C 0.61974 0.21457 0.4903 0.0
C185 C 0.60931 0.24636 0.51038 0.0
H186 H 0.45818 0.34289 0.6056 0.0
C187 C 0.54215 0.21424 0.50549 0.0
C188 C 0.55807 0.24374 0.519 0.0
H189 H 0.60036 0.36034 0.57919 0.0
H190 H 0.60448 0.31148 0.54455 0.0
H191 H 0.42465 0.32169 0.53449 0.0
H192 H 0.47858 0.25967 0.6126 0.0
H193 H 0.43005 0.24133 0.59695 0.0
H194 H 0.42177 0.2842 0.61365 0.0
H195 H 0.39144 0.31854 0.56991 0.0
H196 H 0.39111 0.28629 0.53972 0.0
C197 C 0.61562 0.27896 0.49021 0.0
C198 C 0.64155 0.2422 0.53916 0.0
C199 C 0.39088 0.15846 0.51377 0.0
C200 C 0.34755 0.16725 0.52873 0.0
C201 C 0.34183 0.19749 0.54733 0.0
C202 C 0.37888 0.21859 0.55063 0.0
C203 C 0.42184 0.20946 0.53495 0.0
C204 C 0.42698 0.17966 0.51706 0.0
C205 C 0.47372 0.17398 0.50102 0.0
C206 C 0.49646 0.20519 0.51226 0.0
C207 C 0.46627 0.22604 0.53215 0.0
C208 C 0.46566 0.17519 0.46529 0.0
C209 C 0.49902 0.13929 0.51333 0.0
C210 C 0.4901 0.33628 0.59222 0.0
C211 C 0.52898 0.35569 0.59524 0.0
C212 C 0.5696 0.34635 0.57705 0.0
C213 C 0.57221 0.3176 0.55718 0.0
C214 C 0.53398 0.29763 0.5555 0.0
C215 C 0.49342 0.30738 0.57236 0.0
C216 C 0.45645 0.28277 0.56755 0.0
C217 C 0.48182 0.25656 0.54531 0.0
C218 C 0.52736 0.2654 0.53854 0.0
C219 C 0.41333 0.30322 0.55229 0.0
C220 C 0.44567 0.26612 0.59928 0.0
H221 H 0.5544 0.1523 0.46338 0.0
H222 H 0.69329 0.21717 0.47964 0.0
H223 H 0.6434 0.21514 0.54831 0.0
H224 H 0.62873 0.25895 0.55882 0.0
H225 H 0.67788 0.24777 0.53307 0.0
H226 H 0.60921 0.27407 0.46518 0.0
H227 H 0.6518 0.28677 0.49209 0.0
H228 H 0.59001 0.30136 0.4963 0.0
H229 H 0.39618 0.13624 0.49835 0.0
H230 H 0.30859 0.20502 0.55894 0.0
H231 H 0.3725 0.24141 0.56485 0.0
H232 H 0.43223 0.19097 0.45932 0.0
H233 H 0.46391 0.14871 0.45568 0.0
H234 H 0.49303 0.18797 0.45253 0.0
H235 H 0.49216 0.13621 0.53868 0.0
H236 H 0.53763 0.13772 0.51112 0.0
H237 H 0.48645 0.11665 0.50127 0.0
H238 H 0.62791 0.13269 0.4383 0.0
C239 C 0.58339 0.16716 0.46743 0.0
Zn240 Zn 0.06901 0.08561 0.34138 0.0
Zn241 Zn 0.06703 0.91359 0.36025 0.0
Zn242 Zn 0.06124 0.02197 0.35284 0.0
C243 C 0.07897 0.95323 0.29916 0.0
C244 C -0.00314 0.97909 0.37827 0.0
O245 O 0.11702 0.04127 0.38216 0.0
O246 O 0.12413 0.09507 0.36653 0.0
C247 C 0.07494 0.04901 0.28459 0.0
O248 O 0.07308 0.98425 0.31151 0.0
O249 O 0.07825 0.92479 0.31464 0.0
O250 O 0.03407 0.96206 0.36832 0.0
O251 O -0.00496 0.01196 0.37494 0.0
O252 O 0.07529 0.07902 0.29604 0.0
O253 O 0.07117 0.0226 0.30231 0.0
O254 O -0.00769 0.04744 0.36653 0.0
O255 O 0.00515 0.10206 0.35776 0.0
C256 C 0.97801 0.08008 0.36674 0.0
O257 O 0.11651 1.00627 0.38578 0.0
O258 O 0.08775 0.95908 0.37435 0.0
C259 C 0.13642 0.06985 0.38434 0.0
C260 C 0.11841 0.97347 0.38909 0.0
Zn261 Zn 0.53217 0.57291 0.85712 0.0
Zn262 Zn 0.61442 0.44446 0.85198 0.0
Zn263 Zn 0.57289 0.50895 0.85599 0.0
C264 C 0.59626 0.46651 0.79146 0.0
C265 C 0.52733 0.44265 0.88295 0.0
O266 O 0.61724 0.53843 0.88487 0.0
O267 O 0.57397 0.58899 0.88988 0.0
C268 C 0.56193 0.56159 0.79631 0.0
O269 O 0.58127 0.4946 0.80614 0.0
O270 O 0.61352 0.44008 0.80628 0.0
O271 O 0.56469 0.42347 0.87675 0.0
O272 O 0.5236 0.47521 0.87592 0.0
O273 O 0.54345 0.58579 0.81346 0.0
O274 O 0.57322 0.53109 0.80795 0.0
O275 O 0.50278 0.51014 0.87898 0.0
O276 O 0.46846 0.56308 0.86993 0.0
C277 C 0.46683 0.533 0.88107 0.0
O278 O 0.63814 0.50362 0.88428 0.0
O279 O 0.67382 0.45171 0.87266 0.0
C280 C 0.61026 0.56912 0.89669 0.0
C281 C 0.67316 0.48011 0.88714 0.0
C282 C 0.08066 0.1107 0.10847 0.0
C283 C 0.10238 0.14065 0.11528 0.0
C284 C 0.07717 0.08471 0.13122 0.0
C285 C 0.09404 0.08978 0.16161 0.0
C286 C 0.1175 0.11959 0.16798 0.0
C287 C 0.12182 0.14437 0.14461 0.0
C288 C 0.05388 0.05272 0.12288 0.0
C289 C 0.13561 0.12652 0.20006 0.0
C290 C 0.03575 0.06716 0.23606 0.0
C291 C 0.07275 0.04704 0.25055 0.0
C292 C 0.03965 0.0778 0.20511 0.0
C293 C 0.08151 0.06763 0.18823 0.0
C294 C 0.11568 0.04277 0.20131 0.0
C295 C 0.11148 0.03329 0.2328 0.0
C296 C 0.00175 0.10371 0.19208 0.0
C297 C 0.15893 0.02906 0.18317 0.0
H298 H 0.06608 0.10776 0.08555 0.0
H299 H 0.13867 0.16762 0.14965 0.0
H300 H 0.06666 0.03 0.13744 0.0
H301 H 0.01536 0.05797 0.12642 0.0
H302 H 0.0602 0.0459 0.09799 0.0
H303 H 0.15349 0.15072 0.20093 0.0
H304 H 0.10601 0.12893 0.21708 0.0
H305 H 0.16084 0.10451 0.20762 0.0
H306 H 0.00566 0.0775 0.24994 0.0
H307 H 0.13994 0.01744 0.24402 0.0
H308 H 0.99219 0.09605 0.16834 0.0
H309 H 0.01504 0.12967 0.19041 0.0
H310 H 0.96951 0.10608 0.20687 0.0
H311 H 0.15108 0.02679 0.15806 0.0
H312 H 0.17347 1.00321 0.19209 0.0
H313 H 0.18628 0.04726 0.18557 0.0
C314 C 0.09514 0.88488 0.12317 0.0
C315 C 0.06631 0.85782 0.12685 0.0
C316 C 0.09806 0.90971 0.14682 0.0
C317 C 0.07287 0.90647 0.17504 0.0
C318 C 0.04191 0.88023 0.17808 0.0
C319 C 0.03877 0.85647 0.15387 0.0
C320 C 0.12969 0.9383 0.14215 0.0
C321 C 0.01453 0.87556 0.20781 0.0
C322 C 0.11953 0.92332 0.25432 0.0
C323 C 0.08563 0.94916 0.2653 0.0
C324 C 0.11882 0.91154 0.22358 0.0
C325 C 0.08359 0.92635 0.20325 0.0
C326 C 0.05279 0.95532 0.21322 0.0
C327 C 0.05333 0.96583 0.24451 0.0
C328 C 0.15244 0.88061 0.2141 0.0
C329 C 0.01653 0.97318 0.19178 0.0
H330 H 0.11605 0.88623 0.1021 0.0
H331 H 0.01674 0.83544 0.15691 0.0
H332 H 0.11363 0.96312 0.15233 0.0
H333 H 0.16352 0.93124 0.15409 0.0
H334 H 0.13732 0.94247 0.1171 0.0
H335 H 0.9904 0.8549 0.20582 0.0
H336 H 0.03924 0.86854 0.22711 0.0
H337 H -0.0065 0.90022 0.21425 0.0
H338 H 0.14453 0.91048 0.27049 0.0
H339 H 0.02655 0.98542 0.25309 0.0
H340 H 0.1687 0.88517 0.19113 0.0
H341 H 0.13285 0.85737 0.21193 0.0
H342 H 0.18087 0.87473 0.23132 0.0
H343 H 0.03021 0.97395 0.16756 0.0
H344 H 0.00543 1.00019 0.19956 0.0
H345 H 0.98505 0.95861 0.19171 0.0
C346 C 0.59067 0.61935 0.61798 0.0
C347 C 0.62102 0.64569 0.6188 0.0
C348 C 0.58439 0.59844 0.6442 0.0
C349 C 0.6084 0.60452 0.67199 0.0
C350 C 0.64183 0.62918 0.67211 0.0
C351 C 0.64785 0.64937 0.64547 0.0
C352 C 0.54924 0.5719 0.64268 0.0
C353 C 0.66817 0.63653 0.70124 0.0
C354 C 0.54556 0.59833 0.74932 0.0
C355 C 0.57084 0.56942 0.76314 0.0
C356 C 0.55635 0.60908 0.71921 0.0
C357 C 0.59293 0.59012 0.70212 0.0
C358 C 0.61676 0.55964 0.71514 0.0
C359 C 0.60617 0.55009 0.74583 0.0
C360 C 0.52979 0.64164 0.7062 0.0
C361 C 0.65435 0.53779 0.69707 0.0
H362 H 0.57037 0.616 0.59723 0.0
H363 H 0.67115 0.66979 0.64636 0.0
H364 H 0.55816 0.54986 0.65885 0.0
H365 H 0.51398 0.58449 0.64932 0.0
H366 H 0.547 0.56158 0.6187 0.0
H367 H 0.69663 0.65346 0.69658 0.0
H368 H 0.64334 0.6497 0.71851 0.0
H369 H 0.68379 0.61193 0.71192 0.0
H370 H 0.51794 0.61327 0.76244 0.0
H371 H 0.62654 0.52818 0.75653 0.0
H372 H 0.51375 0.63588 0.68365 0.0
H373 H 0.5544 0.66158 0.70177 0.0
H374 H 0.50152 0.65286 0.7222 0.0
H375 H 0.64265 0.53363 0.67295 0.0
H376 H 0.66353 0.51205 0.70822 0.0
H377 H 0.68648 0.55158 0.69559 0.0
C378 C 0.51204 0.3768 0.64949 0.0
C379 C 0.52977 0.38285 0.61965 0.0
C380 C 0.52028 0.39851 0.67446 0.0
C381 C 0.54713 0.42694 0.66958 0.0
C382 C 0.56172 0.43497 0.63907 0.0
C383 C 0.55292 0.41277 0.61444 0.0
C384 C 0.50358 0.38919 0.70659 0.0
C385 C 0.58967 0.46534 0.63261 0.0
C386 C 0.55067 0.48069 0.74282 0.0
C387 C 0.58966 0.46314 0.7576 0.0
C388 C 0.53874 0.4717 0.71245 0.0
C389 C 0.56585 0.44406 0.69708 0.0
C390 C 0.60767 0.42867 0.71085 0.0
C391 C 0.61904 0.43842 0.74095 0.0
C392 C 0.49523 0.48993 0.69788 0.0
C393 C 0.63834 0.39974 0.69493 0.0
H394 H 0.49442 0.3537 0.65388 0.0
H395 H 0.56589 0.4181 0.59131 0.0
H396 H 0.53428 0.37966 0.72096 0.0
H397 H 0.48555 0.41245 0.71829 0.0
H398 H 0.4791 0.36864 0.70598 0.0
H399 H 0.58372 0.47532 0.60855 0.0
H400 H 0.58076 0.48693 0.64925 0.0
H401 H 0.62766 0.45666 0.63488 0.0
H402 H 0.52786 0.4999 0.75558 0.0
H403 H 0.64968 0.42523 0.75215 0.0
H404 H 0.4659 0.47338 0.70039 0.0
H405 H 0.50092 0.49432 0.67266 0.0
H406 H 0.48457 0.51536 0.70922 0.0
H407 H 0.61934 0.37611 0.69392 0.0
H408 H 0.67198 0.39306 0.7073 0.0
H409 H 0.64638 0.40721 0.67067 0.0
C410 C 0.31776 0.39177 0.9905 0.0
C411 C 0.29476 0.36477 0.97802 0.0
C412 C 0.35811 0.40232 0.97601 0.0
C413 C 0.37487 0.38601 0.94804 0.0
C414 C 0.35239 0.35807 0.93585 0.0
C415 C 0.3127 0.34755 0.9512 0.0
C416 C 0.38269 0.43094 0.99058 0.0
C417 C 0.36917 0.3402 0.90599 0.0
C418 C 0.44183 0.44007 0.89279 0.0
C419 C 0.48839 0.42751 0.89894 0.0
C420 C 0.40451 0.4266 0.9085 0.0
C421 C 0.41416 0.3996 0.93058 0.0
C422 C 0.46116 0.38623 0.93634 0.0
C423 C 0.4978 0.40033 0.92034 0.0
C424 C 0.35485 0.44172 0.90188 0.0
C425 C 0.47275 0.35744 0.95968 0.0
H426 H 0.30387 0.40477 0.01145 0.0
H427 H 0.2945 0.3268 0.94158 0.0
H428 H 0.41686 0.4198 8e-05 0.0
H429 H 0.39031 0.45059 0.97289 0.0
H430 H 0.3617 0.44413 0.00982 0.0
H431 H 0.34963 0.31753 0.90069 0.0
H432 H 0.36465 0.35893 0.88636 0.0
H433 H 0.40717 0.33121 0.90736 0.0
H434 H 0.43457 0.4602 0.87543 0.0
H435 H 0.53392 0.39051 0.925 0.0
H436 H 0.33952 0.45498 0.92301 0.0
H437 H 0.33267 0.42075 0.89606 0.0
H438 H 0.35317 0.46082 0.88246 0.0
H439 H 0.46117 0.36647 0.98326 0.0
H440 H 0.51097 0.3488 0.96028 0.0
H441 H 0.45354 0.33473 0.95412 0.0
C442 C 0.79182 0.67448 0.98223 0.0
C443 C 0.81328 0.65797 0.00814 0.0
C444 C 0.75706 0.65915 0.96597 0.0
C445 C 0.74295 0.62694 0.97637 0.0
C446 C 0.76304 0.611 0.00347 0.0
C447 C 0.79843 0.6266 0.0189 0.0
C448 C 0.73704 0.67662 0.93685 0.0
C449 C 0.74749 0.57745 0.01605 0.0
C450 C 0.62822 0.60397 0.94278 0.0
C451 C 0.64418 0.58157 0.91848 0.0
C452 C 0.65998 0.61777 0.96276 0.0
C453 C 0.70876 0.60939 0.95788 0.0
C454 C 0.72499 0.58589 0.93395 0.0
C455 C 0.69239 0.57235 0.91441 0.0
C456 C 0.64141 0.64183 0.98865 0.0
C457 C 0.77678 0.57583 0.92842 0.0
H458 H 0.80403 0.69847 0.97373 0.0
H459 H 0.81525 0.61397 0.03903 0.0
H460 H 0.74573 0.65946 0.9165 0.0
H461 H 0.69819 0.68095 0.93867 0.0
H462 H 0.75092 0.70203 0.93239 0.0
H463 H 0.77258 0.565 0.03328 0.0
H464 H 0.7127 0.58294 0.02763 0.0
H465 H 0.74332 0.55874 0.99703 0.0
H466 H 0.5908 0.61083 0.94608 0.0
H467 H 0.70469 0.55549 0.8953 0.0
H468 H 0.65213 0.66826 0.98445 0.0
H469 H 0.65669 0.63259 0.01118 0.0
H470 H 0.60248 0.64374 0.99067 0.0
H471 H 0.79405 0.59916 0.92146 0.0
H472 H 0.78342 0.55574 0.91001 0.0
H473 H 0.79357 0.56561 0.95019 0.0
C474 C 0.83539 0.39054 0.00318 0.0
C475 C 0.87361 0.40533 0.01601 0.0
C476 C 0.80086 0.41081 0.98637 0.0
C477 C 0.80489 0.44673 0.9818 0.0
C478 C 0.84115 0.46241 0.99677 0.0
C479 C 0.87487 0.44157 0.0139 0.0
C480 C 0.76209 0.39311 0.97139 0.0
C481 C 0.84665 0.50059 0.99282 0.0
C482 C 0.7564 0.47087 0.90281 0.0
C483 C 0.70999 0.4831 0.91034 0.0
C484 C 0.78947 0.46262 0.92616 0.0
C485 C 0.7753 0.4659 0.95778 0.0
C486 C 0.72985 0.48187 0.96538 0.0
C487 C 0.69759 0.49045 0.94142 0.0
C488 C 0.83811 0.44691 0.91695 0.0
C489 C 0.71352 0.48647 -0.00128 0.0
H490 H 0.83394 0.36266 0.0044 0.0
H491 H 0.90348 0.45353 0.02445 0.0
H492 H 0.72751 0.40812 0.97576 0.0
H493 H 0.76791 0.39199 0.94582 0.0
H494 H 0.76061 0.36617 0.98016 0.0
H495 H 0.86678 0.51058 0.01225 0.0
H496 H 0.86606 0.5045 0.97081 0.0
H497 H 0.81207 0.51621 0.99139 0.0
H498 H 0.76594 0.46543 0.87869 0.0
H499 H 0.66156 0.49987 0.94723 0.0
H500 H 0.84136 0.41854 0.92176 0.0
H501 H 0.86512 0.45842 0.93081 0.0
H502 H 0.84563 0.45083 0.89184 0.0
H503 H 0.70115 0.4618 0.00722 0.0
H504 H 0.6839 0.5073 0.00086 0.0
H505 H 0.74249 0.49283 0.01399 0.0
C506 C 0.26955 0.60896 0.98222 0.0
C507 C 0.23387 0.59038 0.99443 0.0
C508 C 0.30831 0.59196 0.9664 0.0
C509 C 0.31099 0.55552 0.9618 0.0
C510 C 0.27626 0.53634 0.97512 0.0
C511 C 0.23858 0.55392 0.9917 0.0
C512 C 0.34521 0.61339 0.95318 0.0
C513 C 0.27718 0.49761 0.97041 0.0
C514 C 0.38071 0.53564 0.8883 0.0
C515 C 0.42567 0.52695 0.90021 0.0
C516 C 0.34158 0.5408 0.90822 0.0
C517 C 0.34817 0.53868 0.94081 0.0
C518 C 0.39291 0.52663 0.9527 0.0
C519 C 0.43124 0.52043 0.93208 0.0
C520 C 0.29408 0.552 0.89451 0.0
C521 C 0.40159 0.5242 0.98723 0.0
H522 H 0.26633 0.63707 0.98366 0.0
H523 H 0.21204 0.53903 0.00174 0.0
H524 H 0.38089 0.60168 0.9595 0.0
H525 H 0.3432 0.61376 0.92741 0.0
H526 H 0.34068 0.64068 0.96164 0.0
H527 H 0.25432 0.48556 0.9875 0.0
H528 H 0.26458 0.49253 0.94669 0.0
H529 H 0.31336 0.48477 0.97229 0.0
H530 H 0.37662 0.5405 0.86356 0.0
H531 H 0.46625 0.5139 0.9412 0.0
H532 H 0.28559 0.58041 0.89786 0.0
H533 H 0.26631 0.53869 0.90644 0.0
H534 H 0.29322 0.54636 0.86919 0.0
H535 H 0.40559 0.55057 0.99636 0.0
H536 H 0.43414 0.50709 0.99249 0.0
H537 H 0.37159 0.51424 -0.00025 0.0
C538 C 0.81052 0.87673 0.47409 0.0
C539 C 0.76951 0.8768 0.45644 0.0
C540 C 0.84945 0.89258 0.46276 0.0
C541 C 0.84697 0.90919 0.43331 0.0
C542 C 0.806 0.90888 0.41524 0.0
C543 C 0.76811 0.89234 0.42684 0.0
C544 C 0.89296 0.89194 0.48242 0.0
C545 C 0.80192 0.92639 0.38376 0.0
C546 C 0.9258 0.97946 0.41274 0.0
C547 C 0.95879 0.96143 0.39284 0.0
C548 C 0.88986 0.96255 0.42683 0.0
C549 C 0.88718 0.92675 0.42096 0.0
C550 C 0.9212 0.90824 0.40154 0.0
C551 C 0.95655 0.92583 0.38769 0.0
C552 C 0.85435 0.98307 0.44758 0.0
C553 C 0.91976 0.87 0.39491 0.0
H554 H 0.81183 0.86501 0.49704 0.0
H555 H 0.73708 0.89177 0.41266 0.0
H556 H 0.92403 0.8803 0.46908 0.0
H557 H 0.89962 0.91888 0.48845 0.0
H558 H 0.88988 0.87692 0.50429 0.0
H559 H 0.76735 0.92413 0.37281 0.0
H560 H 0.8068 0.95439 0.3861 0.0
H561 H 0.82999 0.9147 0.36789 0.0
H562 H 0.92841 1.00667 0.41761 0.0
H563 H 0.98215 0.91171 0.37246 0.0
H564 H 0.85215 0.97006 0.47051 0.0
H565 H 0.81902 0.98414 0.43698 0.0
H566 H 0.86313 0.01008 0.45139 0.0
H567 H 0.91836 0.85523 0.41702 0.0
H568 H 0.95072 0.8589 0.38111 0.0
H569 H 0.88749 0.8661 0.38182 0.0
C570 C 0.31652 0.11065 0.51681 0.0
C571 C 0.30796 0.14677 0.52116 0.0
C572 C 0.28595 0.09258 0.49924 0.0
C573 C 0.24512 0.11092 0.48678 0.0
C574 C 0.23278 0.14611 0.4952 0.0
C575 C 0.2647 0.16382 0.51205 0.0
C576 C 0.30001 0.05493 0.49121 0.0
C577 C 0.18822 0.16603 0.48364 0.0
C578 C 0.20752 0.09343 0.40472 0.0
C579 C 0.16863 0.07498 0.40993 0.0
C580 C 0.23428 0.10342 0.42963 0.0
C581 C 0.22065 0.09583 0.46053 0.0
C582 C 0.18238 0.07598 0.46583 0.0
C583 C 0.15701 0.06547 0.44033 0.0
C584 C 0.27602 0.1234 0.42288 0.0
C585 C 0.1659 0.06792 0.49827 0.0
H586 H 0.3493 0.0971 0.52476 0.0
H587 H 0.2575 0.19162 0.51556 0.0
H588 H 0.26982 0.03934 0.49433 0.0
H589 H 0.31097 0.05297 0.46637 0.0
H590 H 0.32959 0.04337 0.50566 0.0
H591 H 0.17947 0.1906 0.49676 0.0
H592 H 0.1926 0.17261 0.4587 0.0
H593 H 0.15828 0.14997 0.48563 0.0
H594 H 0.21635 0.1007 0.38115 0.0
H595 H 0.12639 0.05158 0.4443 0.0
H596 H 0.30736 0.11161 0.43551 0.0
H597 H 0.26844 0.15058 0.43114 0.0
H598 H 0.2847 0.124 0.39764 0.0
H599 H 0.19569 0.06289 0.51452 0.0
H600 H 0.1452 0.04509 0.49845 0.0
H601 H 0.14298 0.09068 0.50722 0.0
C602 C 0.34925 0.86361 0.44436 0.0
C603 C 0.35167 0.85557 0.47615 0.0
C604 C 0.30929 0.88221 0.43181 0.0
C605 C 0.27081 0.89316 0.45159 0.0
C606 C 0.27252 0.8844 0.48363 0.0
C607 C 0.31301 0.86548 0.49555 0.0
C608 C 0.30865 0.89069 0.39746 0.0
C609 C 0.23214 0.89574 0.50537 0.0
C610 C 0.19173 0.96989 0.42053 0.0
C611 C 0.15568 0.95328 0.40699 0.0
C612 C 0.22848 0.95078 0.43635 0.0
C613 C 0.22924 0.91414 0.43848 0.0
C614 C 0.19221 0.89734 0.42563 0.0
C615 C 0.1558 0.91714 0.41009 0.0
C616 C 0.26718 0.9697 0.44993 0.0
C617 C 0.1919 0.85832 0.4273 0.0
H618 H 0.379 0.85557 0.42929 0.0
H619 H 0.31506 0.85945 0.52018 0.0
H620 H 0.27781 0.88069 0.38643 0.0
H621 H 0.30521 0.91931 0.39411 0.0
H622 H 0.34098 0.87941 0.38517 0.0
H623 H 0.23817 0.88558 0.52936 0.0
H624 H 0.22691 0.92456 0.50632 0.0
H625 H 0.19912 0.88674 0.49657 0.0
H626 H 0.19184 0.99777 0.41821 0.0
H627 H 0.12782 0.90415 0.39993 0.0
H628 H 0.30113 0.96094 0.43833 0.0
H629 H 0.27108 0.96349 0.47505 0.0
H630 H 0.26037 0.99837 0.44721 0.0
H631 H 0.22183 0.84564 0.41349 0.0
H632 H 0.15884 0.84956 0.41822 0.0
H633 H 0.1965 0.84918 0.45167 0.0
C634 C 0.74819 0.14676 0.46227 0.0
C635 C 0.71091 0.15948 0.44328 0.0
C636 C 0.79053 0.13186 0.44917 0.0
C637 C 0.79574 0.13058 0.41637 0.0
C638 C 0.75807 0.14359 0.39713 0.0
C639 C 0.71572 0.15755 0.4109 0.0
C640 C 0.82968 0.11759 0.47036 0.0
C641 C 0.76282 0.1434 0.3621 0.0
C642 C 0.92047 0.12793 0.38609 0.0
C643 C 0.93063 0.0927 0.3784 0.0
C644 C 0.87634 0.14065 0.39786 0.0
C645 C 0.84162 0.11751 0.40234 0.0
C646 C 0.85122 0.08204 0.39412 0.0
C647 C 0.89562 0.07009 0.38193 0.0
C648 C 0.86708 0.1788 0.40588 0.0
C649 C 0.81482 0.05671 0.39848 0.0
H650 H 0.74382 0.14794 0.48735 0.0
H651 H 0.68649 0.16739 0.39641 0.0
H652 H 0.84103 0.09009 0.46434 0.0
H653 H 0.86058 0.13246 0.46708 0.0
H654 H 0.81902 0.11892 0.49529 0.0
H655 H 0.7297 0.15364 0.35051 0.0
H656 H 0.79102 0.15953 0.35488 0.0
H657 H 0.77315 0.11661 0.35365 0.0
H658 H 0.94727 0.14565 0.38326 0.0
H659 H 0.9028 0.04316 0.37502 0.0
H660 H 0.86024 0.18184 0.43123 0.0
H661 H 0.83528 0.19052 0.39371 0.0
H662 H 0.89707 0.19364 0.39946 0.0
H663 H 0.80419 0.05588 0.42335 0.0
H664 H 0.8279 0.02999 0.39086 0.0
H665 H 0.78284 0.06546 0.38509 0.0
loop_
_geom_bond_atom_site_label_1
_geom_bond_atom_site_label_2
_geom_bond_distance
_geom_bond_site_symmetry_2
_ccdc_geom_bond_type
C0 C1 1.391 . S
C0 C4 1.391 . S
C0 H42 0.948 . S
C1 C0 1.391 . S
C1 C2 1.391 . S
C2 C1 1.391 . S
C2 H58 0.947 . S
C2 C59 1.392 . S
C3 C4 1.391 . S
C3 C7 1.397 . S
C3 C59 1.419 . S
C4 C0 1.391 . S
C4 C3 1.391 . S
C4 C5 1.399 . S
C5 C4 1.399 . S
C5 C8 1.396 . S
C5 C17 1.453 . S
C5 C18 1.684 . S
H6 C30 0.948 . S
C7 C3 1.397 . S
C7 C8 1.394 . S
C7 C26 1.723 . S
C8 C5 1.396 . S
C8 C7 1.394 . S
C8 C38 1.723 . S
H9 C32 0.947 1_554 S
H10 C33 0.948 . S
H11 C39 0.982 . S
H12 C40 0.979 . S
H13 C40 0.980 . S
H14 C40 0.983 . S
H15 C39 0.979 . S
H16 C39 0.977 . S
C17 C5 1.453 . S
C17 H46 0.982 . S
C17 H47 0.979 . S
C17 H48 0.977 . S
C18 C5 1.684 . S
C18 H43 0.979 . S
C18 H44 0.980 1_455 S
C18 H45 0.983 . S
C19 C20 1.391 . S
C19 C24 1.391 1_556 S
C19 H49 0.948 1_556 S
C20 C19 1.391 . S
C20 C21 1.391 . S
C21 C20 1.391 . S
C21 C22 1.392 . S
C21 H50 0.947 . S
C22 C21 1.392 . S
C22 C23 1.419 . S
C22 H51 0.948 . S
C23 C22 1.419 . S
C23 C24 1.391 1_556 S
C23 C27 1.397 1_556 S
C24 C19 1.391 1_554 S
C24 C23 1.391 1_554 S
C24 C25 1.399 . S
C25 C24 1.399 . S
C25 C26 1.396 . S
C25 C28 1.453 . S
C25 C29 1.684 . S
C26 C7 1.723 . S
C26 C25 1.396 . S
C26 C27 1.394 . S
C27 C23 1.397 1_554 S
C27 C26 1.394 . S
C27 C37 1.723 1_554 S
C28 C25 1.453 . S
C28 H52 0.982 . S
C28 H53 0.979 . S
C28 H54 0.977 . S
C29 C25 1.684 . S
C29 H55 0.979 . S
C29 H56 0.980 . S
C29 H57 0.983 . S
C30 H6 0.948 . S
C30 C31 1.391 . S
C30 C35 1.391 1_655 S
C31 C30 1.391 . S
C31 C32 1.391 . S
C32 H9 0.947 1_556 S
C32 C31 1.391 . S
C32 C33 1.392 1_556 S
C33 H10 0.948 . S
C33 C32 1.392 1_554 S
C33 C34 1.419 1_655 S
C34 C33 1.419 1_455 S
C34 C35 1.391 1_554 S
C34 C38 1.397 . S
C35 C30 1.391 1_455 S
C35 C34 1.391 1_556 S
C35 C36 1.399 . S
C36 C35 1.399 . S
C36 C37 1.396 . S
C36 C39 1.453 . S
C36 C40 1.684 . S
C37 C27 1.723 1_556 S
C37 C36 1.396 . S
C37 C38 1.394 1_556 S
C38 C8 1.723 . S
C38 C34 1.397 . S
C38 C37 1.394 1_554 S
C39 H11 0.982 . S
C39 H15 0.979 . S
C39 H16 0.977 . S
C39 C36 1.453 . S
C40 H12 0.979 . S
C40 H13 0.980 . S
C40 H14 0.983 . S
C40 C36 1.684 . S
H41 C59 0.948 . S
H42 C0 0.948 . S
H43 C18 0.979 . S
H44 C18 0.980 1_655 S
H45 C18 0.983 . S
H46 C17 0.982 . S
H47 C17 0.979 . S
H48 C17 0.977 . S
H49 C19 0.948 1_554 S
H50 C21 0.947 . S
H51 C22 0.948 . S
H52 C28 0.982 . S
H53 C28 0.979 . S
H54 C28 0.977 . S
H55 C29 0.979 . S
H56 C29 0.980 . S
H57 C29 0.983 . S
H58 C2 0.947 . S
C59 C2 1.392 . S
C59 C3 1.419 . S
C59 H41 0.948 . S
C60 C61 1.391 . S
C60 C64 1.391 1_556 S
C60 H102 0.948 1_556 S
C61 C60 1.391 . S
C61 C62 1.391 . S
C62 C61 1.391 . S
C62 H118 0.947 . S
C62 C119 1.392 . S
C63 C64 1.391 1_556 S
C63 C67 1.397 1_556 S
C63 C119 1.419 . S
C64 C60 1.391 1_554 S
C64 C63 1.391 1_554 S
C64 C65 1.399 . S
C65 C64 1.399 . S
C65 C68 1.396 . S
C65 C77 1.453 . S
C65 C78 1.684 . S
H66 C90 0.948 . S
C67 C63 1.397 1_554 S
C67 C68 1.394 . S
C67 C86 1.723 1_454 S
C68 C65 1.396 . S
C68 C67 1.394 . S
C68 C98 1.723 . S
H69 C92 0.947 . S
H70 C93 0.948 . S
H71 C99 0.982 . S
H72 C100 0.979 . S
H73 C100 0.980 . S
H74 C100 0.983 . S
H75 C99 0.979 . S
H76 C99 0.977 . S
C77 C65 1.453 . S
C77 H106 0.982 . S
C77 H107 0.979 . S
C77 H108 0.977 . S
C78 C65 1.684 . S
C78 H103 0.979 . S
C78 H104 0.980 . S
C78 H105 0.983 . S
C79 C80 1.391 . S
C79 C84 1.391 . S
C79 H109 0.948 . S
C80 C79 1.391 . S
C80 C81 1.391 1_556 S
C81 C80 1.391 1_554 S
C81 C82 1.392 . S
C81 H110 0.947 . S
C82 C81 1.392 . S
C82 C83 1.419 . S
C82 H111 0.948 . S
C83 C82 1.419 . S
C83 C84 1.391 1_554 S
C83 C87 1.397 . S
C84 C79 1.391 . S
C84 C83 1.391 1_556 S
C84 C85 1.399 . S
C85 C84 1.399 . S
C85 C86 1.396 . S
C85 C88 1.453 . S
C85 C89 1.684 . S
C86 C67 1.723 1_656 S
C86 C85 1.396 . S
C86 C87 1.394 1_556 S
C87 C83 1.397 . S
C87 C86 1.394 1_554 S
C87 C97 1.723 . S
C88 C85 1.453 . S
C88 H112 0.982 . S
C88 H113 0.979 . S
C88 H114 0.977 1_655 S
C89 C85 1.684 . S
C89 H115 0.979 . S
C89 H116 0.980 1_655 S
C89 H117 0.983 . S
C90 H66 0.948 . S
C90 C91 1.391 1_655 S
C90 C95 1.391 . S
C91 C90 1.391 1_455 S
C91 C92 1.391 . S
C92 H69 0.947 . S
C92 C91 1.391 . S
C92 C93 1.392 . S
C93 H70 0.948 . S
C93 C92 1.392 . S
C93 C94 1.419 . S
C94 C93 1.419 . S
C94 C95 1.391 1_455 S
C94 C98 1.397 . S
C95 C90 1.391 . S
C95 C94 1.391 1_655 S
C95 C96 1.399 . S
C96 C95 1.399 . S
C96 C97 1.396 . S
C96 C99 1.453 . S
C96 C100 1.684 . S
C97 C87 1.723 . S
C97 C96 1.396 . S
C97 C98 1.394 1_655 S
C98 C68 1.723 . S
C98 C94 1.397 . S
C98 C97 1.394 1_455 S
C99 H71 0.982 . S
C99 H75 0.979 . S
C99 H76 0.977 . S
C99 C96 1.453 . S
C100 H72 0.979 . S
C100 H73 0.980 . S
C100 H74 0.983 . S
C100 C96 1.684 . S
H101 C119 0.948 . S
H102 C60 0.948 1_554 S
H103 C78 0.979 . S
H104 C78 0.980 . S
H105 C78 0.983 . S
H106 C77 0.982 . S
H107 C77 0.979 . S
H108 C77 0.977 . S
H109 C79 0.948 . S
H110 C81 0.947 . S
H111 C82 0.948 . S
H112 C88 0.982 . S
H113 C88 0.979 . S
H114 C88 0.977 1_455 S
H115 C89 0.979 . S
H116 C89 0.980 1_455 S
H117 C89 0.983 . S
H118 C62 0.947 . S
C119 C62 1.392 . S
C119 C63 1.419 . S
C119 H101 0.948 . S
C120 C121 1.391 . S
C120 C124 1.391 . S
C120 H162 0.948 . S
C121 C120 1.391 . S
C121 C122 1.391 . S
C122 C121 1.391 . S
C122 H178 0.947 . S
C122 C179 1.392 . S
C123 C124 1.391 . S
C123 C127 1.397 . S
C123 C179 1.419 . S
C124 C120 1.391 . S
C124 C123 1.391 . S
C124 C125 1.399 . S
C125 C124 1.399 . S
C125 C128 1.396 . S
C125 C137 1.453 . S
C125 C138 1.684 . S
H126 C150 0.948 . S
C127 C123 1.397 . S
C127 C128 1.394 . S
C127 C146 1.723 . S
C128 C125 1.396 . S
C128 C127 1.394 . S
C128 C158 1.723 . S
H129 C152 0.947 . S
H130 C153 0.948 . S
H131 C159 0.982 . S
H132 C160 0.979 . S
H133 C160 0.980 . S
H134 C160 0.983 . S
H135 C159 0.979 . S
H136 C159 0.977 . S
C137 C125 1.453 . S
C137 H166 0.982 . S
C137 H167 0.979 . S
C137 H168 0.977 . S
C138 C125 1.684 . S
C138 H163 0.979 . S
C138 H164 0.980 . S
C138 H165 0.983 . S
C139 C140 1.391 . S
C139 C144 1.391 . S
C139 H169 0.948 . S
C140 C139 1.391 . S
C140 C141 1.391 . S
C141 C140 1.391 . S
C141 C142 1.392 . S
C141 H170 0.947 . S
C142 C141 1.392 . S
C142 C143 1.419 . S
C142 H171 0.948 . S
C143 C142 1.419 . S
C143 C144 1.391 . S
C143 C147 1.397 . S
C144 C139 1.391 . S
C144 C143 1.391 . S
C144 C145 1.399 . S
C145 C144 1.399 . S
C145 C146 1.396 . S
C145 C148 1.453 . S
C145 C149 1.684 . S
C146 C127 1.723 . S
C146 C145 1.396 . S
C146 C147 1.394 . S
C147 C143 1.397 . S
C147 C146 1.394 . S
C147 C157 1.723 . S
C148 C145 1.453 . S
C148 H172 0.982 . S
C148 H173 0.979 . S
C148 H174 0.977 . S
C149 C145 1.684 . S
C149 H175 0.979 . S
C149 H176 0.980 . S
C149 H177 0.983 . S
C150 H126 0.948 . S
C150 C151 1.391 . S
C150 C155 1.391 . S
C151 C150 1.391 . S
C151 C152 1.391 . S
C152 H129 0.947 . S
C152 C151 1.391 . S
C152 C153 1.392 . S
C153 H130 0.948 . S
C153 C152 1.392 . S
C153 C154 1.419 . S
C154 C153 1.419 . S
C154 C155 1.391 . S
C154 C158 1.397 . S
C155 C150 1.391 . S
C155 C154 1.391 . S
C155 C156 1.399 . S
C156 C155 1.399 . S
C156 C157 1.396 . S
C156 C159 1.453 . S
C156 C160 1.684 . S
C157 C147 1.723 . S
C157 C156 1.396 . S
C157 C158 1.394 . S
C158 C128 1.723 . S
C158 C154 1.397 . S
C158 C157 1.394 . S
C159 H131 0.982 . S
C159 H135 0.979 . S
C159 H136 0.977 . S
C159 C156 1.453 . S
C160 H132 0.979 . S
C160 H133 0.980 . S
C160 H134 0.983 . S
C160 C156 1.684 . S
H161 C179 0.948 . S
H162 C120 0.948 . S
H163 C138 0.979 . S
H164 C138 0.980 . S
H165 C138 0.983 . S
H166 C137 0.982 . S
H167 C137 0.979 . S
H168 C137 0.977 . S
H169 C139 0.948 . S
H170 C141 0.947 . S
H171 C142 0.948 . S
H172 C148 0.982 . S
H173 C148 0.979 . S
H174 C148 0.977 . S
H175 C149 0.979 . S
H176 C149 0.980 . S
H177 C149 0.983 . S
H178 C122 0.947 . S
C179 C122 1.392 . S
C179 C123 1.419 . S
C179 H161 0.948 . S
C180 C181 1.391 . S
C180 C184 1.391 . S
C180 H222 0.948 . S
C181 C180 1.391 . S
C181 C182 1.391 . S
C182 C181 1.391 . S
C182 H238 0.947 . S
C182 C239 1.392 . S
C183 C184 1.391 . S
C183 C187 1.397 . S
C183 C239 1.419 . S
C184 C180 1.391 . S
C184 C183 1.391 . S
C184 C185 1.399 . S
C185 C184 1.399 . S
C185 C188 1.396 . S
C185 C197 1.453 . S
C185 C198 1.684 . S
H186 C210 0.948 . S
C187 C183 1.397 . S
C187 C188 1.394 . S
C187 C206 1.723 . S
C188 C185 1.396 . S
C188 C187 1.394 . S
C188 C218 1.723 . S
H189 C212 0.947 . S
H190 C213 0.948 . S
H191 C219 0.982 . S
H192 C220 0.979 . S
H193 C220 0.980 . S
H194 C220 0.983 . S
H195 C219 0.979 . S
H196 C219 0.977 . S
C197 C185 1.453 . S
C197 H226 0.982 . S
C197 H227 0.979 . S
C197 H228 0.977 . S
C198 C185 1.684 . S
C198 H223 0.979 . S
C198 H224 0.980 . S
C198 H225 0.983 . S
C199 C200 1.391 . S
C199 C204 1.391 . S
C199 H229 0.948 . S
C200 C199 1.391 . S
C200 C201 1.391 . S
C201 C200 1.391 . S
C201 C202 1.392 . S
C201 H230 0.947 . S
C202 C201 1.392 . S
C202 C203 1.419 . S
C202 H231 0.948 . S
C203 C202 1.419 . S
C203 C204 1.391 . S
C203 C207 1.397 . S
C204 C199 1.391 . S
C204 C203 1.391 . S
C204 C205 1.399 . S
C205 C204 1.399 . S
C205 C206 1.396 . S
C205 C208 1.453 . S
C205 C209 1.684 . S
C206 C187 1.723 . S
C206 C205 1.396 . S
C206 C207 1.394 . S
C207 C203 1.397 . S
C207 C206 1.394 . S
C207 C217 1.723 . S
C208 C205 1.453 . S
C208 H232 0.982 . S
C208 H233 0.979 . S
C208 H234 0.977 . S
C209 C205 1.684 . S
C209 H235 0.979 . S
C209 H236 0.980 . S
C209 H237 0.983 . S
C210 H186 0.948 . S
C210 C211 1.391 . S
C210 C215 1.391 . S
C211 C210 1.391 . S
C211 C212 1.391 . S
C212 H189 0.947 . S
C212 C211 1.391 . S
C212 C213 1.392 . S
C213 H190 0.948 . S
C213 C212 1.392 . S
C213 C214 1.419 . S
C214 C213 1.419 . S
C214 C215 1.391 . S
C214 C218 1.397 . S
C215 C210 1.391 . S
C215 C214 1.391 . S
C215 C216 1.399 . S
C216 C215 1.399 . S
C216 C217 1.396 . S
C216 C219 1.453 . S
C216 C220 1.684 . S
C217 C207 1.723 . S
C217 C216 1.396 . S
C217 C218 1.394 . S
C218 C188 1.723 . S
C218 C214 1.397 . S
C218 C217 1.394 . S
C219 H191 0.982 . S
C219 H195 0.979 . S
C219 H196 0.977 . S
C219 C216 1.453 . S
C220 H192 0.979 . S
C220 H193 0.980 . S
C220 H194 0.983 . S
C220 C216 1.684 . S
H221 C239 0.948 . S
H222 C180 0.948 . S
H223 C198 0.979 . S
H224 C198 0.980 . S
H225 C198 0.983 . S
H226 C197 0.982 . S
H227 C197 0.979 . S
H228 C197 0.977 . S
H229 C199 0.948 . S
H230 C201 0.947 . S
H231 C202 0.948 . S
H232 C208 0.982 . S
H233 C208 0.979 . S
H234 C208 0.977 . S
H235 C209 0.979 . S
H236 C209 0.980 . S
H237 C209 0.983 . S
H238 C182 0.947 . S
C239 C182 1.392 . S
C239 C183 1.419 . S
C239 H221 0.948 . S
Zn240 O246 1.920 . S
Zn240 O252 1.898 . S
Zn240 O255 1.905 1_455 S
Zn241 O249 1.905 . S
Zn241 O250 1.898 . S
Zn241 O258 1.920 . S
Zn242 O245 2.080 . S
Zn242 O248 2.114 1_545 S
Zn242 O251 2.120 1_545 S
Zn242 O253 2.120 . S
Zn242 O254 2.114 . S
Zn242 O257 2.080 1_545 S
C243 O248 1.166 . S
C243 O249 1.182 . S
C244 O250 1.167 . S
C244 O251 1.299 . S
O245 Zn242 2.080 . S
O245 C259 1.305 . S
O246 Zn240 1.920 . S
O246 C259 1.234 . S
C247 O252 1.167 . S
C247 O253 1.299 . S
O248 Zn242 2.114 1_565 S
O248 C243 1.166 . S
O249 Zn241 1.905 . S
O249 C243 1.182 . S
O250 Zn241 1.898 . S
O250 C244 1.167 . S
O251 Zn242 2.120 1_565 S
O251 C244 1.299 . S
O252 Zn240 1.898 . S
O252 C247 1.167 . S
O253 Zn242 2.120 . S
O253 C247 1.299 . S
O254 Zn242 2.114 . S
O254 C256 1.166 1_455 S
O255 Zn240 1.905 1_655 S
O255 C256 1.182 . S
C256 O254 1.166 1_655 S
C256 O255 1.182 . S
O257 Zn242 2.080 1_565 S
O257 C260 1.305 . S
O258 Zn241 1.920 . S
O258 C260 1.234 . S
C259 O245 1.305 . S
C259 O246 1.234 . S
C260 O257 1.305 . S
C260 O258 1.234 . S
Zn261 O267 1.920 . S
Zn261 O273 1.898 . S
Zn261 O276 1.905 . S
Zn262 O270 1.905 . S
Zn262 O271 1.898 . S
Zn262 O279 1.920 . S
Zn263 O266 2.080 . S
Zn263 O269 2.114 . S
Zn263 O272 2.120 . S
Zn263 O274 2.120 . S
Zn263 O275 2.114 . S
Zn263 O278 2.080 . S
C264 O269 1.166 . S
C264 O270 1.182 . S
C265 O271 1.167 . S
C265 O272 1.299 . S
O266 Zn263 2.080 . S
O266 C280 1.305 . S
O267 Zn261 1.920 . S
O267 C280 1.234 . S
C268 O273 1.167 . S
C268 O274 1.299 . S
O269 Zn263 2.114 . S
O269 C264 1.166 . S
O270 Zn262 1.905 . S
O270 C264 1.182 . S
O271 Zn262 1.898 . S
O271 C265 1.167 . S
O272 Zn263 2.120 . S
O272 C265 1.299 . S
O273 Zn261 1.898 . S
O273 C268 1.167 . S
O274 Zn263 2.120 . S
O274 C268 1.299 . S
O275 Zn263 2.114 . S
O275 C277 1.166 . S
O276 Zn261 1.905 . S
O276 C277 1.182 . S
C277 O275 1.166 . S
C277 O276 1.182 . S
O278 Zn263 2.080 . S
O278 C281 1.305 . S
O279 Zn262 1.920 . S
O279 C281 1.234 . S
C280 O266 1.305 . S
C280 O267 1.234 . S
C281 O278 1.305 . S
C281 O279 1.234 . S
C282 C283 1.391 . S
C282 C284 1.394 . S
C282 H298 0.931 . S
C283 C282 1.391 . S
C283 C287 1.376 . S
C284 C282 1.394 . S
C284 C285 1.369 . S
C284 C288 1.531 . S
C285 C284 1.369 . S
C285 C286 1.410 . S
C285 C293 1.503 . S
C286 C285 1.410 . S
C286 C287 1.392 . S
C286 C289 1.511 . S
C287 C283 1.376 . S
C287 C286 1.392 . S
C287 H299 0.929 . S
C288 C284 1.531 . S
C288 H300 0.960 . S
C288 H301 0.962 . S
C288 H302 0.960 . S
C289 C286 1.511 . S
C289 H303 0.961 . S
C289 H304 0.961 . S
C289 H305 0.961 . S
C290 C291 1.370 . S
C290 C292 1.363 . S
C290 H306 0.931 . S
C291 C290 1.370 . S
C291 C295 1.408 . S
C292 C290 1.363 . S
C292 C293 1.370 . S
C292 C296 1.524 . S
C293 C285 1.503 . S
C293 C292 1.370 . S
C293 C294 1.403 . S
C294 C293 1.403 . S
C294 C295 1.404 . S
C294 C297 1.539 . S
C295 C291 1.408 . S
C295 C294 1.404 . S
C295 H307 0.930 . S
C296 C292 1.524 . S
C296 H308 0.956 . S
C296 H309 0.961 . S
C296 H310 0.961 . S
C297 C294 1.539 . S
C297 H311 0.958 . S
C297 H312 0.961 . S
C297 H313 0.960 . S
H298 C282 0.931 . S
H299 C287 0.929 . S
H300 C288 0.960 . S
H301 C288 0.962 . S
H302 C288 0.960 . S
H303 C289 0.961 . S
H304 C289 0.961 . S
H305 C289 0.961 . S
H306 C290 0.931 . S
H307 C295 0.930 . S
H308 C296 0.956 . S
H309 C296 0.961 . S
H310 C296 0.961 . S
H311 C297 0.958 . S
H312 C297 0.961 . S
H313 C297 0.960 . S
C314 C315 1.391 . S
C314 C316 1.394 . S
C314 H330 0.931 . S
C315 C314 1.391 . S
C315 C319 1.376 1_455 S
C316 C314 1.394 . S
C316 C317 1.369 . S
C316 C320 1.531 . S
C317 C316 1.369 . S
C317 C318 1.410 1_455 S
C317 C325 1.503 . S
C318 C317 1.410 1_655 S
C318 C319 1.392 . S
C318 C321 1.511 . S
C319 C315 1.376 1_655 S
C319 C318 1.392 . S
C319 H331 0.929 . S
C320 C316 1.531 . S
C320 H332 0.960 . S
C320 H333 0.962 . S
C320 H334 0.960 . S
C321 C318 1.511 . S
C321 H335 0.961 . S
C321 H336 0.961 . S
C321 H337 0.961 . S
C322 C323 1.370 . S
C322 C324 1.363 . S
C322 H338 0.931 . S
C323 C322 1.370 . S
C323 C327 1.408 . S
C324 C322 1.363 . S
C324 C325 1.370 . S
C324 C328 1.524 . S
C325 C317 1.503 . S
C325 C324 1.370 . S
C325 C326 1.403 . S
C326 C325 1.403 . S
C326 C327 1.404 . S
C326 C329 1.539 1_455 S
C327 C323 1.408 . S
C327 C326 1.404 . S
C327 H339 0.930 . S
C328 C324 1.524 . S
C328 H340 0.956 . S
C328 H341 0.961 . S
C328 H342 0.961 . S
C329 C326 1.539 1_655 S
C329 H343 0.958 1_655 S
C329 H344 0.961 . S
C329 H345 0.960 . S
H330 C314 0.931 . S
H331 C319 0.929 . S
H332 C320 0.960 . S
H333 C320 0.962 . S
H334 C320 0.960 . S
H335 C321 0.961 . S
H336 C321 0.961 . S
H337 C321 0.961 . S
H338 C322 0.931 . S
H339 C327 0.930 . S
H340 C328 0.956 . S
H341 C328 0.961 . S
H342 C328 0.961 . S
H343 C329 0.958 1_455 S
H344 C329 0.961 . S
H345 C329 0.960 . S
C346 C347 1.391 . S
C346 C348 1.394 . S
C346 H362 0.931 . S
C347 C346 1.391 . S
C347 C351 1.376 . S
C348 C346 1.394 . S
C348 C349 1.369 . S
C348 C352 1.531 . S
C349 C348 1.369 . S
C349 C350 1.410 . S
C349 C357 1.503 . S
C350 C349 1.410 . S
C350 C351 1.392 . S
C350 C353 1.511 . S
C351 C347 1.376 . S
C351 C350 1.392 . S
C351 H363 0.929 . S
C352 C348 1.531 . S
C352 H364 0.960 . S
C352 H365 0.962 . S
C352 H366 0.960 . S
C353 C350 1.511 . S
C353 H367 0.961 . S
C353 H368 0.961 . S
C353 H369 0.961 . S
C354 C355 1.370 . S
C354 C356 1.363 . S
C354 H370 0.931 . S
C355 C354 1.370 . S
C355 C359 1.408 . S
C356 C354 1.363 . S
C356 C357 1.370 . S
C356 C360 1.524 . S
C357 C349 1.503 . S
C357 C356 1.370 . S
C357 C358 1.403 . S
C358 C357 1.403 . S
C358 C359 1.404 . S
C358 C361 1.539 . S
C359 C355 1.408 . S
C359 C358 1.404 . S
C359 H371 0.930 . S
C360 C356 1.524 . S
C360 H372 0.956 . S
C360 H373 0.961 . S
C360 H374 0.961 . S
C361 C358 1.539 . S
C361 H375 0.958 . S
C361 H376 0.961 . S
C361 H377 0.960 . S
H362 C346 0.931 . S
H363 C351 0.929 . S
H364 C352 0.960 . S
H365 C352 0.962 . S
H366 C352 0.960 . S
H367 C353 0.961 . S
H368 C353 0.961 . S
H369 C353 0.961 . S
H370 C354 0.931 . S
H371 C359 0.930 . S
H372 C360 0.956 . S
H373 C360 0.961 . S
H374 C360 0.961 . S
H375 C361 0.958 . S
H376 C361 0.961 . S
H377 C361 0.960 . S
C378 C379 1.391 . S
C378 C380 1.394 . S
C378 H394 0.931 . S
C379 C378 1.391 . S
C379 C383 1.376 . S
C380 C378 1.394 . S
C380 C381 1.369 . S
C380 C384 1.531 . S
C381 C380 1.369 . S
C381 C382 1.410 . S
C381 C389 1.503 . S
C382 C381 1.410 . S
C382 C383 1.392 . S
C382 C385 1.511 . S
C383 C379 1.376 . S
C383 C382 1.392 . S
C383 H395 0.929 . S
C384 C380 1.531 . S
C384 H396 0.960 . S
C384 H397 0.962 . S
C384 H398 0.960 . S
C385 C382 1.511 . S
C385 H399 0.961 . S
C385 H400 0.961 . S
C385 H401 0.961 . S
C386 C387 1.370 . S
C386 C388 1.363 . S
C386 H402 0.931 . S
C387 C386 1.370 . S
C387 C391 1.408 . S
C388 C386 1.363 . S
C388 C389 1.370 . S
C388 C392 1.524 . S
C389 C381 1.503 . S
C389 C388 1.370 . S
C389 C390 1.403 . S
C390 C389 1.403 . S
C390 C391 1.404 . S
C390 C393 1.539 . S
C391 C387 1.408 . S
C391 C390 1.404 . S
C391 H403 0.930 . S
C392 C388 1.524 . S
C392 H404 0.956 . S
C392 H405 0.961 . S
C392 H406 0.961 . S
C393 C390 1.539 . S
C393 H407 0.958 . S
C393 H408 0.961 . S
C393 H409 0.960 . S
H394 C378 0.931 . S
H395 C383 0.929 . S
H396 C384 0.960 . S
H397 C384 0.962 . S
H398 C384 0.960 . S
H399 C385 0.961 . S
H400 C385 0.961 . S
H401 C385 0.961 . S
H402 C386 0.931 . S
H403 C391 0.930 . S
H404 C392 0.956 . S
H405 C392 0.961 . S
H406 C392 0.961 . S
H407 C393 0.958 . S
H408 C393 0.961 . S
H409 C393 0.960 . S
C410 C411 1.391 . S
C410 C412 1.394 . S
C410 H426 0.931 . S
C411 C410 1.391 . S
C411 C415 1.376 . S
C412 C410 1.394 . S
C412 C413 1.369 . S
C412 C416 1.531 . S
C413 C412 1.369 . S
C413 C414 1.410 . S
C413 C421 1.503 . S
C414 C413 1.410 . S
C414 C415 1.392 . S
C414 C417 1.511 . S
C415 C411 1.376 . S
C415 C414 1.392 . S
C415 H427 0.929 . S
C416 C412 1.531 . S
C416 H428 0.960 . S
C416 H429 0.962 . S
C416 H430 0.960 . S
C417 C414 1.511 . S
C417 H431 0.961 . S
C417 H432 0.961 . S
C417 H433 0.961 . S
C418 C419 1.370 . S
C418 C420 1.363 . S
C418 H434 0.931 . S
C419 C418 1.370 . S
C419 C423 1.408 . S
C420 C418 1.363 . S
C420 C421 1.370 . S
C420 C424 1.524 . S
C421 C413 1.503 . S
C421 C420 1.370 . S
C421 C422 1.403 . S
C422 C421 1.403 . S
C422 C423 1.404 . S
C422 C425 1.539 1_556 S
C423 C419 1.408 . S
C423 C422 1.404 . S
C423 H435 0.930 . S
C424 C420 1.524 . S
C424 H436 0.956 . S
C424 H437 0.961 . S
C424 H438 0.961 . S
C425 C422 1.539 1_554 S
C425 H439 0.958 . S
C425 H440 0.961 . S
C425 H441 0.960 . S
H426 C410 0.931 . S
H427 C415 0.929 . S
H428 C416 0.960 . S
H429 C416 0.962 . S
H430 C416 0.960 . S
H431 C417 0.961 . S
H432 C417 0.961 . S
H433 C417 0.961 . S
H434 C418 0.931 . S
H435 C423 0.930 . S
H436 C424 0.956 . S
H437 C424 0.961 . S
H438 C424 0.961 . S
H439 C425 0.958 . S
H440 C425 0.961 . S
H441 C425 0.960 . S
C442 C443 1.391 . S
C442 C444 1.394 . S
C442 H458 0.931 . S
C443 C442 1.391 . S
C443 C447 1.376 . S
C444 C442 1.394 . S
C444 C445 1.369 . S
C444 C448 1.531 . S
C445 C444 1.369 . S
C445 C446 1.410 . S
C445 C453 1.503 . S
C446 C445 1.410 . S
C446 C447 1.392 . S
C446 C449 1.511 1_556 S
C447 C443 1.376 . S
C447 C446 1.392 . S
C447 H459 0.929 1_556 S
C448 C444 1.531 . S
C448 H460 0.960 . S
C448 H461 0.962 . S
C448 H462 0.960 . S
C449 C446 1.511 1_554 S
C449 H463 0.961 . S
C449 H464 0.961 1_554 S
C449 H465 0.961 1_554 S
C450 C451 1.370 . S
C450 C452 1.363 . S
C450 H466 0.931 . S
C451 C450 1.370 . S
C451 C455 1.408 . S
C452 C450 1.363 . S
C452 C453 1.370 . S
C452 C456 1.524 . S
C453 C445 1.503 . S
C453 C452 1.370 . S
C453 C454 1.403 . S
C454 C453 1.403 . S
C454 C455 1.404 . S
C454 C457 1.539 . S
C455 C451 1.408 . S
C455 C454 1.404 . S
C455 H467 0.930 . S
C456 C452 1.524 . S
C456 H468 0.956 . S
C456 H469 0.961 . S
C456 H470 0.961 . S
C457 C454 1.539 . S
C457 H471 0.958 . S
C457 H472 0.961 . S
C457 H473 0.960 . S
H458 C442 0.931 . S
H459 C447 0.929 1_554 S
H460 C448 0.960 . S
H461 C448 0.962 . S
H462 C448 0.960 . S
H463 C449 0.961 . S
H464 C449 0.961 1_556 S
H465 C449 0.961 1_556 S
H466 C450 0.931 . S
H467 C455 0.930 . S
H468 C456 0.956 . S
H469 C456 0.961 . S
H470 C456 0.961 . S
H471 C457 0.958 . S
H472 C457 0.961 . S
H473 C457 0.960 . S
C474 C475 1.391 . S
C474 C476 1.394 . S
C474 H490 0.931 . S
C475 C474 1.391 . S
C475 C479 1.376 . S
C476 C474 1.394 . S
C476 C477 1.369 . S
C476 C480 1.531 . S
C477 C476 1.369 . S
C477 C478 1.410 . S
C477 C485 1.503 . S
C478 C477 1.410 . S
C478 C479 1.392 . S
C478 C481 1.511 . S
C479 C475 1.376 . S
C479 C478 1.392 . S
C479 H491 0.929 . S
C480 C476 1.531 . S
C480 H492 0.960 . S
C480 H493 0.962 . S
C480 H494 0.960 . S
C481 C478 1.511 . S
C481 H495 0.961 . S
C481 H496 0.961 . S
C481 H497 0.961 . S
C482 C483 1.370 . S
C482 C484 1.363 . S
C482 H498 0.931 . S
C483 C482 1.370 . S
C483 C487 1.408 . S
C484 C482 1.363 . S
C484 C485 1.370 . S
C484 C488 1.524 . S
C485 C477 1.503 . S
C485 C484 1.370 . S
C485 C486 1.403 . S
C486 C485 1.403 . S
C486 C487 1.404 . S
C486 C489 1.539 . S
C487 C483 1.408 . S
C487 C486 1.404 . S
C487 H499 0.930 . S
C488 C484 1.524 . S
C488 H500 0.956 . S
C488 H501 0.961 . S
C488 H502 0.961 . S
C489 C486 1.539 . S
C489 H503 0.958 . S
C489 H504 0.961 . S
C489 H505 0.960 . S
H490 C474 0.931 . S
H491 C479 0.929 . S
H492 C480 0.960 . S
H493 C480 0.962 . S
H494 C480 0.960 . S
H495 C481 0.961 . S
H496 C481 0.961 . S
H497 C481 0.961 . S
H498 C482 0.931 . S
H499 C487 0.930 . S
H500 C488 0.956 . S
H501 C488 0.961 . S
H502 C488 0.961 . S
H503 C489 0.958 . S
H504 C489 0.961 . S
H505 C489 0.960 . S
C506 C507 1.391 . S
C506 C508 1.394 . S
C506 H522 0.931 . S
C507 C506 1.391 . S
C507 C511 1.376 . S
C508 C506 1.394 . S
C508 C509 1.369 . S
C508 C512 1.531 . S
C509 C508 1.369 . S
C509 C510 1.410 . S
C509 C517 1.503 . S
C510 C509 1.410 . S
C510 C511 1.392 . S
C510 C513 1.511 . S
C511 C507 1.376 . S
C511 C510 1.392 . S
C511 H523 0.929 . S
C512 C508 1.531 . S
C512 H524 0.960 . S
C512 H525 0.962 . S
C512 H526 0.960 . S
C513 C510 1.511 . S
C513 H527 0.961 . S
C513 H528 0.961 . S
C513 H529 0.961 . S
C514 C515 1.370 . S
C514 C516 1.363 . S
C514 H530 0.931 . S
C515 C514 1.370 . S
C515 C519 1.408 . S
C516 C514 1.363 . S
C516 C517 1.370 . S
C516 C520 1.524 . S
C517 C509 1.503 . S
C517 C516 1.370 . S
C517 C518 1.403 . S
C518 C517 1.403 . S
C518 C519 1.404 . S
C518 C521 1.539 . S
C519 C515 1.408 . S
C519 C518 1.404 . S
C519 H531 0.930 . S
C520 C516 1.524 . S
C520 H532 0.956 . S
C520 H533 0.961 . S
C520 H534 0.961 . S
C521 C518 1.539 . S
C521 H535 0.958 . S
C521 H536 0.961 . S
C521 H537 0.960 . S
H522 C506 0.931 . S
H523 C511 0.929 . S
H524 C512 0.960 . S
H525 C512 0.962 . S
H526 C512 0.960 . S
H527 C513 0.961 . S
H528 C513 0.961 . S
H529 C513 0.961 . S
H530 C514 0.931 . S
H531 C519 0.930 . S
H532 C520 0.956 . S
H533 C520 0.961 . S
H534 C520 0.961 . S
H535 C521 0.958 . S
H536 C521 0.961 . S
H537 C521 0.960 . S
C538 C539 1.391 . S
C538 C540 1.394 . S
C538 H554 0.931 . S
C539 C538 1.391 . S
C539 C543 1.376 . S
C540 C538 1.394 . S
C540 C541 1.369 . S
C540 C544 1.531 . S
C541 C540 1.369 . S
C541 C542 1.410 . S
C541 C549 1.503 . S
C542 C541 1.410 . S
C542 C543 1.392 . S
C542 C545 1.511 . S
C543 C539 1.376 . S
C543 C542 1.392 . S
C543 H555 0.929 . S
C544 C540 1.531 . S
C544 H556 0.960 . S
C544 H557 0.962 . S
C544 H558 0.960 . S
C545 C542 1.511 . S
C545 H559 0.961 . S
C545 H560 0.961 . S
C545 H561 0.961 . S
C546 C547 1.370 . S
C546 C548 1.363 . S
C546 H562 0.931 . S
C547 C546 1.370 . S
C547 C551 1.408 . S
C548 C546 1.363 . S
C548 C549 1.370 . S
C548 C552 1.524 . S
C549 C541 1.503 . S
C549 C548 1.370 . S
C549 C550 1.403 . S
C550 C549 1.403 . S
C550 C551 1.404 . S
C550 C553 1.539 . S
C551 C547 1.408 . S
C551 C550 1.404 . S
C551 H563 0.930 1_655 S
C552 C548 1.524 . S
C552 H564 0.956 . S
C552 H565 0.961 . S
C552 H566 0.961 . S
C553 C550 1.539 . S
C553 H567 0.958 . S
C553 H568 0.961 . S
C553 H569 0.960 . S
H554 C538 0.931 . S
H555 C543 0.929 . S
H556 C544 0.960 . S
H557 C544 0.962 . S
H558 C544 0.960 . S
H559 C545 0.961 . S
H560 C545 0.961 . S
H561 C545 0.961 . S
H562 C546 0.931 . S
H563 C551 0.930 1_455 S
H564 C552 0.956 . S
H565 C552 0.961 . S
H566 C552 0.961 . S
H567 C553 0.958 . S
H568 C553 0.961 . S
H569 C553 0.960 . S
C570 C571 1.391 . S
C570 C572 1.394 . S
C570 H586 0.931 . S
C571 C570 1.391 . S
C571 C575 1.376 . S
C572 C570 1.394 . S
C572 C573 1.369 . S
C572 C576 1.531 . S
C573 C572 1.369 . S
C573 C574 1.410 . S
C573 C581 1.503 . S
C574 C573 1.410 . S
C574 C575 1.392 . S
C574 C577 1.511 . S
C575 C571 1.376 . S
C575 C574 1.392 . S
C575 H587 0.929 . S
C576 C572 1.531 . S
C576 H588 0.960 . S
C576 H589 0.962 . S
C576 H590 0.960 . S
C577 C574 1.511 . S
C577 H591 0.961 . S
C577 H592 0.961 . S
C577 H593 0.961 . S
C578 C579 1.370 . S
C578 C580 1.363 . S
C578 H594 0.931 . S
C579 C578 1.370 . S
C579 C583 1.408 . S
C580 C578 1.363 . S
C580 C581 1.370 . S
C580 C584 1.524 . S
C581 C573 1.503 . S
C581 C580 1.370 . S
C581 C582 1.403 . S
C582 C581 1.403 . S
C582 C583 1.404 . S
C582 C585 1.539 . S
C583 C579 1.408 . S
C583 C582 1.404 . S
C583 H595 0.930 . S
C584 C580 1.524 . S
C584 H596 0.956 . S
C584 H597 0.961 . S
C584 H598 0.961 . S
C585 C582 1.539 . S
C585 H599 0.958 . S
C585 H600 0.961 . S
C585 H601 0.960 . S
H586 C570 0.931 . S
H587 C575 0.929 . S
H588 C576 0.960 . S
H589 C576 0.962 . S
H590 C576 0.960 . S
H591 C577 0.961 . S
H592 C577 0.961 . S
H593 C577 0.961 . S
H594 C578 0.931 . S
H595 C583 0.930 . S
H596 C584 0.956 . S
H597 C584 0.961 . S
H598 C584 0.961 . S
H599 C585 0.958 . S
H600 C585 0.961 . S
H601 C585 0.960 . S
C602 C603 1.391 . S
C602 C604 1.394 . S
C602 H618 0.931 . S
C603 C602 1.391 . S
C603 C607 1.376 . S
C604 C602 1.394 . S
C604 C605 1.369 . S
C604 C608 1.531 . S
C605 C604 1.369 . S
C605 C606 1.410 . S
C605 C613 1.503 . S
C606 C605 1.410 . S
C606 C607 1.392 . S
C606 C609 1.511 . S
C607 C603 1.376 . S
C607 C606 1.392 . S
C607 H619 0.929 . S
C608 C604 1.531 . S
C608 H620 0.960 . S
C608 H621 0.962 . S
C608 H622 0.960 . S
C609 C606 1.511 . S
C609 H623 0.961 . S
C609 H624 0.961 . S
C609 H625 0.961 . S
C610 C611 1.370 . S
C610 C612 1.363 . S
C610 H626 0.931 . S
C611 C610 1.370 . S
C611 C615 1.408 . S
C612 C610 1.363 . S
C612 C613 1.370 . S
C612 C616 1.524 . S
C613 C605 1.503 . S
C613 C612 1.370 . S
C613 C614 1.403 . S
C614 C613 1.403 . S
C614 C615 1.404 . S
C614 C617 1.539 . S
C615 C611 1.408 . S
C615 C614 1.404 . S
C615 H627 0.930 . S
C616 C612 1.524 . S
C616 H628 0.956 . S
C616 H629 0.961 . S
C616 H630 0.961 . S
C617 C614 1.539 . S
C617 H631 0.958 . S
C617 H632 0.961 . S
C617 H633 0.960 . S
H618 C602 0.931 . S
H619 C607 0.929 . S
H620 C608 0.960 . S
H621 C608 0.962 . S
H622 C608 0.960 . S
H623 C609 0.961 . S
H624 C609 0.961 . S
H625 C609 0.961 . S
H626 C610 0.931 . S
H627 C615 0.930 . S
H628 C616 0.956 . S
H629 C616 0.961 . S
H630 C616 0.961 . S
H631 C617 0.958 . S
H632 C617 0.961 . S
H633 C617 0.960 . S
C634 C635 1.391 . S
C634 C636 1.394 . S
C634 H650 0.931 . S
C635 C634 1.391 . S
C635 C639 1.376 . S
C636 C634 1.394 . S
C636 C637 1.369 . S
C636 C640 1.531 . S
C637 C636 1.369 . S
C637 C638 1.410 . S
C637 C645 1.503 . S
C638 C637 1.410 . S
C638 C639 1.392 . S
C638 C641 1.511 . S
C639 C635 1.376 . S
C639 C638 1.392 . S
C639 H651 0.929 . S
C640 C636 1.531 . S
C640 H652 0.960 . S
C640 H653 0.962 . S
C640 H654 0.960 . S
C641 C638 1.511 . S
C641 H655 0.961 . S
C641 H656 0.961 . S
C641 H657 0.961 . S
C642 C643 1.370 . S
C642 C644 1.363 . S
C642 H658 0.931 . S
C643 C642 1.370 . S
C643 C647 1.408 . S
C644 C642 1.363 . S
C644 C645 1.370 . S
C644 C648 1.524 . S
C645 C637 1.503 . S
C645 C644 1.370 . S
C645 C646 1.403 . S
C646 C645 1.403 . S
C646 C647 1.404 . S
C646 C649 1.539 . S
C647 C643 1.408 . S
C647 C646 1.404 . S
C647 H659 0.930 . S
C648 C644 1.524 . S
C648 H660 0.956 . S
C648 H661 0.961 . S
C648 H662 0.961 . S
C649 C646 1.539 . S
C649 H663 0.958 . S
C649 H664 0.961 . S
C649 H665 0.960 . S
H650 C634 0.931 . S
H651 C639 0.929 . S
H652 C640 0.960 . S
H653 C640 0.962 . S
H654 C640 0.960 . S
H655 C641 0.961 . S
H656 C641 0.961 . S
H657 C641 0.961 . S
H658 C642 0.931 . S
H659 C647 0.930 . S
H660 C648 0.956 . S
H661 C648 0.961 . S
H662 C648 0.961 . S
H663 C649 0.958 . S
H664 C649 0.961 . S
H665 C649 0.960 . S
C291 C247 1.452 . S
C283 C1 1.532 . S
C323 C243 1.458 . S
C315 C91 1.492 . S
C355 C268 1.452 . S
C347 C121 1.534 . S
C379 C211 1.425 . S
C387 C264 1.428 . S
C411 C20 1.216 . S
C419 C265 1.081 . S
C451 C280 1.113 . S
C443 C80 1.217 . S
C475 C31 1.697 . S
C483 C281 1.551 . S
C515 C277 1.588 . S
C507 C61 1.634 . S
C547 C244 1.044 1_655 S
C539 C140 1.205 . S
C571 C200 1.184 . S
C579 C259 1.119 . S
C611 C260 1.543 . S
C603 C151 1.701 . S
C643 C256 1.591 . S
C635 C181 1.627 . S
