# Generated by pormake.
# Topology rtl, (3,6)-cn, num edge types: 1
# Building blocks:
#     Node 0, Type 0, BuildingBlock: QEWDON_clean_linker_0, # of connection points: 3
#     Node 1, Type 0, BuildingBlock: QEWDON_clean_linker_0, # of connection points: 3
#     Node 2, Type 0, BuildingBlock: QEWDON_clean_linker_0, # of connection points: 3
#     Node 3, Type 0, BuildingBlock: QEWDON_clean_linker_0, # of connection points: 3
#     Node 4, Type 1, BuildingBlock: FUNLAD_clean_sbu_0, # of connection points: 6
#     Node 5, Type 1, BuildingBlock: FUNLAD_clean_sbu_0, # of connection points: 6
#     Edge 6, Type (0, 1), BuildingBlock: FUNLAD_clean_linker_0, # of connection points: 2
#     Edge 7, Type (0, 1), BuildingBlock: FUNLAD_clean_linker_0, # of connection points: 2
#     Edge 8, Type (0, 1), BuildingBlock: FUNLAD_clean_linker_0, # of connection points: 2
#     Edge 9, Type (0, 1), BuildingBlock: FUNLAD_clean_linker_0, # of connection points: 2
#     Edge 10, Type (0, 1), BuildingBlock: FUNLAD_clean_linker_0, # of connection points: 2
#     Edge 11, Type (0, 1), BuildingBlock: FUNLAD_clean_linker_0, # of connection points: 2
#     Edge 12, Type (0, 1), BuildingBlock: FUNLAD_clean_linker_0, # of connection points: 2
#     Edge 13, Type (0, 1), BuildingBlock: FUNLAD_clean_linker_0, # of connection points: 2
#     Edge 14, Type (0, 1), BuildingBlock: FUNLAD_clean_linker_0, # of connection points: 2
#     Edge 15, Type (0, 1), BuildingBlock: FUNLAD_clean_linker_0, # of connection points: 2
#     Edge 16, Type (0, 1), BuildingBlock: FUNLAD_clean_linker_0, # of connection points: 2
#     Edge 17, Type (0, 1), BuildingBlock: FUNLAD_clean_linker_0, # of connection points: 2
# Relax obj value: 0.016
# Max RMSD: 0.104
# Mean RMSD: 0.084
data_MOF--net-rtl--node1-FUNLAD_clean_sbu_0--node2-QEWDON_clean_linker_0--edge1-FUNLAD_clean_linker_0
_symmetry_space_group_name_H-M    P1
_symmetry_Int_Tables_number       1
_symmetry_cell_setting            triclinic
loop_
_symmetry_equiv_pos_as_xyz
'x, y, z'
_cell_length_a     48.124974
_cell_length_b     48.017384
_cell_length_c     24.123277
_cell_angle_alpha  91.498155
_cell_angle_beta   92.511605
_cell_angle_gamma 89.913824
loop_
_atom_site_label
_atom_site_type_symbol
_atom_site_fract_x
_atom_site_fract_y
_atom_site_fract_z
_atom_type_partial_charge
H0 H 0.20971 0.85499 0.08291 0.0
C1 C 0.19904 0.86176 0.04509 0.0
C2 C 0.17142 0.87128 0.04652 0.0
C3 C 0.21338 0.86252 0.99556 0.0
H4 H 0.13726 0.88943 -0.0007 0.0
C5 C 0.15824 0.88124 -0.00204 0.0
C6 C 0.17242 0.88257 0.94861 0.0
C7 C 0.19985 0.87277 0.94738 0.0
C8 C 0.2435 0.85621 0.99562 0.0
H9 H 0.21116 0.8744 0.9097 0.0
C10 C 0.25404 0.83016 0.01204 0.0
C11 C 0.28288 0.8249 0.0124 0.0
C12 C 0.26197 0.87684 0.97957 0.0
H13 H 0.25431 0.89706 0.96709 0.0
C14 C 0.29049 0.87175 0.9803 0.0
H15 H 0.23991 0.81412 0.02431 0.0
C16 C 0.30093 0.84601 -0.00334 0.0
H17 H 0.32315 0.84242 -0.00388 0.0
H18 H 0.30456 0.8878 0.96802 0.0
H19 H 0.70955 0.68299 0.45928 0.0
C20 C 0.69639 0.67974 0.49388 0.0
C21 C 0.66903 0.66996 0.48411 0.0
C22 C 0.70718 0.68409 0.54846 0.0
H23 H 0.6319 0.65622 0.52196 0.0
C24 C 0.6525 0.66501 0.52943 0.0
C25 C 0.66306 0.66906 0.5842 0.0
C26 C 0.69042 0.67882 0.59325 0.0
C27 C 0.7368 0.69127 0.55954 0.0
H28 H 0.69895 0.68193 0.6353 0.0
C29 C 0.74788 0.71664 0.54254 0.0
C30 C 0.77566 0.72383 0.55744 0.0
C31 C 0.75388 0.67281 0.58977 0.0
H32 H 0.74573 0.65316 0.60305 0.0
C33 C 0.78156 0.6795 0.60313 0.0
H34 H 0.73463 0.73115 0.52 0.0
C35 C 0.79238 0.70487 0.58739 0.0
H36 H 0.81391 0.70967 0.59864 0.0
H37 H 0.7946 0.6651 0.62625 0.0
H38 H 0.81614 0.19196 0.06591 0.0
C39 C 0.82804 0.18687 0.02989 0.0
C40 C 0.85553 0.17721 0.03702 0.0
C41 C 0.81543 0.18852 0.97639 0.0
H42 H 0.89139 0.16169 0.99562 0.0
C43 C 0.87039 0.16968 0.99016 0.0
C44 C 0.85794 0.17072 0.93658 0.0
C45 C 0.83052 0.18049 0.92996 0.0
C46 C 0.78549 0.1952 0.96919 0.0
H47 H 0.82044 0.18071 0.88888 0.0
C48 C 0.77467 0.22074 0.98867 0.0
C49 C 0.74596 0.22635 0.9821 0.0
C50 C 0.76746 0.17545 0.94307 0.0
H51 H 0.77536 0.15564 0.92801 0.0
C52 C 0.73905 0.18086 0.93696 0.0
H53 H 0.78848 0.23612 0.00867 0.0
C54 C 0.72832 0.20609 0.95641 0.0
H55 H 0.70622 0.20997 0.95048 0.0
H56 H 0.7253 0.16547 0.91697 0.0
H57 H 0.33873 0.32258 0.58908 0.0
C58 C 0.34616 0.33313 0.5534 0.0
C59 C 0.35631 0.36051 0.55955 0.0
C60 C 0.34703 0.31881 0.50194 0.0
H61 H 0.37561 0.39431 0.5185 0.0
C62 C 0.36696 0.3735 0.51361 0.0
C63 C 0.36833 0.35931 0.4623 0.0
C64 C 0.35805 0.33202 0.45644 0.0
C65 C 0.34015 0.28888 0.49782 0.0
H66 H 0.35985 0.32058 0.4174 0.0
C67 C 0.3126 0.27953 0.50125 0.0
C68 C 0.30668 0.25079 0.49901 0.0
C69 C 0.36165 0.26942 0.49178 0.0
H70 H 0.38298 0.27629 0.48917 0.0
C71 C 0.35588 0.24096 0.49004 0.0
H72 H 0.29592 0.29452 0.50569 0.0
C73 C 0.3286 0.23164 0.49382 0.0
H74 H 0.32454 0.20945 0.49161 0.0
H75 H 0.37259 0.22606 0.48564 0.0
C76 C 0.03828 0.99224 0.39851 0.0
N77 N 0.05392 0.0674 0.48826 0.0
C78 C 0.0811 0.06045 0.48248 0.0
C79 C 0.10168 0.08094 0.48555 0.0
C80 C 0.09436 0.10883 0.49576 0.0
C81 C 0.06625 0.11549 0.50209 0.0
C82 C 0.04621 0.09436 0.49762 0.0
Zn83 Zn 0.02477 0.03606 0.48397 0.0
C84 C 0.97757 0.04785 0.40365 0.0
N85 N 0.96519 0.96957 0.47522 0.0
C86 C 0.97489 0.94297 0.47207 0.0
C87 C 0.93758 0.97486 0.47994 0.0
C88 C 0.91869 0.95291 0.48367 0.0
C89 C 0.92833 0.92525 0.48256 0.0
C90 C 0.95679 0.92048 0.47545 0.0
Zn91 Zn 0.99366 1.00147 0.47818 0.0
O92 O 0.04654 0.01536 0.42016 0.0
C93 C 0.04082 0.98995 0.55885 0.0
O94 O 0.01584 0.9816 0.41405 0.0
H95 H 0.93028 0.99615 0.48246 0.0
H96 H 0.08694 0.03891 0.47589 0.0
H97 H 0.99689 0.93914 0.46836 0.0
O98 O 0.04857 0.01384 0.54412 0.0
O99 O 0.01829 0.97969 0.53788 0.0
H100 H 0.02451 0.09951 0.50191 0.0
O101 O 0.97218 0.0217 0.54281 0.0
O102 O 1.00246 0.05591 0.54785 0.0
O103 O 0.96953 0.02405 0.41864 0.0
O104 O 1.00042 0.05781 0.42395 0.0
C105 C 0.98048 0.04479 0.56457 0.0
H106 H 0.12321 0.07497 0.48115 0.0
H107 H 0.05985 0.13682 0.50985 0.0
H108 H 0.89699 0.9576 0.48956 0.0
H109 H 0.96511 0.89953 0.47339 0.0
C110 C 0.4773 0.48945 0.93866 0.0
N111 N 0.55272 0.47275 0.02662 0.0
C112 C 0.54352 0.44597 0.02671 0.0
C113 C 0.56235 0.42392 0.03036 0.0
C114 C 0.59108 0.42928 0.03424 0.0
C115 C 0.60005 0.45713 0.03355 0.0
C116 C 0.58042 0.47865 0.02974 0.0
Zn117 Zn 0.52336 0.50386 0.02263 0.0
C118 C 0.53595 0.54659 0.94102 0.0
N119 N 0.46032 0.567 0.01478 0.0
C120 C 0.43281 0.56029 0.01322 0.0
C121 C 0.46873 0.59405 0.01591 0.0
C122 C 0.44922 0.6156 0.01624 0.0
C123 C 0.42068 0.60936 0.01538 0.0
C124 C 0.41256 0.58123 0.01339 0.0
Zn125 Zn 0.48995 0.5362 0.01784 0.0
O126 O 0.50023 0.48075 0.96002 0.0
C127 C 0.47754 0.49299 0.09899 0.0
O128 O 0.46793 0.51299 0.95439 0.0
H129 H 0.49067 0.59897 0.01698 0.0
H130 H 0.52146 0.44164 0.02406 0.0
H131 H 0.42654 0.53866 0.0125 0.0
O132 O 0.50098 0.4841 0.08389 0.0
O133 O 0.46753 0.51511 0.07819 0.0
H134 H 0.58731 0.50008 0.02966 0.0
O135 O 0.51237 0.5588 0.08174 0.0
O136 O 0.54582 0.52769 0.08519 0.0
O137 O 0.51308 0.55659 0.9572 0.0
O138 O 0.54515 0.52402 0.96127 0.0
C139 C 0.53567 0.55065 0.10232 0.0
H140 H 0.5544 0.40282 0.0296 0.0
H141 H 0.62197 0.46228 0.03682 0.0
H142 H 0.45645 0.63696 0.01684 0.0
H143 H 0.39082 0.57544 0.01314 0.0
C144 C 0.27106 0.21935 0.53665 0.0
C145 C 0.27775 0.24039 0.50014 0.0
C146 C 0.24471 0.20707 0.53342 0.0
C147 C 0.22459 0.2154 0.4931 0.0
C148 C 0.23112 0.23688 0.45743 0.0
C149 C 0.25735 0.24951 0.46134 0.0
C150 C 0.1979 0.20012 0.4838 0.0
C151 C 0.18478 0.18774 0.52475 0.0
C152 C 0.16025 0.16932 0.5142 0.0
C153 C 0.14028 0.16748 0.55467 0.0
C154 C 0.11822 0.14856 0.54773 0.0
C155 C 0.11618 0.1306 0.50083 0.0
H156 H 0.17316 0.15218 0.43517 0.0
C157 C 0.13604 0.13254 0.46013 0.0
C158 C 0.15776 0.15181 0.46654 0.0
H159 H 0.13492 0.1189 0.42362 0.0
H160 H 0.28649 0.21192 0.56681 0.0
H161 H 0.24066 0.19015 0.56073 0.0
H162 H 0.21608 0.24349 0.4257 0.0
H163 H 0.26213 0.26549 0.43233 0.0
H164 H 0.18888 0.19893 0.44169 0.0
H165 H 0.19218 0.19118 0.56759 0.0
H166 H 0.14191 0.18051 0.59202 0.0
H167 H 0.10332 0.14727 0.57995 0.0
C168 C 0.2844 0.77275 0.00153 0.0
C169 C 0.29459 0.79741 0.02762 0.0
C170 C 0.29806 0.74734 0.0104 0.0
C171 C 0.32206 0.74619 0.0459 0.0
C172 C 0.33112 0.77061 0.07437 0.0
C173 C 0.31772 0.79597 0.06499 0.0
C174 C 0.33881 0.72037 0.05338 0.0
C175 C 0.34059 0.70008 0.01392 0.0
C176 C 0.36059 0.67637 0.01782 0.0
C177 C 0.35577 0.65249 0.98386 0.0
C178 C 0.37496 0.63055 0.98363 0.0
C179 C 0.39964 0.63211 0.01699 0.0
H180 H 0.39036 0.69605 0.07713 0.0
C181 C 0.40441 0.65592 0.05123 0.0
C182 C 0.38523 0.6778 0.05155 0.0
H183 H 0.42309 0.65772 0.0778 0.0
H184 H 0.26656 0.77331 0.97259 0.0
H185 H 0.28991 0.72881 0.98904 0.0
H186 H 0.34932 0.7703 0.10244 0.0
H187 H 0.32582 0.81463 0.08611 0.0
H188 H 0.35163 0.71923 0.09138 0.0
H189 H 0.32763 0.70119 0.97605 0.0
H190 H 0.33718 0.6509 0.95694 0.0
H191 H 0.37078 0.61267 0.95626 0.0
C192 C 0.80273 0.76674 0.58485 0.0
C193 C 0.78742 0.75127 0.54384 0.0
C194 C 0.81621 0.79126 0.57179 0.0
C195 C 0.81507 0.80076 0.51703 0.0
C196 C 0.79847 0.78614 0.47664 0.0
C197 C 0.78476 0.76158 0.48988 0.0
C198 C 0.83129 0.82552 0.50109 0.0
C199 C 0.85559 0.83279 0.52762 0.0
C200 C 0.87351 0.8566 0.51325 0.0
C201 C 0.90079 0.85757 0.53631 0.0
C202 C 0.91846 0.87965 0.52591 0.0
C203 C 0.90933 0.90154 0.49212 0.0
H204 H 0.84318 0.879 0.46173 0.0
C205 C 0.88195 0.90078 0.46907 0.0
C206 C 0.86419 0.87855 0.47949 0.0
H207 H 0.87428 0.9173 0.44278 0.0
H208 H 0.80449 0.75971 0.62718 0.0
H209 H 0.82761 0.80259 0.6048 0.0
H210 H 0.79685 0.79321 0.43434 0.0
H211 H 0.77298 0.75013 0.45751 0.0
H212 H 0.82391 0.83665 0.46476 0.0
H213 H 0.86372 0.81978 0.56075 0.0
H214 H 0.90854 0.84118 0.56291 0.0
H215 H 0.93916 0.8798 0.54539 0.0
C216 C 0.71012 0.25398 0.03156 0.0
C217 C 0.73404 0.25341 0.0003 0.0
C218 C 0.69655 0.2791 0.04288 0.0
C219 C 0.7063 0.3043 0.02213 0.0
C220 C 0.73114 0.30382 0.99344 0.0
C221 C 0.74491 0.27864 0.98269 0.0
C222 C 0.69087 0.33121 0.02792 0.0
C223 C 0.66383 0.33284 0.0404 0.0
C224 C 0.64732 0.35909 0.04197 0.0
C225 C 0.62296 0.35956 0.07191 0.0
C226 C 0.60527 0.38262 0.0707 0.0
C227 C 0.61127 0.4058 0.03886 0.0
H228 H 0.67206 0.38285 0.98655 0.0
C229 C 0.63604 0.40571 0.0099 0.0
C230 C 0.65387 0.38259 0.01131 0.0
H231 H 0.64114 0.42306 0.98442 0.0
H232 H 0.70162 0.23484 0.04654 0.0
H233 H 0.67835 0.27834 0.06745 0.0
H234 H 0.73942 0.32285 0.97756 0.0
H235 H 0.76333 0.27877 0.95844 0.0
H236 H 0.702 0.35015 0.01928 0.0
H237 H 0.65257 0.31405 0.04917 0.0
H238 H 0.61736 0.3418 0.09588 0.0
H239 H 0.5867 0.38214 0.09442 0.0
C240 C 0.16947 0.89083 0.14325 0.0
C241 C 0.15711 0.87479 0.09937 0.0
C242 C 0.15372 0.89988 0.18766 0.0
C243 C 0.12536 0.89289 0.18897 0.0
C244 C 0.11374 0.87487 0.14752 0.0
C245 C 0.12938 0.86613 0.10279 0.0
C246 C 0.107 0.90523 0.23106 0.0
C247 C 0.11007 0.93176 0.25017 0.0
C248 C 0.09078 0.94654 0.28778 0.0
C249 C 0.0985 0.97309 0.30894 0.0
C250 C 0.08123 0.98813 0.34389 0.0
C251 C 0.05566 0.97703 0.35853 0.0
H252 H 0.05765 0.91552 0.28593 0.0
C253 C 0.04763 0.95065 0.33686 0.0
C254 C 0.06492 0.93557 0.30181 0.0
H255 H 0.02805 0.94149 0.34733 0.0
H256 H 0.19079 0.89787 0.1415 0.0
H257 H 0.16357 0.91298 0.22 0.0
H258 H 0.09206 0.86887 0.148 0.0
H259 H 0.11943 0.85367 0.0695 0.0
H260 H 0.08949 0.8928 0.24247 0.0
H261 H 0.12738 0.94385 0.23621 0.0
H262 H 0.11813 0.98224 0.29869 0.0
H263 H 0.08813 1.00836 0.35991 0.0
C264 C 0.65872 0.64585 0.67554 0.0
C265 C 0.6463 0.6606 0.63136 0.0
C266 C 0.6426 0.6355 0.71716 0.0
C267 C 0.61356 0.63937 0.71524 0.0
C268 C 0.60136 0.65522 0.67254 0.0
C269 C 0.6175 0.66563 0.63095 0.0
C270 C 0.5954 0.62705 0.75659 0.0
C271 C 0.60228 0.60378 0.78423 0.0
C272 C 0.58424 0.5898 0.8238 0.0
C273 C 0.59203 0.56317 0.84165 0.0
C274 C 0.57624 0.54912 0.87922 0.0
C275 C 0.55215 0.56133 0.9 0.0
H276 H 0.55351 0.62279 0.8334 0.0
C277 C 0.54421 0.58796 0.88227 0.0
C278 C 0.56012 0.60213 0.8448 0.0
H279 H 0.52588 0.59805 0.89791 0.0
H280 H 0.68082 0.64149 0.67714 0.0
H281 H 0.65304 0.62437 0.75047 0.0
H282 H 0.57913 0.65894 0.67049 0.0
H283 H 0.60735 0.67733 0.59804 0.0
H284 H 0.57513 0.63649 0.7611 0.0
H285 H 0.62178 0.59345 0.77578 0.0
H286 H 0.6105 0.55313 0.82652 0.0
H287 H 0.58301 0.52866 0.89206 0.0
C288 C 0.85404 0.15429 0.12875 0.0
C289 C 0.86801 0.17144 0.09279 0.0
C290 C 0.86789 0.14404 0.17619 0.0
C291 C 0.89595 0.1509 0.18855 0.0
C292 C 0.90916 0.16975 0.15486 0.0
C293 C 0.89543 0.17971 0.10711 0.0
C294 C 0.91244 0.13788 0.23454 0.0
C295 C 0.90846 0.11128 0.24908 0.0
C296 C 0.92653 0.09603 0.29001 0.0
C297 C 0.91763 0.06988 0.30716 0.0
C298 C 0.93418 0.05417 0.34377 0.0
C299 C 0.96017 0.06422 0.3641 0.0
H300 H 0.96089 0.12566 0.29755 0.0
C301 C 0.96919 0.09034 0.34698 0.0
C302 C 0.95267 0.10604 0.31028 0.0
H303 H 0.98916 0.09868 0.36172 0.0
H304 H 0.83292 0.14753 0.11858 0.0
H305 H 0.85679 0.13028 0.20232 0.0
H306 H 0.93063 0.17567 0.16388 0.0
H307 H 0.9066 0.19304 0.08018 0.0
H308 H 0.92951 0.15 0.25329 0.0
H309 H 0.89154 0.09949 0.22855 0.0
H310 H 0.89774 0.06147 0.29207 0.0
H311 H 0.92655 0.03416 0.35617 0.0
C312 C 0.37397 0.3614 0.65855 0.0
C313 C 0.35956 0.37465 0.61475 0.0
C314 C 0.38262 0.37658 0.70647 0.0
C315 C 0.37691 0.40528 0.71139 0.0
C316 C 0.36048 0.41789 0.66961 0.0
C317 C 0.3521 0.4028 0.62147 0.0
C318 C 0.38908 0.42296 0.75769 0.0
C319 C 0.41486 0.41842 0.77987 0.0
C320 C 0.42983 0.43722 0.82132 0.0
C321 C 0.45551 0.42826 0.84444 0.0
C322 C 0.471 0.44526 0.88208 0.0
C323 C 0.46121 0.4718 0.89754 0.0
H324 H 0.40072 0.4721 0.81956 0.0
C325 C 0.43557 0.48092 0.87444 0.0
C326 C 0.42006 0.4639 0.83669 0.0
H327 H 0.42743 0.50127 0.88548 0.0
H328 H 0.38005 0.33974 0.65438 0.0
H329 H 0.39444 0.36599 0.73881 0.0
H330 H 0.35546 0.43987 0.67277 0.0
H331 H 0.34084 0.41343 0.58839 0.0
H332 H 0.37737 0.44125 0.76976 0.0
H333 H 0.42632 0.40034 0.76533 0.0
H334 H 0.46373 0.40794 0.83331 0.0
H335 H 0.49063 0.43752 0.89918 0.0
C336 C 0.63108 0.66926 0.40978 0.0
C337 C 0.65821 0.66185 0.42748 0.0
C338 C 0.61892 0.6577 0.36084 0.0
C339 C 0.63353 0.63804 0.3289 0.0
C340 C 0.66133 0.63216 0.34473 0.0
C341 C 0.67357 0.64391 0.39356 0.0
C342 C 0.62031 0.62251 0.28035 0.0
C343 C 0.59257 0.61899 0.27302 0.0
C344 C 0.57915 0.6017 0.2274 0.0
C345 C 0.55161 0.60772 0.2103 0.0
C346 C 0.53763 0.59127 0.16948 0.0
C347 C 0.55074 0.56804 0.14538 0.0
H348 H 0.61333 0.57269 0.21647 0.0
C349 C 0.57829 0.56182 0.16269 0.0
C350 C 0.5924 0.5785 0.20324 0.0
H351 H 0.58895 0.54404 0.14501 0.0
H352 H 0.61896 0.68344 0.43474 0.0
H353 H 0.59796 0.66396 0.34899 0.0
H354 H 0.67325 0.61744 0.32059 0.0
H355 H 0.69449 0.63773 0.40633 0.0
H356 H 0.63404 0.6125 0.25135 0.0
H357 H 0.57867 0.6289 0.30172 0.0
H358 H 0.54082 0.62528 0.2286 0.0
H359 H 0.5164 0.59663 0.15724 0.0
C360 C 0.88672 0.13347 0.89278 0.0
C361 C 0.87277 0.15911 0.88848 0.0
C362 C 0.90059 0.12212 0.84791 0.0
C363 C 0.90072 0.13608 0.79739 0.0
C364 C 0.8871 0.16189 0.79322 0.0
C365 C 0.87301 0.1732 0.83817 0.0
C366 C 0.91564 0.12452 0.74928 0.0
C367 C 0.91871 0.09691 0.73994 0.0
C368 C 0.93424 0.08463 0.69337 0.0
C369 C 0.92766 0.05746 0.67435 0.0
C370 C 0.9425 0.04464 0.63223 0.0
C371 C 0.9646 0.05858 0.60874 0.0
H372 H 0.9625 0.11933 0.68443 0.0
C373 C 0.97134 0.08575 0.62796 0.0
C374 C 0.95631 0.09867 0.66981 0.0
H375 H 0.98831 0.09702 0.61081 0.0
H376 H 0.88672 0.12198 0.93083 0.0
H377 H 0.91153 0.10261 0.85334 0.0
H378 H 0.88714 0.17321 0.75496 0.0
H379 H 0.8626 0.19309 0.83384 0.0
H380 H 0.92327 0.13911 0.71985 0.0
H381 H 0.90856 0.08244 0.76641 0.0
H382 H 0.91094 0.04608 0.69213 0.0
H383 H 0.93681 0.02368 0.61851 0.0
C384 C 0.37071 0.3747 0.36383 0.0
C385 C 0.3832 0.37226 0.41718 0.0
C386 C 0.38467 0.38833 0.32257 0.0
C387 C 0.41148 0.39939 0.33405 0.0
C388 C 0.42418 0.39601 0.38686 0.0
C389 C 0.41013 0.38282 0.42812 0.0
C390 C 0.42719 0.41404 0.29204 0.0
C391 C 0.41502 0.42914 0.25143 0.0
C392 C 0.43136 0.44524 0.21234 0.0
C393 C 0.41984 0.46945 0.18932 0.0
C394 C 0.43491 0.48527 0.15309 0.0
C395 C 0.46174 0.47697 0.1387 0.0
H396 H 0.46729 0.41774 0.21263 0.0
C397 C 0.47307 0.45249 0.16107 0.0
C398 C 0.45805 0.43676 0.19729 0.0
H399 H 0.49352 0.44526 0.15026 0.0
H400 H 0.35001 0.36655 0.35444 0.0
H401 H 0.37459 0.38993 0.28178 0.0
H402 H 0.44491 0.40402 0.39658 0.0
H403 H 0.42035 0.38082 0.46874 0.0
H404 H 0.4497 0.41414 0.29776 0.0
H405 H 0.39254 0.43139 0.24909 0.0
H406 H 0.39922 0.47632 0.19985 0.0
H407 H 0.42548 0.50388 0.13616 0.0
C408 C 0.15879 0.88484 0.84698 0.0
C409 C 0.15942 0.89702 0.90057 0.0
C410 C 0.14588 0.89866 0.80235 0.0
C411 C 0.13369 0.92505 0.81069 0.0
C412 C 0.13509 0.93743 0.86401 0.0
C413 C 0.1476 0.92351 0.90853 0.0
C414 C 0.11976 0.94062 0.76497 0.0
C415 C 0.10639 0.92817 0.72084 0.0
C416 C 0.09036 0.94417 0.67833 0.0
C417 C 0.06694 0.93186 0.65105 0.0
C418 C 0.05078 0.94673 0.61237 0.0
C419 C 0.05797 0.97413 0.5996 0.0
H420 H 0.11632 0.98123 0.68357 0.0
C421 C 0.08186 0.98619 0.6258 0.0
C422 C 0.0979 0.97137 0.66469 0.0
H423 H 0.08816 1.00713 0.61642 0.0
H424 H 0.16795 0.86451 0.8398 0.0
H425 H 0.14581 0.88884 0.76145 0.0
H426 H 0.12613 0.95784 0.87145 0.0
H427 H 0.14825 0.9336 0.94928 0.0
H428 H 0.11853 0.96311 0.77045 0.0
H429 H 0.10517 0.90558 0.71809 0.0
H430 H 0.06082 0.91086 0.66043 0.0
H431 H 0.03265 0.93673 0.59253 0.0
loop_
_geom_bond_atom_site_label_1
_geom_bond_atom_site_label_2
_geom_bond_distance
_geom_bond_site_symmetry_2
_ccdc_geom_bond_type
H0 C1 0.949 . S
C1 H0 0.949 . S
C1 C2 1.395 . S
C1 C3 1.383 1_554 S
C2 C1 1.395 . S
C2 C5 1.390 . S
C3 C1 1.383 1_556 S
C3 C7 1.394 . S
C3 C8 1.492 . S
H4 C5 0.950 . S
C5 C2 1.390 . S
C5 H4 0.950 . S
C5 C6 1.378 1_554 S
C6 C5 1.378 1_556 S
C6 C7 1.409 . S
C7 C3 1.394 . S
C7 C6 1.409 . S
C7 H9 0.951 . S
C8 C3 1.492 . S
C8 C10 1.382 1_556 S
C8 C12 1.404 . S
H9 C7 0.951 . S
C10 C8 1.382 1_554 S
C10 C11 1.390 . S
C10 H15 0.949 . S
C11 C10 1.390 . S
C11 C16 1.399 1_554 S
C12 C8 1.404 . S
C12 H13 0.950 . S
C12 C14 1.375 . S
H13 C12 0.950 . S
C14 C12 1.375 . S
C14 C16 1.382 . S
C14 H18 0.950 . S
H15 C10 0.949 . S
C16 C11 1.399 1_556 S
C16 C14 1.382 . S
C16 H17 0.952 . S
H17 C16 0.952 . S
H18 C14 0.950 . S
H19 C20 0.949 . S
C20 H19 0.949 . S
C20 C21 1.395 . S
C20 C22 1.391 . S
C21 C20 1.395 . S
C21 C24 1.390 . S
C22 C20 1.391 . S
C22 C26 1.387 . S
C22 C27 1.491 . S
H23 C24 0.950 . S
C24 C21 1.390 . S
C24 H23 0.950 . S
C24 C25 1.378 . S
C25 C24 1.378 . S
C25 C26 1.409 . S
C26 C22 1.387 . S
C26 C25 1.409 . S
C26 H28 0.951 . S
C27 C22 1.491 . S
C27 C29 1.382 . S
C27 C31 1.404 . S
H28 C26 0.951 . S
C29 C27 1.382 . S
C29 C30 1.390 . S
C29 H34 0.949 . S
C30 C29 1.390 . S
C30 C35 1.399 . S
C31 C27 1.404 . S
C31 H32 0.950 . S
C31 C33 1.375 . S
H32 C31 0.950 . S
C33 C31 1.375 . S
C33 C35 1.382 . S
C33 H37 0.950 . S
H34 C29 0.949 . S
C35 C30 1.399 . S
C35 C33 1.382 . S
C35 H36 0.952 . S
H36 C35 0.952 . S
H37 C33 0.950 . S
H38 C39 0.949 . S
C39 H38 0.949 . S
C39 C40 1.395 . S
C39 C41 1.391 1_554 S
C40 C39 1.395 . S
C40 C43 1.390 . S
C41 C39 1.391 1_556 S
C41 C45 1.387 . S
C41 C46 1.491 . S
H42 C43 0.950 . S
C43 C40 1.390 . S
C43 H42 0.950 . S
C43 C44 1.378 1_554 S
C44 C43 1.378 1_556 S
C44 C45 1.409 . S
C45 C41 1.387 . S
C45 C44 1.409 . S
C45 H47 0.951 . S
C46 C41 1.491 . S
C46 C48 1.382 1_556 S
C46 C50 1.404 . S
H47 C45 0.951 . S
C48 C46 1.382 1_554 S
C48 C49 1.390 . S
C48 H53 0.949 . S
C49 C48 1.390 . S
C49 C54 1.399 1_554 S
C50 C46 1.404 . S
C50 H51 0.950 . S
C50 C52 1.375 . S
H51 C50 0.950 . S
C52 C50 1.375 . S
C52 C54 1.382 . S
C52 H56 0.950 . S
H53 C48 0.949 . S
C54 C49 1.399 1_556 S
C54 C52 1.382 . S
C54 H55 0.952 . S
H55 C54 0.952 . S
H56 C52 0.950 . S
H57 C58 0.949 . S
C58 H57 0.949 . S
C58 C59 1.395 . S
C58 C60 1.391 . S
C59 C58 1.395 . S
C59 C62 1.390 . S
C60 C58 1.391 . S
C60 C64 1.387 . S
C60 C65 1.491 . S
H61 C62 0.950 . S
C62 C59 1.390 . S
C62 H61 0.950 . S
C62 C63 1.378 . S
C63 C62 1.378 . S
C63 C64 1.409 . S
C64 C60 1.387 . S
C64 C63 1.409 . S
C64 H66 0.951 . S
C65 C60 1.491 . S
C65 C67 1.382 . S
C65 C69 1.404 . S
H66 C64 0.951 . S
C67 C65 1.382 . S
C67 C68 1.390 . S
C67 H72 0.949 . S
C68 C67 1.390 . S
C68 C73 1.399 . S
C69 C65 1.404 . S
C69 H70 0.950 . S
C69 C71 1.375 . S
H70 C69 0.950 . S
C71 C69 1.375 . S
C71 C73 1.382 . S
C71 H75 0.950 . S
H72 C67 0.949 . S
C73 C68 1.399 . S
C73 C71 1.382 . S
C73 H74 0.952 . S
H74 C73 0.952 . S
H75 C71 0.950 . S
C76 O92 1.251 1_565 S
C76 O94 1.254 . S
N77 C78 1.333 . S
N77 C82 1.307 . S
N77 Zn83 2.020 . S
C78 N77 1.333 . S
C78 C79 1.379 . S
C78 H96 0.952 . S
C79 C78 1.379 . S
C79 C80 1.390 . S
C79 H106 0.949 . S
C80 C79 1.390 . S
C80 C81 1.357 . S
C81 C80 1.357 . S
C81 C82 1.370 . S
C81 H107 0.950 . S
C82 N77 1.307 . S
C82 C81 1.370 . S
C82 H100 0.948 . S
Zn83 N77 2.020 . S
Zn83 O92 2.039 . S
Zn83 O98 2.034 . S
Zn83 O102 2.025 1_455 S
Zn83 O104 2.024 1_455 S
C84 O103 1.246 . S
C84 O104 1.249 . S
N85 C86 1.307 . S
N85 C87 1.333 . S
N85 Zn91 2.020 . S
C86 N85 1.307 . S
C86 C90 1.370 . S
C86 H97 0.948 . S
C87 N85 1.333 . S
C87 C88 1.379 . S
C87 H95 0.952 . S
C88 C87 1.379 . S
C88 C89 1.390 . S
C88 H108 0.949 . S
C89 C88 1.390 . S
C89 C90 1.357 . S
C90 C86 1.370 . S
C90 C89 1.357 . S
C90 H109 0.950 . S
Zn91 N85 2.020 . S
Zn91 O94 2.025 1_655 S
Zn91 O99 2.024 1_655 S
Zn91 O101 2.039 1_565 S
Zn91 O103 2.034 1_565 S
O92 C76 1.251 1_545 S
O92 Zn83 2.039 . S
C93 O98 1.246 1_565 S
C93 O99 1.249 . S
O94 C76 1.254 . S
O94 Zn91 2.025 1_455 S
H95 C87 0.952 . S
H96 C78 0.952 . S
H97 C86 0.948 . S
O98 Zn83 2.034 . S
O98 C93 1.246 1_545 S
O99 Zn91 2.024 1_455 S
O99 C93 1.249 . S
H100 C82 0.948 . S
O101 Zn91 2.039 1_545 S
O101 C105 1.251 . S
O102 Zn83 2.025 1_655 S
O102 C105 1.254 . S
O103 C84 1.246 . S
O103 Zn91 2.034 1_545 S
O104 Zn83 2.024 1_655 S
O104 C84 1.249 . S
C105 O101 1.251 . S
C105 O102 1.254 . S
H106 C79 0.949 . S
H107 C81 0.950 . S
H108 C88 0.949 . S
H109 C90 0.950 . S
C110 O126 1.251 . S
C110 O128 1.254 . S
N111 C112 1.333 . S
N111 C116 1.307 . S
N111 Zn117 2.020 . S
C112 N111 1.333 . S
C112 C113 1.379 . S
C112 H130 0.952 1_554 S
C113 C112 1.379 . S
C113 C114 1.390 . S
C113 H140 0.949 1_554 S
C114 C113 1.390 . S
C114 C115 1.357 . S
C115 C114 1.357 . S
C115 C116 1.370 . S
C115 H141 0.950 . S
C116 N111 1.307 . S
C116 C115 1.370 . S
C116 H134 0.948 . S
Zn117 N111 2.020 . S
Zn117 O126 2.039 1_554 S
Zn117 O132 2.034 . S
Zn117 O136 2.025 . S
Zn117 O138 2.024 1_554 S
C118 O137 1.246 . S
C118 O138 1.249 . S
N119 C120 1.307 . S
N119 C121 1.333 . S
N119 Zn125 2.020 . S
C120 N119 1.307 . S
C120 C124 1.370 . S
C120 H131 0.948 . S
C121 N119 1.333 . S
C121 C122 1.379 . S
C121 H129 0.952 . S
C122 C121 1.379 . S
C122 C123 1.390 . S
C122 H142 0.949 . S
C123 C122 1.390 . S
C123 C124 1.357 . S
C124 C120 1.370 . S
C124 C123 1.357 . S
C124 H143 0.950 . S
Zn125 N119 2.020 . S
Zn125 O128 2.025 1_554 S
Zn125 O133 2.024 . S
Zn125 O135 2.039 . S
Zn125 O137 2.034 1_554 S
O126 C110 1.251 . S
O126 Zn117 2.039 1_556 S
C127 O132 1.246 . S
C127 O133 1.249 . S
O128 C110 1.254 . S
O128 Zn125 2.025 1_556 S
H129 C121 0.952 . S
H130 C112 0.952 1_556 S
H131 C120 0.948 . S
O132 Zn117 2.034 . S
O132 C127 1.246 . S
O133 Zn125 2.024 . S
O133 C127 1.249 . S
H134 C116 0.948 . S
O135 Zn125 2.039 . S
O135 C139 1.251 . S
O136 Zn117 2.025 . S
O136 C139 1.254 . S
O137 C118 1.246 . S
O137 Zn125 2.034 1_556 S
O138 Zn117 2.024 1_556 S
O138 C118 1.249 . S
C139 O135 1.251 . S
C139 O136 1.254 . S
H140 C113 0.949 1_556 S
H141 C115 0.950 . S
H142 C122 0.949 . S
H143 C124 0.950 . S
C144 C145 1.386 . S
C144 C146 1.383 . S
C144 H160 0.951 . S
C145 C144 1.386 . S
C145 C149 1.383 . S
C146 C144 1.383 . S
C146 C147 1.402 . S
C146 H161 0.951 . S
C147 C146 1.402 . S
C147 C148 1.375 . S
C147 C150 1.481 . S
C148 C147 1.375 . S
C148 C149 1.367 . S
C148 H162 0.951 . S
C149 C145 1.383 . S
C149 C148 1.367 . S
C149 H163 0.950 . S
C150 C147 1.481 . S
C150 C151 1.297 . S
C150 H164 0.950 . S
C151 C150 1.297 . S
C151 C152 1.479 . S
C151 H165 0.950 . S
C152 C151 1.479 . S
C152 C153 1.375 . S
C152 C158 1.404 . S
C153 C152 1.375 . S
C153 C154 1.369 . S
C153 H166 0.950 . S
C154 C153 1.369 . S
C154 C155 1.392 . S
C154 H167 0.951 . S
C155 C154 1.392 . S
C155 C157 1.384 . S
H156 C158 0.949 . S
C157 C155 1.384 . S
C157 C158 1.385 . S
C157 H159 0.950 . S
C158 C152 1.404 . S
C158 H156 0.949 . S
C158 C157 1.385 . S
H159 C157 0.950 . S
H160 C144 0.951 . S
H161 C146 0.951 . S
H162 C148 0.951 . S
H163 C149 0.950 . S
H164 C150 0.950 . S
H165 C151 0.950 . S
H166 C153 0.950 . S
H167 C154 0.951 . S
C168 C169 1.386 1_556 S
C168 C170 1.383 . S
C168 H184 0.951 . S
C169 C168 1.386 1_554 S
C169 C173 1.383 . S
C170 C168 1.383 . S
C170 C171 1.402 1_556 S
C170 H185 0.951 . S
C171 C170 1.402 1_554 S
C171 C172 1.375 . S
C171 C174 1.481 . S
C172 C171 1.375 . S
C172 C173 1.367 . S
C172 H186 0.951 . S
C173 C169 1.383 . S
C173 C172 1.367 . S
C173 H187 0.950 . S
C174 C171 1.481 . S
C174 C175 1.297 . S
C174 H188 0.950 . S
C175 C174 1.297 . S
C175 C176 1.479 . S
C175 H189 0.950 1_554 S
C176 C175 1.479 . S
C176 C177 1.375 1_554 S
C176 C182 1.404 . S
C177 C176 1.375 1_556 S
C177 C178 1.369 . S
C177 H190 0.950 . S
C178 C177 1.369 . S
C178 C179 1.392 1_556 S
C178 H191 0.951 . S
C179 C178 1.392 1_554 S
C179 C181 1.384 . S
H180 C182 0.949 . S
C181 C179 1.384 . S
C181 C182 1.385 . S
C181 H183 0.950 . S
C182 C176 1.404 . S
C182 H180 0.949 . S
C182 C181 1.385 . S
H183 C181 0.950 . S
H184 C168 0.951 . S
H185 C170 0.951 . S
H186 C172 0.951 . S
H187 C173 0.950 . S
H188 C174 0.950 . S
H189 C175 0.950 1_556 S
H190 C177 0.950 . S
H191 C178 0.951 . S
C192 C193 1.386 . S
C192 C194 1.383 . S
C192 H208 0.951 . S
C193 C192 1.386 . S
C193 C197 1.383 . S
C194 C192 1.383 . S
C194 C195 1.402 . S
C194 H209 0.951 . S
C195 C194 1.402 . S
C195 C196 1.375 . S
C195 C198 1.481 . S
C196 C195 1.375 . S
C196 C197 1.367 . S
C196 H210 0.951 . S
C197 C193 1.383 . S
C197 C196 1.367 . S
C197 H211 0.950 . S
C198 C195 1.481 . S
C198 C199 1.297 . S
C198 H212 0.950 . S
C199 C198 1.297 . S
C199 C200 1.479 . S
C199 H213 0.950 . S
C200 C199 1.479 . S
C200 C201 1.375 . S
C200 C206 1.404 . S
C201 C200 1.375 . S
C201 C202 1.369 . S
C201 H214 0.950 . S
C202 C201 1.369 . S
C202 C203 1.392 . S
C202 H215 0.951 . S
C203 C202 1.392 . S
C203 C205 1.384 . S
H204 C206 0.949 . S
C205 C203 1.384 . S
C205 C206 1.385 . S
C205 H207 0.950 . S
C206 C200 1.404 . S
C206 H204 0.949 . S
C206 C205 1.385 . S
H207 C205 0.950 . S
H208 C192 0.951 . S
H209 C194 0.951 . S
H210 C196 0.951 . S
H211 C197 0.950 . S
H212 C198 0.950 . S
H213 C199 0.950 . S
H214 C201 0.950 . S
H215 C202 0.951 . S
C216 C217 1.386 . S
C216 C218 1.383 . S
C216 H232 0.951 . S
C217 C216 1.386 . S
C217 C221 1.383 1_554 S
C218 C216 1.383 . S
C218 C219 1.402 . S
C218 H233 0.951 . S
C219 C218 1.402 . S
C219 C220 1.375 1_554 S
C219 C222 1.481 . S
C220 C219 1.375 1_556 S
C220 C221 1.367 . S
C220 H234 0.951 . S
C221 C217 1.383 1_556 S
C221 C220 1.367 . S
C221 H235 0.950 . S
C222 C219 1.481 . S
C222 C223 1.297 . S
C222 H236 0.950 1_554 S
C223 C222 1.297 . S
C223 C224 1.479 . S
C223 H237 0.950 . S
C224 C223 1.479 . S
C224 C225 1.375 . S
C224 C230 1.404 1_554 S
C225 C224 1.375 . S
C225 C226 1.369 . S
C225 H238 0.950 . S
C226 C225 1.369 . S
C226 C227 1.392 . S
C226 H239 0.951 . S
C227 C226 1.392 . S
C227 C229 1.384 1_554 S
H228 C230 0.949 . S
C229 C227 1.384 1_556 S
C229 C230 1.385 . S
C229 H231 0.950 . S
C230 C224 1.404 1_556 S
C230 H228 0.949 . S
C230 C229 1.385 . S
H231 C229 0.950 . S
H232 C216 0.951 . S
H233 C218 0.951 . S
H234 C220 0.951 . S
H235 C221 0.950 . S
H236 C222 0.950 1_556 S
H237 C223 0.950 . S
H238 C225 0.950 . S
H239 C226 0.951 . S
C240 C241 1.386 . S
C240 C242 1.383 . S
C240 H256 0.951 . S
C241 C240 1.386 . S
C241 C245 1.383 . S
C242 C240 1.383 . S
C242 C243 1.402 . S
C242 H257 0.951 . S
C243 C242 1.402 . S
C243 C244 1.375 . S
C243 C246 1.481 . S
C244 C243 1.375 . S
C244 C245 1.367 . S
C244 H258 0.951 . S
C245 C241 1.383 . S
C245 C244 1.367 . S
C245 H259 0.950 . S
C246 C243 1.481 . S
C246 C247 1.297 . S
C246 H260 0.950 . S
C247 C246 1.297 . S
C247 C248 1.479 . S
C247 H261 0.950 . S
C248 C247 1.479 . S
C248 C249 1.375 . S
C248 C254 1.404 . S
C249 C248 1.375 . S
C249 C250 1.369 . S
C249 H262 0.950 . S
C250 C249 1.369 . S
C250 C251 1.392 . S
C250 H263 0.951 . S
C251 C250 1.392 . S
C251 C253 1.384 . S
H252 C254 0.949 . S
C253 C251 1.384 . S
C253 C254 1.385 . S
C253 H255 0.950 . S
C254 C248 1.404 . S
C254 H252 0.949 . S
C254 C253 1.385 . S
H255 C253 0.950 . S
H256 C240 0.951 . S
H257 C242 0.951 . S
H258 C244 0.951 . S
H259 C245 0.950 . S
H260 C246 0.950 . S
H261 C247 0.950 . S
H262 C249 0.950 . S
H263 C250 0.951 . S
C264 C265 1.386 . S
C264 C266 1.383 . S
C264 H280 0.951 . S
C265 C264 1.386 . S
C265 C269 1.383 . S
C266 C264 1.383 . S
C266 C267 1.402 . S
C266 H281 0.951 . S
C267 C266 1.402 . S
C267 C268 1.375 . S
C267 C270 1.481 . S
C268 C267 1.375 . S
C268 C269 1.367 . S
C268 H282 0.951 . S
C269 C265 1.383 . S
C269 C268 1.367 . S
C269 H283 0.950 . S
C270 C267 1.481 . S
C270 C271 1.297 . S
C270 H284 0.950 . S
C271 C270 1.297 . S
C271 C272 1.479 . S
C271 H285 0.950 . S
C272 C271 1.479 . S
C272 C273 1.375 . S
C272 C278 1.404 . S
C273 C272 1.375 . S
C273 C274 1.369 . S
C273 H286 0.950 . S
C274 C273 1.369 . S
C274 C275 1.392 . S
C274 H287 0.951 . S
C275 C274 1.392 . S
C275 C277 1.384 . S
H276 C278 0.949 . S
C277 C275 1.384 . S
C277 C278 1.385 . S
C277 H279 0.950 . S
C278 C272 1.404 . S
C278 H276 0.949 . S
C278 C277 1.385 . S
H279 C277 0.950 . S
H280 C264 0.951 . S
H281 C266 0.951 . S
H282 C268 0.951 . S
H283 C269 0.950 . S
H284 C270 0.950 . S
H285 C271 0.950 . S
H286 C273 0.950 . S
H287 C274 0.951 . S
C288 C289 1.386 . S
C288 C290 1.383 . S
C288 H304 0.951 . S
C289 C288 1.386 . S
C289 C293 1.383 . S
C290 C288 1.383 . S
C290 C291 1.402 . S
C290 H305 0.951 . S
C291 C290 1.402 . S
C291 C292 1.375 . S
C291 C294 1.481 . S
C292 C291 1.375 . S
C292 C293 1.367 . S
C292 H306 0.951 . S
C293 C289 1.383 . S
C293 C292 1.367 . S
C293 H307 0.950 . S
C294 C291 1.481 . S
C294 C295 1.297 . S
C294 H308 0.950 . S
C295 C294 1.297 . S
C295 C296 1.479 . S
C295 H309 0.950 . S
C296 C295 1.479 . S
C296 C297 1.375 . S
C296 C302 1.404 . S
C297 C296 1.375 . S
C297 C298 1.369 . S
C297 H310 0.950 . S
C298 C297 1.369 . S
C298 C299 1.392 . S
C298 H311 0.951 . S
C299 C298 1.392 . S
C299 C301 1.384 . S
H300 C302 0.949 . S
C301 C299 1.384 . S
C301 C302 1.385 . S
C301 H303 0.950 . S
C302 C296 1.404 . S
C302 H300 0.949 . S
C302 C301 1.385 . S
H303 C301 0.950 . S
H304 C288 0.951 . S
H305 C290 0.951 . S
H306 C292 0.951 . S
H307 C293 0.950 . S
H308 C294 0.950 . S
H309 C295 0.950 . S
H310 C297 0.950 . S
H311 C298 0.951 . S
C312 C313 1.386 . S
C312 C314 1.383 . S
C312 H328 0.951 . S
C313 C312 1.386 . S
C313 C317 1.383 . S
C314 C312 1.383 . S
C314 C315 1.402 . S
C314 H329 0.951 . S
C315 C314 1.402 . S
C315 C316 1.375 . S
C315 C318 1.481 . S
C316 C315 1.375 . S
C316 C317 1.367 . S
C316 H330 0.951 . S
C317 C313 1.383 . S
C317 C316 1.367 . S
C317 H331 0.950 . S
C318 C315 1.481 . S
C318 C319 1.297 . S
C318 H332 0.950 . S
C319 C318 1.297 . S
C319 C320 1.479 . S
C319 H333 0.950 . S
C320 C319 1.479 . S
C320 C321 1.375 . S
C320 C326 1.404 . S
C321 C320 1.375 . S
C321 C322 1.369 . S
C321 H334 0.950 . S
C322 C321 1.369 . S
C322 C323 1.392 . S
C322 H335 0.951 . S
C323 C322 1.392 . S
C323 C325 1.384 . S
H324 C326 0.949 . S
C325 C323 1.384 . S
C325 C326 1.385 . S
C325 H327 0.950 . S
C326 C320 1.404 . S
C326 H324 0.949 . S
C326 C325 1.385 . S
H327 C325 0.950 . S
H328 C312 0.951 . S
H329 C314 0.951 . S
H330 C316 0.951 . S
H331 C317 0.950 . S
H332 C318 0.950 . S
H333 C319 0.950 . S
H334 C321 0.950 . S
H335 C322 0.951 . S
C336 C337 1.386 . S
C336 C338 1.383 . S
C336 H352 0.951 . S
C337 C336 1.386 . S
C337 C341 1.383 . S
C338 C336 1.383 . S
C338 C339 1.402 . S
C338 H353 0.951 . S
C339 C338 1.402 . S
C339 C340 1.375 . S
C339 C342 1.481 . S
C340 C339 1.375 . S
C340 C341 1.367 . S
C340 H354 0.951 . S
C341 C337 1.383 . S
C341 C340 1.367 . S
C341 H355 0.950 . S
C342 C339 1.481 . S
C342 C343 1.297 . S
C342 H356 0.950 . S
C343 C342 1.297 . S
C343 C344 1.479 . S
C343 H357 0.950 . S
C344 C343 1.479 . S
C344 C345 1.375 . S
C344 C350 1.404 . S
C345 C344 1.375 . S
C345 C346 1.369 . S
C345 H358 0.950 . S
C346 C345 1.369 . S
C346 C347 1.392 . S
C346 H359 0.951 . S
C347 C346 1.392 . S
C347 C349 1.384 . S
H348 C350 0.949 . S
C349 C347 1.384 . S
C349 C350 1.385 . S
C349 H351 0.950 . S
C350 C344 1.404 . S
C350 H348 0.949 . S
C350 C349 1.385 . S
H351 C349 0.950 . S
H352 C336 0.951 . S
H353 C338 0.951 . S
H354 C340 0.951 . S
H355 C341 0.950 . S
H356 C342 0.950 . S
H357 C343 0.950 . S
H358 C345 0.950 . S
H359 C346 0.951 . S
C360 C361 1.386 . S
C360 C362 1.383 . S
C360 H376 0.951 . S
C361 C360 1.386 . S
C361 C365 1.383 . S
C362 C360 1.383 . S
C362 C363 1.402 . S
C362 H377 0.951 . S
C363 C362 1.402 . S
C363 C364 1.375 . S
C363 C366 1.481 . S
C364 C363 1.375 . S
C364 C365 1.367 . S
C364 H378 0.951 . S
C365 C361 1.383 . S
C365 C364 1.367 . S
C365 H379 0.950 . S
C366 C363 1.481 . S
C366 C367 1.297 . S
C366 H380 0.950 . S
C367 C366 1.297 . S
C367 C368 1.479 . S
C367 H381 0.950 . S
C368 C367 1.479 . S
C368 C369 1.375 . S
C368 C374 1.404 . S
C369 C368 1.375 . S
C369 C370 1.369 . S
C369 H382 0.950 . S
C370 C369 1.369 . S
C370 C371 1.392 . S
C370 H383 0.951 . S
C371 C370 1.392 . S
C371 C373 1.384 . S
H372 C374 0.949 . S
C373 C371 1.384 . S
C373 C374 1.385 . S
C373 H375 0.950 . S
C374 C368 1.404 . S
C374 H372 0.949 . S
C374 C373 1.385 . S
H375 C373 0.950 . S
H376 C360 0.951 . S
H377 C362 0.951 . S
H378 C364 0.951 . S
H379 C365 0.950 . S
H380 C366 0.950 . S
H381 C367 0.950 . S
H382 C369 0.950 . S
H383 C370 0.951 . S
C384 C385 1.386 . S
C384 C386 1.383 . S
C384 H400 0.951 . S
C385 C384 1.386 . S
C385 C389 1.383 . S
C386 C384 1.383 . S
C386 C387 1.402 . S
C386 H401 0.951 . S
C387 C386 1.402 . S
C387 C388 1.375 . S
C387 C390 1.481 . S
C388 C387 1.375 . S
C388 C389 1.367 . S
C388 H402 0.951 . S
C389 C385 1.383 . S
C389 C388 1.367 . S
C389 H403 0.950 . S
C390 C387 1.481 . S
C390 C391 1.297 . S
C390 H404 0.950 . S
C391 C390 1.297 . S
C391 C392 1.479 . S
C391 H405 0.950 . S
C392 C391 1.479 . S
C392 C393 1.375 . S
C392 C398 1.404 . S
C393 C392 1.375 . S
C393 C394 1.369 . S
C393 H406 0.950 . S
C394 C393 1.369 . S
C394 C395 1.392 . S
C394 H407 0.951 . S
C395 C394 1.392 . S
C395 C397 1.384 . S
H396 C398 0.949 . S
C397 C395 1.384 . S
C397 C398 1.385 . S
C397 H399 0.950 . S
C398 C392 1.404 . S
C398 H396 0.949 . S
C398 C397 1.385 . S
H399 C397 0.950 . S
H400 C384 0.951 . S
H401 C386 0.951 . S
H402 C388 0.951 . S
H403 C389 0.950 . S
H404 C390 0.950 . S
H405 C391 0.950 . S
H406 C393 0.950 . S
H407 C394 0.951 . S
C408 C409 1.386 . S
C408 C410 1.383 . S
C408 H424 0.951 . S
C409 C408 1.386 . S
C409 C413 1.383 . S
C410 C408 1.383 . S
C410 C411 1.402 . S
C410 H425 0.951 . S
C411 C410 1.402 . S
C411 C412 1.375 . S
C411 C414 1.481 . S
C412 C411 1.375 . S
C412 C413 1.367 . S
C412 H426 0.951 . S
C413 C409 1.383 . S
C413 C412 1.367 . S
C413 H427 0.950 . S
C414 C411 1.481 . S
C414 C415 1.297 . S
C414 H428 0.950 . S
C415 C414 1.297 . S
C415 C416 1.479 . S
C415 H429 0.950 . S
C416 C415 1.479 . S
C416 C417 1.375 . S
C416 C422 1.404 . S
C417 C416 1.375 . S
C417 C418 1.369 . S
C417 H430 0.950 . S
C418 C417 1.369 . S
C418 C419 1.392 . S
C418 H431 0.951 . S
C419 C418 1.392 . S
C419 C421 1.384 . S
H420 C422 0.949 . S
C421 C419 1.384 . S
C421 C422 1.385 . S
C421 H423 0.950 1_565 S
C422 C416 1.404 . S
C422 H420 0.949 . S
C422 C421 1.385 . S
H423 C421 0.950 1_545 S
H424 C408 0.951 . S
H425 C410 0.951 . S
H426 C412 0.951 . S
H427 C413 0.950 . S
H428 C414 0.950 . S
H429 C415 0.950 . S
H430 C417 0.950 . S
H431 C418 0.951 . S
C155 C80 1.534 . S
C145 C68 1.401 . S
C169 C11 1.432 . S
C179 C123 1.544 . S
C193 C30 1.448 . S
C203 C89 1.532 . S
C217 C49 1.434 . S
C227 C114 1.528 . S
C251 C76 1.626 . S
C241 C2 1.575 . S
C275 C118 1.581 . S
C265 C25 1.610 . S
C289 C40 1.587 . S
C299 C84 1.620 . S
C313 C59 1.549 . S
C323 C110 1.598 . S
C347 C139 1.491 . S
C337 C21 1.493 . S
C371 C105 1.482 . S
C361 C44 1.494 . S
C395 C127 1.507 . S
C385 C63 1.504 . S
C409 C6 1.484 . S
C419 C93 1.486 . S
