# Generated by pormake.
# Topology anh, (6,3)-cn, num edge types: 1
# Building blocks:
#     Node 0, Type 0, BuildingBlock: CUWYAW_clean_sbu_0, # of connection points: 6
#     Node 1, Type 0, BuildingBlock: CUWYAW_clean_sbu_0, # of connection points: 6
#     Node 2, Type 0, BuildingBlock: CUWYAW_clean_sbu_0, # of connection points: 6
#     Node 3, Type 1, BuildingBlock: BETDAH_clean_linker_0, # of connection points: 3
#     Node 4, Type 1, BuildingBlock: BETDAH_clean_linker_0, # of connection points: 3
#     Node 5, Type 1, BuildingBlock: BETDAH_clean_linker_0, # of connection points: 3
#     Node 6, Type 1, BuildingBlock: BETDAH_clean_linker_0, # of connection points: 3
#     Node 7, Type 1, BuildingBlock: BETDAH_clean_linker_0, # of connection points: 3
#     Node 8, Type 1, BuildingBlock: BETDAH_clean_linker_0, # of connection points: 3
#     Edge 9, Type (0, 1), BuildingBlock: EZIPEK_clean_linker_0, # of connection points: 2
#     Edge 10, Type (0, 1), BuildingBlock: EZIPEK_clean_linker_0, # of connection points: 2
#     Edge 11, Type (0, 1), BuildingBlock: EZIPEK_clean_linker_0, # of connection points: 2
#     Edge 12, Type (0, 1), BuildingBlock: EZIPEK_clean_linker_0, # of connection points: 2
#     Edge 13, Type (0, 1), BuildingBlock: EZIPEK_clean_linker_0, # of connection points: 2
#     Edge 14, Type (0, 1), BuildingBlock: EZIPEK_clean_linker_0, # of connection points: 2
#     Edge 15, Type (0, 1), BuildingBlock: EZIPEK_clean_linker_0, # of connection points: 2
#     Edge 16, Type (0, 1), BuildingBlock: EZIPEK_clean_linker_0, # of connection points: 2
#     Edge 17, Type (0, 1), BuildingBlock: EZIPEK_clean_linker_0, # of connection points: 2
#     Edge 18, Type (0, 1), BuildingBlock: EZIPEK_clean_linker_0, # of connection points: 2
#     Edge 19, Type (0, 1), BuildingBlock: EZIPEK_clean_linker_0, # of connection points: 2
#     Edge 20, Type (0, 1), BuildingBlock: EZIPEK_clean_linker_0, # of connection points: 2
#     Edge 21, Type (0, 1), BuildingBlock: EZIPEK_clean_linker_0, # of connection points: 2
#     Edge 22, Type (0, 1), BuildingBlock: EZIPEK_clean_linker_0, # of connection points: 2
#     Edge 23, Type (0, 1), BuildingBlock: EZIPEK_clean_linker_0, # of connection points: 2
#     Edge 24, Type (0, 1), BuildingBlock: EZIPEK_clean_linker_0, # of connection points: 2
#     Edge 25, Type (0, 1), BuildingBlock: EZIPEK_clean_linker_0, # of connection points: 2
#     Edge 26, Type (0, 1), BuildingBlock: EZIPEK_clean_linker_0, # of connection points: 2
# Relax obj value: 0.384
# Max RMSD: 0.161
# Mean RMSD: 0.123
data_MOF--net-anh--node1-CUWYAW_clean_sbu_0--node2-BETDAH_clean_linker_0--edge1-EZIPEK_clean_linker_0
_symmetry_space_group_name_H-M    P1
_symmetry_Int_Tables_number       1
_symmetry_cell_setting            triclinic
loop_
_symmetry_equiv_pos_as_xyz
'x, y, z'
_cell_length_a     24.134716
_cell_length_b     24.285411
_cell_length_c     36.478473
_cell_angle_alpha  93.14875
_cell_angle_beta   91.532862
_cell_angle_gamma 119.30115
loop_
_atom_site_label
_atom_site_type_symbol
_atom_site_fract_x
_atom_site_fract_y
_atom_site_fract_z
_atom_type_partial_charge
C0 C 0.98752 0.44095 0.14976 0.0
Eu1 Eu 1.04368 0.56333 0.15145 0.0
C2 C 0.94226 0.37706 0.13467 0.0
C3 C 0.95751 0.32983 0.14127 0.0
C4 C 0.91322 0.26678 0.13233 0.0
C5 C 0.85299 0.24986 0.11622 0.0
C6 C 0.84041 0.29774 0.10569 0.0
C7 C 0.8845 0.36143 0.11573 0.0
C8 C 1.09623 0.62402 0.22047 0.0
C9 C 0.94141 0.62083 0.13881 0.0
C10 C 0.15308 0.81032 0.14908 0.0
Eu11 Eu 1.1018 0.6874 0.1452 0.0
C12 C 0.21695 0.86099 0.14169 0.0
C13 C 0.24063 0.86506 0.10645 0.0
C14 C 0.30622 0.89832 0.10245 0.0
C15 C 0.34797 0.9255 0.13382 0.0
C16 C 0.32398 0.92932 0.16786 0.0
C17 C 0.25871 0.89775 0.17171 0.0
C18 C 1.07743 0.62017 0.07838 0.0
C19 C 0.20185 0.62885 0.13947 0.0
O20 O 1.03634 0.4744 0.13067 0.0
O21 O 0.9675 0.47442 0.16877 0.0
O22 O 1.10136 0.57823 0.20482 0.0
O23 O 1.06618 0.63934 0.19778 0.0
O24 O 0.9467 0.5684 0.14194 0.0
O25 O 0.99737 0.67483 0.14104 0.0
O26 O 0.15148 0.77833 0.17712 0.0
O27 O 0.11706 0.77351 0.12089 0.0
O28 O 0.13325 0.66556 0.09021 0.0
O29 O 1.03969 0.61096 0.10306 0.0
O30 O 0.19779 0.68082 0.14939 0.0
O31 O 0.1446 0.57655 0.13348 0.0
H32 H 1.00243 0.34144 0.15542 0.0
H33 H 0.92428 0.23096 0.14077 0.0
H34 H 0.79522 0.28589 0.09195 0.0
H35 H 0.87257 0.39782 0.1101 0.0
H36 H 0.20935 0.83811 0.08262 0.0
H37 H 0.32434 0.89613 0.07588 0.0
H38 H 0.35581 0.9514 0.19222 0.0
H39 H 0.24142 0.89649 0.19894 0.0
C40 C 0.52145 0.21337 0.46158 0.0
Eu41 Eu 0.56059 0.13538 0.47891 0.0
C42 C 0.55482 0.2822 0.47037 0.0
C43 C 0.59108 0.30735 0.50391 0.0
C44 C 0.6328 0.372 0.50995 0.0
C45 C 0.63946 0.41258 0.48254 0.0
C46 C 0.60209 0.38827 0.44936 0.0
C47 C 0.55992 0.3231 0.44327 0.0
C48 C 0.58393 0.12572 0.55244 0.0
C49 C 0.72355 0.23171 0.47468 0.0
C50 C 0.68203 1.01256 0.50602 0.0
Eu51 Eu 0.62812 0.07657 0.48491 0.0
C52 C 0.7452 1.01751 0.50836 0.0
C53 C 0.77878 1.02162 0.47666 0.0
C54 C 0.82934 1.0089 0.47787 0.0
C55 C 0.84622 0.99193 0.51071 0.0
C56 C 0.81813 0.99594 0.54317 0.0
C57 C 0.76764 1.00837 0.54197 0.0
C58 C 0.61024 0.08696 0.41338 0.0
C59 C 0.46337 0.97875 0.47362 0.0
O60 O 0.55055 0.194 0.43901 0.0
O61 O 0.50104 0.17842 0.48946 0.0
O62 O 0.52912 0.11265 0.5375 0.0
O63 O 0.62372 0.14238 0.52773 0.0
O64 O 0.66519 0.22637 0.47316 0.0
O65 O 0.72252 0.17686 0.48003 0.0
O66 O 0.65562 1.00517 0.47321 0.0
O67 O 0.67202 1.04986 0.5287 0.0
O68 O 0.66505 0.10277 0.42944 0.0
O69 O 0.56747 0.07022 0.4364 0.0
O70 O 0.52049 0.98483 0.48448 0.0
O71 O 0.46733 1.03447 0.46746 0.0
H72 H 0.58938 0.27676 0.52491 0.0
H73 H 0.66133 0.3903 0.53571 0.0
H74 H 0.60685 0.41936 0.42804 0.0
H75 H 0.53334 0.30435 0.41696 0.0
H76 H 0.76285 1.02946 0.45041 0.0
H77 H 0.85036 1.0055 0.45257 0.0
H78 H 0.83069 0.98274 0.5687 0.0
H79 H 0.7428 1.00551 0.56672 0.0
C80 C 0.84263 0.72342 0.83056 0.0
Eu81 Eu 0.71912 0.65448 0.82534 0.0
C82 C 0.8923 0.70705 0.82139 0.0
C83 C 0.9246 0.6958 0.84998 0.0
C84 C 0.95699 0.66271 0.84242 0.0
C85 C 0.95856 0.64139 0.80614 0.0
C86 C 0.93419 0.66029 0.77707 0.0
C87 C 0.90037 0.69232 0.78466 0.0
C88 C 0.64705 0.6176 0.88553 0.0
C89 C 0.66006 0.49657 0.80587 0.0
C90 C 0.47506 0.5109 0.79167 0.0
Eu91 Eu 0.59546 0.5944 0.80113 0.0
C92 C 0.41098 0.48454 0.80476 0.0
C93 C 0.38206 0.52144 0.81266 0.0
C94 C 0.32101 0.49314 0.82581 0.0
C95 C 0.28907 0.42815 0.83116 0.0
C96 C 0.31797 0.39156 0.82304 0.0
C97 C 0.37841 0.41955 0.80977 0.0
C98 C 0.67403 0.62618 0.74455 0.0
C99 C 0.65212 0.74972 0.80766 0.0
O100 O 0.80718 0.72389 0.80301 0.0
O101 O 0.80901 0.69535 0.85809 0.0
O102 O 0.69686 0.61205 0.88001 0.0
O103 O 0.63569 0.64219 0.85817 0.0
O104 O 0.71372 0.55291 0.81278 0.0
O105 O 0.60733 0.50186 0.80284 0.0
O106 O 0.51585 0.50482 0.81275 0.0
O107 O 0.5004 0.56428 0.77591 0.0
O108 O 0.62352 0.63191 0.74459 0.0
O109 O 0.67847 0.60172 0.77293 0.0
O110 O 0.59833 0.6937 0.80415 0.0
O111 O 0.70511 0.74535 0.81486 0.0
H112 H 0.92019 0.70767 0.87843 0.0
H113 H 0.97653 0.64937 0.86518 0.0
H114 H 0.93605 0.64509 0.74887 0.0
H115 H 0.87685 0.70126 0.7619 0.0
H116 H 0.40661 0.5717 0.809 0.0
H117 H 0.29892 0.52178 0.83217 0.0
H118 H 0.29381 0.34145 0.8272 0.0
H119 H 0.40015 0.39045 0.80371 0.0
H120 H 0.52024 0.98321 0.24231 0.0
H121 H 0.69983 1.00194 0.27939 0.0
H122 H 0.63928 0.96085 0.16447 0.0
C123 C 0.56267 0.98037 0.23655 0.0
C124 C 0.57335 0.9675 0.20031 0.0
C125 C 0.60814 0.99298 0.2651 0.0
C126 C 0.66343 0.98991 0.2576 0.0
C127 C 0.67484 0.97819 0.22128 0.0
C128 C 0.62962 0.96734 0.19277 0.0
N129 N 0.73646 0.99055 0.21251 0.0
C130 C 0.76536 1.03352 0.1863 0.0
H131 H 0.76089 0.58771 0.60113 0.0
H132 H 0.91845 0.77019 0.63746 0.0
H133 H 0.89456 0.70014 0.52409 0.0
C134 C 0.80509 0.62923 0.59552 0.0
C135 C 0.825 0.63672 0.55951 0.0
C136 C 0.8374 0.67762 0.62343 0.0
C137 C 0.89412 0.73181 0.61622 0.0
C138 C 0.91551 0.73938 0.58048 0.0
C139 C 0.88068 0.69194 0.55215 0.0
N140 N 0.96434 0.79926 0.57174 0.0
C141 C 0.94823 0.83803 0.55278 0.0
H142 H 1.01383 0.55387 0.90188 0.0
H143 H 1.00299 0.39927 0.95913 0.0
H144 H 0.99385 0.38722 0.84119 0.0
C145 C 1.00828 0.5067 0.90118 0.0
C146 C 1.0003 0.47246 0.86724 0.0
C147 C 1.01147 0.48149 0.93427 0.0
C148 C 1.00115 0.41944 0.93364 0.0
C149 C 0.99262 0.38473 0.90013 0.0
C150 C 0.99527 0.41241 0.86695 0.0
N151 N 0.99095 0.32586 0.90002 0.0
C152 C 1.04348 0.32379 0.88768 0.0
H153 H 0.21702 0.73973 0.38389 0.0
H154 H 1.04281 0.56354 0.39137 0.0
H155 H 0.15794 0.66953 0.49079 0.0
C156 C 0.18423 0.70538 0.4015 0.0
C157 C 0.19912 0.71678 0.44012 0.0
C158 C 0.12891 0.65179 0.38412 0.0
C159 C 1.08398 0.60385 0.40541 0.0
C160 C 1.09139 0.60668 0.44417 0.0
C161 C 0.15044 0.66473 0.46116 0.0
N162 N 1.04231 0.55419 0.46583 0.0
C163 C 0.98078 0.49254 0.45959 0.0
H164 H 0.63808 0.24799 0.71504 0.0
H165 H 0.6374 0.07083 0.72243 0.0
H166 H 0.65861 0.18825 0.82191 0.0
C167 C 0.64123 0.21484 0.73253 0.0
C168 C 0.649 0.22994 0.77121 0.0
C169 C 0.6361 0.15834 0.71502 0.0
C170 C 0.64097 0.11308 0.73638 0.0
C171 C 0.64959 0.12107 0.77522 0.0
C172 C 0.65325 0.18074 0.79224 0.0
N173 N 0.65383 0.07167 0.79715 0.0
C174 C 0.65241 1.00953 0.79086 0.0
H175 H 0.70873 0.61961 0.04568 0.0
H176 H 0.53125 0.62155 0.05199 0.0
H177 H 0.63377 0.62172 0.15192 0.0
C178 C 0.67296 0.62005 0.06285 0.0
C179 C 0.68223 0.62079 0.10149 0.0
C180 C 0.61991 0.62057 0.04512 0.0
C181 C 0.571 0.62107 0.06616 0.0
C182 C 0.5729 0.62121 0.10502 0.0
C183 C 0.62991 0.62098 0.12226 0.0
N184 N 0.52062 0.62178 0.1269 0.0
C185 C 0.45997 0.62319 0.12063 0.0
C186 C 0.27896 0.59307 0.10389 0.0
C187 C 0.26973 0.62905 0.13393 0.0
C188 C 0.38754 0.66504 0.15291 0.0
C189 C 0.39492 0.62579 0.12438 0.0
N190 N 0.33876 0.54502 0.07561 0.0
N191 N 0.32175 0.69714 0.18889 0.0
C192 C 0.33779 0.58798 0.10093 0.0
C193 C 0.32633 0.66444 0.1586 0.0
N194 N 0.23246 0.56616 0.0761 0.0
N195 N 0.44055 0.70499 0.1749 0.0
H196 H 0.28229 0.70266 0.19293 0.0
H197 H 0.3552 0.71604 0.21111 0.0
H198 H 0.48399 0.70596 0.1725 0.0
H199 H 0.44348 0.74037 0.19357 0.0
H200 H 0.23724 0.5456 0.05146 0.0
H201 H 0.19152 0.57036 0.07591 0.0
H202 H 0.29837 0.50994 0.06059 0.0
H203 H 0.37964 0.54146 0.0718 0.0
C204 C 0.81155 0.35611 0.49482 0.0
C205 C 0.79008 0.29947 0.47024 0.0
C206 C 0.89123 0.37159 0.4362 0.0
C207 C 0.91512 0.42616 0.46268 0.0
N208 N 0.89791 0.45794 0.52286 0.0
N209 N 0.82018 0.25772 0.41802 0.0
C210 C 0.87474 0.41422 0.49336 0.0
C211 C 0.83361 0.30914 0.44131 0.0
N212 N 0.77075 0.35566 0.52005 0.0
N213 N 0.92324 0.37951 0.40494 0.0
H214 H 0.77886 0.21427 0.41918 0.0
H215 H 0.85147 0.25674 0.39926 0.0
H216 H 0.9644 0.42177 0.4008 0.0
H217 H 0.90681 0.34666 0.38219 0.0
H218 H 0.77813 0.39607 0.53577 0.0
H219 H 0.72654 0.31606 0.52267 0.0
H220 H 0.87646 0.45065 0.54786 0.0
H221 H 0.94172 0.49946 0.52322 0.0
C222 C 0.69183 0.87509 0.82629 0.0
C223 C 0.65296 0.81752 0.80288 0.0
C224 C 0.61104 0.88539 0.77253 0.0
C225 C 0.65337 0.94385 0.79405 0.0
N226 N 0.74175 0.99097 0.83891 0.0
N227 N 0.58351 0.77801 0.74784 0.0
C228 C 0.6957 0.93702 0.82001 0.0
C229 C 0.61463 0.82603 0.77468 0.0
N230 N 0.72332 0.87049 0.85656 0.0
N231 N 0.56538 0.88566 0.74981 0.0
H232 H 0.58603 0.73636 0.74715 0.0
H233 H 0.56087 0.78194 0.72424 0.0
H234 H 0.56259 0.92669 0.74653 0.0
H235 H 0.52765 0.8448 0.73666 0.0
H236 H 0.74626 0.90664 0.87739 0.0
H237 H 0.72103 0.8281 0.86281 0.0
H238 H 0.77938 0.99297 0.85467 0.0
H239 H 0.7453 1.03512 0.8362 0.0
C240 C 0.81376 0.57753 0.14632 0.0
C241 C 0.87358 0.62035 0.13104 0.0
C242 C 0.80974 0.67033 0.10488 0.0
C243 C 0.7485 0.62337 0.11629 0.0
N244 N 0.69642 0.52521 0.14481 0.0
N245 N 0.9168 0.69872 0.08667 0.0
C246 C 0.75233 0.57535 0.13625 0.0
C247 C 0.86779 0.66433 0.10811 0.0
N248 N 0.81526 0.53969 0.17214 0.0
N249 N 0.81375 0.72349 0.09155 0.0
H250 H 0.95707 0.69354 0.0855 0.0
H251 H 0.91389 0.72615 0.06653 0.0
H252 H 0.77486 0.73116 0.08977 0.0
H253 H 0.8568 0.76284 0.08644 0.0
H254 H 0.77668 0.51254 0.18752 0.0
H255 H 0.85707 0.54035 0.18081 0.0
H256 H 0.69324 0.48462 0.15502 0.0
H257 H 0.65255 0.5224 0.13885 0.0
C258 C 0.3783 0.8531 0.48585 0.0
C259 C 0.39495 0.9103 0.46704 0.0
C260 C 0.27879 0.84394 0.43936 0.0
C261 C 0.26489 0.78434 0.45393 0.0
N262 N 0.31409 0.73696 0.48865 0.0
N263 N 0.35588 0.94457 0.41645 0.0
C264 C 0.31855 0.79098 0.47656 0.0
C265 C 0.34325 0.90079 0.44146 0.0
N266 N 0.4185 0.85783 0.51432 0.0
N267 N 0.22887 0.84808 0.42409 0.0
H268 H 0.40115 0.98264 0.41398 0.0
H269 H 0.32361 0.93819 0.39487 0.0
H270 H 0.18208 0.81095 0.42349 0.0
H271 H 0.23288 0.89053 0.4164 0.0
H272 H 0.40764 0.82199 0.5319 0.0
H273 H 0.45962 0.90003 0.52275 0.0
H274 H 0.35234 0.7351 0.50122 0.0
H275 H 0.27322 0.693 0.48324 0.0
C276 C 0.69892 0.40903 0.81844 0.0
C277 C 0.65767 0.4274 0.79904 0.0
C278 C 0.60346 0.31209 0.77043 0.0
C279 C 0.64971 0.29631 0.78538 0.0
N280 N 0.74593 0.33898 0.8239 0.0
N281 N 0.5772 0.3907 0.74903 0.0
C282 C 0.69836 0.34773 0.80955 0.0
C283 C 0.61188 0.37687 0.77324 0.0
N284 N 0.73797 0.44945 0.8469 0.0
N285 N 0.54781 0.26351 0.75458 0.0
H286 H 0.58233 0.43566 0.74805 0.0
H287 H 0.54898 0.35947 0.72695 0.0
H288 H 0.5375 0.21641 0.75374 0.0
H289 H 0.509 0.26888 0.74671 0.0
H290 H 0.76439 0.43845 0.8651 0.0
H291 H 0.73938 0.4921 0.85453 0.0
H292 H 0.78563 0.37396 0.83939 0.0
H293 H 0.74751 0.29726 0.8182 0.0
C294 C 0.94343 0.9798 0.51936 0.0
C295 C 0.87753 0.95281 0.5101 0.0
C296 C 0.85954 0.84921 0.52509 0.0
C297 C 0.92538 0.87594 0.53518 0.0
N298 N 1.03191 0.96555 0.53769 0.0
N299 N 0.77754 0.85928 0.49176 0.0
C300 C 0.96801 0.94056 0.53037 0.0
C301 C 0.83744 0.88647 0.50842 0.0
N302 N 0.98378 1.04295 0.51825 0.0
N303 N 0.81686 0.7901 0.53431 0.0
H304 H 0.75914 0.88537 0.47978 0.0
H305 H 0.74873 0.81048 0.48643 0.0
H306 H 0.83018 0.76276 0.54889 0.0
H307 H 0.76772 0.77144 0.53145 0.0
H308 H 0.96924 0.07461 0.50983 0.0
H309 H 0.96924 0.07461 0.50983 0.0
H310 H 1.06433 1.01311 0.53475 0.0
H311 H 1.05212 0.93838 0.54582 0.0
C312 C 0.92812 0.52734 0.79813 0.0
C313 C 0.97691 0.5917 0.80071 0.0
C314 C 1.05184 0.56331 0.82817 0.0
C315 C 0.99969 0.5027 0.83295 0.0
N316 N 0.89853 0.41854 0.80704 0.0
N317 N 1.08812 0.66747 0.80546 0.0
C318 C 0.94138 0.4816 0.8124 0.0
C319 C 1.04037 0.60806 0.81077 0.0
N320 N 0.86775 0.51099 0.78559 0.0
N321 N 0.1108 0.57831 0.84252 0.0
H322 H 1.07891 0.69984 0.79264 0.0
H323 H 0.13616 0.6834 0.81154 0.0
H324 H 0.11918 0.5445 0.85417 0.0
H325 H 0.15083 0.62292 0.8428 0.0
H326 H 0.82838 0.46665 0.78795 0.0
H327 H 0.85637 0.54239 0.77361 0.0
H328 H 0.85931 0.40031 0.78824 0.0
H329 H 0.90558 0.38379 0.81813 0.0
C330 C 0.42673 0.88737 0.13668 0.0
C331 C 0.41459 0.93872 0.13394 0.0
C332 C 0.51999 1.01278 0.16232 0.0
C333 C 0.52751 0.96016 0.17016 0.0
N334 N 0.5017 0.85248 0.15322 0.0
N335 N 0.45406 1.05024 0.1329 0.0
C336 C 0.48578 0.89924 0.15305 0.0
C337 C 0.46348 1.0018 0.14261 0.0
N338 N 0.37972 0.8266 0.12713 0.0
N339 N 0.56602 0.07245 0.17491 0.0
H340 H 0.41256 1.04173 0.11815 0.0
H341 H 0.48802 0.09794 0.13703 0.0
H342 H 0.60929 0.08142 0.18749 0.0
H343 H 0.56186 0.11286 0.17313 0.0
H344 H 0.38289 0.78688 0.1332 0.0
H345 H 0.33606 0.81506 0.11421 0.0
H346 H 0.4778 0.81046 0.13647 0.0
H347 H 0.54222 0.85764 0.16733 0.0
C348 C 0.66929 0.521 0.50859 0.0
C349 C 0.68707 0.48038 0.4896 0.0
C350 C 0.79968 0.5531 0.50706 0.0
C351 C 0.78108 0.59024 0.52955 0.0
N352 N 0.70311 0.62342 0.54042 0.0
N353 N 0.76694 0.46449 0.46087 0.0
C354 C 0.71737 0.57884 0.52633 0.0
C355 C 0.75196 0.49956 0.48504 0.0
N356 N 0.60628 0.50225 0.51159 0.0
N357 N 0.8618 0.56678 0.50832 0.0
H358 H 0.7321 0.42475 0.44506 0.0
H359 H 0.81293 0.4767 0.45419 0.0
H360 H 0.89703 0.60183 0.52639 0.0
H361 H 0.87908 0.54295 0.49198 0.0
H362 H 0.58986 0.52553 0.52923 0.0
H363 H 0.57001 0.46132 0.49742 0.0
H364 H 0.659 0.62065 0.53592 0.0
H365 H 0.73724 0.66618 0.55391 0.0
C366 C 0.17117 0.35724 0.82296 0.0
C367 C 0.22578 0.39799 0.84637 0.0
C368 C 0.15971 0.38297 0.89854 0.0
C369 C 1.10557 0.34087 0.87535 0.0
N370 N 1.05904 0.27791 0.81828 0.0
N371 N 0.27469 0.43996 0.90744 0.0
C372 C 0.11116 0.32459 0.83841 0.0
C373 C 0.22088 0.408 0.88453 0.0
N374 N 0.17644 0.35195 0.78585 0.0
N375 N 0.15241 0.40076 0.93353 0.0
H376 H 0.32052 0.45939 0.89814 0.0
H377 H 0.27418 0.44298 0.936 0.0
H378 H 0.10862 0.38065 0.9455 0.0
H379 H 0.18898 0.43775 0.95002 0.0
H380 H 0.13758 0.32816 0.76689 0.0
H381 H 0.21971 0.37555 0.77354 0.0
H382 H 1.06095 0.25957 0.79218 0.0
H383 H 1.01446 0.25355 0.82914 0.0
C384 C 0.76599 0.17476 0.15036 0.0
C385 C 0.80209 0.18376 0.1193 0.0
C386 C 0.79673 0.08141 0.12625 0.0
C387 C 0.77782 0.08346 0.16253 0.0
N388 N 0.75105 0.13724 0.21086 0.0
N389 N 0.84305 0.14161 0.07334 0.0
C390 C 0.76349 0.13108 0.175 0.0
C391 C 0.8129 0.13448 0.10526 0.0
N392 N 0.73625 0.20938 0.15702 0.0
N393 N 0.80029 1.02993 0.11239 0.0
H394 H 0.85324 0.17989 0.05769 0.0
H395 H 0.85919 0.11143 0.06319 0.0
H396 H 0.79032 0.9915 0.1278 0.0
H397 H 0.80925 1.02367 0.08516 0.0
H398 H 0.70588 0.2013 0.17834 0.0
H399 H 0.73515 0.2399 0.13844 0.0
H400 H 0.74649 0.17534 0.2217 0.0
H401 H 0.75252 0.10867 0.23071 0.0
C402 C 1.09792 0.61321 0.01075 0.0
C403 C 1.05841 0.58666 0.04051 0.0
C404 C 0.98109 0.50068 -0.00338 0.0
C405 C 1.02656 0.52019 0.96981 0.0
N406 N 0.13414 0.59003 0.95382 0.0
N407 N 0.96486 0.49418 0.06091 0.0
C408 C 1.08683 0.57495 0.97756 0.0
C409 C 1.00044 0.52756 0.0333 0.0
N410 N 0.14326 0.67574 0.01278 0.0
N411 N 0.91904 0.45672 0.98712 0.0
H412 H 0.97639 0.50745 0.08865 0.0
H413 H 0.92679 0.44826 0.05616 0.0
H414 H 0.90297 0.43647 0.9603 0.0
H415 H 0.8826 0.44579 0.00494 0.0
H416 H 0.16975 0.69729 -0.00945 0.0
H417 H 0.14778 0.70819 0.03411 0.0
H418 H 0.18071 0.62624 0.96024 0.0
H419 H 0.1285 0.56266 0.9295 0.0
C420 C 0.5759 0.99497 0.36628 0.0
C421 C 0.59728 1.06055 0.37463 0.0
C422 C 0.62201 0.08118 0.31043 0.0
C423 C 0.60064 1.0157 0.30222 0.0
N424 N 0.54373 0.90841 0.31935 0.0
N425 N 0.62928 0.16386 0.35437 0.0
C426 C 0.5731 0.97199 0.32924 0.0
C427 C 0.61664 0.10295 0.34648 0.0
N428 N 0.56187 0.9552 0.39391 0.0
N429 N 0.64909 0.12266 0.28397 0.0
H430 H 0.62577 0.18086 0.38062 0.0
H431 H 0.63819 0.1961 0.33464 0.0
H432 H 0.6509 0.10803 0.25685 0.0
H433 H 0.67255 0.17167 0.28906 0.0
H434 H 0.55435 0.9092 0.39008 0.0
H435 H 0.5618 0.96916 0.42134 0.0
H436 H 0.51638 0.8739 0.33682 0.0
H437 H 0.54211 0.89002 0.29256 0.0
C438 C 0.74621 0.60337 0.70541 0.0
C439 C 0.71919 0.64254 0.71471 0.0
C440 C 0.77459 0.70936 0.66524 0.0
C441 C 0.80553 0.67322 0.65829 0.0
N442 N 0.83365 0.59694 0.67842 0.0
N443 N 0.72357 0.74363 0.71001 0.0
C444 C 0.79592 0.62422 0.68088 0.0
C445 C 0.73808 0.69886 0.69662 0.0
N446 N 0.7213 0.54406 0.71745 0.0
N447 N 0.77728 0.75159 0.64111 0.0
H448 H 0.69971 0.73962 0.73393 0.0
H449 H 0.74158 0.78798 0.69967 0.0
H450 H 0.80305 0.76088 0.61761 0.0
H451 H 0.74945 0.7735 0.64287 0.0
H452 H 0.73634 0.51206 0.70904 0.0
H453 H 0.68007 0.52359 0.73173 0.0
H454 H 0.83257 0.56496 0.69671 0.0
H455 H 0.87052 0.6115 0.66055 0.0
C456 C 0.65429 0.18685 0.61131 0.0
C457 C 0.59942 0.13276 0.59399 0.0
C458 C 0.56676 0.09639 0.65623 0.0
C459 C 0.62467 0.14707 0.67308 0.0
N460 N 0.72981 0.23247 0.66448 0.0
N461 N 0.51077 1.02887 0.60091 0.0
C462 C 0.67027 0.1897 0.64987 0.0
C463 C 0.55781 0.08555 0.6168 0.0
N464 N 0.68931 0.2378 0.5917 0.0
N465 N 0.5187 1.0599 0.67774 0.0
H466 H 0.50363 1.01805 0.57252 0.0
H467 H 0.48326 0.99027 0.61591 0.0
H468 H 0.52253 0.06664 0.70636 0.0
H469 H 0.47304 1.02697 0.66708 0.0
H470 H 0.72576 0.28083 0.60364 0.0
H471 H 0.67727 0.23988 0.56443 0.0
H472 H 0.76714 0.26036 0.64847 0.0
H473 H 0.74366 0.23539 0.69218 0.0
C474 C 0.66449 0.67894 0.94794 0.0
C475 C 0.62902 0.62202 0.92477 0.0
C476 C 0.58209 0.56495 0.98013 0.0
C477 C 0.61756 0.62186 0.00329 0.0
N478 N 0.68261 0.73526 0.00835 0.0
N479 N 0.54505 0.51387 0.91803 0.0
C480 C 0.65554 0.67953 0.98678 0.0
C481 C 0.58485 0.56607 0.94076 0.0
N482 N 0.70901 0.73209 0.933 0.0
N483 N 0.54782 0.50911 -0.0041 0.0
H484 H 0.54625 0.51352 0.88945 0.0
H485 H 0.5075 0.47311 0.92704 0.0
H486 H 0.54347 0.50671 0.02422 0.0
H487 H 0.52679 0.46486 0.98137 0.0
H488 H 0.74231 0.7729 0.94851 0.0
H489 H 0.71495 0.73435 0.9048 0.0
H490 H 0.70551 0.77967 -0.00197 0.0
H491 H 0.67757 0.73728 0.03664 0.0
C492 C 0.15935 0.6394 0.28098 0.0
C493 C 1.10521 0.63711 0.26246 0.0
C494 C 1.06952 0.65103 0.32405 0.0
C495 C 0.11957 0.64564 0.34213 0.0
N496 N 0.20534 0.62249 0.33638 0.0
N497 N 1.0014 0.62792 0.26865 0.0
C498 C 0.16256 0.63652 0.32011 0.0
C499 C 1.05842 0.63985 0.28461 0.0
N500 N 0.20936 0.6463 0.26125 0.0
N501 N 1.0332 0.66846 0.34444 0.0
H502 H 0.98947 0.61726 0.24058 0.0
H503 H 0.96317 0.62223 0.28377 0.0
H504 H 1.03962 0.67687 0.373 0.0
H505 H 1.00084 0.6802 0.33278 0.0
H506 H 0.25296 0.65553 0.27334 0.0
H507 H 0.20962 0.64932 0.23294 0.0
H508 H 0.23306 0.60825 0.32155 0.0
H509 H 0.20869 0.61887 0.36462 0.0
loop_
_geom_bond_atom_site_label_1
_geom_bond_atom_site_label_2
_geom_bond_distance
_geom_bond_site_symmetry_2
_ccdc_geom_bond_type
C0 Eu1 2.835 . S
C0 C2 1.500 . S
C0 O20 1.257 . S
C0 O21 1.260 . S
Eu1 C0 2.835 . S
Eu1 O20 2.473 . S
Eu1 O21 2.480 . S
Eu1 O22 2.430 . S
Eu1 O23 2.670 1_655 S
Eu1 O24 2.394 . S
Eu1 O29 2.355 . S
Eu1 O31 2.374 1_655 S
C2 C0 1.500 . S
C2 C3 1.377 . S
C2 C7 1.377 . S
C3 C2 1.377 . S
C3 C4 1.395 . S
C3 H32 0.931 . S
C4 C3 1.395 . S
C4 C5 1.383 . S
C4 H33 0.931 . S
C5 C4 1.383 . S
C5 C6 1.394 . S
C6 C5 1.394 . S
C6 C7 1.378 . S
C6 H34 0.931 . S
C7 C2 1.377 . S
C7 C6 1.378 . S
C7 H35 0.931 . S
C8 O22 1.259 1_455 S
C8 O23 1.270 . S
C9 O24 1.251 . S
C9 O25 1.251 . S
C10 Eu11 2.835 . S
C10 C12 1.500 . S
C10 O26 1.257 . S
C10 O27 1.260 . S
Eu11 C10 2.835 . S
Eu11 O23 2.355 . S
Eu11 O25 2.374 1_455 S
Eu11 O26 2.473 . S
Eu11 O27 2.480 . S
Eu11 O28 2.430 . S
Eu11 O29 2.670 1_455 S
Eu11 O30 2.394 . S
C12 C10 1.500 . S
C12 C13 1.377 . S
C12 C17 1.377 . S
C13 C12 1.377 . S
C13 C14 1.395 . S
C13 H36 0.931 . S
C14 C13 1.395 . S
C14 C15 1.383 . S
C14 H37 0.931 . S
C15 C14 1.383 . S
C15 C16 1.394 . S
C16 C15 1.394 . S
C16 C17 1.378 . S
C16 H38 0.931 . S
C17 C12 1.377 . S
C17 C16 1.378 . S
C17 H39 0.931 . S
C18 O28 1.259 . S
C18 O29 1.270 1_455 S
C19 O30 1.251 . S
C19 O31 1.251 . S
O20 C0 1.257 . S
O20 Eu1 2.473 . S
O21 C0 1.260 . S
O21 Eu1 2.480 . S
O22 Eu1 2.430 . S
O22 C8 1.259 1_655 S
O23 Eu1 2.670 1_455 S
O23 C8 1.270 . S
O23 Eu11 2.355 . S
O24 Eu1 2.394 . S
O24 C9 1.251 . S
O25 C9 1.251 . S
O25 Eu11 2.374 1_655 S
O26 C10 1.257 . S
O26 Eu11 2.473 . S
O27 C10 1.260 . S
O27 Eu11 2.480 . S
O28 Eu11 2.430 . S
O28 C18 1.259 . S
O29 Eu1 2.355 . S
O29 Eu11 2.670 1_655 S
O29 C18 1.270 1_655 S
O30 Eu11 2.394 . S
O30 C19 1.251 . S
O31 Eu1 2.374 1_455 S
O31 C19 1.251 . S
H32 C3 0.931 . S
H33 C4 0.931 . S
H34 C6 0.931 . S
H35 C7 0.931 . S
H36 C13 0.931 . S
H37 C14 0.931 . S
H38 C16 0.931 . S
H39 C17 0.931 . S
C40 Eu41 2.835 . S
C40 C42 1.500 . S
C40 O60 1.257 . S
C40 O61 1.260 . S
Eu41 C40 2.835 . S
Eu41 O60 2.473 . S
Eu41 O61 2.480 . S
Eu41 O62 2.430 . S
Eu41 O63 2.670 . S
Eu41 O64 2.394 . S
Eu41 O69 2.355 . S
Eu41 O71 2.374 1_545 S
C42 C40 1.500 . S
C42 C43 1.377 . S
C42 C47 1.377 . S
C43 C42 1.377 . S
C43 C44 1.395 . S
C43 H72 0.931 . S
C44 C43 1.395 . S
C44 C45 1.383 . S
C44 H73 0.931 . S
C45 C44 1.383 . S
C45 C46 1.394 . S
C46 C45 1.394 . S
C46 C47 1.378 . S
C46 H74 0.931 . S
C47 C42 1.377 . S
C47 C46 1.378 . S
C47 H75 0.931 . S
C48 O62 1.259 . S
C48 O63 1.270 . S
C49 O64 1.251 . S
C49 O65 1.251 . S
C50 Eu51 2.828 1_565 S
C50 C52 1.500 . S
C50 O66 1.257 . S
C50 O67 1.260 . S
Eu51 C50 2.828 1_545 S
Eu51 O63 2.359 . S
Eu51 O65 2.379 . S
Eu51 O66 2.467 1_545 S
Eu51 O67 2.473 1_545 S
Eu51 O68 2.432 . S
Eu51 O69 2.676 . S
Eu51 O70 2.394 1_545 S
C52 C50 1.500 . S
C52 C53 1.377 . S
C52 C57 1.377 . S
C53 C52 1.377 . S
C53 C54 1.395 . S
C53 H76 0.931 . S
C54 C53 1.395 . S
C54 C55 1.383 . S
C54 H77 0.931 . S
C55 C54 1.383 . S
C55 C56 1.394 . S
C56 C55 1.394 . S
C56 C57 1.378 . S
C56 H78 0.931 . S
C57 C52 1.377 . S
C57 C56 1.378 . S
C57 H79 0.931 . S
C58 O68 1.259 . S
C58 O69 1.270 . S
C59 O70 1.251 . S
C59 O71 1.251 . S
O60 C40 1.257 . S
O60 Eu41 2.473 . S
O61 C40 1.260 . S
O61 Eu41 2.480 . S
O62 Eu41 2.430 . S
O62 C48 1.259 . S
O63 Eu41 2.670 . S
O63 C48 1.270 . S
O63 Eu51 2.359 . S
O64 Eu41 2.394 . S
O64 C49 1.251 . S
O65 C49 1.251 . S
O65 Eu51 2.379 . S
O66 C50 1.257 . S
O66 Eu51 2.467 1_565 S
O67 C50 1.260 . S
O67 Eu51 2.473 1_565 S
O68 Eu51 2.432 . S
O68 C58 1.259 . S
O69 Eu41 2.355 . S
O69 Eu51 2.676 . S
O69 C58 1.270 . S
O70 Eu51 2.394 1_565 S
O70 C59 1.251 . S
O71 Eu41 2.374 1_565 S
O71 C59 1.251 . S
H72 C43 0.931 . S
H73 C44 0.931 . S
H74 C46 0.931 . S
H75 C47 0.931 . S
H76 C53 0.931 . S
H77 C54 0.931 . S
H78 C56 0.931 . S
H79 C57 0.931 . S
C80 Eu81 2.835 . S
C80 C82 1.500 . S
C80 O100 1.257 . S
C80 O101 1.260 . S
Eu81 C80 2.835 . S
Eu81 O100 2.473 . S
Eu81 O101 2.480 . S
Eu81 O102 2.430 . S
Eu81 O103 2.670 . S
Eu81 O104 2.394 . S
Eu81 O109 2.355 . S
Eu81 O111 2.374 . S
C82 C80 1.500 . S
C82 C83 1.377 . S
C82 C87 1.377 . S
C83 C82 1.377 . S
C83 C84 1.395 . S
C83 H112 0.931 . S
C84 C83 1.395 . S
C84 C85 1.383 . S
C84 H113 0.931 . S
C85 C84 1.383 . S
C85 C86 1.394 . S
C86 C85 1.394 . S
C86 C87 1.378 . S
C86 H114 0.931 . S
C87 C82 1.377 . S
C87 C86 1.378 . S
C87 H115 0.931 . S
C88 O102 1.259 . S
C88 O103 1.270 . S
C89 O104 1.251 . S
C89 O105 1.251 . S
C90 Eu91 2.835 . S
C90 C92 1.500 . S
C90 O106 1.257 . S
C90 O107 1.260 . S
Eu91 C90 2.835 . S
Eu91 O103 2.355 . S
Eu91 O105 2.374 . S
Eu91 O106 2.473 . S
Eu91 O107 2.480 . S
Eu91 O108 2.430 . S
Eu91 O109 2.670 . S
Eu91 O110 2.394 . S
C92 C90 1.500 . S
C92 C93 1.377 . S
C92 C97 1.377 . S
C93 C92 1.377 . S
C93 C94 1.395 . S
C93 H116 0.931 . S
C94 C93 1.395 . S
C94 C95 1.383 . S
C94 H117 0.931 . S
C95 C94 1.383 . S
C95 C96 1.394 . S
C96 C95 1.394 . S
C96 C97 1.378 . S
C96 H118 0.931 . S
C97 C92 1.377 . S
C97 C96 1.378 . S
C97 H119 0.931 . S
C98 O108 1.259 . S
C98 O109 1.270 . S
C99 O110 1.251 . S
C99 O111 1.251 . S
O100 C80 1.257 . S
O100 Eu81 2.473 . S
O101 C80 1.260 . S
O101 Eu81 2.480 . S
O102 Eu81 2.430 . S
O102 C88 1.259 . S
O103 Eu81 2.670 . S
O103 C88 1.270 . S
O103 Eu91 2.355 . S
O104 Eu81 2.394 . S
O104 C89 1.251 . S
O105 C89 1.251 . S
O105 Eu91 2.374 . S
O106 C90 1.257 . S
O106 Eu91 2.473 . S
O107 C90 1.260 . S
O107 Eu91 2.480 . S
O108 Eu91 2.430 . S
O108 C98 1.259 . S
O109 Eu81 2.355 . S
O109 Eu91 2.670 . S
O109 C98 1.270 . S
O110 Eu91 2.394 . S
O110 C99 1.251 . S
O111 Eu81 2.374 . S
O111 C99 1.251 . S
H112 C83 0.931 . S
H113 C84 0.931 . S
H114 C86 0.931 . S
H115 C87 0.931 . S
H116 C93 0.931 . S
H117 C94 0.931 . S
H118 C96 0.931 . S
H119 C97 0.931 . S
H120 C123 0.929 1_565 S
H121 C126 0.929 . S
H122 C128 0.930 . S
C123 H120 0.929 1_545 S
C123 C124 1.398 1_545 S
C123 C125 1.396 . S
C124 C123 1.398 1_565 S
C124 C128 1.407 1_565 S
C125 C123 1.396 . S
C125 C126 1.394 . S
C126 H121 0.929 . S
C126 C125 1.394 . S
C126 C127 1.382 . S
C127 C126 1.382 . S
C127 C128 1.392 . S
C127 N129 1.420 . S
C128 H122 0.930 . S
C128 C124 1.407 1_545 S
C128 C127 1.392 . S
N129 C127 1.420 . S
N129 C130 1.244 . S
C130 N129 1.244 . S
H131 C134 0.929 . S
H132 C137 0.929 . S
H133 C139 0.930 . S
C134 H131 0.929 . S
C134 C135 1.398 . S
C134 C136 1.396 . S
C135 C134 1.398 . S
C135 C139 1.407 . S
C136 C134 1.396 . S
C136 C137 1.394 . S
C137 H132 0.929 . S
C137 C136 1.394 . S
C137 C138 1.382 . S
C138 C137 1.382 . S
C138 C139 1.392 . S
C138 N140 1.420 . S
C139 H133 0.930 . S
C139 C135 1.407 . S
C139 C138 1.392 . S
N140 C138 1.420 . S
N140 C141 1.244 . S
C141 N140 1.244 . S
H142 C145 0.929 . S
H143 C148 0.929 . S
H144 C150 0.930 . S
C145 H142 0.929 . S
C145 C146 1.398 . S
C145 C147 1.396 . S
C146 C145 1.398 . S
C146 C150 1.407 . S
C147 C145 1.396 . S
C147 C148 1.394 1_655 S
C148 H143 0.929 . S
C148 C147 1.394 1_455 S
C148 C149 1.382 . S
C149 C148 1.382 . S
C149 C150 1.392 1_455 S
C149 N151 1.420 . S
C150 H144 0.930 . S
C150 C146 1.407 . S
C150 C149 1.392 1_655 S
N151 C149 1.420 . S
N151 C152 1.244 . S
C152 N151 1.244 . S
H153 C156 0.929 . S
H154 C159 0.929 1_655 S
H155 C161 0.930 . S
C156 H153 0.929 . S
C156 C157 1.398 . S
C156 C158 1.396 . S
C157 C156 1.398 . S
C157 C161 1.407 . S
C158 C156 1.396 . S
C158 C159 1.394 . S
C159 H154 0.929 1_455 S
C159 C158 1.394 . S
C159 C160 1.382 . S
C160 C159 1.382 . S
C160 C161 1.392 . S
C160 N162 1.420 1_455 S
C161 H155 0.930 . S
C161 C157 1.407 . S
C161 C160 1.392 . S
N162 C160 1.420 1_655 S
N162 C163 1.244 . S
C163 N162 1.244 . S
H164 C167 0.929 . S
H165 C170 0.929 . S
H166 C172 0.930 . S
C167 H164 0.929 . S
C167 C168 1.398 . S
C167 C169 1.396 . S
C168 C167 1.398 . S
C168 C172 1.407 . S
C169 C167 1.396 . S
C169 C170 1.394 1_545 S
C170 H165 0.929 . S
C170 C169 1.394 1_565 S
C170 C171 1.382 1_565 S
C171 C170 1.382 1_545 S
C171 C172 1.392 . S
C171 N173 1.420 1_545 S
C172 H166 0.930 . S
C172 C168 1.407 . S
C172 C171 1.392 . S
N173 C171 1.420 1_565 S
N173 C174 1.244 . S
C174 N173 1.244 . S
H175 C178 0.929 . S
H176 C181 0.929 . S
H177 C183 0.930 . S
C178 H175 0.929 . S
C178 C179 1.398 . S
C178 C180 1.396 . S
C179 C178 1.398 . S
C179 C183 1.407 . S
C180 C178 1.396 . S
C180 C181 1.394 . S
C181 H176 0.929 . S
C181 C180 1.394 . S
C181 C182 1.382 . S
C182 C181 1.382 . S
C182 C183 1.392 . S
C182 N184 1.420 . S
C183 H177 0.930 . S
C183 C179 1.407 . S
C183 C182 1.392 . S
N184 C182 1.420 . S
N184 C185 1.244 . S
C185 N184 1.244 . S
C186 C187 1.363 . S
C186 C192 1.379 . S
C186 N194 1.356 . S
C187 C186 1.363 . S
C187 C193 1.363 . S
C188 C189 1.363 . S
C188 C193 1.379 . S
C188 N195 1.356 . S
C189 C188 1.363 . S
C189 C192 1.363 . S
N190 C192 1.356 . S
N190 H202 0.984 . S
N190 H203 0.985 . S
N191 C193 1.356 . S
N191 H196 0.984 . S
N191 H197 0.985 . S
C192 C186 1.379 . S
C192 C189 1.363 . S
C192 N190 1.356 . S
C193 C187 1.363 . S
C193 C188 1.379 . S
C193 N191 1.356 . S
N194 C186 1.356 . S
N194 H200 0.984 . S
N194 H201 0.984 . S
N195 C188 1.356 . S
N195 H198 0.984 . S
N195 H199 0.985 . S
H196 N191 0.984 . S
H197 N191 0.985 . S
H198 N195 0.984 . S
H199 N195 0.985 . S
H200 N194 0.984 . S
H201 N194 0.984 . S
H202 N190 0.984 . S
H203 N190 0.985 . S
C204 C205 1.363 . S
C204 C210 1.379 . S
C204 N212 1.356 . S
C205 C204 1.363 . S
C205 C211 1.363 . S
C206 C207 1.363 . S
C206 C211 1.379 . S
C206 N213 1.356 . S
C207 C206 1.363 . S
C207 C210 1.363 . S
N208 C210 1.356 . S
N208 H220 0.984 . S
N208 H221 0.985 . S
N209 C211 1.356 . S
N209 H214 0.984 . S
N209 H215 0.985 . S
C210 C204 1.379 . S
C210 C207 1.363 . S
C210 N208 1.356 . S
C211 C205 1.363 . S
C211 C206 1.379 . S
C211 N209 1.356 . S
N212 C204 1.356 . S
N212 H218 0.984 . S
N212 H219 0.984 . S
N213 C206 1.356 . S
N213 H216 0.984 . S
N213 H217 0.985 . S
H214 N209 0.984 . S
H215 N209 0.985 . S
H216 N213 0.984 . S
H217 N213 0.985 . S
H218 N212 0.984 . S
H219 N212 0.984 . S
H220 N208 0.984 . S
H221 N208 0.985 . S
C222 C223 1.363 . S
C222 C228 1.379 . S
C222 N230 1.356 . S
C223 C222 1.363 . S
C223 C229 1.363 . S
C224 C225 1.363 . S
C224 C229 1.379 . S
C224 N231 1.356 . S
C225 C224 1.363 . S
C225 C228 1.363 . S
N226 C228 1.356 . S
N226 H238 0.984 . S
N226 H239 0.985 . S
N227 C229 1.356 . S
N227 H232 0.984 . S
N227 H233 0.985 . S
C228 C222 1.379 . S
C228 C225 1.363 . S
C228 N226 1.356 . S
C229 C223 1.363 . S
C229 C224 1.379 . S
C229 N227 1.356 . S
N230 C222 1.356 . S
N230 H236 0.984 . S
N230 H237 0.984 . S
N231 C224 1.356 . S
N231 H234 0.984 . S
N231 H235 0.985 . S
H232 N227 0.984 . S
H233 N227 0.985 . S
H234 N231 0.984 . S
H235 N231 0.985 . S
H236 N230 0.984 . S
H237 N230 0.984 . S
H238 N226 0.984 . S
H239 N226 0.985 . S
C240 C241 1.363 . S
C240 C246 1.379 . S
C240 N248 1.356 . S
C241 C240 1.363 . S
C241 C247 1.363 . S
C242 C243 1.363 . S
C242 C247 1.379 . S
C242 N249 1.356 . S
C243 C242 1.363 . S
C243 C246 1.363 . S
N244 C246 1.356 . S
N244 H256 0.984 . S
N244 H257 0.985 . S
N245 C247 1.356 . S
N245 H250 0.984 . S
N245 H251 0.985 . S
C246 C240 1.379 . S
C246 C243 1.363 . S
C246 N244 1.356 . S
C247 C241 1.363 . S
C247 C242 1.379 . S
C247 N245 1.356 . S
N248 C240 1.356 . S
N248 H254 0.984 . S
N248 H255 0.984 . S
N249 C242 1.356 . S
N249 H252 0.984 . S
N249 H253 0.985 . S
H250 N245 0.984 . S
H251 N245 0.985 . S
H252 N249 0.984 . S
H253 N249 0.985 . S
H254 N248 0.984 . S
H255 N248 0.984 . S
H256 N244 0.984 . S
H257 N244 0.985 . S
C258 C259 1.363 . S
C258 C264 1.379 . S
C258 N266 1.356 . S
C259 C258 1.363 . S
C259 C265 1.363 . S
C260 C261 1.363 . S
C260 C265 1.379 . S
C260 N267 1.356 . S
C261 C260 1.363 . S
C261 C264 1.363 . S
N262 C264 1.356 . S
N262 H274 0.984 . S
N262 H275 0.985 . S
N263 C265 1.356 . S
N263 H268 0.984 . S
N263 H269 0.985 . S
C264 C258 1.379 . S
C264 C261 1.363 . S
C264 N262 1.356 . S
C265 C259 1.363 . S
C265 C260 1.379 . S
C265 N263 1.356 . S
N266 C258 1.356 . S
N266 H272 0.984 . S
N266 H273 0.984 . S
N267 C260 1.356 . S
N267 H270 0.984 . S
N267 H271 0.985 . S
H268 N263 0.984 . S
H269 N263 0.985 . S
H270 N267 0.984 . S
H271 N267 0.985 . S
H272 N266 0.984 . S
H273 N266 0.984 . S
H274 N262 0.984 . S
H275 N262 0.985 . S
C276 C277 1.363 . S
C276 C282 1.379 . S
C276 N284 1.356 . S
C277 C276 1.363 . S
C277 C283 1.363 . S
C278 C279 1.363 . S
C278 C283 1.379 . S
C278 N285 1.356 . S
C279 C278 1.363 . S
C279 C282 1.363 . S
N280 C282 1.356 . S
N280 H292 0.984 . S
N280 H293 0.985 . S
N281 C283 1.356 . S
N281 H286 0.984 . S
N281 H287 0.985 . S
C282 C276 1.379 . S
C282 C279 1.363 . S
C282 N280 1.356 . S
C283 C277 1.363 . S
C283 C278 1.379 . S
C283 N281 1.356 . S
N284 C276 1.356 . S
N284 H290 0.984 . S
N284 H291 0.984 . S
N285 C278 1.356 . S
N285 H288 0.984 . S
N285 H289 0.985 . S
H286 N281 0.984 . S
H287 N281 0.985 . S
H288 N285 0.984 . S
H289 N285 0.985 . S
H290 N284 0.984 . S
H291 N284 0.984 . S
H292 N280 0.984 . S
H293 N280 0.985 . S
C294 C295 1.363 . S
C294 C300 1.379 . S
C294 N302 1.356 . S
C295 C294 1.363 . S
C295 C301 1.363 . S
C296 C297 1.363 . S
C296 C301 1.379 . S
C296 N303 1.356 . S
C297 C296 1.363 . S
C297 C300 1.363 . S
N298 C300 1.356 . S
N298 H310 0.984 . S
N298 H311 0.985 . S
N299 C301 1.356 . S
N299 H304 0.984 . S
N299 H305 0.985 . S
C300 C294 1.379 . S
C300 C297 1.363 . S
C300 N298 1.356 . S
C301 C295 1.363 . S
C301 C296 1.379 . S
C301 N299 1.356 . S
N302 C294 1.356 . S
N302 H308 0.984 . S
N302 H309 0.984 . S
N303 C296 1.356 . S
N303 H306 0.984 . S
N303 H307 0.985 . S
H304 N299 0.984 . S
H305 N299 0.985 . S
H306 N303 0.984 . S
H307 N303 0.985 . S
H308 N302 0.984 . S
H309 N302 0.984 . S
H310 N298 0.984 . S
H311 N298 0.985 . S
C312 C313 1.363 . S
C312 C318 1.379 . S
C312 N320 1.356 . S
C313 C312 1.363 . S
C313 C319 1.363 . S
C314 C315 1.363 . S
C314 C319 1.379 . S
C314 N321 1.356 . S
C315 C314 1.363 . S
C315 C318 1.363 . S
N316 C318 1.356 . S
N316 H328 0.984 . S
N316 H329 0.985 . S
N317 C319 1.356 . S
N317 H322 0.984 . S
N317 H323 0.985 . S
C318 C312 1.379 . S
C318 C315 1.363 . S
C318 N316 1.356 . S
C319 C313 1.363 . S
C319 C314 1.379 . S
C319 N317 1.356 . S
N320 C312 1.356 . S
N320 H326 0.984 . S
N320 H327 0.984 . S
N321 C314 1.356 . S
N321 H324 0.984 . S
N321 H325 0.985 1_655 S
H322 N317 0.984 . S
H323 N317 0.985 . S
H324 N321 0.984 . S
H325 N321 0.985 1_455 S
H326 N320 0.984 . S
H327 N320 0.984 . S
H328 N316 0.984 . S
H329 N316 0.985 . S
C330 C331 1.363 . S
C330 C336 1.379 . S
C330 N338 1.356 . S
C331 C330 1.363 . S
C331 C337 1.363 . S
C332 C333 1.363 . S
C332 C337 1.379 . S
C332 N339 1.356 . S
C333 C332 1.363 . S
C333 C336 1.363 . S
N334 C336 1.356 . S
N334 H346 0.984 . S
N334 H347 0.985 1_565 S
N335 C337 1.356 . S
N335 H340 0.984 . S
N335 H341 0.985 . S
C336 C330 1.379 . S
C336 C333 1.363 . S
C336 N334 1.356 . S
C337 C331 1.363 . S
C337 C332 1.379 . S
C337 N335 1.356 . S
N338 C330 1.356 . S
N338 H344 0.984 . S
N338 H345 0.984 . S
N339 C332 1.356 . S
N339 H342 0.984 1_565 S
N339 H343 0.985 . S
H340 N335 0.984 . S
H341 N335 0.985 . S
H342 N339 0.984 1_545 S
H343 N339 0.985 . S
H344 N338 0.984 . S
H345 N338 0.984 . S
H346 N334 0.984 . S
H347 N334 0.985 1_545 S
C348 C349 1.363 . S
C348 C354 1.379 . S
C348 N356 1.356 . S
C349 C348 1.363 . S
C349 C355 1.363 . S
C350 C351 1.363 . S
C350 C355 1.379 . S
C350 N357 1.356 . S
C351 C350 1.363 . S
C351 C354 1.363 . S
N352 C354 1.356 . S
N352 H364 0.984 . S
N352 H365 0.985 . S
N353 C355 1.356 . S
N353 H358 0.984 . S
N353 H359 0.985 . S
C354 C348 1.379 . S
C354 C351 1.363 . S
C354 N352 1.356 . S
C355 C349 1.363 . S
C355 C350 1.379 . S
C355 N353 1.356 . S
N356 C348 1.356 . S
N356 H362 0.984 . S
N356 H363 0.984 . S
N357 C350 1.356 . S
N357 H360 0.984 . S
N357 H361 0.985 . S
H358 N353 0.984 . S
H359 N353 0.985 . S
H360 N357 0.984 . S
H361 N357 0.985 . S
H362 N356 0.984 . S
H363 N356 0.984 . S
H364 N352 0.984 . S
H365 N352 0.985 . S
C366 C367 1.363 . S
C366 C372 1.379 . S
C366 N374 1.356 . S
C367 C366 1.363 . S
C367 C373 1.363 . S
C368 C369 1.363 . S
C368 C373 1.379 . S
C368 N375 1.356 . S
C369 C368 1.363 . S
C369 C372 1.363 . S
N370 C372 1.356 . S
N370 H382 0.984 . S
N370 H383 0.985 . S
N371 C373 1.356 . S
N371 H376 0.984 . S
N371 H377 0.985 . S
C372 C366 1.379 . S
C372 C369 1.363 . S
C372 N370 1.356 . S
C373 C367 1.363 . S
C373 C368 1.379 . S
C373 N371 1.356 . S
N374 C366 1.356 . S
N374 H380 0.984 . S
N374 H381 0.984 . S
N375 C368 1.356 . S
N375 H378 0.984 . S
N375 H379 0.985 . S
H376 N371 0.984 . S
H377 N371 0.985 . S
H378 N375 0.984 . S
H379 N375 0.985 . S
H380 N374 0.984 . S
H381 N374 0.984 . S
H382 N370 0.984 . S
H383 N370 0.985 . S
C384 C385 1.363 . S
C384 C390 1.379 . S
C384 N392 1.356 . S
C385 C384 1.363 . S
C385 C391 1.363 . S
C386 C387 1.363 . S
C386 C391 1.379 . S
C386 N393 1.356 . S
C387 C386 1.363 . S
C387 C390 1.363 . S
N388 C390 1.356 . S
N388 H400 0.984 . S
N388 H401 0.985 . S
N389 C391 1.356 . S
N389 H394 0.984 . S
N389 H395 0.985 . S
C390 C384 1.379 . S
C390 C387 1.363 . S
C390 N388 1.356 . S
C391 C385 1.363 . S
C391 C386 1.379 . S
C391 N389 1.356 . S
N392 C384 1.356 . S
N392 H398 0.984 . S
N392 H399 0.984 . S
N393 C386 1.356 . S
N393 H396 0.984 . S
N393 H397 0.985 . S
H394 N389 0.984 . S
H395 N389 0.985 . S
H396 N393 0.984 . S
H397 N393 0.985 . S
H398 N392 0.984 . S
H399 N392 0.984 . S
H400 N388 0.984 . S
H401 N388 0.985 . S
C402 C403 1.363 1_655 S
C402 C408 1.379 1_554 S
C402 N410 1.356 . S
C403 C402 1.363 1_455 S
C403 C409 1.363 . S
C404 C405 1.363 1_454 S
C404 C409 1.379 . S
C404 N411 1.356 1_554 S
C405 C404 1.363 1_656 S
C405 C408 1.363 . S
N406 C408 1.356 . S
N406 H418 0.984 . S
N406 H419 0.985 . S
N407 C409 1.356 . S
N407 H412 0.984 . S
N407 H413 0.985 . S
C408 C402 1.379 1_556 S
C408 C405 1.363 . S
C408 N406 1.356 . S
C409 C403 1.363 . S
C409 C404 1.379 . S
C409 N407 1.356 . S
N410 C402 1.356 . S
N410 H416 0.984 . S
N410 H417 0.984 . S
N411 C404 1.356 1_556 S
N411 H414 0.984 . S
N411 H415 0.985 1_556 S
H412 N407 0.984 . S
H413 N407 0.985 . S
H414 N411 0.984 . S
H415 N411 0.985 1_554 S
H416 N410 0.984 . S
H417 N410 0.984 . S
H418 N406 0.984 . S
H419 N406 0.985 . S
C420 C421 1.363 . S
C420 C426 1.379 . S
C420 N428 1.356 1_545 S
C421 C420 1.363 . S
C421 C427 1.363 . S
C422 C423 1.363 . S
C422 C427 1.379 . S
C422 N429 1.356 . S
C423 C422 1.363 . S
C423 C426 1.363 . S
N424 C426 1.356 1_565 S
N424 H436 0.984 . S
N424 H437 0.985 . S
N425 C427 1.356 . S
N425 H430 0.984 . S
N425 H431 0.985 . S
C426 C420 1.379 . S
C426 C423 1.363 . S
C426 N424 1.356 1_545 S
C427 C421 1.363 . S
C427 C422 1.379 . S
C427 N425 1.356 . S
N428 C420 1.356 1_565 S
N428 H434 0.984 . S
N428 H435 0.984 . S
N429 C422 1.356 . S
N429 H432 0.984 . S
N429 H433 0.985 . S
H430 N425 0.984 . S
H431 N425 0.985 . S
H432 N429 0.984 . S
H433 N429 0.985 . S
H434 N428 0.984 . S
H435 N428 0.984 . S
H436 N424 0.984 . S
H437 N424 0.985 . S
C438 C439 1.363 . S
C438 C444 1.379 . S
C438 N446 1.356 . S
C439 C438 1.363 . S
C439 C445 1.363 . S
C440 C441 1.363 . S
C440 C445 1.379 . S
C440 N447 1.356 . S
C441 C440 1.363 . S
C441 C444 1.363 . S
N442 C444 1.356 . S
N442 H454 0.984 . S
N442 H455 0.985 . S
N443 C445 1.356 . S
N443 H448 0.984 . S
N443 H449 0.985 . S
C444 C438 1.379 . S
C444 C441 1.363 . S
C444 N442 1.356 . S
C445 C439 1.363 . S
C445 C440 1.379 . S
C445 N443 1.356 . S
N446 C438 1.356 . S
N446 H452 0.984 . S
N446 H453 0.984 . S
N447 C440 1.356 . S
N447 H450 0.984 . S
N447 H451 0.985 . S
H448 N443 0.984 . S
H449 N443 0.985 . S
H450 N447 0.984 . S
H451 N447 0.985 . S
H452 N446 0.984 . S
H453 N446 0.984 . S
H454 N442 0.984 . S
H455 N442 0.985 . S
C456 C457 1.363 . S
C456 C462 1.379 . S
C456 N464 1.356 . S
C457 C456 1.363 . S
C457 C463 1.363 1_545 S
C458 C459 1.363 1_565 S
C458 C463 1.379 . S
C458 N465 1.356 . S
C459 C458 1.363 1_545 S
C459 C462 1.363 . S
N460 C462 1.356 . S
N460 H472 0.984 . S
N460 H473 0.985 . S
N461 C463 1.356 . S
N461 H466 0.984 . S
N461 H467 0.985 . S
C462 C456 1.379 . S
C462 C459 1.363 . S
C462 N460 1.356 . S
C463 C457 1.363 1_565 S
C463 C458 1.379 . S
C463 N461 1.356 . S
N464 C456 1.356 . S
N464 H470 0.984 . S
N464 H471 0.984 . S
N465 C458 1.356 . S
N465 H468 0.984 . S
N465 H469 0.985 . S
H466 N461 0.984 . S
H467 N461 0.985 . S
H468 N465 0.984 . S
H469 N465 0.985 . S
H470 N464 0.984 . S
H471 N464 0.984 . S
H472 N460 0.984 . S
H473 N460 0.985 . S
C474 C475 1.363 . S
C474 C480 1.379 . S
C474 N482 1.356 . S
C475 C474 1.363 . S
C475 C481 1.363 . S
C476 C477 1.363 1_556 S
C476 C481 1.379 . S
C476 N483 1.356 1_556 S
C477 C476 1.363 1_554 S
C477 C480 1.363 1_554 S
N478 C480 1.356 1_554 S
N478 H490 0.984 . S
N478 H491 0.985 . S
N479 C481 1.356 . S
N479 H484 0.984 . S
N479 H485 0.985 . S
C480 C474 1.379 . S
C480 C477 1.363 1_556 S
C480 N478 1.356 1_556 S
C481 C475 1.363 . S
C481 C476 1.379 . S
C481 N479 1.356 . S
N482 C474 1.356 . S
N482 H488 0.984 . S
N482 H489 0.984 . S
N483 C476 1.356 1_554 S
N483 H486 0.984 . S
N483 H487 0.985 . S
H484 N479 0.984 . S
H485 N479 0.985 . S
H486 N483 0.984 . S
H487 N483 0.985 . S
H488 N482 0.984 . S
H489 N482 0.984 . S
H490 N478 0.984 . S
H491 N478 0.985 . S
C492 C493 1.363 . S
C492 C498 1.379 . S
C492 N500 1.356 . S
C493 C492 1.363 . S
C493 C499 1.363 1_455 S
C494 C495 1.363 1_655 S
C494 C499 1.379 . S
C494 N501 1.356 . S
C495 C494 1.363 1_455 S
C495 C498 1.363 . S
N496 C498 1.356 . S
N496 H508 0.984 . S
N496 H509 0.985 . S
N497 C499 1.356 . S
N497 H502 0.984 . S
N497 H503 0.985 . S
C498 C492 1.379 . S
C498 C495 1.363 . S
C498 N496 1.356 . S
C499 C493 1.363 1_655 S
C499 C494 1.379 . S
C499 N497 1.356 . S
N500 C492 1.356 . S
N500 H506 0.984 . S
N500 H507 0.984 . S
N501 C494 1.356 . S
N501 H504 0.984 . S
N501 H505 0.985 . S
H502 N497 0.984 . S
H503 N497 0.985 . S
H504 N501 0.984 . S
H505 N501 0.985 . S
H506 N500 0.984 . S
H507 N500 0.984 . S
H508 N496 0.984 . S
H509 N496 0.985 . S
C187 C19 3.086 . S
C189 C185 3.030 . S
C205 C49 3.157 . S
C207 C163 3.083 . S
C223 C99 3.076 . S
C225 C174 3.016 . S
C241 C9 3.049 . S
C243 C179 3.006 . S
C261 C157 2.962 . S
C259 C59 2.997 . S
C279 C168 3.015 . S
C277 C89 3.057 . S
C295 C55 0.825 . S
C297 C141 0.841 . S
C313 C85 0.709 . S
C315 C146 0.665 . S
C331 C15 0.505 . S
C333 C124 0.422 . S
C351 C135 0.712 . S
C349 C45 0.731 . S
C369 C152 0.732 . S
C367 C95 0.735 . S
C385 C5 0.750 . S
C387 C130 0.750 . S
C405 C147 1.180 . S
C403 C18 1.193 . S
C421 C58 1.054 . S
C423 C125 1.092 . S
C439 C98 1.146 . S
C441 C136 1.146 . S
C459 C169 1.769 . S
C457 C48 1.719 . S
C477 C180 1.799 . S
C475 C88 1.718 . S
C493 C8 1.714 . S
C495 C158 1.848 . S
