# Generated by pormake.
# Topology rtl, (3,6)-cn, num edge types: 1
# Building blocks:
#     Node 0, Type 0, BuildingBlock: VETTIZ_charged_linker_0, # of connection points: 3
#     Node 1, Type 0, BuildingBlock: VETTIZ_charged_linker_0, # of connection points: 3
#     Node 2, Type 0, BuildingBlock: VETTIZ_charged_linker_0, # of connection points: 3
#     Node 3, Type 0, BuildingBlock: VETTIZ_charged_linker_0, # of connection points: 3
#     Node 4, Type 1, BuildingBlock: KUMBUR_clean_sbu_1, # of connection points: 6
#     Node 5, Type 1, BuildingBlock: KUMBUR_clean_sbu_1, # of connection points: 6
#     Edge 6, Type (0, 1), BuildingBlock: OJICUG_clean_linker_0, # of connection points: 2
#     Edge 7, Type (0, 1), BuildingBlock: OJICUG_clean_linker_0, # of connection points: 2
#     Edge 8, Type (0, 1), BuildingBlock: OJICUG_clean_linker_0, # of connection points: 2
#     Edge 9, Type (0, 1), BuildingBlock: OJICUG_clean_linker_0, # of connection points: 2
#     Edge 10, Type (0, 1), BuildingBlock: OJICUG_clean_linker_0, # of connection points: 2
#     Edge 11, Type (0, 1), BuildingBlock: OJICUG_clean_linker_0, # of connection points: 2
#     Edge 12, Type (0, 1), BuildingBlock: OJICUG_clean_linker_0, # of connection points: 2
#     Edge 13, Type (0, 1), BuildingBlock: OJICUG_clean_linker_0, # of connection points: 2
#     Edge 14, Type (0, 1), BuildingBlock: OJICUG_clean_linker_0, # of connection points: 2
#     Edge 15, Type (0, 1), BuildingBlock: OJICUG_clean_linker_0, # of connection points: 2
#     Edge 16, Type (0, 1), BuildingBlock: OJICUG_clean_linker_0, # of connection points: 2
#     Edge 17, Type (0, 1), BuildingBlock: OJICUG_clean_linker_0, # of connection points: 2
# Relax obj value: 0.018
# Max RMSD: 0.114
# Mean RMSD: 0.067
data_MOF--net-rtl--node1-KUMBUR_clean_sbu_1--node2-VETTIZ_charged_linker_0--edge1-OJICUG_clean_linker_0
_symmetry_space_group_name_H-M    P1
_symmetry_Int_Tables_number       1
_symmetry_cell_setting            triclinic
loop_
_symmetry_equiv_pos_as_xyz
'x, y, z'
_cell_length_a     30.627397
_cell_length_b     31.527068
_cell_length_c     28.195545
_cell_angle_alpha  77.127514
_cell_angle_beta   98.582697
_cell_angle_gamma 91.15902
loop_
_atom_site_label
_atom_site_type_symbol
_atom_site_fract_x
_atom_site_fract_y
_atom_site_fract_z
_atom_type_partial_charge
C0 C 0.16008 0.90452 0.84221 0.0
C1 C 0.1288 0.93855 0.83116 0.0
C2 C 0.1177 0.95627 0.86953 0.0
C3 C 0.16666 0.904 0.92906 0.0
C4 C 0.1783 0.88775 0.89104 0.0
C5 C 0.21039 0.85027 0.90865 0.0
H6 H 0.34067 0.71747 0.09361 0.0
C7 C 0.19037 0.87772 0.97557 0.0
C8 C 0.21603 0.84635 0.9638 0.0
H9 H 0.31968 0.71868 0.93779 0.0
H10 H 0.26783 0.77705 0.92289 0.0
H11 H 0.33553 0.82357 0.08571 0.0
H12 H 0.23449 0.72557 0.09686 0.0
H13 H 0.22572 0.7617 0.1339 0.0
H14 H 0.27566 0.72905 0.14827 0.0
H15 H 0.33566 0.77986 0.13898 0.0
H16 H 0.30362 0.82872 0.13148 0.0
C17 C 0.25367 0.86412 0.88735 0.0
C18 C 0.1882 0.80955 0.89349 0.0
C19 C 0.16433 0.90928 0.13728 0.0
C20 C 0.17971 0.89037 0.18678 0.0
C21 C 0.20984 0.85503 0.19798 0.0
C22 C 0.22474 0.83924 0.16016 0.0
C23 C 0.20889 0.85867 0.11072 0.0
C24 C 0.17907 0.89304 0.10022 0.0
C25 C 0.16455 0.90932 0.04609 0.0
C26 C 0.19036 0.87907 0.02548 0.0
C27 C 0.21655 0.84944 0.06327 0.0
C28 C 0.17934 0.95718 0.03143 0.0
C29 C 0.11403 0.90268 0.0352 0.0
C30 C 0.3248 0.73018 0.0563 0.0
C31 C 0.33584 0.71392 0.01667 0.0
C32 C 0.31369 0.73141 0.96889 0.0
C33 C 0.2829 0.76524 0.96022 0.0
C34 C 0.27305 0.78173 0.99968 0.0
C35 C 0.29304 0.76379 0.04695 0.0
C36 C 0.27561 0.78407 0.08433 0.0
C37 C 0.24335 0.81813 0.05118 0.0
C38 C 0.24251 0.81652 1.0017 0.0
C39 C 0.31452 0.80508 0.11199 0.0
C40 C 0.25181 0.74842 0.11803 0.0
H41 H 0.12619 0.95346 0.94623 0.0
H42 H 0.16975 0.89062 0.8134 0.0
H43 H 0.15156 0.81179 0.88938 0.0
H44 H 0.19683 0.7792 0.92166 0.0
H45 H 0.19687 0.80562 0.85782 0.0
H46 H 0.26097 0.89881 0.88753 0.0
H47 H 0.25101 0.86054 0.84872 0.0
H48 H 0.28308 0.84588 0.90911 0.0
H49 H 0.14048 0.93588 0.12741 0.0
H50 H 0.22219 0.83998 0.23592 0.0
H51 H 0.24798 0.81257 0.17079 0.0
H52 H 0.21146 0.9624 0.05352 0.0
H53 H 0.15475 0.97998 0.03772 0.0
H54 H 0.18526 0.96671 0.99281 0.0
H55 H 0.10391 0.87228 0.05935 0.0
H56 H 0.10289 0.89865 0.9974 0.0
H57 H 0.09534 0.93015 0.04173 0.0
H58 H 0.09348 0.98241 0.86183 0.0
C59 C 0.13649 0.93916 0.91848 0.0
C60 C 0.65969 0.64408 0.79901 0.0
C61 C 0.62943 0.60967 0.80684 0.0
C62 C 0.61179 0.59129 0.76707 0.0
C63 C 0.65369 0.64058 0.71298 0.0
C64 C 0.67168 0.65879 0.75169 0.0
C65 C 0.70473 0.69361 0.73595 0.0
H66 H 0.79951 0.81536 0.54641 0.0
C67 C 0.6716 0.663 0.66848 0.0
C68 C 0.70152 0.69452 0.68113 0.0
H69 H 0.83324 0.8156 0.70098 0.0
H70 H 0.77661 0.76239 0.72019 0.0
H71 H 0.80085 0.71481 0.5641 0.0
H72 H 0.69529 0.80812 0.54158 0.0
H73 H 0.67592 0.76874 0.50848 0.0
H74 H 0.72356 0.80041 0.49274 0.0
H75 H 0.78087 0.74811 0.50472 0.0
H76 H 0.7571 0.69602 0.52704 0.0
C77 C 0.75084 0.67806 0.76431 0.0
C78 C 0.68928 0.73704 0.745 0.0
C79 C 0.62281 0.61519 0.50845 0.0
C80 C 0.63222 0.63035 0.46027 0.0
C81 C 0.6581 0.6679 0.44999 0.0
C82 C 0.67563 0.6889 0.48729 0.0
C83 C 0.66727 0.67235 0.53559 0.0
C84 C 0.64041 0.63674 0.54521 0.0
C85 C 0.63383 0.62461 0.59826 0.0
C86 C 0.66252 0.65792 0.61924 0.0
C87 C 0.68226 0.68542 0.58251 0.0
C88 C 0.65188 0.57757 0.62004 0.0
C89 C 0.5841 0.63105 0.60057 0.0
C90 C 0.79563 0.80379 0.58466 0.0
C91 C 0.82174 0.81986 0.62201 0.0
C92 C 0.81371 0.80432 0.67105 0.0
C93 C 0.78107 0.77296 0.68234 0.0
C94 C 0.75647 0.75634 0.6444 0.0
C95 C 0.76431 0.7719 0.5966 0.0
C96 C 0.7378 0.74918 0.56086 0.0
C97 C 0.71253 0.71726 0.59477 0.0
C98 C 0.7228 0.72167 0.64382 0.0
C99 C 0.77048 0.72596 0.53749 0.0
C100 C 0.70662 0.78317 0.52358 0.0
H101 H 0.60866 0.59095 0.69214 0.0
H102 H 0.67408 0.65856 0.82905 0.0
H103 H 0.65369 0.74312 0.73011 0.0
H104 H 0.70711 0.76525 0.72666 0.0
H105 H 0.69362 0.73637 0.785 0.0
H106 H 0.75524 0.64244 0.76814 0.0
H107 H 0.75527 0.68453 0.80188 0.0
H108 H 0.77798 0.69321 0.74508 0.0
H109 H 0.60319 0.58643 0.51787 0.0
H110 H 0.66499 0.68104 0.41302 0.0
H111 H 0.69548 0.71694 0.47711 0.0
H112 H 0.68198 0.57174 0.6045 0.0
H113 H 0.62704 0.55317 0.61146 0.0
H114 H 0.66251 0.57085 0.66021 0.0
H115 H 0.56821 0.65588 0.56842 0.0
H116 H 0.57862 0.64366 0.63286 0.0
H117 H 0.56569 0.60031 0.60076 0.0
H118 H 0.58822 0.56515 0.77185 0.0
C119 C 0.62356 0.60654 0.72049 0.0
C120 C 0.83992 0.09939 0.24882 0.0
C121 C 0.87625 0.07065 0.25985 0.0
C122 C 0.89196 0.0564 0.22153 0.0
C123 C 0.83813 0.10304 0.16178 0.0
C124 C 0.82148 0.1152 0.19976 0.0
C125 C 0.78407 0.14761 0.18172 0.0
H126 H 0.68254 0.30335 0.99921 0.0
C127 C 0.81449 0.12882 0.11505 0.0
C128 C 0.7829 0.15502 0.12638 0.0
H129 H 0.652 0.25908 0.14767 0.0
H130 H 0.70401 0.20076 0.16218 0.0
H131 H 0.78836 0.28107 0.01524 0.0
H132 H 0.67446 0.20319 0.9842 0.0
H133 H 0.71583 0.19056 0.9525 0.0
H134 H 0.69276 0.24502 0.93724 0.0
H135 H 0.74976 0.29432 0.95926 0.0
H136 H 0.79428 0.25615 0.9661 0.0
C137 C 0.79712 0.18913 0.20102 0.0
C138 C 0.74133 0.12595 0.19869 0.0
C139 C 0.85853 0.11257 0.95422 0.0
C140 C 0.84489 0.13305 0.9048 0.0
C141 C 0.81516 0.16869 0.89371 0.0
C142 C 0.79789 0.1824 0.93148 0.0
C143 C 0.81064 0.16025 0.9807 0.0
C144 C 0.84105 0.12642 0.99122 0.0
C145 C 0.85191 0.10702 0.04527 0.0
C146 C 0.82111 0.133 0.06554 0.0
C147 C 0.79712 0.1644 0.02779 0.0
C148 C 0.90123 0.116 0.06183 0.0
C149 C 0.83985 0.05817 0.05458 0.0
C150 C 0.6867 0.28132 0.03496 0.0
C151 C 0.6644 0.28826 0.07319 0.0
C152 C 0.67043 0.25712 0.11835 0.0
C153 C 0.70041 0.22257 0.1268 0.0
C154 C 0.7243 0.21801 0.08962 0.0
C155 C 0.71559 0.24543 0.04373 0.0
C156 C 0.73921 0.23053 0.00681 0.0
C157 C 0.76575 0.19171 0.03942 0.0
C158 C 0.75762 0.18563 0.08815 0.0
C159 C 0.76946 0.26742 0.98532 0.0
C160 C 0.70402 0.21682 0.96779 0.0
H161 H 0.88705 0.06122 0.14473 0.0
H162 H 0.82677 0.1101 0.27788 0.0
H163 H 0.74496 0.08997 0.21114 0.0
H164 H 0.71309 0.13117 0.1683 0.0
H165 H 0.73213 0.13831 0.22985 0.0
H166 H 0.83066 0.19971 0.19312 0.0
H167 H 0.79753 0.18298 0.24144 0.0
H168 H 0.77475 0.21703 0.18398 0.0
H169 H 0.88226 0.08587 0.96402 0.0
H170 H 0.80443 0.18516 0.85583 0.0
H171 H 0.77511 0.20946 0.92101 0.0
H172 H 0.9126 0.14598 0.03804 0.0
H173 H 0.9228 0.08867 0.06002 0.0
H174 H 0.90748 0.12219 0.0993 0.0
H175 H 0.80849 0.05323 0.03099 0.0
H176 H 0.83396 0.04463 0.09268 0.0
H177 H 0.86603 0.03846 0.04597 0.0
H178 H 0.91998 0.03419 0.2294 0.0
C179 C 0.87307 0.07248 0.17247 0.0
C180 C 0.36333 0.36244 0.29571 0.0
C181 C 0.39885 0.39105 0.28828 0.0
C182 C 0.42028 0.40771 0.32781 0.0
C183 C 0.37103 0.36808 0.38125 0.0
C184 C 0.35038 0.35088 0.34277 0.0
C185 C 0.31482 0.31922 0.35868 0.0
H186 H 0.21215 0.20813 0.54628 0.0
C187 C 0.3503 0.34976 0.42536 0.0
C188 C 0.3177 0.32042 0.41282 0.0
H189 H 0.18359 0.20239 0.39271 0.0
H190 H 0.24016 0.25528 0.37365 0.0
H191 H 0.31778 0.21623 0.55623 0.0
H192 H 0.20965 0.30758 0.5238 0.0
H193 H 0.2531 0.3328 0.5544 0.0
H194 H 0.23183 0.28212 0.58587 0.0
H195 H 0.28337 0.22359 0.60014 0.0
H196 H 0.3317 0.25606 0.5907 0.0
C197 C 0.3276 0.27398 0.35189 0.0
C198 C 0.26997 0.33713 0.32876 0.0
C199 C 0.39592 0.40455 0.58223 0.0
C200 C 0.38171 0.39444 0.62867 0.0
C201 C 0.35091 0.36093 0.63821 0.0
C202 C 0.33382 0.33856 0.60199 0.0
C203 C 0.34735 0.34984 0.55537 0.0
C204 C 0.37823 0.38201 0.54624 0.0
C205 C 0.3888 0.38934 0.49455 0.0
C206 C 0.35791 0.35733 0.47376 0.0
C207 C 0.33393 0.33429 0.50963 0.0
C208 C 0.43812 0.37715 0.49734 0.0
C209 C 0.37652 0.43709 0.46829 0.0
C210 C 0.21725 0.21826 0.50828 0.0
C211 C 0.19283 0.20029 0.47128 0.0
C212 C 0.20211 0.2146 0.42255 0.0
C213 C 0.23487 0.24574 0.41131 0.0
C214 C 0.25853 0.2634 0.44895 0.0
C215 C 0.24888 0.24992 0.49629 0.0
C216 C 0.2743 0.27422 0.53127 0.0
C217 C 0.30207 0.30357 0.49769 0.0
C218 C 0.29334 0.29696 0.44946 0.0
C219 C 0.30322 0.24101 0.57208 0.0
C220 C 0.24079 0.3004 0.55026 0.0
H221 H 0.42403 0.4107 0.40243 0.0
H222 H 0.34663 0.34892 0.26587 0.0
H223 H 0.26796 0.37309 0.32379 0.0
H224 H 0.24165 0.32443 0.34742 0.0
H225 H 0.26544 0.32968 0.29165 0.0
H226 H 0.3633 0.26694 0.3654 0.0
H227 H 0.32136 0.27254 0.31245 0.0
H228 H 0.30988 0.24719 0.37295 0.0
H229 H 0.41946 0.43017 0.57363 0.0
H230 H 0.34005 0.35187 0.67391 0.0
H231 H 0.31051 0.31348 0.61172 0.0
H232 H 0.45059 0.35382 0.53239 0.0
H233 H 0.45931 0.40633 0.49503 0.0
H234 H 0.44361 0.36021 0.46826 0.0
H235 H 0.34412 0.44633 0.47668 0.0
H236 H 0.37275 0.44279 0.42785 0.0
H237 H 0.40163 0.45979 0.48067 0.0
H238 H 0.44761 0.42981 0.32267 0.0
C239 C 0.40649 0.39658 0.37405 0.0
Tb240 Tb 0.04502 0.96685 0.52475 0.0
C241 C 0.9226 0.1344 0.49041 0.0
N242 N 0.95957 0.1243 0.52411 0.0
C243 C 0.98087 0.19918 0.50788 0.0
C244 C 0.91375 0.17736 0.4632 0.0
C245 C 0.98818 0.15605 0.53392 0.0
C246 C 0.94364 0.20986 0.47211 0.0
C247 C 0.85526 0.11021 0.44782 0.0
C248 C 0.89375 0.10132 0.48285 0.0
C249 C 0.84637 0.15291 0.42037 0.0
C250 C 0.87554 0.18641 0.42804 0.0
Tb251 Tb 0.96856 0.05282 0.56333 0.0
N252 N 0.90442 0.0601 0.5087 0.0
C253 C 0.82712 0.07582 0.44121 0.0
C254 C 0.87604 0.02684 0.50398 0.0
C255 C 0.83736 0.03405 0.46978 0.0
H256 H 0.01596 0.14833 0.56281 0.0
H257 H 0.81536 0.00739 0.46565 0.0
H258 H 0.9975 0.87183 0.52232 0.0
H259 H 0.1974 0.01001 0.62597 0.0
H260 H 0.88276 0.9948 0.52651 0.0
H261 H 0.79725 0.08124 0.41458 0.0
H262 H 0.13097 0.02354 0.56364 0.0
H263 H 1.00377 0.2242 0.5157 0.0
H264 H 0.81707 0.16036 0.39308 0.0
H265 H 0.86824 0.2192 0.40662 0.0
H266 H 0.00861 0.79556 0.56858 0.0
H267 H 0.93806 0.2433 0.452 0.0
H268 H 0.21411 0.93583 0.67685 0.0
N269 N 0.05344 0.89498 0.56272 0.0
C270 C 0.08973 0.88433 0.59729 0.0
C271 C 0.0315 0.82028 0.57733 0.0
C272 C 0.09789 0.84117 0.62415 0.0
C273 C 0.02484 0.86361 0.55172 0.0
C274 C 0.06803 0.80903 0.61395 0.0
N275 N 0.10857 0.95847 0.5804 0.0
C276 C 0.13715 0.99137 0.58604 0.0
C277 C 0.15642 0.90763 0.64195 0.0
C278 C 0.1186 0.91705 0.60605 0.0
C279 C 0.1847 0.94167 0.64957 0.0
C280 C 0.17525 0.98363 0.62109 0.0
H281 H 0.0731 0.77545 0.63375 0.0
H282 H 0.14217 0.79862 0.68142 0.0
H283 H 0.19339 0.85685 0.69708 0.0
O284 O 0.09343 0.98346 0.47877 0.0
O285 O 0.04385 0.96308 0.60307 0.0
O286 O 0.03089 0.03272 0.61142 0.0
O287 O 0.05358 0.92711 0.47556 0.0
O288 O 0.0557 0.03727 0.5009 0.0
O289 O 0.0374 0.07213 0.55957 0.0
O290 O 0.91999 0.03739 0.60924 0.0
O291 O 0.9696 0.05615 0.48478 0.0
O292 O 0.98221 0.98606 0.47773 0.0
O293 O 0.96079 0.09318 0.61214 0.0
O294 O 0.95765 0.98262 0.58773 0.0
O295 O 0.97628 0.94713 0.52965 0.0
C296 C 0.04563 0.99271 0.62948 0.0
C297 C 0.07574 0.96613 0.40174 0.0
C298 C 0.09392 0.96102 0.32178 0.0
C299 C 0.06357 0.99513 0.29921 0.0
C300 C 0.04679 1.00093 0.37851 0.0
C301 C 0.04021 0.01488 0.32748 0.0
C302 C 0.09926 0.94611 0.37332 0.0
C303 C 0.06054 0.06921 0.52442 0.0
C304 C 0.0831 0.95237 0.4557 0.0
C305 C 0.13541 0.83157 0.66024 0.0
C306 C 0.1646 0.86473 0.66913 0.0
C307 C 0.96701 0.02582 0.45914 0.0
C308 C 0.93948 0.05403 0.68633 0.0
C309 C 0.92519 0.0603 0.76733 0.0
C310 C 0.9536 0.02437 0.78877 0.0
C311 C 0.96625 0.0173 0.70847 0.0
C312 C 0.91898 0.0756 0.71584 0.0
C313 C 0.97392 0.00305 0.75944 0.0
C314 C 0.95368 0.94994 0.56535 0.0
C315 C 0.93126 0.06822 0.63242 0.0
H316 H 0.05802 0.0067 0.25961 0.0
H317 H 0.0299 0.01775 0.39997 0.0
H318 H 0.01739 0.04146 0.30984 0.0
H319 H 0.12262 0.92004 0.39138 0.0
H320 H 0.95976 0.01243 0.82832 0.0
H321 H 0.98053 0.9992 0.68621 0.0
H322 H 0.89709 0.10311 0.69868 0.0
H323 H 0.99508 0.97496 0.7762 0.0
Tb324 Tb 0.4592 0.4851 0.99503 0.0
C325 C 0.64056 0.55631 0.05186 0.0
N326 N 0.62162 0.52024 0.07631 0.0
C327 C 0.68868 0.47955 0.08351 0.0
C328 C 0.6836 0.55489 0.04016 0.0
C329 C 0.64614 0.48292 0.09488 0.0
C330 C 0.7072 0.51548 0.05518 0.0
C331 C 0.63654 0.63416 0.01802 0.0
C332 C 0.61756 0.59538 0.041 0.0
C333 C 0.6787 0.63269 0.00447 0.0
C334 C 0.70215 0.5931 0.01541 0.0
Tb335 Tb 0.55082 0.52947 0.09018 0.0
N336 N 0.57629 0.59523 0.05318 0.0
C337 C 0.61262 0.67317 0.00975 0.0
C338 C 0.55375 0.63339 0.04769 0.0
C339 C 0.57128 0.67283 0.02523 0.0
H340 H 0.6337 0.4561 0.11982 0.0
H341 H 0.55295 0.70293 0.01996 0.0
H342 H 0.37189 0.5421 1.00048 0.0
H343 H 0.48281 0.31123 0.01862 0.0
H344 H 0.52212 0.63331 0.06022 0.0
H345 H 0.62604 0.70373 0.99222 0.0
H346 H 0.49772 0.38845 0.98684 0.0
H347 H 0.7075 0.44953 0.09752 0.0
H348 H 0.69372 0.66204 0.98624 0.0
H349 H 0.73502 0.59257 0.0057 0.0
H350 H 0.30046 0.52853 0.03183 0.0
H351 H 0.74037 0.51297 0.04695 0.0
H352 H 0.41834 0.29051 0.06187 0.0
N353 N 0.39211 0.47563 0.02151 0.0
C354 C 0.3803 0.434 0.03894 0.0
C355 C 0.32281 0.50167 0.03447 0.0
C356 C 0.33999 0.42457 0.05715 0.0
C357 C 0.36337 0.50933 0.01707 0.0
C358 C 0.3113 0.45916 0.05522 0.0
N359 N 0.44623 0.41188 0.01764 0.0
C360 C 0.47132 0.38015 0.00837 0.0
C361 C 0.39772 0.35719 0.05479 0.0
C362 C 0.40884 0.401 0.0379 0.0
C363 C 0.42566 0.32459 0.04938 0.0
C364 C 0.46217 0.33616 0.02518 0.0
H365 H 0.27994 0.45332 0.06878 0.0
H366 H 0.29893 0.3731 0.0907 0.0
H367 H 0.34948 0.31398 0.08853 0.0
O368 O 0.43372 0.45938 0.9337 0.0
O369 O 0.4471 0.48363 0.07044 0.0
O370 O 0.51495 0.47024 0.11813 0.0
O371 O 0.42886 0.5277 0.93087 0.0
O372 O 0.525 0.45345 0.01057 0.0
O373 O 0.55601 0.45998 0.08917 0.0
O374 O 0.53437 0.55941 0.14478 0.0
O375 O 0.54038 0.55912 0.01075 0.0
O376 O 0.52411 0.5023 0.97357 0.0
O377 O 0.59753 0.52833 0.15334 0.0
O378 O 0.48398 0.55681 0.07868 0.0
O379 O 0.45633 0.55402 0.99817 0.0
C380 C 0.47191 0.46486 0.11155 0.0
C381 C 0.44199 0.5072 0.85843 0.0
C382 C 0.44435 0.49128 0.77773 0.0
C383 C 0.476 0.52399 0.769 0.0
C384 C 0.47359 0.53972 0.84876 0.0
C385 C 0.49041 0.54796 0.80433 0.0
C386 C 0.42758 0.48309 0.82282 0.0
C387 C 0.55231 0.44014 0.05207 0.0
C388 C 0.42431 0.49764 0.9056 0.0
C389 C 0.32955 0.38108 0.07602 0.0
C390 C 0.3584 0.34744 0.07491 0.0
C391 C 0.54513 0.53856 0.97624 0.0
C392 C 0.56698 0.52786 0.22517 0.0
C393 C 0.574 0.53393 0.31055 0.0
C394 C 0.55596 0.49226 0.32294 0.0
C395 C 0.55009 0.48594 0.23821 0.0
C396 C 0.57911 0.55162 0.26137 0.0
C397 C 0.54429 0.46835 0.28687 0.0
C398 C 0.45766 0.57115 0.03699 0.0
C399 C 0.57118 0.54781 0.1739 0.0
H400 H 0.48911 0.53162 0.73452 0.0
H401 H 0.48524 0.55889 0.87542 0.0
H402 H 0.5145 0.57327 0.79715 0.0
H403 H 0.4037 0.4576 0.83062 0.0
H404 H 0.55182 0.47786 0.36061 0.0
H405 H 0.54156 0.46702 0.21078 0.0
H406 H 0.59216 0.58408 0.25115 0.0
H407 H 0.53102 0.43602 0.29671 0.0
C408 C 0.13498 0.1674 0.52365 0.0
C409 C 0.15788 0.16727 0.48381 0.0
H410 H 0.08902 0.1357 0.56942 0.0
C411 C 0.14774 0.13459 0.45716 0.0
H412 H 0.14067 0.19225 0.54476 0.0
C413 C 0.11582 0.1033 0.4699 0.0
C414 C 0.0936 0.10324 0.5102 0.0
H415 H 0.16495 0.13248 0.42691 0.0
H416 H 0.10902 0.07882 0.44836 0.0
C417 C 0.10412 0.13539 0.53722 0.0
C418 C 0.39527 0.67713 0.98691 0.0
C419 C 0.36955 0.67858 0.02409 0.0
H420 H 0.44244 0.64148 0.96156 0.0
C421 C 0.37513 0.64503 0.06694 0.0
H422 H 0.39331 0.70297 0.95413 0.0
C423 C 0.40478 0.61057 0.07177 0.0
C424 C 0.42852 0.60851 0.03342 0.0
H425 H 0.35574 0.64457 0.09614 0.0
H426 H 0.40798 0.58472 0.10469 0.0
C427 C 0.42376 0.64211 0.99116 0.0
C428 C 0.87922 0.85158 0.56877 0.0
C429 C 0.85719 0.85211 0.60919 0.0
H430 H 0.9245 0.88276 0.52175 0.0
C431 C 0.86846 0.88456 0.63582 0.0
H432 H 0.87259 0.82673 0.54776 0.0
C433 C 0.90026 0.91565 0.62209 0.0
C434 C 0.92134 0.9156 0.58094 0.0
H435 H 0.85205 0.8867 0.66666 0.0
H436 H 0.9078 0.94016 0.64349 0.0
C437 C 0.91012 0.88329 0.55435 0.0
C438 C 0.62858 0.34338 0.1084 0.0
C439 C 0.63543 0.32747 0.06706 0.0
H440 H 0.59532 0.38917 0.13647 0.0
C441 C 0.61454 0.34965 0.0204 0.0
H442 H 0.64497 0.32885 0.14495 0.0
C443 C 0.58818 0.38659 0.01541 0.0
C444 C 0.5806 0.40137 0.057 0.0
H445 H 0.61804 0.33859 0.9875 0.0
H446 H 0.57366 0.40348 0.97883 0.0
C447 C 0.6007 0.37897 0.10354 0.0
C448 C 0.14723 0.87984 0.26553 0.0
C449 C 0.16324 0.9077 0.22577 0.0
H450 H 0.11221 0.87485 0.32709 0.0
C451 C 0.15981 0.9529 0.22077 0.0
H452 H 0.14925 0.84486 0.27013 0.0
C453 C 0.13866 0.96994 0.25301 0.0
C454 C 0.12038 0.94225 0.29115 0.0
H455 H 0.1726 0.97519 0.19105 0.0
H456 H 0.13592 0.00496 0.24753 0.0
C457 C 0.12596 0.89699 0.29801 0.0
C458 C 0.59736 0.62008 0.88076 0.0
C459 C 0.61479 0.59235 0.85535 0.0
H460 H 0.56044 0.62475 0.9385 0.0
C461 C 0.61257 0.54709 0.87299 0.0
H462 H 0.59815 0.65506 0.86765 0.0
C463 C 0.59119 0.52988 0.91327 0.0
C464 C 0.57172 0.55747 0.93715 0.0
H465 H 0.62601 0.5249 0.85439 0.0
H466 H 0.58895 0.49486 0.92501 0.0
C467 C 0.57577 0.60275 0.92123 0.0
C468 C 0.9102 0.01488 0.33351 0.0
C469 C 0.89959 0.05846 0.31074 0.0
H470 H 0.93929 0.97012 0.39893 0.0
C471 C 0.91192 0.09108 0.3366 0.0
H472 H 0.90108 0.98922 0.31412 0.0
C473 C 0.93432 0.0804 0.38446 0.0
C474 C 0.94402 0.03676 0.40797 0.0
H475 H 0.90483 0.12504 0.31945 0.0
H476 H 0.94425 0.10651 0.40283 0.0
C477 C 0.93196 0.00405 0.38194 0.0
C478 C 0.4428 0.42997 0.67546 0.0
C479 C 0.39802 0.41916 0.66682 0.0
H480 H 0.49274 0.46026 0.71785 0.0
C481 C 0.36867 0.43221 0.6949 0.0
H482 H 0.46633 0.41996 0.65484 0.0
C483 C 0.3837 0.45546 0.73081 0.0
C484 C 0.42851 0.46618 0.73968 0.0
H485 H 0.33382 0.42507 0.68857 0.0
H486 H 0.35997 0.46569 0.75105 0.0
C487 C 0.4579 0.45311 0.71156 0.0
C488 C 0.57486 0.58661 0.41907 0.0
C489 C 0.61657 0.60628 0.42135 0.0
H490 H 0.52868 0.54825 0.38214 0.0
C491 C 0.64392 0.60183 0.38684 0.0
H492 H 0.5527 0.58986 0.44463 0.0
C493 C 0.62991 0.57852 0.35084 0.0
C494 C 0.58841 0.55873 0.34879 0.0
H495 H 0.67663 0.61564 0.38814 0.0
H496 H 0.65192 0.57529 0.32509 0.0
C497 C 0.56103 0.56286 0.38329 0.0
C498 C 0.8621 0.07052 0.86968 0.0
C499 C 0.86114 0.1157 0.86577 0.0
H500 H 0.88238 0.01792 0.84133 0.0
C501 C 0.87827 0.14317 0.82654 0.0
H502 H 0.84825 0.04859 0.89887 0.0
C503 C 0.89806 0.12546 0.79337 0.0
C504 C 0.90097 0.08007 0.79905 0.0
H505 H 0.87798 0.17812 0.82272 0.0
H506 H 0.91256 0.14713 0.76453 0.0
C507 C 0.88174 0.05295 0.8368 0.0
C508 C 0.45709 0.39261 0.23475 0.0
C509 C 0.41435 0.40428 0.2399 0.0
H510 H 0.50817 0.40141 0.18926 0.0
C511 C 0.38912 0.43322 0.20084 0.0
H512 H 0.47718 0.37044 0.26454 0.0
C513 C 0.4073 0.452 0.15835 0.0
C514 C 0.45081 0.44171 0.15397 0.0
H515 H 0.35627 0.44308 0.20429 0.0
H516 H 0.38803 0.47609 0.13001 0.0
C517 C 0.47491 0.41068 0.19194 0.0
C518 C 0.10016 0.99785 0.75799 0.0
C519 C 0.10634 0.95338 0.78004 0.0
H520 H 0.07641 0.04545 0.69242 0.0
C521 C 0.09139 0.92242 0.75269 0.0
H522 H 0.11144 0.02235 0.77834 0.0
C523 C 0.07148 0.93547 0.70407 0.0
C524 C 0.06624 0.97984 0.6814 0.0
H525 H 0.09482 0.88791 0.76903 0.0
H526 H 0.05999 0.91058 0.68437 0.0
C527 C 0.08033 0.01101 0.70889 0.0
loop_
_geom_bond_atom_site_label_1
_geom_bond_atom_site_label_2
_geom_bond_distance
_geom_bond_site_symmetry_2
_ccdc_geom_bond_type
C0 C1 1.391 . S
C0 C4 1.391 . S
C0 H42 0.948 . S
C1 C0 1.391 . S
C1 C2 1.391 . S
C2 C1 1.391 . S
C2 H58 0.947 . S
C2 C59 1.392 . S
C3 C4 1.391 . S
C3 C7 1.397 . S
C3 C59 1.419 . S
C4 C0 1.391 . S
C4 C3 1.391 . S
C4 C5 1.399 . S
C5 C4 1.399 . S
C5 C8 1.396 . S
C5 C17 1.453 . S
C5 C18 1.684 . S
H6 C30 0.948 . S
C7 C3 1.397 . S
C7 C8 1.394 . S
C7 C26 1.723 1_556 S
C8 C5 1.396 . S
C8 C7 1.394 . S
C8 C38 1.723 1_556 S
H9 C32 0.947 . S
H10 C33 0.948 . S
H11 C39 0.982 . S
H12 C40 0.979 . S
H13 C40 0.980 . S
H14 C40 0.983 . S
H15 C39 0.979 . S
H16 C39 0.977 . S
C17 C5 1.453 . S
C17 H46 0.982 . S
C17 H47 0.979 . S
C17 H48 0.977 . S
C18 C5 1.684 . S
C18 H43 0.979 . S
C18 H44 0.980 . S
C18 H45 0.983 . S
C19 C20 1.391 . S
C19 C24 1.391 . S
C19 H49 0.948 . S
C20 C19 1.391 . S
C20 C21 1.391 . S
C21 C20 1.391 . S
C21 C22 1.392 . S
C21 H50 0.947 . S
C22 C21 1.392 . S
C22 C23 1.419 . S
C22 H51 0.948 . S
C23 C22 1.419 . S
C23 C24 1.391 . S
C23 C27 1.397 . S
C24 C19 1.391 . S
C24 C23 1.391 . S
C24 C25 1.399 . S
C25 C24 1.399 . S
C25 C26 1.396 . S
C25 C28 1.453 . S
C25 C29 1.684 . S
C26 C7 1.723 1_554 S
C26 C25 1.396 . S
C26 C27 1.394 . S
C27 C23 1.397 . S
C27 C26 1.394 . S
C27 C37 1.723 . S
C28 C25 1.453 . S
C28 H52 0.982 . S
C28 H53 0.979 . S
C28 H54 0.977 1_554 S
C29 C25 1.684 . S
C29 H55 0.979 . S
C29 H56 0.980 1_554 S
C29 H57 0.983 . S
C30 H6 0.948 . S
C30 C31 1.391 . S
C30 C35 1.391 . S
C31 C30 1.391 . S
C31 C32 1.391 1_554 S
C32 H9 0.947 . S
C32 C31 1.391 1_556 S
C32 C33 1.392 . S
C33 H10 0.948 . S
C33 C32 1.392 . S
C33 C34 1.419 1_556 S
C34 C33 1.419 1_554 S
C34 C35 1.391 . S
C34 C38 1.397 . S
C35 C30 1.391 . S
C35 C34 1.391 . S
C35 C36 1.399 . S
C36 C35 1.399 . S
C36 C37 1.396 . S
C36 C39 1.453 . S
C36 C40 1.684 . S
C37 C27 1.723 . S
C37 C36 1.396 . S
C37 C38 1.394 . S
C38 C8 1.723 1_554 S
C38 C34 1.397 . S
C38 C37 1.394 . S
C39 H11 0.982 . S
C39 H15 0.979 . S
C39 H16 0.977 . S
C39 C36 1.453 . S
C40 H12 0.979 . S
C40 H13 0.980 . S
C40 H14 0.983 . S
C40 C36 1.684 . S
H41 C59 0.948 . S
H42 C0 0.948 . S
H43 C18 0.979 . S
H44 C18 0.980 . S
H45 C18 0.983 . S
H46 C17 0.982 . S
H47 C17 0.979 . S
H48 C17 0.977 . S
H49 C19 0.948 . S
H50 C21 0.947 . S
H51 C22 0.948 . S
H52 C28 0.982 . S
H53 C28 0.979 . S
H54 C28 0.977 1_556 S
H55 C29 0.979 . S
H56 C29 0.980 1_556 S
H57 C29 0.983 . S
H58 C2 0.947 . S
C59 C2 1.392 . S
C59 C3 1.419 . S
C59 H41 0.948 . S
C60 C61 1.391 . S
C60 C64 1.391 . S
C60 H102 0.948 . S
C61 C60 1.391 . S
C61 C62 1.391 . S
C62 C61 1.391 . S
C62 H118 0.947 . S
C62 C119 1.392 . S
C63 C64 1.391 . S
C63 C67 1.397 . S
C63 C119 1.419 . S
C64 C60 1.391 . S
C64 C63 1.391 . S
C64 C65 1.399 . S
C65 C64 1.399 . S
C65 C68 1.396 . S
C65 C77 1.453 . S
C65 C78 1.684 . S
H66 C90 0.948 . S
C67 C63 1.397 . S
C67 C68 1.394 . S
C67 C86 1.723 . S
C68 C65 1.396 . S
C68 C67 1.394 . S
C68 C98 1.723 . S
H69 C92 0.947 . S
H70 C93 0.948 . S
H71 C99 0.982 . S
H72 C100 0.979 . S
H73 C100 0.980 . S
H74 C100 0.983 . S
H75 C99 0.979 . S
H76 C99 0.977 . S
C77 C65 1.453 . S
C77 H106 0.982 . S
C77 H107 0.979 . S
C77 H108 0.977 . S
C78 C65 1.684 . S
C78 H103 0.979 . S
C78 H104 0.980 . S
C78 H105 0.983 . S
C79 C80 1.391 . S
C79 C84 1.391 . S
C79 H109 0.948 . S
C80 C79 1.391 . S
C80 C81 1.391 . S
C81 C80 1.391 . S
C81 C82 1.392 . S
C81 H110 0.947 . S
C82 C81 1.392 . S
C82 C83 1.419 . S
C82 H111 0.948 . S
C83 C82 1.419 . S
C83 C84 1.391 . S
C83 C87 1.397 . S
C84 C79 1.391 . S
C84 C83 1.391 . S
C84 C85 1.399 . S
C85 C84 1.399 . S
C85 C86 1.396 . S
C85 C88 1.453 . S
C85 C89 1.684 . S
C86 C67 1.723 . S
C86 C85 1.396 . S
C86 C87 1.394 . S
C87 C83 1.397 . S
C87 C86 1.394 . S
C87 C97 1.723 . S
C88 C85 1.453 . S
C88 H112 0.982 . S
C88 H113 0.979 . S
C88 H114 0.977 . S
C89 C85 1.684 . S
C89 H115 0.979 . S
C89 H116 0.980 . S
C89 H117 0.983 . S
C90 H66 0.948 . S
C90 C91 1.391 . S
C90 C95 1.391 . S
C91 C90 1.391 . S
C91 C92 1.391 . S
C92 H69 0.947 . S
C92 C91 1.391 . S
C92 C93 1.392 . S
C93 H70 0.948 . S
C93 C92 1.392 . S
C93 C94 1.419 . S
C94 C93 1.419 . S
C94 C95 1.391 . S
C94 C98 1.397 . S
C95 C90 1.391 . S
C95 C94 1.391 . S
C95 C96 1.399 . S
C96 C95 1.399 . S
C96 C97 1.396 . S
C96 C99 1.453 . S
C96 C100 1.684 . S
C97 C87 1.723 . S
C97 C96 1.396 . S
C97 C98 1.394 . S
C98 C68 1.723 . S
C98 C94 1.397 . S
C98 C97 1.394 . S
C99 H71 0.982 . S
C99 H75 0.979 . S
C99 H76 0.977 . S
C99 C96 1.453 . S
C100 H72 0.979 . S
C100 H73 0.980 . S
C100 H74 0.983 . S
C100 C96 1.684 . S
H101 C119 0.948 . S
H102 C60 0.948 . S
H103 C78 0.979 . S
H104 C78 0.980 . S
H105 C78 0.983 . S
H106 C77 0.982 . S
H107 C77 0.979 . S
H108 C77 0.977 . S
H109 C79 0.948 . S
H110 C81 0.947 . S
H111 C82 0.948 . S
H112 C88 0.982 . S
H113 C88 0.979 . S
H114 C88 0.977 . S
H115 C89 0.979 . S
H116 C89 0.980 . S
H117 C89 0.983 . S
H118 C62 0.947 . S
C119 C62 1.392 . S
C119 C63 1.419 . S
C119 H101 0.948 . S
C120 C121 1.391 . S
C120 C124 1.391 . S
C120 H162 0.948 . S
C121 C120 1.391 . S
C121 C122 1.391 . S
C122 C121 1.391 . S
C122 H178 0.947 . S
C122 C179 1.392 . S
C123 C124 1.391 . S
C123 C127 1.397 . S
C123 C179 1.419 . S
C124 C120 1.391 . S
C124 C123 1.391 . S
C124 C125 1.399 . S
C125 C124 1.399 . S
C125 C128 1.396 . S
C125 C137 1.453 . S
C125 C138 1.684 . S
H126 C150 0.948 1_556 S
C127 C123 1.397 . S
C127 C128 1.394 . S
C127 C146 1.723 . S
C128 C125 1.396 . S
C128 C127 1.394 . S
C128 C158 1.723 . S
H129 C152 0.947 . S
H130 C153 0.948 . S
H131 C159 0.982 . S
H132 C160 0.979 . S
H133 C160 0.980 . S
H134 C160 0.983 . S
H135 C159 0.979 . S
H136 C159 0.977 . S
C137 C125 1.453 . S
C137 H166 0.982 . S
C137 H167 0.979 . S
C137 H168 0.977 . S
C138 C125 1.684 . S
C138 H163 0.979 . S
C138 H164 0.980 . S
C138 H165 0.983 . S
C139 C140 1.391 . S
C139 C144 1.391 . S
C139 H169 0.948 . S
C140 C139 1.391 . S
C140 C141 1.391 . S
C141 C140 1.391 . S
C141 C142 1.392 . S
C141 H170 0.947 . S
C142 C141 1.392 . S
C142 C143 1.419 . S
C142 H171 0.948 . S
C143 C142 1.419 . S
C143 C144 1.391 . S
C143 C147 1.397 1_556 S
C144 C139 1.391 . S
C144 C143 1.391 . S
C144 C145 1.399 1_556 S
C145 C144 1.399 1_554 S
C145 C146 1.396 . S
C145 C148 1.453 . S
C145 C149 1.684 . S
C146 C127 1.723 . S
C146 C145 1.396 . S
C146 C147 1.394 . S
C147 C143 1.397 1_554 S
C147 C146 1.394 . S
C147 C157 1.723 . S
C148 C145 1.453 . S
C148 H172 0.982 . S
C148 H173 0.979 . S
C148 H174 0.977 . S
C149 C145 1.684 . S
C149 H175 0.979 . S
C149 H176 0.980 . S
C149 H177 0.983 . S
C150 H126 0.948 1_554 S
C150 C151 1.391 . S
C150 C155 1.391 . S
C151 C150 1.391 . S
C151 C152 1.391 . S
C152 H129 0.947 . S
C152 C151 1.391 . S
C152 C153 1.392 . S
C153 H130 0.948 . S
C153 C152 1.392 . S
C153 C154 1.419 . S
C154 C153 1.419 . S
C154 C155 1.391 . S
C154 C158 1.397 . S
C155 C150 1.391 . S
C155 C154 1.391 . S
C155 C156 1.399 1_554 S
C156 C155 1.399 1_556 S
C156 C157 1.396 1_556 S
C156 C159 1.453 . S
C156 C160 1.684 . S
C157 C147 1.723 . S
C157 C156 1.396 1_554 S
C157 C158 1.394 . S
C158 C128 1.723 . S
C158 C154 1.397 . S
C158 C157 1.394 . S
C159 H131 0.982 . S
C159 H135 0.979 . S
C159 H136 0.977 . S
C159 C156 1.453 . S
C160 H132 0.979 . S
C160 H133 0.980 . S
C160 H134 0.983 . S
C160 C156 1.684 . S
H161 C179 0.948 . S
H162 C120 0.948 . S
H163 C138 0.979 . S
H164 C138 0.980 . S
H165 C138 0.983 . S
H166 C137 0.982 . S
H167 C137 0.979 . S
H168 C137 0.977 . S
H169 C139 0.948 . S
H170 C141 0.947 . S
H171 C142 0.948 . S
H172 C148 0.982 . S
H173 C148 0.979 . S
H174 C148 0.977 . S
H175 C149 0.979 . S
H176 C149 0.980 . S
H177 C149 0.983 . S
H178 C122 0.947 . S
C179 C122 1.392 . S
C179 C123 1.419 . S
C179 H161 0.948 . S
C180 C181 1.391 . S
C180 C184 1.391 . S
C180 H222 0.948 . S
C181 C180 1.391 . S
C181 C182 1.391 . S
C182 C181 1.391 . S
C182 H238 0.947 . S
C182 C239 1.392 . S
C183 C184 1.391 . S
C183 C187 1.397 . S
C183 C239 1.419 . S
C184 C180 1.391 . S
C184 C183 1.391 . S
C184 C185 1.399 . S
C185 C184 1.399 . S
C185 C188 1.396 . S
C185 C197 1.453 . S
C185 C198 1.684 . S
H186 C210 0.948 . S
C187 C183 1.397 . S
C187 C188 1.394 . S
C187 C206 1.723 . S
C188 C185 1.396 . S
C188 C187 1.394 . S
C188 C218 1.723 . S
H189 C212 0.947 . S
H190 C213 0.948 . S
H191 C219 0.982 . S
H192 C220 0.979 . S
H193 C220 0.980 . S
H194 C220 0.983 . S
H195 C219 0.979 . S
H196 C219 0.977 . S
C197 C185 1.453 . S
C197 H226 0.982 . S
C197 H227 0.979 . S
C197 H228 0.977 . S
C198 C185 1.684 . S
C198 H223 0.979 . S
C198 H224 0.980 . S
C198 H225 0.983 . S
C199 C200 1.391 . S
C199 C204 1.391 . S
C199 H229 0.948 . S
C200 C199 1.391 . S
C200 C201 1.391 . S
C201 C200 1.391 . S
C201 C202 1.392 . S
C201 H230 0.947 . S
C202 C201 1.392 . S
C202 C203 1.419 . S
C202 H231 0.948 . S
C203 C202 1.419 . S
C203 C204 1.391 . S
C203 C207 1.397 . S
C204 C199 1.391 . S
C204 C203 1.391 . S
C204 C205 1.399 . S
C205 C204 1.399 . S
C205 C206 1.396 . S
C205 C208 1.453 . S
C205 C209 1.684 . S
C206 C187 1.723 . S
C206 C205 1.396 . S
C206 C207 1.394 . S
C207 C203 1.397 . S
C207 C206 1.394 . S
C207 C217 1.723 . S
C208 C205 1.453 . S
C208 H232 0.982 . S
C208 H233 0.979 . S
C208 H234 0.977 . S
C209 C205 1.684 . S
C209 H235 0.979 . S
C209 H236 0.980 . S
C209 H237 0.983 . S
C210 H186 0.948 . S
C210 C211 1.391 . S
C210 C215 1.391 . S
C211 C210 1.391 . S
C211 C212 1.391 . S
C212 H189 0.947 . S
C212 C211 1.391 . S
C212 C213 1.392 . S
C213 H190 0.948 . S
C213 C212 1.392 . S
C213 C214 1.419 . S
C214 C213 1.419 . S
C214 C215 1.391 . S
C214 C218 1.397 . S
C215 C210 1.391 . S
C215 C214 1.391 . S
C215 C216 1.399 . S
C216 C215 1.399 . S
C216 C217 1.396 . S
C216 C219 1.453 . S
C216 C220 1.684 . S
C217 C207 1.723 . S
C217 C216 1.396 . S
C217 C218 1.394 . S
C218 C188 1.723 . S
C218 C214 1.397 . S
C218 C217 1.394 . S
C219 H191 0.982 . S
C219 H195 0.979 . S
C219 H196 0.977 . S
C219 C216 1.453 . S
C220 H192 0.979 . S
C220 H193 0.980 . S
C220 H194 0.983 . S
C220 C216 1.684 . S
H221 C239 0.948 . S
H222 C180 0.948 . S
H223 C198 0.979 . S
H224 C198 0.980 . S
H225 C198 0.983 . S
H226 C197 0.982 . S
H227 C197 0.979 . S
H228 C197 0.977 . S
H229 C199 0.948 . S
H230 C201 0.947 . S
H231 C202 0.948 . S
H232 C208 0.982 . S
H233 C208 0.979 . S
H234 C208 0.977 . S
H235 C209 0.979 . S
H236 C209 0.980 . S
H237 C209 0.983 . S
H238 C182 0.947 . S
C239 C182 1.392 . S
C239 C183 1.419 . S
C239 H221 0.948 . S
Tb240 N269 2.617 . S
Tb240 N275 2.572 . S
Tb240 O284 2.465 . S
Tb240 O285 2.387 . S
Tb240 O287 2.428 . S
Tb240 O288 2.308 1_565 S
Tb240 O292 2.349 1_465 S
Tb240 O295 2.393 1_455 S
Tb240 C304 2.802 . S
C241 N242 1.379 . S
C241 C244 1.416 . S
C241 C248 1.424 . S
N242 C241 1.379 . S
N242 C245 1.334 . S
N242 Tb251 2.617 . S
C243 C245 1.390 . S
C243 C246 1.339 . S
C243 H263 0.930 1_655 S
C244 C241 1.416 . S
C244 C246 1.416 . S
C244 C250 1.448 . S
C245 N242 1.334 . S
C245 C243 1.390 . S
C245 H256 0.930 1_655 S
C246 C243 1.339 . S
C246 C244 1.416 . S
C246 H267 0.930 . S
C247 C248 1.413 . S
C247 C249 1.427 . S
C247 C253 1.416 . S
C248 C241 1.424 . S
C248 C247 1.413 . S
C248 N252 1.361 . S
C249 C247 1.427 . S
C249 C250 1.328 . S
C249 H264 0.929 . S
C250 C244 1.448 . S
C250 C249 1.328 . S
C250 H265 0.930 . S
Tb251 N242 2.617 . S
Tb251 N252 2.572 . S
Tb251 O286 2.349 1_655 S
Tb251 O289 2.393 1_655 S
Tb251 O290 2.465 . S
Tb251 O291 2.387 . S
Tb251 O293 2.428 . S
Tb251 O294 2.308 1_545 S
Tb251 C315 2.802 . S
N252 C248 1.361 . S
N252 Tb251 2.572 . S
N252 C254 1.340 . S
C253 C247 1.416 . S
C253 C255 1.332 . S
C253 H261 0.931 . S
C254 N252 1.340 . S
C254 C255 1.407 . S
C254 H260 0.930 . S
C255 C253 1.332 . S
C255 C254 1.407 . S
C255 H257 0.929 . S
H256 C245 0.930 1_455 S
H257 C255 0.929 . S
H258 C273 0.930 1_655 S
H259 C280 0.929 . S
H260 C254 0.930 . S
H261 C253 0.931 . S
H262 C276 0.930 . S
H263 C243 0.930 1_455 S
H264 C249 0.929 . S
H265 C250 0.930 . S
H266 C271 0.930 1_655 S
H267 C246 0.930 . S
H268 C279 0.931 . S
N269 Tb240 2.617 . S
N269 C270 1.379 . S
N269 C273 1.334 . S
C270 N269 1.379 . S
C270 C272 1.416 . S
C270 C278 1.424 . S
C271 H266 0.930 1_455 S
C271 C273 1.390 . S
C271 C274 1.339 . S
C272 C270 1.416 . S
C272 C274 1.416 . S
C272 C305 1.448 . S
C273 H258 0.930 1_455 S
C273 N269 1.334 . S
C273 C271 1.390 . S
C274 C271 1.339 . S
C274 C272 1.416 . S
C274 H281 0.930 . S
N275 Tb240 2.572 . S
N275 C276 1.340 . S
N275 C278 1.361 . S
C276 H262 0.930 . S
C276 N275 1.340 . S
C276 C280 1.407 . S
C277 C278 1.413 . S
C277 C279 1.416 . S
C277 C306 1.427 . S
C278 C270 1.424 . S
C278 N275 1.361 . S
C278 C277 1.413 . S
C279 H268 0.931 . S
C279 C277 1.416 . S
C279 C280 1.332 . S
C280 H259 0.929 . S
C280 C276 1.407 . S
C280 C279 1.332 . S
H281 C274 0.930 . S
H282 C305 0.930 . S
H283 C306 0.929 . S
O284 Tb240 2.465 . S
O284 C304 1.264 . S
O285 Tb240 2.387 . S
O285 C296 1.264 . S
O286 Tb251 2.349 1_455 S
O286 C296 1.243 1_545 S
O287 Tb240 2.428 . S
O287 C304 1.256 . S
O288 Tb240 2.308 1_545 S
O288 C303 1.266 . S
O289 Tb251 2.393 1_455 S
O289 C303 1.248 . S
O290 Tb251 2.465 . S
O290 C315 1.264 . S
O291 Tb251 2.387 . S
O291 C307 1.264 . S
O292 Tb240 2.349 1_645 S
O292 C307 1.243 . S
O293 Tb251 2.428 . S
O293 C315 1.256 . S
O294 Tb251 2.308 1_565 S
O294 C314 1.266 . S
O295 Tb240 2.393 1_655 S
O295 C314 1.248 . S
C296 O285 1.264 . S
C296 O286 1.243 1_565 S
C297 C300 1.399 . S
C297 C302 1.383 . S
C297 C304 1.496 . S
C298 C299 1.399 . S
C298 C302 1.389 . S
C299 C298 1.399 . S
C299 C301 1.380 . S
C299 H316 0.929 . S
C300 C297 1.399 . S
C300 C301 1.392 . S
C300 H317 0.929 . S
C301 C299 1.380 . S
C301 C300 1.392 . S
C301 H318 0.929 . S
C302 C297 1.383 . S
C302 C298 1.389 . S
C302 H319 0.931 . S
C303 O288 1.266 . S
C303 O289 1.248 . S
C304 Tb240 2.802 . S
C304 O284 1.264 . S
C304 O287 1.256 . S
C304 C297 1.496 . S
C305 C272 1.448 . S
C305 H282 0.930 . S
C305 C306 1.328 . S
C306 C277 1.427 . S
C306 H283 0.929 . S
C306 C305 1.328 . S
C307 O291 1.264 . S
C307 O292 1.243 . S
C308 C311 1.399 . S
C308 C312 1.383 . S
C308 C315 1.496 . S
C309 C310 1.399 . S
C309 C312 1.389 . S
C310 C309 1.399 . S
C310 C313 1.380 . S
C310 H320 0.929 . S
C311 C308 1.399 . S
C311 C313 1.392 . S
C311 H321 0.929 . S
C312 C308 1.383 . S
C312 C309 1.389 . S
C312 H322 0.931 . S
C313 C310 1.380 . S
C313 C311 1.392 . S
C313 H323 0.929 . S
C314 O294 1.266 . S
C314 O295 1.248 . S
C315 Tb251 2.802 . S
C315 O290 1.264 . S
C315 O293 1.256 . S
C315 C308 1.496 . S
H316 C299 0.929 . S
H317 C300 0.929 . S
H318 C301 0.929 . S
H319 C302 0.931 . S
H320 C310 0.929 . S
H321 C311 0.929 . S
H322 C312 0.931 . S
H323 C313 0.929 . S
Tb324 N353 2.617 . S
Tb324 N359 2.572 1_556 S
Tb324 O368 2.465 . S
Tb324 O369 2.387 1_556 S
Tb324 O371 2.428 . S
Tb324 O372 2.308 1_556 S
Tb324 O376 2.349 . S
Tb324 O379 2.393 1_556 S
Tb324 C388 2.802 . S
C325 N326 1.379 . S
C325 C328 1.416 . S
C325 C332 1.424 . S
N326 C325 1.379 . S
N326 C329 1.334 . S
N326 Tb335 2.617 . S
C327 C329 1.390 . S
C327 C330 1.339 . S
C327 H347 0.930 . S
C328 C325 1.416 . S
C328 C330 1.416 . S
C328 C334 1.448 . S
C329 N326 1.334 . S
C329 C327 1.390 . S
C329 H340 0.930 . S
C330 C327 1.339 . S
C330 C328 1.416 . S
C330 H351 0.930 . S
C331 C332 1.413 . S
C331 C333 1.427 . S
C331 C337 1.416 . S
C332 C325 1.424 . S
C332 C331 1.413 . S
C332 N336 1.361 . S
C333 C331 1.427 . S
C333 C334 1.328 . S
C333 H348 0.929 . S
C334 C328 1.448 . S
C334 C333 1.328 . S
C334 H349 0.930 . S
Tb335 N326 2.617 . S
Tb335 N336 2.572 . S
Tb335 O370 2.349 . S
Tb335 O373 2.393 . S
Tb335 O374 2.465 . S
Tb335 O375 2.387 . S
Tb335 O377 2.428 . S
Tb335 O378 2.308 . S
Tb335 C399 2.802 . S
N336 C332 1.361 . S
N336 Tb335 2.572 . S
N336 C338 1.340 . S
C337 C331 1.416 . S
C337 C339 1.332 . S
C337 H345 0.931 . S
C338 N336 1.340 . S
C338 C339 1.407 . S
C338 H344 0.930 . S
C339 C337 1.332 . S
C339 C338 1.407 . S
C339 H341 0.929 . S
H340 C329 0.930 . S
H341 C339 0.929 . S
H342 C357 0.930 . S
H343 C364 0.929 . S
H344 C338 0.930 . S
H345 C337 0.931 . S
H346 C360 0.930 . S
H347 C327 0.930 . S
H348 C333 0.929 . S
H349 C334 0.930 . S
H350 C355 0.930 . S
H351 C330 0.930 . S
H352 C363 0.931 . S
N353 Tb324 2.617 . S
N353 C354 1.379 1_556 S
N353 C357 1.335 . S
C354 N353 1.379 1_554 S
C354 C356 1.416 . S
C354 C362 1.424 . S
C355 H350 0.930 . S
C355 C357 1.390 . S
C355 C358 1.339 1_556 S
C356 C354 1.416 . S
C356 C358 1.416 . S
C356 C389 1.448 . S
C357 H342 0.930 . S
C357 N353 1.335 . S
C357 C355 1.390 . S
C358 C355 1.339 1_554 S
C358 C356 1.416 . S
C358 H365 0.930 . S
N359 Tb324 2.572 1_554 S
N359 C360 1.340 . S
N359 C362 1.361 . S
C360 H346 0.930 . S
C360 N359 1.340 . S
C360 C364 1.407 . S
C361 C362 1.413 . S
C361 C363 1.416 . S
C361 C390 1.427 . S
C362 C354 1.424 . S
C362 N359 1.361 . S
C362 C361 1.413 . S
C363 H352 0.931 . S
C363 C361 1.416 . S
C363 C364 1.332 . S
C364 H343 0.929 . S
C364 C360 1.407 . S
C364 C363 1.332 . S
H365 C358 0.930 . S
H366 C389 0.930 . S
H367 C390 0.929 . S
O368 Tb324 2.465 . S
O368 C388 1.264 . S
O369 Tb324 2.387 1_554 S
O369 C380 1.264 . S
O370 Tb335 2.349 . S
O370 C380 1.243 . S
O371 Tb324 2.428 . S
O371 C388 1.256 . S
O372 Tb324 2.308 1_554 S
O372 C387 1.266 . S
O373 Tb335 2.393 . S
O373 C387 1.248 . S
O374 Tb335 2.465 . S
O374 C399 1.264 . S
O375 Tb335 2.387 . S
O375 C391 1.264 1_554 S
O376 Tb324 2.349 . S
O376 C391 1.243 . S
O377 Tb335 2.428 . S
O377 C399 1.256 . S
O378 Tb335 2.308 . S
O378 C398 1.266 . S
O379 Tb324 2.393 1_554 S
O379 C398 1.248 . S
C380 O369 1.264 . S
C380 O370 1.243 . S
C381 C384 1.399 . S
C381 C386 1.383 . S
C381 C388 1.496 . S
C382 C383 1.399 . S
C382 C386 1.389 . S
C383 C382 1.399 . S
C383 C385 1.380 . S
C383 H400 0.929 . S
C384 C381 1.399 . S
C384 C385 1.392 . S
C384 H401 0.929 . S
C385 C383 1.380 . S
C385 C384 1.392 . S
C385 H402 0.929 . S
C386 C381 1.383 . S
C386 C382 1.389 . S
C386 H403 0.931 . S
C387 O372 1.266 . S
C387 O373 1.248 . S
C388 Tb324 2.802 . S
C388 O368 1.264 . S
C388 O371 1.256 . S
C388 C381 1.496 . S
C389 C356 1.448 . S
C389 H366 0.930 . S
C389 C390 1.328 . S
C390 C361 1.427 . S
C390 H367 0.929 . S
C390 C389 1.328 . S
C391 O375 1.264 1_556 S
C391 O376 1.243 . S
C392 C395 1.399 . S
C392 C396 1.383 . S
C392 C399 1.496 . S
C393 C394 1.399 . S
C393 C396 1.389 . S
C394 C393 1.399 . S
C394 C397 1.380 . S
C394 H404 0.929 . S
C395 C392 1.399 . S
C395 C397 1.392 . S
C395 H405 0.929 . S
C396 C392 1.383 . S
C396 C393 1.389 . S
C396 H406 0.931 . S
C397 C394 1.380 . S
C397 C395 1.392 . S
C397 H407 0.929 . S
C398 O378 1.266 . S
C398 O379 1.248 . S
C399 Tb335 2.802 . S
C399 O374 1.264 . S
C399 O377 1.256 . S
C399 C392 1.496 . S
H400 C383 0.929 . S
H401 C384 0.929 . S
H402 C385 0.929 . S
H403 C386 0.931 . S
H404 C394 0.929 . S
H405 C395 0.929 . S
H406 C396 0.931 . S
H407 C397 0.929 . S
C408 C409 1.387 . S
C408 H412 0.950 . S
C408 C417 1.390 . S
C409 C408 1.387 . S
C409 C411 1.387 . S
H410 C417 0.950 . S
C411 C409 1.387 . S
C411 C413 1.390 . S
C411 H415 0.950 . S
H412 C408 0.950 . S
C413 C411 1.390 . S
C413 C414 1.387 . S
C413 H416 0.950 . S
C414 C413 1.387 . S
C414 C417 1.387 . S
H415 C411 0.950 . S
H416 C413 0.950 . S
C417 C408 1.390 . S
C417 H410 0.950 . S
C417 C414 1.387 . S
C418 C419 1.387 . S
C418 H422 0.950 1_554 S
C418 C427 1.395 . S
C419 C418 1.387 . S
C419 C421 1.387 . S
H420 C427 0.934 1_556 S
C421 C419 1.387 . S
C421 C423 1.390 . S
C421 H425 0.950 . S
H422 C418 0.950 1_556 S
C423 C421 1.390 . S
C423 C424 1.387 . S
C423 H426 0.950 . S
C424 C423 1.387 . S
C424 C427 1.398 . S
H425 C421 0.950 . S
H426 C423 0.950 . S
C427 C418 1.395 . S
C427 H420 0.934 1_554 S
C427 C424 1.398 . S
C428 C429 1.387 . S
C428 H432 0.950 . S
C428 C437 1.390 . S
C429 C428 1.387 . S
C429 C431 1.387 . S
H430 C437 0.950 . S
C431 C429 1.387 . S
C431 C433 1.390 . S
C431 H435 0.950 . S
H432 C428 0.950 . S
C433 C431 1.390 . S
C433 C434 1.387 . S
C433 H436 0.950 . S
C434 C433 1.387 . S
C434 C437 1.387 . S
H435 C431 0.950 . S
H436 C433 0.950 . S
C437 C428 1.390 . S
C437 H430 0.950 . S
C437 C434 1.387 . S
C438 C439 1.387 . S
C438 H442 0.950 . S
C438 C447 1.390 . S
C439 C438 1.387 . S
C439 C441 1.387 1_554 S
H440 C447 0.950 . S
C441 C439 1.387 1_556 S
C441 C443 1.390 . S
C441 H445 0.950 . S
H442 C438 0.950 . S
C443 C441 1.390 . S
C443 C444 1.387 1_556 S
C443 H446 0.950 . S
C444 C443 1.387 1_554 S
C444 C447 1.387 . S
H445 C441 0.950 . S
H446 C443 0.950 . S
C447 C438 1.390 . S
C447 H440 0.950 . S
C447 C444 1.387 . S
C448 C449 1.387 . S
C448 H452 0.950 . S
C448 C457 1.390 . S
C449 C448 1.387 . S
C449 C451 1.387 . S
H450 C457 0.950 . S
C451 C449 1.387 . S
C451 C453 1.390 . S
C451 H455 0.953 . S
H452 C448 0.950 . S
C453 C451 1.390 . S
C453 C454 1.387 . S
C453 H456 0.950 1_565 S
C454 C453 1.387 . S
C454 C457 1.387 . S
H455 C451 0.953 . S
H456 C453 0.950 1_545 S
C457 C448 1.390 . S
C457 H450 0.950 . S
C457 C454 1.387 . S
C458 C459 1.387 . S
C458 H462 0.950 . S
C458 C467 1.390 . S
C459 C458 1.387 . S
C459 C461 1.387 . S
H460 C467 0.950 . S
C461 C459 1.387 . S
C461 C463 1.390 . S
C461 H465 0.950 . S
H462 C458 0.950 . S
C463 C461 1.390 . S
C463 C464 1.387 . S
C463 H466 0.950 . S
C464 C463 1.387 . S
C464 C467 1.387 . S
H465 C461 0.950 . S
H466 C463 0.950 . S
C467 C458 1.390 . S
C467 H460 0.950 . S
C467 C464 1.387 . S
C468 C469 1.387 . S
C468 H472 0.950 1_545 S
C468 C477 1.390 . S
C469 C468 1.387 . S
C469 C471 1.387 . S
H470 C477 0.950 1_565 S
C471 C469 1.387 . S
C471 C473 1.390 . S
C471 H475 0.950 . S
H472 C468 0.950 1_565 S
C473 C471 1.390 . S
C473 C474 1.387 . S
C473 H476 0.950 . S
C474 C473 1.387 . S
C474 C477 1.387 . S
H475 C471 0.950 . S
H476 C473 0.950 . S
C477 C468 1.390 . S
C477 H470 0.950 1_545 S
C477 C474 1.387 . S
C478 C479 1.387 . S
C478 H482 0.950 . S
C478 C487 1.390 . S
C479 C478 1.387 . S
C479 C481 1.387 . S
H480 C487 0.950 . S
C481 C479 1.387 . S
C481 C483 1.390 . S
C481 H485 0.950 . S
H482 C478 0.950 . S
C483 C481 1.390 . S
C483 C484 1.387 . S
C483 H486 0.950 . S
C484 C483 1.387 . S
C484 C487 1.387 . S
H485 C481 0.950 . S
H486 C483 0.950 . S
C487 C478 1.390 . S
C487 H480 0.950 . S
C487 C484 1.387 . S
C488 C489 1.387 . S
C488 H492 0.950 . S
C488 C497 1.390 . S
C489 C488 1.387 . S
C489 C491 1.387 . S
H490 C497 0.950 . S
C491 C489 1.387 . S
C491 C493 1.390 . S
C491 H495 0.950 . S
H492 C488 0.950 . S
C493 C491 1.390 . S
C493 C494 1.387 . S
C493 H496 0.950 . S
C494 C493 1.387 . S
C494 C497 1.387 . S
H495 C491 0.950 . S
H496 C493 0.950 . S
C497 C488 1.390 . S
C497 H490 0.950 . S
C497 C494 1.387 . S
C498 C499 1.387 . S
C498 H502 0.950 . S
C498 C507 1.390 . S
C499 C498 1.387 . S
C499 C501 1.387 . S
H500 C507 0.950 1_565 S
C501 C499 1.387 . S
C501 C503 1.390 . S
C501 H505 0.950 . S
H502 C498 0.950 . S
C503 C501 1.390 . S
C503 C504 1.387 . S
C503 H506 0.950 . S
C504 C503 1.387 . S
C504 C507 1.387 . S
H505 C501 0.950 . S
H506 C503 0.950 . S
C507 C498 1.390 . S
C507 H500 0.950 1_545 S
C507 C504 1.387 . S
C508 C509 1.387 . S
C508 H512 0.950 . S
C508 C517 1.390 . S
C509 C508 1.387 . S
C509 C511 1.387 . S
H510 C517 0.950 . S
C511 C509 1.387 . S
C511 C513 1.390 . S
C511 H515 0.950 . S
H512 C508 0.950 . S
C513 C511 1.390 . S
C513 C514 1.387 . S
C513 H516 0.950 . S
C514 C513 1.387 . S
C514 C517 1.387 . S
H515 C511 0.950 . S
H516 C513 0.950 . S
C517 C508 1.390 . S
C517 H510 0.950 . S
C517 C514 1.387 . S
C518 C519 1.387 1_545 S
C518 H522 0.950 . S
C518 C527 1.390 . S
C519 C518 1.387 1_565 S
C519 C521 1.387 . S
H520 C527 0.950 . S
C521 C519 1.387 . S
C521 C523 1.390 . S
C521 H525 0.950 . S
H522 C518 0.950 . S
C523 C521 1.390 . S
C523 C524 1.387 . S
C523 H526 0.950 . S
C524 C523 1.387 . S
C524 C527 1.387 1_565 S
H525 C521 0.950 . S
H526 C523 0.950 . S
C527 C518 1.390 . S
C527 H520 0.950 . S
C527 C524 1.387 1_545 S
C414 C303 1.671 . S
C409 C211 1.643 . S
C419 C31 1.552 . S
C424 C398 1.664 . S
C429 C91 1.681 . S
C434 C314 1.669 . S
C439 C151 1.623 . S
C444 C387 1.665 . S
C454 C298 1.432 . S
C449 C20 1.517 . S
C464 C391 1.630 . S
C459 C61 1.573 . S
C469 C121 1.652 . S
C474 C307 1.669 . S
C479 C200 1.482 . S
C484 C382 1.409 . S
C494 C393 1.411 . S
C489 C80 1.503 . S
C504 C309 1.433 . S
C499 C140 1.552 . S
C514 C380 1.630 . S
C509 C181 1.533 . S
C519 C1 1.578 . S
C524 C296 1.669 . S
