# Generated by pormake.
# Topology pyr, (3,6)-cn, num edge types: 1
# Building blocks:
#     Node 0, Type 0, BuildingBlock: BETDAH_clean_linker_0, # of connection points: 3
#     Node 1, Type 0, BuildingBlock: BETDAH_clean_linker_0, # of connection points: 3
#     Node 2, Type 0, BuildingBlock: BETDAH_clean_linker_0, # of connection points: 3
#     Node 3, Type 0, BuildingBlock: BETDAH_clean_linker_0, # of connection points: 3
#     Node 4, Type 0, BuildingBlock: BETDAH_clean_linker_0, # of connection points: 3
#     Node 5, Type 0, BuildingBlock: BETDAH_clean_linker_0, # of connection points: 3
#     Node 6, Type 0, BuildingBlock: BETDAH_clean_linker_0, # of connection points: 3
#     Node 7, Type 0, BuildingBlock: BETDAH_clean_linker_0, # of connection points: 3
#     Node 8, Type 1, BuildingBlock: CIFDUS_clean_sbu_1, # of connection points: 6
#     Node 9, Type 1, BuildingBlock: CIFDUS_clean_sbu_1, # of connection points: 6
#     Node 10, Type 1, BuildingBlock: CIFDUS_clean_sbu_1, # of connection points: 6
#     Node 11, Type 1, BuildingBlock: CIFDUS_clean_sbu_1, # of connection points: 6
#     Edge 12, Type (0, 1), BuildingBlock: CIFDUS_clean_linker_0, # of connection points: 2
#     Edge 13, Type (0, 1), BuildingBlock: CIFDUS_clean_linker_0, # of connection points: 2
#     Edge 14, Type (0, 1), BuildingBlock: CIFDUS_clean_linker_0, # of connection points: 2
#     Edge 15, Type (0, 1), BuildingBlock: CIFDUS_clean_linker_0, # of connection points: 2
#     Edge 16, Type (0, 1), BuildingBlock: CIFDUS_clean_linker_0, # of connection points: 2
#     Edge 17, Type (0, 1), BuildingBlock: CIFDUS_clean_linker_0, # of connection points: 2
#     Edge 18, Type (0, 1), BuildingBlock: CIFDUS_clean_linker_0, # of connection points: 2
#     Edge 19, Type (0, 1), BuildingBlock: CIFDUS_clean_linker_0, # of connection points: 2
#     Edge 20, Type (0, 1), BuildingBlock: CIFDUS_clean_linker_0, # of connection points: 2
#     Edge 21, Type (0, 1), BuildingBlock: CIFDUS_clean_linker_0, # of connection points: 2
#     Edge 22, Type (0, 1), BuildingBlock: CIFDUS_clean_linker_0, # of connection points: 2
#     Edge 23, Type (0, 1), BuildingBlock: CIFDUS_clean_linker_0, # of connection points: 2
#     Edge 24, Type (0, 1), BuildingBlock: CIFDUS_clean_linker_0, # of connection points: 2
#     Edge 25, Type (0, 1), BuildingBlock: CIFDUS_clean_linker_0, # of connection points: 2
#     Edge 26, Type (0, 1), BuildingBlock: CIFDUS_clean_linker_0, # of connection points: 2
#     Edge 27, Type (0, 1), BuildingBlock: CIFDUS_clean_linker_0, # of connection points: 2
#     Edge 28, Type (0, 1), BuildingBlock: CIFDUS_clean_linker_0, # of connection points: 2
#     Edge 29, Type (0, 1), BuildingBlock: CIFDUS_clean_linker_0, # of connection points: 2
#     Edge 30, Type (0, 1), BuildingBlock: CIFDUS_clean_linker_0, # of connection points: 2
#     Edge 31, Type (0, 1), BuildingBlock: CIFDUS_clean_linker_0, # of connection points: 2
#     Edge 32, Type (0, 1), BuildingBlock: CIFDUS_clean_linker_0, # of connection points: 2
#     Edge 33, Type (0, 1), BuildingBlock: CIFDUS_clean_linker_0, # of connection points: 2
#     Edge 34, Type (0, 1), BuildingBlock: CIFDUS_clean_linker_0, # of connection points: 2
#     Edge 35, Type (0, 1), BuildingBlock: CIFDUS_clean_linker_0, # of connection points: 2
# Relax obj value: 0.084
# Max RMSD: 0.172
# Mean RMSD: 0.135
data_MOF--net-pry--node1-CIFDUS_clean_sbu_1--node2-BETDAH_clean_linker_0--edge1-CIFDUS_clean_linker_0
_symmetry_space_group_name_H-M    P1
_symmetry_Int_Tables_number       1
_symmetry_cell_setting            triclinic
loop_
_symmetry_equiv_pos_as_xyz
'x, y, z'
_cell_length_a     31.345103
_cell_length_b     30.908029
_cell_length_c     31.48603
_cell_angle_alpha  92.852001
_cell_angle_beta   91.679847
_cell_angle_gamma 99.957658
loop_
_atom_site_label
_atom_site_type_symbol
_atom_site_fract_x
_atom_site_fract_y
_atom_site_fract_z
_atom_type_partial_charge
H0 H 0.21159 0.12172 0.23035 0.0
H1 H 0.19327 0.17913 0.11174 0.0
H2 H 0.10203 0.18841 0.20852 0.0
C3 C 0.19263 0.13984 0.21097 0.0
C4 C 0.15426 0.15325 0.22643 0.0
C5 C 0.20746 0.15006 0.17012 0.0
C6 C 0.18276 0.17217 0.14359 0.0
C7 C 0.14507 0.18606 0.15727 0.0
C8 C 0.13123 0.17724 0.19876 0.0
N9 N 0.11846 0.20208 0.1262 0.0
C10 C 0.10548 0.24323 0.12724 0.0
H11 H 0.4538 0.89621 0.72712 0.0
H12 H 0.35269 0.96216 0.68294 0.0
H13 H 0.39185 0.8611 0.60278 0.0
C14 C 0.43097 0.90072 0.70195 0.0
C15 C 0.42638 0.87337 0.66404 0.0
C16 C 0.40415 0.93227 0.70927 0.0
C17 C 0.37399 0.93857 0.67716 0.0
C18 C 0.37109 0.91377 0.63804 0.0
C19 C 0.397 0.88151 0.63203 0.0
N20 N 0.34147 0.91863 0.60427 0.0
C21 C 0.30725 0.94168 0.60724 0.0
H22 H 0.69517 0.3497 0.93756 0.0
H23 H 0.7291 0.41516 0.82246 0.0
H24 H 0.66451 0.2808 0.81554 0.0
C25 C 0.69522 0.34957 0.90312 0.0
C26 C 0.67738 0.31091 0.87897 0.0
C27 C 0.71469 0.38736 0.88333 0.0
C28 C 0.71318 0.38696 0.83852 0.0
C29 C 0.69481 0.34857 0.81416 0.0
C30 C 0.67734 0.3107 0.8345 0.0
N31 N 0.69677 0.34604 0.76924 0.0
C32 C 0.69104 0.38055 0.74438 0.0
H33 H 0.84639 0.70285 0.50289 0.0
H34 H 0.9546 0.70917 0.42049 0.0
H35 H 0.83771 0.61992 0.38751 0.0
C36 C 0.86119 0.6915 0.47484 0.0
C37 C 0.83635 0.65939 0.44641 0.0
C38 C 0.90413 0.71042 0.46619 0.0
C39 C 0.92232 0.69486 0.42929 0.0
C40 C 0.89849 0.66305 0.4009 0.0
C41 C 0.85561 0.64521 0.40939 0.0
N42 N 0.91948 0.64963 0.36446 0.0
C43 C 0.90006 0.63744 0.32435 0.0
H44 H 0.9393 0.84942 0.82478 0.0
H45 H 0.886 0.86609 0.94752 0.0
H46 H 0.84873 0.9387 0.84454 0.0
C47 C 0.918 0.86425 0.84506 0.0
C48 C 0.89527 0.89616 0.82849 0.0
C49 C 0.91447 0.85195 0.88783 0.0
C50 C 0.88778 0.87288 0.91414 0.0
C51 C 0.86374 0.90353 0.89872 0.0
C52 C 0.86707 0.91468 0.85586 0.0
N53 N 0.84031 0.92533 0.92885 0.0
C54 C 0.80171 0.94127 0.92186 0.0
H55 H 0.69026 0.09762 0.36903 0.0
H56 H 0.69292 0.19801 0.47041 0.0
H57 H 0.62271 0.20494 0.35227 0.0
C58 C 0.67927 0.12663 0.38233 0.0
C59 C 0.65342 0.14818 0.35666 0.0
C60 C 0.69406 0.14428 0.42348 0.0
C61 C 0.68114 0.18354 0.43931 0.0
C62 C 0.65447 0.20493 0.41367 0.0
C63 C 0.64147 0.18726 0.37257 0.0
N64 N 0.64377 0.24669 0.42518 0.0
C65 C 0.63844 0.26485 0.46564 0.0
H66 H 0.31143 0.76153 0.15439 0.0
H67 H 0.34685 0.65881 0.22934 0.0
H68 H 0.40895 0.79152 0.25505 0.0
C69 C 0.33014 0.75062 0.17969 0.0
C70 C 0.36186 0.78189 0.20235 0.0
C71 C 0.32303 0.70574 0.18908 0.0
C72 C 0.34897 0.69294 0.22223 0.0
C73 C 0.37927 0.72428 0.24602 0.0
C74 C 0.38537 0.76814 0.23605 0.0
N75 N 0.4062 0.71273 0.27887 0.0
C76 C 0.39297 0.68109 0.30767 0.0
H77 H 0.17145 0.38448 0.55015 0.0
H78 H 0.17217 0.46881 0.66186 0.0
H79 H 0.05224 0.39334 0.61389 0.0
C80 C 0.15289 0.39772 0.57428 0.0
C81 C 0.10797 0.38194 0.57757 0.0
C82 C 0.17598 0.42929 0.60397 0.0
C83 C 0.15443 0.44513 0.63834 0.0
C84 C 0.1097 0.4315 0.64146 0.0
C85 C 0.08671 0.40179 0.61034 0.0
N86 N 0.08634 0.44675 0.67543 0.0
C87 C 0.1034 0.46042 0.71622 0.0
O88 O 0.94119 0.07068 0.51474 0.0
Mn89 Mn 0.99921 0.04759 0.52846 0.0
O90 O 0.90781 0.02849 0.45894 0.0
Mn91 Mn 0.95401 1.00043 0.44607 0.0
O92 O 0.05772 0.02488 0.54243 0.0
O93 O 0.02074 0.10472 0.56135 0.0
Mn94 Mn 0.04436 0.09506 0.6106 0.0
O95 O 0.97082 0.01897 0.5844 0.0
O96 O 0.09048 0.06756 0.59814 0.0
O97 O 0.02738 0.0762 0.47221 0.0
O98 O 0.99732 0.03223 0.41607 0.0
O99 O 0.04898 0.15511 0.6096 0.0
O100 O 1.00112 0.06298 0.64038 0.0
C101 C 0.96523 0.94913 0.4858 0.0
C102 C 0.9087 0.05876 0.4882 0.0
C103 C 0.08996 0.03693 0.56942 0.0
C104 C 0.02941 0.14606 0.57265 0.0
C105 C 0.97397 0.03016 0.62483 0.0
C106 C 0.02421 0.06523 0.43167 0.0
O107 O 0.97711 0.99057 0.49556 0.0
O108 O 0.94739 0.94025 0.44807 0.0
O109 O 0.47857 0.04121 0.97371 0.0
Mn110 Mn 0.50494 0.04791 0.03755 0.0
O111 O 0.45906 0.96858 0.95712 0.0
Mn112 Mn 0.49384 0.95182 0.9991 0.0
O113 O 0.53257 0.05408 0.10068 0.0
O114 O 0.52441 0.11212 0.02967 0.0
Mn115 Mn 0.51469 0.14321 0.07537 0.0
O116 O 0.44419 0.06054 0.06143 0.0
O117 O 0.54808 0.12666 0.11853 0.0
O118 O 0.56503 0.03488 0.0146 0.0
O119 O 0.5528 0.96381 0.98972 0.0
O120 O 0.53947 0.18358 0.03862 0.0
O121 O 0.45584 0.13246 0.08235 0.0
C122 C 0.47169 0.94842 0.06269 0.0
C123 C 0.4604 0.00851 0.94832 0.0
C124 C 0.54995 0.08697 0.12606 0.0
C125 C 0.54073 0.14892 0.01416 0.0
C126 C 0.43078 0.09535 0.07704 0.0
C127 C 0.57792 1.00078 0.99708 0.0
O128 O 0.48603 0.9841 0.04473 0.0
O129 O 0.47126 0.913 0.03887 0.0
O130 O 0.5764 0.57265 0.55308 0.0
Mn131 Mn 0.51385 0.54791 0.57297 0.0
O132 O 0.57746 0.54493 0.48563 0.0
Mn133 Mn 0.52177 0.51279 0.4825 0.0
O134 O 0.45053 0.52171 0.59061 0.0
O135 O 0.53848 0.55148 0.63379 0.0
Mn136 Mn 0.49912 0.56811 0.66664 0.0
O137 O 0.50092 0.61387 0.5811 0.0
O138 O 0.44992 0.52573 0.66165 0.0
O139 O 0.52794 0.48286 0.56823 0.0
O140 O 0.51532 0.45694 0.50086 0.0
O141 O 0.54349 0.56254 0.70335 0.0
O142 O 0.4928 0.62309 0.65162 0.0
C143 C 0.46946 0.54575 0.47484 0.0
C144 C 0.59567 0.56828 0.51788 0.0
C145 C 0.43173 0.5126 0.62564 0.0
C146 C 0.56123 0.55089 0.66893 0.0
C147 C 0.49445 0.63785 0.6146 0.0
C148 C 0.52395 0.45123 0.53939 0.0
O149 O 0.48913 0.54393 0.51168 0.0
O150 O 0.48309 0.52447 0.44294 0.0
O151 O 0.95338 0.5237 1.00992 0.0
Mn152 Mn 0.01596 0.55641 0.02399 0.0
O153 O 0.93619 0.55627 0.95301 0.0
Mn154 Mn 0.99348 0.5716 0.93809 0.0
O155 O 0.07999 0.58739 0.04162 0.0
O156 O 0.99466 0.56732 0.0848 0.0
Mn157 Mn 0.03018 0.53956 0.11324 0.0
O158 O 0.0331 0.49252 0.03498 0.0
O159 O 0.08688 0.56535 0.10784 0.0
O160 O 0.99941 0.62077 1.01092 0.0
O161 O 0.01264 0.63036 0.94264 0.0
O162 O 1.00108 0.55971 0.1552 0.0
O163 O 0.01775 0.48051 0.10188 0.0
C164 C 0.0304 0.52215 0.92747 0.0
C165 C 0.92519 0.53152 0.9829 0.0
C166 C 0.10287 0.58482 0.07582 0.0
C167 C 0.98133 0.57411 0.12345 0.0
C168 C 0.02779 0.46637 0.06605 0.0
C169 C 1.00481 0.64613 0.97883 0.0
O170 O 0.03627 0.54782 0.96242 0.0
O171 O 1.00458 0.53252 0.89826 0.0
H172 H 0.07108 0.14792 0.25773 0.0
H173 H 0.20046 0.13224 0.29785 0.0
H174 H 0.17362 0.10699 0.36535 0.0
H175 H 0.11176 0.08424 0.41287 0.0
H176 H 0.98506 0.10749 0.3742 0.0
H177 H 0.01315 0.13671 0.30814 0.0
C178 C 0.09425 0.14028 0.28108 0.0
C179 C 0.13814 0.14149 0.27057 0.0
C180 C 0.079 0.12737 0.3213 0.0
C181 C 0.16624 0.13031 0.30274 0.0
C182 C 0.15098 0.1163 0.34229 0.0
C183 C 0.09073 0.0972 0.39068 0.0
C184 C 0.04626 0.09413 0.39909 0.0
C185 C 0.10721 0.11401 0.35191 0.0
C186 C 0.01944 0.11002 0.36909 0.0
C187 C 0.03542 0.12632 0.33089 0.0
H188 H 0.46254 0.99912 0.75027 0.0
H189 H 0.34357 0.90927 0.76663 0.0
H190 H 0.34603 0.93142 0.84243 0.0
H191 H 0.38741 0.96821 0.90544 0.0
H192 H 0.50585 0.05918 0.89047 0.0
H193 H 0.49754 0.04632 0.81289 0.0
C194 C 0.43671 0.98534 0.77038 0.0
C195 C 0.40289 0.95252 0.75302 0.0
C196 C 0.43821 0.9986 0.81417 0.0
C197 C 0.36969 0.93469 0.7793 0.0
C198 C 0.37119 0.94726 0.82266 0.0
C199 C 0.41046 0.98659 0.88506 0.0
C200 C 0.44709 0.01475 0.90371 0.0
C201 C 0.4059 0.97821 0.84066 0.0
C202 C 0.47699 0.03794 0.87697 0.0
C203 C 0.47262 0.02992 0.83257 0.0
H204 H 0.70025 0.46822 0.75992 0.0
H205 H 0.65045 0.3619 0.66853 0.0
H206 H 0.61224 0.4103 0.62909 0.0
H207 H 0.58254 0.47867 0.6283 0.0
H208 H 0.62948 0.58396 0.7216 0.0
H209 H 0.68093 0.5415 0.75108 0.0
C210 C 0.68226 0.45638 0.73043 0.0
C211 C 0.67767 0.4119 0.71692 0.0
C212 C 0.66014 0.48447 0.70795 0.0
C213 C 0.65419 0.39629 0.67917 0.0
C214 C 0.63245 0.424 0.65651 0.0
C215 C 0.60556 0.49313 0.6535 0.0
C216 C 0.60217 0.5341 0.67287 0.0
C217 C 0.63373 0.46768 0.67148 0.0
C218 C 0.63163 0.55228 0.70625 0.0
C219 C 0.66067 0.52781 0.72349 0.0
H220 H 0.92814 0.68681 0.26018 0.0
H221 H 0.8563 0.5606 0.28891 0.0
H222 H 0.86196 0.53286 0.21538 0.0
H223 H 0.90393 0.53932 0.15086 0.0
H224 H 0.9838 0.66244 0.12605 0.0
H225 H 0.95642 0.69773 0.18828 0.0
C226 C 0.91226 0.65383 0.24967 0.0
C227 C 0.89188 0.62559 0.2795 0.0
C228 C 0.91723 0.63773 0.20783 0.0
C229 C 0.87192 0.58278 0.26619 0.0
C230 C 0.87539 0.56693 0.22424 0.0
C231 C 0.91309 0.57455 0.1576 0.0
C232 C 0.94631 0.59812 0.13443 0.0
C233 C 0.90012 0.59336 0.1956 0.0
C234 C 0.95818 0.64363 0.14333 0.0
C235 C 0.94342 0.66348 0.17974 0.0
H236 H 0.23847 0.07243 0.14862 0.0
H237 H 0.27459 0.21384 0.15854 0.0
H238 H 0.34455 0.20875 0.12912 0.0
H239 H 0.39467 0.16598 0.09953 0.0
H240 H 0.36395 0.02418 0.08903 0.0
H241 H 0.2925 0.02756 0.11877 0.0
C242 C 0.26203 0.10192 0.14477 0.0
C243 C 0.25133 0.14365 0.15611 0.0
C244 C 0.30281 0.09876 0.12711 0.0
C245 C 0.28197 0.18153 0.15035 0.0
C246 C 0.32196 0.17863 0.1333 0.0
C247 C 0.37275 0.13537 0.10357 0.0
C248 C 0.38532 0.09476 0.09175 0.0
C249 C 0.33255 0.13763 0.12127 0.0
C250 C 0.35549 0.05598 0.09733 0.0
C251 C 0.31465 0.05797 0.1147 0.0
H252 H 0.24015 0.9239 0.55058 0.0
H253 H 0.29152 0.00743 0.66043 0.0
H254 H 0.22857 0.04463 0.65763 0.0
H255 H 0.15982 0.05306 0.62432 0.0
H256 H 0.1065 0.96962 0.51455 0.0
H257 H 0.16969 0.93259 0.51675 0.0
C258 C 0.23728 0.95027 0.57382 0.0
C259 C 0.26997 0.96318 0.60574 0.0
C260 C 0.20098 0.97138 0.57189 0.0
C261 C 0.26648 0.99718 0.63574 0.0
C262 C 0.23061 0.01836 0.63406 0.0
C263 C 0.16172 0.02685 0.60062 0.0
C264 C 0.12822 0.01431 0.56916 0.0
C265 C 0.19776 0.00571 0.60228 0.0
C266 C 0.13169 0.9801 0.53903 0.0
C267 C 0.16781 0.95889 0.54033 0.0
H268 H 0.76714 0.38133 0.95239 0.0
H269 H 0.72545 0.47621 0.87154 0.0
H270 H 0.7841 0.53281 0.90191 0.0
H271 H 0.85437 0.55073 0.94125 0.0
H272 H 0.89598 0.45498 0.02092 0.0
H273 H 0.82885 0.40378 1.00242 0.0
C274 C 0.76968 0.41468 0.94231 0.0
C275 C 0.74248 0.42412 0.90881 0.0
C276 C 0.80372 0.44682 0.95946 0.0
C277 C 0.74671 0.46767 0.89632 0.0
C278 C 0.78017 0.50008 0.91375 0.0
C279 C 0.84831 0.519 0.95529 0.0
C280 C 0.88061 0.50613 0.98141 0.0
C281 C 0.81015 0.48933 0.94368 0.0
C282 C 0.8719 0.46546 1.00028 0.0
C283 C 0.83364 0.43603 0.98946 0.0
H284 H 0.79695 0.64309 0.52268 0.0
H285 H 0.76956 0.63943 0.38699 0.0
H286 H 0.69352 0.61231 0.39779 0.0
H287 H 0.63476 0.58928 0.44479 0.0
H288 H 0.65919 0.59547 0.5807 0.0
H289 H 0.73621 0.62386 0.57077 0.0
C290 C 0.77437 0.63692 0.49544 0.0
C291 C 0.7896 0.64284 0.45393 0.0
C292 C 0.73001 0.62232 0.5019 0.0
C293 C 0.7595 0.63407 0.41919 0.0
C294 C 0.71571 0.61903 0.42533 0.0
C295 C 0.65682 0.59693 0.4724 0.0
C296 C 0.64127 0.58993 0.51344 0.0
C297 C 0.7007 0.6129 0.46642 0.0
C298 C 0.67026 0.6007 0.54879 0.0
C299 C 0.71433 0.61661 0.54305 0.0
H300 H 0.1186 0.29672 0.06085 0.0
H301 H 0.05159 0.27861 0.17798 0.0
H302 H 0.01778 0.34289 0.16592 0.0
H303 H 0.00848 0.40462 0.12373 0.0
H304 H 0.07742 0.42749 1.00807 0.0
H305 H 0.10809 0.36013 0.01698 0.0
C306 C 0.09682 0.30722 0.0838 0.0
C307 C 0.08798 0.28336 0.1207 0.0
C308 C 0.07738 0.34452 0.0765 0.0
C309 C 0.0593 0.29675 0.14981 0.0
C310 C 0.03976 0.33333 0.14271 0.0
C311 C 0.02999 0.39501 0.10003 0.0
C312 C 0.04058 0.42165 0.06518 0.0
C313 C 0.04863 0.35745 0.1063 0.0
C314 C 0.06826 0.40782 0.03494 0.0
C315 C 0.08622 0.36949 0.0404 0.0
H316 H 0.60072 0.25472 0.86382 0.0
H317 H 0.7184 0.2759 0.94232 0.0
H318 H 0.68907 0.21454 0.98471 0.0
H319 H 0.62563 0.16521 1.00736 0.0
H320 H 0.50523 0.14906 0.9345 0.0
H321 H 0.5403 0.19593 0.88041 0.0
C322 C 0.62018 0.24513 0.88961 0.0
C323 C 0.66122 0.27021 0.90061 0.0
C324 C 0.6027 0.2103 0.91443 0.0
C325 C 0.68627 0.25764 0.93403 0.0
C326 C 0.66969 0.22239 0.95803 0.0
C327 C 0.60783 0.17015 0.97839 0.0
C328 C 0.5633 0.15379 0.97441 0.0
C329 C 0.62738 0.1997 0.94956 0.0
C330 C 0.53986 0.16087 0.93756 0.0
C331 C 0.5597 0.18849 0.90725 0.0
H332 H 0.87075 0.77398 0.51321 0.0
H333 H 0.99294 0.73782 0.47857 0.0
H334 H 0.02899 0.81341 0.4934 0.0
H335 H 0.02012 0.89166 0.49632 0.0
H336 H 0.90007 0.92576 0.53778 0.0
H337 H 0.86965 0.84822 0.54322 0.0
C338 C 0.90554 0.78145 0.51052 0.0
C339 C 0.92813 0.75035 0.4913 0.0
C340 C 0.92667 0.82483 0.52063 0.0
C341 C 0.97367 0.76158 0.48987 0.0
C342 C 0.99468 0.80485 0.49897 0.0
C343 C 0.9884 0.88217 0.50934 0.0
C344 C 0.96188 0.91399 0.51564 0.0
C345 C 0.97076 0.83733 0.51132 0.0
C346 C 0.92095 0.90161 0.53262 0.0
C347 C 0.90318 0.85714 0.53478 0.0
H348 H 0.44881 0.82853 0.59084 0.0
H349 H 0.45064 0.82471 0.72837 0.0
H350 H 0.47692 0.75615 0.72353 0.0
H351 H 0.49222 0.69407 0.68234 0.0
H352 H 0.48324 0.68941 0.54511 0.0
H353 H 0.46574 0.76391 0.54812 0.0
C354 C 0.45447 0.81279 0.61992 0.0
C355 C 0.44741 0.83307 0.66007 0.0
C356 C 0.46754 0.77118 0.61708 0.0
C357 C 0.45653 0.81179 0.69697 0.0
C358 C 0.47104 0.77171 0.69432 0.0
C359 C 0.48639 0.70869 0.65259 0.0
C360 C 0.48802 0.68482 0.61333 0.0
C361 C 0.47556 0.75073 0.65471 0.0
C362 C 0.48146 0.70595 0.57575 0.0
C363 C 0.47149 0.7488 0.57759 0.0
H364 H 0.89108 0.97782 0.7976 0.0
H365 H 0.91754 0.84998 0.7565 0.0
H366 H 0.93998 0.87788 0.68818 0.0
H367 H 0.95893 0.94123 0.64146 0.0
H368 H 0.92774 0.06681 0.68249 0.0
H369 H 0.89876 0.03653 0.74774 0.0
C370 C 0.90057 0.95531 0.77367 0.0
C371 C 0.90332 0.91174 0.78379 0.0
C372 C 0.91254 0.97125 0.73353 0.0
C373 C 0.9164 0.88409 0.75131 0.0
C374 C 0.92891 0.89993 0.71157 0.0
C375 C 0.94438 0.96146 0.664 0.0
C376 C 0.94543 0.00639 0.65668 0.0
C377 C 0.9281 0.94384 0.70248 0.0
C378 C 0.92718 0.03216 0.68695 0.0
C379 C 0.91093 0.01495 0.72465 0.0
H380 H 0.59569 0.07763 0.32084 0.0
H381 H 0.6911 0.18872 0.2906 0.0
H382 H 0.67252 0.17373 0.21486 0.0
H383 H 0.62355 0.13541 0.15855 0.0
H384 H 0.52428 0.02695 0.18651 0.0
H385 H 0.55053 0.03333 0.26143 0.0
C386 C 0.61272 0.09791 0.29741 0.0
C387 C 0.64453 0.13444 0.31103 0.0
C388 C 0.60116 0.0895 0.25362 0.0
C389 C 0.66641 0.16068 0.28067 0.0
C390 C 0.6558 0.15209 0.23744 0.0
C391 C 0.6083 0.11241 0.18085 0.0
C392 C 0.57197 0.08089 0.16712 0.0
C393 C 0.62249 0.11746 0.22371 0.0
C394 C 0.55258 0.0512 0.19621 0.0
C395 C 0.56724 0.05533 0.23917 0.0
H396 H 0.42343 0.70192 0.38678 0.0
H397 H 0.35272 0.59617 0.30504 0.0
H398 H 0.35865 0.54404 0.36033 0.0
H399 H 0.39801 0.52721 0.42414 0.0
H400 H 0.47826 0.63131 0.49961 0.0
H401 H 0.45258 0.68627 0.45674 0.0
C402 C 0.40823 0.66764 0.38184 0.0
C403 C 0.38789 0.65237 0.34236 0.0
C404 C 0.41325 0.63794 0.41308 0.0
C405 C 0.36851 0.60818 0.33548 0.0
C406 C 0.37201 0.57855 0.36699 0.0
C407 C 0.40798 0.5621 0.43238 0.0
C408 C 0.4394 0.57572 0.46536 0.0
C409 C 0.39613 0.59276 0.405 0.0
C410 C 0.45278 0.62064 0.47563 0.0
C411 C 0.43915 0.65178 0.45008 0.0
H412 H 0.08 0.41181 0.78243 0.0
H413 H 0.14209 0.54034 0.74907 0.0
H414 H 0.13818 0.56889 0.82263 0.0
H415 H 0.10158 0.56073 0.8904 0.0
H416 H 0.03103 0.4345 0.92017 0.0
H417 H 0.0559 0.40072 0.85573 0.0
C418 C 0.09404 0.44565 0.79184 0.0
C419 C 0.11129 0.47411 0.76079 0.0
C420 C 0.09022 0.46205 0.83384 0.0
C421 C 0.12887 0.51797 0.77273 0.0
C422 C 0.12645 0.53427 0.81473 0.0
C423 C 0.094 0.52534 0.88406 0.0
C424 C 0.06454 0.50009 0.90997 0.0
C425 C 0.10527 0.50711 0.84498 0.0
C426 C 0.05406 0.45449 0.90103 0.0
C427 C 0.06738 0.43542 0.8635 0.0
H428 H 0.77873 0.99725 0.9822 0.0
H429 H 0.73058 0.91593 0.87004 0.0
H430 H 0.65731 0.93083 0.8816 0.0
H431 H 0.60594 0.96111 0.92726 0.0
H432 H 0.65303 0.04298 0.03944 0.0
H433 H 0.72766 0.03425 0.02423 0.0
C434 C 0.75223 0.98356 0.95989 0.0
C435 C 0.75991 0.95562 0.92515 0.0
C436 C 0.71002 0.9921 0.96706 0.0
C437 C 0.72543 0.93768 0.89675 0.0
C438 C 0.68353 0.94606 0.90353 0.0
C439 C 0.63262 0.97763 0.94809 0.0
C440 C 0.6238 0.00252 0.98464 0.0
C441 C 0.67527 0.97234 0.9391 0.0
C442 C 0.65881 0.02395 1.01103 0.0
C443 C 0.70148 0.01862 1.00245 0.0
H444 H 0.7718 0.1831 0.46228 0.0
H445 H 0.68889 0.05727 0.4363 0.0
H446 H 0.74739 0.01964 0.45843 0.0
H447 H 0.82455 0.02215 0.47536 0.0
H448 H 0.90838 0.14691 0.50297 0.0
H449 H 0.84713 0.18534 0.49074 0.0
C450 C 0.7662 0.14751 0.46271 0.0
C451 C 0.72616 0.123 0.44697 0.0
C452 C 0.80036 0.1259 0.47518 0.0
C453 C 0.71954 0.07687 0.44761 0.0
C454 C 0.75303 0.0553 0.46016 0.0
C455 C 0.82921 0.05775 0.47946 0.0
C456 C 0.87094 0.08173 0.48948 0.0
C457 C 0.79399 0.07941 0.47237 0.0
C458 C 0.87651 0.12775 0.49527 0.0
C459 C 0.84153 0.1497 0.488 0.0
H460 H 0.28283 0.70993 0.1089 0.0
H461 H 0.28121 0.62593 0.21561 0.0
H462 H 0.22022 0.57693 0.18282 0.0
H463 H 0.16059 0.56299 0.13153 0.0
H464 H 0.14984 0.65328 0.03318 0.0
H465 H 0.22194 0.69492 0.05556 0.0
C466 C 0.26905 0.68166 0.12596 0.0
C467 C 0.28757 0.67312 0.1658 0.0
C468 C 0.23101 0.65468 0.10857 0.0
C469 C 0.26946 0.63421 0.18501 0.0
C470 C 0.23367 0.60596 0.16647 0.0
C471 C 0.1738 0.59177 0.11465 0.0
C472 C 0.14924 0.60565 0.08139 0.0
C473 C 0.21333 0.61677 0.12934 0.0
C474 C 0.1678 0.64206 0.05911 0.0
C475 C 0.20884 0.66603 0.07223 0.0
H476 H 0.23955 0.43038 0.66424 0.0
H477 H 0.2181 0.46021 0.53396 0.0
H478 H 0.29608 0.48536 0.52738 0.0
H479 H 0.37022 0.50245 0.56031 0.0
H480 H 0.39028 0.4713 0.69081 0.0
H481 H 0.31339 0.44267 0.69538 0.0
C482 C 0.25203 0.44257 0.6345 0.0
C483 C 0.22324 0.44404 0.59986 0.0
C484 C 0.29676 0.45654 0.63088 0.0
C485 C 0.23978 0.45897 0.56114 0.0
C486 C 0.28431 0.47332 0.55737 0.0
C487 C 0.35784 0.48877 0.58949 0.0
C488 C 0.38606 0.48951 0.62526 0.0
C489 C 0.31315 0.47263 0.5922 0.0
C490 C 0.36935 0.47167 0.66288 0.0
C491 C 0.32528 0.45532 0.66564 0.0
H492 H 0.89229 0.79329 0.95131 0.0
H493 H 0.99494 0.83515 0.86572 0.0
H494 H 0.03393 0.77929 0.89058 0.0
H495 H 0.03726 0.71505 0.93267 0.0
H496 H 0.93699 0.67372 0.0201 0.0
H497 H 0.90032 0.7343 1.00026 0.0
C498 C 0.92355 0.79104 0.93845 0.0
C499 C 0.93963 0.81858 0.90553 0.0
C500 C 0.94685 0.75915 0.95385 0.0
C501 C 0.98032 0.81401 0.88964 0.0
C502 C 1.00322 0.78224 0.90438 0.0
C503 C 1.00802 0.72003 0.94841 0.0
C504 C 0.99021 0.68978 0.97818 0.0
C505 C 0.98656 0.75421 0.93596 0.0
C506 C 0.95205 0.69672 0.99781 0.0
C507 C 0.93063 0.73102 0.98581 0.0
H508 H 0.44165 0.8346 0.20686 0.0
H509 H 0.30841 0.8337 0.16636 0.0
H510 H 0.33135 0.8987 0.1265 0.0
H511 H 0.391 0.94257 0.08984 0.0
H512 H 0.52299 0.9427 0.13134 0.0
H513 H 0.49832 0.89336 0.18721 0.0
C514 C 0.41698 0.84934 0.19111 0.0
C515 C 0.37343 0.82769 0.18823 0.0
C516 C 0.43023 0.88705 0.16878 0.0
C517 C 0.34249 0.84803 0.16734 0.0
C518 C 0.35548 0.88563 0.14493 0.0
C519 C 0.41405 0.93387 0.11292 0.0
C520 C 0.45855 0.94542 0.10656 0.0
C521 C 0.39957 0.90367 0.14336 0.0
C522 C 0.48851 0.93407 0.13605 0.0
C523 C 0.47439 0.90511 0.16734 0.0
H524 H 0.02369 0.33374 0.5834 0.0
H525 H 0.13722 0.33571 0.50753 0.0
H526 H 0.11451 0.25875 0.48824 0.0
H527 H 0.07466 0.18768 0.51061 0.0
H528 H 0.96145 0.18694 0.5847 0.0
H529 H 0.97108 0.26691 0.58498 0.0
C530 C 0.0441 0.31863 0.56242 0.0
C531 C 0.08549 0.34101 0.55179 0.0
C532 C 0.03054 0.27384 0.55053 0.0
C533 C 0.10777 0.31962 0.52089 0.0
C534 C 0.09434 0.2751 0.50878 0.0
C535 C 0.05058 0.20494 0.5244 0.0
C536 C 0.01802 0.18189 0.54844 0.0
C537 C 0.05767 0.25119 0.52625 0.0
C538 C 0.98689 0.20426 0.56612 0.0
C539 C 0.993 0.25013 0.56709 0.0
H540 H 0.55878 0.26472 0.49428 0.0
H541 H 0.69037 0.33412 0.50635 0.0
H542 H 0.66595 0.39767 0.54128 0.0
H543 H 0.60576 0.43846 0.55304 0.0
H544 H 0.47403 0.37031 0.53683 0.0
H545 H 0.49945 0.30121 0.51964 0.0
C546 C 0.58218 0.29309 0.50627 0.0
C547 C 0.62628 0.29482 0.49817 0.0
C548 C 0.56762 0.33001 0.525 0.0
C549 C 0.65633 0.33198 0.51282 0.0
C550 C 0.64227 0.36849 0.53234 0.0
C551 C 0.58277 0.40794 0.54801 0.0
C552 C 0.5381 0.40916 0.54725 0.0
C553 C 0.59779 0.36868 0.53659 0.0
C554 C 0.50852 0.36984 0.53879 0.0
C555 C 0.52311 0.33047 0.52832 0.0
loop_
_geom_bond_atom_site_label_1
_geom_bond_atom_site_label_2
_geom_bond_distance
_geom_bond_site_symmetry_2
_ccdc_geom_bond_type
H0 C3 0.929 . S
H1 C6 0.929 . S
H2 C8 0.930 . S
C3 H0 0.929 . S
C3 C4 1.398 . S
C3 C5 1.396 . S
C4 C3 1.398 . S
C4 C8 1.407 . S
C5 C3 1.396 . S
C5 C6 1.394 . S
C6 H1 0.929 . S
C6 C5 1.394 . S
C6 C7 1.382 . S
C7 C6 1.382 . S
C7 C8 1.392 . S
C7 N9 1.420 . S
C8 H2 0.930 . S
C8 C4 1.407 . S
C8 C7 1.392 . S
N9 C7 1.420 . S
N9 C10 1.244 . S
C10 N9 1.244 . S
H11 C14 0.929 . S
H12 C17 0.929 . S
H13 C19 0.930 . S
C14 H11 0.929 . S
C14 C15 1.398 . S
C14 C16 1.396 . S
C15 C14 1.398 . S
C15 C19 1.407 . S
C16 C14 1.396 . S
C16 C17 1.394 . S
C17 H12 0.929 . S
C17 C16 1.394 . S
C17 C18 1.382 . S
C18 C17 1.382 . S
C18 C19 1.392 . S
C18 N20 1.420 . S
C19 H13 0.930 . S
C19 C15 1.407 . S
C19 C18 1.392 . S
N20 C18 1.420 . S
N20 C21 1.244 . S
C21 N20 1.244 . S
H22 C25 0.929 . S
H23 C28 0.929 . S
H24 C30 0.930 . S
C25 H22 0.929 . S
C25 C26 1.398 . S
C25 C27 1.396 . S
C26 C25 1.398 . S
C26 C30 1.407 . S
C27 C25 1.396 . S
C27 C28 1.394 . S
C28 H23 0.929 . S
C28 C27 1.394 . S
C28 C29 1.382 . S
C29 C28 1.382 . S
C29 C30 1.392 . S
C29 N31 1.420 . S
C30 H24 0.930 . S
C30 C26 1.407 . S
C30 C29 1.392 . S
N31 C29 1.420 . S
N31 C32 1.244 . S
C32 N31 1.244 . S
H33 C36 0.929 . S
H34 C39 0.929 . S
H35 C41 0.930 . S
C36 H33 0.929 . S
C36 C37 1.398 . S
C36 C38 1.396 . S
C37 C36 1.398 . S
C37 C41 1.407 . S
C38 C36 1.396 . S
C38 C39 1.394 . S
C39 H34 0.929 . S
C39 C38 1.394 . S
C39 C40 1.382 . S
C40 C39 1.382 . S
C40 C41 1.392 . S
C40 N42 1.420 . S
C41 H35 0.930 . S
C41 C37 1.407 . S
C41 C40 1.392 . S
N42 C40 1.420 . S
N42 C43 1.244 . S
C43 N42 1.244 . S
H44 C47 0.929 . S
H45 C50 0.929 . S
H46 C52 0.930 . S
C47 H44 0.929 . S
C47 C48 1.398 . S
C47 C49 1.396 . S
C48 C47 1.398 . S
C48 C52 1.407 . S
C49 C47 1.396 . S
C49 C50 1.394 . S
C50 H45 0.929 . S
C50 C49 1.394 . S
C50 C51 1.382 . S
C51 C50 1.382 . S
C51 C52 1.392 . S
C51 N53 1.420 . S
C52 H46 0.930 . S
C52 C48 1.407 . S
C52 C51 1.392 . S
N53 C51 1.420 . S
N53 C54 1.244 . S
C54 N53 1.244 . S
H55 C58 0.929 . S
H56 C61 0.929 . S
H57 C63 0.930 . S
C58 H55 0.929 . S
C58 C59 1.398 . S
C58 C60 1.396 . S
C59 C58 1.398 . S
C59 C63 1.407 . S
C60 C58 1.396 . S
C60 C61 1.394 . S
C61 H56 0.929 . S
C61 C60 1.394 . S
C61 C62 1.382 . S
C62 C61 1.382 . S
C62 C63 1.392 . S
C62 N64 1.420 . S
C63 H57 0.930 . S
C63 C59 1.407 . S
C63 C62 1.392 . S
N64 C62 1.420 . S
N64 C65 1.244 . S
C65 N64 1.244 . S
H66 C69 0.929 . S
H67 C72 0.929 . S
H68 C74 0.930 . S
C69 H66 0.929 . S
C69 C70 1.398 . S
C69 C71 1.396 . S
C70 C69 1.398 . S
C70 C74 1.407 . S
C71 C69 1.396 . S
C71 C72 1.394 . S
C72 H67 0.929 . S
C72 C71 1.394 . S
C72 C73 1.382 . S
C73 C72 1.382 . S
C73 C74 1.392 . S
C73 N75 1.420 . S
C74 H68 0.930 . S
C74 C70 1.407 . S
C74 C73 1.392 . S
N75 C73 1.420 . S
N75 C76 1.244 . S
C76 N75 1.244 . S
H77 C80 0.929 . S
H78 C83 0.929 . S
H79 C85 0.930 . S
C80 H77 0.929 . S
C80 C81 1.398 . S
C80 C82 1.396 . S
C81 C80 1.398 . S
C81 C85 1.407 . S
C82 C80 1.396 . S
C82 C83 1.394 . S
C83 H78 0.929 . S
C83 C82 1.394 . S
C83 C84 1.382 . S
C84 C83 1.382 . S
C84 C85 1.392 . S
C84 N86 1.420 . S
C85 H79 0.930 . S
C85 C81 1.407 . S
C85 C84 1.392 . S
N86 C84 1.420 . S
N86 C87 1.244 . S
C87 N86 1.244 . S
O88 Mn89 2.163 1_655 S
O88 C102 1.244 . S
Mn89 O88 2.163 1_455 S
Mn89 O92 2.160 . S
Mn89 O93 2.221 . S
Mn89 O95 2.163 1_445 S
Mn89 O97 2.160 . S
Mn89 O107 2.221 1_445 S
O90 Mn91 2.087 1_545 S
O90 C102 1.256 . S
Mn91 O90 2.087 1_565 S
Mn91 O98 2.089 1_565 S
Mn91 O107 2.290 . S
Mn91 O108 2.251 . S
O92 Mn89 2.160 . S
O92 C103 1.239 . S
O93 Mn89 2.221 . S
O93 Mn94 2.290 . S
O93 C104 1.278 . S
Mn94 O93 2.290 . S
Mn94 O96 2.089 . S
Mn94 O99 2.251 . S
Mn94 O100 2.087 . S
O95 Mn89 2.163 1_665 S
O95 C105 1.244 1_565 S
O96 Mn94 2.089 . S
O96 C103 1.256 . S
O97 Mn89 2.160 . S
O97 C106 1.239 . S
O98 Mn91 2.089 1_545 S
O98 C106 1.256 1_655 S
O99 Mn94 2.251 . S
O99 C104 1.241 . S
O100 Mn94 2.087 . S
O100 C105 1.256 1_455 S
C101 O107 1.278 . S
C101 O108 1.241 . S
C102 O88 1.244 . S
C102 O90 1.256 . S
C103 O92 1.239 . S
C103 O96 1.256 . S
C104 O93 1.278 . S
C104 O99 1.241 . S
C105 O95 1.244 1_545 S
C105 O100 1.256 1_655 S
C106 O97 1.239 . S
C106 O98 1.256 1_455 S
O107 Mn89 2.221 1_665 S
O107 Mn91 2.290 . S
O107 C101 1.278 . S
O108 Mn91 2.251 . S
O108 C101 1.241 . S
O109 Mn110 2.163 1_556 S
O109 C123 1.244 1_545 S
Mn110 O109 2.163 1_554 S
Mn110 O113 2.160 . S
Mn110 O114 2.221 . S
Mn110 O116 2.163 . S
Mn110 O118 2.160 . S
Mn110 O128 2.221 1_545 S
O111 Mn112 2.087 . S
O111 C123 1.256 . S
Mn112 O111 2.087 . S
Mn112 O119 2.089 . S
Mn112 O128 2.290 1_556 S
Mn112 O129 2.251 1_556 S
O113 Mn110 2.160 . S
O113 C124 1.239 . S
O114 Mn110 2.221 . S
O114 Mn115 2.290 . S
O114 C125 1.278 . S
Mn115 O114 2.290 . S
Mn115 O117 2.089 . S
Mn115 O120 2.251 . S
Mn115 O121 2.087 . S
O116 Mn110 2.163 . S
O116 C126 1.244 . S
O117 Mn115 2.089 . S
O117 C124 1.256 . S
O118 Mn110 2.160 . S
O118 C127 1.244 . S
O119 Mn112 2.089 . S
O119 C127 1.253 1_566 S
O120 Mn115 2.251 . S
O120 C125 1.241 . S
O121 Mn115 2.087 . S
O121 C126 1.256 . S
C122 O128 1.278 . S
C122 O129 1.241 . S
C123 O109 1.244 1_565 S
C123 O111 1.256 . S
C124 O113 1.239 . S
C124 O117 1.256 . S
C125 O114 1.278 . S
C125 O120 1.241 . S
C126 O116 1.244 . S
C126 O121 1.256 . S
C127 O118 1.244 . S
C127 O119 1.253 1_544 S
O128 Mn110 2.221 1_565 S
O128 Mn112 2.290 1_554 S
O128 C122 1.278 . S
O129 Mn112 2.251 1_554 S
O129 C122 1.241 . S
O130 Mn131 2.163 . S
O130 C144 1.244 . S
Mn131 O130 2.163 . S
Mn131 O134 2.160 . S
Mn131 O135 2.221 . S
Mn131 O137 2.163 . S
Mn131 O139 2.160 . S
Mn131 O149 2.221 . S
O132 Mn133 2.087 . S
O132 C144 1.256 . S
Mn133 O132 2.087 . S
Mn133 O140 2.089 . S
Mn133 O149 2.290 . S
Mn133 O150 2.251 . S
O134 Mn131 2.160 . S
O134 C145 1.239 . S
O135 Mn131 2.221 . S
O135 Mn136 2.290 . S
O135 C146 1.278 . S
Mn136 O135 2.290 . S
Mn136 O138 2.089 . S
Mn136 O141 2.251 . S
Mn136 O142 2.087 . S
O137 Mn131 2.163 . S
O137 C147 1.244 . S
O138 Mn136 2.089 . S
O138 C145 1.256 . S
O139 Mn131 2.160 . S
O139 C148 1.239 . S
O140 Mn133 2.089 . S
O140 C148 1.256 . S
O141 Mn136 2.251 . S
O141 C146 1.241 . S
O142 Mn136 2.087 . S
O142 C147 1.256 . S
C143 O149 1.278 . S
C143 O150 1.241 . S
C144 O130 1.244 . S
C144 O132 1.256 . S
C145 O134 1.239 . S
C145 O138 1.256 . S
C146 O135 1.278 . S
C146 O141 1.241 . S
C147 O137 1.244 . S
C147 O142 1.256 . S
C148 O139 1.239 . S
C148 O140 1.256 . S
O149 Mn131 2.221 . S
O149 Mn133 2.290 . S
O149 C143 1.278 . S
O150 Mn133 2.251 . S
O150 C143 1.241 . S
O151 Mn152 2.165 1_655 S
O151 C165 1.224 1_554 S
Mn152 O151 2.165 1_455 S
Mn152 O155 2.160 . S
Mn152 O156 2.221 . S
Mn152 O158 2.163 . S
Mn152 O160 2.160 1_554 S
Mn152 O170 2.221 1_554 S
O153 Mn154 2.087 . S
O153 C165 1.256 . S
Mn154 O153 2.087 . S
Mn154 O161 2.089 . S
Mn154 O170 2.290 1_655 S
Mn154 O171 2.251 1_655 S
O155 Mn152 2.160 . S
O155 C166 1.239 . S
O156 Mn152 2.221 . S
O156 Mn157 2.290 . S
O156 C167 1.278 1_455 S
Mn157 O156 2.290 . S
Mn157 O159 2.089 . S
Mn157 O162 2.251 1_455 S
Mn157 O163 2.087 . S
O158 Mn152 2.163 . S
O158 C168 1.244 . S
O159 Mn157 2.089 . S
O159 C166 1.256 . S
O160 Mn152 2.160 1_556 S
O160 C169 1.239 1_455 S
O161 Mn154 2.089 . S
O161 C169 1.256 . S
O162 Mn157 2.251 1_655 S
O162 C167 1.241 . S
O163 Mn157 2.087 . S
O163 C168 1.256 . S
C164 O170 1.278 . S
C164 O171 1.241 . S
C165 O151 1.224 1_556 S
C165 O153 1.256 . S
C166 O155 1.239 . S
C166 O159 1.256 . S
C167 O156 1.278 1_655 S
C167 O162 1.241 . S
C168 O158 1.244 . S
C168 O163 1.256 . S
C169 O160 1.239 1_655 S
C169 O161 1.256 . S
O170 Mn152 2.221 1_556 S
O170 Mn154 2.290 1_455 S
O170 C164 1.278 . S
O171 Mn154 2.251 1_455 S
O171 C164 1.241 . S
H172 C178 0.930 . S
H173 C181 0.930 . S
H174 C182 0.930 . S
H175 C183 0.930 . S
H176 C186 0.930 1_655 S
H177 C187 0.930 1_655 S
C178 H172 0.930 . S
C178 C179 1.355 . S
C178 C180 1.415 . S
C179 C178 1.355 . S
C179 C181 1.419 . S
C180 C178 1.415 . S
C180 C185 1.425 . S
C180 C187 1.409 . S
C181 H173 0.930 . S
C181 C179 1.419 . S
C181 C182 1.362 . S
C182 H174 0.930 . S
C182 C181 1.362 . S
C182 C185 1.409 . S
C183 H175 0.930 . S
C183 C184 1.355 . S
C183 C185 1.415 . S
C184 C183 1.355 . S
C184 C186 1.419 . S
C185 C180 1.425 . S
C185 C182 1.409 . S
C185 C183 1.415 . S
C186 H176 0.930 1_455 S
C186 C184 1.419 . S
C186 C187 1.362 . S
C187 H177 0.930 1_455 S
C187 C180 1.409 . S
C187 C186 1.362 . S
H188 C194 0.930 1_545 S
H189 C197 0.930 . S
H190 C198 0.930 . S
H191 C199 0.930 . S
H192 C202 0.930 . S
H193 C203 0.930 . S
C194 H188 0.930 1_565 S
C194 C195 1.355 . S
C194 C196 1.415 . S
C195 C194 1.355 . S
C195 C197 1.419 . S
C196 C194 1.415 . S
C196 C201 1.425 . S
C196 C203 1.409 1_565 S
C197 H189 0.930 . S
C197 C195 1.419 . S
C197 C198 1.362 . S
C198 H190 0.930 . S
C198 C197 1.362 . S
C198 C201 1.409 . S
C199 H191 0.930 . S
C199 C200 1.355 . S
C199 C201 1.415 . S
C200 C199 1.355 . S
C200 C202 1.419 1_565 S
C201 C196 1.425 . S
C201 C198 1.409 . S
C201 C199 1.415 . S
C202 H192 0.930 . S
C202 C200 1.419 1_545 S
C202 C203 1.362 . S
C203 H193 0.930 . S
C203 C196 1.409 1_545 S
C203 C202 1.362 . S
H204 C210 0.930 . S
H205 C213 0.930 . S
H206 C214 0.930 . S
H207 C215 0.930 . S
H208 C218 0.930 . S
H209 C219 0.930 . S
C210 H204 0.930 . S
C210 C211 1.355 . S
C210 C212 1.415 . S
C211 C210 1.355 . S
C211 C213 1.419 . S
C212 C210 1.415 . S
C212 C217 1.425 . S
C212 C219 1.409 . S
C213 H205 0.930 . S
C213 C211 1.419 . S
C213 C214 1.362 . S
C214 H206 0.930 . S
C214 C213 1.362 . S
C214 C217 1.409 . S
C215 H207 0.930 . S
C215 C216 1.355 . S
C215 C217 1.415 . S
C216 C215 1.355 . S
C216 C218 1.419 . S
C217 C212 1.425 . S
C217 C214 1.409 . S
C217 C215 1.415 . S
C218 H208 0.930 . S
C218 C216 1.419 . S
C218 C219 1.362 . S
C219 H209 0.930 . S
C219 C212 1.409 . S
C219 C218 1.362 . S
H220 C226 0.930 . S
H221 C229 0.930 . S
H222 C230 0.930 . S
H223 C231 0.930 . S
H224 C234 0.930 . S
H225 C235 0.930 . S
C226 H220 0.930 . S
C226 C227 1.355 . S
C226 C228 1.415 . S
C227 C226 1.355 . S
C227 C229 1.419 . S
C228 C226 1.415 . S
C228 C233 1.425 . S
C228 C235 1.409 . S
C229 H221 0.930 . S
C229 C227 1.419 . S
C229 C230 1.362 . S
C230 H222 0.930 . S
C230 C229 1.362 . S
C230 C233 1.409 . S
C231 H223 0.930 . S
C231 C232 1.355 . S
C231 C233 1.415 . S
C232 C231 1.355 . S
C232 C234 1.419 . S
C233 C228 1.425 . S
C233 C230 1.409 . S
C233 C231 1.415 . S
C234 H224 0.930 . S
C234 C232 1.419 . S
C234 C235 1.362 . S
C235 H225 0.930 . S
C235 C228 1.409 . S
C235 C234 1.362 . S
H236 C242 0.930 . S
H237 C245 0.930 . S
H238 C246 0.930 . S
H239 C247 0.930 . S
H240 C250 0.930 . S
H241 C251 0.930 . S
C242 H236 0.930 . S
C242 C243 1.355 . S
C242 C244 1.415 . S
C243 C242 1.355 . S
C243 C245 1.419 . S
C244 C242 1.415 . S
C244 C249 1.425 . S
C244 C251 1.409 . S
C245 H237 0.930 . S
C245 C243 1.419 . S
C245 C246 1.362 . S
C246 H238 0.930 . S
C246 C245 1.362 . S
C246 C249 1.409 . S
C247 H239 0.930 . S
C247 C248 1.355 . S
C247 C249 1.415 . S
C248 C247 1.355 . S
C248 C250 1.419 . S
C249 C244 1.425 . S
C249 C246 1.409 . S
C249 C247 1.415 . S
C250 H240 0.930 . S
C250 C248 1.419 . S
C250 C251 1.362 . S
C251 H241 0.930 . S
C251 C244 1.409 . S
C251 C250 1.362 . S
H252 C258 0.930 . S
H253 C261 0.930 . S
H254 C262 0.930 . S
H255 C263 0.930 . S
H256 C266 0.930 . S
H257 C267 0.930 . S
C258 H252 0.930 . S
C258 C259 1.355 . S
C258 C260 1.415 . S
C259 C258 1.355 . S
C259 C261 1.419 1_565 S
C260 C258 1.415 . S
C260 C265 1.425 . S
C260 C267 1.409 . S
C261 H253 0.930 . S
C261 C259 1.419 1_545 S
C261 C262 1.362 . S
C262 H254 0.930 . S
C262 C261 1.362 . S
C262 C265 1.409 1_545 S
C263 H255 0.930 . S
C263 C264 1.355 1_545 S
C263 C265 1.415 1_545 S
C264 C263 1.355 1_565 S
C264 C266 1.419 . S
C265 C260 1.425 . S
C265 C262 1.409 1_565 S
C265 C263 1.415 1_565 S
C266 H256 0.930 . S
C266 C264 1.419 . S
C266 C267 1.362 . S
C267 H257 0.930 . S
C267 C260 1.409 . S
C267 C266 1.362 . S
H268 C274 0.930 . S
H269 C277 0.930 . S
H270 C278 0.930 . S
H271 C279 0.930 . S
H272 C282 0.930 . S
H273 C283 0.930 . S
C274 H268 0.930 . S
C274 C275 1.355 . S
C274 C276 1.415 . S
C275 C274 1.355 . S
C275 C277 1.419 . S
C276 C274 1.415 . S
C276 C281 1.425 . S
C276 C283 1.409 . S
C277 H269 0.930 . S
C277 C275 1.419 . S
C277 C278 1.362 . S
C278 H270 0.930 . S
C278 C277 1.362 . S
C278 C281 1.409 . S
C279 H271 0.930 . S
C279 C280 1.355 . S
C279 C281 1.415 . S
C280 C279 1.355 . S
C280 C282 1.419 . S
C281 C276 1.425 . S
C281 C278 1.409 . S
C281 C279 1.415 . S
C282 H272 0.930 . S
C282 C280 1.419 . S
C282 C283 1.362 . S
C283 H273 0.930 . S
C283 C276 1.409 . S
C283 C282 1.362 . S
H284 C290 0.930 . S
H285 C293 0.930 . S
H286 C294 0.930 . S
H287 C295 0.930 . S
H288 C298 0.930 . S
H289 C299 0.930 . S
C290 H284 0.930 . S
C290 C291 1.355 . S
C290 C292 1.415 . S
C291 C290 1.355 . S
C291 C293 1.419 . S
C292 C290 1.415 . S
C292 C297 1.425 . S
C292 C299 1.409 . S
C293 H285 0.930 . S
C293 C291 1.419 . S
C293 C294 1.362 . S
C294 H286 0.930 . S
C294 C293 1.362 . S
C294 C297 1.409 . S
C295 H287 0.930 . S
C295 C296 1.355 . S
C295 C297 1.415 . S
C296 C295 1.355 . S
C296 C298 1.419 . S
C297 C292 1.425 . S
C297 C294 1.409 . S
C297 C295 1.415 . S
C298 H288 0.930 . S
C298 C296 1.419 . S
C298 C299 1.362 . S
C299 H289 0.930 . S
C299 C292 1.409 . S
C299 C298 1.362 . S
H300 C306 0.930 . S
H301 C309 0.930 . S
H302 C310 0.930 . S
H303 C311 0.930 . S
H304 C314 0.930 1_556 S
H305 C315 0.930 1_556 S
C306 H300 0.930 . S
C306 C307 1.355 . S
C306 C308 1.415 . S
C307 C306 1.355 . S
C307 C309 1.419 . S
C308 C306 1.415 . S
C308 C313 1.425 . S
C308 C315 1.409 . S
C309 H301 0.930 . S
C309 C307 1.419 . S
C309 C310 1.362 . S
C310 H302 0.930 . S
C310 C309 1.362 . S
C310 C313 1.409 . S
C311 H303 0.930 . S
C311 C312 1.355 . S
C311 C313 1.415 . S
C312 C311 1.355 . S
C312 C314 1.419 . S
C313 C308 1.425 . S
C313 C310 1.409 . S
C313 C311 1.415 . S
C314 H304 0.930 1_554 S
C314 C312 1.419 . S
C314 C315 1.362 . S
C315 H305 0.930 1_554 S
C315 C308 1.409 . S
C315 C314 1.362 . S
H316 C322 0.930 . S
H317 C325 0.930 . S
H318 C326 0.930 . S
H319 C327 0.930 . S
H320 C330 0.930 . S
H321 C331 0.930 . S
C322 H316 0.930 . S
C322 C323 1.355 . S
C322 C324 1.415 . S
C323 C322 1.355 . S
C323 C325 1.419 . S
C324 C322 1.415 . S
C324 C329 1.425 . S
C324 C331 1.409 . S
C325 H317 0.930 . S
C325 C323 1.419 . S
C325 C326 1.362 . S
C326 H318 0.930 . S
C326 C325 1.362 . S
C326 C329 1.409 . S
C327 H319 0.930 . S
C327 C328 1.355 . S
C327 C329 1.415 . S
C328 C327 1.355 . S
C328 C330 1.419 . S
C329 C324 1.425 . S
C329 C326 1.409 . S
C329 C327 1.415 . S
C330 H320 0.930 . S
C330 C328 1.419 . S
C330 C331 1.362 . S
C331 H321 0.930 . S
C331 C324 1.409 . S
C331 C330 1.362 . S
H332 C338 0.930 . S
H333 C341 0.930 . S
H334 C342 0.930 . S
H335 C343 0.930 . S
H336 C346 0.930 . S
H337 C347 0.930 . S
C338 H332 0.930 . S
C338 C339 1.355 . S
C338 C340 1.415 . S
C339 C338 1.355 . S
C339 C341 1.419 . S
C340 C338 1.415 . S
C340 C345 1.425 . S
C340 C347 1.409 . S
C341 H333 0.930 . S
C341 C339 1.419 . S
C341 C342 1.362 . S
C342 H334 0.930 . S
C342 C341 1.362 . S
C342 C345 1.409 . S
C343 H335 0.930 . S
C343 C344 1.355 . S
C343 C345 1.415 . S
C344 C343 1.355 . S
C344 C346 1.419 . S
C345 C340 1.425 . S
C345 C342 1.409 . S
C345 C343 1.415 . S
C346 H336 0.930 . S
C346 C344 1.419 . S
C346 C347 1.362 . S
C347 H337 0.930 . S
C347 C340 1.409 . S
C347 C346 1.362 . S
H348 C354 0.930 . S
H349 C357 0.930 . S
H350 C358 0.930 . S
H351 C359 0.930 . S
H352 C362 0.930 . S
H353 C363 0.930 . S
C354 H348 0.930 . S
C354 C355 1.355 . S
C354 C356 1.415 . S
C355 C354 1.355 . S
C355 C357 1.419 . S
C356 C354 1.415 . S
C356 C361 1.425 . S
C356 C363 1.409 . S
C357 H349 0.930 . S
C357 C355 1.419 . S
C357 C358 1.362 . S
C358 H350 0.930 . S
C358 C357 1.362 . S
C358 C361 1.409 . S
C359 H351 0.930 . S
C359 C360 1.355 . S
C359 C361 1.415 . S
C360 C359 1.355 . S
C360 C362 1.419 . S
C361 C356 1.425 . S
C361 C358 1.409 . S
C361 C359 1.415 . S
C362 H352 0.930 . S
C362 C360 1.419 . S
C362 C363 1.362 . S
C363 H353 0.930 . S
C363 C356 1.409 . S
C363 C362 1.362 . S
H364 C370 0.930 1_545 S
H365 C373 0.930 . S
H366 C374 0.930 . S
H367 C375 0.930 . S
H368 C378 0.930 . S
H369 C379 0.930 . S
C370 H364 0.930 1_565 S
C370 C371 1.355 . S
C370 C372 1.415 . S
C371 C370 1.355 . S
C371 C373 1.419 . S
C372 C370 1.415 . S
C372 C377 1.425 . S
C372 C379 1.409 1_565 S
C373 H365 0.930 . S
C373 C371 1.419 . S
C373 C374 1.362 . S
C374 H366 0.930 . S
C374 C373 1.362 . S
C374 C377 1.409 . S
C375 H367 0.930 . S
C375 C376 1.355 . S
C375 C377 1.415 . S
C376 C375 1.355 . S
C376 C378 1.419 1_565 S
C377 C372 1.425 . S
C377 C374 1.409 . S
C377 C375 1.415 . S
C378 H368 0.930 . S
C378 C376 1.419 1_545 S
C378 C379 1.362 . S
C379 H369 0.930 . S
C379 C372 1.409 1_545 S
C379 C378 1.362 . S
H380 C386 0.930 . S
H381 C389 0.930 . S
H382 C390 0.930 . S
H383 C391 0.930 . S
H384 C394 0.930 . S
H385 C395 0.930 . S
C386 H380 0.930 . S
C386 C387 1.355 . S
C386 C388 1.415 . S
C387 C386 1.355 . S
C387 C389 1.419 . S
C388 C386 1.415 . S
C388 C393 1.425 . S
C388 C395 1.409 . S
C389 H381 0.930 . S
C389 C387 1.419 . S
C389 C390 1.362 . S
C390 H382 0.930 . S
C390 C389 1.362 . S
C390 C393 1.409 . S
C391 H383 0.930 . S
C391 C392 1.355 . S
C391 C393 1.415 . S
C392 C391 1.355 . S
C392 C394 1.419 . S
C393 C388 1.425 . S
C393 C390 1.409 . S
C393 C391 1.415 . S
C394 H384 0.930 . S
C394 C392 1.419 . S
C394 C395 1.362 . S
C395 H385 0.930 . S
C395 C388 1.409 . S
C395 C394 1.362 . S
H396 C402 0.930 . S
H397 C405 0.930 . S
H398 C406 0.930 . S
H399 C407 0.930 . S
H400 C410 0.930 . S
H401 C411 0.930 . S
C402 H396 0.930 . S
C402 C403 1.355 . S
C402 C404 1.415 . S
C403 C402 1.355 . S
C403 C405 1.419 . S
C404 C402 1.415 . S
C404 C409 1.425 . S
C404 C411 1.409 . S
C405 H397 0.930 . S
C405 C403 1.419 . S
C405 C406 1.362 . S
C406 H398 0.930 . S
C406 C405 1.362 . S
C406 C409 1.409 . S
C407 H399 0.930 . S
C407 C408 1.355 . S
C407 C409 1.415 . S
C408 C407 1.355 . S
C408 C410 1.419 . S
C409 C404 1.425 . S
C409 C406 1.409 . S
C409 C407 1.415 . S
C410 H400 0.930 . S
C410 C408 1.419 . S
C410 C411 1.362 . S
C411 H401 0.930 . S
C411 C404 1.409 . S
C411 C410 1.362 . S
H412 C418 0.930 . S
H413 C421 0.930 . S
H414 C422 0.930 . S
H415 C423 0.930 . S
H416 C426 0.930 . S
H417 C427 0.930 . S
C418 H412 0.930 . S
C418 C419 1.355 . S
C418 C420 1.415 . S
C419 C418 1.355 . S
C419 C421 1.419 . S
C420 C418 1.415 . S
C420 C425 1.425 . S
C420 C427 1.409 . S
C421 H413 0.930 . S
C421 C419 1.419 . S
C421 C422 1.362 . S
C422 H414 0.930 . S
C422 C421 1.362 . S
C422 C425 1.409 . S
C423 H415 0.930 . S
C423 C424 1.355 . S
C423 C425 1.415 . S
C424 C423 1.355 . S
C424 C426 1.419 . S
C425 C420 1.425 . S
C425 C422 1.409 . S
C425 C423 1.415 . S
C426 H416 0.930 . S
C426 C424 1.419 . S
C426 C427 1.362 . S
C427 H417 0.930 . S
C427 C420 1.409 . S
C427 C426 1.362 . S
H428 C434 0.930 . S
H429 C437 0.930 1_545 S
H430 C438 0.930 . S
H431 C439 0.930 . S
H432 C442 0.930 . S
H433 C443 0.930 . S
C434 H428 0.930 . S
C434 C435 1.355 . S
C434 C436 1.415 . S
C435 C434 1.355 . S
C435 C437 1.419 . S
C436 C434 1.415 . S
C436 C441 1.425 . S
C436 C443 1.409 1_556 S
C437 H429 0.930 1_565 S
C437 C435 1.419 . S
C437 C438 1.362 1_565 S
C438 H430 0.930 . S
C438 C437 1.362 1_545 S
C438 C441 1.409 1_545 S
C439 H431 0.930 . S
C439 C440 1.355 1_545 S
C439 C441 1.415 1_545 S
C440 C439 1.355 1_565 S
C440 C442 1.419 1_556 S
C441 C436 1.425 . S
C441 C438 1.409 1_565 S
C441 C439 1.415 1_565 S
C442 H432 0.930 . S
C442 C440 1.419 1_554 S
C442 C443 1.362 . S
C443 H433 0.930 . S
C443 C436 1.409 1_554 S
C443 C442 1.362 . S
H444 C450 0.930 . S
H445 C453 0.930 . S
H446 C454 0.930 . S
H447 C455 0.930 . S
H448 C458 0.930 . S
H449 C459 0.930 . S
C450 H444 0.930 . S
C450 C451 1.355 . S
C450 C452 1.415 . S
C451 C450 1.355 . S
C451 C453 1.419 . S
C452 C450 1.415 . S
C452 C457 1.425 . S
C452 C459 1.409 . S
C453 H445 0.930 . S
C453 C451 1.419 . S
C453 C454 1.362 . S
C454 H446 0.930 . S
C454 C453 1.362 . S
C454 C457 1.409 . S
C455 H447 0.930 . S
C455 C456 1.355 . S
C455 C457 1.415 . S
C456 C455 1.355 . S
C456 C458 1.419 . S
C457 C452 1.425 . S
C457 C454 1.409 . S
C457 C455 1.415 . S
C458 H448 0.930 . S
C458 C456 1.419 . S
C458 C459 1.362 . S
C459 H449 0.930 . S
C459 C452 1.409 . S
C459 C458 1.362 . S
H460 C466 0.930 . S
H461 C469 0.930 . S
H462 C470 0.930 . S
H463 C471 0.930 . S
H464 C474 0.930 1_556 S
H465 C475 0.930 . S
C466 H460 0.930 . S
C466 C467 1.355 . S
C466 C468 1.415 . S
C467 C466 1.355 . S
C467 C469 1.419 . S
C468 C466 1.415 . S
C468 C473 1.425 . S
C468 C475 1.409 . S
C469 H461 0.930 . S
C469 C467 1.419 . S
C469 C470 1.362 . S
C470 H462 0.930 . S
C470 C469 1.362 . S
C470 C473 1.409 . S
C471 H463 0.930 . S
C471 C472 1.355 . S
C471 C473 1.415 . S
C472 C471 1.355 . S
C472 C474 1.419 . S
C473 C468 1.425 . S
C473 C470 1.409 . S
C473 C471 1.415 . S
C474 H464 0.930 1_554 S
C474 C472 1.419 . S
C474 C475 1.362 . S
C475 H465 0.930 . S
C475 C468 1.409 . S
C475 C474 1.362 . S
H476 C482 0.930 . S
H477 C485 0.930 . S
H478 C486 0.930 . S
H479 C487 0.930 . S
H480 C490 0.930 . S
H481 C491 0.930 . S
C482 H476 0.930 . S
C482 C483 1.355 . S
C482 C484 1.415 . S
C483 C482 1.355 . S
C483 C485 1.419 . S
C484 C482 1.415 . S
C484 C489 1.425 . S
C484 C491 1.409 . S
C485 H477 0.930 . S
C485 C483 1.419 . S
C485 C486 1.362 . S
C486 H478 0.930 . S
C486 C485 1.362 . S
C486 C489 1.409 . S
C487 H479 0.930 . S
C487 C488 1.355 . S
C487 C489 1.415 . S
C488 C487 1.355 . S
C488 C490 1.419 . S
C489 C484 1.425 . S
C489 C486 1.409 . S
C489 C487 1.415 . S
C490 H480 0.930 . S
C490 C488 1.419 . S
C490 C491 1.362 . S
C491 H481 0.930 . S
C491 C484 1.409 . S
C491 C490 1.362 . S
H492 C498 0.930 . S
H493 C501 0.930 . S
H494 C502 0.930 . S
H495 C503 0.930 . S
H496 C506 0.930 . S
H497 C507 0.930 1_554 S
C498 H492 0.930 . S
C498 C499 1.355 . S
C498 C500 1.415 . S
C499 C498 1.355 . S
C499 C501 1.419 . S
C500 C498 1.415 . S
C500 C505 1.425 . S
C500 C507 1.409 . S
C501 H493 0.930 . S
C501 C499 1.419 . S
C501 C502 1.362 . S
C502 H494 0.930 . S
C502 C501 1.362 . S
C502 C505 1.409 . S
C503 H495 0.930 . S
C503 C504 1.355 . S
C503 C505 1.415 . S
C504 C503 1.355 . S
C504 C506 1.419 1_556 S
C505 C500 1.425 . S
C505 C502 1.409 . S
C505 C503 1.415 . S
C506 H496 0.930 . S
C506 C504 1.419 1_554 S
C506 C507 1.362 1_554 S
C507 H497 0.930 1_556 S
C507 C500 1.409 . S
C507 C506 1.362 1_556 S
H508 C514 0.930 . S
H509 C517 0.930 . S
H510 C518 0.930 . S
H511 C519 0.930 . S
H512 C522 0.930 . S
H513 C523 0.930 . S
C514 H508 0.930 . S
C514 C515 1.355 . S
C514 C516 1.415 . S
C515 C514 1.355 . S
C515 C517 1.419 . S
C516 C514 1.415 . S
C516 C521 1.425 . S
C516 C523 1.409 . S
C517 H509 0.930 . S
C517 C515 1.419 . S
C517 C518 1.362 . S
C518 H510 0.930 . S
C518 C517 1.362 . S
C518 C521 1.409 . S
C519 H511 0.930 . S
C519 C520 1.355 . S
C519 C521 1.415 . S
C520 C519 1.355 . S
C520 C522 1.419 . S
C521 C516 1.425 . S
C521 C518 1.409 . S
C521 C519 1.415 . S
C522 H512 0.930 . S
C522 C520 1.419 . S
C522 C523 1.362 . S
C523 H513 0.930 . S
C523 C516 1.409 . S
C523 C522 1.362 . S
H524 C530 0.930 . S
H525 C533 0.930 . S
H526 C534 0.930 . S
H527 C535 0.930 . S
H528 C538 0.915 1_655 S
H529 C539 0.930 1_655 S
C530 H524 0.930 . S
C530 C531 1.355 . S
C530 C532 1.415 . S
C531 C530 1.355 . S
C531 C533 1.419 . S
C532 C530 1.415 . S
C532 C537 1.425 . S
C532 C539 1.409 . S
C533 H525 0.930 . S
C533 C531 1.419 . S
C533 C534 1.362 . S
C534 H526 0.930 . S
C534 C533 1.362 . S
C534 C537 1.409 . S
C535 H527 0.930 . S
C535 C536 1.355 . S
C535 C537 1.415 . S
C536 C535 1.355 . S
C536 C538 1.435 . S
C537 C532 1.425 . S
C537 C534 1.409 . S
C537 C535 1.415 . S
C538 H528 0.915 1_455 S
C538 C536 1.435 . S
C538 C539 1.362 . S
C539 H529 0.930 1_455 S
C539 C532 1.409 . S
C539 C538 1.362 . S
H540 C546 0.930 . S
H541 C549 0.930 . S
H542 C550 0.930 . S
H543 C551 0.930 . S
H544 C554 0.930 . S
H545 C555 0.930 . S
C546 H540 0.930 . S
C546 C547 1.355 . S
C546 C548 1.415 . S
C547 C546 1.355 . S
C547 C549 1.419 . S
C548 C546 1.415 . S
C548 C553 1.425 . S
C548 C555 1.409 . S
C549 H541 0.930 . S
C549 C547 1.419 . S
C549 C550 1.362 . S
C550 H542 0.930 . S
C550 C549 1.362 . S
C550 C553 1.409 . S
C551 H543 0.930 . S
C551 C552 1.355 . S
C551 C553 1.415 . S
C552 C551 1.355 . S
C552 C554 1.419 . S
C553 C548 1.425 . S
C553 C550 1.409 . S
C553 C551 1.415 . S
C554 H544 0.930 . S
C554 C552 1.419 . S
C554 C555 1.362 . S
C555 H545 0.930 . S
C555 C548 1.409 . S
C555 C554 1.362 . S
C179 C4 1.733 . S
C184 C106 1.662 . S
C195 C16 1.734 . S
C200 C123 1.728 . S
C216 C146 0.889 . S
C211 C32 1.122 . S
C227 C43 1.599 . S
C232 C167 1.261 . S
C248 C126 2.055 . S
C243 C5 2.103 . S
C264 C103 1.430 1_565 S
C259 C21 1.447 . S
C280 C165 1.197 . S
C275 C27 1.269 . S
C296 C144 1.347 . S
C291 C37 1.377 . S
C307 C10 1.678 . S
C312 C168 1.671 . S
C328 C125 1.396 1_556 S
C323 C26 1.671 . S
C339 C38 1.454 . S
C344 C101 1.310 . S
C355 C15 1.610 . S
C360 C147 1.611 . S
C376 C105 1.740 1_565 S
C371 C48 1.858 . S
C387 C59 1.428 . S
C392 C124 1.419 . S
C403 C76 1.410 . S
C408 C143 1.252 . S
C419 C87 1.409 . S
C424 C164 1.208 . S
C435 C54 1.529 . S
C440 C127 1.495 1_566 S
C456 C102 2.037 . S
C451 C60 2.040 . S
C472 C166 1.191 . S
C467 C71 1.219 . S
C488 C145 1.351 . S
C483 C82 1.409 . S
C499 C49 1.765 . S
C504 C169 1.728 . S
C520 C122 0.976 . S
C515 C70 1.230 . S
C536 C104 1.360 . S
C531 C81 1.520 . S
C547 C65 1.496 . S
C552 C148 1.485 . S
