# Generated by pormake.
# Topology sit, (3,6)-cn, num edge types: 1
# Building blocks:
#     Node 0, Type 0, BuildingBlock: VETTIZ_charged_linker_0, # of connection points: 3
#     Node 1, Type 0, BuildingBlock: VETTIZ_charged_linker_0, # of connection points: 3
#     Node 2, Type 0, BuildingBlock: VETTIZ_charged_linker_0, # of connection points: 3
#     Node 3, Type 0, BuildingBlock: VETTIZ_charged_linker_0, # of connection points: 3
#     Node 4, Type 1, BuildingBlock: MIDCAF_clean_sbu_0, # of connection points: 6
#     Node 5, Type 1, BuildingBlock: MIDCAF_clean_sbu_0, # of connection points: 6
#     Edge 6, Type (0, 1), BuildingBlock: OJICUG_clean_linker_0, # of connection points: 2
#     Edge 7, Type (0, 1), BuildingBlock: OJICUG_clean_linker_0, # of connection points: 2
#     Edge 8, Type (0, 1), BuildingBlock: OJICUG_clean_linker_0, # of connection points: 2
#     Edge 9, Type (0, 1), BuildingBlock: OJICUG_clean_linker_0, # of connection points: 2
#     Edge 10, Type (0, 1), BuildingBlock: OJICUG_clean_linker_0, # of connection points: 2
#     Edge 11, Type (0, 1), BuildingBlock: OJICUG_clean_linker_0, # of connection points: 2
#     Edge 12, Type (0, 1), BuildingBlock: OJICUG_clean_linker_0, # of connection points: 2
#     Edge 13, Type (0, 1), BuildingBlock: OJICUG_clean_linker_0, # of connection points: 2
#     Edge 14, Type (0, 1), BuildingBlock: OJICUG_clean_linker_0, # of connection points: 2
#     Edge 15, Type (0, 1), BuildingBlock: OJICUG_clean_linker_0, # of connection points: 2
#     Edge 16, Type (0, 1), BuildingBlock: OJICUG_clean_linker_0, # of connection points: 2
#     Edge 17, Type (0, 1), BuildingBlock: OJICUG_clean_linker_0, # of connection points: 2
# Relax obj value: 0.113
# Max RMSD: 0.194
# Mean RMSD: 0.109
data_MOF--net-sit--node1-MIDCAF_clean_sbu_0--node2-VETTIZ_charged_linker_0--edge1-OJICUG_clean_linker_0
_symmetry_space_group_name_H-M    P1
_symmetry_Int_Tables_number       1
_symmetry_cell_setting            triclinic
loop_
_symmetry_equiv_pos_as_xyz
'x, y, z'
_cell_length_a     22.400534
_cell_length_b     29.529692
_cell_length_c     33.134315
_cell_angle_alpha  90.40084
_cell_angle_beta   89.308495
_cell_angle_gamma 84.178553
loop_
_atom_site_label
_atom_site_type_symbol
_atom_site_fract_x
_atom_site_fract_y
_atom_site_fract_z
_atom_type_partial_charge
C0 C 0.01067 0.20285 0.10993 0.0
C1 C 0.05708 0.16767 0.11642 0.0
C2 C 0.11224 0.16967 0.09558 0.0
C3 C 0.07711 0.24348 0.06841 0.0
C4 C 0.02137 0.23984 0.08564 0.0
C5 C 0.97669 0.27967 0.0756 0.0
H6 H 0.92246 0.48155 0.9804 0.0
C7 C 0.07559 0.28864 0.04929 0.0
C8 C 0.01666 0.30994 0.05335 0.0
H9 H 0.79289 0.39504 0.02523 0.0
H10 H 0.87246 0.34529 0.05564 0.0
H11 H 0.00962 0.47363 0.05912 0.0
H12 H 0.00664 0.40843 0.9437 0.0
H13 H 0.08091 0.41992 0.95173 0.0
H14 H 0.02274 0.46613 0.95196 0.0
H15 H 0.04627 0.49484 0.01608 0.0
H16 H 0.08554 0.45452 0.0494 0.0
C17 C 0.95104 0.30238 0.1152 0.0
C18 C 0.92831 0.26245 0.0478 0.0
C19 C 0.26297 0.34413 0.9844 0.0
C20 C 0.27347 0.38691 0.96862 0.0
C21 C 0.22996 0.42425 0.97483 0.0
C22 C 0.17494 0.41859 0.99306 0.0
C23 C 0.16268 0.37505 0.00488 0.0
C24 C 0.20715 0.33915 0.00284 0.0
C25 C 0.18678 0.29685 0.02179 0.0
C26 C 0.12152 0.31283 0.03234 0.0
C27 C 0.10787 0.35834 0.0212 0.0
C28 C 0.22494 0.28623 0.05983 0.0
C29 C 0.19198 0.25819 0.98982 0.0
C30 C 0.91125 0.45258 -0.00222 0.0
C31 C 0.8518 0.4419 0.0001 0.0
C32 C 0.83852 0.404 0.02303 0.0
C33 C 0.88479 0.37465 0.0399 0.0
C34 C 0.94473 0.38326 0.03349 0.0
C35 C 0.95689 0.42262 0.01403 0.0
C36 C 0.02284 0.42497 0.00746 0.0
C37 C 0.04797 0.37887 0.02298 0.0
C38 C 0.00244 0.3549 0.03897 0.0
C39 C 0.0423 0.46405 0.03418 0.0
C40 C 0.03442 0.43036 0.96147 0.0
H41 H 0.16584 0.20732 0.05768 0.0
H42 H 0.96744 0.2031 0.12482 0.0
H43 H 0.94419 0.2294 0.03299 0.0
H44 H 0.91681 0.28589 0.02248 0.0
H45 H 0.88672 0.25734 0.06504 0.0
H46 H -0.0121 0.30742 0.13646 0.0
H47 H 0.9197 0.2809 0.13036 0.0
H48 H 0.92692 0.33634 0.11023 0.0
H49 H 0.29631 0.31506 0.98122 0.0
H50 H 0.23806 0.45788 0.96471 0.0
H51 H 0.1432 0.44807 0.99598 0.0
H52 H 0.23295 0.31816 0.07602 0.0
H53 H 0.26939 0.26815 0.05164 0.0
H54 H 0.20277 0.266 0.08229 0.0
H55 H 0.17726 0.27153 0.95984 0.0
H56 H 0.16289 0.23117 0.99674 0.0
H57 H 0.23908 0.24263 0.98654 0.0
H58 H 0.14822 0.14253 0.09814 0.0
C59 C 0.12258 0.20742 0.07196 0.0
C60 C 0.2128 0.61224 0.00653 0.0
C61 C 0.21064 0.57141 0.98458 0.0
C62 C 0.15554 0.55321 0.98024 0.0
C63 C 0.10456 0.61942 0.01367 0.0
C64 C 0.15901 0.63596 0.0205 0.0
C65 C 0.15129 0.68266 0.03988 0.0
H66 H 0.9633 0.8655 0.10128 0.0
C67 C 0.05661 0.6551 0.02515 0.0
C68 C 0.08321 0.69242 0.0404 0.0
H69 H 0.15417 0.83767 0.12173 0.0
H70 H 0.15642 0.76887 0.08288 0.0
H71 H 0.96598 0.82728 0.00736 0.0
H72 H 0.93152 0.76389 0.12125 0.0
H73 H 0.87505 0.75402 0.08638 0.0
H74 H 0.8842 0.81128 0.10167 0.0
H75 H 0.89594 0.83946 0.03405 0.0
H76 H 0.90921 0.79125 0.0001 0.0
C77 C 0.18134 0.71611 0.01227 0.0
C78 C 0.17719 0.67884 0.08305 0.0
C79 C 0.84448 0.62984 0.98995 0.0
C80 C 0.7922 0.65939 0.9848 0.0
C81 C 0.79085 0.70473 -0.00096 0.0
C82 C 0.8421 0.72066 0.01609 0.0
C83 C 0.89534 0.69115 0.01832 0.0
C84 C 0.89556 0.64665 0.00516 0.0
C85 C 0.95701 0.62169 0.00362 0.0
C86 C -0.00611 0.65794 0.01948 0.0
C87 C 0.95776 0.69838 0.02877 0.0
C88 C 0.97242 0.60864 0.95872 0.0
C89 C 0.95805 0.58086 0.03276 0.0
C90 C 0.0057 0.84481 0.09727 0.0
C91 C 0.05852 0.85769 0.11491 0.0
C92 C 0.1128 0.8297 0.10811 0.0
C93 C 0.11402 0.78901 0.08608 0.0
C94 C 0.06046 0.77554 0.07076 0.0
C95 C 0.00749 0.80342 0.07602 0.0
C96 C 0.95453 0.78219 0.05918 0.0
C97 C -0.0158 0.73613 0.04512 0.0
C98 C 0.04649 0.73288 0.0513 0.0
C99 C 0.92952 0.81151 0.02345 0.0
C100 C 0.90847 0.77766 0.09372 0.0
H101 H 0.06196 0.56215 0.9894 0.0
H102 H 0.25469 0.6272 0.00976 0.0
H103 H 0.17717 0.64372 0.09501 0.0
H104 H 0.1499 0.70057 0.10516 0.0
H105 H 0.22423 0.68764 0.08359 0.0
H106 H 0.16974 0.71064 0.98016 0.0
H107 H 0.23098 0.71106 0.01468 0.0
H108 H 0.1664 0.75214 0.01901 0.0
H109 H 0.84714 0.59466 0.97996 0.0
H110 H 0.75119 0.72845 0.99537 0.0
H111 H 0.83899 0.75565 0.02558 0.0
H112 H 0.94221 0.62823 0.93722 0.0
H113 H 0.96852 0.57198 0.95282 0.0
H114 H 0.01783 0.61669 0.94955 0.0
H115 H 0.93244 0.59065 0.06101 0.0
H116 H 0.00383 0.56881 0.04262 0.0
H117 H 0.93741 0.55206 0.01875 0.0
H118 H 0.15293 0.52205 0.96321 0.0
C119 C 0.10266 0.57684 0.995 0.0
C120 C 0.52169 0.69663 0.59642 0.0
C121 C 0.56618 0.66888 0.61699 0.0
C122 C 0.62695 0.67589 0.60996 0.0
C123 C 0.59683 0.74163 0.56861 0.0
C124 C 0.53761 0.73361 0.57403 0.0
C125 C 0.49463 0.77174 0.55841 0.0
H126 H 0.45072 0.97524 0.46496 0.0
C127 C 0.59767 0.78617 0.54859 0.0
C128 C 0.53778 0.80452 0.54363 0.0
H129 H 0.31685 0.88913 0.50403 0.0
H130 H 0.39349 0.83711 0.53428 0.0
H131 H 0.53441 0.9587 0.55269 0.0
H132 H 0.53434 0.911 0.43041 0.0
H133 H 0.60988 0.90207 0.44379 0.0
H134 H 0.57262 0.9592 0.44389 0.0
H135 H 0.54795 0.99149 0.5089 0.0
H136 H 0.60819 0.95755 0.53355 0.0
C137 C 0.45476 0.79202 0.59409 0.0
C138 C 0.4594 0.75269 0.52332 0.0
C139 C 0.79382 0.8417 0.4989 0.0
C140 C 0.80608 0.88276 0.48069 0.0
C141 C 0.7598 0.9183 0.47699 0.0
C142 C 0.70148 0.91264 0.48948 0.0
C143 C 0.68904 0.87109 0.50612 0.0
C144 C 0.73488 0.83688 0.512 0.0
C145 C 0.71264 0.79653 0.53314 0.0
C146 C 0.6454 0.81099 0.53546 0.0
C147 C 0.6323 0.85456 0.51928 0.0
C148 C 0.74115 0.79254 0.57557 0.0
C149 C 0.72721 0.75372 0.50632 0.0
C150 C 0.43798 0.94579 0.48104 0.0
C151 C 0.37805 0.93616 0.48231 0.0
C152 C 0.36288 0.89741 0.50318 0.0
C153 C 0.40754 0.86693 0.52018 0.0
C154 C 0.46794 0.87553 0.5165 0.0
C155 C 0.48198 0.91511 0.49824 0.0
C156 C 0.54826 0.91848 0.49645 0.0
C157 C 0.57201 0.87328 0.5146 0.0
C158 C 0.52491 0.84845 0.52673 0.0
C159 C 0.56097 0.95877 0.52408 0.0
C160 C 0.56762 0.92319 0.45152 0.0
H161 H 0.68917 0.71622 0.58226 0.0
H162 H 0.47462 0.69197 0.59999 0.0
H163 H 0.48956 0.72917 0.50397 0.0
H164 H 0.43999 0.77937 0.50279 0.0
H165 H 0.42291 0.73334 0.53498 0.0
H166 H 0.47979 0.78962 0.62293 0.0
H167 H 0.41428 0.7736 0.59806 0.0
H168 H 0.44068 0.82872 0.59074 0.0
H169 H 0.82909 0.81419 0.5026 0.0
H170 H 0.76835 0.95 0.46285 0.0
H171 H 0.66804 0.94046 0.4846 0.0
H172 H 0.75721 0.82517 0.58563 0.0
H173 H 0.78024 0.7662 0.5759 0.0
H174 H 0.70842 0.78464 0.59917 0.0
H175 H 0.71183 0.76053 0.47495 0.0
H176 H 0.7048 0.72436 0.51703 0.0
H177 H 0.77632 0.74349 0.50515 0.0
H178 H 0.66257 0.65562 0.6253 0.0
C179 C 0.64244 0.71178 0.58556 0.0
C180 C 0.72876 0.1134 0.51108 0.0
C181 C 0.72896 0.0719 0.48966 0.0
C182 C 0.67463 0.0523 0.48543 0.0
C183 C 0.62048 0.11882 0.5165 0.0
C184 C 0.67405 0.13624 0.5242 0.0
C185 C 0.66466 0.1826 0.54405 0.0
H186 H 0.47234 0.36462 0.60073 0.0
C187 C 0.57138 0.15409 0.52689 0.0
C188 C 0.5966 0.19158 0.5432 0.0
H189 H 0.66092 0.3362 0.62865 0.0
H190 H 0.66607 0.26741 0.58958 0.0
H191 H 0.48276 0.32722 0.50739 0.0
H192 H 0.43845 0.26301 0.6189 0.0
H193 H 0.38535 0.25284 0.58175 0.0
H194 H 0.39279 0.31023 0.5976 0.0
H195 H 0.41003 0.33829 0.53077 0.0
H196 H 0.42785 0.29057 0.49679 0.0
C197 C 0.69522 0.21688 0.51764 0.0
C198 C 0.6886 0.17845 0.58776 0.0
C199 C 0.36291 0.13074 0.48056 0.0
C200 C 0.31091 0.16055 0.47473 0.0
C201 C 0.30896 0.20552 0.48996 0.0
C202 C 0.35887 0.22073 0.50925 0.0
C203 C 0.41154 0.19092 0.51287 0.0
C204 C 0.41272 0.14681 0.49849 0.0
C205 C 0.4738 0.12115 0.50029 0.0
C206 C 0.50929 0.15702 0.5186 0.0
C207 C 0.4726 0.19755 0.52673 0.0
C208 C 0.49474 0.10757 0.45644 0.0
C209 C 0.47033 0.08041 0.52913 0.0
C210 C 0.51488 0.34378 0.59841 0.0
C211 C 0.5662 0.35663 0.6181 0.0
C212 C 0.62072 0.32835 0.61342 0.0
C213 C 0.62359 0.28765 0.59127 0.0
C214 C 0.57144 0.27439 0.57368 0.0
C215 C 0.51827 0.30235 0.57706 0.0
C216 C 0.46684 0.28126 0.55789 0.0
C217 C 0.49751 0.23516 0.54465 0.0
C218 C 0.55904 0.23185 0.55327 0.0
C219 C 0.44514 0.31081 0.52144 0.0
C220 C 0.41786 0.27666 0.59051 0.0
H221 H 0.58045 0.05999 0.49302 0.0
H222 H 0.76962 0.12954 0.5149 0.0
H223 H 0.69139 0.14275 0.59868 0.0
H224 H 0.65844 0.19808 0.60977 0.0
H225 H 0.73426 0.18979 0.58984 0.0
H226 H 0.68441 0.21229 0.48527 0.0
H227 H 0.74479 0.21186 0.52058 0.0
H228 H 0.68011 0.25269 0.52516 0.0
H229 H 0.36603 0.09579 0.46993 0.0
H230 H 0.26973 0.22951 0.48573 0.0
H231 H 0.35513 0.25543 0.51962 0.0
H232 H 0.46745 0.12701 0.43328 0.0
H233 H 0.49143 0.07087 0.45033 0.0
H234 H 0.54119 0.1153 0.4499 0.0
H235 H 0.44185 0.09066 0.55606 0.0
H236 H 0.51457 0.06759 0.54122 0.0
H237 H 0.45043 0.05199 0.51385 0.0
H238 H 0.67353 0.0201 0.46982 0.0
C239 C 0.62052 0.07556 0.49878 0.0
Zn240 Zn 0.00606 0.10034 0.34413 0.0
Zn241 Zn 0.10838 0.92594 0.33685 0.0
Zn242 Zn 0.05885 0.01374 0.34218 0.0
C243 C 0.07897 0.95357 0.25912 0.0
C244 C 0.00608 0.92863 0.38681 0.0
O245 O 0.12123 0.05571 0.37115 0.0
O246 O 0.07136 0.12439 0.37594 0.0
C247 C 0.02493 0.07593 0.26323 0.0
O248 O 0.06104 0.99092 0.27795 0.0
O249 O 0.10246 0.91946 0.27795 0.0
O250 O 0.04691 0.9004 0.37214 0.0
O251 O 0.00376 0.97123 0.37798 0.0
O252 O 0.00296 0.10893 0.28491 0.0
O253 O 0.04674 0.03835 0.27942 0.0
O254 O 0.97525 0.01646 0.37854 0.0
O255 O 0.9334 0.08758 0.37382 0.0
C256 C 0.93242 0.04768 0.38689 0.0
O257 O 0.14639 1.00974 0.37173 0.0
O258 O 0.18563 0.9387 0.36074 0.0
C259 C 0.11771 0.09761 0.38278 0.0
C260 C 0.18956 0.97788 0.37531 0.0
Zn261 Zn 0.49466 0.60038 0.84909 0.0
Zn262 Zn 0.59402 0.42782 0.84211 0.0
Zn263 Zn 0.54482 0.51588 0.8428 0.0
C264 C 0.57344 0.45713 0.76159 0.0
C265 C 0.48293 0.43038 0.88088 0.0
O266 O 0.60441 0.55602 0.87736 0.0
O267 O 0.55415 0.62415 0.88535 0.0
C268 C 0.52044 0.58264 0.76691 0.0
O269 O 0.55488 0.49544 0.77856 0.0
O270 O 0.59249 0.42317 0.78242 0.0
O271 O 0.52884 0.40267 0.87439 0.0
O272 O 0.48205 0.47235 0.87023 0.0
O273 O 0.49845 0.61325 0.79113 0.0
O274 O 0.54006 0.54301 0.78016 0.0
O275 O 0.45738 0.51816 0.87492 0.0
O276 O 0.41724 0.58981 0.87297 0.0
C277 C 0.4143 0.54915 0.88331 0.0
O278 O 0.62847 0.50981 0.87811 0.0
O279 O 0.66887 0.43865 0.86966 0.0
C280 C 0.60006 0.5969 0.89182 0.0
C281 C 0.67069 0.47786 0.88464 0.0
C282 C 0.09981 0.11456 0.1707 0.0
C283 C 0.05002 0.13242 0.14802 0.0
H284 H 0.13037 0.08042 0.22465 0.0
C285 C -0.00734 0.12111 0.15981 0.0
H286 H 0.14478 0.12235 0.16334 0.0
C287 C -0.01544 0.09837 0.19605 0.0
C288 C 0.03389 0.08446 0.22013 0.0
H289 H 0.95328 0.1322 0.14251 0.0
H290 H 0.93944 0.09416 0.20648 0.0
C291 C 0.09176 0.09034 0.20611 0.0
C292 C 0.00713 0.90315 0.17215 0.0
C293 C 0.05626 0.89566 0.14513 0.0
H294 H 0.97563 0.92986 0.22967 0.0
C295 C 0.10701 0.91916 0.15195 0.0
H296 H 0.96733 0.8857 0.16841 0.0
C297 C 0.11194 0.94384 0.18776 0.0
C298 C 0.06539 0.94672 0.21653 0.0
H299 H 0.14497 0.91556 0.13124 0.0
H300 H 0.15402 0.95724 0.19448 0.0
C301 C 0.01166 0.92866 0.20743 0.0
C302 C 0.58604 0.60033 0.663 0.0
C303 C 0.54869 0.63902 0.65057 0.0
H304 H 0.60617 0.55112 0.70986 0.0
C305 C 0.49699 0.65277 0.6739 0.0
H306 H 0.62561 0.58805 0.64553 0.0
C307 C 0.48537 0.63101 0.70974 0.0
C308 C 0.52542 0.5953 0.72402 0.0
H309 H 0.46726 0.68262 0.66645 0.0
H310 H 0.4468 0.6444 0.72778 0.0
C311 C 0.57452 0.57864 0.69954 0.0
C312 C 0.61229 0.41837 0.65661 0.0
C313 C 0.56183 0.3952 0.64787 0.0
H314 H 0.65554 0.45742 0.70044 0.0
C315 C 0.51018 0.40406 0.6725 0.0
H316 H 0.65225 0.41377 0.63773 0.0
C317 C 0.51151 0.4308 0.70736 0.0
C318 C 0.56448 0.44877 0.71854 0.0
H319 H 0.47046 0.38694 0.6673 0.0
H320 H 0.4732 0.43316 0.72785 0.0
C321 C 0.61397 0.44423 0.69208 0.0
C322 C 0.38519 0.3752 0.95611 0.0
C323 C 0.32776 0.39345 0.94424 0.0
H324 H 0.48018 0.37279 0.94499 0.0
C325 C 0.3221 0.42036 0.90936 0.0
H326 H 0.39084 0.35431 0.98279 0.0
C327 C 0.37272 0.43105 0.88819 0.0
C328 C 0.43007 0.41497 0.90125 0.0
H329 H 0.27836 0.43387 0.89875 0.0
H330 H 0.36705 0.45247 0.86181 0.0
C331 C 0.43612 0.38581 0.93461 0.0
C332 C 0.75463 0.61373 0.9282 0.0
C333 C 0.7421 0.64351 0.96137 0.0
H334 H 0.71944 0.57571 0.88041 0.0
C335 C 0.68199 0.65799 0.97123 0.0
H336 H 0.80033 0.60299 0.91872 0.0
C337 C 0.63563 0.64279 0.94854 0.0
C338 C 0.64861 0.61239 0.91606 0.0
H339 H 0.67073 0.68064 0.99664 0.0
H340 H 0.58958 0.65435 0.95668 0.0
C341 C 0.70838 0.59808 0.90605 0.0
C342 C 0.82229 0.465 0.93053 0.0
C343 C 0.80705 0.46359 0.9718 0.0
H344 H 0.78991 0.47112 0.87006 0.0
C345 C 0.74744 0.47639 0.98405 0.0
H346 H 0.86775 0.45486 0.92011 0.0
C347 C 0.70312 0.48693 0.95518 0.0
C348 C 0.71786 0.48372 0.91388 0.0
H349 H 0.73465 0.47566 0.01565 0.0
H350 H 0.65669 0.49344 0.96497 0.0
C351 C 0.77792 0.47438 0.90181 0.0
C352 C 0.25586 0.54967 0.91772 0.0
C353 C 0.26268 0.5532 0.9597 0.0
H354 H 0.30023 0.54523 0.85999 0.0
C355 C 0.32018 0.54589 0.97622 0.0
H356 H 0.21194 0.55556 0.90426 0.0
C357 C 0.37052 0.5387 0.95079 0.0
C358 C 0.36361 0.5397 0.90878 0.0
H359 H 0.32628 0.54844 0.00851 0.0
H360 H 0.41487 0.53649 0.9638 0.0
C361 C 0.30612 0.54364 0.89239 0.0
C362 C 0.88819 0.85983 0.43091 0.0
C363 C 0.86511 0.88869 0.46247 0.0
H364 H 0.95125 0.85037 0.3815 0.0
C365 C 0.89335 0.9277 0.47177 0.0
H366 H 0.86673 0.82975 0.42307 0.0
C367 C 0.94143 0.93924 0.44822 0.0
C368 C 0.96106 0.91268 0.41453 0.0
H369 H 0.87656 0.95022 0.49622 0.0
H370 H 0.96255 0.96951 0.45573 0.0
C371 C 0.93603 0.87178 0.40704 0.0
C372 C 0.20081 0.1604 0.46029 0.0
C373 C 0.26087 0.14515 0.45082 0.0
H374 H 0.10832 0.15733 0.44579 0.0
C375 C 0.2731 0.11487 0.41797 0.0
H376 H 0.18962 0.18329 0.48553 0.0
C377 C 0.22655 0.09936 0.3959 0.0
C378 C 0.16686 0.11436 0.40568 0.0
H379 H 0.31873 0.10341 0.40884 0.0
H380 H 0.23728 0.07626 0.37072 0.0
C381 C 0.15426 0.14542 0.43768 0.0
C382 C 0.27628 0.97693 0.47035 0.0
C383 C 0.33363 0.96075 0.45573 0.0
H384 H 0.18483 0.99771 0.45508 0.0
C385 C 0.3453 0.96061 0.41398 0.0
H386 H 0.26646 0.97731 0.50245 0.0
C387 C 0.29868 0.97124 0.38709 0.0
C388 C 0.24029 0.98345 0.40166 0.0
H389 H 0.38912 0.94797 0.40201 0.0
H390 H 0.30725 0.96642 0.35501 0.0
C391 C 0.22991 0.98886 0.44335 0.0
C392 C 0.77765 0.03873 0.42623 0.0
C393 C 0.78321 0.05348 0.46645 0.0
H394 H 0.82216 0.0242 0.36923 0.0
C395 C 0.84078 0.0573 0.48164 0.0
H396 H 0.73401 0.03599 0.41329 0.0
C397 C 0.89089 0.05117 0.45606 0.0
C398 C 0.88441 0.03978 0.41532 0.0
H399 H 0.8467 0.06789 0.51257 0.0
H400 H 0.93424 0.05804 0.46746 0.0
C401 C 0.82799 0.03197 0.40086 0.0
loop_
_geom_bond_atom_site_label_1
_geom_bond_atom_site_label_2
_geom_bond_distance
_geom_bond_site_symmetry_2
_ccdc_geom_bond_type
C0 C1 1.391 . S
C0 C4 1.391 . S
C0 H42 0.948 . S
C1 C0 1.391 . S
C1 C2 1.391 . S
C2 C1 1.391 . S
C2 H58 0.947 . S
C2 C59 1.392 . S
C3 C4 1.391 . S
C3 C7 1.397 . S
C3 C59 1.419 . S
C4 C0 1.391 . S
C4 C3 1.391 . S
C4 C5 1.399 . S
C5 C4 1.399 . S
C5 C8 1.396 . S
C5 C17 1.447 1_455 S
C5 C18 1.684 1_455 S
H6 C30 0.948 . S
C7 C3 1.397 . S
C7 C8 1.394 . S
C7 C26 1.723 . S
C8 C5 1.396 . S
C8 C7 1.394 . S
C8 C38 1.723 . S
H9 C32 0.947 . S
H10 C33 0.948 . S
H11 C39 0.982 . S
H12 C40 0.979 . S
H13 C40 0.980 . S
H14 C40 0.983 . S
H15 C39 0.979 . S
H16 C39 0.977 . S
C17 C5 1.447 1_655 S
C17 H46 0.978 1_655 S
C17 H47 0.984 . S
C17 H48 0.982 . S
C18 C5 1.684 1_655 S
C18 H43 0.979 1_655 S
C18 H44 0.980 . S
C18 H45 0.983 . S
C19 C20 1.391 . S
C19 C24 1.391 . S
C19 H49 0.948 . S
C20 C19 1.391 . S
C20 C21 1.391 . S
C21 C20 1.391 . S
C21 C22 1.392 . S
C21 H50 0.947 . S
C22 C21 1.392 . S
C22 C23 1.419 . S
C22 H51 0.948 . S
C23 C22 1.419 . S
C23 C24 1.391 . S
C23 C27 1.397 1_556 S
C24 C19 1.391 . S
C24 C23 1.391 . S
C24 C25 1.399 1_556 S
C25 C24 1.399 1_554 S
C25 C26 1.396 . S
C25 C28 1.453 . S
C25 C29 1.684 . S
C26 C7 1.723 . S
C26 C25 1.396 . S
C26 C27 1.394 . S
C27 C23 1.397 1_554 S
C27 C26 1.394 . S
C27 C37 1.723 1_554 S
C28 C25 1.453 . S
C28 H52 0.982 . S
C28 H53 0.979 . S
C28 H54 0.977 . S
C29 C25 1.684 . S
C29 H55 0.979 . S
C29 H56 0.980 . S
C29 H57 0.983 . S
C30 H6 0.948 . S
C30 C31 1.391 . S
C30 C35 1.391 1_655 S
C31 C30 1.391 . S
C31 C32 1.391 . S
C32 H9 0.947 . S
C32 C31 1.391 . S
C32 C33 1.392 1_556 S
C33 H10 0.948 . S
C33 C32 1.392 1_554 S
C33 C34 1.419 1_654 S
C34 C33 1.419 1_456 S
C34 C35 1.391 . S
C34 C38 1.397 1_556 S
C35 C30 1.391 1_455 S
C35 C34 1.391 . S
C35 C36 1.399 . S
C36 C35 1.399 . S
C36 C37 1.396 . S
C36 C39 1.453 . S
C36 C40 1.684 . S
C37 C27 1.723 1_556 S
C37 C36 1.396 . S
C37 C38 1.394 1_556 S
C38 C8 1.723 . S
C38 C34 1.397 1_554 S
C38 C37 1.394 1_554 S
C39 H11 0.982 . S
C39 H15 0.979 . S
C39 H16 0.977 . S
C39 C36 1.453 . S
C40 H12 0.979 . S
C40 H13 0.980 . S
C40 H14 0.983 . S
C40 C36 1.684 . S
H41 C59 0.948 . S
H42 C0 0.948 . S
H43 C18 0.979 1_455 S
H44 C18 0.980 . S
H45 C18 0.983 . S
H46 C17 0.978 1_455 S
H47 C17 0.984 . S
H48 C17 0.982 . S
H49 C19 0.948 . S
H50 C21 0.947 . S
H51 C22 0.948 . S
H52 C28 0.982 . S
H53 C28 0.979 . S
H54 C28 0.977 . S
H55 C29 0.979 . S
H56 C29 0.980 . S
H57 C29 0.983 . S
H58 C2 0.947 . S
C59 C2 1.392 . S
C59 C3 1.419 . S
C59 H41 0.948 . S
C60 C61 1.391 . S
C60 C64 1.391 1_556 S
C60 H102 0.959 . S
C61 C60 1.391 . S
C61 C62 1.391 . S
C62 C61 1.391 . S
C62 H118 0.947 . S
C62 C119 1.392 . S
C63 C64 1.391 1_556 S
C63 C67 1.397 1_556 S
C63 C119 1.419 . S
C64 C60 1.391 1_554 S
C64 C63 1.391 1_554 S
C64 C65 1.399 . S
C65 C64 1.399 . S
C65 C68 1.396 . S
C65 C77 1.453 . S
C65 C78 1.684 . S
H66 C90 0.948 . S
C67 C63 1.397 1_554 S
C67 C68 1.394 . S
C67 C86 1.723 1_454 S
C68 C65 1.396 . S
C68 C67 1.394 . S
C68 C98 1.723 . S
H69 C92 0.947 . S
H70 C93 0.948 . S
H71 C99 0.982 . S
H72 C100 0.979 . S
H73 C100 0.980 . S
H74 C100 0.983 . S
H75 C99 0.979 . S
H76 C99 0.977 . S
C77 C65 1.453 . S
C77 H106 0.982 . S
C77 H107 0.979 . S
C77 H108 0.977 . S
C78 C65 1.684 . S
C78 H103 0.979 . S
C78 H104 0.980 . S
C78 H105 0.983 . S
C79 C80 1.391 . S
C79 C84 1.391 . S
C79 H109 0.948 . S
C80 C79 1.391 . S
C80 C81 1.391 1_556 S
C81 C80 1.391 1_554 S
C81 C82 1.392 . S
C81 H110 0.947 . S
C82 C81 1.392 . S
C82 C83 1.419 . S
C82 H111 0.948 . S
C83 C82 1.419 . S
C83 C84 1.391 1_554 S
C83 C87 1.397 . S
C84 C79 1.391 . S
C84 C83 1.391 1_556 S
C84 C85 1.399 . S
C85 C84 1.399 . S
C85 C86 1.396 . S
C85 C88 1.453 . S
C85 C89 1.684 . S
C86 C67 1.723 1_656 S
C86 C85 1.396 . S
C86 C87 1.394 1_556 S
C87 C83 1.397 . S
C87 C86 1.394 1_554 S
C87 C97 1.723 . S
C88 C85 1.453 . S
C88 H112 0.982 . S
C88 H113 0.979 . S
C88 H114 0.977 1_655 S
C89 C85 1.684 . S
C89 H115 0.979 . S
C89 H116 0.980 1_655 S
C89 H117 0.983 . S
C90 H66 0.948 . S
C90 C91 1.391 1_655 S
C90 C95 1.391 . S
C91 C90 1.391 1_455 S
C91 C92 1.391 . S
C92 H69 0.947 . S
C92 C91 1.391 . S
C92 C93 1.392 . S
C93 H70 0.948 . S
C93 C92 1.392 . S
C93 C94 1.419 . S
C94 C93 1.419 . S
C94 C95 1.391 1_455 S
C94 C98 1.397 . S
C95 C90 1.391 . S
C95 C94 1.391 1_655 S
C95 C96 1.399 . S
C96 C95 1.399 . S
C96 C97 1.396 . S
C96 C99 1.453 . S
C96 C100 1.684 . S
C97 C87 1.723 . S
C97 C96 1.396 . S
C97 C98 1.394 1_655 S
C98 C68 1.723 . S
C98 C94 1.397 . S
C98 C97 1.394 1_455 S
C99 H71 0.982 . S
C99 H75 0.979 . S
C99 H76 0.977 . S
C99 C96 1.453 . S
C100 H72 0.979 . S
C100 H73 0.980 . S
C100 H74 0.983 . S
C100 C96 1.684 . S
H101 C119 0.948 . S
H102 C60 0.959 . S
H103 C78 0.979 . S
H104 C78 0.980 . S
H105 C78 0.983 . S
H106 C77 0.982 . S
H107 C77 0.979 . S
H108 C77 0.977 . S
H109 C79 0.948 . S
H110 C81 0.947 . S
H111 C82 0.948 . S
H112 C88 0.982 . S
H113 C88 0.979 . S
H114 C88 0.977 1_455 S
H115 C89 0.979 . S
H116 C89 0.980 1_455 S
H117 C89 0.983 . S
H118 C62 0.947 . S
C119 C62 1.392 . S
C119 C63 1.419 . S
C119 H101 0.948 . S
C120 C121 1.391 . S
C120 C124 1.391 . S
C120 H162 0.948 . S
C121 C120 1.391 . S
C121 C122 1.391 . S
C122 C121 1.391 . S
C122 H178 0.947 . S
C122 C179 1.392 . S
C123 C124 1.391 . S
C123 C127 1.397 . S
C123 C179 1.419 . S
C124 C120 1.391 . S
C124 C123 1.391 . S
C124 C125 1.399 . S
C125 C124 1.399 . S
C125 C128 1.396 . S
C125 C137 1.453 . S
C125 C138 1.684 . S
H126 C150 0.948 . S
C127 C123 1.397 . S
C127 C128 1.394 . S
C127 C146 1.723 . S
C128 C125 1.396 . S
C128 C127 1.394 . S
C128 C158 1.723 . S
H129 C152 0.947 . S
H130 C153 0.948 . S
H131 C159 0.982 . S
H132 C160 0.979 . S
H133 C160 0.980 . S
H134 C160 0.983 . S
H135 C159 0.979 . S
H136 C159 0.977 . S
C137 C125 1.453 . S
C137 H166 0.982 . S
C137 H167 0.979 . S
C137 H168 0.977 . S
C138 C125 1.684 . S
C138 H163 0.979 . S
C138 H164 0.980 . S
C138 H165 0.983 . S
C139 C140 1.391 . S
C139 C144 1.391 . S
C139 H169 0.948 . S
C140 C139 1.391 . S
C140 C141 1.391 . S
C141 C140 1.391 . S
C141 C142 1.392 . S
C141 H170 0.947 . S
C142 C141 1.392 . S
C142 C143 1.419 . S
C142 H171 0.948 . S
C143 C142 1.419 . S
C143 C144 1.391 . S
C143 C147 1.397 . S
C144 C139 1.391 . S
C144 C143 1.391 . S
C144 C145 1.399 . S
C145 C144 1.399 . S
C145 C146 1.396 . S
C145 C148 1.453 . S
C145 C149 1.684 . S
C146 C127 1.723 . S
C146 C145 1.396 . S
C146 C147 1.394 . S
C147 C143 1.397 . S
C147 C146 1.394 . S
C147 C157 1.723 . S
C148 C145 1.453 . S
C148 H172 0.982 . S
C148 H173 0.979 . S
C148 H174 0.977 . S
C149 C145 1.684 . S
C149 H175 0.979 . S
C149 H176 0.980 . S
C149 H177 0.983 . S
C150 H126 0.948 . S
C150 C151 1.391 . S
C150 C155 1.391 . S
C151 C150 1.391 . S
C151 C152 1.391 . S
C152 H129 0.947 . S
C152 C151 1.391 . S
C152 C153 1.392 . S
C153 H130 0.948 . S
C153 C152 1.392 . S
C153 C154 1.419 . S
C154 C153 1.419 . S
C154 C155 1.391 . S
C154 C158 1.397 . S
C155 C150 1.391 . S
C155 C154 1.391 . S
C155 C156 1.399 . S
C156 C155 1.399 . S
C156 C157 1.396 . S
C156 C159 1.453 . S
C156 C160 1.684 . S
C157 C147 1.723 . S
C157 C156 1.396 . S
C157 C158 1.394 . S
C158 C128 1.723 . S
C158 C154 1.397 . S
C158 C157 1.394 . S
C159 H131 0.982 . S
C159 H135 0.979 . S
C159 H136 0.977 . S
C159 C156 1.453 . S
C160 H132 0.979 . S
C160 H133 0.980 . S
C160 H134 0.983 . S
C160 C156 1.684 . S
H161 C179 0.948 . S
H162 C120 0.948 . S
H163 C138 0.979 . S
H164 C138 0.980 . S
H165 C138 0.983 . S
H166 C137 0.982 . S
H167 C137 0.979 . S
H168 C137 0.977 . S
H169 C139 0.948 . S
H170 C141 0.947 . S
H171 C142 0.948 . S
H172 C148 0.982 . S
H173 C148 0.979 . S
H174 C148 0.977 . S
H175 C149 0.979 . S
H176 C149 0.980 . S
H177 C149 0.983 . S
H178 C122 0.947 . S
C179 C122 1.392 . S
C179 C123 1.419 . S
C179 H161 0.948 . S
C180 C181 1.391 . S
C180 C184 1.391 . S
C180 H222 0.948 . S
C181 C180 1.391 . S
C181 C182 1.391 . S
C182 C181 1.391 . S
C182 H238 0.947 . S
C182 C239 1.392 . S
C183 C184 1.391 . S
C183 C187 1.397 . S
C183 C239 1.419 . S
C184 C180 1.391 . S
C184 C183 1.391 . S
C184 C185 1.399 . S
C185 C184 1.399 . S
C185 C188 1.396 . S
C185 C197 1.453 . S
C185 C198 1.684 . S
H186 C210 0.948 . S
C187 C183 1.397 . S
C187 C188 1.394 . S
C187 C206 1.723 . S
C188 C185 1.396 . S
C188 C187 1.394 . S
C188 C218 1.723 . S
H189 C212 0.947 . S
H190 C213 0.948 . S
H191 C219 0.982 . S
H192 C220 0.979 . S
H193 C220 0.980 . S
H194 C220 0.983 . S
H195 C219 0.979 . S
H196 C219 0.977 . S
C197 C185 1.453 . S
C197 H226 0.982 . S
C197 H227 0.979 . S
C197 H228 0.977 . S
C198 C185 1.684 . S
C198 H223 0.979 . S
C198 H224 0.980 . S
C198 H225 0.983 . S
C199 C200 1.391 . S
C199 C204 1.391 . S
C199 H229 0.948 . S
C200 C199 1.391 . S
C200 C201 1.391 . S
C201 C200 1.391 . S
C201 C202 1.392 . S
C201 H230 0.947 . S
C202 C201 1.392 . S
C202 C203 1.419 . S
C202 H231 0.948 . S
C203 C202 1.419 . S
C203 C204 1.391 . S
C203 C207 1.397 . S
C204 C199 1.391 . S
C204 C203 1.391 . S
C204 C205 1.399 . S
C205 C204 1.399 . S
C205 C206 1.396 . S
C205 C208 1.453 . S
C205 C209 1.684 . S
C206 C187 1.723 . S
C206 C205 1.396 . S
C206 C207 1.394 . S
C207 C203 1.397 . S
C207 C206 1.394 . S
C207 C217 1.723 . S
C208 C205 1.453 . S
C208 H232 0.982 . S
C208 H233 0.979 . S
C208 H234 0.977 . S
C209 C205 1.684 . S
C209 H235 0.979 . S
C209 H236 0.980 . S
C209 H237 0.983 . S
C210 H186 0.948 . S
C210 C211 1.391 . S
C210 C215 1.391 . S
C211 C210 1.391 . S
C211 C212 1.391 . S
C212 H189 0.947 . S
C212 C211 1.391 . S
C212 C213 1.392 . S
C213 H190 0.948 . S
C213 C212 1.392 . S
C213 C214 1.419 . S
C214 C213 1.419 . S
C214 C215 1.391 . S
C214 C218 1.397 . S
C215 C210 1.391 . S
C215 C214 1.391 . S
C215 C216 1.399 . S
C216 C215 1.399 . S
C216 C217 1.396 . S
C216 C219 1.453 . S
C216 C220 1.684 . S
C217 C207 1.723 . S
C217 C216 1.396 . S
C217 C218 1.394 . S
C218 C188 1.723 . S
C218 C214 1.397 . S
C218 C217 1.394 . S
C219 H191 0.982 . S
C219 H195 0.979 . S
C219 H196 0.977 . S
C219 C216 1.453 . S
C220 H192 0.979 . S
C220 H193 0.980 . S
C220 H194 0.983 . S
C220 C216 1.684 . S
H221 C239 0.948 . S
H222 C180 0.948 . S
H223 C198 0.979 . S
H224 C198 0.980 . S
H225 C198 0.983 . S
H226 C197 0.982 . S
H227 C197 0.979 . S
H228 C197 0.977 . S
H229 C199 0.948 . S
H230 C201 0.947 . S
H231 C202 0.948 . S
H232 C208 0.982 . S
H233 C208 0.979 . S
H234 C208 0.977 . S
H235 C209 0.979 . S
H236 C209 0.980 . S
H237 C209 0.983 . S
H238 C182 0.947 . S
C239 C182 1.392 . S
C239 C183 1.419 . S
C239 H221 0.948 . S
Zn240 O246 1.920 . S
Zn240 O252 1.898 . S
Zn240 O255 1.905 1_455 S
Zn241 O249 1.905 . S
Zn241 O250 1.898 . S
Zn241 O258 1.920 . S
Zn242 O245 2.080 . S
Zn242 O248 2.114 1_545 S
Zn242 O251 2.120 1_545 S
Zn242 O253 2.120 . S
Zn242 O254 2.114 1_455 S
Zn242 O257 2.080 1_545 S
C243 O248 1.166 . S
C243 O249 1.182 . S
C244 O250 1.167 . S
C244 O251 1.299 . S
O245 Zn242 2.080 . S
O245 C259 1.305 . S
O246 Zn240 1.920 . S
O246 C259 1.234 . S
C247 O252 1.167 . S
C247 O253 1.299 . S
O248 Zn242 2.114 1_565 S
O248 C243 1.166 . S
O249 Zn241 1.905 . S
O249 C243 1.182 . S
O250 Zn241 1.898 . S
O250 C244 1.167 . S
O251 Zn242 2.120 1_565 S
O251 C244 1.299 . S
O252 Zn240 1.898 . S
O252 C247 1.167 . S
O253 Zn242 2.120 . S
O253 C247 1.299 . S
O254 Zn242 2.114 1_655 S
O254 C256 1.166 . S
O255 Zn240 1.905 1_655 S
O255 C256 1.182 . S
C256 O254 1.166 . S
C256 O255 1.182 . S
O257 Zn242 2.080 1_565 S
O257 C260 1.305 . S
O258 Zn241 1.920 . S
O258 C260 1.234 . S
C259 O245 1.305 . S
C259 O246 1.234 . S
C260 O257 1.305 . S
C260 O258 1.234 . S
Zn261 O267 1.920 . S
Zn261 O273 1.898 . S
Zn261 O276 1.905 . S
Zn262 O270 1.905 . S
Zn262 O271 1.898 . S
Zn262 O279 1.920 . S
Zn263 O266 2.080 . S
Zn263 O269 2.114 . S
Zn263 O272 2.120 . S
Zn263 O274 2.120 . S
Zn263 O275 2.114 . S
Zn263 O278 2.080 . S
C264 O269 1.166 . S
C264 O270 1.182 . S
C265 O271 1.167 . S
C265 O272 1.299 . S
O266 Zn263 2.080 . S
O266 C280 1.305 . S
O267 Zn261 1.920 . S
O267 C280 1.234 . S
C268 O273 1.167 . S
C268 O274 1.299 . S
O269 Zn263 2.114 . S
O269 C264 1.166 . S
O270 Zn262 1.905 . S
O270 C264 1.182 . S
O271 Zn262 1.898 . S
O271 C265 1.167 . S
O272 Zn263 2.120 . S
O272 C265 1.299 . S
O273 Zn261 1.898 . S
O273 C268 1.167 . S
O274 Zn263 2.120 . S
O274 C268 1.299 . S
O275 Zn263 2.114 . S
O275 C277 1.166 . S
O276 Zn261 1.905 . S
O276 C277 1.182 . S
C277 O275 1.166 . S
C277 O276 1.182 . S
O278 Zn263 2.080 . S
O278 C281 1.305 . S
O279 Zn262 1.920 . S
O279 C281 1.234 . S
C280 O266 1.305 . S
C280 O267 1.234 . S
C281 O278 1.305 . S
C281 O279 1.234 . S
C282 C283 1.387 . S
C282 H286 0.950 . S
C282 C291 1.390 . S
C283 C282 1.387 . S
C283 C285 1.387 . S
H284 C291 0.950 . S
C285 C283 1.387 . S
C285 C287 1.390 . S
C285 H289 0.950 . S
H286 C282 0.950 . S
C287 C285 1.390 . S
C287 C288 1.387 . S
C287 H290 0.950 . S
C288 C287 1.387 . S
C288 C291 1.387 . S
H289 C285 0.950 . S
H290 C287 0.950 . S
C291 C282 1.390 . S
C291 H284 0.950 . S
C291 C288 1.387 . S
C292 C293 1.387 . S
C292 H296 0.950 1_455 S
C292 C301 1.390 . S
C293 C292 1.387 . S
C293 C295 1.387 . S
H294 C301 0.950 . S
C295 C293 1.387 . S
C295 C297 1.390 . S
C295 H299 0.950 . S
H296 C292 0.950 1_655 S
C297 C295 1.390 . S
C297 C298 1.387 . S
C297 H300 0.950 . S
C298 C297 1.387 . S
C298 C301 1.387 . S
H299 C295 0.950 . S
H300 C297 0.950 . S
C301 C292 1.390 . S
C301 H294 0.950 . S
C301 C298 1.387 . S
C302 C303 1.387 . S
C302 H306 0.950 . S
C302 C311 1.390 . S
C303 C302 1.387 . S
C303 C305 1.387 . S
H304 C311 0.950 . S
C305 C303 1.387 . S
C305 C307 1.390 . S
C305 H309 0.950 . S
H306 C302 0.950 . S
C307 C305 1.390 . S
C307 C308 1.387 . S
C307 H310 0.950 . S
C308 C307 1.387 . S
C308 C311 1.387 . S
H309 C305 0.950 . S
H310 C307 0.950 . S
C311 C302 1.390 . S
C311 H304 0.950 . S
C311 C308 1.387 . S
C312 C313 1.387 . S
C312 H316 0.950 . S
C312 C321 1.390 . S
C313 C312 1.387 . S
C313 C315 1.387 . S
H314 C321 0.950 . S
C315 C313 1.387 . S
C315 C317 1.390 . S
C315 H319 0.950 . S
H316 C312 0.950 . S
C317 C315 1.390 . S
C317 C318 1.387 . S
C317 H320 0.950 . S
C318 C317 1.387 . S
C318 C321 1.387 . S
H319 C315 0.950 . S
H320 C317 0.950 . S
C321 C312 1.390 . S
C321 H314 0.950 . S
C321 C318 1.387 . S
C322 C323 1.387 . S
C322 H326 0.950 1_556 S
C322 C331 1.390 . S
C323 C322 1.387 . S
C323 C325 1.387 . S
H324 C331 0.950 . S
C325 C323 1.387 . S
C325 C327 1.390 . S
C325 H329 0.950 . S
H326 C322 0.950 1_554 S
C327 C325 1.390 . S
C327 C328 1.387 . S
C327 H330 0.950 . S
C328 C327 1.387 . S
C328 C331 1.387 . S
H329 C325 0.950 . S
H330 C327 0.950 . S
C331 C322 1.390 . S
C331 H324 0.950 . S
C331 C328 1.387 . S
C332 C333 1.387 . S
C332 H336 0.950 . S
C332 C341 1.390 . S
C333 C332 1.387 . S
C333 C335 1.387 . S
H334 C341 0.950 . S
C335 C333 1.387 . S
C335 C337 1.390 . S
C335 H339 0.950 1_556 S
H336 C332 0.950 . S
C337 C335 1.390 . S
C337 C338 1.387 . S
C337 H340 0.950 1_556 S
C338 C337 1.387 . S
C338 C341 1.387 . S
H339 C335 0.950 1_554 S
H340 C337 0.950 1_554 S
C341 C332 1.390 . S
C341 H334 0.950 . S
C341 C338 1.387 . S
C342 C343 1.387 . S
C342 H346 0.950 . S
C342 C351 1.390 . S
C343 C342 1.387 . S
C343 C345 1.387 . S
H344 C351 0.950 . S
C345 C343 1.387 . S
C345 C347 1.390 . S
C345 H349 0.950 . S
H346 C342 0.950 . S
C347 C345 1.390 . S
C347 C348 1.387 . S
C347 H350 0.950 . S
C348 C347 1.387 . S
C348 C351 1.387 . S
H349 C345 0.950 . S
H350 C347 0.950 . S
C351 C342 1.390 . S
C351 H344 0.950 . S
C351 C348 1.387 . S
C352 C353 1.387 . S
C352 H356 0.950 . S
C352 C361 1.390 . S
C353 C352 1.387 . S
C353 C355 1.387 . S
H354 C361 0.950 . S
C355 C353 1.387 . S
C355 C357 1.390 . S
C355 H359 0.950 . S
H356 C352 0.950 . S
C357 C355 1.390 . S
C357 C358 1.387 . S
C357 H360 0.950 . S
C358 C357 1.387 . S
C358 C361 1.387 . S
H359 C355 0.950 . S
H360 C357 0.950 . S
C361 C352 1.390 . S
C361 H354 0.950 . S
C361 C358 1.387 . S
C362 C363 1.387 . S
C362 H366 0.950 . S
C362 C371 1.390 . S
C363 C362 1.387 . S
C363 C365 1.387 . S
H364 C371 0.950 . S
C365 C363 1.387 . S
C365 C367 1.390 . S
C365 H369 0.950 . S
H366 C362 0.950 . S
C367 C365 1.390 . S
C367 C368 1.387 . S
C367 H370 0.950 . S
C368 C367 1.387 . S
C368 C371 1.387 . S
H369 C365 0.950 . S
H370 C367 0.950 . S
C371 C362 1.390 . S
C371 H364 0.950 . S
C371 C368 1.387 . S
C372 C373 1.387 . S
C372 H376 0.950 . S
C372 C381 1.390 . S
C373 C372 1.387 . S
C373 C375 1.387 . S
H374 C381 0.950 . S
C375 C373 1.387 . S
C375 C377 1.390 . S
C375 H379 0.950 . S
H376 C372 0.950 . S
C377 C375 1.390 . S
C377 C378 1.387 . S
C377 H380 0.950 . S
C378 C377 1.387 . S
C378 C381 1.387 . S
H379 C375 0.950 . S
H380 C377 0.950 . S
C381 C372 1.390 . S
C381 H374 0.950 . S
C381 C378 1.387 . S
C382 C383 1.387 . S
C382 H386 0.950 . S
C382 C391 1.390 . S
C383 C382 1.387 . S
C383 C385 1.387 . S
H384 C391 0.950 . S
C385 C383 1.387 . S
C385 C387 1.390 . S
C385 H389 0.950 . S
H386 C382 0.950 . S
C387 C385 1.390 . S
C387 C388 1.387 . S
C387 H390 0.950 . S
C388 C387 1.387 . S
C388 C391 1.387 . S
H389 C385 0.950 . S
H390 C387 0.950 . S
C391 C382 1.390 . S
C391 H384 0.950 . S
C391 C388 1.387 . S
C392 C393 1.387 . S
C392 H396 0.950 . S
C392 C401 1.390 . S
C393 C392 1.387 . S
C393 C395 1.387 . S
H394 C401 0.950 . S
C395 C393 1.387 . S
C395 C397 1.390 . S
C395 H399 0.950 . S
H396 C392 0.950 . S
C397 C395 1.390 . S
C397 C398 1.387 . S
C397 H400 0.950 . S
C398 C397 1.387 . S
C398 C401 1.387 . S
H399 C395 0.950 . S
H400 C397 0.950 . S
C401 C392 1.390 . S
C401 H394 0.950 . S
C401 C398 1.387 . S
C288 C247 1.496 . S
C283 C1 1.570 . S
C298 C243 1.503 . S
C293 C91 1.475 . S
C308 C268 1.497 . S
C303 C121 1.570 . S
C313 C211 1.473 . S
C318 C264 1.503 . S
C323 C20 1.346 . S
C328 C265 1.151 . S
C338 C280 1.177 . S
C333 C80 1.360 . S
C343 C31 1.698 . S
C348 C281 1.516 . S
C358 C277 1.534 . S
C353 C61 1.614 . S
C368 C244 1.155 1_655 S
C363 C140 1.350 . S
C373 C200 1.359 . S
C378 C259 1.174 . S
C388 C260 1.520 . S
C383 C151 1.698 . S
C398 C256 1.534 . S
C393 C181 1.614 . S
