# Generated by pormake.
# Topology llk, (3,12)-cn, num edge types: 1
# Building blocks:
#     Node 0, Type 0, BuildingBlock: KAKCAD_clean_linker_0, # of connection points: 3
#     Node 1, Type 0, BuildingBlock: KAKCAD_clean_linker_0, # of connection points: 3
#     Node 2, Type 0, BuildingBlock: KAKCAD_clean_linker_0, # of connection points: 3
#     Node 3, Type 0, BuildingBlock: KAKCAD_clean_linker_0, # of connection points: 3
#     Node 4, Type 0, BuildingBlock: KAKCAD_clean_linker_0, # of connection points: 3
#     Node 5, Type 0, BuildingBlock: KAKCAD_clean_linker_0, # of connection points: 3
#     Node 6, Type 0, BuildingBlock: KAKCAD_clean_linker_0, # of connection points: 3
#     Node 7, Type 0, BuildingBlock: KAKCAD_clean_linker_0, # of connection points: 3
#     Node 8, Type 0, BuildingBlock: KAKCAD_clean_linker_0, # of connection points: 3
#     Node 9, Type 0, BuildingBlock: KAKCAD_clean_linker_0, # of connection points: 3
#     Node 10, Type 0, BuildingBlock: KAKCAD_clean_linker_0, # of connection points: 3
#     Node 11, Type 0, BuildingBlock: KAKCAD_clean_linker_0, # of connection points: 3
#     Node 12, Type 0, BuildingBlock: KAKCAD_clean_linker_0, # of connection points: 3
#     Node 13, Type 0, BuildingBlock: KAKCAD_clean_linker_0, # of connection points: 3
#     Node 14, Type 0, BuildingBlock: KAKCAD_clean_linker_0, # of connection points: 3
#     Node 15, Type 0, BuildingBlock: KAKCAD_clean_linker_0, # of connection points: 3
#     Node 16, Type 0, BuildingBlock: KAKCAD_clean_linker_0, # of connection points: 3
#     Node 17, Type 0, BuildingBlock: KAKCAD_clean_linker_0, # of connection points: 3
#     Node 18, Type 0, BuildingBlock: KAKCAD_clean_linker_0, # of connection points: 3
#     Node 19, Type 0, BuildingBlock: KAKCAD_clean_linker_0, # of connection points: 3
#     Node 20, Type 0, BuildingBlock: KAKCAD_clean_linker_0, # of connection points: 3
#     Node 21, Type 0, BuildingBlock: KAKCAD_clean_linker_0, # of connection points: 3
#     Node 22, Type 0, BuildingBlock: KAKCAD_clean_linker_0, # of connection points: 3
#     Node 23, Type 0, BuildingBlock: KAKCAD_clean_linker_0, # of connection points: 3
#     Node 24, Type 1, BuildingBlock: EZIPEK_clean_sbu_0, # of connection points: 12
#     Node 25, Type 1, BuildingBlock: EZIPEK_clean_sbu_0, # of connection points: 12
#     Node 26, Type 1, BuildingBlock: EZIPEK_clean_sbu_0, # of connection points: 12
#     Node 27, Type 1, BuildingBlock: EZIPEK_clean_sbu_0, # of connection points: 12
#     Node 28, Type 1, BuildingBlock: EZIPEK_clean_sbu_0, # of connection points: 12
#     Node 29, Type 1, BuildingBlock: EZIPEK_clean_sbu_0, # of connection points: 12
#     Edge 30, Type (0, 1), BuildingBlock: XIVTED_clean_linker_0, # of connection points: 2
#     Edge 31, Type (0, 1), BuildingBlock: XIVTED_clean_linker_0, # of connection points: 2
#     Edge 32, Type (0, 1), BuildingBlock: XIVTED_clean_linker_0, # of connection points: 2
#     Edge 33, Type (0, 1), BuildingBlock: XIVTED_clean_linker_0, # of connection points: 2
#     Edge 34, Type (0, 1), BuildingBlock: XIVTED_clean_linker_0, # of connection points: 2
#     Edge 35, Type (0, 1), BuildingBlock: XIVTED_clean_linker_0, # of connection points: 2
#     Edge 36, Type (0, 1), BuildingBlock: XIVTED_clean_linker_0, # of connection points: 2
#     Edge 37, Type (0, 1), BuildingBlock: XIVTED_clean_linker_0, # of connection points: 2
#     Edge 38, Type (0, 1), BuildingBlock: XIVTED_clean_linker_0, # of connection points: 2
#     Edge 39, Type (0, 1), BuildingBlock: XIVTED_clean_linker_0, # of connection points: 2
#     Edge 40, Type (0, 1), BuildingBlock: XIVTED_clean_linker_0, # of connection points: 2
#     Edge 41, Type (0, 1), BuildingBlock: XIVTED_clean_linker_0, # of connection points: 2
#     Edge 42, Type (0, 1), BuildingBlock: XIVTED_clean_linker_0, # of connection points: 2
#     Edge 43, Type (0, 1), BuildingBlock: XIVTED_clean_linker_0, # of connection points: 2
#     Edge 44, Type (0, 1), BuildingBlock: XIVTED_clean_linker_0, # of connection points: 2
#     Edge 45, Type (0, 1), BuildingBlock: XIVTED_clean_linker_0, # of connection points: 2
#     Edge 46, Type (0, 1), BuildingBlock: XIVTED_clean_linker_0, # of connection points: 2
#     Edge 47, Type (0, 1), BuildingBlock: XIVTED_clean_linker_0, # of connection points: 2
#     Edge 48, Type (0, 1), BuildingBlock: XIVTED_clean_linker_0, # of connection points: 2
#     Edge 49, Type (0, 1), BuildingBlock: XIVTED_clean_linker_0, # of connection points: 2
#     Edge 50, Type (0, 1), BuildingBlock: XIVTED_clean_linker_0, # of connection points: 2
#     Edge 51, Type (0, 1), BuildingBlock: XIVTED_clean_linker_0, # of connection points: 2
#     Edge 52, Type (0, 1), BuildingBlock: XIVTED_clean_linker_0, # of connection points: 2
#     Edge 53, Type (0, 1), BuildingBlock: XIVTED_clean_linker_0, # of connection points: 2
#     Edge 54, Type (0, 1), BuildingBlock: XIVTED_clean_linker_0, # of connection points: 2
#     Edge 55, Type (0, 1), BuildingBlock: XIVTED_clean_linker_0, # of connection points: 2
#     Edge 56, Type (0, 1), BuildingBlock: XIVTED_clean_linker_0, # of connection points: 2
#     Edge 57, Type (0, 1), BuildingBlock: XIVTED_clean_linker_0, # of connection points: 2
#     Edge 58, Type (0, 1), BuildingBlock: XIVTED_clean_linker_0, # of connection points: 2
#     Edge 59, Type (0, 1), BuildingBlock: XIVTED_clean_linker_0, # of connection points: 2
#     Edge 60, Type (0, 1), BuildingBlock: XIVTED_clean_linker_0, # of connection points: 2
#     Edge 61, Type (0, 1), BuildingBlock: XIVTED_clean_linker_0, # of connection points: 2
#     Edge 62, Type (0, 1), BuildingBlock: XIVTED_clean_linker_0, # of connection points: 2
#     Edge 63, Type (0, 1), BuildingBlock: XIVTED_clean_linker_0, # of connection points: 2
#     Edge 64, Type (0, 1), BuildingBlock: XIVTED_clean_linker_0, # of connection points: 2
#     Edge 65, Type (0, 1), BuildingBlock: XIVTED_clean_linker_0, # of connection points: 2
#     Edge 66, Type (0, 1), BuildingBlock: XIVTED_clean_linker_0, # of connection points: 2
#     Edge 67, Type (0, 1), BuildingBlock: XIVTED_clean_linker_0, # of connection points: 2
#     Edge 68, Type (0, 1), BuildingBlock: XIVTED_clean_linker_0, # of connection points: 2
#     Edge 69, Type (0, 1), BuildingBlock: XIVTED_clean_linker_0, # of connection points: 2
#     Edge 70, Type (0, 1), BuildingBlock: XIVTED_clean_linker_0, # of connection points: 2
#     Edge 71, Type (0, 1), BuildingBlock: XIVTED_clean_linker_0, # of connection points: 2
#     Edge 72, Type (0, 1), BuildingBlock: XIVTED_clean_linker_0, # of connection points: 2
#     Edge 73, Type (0, 1), BuildingBlock: XIVTED_clean_linker_0, # of connection points: 2
#     Edge 74, Type (0, 1), BuildingBlock: XIVTED_clean_linker_0, # of connection points: 2
#     Edge 75, Type (0, 1), BuildingBlock: XIVTED_clean_linker_0, # of connection points: 2
#     Edge 76, Type (0, 1), BuildingBlock: XIVTED_clean_linker_0, # of connection points: 2
#     Edge 77, Type (0, 1), BuildingBlock: XIVTED_clean_linker_0, # of connection points: 2
#     Edge 78, Type (0, 1), BuildingBlock: XIVTED_clean_linker_0, # of connection points: 2
#     Edge 79, Type (0, 1), BuildingBlock: XIVTED_clean_linker_0, # of connection points: 2
#     Edge 80, Type (0, 1), BuildingBlock: XIVTED_clean_linker_0, # of connection points: 2
#     Edge 81, Type (0, 1), BuildingBlock: XIVTED_clean_linker_0, # of connection points: 2
#     Edge 82, Type (0, 1), BuildingBlock: XIVTED_clean_linker_0, # of connection points: 2
#     Edge 83, Type (0, 1), BuildingBlock: XIVTED_clean_linker_0, # of connection points: 2
#     Edge 84, Type (0, 1), BuildingBlock: XIVTED_clean_linker_0, # of connection points: 2
#     Edge 85, Type (0, 1), BuildingBlock: XIVTED_clean_linker_0, # of connection points: 2
#     Edge 86, Type (0, 1), BuildingBlock: XIVTED_clean_linker_0, # of connection points: 2
#     Edge 87, Type (0, 1), BuildingBlock: XIVTED_clean_linker_0, # of connection points: 2
#     Edge 88, Type (0, 1), BuildingBlock: XIVTED_clean_linker_0, # of connection points: 2
#     Edge 89, Type (0, 1), BuildingBlock: XIVTED_clean_linker_0, # of connection points: 2
#     Edge 90, Type (0, 1), BuildingBlock: XIVTED_clean_linker_0, # of connection points: 2
#     Edge 91, Type (0, 1), BuildingBlock: XIVTED_clean_linker_0, # of connection points: 2
#     Edge 92, Type (0, 1), BuildingBlock: XIVTED_clean_linker_0, # of connection points: 2
#     Edge 93, Type (0, 1), BuildingBlock: XIVTED_clean_linker_0, # of connection points: 2
#     Edge 94, Type (0, 1), BuildingBlock: XIVTED_clean_linker_0, # of connection points: 2
#     Edge 95, Type (0, 1), BuildingBlock: XIVTED_clean_linker_0, # of connection points: 2
#     Edge 96, Type (0, 1), BuildingBlock: XIVTED_clean_linker_0, # of connection points: 2
#     Edge 97, Type (0, 1), BuildingBlock: XIVTED_clean_linker_0, # of connection points: 2
#     Edge 98, Type (0, 1), BuildingBlock: XIVTED_clean_linker_0, # of connection points: 2
#     Edge 99, Type (0, 1), BuildingBlock: XIVTED_clean_linker_0, # of connection points: 2
#     Edge 100, Type (0, 1), BuildingBlock: XIVTED_clean_linker_0, # of connection points: 2
#     Edge 101, Type (0, 1), BuildingBlock: XIVTED_clean_linker_0, # of connection points: 2
# Relax obj value: 0.106
# Max RMSD: 0.160
# Mean RMSD: 0.134
data_MOF--net-llk--node1-EZIPEK_clean_sbu_0--node2-KAKCAD_clean_linker_0--edge1-XIVTED_clean_linker_0
_symmetry_space_group_name_H-M    P1
_symmetry_Int_Tables_number       1
_symmetry_cell_setting            triclinic
loop_
_symmetry_equiv_pos_as_xyz
'x, y, z'
_cell_length_a     56.387233
_cell_length_b     56.474133
_cell_length_c     56.487036
_cell_angle_alpha  89.996818
_cell_angle_beta   90.004829
_cell_angle_gamma 90.03351
loop_
_atom_site_label
_atom_site_type_symbol
_atom_site_fract_x
_atom_site_fract_y
_atom_site_fract_z
_atom_type_partial_charge
C0 C 0.97746 0.32394 0.30099 0.0
C1 C 0.99016 0.32228 0.3223 0.0
C2 C 0.97957 0.30627 0.28388 0.0
C3 C 0.99445 0.28674 0.28784 0.0
C4 C 0.00691 0.28498 0.30927 0.0
C5 C 0.00477 0.30258 0.32635 0.0
C6 C 0.99772 0.26856 0.2694 0.0
C7 C 1.00164 0.2752 0.24595 0.0
C8 C 0.00622 0.25823 0.22847 0.0
C9 C 0.00686 0.23392 0.23467 0.0
C10 C 1.0026 0.22717 0.25846 0.0
C11 C 0.99802 0.24463 0.27545 0.0
C12 C 1.00334 0.20246 0.26734 0.0
C13 C 0.98237 0.19262 0.27652 0.0
C14 C 0.02518 0.19269 0.27426 0.0
C15 C 0.02607 0.17481 0.29153 0.0
C16 C 0.00513 0.1666 0.30241 0.0
C17 C 0.01027 0.26753 0.20427 0.0
C18 C 0.99063 0.27164 0.18955 0.0
C19 C 0.03148 0.27976 0.19965 0.0
C20 C 0.03247 0.29712 0.18195 0.0
C21 C 0.01224 0.3027 0.16847 0.0
C22 C 0.99163 0.28895 0.17174 0.0
C23 C 0.98324 0.17495 0.29388 0.0
H24 H 0.9659 0.33887 0.29757 0.0
H25 H 0.9696 0.30788 0.26757 0.0
H26 H 0.01882 0.2703 0.31258 0.0
H27 H 0.01511 0.30109 0.34245 0.0
H28 H 1.00167 0.29384 0.24127 0.0
H29 H 0.99485 0.23947 0.29369 0.0
H30 H 0.01059 0.22063 0.22136 0.0
H31 H 0.96533 0.2002 0.27191 0.0
H32 H 0.04162 0.20041 0.268 0.0
H33 H 0.04323 0.1688 0.29769 0.0
H34 H 0.97385 0.26304 0.19323 0.0
H35 H 0.04668 0.27739 0.21115 0.0
H36 H 0.96678 0.16873 0.30155 0.0
H37 H 0.97565 0.29279 0.16183 0.0
H38 H 0.04877 0.30701 0.17965 0.0
C39 C 0.7138 0.99738 0.3309 0.0
C40 C 0.69166 0.9869 0.32646 0.0
C41 C 0.73091 0.99854 0.31322 0.0
C42 C 0.72665 0.98858 0.2908 0.0
C43 C 0.70514 0.97657 0.28689 0.0
C44 C 0.68772 0.97594 0.30445 0.0
C45 C 0.74369 0.99275 0.27118 0.0
C46 C 0.76795 0.99491 0.27585 0.0
C47 C 0.78367 1.00345 0.25866 0.0
C48 C 0.77532 0.00818 0.23557 0.0
C49 C 0.75106 0.00473 0.23032 0.0
C50 C 0.73551 0.99737 0.24824 0.0
C51 C 0.7404 0.00956 0.20687 0.0
C52 C 0.72567 0.02943 0.20424 0.0
C53 C 0.73892 0.99123 0.19016 0.0
C54 C 0.7219 0.99203 0.17208 0.0
C55 C 0.70586 0.0111 0.17051 0.0
C56 C 0.80772 0.00964 0.26713 0.0
C57 C 0.81 0.02949 0.28191 0.0
C58 C 0.82553 0.99232 0.26757 0.0
C59 C 0.84425 0.99392 0.28387 0.0
C60 C 0.84519 0.01256 0.30054 0.0
C61 C 0.82837 0.03089 0.29849 0.0
C62 C 0.70863 0.03023 0.18623 0.0
H63 H 0.71775 0.00539 0.34787 0.0
H64 H 0.74703 0.00826 0.31696 0.0
H65 H 0.70142 0.96824 0.27003 0.0
H66 H 0.67087 0.96773 0.30036 0.0
H67 H 0.77467 0.99107 0.29342 0.0
H68 H 0.71672 0.99621 0.24433 0.0
H69 H 0.78727 0.01499 0.22218 0.0
H70 H 0.72611 0.04352 0.21725 0.0
H71 H 0.74959 0.97542 0.19225 0.0
H72 H 0.72022 0.97691 0.16041 0.0
H73 H 0.79613 0.04277 0.28235 0.0
H74 H 0.82391 0.9766 0.2567 0.0
H75 H 0.6969 0.04538 0.1853 0.0
H76 H 0.82805 0.04547 0.3109 0.0
H77 H 0.85721 0.9798 0.28421 0.0
C78 C 0.99005 0.70603 0.31975 0.0
C79 C 1.00457 0.68601 0.31723 0.0
C80 C 0.99001 0.72357 0.30244 0.0
C81 C 1.00446 0.72132 0.28235 0.0
C82 C 0.0189 0.70126 0.27977 0.0
C83 C 0.01895 0.68372 0.29708 0.0
C84 C 1.00456 0.73995 0.26415 0.0
C85 C 0.00608 0.7637 0.27067 0.0
C86 C 0.00637 0.78167 0.25361 0.0
C87 C 0.00504 0.7756 0.22926 0.0
C88 C 1.00342 0.75141 0.22266 0.0
C89 C 1.00324 0.73396 0.24026 0.0
C90 C 1.00213 0.74259 0.19796 0.0
C91 C 0.98097 0.73176 0.19044 0.0
C92 C 0.02327 0.73703 0.18603 0.0
C93 C 0.02355 0.71956 0.16832 0.0
C94 C 1.00272 0.70709 0.1624 0.0
C95 C 0.00795 0.80617 0.26295 0.0
C96 C 0.98695 0.8181 0.26903 0.0
C97 C 0.02928 0.81335 0.27367 0.0
C98 C 0.02932 0.83056 0.29154 0.0
C99 C 0.00801 0.84108 0.29912 0.0
C100 C 0.98699 0.83548 0.28682 0.0
C101 C 0.98126 0.71419 0.17292 0.0
H102 H 0.97855 0.70802 0.33498 0.0
H103 H 0.97849 0.73876 0.30464 0.0
H104 H 0.03042 0.69931 0.26454 0.0
H105 H 0.03054 0.66859 0.2949 0.0
H106 H 0.0073 0.7683 0.28929 0.0
H107 H 1.00188 0.71545 0.23525 0.0
H108 H 0.00525 0.7893 0.21585 0.0
H109 H 0.96454 0.73524 0.19974 0.0
H110 H 0.03994 0.7445 0.19197 0.0
H111 H 0.04042 0.71454 0.16066 0.0
H112 H 0.97016 0.8124 0.26165 0.0
H113 H 0.04561 0.80402 0.2698 0.0
H114 H 0.96482 0.70529 0.16851 0.0
H115 H 0.97023 0.84313 0.2922 0.0
H116 H 0.04589 0.83473 0.30029 0.0
C117 C 0.32511 0.05721 0.30221 0.0
C118 C 0.32406 0.048 0.32528 0.0
C119 C 0.30775 0.05115 0.28558 0.0
C120 C 0.28932 0.03546 0.29167 0.0
C121 C 0.28788 0.02719 0.31512 0.0
C122 C 0.30491 0.03352 0.33172 0.0
C123 C 0.27315 0.02546 0.27346 0.0
C124 C 0.2818 0.01918 0.25109 0.0
C125 C 0.26805 0.00562 0.23543 0.0
C126 C 0.24531 0.9978 0.24241 0.0
C127 C 0.23637 0.0044 0.26479 0.0
C128 C 0.25001 0.01892 0.27958 0.0
C129 C 0.21432 0.99462 0.27511 0.0
C130 C 0.19232 0.00508 0.27022 0.0
C131 C 0.21636 0.97965 0.29485 0.0
C132 C 0.19752 0.97695 0.31066 0.0
C133 C 0.17593 0.98895 0.30703 0.0
C134 C 0.27933 0.99859 0.21288 0.0
C135 C 0.28023 0.01488 0.19416 0.0
C136 C 0.29454 0.97893 0.2125 0.0
C137 C 0.31132 0.97633 0.1944 0.0
C138 C 0.31329 0.99342 0.17635 0.0
C139 C 0.29692 0.01225 0.17598 0.0
C140 C 0.17322 1.00206 0.28588 0.0
H141 H 0.3397 0.0685 0.29688 0.0
H142 H 0.3092 0.05812 0.26778 0.0
H143 H 0.27442 0.01459 0.32046 0.0
H144 H 0.30389 0.02572 0.34921 0.0
H145 H 0.29985 0.02364 0.24618 0.0
H146 H 0.24291 0.024 0.29669 0.0
H147 H 0.23508 0.98628 0.23096 0.0
H148 H 0.19043 0.01699 0.2553 0.0
H149 H 0.23332 0.97177 0.29924 0.0
H150 H 0.20071 0.9669 0.32665 0.0
H151 H 0.26916 0.03055 0.19448 0.0
H152 H 0.29456 0.96647 0.22709 0.0
H153 H 0.15672 0.01103 0.28196 0.0
H154 H 0.29802 0.02588 0.16255 0.0
H155 H 0.3234 0.96144 0.19507 0.0
C156 C 0.99567 0.68617 0.70177 0.0
C157 C 0.0143 0.68584 0.68535 0.0
C158 C 0.99541 0.70301 0.71974 0.0
C159 C 0.01354 0.71993 0.72117 0.0
C160 C 0.03221 0.71961 0.70478 0.0
C161 C 0.03272 0.70244 0.68707 0.0
C162 C 0.01248 0.73833 0.7394 0.0
C163 C 0.01167 0.73207 0.7632 0.0
C164 C 0.00969 0.74938 0.78082 0.0
C165 C 0.00791 0.77354 0.77429 0.0
C166 C 0.00863 0.77979 0.75 0.0
C167 C 0.01124 0.76206 0.73288 0.0
C168 C 0.0061 0.80421 0.74085 0.0
C169 C 0.98428 0.81085 0.73083 0.0
C170 C 0.02658 0.81678 0.73437 0.0
C171 C 0.02558 0.83437 0.71687 0.0
C172 C 1.00407 0.83955 0.70527 0.0
C173 C 0.00951 0.74056 0.80549 0.0
C174 C 0.98798 0.73279 0.8153 0.0
C175 C 0.03084 0.73196 0.81504 0.0
C176 C 0.03064 0.71438 0.83252 0.0
C177 C 0.00908 0.70501 0.84087 0.0
C178 C 0.98776 0.71528 0.83293 0.0
C179 C 0.98327 0.82832 0.71325 0.0
H180 H 0.98137 0.67338 0.70067 0.0
H181 H 0.98082 0.70316 0.73224 0.0
H182 H 0.04632 0.7326 0.70573 0.0
H183 H 0.04718 0.7024 0.67443 0.0
H184 H 0.01268 0.71349 0.76808 0.0
H185 H 0.01159 0.76673 0.71424 0.0
H186 H 0.00598 0.78709 0.78772 0.0
H187 H 0.96834 0.80099 0.73503 0.0
H188 H 0.04372 0.81147 0.74122 0.0
H189 H 0.04199 0.84252 0.71114 0.0
H190 H 0.9713 0.73856 0.80773 0.0
H191 H 0.04765 0.7372 0.80735 0.0
H192 H 0.96634 0.83215 0.70503 0.0
H193 H 0.97083 0.70846 0.83889 0.0
H194 H 0.04739 0.70718 0.83854 0.0
C195 C 0.33526 0.0304 0.70548 0.0
C196 C 0.3292 0.04462 0.68605 0.0
C197 C 0.31843 0.02481 0.72255 0.0
C198 C 0.29515 0.03356 0.72082 0.0
C199 C 0.28943 0.04892 0.70205 0.0
C200 C 0.30629 0.05427 0.68469 0.0
C201 C 0.27665 0.02447 0.73717 0.0
C202 C 0.28247 0.01886 0.76058 0.0
C203 C 0.26718 0.0054 0.77474 0.0
C204 C 0.24471 0.9988 0.76588 0.0
C205 C 0.23811 0.00563 0.74273 0.0
C206 C 0.25421 0.01823 0.72859 0.0
C207 C 0.21545 0.99864 0.73152 0.0
C208 C 0.21497 0.97882 0.71652 0.0
C209 C 0.19686 0.01509 0.73029 0.0
C210 C 0.17876 0.01247 0.71347 0.0
C211 C 0.17907 0.99346 0.69731 0.0
C212 C 0.27712 0.99665 0.79737 0.0
C213 C 0.29566 0.98011 0.79631 0.0
C214 C 0.2738 0.00957 0.8183 0.0
C215 C 0.28987 0.00724 0.83716 0.0
C216 C 0.30992 0.99237 0.83523 0.0
C217 C 0.31191 0.97807 0.81488 0.0
C218 C 0.19695 0.97622 0.69963 0.0
H219 H 0.35263 0.0223 0.70674 0.0
H220 H 0.32343 0.01245 0.73633 0.0
H221 H 0.27176 0.05622 0.70038 0.0
H222 H 0.30126 0.06537 0.66989 0.0
H223 H 0.29969 0.02386 0.76755 0.0
H224 H 0.24956 0.02201 0.71035 0.0
H225 H 0.23288 0.98805 0.77652 0.0
H226 H 0.22945 0.96623 0.71674 0.0
H227 H 0.19726 0.03089 0.74116 0.0
H228 H 0.16546 0.02622 0.71211 0.0
H229 H 0.29893 0.97037 0.7801 0.0
H230 H 0.25991 0.02277 0.81937 0.0
H231 H 0.19756 0.96119 0.68774 0.0
H232 H 0.32703 0.96657 0.81229 0.0
H233 H 0.28716 0.01806 0.85274 0.0
C234 C 0.99806 0.30319 0.68056 0.0
C235 C 0.01195 0.32357 0.68388 0.0
C236 C 0.99784 0.28538 0.6976 0.0
C237 C 0.01148 0.28766 0.71825 0.0
C238 C 0.02546 0.30797 0.72155 0.0
C239 C 0.0257 0.3258 0.70449 0.0
C240 C 0.01068 0.26906 0.73653 0.0
C241 C 0.01199 0.24523 0.73017 0.0
C242 C 0.01051 0.22732 0.74727 0.0
C243 C 0.00766 0.23348 0.7714 0.0
C244 C 0.00646 0.25768 0.77785 0.0
C245 C 0.00801 0.27512 0.76031 0.0
C246 C 1.00368 0.26634 0.80243 0.0
C247 C 0.9822 0.27726 0.80873 0.0
C248 C 0.02406 0.27132 0.81582 0.0
C249 C 0.0234 0.28838 0.83387 0.0
C250 C 1.00237 0.30096 0.83868 0.0
C251 C 0.01155 0.20271 0.73831 0.0
C252 C 0.99037 0.19104 0.73239 0.0
C253 C 0.03289 0.19466 0.72832 0.0
C254 C 0.03284 0.17671 0.71123 0.0
C255 C 0.01141 0.1664 0.70371 0.0
C256 C 0.9903 0.17296 0.71534 0.0
C257 C 0.98154 0.29437 0.82665 0.0
H258 H 0.987 0.30121 0.66501 0.0
H259 H 0.98662 0.27005 0.69483 0.0
H260 H 0.03634 0.30998 0.73723 0.0
H261 H 0.03679 0.34121 0.70732 0.0
H262 H 0.0142 0.2405 0.71168 0.0
H263 H 0.00676 0.29366 0.76525 0.0
H264 H 0.0064 0.21982 0.7848 0.0
H265 H 0.96637 0.27416 0.79829 0.0
H266 H 0.04097 0.26371 0.81084 0.0
H267 H 0.0398 0.29303 0.8427 0.0
H268 H 0.97361 0.19738 0.73929 0.0
H269 H 0.04939 0.20374 0.73217 0.0
H270 H 0.96496 0.30337 0.83018 0.0
H271 H 0.97346 0.16546 0.70995 0.0
H272 H 0.04946 0.1718 0.70298 0.0
C273 C 0.70381 0.96892 0.68573 0.0
C274 C 0.68259 0.98186 0.68712 0.0
C275 C 0.72151 0.97208 0.70276 0.0
C276 C 0.71827 0.98834 0.72132 0.0
C277 C 0.69686 1.00096 0.7228 0.0
C278 C 0.6792 0.99769 0.70595 0.0
C279 C 0.73748 0.99338 0.73843 0.0
C280 C 0.76084 0.99635 0.73069 0.0
C281 C 0.77857 0.00421 0.74622 0.0
C282 C 0.77279 0.00927 0.77007 0.0
C283 C 0.74923 0.00601 0.77797 0.0
C284 C 0.73206 0.99759 0.76217 0.0
C285 C 0.74061 0.01265 0.80183 0.0
C286 C 0.74209 0.99639 0.82053 0.0
C287 C 0.72429 0.03134 0.80351 0.0
C288 C 0.7081 0.03239 0.82221 0.0
C289 C 0.70798 0.0149 0.84001 0.0
C290 C 0.80233 0.00822 0.73585 0.0
C291 C 0.81768 0.98891 0.73281 0.0
C292 C 0.80639 0.02896 0.72276 0.0
C293 C 0.82451 0.02984 0.7058 0.0
C294 C 0.83891 0.00994 0.70153 0.0
C295 C 0.83589 0.9898 0.71594 0.0
C296 C 0.72613 0.99766 0.83957 0.0
H297 H 0.70677 0.95651 0.67141 0.0
H298 H 0.73777 0.96199 0.7013 0.0
H299 H 0.69402 0.01405 0.73653 0.0
H300 H 0.66323 0.00829 0.70716 0.0
H301 H 0.76514 0.99358 0.71217 0.0
H302 H 0.71401 0.99505 0.76835 0.0
H303 H 0.78617 0.01611 0.78201 0.0
H304 H 0.75423 0.98157 0.81946 0.0
H305 H 0.72244 0.0438 0.78902 0.0
H306 H 0.69451 0.04588 0.82146 0.0
H307 H 0.81442 0.97247 0.74215 0.0
H308 H 0.79439 0.04385 0.72435 0.0
H309 H 0.72727 0.98429 0.85325 0.0
H310 H 0.84648 0.97407 0.71305 0.0
H311 H 0.82655 0.04576 0.69531 0.0
C312 C 0.3253 0.30792 0.96307 0.0
C313 C 0.31991 0.33074 0.97143 0.0
C314 C 0.30872 0.28962 0.96506 0.0
C315 C 0.28666 0.29363 0.97603 0.0
C316 C 0.28076 0.31692 0.98266 0.0
C317 C 0.29698 0.33525 0.97996 0.0
C318 C 0.27116 0.27356 0.98341 0.0
C319 C 0.28114 0.25211 0.99095 0.0
C320 C 0.26735 0.23475 1.0022 0.0
C321 C 0.24316 0.23927 0.00685 0.0
C322 C 0.23296 0.26074 0.99914 0.0
C323 C 0.24675 0.27697 0.98642 0.0
C324 C 0.20949 0.26935 0.00704 0.0
C325 C 0.19011 0.2685 0.99152 0.0
C326 C 0.20891 0.28535 0.02604 0.0
C327 C 0.19049 0.30181 0.02814 0.0
C328 C 0.17193 0.30247 0.01143 0.0
C329 C 0.27965 0.21285 0.00978 0.0
C330 C 0.27817 0.19239 0.99578 0.0
C331 C 0.29746 0.21433 0.0271 0.0
C332 C 0.3144 0.19638 0.02939 0.0
C333 C 0.31404 0.17658 0.01427 0.0
C334 C 0.29516 0.17439 0.99803 0.0
C335 C 0.17134 0.28463 0.99391 0.0
H336 H 0.34275 0.30377 0.95623 0.0
H337 H 0.31369 0.27213 0.95902 0.0
H338 H 0.26419 0.32102 0.99139 0.0
H339 H 0.29189 0.3528 0.98578 0.0
H340 H 0.30003 0.2491 0.98913 0.0
H341 H 0.23854 0.29323 0.98037 0.0
H342 H 0.23272 0.22669 0.01691 0.0
H343 H 0.19038 0.25665 0.97644 0.0
H344 H 0.22399 0.2868 0.03785 0.0
H345 H 0.19203 0.31515 0.04179 0.0
H346 H 0.26498 0.19114 0.98189 0.0
H347 H 0.29918 0.23015 0.03783 0.0
H348 H 0.15706 0.28386 0.98114 0.0
H349 H 0.29436 0.15951 0.98596 0.0
H350 H 0.32834 0.19848 0.04241 0.0
C351 C 0.3213 0.7029 0.03993 0.0
C352 C 0.32547 0.68709 0.02126 0.0
C353 C 0.30297 0.71943 0.0382 0.0
C354 C 0.28842 0.71981 0.01803 0.0
C355 C 0.29226 0.70348 0.99974 0.0
C356 C 0.31078 0.68733 1.00127 0.0
C357 C 0.27006 0.738 0.01507 0.0
C358 C 0.27617 0.76188 0.01576 0.0
C359 C 0.25979 0.7794 0.00927 0.0
C360 C 0.23652 0.77266 1.00245 0.0
C361 C 0.23018 0.74834 1.00239 0.0
C362 C 0.24713 0.73139 0.0088 0.0
C363 C 0.20658 0.73896 0.99534 0.0
C364 C 0.18741 0.7402 0.01112 0.0
C365 C 0.20562 0.72236 0.97682 0.0
C366 C 0.18738 0.70561 0.97568 0.0
C367 C 0.16918 0.70521 0.99279 0.0
C368 C 0.26913 0.80398 0.00818 0.0
C369 C 0.27861 0.81401 0.0289 0.0
C370 C 0.27567 0.8137 0.98622 0.0
C371 C 0.2929 0.83167 0.98496 0.0
C372 C 0.30406 0.84007 0.00565 0.0
C373 C 0.29587 0.83179 0.02767 0.0
C374 C 0.16879 0.72369 0.00971 0.0
H375 H 0.3326 0.70288 0.05544 0.0
H376 H 0.30022 0.73198 0.05244 0.0
H377 H 0.28137 0.70368 0.98393 0.0
H378 H 0.31378 0.67514 0.98676 0.0
H379 H 0.29428 0.7668 0.02003 0.0
H380 H 0.24257 0.71272 0.00849 0.0
H381 H 0.22379 0.78595 0.99703 0.0
H382 H 0.18782 0.75259 0.02575 0.0
H383 H 0.22038 0.72075 0.96463 0.0
H384 H 0.18882 0.6919 0.96241 0.0
H385 H 0.27421 0.80658 0.04604 0.0
H386 H 0.26914 0.80589 0.96995 0.0
H387 H 0.15477 0.72473 0.02274 0.0
H388 H 0.30374 0.83816 0.04396 0.0
H389 H 0.29878 0.83763 0.96771 0.0
C390 C 0.69927 0.31793 0.98799 0.0
C391 C 0.68457 0.3201 0.00789 0.0
C392 C 0.71756 0.30141 0.98785 0.0
C393 C 0.72113 0.28661 0.00745 0.0
C394 C 0.70634 0.28862 0.02731 0.0
C395 C 0.68828 0.30549 0.02764 0.0
C396 C 0.74006 0.2688 0.0068 0.0
C397 C 0.76326 0.2756 1.00182 0.0
C398 C 0.78136 0.25876 0.99947 0.0
C399 C 0.77582 0.23439 1.00205 0.0
C400 C 0.75217 0.22751 0.00719 0.0
C401 C 0.73467 0.24493 0.00979 0.0
C402 C 0.74383 0.20262 0.00845 0.0
C403 C 0.73918 0.19022 0.98739 0.0
C404 C 0.73316 0.19472 0.02952 0.0
C405 C 0.71652 0.17632 0.02919 0.0
C406 C 0.71016 0.16532 0.00777 0.0
C407 C 0.80548 0.26816 0.9944 0.0
C408 C 0.80835 0.28348 0.97501 0.0
C409 C 0.82309 0.26782 0.01194 0.0
C410 C 0.84206 0.28401 0.01113 0.0
C411 C 0.84357 0.30117 0.99295 0.0
C412 C 0.82693 0.29986 0.97437 0.0
C413 C 0.72257 0.17166 0.98706 0.0
H414 H 0.69673 0.3292 0.97267 0.0
H415 H 0.72874 0.29995 0.97231 0.0
H416 H 0.70891 0.27729 0.04258 0.0
H417 H 0.67703 0.30694 0.04312 0.0
H418 H 0.76726 0.2943 0.99986 0.0
H419 H 0.71641 0.2398 0.01313 0.0
H420 H 0.78949 0.22111 0.99987 0.0
H421 H 0.74664 0.19634 0.97081 0.0
H422 H 0.73608 0.20425 0.04591 0.0
H423 H 0.70767 0.17158 0.04553 0.0
H424 H 0.79485 0.28433 0.96138 0.0
H425 H 0.8212 0.25641 0.02724 0.0
H426 H 0.7181 0.16361 0.97024 0.0
H427 H 0.82698 0.31261 0.96009 0.0
H428 H 0.85484 0.28373 0.02541 0.0
C429 C 0.70932 0.68235 0.05675 0.0
C430 C 0.68615 0.6836 0.04774 0.0
C431 C 0.72587 0.69996 0.05118 0.0
C432 C 0.71958 0.71884 0.03615 0.0
C433 C 0.69605 0.72043 0.02807 0.0
C434 C 0.67953 0.70315 0.03394 0.0
C435 C 0.7377 0.73538 0.02658 0.0
C436 C 0.7601 0.72703 0.01989 0.0
C437 C 0.77568 0.74124 0.00673 0.0
C438 C 0.7686 0.76419 0.99974 0.0
C439 C 0.74618 0.7728 0.00672 0.0
C440 C 0.73146 0.75866 0.02084 0.0
C441 C 0.73564 0.795 0.99759 0.0
C442 C 0.73977 0.81656 0.00916 0.0
C443 C 0.71626 0.79318 0.9821 0.0
C444 C 0.70004 0.81174 0.97987 0.0
C445 C 0.7029 0.83281 0.99291 0.0
C446 C 0.79826 0.73027 0.99924 0.0
C447 C 0.81766 0.73036 0.0148 0.0
C448 C 0.79818 0.71433 0.98018 0.0
C449 C 0.81647 0.69778 0.97753 0.0
C450 C 0.83519 0.69675 0.99399 0.0
C451 C 0.83603 0.71387 0.01212 0.0
C452 C 0.72371 0.8354 0.00663 0.0
H453 H 0.71479 0.66745 0.06752 0.0
H454 H 0.74375 0.69837 0.05799 0.0
H455 H 0.69056 0.73424 0.01597 0.0
H456 H 0.66194 0.70433 0.02631 0.0
H457 H 0.76509 0.70889 0.02373 0.0
H458 H 0.71431 0.7655 0.02619 0.0
H459 H 0.77997 0.7748 0.9885 0.0
H460 H 0.75437 0.81825 0.02151 0.0
H461 H 0.71243 0.77651 0.97338 0.0
H462 H 0.68433 0.80865 0.96932 0.0
H463 H 0.81773 0.74201 0.03003 0.0
H464 H 0.7831 0.71357 0.96831 0.0
H465 H 0.72706 0.85153 0.01643 0.0
H466 H 0.85002 0.71351 0.02525 0.0
H467 H 0.81543 0.68512 0.96317 0.0
C468 C 0.50803 0.82944 0.7956 0.0
C469 C 0.52016 0.82591 0.81702 0.0
C470 C 0.50737 0.81171 0.77855 0.0
C471 C 0.51941 0.79023 0.78221 0.0
C472 C 0.53249 0.78711 0.80315 0.0
C473 C 0.53266 0.80466 0.82049 0.0
C474 C 0.51718 0.77082 0.76473 0.0
C475 C 0.51556 0.77587 0.74059 0.0
C476 C 0.51069 0.7581 0.72403 0.0
C477 C 0.5085 0.73431 0.73169 0.0
C478 C 0.51123 0.72895 0.75606 0.0
C479 C 0.51514 0.74733 0.77224 0.0
C480 C 0.50992 0.70478 0.76627 0.0
C481 C 0.48809 0.69626 0.77471 0.0
C482 C 0.53091 0.69454 0.77494 0.0
C483 C 0.53017 0.67753 0.79299 0.0
C484 C 0.5084 0.67032 0.80282 0.0
C485 C 0.50696 0.76637 0.6994 0.0
C486 C 0.48495 0.77651 0.69365 0.0
C487 C 0.52686 0.77253 0.68576 0.0
C488 C 0.52519 0.78994 0.66811 0.0
C489 C 0.5036 0.80177 0.66388 0.0
C490 C 0.48328 0.79402 0.67612 0.0
C491 C 0.48732 0.67908 0.79268 0.0
H492 H 0.49867 0.8458 0.79206 0.0
H493 H 0.49681 0.81466 0.76282 0.0
H494 H 0.54232 0.77096 0.80635 0.0
H495 H 0.54205 0.80123 0.83685 0.0
H496 H 0.51759 0.79399 0.73452 0.0
H497 H 0.51597 0.7432 0.79097 0.0
H498 H 0.50479 0.72037 0.71906 0.0
H499 H 0.47169 0.7044 0.76892 0.0
H500 H 0.54798 0.70123 0.76922 0.0
H501 H 0.54674 0.67087 0.80005 0.0
H502 H 0.46946 0.77261 0.70432 0.0
H503 H 0.54418 0.76562 0.69035 0.0
H504 H 0.47024 0.67403 0.79985 0.0
H505 H 0.46628 0.80241 0.67306 0.0
H506 H 0.54126 0.79545 0.65917 0.0
C507 C 0.20934 0.48155 0.83056 0.0
C508 C 0.18987 0.4671 0.82501 0.0
C509 C 0.22622 0.48688 0.81346 0.0
C510 C 0.22417 0.47773 0.79042 0.0
C511 C 0.20531 0.4623 0.78514 0.0
C512 C 0.18822 0.4571 0.80229 0.0
C513 C 0.24049 0.48623 0.7717 0.0
C514 C 0.2643 0.49061 0.77699 0.0
C515 C 0.27899 0.50275 0.76113 0.0
C516 C 0.26994 0.50969 0.73883 0.0
C517 C 0.24617 0.50425 0.73289 0.0
C518 C 0.2317 0.49271 0.74947 0.0
C519 C 0.23487 0.51106 0.71019 0.0
C520 C 0.21854 0.52983 0.70997 0.0
C521 C 0.23492 0.49504 0.69119 0.0
C522 C 0.21806 0.49695 0.67301 0.0
C523 C 0.20061 0.51481 0.67358 0.0
C524 C 0.30272 0.50943 0.77022 0.0
C525 C 0.30498 0.53054 0.78319 0.0
C526 C 0.31991 0.4917 0.77321 0.0
C527 C 0.33798 0.49428 0.79006 0.0
C528 C 0.33909 0.51456 0.80454 0.0
C529 C 0.32296 0.53308 0.80017 0.0
C530 C 0.20167 0.53175 0.69184 0.0
H531 H 0.21082 0.48993 0.84775 0.0
H532 H 0.24017 0.49926 0.81803 0.0
H533 H 0.20344 0.45476 0.76762 0.0
H534 H 0.17342 0.44579 0.79764 0.0
H535 H 0.27129 0.48549 0.79415 0.0
H536 H 0.21316 0.48973 0.74529 0.0
H537 H 0.28103 0.51939 0.72653 0.0
H538 H 0.21776 0.54207 0.72472 0.0
H539 H 0.24683 0.47999 0.69134 0.0
H540 H 0.21775 0.48346 0.65939 0.0
H541 H 0.29158 0.5442 0.78172 0.0
H542 H 0.31811 0.47496 0.76401 0.0
H543 H 0.18883 0.54597 0.69269 0.0
H544 H 0.32348 0.54909 0.81071 0.0
H545 H 0.34993 0.47957 0.79297 0.0
C546 C 0.49113 0.20908 0.82799 0.0
C547 C 0.5019 0.18701 0.82397 0.0
C548 C 0.4906 0.22614 0.81019 0.0
C549 C 0.50119 0.22165 0.78813 0.0
C550 C 0.51193 0.19958 0.78411 0.0
C551 C 0.51206 0.18237 0.80174 0.0
C552 C 0.50151 0.24005 0.76949 0.0
C553 C 0.50521 0.26378 0.77536 0.0
C554 C 0.50622 0.28135 0.7579 0.0
C555 C 0.50402 0.27489 0.73375 0.0
C556 C 0.50034 0.25079 0.72771 0.0
C557 C 0.49878 0.23382 0.74572 0.0
C558 C 0.49907 0.24154 0.70314 0.0
C559 C 0.47796 0.23056 0.69568 0.0
C560 C 0.5202 0.23618 0.6911 0.0
C561 C 0.52054 0.21875 0.67335 0.0
C562 C 0.49977 0.20616 0.66744 0.0
C563 C 0.50934 0.30596 0.76657 0.0
C564 C 0.48916 0.31979 0.77119 0.0
C565 C 0.53076 0.31196 0.77783 0.0
C566 C 0.53151 0.32999 0.79485 0.0
C567 C 0.51085 0.34251 0.80104 0.0
C568 C 0.48993 0.33798 0.78816 0.0
C569 C 0.4783 0.21309 0.67807 0.0
H570 H 0.48338 0.21336 0.845 0.0
H571 H 0.48188 0.24285 0.81374 0.0
H572 H 0.52057 0.19564 0.76745 0.0
H573 H 0.5201 0.16541 0.79785 0.0
H574 H 0.5076 0.26873 0.79376 0.0
H575 H 0.49566 0.21545 0.74104 0.0
H576 H 0.50517 0.28823 0.72002 0.0
H577 H 0.46152 0.23394 0.70501 0.0
H578 H 0.53682 0.24382 0.69695 0.0
H579 H 0.53741 0.21389 0.6656 0.0
H580 H 0.47227 0.3151 0.76335 0.0
H581 H 0.54643 0.30123 0.77504 0.0
H582 H 0.46189 0.20414 0.67366 0.0
H583 H 0.47365 0.34718 0.79248 0.0
H584 H 0.54803 0.33327 0.80407 0.0
C585 C 0.82774 0.51797 0.7996 0.0
C586 C 0.82472 0.50498 0.82062 0.0
C587 C 0.80981 0.51864 0.78264 0.0
C588 C 0.78864 0.50597 0.7861 0.0
C589 C 0.78565 0.49297 0.80711 0.0
C590 C 0.80335 0.4927 0.82427 0.0
C591 C 0.77 0.50563 0.76763 0.0
C592 C 0.77612 0.50462 0.74369 0.0
C593 C 0.75873 0.50293 0.72607 0.0
C594 C 0.7345 0.50175 0.73258 0.0
C595 C 0.72824 0.50257 0.75683 0.0
C596 C 0.74606 0.50509 0.77394 0.0
C597 C 0.7038 0.49946 0.76602 0.0
C598 C 0.68867 0.51905 0.76814 0.0
C599 C 0.69897 0.47919 0.77959 0.0
C600 C 0.6809 0.47924 0.79654 0.0
C601 C 0.66682 0.49953 0.80025 0.0
C602 C 0.76754 0.50169 0.70139 0.0
C603 C 0.773 0.52285 0.6895 0.0
C604 C 0.77814 0.48057 0.69362 0.0
C605 C 0.79528 0.48087 0.67566 0.0
C606 C 0.80223 0.50234 0.66506 0.0
C607 C 0.79006 0.52316 0.67142 0.0
C608 C 0.6702 0.519 0.78487 0.0
H609 H 0.84408 0.52738 0.79603 0.0
H610 H 0.81258 0.52907 0.76679 0.0
H611 H 0.76976 0.48264 0.81021 0.0
H612 H 0.80018 0.48287 0.84042 0.0
H613 H 0.79467 0.50454 0.73858 0.0
H614 H 0.74109 0.50624 0.79246 0.0
H615 H 0.72093 0.49975 0.71916 0.0
H616 H 0.69228 0.53509 0.75825 0.0
H617 H 0.71076 0.46405 0.77873 0.0
H618 H 0.67939 0.46391 0.80791 0.0
H619 H 0.76569 0.53949 0.69567 0.0
H620 H 0.77473 0.46413 0.70292 0.0
H621 H 0.6594 0.53474 0.78648 0.0
H622 H 0.795 0.54003 0.66375 0.0
H623 H 0.80398 0.46445 0.67094 0.0
C624 C 0.50311 0.17929 0.20842 0.0
C625 C 0.51379 0.18327 0.18631 0.0
C626 C 0.50216 0.19727 0.22522 0.0
C627 C 0.51231 0.21949 0.22048 0.0
C628 C 0.52341 0.22335 0.19855 0.0
C629 C 0.52397 0.20549 0.18157 0.0
C630 C 0.511 0.23864 0.23828 0.0
C631 C 0.51353 0.2335 0.26232 0.0
C632 C 0.51129 0.25117 0.27955 0.0
C633 C 0.50712 0.27487 0.27246 0.0
C634 C 0.50504 0.28023 0.24804 0.0
C635 C 0.50673 0.26197 0.23134 0.0
C636 C 0.50171 0.30441 0.23835 0.0
C637 C 0.48068 0.30947 0.22597 0.0
C638 C 0.52168 0.31871 0.23436 0.0
C639 C 0.5212 0.33646 0.21695 0.0
C640 C 0.50076 0.34013 0.20305 0.0
C641 C 0.5124 0.243 0.30448 0.0
C642 C 0.49117 0.23768 0.31636 0.0
C643 C 0.53356 0.23258 0.31256 0.0
C644 C 0.53317 0.21548 0.3305 0.0
C645 C 0.51162 0.20846 0.34089 0.0
C646 C 0.49079 0.22066 0.33449 0.0
C647 C 0.4802 0.32711 0.20855 0.0
H648 H 0.49545 0.16226 0.21283 0.0
H649 H 0.49316 0.19381 0.2418 0.0
H650 H 0.53169 0.24017 0.19449 0.0
H651 H 0.53207 0.20926 0.1646 0.0
H652 H 0.51705 0.21544 0.26782 0.0
H653 H 0.50455 0.26608 0.21271 0.0
H654 H 0.50549 0.28875 0.28559 0.0
H655 H 0.46519 0.29835 0.22833 0.0
H656 H 0.53831 0.31473 0.24311 0.0
H657 H 0.53741 0.34604 0.2132 0.0
H658 H 0.47453 0.24491 0.31007 0.0
H659 H 0.55008 0.23597 0.30337 0.0
H660 H 0.46401 0.32975 0.19857 0.0
H661 H 0.47387 0.21569 0.34208 0.0
H662 H 0.5496 0.20679 0.33531 0.0
C663 C 0.82003 0.48245 0.19678 0.0
C664 C 0.82299 0.50219 0.182 0.0
C665 C 0.80298 0.48283 0.21464 0.0
C666 C 0.78847 0.50276 0.21758 0.0
C667 C 0.79124 0.52238 0.20261 0.0
C668 C 0.80857 0.52218 0.18504 0.0
C669 C 0.77043 0.50316 0.23631 0.0
C670 C 0.77686 0.49916 0.25975 0.0
C671 C 0.75996 0.4999 0.27796 0.0
C672 C 0.73588 0.50452 0.27223 0.0
C673 C 0.72935 0.5084 0.24829 0.0
C674 C 0.74687 0.50777 0.23069 0.0
C675 C 0.70469 0.51244 0.23993 0.0
C676 C 0.68853 0.49356 0.23914 0.0
C677 C 0.70015 0.53253 0.22597 0.0
C678 C 0.68157 0.53267 0.20958 0.0
C679 C 0.66658 0.51285 0.20696 0.0
C680 C 0.76913 0.49664 0.30244 0.0
C681 C 0.78332 0.47677 0.30722 0.0
C682 C 0.76987 0.5158 0.31824 0.0
C683 C 0.78612 0.51594 0.33714 0.0
C684 C 0.80227 0.49706 0.3404 0.0
C685 C 0.79978 0.47703 0.32572 0.0
C686 C 0.66954 0.49384 0.22299 0.0
H687 H 0.83112 0.46693 0.19472 0.0
H688 H 0.80097 0.46751 0.22602 0.0
H689 H 0.78022 0.53795 0.20474 0.0
H690 H 0.81059 0.53753 0.1737 0.0
H691 H 0.7954 0.49608 0.26391 0.0
H692 H 0.74204 0.51042 0.21227 0.0
H693 H 0.72259 0.50509 0.28606 0.0
H694 H 0.69174 0.47772 0.24947 0.0
H695 H 0.71255 0.54721 0.22596 0.0
H696 H 0.68036 0.54767 0.19776 0.0
H697 H 0.78332 0.46184 0.29516 0.0
H698 H 0.75933 0.53147 0.31486 0.0
H699 H 0.65801 0.47855 0.2223 0.0
H700 H 0.81172 0.46212 0.32715 0.0
H701 H 0.78673 0.5314 0.34843 0.0
C702 C 0.47889 0.79865 0.1824 0.0
C703 C 0.49147 0.82001 0.1844 0.0
C704 C 0.48021 0.78176 0.20036 0.0
C705 C 0.49417 0.78599 0.22051 0.0
C706 C 0.50665 0.8074 0.22251 0.0
C707 C 0.5053 0.82426 0.20463 0.0
C708 C 0.49641 0.7679 0.23918 0.0
C709 C 0.50048 0.7443 0.23322 0.0
C710 C 0.50412 0.72715 0.25075 0.0
C711 C 0.50366 0.73383 0.27491 0.0
C712 C 0.4992 0.75775 0.28097 0.0
C713 C 0.49557 0.77442 0.26298 0.0
C714 C 0.49897 0.76711 0.30549 0.0
C715 C 0.47786 0.77722 0.31403 0.0
C716 C 0.52049 0.7733 0.31638 0.0
C717 C 0.52108 0.79077 0.33407 0.0
C718 C 0.50016 0.80254 0.34098 0.0
C719 C 0.50839 0.70276 0.24215 0.0
C720 C 0.48882 0.68809 0.2375 0.0
C721 C 0.53001 0.69787 0.23079 0.0
C722 C 0.53147 0.68008 0.21357 0.0
C723 C 0.51131 0.66678 0.20732 0.0
C724 C 0.49029 0.67019 0.22035 0.0
C725 C 0.47845 0.79476 0.33152 0.0
H726 H 0.46794 0.79508 0.16705 0.0
H727 H 0.47026 0.76544 0.19854 0.0
H728 H 0.5179 0.8109 0.23766 0.0
H729 H 0.51554 0.8404 0.20639 0.0
H730 H 0.50136 0.73924 0.21471 0.0
H731 H 0.4923 0.79279 0.2676 0.0
H732 H 0.50668 0.72077 0.28862 0.0
H733 H 0.46109 0.77313 0.30559 0.0
H734 H 0.53706 0.76629 0.30967 0.0
H735 H 0.53811 0.79633 0.34096 0.0
H736 H 0.47177 0.69197 0.24545 0.0
H737 H 0.54519 0.7093 0.23361 0.0
H738 H 0.46198 0.80313 0.33675 0.0
H739 H 0.47438 0.66038 0.21597 0.0
H740 H 0.54806 0.67765 0.20422 0.0
C741 C 0.20425 0.47426 0.18617 0.0
C742 C 0.18324 0.48718 0.18968 0.0
C743 C 0.22185 0.47397 0.20353 0.0
C744 C 0.21902 0.48702 0.22453 0.0
C745 C 0.19762 0.49922 0.22832 0.0
C746 C 0.17984 0.49898 0.21129 0.0
C747 C 0.23879 0.48956 0.24168 0.0
C748 C 0.26221 0.4915 0.23377 0.0
C749 C 0.28075 0.49685 0.24942 0.0
C750 C 0.27556 0.50127 0.27358 0.0
C751 C 0.25189 0.49907 0.28169 0.0
C752 C 0.23407 0.4924 0.26578 0.0
C753 C 0.24366 0.50517 0.30589 0.0
C754 C 0.24222 0.48743 0.32322 0.0
C755 C 0.22945 0.52543 0.30847 0.0
C756 C 0.21241 0.52683 0.32643 0.0
C757 C 0.2093 0.50812 0.34268 0.0
C758 C 0.30482 0.49835 0.23882 0.0
C759 C 0.31465 0.47772 0.22897 0.0
C760 C 0.31404 0.52041 0.2319 0.0
C761 C 0.33158 0.52181 0.21424 0.0
C762 C 0.33995 0.50118 0.20295 0.0
C763 C 0.33196 0.4791 0.21125 0.0
C764 C 0.22548 0.48902 0.34159 0.0
H765 H 0.20757 0.46503 0.1697 0.0
H766 H 0.23789 0.46398 0.20021 0.0
H767 H 0.19481 0.5098 0.24405 0.0
H768 H 0.16362 0.50858 0.21491 0.0
H769 H 0.26612 0.48976 0.21505 0.0
H770 H 0.21607 0.49034 0.27225 0.0
H771 H 0.28953 0.50643 0.28569 0.0
H772 H 0.25259 0.47138 0.3214 0.0
H773 H 0.22971 0.53908 0.29498 0.0
H774 H 0.20047 0.5418 0.32618 0.0
H775 H 0.3075 0.46051 0.2336 0.0
H776 H 0.3063 0.5366 0.23867 0.0
H777 H 0.22444 0.47457 0.35411 0.0
H778 H 0.33829 0.46285 0.20327 0.0
H779 H 0.3373 0.53912 0.20825 0.0
C780 C 0.81547 0.81175 0.4779 0.0
C781 C 0.81787 0.82663 0.49763 0.0
C782 C 0.79864 0.79368 0.47803 0.0
C783 C 0.78379 0.79065 0.49771 0.0
C784 C 0.7859 0.80582 0.51725 0.0
C785 C 0.803 0.8236 0.51729 0.0
C786 C 0.76627 0.77145 0.49811 0.0
C787 C 0.77343 0.74811 0.49481 0.0
C788 C 0.75713 0.72938 0.49616 0.0
C789 C 0.73286 0.73452 0.50076 0.0
C790 C 0.72559 0.75843 0.50388 0.0
C791 C 0.74257 0.77649 0.50254 0.0
C792 C 0.70079 0.76638 0.50819 0.0
C793 C 0.68459 0.76736 0.48936 0.0
C794 C 0.69634 0.78037 0.52829 0.0
C795 C 0.67791 0.79697 0.52846 0.0
C796 C 0.66287 0.79977 0.5087 0.0
C797 C 0.76723 0.70512 0.49351 0.0
C798 C 0.78148 0.70034 0.47365 0.0
C799 C 0.76887 0.68991 0.5131 0.0
C800 C 0.78586 0.67163 0.51355 0.0
C801 C 0.80197 0.66842 0.49459 0.0
C802 C 0.7987 0.68252 0.47425 0.0
C803 C 0.66569 0.78364 0.48972 0.0
H804 H 0.82694 0.8138 0.46265 0.0
H805 H 0.79713 0.78212 0.46279 0.0
H806 H 0.77462 0.80361 0.53262 0.0
H807 H 0.80461 0.83501 0.53263 0.0
H808 H 0.7921 0.74446 0.49189 0.0
H809 H 0.73724 0.79484 0.50471 0.0
H810 H 0.72 0.72031 0.50191 0.0
H811 H 0.68771 0.75707 0.47348 0.0
H812 H 0.70879 0.78032 0.54292 0.0
H813 H 0.6769 0.80878 0.54348 0.0
H814 H 0.78086 0.71197 0.4584 0.0
H815 H 0.75836 0.69329 0.52879 0.0
H816 H 0.65411 0.78432 0.47448 0.0
H817 H 0.8105 0.68118 0.45923 0.0
H818 H 0.78699 0.66079 0.52929 0.0
C819 C 0.82554 0.20376 0.54091 0.0
C820 C 0.82503 0.18297 0.52731 0.0
C821 C 0.80798 0.22096 0.53794 0.0
C822 C 0.78987 0.2177 0.52113 0.0
C823 C 0.78947 0.1968 0.50764 0.0
C824 C 0.80677 0.17959 0.5108 0.0
C825 C 0.77194 0.2363 0.51667 0.0
C826 C 0.7785 0.26012 0.51566 0.0
C827 C 0.76219 0.27764 0.50896 0.0
C828 C 0.73874 0.27102 0.50279 0.0
C829 C 0.73198 0.2469 0.50404 0.0
C830 C 0.74856 0.23002 0.5115 0.0
C831 C 0.70837 0.23759 0.49704 0.0
C832 C 0.68912 0.23919 0.51268 0.0
C833 C 0.70742 0.22079 0.47872 0.0
C834 C 0.68898 0.20427 0.47756 0.0
C835 C 0.67062 0.20429 0.49449 0.0
C836 C 0.77144 0.30221 0.5077 0.0
C837 C 0.78035 0.31258 0.5285 0.0
C838 C 0.77801 0.31192 0.48576 0.0
C839 C 0.79466 0.33043 0.48463 0.0
C840 C 0.80521 0.33931 0.50543 0.0
C841 C 0.79704 0.33088 0.52739 0.0
C842 C 0.67031 0.22289 0.51126 0.0
H843 H 0.83947 0.20668 0.55379 0.0
H844 H 0.80863 0.2368 0.54873 0.0
H845 H 0.77617 0.19398 0.4941 0.0
H846 H 0.80629 0.16392 0.49973 0.0
H847 H 0.79676 0.26508 0.51918 0.0
H848 H 0.74322 0.2116 0.51281 0.0
H849 H 0.72616 0.28427 0.49695 0.0
H850 H 0.68955 0.25172 0.52719 0.0
H851 H 0.72227 0.21889 0.46669 0.0
H852 H 0.69035 0.1904 0.46444 0.0
H853 H 0.77589 0.30515 0.54562 0.0
H854 H 0.77188 0.30386 0.46946 0.0
H855 H 0.65619 0.2242 0.52416 0.0
H856 H 0.80447 0.3376 0.54374 0.0
H857 H 0.80059 0.3365 0.46744 0.0
C858 C 0.21167 0.82695 0.50675 0.0
C859 C 0.19011 0.82274 0.51843 0.0
C860 C 0.22945 0.80993 0.50675 0.0
C861 C 0.22644 0.7885 0.51904 0.0
C862 C 0.20547 0.78491 0.53204 0.0
C863 C 0.18738 0.80176 0.53155 0.0
C864 C 0.24428 0.76937 0.51649 0.0
C865 C 0.26825 0.77491 0.51362 0.0
C866 C 0.28474 0.75769 0.50679 0.0
C867 C 0.27737 0.73385 0.50437 0.0
C868 C 0.25337 0.72786 0.50875 0.0
C869 C 0.23711 0.74577 0.51437 0.0
C870 C 0.2435 0.70358 0.50683 0.0
C871 C 0.23582 0.6951 0.48473 0.0
C872 C 0.23466 0.6928 0.52745 0.0
C873 C 0.21707 0.67535 0.5261 0.0
C874 C 0.20791 0.66819 0.50408 0.0
C875 C 0.3087 0.76666 0.5007 0.0
C876 C 0.31087 0.78095 0.48046 0.0
C877 C 0.32604 0.76847 0.51841 0.0
C878 C 0.34401 0.78565 0.51682 0.0
C879 C 0.34467 0.80183 0.49775 0.0
C880 C 0.32847 0.79839 0.47905 0.0
C881 C 0.2183 0.67744 0.48336 0.0
H882 H 0.21468 0.84321 0.49703 0.0
H883 H 0.24513 0.81331 0.49622 0.0
H884 H 0.20273 0.76882 0.5421 0.0
H885 H 0.17098 0.79789 0.54074 0.0
H886 H 0.27415 0.79307 0.51577 0.0
H887 H 0.2185 0.74122 0.5161 0.0
H888 H 0.28991 0.72035 0.49902 0.0
H889 H 0.2418 0.70359 0.4686 0.0
H890 H 0.23986 0.69938 0.54471 0.0
H891 H 0.20977 0.66832 0.54239 0.0
H892 H 0.29734 0.78038 0.46684 0.0
H893 H 0.32451 0.75803 0.53443 0.0
H894 H 0.21162 0.67237 0.46611 0.0
H895 H 0.32795 0.81034 0.46409 0.0
H896 H 0.35654 0.78702 0.53127 0.0
C897 C 0.20404 0.18638 0.53882 0.0
C898 C 0.18877 0.18168 0.51979 0.0
C899 C 0.22003 0.20522 0.53748 0.0
C900 C 0.22041 0.21976 0.51734 0.0
C901 C 0.20466 0.21538 0.49864 0.0
C902 C 0.18907 0.19635 0.49978 0.0
C903 C 0.23804 0.23874 0.51492 0.0
C904 C 0.2621 0.23344 0.51614 0.0
C905 C 0.27927 0.25051 0.51059 0.0
C906 C 0.27196 0.27371 0.50423 0.0
C907 C 0.24741 0.27923 0.50355 0.0
C908 C 0.23083 0.26154 0.50895 0.0
C909 C 0.2375 0.30277 0.49705 0.0
C910 C 0.23901 0.32184 0.51289 0.0
C911 C 0.22067 0.30385 0.47873 0.0
C912 C 0.20404 0.32219 0.47777 0.0
C913 C 0.20397 0.34037 0.49487 0.0
C914 C 0.30418 0.24197 0.51 0.0
C915 C 0.31396 0.23257 0.53088 0.0
C916 C 0.31444 0.23569 0.48821 0.0
C917 C 0.33269 0.21875 0.48724 0.0
C918 C 0.34081 0.20761 0.50804 0.0
C919 C 0.332 0.21558 0.52992 0.0
C920 C 0.22258 0.34056 0.51167 0.0
H921 H 0.20398 0.17516 0.55438 0.0
H922 H 0.23214 0.20839 0.55203 0.0
H923 H 0.20488 0.2263 0.48286 0.0
H924 H 0.17725 0.19301 0.48502 0.0
H925 H 0.2675 0.21543 0.52017 0.0
H926 H 0.21199 0.26545 0.50825 0.0
H927 H 0.28501 0.287 0.49961 0.0
H928 H 0.25161 0.32137 0.52736 0.0
H929 H 0.21889 0.28921 0.46646 0.0
H930 H 0.19019 0.32089 0.46459 0.0
H931 H 0.30609 0.23674 0.54788 0.0
H932 H 0.30684 0.24212 0.47182 0.0
H933 H 0.22386 0.35453 0.52471 0.0
H934 H 0.33815 0.20771 0.5463 0.0
H935 H 0.33906 0.21303 0.47008 0.0
C936 C 0.00604 0.94461 0.56074 0.0
C937 C 1.00383 0.94543 0.44442 0.0
C938 C 0.00652 0.05853 0.56136 0.0
C939 C 0.00913 0.05939 0.44526 0.0
C940 C 0.95105 0.06138 0.50666 0.0
C941 C 0.94669 0.94695 0.50202 0.0
C942 C 0.0659 0.05674 0.50544 0.0
C943 C 0.06126 0.94234 0.50386 0.0
C944 C 0.06347 0.99958 0.44524 0.0
C945 C 0.94935 0.00451 0.44507 0.0
C946 C 0.0633 0.99983 0.56091 0.0
C947 C 0.94903 1.00237 0.56076 0.0
Eu948 Eu 1.00451 0.95659 0.50274 0.0
O949 O 0.9845 0.9818 0.48218 0.0
O950 O 0.02651 0.97979 0.52357 0.0
Eu951 Eu 0.96115 1.00371 0.50287 0.0
Eu952 Eu 0.05135 1.00006 0.50298 0.0
O953 O 0.98411 0.98127 0.52364 0.0
O954 O 0.02662 0.97993 0.482 0.0
Eu955 Eu 0.00618 1.0016 0.54704 0.0
Eu956 Eu 0.00637 1.00231 0.45881 0.0
O957 O 0.98607 0.02367 0.52364 0.0
O958 O 0.98577 0.02438 0.48209 0.0
O959 O 0.02834 0.02259 0.48237 0.0
O960 O 0.02811 0.02214 0.52377 0.0
Eu961 Eu 0.00795 0.0473 0.50325 0.0
O962 O 1.00419 0.93675 0.53839 0.0
O963 O 1.00415 0.93725 0.46675 0.0
O964 O 0.0082 0.0666 0.53909 0.0
O965 O 0.00871 0.06722 0.46769 0.0
O966 O 0.94307 0.03917 0.50559 0.0
O967 O 0.94023 0.96966 0.50133 0.0
O968 O 0.07233 0.03407 0.50385 0.0
O969 O 0.06947 0.96447 0.50296 0.0
O970 O 0.04086 1.00124 0.43856 0.0
O971 O 0.97194 1.00265 0.43845 0.0
O972 O 0.04062 1.00151 0.56732 0.0
O973 O 0.97172 1.00118 0.56724 0.0
O974 O 0.04376 0.06508 0.50552 0.0
O975 O 0.97373 0.06808 0.50547 0.0
O976 O 0.03857 0.93572 0.50413 0.0
O977 O 0.9688 0.93866 0.50301 0.0
O978 O 1.00454 0.96819 0.43826 0.0
O979 O 0.00836 0.03673 0.43872 0.0
O980 O 0.00711 0.96727 0.56714 0.0
O981 O 0.00541 0.0358 0.56756 0.0
O982 O 0.94129 1.00363 0.53835 0.0
O983 O 0.94154 0.00601 0.4674 0.0
O984 O 0.07106 0.99868 0.53851 0.0
O985 O 0.07115 0.99859 0.46765 0.0
C986 C 0.5043 0.94414 0.05943 0.0
C987 C 0.50896 0.05846 0.06179 0.0
C988 C 0.50751 0.94657 0.94487 0.0
C989 C 0.50762 0.06107 0.94737 0.0
C990 C 0.56534 1.00194 0.94655 0.0
C991 C 0.56501 1.00125 0.06055 0.0
C992 C 0.4495 0.00482 0.94597 0.0
C993 C 0.449 1.00134 0.06007 0.0
C994 C 0.45063 0.06112 0.00587 0.0
C995 C 0.5668 0.05804 1.00292 0.0
C996 C 0.4475 0.94708 1.00022 0.0
C997 C 0.56357 0.94391 1.00311 0.0
Eu998 Eu 0.50701 1.0016 0.04829 0.0
O999 O 0.52851 0.02269 0.02488 0.0
O1000 O 0.48576 0.98157 0.02373 0.0
Eu1001 Eu 0.55147 1.00126 1.00347 0.0
Eu1002 Eu 0.46288 1.00375 1.00301 0.0
O1003 O 0.52745 0.98014 0.02418 0.0
O1004 O 0.48676 0.02386 0.02481 0.0
Eu1005 Eu 0.50594 0.95731 1.00235 0.0
Eu1006 Eu 0.50837 0.04772 0.00432 0.0
O1007 O 0.52743 0.98128 0.9818 0.0
O1008 O 0.5286 0.02356 0.98276 0.0
O1009 O 0.48698 0.02483 0.98242 0.0
O1010 O 0.48593 0.98235 0.9816 0.0
Eu1011 Eu 0.50737 1.00353 0.9582 0.0
O1012 O 0.50567 0.96645 0.06703 0.0
O1013 O 0.5069 0.03595 0.06861 0.0
O1014 O 0.50742 0.96914 0.93797 0.0
O1015 O 0.50786 0.03881 0.93949 0.0
O1016 O 0.57184 0.99966 0.96911 0.0
O1017 O 0.5716 1.00119 0.0379 0.0
O1018 O 0.44278 0.00616 0.96854 0.0
O1019 O 0.44254 1.00232 0.03738 0.0
O1020 O 0.4733 0.06832 0.0061 0.0
O1021 O 0.54456 0.06641 0.0039 0.0
O1022 O 0.46972 0.93864 1.00115 0.0
O1023 O 0.54096 0.93672 1.00181 0.0
O1024 O 0.47193 1.00312 0.93834 0.0
O1025 O 0.54304 0.00438 0.93876 0.0
O1026 O 0.47144 1.001 0.06788 0.0
O1027 O 0.54251 1.00142 0.06824 0.0
O1028 O 0.51034 0.06631 0.03958 0.0
O1029 O 0.50747 0.068 0.96994 0.0
O1030 O 0.5043 0.93713 0.03686 0.0
O1031 O 0.50709 0.93862 0.9671 0.0
O1032 O 0.5708 0.96633 0.00436 0.0
O1033 O 0.57271 0.03518 1.00248 0.0
O1034 O 0.44161 0.96994 1.00052 0.0
O1035 O 0.44357 0.03863 0.00469 0.0
C1036 C 0.00674 0.44486 0.05994 0.0
C1037 C 0.00766 0.44383 0.94592 0.0
C1038 C 0.0075 0.56117 0.05885 0.0
C1039 C 0.00687 0.56002 0.94499 0.0
C1040 C 0.95011 0.55987 1.00092 0.0
C1041 C 0.95042 0.44412 1.00253 0.0
C1042 C 0.06452 0.56045 1.0017 0.0
C1043 C 0.06453 0.44471 1.00345 0.0
C1044 C 0.06531 0.49688 0.94564 0.0
C1045 C 0.95079 0.50244 0.94428 0.0
C1046 C 0.0643 0.50224 0.06007 0.0
C1047 C 0.94938 0.50279 0.05892 0.0
Eu1048 Eu 0.00739 0.45825 1.00281 0.0
O1049 O 0.98644 0.48119 0.98082 0.0
O1050 O 0.02833 0.48199 0.02392 0.0
Eu1051 Eu 0.96225 0.502 1.00173 0.0
Eu1052 Eu 0.05263 0.5025 1.0027 0.0
O1053 O 0.98601 0.48176 0.02365 0.0
O1054 O 0.02857 0.48173 0.98176 0.0
Eu1055 Eu 0.00696 0.5029 0.04768 0.0
Eu1056 Eu 0.00797 0.50203 0.95698 0.0
O1057 O 0.98595 0.5232 0.02307 0.0
O1058 O 0.98666 0.52266 0.98092 0.0
O1059 O 0.0291 0.52332 0.98082 0.0
O1060 O 0.02847 0.5234 0.02366 0.0
Eu1061 Eu 0.00744 0.5465 1.00203 0.0
O1062 O 0.00718 0.43832 0.0373 0.0
O1063 O 0.00789 0.43769 0.96869 0.0
O1064 O 0.00775 0.56726 0.03607 0.0
O1065 O 0.00613 0.5665 0.96764 0.0
O1066 O 0.94244 0.53741 1.00059 0.0
O1067 O 0.94257 0.46644 1.00101 0.0
O1068 O 0.07237 0.53806 1.00096 0.0
O1069 O 0.07233 0.46708 0.00459 0.0
O1070 O 0.04301 0.4987 0.93794 0.0
O1071 O 0.97331 0.50328 0.93715 0.0
O1072 O 0.0418 0.50299 0.06734 0.0
O1073 O 0.97174 0.5037 0.06659 0.0
O1074 O 0.04184 0.567 1.00254 0.0
O1075 O 0.97279 0.5665 1.00185 0.0
O1076 O 0.0419 0.43804 1.00221 0.0
O1077 O 0.97308 0.43762 0.00381 0.0
O1078 O 0.00702 0.46613 0.93774 0.0
O1079 O 0.00858 0.53765 0.93714 0.0
O1080 O 0.00682 0.46733 0.06771 0.0
O1081 O 0.00685 0.53885 0.06701 0.0
O1082 O 0.94229 0.50169 0.0364 0.0
O1083 O 0.94314 0.50139 0.9666 0.0
O1084 O 0.07187 0.50206 0.0377 0.0
O1085 O 0.07236 0.4983 0.96815 0.0
C1086 C 0.50525 0.44712 0.05974 0.0
C1087 C 0.50703 0.56107 0.06314 0.0
C1088 C 0.50646 0.45088 0.94356 0.0
C1089 C 0.50617 0.56482 0.94705 0.0
C1090 C 0.56433 0.5076 0.94609 0.0
C1091 C 0.56307 0.50321 0.06183 0.0
C1092 C 0.45007 0.50861 0.94507 0.0
C1093 C 0.44896 0.50626 0.06115 0.0
C1094 C 0.45073 0.56456 0.00687 0.0
C1095 C 0.56532 0.56187 0.01056 0.0
C1096 C 0.44796 0.45007 0.9982 0.0
C1097 C 0.56272 0.44748 1.00365 0.0
Eu1098 Eu 0.50613 0.50446 0.04746 0.0
O1099 O 0.52781 0.52584 0.02477 0.0
O1100 O 0.48435 0.48415 0.02362 0.0
Eu1101 Eu 0.55192 0.50514 0.00383 0.0
Eu1102 Eu 0.46131 0.50697 1.00325 0.0
O1103 O 0.52712 0.48374 0.02352 0.0
O1104 O 0.48593 0.52692 0.02445 0.0
Eu1105 Eu 0.50559 0.46069 1.00202 0.0
Eu1106 Eu 0.50779 0.55129 0.00472 0.0
O1107 O 0.52759 0.485 0.98224 0.0
O1108 O 0.529 0.52785 0.98316 0.0
O1109 O 0.48608 0.52828 0.9833 0.0
O1110 O 0.48542 0.48623 0.98215 0.0
Eu1111 Eu 0.50715 0.50752 0.95937 0.0
O1112 O 0.50573 0.46963 0.0667 0.0
O1113 O 0.50677 0.53816 0.06876 0.0
O1114 O 0.50674 0.4738 0.9379 0.0
O1115 O 0.50518 0.54232 0.9401 0.0
O1116 O 0.57195 0.50539 0.96846 0.0
O1117 O 0.57117 0.50458 0.03958 0.0
O1118 O 0.44198 0.5093 0.96741 0.0
O1119 O 0.44121 0.50591 0.0387 0.0
O1120 O 0.47333 0.57144 0.00583 0.0
O1121 O 0.54305 0.56971 0.009 0.0
O1122 O 0.47025 0.44214 0.99829 0.0
O1123 O 0.54014 0.44058 1.00214 0.0
O1124 O 0.47286 0.50751 0.93891 0.0
O1125 O 0.54177 0.50923 0.93932 0.0
O1126 O 0.47166 0.5059 0.06768 0.0
O1127 O 0.54034 0.50252 0.06821 0.0
O1128 O 0.50748 0.56974 0.04103 0.0
O1129 O 0.50826 0.57212 0.96958 0.0
O1130 O 0.50451 0.43984 0.03712 0.0
O1131 O 0.50646 0.44227 0.9657 0.0
O1132 O 0.57057 0.46975 0.00469 0.0
O1133 O 0.57229 0.5394 0.00814 0.0
O1134 O 0.44109 0.47256 1.00048 0.0
O1135 O 0.44276 0.54231 0.00629 0.0
C1136 C 1.00461 0.44928 0.55962 0.0
C1137 C 1.00172 0.44863 0.44515 0.0
C1138 C 0.00621 0.564 0.55877 0.0
C1139 C 0.00576 0.56316 0.44422 0.0
C1140 C 0.94773 0.56483 0.5023 0.0
C1141 C 0.94523 0.45068 0.50109 0.0
C1142 C 0.064 0.56194 0.49985 0.0
C1143 C 0.06126 0.44791 0.50305 0.0
C1144 C 0.06284 0.50339 0.44525 0.0
C1145 C 0.94672 0.5081 0.4449 0.0
C1146 C 0.06252 0.50712 0.55938 0.0
C1147 C 0.94627 0.50774 0.55899 0.0
Eu1148 Eu 1.00351 0.46134 0.5023 0.0
O1149 O 0.98338 0.4858 0.48111 0.0
O1150 O 0.02487 0.48483 0.52348 0.0
Eu1151 Eu 0.96018 0.50757 0.50195 0.0
Eu1152 Eu 0.04895 0.50517 0.50217 0.0
O1153 O 0.98304 0.48583 0.52335 0.0
O1154 O 0.0251 0.48443 0.4809 0.0
Eu1155 Eu 1.00444 0.5066 0.54723 0.0
Eu1156 Eu 0.00473 0.50597 0.45683 0.0
O1157 O 0.98422 0.52822 0.52306 0.0
O1158 O 0.98427 0.52789 0.48054 0.0
O1159 O 0.02593 0.52675 0.48083 0.0
O1160 O 0.02574 0.52705 0.52296 0.0
Eu1161 Eu 0.00559 0.5515 0.50161 0.0
O1162 O 1.00406 0.44199 0.53717 0.0
O1163 O 1.0016 0.44162 0.4677 0.0
O1164 O 0.00572 0.57124 0.5363 0.0
O1165 O 0.00618 0.57063 0.46661 0.0
O1166 O 0.94057 0.54239 0.50362 0.0
O1167 O 0.93918 0.47349 0.50028 0.0
O1168 O 0.06997 0.5391 0.49955 0.0
O1169 O 0.0684 0.47034 0.50463 0.0
O1170 O 0.04053 0.50566 0.43735 0.0
O1171 O 0.96908 0.50576 0.4372 0.0
O1172 O 0.04001 0.50704 0.56704 0.0
O1173 O 0.96871 0.50707 0.56689 0.0
O1174 O 0.04178 0.57029 0.50131 0.0
O1175 O 0.97035 0.57204 0.50067 0.0
O1176 O 0.03866 0.44075 0.50108 0.0
O1177 O 0.96748 0.44246 0.50266 0.0
O1178 O 1.00326 0.47096 0.43757 0.0
O1179 O 0.00509 0.54065 0.43708 0.0
O1180 O 0.00473 0.47176 0.56692 0.0
O1181 O 0.00596 0.54163 0.56635 0.0
O1182 O 0.93984 0.50784 0.53629 0.0
O1183 O 0.94005 0.50988 0.46746 0.0
O1184 O 0.06912 0.50666 0.53671 0.0
O1185 O 0.06932 0.50206 0.46789 0.0
C1186 C 0.50392 0.94697 0.55915 0.0
C1187 C 0.50263 0.94758 0.44527 0.0
C1188 C 0.50635 0.0632 0.56001 0.0
C1189 C 0.50626 0.06377 0.44588 0.0
C1190 C 0.44897 0.06512 0.5021 0.0
C1191 C 0.44537 0.94917 0.50301 0.0
C1192 C 0.56324 0.06168 0.50308 0.0
C1193 C 0.55945 0.94581 0.50199 0.0
C1194 C 0.56174 1.00181 0.44548 0.0
C1195 C 0.44738 0.01299 0.44506 0.0
C1196 C 0.56133 1.00106 0.56011 0.0
C1197 C 0.44659 0.01128 0.55953 0.0
Eu1198 Eu 0.50273 0.9614 0.50227 0.0
O1199 O 0.48203 0.98515 0.48068 0.0
O1200 O 0.52436 0.98429 0.52348 0.0
Eu1201 Eu 0.45897 0.00673 0.50234 0.0
Eu1202 Eu 0.54942 0.00418 0.50275 0.0
O1203 O 0.48196 0.98502 0.52388 0.0
O1204 O 0.5247 0.98439 0.48147 0.0
Eu1205 Eu 0.50392 0.00518 0.54793 0.0
Eu1206 Eu 0.50439 0.00559 0.45717 0.0
O1207 O 0.48381 0.02653 0.52357 0.0
O1208 O 0.48425 0.02652 0.48181 0.0
O1209 O 0.5263 0.02581 0.4813 0.0
O1210 O 0.52616 0.02556 0.52429 0.0
Eu1211 Eu 0.50581 0.04958 0.50289 0.0
O1212 O 0.50467 0.9409 0.53638 0.0
O1213 O 0.50253 0.94119 0.46795 0.0
O1214 O 0.50627 0.06969 0.53734 0.0
O1215 O 0.50586 0.07 0.46863 0.0
O1216 O 0.44043 0.04295 0.50264 0.0
O1217 O 0.43813 0.97173 0.50157 0.0
O1218 O 0.57036 0.03906 0.50215 0.0
O1219 O 0.56791 0.96795 0.5035 0.0
O1220 O 0.53934 1.0024 0.43791 0.0
O1221 O 0.46973 0.01059 0.43765 0.0
O1222 O 0.53882 1.00215 0.56736 0.0
O1223 O 0.46896 0.00927 0.56702 0.0
O1224 O 0.5408 0.06895 0.50382 0.0
O1225 O 0.4719 0.07091 0.50208 0.0
O1226 O 0.53659 0.93991 0.5007 0.0
O1227 O 0.46782 0.94197 0.504 0.0
O1228 O 0.50246 0.96999 0.43736 0.0
O1229 O 0.50666 0.04141 0.43781 0.0
O1230 O 0.5024 0.96925 0.56732 0.0
O1231 O 0.50562 0.04076 0.56783 0.0
O1232 O 0.4393 0.00991 0.53708 0.0
O1233 O 0.43994 0.01131 0.46743 0.0
O1234 O 0.56876 1.00216 0.5377 0.0
O1235 O 0.56901 1.00275 0.46793 0.0
H1236 H 0.15424 0.17236 0.55213 0.0
H1237 H 0.11139 0.05354 0.48935 0.0
H1238 H 0.18676 0.14538 0.48854 0.0
H1239 H 0.06391 0.09903 0.52845 0.0
H1240 H 0.14318 0.08255 0.49508 0.0
H1241 H 0.12481 0.1403 0.55016 0.0
C1242 C 0.1553 0.15944 0.53799 0.0
C1243 C 0.17263 0.16135 0.52038 0.0
C1244 C 0.12578 0.08609 0.50238 0.0
C1245 C 0.13954 0.12505 0.51805 0.0
C1246 C 0.1077 0.06962 0.49915 0.0
C1247 C 0.08503 0.0741 0.50825 0.0
C1248 C 0.12116 0.10687 0.51516 0.0
C1249 C 0.0811 0.09513 0.52085 0.0
C1250 C 0.13853 0.14136 0.53678 0.0
C1251 C 0.17342 0.14442 0.5023 0.0
N1252 N 0.09908 0.11076 0.52403 0.0
N1253 N 0.15703 0.12689 0.50157 0.0
H1254 H 0.8201 0.13523 0.53117 0.0
H1255 H 0.95791 0.10942 0.51099 0.0
H1256 H 0.87291 0.19038 0.52707 0.0
H1257 H 0.90322 0.05571 0.5121 0.0
H1258 H 0.92782 0.13931 0.5196 0.0
H1259 H 0.85136 0.10562 0.52804 0.0
C1260 C 0.83837 0.14104 0.52984 0.0
C1261 C 0.84401 0.16518 0.52914 0.0
C1262 C 0.92249 0.12095 0.51796 0.0
C1263 C 0.87984 0.13153 0.52529 0.0
C1264 C 0.93962 0.10388 0.51293 0.0
C1265 C 0.93312 0.07998 0.51067 0.0
C1266 C 0.89874 0.11404 0.52078 0.0
C1267 C 0.90915 0.07388 0.51353 0.0
C1268 C 0.8562 0.12417 0.52801 0.0
C1269 C 0.86791 0.17187 0.52772 0.0
N1270 N 0.89288 0.0908 0.51842 0.0
N1271 N 0.88501 0.15509 0.52557 0.0
H1272 H 0.82564 0.86148 0.46524 0.0
H1273 H 0.94704 0.90315 0.52202 0.0
H1274 H 0.85196 0.83275 0.53093 0.0
H1275 H 0.90326 0.95075 0.48117 0.0
H1276 H 0.91516 0.87379 0.52101 0.0
H1277 H 0.85713 0.89152 0.46634 0.0
C1278 C 0.83811 0.86157 0.47983 0.0
C1279 C 0.83638 0.84486 0.49806 0.0
C1280 C 0.91257 0.89071 0.51234 0.0
C1281 C 0.87216 0.87859 0.49931 0.0
C1282 C 0.93073 0.90736 0.51279 0.0
C1283 C 0.92765 0.92932 0.50167 0.0
C1284 C 0.89147 0.89597 0.50033 0.0
C1285 C 0.90618 0.93404 0.4901 0.0
C1286 C 0.85589 0.87867 0.48052 0.0
C1287 C 0.85275 0.84556 0.51668 0.0
N1288 N 0.88887 0.91736 0.48956 0.0
N1289 N 0.87015 0.8621 0.51676 0.0
H1290 H 0.17808 0.8484 0.47914 0.0
H1291 H 0.05856 0.90123 0.52886 0.0
H1292 H 0.15637 0.83532 0.5514 0.0
H1293 H 0.10418 0.94104 0.48213 0.0
H1294 H 0.08957 0.87091 0.53241 0.0
H1295 H 0.14607 0.877 0.47522 0.0
C1296 C 0.16678 0.85165 0.49429 0.0
C1297 C 0.17025 0.83968 0.51581 0.0
C1298 C 0.09264 0.88629 0.52136 0.0
C1299 C 0.13306 0.87169 0.51095 0.0
C1300 C 0.07501 0.90341 0.51919 0.0
C1301 C 0.07901 0.92352 0.50521 0.0
C1302 C 0.11399 0.88919 0.509 0.0
C1303 C 0.1006 0.92579 0.49319 0.0
C1304 C 0.14842 0.86783 0.4919 0.0
C1305 C 0.15433 0.844 0.53445 0.0
N1306 N 0.11731 0.90868 0.49523 0.0
N1307 N 0.13632 0.85967 0.53157 0.0
H1308 H 0.5489 0.17269 0.15434 0.0
H1309 H 0.48766 0.05675 0.10499 0.0
H1310 H 0.47888 0.15088 0.17674 0.0
H1311 H 0.53259 0.10047 0.06111 0.0
H1312 H 0.48938 0.087 0.136 0.0
H1313 H 0.54804 0.14202 0.12385 0.0
C1314 C 0.53332 0.16158 0.15283 0.0
C1315 C 0.5139 0.16443 0.16813 0.0
C1316 C 0.49882 0.08989 0.11955 0.0
C1317 C 0.51321 0.12906 0.13384 0.0
C1318 C 0.49795 0.07267 0.10197 0.0
C1319 C 0.50992 0.0763 0.08055 0.0
C1320 C 0.51214 0.11051 0.11575 0.0
C1321 C 0.52293 0.09721 0.07736 0.0
C1322 C 0.53293 0.14405 0.13553 0.0
C1323 C 0.49444 0.14909 0.16567 0.0
N1324 N 0.52383 0.11356 0.0949 0.0
N1325 N 0.49463 0.13197 0.14888 0.0
H1326 H 0.82954 0.46938 0.14734 0.0
H1327 H 0.9512 0.52339 0.10246 0.0
H1328 H 0.85789 0.53466 0.17514 0.0
H1329 H 0.90549 0.48266 0.05655 0.0
H1330 H 0.92005 0.52333 0.13261 0.0
H1331 H 0.86048 0.46954 0.11679 0.0
C1332 C 0.84236 0.48368 0.14697 0.0
C1333 C 0.84133 0.50206 0.16357 0.0
C1334 C 0.91688 0.51448 0.11589 0.0
C1335 C 0.87652 0.50226 0.12919 0.0
C1336 C 0.93463 0.51438 0.09879 0.0
C1337 C 0.9308 0.50302 0.07706 0.0
C1338 C 0.89544 0.50275 0.11133 0.0
C1339 C 0.90901 0.49176 0.07305 0.0
C1340 C 0.85983 0.48383 0.12956 0.0
C1341 C 0.85813 0.52029 0.16245 0.0
N1342 N 0.89213 0.49175 0.09016 0.0
N1343 N 0.87523 0.51986 0.14559 0.0
H1344 H 0.4949 0.81238 0.13673 0.0
H1345 H 0.49941 0.95042 0.10715 0.0
H1346 H 0.4867 0.86782 0.1887 0.0
H1347 H 0.50327 0.89588 0.05354 0.0
H1348 H 0.49437 0.92007 0.13707 0.0
H1349 H 0.49682 0.84245 0.10563 0.0
C1350 C 0.49322 0.83088 0.14153 0.0
C1351 C 0.4908 0.83771 0.16527 0.0
C1352 C 0.4963 0.91471 0.11876 0.0
C1353 C 0.49331 0.87205 0.13002 0.0
C1354 C 0.4993 0.93206 0.10161 0.0
C1355 C 0.50188 0.92572 0.07773 0.0
C1356 C 0.49594 0.8908 0.11207 0.0
C1357 C 0.5014 0.9016 0.07172 0.0
C1358 C 0.49447 0.84801 0.12383 0.0
C1359 C 0.48897 0.86186 0.17062 0.0
N1360 N 0.49852 0.88498 0.08883 0.0
N1361 N 0.49037 0.87818 0.15313 0.0
H1362 H 0.15618 0.52596 0.17875 0.0
H1363 H 0.10572 0.47773 0.05826 0.0
H1364 H 0.17002 0.45401 0.15643 0.0
H1365 H 0.06377 0.52274 0.10365 0.0
H1366 H 0.13502 0.47366 0.0901 0.0
H1367 H 0.12702 0.52963 0.14721 0.0
C1368 C 0.15296 0.51081 0.16746 0.0
C1369 C 0.16545 0.48949 0.17052 0.0
C1370 C 0.11939 0.48442 0.09296 0.0
C1371 C 0.1328 0.49412 0.13385 0.0
C1372 C 0.10284 0.48691 0.07486 0.0
C1373 C 0.08245 0.50061 0.07849 0.0
C1374 C 0.11565 0.49618 0.11448 0.0
C1375 C 0.07929 0.51195 0.10031 0.0
C1376 C 0.13645 0.51306 0.14937 0.0
C1377 C 0.16105 0.47085 0.15465 0.0
N1378 N 0.09588 0.50965 0.11751 0.0
N1379 N 0.14514 0.47364 0.13684 0.0
H1380 H 0.55478 0.83864 0.84891 0.0
H1381 H 0.48657 0.94817 0.90159 0.0
H1382 H 0.48245 0.85415 0.82867 0.0
H1383 H 0.53158 0.90493 0.94576 0.0
H1384 H 0.48985 0.91851 0.87007 0.0
H1385 H 0.55142 0.86776 0.88077 0.0
C1386 C 0.5382 0.84804 0.85114 0.0
C1387 C 0.51888 0.84393 0.83599 0.0
C1388 C 0.49892 0.91558 0.88672 0.0
C1389 C 0.51534 0.87755 0.8718 0.0
C1390 C 0.49714 0.93243 0.90457 0.0
C1391 C 0.50877 0.92877 0.92616 0.0
C1392 C 0.51289 0.89539 0.89042 0.0
C1393 C 0.5222 0.90816 0.92935 0.0
C1394 C 0.53639 0.86467 0.86922 0.0
C1395 C 0.49801 0.85706 0.83948 0.0
N1396 N 0.52411 0.89224 0.91149 0.0
N1397 N 0.49685 0.87343 0.85695 0.0
H1398 H 0.14243 0.47129 0.81636 0.0
H1399 H 0.11203 0.48607 0.95332 0.0
H1400 H 0.19272 0.45912 0.87267 0.0
H1401 H 0.06026 0.49403 0.89741 0.0
H1402 H 0.14127 0.47423 0.92401 0.0
H1403 H 0.11113 0.47605 0.84581 0.0
C1404 C 0.14677 0.46904 0.83491 0.0
C1405 C 0.17022 0.46505 0.84215 0.0
C1406 C 0.12351 0.47853 0.91815 0.0
C1407 C 0.13471 0.47112 0.87589 0.0
C1408 C 0.1068 0.48551 0.93488 0.0
C1409 C 0.08362 0.49124 0.92785 0.0
C1410 C 0.11707 0.47735 0.89418 0.0
C1411 C 0.07791 0.48989 0.90368 0.0
C1412 C 0.12895 0.47202 0.85173 0.0
C1413 C 0.17491 0.46259 0.8664 0.0
N1414 N 0.09456 0.48314 0.88771 0.0
N1415 N 0.15735 0.46595 0.88244 0.0
H1416 H 0.46793 0.17692 0.85735 0.0
H1417 H 0.52873 0.0604 0.9041 0.0
H1418 H 0.53778 0.1558 0.83384 0.0
H1419 H 0.48581 0.10395 0.95002 0.0
H1420 H 0.52767 0.09176 0.87417 0.0
H1421 H 0.46986 0.14675 0.88827 0.0
C1422 C 0.48373 0.16612 0.85874 0.0
C1423 C 0.50272 0.16891 0.84289 0.0
C1424 C 0.51857 0.09439 0.89085 0.0
C1425 C 0.5046 0.13408 0.87769 0.0
C1426 C 0.51905 0.07655 0.9078 0.0
C1427 C 0.50735 0.07975 0.92943 0.0
C1428 C 0.50588 0.11522 0.89547 0.0
C1429 C 0.49518 0.10098 0.93355 0.0
C1430 C 0.48472 0.14887 0.8763 0.0
C1431 C 0.5225 0.15399 0.84528 0.0
N1432 N 0.49455 0.11793 0.91656 0.0
N1433 N 0.52285 0.13706 0.86227 0.0
H1434 H 0.83736 0.46756 0.84899 0.0
H1435 H 0.9522 0.52638 0.90256 0.0
H1436 H 0.85576 0.54027 0.83336 0.0
H1437 H 0.90849 0.47927 0.94404 0.0
H1438 H 0.92149 0.52691 0.87181 0.0
H1439 H 0.86808 0.46695 0.87939 0.0
C1440 C 0.84768 0.48345 0.85199 0.0
C1441 C 0.84377 0.50409 0.83865 0.0
C1442 C 0.91872 0.5165 0.88769 0.0
C1443 C 0.87938 0.50306 0.87278 0.0
C1444 C 0.93617 0.51608 0.90509 0.0
C1445 C 0.93268 0.50281 0.92574 0.0
C1446 C 0.89804 0.5031 0.89085 0.0
C1447 C 0.91165 0.48986 0.92837 0.0
C1448 C 0.86528 0.48298 0.86923 0.0
C1449 C 0.8583 0.52385 0.84291 0.0
N1450 N 0.8951 0.49016 0.91095 0.0
N1451 N 0.87559 0.52281 0.85956 0.0
H1452 H 0.69546 0.63675 0.04037 0.0
H1453 H 0.55837 0.6077 0.0245 0.0
H1454 H 0.63901 0.68491 0.05872 0.0
H1455 H 0.61362 0.55579 0.01352 0.0
H1456 H 0.58793 0.63543 0.03886 0.0
H1457 H 0.6661 0.60551 0.03407 0.0
C1458 C 0.67694 0.64055 0.04373 0.0
C1459 C 0.66956 0.66347 0.04979 0.0
C1460 C 0.59363 0.61797 0.03334 0.0
C1461 C 0.63594 0.62815 0.04197 0.0
C1462 C 0.57675 0.60214 0.02487 0.0
C1463 C 0.5835 0.57938 0.01751 0.0
C1464 C 0.61752 0.61114 0.03437 0.0
C1465 C 0.60759 0.57319 0.01882 0.0
C1466 C 0.66017 0.6228 0.03987 0.0
C1467 C 0.64535 0.66753 0.05367 0.0
N1468 N 0.62377 0.58904 0.027 0.0
N1469 N 0.62936 0.65013 0.04936 0.0
H1470 H 0.33341 0.65143 0.05271 0.0
H1471 H 0.4539 0.61029 0.99185 0.0
H1472 H 0.36255 0.68567 0.991 0.0
H1473 H 0.40767 0.56163 0.02863 0.0
H1474 H 0.42461 0.64166 0.99761 0.0
H1475 H 0.36525 0.62172 0.05061 0.0
C1476 C 0.34676 0.65278 0.03897 0.0
C1477 C 0.34557 0.67072 0.02194 0.0
C1478 C 0.42094 0.6241 0.00439 0.0
C1479 C 0.38157 0.63734 0.01945 0.0
C1480 C 0.43759 0.60624 1.00115 0.0
C1481 C 0.43303 0.58337 0.00963 0.0
C1482 C 0.39984 0.61907 0.01653 0.0
C1483 C 0.41166 0.579 0.02155 0.0
C1484 C 0.3647 0.63587 0.03767 0.0
C1485 C 0.363 0.6719 0.00434 0.0
N1486 N 0.39582 0.59678 0.02476 0.0
N1487 N 0.38037 0.65537 1.00353 0.0
H1488 H 0.35776 0.33988 0.94168 0.0
H1489 H 0.40236 0.45198 0.01393 0.0
H1490 H 0.32527 0.36306 0.00703 0.0
H1491 H 0.45068 0.40861 0.9735 0.0
H1492 H 0.37079 0.42334 0.00615 0.0
H1493 H 0.38948 0.36893 0.94795 0.0
C1494 C 0.35719 0.35104 0.95725 0.0
C1495 C 0.33861 0.34909 0.97372 0.0
C1496 C 0.38834 0.4201 0.99905 0.0
C1497 C 0.37449 0.38243 0.98066 0.0
C1498 C 0.4063 0.43641 1.00343 0.0
C1499 C 0.42912 0.43251 0.99446 0.0
C1500 C 0.39317 0.40002 0.98526 0.0
C1501 C 0.43334 0.41207 0.98097 0.0
C1502 C 0.37525 0.3676 0.96075 0.0
C1503 C 0.33874 0.36426 0.99345 0.0
N1504 N 0.41543 0.39658 0.97662 0.0
N1505 N 0.35632 0.38033 0.9963 0.0
H1506 H 0.64945 0.32545 0.97542 0.0
H1507 H 0.60594 0.44897 0.0252 0.0
H1508 H 0.67694 0.35485 0.04033 0.0
H1509 H 0.56003 0.40332 0.98439 0.0
H1510 H 0.63524 0.41708 0.0271 0.0
H1511 H 0.61901 0.35642 0.97472 0.0
C1512 C 0.64895 0.33845 0.98953 0.0
C1513 C 0.66553 0.33779 0.00797 0.0
C1514 C 0.61871 0.41409 0.01781 0.0
C1515 C 0.6313 0.3731 0.00714 0.0
C1516 C 0.60211 0.43228 0.01655 0.0
C1517 C 0.58062 0.42868 0.0046 0.0
C1518 C 0.61389 0.39243 0.00666 0.0
C1519 C 0.57637 0.4067 0.99389 0.0
C1520 C 0.63162 0.35596 0.98918 0.0
C1521 C 0.66427 0.35483 0.02593 0.0
N1522 N 0.59298 0.38939 0.99502 0.0
N1523 N 0.64751 0.37202 0.02497 0.0
H1524 H 0.048 0.65293 0.6754 0.0
H1525 H 0.98712 0.60823 0.5571 0.0
H1526 H 0.98028 0.67962 0.65207 0.0
H1527 H 0.02854 0.56159 0.60136 0.0
H1528 H 0.98983 0.63885 0.58771 0.0
H1529 H 0.04662 0.62311 0.64374 0.0
C1530 C 0.03296 0.6525 0.66347 0.0
C1531 C 0.01417 0.66844 0.66616 0.0
C1532 C 0.99828 0.62188 0.59063 0.0
C1533 C 0.01259 0.63504 0.63022 0.0
C1534 C 0.99683 0.60451 0.57324 0.0
C1535 C 0.00752 0.58244 0.57691 0.0
C1536 C 0.01093 0.61719 0.61148 0.0
C1537 C 0.01984 0.57836 0.59807 0.0
C1538 C 0.03212 0.63555 0.6456 0.0
C1539 C 0.99498 0.66738 0.65048 0.0
N1540 N 0.02136 0.5957 0.61458 0.0
N1541 N 0.99471 0.65096 0.633 0.0
H1542 H 0.37665 0.0542 0.68797 0.0
H1543 H 0.39836 0.01517 0.55375 0.0
H1544 H 0.32003 0.03856 0.63902 0.0
H1545 H 0.45378 0.02206 0.60623 0.0
H1546 H 0.36951 0.02813 0.58322 0.0
H1547 H 0.40534 0.04838 0.65613 0.0
C1548 C 0.37028 0.04994 0.67038 0.0
C1549 C 0.34601 0.04659 0.66612 0.0
C1550 C 0.38799 0.02677 0.58823 0.0
C1551 C 0.37863 0.03957 0.62976 0.0
C1552 C 0.40449 0.01924 0.57147 0.0
C1553 C 0.42857 0.0173 0.57752 0.0
C1554 C 0.39564 0.0325 0.61117 0.0
C1555 C 0.43542 0.02302 0.60073 0.0
C1556 C 0.38663 0.04651 0.65225 0.0
C1557 C 0.3386 0.04137 0.643 0.0
N1558 N 0.41903 0.03036 0.61668 0.0
N1559 N 0.3549 0.0377 0.6257 0.0
H1560 H 0.00967 0.37138 0.69121 0.0
H1561 H 0.00621 0.40129 0.55312 0.0
H1562 H 0.01384 0.31882 0.63586 0.0
H1563 H 0.00536 0.4548 0.6079 0.0
H1564 H 0.00864 0.37092 0.58342 0.0
H1565 H 0.00826 0.40238 0.66107 0.0
C1566 C 0.01047 0.3664 0.67271 0.0
C1567 C 0.01181 0.34254 0.66596 0.0
C1568 C 0.00793 0.38931 0.58883 0.0
C1569 C 0.00991 0.37776 0.6315 0.0
C1570 C 0.00649 0.40672 0.57151 0.0
C1571 C 0.00558 0.43071 0.57793 0.0
C1572 C 0.00843 0.39587 0.61276 0.0
C1573 C 0.00603 0.43655 0.60208 0.0
C1574 C 0.00952 0.38406 0.65553 0.0
C1575 C 0.01247 0.337 0.64178 0.0
N1576 N 0.00743 0.41922 0.61865 0.0
N1577 N 0.01148 0.3545 0.62541 0.0
H1578 H 0.63455 0.97877 0.69219 0.0
H1579 H 0.60938 0.99622 0.55412 0.0
H1580 H 0.68967 0.982 0.63929 0.0
H1581 H 0.55491 0.99686 0.60801 0.0
H1582 H 0.63887 0.9884 0.58464 0.0
H1583 H 0.60482 0.98193 0.66096 0.0
C1584 C 0.64035 0.97995 0.67394 0.0
C1585 C 0.66455 0.98032 0.66827 0.0
C1586 C 0.62046 0.99025 0.58975 0.0
C1587 C 0.63074 0.98405 0.6325 0.0
C1588 C 0.60358 0.99482 0.57235 0.0
C1589 C 0.57957 0.99734 0.57847 0.0
C1590 C 0.6133 0.98816 0.61345 0.0
C1591 C 0.57318 0.99517 0.60239 0.0
C1592 C 0.62341 0.98176 0.65613 0.0
C1593 C 0.67117 0.98152 0.64437 0.0
N1594 N 0.58996 0.99073 0.619 0.0
N1595 N 0.65433 0.98356 0.62734 0.0
H1596 H 0.99184 0.36999 0.31447 0.0
H1597 H 0.99748 0.40087 0.45218 0.0
H1598 H 0.98626 0.31802 0.37025 0.0
H1599 H 1.00018 0.45378 0.39688 0.0
H1600 H 0.99254 0.37045 0.42223 0.0
H1601 H 0.99329 0.40125 0.34432 0.0
C1602 C 0.99061 0.36521 0.333 0.0
C1603 C 0.98906 0.34143 0.33997 0.0
C1604 C 0.99419 0.38871 0.41664 0.0
C1605 C 0.99109 0.37692 0.3741 0.0
C1606 C 0.99709 0.40615 0.43375 0.0
C1607 C 0.99933 0.42998 0.42707 0.0
C1608 C 0.99356 0.3951 0.39266 0.0
C1609 C 0.99861 0.43565 0.40289 0.0
C1610 C 0.99161 0.38302 0.35002 0.0
C1611 C 0.98783 0.33614 0.36418 0.0
N1612 N 0.99581 0.4183 0.38653 0.0
N1613 N 0.98898 0.35376 0.3804 0.0
H1614 H 0.68229 0.02418 0.35598 0.0
H1615 H 0.55935 0.97784 0.40365 0.0
H1616 H 0.65651 0.95458 0.33702 0.0
H1617 H 0.6061 0.02061 0.44652 0.0
H1618 H 0.59116 0.97356 0.37427 0.0
H1619 H 0.65067 0.02744 0.38503 0.0
C1620 C 0.67023 0.00941 0.35807 0.0
C1621 C 0.67238 0.98887 0.34419 0.0
C1622 C 0.59434 0.98384 0.39015 0.0
C1623 C 0.63558 0.99307 0.37684 0.0
C1624 C 0.57626 0.98644 0.40675 0.0
C1625 C 0.58025 0.99959 0.42742 0.0
C1626 C 0.61622 0.99494 0.39412 0.0
C1627 C 0.60244 0.01021 0.43082 0.0
C1628 C 0.65207 0.01143 0.37455 0.0
C1629 C 0.65549 0.9708 0.34716 0.0
N1630 N 0.6196 0.00781 0.4142 0.0
N1631 N 0.63767 0.97336 0.36313 0.0
H1632 H 1.00391 0.63805 0.31123 0.0
H1633 H 0.00607 0.6113 0.44998 0.0
H1634 H 0.00592 0.69227 0.36507 0.0
H1635 H 0.00575 0.55682 0.39614 0.0
H1636 H 0.00594 0.64121 0.41904 0.0
H1637 H 0.00464 0.60789 0.34217 0.0
C1638 C 1.00461 0.64356 0.32958 0.0
C1639 C 0.00484 0.66762 0.33568 0.0
C1640 C 0.00592 0.6227 0.41401 0.0
C1641 C 0.00548 0.63337 0.37105 0.0
C1642 C 0.006 0.60557 0.43168 0.0
C1643 C 0.0059 0.58146 0.42568 0.0
C1644 C 0.00573 0.61569 0.3902 0.0
C1645 C 0.0058 0.57518 0.40164 0.0
C1646 C 0.00492 0.62638 0.34721 0.0
C1647 C 0.00542 0.67389 0.35968 0.0
N1648 N 0.0057 0.59222 0.38476 0.0
N1649 N 0.00574 0.65683 0.37653 0.0
H1650 H 0.3712 0.04242 0.31592 0.0
H1651 H 0.40144 0.02663 0.45265 0.0
H1652 H 0.32236 0.05825 0.37253 0.0
H1653 H 0.45275 0.01594 0.39679 0.0
H1654 H 0.3731 0.04058 0.42343 0.0
H1655 H 0.40268 0.03681 0.34511 0.0
C1656 C 0.36728 0.04537 0.33445 0.0
C1657 C 0.34412 0.05052 0.3419 0.0
C1658 C 0.39057 0.03522 0.41755 0.0
C1659 C 0.37976 0.04347 0.37535 0.0
C1660 C 0.40675 0.027 0.43422 0.0
C1661 C 0.42952 0.01985 0.4272 0.0
C1662 C 0.39709 0.0362 0.39359 0.0
C1663 C 0.43537 0.02112 0.40306 0.0
C1664 C 0.38518 0.0419 0.35113 0.0
C1665 C 0.33993 0.05389 0.36613 0.0
N1666 N 0.41921 0.02905 0.3871 0.0
N1667 N 0.3575 0.04998 0.38203 0.0
H1668 H 0.97991 0.17128 0.34366 0.0
H1669 H 0.02875 0.05228 0.40187 0.0
H1670 H 0.03296 0.12732 0.31065 0.0
H1671 H 0.99283 0.10569 0.44299 0.0
H1672 H 0.02867 0.07872 0.36785 0.0
H1673 H 0.98218 0.14663 0.37928 0.0
C1674 C 0.9919 0.1563 0.3438 0.0
C1675 C 0.00611 0.15125 0.32395 0.0
C1676 C 0.02093 0.08481 0.3843 0.0
C1677 C 0.00893 0.12303 0.36492 0.0
C1678 C 0.02091 0.06967 0.40381 0.0
C1679 C 0.01071 0.07669 0.42541 0.0
C1680 C 0.01032 0.10719 0.38605 0.0
C1681 C 1.00098 0.09955 0.42676 0.0
C1682 C 0.99335 0.14239 0.36427 0.0
C1683 C 0.02169 0.13192 0.32546 0.0
N1684 N 1.00079 0.11389 0.40727 0.0
N1685 N 0.02254 0.11845 0.34547 0.0
H1686 H 0.86514 0.04976 0.32592 0.0
H1687 H 0.94492 0.97157 0.41059 0.0
H1688 H 0.86294 0.97324 0.32371 0.0
H1689 H 0.91524 0.0376 0.4346 0.0
H1690 H 0.91961 0.97338 0.37533 0.0
H1691 H 0.88841 0.04741 0.36236 0.0
C1692 C 0.86943 0.03245 0.33291 0.0
C1693 C 0.86174 0.01167 0.3214 0.0
C1694 C 0.91846 0.98737 0.3884 0.0
C1695 C 0.88908 0.00904 0.36304 0.0
C1696 C 0.93284 0.98633 0.40849 0.0
C1697 C 0.93194 0.00435 0.42554 0.0
C1698 C 0.90354 0.00695 0.38496 0.0
C1699 C 0.91617 0.02321 0.42197 0.0
C1700 C 0.88279 0.0312 0.35377 0.0
C1701 C 0.86866 0.98984 0.33135 0.0
N1702 N 0.90277 0.0242 0.40188 0.0
N1703 N 0.88197 0.98913 0.35144 0.0
H1704 H 0.03114 0.83378 0.34137 0.0
H1705 H 0.98518 0.95369 0.4008 0.0
H1706 H 0.98303 0.88229 0.30715 0.0
H1707 H 0.01952 0.89885 0.44141 0.0
H1708 H 0.98561 0.92809 0.36623 0.0
H1709 H 0.02899 0.85775 0.37747 0.0
C1710 C 0.02029 0.8496 0.34133 0.0
C1711 C 0.00739 0.85609 0.32099 0.0
C1712 C 0.99295 0.92149 0.38267 0.0
C1713 C 0.00467 0.88352 0.36257 0.0
C1714 C 0.99275 0.93615 0.40253 0.0
C1715 C 1.00241 0.92851 0.42418 0.0
C1716 C 1.00319 0.89891 0.38409 0.0
C1717 C 0.01179 0.90548 0.42517 0.0
C1718 C 0.0189 0.86314 0.36208 0.0
C1719 C 0.99324 0.8765 0.32231 0.0
N1720 N 0.01216 0.89157 0.40535 0.0
N1721 N 0.99237 0.8895 0.34263 0.0
H1722 H 0.14513 0.0253 0.31818 0.0
H1723 H 0.10554 0.97491 0.4434 0.0
H1724 H 0.16503 0.95492 0.34086 0.0
H1725 H 0.06116 0.0218 0.40257 0.0
H1726 H 0.13244 0.97152 0.40918 0.0
H1727 H 0.11815 0.02787 0.35174 0.0
C1728 C 0.1437 0.01018 0.32986 0.0
C1729 C 0.15763 0.9898 0.32634 0.0
C1730 C 0.11682 0.98258 0.40783 0.0
C1731 C 0.12725 0.99327 0.36569 0.0
C1732 C 0.10162 0.98469 0.42738 0.0
C1733 C 0.08109 0.99864 0.4258 0.0
C1734 C 0.11169 0.99496 0.38684 0.0
C1735 C 0.07672 0.01076 0.40452 0.0
C1736 C 0.12841 0.01185 0.34925 0.0
C1737 C 0.15519 0.97123 0.34286 0.0
N1738 N 0.09193 0.00877 0.38596 0.0
N1739 N 0.14053 0.9735 0.36189 0.0
H1740 H 0.97956 0.83259 0.66371 0.0
H1741 H 0.0281 0.95109 0.60294 0.0
H1742 H 0.02835 0.8811 0.69708 0.0
H1743 H 0.98708 0.89931 0.56444 0.0
H1744 H 0.02768 0.92547 0.63745 0.0
H1745 H 0.9808 0.85678 0.62773 0.0
C1746 C 0.99034 0.84846 0.66361 0.0
C1747 C 1.00376 0.85485 0.68365 0.0
C1748 C 0.01882 0.91954 0.6215 0.0
C1749 C 0.00552 0.88247 0.64218 0.0
C1750 C 0.019 0.93422 0.60169 0.0
C1751 C 0.00743 0.92746 0.5807 0.0
C1752 C 0.0068 0.89781 0.62066 0.0
C1753 C 0.99627 0.90522 0.5802 0.0
C1754 C 0.99121 0.86213 0.64292 0.0
C1755 C 0.01779 0.87535 0.68214 0.0
N1756 N 0.99605 0.89126 0.59997 0.0
N1757 N 0.01823 0.88839 0.66187 0.0
H1758 H 0.18787 0.98147 0.65091 0.0
H1759 H 0.05504 0.00756 0.60802 0.0
H1760 H 0.13146 0.00437 0.69716 0.0
H1761 H 0.11154 0.99014 0.55941 0.0
H1762 H 0.08285 0.00512 0.64068 0.0
H1763 H 0.16027 0.98268 0.61748 0.0
C1764 C 0.16962 0.98648 0.65414 0.0
C1765 C 0.16203 0.99276 0.67703 0.0
C1766 C 0.08926 1.00185 0.62291 0.0
C1767 C 0.13035 0.99453 0.63857 0.0
C1768 C 0.07332 1.00322 0.60409 0.0
C1769 C 0.08082 0.99903 0.5807 0.0
C1770 C 0.11308 0.99616 0.61859 0.0
C1771 C 0.10488 0.99358 0.57705 0.0
C1772 C 0.15392 0.98737 0.63495 0.0
C1773 C 0.13824 0.99958 0.6799 0.0
N1774 N 0.12013 0.99225 0.59579 0.0
N1775 N 0.12333 1.00026 0.66096 0.0
H1776 H 0.03533 0.17187 0.66174 0.0
H1777 H 0.98673 0.0517 0.60478 0.0
H1778 H 0.98571 0.12543 0.69675 0.0
H1779 H 0.02428 0.10425 0.56387 0.0
H1780 H 0.98753 0.07803 0.63885 0.0
H1781 H 0.03328 0.14679 0.62645 0.0
C1782 C 0.02418 0.15625 0.66213 0.0
C1783 C 0.01083 0.15067 0.68243 0.0
C1784 C 0.99553 0.08394 0.62244 0.0
C1785 C 0.00819 0.12199 0.64179 0.0
C1786 C 0.99515 0.06885 0.60291 0.0
C1787 C 0.00561 0.07567 0.58135 0.0
C1788 C 0.00666 0.10608 0.62073 0.0
C1789 C 0.01596 0.09827 0.58007 0.0
C1790 C 0.02285 0.14208 0.64184 0.0
C1791 C 0.99628 0.1305 0.68158 0.0
N1792 N 0.01641 0.11259 0.59955 0.0
N1793 N 0.99545 0.11687 0.66169 0.0
H1794 H 0.88388 0.99113 0.6993 0.0
H1795 H 0.90198 0.01653 0.56038 0.0
H1796 H 0.83171 0.02705 0.65651 0.0
H1797 H 0.95625 0.98873 0.60658 0.0
H1798 H 0.87493 0.01862 0.59448 0.0
H1799 H 0.90979 0.98851 0.66472 0.0
C1800 C 0.87786 0.9985 0.68266 0.0
C1801 C 0.85557 0.00942 0.68095 0.0
C1802 C 0.89277 0.01203 0.59707 0.0
C1803 C 0.88524 0.00642 0.64103 0.0
C1804 C 0.90817 0.01071 0.57757 0.0
C1805 C 0.93152 1.00254 0.58052 0.0
C1806 C 0.90071 0.00497 0.61963 0.0
C1807 C 0.93854 0.99537 0.60333 0.0
C1808 C 0.89271 0.99705 0.66287 0.0
C1809 C 0.84887 0.0188 0.65883 0.0
N1810 N 0.92327 0.99676 0.62188 0.0
N1811 N 0.86357 0.01702 0.63977 0.0
H1812 H 0.35997 0.98223 0.18493 0.0
H1813 H 0.40172 0.00866 0.052 0.0
H1814 H 0.31284 1.00374 0.12872 0.0
H1815 H 0.45087 0.99163 0.10814 0.0
H1816 H 0.36916 0.00574 0.07994 0.0
H1817 H 0.39324 0.98381 0.15715 0.0
C1818 C 0.35652 0.98699 0.16668 0.0
C1819 C 0.33344 0.9928 0.15919 0.0
C1820 C 0.38703 1.00265 0.08623 0.0
C1821 C 0.37169 0.99502 0.12732 0.0
C1822 C 0.40577 0.00429 0.07023 0.0
C1823 C 0.42927 1.00033 0.0776 0.0
C1824 C 0.39155 0.99694 0.10998 0.0
C1825 C 0.43313 0.9949 0.10159 0.0
C1826 C 0.37561 0.9881 0.15088 0.0
C1827 C 0.33027 0.99932 0.13541 0.0
N1828 N 0.41447 0.9933 0.1169 0.0
N1829 N 0.34912 1.00024 0.12039 0.0
H1830 H 0.03173 0.34666 0.17666 0.0
H1831 H 0.9903 0.40024 0.05219 0.0
H1832 H 0.99158 0.30776 0.12452 0.0
H1833 H 0.02144 0.44356 0.10693 0.0
H1834 H 0.9915 0.36635 0.07858 0.0
H1835 H 0.02962 0.38187 0.15143 0.0
C1836 C 0.02268 0.34539 0.15979 0.0
C1837 C 0.01195 0.32401 0.15269 0.0
C1838 C 0.99802 0.38322 0.08497 0.0
C1839 C 0.00917 0.36459 0.12382 0.0
C1840 C 0.99738 0.40271 0.06985 0.0
C1841 C 0.00593 0.42492 0.07723 0.0
C1842 C 0.00747 0.38561 0.10781 0.0
C1843 C 0.01461 0.42685 0.10047 0.0
C1844 C 0.02129 0.36564 0.14551 0.0
C1845 C 1.00002 0.32377 0.13086 0.0
N1846 N 0.01535 0.4074 0.11488 0.0
N1847 N 0.99904 0.34365 0.11725 0.0
H1848 H 0.70456 0.99495 0.12452 0.0
H1849 H 0.56407 0.01341 0.10808 0.0
H1850 H 0.65971 0.02441 0.17895 0.0
H1851 H 0.61138 0.98968 0.05288 0.0
H1852 H 0.59815 0.01589 0.13516 0.0
H1853 H 0.66997 0.99157 0.09866 0.0
C1854 C 0.68746 1.00074 0.13105 0.0
C1855 C 0.68518 0.01009 0.15396 0.0
C1856 C 0.60099 0.0101 0.1171 0.0
C1857 C 0.64526 0.00623 0.12434 0.0
C1858 C 0.5815 0.00856 0.10168 0.0
C1859 C 0.58477 1.00147 0.07807 0.0
C1860 C 0.62386 0.00436 0.1089 0.0
C1861 C 0.60789 0.9955 0.0708 0.0
C1862 C 0.66767 0.99886 0.11624 0.0
C1863 C 0.66248 0.01746 0.16131 0.0
N1864 N 0.62641 0.9971 0.08607 0.0
N1865 N 0.64344 0.01532 0.14661 0.0
H1866 H 0.0277 0.7003 0.12103 0.0
H1867 H 0.99197 0.56318 0.10549 0.0
H1868 H 0.98045 0.66427 0.1691 0.0
H1869 H 0.02438 0.60566 0.05083 0.0
H1870 H 0.99108 0.59841 0.13127 0.0
H1871 H 0.03002 0.66421 0.09711 0.0
C1872 C 0.0178 0.68482 0.12656 0.0
C1873 C 1.0037 0.6855 0.14703 0.0
C1874 C 0.99844 0.5999 0.11364 0.0
C1875 C 0.00641 0.64383 0.11975 0.0
C1876 C 0.99909 0.57976 0.09898 0.0
C1877 C 0.00814 0.58139 0.07586 0.0
C1878 C 0.00722 0.62171 0.10522 0.0
C1879 C 0.01701 0.60347 0.06838 0.0
C1880 C 0.01908 0.66419 0.11287 0.0
C1881 C 0.99122 0.66478 0.15324 0.0
N1882 N 0.01634 0.62261 0.08294 0.0
N1883 N 0.99292 0.64483 0.13974 0.0
H1884 H 0.34149 0.95703 0.84857 0.0
H1885 H 0.4089 0.03075 0.94705 0.0
H1886 H 0.32467 0.03046 0.86225 0.0
H1887 H 0.44531 0.978 0.90556 0.0
H1888 H 0.37475 0.0277 0.9204 0.0
H1889 H 0.3764 0.96094 0.87391 0.0
C1890 C 0.34497 0.97399 0.85678 0.0
C1891 C 0.32984 0.99348 0.85289 0.0
C1892 C 0.39027 0.01693 0.91702 0.0
C1893 C 0.36973 0.99772 0.88259 0.0
C1894 C 0.40976 0.01865 0.93219 0.0
C1895 C 0.43001 0.00472 0.92838 0.0
C1896 C 0.39072 1.00066 0.89826 0.0
C1897 C 0.43014 0.98926 0.90892 0.0
C1898 C 0.36496 0.97613 0.87131 0.0
C1899 C 0.33528 0.01472 0.86482 0.0
N1900 N 0.41065 0.98741 0.89473 0.0
N1901 N 0.35464 0.01622 0.87913 0.0
H1902 H 0.98082 0.34396 0.83138 0.0
H1903 H 0.0246 0.39945 0.95402 0.0
H1904 H 0.02512 0.30694 0.88144 0.0
H1905 H 0.99221 0.44183 0.89928 0.0
H1906 H 0.02351 0.36531 0.92793 0.0
H1907 H 0.98285 0.37934 0.85636 0.0
C1908 C 0.99077 0.34315 0.84776 0.0
C1909 C 1.00267 0.32227 0.85437 0.0
C1910 C 0.0167 0.38203 0.92149 0.0
C1911 C 0.00532 0.36299 0.88294 0.0
C1912 C 0.01726 0.40165 0.93643 0.0
C1913 C 0.00834 0.42367 0.92894 0.0
C1914 C 0.00693 0.38411 0.89876 0.0
C1915 C 0.99932 0.42527 0.90581 0.0
C1916 C 0.99211 0.36348 0.86188 0.0
C1917 C 0.01573 0.32257 0.87554 0.0
N1918 N 0.99865 0.4057 0.8916 0.0
N1919 N 0.01661 0.34252 0.88906 0.0
H1920 H 0.68006 0.05105 0.85843 0.0
H1921 H 0.60329 0.97239 0.9451 0.0
H1922 H 0.68857 0.97498 0.86082 0.0
H1923 H 0.57258 0.03248 0.90942 0.0
H1924 H 0.63819 0.97534 0.91933 0.0
H1925 H 0.64424 0.04714 0.88245 0.0
C1926 C 0.67458 0.03351 0.86387 0.0
C1927 C 0.68764 0.01331 0.85717 0.0
C1928 C 0.62373 0.98775 0.91701 0.0
C1929 C 0.64673 0.00897 0.88545 0.0
C1930 C 0.60384 0.98607 0.93165 0.0
C1931 C 0.58498 1.00209 0.92919 0.0
C1932 C 0.62515 0.00604 0.90027 0.0
C1933 C 0.58663 0.0196 0.91163 0.0
C1934 C 0.65407 0.03138 0.87767 0.0
C1935 C 0.67965 0.99121 0.86566 0.0
N1936 N 0.60655 0.02133 0.89803 0.0
N1937 N 0.65986 0.98968 0.87938 0.0
H1938 H 0.03627 0.66495 0.83616 0.0
H1939 H 0.98314 0.60136 0.95084 0.0
H1940 H 0.98085 0.69494 0.8794 0.0
H1941 H 0.02683 0.56432 0.90028 0.0
H1942 H 0.98314 0.63595 0.92518 0.0
H1943 H 0.03464 0.62871 0.85993 0.0
C1944 C 0.02391 0.66404 0.85081 0.0
C1945 C 0.00881 0.68322 0.85589 0.0
C1946 C 0.99265 0.62029 0.91953 0.0
C1947 C 0.00666 0.64148 0.88302 0.0
C1948 C 0.99271 0.60046 0.93422 0.0
C1949 C 0.00517 0.57989 0.9278 0.0
C1950 C 0.00538 0.61987 0.89821 0.0
C1951 C 0.01696 0.57976 0.90591 0.0
C1952 C 0.02283 0.6432 0.86421 0.0
C1953 C 0.99279 0.68069 0.87476 0.0
N1954 N 0.01699 0.59956 0.89199 0.0
N1955 N 0.99224 0.66032 0.88766 0.0
H1956 H 0.15546 0.33028 0.04863 0.0
H1957 H 0.06563 0.40721 0.9736 0.0
H1958 H 0.14975 0.32255 0.97266 0.0
H1959 H 0.10234 0.4374 0.03333 0.0
H1960 H 0.09172 0.37257 0.97552 0.0
H1961 H 0.13125 0.36609 0.04613 0.0
C1962 C 0.14926 0.33592 0.03141 0.0
C1963 C 0.15499 0.32303 0.01081 0.0
C1964 C 0.09419 0.38684 0.9881 0.0
C1965 C 0.12656 0.36393 0.00812 0.0
C1966 C 0.07935 0.40658 0.98701 0.0
C1967 C 0.082 0.4252 1.00323 0.0
C1968 C 0.1114 0.38535 0.00597 0.0
C1969 C 0.09996 0.4235 0.02034 0.0
C1970 C 0.13535 0.35643 0.03009 0.0
C1971 C 0.14562 0.33127 0.98919 0.0
N1972 N 0.11383 0.40373 0.02149 0.0
N1973 N 0.13184 0.35103 0.98846 0.0
H1974 H 0.14698 0.68651 0.03241 0.0
H1975 H 0.10348 0.56663 0.97299 0.0
H1976 H 0.15312 0.67538 0.95689 0.0
H1977 H 0.06448 0.59947 0.02978 0.0
H1978 H 0.12876 0.60226 0.97051 0.0
H1979 H 0.12241 0.65111 0.03501 0.0
C1980 C 0.14306 0.67702 0.01625 0.0
C1981 C 0.15243 0.68443 0.99433 0.0
C1982 C 0.11475 0.60151 0.9836 0.0
C1983 C 0.12498 0.64278 0.99764 0.0
C1984 C 0.10053 0.58115 0.98518 0.0
C1985 C 0.08193 0.58014 1.00164 0.0
C1986 C 0.11067 0.62066 0.999 0.0
C1987 C 0.07861 0.59958 0.01681 0.0
C1988 C 0.12919 0.65652 0.01789 0.0
C1989 C 0.14698 0.67044 0.97433 0.0
N1990 N 0.0929 0.61894 0.01525 0.0
N1991 N 0.13388 0.65025 0.97651 0.0
H1992 H 0.3124 0.12813 0.00882 0.0
H1993 H 0.45382 0.10979 0.01204 0.0
H1994 H 0.36177 0.18566 0.01907 0.0
H1995 H 0.4028 0.05345 1.00265 0.0
H1996 H 0.42083 0.1381 0.01474 0.0
H1997 H 0.34577 0.10065 0.00671 0.0
C1998 C 0.33024 0.13502 0.01064 0.0
C1999 C 0.33415 0.15932 0.0142 0.0
C2000 C 0.41695 0.11951 0.0121 0.0
C2001 C 0.37269 0.12779 0.01185 0.0
C2002 C 0.4358 0.10333 0.01051 0.0
C2003 C 0.43126 0.07908 0.00716 0.0
C2004 C 0.39339 0.1114 0.01028 0.0
C2005 C 0.40741 0.07186 0.00533 0.0
C2006 C 0.34934 0.11928 0.00951 0.0
C2007 C 0.35777 0.16707 0.01669 0.0
N2008 N 0.38953 0.08787 0.00691 0.0
N2009 N 0.3761 0.15141 0.0154 0.0
H2010 H 0.8638 0.32722 0.95632 0.0
H2011 H 0.9484 0.40739 0.03349 0.0
H2012 H 0.86276 0.32266 0.03275 0.0
H2013 H 0.91367 0.4357 0.97172 0.0
H2014 H 0.92248 0.37248 0.03158 0.0
H2015 H 0.88772 0.36312 0.9594 0.0
C2016 C 0.86842 0.33359 0.97378 0.0
C2017 C 0.86073 0.32161 0.99431 0.0
C2018 C 0.92041 0.38642 0.01857 0.0
C2019 C 0.88907 0.36263 0.99773 0.0
C2020 C 0.93513 0.40631 0.01965 0.0
C2021 C 0.93298 0.4245 1.00286 0.0
C2022 C 0.90391 0.38429 1.0001 0.0
C2023 C 0.91565 0.42219 0.98518 0.0
C2024 C 0.88221 0.35415 0.97544 0.0
C2025 C 0.86832 0.33072 0.0163 0.0
N2026 N 0.90198 0.40226 0.98403 0.0
N2027 N 0.88211 0.35052 0.01739 0.0
H2028 H 0.69021 0.8617 0.03029 0.0
H2029 H 0.566 0.90252 0.97751 0.0
H2030 H 0.66959 0.84448 0.95859 0.0
H2031 H 0.60501 0.94496 0.02765 0.0
H2032 H 0.60036 0.87571 0.97448 0.0
H2033 H 0.65612 0.888 0.03314 0.0
C2034 C 0.67886 0.86358 0.01496 0.0
C2035 C 0.68315 0.85062 0.9941 0.0
C2036 C 0.60126 0.89085 0.98622 0.0
C2037 C 0.64318 0.8802 0.99783 0.0
C2038 C 0.58163 0.90597 0.98812 0.0
C2039 C 0.5827 0.92595 1.00284 0.0
C2040 C 0.62181 0.8955 0.99955 0.0
C2041 C 0.60349 0.92979 0.01601 0.0
C2042 C 0.65916 0.87847 0.01677 0.0
C2043 C 0.66701 0.85357 0.97524 0.0
N2044 N 0.62214 0.91467 0.01416 0.0
N2045 N 0.64768 0.86783 0.97763 0.0
H2046 H 0.88327 0.69815 1.00231 0.0
H2047 H 0.90158 0.55729 0.99373 0.0
H2048 H 0.82666 0.64964 0.98516 0.0
H2049 H 0.95818 0.60748 0.00562 0.0
H2050 H 0.87356 0.59044 0.99117 0.0
H2051 H 0.91077 0.66475 0.00402 0.0
C2052 C 0.87661 0.68049 0.99885 0.0
C2053 C 0.85257 0.6768 0.99352 0.0
C2054 C 0.89214 0.59413 0.99434 0.0
C2055 C 0.88407 0.63828 0.99549 0.0
C2056 C 0.90815 0.57518 0.99588 0.0
C2057 C 0.93238 0.57944 0.9999 0.0
C2058 C 0.90036 0.61752 0.99692 0.0
C2059 C 0.93976 0.60313 1.00245 0.0
C2060 C 0.89235 0.66139 0.99977 0.0
C2061 C 0.84508 0.65345 0.98899 0.0
N2062 N 0.92388 0.62114 1.00094 0.0
N2063 N 0.86071 0.63511 0.99017 0.0
H2064 H 0.34568 0.83562 0.03031 0.0
H2065 H 0.40375 0.95475 0.98105 0.0
H2066 H 0.31188 0.87939 0.97764 0.0
H2067 H 0.44478 0.90097 0.01657 0.0
H2068 H 0.36939 0.92846 0.98146 0.0
H2069 H 0.38117 0.86045 0.02772 0.0
C2070 C 0.34562 0.85059 0.01833 0.0
C2071 C 0.32557 0.85553 0.00433 0.0
C2072 C 0.38591 0.9223 0.98905 0.0
C2073 C 0.36644 0.88402 1.00116 0.0
C2074 C 0.40559 0.93735 0.9889 0.0
C2075 C 0.42727 0.93014 0.99889 0.0
C2076 C 0.38762 0.89987 0.99959 0.0
C2077 C 0.42851 0.90726 0.00859 0.0
C2078 C 0.36602 0.86463 0.01671 0.0
C2079 C 0.32684 0.87489 0.98876 0.0
N2080 N 0.4089 0.89305 0.00892 0.0
N2081 N 0.34681 0.88849 0.98773 0.0
H2082 H 0.70518 0.12332 0.98331 0.0
H2083 H 0.56809 0.10468 0.01782 0.0
H2084 H 0.66692 0.17079 0.02932 0.0
H2085 H 0.61182 0.0502 0.98681 0.0
H2086 H 0.60278 0.13107 0.01863 0.0
H2087 H 0.66987 0.09803 0.98104 0.0
C2088 C 0.68939 0.12842 0.99295 0.0
C2089 C 0.68918 0.14913 0.00671 0.0
C2090 C 0.60472 0.11334 0.01161 0.0
C2091 C 0.6485 0.12033 0.00403 0.0
C2092 C 0.58487 0.09832 0.01102 0.0
C2093 C 0.58698 0.0751 1.00236 0.0
C2094 C 0.62677 0.10521 1.0032 0.0
C2095 C 0.6093 0.06783 0.99388 0.0
C2096 C 0.66923 0.11395 0.9917 0.0
C2097 C 0.66811 0.15479 0.01884 0.0
N2098 N 0.62821 0.08278 0.99449 0.0
N2099 N 0.64866 0.14057 0.01716 0.0
H2100 H 0.53657 0.6738 0.84241 0.0
H2101 H 0.48112 0.56033 0.9063 0.0
H2102 H 0.47856 0.63314 0.81363 0.0
H2103 H 0.52719 0.60914 0.94286 0.0
H2104 H 0.48095 0.58648 0.87206 0.0
H2105 H 0.53486 0.64987 0.87856 0.0
C2106 C 0.52359 0.6597 0.84357 0.0
C2107 C 0.50781 0.65539 0.82473 0.0
C2108 C 0.491 0.59166 0.88755 0.0
C2109 C 0.50561 0.62803 0.86639 0.0
C2110 C 0.49115 0.57669 0.90719 0.0
C2111 C 0.50431 0.58246 0.92754 0.0
C2112 C 0.50437 0.61261 0.88789 0.0
C2113 C 0.51673 0.60402 0.92762 0.0
C2114 C 0.52249 0.64621 0.86436 0.0
C2115 C 0.49104 0.63721 0.82761 0.0
N2116 N 0.51668 0.6182 0.90799 0.0
N2117 N 0.4905 0.62416 0.84791 0.0
H2118 H 0.33002 0.53092 0.84957 0.0
H2119 H 0.45871 0.49684 0.899 0.0
H2120 H 0.38543 0.4994 0.8074 0.0
H2121 H 0.40241 0.52135 0.94464 0.0
H2122 H 0.43206 0.4991 0.86541 0.0
H2123 H 0.35624 0.52956 0.88415 0.0
C2124 C 0.3478 0.52399 0.84745 0.0
C2125 C 0.35549 0.51534 0.82537 0.0
C2126 C 0.42541 0.50398 0.88272 0.0
C2127 C 0.38554 0.51339 0.86518 0.0
C2128 C 0.4407 0.50274 0.90207 0.0
C2129 C 0.43294 0.50904 0.9249 0.0
C2130 C 0.40199 0.51168 0.88587 0.0
C2131 C 0.40922 0.51628 0.92747 0.0
C2132 C 0.36267 0.52301 0.86732 0.0
C2133 C 0.37858 0.50611 0.82399 0.0
N2134 N 0.39462 0.51751 0.90818 0.0
N2135 N 0.3927 0.50541 0.84353 0.0
H2136 H 0.53165 0.33521 0.84443 0.0
H2137 H 0.49157 0.45988 0.89847 0.0
H2138 H 0.48903 0.38593 0.80638 0.0
H2139 H 0.5202 0.40374 0.9417 0.0
H2140 H 0.49248 0.43365 0.86429 0.0
H2141 H 0.53 0.36069 0.87946 0.0
C2142 C 0.52214 0.35183 0.84331 0.0
C2143 C 0.51062 0.35847 0.82222 0.0
C2144 C 0.49851 0.42697 0.88122 0.0
C2145 C 0.50844 0.38769 0.8626 0.0
C2146 C 0.49808 0.44199 0.90084 0.0
C2147 C 0.50595 0.43412 0.92313 0.0
C2148 C 0.50711 0.40378 0.88359 0.0
C2149 C 0.51391 0.4106 0.92495 0.0
C2150 C 0.52102 0.36626 0.86345 0.0
C2151 C 0.49813 0.37999 0.82217 0.0
N2152 N 0.51446 0.39634 0.90541 0.0
N2153 N 0.49748 0.39383 0.84194 0.0
H2154 H 0.64257 0.46337 0.82332 0.0
H2155 H 0.57061 0.54228 0.91343 0.0
H2156 H 0.65374 0.53909 0.82624 0.0
H2157 H 0.59663 0.47355 0.93381 0.0
H2158 H 0.59577 0.54087 0.87791 0.0
H2159 H 0.62002 0.46588 0.86012 0.0
C2160 C 0.64046 0.48055 0.83152 0.0
C2161 C 0.65054 0.50102 0.82135 0.0
C2162 C 0.59618 0.52623 0.8903 0.0
C2163 C 0.62382 0.50392 0.86344 0.0
C2164 C 0.58194 0.52706 0.91055 0.0
C2165 C 0.58192 0.50817 0.92668 0.0
C2166 C 0.60985 0.50598 0.8857 0.0
C2167 C 0.59653 0.48864 0.92198 0.0
C2168 C 0.62745 0.48189 0.85259 0.0
C2169 C 0.64619 0.52277 0.83283 0.0
N2170 N 0.60968 0.48788 0.90172 0.0
N2171 N 0.63311 0.52364 0.8531 0.0
H2172 H 0.52231 0.38364 0.19822 0.0
H2173 H 0.48966 0.40036 0.06043 0.0
H2174 H 0.48127 0.33243 0.15901 0.0
H2175 H 0.52241 0.45379 0.10423 0.0
H2176 H 0.48874 0.37366 0.095 0.0
H2177 H 0.52459 0.40826 0.16272 0.0
C2178 C 0.51377 0.37754 0.18216 0.0
C2179 C 0.50146 0.35594 0.18178 0.0
C2180 C 0.49616 0.39124 0.09692 0.0
C2181 C 0.50402 0.38416 0.14076 0.0
C2182 C 0.4968 0.40641 0.07716 0.0
C2183 C 0.5059 0.42947 0.07938 0.0
C2184 C 0.50491 0.39913 0.11894 0.0
C2185 C 0.51489 0.43634 0.1016 0.0
C2186 C 0.51501 0.39166 0.16185 0.0
C2187 C 0.49061 0.34912 0.16034 0.0
N2188 N 0.51413 0.42134 0.12036 0.0
N2189 N 0.49218 0.36312 0.14073 0.0
H2190 H 0.64368 0.54908 0.1826 0.0
H2191 H 0.56644 0.47045 0.09688 0.0
H2192 H 0.65099 0.47283 0.18305 0.0
H2193 H 0.59777 0.53554 0.07225 0.0
H2194 H 0.5916 0.47226 0.13239 0.0
H2195 H 0.62069 0.54602 0.14612 0.0
C2196 C 0.64063 0.53167 0.17522 0.0
C2197 C 0.64982 0.51121 0.18622 0.0
C2198 C 0.59312 0.486 0.1191 0.0
C2199 C 0.62252 0.50774 0.14454 0.0
C2200 C 0.57886 0.48496 0.09887 0.0
C2201 C 0.58033 0.50271 0.08155 0.0
C2202 C 0.60835 0.50539 0.12245 0.0
C2203 C 0.59643 0.52133 0.08506 0.0
C2204 C 0.62736 0.53002 0.15434 0.0
C2205 C 0.6442 0.48919 0.1758 0.0
N2206 N 0.6096 0.52238 0.1053 0.0
N2207 N 0.63087 0.48806 0.1557 0.0
H2208 H 0.53173 0.67549 0.16398 0.0
H2209 H 0.49172 0.55172 0.1079 0.0
H2210 H 0.49087 0.62284 0.20141 0.0
H2211 H 0.52147 0.60805 0.06562 0.0
H2212 H 0.49287 0.5773 0.14239 0.0
H2213 H 0.53025 0.65075 0.12841 0.0
C2214 C 0.52267 0.6586 0.16485 0.0
C2215 C 0.51154 0.6512 0.1859 0.0
C2216 C 0.49909 0.5842 0.12561 0.0
C2217 C 0.5095 0.6229 0.14494 0.0
C2218 C 0.49849 0.56955 0.10578 0.0
C2219 C 0.50658 0.57765 0.08366 0.0
C2220 C 0.50808 0.60727 0.12365 0.0
C2221 C 0.51495 0.60105 0.08223 0.0
C2222 C 0.52164 0.6446 0.14441 0.0
C2223 C 0.49962 0.62937 0.18566 0.0
N2224 N 0.51564 0.615 0.10199 0.0
N2225 N 0.499 0.61601 0.16559 0.0
H2226 H 0.33563 0.47642 0.16136 0.0
H2227 H 0.45568 0.52536 0.10488 0.0
H2228 H 0.37911 0.52944 0.1951 0.0
H2229 H 0.40261 0.48978 0.06291 0.0
H2230 H 0.42875 0.52515 0.13858 0.0
H2231 H 0.36077 0.47889 0.12607 0.0
C2232 C 0.35058 0.48848 0.16144 0.0
C2233 C 0.35536 0.50259 0.18142 0.0
C2234 C 0.42286 0.51749 0.12201 0.0
C2235 C 0.3842 0.50559 0.14081 0.0
C2236 C 0.43829 0.51751 0.10269 0.0
C2237 C 0.43151 0.50745 0.08094 0.0
C2238 C 0.40041 0.50698 0.11991 0.0
C2239 C 0.4086 0.49779 0.07927 0.0
C2240 C 0.36479 0.49002 0.14116 0.0
C2241 C 0.3747 0.51824 0.18018 0.0
N2242 N 0.39397 0.49756 0.09857 0.0
N2243 N 0.38848 0.51916 0.16036 0.0
H2244 H 0.80825 0.52789 0.62393 0.0
H2245 H 0.94481 0.4913 0.6052 0.0
H2246 H 0.84499 0.47961 0.67037 0.0
H2247 H 0.902 0.52575 0.55207 0.0
H2248 H 0.90999 0.49028 0.63152 0.0
H2249 H 0.84393 0.53049 0.59935 0.0
C2250 C 0.82379 0.5178 0.62896 0.0
C2251 C 0.82345 0.50335 0.64918 0.0
C2252 C 0.90831 0.49812 0.61411 0.0
C2253 C 0.8646 0.50637 0.62113 0.0
C2254 C 0.92823 0.49884 0.59915 0.0
C2255 C 0.92635 0.50846 0.5763 0.0
C2256 C 0.88649 0.50738 0.60626 0.0
C2257 C 0.9043 0.51788 0.5694 0.0
C2258 C 0.84418 0.51925 0.61488 0.0
C2259 C 0.84422 0.49065 0.65472 0.0
N2260 N 0.88536 0.51711 0.58425 0.0
N2261 N 0.86392 0.49251 0.64086 0.0
H2262 H 0.47982 0.84363 0.67175 0.0
H2263 H 0.52437 0.9041 0.55148 0.0
H2264 H 0.52613 0.80973 0.6213 0.0
H2265 H 0.48655 0.94321 0.60514 0.0
H2266 H 0.52416 0.86942 0.57688 0.0
H2267 H 0.48049 0.87963 0.64752 0.0
C2268 C 0.48992 0.8436 0.65544 0.0
C2269 C 0.50284 0.82341 0.64854 0.0
C2270 C 0.51594 0.88553 0.58325 0.0
C2271 C 0.50393 0.86492 0.62084 0.0
C2272 C 0.51599 0.90545 0.56869 0.0
C2273 C 0.50527 0.9267 0.57604 0.0
C2274 C 0.50492 0.88649 0.60549 0.0
C2275 C 0.49505 0.92727 0.59872 0.0
C2276 C 0.49047 0.86431 0.64175 0.0
C2277 C 0.516 0.82478 0.62747 0.0
N2278 N 0.49495 0.9074 0.61258 0.0
N2279 N 0.51614 0.84507 0.61442 0.0
H2280 H 0.20139 0.50457 0.62584 0.0
H2281 H 0.06034 0.51605 0.60761 0.0
H2282 H 0.15344 0.52422 0.68203 0.0
H2283 H 0.10997 0.50019 0.55159 0.0
H2284 H 0.09372 0.51843 0.63547 0.0
H2285 H 0.16773 0.50239 0.59866 0.0
C2286 C 0.18381 0.50845 0.6325 0.0
C2287 C 0.1804 0.51467 0.65634 0.0
C2288 C 0.09724 0.51443 0.61706 0.0
C2289 C 0.1415 0.51221 0.62513 0.0
C2290 C 0.07815 0.51298 0.60114 0.0
C2291 C 0.08219 0.50798 0.57709 0.0
C2292 C 0.12056 0.51075 0.60894 0.0
C2293 C 0.1058 0.50426 0.56984 0.0
C2294 C 0.16454 0.50727 0.61692 0.0
C2295 C 0.15709 0.51972 0.66377 0.0
N2296 N 0.12395 0.50572 0.58562 0.0
N2297 N 0.1386 0.51831 0.64829 0.0
H2298 H 0.47724 0.16341 0.6737 0.0
H2299 H 0.52496 0.10711 0.55291 0.0
H2300 H 0.52508 0.19941 0.62618 0.0
H2301 H 0.48979 0.06522 0.60629 0.0
H2302 H 0.52394 0.14115 0.57923 0.0
H2303 H 0.47991 0.12793 0.6489 0.0
C2304 C 0.48814 0.16398 0.65792 0.0
C2305 C 0.5008 0.18464 0.65196 0.0
C2306 C 0.51655 0.12454 0.58535 0.0
C2307 C 0.50414 0.14375 0.62357 0.0
C2308 C 0.51709 0.10498 0.57028 0.0
C2309 C 0.50739 0.08313 0.57731 0.0
C2310 C 0.50595 0.12259 0.60772 0.0
C2311 C 0.49759 0.08162 0.60014 0.0
C2312 C 0.48982 0.14358 0.64391 0.0
C2313 C 0.51505 0.18398 0.63157 0.0
N2314 N 0.49692 0.10114 0.61445 0.0
N2315 N 0.51621 0.16398 0.61811 0.0
H2316 H 0.82656 0.4612 0.36391 0.0
H2317 H 0.91161 0.54077 0.44082 0.0
H2318 H 0.82605 0.53734 0.35559 0.0
H2319 H 0.9367 0.47547 0.41041 0.0
H2320 H 0.87632 0.53867 0.41535 0.0
H2321 H 0.86292 0.46462 0.38708 0.0
C2322 C 0.83392 0.47866 0.36676 0.0
C2323 C 0.82294 0.49898 0.35724 0.0
C2324 C 0.88967 0.52495 0.41409 0.0
C2325 C 0.86449 0.50287 0.38475 0.0
C2326 C 0.90979 0.52616 0.42852 0.0
C2327 C 0.92718 0.50843 0.42742 0.0
C2328 C 0.8865 0.50542 0.39905 0.0
C2329 C 0.92386 0.48968 0.41147 0.0
C2330 C 0.85473 0.48051 0.38014 0.0
C2331 C 0.8333 0.52108 0.36263 0.0
N2332 N 0.90371 0.48846 0.39814 0.0
N2333 N 0.85334 0.52242 0.37607 0.0
H2334 H 0.52617 0.80989 0.38156 0.0
H2335 H 0.48765 0.94593 0.39842 0.0
H2336 H 0.47683 0.84473 0.33476 0.0
H2337 H 0.51973 0.90326 0.45311 0.0
H2338 H 0.48759 0.91096 0.37224 0.0
H2339 H 0.52803 0.84595 0.4056 0.0
C2340 C 0.51573 0.82511 0.37634 0.0
C2341 C 0.50114 0.82413 0.35624 0.0
C2342 C 0.49468 0.90939 0.38998 0.0
C2343 C 0.50332 0.86569 0.38359 0.0
C2344 C 0.49483 0.92936 0.40486 0.0
C2345 C 0.50351 0.92757 0.42809 0.0
C2346 C 0.50365 0.88763 0.3983 0.0
C2347 C 0.51258 0.90555 0.43548 0.0
C2348 C 0.51674 0.8457 0.39009 0.0
C2349 C 0.48799 0.8445 0.35035 0.0
N2350 N 0.51243 0.88659 0.4207 0.0
N2351 N 0.48944 0.86442 0.36389 0.0
H2352 H 0.18389 0.54569 0.36215 0.0
H2353 H 0.09771 0.47038 0.4427 0.0
H2354 H 0.18507 0.46913 0.36027 0.0
H2355 H 0.07354 0.5347 0.40958 0.0
H2356 H 0.13326 0.4712 0.4176 0.0
H2357 H 0.14703 0.54389 0.38477 0.0
C2358 C 0.1766 0.52847 0.36631 0.0
C2359 C 0.188 0.50752 0.35886 0.0
C2360 C 0.12007 0.485 0.41565 0.0
C2361 C 0.14579 0.50556 0.38566 0.0
C2362 C 0.09979 0.48451 0.42989 0.0
C2363 C 0.08255 0.50232 0.42793 0.0
C2364 C 0.1236 0.50388 0.39988 0.0
C2365 C 0.08624 0.52044 0.41132 0.0
C2366 C 0.15548 0.52754 0.37936 0.0
C2367 C 0.17759 0.48586 0.36577 0.0
N2368 N 0.10654 0.52095 0.39814 0.0
N2369 N 0.15727 0.48548 0.37882 0.0
H2370 H 0.48642 0.20219 0.3822 0.0
H2371 H 0.52186 0.06529 0.39927 0.0
H2372 H 0.53394 0.16568 0.33482 0.0
H2373 H 0.48979 0.10843 0.45359 0.0
H2374 H 0.52287 0.10026 0.37315 0.0
H2375 H 0.48401 0.16637 0.40655 0.0
C2376 C 0.49637 0.18666 0.37692 0.0
C2377 C 0.51058 0.18711 0.35653 0.0
C2378 C 0.51558 0.10196 0.3908 0.0
C2379 C 0.50776 0.1458 0.38426 0.0
C2380 C 0.51488 0.08198 0.40565 0.0
C2381 C 0.50591 0.08387 0.42877 0.0
C2382 C 0.50691 0.12387 0.39902 0.0
C2383 C 0.49715 0.10605 0.43606 0.0
C2384 C 0.49504 0.1662 0.39085 0.0
C2385 C 0.5231 0.16635 0.35061 0.0
N2386 N 0.49786 0.12503 0.42131 0.0
N2387 N 0.52135 0.14657 0.36433 0.0
H2388 H 0.6459 0.82284 0.46861 0.0
H2389 H 0.59576 0.93677 0.5331 0.0
H2390 H 0.64145 0.82561 0.54504 0.0
H2391 H 0.56105 0.90877 0.47118 0.0
H2392 H 0.62043 0.90071 0.53491 0.0
H2393 H 0.62133 0.85827 0.46656 0.0
C2394 C 0.63969 0.83046 0.48503 0.0
C2395 C 0.64615 0.82067 0.5071 0.0
C2396 C 0.60751 0.90262 0.52085 0.0
C2397 C 0.61873 0.86247 0.50458 0.0
C2398 C 0.59364 0.92323 0.51968 0.0
C2399 C 0.57643 0.92574 0.50192 0.0
C2400 C 0.60458 0.88474 0.50376 0.0
C2401 C 0.57413 0.90749 0.48516 0.0
C2402 C 0.62581 0.851 0.48374 0.0
C2403 C 0.63776 0.83241 0.52754 0.0
N2404 N 0.58815 0.88789 0.48634 0.0
N2405 N 0.62481 0.85273 0.52578 0.0
H2406 H 0.64813 0.18599 0.5341 0.0
H2407 H 0.60212 0.06714 0.47417 0.0
H2408 H 0.65422 0.17468 0.45861 0.0
H2409 H 0.56456 0.10017 0.5318 0.0
H2410 H 0.62819 0.1022 0.4718 0.0
H2411 H 0.62306 0.15094 0.53671 0.0
C2412 C 0.64409 0.17652 0.51795 0.0
C2413 C 0.65358 0.18377 0.49603 0.0
C2414 C 0.61434 0.10161 0.48507 0.0
C2415 C 0.62553 0.14255 0.49935 0.0
C2416 C 0.59968 0.08155 0.48658 0.0
C2417 C 0.58125 0.0808 0.50325 0.0
C2418 C 0.61084 0.12068 0.50071 0.0
C2419 C 0.57857 0.1001 0.51869 0.0
C2420 C 0.62993 0.15623 0.5196 0.0
C2421 C 0.64796 0.16984 0.47604 0.0
N2422 N 0.59325 0.11917 0.51716 0.0
N2423 N 0.63456 0.14986 0.47822 0.0
H2424 H 0.82615 0.65393 0.53499 0.0
H2425 H 0.93799 0.59911 0.46927 0.0
H2426 H 0.8273 0.64555 0.45888 0.0
H2427 H 0.91297 0.57008 0.53522 0.0
H2428 H 0.90221 0.62422 0.46744 0.0
H2429 H 0.86198 0.62987 0.53751 0.0
C2430 C 0.83354 0.64697 0.51876 0.0
C2431 C 0.82317 0.65215 0.49662 0.0
C2432 C 0.90475 0.61253 0.48242 0.0
C2433 C 0.86536 0.62531 0.49958 0.0
C2434 C 0.92524 0.59845 0.4836 0.0
C2435 C 0.92849 0.58271 0.50254 0.0
C2436 C 0.88772 0.61124 0.50059 0.0
C2437 C 0.91116 0.58212 0.52041 0.0
C2438 C 0.85429 0.6334 0.5203 0.0
C2439 C 0.83456 0.64284 0.47637 0.0
N2440 N 0.89164 0.59627 0.51911 0.0
N2441 N 0.85505 0.63017 0.47833 0.0
H2442 H 0.36423 0.82722 0.46029 0.0
H2443 H 0.43982 0.91654 0.53767 0.0
H2444 H 0.36068 0.82686 0.53675 0.0
H2445 H 0.41193 0.93716 0.46975 0.0
H2446 H 0.41495 0.88089 0.53667 0.0
H2447 H 0.38609 0.86456 0.46211 0.0
C2448 C 0.3679 0.83481 0.47748 0.0
C2449 C 0.36028 0.82349 0.4984 0.0
C2450 C 0.41401 0.89335 0.52212 0.0
C2451 C 0.38604 0.86629 0.50044 0.0
C2452 C 0.42808 0.91372 0.52274 0.0
C2453 C 0.42755 0.92996 0.50396 0.0
C2454 C 0.39984 0.88874 0.50221 0.0
C2455 C 0.41246 0.92527 0.48477 0.0
C2456 C 0.38048 0.85621 0.47843 0.0
C2457 C 0.3664 0.83431 0.52007 0.0
N2458 N 0.3994 0.9049 0.48423 0.0
N2459 N 0.37896 0.85491 0.5205 0.0
H2460 H 0.18567 0.36295 0.53445 0.0
H2461 H 0.06672 0.40884 0.47444 0.0
H2462 H 0.17437 0.35682 0.45896 0.0
H2463 H 0.10007 0.44695 0.53158 0.0
H2464 H 0.10179 0.3828 0.47223 0.0
H2465 H 0.15067 0.38814 0.53698 0.0
C2466 C 0.17621 0.36699 0.51829 0.0
C2467 C 0.18345 0.35744 0.49639 0.0
C2468 C 0.10126 0.39677 0.48535 0.0
C2469 C 0.14228 0.38564 0.49962 0.0
C2470 C 0.0812 0.41142 0.48678 0.0
C2471 C 0.0805 0.43 0.50326 0.0
C2472 C 0.12042 0.40038 0.5009 0.0
C2473 C 0.09992 0.43283 0.51861 0.0
C2474 C 0.15595 0.38123 0.51989 0.0
C2475 C 0.16953 0.36308 0.47638 0.0
N2476 N 0.11898 0.41813 0.51717 0.0
N2477 N 0.14959 0.37655 0.47852 0.0
H2478 H 0.33628 0.16582 0.53233 0.0
H2479 H 0.45693 0.10947 0.48465 0.0
H2480 H 0.38082 0.20043 0.48079 0.0
H2481 H 0.40255 0.06733 0.51802 0.0
H2482 H 0.43046 0.14358 0.48532 0.0
H2483 H 0.3615 0.13062 0.52989 0.0
C2484 C 0.35151 0.16612 0.52064 0.0
C2485 C 0.35654 0.1863 0.5069 0.0
C2486 C 0.42421 0.12688 0.4924 0.0
C2487 C 0.38546 0.14578 0.50391 0.0
C2488 C 0.43937 0.10733 0.49211 0.0
C2489 C 0.43205 0.08539 0.50137 0.0
C2490 C 0.40153 0.12479 0.50238 0.0
C2491 C 0.40896 0.08381 0.5106 0.0
C2492 C 0.36576 0.14589 0.5191 0.0
C2493 C 0.37623 0.18535 0.4917 0.0
N2494 N 0.39461 0.10329 0.51109 0.0
N2495 N 0.39003 0.16555 0.49075 0.0
H2496 H 0.84671 0.33613 0.53038 0.0
H2497 H 0.901 0.45757 0.48258 0.0
H2498 H 0.8118 0.37904 0.47772 0.0
H2499 H 0.94363 0.40456 0.51744 0.0
H2500 H 0.86741 0.43031 0.48281 0.0
H2501 H 0.88127 0.36227 0.52832 0.0
C2502 C 0.84622 0.35119 0.51851 0.0
C2503 C 0.82615 0.35551 0.50436 0.0
C2504 C 0.88411 0.42456 0.49032 0.0
C2505 C 0.86591 0.38549 0.50182 0.0
C2506 C 0.90334 0.44016 0.4903 0.0
C2507 C 0.92525 0.43344 0.50013 0.0
C2508 C 0.88651 0.40206 0.50055 0.0
C2509 C 0.92715 0.41052 0.50962 0.0
C2510 C 0.86608 0.36597 0.5172 0.0
C2511 C 0.82682 0.37501 0.48894 0.0
N2512 N 0.90798 0.39575 0.5098 0.0
N2513 N 0.84627 0.38936 0.48822 0.0
H2514 H 0.16728 0.67187 0.53043 0.0
H2515 H 0.10699 0.55489 0.47894 0.0
H2516 H 0.19878 0.63016 0.47476 0.0
H2517 H 0.0673 0.6075 0.51759 0.0
H2518 H 0.14138 0.58111 0.47904 0.0
H2519 H 0.13154 0.64733 0.52815 0.0
C2520 C 0.16678 0.65741 0.51784 0.0
C2521 C 0.18624 0.65295 0.50292 0.0
C2522 C 0.12515 0.58704 0.48739 0.0
C2523 C 0.14512 0.62483 0.50011 0.0
C2524 C 0.10546 0.57203 0.48742 0.0
C2525 C 0.08416 0.57892 0.49839 0.0
C2526 C 0.12385 0.6091 0.49873 0.0
C2527 C 0.08328 0.60147 0.50886 0.0
C2528 C 0.14624 0.64355 0.51641 0.0
C2529 C 0.18427 0.63427 0.48661 0.0
N2530 N 0.10292 0.61564 0.509 0.0
N2531 N 0.1642 0.62082 0.48578 0.0
loop_
_geom_bond_atom_site_label_1
_geom_bond_atom_site_label_2
_geom_bond_distance
_geom_bond_site_symmetry_2
_ccdc_geom_bond_type
C0 C1 1.386 1_655 S
C0 C2 1.397 . S
C0 H24 0.931 . S
C1 C0 1.386 1_455 S
C1 C5 1.397 . S
C2 C0 1.397 . S
C2 C3 1.384 1_655 S
C2 H25 0.930 . S
C3 C2 1.384 1_455 S
C3 C4 1.377 . S
C3 C6 1.482 . S
C4 C3 1.377 . S
C4 C5 1.389 . S
C4 H26 0.929 . S
C5 C1 1.397 . S
C5 C4 1.389 . S
C5 H27 0.931 . S
C6 C3 1.482 . S
C6 C7 1.386 . S
C6 C11 1.392 . S
C7 C6 1.386 . S
C7 C8 1.400 . S
C7 H28 0.929 1_455 S
C8 C7 1.400 . S
C8 C9 1.376 . S
C8 C17 1.510 1_455 S
C9 C8 1.376 . S
C9 C10 1.394 . S
C9 H30 0.930 1_455 S
C10 C9 1.394 . S
C10 C11 1.361 . S
C10 C12 1.500 . S
C11 C6 1.392 . S
C11 C10 1.361 . S
C11 H29 0.931 . S
C12 C10 1.500 . S
C12 C13 1.371 1_455 S
C12 C14 1.365 . S
C13 C12 1.371 1_655 S
C13 C23 1.386 . S
C13 H31 0.931 . S
C14 C12 1.365 . S
C14 C15 1.409 . S
C14 H32 0.929 . S
C15 C14 1.409 . S
C15 C16 1.380 . S
C15 H33 0.930 . S
C16 C15 1.380 . S
C16 C23 1.357 1_455 S
C17 C8 1.510 1_655 S
C17 C18 1.341 . S
C17 C19 1.371 1_655 S
C18 C17 1.341 . S
C18 C22 1.394 . S
C18 H34 0.930 . S
C19 C17 1.371 1_455 S
C19 C20 1.392 . S
C19 H35 0.931 . S
C20 C19 1.392 . S
C20 C21 1.346 . S
C20 H38 0.932 . S
C21 C20 1.346 . S
C21 C22 1.323 1_455 S
C22 C18 1.394 . S
C22 C21 1.323 1_655 S
C22 H37 0.929 . S
C23 C13 1.386 . S
C23 C16 1.357 1_655 S
C23 H36 0.928 . S
H24 C0 0.931 . S
H25 C2 0.930 . S
H26 C4 0.929 . S
H27 C5 0.931 . S
H28 C7 0.929 1_655 S
H29 C11 0.931 . S
H30 C9 0.930 1_655 S
H31 C13 0.931 . S
H32 C14 0.929 . S
H33 C15 0.930 . S
H34 C18 0.930 . S
H35 C19 0.931 . S
H36 C23 0.928 . S
H37 C22 0.929 . S
H38 C20 0.932 . S
C39 C40 1.395 . S
C39 C41 1.397 . S
C39 H63 0.931 . S
C40 C39 1.395 . S
C40 C44 1.388 1_545 S
C41 C39 1.397 . S
C41 C42 1.389 . S
C41 H64 0.930 . S
C42 C41 1.389 . S
C42 C43 1.372 1_545 S
C42 C45 1.480 . S
C43 C42 1.372 1_565 S
C43 C44 1.389 . S
C43 H65 0.929 . S
C44 C40 1.388 1_565 S
C44 C43 1.389 . S
C44 H66 0.931 . S
C45 C42 1.480 . S
C45 C46 1.388 . S
C45 C50 1.390 . S
C46 C45 1.388 . S
C46 C47 1.402 . S
C46 H67 0.930 . S
C47 C46 1.402 . S
C47 C48 1.376 . S
C47 C56 1.513 . S
C48 C47 1.376 . S
C48 C49 1.392 . S
C48 H69 0.934 . S
C49 C48 1.392 . S
C49 C50 1.361 . S
C49 C51 1.499 1_545 S
C50 C45 1.390 . S
C50 C49 1.361 . S
C50 H68 0.931 . S
C51 C49 1.499 1_565 S
C51 C52 1.362 1_565 S
C51 C53 1.374 . S
C52 C51 1.362 1_545 S
C52 C62 1.386 . S
C52 H70 0.931 . S
C53 C51 1.374 . S
C53 C54 1.409 . S
C53 H71 0.929 . S
C54 C53 1.409 . S
C54 C55 1.379 . S
C54 H72 0.930 . S
C55 C54 1.379 . S
C55 C62 1.359 1_565 S
C56 C47 1.513 . S
C56 C57 1.341 . S
C56 C58 1.371 1_545 S
C57 C56 1.341 . S
C57 C61 1.394 . S
C57 H73 0.930 . S
C58 C56 1.371 1_565 S
C58 C59 1.392 . S
C58 H74 0.931 . S
C59 C58 1.392 . S
C59 C60 1.322 1_565 S
C59 H77 0.932 . S
C60 C59 1.322 1_545 S
C60 C61 1.345 . S
C61 C57 1.394 . S
C61 C60 1.345 . S
C61 H76 0.929 . S
C62 C52 1.386 . S
C62 C55 1.359 1_545 S
C62 H75 0.928 . S
H63 C39 0.931 . S
H64 C41 0.930 . S
H65 C43 0.929 . S
H66 C44 0.931 . S
H67 C46 0.930 . S
H68 C50 0.931 . S
H69 C48 0.934 . S
H70 C52 0.931 . S
H71 C53 0.929 . S
H72 C54 0.930 . S
H73 C57 0.930 . S
H74 C58 0.931 . S
H75 C62 0.928 . S
H76 C61 0.929 . S
H77 C59 0.932 . S
C78 C79 1.386 1_655 S
C78 C80 1.397 . S
C78 H102 0.931 . S
C79 C78 1.386 1_455 S
C79 C83 1.397 . S
C80 C78 1.397 . S
C80 C81 1.384 1_655 S
C80 H103 0.930 . S
C81 C80 1.384 1_455 S
C81 C82 1.377 . S
C81 C84 1.482 . S
C82 C81 1.377 . S
C82 C83 1.389 . S
C82 H104 0.929 . S
C83 C79 1.397 . S
C83 C82 1.389 . S
C83 H105 0.931 . S
C84 C81 1.482 . S
C84 C85 1.386 . S
C84 C89 1.392 . S
C85 C84 1.386 . S
C85 C86 1.400 . S
C85 H106 0.929 1_455 S
C86 C85 1.400 . S
C86 C87 1.376 . S
C86 C95 1.510 1_455 S
C87 C86 1.376 . S
C87 C88 1.394 . S
C87 H108 0.930 1_455 S
C88 C87 1.394 . S
C88 C89 1.361 . S
C88 C90 1.500 . S
C89 C84 1.392 . S
C89 C88 1.361 . S
C89 H107 0.931 . S
C90 C88 1.500 . S
C90 C91 1.371 1_455 S
C90 C92 1.365 . S
C91 C90 1.371 1_655 S
C91 C101 1.386 . S
C91 H109 0.931 . S
C92 C90 1.365 . S
C92 C93 1.409 . S
C92 H110 0.929 . S
C93 C92 1.409 . S
C93 C94 1.380 . S
C93 H111 0.930 . S
C94 C93 1.380 . S
C94 C101 1.357 1_455 S
C95 C86 1.510 1_655 S
C95 C96 1.341 . S
C95 C97 1.371 1_655 S
C96 C95 1.341 . S
C96 C100 1.394 . S
C96 H112 0.930 . S
C97 C95 1.371 1_455 S
C97 C98 1.392 . S
C97 H113 0.931 . S
C98 C97 1.392 . S
C98 C99 1.346 . S
C98 H116 0.932 . S
C99 C98 1.346 . S
C99 C100 1.323 1_455 S
C100 C96 1.394 . S
C100 C99 1.323 1_655 S
C100 H115 0.929 . S
C101 C91 1.386 . S
C101 C94 1.357 1_655 S
C101 H114 0.928 . S
H102 C78 0.931 . S
H103 C80 0.930 . S
H104 C82 0.929 . S
H105 C83 0.931 . S
H106 C85 0.929 1_655 S
H107 C89 0.931 . S
H108 C87 0.930 1_655 S
H109 C91 0.931 . S
H110 C92 0.929 . S
H111 C93 0.930 . S
H112 C96 0.930 . S
H113 C97 0.931 . S
H114 C101 0.928 . S
H115 C100 0.929 . S
H116 C98 0.932 . S
C117 C118 1.395 . S
C117 C119 1.397 . S
C117 H141 0.931 . S
C118 C117 1.395 . S
C118 C122 1.388 1_545 S
C119 C117 1.397 . S
C119 C120 1.389 . S
C119 H142 0.930 . S
C120 C119 1.389 . S
C120 C121 1.372 1_545 S
C120 C123 1.480 . S
C121 C120 1.372 1_565 S
C121 C122 1.389 . S
C121 H143 0.929 . S
C122 C118 1.388 1_565 S
C122 C121 1.389 . S
C122 H144 0.931 . S
C123 C120 1.480 . S
C123 C124 1.388 . S
C123 C128 1.390 . S
C124 C123 1.388 . S
C124 C125 1.402 . S
C124 H145 0.930 . S
C125 C124 1.402 . S
C125 C126 1.376 . S
C125 C134 1.513 . S
C126 C125 1.376 . S
C126 C127 1.392 . S
C126 H147 0.934 . S
C127 C126 1.392 . S
C127 C128 1.361 . S
C127 C129 1.499 1_545 S
C128 C123 1.390 . S
C128 C127 1.361 . S
C128 H146 0.931 . S
C129 C127 1.499 1_565 S
C129 C130 1.362 1_565 S
C129 C131 1.374 . S
C130 C129 1.362 1_545 S
C130 C140 1.386 . S
C130 H148 0.931 . S
C131 C129 1.374 . S
C131 C132 1.409 . S
C131 H149 0.929 . S
C132 C131 1.409 . S
C132 C133 1.379 . S
C132 H150 0.930 . S
C133 C132 1.379 . S
C133 C140 1.359 1_565 S
C134 C125 1.513 . S
C134 C135 1.341 . S
C134 C136 1.371 1_545 S
C135 C134 1.341 . S
C135 C139 1.394 . S
C135 H151 0.930 . S
C136 C134 1.371 1_565 S
C136 C137 1.392 . S
C136 H152 0.931 . S
C137 C136 1.392 . S
C137 C138 1.322 1_565 S
C137 H155 0.932 . S
C138 C137 1.322 1_545 S
C138 C139 1.345 . S
C139 C135 1.394 . S
C139 C138 1.345 . S
C139 H154 0.929 . S
C140 C130 1.386 . S
C140 C133 1.359 1_545 S
C140 H153 0.928 . S
H141 C117 0.931 . S
H142 C119 0.930 . S
H143 C121 0.929 . S
H144 C122 0.931 . S
H145 C124 0.930 . S
H146 C128 0.931 . S
H147 C126 0.934 . S
H148 C130 0.931 . S
H149 C131 0.929 . S
H150 C132 0.930 . S
H151 C135 0.930 . S
H152 C136 0.931 . S
H153 C140 0.928 . S
H154 C139 0.929 . S
H155 C137 0.932 . S
C156 C157 1.386 1_655 S
C156 C158 1.397 . S
C156 H180 0.931 . S
C157 C156 1.386 1_455 S
C157 C161 1.397 . S
C158 C156 1.397 . S
C158 C159 1.384 1_655 S
C158 H181 0.930 . S
C159 C158 1.384 1_455 S
C159 C160 1.377 . S
C159 C162 1.482 . S
C160 C159 1.377 . S
C160 C161 1.389 . S
C160 H182 0.929 . S
C161 C157 1.397 . S
C161 C160 1.389 . S
C161 H183 0.931 . S
C162 C159 1.482 . S
C162 C163 1.386 . S
C162 C167 1.392 . S
C163 C162 1.386 . S
C163 C164 1.400 . S
C163 H184 0.929 1_455 S
C164 C163 1.400 . S
C164 C165 1.376 . S
C164 C173 1.510 1_455 S
C165 C164 1.376 . S
C165 C166 1.394 . S
C165 H186 0.930 1_455 S
C166 C165 1.394 . S
C166 C167 1.361 . S
C166 C168 1.500 . S
C167 C162 1.392 . S
C167 C166 1.361 . S
C167 H185 0.931 . S
C168 C166 1.500 . S
C168 C169 1.371 1_455 S
C168 C170 1.365 . S
C169 C168 1.371 1_655 S
C169 C179 1.386 . S
C169 H187 0.931 . S
C170 C168 1.365 . S
C170 C171 1.409 . S
C170 H188 0.929 . S
C171 C170 1.409 . S
C171 C172 1.380 . S
C171 H189 0.930 . S
C172 C171 1.380 . S
C172 C179 1.357 1_455 S
C173 C164 1.510 1_655 S
C173 C174 1.341 . S
C173 C175 1.371 1_655 S
C174 C173 1.341 . S
C174 C178 1.394 . S
C174 H190 0.930 . S
C175 C173 1.371 1_455 S
C175 C176 1.392 . S
C175 H191 0.931 . S
C176 C175 1.392 . S
C176 C177 1.346 . S
C176 H194 0.932 . S
C177 C176 1.346 . S
C177 C178 1.323 1_455 S
C178 C174 1.394 . S
C178 C177 1.323 1_655 S
C178 H193 0.929 . S
C179 C169 1.386 . S
C179 C172 1.357 1_655 S
C179 H192 0.928 . S
H180 C156 0.931 . S
H181 C158 0.930 . S
H182 C160 0.929 . S
H183 C161 0.931 . S
H184 C163 0.929 1_655 S
H185 C167 0.931 . S
H186 C165 0.930 1_655 S
H187 C169 0.931 . S
H188 C170 0.929 . S
H189 C171 0.930 . S
H190 C174 0.930 . S
H191 C175 0.931 . S
H192 C179 0.928 . S
H193 C178 0.929 . S
H194 C176 0.932 . S
C195 C196 1.388 . S
C195 C197 1.397 . S
C195 H219 0.931 . S
C196 C195 1.388 . S
C196 C200 1.396 1_565 S
C197 C195 1.397 . S
C197 C198 1.382 . S
C197 H220 0.930 . S
C198 C197 1.382 . S
C198 C199 1.379 1_565 S
C198 C201 1.480 . S
C199 C198 1.379 1_545 S
C199 C200 1.389 . S
C199 H221 0.929 . S
C200 C196 1.396 1_545 S
C200 C199 1.389 . S
C200 H222 0.931 . S
C201 C198 1.480 . S
C201 C202 1.388 . S
C201 C206 1.390 . S
C202 C201 1.388 . S
C202 C203 1.402 . S
C202 H223 0.930 . S
C203 C202 1.402 . S
C203 C204 1.376 . S
C203 C212 1.512 . S
C204 C203 1.376 . S
C204 C205 1.392 1_565 S
C204 H225 0.933 . S
C205 C204 1.392 1_545 S
C205 C206 1.361 1_545 S
C205 C207 1.499 . S
C206 C201 1.390 . S
C206 C205 1.361 1_565 S
C206 H224 0.931 . S
C207 C205 1.499 . S
C207 C208 1.357 1_545 S
C207 C209 1.380 . S
C208 C207 1.357 1_565 S
C208 C218 1.386 . S
C208 H226 0.931 . S
C209 C207 1.380 . S
C209 C210 1.409 . S
C209 H227 0.929 . S
C210 C209 1.409 . S
C210 C211 1.384 . S
C210 H228 0.930 . S
C211 C210 1.384 . S
C211 C218 1.353 1_545 S
C212 C203 1.512 . S
C212 C213 1.341 . S
C212 C214 1.371 1_565 S
C213 C212 1.341 . S
C213 C217 1.394 . S
C213 H229 0.930 . S
C214 C212 1.371 1_545 S
C214 C215 1.392 . S
C214 H230 0.931 . S
C215 C214 1.392 . S
C215 C216 1.325 1_545 S
C215 H233 0.932 . S
C216 C215 1.325 1_565 S
C216 C217 1.342 . S
C217 C213 1.394 . S
C217 C216 1.342 . S
C217 H232 0.929 . S
C218 C208 1.386 . S
C218 C211 1.353 1_565 S
C218 H231 0.928 . S
H219 C195 0.931 . S
H220 C197 0.930 . S
H221 C199 0.929 . S
H222 C200 0.931 . S
H223 C202 0.930 . S
H224 C206 0.931 . S
H225 C204 0.933 . S
H226 C208 0.931 . S
H227 C209 0.929 . S
H228 C210 0.930 . S
H229 C213 0.930 . S
H230 C214 0.931 . S
H231 C218 0.928 . S
H232 C217 0.929 . S
H233 C215 0.932 . S
C234 C235 1.386 1_655 S
C234 C236 1.397 . S
C234 H258 0.931 . S
C235 C234 1.386 1_455 S
C235 C239 1.397 . S
C236 C234 1.397 . S
C236 C237 1.384 1_655 S
C236 H259 0.930 . S
C237 C236 1.384 1_455 S
C237 C238 1.377 . S
C237 C240 1.482 . S
C238 C237 1.377 . S
C238 C239 1.389 . S
C238 H260 0.929 . S
C239 C235 1.397 . S
C239 C238 1.389 . S
C239 H261 0.931 . S
C240 C237 1.482 . S
C240 C241 1.386 . S
C240 C245 1.392 . S
C241 C240 1.386 . S
C241 C242 1.400 . S
C241 H262 0.929 1_455 S
C242 C241 1.400 . S
C242 C243 1.376 . S
C242 C251 1.510 1_455 S
C243 C242 1.376 . S
C243 C244 1.394 . S
C243 H264 0.930 1_455 S
C244 C243 1.394 . S
C244 C245 1.361 . S
C244 C246 1.500 . S
C245 C240 1.392 . S
C245 C244 1.361 . S
C245 H263 0.931 . S
C246 C244 1.500 . S
C246 C247 1.371 1_455 S
C246 C248 1.365 . S
C247 C246 1.371 1_655 S
C247 C257 1.386 . S
C247 H265 0.931 . S
C248 C246 1.365 . S
C248 C249 1.409 . S
C248 H266 0.929 . S
C249 C248 1.409 . S
C249 C250 1.380 . S
C249 H267 0.930 . S
C250 C249 1.380 . S
C250 C257 1.357 1_455 S
C251 C242 1.510 1_655 S
C251 C252 1.341 . S
C251 C253 1.371 1_655 S
C252 C251 1.341 . S
C252 C256 1.394 . S
C252 H268 0.930 . S
C253 C251 1.371 1_455 S
C253 C254 1.392 . S
C253 H269 0.931 . S
C254 C253 1.392 . S
C254 C255 1.346 . S
C254 H272 0.932 . S
C255 C254 1.346 . S
C255 C256 1.323 1_455 S
C256 C252 1.394 . S
C256 C255 1.323 1_655 S
C256 H271 0.929 . S
C257 C247 1.386 . S
C257 C250 1.357 1_655 S
C257 H270 0.928 . S
H258 C234 0.931 . S
H259 C236 0.930 . S
H260 C238 0.929 . S
H261 C239 0.931 . S
H262 C241 0.929 1_655 S
H263 C245 0.931 . S
H264 C243 0.930 1_655 S
H265 C247 0.931 . S
H266 C248 0.929 . S
H267 C249 0.930 . S
H268 C252 0.930 . S
H269 C253 0.931 . S
H270 C257 0.928 . S
H271 C256 0.929 . S
H272 C254 0.932 . S
C273 C274 1.388 . S
C273 C275 1.397 . S
C273 H297 0.931 . S
C274 C273 1.388 . S
C274 C278 1.396 1_565 S
C275 C273 1.397 . S
C275 C276 1.382 . S
C275 H298 0.930 . S
C276 C275 1.382 . S
C276 C277 1.379 1_565 S
C276 C279 1.480 . S
C277 C276 1.379 1_545 S
C277 C278 1.389 . S
C277 H299 0.929 . S
C278 C274 1.396 1_545 S
C278 C277 1.389 . S
C278 H300 0.931 . S
C279 C276 1.480 . S
C279 C280 1.388 . S
C279 C284 1.390 . S
C280 C279 1.388 . S
C280 C281 1.402 . S
C280 H301 0.930 . S
C281 C280 1.402 . S
C281 C282 1.376 . S
C281 C290 1.512 . S
C282 C281 1.376 . S
C282 C283 1.392 1_565 S
C282 H303 0.933 . S
C283 C282 1.392 1_545 S
C283 C284 1.361 1_545 S
C283 C285 1.499 . S
C284 C279 1.390 . S
C284 C283 1.361 1_565 S
C284 H302 0.931 . S
C285 C283 1.499 . S
C285 C286 1.357 1_545 S
C285 C287 1.380 . S
C286 C285 1.357 1_565 S
C286 C296 1.386 . S
C286 H304 0.931 . S
C287 C285 1.380 . S
C287 C288 1.409 . S
C287 H305 0.929 . S
C288 C287 1.409 . S
C288 C289 1.384 . S
C288 H306 0.930 . S
C289 C288 1.384 . S
C289 C296 1.353 1_545 S
C290 C281 1.512 . S
C290 C291 1.341 . S
C290 C292 1.371 1_565 S
C291 C290 1.341 . S
C291 C295 1.394 . S
C291 H307 0.930 . S
C292 C290 1.371 1_545 S
C292 C293 1.392 . S
C292 H308 0.931 . S
C293 C292 1.392 . S
C293 C294 1.325 1_545 S
C293 H311 0.932 . S
C294 C293 1.325 1_565 S
C294 C295 1.342 . S
C295 C291 1.394 . S
C295 C294 1.342 . S
C295 H310 0.929 . S
C296 C286 1.386 . S
C296 C289 1.353 1_565 S
C296 H309 0.928 . S
H297 C273 0.931 . S
H298 C275 0.930 . S
H299 C277 0.929 . S
H300 C278 0.931 . S
H301 C280 0.930 . S
H302 C284 0.931 . S
H303 C282 0.933 . S
H304 C286 0.931 . S
H305 C287 0.929 . S
H306 C288 0.930 . S
H307 C291 0.930 . S
H308 C292 0.931 . S
H309 C296 0.928 . S
H310 C295 0.929 . S
H311 C293 0.932 . S
C312 C313 1.388 . S
C312 C314 1.397 . S
C312 H336 0.931 . S
C313 C312 1.388 . S
C313 C317 1.396 1_556 S
C314 C312 1.397 . S
C314 C315 1.382 . S
C314 H337 0.930 . S
C315 C314 1.382 . S
C315 C316 1.379 1_556 S
C315 C318 1.480 . S
C316 C315 1.379 1_554 S
C316 C317 1.389 . S
C316 H338 0.929 . S
C317 C313 1.396 1_554 S
C317 C316 1.389 . S
C317 H339 0.931 . S
C318 C315 1.480 . S
C318 C319 1.388 . S
C318 C323 1.390 . S
C319 C318 1.388 . S
C319 C320 1.402 . S
C319 H340 0.930 . S
C320 C319 1.402 . S
C320 C321 1.376 . S
C320 C329 1.512 . S
C321 C320 1.376 . S
C321 C322 1.392 1_556 S
C321 H342 0.933 . S
C322 C321 1.392 1_554 S
C322 C323 1.361 1_554 S
C322 C324 1.499 . S
C323 C318 1.390 . S
C323 C322 1.361 1_556 S
C323 H341 0.931 . S
C324 C322 1.499 . S
C324 C325 1.357 1_554 S
C324 C326 1.380 . S
C325 C324 1.357 1_556 S
C325 C335 1.386 . S
C325 H343 0.931 . S
C326 C324 1.380 . S
C326 C327 1.409 . S
C326 H344 0.929 . S
C327 C326 1.409 . S
C327 C328 1.384 . S
C327 H345 0.930 . S
C328 C327 1.384 . S
C328 C335 1.353 1_554 S
C329 C320 1.512 . S
C329 C330 1.341 . S
C329 C331 1.371 1_556 S
C330 C329 1.341 . S
C330 C334 1.394 . S
C330 H346 0.930 . S
C331 C329 1.371 1_554 S
C331 C332 1.392 . S
C331 H347 0.931 . S
C332 C331 1.392 . S
C332 C333 1.325 1_554 S
C332 H350 0.932 . S
C333 C332 1.325 1_556 S
C333 C334 1.342 . S
C334 C330 1.394 . S
C334 C333 1.342 . S
C334 H349 0.929 . S
C335 C325 1.386 . S
C335 C328 1.353 1_556 S
C335 H348 0.928 . S
H336 C312 0.931 . S
H337 C314 0.930 . S
H338 C316 0.929 . S
H339 C317 0.931 . S
H340 C319 0.930 . S
H341 C323 0.931 . S
H342 C321 0.933 . S
H343 C325 0.931 . S
H344 C326 0.929 . S
H345 C327 0.930 . S
H346 C330 0.930 . S
H347 C331 0.931 . S
H348 C335 0.928 . S
H349 C334 0.929 . S
H350 C332 0.932 . S
C351 C352 1.395 . S
C351 C353 1.397 . S
C351 H375 0.931 . S
C352 C351 1.395 . S
C352 C356 1.388 1_554 S
C353 C351 1.397 . S
C353 C354 1.389 . S
C353 H376 0.930 . S
C354 C353 1.389 . S
C354 C355 1.372 1_554 S
C354 C357 1.480 . S
C355 C354 1.372 1_556 S
C355 C356 1.389 . S
C355 H377 0.929 . S
C356 C352 1.388 1_556 S
C356 C355 1.389 . S
C356 H378 0.931 . S
C357 C354 1.480 . S
C357 C358 1.388 . S
C357 C362 1.390 . S
C358 C357 1.388 . S
C358 C359 1.402 . S
C358 H379 0.930 . S
C359 C358 1.402 . S
C359 C360 1.376 . S
C359 C368 1.513 . S
C360 C359 1.376 . S
C360 C361 1.392 . S
C360 H381 0.934 . S
C361 C360 1.392 . S
C361 C362 1.361 . S
C361 C363 1.499 1_554 S
C362 C357 1.390 . S
C362 C361 1.361 . S
C362 H380 0.931 . S
C363 C361 1.499 1_556 S
C363 C364 1.362 1_556 S
C363 C365 1.374 . S
C364 C363 1.362 1_554 S
C364 C374 1.386 . S
C364 H382 0.931 . S
C365 C363 1.374 . S
C365 C366 1.409 . S
C365 H383 0.929 . S
C366 C365 1.409 . S
C366 C367 1.379 . S
C366 H384 0.930 . S
C367 C366 1.379 . S
C367 C374 1.359 1_556 S
C368 C359 1.513 . S
C368 C369 1.341 . S
C368 C370 1.371 1_554 S
C369 C368 1.341 . S
C369 C373 1.394 . S
C369 H385 0.930 . S
C370 C368 1.371 1_556 S
C370 C371 1.392 . S
C370 H386 0.931 . S
C371 C370 1.392 . S
C371 C372 1.322 1_556 S
C371 H389 0.932 . S
C372 C371 1.322 1_554 S
C372 C373 1.345 . S
C373 C369 1.394 . S
C373 C372 1.345 . S
C373 H388 0.929 . S
C374 C364 1.386 . S
C374 C367 1.359 1_554 S
C374 H387 0.928 . S
H375 C351 0.931 . S
H376 C353 0.930 . S
H377 C355 0.929 . S
H378 C356 0.931 . S
H379 C358 0.930 . S
H380 C362 0.931 . S
H381 C360 0.934 . S
H382 C364 0.931 . S
H383 C365 0.929 . S
H384 C366 0.930 . S
H385 C369 0.930 . S
H386 C370 0.931 . S
H387 C374 0.928 . S
H388 C373 0.929 . S
H389 C371 0.932 . S
C390 C391 1.388 . S
C390 C392 1.397 . S
C390 H414 0.931 . S
C391 C390 1.388 . S
C391 C395 1.396 1_556 S
C392 C390 1.397 . S
C392 C393 1.382 . S
C392 H415 0.930 . S
C393 C392 1.382 . S
C393 C394 1.379 1_556 S
C393 C396 1.480 . S
C394 C393 1.379 1_554 S
C394 C395 1.389 . S
C394 H416 0.929 . S
C395 C391 1.396 1_554 S
C395 C394 1.389 . S
C395 H417 0.931 . S
C396 C393 1.480 . S
C396 C397 1.388 . S
C396 C401 1.390 . S
C397 C396 1.388 . S
C397 C398 1.402 . S
C397 H418 0.930 . S
C398 C397 1.402 . S
C398 C399 1.376 . S
C398 C407 1.512 . S
C399 C398 1.376 . S
C399 C400 1.392 1_556 S
C399 H420 0.933 . S
C400 C399 1.392 1_554 S
C400 C401 1.361 1_554 S
C400 C402 1.499 . S
C401 C396 1.390 . S
C401 C400 1.361 1_556 S
C401 H419 0.931 . S
C402 C400 1.499 . S
C402 C403 1.357 1_554 S
C402 C404 1.380 . S
C403 C402 1.357 1_556 S
C403 C413 1.386 . S
C403 H421 0.931 . S
C404 C402 1.380 . S
C404 C405 1.409 . S
C404 H422 0.929 . S
C405 C404 1.409 . S
C405 C406 1.384 . S
C405 H423 0.930 . S
C406 C405 1.384 . S
C406 C413 1.353 1_554 S
C407 C398 1.512 . S
C407 C408 1.341 . S
C407 C409 1.371 1_556 S
C408 C407 1.341 . S
C408 C412 1.394 . S
C408 H424 0.930 . S
C409 C407 1.371 1_554 S
C409 C410 1.392 . S
C409 H425 0.931 . S
C410 C409 1.392 . S
C410 C411 1.325 1_554 S
C410 H428 0.932 . S
C411 C410 1.325 1_556 S
C411 C412 1.342 . S
C412 C408 1.394 . S
C412 C411 1.342 . S
C412 H427 0.929 . S
C413 C403 1.386 . S
C413 C406 1.353 1_556 S
C413 H426 0.928 . S
H414 C390 0.931 . S
H415 C392 0.930 . S
H416 C394 0.929 . S
H417 C395 0.931 . S
H418 C397 0.930 . S
H419 C401 0.931 . S
H420 C399 0.933 . S
H421 C403 0.931 . S
H422 C404 0.929 . S
H423 C405 0.930 . S
H424 C408 0.930 . S
H425 C409 0.931 . S
H426 C413 0.928 . S
H427 C412 0.929 . S
H428 C410 0.932 . S
C429 C430 1.395 . S
C429 C431 1.397 . S
C429 H453 0.931 . S
C430 C429 1.395 . S
C430 C434 1.388 1_554 S
C431 C429 1.397 . S
C431 C432 1.389 . S
C431 H454 0.930 . S
C432 C431 1.389 . S
C432 C433 1.372 1_554 S
C432 C435 1.480 . S
C433 C432 1.372 1_556 S
C433 C434 1.389 . S
C433 H455 0.929 . S
C434 C430 1.388 1_556 S
C434 C433 1.389 . S
C434 H456 0.931 . S
C435 C432 1.480 . S
C435 C436 1.388 . S
C435 C440 1.390 . S
C436 C435 1.388 . S
C436 C437 1.402 . S
C436 H457 0.930 . S
C437 C436 1.402 . S
C437 C438 1.376 . S
C437 C446 1.513 . S
C438 C437 1.376 . S
C438 C439 1.392 . S
C438 H459 0.934 . S
C439 C438 1.392 . S
C439 C440 1.361 . S
C439 C441 1.499 1_554 S
C440 C435 1.390 . S
C440 C439 1.361 . S
C440 H458 0.931 . S
C441 C439 1.499 1_556 S
C441 C442 1.362 1_556 S
C441 C443 1.374 . S
C442 C441 1.362 1_554 S
C442 C452 1.386 . S
C442 H460 0.931 . S
C443 C441 1.374 . S
C443 C444 1.409 . S
C443 H461 0.929 . S
C444 C443 1.409 . S
C444 C445 1.379 . S
C444 H462 0.930 . S
C445 C444 1.379 . S
C445 C452 1.359 1_556 S
C446 C437 1.513 . S
C446 C447 1.341 . S
C446 C448 1.371 1_554 S
C447 C446 1.341 . S
C447 C451 1.394 . S
C447 H463 0.930 . S
C448 C446 1.371 1_556 S
C448 C449 1.392 . S
C448 H464 0.931 . S
C449 C448 1.392 . S
C449 C450 1.322 1_556 S
C449 H467 0.932 . S
C450 C449 1.322 1_554 S
C450 C451 1.345 . S
C451 C447 1.394 . S
C451 C450 1.345 . S
C451 H466 0.929 . S
C452 C442 1.386 . S
C452 C445 1.359 1_554 S
C452 H465 0.928 . S
H453 C429 0.931 . S
H454 C431 0.930 . S
H455 C433 0.929 . S
H456 C434 0.931 . S
H457 C436 0.930 . S
H458 C440 0.931 . S
H459 C438 0.934 . S
H460 C442 0.931 . S
H461 C443 0.929 . S
H462 C444 0.930 . S
H463 C447 0.930 . S
H464 C448 0.931 . S
H465 C452 0.928 . S
H466 C451 0.929 . S
H467 C449 0.932 . S
C468 C469 1.386 . S
C468 C470 1.397 . S
C468 H492 0.931 . S
C469 C468 1.386 . S
C469 C473 1.397 . S
C470 C468 1.397 . S
C470 C471 1.384 . S
C470 H493 0.930 . S
C471 C470 1.384 . S
C471 C472 1.377 . S
C471 C474 1.481 . S
C472 C471 1.377 . S
C472 C473 1.389 . S
C472 H494 0.929 . S
C473 C469 1.397 . S
C473 C472 1.389 . S
C473 H495 0.931 . S
C474 C471 1.481 . S
C474 C475 1.387 . S
C474 C479 1.390 . S
C475 C474 1.387 . S
C475 C476 1.401 . S
C475 H496 0.930 . S
C476 C475 1.401 . S
C476 C477 1.376 . S
C476 C485 1.511 . S
C477 C476 1.376 . S
C477 C478 1.392 . S
C477 H498 0.931 . S
C478 C477 1.392 . S
C478 C479 1.361 . S
C478 C480 1.500 . S
C479 C474 1.390 . S
C479 C478 1.361 . S
C479 H497 0.931 . S
C480 C478 1.500 . S
C480 C481 1.371 . S
C480 C482 1.365 . S
C481 C480 1.371 . S
C481 C491 1.386 . S
C481 H499 0.931 . S
C482 C480 1.365 . S
C482 C483 1.409 . S
C482 H500 0.929 . S
C483 C482 1.409 . S
C483 C484 1.380 . S
C483 H501 0.930 . S
C484 C483 1.380 . S
C484 C491 1.357 . S
C485 C476 1.511 . S
C485 C486 1.341 . S
C485 C487 1.371 . S
C486 C485 1.341 . S
C486 C490 1.394 . S
C486 H502 0.930 . S
C487 C485 1.371 . S
C487 C488 1.392 . S
C487 H503 0.931 . S
C488 C487 1.392 . S
C488 C489 1.331 . S
C488 H506 0.932 . S
C489 C488 1.331 . S
C489 C490 1.336 . S
C490 C486 1.394 . S
C490 C489 1.336 . S
C490 H505 0.929 . S
C491 C481 1.386 . S
C491 C484 1.357 . S
C491 H504 0.928 . S
H492 C468 0.931 . S
H493 C470 0.930 . S
H494 C472 0.929 . S
H495 C473 0.931 . S
H496 C475 0.930 . S
H497 C479 0.931 . S
H498 C477 0.931 . S
H499 C481 0.931 . S
H500 C482 0.929 . S
H501 C483 0.930 . S
H502 C486 0.930 . S
H503 C487 0.931 . S
H504 C491 0.928 . S
H505 C490 0.929 . S
H506 C488 0.932 . S
C507 C508 1.386 . S
C507 C509 1.397 . S
C507 H531 0.931 . S
C508 C507 1.386 . S
C508 C512 1.397 . S
C509 C507 1.397 . S
C509 C510 1.384 . S
C509 H532 0.930 . S
C510 C509 1.384 . S
C510 C511 1.377 . S
C510 C513 1.481 . S
C511 C510 1.377 . S
C511 C512 1.389 . S
C511 H533 0.929 . S
C512 C508 1.397 . S
C512 C511 1.389 . S
C512 H534 0.931 . S
C513 C510 1.481 . S
C513 C514 1.387 . S
C513 C518 1.390 . S
C514 C513 1.387 . S
C514 C515 1.401 . S
C514 H535 0.930 . S
C515 C514 1.401 . S
C515 C516 1.376 . S
C515 C524 1.511 . S
C516 C515 1.376 . S
C516 C517 1.392 . S
C516 H537 0.931 . S
C517 C516 1.392 . S
C517 C518 1.361 . S
C517 C519 1.500 . S
C518 C513 1.390 . S
C518 C517 1.361 . S
C518 H536 0.931 . S
C519 C517 1.500 . S
C519 C520 1.371 . S
C519 C521 1.365 . S
C520 C519 1.371 . S
C520 C530 1.386 . S
C520 H538 0.931 . S
C521 C519 1.365 . S
C521 C522 1.409 . S
C521 H539 0.929 . S
C522 C521 1.409 . S
C522 C523 1.380 . S
C522 H540 0.930 . S
C523 C522 1.380 . S
C523 C530 1.357 . S
C524 C515 1.511 . S
C524 C525 1.341 . S
C524 C526 1.371 . S
C525 C524 1.341 . S
C525 C529 1.394 . S
C525 H541 0.930 . S
C526 C524 1.371 . S
C526 C527 1.392 . S
C526 H542 0.931 . S
C527 C526 1.392 . S
C527 C528 1.331 . S
C527 H545 0.932 . S
C528 C527 1.331 . S
C528 C529 1.336 . S
C529 C525 1.394 . S
C529 C528 1.336 . S
C529 H544 0.929 . S
C530 C520 1.386 . S
C530 C523 1.357 . S
C530 H543 0.928 . S
H531 C507 0.931 . S
H532 C509 0.930 . S
H533 C511 0.929 . S
H534 C512 0.931 . S
H535 C514 0.930 . S
H536 C518 0.931 . S
H537 C516 0.931 . S
H538 C520 0.931 . S
H539 C521 0.929 . S
H540 C522 0.930 . S
H541 C525 0.930 . S
H542 C526 0.931 . S
H543 C530 0.928 . S
H544 C529 0.929 . S
H545 C527 0.932 . S
C546 C547 1.386 . S
C546 C548 1.397 . S
C546 H570 0.931 . S
C547 C546 1.386 . S
C547 C551 1.397 . S
C548 C546 1.397 . S
C548 C549 1.384 . S
C548 H571 0.930 . S
C549 C548 1.384 . S
C549 C550 1.377 . S
C549 C552 1.481 . S
C550 C549 1.377 . S
C550 C551 1.389 . S
C550 H572 0.929 . S
C551 C547 1.397 . S
C551 C550 1.389 . S
C551 H573 0.931 . S
C552 C549 1.481 . S
C552 C553 1.387 . S
C552 C557 1.390 . S
C553 C552 1.387 . S
C553 C554 1.401 . S
C553 H574 0.930 . S
C554 C553 1.401 . S
C554 C555 1.376 . S
C554 C563 1.511 . S
C555 C554 1.376 . S
C555 C556 1.392 . S
C555 H576 0.931 . S
C556 C555 1.392 . S
C556 C557 1.361 . S
C556 C558 1.500 . S
C557 C552 1.390 . S
C557 C556 1.361 . S
C557 H575 0.931 . S
C558 C556 1.500 . S
C558 C559 1.371 . S
C558 C560 1.365 . S
C559 C558 1.371 . S
C559 C569 1.386 . S
C559 H577 0.931 . S
C560 C558 1.365 . S
C560 C561 1.409 . S
C560 H578 0.929 . S
C561 C560 1.409 . S
C561 C562 1.380 . S
C561 H579 0.930 . S
C562 C561 1.380 . S
C562 C569 1.357 . S
C563 C554 1.511 . S
C563 C564 1.341 . S
C563 C565 1.371 . S
C564 C563 1.341 . S
C564 C568 1.394 . S
C564 H580 0.930 . S
C565 C563 1.371 . S
C565 C566 1.392 . S
C565 H581 0.931 . S
C566 C565 1.392 . S
C566 C567 1.331 . S
C566 H584 0.932 . S
C567 C566 1.331 . S
C567 C568 1.336 . S
C568 C564 1.394 . S
C568 C567 1.336 . S
C568 H583 0.929 . S
C569 C559 1.386 . S
C569 C562 1.357 . S
C569 H582 0.928 . S
H570 C546 0.931 . S
H571 C548 0.930 . S
H572 C550 0.929 . S
H573 C551 0.931 . S
H574 C553 0.930 . S
H575 C557 0.931 . S
H576 C555 0.931 . S
H577 C559 0.931 . S
H578 C560 0.929 . S
H579 C561 0.930 . S
H580 C564 0.930 . S
H581 C565 0.931 . S
H582 C569 0.928 . S
H583 C568 0.929 . S
H584 C566 0.932 . S
C585 C586 1.386 . S
C585 C587 1.397 . S
C585 H609 0.931 . S
C586 C585 1.386 . S
C586 C590 1.397 . S
C587 C585 1.397 . S
C587 C588 1.384 . S
C587 H610 0.930 . S
C588 C587 1.384 . S
C588 C589 1.377 . S
C588 C591 1.481 . S
C589 C588 1.377 . S
C589 C590 1.389 . S
C589 H611 0.929 . S
C590 C586 1.397 . S
C590 C589 1.389 . S
C590 H612 0.931 . S
C591 C588 1.481 . S
C591 C592 1.387 . S
C591 C596 1.390 . S
C592 C591 1.387 . S
C592 C593 1.401 . S
C592 H613 0.930 . S
C593 C592 1.401 . S
C593 C594 1.376 . S
C593 C602 1.511 . S
C594 C593 1.376 . S
C594 C595 1.392 . S
C594 H615 0.931 . S
C595 C594 1.392 . S
C595 C596 1.361 . S
C595 C597 1.500 . S
C596 C591 1.390 . S
C596 C595 1.361 . S
C596 H614 0.931 . S
C597 C595 1.500 . S
C597 C598 1.371 . S
C597 C599 1.365 . S
C598 C597 1.371 . S
C598 C608 1.386 . S
C598 H616 0.931 . S
C599 C597 1.365 . S
C599 C600 1.409 . S
C599 H617 0.929 . S
C600 C599 1.409 . S
C600 C601 1.380 . S
C600 H618 0.930 . S
C601 C600 1.380 . S
C601 C608 1.357 . S
C602 C593 1.511 . S
C602 C603 1.341 . S
C602 C604 1.371 . S
C603 C602 1.341 . S
C603 C607 1.394 . S
C603 H619 0.930 . S
C604 C602 1.371 . S
C604 C605 1.392 . S
C604 H620 0.931 . S
C605 C604 1.392 . S
C605 C606 1.331 . S
C605 H623 0.932 . S
C606 C605 1.331 . S
C606 C607 1.336 . S
C607 C603 1.394 . S
C607 C606 1.336 . S
C607 H622 0.929 . S
C608 C598 1.386 . S
C608 C601 1.357 . S
C608 H621 0.928 . S
H609 C585 0.931 . S
H610 C587 0.930 . S
H611 C589 0.929 . S
H612 C590 0.931 . S
H613 C592 0.930 . S
H614 C596 0.931 . S
H615 C594 0.931 . S
H616 C598 0.931 . S
H617 C599 0.929 . S
H618 C600 0.930 . S
H619 C603 0.930 . S
H620 C604 0.931 . S
H621 C608 0.928 . S
H622 C607 0.929 . S
H623 C605 0.932 . S
C624 C625 1.386 . S
C624 C626 1.397 . S
C624 H648 0.931 . S
C625 C624 1.386 . S
C625 C629 1.397 . S
C626 C624 1.397 . S
C626 C627 1.384 . S
C626 H649 0.930 . S
C627 C626 1.384 . S
C627 C628 1.377 . S
C627 C630 1.481 . S
C628 C627 1.377 . S
C628 C629 1.389 . S
C628 H650 0.929 . S
C629 C625 1.397 . S
C629 C628 1.389 . S
C629 H651 0.931 . S
C630 C627 1.481 . S
C630 C631 1.387 . S
C630 C635 1.390 . S
C631 C630 1.387 . S
C631 C632 1.401 . S
C631 H652 0.930 . S
C632 C631 1.401 . S
C632 C633 1.376 . S
C632 C641 1.511 . S
C633 C632 1.376 . S
C633 C634 1.392 . S
C633 H654 0.931 . S
C634 C633 1.392 . S
C634 C635 1.361 . S
C634 C636 1.500 . S
C635 C630 1.390 . S
C635 C634 1.361 . S
C635 H653 0.931 . S
C636 C634 1.500 . S
C636 C637 1.371 . S
C636 C638 1.365 . S
C637 C636 1.371 . S
C637 C647 1.386 . S
C637 H655 0.931 . S
C638 C636 1.365 . S
C638 C639 1.409 . S
C638 H656 0.929 . S
C639 C638 1.409 . S
C639 C640 1.380 . S
C639 H657 0.930 . S
C640 C639 1.380 . S
C640 C647 1.357 . S
C641 C632 1.511 . S
C641 C642 1.341 . S
C641 C643 1.371 . S
C642 C641 1.341 . S
C642 C646 1.394 . S
C642 H658 0.930 . S
C643 C641 1.371 . S
C643 C644 1.392 . S
C643 H659 0.931 . S
C644 C643 1.392 . S
C644 C645 1.331 . S
C644 H662 0.932 . S
C645 C644 1.331 . S
C645 C646 1.336 . S
C646 C642 1.394 . S
C646 C645 1.336 . S
C646 H661 0.929 . S
C647 C637 1.386 . S
C647 C640 1.357 . S
C647 H660 0.928 . S
H648 C624 0.931 . S
H649 C626 0.930 . S
H650 C628 0.929 . S
H651 C629 0.931 . S
H652 C631 0.930 . S
H653 C635 0.931 . S
H654 C633 0.931 . S
H655 C637 0.931 . S
H656 C638 0.929 . S
H657 C639 0.930 . S
H658 C642 0.930 . S
H659 C643 0.931 . S
H660 C647 0.928 . S
H661 C646 0.929 . S
H662 C644 0.932 . S
C663 C664 1.386 . S
C663 C665 1.397 . S
C663 H687 0.931 . S
C664 C663 1.386 . S
C664 C668 1.397 . S
C665 C663 1.397 . S
C665 C666 1.384 . S
C665 H688 0.930 . S
C666 C665 1.384 . S
C666 C667 1.377 . S
C666 C669 1.481 . S
C667 C666 1.377 . S
C667 C668 1.389 . S
C667 H689 0.929 . S
C668 C664 1.397 . S
C668 C667 1.389 . S
C668 H690 0.931 . S
C669 C666 1.481 . S
C669 C670 1.387 . S
C669 C674 1.390 . S
C670 C669 1.387 . S
C670 C671 1.401 . S
C670 H691 0.930 . S
C671 C670 1.401 . S
C671 C672 1.376 . S
C671 C680 1.511 . S
C672 C671 1.376 . S
C672 C673 1.392 . S
C672 H693 0.931 . S
C673 C672 1.392 . S
C673 C674 1.361 . S
C673 C675 1.500 . S
C674 C669 1.390 . S
C674 C673 1.361 . S
C674 H692 0.931 . S
C675 C673 1.500 . S
C675 C676 1.371 . S
C675 C677 1.365 . S
C676 C675 1.371 . S
C676 C686 1.386 . S
C676 H694 0.931 . S
C677 C675 1.365 . S
C677 C678 1.409 . S
C677 H695 0.929 . S
C678 C677 1.409 . S
C678 C679 1.380 . S
C678 H696 0.930 . S
C679 C678 1.380 . S
C679 C686 1.357 . S
C680 C671 1.511 . S
C680 C681 1.341 . S
C680 C682 1.371 . S
C681 C680 1.341 . S
C681 C685 1.394 . S
C681 H697 0.930 . S
C682 C680 1.371 . S
C682 C683 1.392 . S
C682 H698 0.931 . S
C683 C682 1.392 . S
C683 C684 1.331 . S
C683 H701 0.932 . S
C684 C683 1.331 . S
C684 C685 1.336 . S
C685 C681 1.394 . S
C685 C684 1.336 . S
C685 H700 0.929 . S
C686 C676 1.386 . S
C686 C679 1.357 . S
C686 H699 0.928 . S
H687 C663 0.931 . S
H688 C665 0.930 . S
H689 C667 0.929 . S
H690 C668 0.931 . S
H691 C670 0.930 . S
H692 C674 0.931 . S
H693 C672 0.931 . S
H694 C676 0.931 . S
H695 C677 0.929 . S
H696 C678 0.930 . S
H697 C681 0.930 . S
H698 C682 0.931 . S
H699 C686 0.928 . S
H700 C685 0.929 . S
H701 C683 0.932 . S
C702 C703 1.386 . S
C702 C704 1.397 . S
C702 H726 0.931 . S
C703 C702 1.386 . S
C703 C707 1.397 . S
C704 C702 1.397 . S
C704 C705 1.384 . S
C704 H727 0.930 . S
C705 C704 1.384 . S
C705 C706 1.377 . S
C705 C708 1.481 . S
C706 C705 1.377 . S
C706 C707 1.389 . S
C706 H728 0.929 . S
C707 C703 1.397 . S
C707 C706 1.389 . S
C707 H729 0.931 . S
C708 C705 1.481 . S
C708 C709 1.387 . S
C708 C713 1.390 . S
C709 C708 1.387 . S
C709 C710 1.401 . S
C709 H730 0.930 . S
C710 C709 1.401 . S
C710 C711 1.376 . S
C710 C719 1.511 . S
C711 C710 1.376 . S
C711 C712 1.392 . S
C711 H732 0.931 . S
C712 C711 1.392 . S
C712 C713 1.361 . S
C712 C714 1.500 . S
C713 C708 1.390 . S
C713 C712 1.361 . S
C713 H731 0.931 . S
C714 C712 1.500 . S
C714 C715 1.371 . S
C714 C716 1.365 . S
C715 C714 1.371 . S
C715 C725 1.386 . S
C715 H733 0.931 . S
C716 C714 1.365 . S
C716 C717 1.409 . S
C716 H734 0.929 . S
C717 C716 1.409 . S
C717 C718 1.380 . S
C717 H735 0.930 . S
C718 C717 1.380 . S
C718 C725 1.357 . S
C719 C710 1.511 . S
C719 C720 1.341 . S
C719 C721 1.371 . S
C720 C719 1.341 . S
C720 C724 1.394 . S
C720 H736 0.930 . S
C721 C719 1.371 . S
C721 C722 1.392 . S
C721 H737 0.931 . S
C722 C721 1.392 . S
C722 C723 1.331 . S
C722 H740 0.932 . S
C723 C722 1.331 . S
C723 C724 1.336 . S
C724 C720 1.394 . S
C724 C723 1.336 . S
C724 H739 0.929 . S
C725 C715 1.386 . S
C725 C718 1.357 . S
C725 H738 0.928 . S
H726 C702 0.931 . S
H727 C704 0.930 . S
H728 C706 0.929 . S
H729 C707 0.931 . S
H730 C709 0.930 . S
H731 C713 0.931 . S
H732 C711 0.931 . S
H733 C715 0.931 . S
H734 C716 0.929 . S
H735 C717 0.930 . S
H736 C720 0.930 . S
H737 C721 0.931 . S
H738 C725 0.928 . S
H739 C724 0.929 . S
H740 C722 0.932 . S
C741 C742 1.386 . S
C741 C743 1.397 . S
C741 H765 0.931 . S
C742 C741 1.386 . S
C742 C746 1.397 . S
C743 C741 1.397 . S
C743 C744 1.384 . S
C743 H766 0.930 . S
C744 C743 1.384 . S
C744 C745 1.377 . S
C744 C747 1.481 . S
C745 C744 1.377 . S
C745 C746 1.389 . S
C745 H767 0.929 . S
C746 C742 1.397 . S
C746 C745 1.389 . S
C746 H768 0.931 . S
C747 C744 1.481 . S
C747 C748 1.387 . S
C747 C752 1.390 . S
C748 C747 1.387 . S
C748 C749 1.401 . S
C748 H769 0.930 . S
C749 C748 1.401 . S
C749 C750 1.376 . S
C749 C758 1.511 . S
C750 C749 1.376 . S
C750 C751 1.392 . S
C750 H771 0.931 . S
C751 C750 1.392 . S
C751 C752 1.361 . S
C751 C753 1.500 . S
C752 C747 1.390 . S
C752 C751 1.361 . S
C752 H770 0.931 . S
C753 C751 1.500 . S
C753 C754 1.371 . S
C753 C755 1.365 . S
C754 C753 1.371 . S
C754 C764 1.386 . S
C754 H772 0.931 . S
C755 C753 1.365 . S
C755 C756 1.409 . S
C755 H773 0.929 . S
C756 C755 1.409 . S
C756 C757 1.380 . S
C756 H774 0.930 . S
C757 C756 1.380 . S
C757 C764 1.357 . S
C758 C749 1.511 . S
C758 C759 1.341 . S
C758 C760 1.371 . S
C759 C758 1.341 . S
C759 C763 1.394 . S
C759 H775 0.930 . S
C760 C758 1.371 . S
C760 C761 1.392 . S
C760 H776 0.931 . S
C761 C760 1.392 . S
C761 C762 1.331 . S
C761 H779 0.932 . S
C762 C761 1.331 . S
C762 C763 1.336 . S
C763 C759 1.394 . S
C763 C762 1.336 . S
C763 H778 0.929 . S
C764 C754 1.386 . S
C764 C757 1.357 . S
C764 H777 0.928 . S
H765 C741 0.931 . S
H766 C743 0.930 . S
H767 C745 0.929 . S
H768 C746 0.931 . S
H769 C748 0.930 . S
H770 C752 0.931 . S
H771 C750 0.931 . S
H772 C754 0.931 . S
H773 C755 0.929 . S
H774 C756 0.930 . S
H775 C759 0.930 . S
H776 C760 0.931 . S
H777 C764 0.928 . S
H778 C763 0.929 . S
H779 C761 0.932 . S
C780 C781 1.386 . S
C780 C782 1.397 . S
C780 H804 0.931 . S
C781 C780 1.386 . S
C781 C785 1.397 . S
C782 C780 1.397 . S
C782 C783 1.384 . S
C782 H805 0.930 . S
C783 C782 1.384 . S
C783 C784 1.377 . S
C783 C786 1.481 . S
C784 C783 1.377 . S
C784 C785 1.389 . S
C784 H806 0.929 . S
C785 C781 1.397 . S
C785 C784 1.389 . S
C785 H807 0.931 . S
C786 C783 1.481 . S
C786 C787 1.387 . S
C786 C791 1.390 . S
C787 C786 1.387 . S
C787 C788 1.401 . S
C787 H808 0.930 . S
C788 C787 1.401 . S
C788 C789 1.376 . S
C788 C797 1.511 . S
C789 C788 1.376 . S
C789 C790 1.392 . S
C789 H810 0.931 . S
C790 C789 1.392 . S
C790 C791 1.361 . S
C790 C792 1.500 . S
C791 C786 1.390 . S
C791 C790 1.361 . S
C791 H809 0.931 . S
C792 C790 1.500 . S
C792 C793 1.371 . S
C792 C794 1.365 . S
C793 C792 1.371 . S
C793 C803 1.386 . S
C793 H811 0.931 . S
C794 C792 1.365 . S
C794 C795 1.409 . S
C794 H812 0.929 . S
C795 C794 1.409 . S
C795 C796 1.380 . S
C795 H813 0.930 . S
C796 C795 1.380 . S
C796 C803 1.357 . S
C797 C788 1.511 . S
C797 C798 1.341 . S
C797 C799 1.371 . S
C798 C797 1.341 . S
C798 C802 1.394 . S
C798 H814 0.930 . S
C799 C797 1.371 . S
C799 C800 1.392 . S
C799 H815 0.931 . S
C800 C799 1.392 . S
C800 C801 1.331 . S
C800 H818 0.932 . S
C801 C800 1.331 . S
C801 C802 1.336 . S
C802 C798 1.394 . S
C802 C801 1.336 . S
C802 H817 0.929 . S
C803 C793 1.386 . S
C803 C796 1.357 . S
C803 H816 0.928 . S
H804 C780 0.931 . S
H805 C782 0.930 . S
H806 C784 0.929 . S
H807 C785 0.931 . S
H808 C787 0.930 . S
H809 C791 0.931 . S
H810 C789 0.931 . S
H811 C793 0.931 . S
H812 C794 0.929 . S
H813 C795 0.930 . S
H814 C798 0.930 . S
H815 C799 0.931 . S
H816 C803 0.928 . S
H817 C802 0.929 . S
H818 C800 0.932 . S
C819 C820 1.386 . S
C819 C821 1.397 . S
C819 H843 0.931 . S
C820 C819 1.386 . S
C820 C824 1.397 . S
C821 C819 1.397 . S
C821 C822 1.384 . S
C821 H844 0.930 . S
C822 C821 1.384 . S
C822 C823 1.377 . S
C822 C825 1.481 . S
C823 C822 1.377 . S
C823 C824 1.389 . S
C823 H845 0.929 . S
C824 C820 1.397 . S
C824 C823 1.389 . S
C824 H846 0.931 . S
C825 C822 1.481 . S
C825 C826 1.387 . S
C825 C830 1.390 . S
C826 C825 1.387 . S
C826 C827 1.401 . S
C826 H847 0.930 . S
C827 C826 1.401 . S
C827 C828 1.376 . S
C827 C836 1.511 . S
C828 C827 1.376 . S
C828 C829 1.392 . S
C828 H849 0.931 . S
C829 C828 1.392 . S
C829 C830 1.361 . S
C829 C831 1.500 . S
C830 C825 1.390 . S
C830 C829 1.361 . S
C830 H848 0.931 . S
C831 C829 1.500 . S
C831 C832 1.371 . S
C831 C833 1.365 . S
C832 C831 1.371 . S
C832 C842 1.386 . S
C832 H850 0.931 . S
C833 C831 1.365 . S
C833 C834 1.409 . S
C833 H851 0.929 . S
C834 C833 1.409 . S
C834 C835 1.380 . S
C834 H852 0.930 . S
C835 C834 1.380 . S
C835 C842 1.357 . S
C836 C827 1.511 . S
C836 C837 1.341 . S
C836 C838 1.371 . S
C837 C836 1.341 . S
C837 C841 1.394 . S
C837 H853 0.930 . S
C838 C836 1.371 . S
C838 C839 1.392 . S
C838 H854 0.931 . S
C839 C838 1.392 . S
C839 C840 1.331 . S
C839 H857 0.932 . S
C840 C839 1.331 . S
C840 C841 1.336 . S
C841 C837 1.394 . S
C841 C840 1.336 . S
C841 H856 0.929 . S
C842 C832 1.386 . S
C842 C835 1.357 . S
C842 H855 0.928 . S
H843 C819 0.931 . S
H844 C821 0.930 . S
H845 C823 0.929 . S
H846 C824 0.931 . S
H847 C826 0.930 . S
H848 C830 0.931 . S
H849 C828 0.931 . S
H850 C832 0.931 . S
H851 C833 0.929 . S
H852 C834 0.930 . S
H853 C837 0.930 . S
H854 C838 0.931 . S
H855 C842 0.928 . S
H856 C841 0.929 . S
H857 C839 0.932 . S
C858 C859 1.386 . S
C858 C860 1.397 . S
C858 H882 0.931 . S
C859 C858 1.386 . S
C859 C863 1.397 . S
C860 C858 1.397 . S
C860 C861 1.384 . S
C860 H883 0.930 . S
C861 C860 1.384 . S
C861 C862 1.377 . S
C861 C864 1.481 . S
C862 C861 1.377 . S
C862 C863 1.389 . S
C862 H884 0.929 . S
C863 C859 1.397 . S
C863 C862 1.389 . S
C863 H885 0.931 . S
C864 C861 1.481 . S
C864 C865 1.387 . S
C864 C869 1.390 . S
C865 C864 1.387 . S
C865 C866 1.401 . S
C865 H886 0.930 . S
C866 C865 1.401 . S
C866 C867 1.376 . S
C866 C875 1.511 . S
C867 C866 1.376 . S
C867 C868 1.392 . S
C867 H888 0.931 . S
C868 C867 1.392 . S
C868 C869 1.361 . S
C868 C870 1.500 . S
C869 C864 1.390 . S
C869 C868 1.361 . S
C869 H887 0.931 . S
C870 C868 1.500 . S
C870 C871 1.371 . S
C870 C872 1.365 . S
C871 C870 1.371 . S
C871 C881 1.386 . S
C871 H889 0.931 . S
C872 C870 1.365 . S
C872 C873 1.409 . S
C872 H890 0.929 . S
C873 C872 1.409 . S
C873 C874 1.380 . S
C873 H891 0.930 . S
C874 C873 1.380 . S
C874 C881 1.357 . S
C875 C866 1.511 . S
C875 C876 1.341 . S
C875 C877 1.371 . S
C876 C875 1.341 . S
C876 C880 1.394 . S
C876 H892 0.930 . S
C877 C875 1.371 . S
C877 C878 1.392 . S
C877 H893 0.931 . S
C878 C877 1.392 . S
C878 C879 1.331 . S
C878 H896 0.932 . S
C879 C878 1.331 . S
C879 C880 1.336 . S
C880 C876 1.394 . S
C880 C879 1.336 . S
C880 H895 0.929 . S
C881 C871 1.386 . S
C881 C874 1.357 . S
C881 H894 0.928 . S
H882 C858 0.931 . S
H883 C860 0.930 . S
H884 C862 0.929 . S
H885 C863 0.931 . S
H886 C865 0.930 . S
H887 C869 0.931 . S
H888 C867 0.931 . S
H889 C871 0.931 . S
H890 C872 0.929 . S
H891 C873 0.930 . S
H892 C876 0.930 . S
H893 C877 0.931 . S
H894 C881 0.928 . S
H895 C880 0.929 . S
H896 C878 0.932 . S
C897 C898 1.386 . S
C897 C899 1.397 . S
C897 H921 0.931 . S
C898 C897 1.386 . S
C898 C902 1.397 . S
C899 C897 1.397 . S
C899 C900 1.384 . S
C899 H922 0.930 . S
C900 C899 1.384 . S
C900 C901 1.377 . S
C900 C903 1.481 . S
C901 C900 1.377 . S
C901 C902 1.389 . S
C901 H923 0.929 . S
C902 C898 1.397 . S
C902 C901 1.389 . S
C902 H924 0.931 . S
C903 C900 1.481 . S
C903 C904 1.387 . S
C903 C908 1.390 . S
C904 C903 1.387 . S
C904 C905 1.401 . S
C904 H925 0.930 . S
C905 C904 1.401 . S
C905 C906 1.376 . S
C905 C914 1.511 . S
C906 C905 1.376 . S
C906 C907 1.392 . S
C906 H927 0.931 . S
C907 C906 1.392 . S
C907 C908 1.361 . S
C907 C909 1.500 . S
C908 C903 1.390 . S
C908 C907 1.361 . S
C908 H926 0.931 . S
C909 C907 1.500 . S
C909 C910 1.371 . S
C909 C911 1.365 . S
C910 C909 1.371 . S
C910 C920 1.386 . S
C910 H928 0.931 . S
C911 C909 1.365 . S
C911 C912 1.409 . S
C911 H929 0.929 . S
C912 C911 1.409 . S
C912 C913 1.380 . S
C912 H930 0.930 . S
C913 C912 1.380 . S
C913 C920 1.357 . S
C914 C905 1.511 . S
C914 C915 1.341 . S
C914 C916 1.371 . S
C915 C914 1.341 . S
C915 C919 1.394 . S
C915 H931 0.930 . S
C916 C914 1.371 . S
C916 C917 1.392 . S
C916 H932 0.931 . S
C917 C916 1.392 . S
C917 C918 1.331 . S
C917 H935 0.932 . S
C918 C917 1.331 . S
C918 C919 1.336 . S
C919 C915 1.394 . S
C919 C918 1.336 . S
C919 H934 0.929 . S
C920 C910 1.386 . S
C920 C913 1.357 . S
C920 H933 0.928 . S
H921 C897 0.931 . S
H922 C899 0.930 . S
H923 C901 0.929 . S
H924 C902 0.931 . S
H925 C904 0.930 . S
H926 C908 0.931 . S
H927 C906 0.931 . S
H928 C910 0.931 . S
H929 C911 0.929 . S
H930 C912 0.930 . S
H931 C915 0.930 . S
H932 C916 0.931 . S
H933 C920 0.928 . S
H934 C919 0.929 . S
H935 C917 0.932 . S
C936 O962 1.283 . S
C936 O980 1.283 . S
C937 O963 1.283 . S
C937 O978 1.283 . S
C938 O964 1.283 . S
C938 O981 1.283 . S
C939 O965 1.283 . S
C939 O979 1.283 . S
C940 O966 1.283 . S
C940 O975 1.283 . S
C941 O967 1.283 . S
C941 O977 1.283 . S
C942 O968 1.283 . S
C942 O974 1.283 . S
C943 O969 1.283 . S
C943 O976 1.283 . S
C944 O970 1.283 . S
C944 O985 1.283 . S
C945 O971 1.283 . S
C945 O983 1.283 . S
C946 O972 1.283 . S
C946 O984 1.283 . S
C947 O973 1.283 . S
C947 O982 1.283 . S
Eu948 O949 2.370 1_455 S
Eu948 O950 2.370 . S
Eu948 O953 2.370 1_455 S
Eu948 O954 2.370 . S
Eu948 O962 2.363 . S
Eu948 O963 2.363 . S
Eu948 O976 2.363 . S
Eu948 O977 2.363 1_455 S
O949 Eu948 2.370 1_655 S
O949 Eu951 2.370 1_565 S
O949 Eu956 2.370 1_665 S
O950 Eu948 2.370 . S
O950 Eu952 2.370 1_565 S
O950 Eu955 2.370 1_565 S
Eu951 O949 2.370 1_545 S
Eu951 O953 2.370 1_545 S
Eu951 O957 2.370 . S
Eu951 O958 2.370 . S
Eu951 O966 2.363 . S
Eu951 O967 2.363 1_545 S
Eu951 O982 2.363 . S
Eu951 O983 2.363 . S
Eu952 O950 2.370 1_545 S
Eu952 O954 2.370 1_545 S
Eu952 O959 2.370 . S
Eu952 O960 2.370 . S
Eu952 O968 2.363 . S
Eu952 O969 2.363 1_545 S
Eu952 O984 2.363 . S
Eu952 O985 2.363 . S
O953 Eu948 2.370 1_655 S
O953 Eu951 2.370 1_565 S
O953 Eu955 2.370 1_665 S
O954 Eu948 2.370 . S
O954 Eu952 2.370 1_565 S
O954 Eu956 2.370 1_565 S
Eu955 O950 2.370 1_545 S
Eu955 O953 2.370 1_445 S
Eu955 O957 2.370 1_455 S
Eu955 O960 2.370 . S
Eu955 O972 2.363 . S
Eu955 O973 2.363 1_455 S
Eu955 O980 2.363 1_545 S
Eu955 O981 2.363 . S
Eu956 O949 2.370 1_445 S
Eu956 O954 2.370 1_545 S
Eu956 O958 2.370 1_455 S
Eu956 O959 2.370 . S
Eu956 O970 2.363 . S
Eu956 O971 2.363 1_455 S
Eu956 O978 2.363 1_545 S
Eu956 O979 2.363 . S
O957 Eu951 2.370 . S
O957 Eu955 2.370 1_655 S
O957 Eu961 2.370 1_655 S
O958 Eu951 2.370 . S
O958 Eu956 2.370 1_655 S
O958 Eu961 2.370 1_655 S
O959 Eu952 2.370 . S
O959 Eu956 2.370 . S
O959 Eu961 2.370 . S
O960 Eu952 2.370 . S
O960 Eu955 2.370 . S
O960 Eu961 2.370 . S
Eu961 O957 2.370 1_455 S
Eu961 O958 2.370 1_455 S
Eu961 O959 2.370 . S
Eu961 O960 2.370 . S
Eu961 O964 2.363 . S
Eu961 O965 2.363 . S
Eu961 O974 2.363 . S
Eu961 O975 2.363 1_455 S
O962 C936 1.283 . S
O962 Eu948 2.363 . S
O963 C937 1.283 . S
O963 Eu948 2.363 . S
O964 C938 1.283 . S
O964 Eu961 2.363 . S
O965 C939 1.283 . S
O965 Eu961 2.363 . S
O966 C940 1.283 . S
O966 Eu951 2.363 . S
O967 C941 1.283 . S
O967 Eu951 2.363 1_565 S
O968 C942 1.283 . S
O968 Eu952 2.363 . S
O969 C943 1.283 . S
O969 Eu952 2.363 1_565 S
O970 C944 1.283 . S
O970 Eu956 2.363 . S
O971 C945 1.283 . S
O971 Eu956 2.363 1_655 S
O972 C946 1.283 . S
O972 Eu955 2.363 . S
O973 C947 1.283 . S
O973 Eu955 2.363 1_655 S
O974 C942 1.283 . S
O974 Eu961 2.363 . S
O975 C940 1.283 . S
O975 Eu961 2.363 1_655 S
O976 C943 1.283 . S
O976 Eu948 2.363 . S
O977 C941 1.283 . S
O977 Eu948 2.363 1_655 S
O978 C937 1.283 . S
O978 Eu956 2.363 1_565 S
O979 C939 1.283 . S
O979 Eu956 2.363 . S
O980 C936 1.283 . S
O980 Eu955 2.363 1_565 S
O981 C938 1.283 . S
O981 Eu955 2.363 . S
O982 C947 1.283 . S
O982 Eu951 2.363 . S
O983 C945 1.283 . S
O983 Eu951 2.363 . S
O984 C946 1.283 . S
O984 Eu952 2.363 . S
O985 C944 1.283 . S
O985 Eu952 2.363 . S
C986 O1012 1.283 . S
C986 O1030 1.283 . S
C987 O1013 1.283 . S
C987 O1028 1.283 . S
C988 O1014 1.283 . S
C988 O1031 1.283 . S
C989 O1015 1.283 . S
C989 O1029 1.283 . S
C990 O1016 1.283 . S
C990 O1025 1.283 . S
C991 O1017 1.283 . S
C991 O1027 1.283 . S
C992 O1018 1.283 . S
C992 O1024 1.283 . S
C993 O1019 1.283 . S
C993 O1026 1.283 . S
C994 O1020 1.283 . S
C994 O1035 1.283 . S
C995 O1021 1.283 . S
C995 O1033 1.283 . S
C996 O1022 1.283 . S
C996 O1034 1.283 . S
C997 O1023 1.283 . S
C997 O1032 1.283 . S
Eu998 O999 2.371 . S
Eu998 O1000 2.369 1_545 S
Eu998 O1003 2.369 1_545 S
Eu998 O1004 2.371 . S
Eu998 O1012 2.361 1_545 S
Eu998 O1013 2.365 . S
Eu998 O1026 2.363 . S
Eu998 O1027 2.363 . S
O999 Eu998 2.371 . S
O999 Eu1001 2.370 . S
O999 Eu1006 2.369 . S
O1000 Eu998 2.369 1_565 S
O1000 Eu1002 2.370 1_565 S
O1000 Eu1005 2.371 . S
Eu1001 O999 2.370 . S
Eu1001 O1003 2.370 1_545 S
Eu1001 O1007 2.370 1_544 S
Eu1001 O1008 2.370 1_554 S
Eu1001 O1016 2.363 1_554 S
Eu1001 O1017 2.363 . S
Eu1001 O1032 2.363 1_545 S
Eu1001 O1033 2.363 . S
Eu1002 O1000 2.370 1_545 S
Eu1002 O1004 2.370 . S
Eu1002 O1009 2.370 1_554 S
Eu1002 O1010 2.370 1_544 S
Eu1002 O1018 2.363 1_554 S
Eu1002 O1019 2.363 . S
Eu1002 O1034 2.363 1_545 S
Eu1002 O1035 2.363 . S
O1003 Eu998 2.369 1_565 S
O1003 Eu1001 2.370 1_565 S
O1003 Eu1005 2.371 . S
O1004 Eu998 2.371 . S
O1004 Eu1002 2.370 . S
O1004 Eu1006 2.369 . S
Eu1005 O1000 2.371 . S
Eu1005 O1003 2.371 . S
Eu1005 O1007 2.369 1_554 S
Eu1005 O1010 2.369 1_554 S
Eu1005 O1022 2.363 . S
Eu1005 O1023 2.363 . S
Eu1005 O1030 2.365 . S
Eu1005 O1031 2.361 1_554 S
Eu1006 O999 2.369 . S
Eu1006 O1004 2.369 . S
Eu1006 O1008 2.371 1_554 S
Eu1006 O1009 2.371 1_554 S
Eu1006 O1020 2.363 . S
Eu1006 O1021 2.363 . S
Eu1006 O1028 2.361 . S
Eu1006 O1029 2.365 1_554 S
O1007 Eu1001 2.370 1_566 S
O1007 Eu1005 2.369 1_556 S
O1007 Eu1011 2.371 1_565 S
O1008 Eu1001 2.370 1_556 S
O1008 Eu1006 2.371 1_556 S
O1008 Eu1011 2.369 . S
O1009 Eu1002 2.370 1_556 S
O1009 Eu1006 2.371 1_556 S
O1009 Eu1011 2.369 . S
O1010 Eu1002 2.370 1_566 S
O1010 Eu1005 2.369 1_556 S
O1010 Eu1011 2.371 1_565 S
Eu1011 O1007 2.371 1_545 S
Eu1011 O1008 2.369 . S
Eu1011 O1009 2.369 . S
Eu1011 O1010 2.371 1_545 S
Eu1011 O1014 2.365 1_545 S
Eu1011 O1015 2.361 . S
Eu1011 O1024 2.363 . S
Eu1011 O1025 2.363 . S
O1012 C986 1.283 . S
O1012 Eu998 2.361 1_565 S
O1013 C987 1.283 . S
O1013 Eu998 2.365 . S
O1014 C988 1.283 . S
O1014 Eu1011 2.365 1_565 S
O1015 C989 1.283 . S
O1015 Eu1011 2.361 . S
O1016 C990 1.283 . S
O1016 Eu1001 2.363 1_556 S
O1017 C991 1.283 . S
O1017 Eu1001 2.363 . S
O1018 C992 1.283 . S
O1018 Eu1002 2.363 1_556 S
O1019 C993 1.283 . S
O1019 Eu1002 2.363 . S
O1020 C994 1.283 . S
O1020 Eu1006 2.363 . S
O1021 C995 1.283 . S
O1021 Eu1006 2.363 . S
O1022 C996 1.283 . S
O1022 Eu1005 2.363 . S
O1023 C997 1.283 . S
O1023 Eu1005 2.363 . S
O1024 C992 1.283 . S
O1024 Eu1011 2.363 . S
O1025 C990 1.283 . S
O1025 Eu1011 2.363 . S
O1026 C993 1.283 . S
O1026 Eu998 2.363 . S
O1027 C991 1.283 . S
O1027 Eu998 2.363 . S
O1028 C987 1.283 . S
O1028 Eu1006 2.361 . S
O1029 C989 1.283 . S
O1029 Eu1006 2.365 1_556 S
O1030 C986 1.283 . S
O1030 Eu1005 2.365 . S
O1031 C988 1.283 . S
O1031 Eu1005 2.361 1_556 S
O1032 C997 1.283 . S
O1032 Eu1001 2.363 1_565 S
O1033 C995 1.283 . S
O1033 Eu1001 2.363 . S
O1034 C996 1.283 . S
O1034 Eu1002 2.363 1_565 S
O1035 C994 1.283 . S
O1035 Eu1002 2.363 . S
C1036 O1062 1.283 . S
C1036 O1080 1.283 . S
C1037 O1063 1.283 . S
C1037 O1078 1.283 . S
C1038 O1064 1.283 . S
C1038 O1081 1.283 . S
C1039 O1065 1.283 . S
C1039 O1079 1.283 . S
C1040 O1066 1.283 . S
C1040 O1075 1.283 . S
C1041 O1067 1.283 . S
C1041 O1077 1.283 . S
C1042 O1068 1.283 . S
C1042 O1074 1.283 . S
C1043 O1069 1.283 . S
C1043 O1076 1.283 . S
C1044 O1070 1.283 . S
C1044 O1085 1.283 . S
C1045 O1071 1.283 . S
C1045 O1083 1.283 . S
C1046 O1072 1.283 . S
C1046 O1084 1.283 . S
C1047 O1073 1.283 . S
C1047 O1082 1.283 . S
Eu1048 O1049 2.370 1_454 S
Eu1048 O1050 2.370 . S
Eu1048 O1053 2.370 1_455 S
Eu1048 O1054 2.370 1_554 S
Eu1048 O1062 2.363 . S
Eu1048 O1063 2.363 1_554 S
Eu1048 O1076 2.363 . S
Eu1048 O1077 2.363 1_455 S
O1049 Eu1048 2.370 1_656 S
O1049 Eu1051 2.370 1_556 S
O1049 Eu1056 2.370 1_655 S
O1050 Eu1048 2.370 . S
O1050 Eu1052 2.370 . S
O1050 Eu1055 2.370 . S
Eu1051 O1049 2.370 1_554 S
Eu1051 O1053 2.370 . S
Eu1051 O1057 2.370 . S
Eu1051 O1058 2.370 1_554 S
Eu1051 O1066 2.363 . S
Eu1051 O1067 2.363 . S
Eu1051 O1082 2.363 . S
Eu1051 O1083 2.363 1_554 S
Eu1052 O1050 2.370 . S
Eu1052 O1054 2.370 1_554 S
Eu1052 O1059 2.370 1_554 S
Eu1052 O1060 2.370 . S
Eu1052 O1068 2.363 . S
Eu1052 O1069 2.363 . S
Eu1052 O1084 2.363 . S
Eu1052 O1085 2.363 1_554 S
O1053 Eu1048 2.370 1_655 S
O1053 Eu1051 2.370 . S
O1053 Eu1055 2.370 1_655 S
O1054 Eu1048 2.370 1_556 S
O1054 Eu1052 2.370 1_556 S
O1054 Eu1056 2.370 . S
Eu1055 O1050 2.370 . S
Eu1055 O1053 2.370 1_455 S
Eu1055 O1057 2.370 1_455 S
Eu1055 O1060 2.370 . S
Eu1055 O1072 2.363 . S
Eu1055 O1073 2.363 1_455 S
Eu1055 O1080 2.363 . S
Eu1055 O1081 2.363 . S
Eu1056 O1049 2.370 1_455 S
Eu1056 O1054 2.370 . S
Eu1056 O1058 2.370 1_455 S
Eu1056 O1059 2.370 . S
Eu1056 O1070 2.363 . S
Eu1056 O1071 2.363 1_455 S
Eu1056 O1078 2.363 . S
Eu1056 O1079 2.363 . S
O1057 Eu1051 2.370 . S
O1057 Eu1055 2.370 1_655 S
O1057 Eu1061 2.370 1_655 S
O1058 Eu1051 2.370 1_556 S
O1058 Eu1056 2.370 1_655 S
O1058 Eu1061 2.370 1_656 S
O1059 Eu1052 2.370 1_556 S
O1059 Eu1056 2.370 . S
O1059 Eu1061 2.370 1_556 S
O1060 Eu1052 2.370 . S
O1060 Eu1055 2.370 . S
O1060 Eu1061 2.370 . S
Eu1061 O1057 2.370 1_455 S
Eu1061 O1058 2.370 1_454 S
Eu1061 O1059 2.370 1_554 S
Eu1061 O1060 2.370 . S
Eu1061 O1064 2.363 . S
Eu1061 O1065 2.363 1_554 S
Eu1061 O1074 2.363 . S
Eu1061 O1075 2.363 1_455 S
O1062 C1036 1.283 . S
O1062 Eu1048 2.363 . S
O1063 C1037 1.283 . S
O1063 Eu1048 2.363 1_556 S
O1064 C1038 1.283 . S
O1064 Eu1061 2.363 . S
O1065 C1039 1.283 . S
O1065 Eu1061 2.363 1_556 S
O1066 C1040 1.283 . S
O1066 Eu1051 2.363 . S
O1067 C1041 1.283 . S
O1067 Eu1051 2.363 . S
O1068 C1042 1.283 . S
O1068 Eu1052 2.363 . S
O1069 C1043 1.283 . S
O1069 Eu1052 2.363 . S
O1070 C1044 1.283 . S
O1070 Eu1056 2.363 . S
O1071 C1045 1.283 . S
O1071 Eu1056 2.363 1_655 S
O1072 C1046 1.283 . S
O1072 Eu1055 2.363 . S
O1073 C1047 1.283 . S
O1073 Eu1055 2.363 1_655 S
O1074 C1042 1.283 . S
O1074 Eu1061 2.363 . S
O1075 C1040 1.283 . S
O1075 Eu1061 2.363 1_655 S
O1076 C1043 1.283 . S
O1076 Eu1048 2.363 . S
O1077 C1041 1.283 . S
O1077 Eu1048 2.363 1_655 S
O1078 C1037 1.283 . S
O1078 Eu1056 2.363 . S
O1079 C1039 1.283 . S
O1079 Eu1056 2.363 . S
O1080 C1036 1.283 . S
O1080 Eu1055 2.363 . S
O1081 C1038 1.283 . S
O1081 Eu1055 2.363 . S
O1082 C1047 1.283 . S
O1082 Eu1051 2.363 . S
O1083 C1045 1.283 . S
O1083 Eu1051 2.363 1_556 S
O1084 C1046 1.283 . S
O1084 Eu1052 2.363 . S
O1085 C1044 1.283 . S
O1085 Eu1052 2.363 1_556 S
C1086 O1112 1.283 . S
C1086 O1130 1.283 . S
C1087 O1113 1.283 . S
C1087 O1128 1.283 . S
C1088 O1114 1.283 . S
C1088 O1131 1.283 . S
C1089 O1115 1.283 . S
C1089 O1129 1.283 . S
C1090 O1116 1.283 . S
C1090 O1125 1.283 . S
C1091 O1117 1.283 . S
C1091 O1127 1.283 . S
C1092 O1118 1.283 . S
C1092 O1124 1.283 . S
C1093 O1119 1.283 . S
C1093 O1126 1.283 . S
C1094 O1120 1.283 . S
C1094 O1135 1.283 . S
C1095 O1121 1.283 . S
C1095 O1133 1.283 . S
C1096 O1122 1.283 . S
C1096 O1134 1.283 . S
C1097 O1123 1.283 . S
C1097 O1132 1.283 . S
Eu1098 O1099 2.370 . S
Eu1098 O1100 2.370 . S
Eu1098 O1103 2.370 . S
Eu1098 O1104 2.370 . S
Eu1098 O1112 2.363 . S
Eu1098 O1113 2.363 . S
Eu1098 O1126 2.363 . S
Eu1098 O1127 2.363 . S
O1099 Eu1098 2.370 . S
O1099 Eu1101 2.370 . S
O1099 Eu1106 2.370 . S
O1100 Eu1098 2.370 . S
O1100 Eu1102 2.370 . S
O1100 Eu1105 2.370 . S
Eu1101 O1099 2.370 . S
Eu1101 O1103 2.370 . S
Eu1101 O1107 2.370 1_554 S
Eu1101 O1108 2.370 1_554 S
Eu1101 O1116 2.363 1_554 S
Eu1101 O1117 2.363 . S
Eu1101 O1132 2.363 . S
Eu1101 O1133 2.363 . S
Eu1102 O1100 2.370 . S
Eu1102 O1104 2.370 . S
Eu1102 O1109 2.370 1_554 S
Eu1102 O1110 2.370 1_554 S
Eu1102 O1118 2.363 1_554 S
Eu1102 O1119 2.363 . S
Eu1102 O1134 2.363 . S
Eu1102 O1135 2.363 . S
O1103 Eu1098 2.370 . S
O1103 Eu1101 2.370 . S
O1103 Eu1105 2.370 . S
O1104 Eu1098 2.370 . S
O1104 Eu1102 2.370 . S
O1104 Eu1106 2.370 . S
Eu1105 O1100 2.370 . S
Eu1105 O1103 2.370 . S
Eu1105 O1107 2.370 1_554 S
Eu1105 O1110 2.370 1_554 S
Eu1105 O1122 2.363 . S
Eu1105 O1123 2.363 . S
Eu1105 O1130 2.363 . S
Eu1105 O1131 2.363 1_554 S
Eu1106 O1099 2.370 . S
Eu1106 O1104 2.370 . S
Eu1106 O1108 2.370 1_554 S
Eu1106 O1109 2.370 1_554 S
Eu1106 O1120 2.363 . S
Eu1106 O1121 2.363 . S
Eu1106 O1128 2.363 . S
Eu1106 O1129 2.363 1_554 S
O1107 Eu1101 2.370 1_556 S
O1107 Eu1105 2.370 1_556 S
O1107 Eu1111 2.370 . S
O1108 Eu1101 2.370 1_556 S
O1108 Eu1106 2.370 1_556 S
O1108 Eu1111 2.370 . S
O1109 Eu1102 2.370 1_556 S
O1109 Eu1106 2.370 1_556 S
O1109 Eu1111 2.370 . S
O1110 Eu1102 2.370 1_556 S
O1110 Eu1105 2.370 1_556 S
O1110 Eu1111 2.370 . S
Eu1111 O1107 2.370 . S
Eu1111 O1108 2.370 . S
Eu1111 O1109 2.370 . S
Eu1111 O1110 2.370 . S
Eu1111 O1114 2.363 . S
Eu1111 O1115 2.363 . S
Eu1111 O1124 2.363 . S
Eu1111 O1125 2.363 . S
O1112 C1086 1.283 . S
O1112 Eu1098 2.363 . S
O1113 C1087 1.283 . S
O1113 Eu1098 2.363 . S
O1114 C1088 1.283 . S
O1114 Eu1111 2.363 . S
O1115 C1089 1.283 . S
O1115 Eu1111 2.363 . S
O1116 C1090 1.283 . S
O1116 Eu1101 2.363 1_556 S
O1117 C1091 1.283 . S
O1117 Eu1101 2.363 . S
O1118 C1092 1.283 . S
O1118 Eu1102 2.363 1_556 S
O1119 C1093 1.283 . S
O1119 Eu1102 2.363 . S
O1120 C1094 1.283 . S
O1120 Eu1106 2.363 . S
O1121 C1095 1.283 . S
O1121 Eu1106 2.363 . S
O1122 C1096 1.283 . S
O1122 Eu1105 2.363 . S
O1123 C1097 1.283 . S
O1123 Eu1105 2.363 . S
O1124 C1092 1.283 . S
O1124 Eu1111 2.363 . S
O1125 C1090 1.283 . S
O1125 Eu1111 2.363 . S
O1126 C1093 1.283 . S
O1126 Eu1098 2.363 . S
O1127 C1091 1.283 . S
O1127 Eu1098 2.363 . S
O1128 C1087 1.283 . S
O1128 Eu1106 2.363 . S
O1129 C1089 1.283 . S
O1129 Eu1106 2.363 1_556 S
O1130 C1086 1.283 . S
O1130 Eu1105 2.363 . S
O1131 C1088 1.283 . S
O1131 Eu1105 2.363 1_556 S
O1132 C1097 1.283 . S
O1132 Eu1101 2.363 . S
O1133 C1095 1.283 . S
O1133 Eu1101 2.363 . S
O1134 C1096 1.283 . S
O1134 Eu1102 2.363 . S
O1135 C1094 1.283 . S
O1135 Eu1102 2.363 . S
C1136 O1162 1.283 . S
C1136 O1180 1.283 . S
C1137 O1163 1.283 . S
C1137 O1178 1.283 . S
C1138 O1164 1.283 . S
C1138 O1181 1.283 . S
C1139 O1165 1.283 . S
C1139 O1179 1.283 . S
C1140 O1166 1.283 . S
C1140 O1175 1.283 . S
C1141 O1167 1.283 . S
C1141 O1177 1.283 . S
C1142 O1168 1.283 . S
C1142 O1174 1.283 . S
C1143 O1169 1.283 . S
C1143 O1176 1.283 . S
C1144 O1170 1.283 . S
C1144 O1185 1.283 . S
C1145 O1171 1.283 . S
C1145 O1183 1.283 . S
C1146 O1172 1.283 . S
C1146 O1184 1.283 . S
C1147 O1173 1.283 . S
C1147 O1182 1.283 . S
Eu1148 O1149 2.370 1_455 S
Eu1148 O1150 2.370 . S
Eu1148 O1153 2.370 1_455 S
Eu1148 O1154 2.370 . S
Eu1148 O1162 2.363 . S
Eu1148 O1163 2.363 . S
Eu1148 O1176 2.363 . S
Eu1148 O1177 2.363 1_455 S
O1149 Eu1148 2.370 1_655 S
O1149 Eu1151 2.370 . S
O1149 Eu1156 2.370 1_655 S
O1150 Eu1148 2.370 . S
O1150 Eu1152 2.370 . S
O1150 Eu1155 2.370 . S
Eu1151 O1149 2.370 . S
Eu1151 O1153 2.370 . S
Eu1151 O1157 2.370 . S
Eu1151 O1158 2.370 . S
Eu1151 O1166 2.363 . S
Eu1151 O1167 2.363 . S
Eu1151 O1182 2.363 . S
Eu1151 O1183 2.363 . S
Eu1152 O1150 2.370 . S
Eu1152 O1154 2.370 . S
Eu1152 O1159 2.370 . S
Eu1152 O1160 2.370 . S
Eu1152 O1168 2.363 . S
Eu1152 O1169 2.363 . S
Eu1152 O1184 2.363 . S
Eu1152 O1185 2.363 . S
O1153 Eu1148 2.370 1_655 S
O1153 Eu1151 2.370 . S
O1153 Eu1155 2.370 1_655 S
O1154 Eu1148 2.370 . S
O1154 Eu1152 2.370 . S
O1154 Eu1156 2.370 . S
Eu1155 O1150 2.370 . S
Eu1155 O1153 2.370 1_455 S
Eu1155 O1157 2.370 1_455 S
Eu1155 O1160 2.370 . S
Eu1155 O1172 2.363 . S
Eu1155 O1173 2.363 1_455 S
Eu1155 O1180 2.363 . S
Eu1155 O1181 2.363 . S
Eu1156 O1149 2.370 1_455 S
Eu1156 O1154 2.370 . S
Eu1156 O1158 2.370 1_455 S
Eu1156 O1159 2.370 . S
Eu1156 O1170 2.363 . S
Eu1156 O1171 2.363 1_455 S
Eu1156 O1178 2.363 . S
Eu1156 O1179 2.363 . S
O1157 Eu1151 2.370 . S
O1157 Eu1155 2.370 1_655 S
O1157 Eu1161 2.370 1_655 S
O1158 Eu1151 2.370 . S
O1158 Eu1156 2.370 1_655 S
O1158 Eu1161 2.370 1_655 S
O1159 Eu1152 2.370 . S
O1159 Eu1156 2.370 . S
O1159 Eu1161 2.370 . S
O1160 Eu1152 2.370 . S
O1160 Eu1155 2.370 . S
O1160 Eu1161 2.370 . S
Eu1161 O1157 2.370 1_455 S
Eu1161 O1158 2.370 1_455 S
Eu1161 O1159 2.370 . S
Eu1161 O1160 2.370 . S
Eu1161 O1164 2.363 . S
Eu1161 O1165 2.363 . S
Eu1161 O1174 2.363 . S
Eu1161 O1175 2.363 1_455 S
O1162 C1136 1.283 . S
O1162 Eu1148 2.363 . S
O1163 C1137 1.283 . S
O1163 Eu1148 2.363 . S
O1164 C1138 1.283 . S
O1164 Eu1161 2.363 . S
O1165 C1139 1.283 . S
O1165 Eu1161 2.363 . S
O1166 C1140 1.283 . S
O1166 Eu1151 2.363 . S
O1167 C1141 1.283 . S
O1167 Eu1151 2.363 . S
O1168 C1142 1.283 . S
O1168 Eu1152 2.363 . S
O1169 C1143 1.283 . S
O1169 Eu1152 2.363 . S
O1170 C1144 1.283 . S
O1170 Eu1156 2.363 . S
O1171 C1145 1.283 . S
O1171 Eu1156 2.363 1_655 S
O1172 C1146 1.283 . S
O1172 Eu1155 2.363 . S
O1173 C1147 1.283 . S
O1173 Eu1155 2.363 1_655 S
O1174 C1142 1.283 . S
O1174 Eu1161 2.363 . S
O1175 C1140 1.283 . S
O1175 Eu1161 2.363 1_655 S
O1176 C1143 1.283 . S
O1176 Eu1148 2.363 . S
O1177 C1141 1.283 . S
O1177 Eu1148 2.363 1_655 S
O1178 C1137 1.283 . S
O1178 Eu1156 2.363 . S
O1179 C1139 1.283 . S
O1179 Eu1156 2.363 . S
O1180 C1136 1.283 . S
O1180 Eu1155 2.363 . S
O1181 C1138 1.283 . S
O1181 Eu1155 2.363 . S
O1182 C1147 1.283 . S
O1182 Eu1151 2.363 . S
O1183 C1145 1.283 . S
O1183 Eu1151 2.363 . S
O1184 C1146 1.283 . S
O1184 Eu1152 2.363 . S
O1185 C1144 1.283 . S
O1185 Eu1152 2.363 . S
C1186 O1212 1.283 . S
C1186 O1230 1.283 . S
C1187 O1213 1.283 . S
C1187 O1228 1.283 . S
C1188 O1214 1.283 . S
C1188 O1231 1.283 . S
C1189 O1215 1.283 . S
C1189 O1229 1.283 . S
C1190 O1216 1.283 . S
C1190 O1225 1.283 . S
C1191 O1217 1.283 . S
C1191 O1227 1.283 . S
C1192 O1218 1.283 . S
C1192 O1224 1.283 . S
C1193 O1219 1.283 . S
C1193 O1226 1.283 . S
C1194 O1220 1.283 . S
C1194 O1235 1.283 . S
C1195 O1221 1.283 . S
C1195 O1233 1.283 . S
C1196 O1222 1.283 . S
C1196 O1234 1.283 . S
C1197 O1223 1.283 . S
C1197 O1232 1.283 . S
Eu1198 O1199 2.370 . S
Eu1198 O1200 2.370 . S
Eu1198 O1203 2.370 . S
Eu1198 O1204 2.370 . S
Eu1198 O1212 2.363 . S
Eu1198 O1213 2.363 . S
Eu1198 O1226 2.363 . S
Eu1198 O1227 2.363 . S
O1199 Eu1198 2.370 . S
O1199 Eu1201 2.370 1_565 S
O1199 Eu1206 2.370 1_565 S
O1200 Eu1198 2.370 . S
O1200 Eu1202 2.370 1_565 S
O1200 Eu1205 2.370 1_565 S
Eu1201 O1199 2.370 1_545 S
Eu1201 O1203 2.370 1_545 S
Eu1201 O1207 2.370 . S
Eu1201 O1208 2.370 . S
Eu1201 O1216 2.363 . S
Eu1201 O1217 2.363 1_545 S
Eu1201 O1232 2.363 . S
Eu1201 O1233 2.363 . S
Eu1202 O1200 2.370 1_545 S
Eu1202 O1204 2.370 1_545 S
Eu1202 O1209 2.370 . S
Eu1202 O1210 2.370 . S
Eu1202 O1218 2.363 . S
Eu1202 O1219 2.363 1_545 S
Eu1202 O1234 2.363 . S
Eu1202 O1235 2.363 . S
O1203 Eu1198 2.370 . S
O1203 Eu1201 2.370 1_565 S
O1203 Eu1205 2.370 1_565 S
O1204 Eu1198 2.370 . S
O1204 Eu1202 2.370 1_565 S
O1204 Eu1206 2.370 1_565 S
Eu1205 O1200 2.370 1_545 S
Eu1205 O1203 2.370 1_545 S
Eu1205 O1207 2.370 . S
Eu1205 O1210 2.370 . S
Eu1205 O1222 2.363 . S
Eu1205 O1223 2.363 . S
Eu1205 O1230 2.363 1_545 S
Eu1205 O1231 2.363 . S
Eu1206 O1199 2.370 1_545 S
Eu1206 O1204 2.370 1_545 S
Eu1206 O1208 2.370 . S
Eu1206 O1209 2.370 . S
Eu1206 O1220 2.363 . S
Eu1206 O1221 2.363 . S
Eu1206 O1228 2.363 1_545 S
Eu1206 O1229 2.363 . S
O1207 Eu1201 2.370 . S
O1207 Eu1205 2.370 . S
O1207 Eu1211 2.370 . S
O1208 Eu1201 2.370 . S
O1208 Eu1206 2.370 . S
O1208 Eu1211 2.370 . S
O1209 Eu1202 2.370 . S
O1209 Eu1206 2.370 . S
O1209 Eu1211 2.370 . S
O1210 Eu1202 2.370 . S
O1210 Eu1205 2.370 . S
O1210 Eu1211 2.370 . S
Eu1211 O1207 2.370 . S
Eu1211 O1208 2.370 . S
Eu1211 O1209 2.370 . S
Eu1211 O1210 2.370 . S
Eu1211 O1214 2.363 . S
Eu1211 O1215 2.363 . S
Eu1211 O1224 2.363 . S
Eu1211 O1225 2.363 . S
O1212 C1186 1.283 . S
O1212 Eu1198 2.363 . S
O1213 C1187 1.283 . S
O1213 Eu1198 2.363 . S
O1214 C1188 1.283 . S
O1214 Eu1211 2.363 . S
O1215 C1189 1.283 . S
O1215 Eu1211 2.363 . S
O1216 C1190 1.283 . S
O1216 Eu1201 2.363 . S
O1217 C1191 1.283 . S
O1217 Eu1201 2.363 1_565 S
O1218 C1192 1.283 . S
O1218 Eu1202 2.363 . S
O1219 C1193 1.283 . S
O1219 Eu1202 2.363 1_565 S
O1220 C1194 1.283 . S
O1220 Eu1206 2.363 . S
O1221 C1195 1.283 . S
O1221 Eu1206 2.363 . S
O1222 C1196 1.283 . S
O1222 Eu1205 2.363 . S
O1223 C1197 1.283 . S
O1223 Eu1205 2.363 . S
O1224 C1192 1.283 . S
O1224 Eu1211 2.363 . S
O1225 C1190 1.283 . S
O1225 Eu1211 2.363 . S
O1226 C1193 1.283 . S
O1226 Eu1198 2.363 . S
O1227 C1191 1.283 . S
O1227 Eu1198 2.363 . S
O1228 C1187 1.283 . S
O1228 Eu1206 2.363 1_565 S
O1229 C1189 1.283 . S
O1229 Eu1206 2.363 . S
O1230 C1186 1.283 . S
O1230 Eu1205 2.363 1_565 S
O1231 C1188 1.283 . S
O1231 Eu1205 2.363 . S
O1232 C1197 1.283 . S
O1232 Eu1201 2.363 . S
O1233 C1195 1.283 . S
O1233 Eu1201 2.363 . S
O1234 C1196 1.283 . S
O1234 Eu1202 2.363 . S
O1235 C1194 1.283 . S
O1235 Eu1202 2.363 . S
H1236 C1242 0.930 . S
H1237 C1246 0.930 . S
H1238 C1251 0.929 . S
H1239 C1249 0.929 . S
H1240 C1244 0.929 . S
H1241 C1250 0.929 . S
C1242 H1236 0.930 . S
C1242 C1243 1.367 . S
C1242 C1250 1.378 . S
C1243 C1242 1.367 . S
C1243 C1251 1.433 . S
C1244 H1240 0.929 . S
C1244 C1246 1.378 . S
C1244 C1248 1.350 . S
C1245 C1248 1.463 . S
C1245 C1250 1.350 . S
C1245 N1253 1.427 . S
C1246 H1237 0.930 . S
C1246 C1244 1.378 . S
C1246 C1247 1.367 . S
C1247 C1246 1.367 . S
C1247 C1249 1.433 . S
C1248 C1244 1.350 . S
C1248 C1245 1.463 . S
C1248 N1252 1.427 . S
C1249 H1239 0.929 . S
C1249 C1247 1.433 . S
C1249 N1252 1.384 . S
C1250 H1241 0.929 . S
C1250 C1242 1.378 . S
C1250 C1245 1.350 . S
C1251 H1238 0.929 . S
C1251 C1243 1.433 . S
C1251 N1253 1.384 . S
N1252 C1248 1.427 . S
N1252 C1249 1.384 . S
N1253 C1245 1.427 . S
N1253 C1251 1.384 . S
H1254 C1260 0.930 . S
H1255 C1264 0.930 . S
H1256 C1269 0.929 . S
H1257 C1267 0.929 . S
H1258 C1262 0.929 . S
H1259 C1268 0.929 . S
C1260 H1254 0.930 . S
C1260 C1261 1.367 . S
C1260 C1268 1.378 . S
C1261 C1260 1.367 . S
C1261 C1269 1.433 . S
C1262 H1258 0.929 . S
C1262 C1264 1.378 . S
C1262 C1266 1.350 . S
C1263 C1266 1.463 . S
C1263 C1268 1.350 . S
C1263 N1271 1.427 . S
C1264 H1255 0.930 . S
C1264 C1262 1.378 . S
C1264 C1265 1.367 . S
C1265 C1264 1.367 . S
C1265 C1267 1.433 . S
C1266 C1262 1.350 . S
C1266 C1263 1.463 . S
C1266 N1270 1.427 . S
C1267 H1257 0.929 . S
C1267 C1265 1.433 . S
C1267 N1270 1.384 . S
C1268 H1259 0.929 . S
C1268 C1260 1.378 . S
C1268 C1263 1.350 . S
C1269 H1256 0.929 . S
C1269 C1261 1.433 . S
C1269 N1271 1.384 . S
N1270 C1266 1.427 . S
N1270 C1267 1.384 . S
N1271 C1263 1.427 . S
N1271 C1269 1.384 . S
H1272 C1278 0.930 . S
H1273 C1282 0.930 . S
H1274 C1287 0.929 . S
H1275 C1285 0.929 . S
H1276 C1280 0.929 . S
H1277 C1286 0.929 . S
C1278 H1272 0.930 . S
C1278 C1279 1.367 . S
C1278 C1286 1.378 . S
C1279 C1278 1.367 . S
C1279 C1287 1.433 . S
C1280 H1276 0.929 . S
C1280 C1282 1.378 . S
C1280 C1284 1.350 . S
C1281 C1284 1.463 . S
C1281 C1286 1.350 . S
C1281 N1289 1.427 . S
C1282 H1273 0.930 . S
C1282 C1280 1.378 . S
C1282 C1283 1.367 . S
C1283 C1282 1.367 . S
C1283 C1285 1.433 . S
C1284 C1280 1.350 . S
C1284 C1281 1.463 . S
C1284 N1288 1.427 . S
C1285 H1275 0.929 . S
C1285 C1283 1.433 . S
C1285 N1288 1.384 . S
C1286 H1277 0.929 . S
C1286 C1278 1.378 . S
C1286 C1281 1.350 . S
C1287 H1274 0.929 . S
C1287 C1279 1.433 . S
C1287 N1289 1.384 . S
N1288 C1284 1.427 . S
N1288 C1285 1.384 . S
N1289 C1281 1.427 . S
N1289 C1287 1.384 . S
H1290 C1296 0.930 . S
H1291 C1300 0.930 . S
H1292 C1305 0.929 . S
H1293 C1303 0.929 . S
H1294 C1298 0.929 . S
H1295 C1304 0.929 . S
C1296 H1290 0.930 . S
C1296 C1297 1.367 . S
C1296 C1304 1.378 . S
C1297 C1296 1.367 . S
C1297 C1305 1.433 . S
C1298 H1294 0.929 . S
C1298 C1300 1.378 . S
C1298 C1302 1.350 . S
C1299 C1302 1.463 . S
C1299 C1304 1.350 . S
C1299 N1307 1.427 . S
C1300 H1291 0.930 . S
C1300 C1298 1.378 . S
C1300 C1301 1.367 . S
C1301 C1300 1.367 . S
C1301 C1303 1.433 . S
C1302 C1298 1.350 . S
C1302 C1299 1.463 . S
C1302 N1306 1.427 . S
C1303 H1293 0.929 . S
C1303 C1301 1.433 . S
C1303 N1306 1.384 . S
C1304 H1295 0.929 . S
C1304 C1296 1.378 . S
C1304 C1299 1.350 . S
C1305 H1292 0.929 . S
C1305 C1297 1.433 . S
C1305 N1307 1.384 . S
N1306 C1302 1.427 . S
N1306 C1303 1.384 . S
N1307 C1299 1.427 . S
N1307 C1305 1.384 . S
H1308 C1314 0.930 . S
H1309 C1318 0.930 . S
H1310 C1323 0.929 . S
H1311 C1321 0.929 . S
H1312 C1316 0.929 . S
H1313 C1322 0.929 . S
C1314 H1308 0.930 . S
C1314 C1315 1.367 . S
C1314 C1322 1.378 . S
C1315 C1314 1.367 . S
C1315 C1323 1.433 . S
C1316 H1312 0.929 . S
C1316 C1318 1.378 . S
C1316 C1320 1.350 . S
C1317 C1320 1.463 . S
C1317 C1322 1.350 . S
C1317 N1325 1.427 . S
C1318 H1309 0.930 . S
C1318 C1316 1.378 . S
C1318 C1319 1.367 . S
C1319 C1318 1.367 . S
C1319 C1321 1.433 . S
C1320 C1316 1.350 . S
C1320 C1317 1.463 . S
C1320 N1324 1.427 . S
C1321 H1311 0.929 . S
C1321 C1319 1.433 . S
C1321 N1324 1.384 . S
C1322 H1313 0.929 . S
C1322 C1314 1.378 . S
C1322 C1317 1.350 . S
C1323 H1310 0.929 . S
C1323 C1315 1.433 . S
C1323 N1325 1.384 . S
N1324 C1320 1.427 . S
N1324 C1321 1.384 . S
N1325 C1317 1.427 . S
N1325 C1323 1.384 . S
H1326 C1332 0.930 . S
H1327 C1336 0.930 . S
H1328 C1341 0.929 . S
H1329 C1339 0.929 . S
H1330 C1334 0.929 . S
H1331 C1340 0.929 . S
C1332 H1326 0.930 . S
C1332 C1333 1.367 . S
C1332 C1340 1.378 . S
C1333 C1332 1.367 . S
C1333 C1341 1.433 . S
C1334 H1330 0.929 . S
C1334 C1336 1.378 . S
C1334 C1338 1.350 . S
C1335 C1338 1.463 . S
C1335 C1340 1.350 . S
C1335 N1343 1.427 . S
C1336 H1327 0.930 . S
C1336 C1334 1.378 . S
C1336 C1337 1.367 . S
C1337 C1336 1.367 . S
C1337 C1339 1.433 . S
C1338 C1334 1.350 . S
C1338 C1335 1.463 . S
C1338 N1342 1.427 . S
C1339 H1329 0.929 . S
C1339 C1337 1.433 . S
C1339 N1342 1.384 . S
C1340 H1331 0.929 . S
C1340 C1332 1.378 . S
C1340 C1335 1.350 . S
C1341 H1328 0.929 . S
C1341 C1333 1.433 . S
C1341 N1343 1.384 . S
N1342 C1338 1.427 . S
N1342 C1339 1.384 . S
N1343 C1335 1.427 . S
N1343 C1341 1.384 . S
H1344 C1350 0.930 . S
H1345 C1354 0.930 . S
H1346 C1359 0.929 . S
H1347 C1357 0.929 . S
H1348 C1352 0.929 . S
H1349 C1358 0.929 . S
C1350 H1344 0.930 . S
C1350 C1351 1.367 . S
C1350 C1358 1.378 . S
C1351 C1350 1.367 . S
C1351 C1359 1.433 . S
C1352 H1348 0.929 . S
C1352 C1354 1.378 . S
C1352 C1356 1.350 . S
C1353 C1356 1.463 . S
C1353 C1358 1.350 . S
C1353 N1361 1.427 . S
C1354 H1345 0.930 . S
C1354 C1352 1.378 . S
C1354 C1355 1.367 . S
C1355 C1354 1.367 . S
C1355 C1357 1.433 . S
C1356 C1352 1.350 . S
C1356 C1353 1.463 . S
C1356 N1360 1.427 . S
C1357 H1347 0.929 . S
C1357 C1355 1.433 . S
C1357 N1360 1.384 . S
C1358 H1349 0.929 . S
C1358 C1350 1.378 . S
C1358 C1353 1.350 . S
C1359 H1346 0.929 . S
C1359 C1351 1.433 . S
C1359 N1361 1.384 . S
N1360 C1356 1.427 . S
N1360 C1357 1.384 . S
N1361 C1353 1.427 . S
N1361 C1359 1.384 . S
H1362 C1368 0.930 . S
H1363 C1372 0.930 . S
H1364 C1377 0.929 . S
H1365 C1375 0.929 . S
H1366 C1370 0.929 . S
H1367 C1376 0.929 . S
C1368 H1362 0.930 . S
C1368 C1369 1.367 . S
C1368 C1376 1.378 . S
C1369 C1368 1.367 . S
C1369 C1377 1.433 . S
C1370 H1366 0.929 . S
C1370 C1372 1.378 . S
C1370 C1374 1.350 . S
C1371 C1374 1.463 . S
C1371 C1376 1.350 . S
C1371 N1379 1.427 . S
C1372 H1363 0.930 . S
C1372 C1370 1.378 . S
C1372 C1373 1.367 . S
C1373 C1372 1.367 . S
C1373 C1375 1.433 . S
C1374 C1370 1.350 . S
C1374 C1371 1.463 . S
C1374 N1378 1.427 . S
C1375 H1365 0.929 . S
C1375 C1373 1.433 . S
C1375 N1378 1.384 . S
C1376 H1367 0.929 . S
C1376 C1368 1.378 . S
C1376 C1371 1.350 . S
C1377 H1364 0.929 . S
C1377 C1369 1.433 . S
C1377 N1379 1.384 . S
N1378 C1374 1.427 . S
N1378 C1375 1.384 . S
N1379 C1371 1.427 . S
N1379 C1377 1.384 . S
H1380 C1386 0.930 . S
H1381 C1390 0.930 . S
H1382 C1395 0.929 . S
H1383 C1393 0.929 . S
H1384 C1388 0.929 . S
H1385 C1394 0.929 . S
C1386 H1380 0.930 . S
C1386 C1387 1.367 . S
C1386 C1394 1.378 . S
C1387 C1386 1.367 . S
C1387 C1395 1.433 . S
C1388 H1384 0.929 . S
C1388 C1390 1.378 . S
C1388 C1392 1.350 . S
C1389 C1392 1.463 . S
C1389 C1394 1.350 . S
C1389 N1397 1.427 . S
C1390 H1381 0.930 . S
C1390 C1388 1.378 . S
C1390 C1391 1.367 . S
C1391 C1390 1.367 . S
C1391 C1393 1.433 . S
C1392 C1388 1.350 . S
C1392 C1389 1.463 . S
C1392 N1396 1.427 . S
C1393 H1383 0.929 . S
C1393 C1391 1.433 . S
C1393 N1396 1.384 . S
C1394 H1385 0.929 . S
C1394 C1386 1.378 . S
C1394 C1389 1.350 . S
C1395 H1382 0.929 . S
C1395 C1387 1.433 . S
C1395 N1397 1.384 . S
N1396 C1392 1.427 . S
N1396 C1393 1.384 . S
N1397 C1389 1.427 . S
N1397 C1395 1.384 . S
H1398 C1404 0.930 . S
H1399 C1408 0.930 . S
H1400 C1413 0.929 . S
H1401 C1411 0.929 . S
H1402 C1406 0.929 . S
H1403 C1412 0.929 . S
C1404 H1398 0.930 . S
C1404 C1405 1.367 . S
C1404 C1412 1.378 . S
C1405 C1404 1.367 . S
C1405 C1413 1.433 . S
C1406 H1402 0.929 . S
C1406 C1408 1.378 . S
C1406 C1410 1.350 . S
C1407 C1410 1.463 . S
C1407 C1412 1.350 . S
C1407 N1415 1.427 . S
C1408 H1399 0.930 . S
C1408 C1406 1.378 . S
C1408 C1409 1.367 . S
C1409 C1408 1.367 . S
C1409 C1411 1.433 . S
C1410 C1406 1.350 . S
C1410 C1407 1.463 . S
C1410 N1414 1.427 . S
C1411 H1401 0.929 . S
C1411 C1409 1.433 . S
C1411 N1414 1.384 . S
C1412 H1403 0.929 . S
C1412 C1404 1.378 . S
C1412 C1407 1.350 . S
C1413 H1400 0.929 . S
C1413 C1405 1.433 . S
C1413 N1415 1.384 . S
N1414 C1410 1.427 . S
N1414 C1411 1.384 . S
N1415 C1407 1.427 . S
N1415 C1413 1.384 . S
H1416 C1422 0.930 . S
H1417 C1426 0.930 . S
H1418 C1431 0.929 . S
H1419 C1429 0.929 . S
H1420 C1424 0.929 . S
H1421 C1430 0.929 . S
C1422 H1416 0.930 . S
C1422 C1423 1.367 . S
C1422 C1430 1.378 . S
C1423 C1422 1.367 . S
C1423 C1431 1.433 . S
C1424 H1420 0.929 . S
C1424 C1426 1.378 . S
C1424 C1428 1.350 . S
C1425 C1428 1.463 . S
C1425 C1430 1.350 . S
C1425 N1433 1.427 . S
C1426 H1417 0.930 . S
C1426 C1424 1.378 . S
C1426 C1427 1.367 . S
C1427 C1426 1.367 . S
C1427 C1429 1.433 . S
C1428 C1424 1.350 . S
C1428 C1425 1.463 . S
C1428 N1432 1.427 . S
C1429 H1419 0.929 . S
C1429 C1427 1.433 . S
C1429 N1432 1.384 . S
C1430 H1421 0.929 . S
C1430 C1422 1.378 . S
C1430 C1425 1.350 . S
C1431 H1418 0.929 . S
C1431 C1423 1.433 . S
C1431 N1433 1.384 . S
N1432 C1428 1.427 . S
N1432 C1429 1.384 . S
N1433 C1425 1.427 . S
N1433 C1431 1.384 . S
H1434 C1440 0.930 . S
H1435 C1444 0.930 . S
H1436 C1449 0.929 . S
H1437 C1447 0.929 . S
H1438 C1442 0.929 . S
H1439 C1448 0.929 . S
C1440 H1434 0.930 . S
C1440 C1441 1.367 . S
C1440 C1448 1.378 . S
C1441 C1440 1.367 . S
C1441 C1449 1.433 . S
C1442 H1438 0.929 . S
C1442 C1444 1.378 . S
C1442 C1446 1.350 . S
C1443 C1446 1.463 . S
C1443 C1448 1.350 . S
C1443 N1451 1.427 . S
C1444 H1435 0.930 . S
C1444 C1442 1.378 . S
C1444 C1445 1.367 . S
C1445 C1444 1.367 . S
C1445 C1447 1.433 . S
C1446 C1442 1.350 . S
C1446 C1443 1.463 . S
C1446 N1450 1.427 . S
C1447 H1437 0.929 . S
C1447 C1445 1.433 . S
C1447 N1450 1.384 . S
C1448 H1439 0.929 . S
C1448 C1440 1.378 . S
C1448 C1443 1.350 . S
C1449 H1436 0.929 . S
C1449 C1441 1.433 . S
C1449 N1451 1.384 . S
N1450 C1446 1.427 . S
N1450 C1447 1.384 . S
N1451 C1443 1.427 . S
N1451 C1449 1.384 . S
H1452 C1458 0.930 . S
H1453 C1462 0.930 . S
H1454 C1467 0.929 . S
H1455 C1465 0.929 . S
H1456 C1460 0.929 . S
H1457 C1466 0.929 . S
C1458 H1452 0.930 . S
C1458 C1459 1.374 . S
C1458 C1466 1.378 . S
C1459 C1458 1.374 . S
C1459 C1467 1.426 1_554 S
C1460 H1456 0.929 . S
C1460 C1462 1.378 . S
C1460 C1464 1.353 . S
C1461 C1464 1.462 1_554 S
C1461 C1466 1.360 . S
C1461 N1469 1.418 1_554 S
C1462 H1453 0.930 . S
C1462 C1460 1.378 . S
C1462 C1463 1.368 . S
C1463 C1462 1.368 . S
C1463 C1465 1.433 1_556 S
C1464 C1460 1.353 . S
C1464 C1461 1.462 1_556 S
C1464 N1468 1.424 1_556 S
C1465 H1455 0.929 . S
C1465 C1463 1.433 1_554 S
C1465 N1468 1.384 . S
C1466 H1457 0.929 . S
C1466 C1458 1.378 . S
C1466 C1461 1.360 . S
C1467 H1454 0.929 . S
C1467 C1459 1.426 1_556 S
C1467 N1469 1.384 . S
N1468 C1464 1.424 1_554 S
N1468 C1465 1.384 . S
N1469 C1461 1.418 1_556 S
N1469 C1467 1.384 . S
H1470 C1476 0.930 . S
H1471 C1480 0.930 . S
H1472 C1485 0.929 . S
H1473 C1483 0.929 . S
H1474 C1478 0.929 . S
H1475 C1484 0.929 . S
C1476 H1470 0.930 . S
C1476 C1477 1.381 . S
C1476 C1484 1.378 . S
C1477 C1476 1.381 . S
C1477 C1485 1.419 1_554 S
C1478 H1474 0.929 . S
C1478 C1480 1.378 . S
C1478 C1482 1.363 . S
C1479 C1482 1.461 1_554 S
C1479 C1484 1.369 . S
C1479 N1487 1.408 1_554 S
C1480 H1471 0.930 . S
C1480 C1478 1.378 . S
C1480 C1481 1.374 . S
C1481 C1480 1.374 . S
C1481 C1483 1.426 1_556 S
C1482 C1478 1.363 . S
C1482 C1479 1.461 1_556 S
C1482 N1486 1.414 1_556 S
C1483 H1473 0.929 . S
C1483 C1481 1.426 1_554 S
C1483 N1486 1.384 . S
C1484 H1475 0.929 . S
C1484 C1476 1.378 . S
C1484 C1479 1.369 . S
C1485 H1472 0.929 . S
C1485 C1477 1.419 1_556 S
C1485 N1487 1.384 . S
N1486 C1482 1.414 1_554 S
N1486 C1483 1.384 . S
N1487 C1479 1.408 1_556 S
N1487 C1485 1.384 . S
H1488 C1494 0.930 . S
H1489 C1498 0.930 . S
H1490 C1503 0.929 . S
H1491 C1501 0.929 . S
H1492 C1496 0.929 . S
H1493 C1502 0.929 . S
C1494 H1488 0.930 . S
C1494 C1495 1.374 . S
C1494 C1502 1.378 . S
C1495 C1494 1.374 . S
C1495 C1503 1.426 1_556 S
C1496 H1492 0.929 . S
C1496 C1498 1.378 . S
C1496 C1500 1.373 . S
C1497 C1500 1.461 1_556 S
C1497 C1502 1.364 . S
C1497 N1505 1.414 1_556 S
C1498 H1489 0.930 . S
C1498 C1496 1.378 . S
C1498 C1499 1.384 . S
C1499 C1498 1.384 . S
C1499 C1501 1.416 1_554 S
C1500 C1496 1.373 . S
C1500 C1497 1.461 1_554 S
C1500 N1504 1.404 1_554 S
C1501 H1491 0.929 . S
C1501 C1499 1.416 1_556 S
C1501 N1504 1.384 . S
C1502 H1493 0.929 . S
C1502 C1494 1.378 . S
C1502 C1497 1.364 . S
C1503 H1490 0.929 . S
C1503 C1495 1.426 1_554 S
C1503 N1505 1.384 . S
N1504 C1500 1.404 1_556 S
N1504 C1501 1.384 . S
N1505 C1497 1.414 1_554 S
N1505 C1503 1.384 . S
H1506 C1512 0.930 . S
H1507 C1516 0.930 . S
H1508 C1521 0.929 . S
H1509 C1519 0.929 . S
H1510 C1514 0.929 . S
H1511 C1520 0.929 . S
C1512 H1506 0.930 . S
C1512 C1513 1.379 . S
C1512 C1520 1.378 . S
C1513 C1512 1.379 . S
C1513 C1521 1.421 1_556 S
C1514 H1510 0.929 . S
C1514 C1516 1.378 . S
C1514 C1518 1.375 . S
C1515 C1518 1.461 1_556 S
C1515 C1520 1.369 . S
C1515 N1523 1.408 1_556 S
C1516 H1507 0.930 . S
C1516 C1514 1.378 . S
C1516 C1517 1.384 . S
C1517 C1516 1.384 . S
C1517 C1519 1.416 1_554 S
C1518 C1514 1.375 . S
C1518 C1515 1.461 1_554 S
C1518 N1522 1.402 1_554 S
C1519 H1509 0.929 . S
C1519 C1517 1.416 1_556 S
C1519 N1522 1.384 . S
C1520 H1511 0.929 . S
C1520 C1512 1.378 . S
C1520 C1515 1.369 . S
C1521 H1508 0.929 . S
C1521 C1513 1.421 1_554 S
C1521 N1523 1.384 . S
N1522 C1518 1.402 1_556 S
N1522 C1519 1.384 . S
N1523 C1515 1.408 1_554 S
N1523 C1521 1.384 . S
H1524 C1530 0.930 . S
H1525 C1534 0.930 . S
H1526 C1539 0.929 . S
H1527 C1537 0.929 . S
H1528 C1532 0.929 . S
H1529 C1538 0.929 . S
C1530 H1524 0.930 . S
C1530 C1531 1.367 . S
C1530 C1538 1.378 . S
C1531 C1530 1.367 . S
C1531 C1539 1.433 1_455 S
C1532 H1528 0.929 . S
C1532 C1534 1.378 . S
C1532 C1536 1.316 1_655 S
C1533 C1536 1.465 . S
C1533 C1538 1.350 . S
C1533 N1541 1.427 1_455 S
C1534 H1525 0.930 . S
C1534 C1532 1.378 . S
C1534 C1535 1.367 1_655 S
C1535 C1534 1.367 1_455 S
C1535 C1537 1.433 . S
C1536 C1532 1.316 1_455 S
C1536 C1533 1.465 . S
C1536 N1540 1.462 . S
C1537 H1527 0.929 . S
C1537 C1535 1.433 . S
C1537 N1540 1.384 . S
C1538 H1529 0.929 . S
C1538 C1530 1.378 . S
C1538 C1533 1.350 . S
C1539 H1526 0.929 . S
C1539 C1531 1.433 1_655 S
C1539 N1541 1.384 . S
N1540 C1536 1.462 . S
N1540 C1537 1.384 . S
N1541 C1533 1.427 1_655 S
N1541 C1539 1.384 . S
H1542 C1548 0.930 . S
H1543 C1552 0.930 . S
H1544 C1557 0.929 . S
H1545 C1555 0.929 . S
H1546 C1550 0.929 . S
H1547 C1556 0.929 . S
C1548 H1542 0.930 . S
C1548 C1549 1.391 . S
C1548 C1556 1.378 . S
C1549 C1548 1.391 . S
C1549 C1557 1.408 1_545 S
C1550 H1546 0.929 . S
C1550 C1552 1.378 . S
C1550 C1554 1.374 . S
C1551 C1554 1.460 1_545 S
C1551 C1556 1.387 . S
C1551 N1559 1.390 1_545 S
C1552 H1543 0.930 . S
C1552 C1550 1.378 . S
C1552 C1553 1.379 . S
C1553 C1552 1.379 . S
C1553 C1555 1.421 1_565 S
C1554 C1550 1.374 . S
C1554 C1551 1.460 1_565 S
C1554 N1558 1.403 1_565 S
C1555 H1545 0.929 . S
C1555 C1553 1.421 1_545 S
C1555 N1558 1.384 . S
C1556 H1547 0.929 . S
C1556 C1548 1.378 . S
C1556 C1551 1.387 . S
C1557 H1544 0.929 . S
C1557 C1549 1.408 1_565 S
C1557 N1559 1.384 . S
N1558 C1554 1.403 1_545 S
N1558 C1555 1.384 . S
N1559 C1551 1.390 1_565 S
N1559 C1557 1.384 . S
H1560 C1566 0.930 . S
H1561 C1570 0.930 . S
H1562 C1575 0.929 . S
H1563 C1573 0.929 . S
H1564 C1568 0.929 . S
H1565 C1574 0.929 . S
C1566 H1560 0.930 . S
C1566 C1567 1.367 . S
C1566 C1574 1.378 . S
C1567 C1566 1.367 . S
C1567 C1575 1.433 1_455 S
C1568 H1564 0.929 . S
C1568 C1570 1.378 . S
C1568 C1572 1.350 1_655 S
C1569 C1572 1.463 . S
C1569 C1574 1.350 . S
C1569 N1577 1.427 1_455 S
C1570 H1561 0.930 . S
C1570 C1568 1.378 . S
C1570 C1571 1.367 1_655 S
C1571 C1570 1.367 1_455 S
C1571 C1573 1.433 . S
C1572 C1568 1.350 1_455 S
C1572 C1569 1.463 . S
C1572 N1576 1.427 . S
C1573 H1563 0.929 . S
C1573 C1571 1.433 . S
C1573 N1576 1.384 . S
C1574 H1565 0.929 . S
C1574 C1566 1.378 . S
C1574 C1569 1.350 . S
C1575 H1562 0.929 . S
C1575 C1567 1.433 1_655 S
C1575 N1577 1.384 . S
N1576 C1572 1.427 . S
N1576 C1573 1.384 . S
N1577 C1569 1.427 1_655 S
N1577 C1575 1.384 . S
H1578 C1584 0.930 . S
H1579 C1588 0.930 . S
H1580 C1593 0.929 . S
H1581 C1591 0.929 . S
H1582 C1586 0.929 . S
H1583 C1592 0.929 . S
C1584 H1578 0.930 . S
C1584 C1585 1.369 . S
C1584 C1592 1.378 . S
C1585 C1584 1.369 . S
C1585 C1593 1.431 1_565 S
C1586 H1582 0.929 . S
C1586 C1588 1.378 . S
C1586 C1590 1.362 . S
C1587 C1590 1.462 1_565 S
C1587 C1592 1.355 . S
C1587 N1595 1.422 1_565 S
C1588 H1579 0.930 . S
C1588 C1586 1.378 . S
C1588 C1589 1.375 . S
C1589 C1588 1.375 . S
C1589 C1591 1.425 1_545 S
C1590 C1586 1.362 . S
C1590 C1587 1.462 1_545 S
C1590 N1594 1.416 1_545 S
C1591 H1581 0.929 . S
C1591 C1589 1.425 1_565 S
C1591 N1594 1.384 . S
C1592 H1583 0.929 . S
C1592 C1584 1.378 . S
C1592 C1587 1.355 . S
C1593 H1580 0.929 . S
C1593 C1585 1.431 1_545 S
C1593 N1595 1.384 . S
N1594 C1590 1.416 1_565 S
N1594 C1591 1.384 . S
N1595 C1587 1.422 1_545 S
N1595 C1593 1.384 . S
H1596 C1602 0.930 . S
H1597 C1606 0.930 . S
H1598 C1611 0.929 . S
H1599 C1609 0.929 . S
H1600 C1604 0.929 . S
H1601 C1610 0.929 . S
C1602 H1596 0.930 . S
C1602 C1603 1.367 1_655 S
C1602 C1610 1.378 . S
C1603 C1602 1.367 1_455 S
C1603 C1611 1.433 . S
C1604 H1600 0.929 . S
C1604 C1606 1.378 . S
C1604 C1608 1.350 . S
C1605 C1608 1.463 . S
C1605 C1610 1.350 1_455 S
C1605 N1613 1.427 . S
C1606 H1597 0.930 . S
C1606 C1604 1.378 . S
C1606 C1607 1.367 . S
C1607 C1606 1.367 . S
C1607 C1609 1.433 1_455 S
C1608 C1604 1.350 . S
C1608 C1605 1.463 . S
C1608 N1612 1.427 1_455 S
C1609 H1599 0.929 . S
C1609 C1607 1.433 1_655 S
C1609 N1612 1.384 . S
C1610 H1601 0.929 . S
C1610 C1602 1.378 . S
C1610 C1605 1.350 1_655 S
C1611 H1598 0.929 . S
C1611 C1603 1.433 . S
C1611 N1613 1.384 . S
N1612 C1608 1.427 1_655 S
N1612 C1609 1.384 . S
N1613 C1605 1.427 . S
N1613 C1611 1.384 . S
H1614 C1620 0.930 . S
H1615 C1624 0.930 . S
H1616 C1629 0.929 . S
H1617 C1627 0.929 . S
H1618 C1622 0.929 . S
H1619 C1628 0.929 . S
C1620 H1614 0.930 . S
C1620 C1621 1.394 . S
C1620 C1628 1.378 . S
C1621 C1620 1.394 . S
C1621 C1629 1.406 1_545 S
C1622 H1618 0.929 . S
C1622 C1624 1.378 . S
C1622 C1626 1.374 . S
C1623 C1626 1.460 1_545 S
C1623 C1628 1.388 . S
C1623 N1631 1.389 1_545 S
C1624 H1615 0.930 . S
C1624 C1622 1.378 . S
C1624 C1625 1.381 . S
C1625 C1624 1.381 . S
C1625 C1627 1.419 1_565 S
C1626 C1622 1.374 . S
C1626 C1623 1.460 1_565 S
C1626 N1630 1.403 1_565 S
C1627 H1617 0.929 . S
C1627 C1625 1.419 1_545 S
C1627 N1630 1.384 . S
C1628 H1619 0.929 . S
C1628 C1620 1.378 . S
C1628 C1623 1.388 . S
C1629 H1616 0.929 . S
C1629 C1621 1.406 1_565 S
C1629 N1631 1.384 . S
N1630 C1626 1.403 1_545 S
N1630 C1627 1.384 . S
N1631 C1623 1.389 1_565 S
N1631 C1629 1.384 . S
H1632 C1638 0.930 . S
H1633 C1642 0.930 . S
H1634 C1647 0.929 . S
H1635 C1645 0.929 . S
H1636 C1640 0.929 . S
H1637 C1646 0.929 . S
C1638 H1632 0.930 . S
C1638 C1639 1.367 . S
C1638 C1646 1.378 . S
C1639 C1638 1.367 . S
C1639 C1647 1.433 1_455 S
C1640 H1636 0.929 . S
C1640 C1642 1.378 . S
C1640 C1644 1.350 1_655 S
C1641 C1644 1.463 . S
C1641 C1646 1.350 . S
C1641 N1649 1.427 1_455 S
C1642 H1633 0.930 . S
C1642 C1640 1.378 . S
C1642 C1643 1.367 1_655 S
C1643 C1642 1.367 1_455 S
C1643 C1645 1.433 . S
C1644 C1640 1.350 1_455 S
C1644 C1641 1.463 . S
C1644 N1648 1.427 . S
C1645 H1635 0.929 . S
C1645 C1643 1.433 . S
C1645 N1648 1.384 . S
C1646 H1637 0.929 . S
C1646 C1638 1.378 . S
C1646 C1641 1.350 . S
C1647 H1634 0.929 . S
C1647 C1639 1.433 1_655 S
C1647 N1649 1.384 . S
N1648 C1644 1.427 . S
N1648 C1645 1.384 . S
N1649 C1641 1.427 1_655 S
N1649 C1647 1.384 . S
H1650 C1656 0.930 . S
H1651 C1660 0.930 . S
H1652 C1665 0.929 . S
H1653 C1663 0.929 . S
H1654 C1658 0.929 . S
H1655 C1664 0.929 . S
C1656 H1650 0.930 . S
C1656 C1657 1.369 . S
C1656 C1664 1.378 . S
C1657 C1656 1.369 . S
C1657 C1665 1.431 1_565 S
C1658 H1654 0.929 . S
C1658 C1660 1.378 . S
C1658 C1662 1.368 . S
C1659 C1662 1.462 1_565 S
C1659 C1664 1.358 . S
C1659 N1667 1.419 1_565 S
C1660 H1651 0.930 . S
C1660 C1658 1.378 . S
C1660 C1661 1.379 . S
C1661 C1660 1.379 . S
C1661 C1663 1.422 1_545 S
C1662 C1658 1.368 . S
C1662 C1659 1.462 1_545 S
C1662 N1666 1.410 1_545 S
C1663 H1653 0.929 . S
C1663 C1661 1.422 1_565 S
C1663 N1666 1.384 . S
C1664 H1655 0.929 . S
C1664 C1656 1.378 . S
C1664 C1659 1.358 . S
C1665 H1652 0.929 . S
C1665 C1657 1.431 1_545 S
C1665 N1667 1.384 . S
N1666 C1662 1.410 1_565 S
N1666 C1663 1.384 . S
N1667 C1659 1.419 1_545 S
N1667 C1665 1.384 . S
H1668 C1674 0.930 . S
H1669 C1678 0.930 . S
H1670 C1683 0.929 . S
H1671 C1681 0.929 . S
H1672 C1676 0.929 . S
H1673 C1682 0.929 . S
C1674 H1668 0.930 . S
C1674 C1675 1.367 1_655 S
C1674 C1682 1.378 . S
C1675 C1674 1.367 1_455 S
C1675 C1683 1.433 . S
C1676 H1672 0.929 . S
C1676 C1678 1.378 . S
C1676 C1680 1.350 . S
C1677 C1680 1.465 . S
C1677 C1682 1.320 1_455 S
C1677 N1685 1.459 . S
C1678 H1669 0.930 . S
C1678 C1676 1.378 . S
C1678 C1679 1.367 . S
C1679 C1678 1.367 . S
C1679 C1681 1.433 1_455 S
C1680 C1676 1.350 . S
C1680 C1677 1.465 . S
C1680 N1684 1.427 1_455 S
C1681 H1671 0.929 . S
C1681 C1679 1.433 1_655 S
C1681 N1684 1.384 . S
C1682 H1673 0.929 . S
C1682 C1674 1.378 . S
C1682 C1677 1.320 1_655 S
C1683 H1670 0.929 . S
C1683 C1675 1.433 . S
C1683 N1685 1.384 . S
N1684 C1680 1.427 1_655 S
N1684 C1681 1.384 . S
N1685 C1677 1.459 . S
N1685 C1683 1.384 . S
H1686 C1692 0.930 . S
H1687 C1696 0.930 . S
H1688 C1701 0.929 . S
H1689 C1699 0.929 . S
H1690 C1694 0.929 . S
H1691 C1700 0.929 . S
C1692 H1686 0.930 . S
C1692 C1693 1.380 . S
C1692 C1700 1.378 . S
C1693 C1692 1.380 . S
C1693 C1701 1.420 1_545 S
C1694 H1690 0.929 . S
C1694 C1696 1.378 . S
C1694 C1698 1.362 . S
C1695 C1698 1.461 1_545 S
C1695 C1700 1.369 . S
C1695 N1703 1.408 1_545 S
C1696 H1687 0.930 . S
C1696 C1694 1.378 . S
C1696 C1697 1.374 . S
C1697 C1696 1.374 . S
C1697 C1699 1.426 1_565 S
C1698 C1694 1.362 . S
C1698 C1695 1.461 1_565 S
C1698 N1702 1.415 1_565 S
C1699 H1689 0.929 . S
C1699 C1697 1.426 1_545 S
C1699 N1702 1.384 . S
C1700 H1691 0.929 . S
C1700 C1692 1.378 . S
C1700 C1695 1.369 . S
C1701 H1688 0.929 . S
C1701 C1693 1.420 1_565 S
C1701 N1703 1.384 . S
N1702 C1698 1.415 1_545 S
N1702 C1699 1.384 . S
N1703 C1695 1.408 1_565 S
N1703 C1701 1.384 . S
H1704 C1710 0.930 . S
H1705 C1714 0.930 . S
H1706 C1719 0.929 . S
H1707 C1717 0.929 . S
H1708 C1712 0.929 . S
H1709 C1718 0.929 . S
C1710 H1704 0.930 . S
C1710 C1711 1.367 . S
C1710 C1718 1.378 . S
C1711 C1710 1.367 . S
C1711 C1719 1.433 1_455 S
C1712 H1708 0.929 . S
C1712 C1714 1.378 . S
C1712 C1716 1.350 1_655 S
C1713 C1716 1.463 . S
C1713 C1718 1.350 . S
C1713 N1721 1.427 1_455 S
C1714 H1705 0.930 . S
C1714 C1712 1.378 . S
C1714 C1715 1.367 1_655 S
C1715 C1714 1.367 1_455 S
C1715 C1717 1.433 . S
C1716 C1712 1.350 1_455 S
C1716 C1713 1.463 . S
C1716 N1720 1.427 . S
C1717 H1707 0.929 . S
C1717 C1715 1.433 . S
C1717 N1720 1.384 . S
C1718 H1709 0.929 . S
C1718 C1710 1.378 . S
C1718 C1713 1.350 . S
C1719 H1706 0.929 . S
C1719 C1711 1.433 1_655 S
C1719 N1721 1.384 . S
N1720 C1716 1.427 . S
N1720 C1717 1.384 . S
N1721 C1713 1.427 1_655 S
N1721 C1719 1.384 . S
H1722 C1728 0.930 . S
H1723 C1732 0.930 . S
H1724 C1737 0.929 . S
H1725 C1735 0.929 . S
H1726 C1730 0.929 . S
H1727 C1736 0.929 . S
C1728 H1722 0.930 . S
C1728 C1729 1.380 . S
C1728 C1736 1.378 . S
C1729 C1728 1.380 . S
C1729 C1737 1.420 1_545 S
C1730 H1726 0.929 . S
C1730 C1732 1.378 . S
C1730 C1734 1.363 . S
C1731 C1734 1.461 1_545 S
C1731 C1736 1.369 . S
C1731 N1739 1.408 1_545 S
C1732 H1723 0.930 . S
C1732 C1730 1.378 . S
C1732 C1733 1.374 . S
C1733 C1732 1.374 . S
C1733 C1735 1.426 1_565 S
C1734 C1730 1.363 . S
C1734 C1731 1.461 1_565 S
C1734 N1738 1.415 1_565 S
C1735 H1725 0.929 . S
C1735 C1733 1.426 1_545 S
C1735 N1738 1.384 . S
C1736 H1727 0.929 . S
C1736 C1728 1.378 . S
C1736 C1731 1.369 . S
C1737 H1724 0.929 . S
C1737 C1729 1.420 1_565 S
C1737 N1739 1.384 . S
N1738 C1734 1.415 1_545 S
N1738 C1735 1.384 . S
N1739 C1731 1.408 1_565 S
N1739 C1737 1.384 . S
H1740 C1746 0.930 . S
H1741 C1750 0.930 . S
H1742 C1755 0.929 . S
H1743 C1753 0.929 . S
H1744 C1748 0.929 . S
H1745 C1754 0.929 . S
C1746 H1740 0.930 . S
C1746 C1747 1.367 1_655 S
C1746 C1754 1.378 . S
C1747 C1746 1.367 1_455 S
C1747 C1755 1.433 . S
C1748 H1744 0.929 . S
C1748 C1750 1.378 . S
C1748 C1752 1.350 . S
C1749 C1752 1.465 . S
C1749 C1754 1.319 1_455 S
C1749 N1757 1.460 . S
C1750 H1741 0.930 . S
C1750 C1748 1.378 . S
C1750 C1751 1.367 . S
C1751 C1750 1.367 . S
C1751 C1753 1.433 1_455 S
C1752 C1748 1.350 . S
C1752 C1749 1.465 . S
C1752 N1756 1.427 1_455 S
C1753 H1743 0.929 . S
C1753 C1751 1.433 1_655 S
C1753 N1756 1.384 . S
C1754 H1745 0.929 . S
C1754 C1746 1.378 . S
C1754 C1749 1.319 1_655 S
C1755 H1742 0.929 . S
C1755 C1747 1.433 . S
C1755 N1757 1.384 . S
N1756 C1752 1.427 1_655 S
N1756 C1753 1.384 . S
N1757 C1749 1.460 . S
N1757 C1755 1.384 . S
H1758 C1764 0.930 . S
H1759 C1768 0.930 . S
H1760 C1773 0.929 . S
H1761 C1771 0.929 . S
H1762 C1766 0.929 . S
H1763 C1772 0.929 . S
C1764 H1758 0.930 . S
C1764 C1765 1.383 . S
C1764 C1772 1.378 . S
C1765 C1764 1.383 . S
C1765 C1773 1.417 1_565 S
C1766 H1762 0.929 . S
C1766 C1768 1.378 . S
C1766 C1770 1.383 . S
C1767 C1770 1.460 1_565 S
C1767 C1772 1.376 . S
C1767 N1775 1.401 1_565 S
C1768 H1759 0.930 . S
C1768 C1766 1.378 . S
C1768 C1769 1.390 . S
C1769 C1768 1.390 . S
C1769 C1771 1.410 1_545 S
C1770 C1766 1.383 . S
C1770 C1767 1.460 1_545 S
C1770 N1774 1.394 1_545 S
C1771 H1761 0.929 . S
C1771 C1769 1.410 1_565 S
C1771 N1774 1.384 . S
C1772 H1763 0.929 . S
C1772 C1764 1.378 . S
C1772 C1767 1.376 . S
C1773 H1760 0.929 . S
C1773 C1765 1.417 1_545 S
C1773 N1775 1.384 . S
N1774 C1770 1.394 1_565 S
N1774 C1771 1.384 . S
N1775 C1767 1.401 1_545 S
N1775 C1773 1.384 . S
H1776 C1782 0.930 . S
H1777 C1786 0.930 . S
H1778 C1791 0.929 . S
H1779 C1789 0.929 . S
H1780 C1784 0.929 . S
H1781 C1790 0.929 . S
C1782 H1776 0.930 . S
C1782 C1783 1.367 . S
C1782 C1790 1.378 . S
C1783 C1782 1.367 . S
C1783 C1791 1.433 1_455 S
C1784 H1780 0.929 . S
C1784 C1786 1.378 . S
C1784 C1788 1.350 1_655 S
C1785 C1788 1.463 . S
C1785 C1790 1.350 . S
C1785 N1793 1.427 1_455 S
C1786 H1777 0.930 . S
C1786 C1784 1.378 . S
C1786 C1787 1.367 1_655 S
C1787 C1786 1.367 1_455 S
C1787 C1789 1.433 . S
C1788 C1784 1.350 1_455 S
C1788 C1785 1.463 . S
C1788 N1792 1.427 . S
C1789 H1779 0.929 . S
C1789 C1787 1.433 . S
C1789 N1792 1.384 . S
C1790 H1781 0.929 . S
C1790 C1782 1.378 . S
C1790 C1785 1.350 . S
C1791 H1778 0.929 . S
C1791 C1783 1.433 1_655 S
C1791 N1793 1.384 . S
N1792 C1788 1.427 . S
N1792 C1789 1.384 . S
N1793 C1785 1.427 1_655 S
N1793 C1791 1.384 . S
H1794 C1800 0.930 . S
H1795 C1804 0.930 . S
H1796 C1809 0.929 . S
H1797 C1807 0.929 . S
H1798 C1802 0.929 . S
H1799 C1808 0.929 . S
C1800 H1794 0.930 . S
C1800 C1801 1.377 . S
C1800 C1808 1.378 . S
C1801 C1800 1.377 . S
C1801 C1809 1.423 1_565 S
C1802 H1798 0.929 . S
C1802 C1804 1.378 . S
C1802 C1806 1.373 . S
C1803 C1806 1.461 1_565 S
C1803 C1808 1.367 . S
C1803 N1811 1.410 1_565 S
C1804 H1795 0.930 . S
C1804 C1802 1.378 . S
C1804 C1805 1.382 . S
C1805 C1804 1.382 . S
C1805 C1807 1.417 1_545 S
C1806 C1802 1.373 . S
C1806 C1803 1.461 1_545 S
C1806 N1810 1.405 1_545 S
C1807 H1797 0.929 . S
C1807 C1805 1.417 1_565 S
C1807 N1810 1.384 . S
C1808 H1799 0.929 . S
C1808 C1800 1.378 . S
C1808 C1803 1.367 . S
C1809 H1796 0.929 . S
C1809 C1801 1.423 1_545 S
C1809 N1811 1.384 . S
N1810 C1806 1.405 1_565 S
N1810 C1807 1.384 . S
N1811 C1803 1.410 1_545 S
N1811 C1809 1.384 . S
H1812 C1818 0.930 . S
H1813 C1822 0.930 . S
H1814 C1827 0.929 . S
H1815 C1825 0.929 . S
H1816 C1820 0.929 . S
H1817 C1826 0.929 . S
C1818 H1812 0.930 . S
C1818 C1819 1.371 . S
C1818 C1826 1.378 . S
C1819 C1818 1.371 . S
C1819 C1827 1.429 1_565 S
C1820 H1816 0.929 . S
C1820 C1822 1.378 . S
C1820 C1824 1.371 . S
C1821 C1824 1.461 1_565 S
C1821 C1826 1.360 . S
C1821 N1829 1.417 1_565 S
C1822 H1813 0.930 . S
C1822 C1820 1.378 . S
C1822 C1823 1.382 . S
C1823 C1822 1.382 . S
C1823 C1825 1.418 1_545 S
C1824 C1820 1.371 . S
C1824 C1821 1.461 1_545 S
C1824 N1828 1.406 1_545 S
C1825 H1815 0.929 . S
C1825 C1823 1.418 1_565 S
C1825 N1828 1.384 . S
C1826 H1817 0.929 . S
C1826 C1818 1.378 . S
C1826 C1821 1.360 . S
C1827 H1814 0.929 . S
C1827 C1819 1.429 1_545 S
C1827 N1829 1.384 . S
N1828 C1824 1.406 1_565 S
N1828 C1825 1.384 . S
N1829 C1821 1.417 1_545 S
N1829 C1827 1.384 . S
H1830 C1836 0.930 . S
H1831 C1840 0.930 . S
H1832 C1845 0.929 . S
H1833 C1843 0.929 . S
H1834 C1838 0.929 . S
H1835 C1844 0.929 . S
C1836 H1830 0.930 . S
C1836 C1837 1.367 . S
C1836 C1844 1.378 . S
C1837 C1836 1.367 . S
C1837 C1845 1.433 1_455 S
C1838 H1834 0.929 . S
C1838 C1840 1.378 . S
C1838 C1842 1.350 1_655 S
C1839 C1842 1.463 . S
C1839 C1844 1.350 . S
C1839 N1847 1.427 1_455 S
C1840 H1831 0.930 . S
C1840 C1838 1.378 . S
C1840 C1841 1.367 1_655 S
C1841 C1840 1.367 1_455 S
C1841 C1843 1.433 . S
C1842 C1838 1.350 1_455 S
C1842 C1839 1.463 . S
C1842 N1846 1.427 . S
C1843 H1833 0.929 . S
C1843 C1841 1.433 . S
C1843 N1846 1.384 . S
C1844 H1835 0.929 . S
C1844 C1836 1.378 . S
C1844 C1839 1.350 . S
C1845 H1832 0.929 . S
C1845 C1837 1.433 1_655 S
C1845 N1847 1.384 . S
N1846 C1842 1.427 . S
N1846 C1843 1.384 . S
N1847 C1839 1.427 1_655 S
N1847 C1845 1.384 . S
H1848 C1854 0.930 . S
H1849 C1858 0.930 . S
H1850 C1863 0.929 . S
H1851 C1861 0.929 . S
H1852 C1856 0.929 . S
H1853 C1862 0.929 . S
C1854 H1848 0.930 . S
C1854 C1855 1.376 . S
C1854 C1862 1.378 . S
C1855 C1854 1.376 . S
C1855 C1863 1.424 1_565 S
C1856 H1852 0.929 . S
C1856 C1858 1.378 . S
C1856 C1860 1.383 . S
C1857 C1860 1.461 1_565 S
C1857 C1862 1.369 . S
C1857 N1865 1.408 1_565 S
C1858 H1849 0.930 . S
C1858 C1856 1.378 . S
C1858 C1859 1.390 . S
C1859 C1858 1.390 . S
C1859 C1861 1.410 1_545 S
C1860 C1856 1.383 . S
C1860 C1857 1.461 1_545 S
C1860 N1864 1.394 1_545 S
C1861 H1851 0.929 . S
C1861 C1859 1.410 1_565 S
C1861 N1864 1.384 . S
C1862 H1853 0.929 . S
C1862 C1854 1.378 . S
C1862 C1857 1.369 . S
C1863 H1850 0.929 . S
C1863 C1855 1.424 1_545 S
C1863 N1865 1.384 . S
N1864 C1860 1.394 1_565 S
N1864 C1861 1.384 . S
N1865 C1857 1.408 1_545 S
N1865 C1863 1.384 . S
H1866 C1872 0.930 . S
H1867 C1876 0.930 . S
H1868 C1881 0.929 . S
H1869 C1879 0.929 . S
H1870 C1874 0.929 . S
H1871 C1880 0.929 . S
C1872 H1866 0.930 . S
C1872 C1873 1.367 . S
C1872 C1880 1.378 . S
C1873 C1872 1.367 . S
C1873 C1881 1.433 1_455 S
C1874 H1870 0.929 . S
C1874 C1876 1.378 . S
C1874 C1878 1.320 1_655 S
C1875 C1878 1.465 . S
C1875 C1880 1.350 . S
C1875 N1883 1.427 1_455 S
C1876 H1867 0.930 . S
C1876 C1874 1.378 . S
C1876 C1877 1.367 1_655 S
C1877 C1876 1.367 1_455 S
C1877 C1879 1.433 . S
C1878 C1874 1.320 1_455 S
C1878 C1875 1.465 . S
C1878 N1882 1.459 . S
C1879 H1869 0.929 . S
C1879 C1877 1.433 . S
C1879 N1882 1.384 . S
C1880 H1871 0.929 . S
C1880 C1872 1.378 . S
C1880 C1875 1.350 . S
C1881 H1868 0.929 . S
C1881 C1873 1.433 1_655 S
C1881 N1883 1.384 . S
N1882 C1878 1.459 . S
N1882 C1879 1.384 . S
N1883 C1875 1.427 1_655 S
N1883 C1881 1.384 . S
H1884 C1890 0.930 . S
H1885 C1894 0.930 . S
H1886 C1899 0.929 . S
H1887 C1897 0.929 . S
H1888 C1892 0.929 . S
H1889 C1898 0.929 . S
C1890 H1884 0.930 . S
C1890 C1891 1.378 . S
C1890 C1898 1.378 . S
C1891 C1890 1.378 . S
C1891 C1899 1.421 1_565 S
C1892 H1888 0.929 . S
C1892 C1894 1.378 . S
C1892 C1896 1.381 . S
C1893 C1896 1.461 1_565 S
C1893 C1898 1.371 . S
C1893 N1901 1.406 1_565 S
C1894 H1885 0.930 . S
C1894 C1892 1.378 . S
C1894 C1895 1.388 . S
C1895 C1894 1.388 . S
C1895 C1897 1.411 1_545 S
C1896 C1892 1.381 . S
C1896 C1893 1.461 1_545 S
C1896 N1900 1.396 1_545 S
C1897 H1887 0.929 . S
C1897 C1895 1.411 1_565 S
C1897 N1900 1.384 . S
C1898 H1889 0.929 . S
C1898 C1890 1.378 . S
C1898 C1893 1.371 . S
C1899 H1886 0.929 . S
C1899 C1891 1.421 1_545 S
C1899 N1901 1.384 . S
N1900 C1896 1.396 1_565 S
N1900 C1897 1.384 . S
N1901 C1893 1.406 1_545 S
N1901 C1899 1.384 . S
H1902 C1908 0.930 . S
H1903 C1912 0.930 . S
H1904 C1917 0.929 . S
H1905 C1915 0.929 . S
H1906 C1910 0.929 . S
H1907 C1916 0.929 . S
C1908 H1902 0.930 . S
C1908 C1909 1.367 1_655 S
C1908 C1916 1.378 . S
C1909 C1908 1.367 1_455 S
C1909 C1917 1.433 . S
C1910 H1906 0.929 . S
C1910 C1912 1.378 . S
C1910 C1914 1.350 . S
C1911 C1914 1.463 . S
C1911 C1916 1.350 1_455 S
C1911 N1919 1.427 . S
C1912 H1903 0.930 . S
C1912 C1910 1.378 . S
C1912 C1913 1.367 . S
C1913 C1912 1.367 . S
C1913 C1915 1.433 1_455 S
C1914 C1910 1.350 . S
C1914 C1911 1.463 . S
C1914 N1918 1.427 1_455 S
C1915 H1905 0.929 . S
C1915 C1913 1.433 1_655 S
C1915 N1918 1.384 . S
C1916 H1907 0.929 . S
C1916 C1908 1.378 . S
C1916 C1911 1.350 1_655 S
C1917 H1904 0.929 . S
C1917 C1909 1.433 . S
C1917 N1919 1.384 . S
N1918 C1914 1.427 1_655 S
N1918 C1915 1.384 . S
N1919 C1911 1.427 . S
N1919 C1917 1.384 . S
H1920 C1926 0.930 . S
H1921 C1930 0.930 . S
H1922 C1935 0.929 . S
H1923 C1933 0.929 . S
H1924 C1928 0.929 . S
H1925 C1934 0.929 . S
C1926 H1920 0.930 . S
C1926 C1927 1.380 . S
C1926 C1934 1.378 . S
C1927 C1926 1.380 . S
C1927 C1935 1.420 1_545 S
C1928 H1924 0.929 . S
C1928 C1930 1.378 . S
C1928 C1932 1.367 . S
C1929 C1932 1.461 1_545 S
C1929 C1934 1.371 . S
C1929 N1937 1.407 1_545 S
C1930 H1921 0.930 . S
C1930 C1928 1.378 . S
C1930 C1931 1.376 . S
C1931 C1930 1.376 . S
C1931 C1933 1.424 1_565 S
C1932 C1928 1.367 . S
C1932 C1929 1.461 1_565 S
C1932 N1936 1.411 1_565 S
C1933 H1923 0.929 . S
C1933 C1931 1.424 1_545 S
C1933 N1936 1.384 . S
C1934 H1925 0.929 . S
C1934 C1926 1.378 . S
C1934 C1929 1.371 . S
C1935 H1922 0.929 . S
C1935 C1927 1.420 1_565 S
C1935 N1937 1.384 . S
N1936 C1932 1.411 1_545 S
N1936 C1933 1.384 . S
N1937 C1929 1.407 1_565 S
N1937 C1935 1.384 . S
H1938 C1944 0.930 . S
H1939 C1948 0.930 . S
H1940 C1953 0.929 . S
H1941 C1951 0.929 . S
H1942 C1946 0.929 . S
H1943 C1952 0.929 . S
C1944 H1938 0.930 . S
C1944 C1945 1.367 . S
C1944 C1952 1.378 . S
C1945 C1944 1.367 . S
C1945 C1953 1.433 1_455 S
C1946 H1942 0.929 . S
C1946 C1948 1.378 . S
C1946 C1950 1.350 1_655 S
C1947 C1950 1.463 . S
C1947 C1952 1.350 . S
C1947 N1955 1.427 1_455 S
C1948 H1939 0.930 . S
C1948 C1946 1.378 . S
C1948 C1949 1.367 1_655 S
C1949 C1948 1.367 1_455 S
C1949 C1951 1.433 . S
C1950 C1946 1.350 1_455 S
C1950 C1947 1.463 . S
C1950 N1954 1.427 . S
C1951 H1941 0.929 . S
C1951 C1949 1.433 . S
C1951 N1954 1.384 . S
C1952 H1943 0.929 . S
C1952 C1944 1.378 . S
C1952 C1947 1.350 . S
C1953 H1940 0.929 . S
C1953 C1945 1.433 1_655 S
C1953 N1955 1.384 . S
N1954 C1950 1.427 . S
N1954 C1951 1.384 . S
N1955 C1947 1.427 1_655 S
N1955 C1953 1.384 . S
H1956 C1962 0.930 . S
H1957 C1966 0.930 . S
H1958 C1971 0.929 . S
H1959 C1969 0.929 . S
H1960 C1964 0.929 . S
H1961 C1970 0.929 . S
C1962 H1956 0.930 . S
C1962 C1963 1.374 . S
C1962 C1970 1.378 . S
C1963 C1962 1.374 . S
C1963 C1971 1.426 1_554 S
C1964 H1960 0.929 . S
C1964 C1966 1.378 . S
C1964 C1968 1.357 . S
C1965 C1968 1.462 1_554 S
C1965 C1970 1.361 . S
C1965 N1973 1.416 1_554 S
C1966 H1957 0.930 . S
C1966 C1964 1.378 . S
C1966 C1967 1.370 . S
C1967 C1966 1.370 . S
C1967 C1969 1.430 1_556 S
C1968 C1964 1.357 . S
C1968 C1965 1.462 1_556 S
C1968 N1972 1.420 1_556 S
C1969 H1959 0.929 . S
C1969 C1967 1.430 1_554 S
C1969 N1972 1.384 . S
C1970 H1961 0.929 . S
C1970 C1962 1.378 . S
C1970 C1965 1.361 . S
C1971 H1958 0.929 . S
C1971 C1963 1.426 1_556 S
C1971 N1973 1.384 . S
N1972 C1968 1.420 1_554 S
N1972 C1969 1.384 . S
N1973 C1965 1.416 1_556 S
N1973 C1971 1.384 . S
H1974 C1980 0.930 . S
H1975 C1984 0.930 . S
H1976 C1989 0.929 . S
H1977 C1987 0.929 . S
H1978 C1982 0.929 . S
H1979 C1988 0.929 . S
C1980 H1974 0.930 . S
C1980 C1981 1.384 . S
C1980 C1988 1.378 . S
C1981 C1980 1.384 . S
C1981 C1989 1.416 1_554 S
C1982 H1978 0.929 . S
C1982 C1984 1.378 . S
C1982 C1986 1.367 . S
C1983 C1986 1.461 1_554 S
C1983 C1988 1.374 . S
C1983 N1991 1.403 1_554 S
C1984 H1975 0.930 . S
C1984 C1982 1.378 . S
C1984 C1985 1.376 . S
C1985 C1984 1.376 . S
C1985 C1987 1.424 1_556 S
C1986 C1982 1.367 . S
C1986 C1983 1.461 1_556 S
C1986 N1990 1.410 1_556 S
C1987 H1977 0.929 . S
C1987 C1985 1.424 1_554 S
C1987 N1990 1.384 . S
C1988 H1979 0.929 . S
C1988 C1980 1.378 . S
C1988 C1983 1.374 . S
C1989 H1976 0.929 . S
C1989 C1981 1.416 1_556 S
C1989 N1991 1.384 . S
N1990 C1986 1.410 1_554 S
N1990 C1987 1.384 . S
N1991 C1983 1.403 1_556 S
N1991 C1989 1.384 . S
H1992 C1998 0.930 . S
H1993 C2002 0.930 . S
H1994 C2007 0.929 . S
H1995 C2005 0.929 . S
H1996 C2000 0.929 . S
H1997 C2006 0.929 . S
C1998 H1992 0.930 . S
C1998 C1999 1.384 . S
C1998 C2006 1.378 . S
C1999 C1998 1.384 . S
C1999 C2007 1.416 1_556 S
C2000 H1996 0.929 . S
C2000 C2002 1.378 . S
C2000 C2004 1.383 . S
C2001 C2004 1.460 1_556 S
C2001 C2006 1.378 . S
C2001 N2009 1.399 1_556 S
C2002 H1993 0.930 . S
C2002 C2000 1.378 . S
C2002 C2003 1.389 . S
C2003 C2002 1.389 . S
C2003 C2005 1.411 1_554 S
C2004 C2000 1.383 . S
C2004 C2001 1.460 1_554 S
C2004 N2008 1.394 1_554 S
C2005 H1995 0.929 . S
C2005 C2003 1.411 1_556 S
C2005 N2008 1.384 . S
C2006 H1997 0.929 . S
C2006 C1998 1.378 . S
C2006 C2001 1.378 . S
C2007 H1994 0.929 . S
C2007 C1999 1.416 1_554 S
C2007 N2009 1.384 . S
N2008 C2004 1.394 1_556 S
N2008 C2005 1.384 . S
N2009 C2001 1.399 1_554 S
N2009 C2007 1.384 . S
H2010 C2016 0.930 . S
H2011 C2020 0.930 . S
H2012 C2025 0.929 . S
H2013 C2023 0.929 . S
H2014 C2018 0.929 . S
H2015 C2024 0.929 . S
C2016 H2010 0.930 . S
C2016 C2017 1.379 . S
C2016 C2024 1.378 . S
C2017 C2016 1.379 . S
C2017 C2025 1.421 1_556 S
C2018 H2014 0.929 . S
C2018 C2020 1.378 . S
C2018 C2022 1.376 . S
C2019 C2022 1.461 1_556 S
C2019 C2024 1.370 . S
C2019 N2027 1.407 1_556 S
C2020 H2011 0.930 . S
C2020 C2018 1.378 . S
C2020 C2021 1.385 . S
C2021 C2020 1.385 . S
C2021 C2023 1.415 1_554 S
C2022 C2018 1.376 . S
C2022 C2019 1.461 1_554 S
C2022 N2026 1.401 1_554 S
C2023 H2013 0.929 . S
C2023 C2021 1.415 1_556 S
C2023 N2026 1.384 . S
C2024 H2015 0.929 . S
C2024 C2016 1.378 . S
C2024 C2019 1.370 . S
C2025 H2012 0.929 . S
C2025 C2017 1.421 1_554 S
C2025 N2027 1.384 . S
N2026 C2022 1.401 1_556 S
N2026 C2023 1.384 . S
N2027 C2019 1.407 1_554 S
N2027 C2025 1.384 . S
H2028 C2034 0.930 . S
H2029 C2038 0.930 . S
H2030 C2043 0.929 . S
H2031 C2041 0.929 . S
H2032 C2036 0.929 . S
H2033 C2042 0.929 . S
C2034 H2028 0.930 . S
C2034 C2035 1.389 . S
C2034 C2042 1.378 . S
C2035 C2034 1.389 . S
C2035 C2043 1.411 1_554 S
C2036 H2032 0.929 . S
C2036 C2038 1.378 . S
C2036 C2040 1.372 . S
C2037 C2040 1.461 1_554 S
C2037 C2042 1.382 . S
C2037 N2045 1.395 1_554 S
C2038 H2029 0.930 . S
C2038 C2036 1.378 . S
C2038 C2039 1.379 . S
C2039 C2038 1.379 . S
C2039 C2041 1.421 1_556 S
C2040 C2036 1.372 . S
C2040 C2037 1.461 1_556 S
C2040 N2044 1.405 1_556 S
C2041 H2031 0.929 . S
C2041 C2039 1.421 1_554 S
C2041 N2044 1.384 . S
C2042 H2033 0.929 . S
C2042 C2034 1.378 . S
C2042 C2037 1.382 . S
C2043 H2030 0.929 . S
C2043 C2035 1.411 1_556 S
C2043 N2045 1.384 . S
N2044 C2040 1.405 1_554 S
N2044 C2041 1.384 . S
N2045 C2037 1.395 1_556 S
N2045 C2043 1.384 . S
H2046 C2052 0.930 . S
H2047 C2056 0.930 . S
H2048 C2061 0.929 . S
H2049 C2059 0.929 . S
H2050 C2054 0.929 . S
H2051 C2060 0.929 . S
C2052 H2046 0.930 . S
C2052 C2053 1.371 . S
C2052 C2060 1.378 . S
C2053 C2052 1.371 . S
C2053 C2061 1.429 1_554 S
C2054 H2050 0.929 . S
C2054 C2056 1.378 . S
C2054 C2058 1.352 . S
C2055 C2058 1.462 1_554 S
C2055 C2060 1.356 . S
C2055 N2063 1.421 1_554 S
C2056 H2047 0.930 . S
C2056 C2054 1.378 . S
C2056 C2057 1.367 . S
C2057 C2056 1.367 . S
C2057 C2059 1.433 1_556 S
C2058 C2054 1.352 . S
C2058 C2055 1.462 1_556 S
C2058 N2062 1.425 1_556 S
C2059 H2049 0.929 . S
C2059 C2057 1.433 1_554 S
C2059 N2062 1.384 . S
C2060 H2051 0.929 . S
C2060 C2052 1.378 . S
C2060 C2055 1.356 . S
C2061 H2048 0.929 . S
C2061 C2053 1.429 1_556 S
C2061 N2063 1.384 . S
N2062 C2058 1.425 1_554 S
N2062 C2059 1.384 . S
N2063 C2055 1.421 1_556 S
N2063 C2061 1.384 . S
H2064 C2070 0.930 . S
H2065 C2074 0.930 . S
H2066 C2079 0.929 . S
H2067 C2077 0.929 . S
H2068 C2072 0.929 . S
H2069 C2078 0.929 . S
C2070 H2064 0.930 . S
C2070 C2071 1.367 1_556 S
C2070 C2078 1.378 . S
C2071 C2070 1.367 1_554 S
C2071 C2079 1.433 . S
C2072 H2068 0.929 . S
C2072 C2074 1.378 . S
C2072 C2076 1.351 . S
C2073 C2076 1.462 . S
C2073 C2078 1.350 1_554 S
C2073 N2081 1.427 . S
C2074 H2065 0.930 . S
C2074 C2072 1.378 . S
C2074 C2075 1.367 . S
C2075 C2074 1.367 . S
C2075 C2077 1.433 1_554 S
C2076 C2072 1.351 . S
C2076 C2073 1.462 . S
C2076 N2080 1.427 1_554 S
C2077 H2067 0.929 . S
C2077 C2075 1.433 1_556 S
C2077 N2080 1.384 . S
C2078 H2069 0.929 . S
C2078 C2070 1.378 . S
C2078 C2073 1.350 1_556 S
C2079 H2066 0.929 . S
C2079 C2071 1.433 . S
C2079 N2081 1.384 . S
N2080 C2076 1.427 1_556 S
N2080 C2077 1.384 . S
N2081 C2073 1.427 . S
N2081 C2079 1.384 . S
H2082 C2088 0.930 . S
H2083 C2092 0.930 . S
H2084 C2097 0.929 . S
H2085 C2095 0.929 . S
H2086 C2090 0.929 . S
H2087 C2096 0.929 . S
C2088 H2082 0.930 . S
C2088 C2089 1.370 . S
C2088 C2096 1.378 . S
C2089 C2088 1.370 . S
C2089 C2097 1.430 1_556 S
C2090 H2086 0.929 . S
C2090 C2092 1.378 . S
C2090 C2094 1.359 . S
C2091 C2094 1.462 1_556 S
C2091 C2096 1.356 . S
C2091 N2099 1.421 1_556 S
C2092 H2083 0.930 . S
C2092 C2090 1.378 . S
C2092 C2093 1.373 . S
C2093 C2092 1.373 . S
C2093 C2095 1.427 1_554 S
C2094 C2090 1.359 . S
C2094 C2091 1.462 1_554 S
C2094 N2098 1.418 1_554 S
C2095 H2085 0.929 . S
C2095 C2093 1.427 1_556 S
C2095 N2098 1.384 . S
C2096 H2087 0.929 . S
C2096 C2088 1.378 . S
C2096 C2091 1.356 . S
C2097 H2084 0.929 . S
C2097 C2089 1.430 1_554 S
C2097 N2099 1.384 . S
N2098 C2094 1.418 1_556 S
N2098 C2095 1.384 . S
N2099 C2091 1.421 1_554 S
N2099 C2097 1.384 . S
H2100 C2106 0.930 . S
H2101 C2110 0.930 . S
H2102 C2115 0.929 . S
H2103 C2113 0.929 . S
H2104 C2108 0.929 . S
H2105 C2114 0.929 . S
C2106 H2100 0.930 . S
C2106 C2107 1.367 . S
C2106 C2114 1.378 . S
C2107 C2106 1.367 . S
C2107 C2115 1.433 . S
C2108 H2104 0.929 . S
C2108 C2110 1.378 . S
C2108 C2112 1.350 . S
C2109 C2112 1.463 . S
C2109 C2114 1.350 . S
C2109 N2117 1.427 . S
C2110 H2101 0.930 . S
C2110 C2108 1.378 . S
C2110 C2111 1.367 . S
C2111 C2110 1.367 . S
C2111 C2113 1.433 . S
C2112 C2108 1.350 . S
C2112 C2109 1.463 . S
C2112 N2116 1.427 . S
C2113 H2103 0.929 . S
C2113 C2111 1.433 . S
C2113 N2116 1.384 . S
C2114 H2105 0.929 . S
C2114 C2106 1.378 . S
C2114 C2109 1.350 . S
C2115 H2102 0.929 . S
C2115 C2107 1.433 . S
C2115 N2117 1.384 . S
N2116 C2112 1.427 . S
N2116 C2113 1.384 . S
N2117 C2109 1.427 . S
N2117 C2115 1.384 . S
H2118 C2124 0.930 . S
H2119 C2128 0.930 . S
H2120 C2133 0.929 . S
H2121 C2131 0.929 . S
H2122 C2126 0.929 . S
H2123 C2132 0.929 . S
C2124 H2118 0.930 . S
C2124 C2125 1.367 . S
C2124 C2132 1.378 . S
C2125 C2124 1.367 . S
C2125 C2133 1.433 . S
C2126 H2122 0.929 . S
C2126 C2128 1.378 . S
C2126 C2130 1.350 . S
C2127 C2130 1.463 . S
C2127 C2132 1.350 . S
C2127 N2135 1.427 . S
C2128 H2119 0.930 . S
C2128 C2126 1.378 . S
C2128 C2129 1.367 . S
C2129 C2128 1.367 . S
C2129 C2131 1.433 . S
C2130 C2126 1.350 . S
C2130 C2127 1.463 . S
C2130 N2134 1.427 . S
C2131 H2121 0.929 . S
C2131 C2129 1.433 . S
C2131 N2134 1.384 . S
C2132 H2123 0.929 . S
C2132 C2124 1.378 . S
C2132 C2127 1.350 . S
C2133 H2120 0.929 . S
C2133 C2125 1.433 . S
C2133 N2135 1.384 . S
N2134 C2130 1.427 . S
N2134 C2131 1.384 . S
N2135 C2127 1.427 . S
N2135 C2133 1.384 . S
H2136 C2142 0.930 . S
H2137 C2146 0.930 . S
H2138 C2151 0.929 . S
H2139 C2149 0.929 . S
H2140 C2144 0.929 . S
H2141 C2150 0.929 . S
C2142 H2136 0.930 . S
C2142 C2143 1.367 . S
C2142 C2150 1.378 . S
C2143 C2142 1.367 . S
C2143 C2151 1.433 . S
C2144 H2140 0.929 . S
C2144 C2146 1.378 . S
C2144 C2148 1.350 . S
C2145 C2148 1.463 . S
C2145 C2150 1.350 . S
C2145 N2153 1.427 . S
C2146 H2137 0.930 . S
C2146 C2144 1.378 . S
C2146 C2147 1.367 . S
C2147 C2146 1.367 . S
C2147 C2149 1.433 . S
C2148 C2144 1.350 . S
C2148 C2145 1.463 . S
C2148 N2152 1.427 . S
C2149 H2139 0.929 . S
C2149 C2147 1.433 . S
C2149 N2152 1.384 . S
C2150 H2141 0.929 . S
C2150 C2142 1.378 . S
C2150 C2145 1.350 . S
C2151 H2138 0.929 . S
C2151 C2143 1.433 . S
C2151 N2153 1.384 . S
N2152 C2148 1.427 . S
N2152 C2149 1.384 . S
N2153 C2145 1.427 . S
N2153 C2151 1.384 . S
H2154 C2160 0.930 . S
H2155 C2164 0.930 . S
H2156 C2169 0.929 . S
H2157 C2167 0.929 . S
H2158 C2162 0.929 . S
H2159 C2168 0.929 . S
C2160 H2154 0.930 . S
C2160 C2161 1.367 . S
C2160 C2168 1.378 . S
C2161 C2160 1.367 . S
C2161 C2169 1.433 . S
C2162 H2158 0.929 . S
C2162 C2164 1.378 . S
C2162 C2166 1.350 . S
C2163 C2166 1.463 . S
C2163 C2168 1.350 . S
C2163 N2171 1.427 . S
C2164 H2155 0.930 . S
C2164 C2162 1.378 . S
C2164 C2165 1.367 . S
C2165 C2164 1.367 . S
C2165 C2167 1.433 . S
C2166 C2162 1.350 . S
C2166 C2163 1.463 . S
C2166 N2170 1.427 . S
C2167 H2157 0.929 . S
C2167 C2165 1.433 . S
C2167 N2170 1.384 . S
C2168 H2159 0.929 . S
C2168 C2160 1.378 . S
C2168 C2163 1.350 . S
C2169 H2156 0.929 . S
C2169 C2161 1.433 . S
C2169 N2171 1.384 . S
N2170 C2166 1.427 . S
N2170 C2167 1.384 . S
N2171 C2163 1.427 . S
N2171 C2169 1.384 . S
H2172 C2178 0.930 . S
H2173 C2182 0.930 . S
H2174 C2187 0.929 . S
H2175 C2185 0.929 . S
H2176 C2180 0.929 . S
H2177 C2186 0.929 . S
C2178 H2172 0.930 . S
C2178 C2179 1.367 . S
C2178 C2186 1.378 . S
C2179 C2178 1.367 . S
C2179 C2187 1.433 . S
C2180 H2176 0.929 . S
C2180 C2182 1.378 . S
C2180 C2184 1.350 . S
C2181 C2184 1.463 . S
C2181 C2186 1.350 . S
C2181 N2189 1.427 . S
C2182 H2173 0.930 . S
C2182 C2180 1.378 . S
C2182 C2183 1.367 . S
C2183 C2182 1.367 . S
C2183 C2185 1.433 . S
C2184 C2180 1.350 . S
C2184 C2181 1.463 . S
C2184 N2188 1.427 . S
C2185 H2175 0.929 . S
C2185 C2183 1.433 . S
C2185 N2188 1.384 . S
C2186 H2177 0.929 . S
C2186 C2178 1.378 . S
C2186 C2181 1.350 . S
C2187 H2174 0.929 . S
C2187 C2179 1.433 . S
C2187 N2189 1.384 . S
N2188 C2184 1.427 . S
N2188 C2185 1.384 . S
N2189 C2181 1.427 . S
N2189 C2187 1.384 . S
H2190 C2196 0.930 . S
H2191 C2200 0.930 . S
H2192 C2205 0.929 . S
H2193 C2203 0.929 . S
H2194 C2198 0.929 . S
H2195 C2204 0.929 . S
C2196 H2190 0.930 . S
C2196 C2197 1.367 . S
C2196 C2204 1.378 . S
C2197 C2196 1.367 . S
C2197 C2205 1.433 . S
C2198 H2194 0.929 . S
C2198 C2200 1.378 . S
C2198 C2202 1.350 . S
C2199 C2202 1.463 . S
C2199 C2204 1.350 . S
C2199 N2207 1.427 . S
C2200 H2191 0.930 . S
C2200 C2198 1.378 . S
C2200 C2201 1.367 . S
C2201 C2200 1.367 . S
C2201 C2203 1.433 . S
C2202 C2198 1.350 . S
C2202 C2199 1.463 . S
C2202 N2206 1.427 . S
C2203 H2193 0.929 . S
C2203 C2201 1.433 . S
C2203 N2206 1.384 . S
C2204 H2195 0.929 . S
C2204 C2196 1.378 . S
C2204 C2199 1.350 . S
C2205 H2192 0.929 . S
C2205 C2197 1.433 . S
C2205 N2207 1.384 . S
N2206 C2202 1.427 . S
N2206 C2203 1.384 . S
N2207 C2199 1.427 . S
N2207 C2205 1.384 . S
H2208 C2214 0.930 . S
H2209 C2218 0.930 . S
H2210 C2223 0.929 . S
H2211 C2221 0.929 . S
H2212 C2216 0.929 . S
H2213 C2222 0.929 . S
C2214 H2208 0.930 . S
C2214 C2215 1.367 . S
C2214 C2222 1.378 . S
C2215 C2214 1.367 . S
C2215 C2223 1.433 . S
C2216 H2212 0.929 . S
C2216 C2218 1.378 . S
C2216 C2220 1.350 . S
C2217 C2220 1.463 . S
C2217 C2222 1.350 . S
C2217 N2225 1.427 . S
C2218 H2209 0.930 . S
C2218 C2216 1.378 . S
C2218 C2219 1.367 . S
C2219 C2218 1.367 . S
C2219 C2221 1.433 . S
C2220 C2216 1.350 . S
C2220 C2217 1.463 . S
C2220 N2224 1.427 . S
C2221 H2211 0.929 . S
C2221 C2219 1.433 . S
C2221 N2224 1.384 . S
C2222 H2213 0.929 . S
C2222 C2214 1.378 . S
C2222 C2217 1.350 . S
C2223 H2210 0.929 . S
C2223 C2215 1.433 . S
C2223 N2225 1.384 . S
N2224 C2220 1.427 . S
N2224 C2221 1.384 . S
N2225 C2217 1.427 . S
N2225 C2223 1.384 . S
H2226 C2232 0.930 . S
H2227 C2236 0.930 . S
H2228 C2241 0.929 . S
H2229 C2239 0.929 . S
H2230 C2234 0.929 . S
H2231 C2240 0.929 . S
C2232 H2226 0.930 . S
C2232 C2233 1.367 . S
C2232 C2240 1.378 . S
C2233 C2232 1.367 . S
C2233 C2241 1.433 . S
C2234 H2230 0.929 . S
C2234 C2236 1.378 . S
C2234 C2238 1.350 . S
C2235 C2238 1.463 . S
C2235 C2240 1.350 . S
C2235 N2243 1.427 . S
C2236 H2227 0.930 . S
C2236 C2234 1.378 . S
C2236 C2237 1.367 . S
C2237 C2236 1.367 . S
C2237 C2239 1.433 . S
C2238 C2234 1.350 . S
C2238 C2235 1.463 . S
C2238 N2242 1.427 . S
C2239 H2229 0.929 . S
C2239 C2237 1.433 . S
C2239 N2242 1.384 . S
C2240 H2231 0.929 . S
C2240 C2232 1.378 . S
C2240 C2235 1.350 . S
C2241 H2228 0.929 . S
C2241 C2233 1.433 . S
C2241 N2243 1.384 . S
N2242 C2238 1.427 . S
N2242 C2239 1.384 . S
N2243 C2235 1.427 . S
N2243 C2241 1.384 . S
H2244 C2250 0.930 . S
H2245 C2254 0.930 . S
H2246 C2259 0.929 . S
H2247 C2257 0.929 . S
H2248 C2252 0.929 . S
H2249 C2258 0.929 . S
C2250 H2244 0.930 . S
C2250 C2251 1.367 . S
C2250 C2258 1.378 . S
C2251 C2250 1.367 . S
C2251 C2259 1.433 . S
C2252 H2248 0.929 . S
C2252 C2254 1.378 . S
C2252 C2256 1.350 . S
C2253 C2256 1.463 . S
C2253 C2258 1.350 . S
C2253 N2261 1.427 . S
C2254 H2245 0.930 . S
C2254 C2252 1.378 . S
C2254 C2255 1.367 . S
C2255 C2254 1.367 . S
C2255 C2257 1.433 . S
C2256 C2252 1.350 . S
C2256 C2253 1.463 . S
C2256 N2260 1.427 . S
C2257 H2247 0.929 . S
C2257 C2255 1.433 . S
C2257 N2260 1.384 . S
C2258 H2249 0.929 . S
C2258 C2250 1.378 . S
C2258 C2253 1.350 . S
C2259 H2246 0.929 . S
C2259 C2251 1.433 . S
C2259 N2261 1.384 . S
N2260 C2256 1.427 . S
N2260 C2257 1.384 . S
N2261 C2253 1.427 . S
N2261 C2259 1.384 . S
H2262 C2268 0.930 . S
H2263 C2272 0.930 . S
H2264 C2277 0.929 . S
H2265 C2275 0.929 . S
H2266 C2270 0.929 . S
H2267 C2276 0.929 . S
C2268 H2262 0.930 . S
C2268 C2269 1.367 . S
C2268 C2276 1.378 . S
C2269 C2268 1.367 . S
C2269 C2277 1.433 . S
C2270 H2266 0.929 . S
C2270 C2272 1.378 . S
C2270 C2274 1.350 . S
C2271 C2274 1.463 . S
C2271 C2276 1.350 . S
C2271 N2279 1.427 . S
C2272 H2263 0.930 . S
C2272 C2270 1.378 . S
C2272 C2273 1.367 . S
C2273 C2272 1.367 . S
C2273 C2275 1.433 . S
C2274 C2270 1.350 . S
C2274 C2271 1.463 . S
C2274 N2278 1.427 . S
C2275 H2265 0.929 . S
C2275 C2273 1.433 . S
C2275 N2278 1.384 . S
C2276 H2267 0.929 . S
C2276 C2268 1.378 . S
C2276 C2271 1.350 . S
C2277 H2264 0.929 . S
C2277 C2269 1.433 . S
C2277 N2279 1.384 . S
N2278 C2274 1.427 . S
N2278 C2275 1.384 . S
N2279 C2271 1.427 . S
N2279 C2277 1.384 . S
H2280 C2286 0.930 . S
H2281 C2290 0.930 . S
H2282 C2295 0.929 . S
H2283 C2293 0.929 . S
H2284 C2288 0.929 . S
H2285 C2294 0.929 . S
C2286 H2280 0.930 . S
C2286 C2287 1.367 . S
C2286 C2294 1.378 . S
C2287 C2286 1.367 . S
C2287 C2295 1.433 . S
C2288 H2284 0.929 . S
C2288 C2290 1.378 . S
C2288 C2292 1.350 . S
C2289 C2292 1.463 . S
C2289 C2294 1.350 . S
C2289 N2297 1.427 . S
C2290 H2281 0.930 . S
C2290 C2288 1.378 . S
C2290 C2291 1.367 . S
C2291 C2290 1.367 . S
C2291 C2293 1.433 . S
C2292 C2288 1.350 . S
C2292 C2289 1.463 . S
C2292 N2296 1.427 . S
C2293 H2283 0.929 . S
C2293 C2291 1.433 . S
C2293 N2296 1.384 . S
C2294 H2285 0.929 . S
C2294 C2286 1.378 . S
C2294 C2289 1.350 . S
C2295 H2282 0.929 . S
C2295 C2287 1.433 . S
C2295 N2297 1.384 . S
N2296 C2292 1.427 . S
N2296 C2293 1.384 . S
N2297 C2289 1.427 . S
N2297 C2295 1.384 . S
H2298 C2304 0.930 . S
H2299 C2308 0.930 . S
H2300 C2313 0.929 . S
H2301 C2311 0.929 . S
H2302 C2306 0.929 . S
H2303 C2312 0.929 . S
C2304 H2298 0.930 . S
C2304 C2305 1.367 . S
C2304 C2312 1.378 . S
C2305 C2304 1.367 . S
C2305 C2313 1.433 . S
C2306 H2302 0.929 . S
C2306 C2308 1.378 . S
C2306 C2310 1.350 . S
C2307 C2310 1.463 . S
C2307 C2312 1.350 . S
C2307 N2315 1.427 . S
C2308 H2299 0.930 . S
C2308 C2306 1.378 . S
C2308 C2309 1.367 . S
C2309 C2308 1.367 . S
C2309 C2311 1.433 . S
C2310 C2306 1.350 . S
C2310 C2307 1.463 . S
C2310 N2314 1.427 . S
C2311 H2301 0.929 . S
C2311 C2309 1.433 . S
C2311 N2314 1.384 . S
C2312 H2303 0.929 . S
C2312 C2304 1.378 . S
C2312 C2307 1.350 . S
C2313 H2300 0.929 . S
C2313 C2305 1.433 . S
C2313 N2315 1.384 . S
N2314 C2310 1.427 . S
N2314 C2311 1.384 . S
N2315 C2307 1.427 . S
N2315 C2313 1.384 . S
H2316 C2322 0.930 . S
H2317 C2326 0.930 . S
H2318 C2331 0.929 . S
H2319 C2329 0.929 . S
H2320 C2324 0.929 . S
H2321 C2330 0.929 . S
C2322 H2316 0.930 . S
C2322 C2323 1.367 . S
C2322 C2330 1.378 . S
C2323 C2322 1.367 . S
C2323 C2331 1.433 . S
C2324 H2320 0.929 . S
C2324 C2326 1.378 . S
C2324 C2328 1.350 . S
C2325 C2328 1.463 . S
C2325 C2330 1.350 . S
C2325 N2333 1.427 . S
C2326 H2317 0.930 . S
C2326 C2324 1.378 . S
C2326 C2327 1.367 . S
C2327 C2326 1.367 . S
C2327 C2329 1.433 . S
C2328 C2324 1.350 . S
C2328 C2325 1.463 . S
C2328 N2332 1.427 . S
C2329 H2319 0.929 . S
C2329 C2327 1.433 . S
C2329 N2332 1.384 . S
C2330 H2321 0.929 . S
C2330 C2322 1.378 . S
C2330 C2325 1.350 . S
C2331 H2318 0.929 . S
C2331 C2323 1.433 . S
C2331 N2333 1.384 . S
N2332 C2328 1.427 . S
N2332 C2329 1.384 . S
N2333 C2325 1.427 . S
N2333 C2331 1.384 . S
H2334 C2340 0.930 . S
H2335 C2344 0.930 . S
H2336 C2349 0.929 . S
H2337 C2347 0.929 . S
H2338 C2342 0.929 . S
H2339 C2348 0.929 . S
C2340 H2334 0.930 . S
C2340 C2341 1.367 . S
C2340 C2348 1.378 . S
C2341 C2340 1.367 . S
C2341 C2349 1.433 . S
C2342 H2338 0.929 . S
C2342 C2344 1.378 . S
C2342 C2346 1.350 . S
C2343 C2346 1.463 . S
C2343 C2348 1.350 . S
C2343 N2351 1.427 . S
C2344 H2335 0.930 . S
C2344 C2342 1.378 . S
C2344 C2345 1.367 . S
C2345 C2344 1.367 . S
C2345 C2347 1.433 . S
C2346 C2342 1.350 . S
C2346 C2343 1.463 . S
C2346 N2350 1.427 . S
C2347 H2337 0.929 . S
C2347 C2345 1.433 . S
C2347 N2350 1.384 . S
C2348 H2339 0.929 . S
C2348 C2340 1.378 . S
C2348 C2343 1.350 . S
C2349 H2336 0.929 . S
C2349 C2341 1.433 . S
C2349 N2351 1.384 . S
N2350 C2346 1.427 . S
N2350 C2347 1.384 . S
N2351 C2343 1.427 . S
N2351 C2349 1.384 . S
H2352 C2358 0.930 . S
H2353 C2362 0.930 . S
H2354 C2367 0.929 . S
H2355 C2365 0.929 . S
H2356 C2360 0.929 . S
H2357 C2366 0.929 . S
C2358 H2352 0.930 . S
C2358 C2359 1.367 . S
C2358 C2366 1.378 . S
C2359 C2358 1.367 . S
C2359 C2367 1.433 . S
C2360 H2356 0.929 . S
C2360 C2362 1.378 . S
C2360 C2364 1.350 . S
C2361 C2364 1.463 . S
C2361 C2366 1.350 . S
C2361 N2369 1.427 . S
C2362 H2353 0.930 . S
C2362 C2360 1.378 . S
C2362 C2363 1.367 . S
C2363 C2362 1.367 . S
C2363 C2365 1.433 . S
C2364 C2360 1.350 . S
C2364 C2361 1.463 . S
C2364 N2368 1.427 . S
C2365 H2355 0.929 . S
C2365 C2363 1.433 . S
C2365 N2368 1.384 . S
C2366 H2357 0.929 . S
C2366 C2358 1.378 . S
C2366 C2361 1.350 . S
C2367 H2354 0.929 . S
C2367 C2359 1.433 . S
C2367 N2369 1.384 . S
N2368 C2364 1.427 . S
N2368 C2365 1.384 . S
N2369 C2361 1.427 . S
N2369 C2367 1.384 . S
H2370 C2376 0.930 . S
H2371 C2380 0.930 . S
H2372 C2385 0.929 . S
H2373 C2383 0.929 . S
H2374 C2378 0.929 . S
H2375 C2384 0.929 . S
C2376 H2370 0.930 . S
C2376 C2377 1.367 . S
C2376 C2384 1.378 . S
C2377 C2376 1.367 . S
C2377 C2385 1.433 . S
C2378 H2374 0.929 . S
C2378 C2380 1.378 . S
C2378 C2382 1.350 . S
C2379 C2382 1.463 . S
C2379 C2384 1.350 . S
C2379 N2387 1.427 . S
C2380 H2371 0.930 . S
C2380 C2378 1.378 . S
C2380 C2381 1.367 . S
C2381 C2380 1.367 . S
C2381 C2383 1.433 . S
C2382 C2378 1.350 . S
C2382 C2379 1.463 . S
C2382 N2386 1.427 . S
C2383 H2373 0.929 . S
C2383 C2381 1.433 . S
C2383 N2386 1.384 . S
C2384 H2375 0.929 . S
C2384 C2376 1.378 . S
C2384 C2379 1.350 . S
C2385 H2372 0.929 . S
C2385 C2377 1.433 . S
C2385 N2387 1.384 . S
N2386 C2382 1.427 . S
N2386 C2383 1.384 . S
N2387 C2379 1.427 . S
N2387 C2385 1.384 . S
H2388 C2394 0.930 . S
H2389 C2398 0.930 . S
H2390 C2403 0.929 . S
H2391 C2401 0.929 . S
H2392 C2396 0.929 . S
H2393 C2402 0.929 . S
C2394 H2388 0.930 . S
C2394 C2395 1.367 . S
C2394 C2402 1.378 . S
C2395 C2394 1.367 . S
C2395 C2403 1.433 . S
C2396 H2392 0.929 . S
C2396 C2398 1.378 . S
C2396 C2400 1.350 . S
C2397 C2400 1.463 . S
C2397 C2402 1.350 . S
C2397 N2405 1.427 . S
C2398 H2389 0.930 . S
C2398 C2396 1.378 . S
C2398 C2399 1.367 . S
C2399 C2398 1.367 . S
C2399 C2401 1.433 . S
C2400 C2396 1.350 . S
C2400 C2397 1.463 . S
C2400 N2404 1.427 . S
C2401 H2391 0.929 . S
C2401 C2399 1.433 . S
C2401 N2404 1.384 . S
C2402 H2393 0.929 . S
C2402 C2394 1.378 . S
C2402 C2397 1.350 . S
C2403 H2390 0.929 . S
C2403 C2395 1.433 . S
C2403 N2405 1.384 . S
N2404 C2400 1.427 . S
N2404 C2401 1.384 . S
N2405 C2397 1.427 . S
N2405 C2403 1.384 . S
H2406 C2412 0.930 . S
H2407 C2416 0.930 . S
H2408 C2421 0.929 . S
H2409 C2419 0.929 . S
H2410 C2414 0.929 . S
H2411 C2420 0.929 . S
C2412 H2406 0.930 . S
C2412 C2413 1.367 . S
C2412 C2420 1.378 . S
C2413 C2412 1.367 . S
C2413 C2421 1.433 . S
C2414 H2410 0.929 . S
C2414 C2416 1.378 . S
C2414 C2418 1.350 . S
C2415 C2418 1.463 . S
C2415 C2420 1.350 . S
C2415 N2423 1.427 . S
C2416 H2407 0.930 . S
C2416 C2414 1.378 . S
C2416 C2417 1.367 . S
C2417 C2416 1.367 . S
C2417 C2419 1.433 . S
C2418 C2414 1.350 . S
C2418 C2415 1.463 . S
C2418 N2422 1.427 . S
C2419 H2409 0.929 . S
C2419 C2417 1.433 . S
C2419 N2422 1.384 . S
C2420 H2411 0.929 . S
C2420 C2412 1.378 . S
C2420 C2415 1.350 . S
C2421 H2408 0.929 . S
C2421 C2413 1.433 . S
C2421 N2423 1.384 . S
N2422 C2418 1.427 . S
N2422 C2419 1.384 . S
N2423 C2415 1.427 . S
N2423 C2421 1.384 . S
H2424 C2430 0.930 . S
H2425 C2434 0.930 . S
H2426 C2439 0.929 . S
H2427 C2437 0.929 . S
H2428 C2432 0.929 . S
H2429 C2438 0.929 . S
C2430 H2424 0.930 . S
C2430 C2431 1.367 . S
C2430 C2438 1.378 . S
C2431 C2430 1.367 . S
C2431 C2439 1.433 . S
C2432 H2428 0.929 . S
C2432 C2434 1.378 . S
C2432 C2436 1.350 . S
C2433 C2436 1.463 . S
C2433 C2438 1.350 . S
C2433 N2441 1.427 . S
C2434 H2425 0.930 . S
C2434 C2432 1.378 . S
C2434 C2435 1.367 . S
C2435 C2434 1.367 . S
C2435 C2437 1.433 . S
C2436 C2432 1.350 . S
C2436 C2433 1.463 . S
C2436 N2440 1.427 . S
C2437 H2427 0.929 . S
C2437 C2435 1.433 . S
C2437 N2440 1.384 . S
C2438 H2429 0.929 . S
C2438 C2430 1.378 . S
C2438 C2433 1.350 . S
C2439 H2426 0.929 . S
C2439 C2431 1.433 . S
C2439 N2441 1.384 . S
N2440 C2436 1.427 . S
N2440 C2437 1.384 . S
N2441 C2433 1.427 . S
N2441 C2439 1.384 . S
H2442 C2448 0.930 . S
H2443 C2452 0.930 . S
H2444 C2457 0.929 . S
H2445 C2455 0.929 . S
H2446 C2450 0.929 . S
H2447 C2456 0.929 . S
C2448 H2442 0.930 . S
C2448 C2449 1.367 . S
C2448 C2456 1.378 . S
C2449 C2448 1.367 . S
C2449 C2457 1.433 . S
C2450 H2446 0.929 . S
C2450 C2452 1.378 . S
C2450 C2454 1.350 . S
C2451 C2454 1.463 . S
C2451 C2456 1.350 . S
C2451 N2459 1.427 . S
C2452 H2443 0.930 . S
C2452 C2450 1.378 . S
C2452 C2453 1.367 . S
C2453 C2452 1.367 . S
C2453 C2455 1.433 . S
C2454 C2450 1.350 . S
C2454 C2451 1.463 . S
C2454 N2458 1.427 . S
C2455 H2445 0.929 . S
C2455 C2453 1.433 . S
C2455 N2458 1.384 . S
C2456 H2447 0.929 . S
C2456 C2448 1.378 . S
C2456 C2451 1.350 . S
C2457 H2444 0.929 . S
C2457 C2449 1.433 . S
C2457 N2459 1.384 . S
N2458 C2454 1.427 . S
N2458 C2455 1.384 . S
N2459 C2451 1.427 . S
N2459 C2457 1.384 . S
H2460 C2466 0.930 . S
H2461 C2470 0.930 . S
H2462 C2475 0.929 . S
H2463 C2473 0.929 . S
H2464 C2468 0.929 . S
H2465 C2474 0.929 . S
C2466 H2460 0.930 . S
C2466 C2467 1.367 . S
C2466 C2474 1.378 . S
C2467 C2466 1.367 . S
C2467 C2475 1.433 . S
C2468 H2464 0.929 . S
C2468 C2470 1.378 . S
C2468 C2472 1.350 . S
C2469 C2472 1.463 . S
C2469 C2474 1.350 . S
C2469 N2477 1.427 . S
C2470 H2461 0.930 . S
C2470 C2468 1.378 . S
C2470 C2471 1.367 . S
C2471 C2470 1.367 . S
C2471 C2473 1.433 . S
C2472 C2468 1.350 . S
C2472 C2469 1.463 . S
C2472 N2476 1.427 . S
C2473 H2463 0.929 . S
C2473 C2471 1.433 . S
C2473 N2476 1.384 . S
C2474 H2465 0.929 . S
C2474 C2466 1.378 . S
C2474 C2469 1.350 . S
C2475 H2462 0.929 . S
C2475 C2467 1.433 . S
C2475 N2477 1.384 . S
N2476 C2472 1.427 . S
N2476 C2473 1.384 . S
N2477 C2469 1.427 . S
N2477 C2475 1.384 . S
H2478 C2484 0.930 . S
H2479 C2488 0.930 . S
H2480 C2493 0.929 . S
H2481 C2491 0.929 . S
H2482 C2486 0.929 . S
H2483 C2492 0.929 . S
C2484 H2478 0.930 . S
C2484 C2485 1.367 . S
C2484 C2492 1.378 . S
C2485 C2484 1.367 . S
C2485 C2493 1.433 . S
C2486 H2482 0.929 . S
C2486 C2488 1.378 . S
C2486 C2490 1.350 . S
C2487 C2490 1.463 . S
C2487 C2492 1.350 . S
C2487 N2495 1.427 . S
C2488 H2479 0.930 . S
C2488 C2486 1.378 . S
C2488 C2489 1.367 . S
C2489 C2488 1.367 . S
C2489 C2491 1.433 . S
C2490 C2486 1.350 . S
C2490 C2487 1.463 . S
C2490 N2494 1.427 . S
C2491 H2481 0.929 . S
C2491 C2489 1.433 . S
C2491 N2494 1.384 . S
C2492 H2483 0.929 . S
C2492 C2484 1.378 . S
C2492 C2487 1.350 . S
C2493 H2480 0.929 . S
C2493 C2485 1.433 . S
C2493 N2495 1.384 . S
N2494 C2490 1.427 . S
N2494 C2491 1.384 . S
N2495 C2487 1.427 . S
N2495 C2493 1.384 . S
H2496 C2502 0.930 . S
H2497 C2506 0.930 . S
H2498 C2511 0.929 . S
H2499 C2509 0.929 . S
H2500 C2504 0.929 . S
H2501 C2510 0.929 . S
C2502 H2496 0.930 . S
C2502 C2503 1.367 . S
C2502 C2510 1.378 . S
C2503 C2502 1.367 . S
C2503 C2511 1.433 . S
C2504 H2500 0.929 . S
C2504 C2506 1.378 . S
C2504 C2508 1.350 . S
C2505 C2508 1.463 . S
C2505 C2510 1.350 . S
C2505 N2513 1.427 . S
C2506 H2497 0.930 . S
C2506 C2504 1.378 . S
C2506 C2507 1.367 . S
C2507 C2506 1.367 . S
C2507 C2509 1.433 . S
C2508 C2504 1.350 . S
C2508 C2505 1.463 . S
C2508 N2512 1.427 . S
C2509 H2499 0.929 . S
C2509 C2507 1.433 . S
C2509 N2512 1.384 . S
C2510 H2501 0.929 . S
C2510 C2502 1.378 . S
C2510 C2505 1.350 . S
C2511 H2498 0.929 . S
C2511 C2503 1.433 . S
C2511 N2513 1.384 . S
N2512 C2508 1.427 . S
N2512 C2509 1.384 . S
N2513 C2505 1.427 . S
N2513 C2511 1.384 . S
H2514 C2520 0.930 . S
H2515 C2524 0.930 . S
H2516 C2529 0.929 . S
H2517 C2527 0.929 . S
H2518 C2522 0.929 . S
H2519 C2528 0.929 . S
C2520 H2514 0.930 . S
C2520 C2521 1.367 . S
C2520 C2528 1.378 . S
C2521 C2520 1.367 . S
C2521 C2529 1.433 . S
C2522 H2518 0.929 . S
C2522 C2524 1.378 . S
C2522 C2526 1.350 . S
C2523 C2526 1.463 . S
C2523 C2528 1.350 . S
C2523 N2531 1.427 . S
C2524 H2515 0.930 . S
C2524 C2522 1.378 . S
C2524 C2525 1.367 . S
C2525 C2524 1.367 . S
C2525 C2527 1.433 . S
C2526 C2522 1.350 . S
C2526 C2523 1.463 . S
C2526 N2530 1.427 . S
C2527 H2517 0.929 . S
C2527 C2525 1.433 . S
C2527 N2530 1.384 . S
C2528 H2519 0.929 . S
C2528 C2520 1.378 . S
C2528 C2523 1.350 . S
C2529 H2516 0.929 . S
C2529 C2521 1.433 . S
C2529 N2531 1.384 . S
N2530 C2526 1.427 . S
N2530 C2527 1.384 . S
N2531 C2523 1.427 . S
N2531 C2529 1.384 . S
C1247 C942 1.045 . S
C1243 C898 1.043 . S
C1261 C820 1.045 . S
C1265 C940 1.042 . S
C1283 C941 1.044 . S
C1279 C781 1.046 . S
C1297 C859 1.044 . S
C1301 C943 1.046 . S
C1319 C987 1.044 . S
C1315 C625 1.041 . S
C1337 C1047 1.044 . S
C1333 C664 1.042 . S
C1351 C703 1.043 . S
C1355 C986 1.044 . S
C1373 C1046 1.045 . S
C1369 C742 1.043 . S
C1387 C469 1.045 . S
C1391 C988 1.048 . S
C1409 C1044 1.045 . S
C1405 C508 1.047 . S
C1423 C547 1.043 . S
C1427 C989 1.044 . S
C1441 C586 1.045 . S
C1445 C1045 1.046 . S
C1463 C1095 1.045 1_556 S
C1459 C430 1.044 . S
C1477 C352 1.044 . S
C1481 C1094 1.044 1_556 S
C1495 C313 1.043 . S
C1499 C1096 1.044 . S
C1517 C1097 1.045 . S
C1513 C391 1.045 . S
C1531 C157 1.044 . S
C1535 C1138 1.044 . S
C1549 C196 1.043 1_545 S
C1553 C1197 1.044 1_565 S
C1567 C235 1.045 . S
C1571 C1136 1.045 . S
C1585 C274 1.045 . S
C1589 C1196 1.045 . S
C1607 C1137 1.044 . S
C1603 C1 1.044 . S
C1625 C1194 1.045 1_565 S
C1621 C40 1.044 . S
C1639 C79 1.045 . S
C1643 C1139 1.045 . S
C1661 C1195 1.044 . S
C1657 C118 1.043 1_565 S
C1679 C939 1.946 . S
C1675 C16 1.823 . S
C1693 C60 1.829 . S
C1697 C945 1.949 1_565 S
C1711 C99 1.833 . S
C1715 C937 1.953 . S
C1729 C133 1.838 1_545 S
C1733 C944 1.953 1_565 S
C1747 C172 1.826 . S
C1751 C936 1.948 . S
C1769 C946 1.950 . S
C1765 C211 1.831 1_565 S
C1783 C255 1.833 . S
C1787 C938 1.950 . S
C1805 C947 1.949 . S
C1801 C294 1.829 . S
C1823 C993 1.951 . S
C1819 C138 1.828 1_565 S
C1837 C21 1.832 . S
C1841 C1036 1.950 . S
C1859 C991 1.948 . S
C1855 C55 1.826 . S
C1877 C1038 1.950 . S
C1873 C94 1.833 . S
C1891 C216 1.832 . S
C1895 C992 1.953 . S
C1913 C1037 1.946 . S
C1909 C250 1.825 . S
C1931 C990 1.948 1_565 S
C1927 C289 1.828 . S
C1949 C1039 1.952 . S
C1945 C177 1.834 . S
C1967 C1043 1.949 1_556 S
C1963 C328 1.826 . S
C1981 C367 1.837 1_554 S
C1985 C1042 1.953 1_556 S
C2003 C994 1.952 . S
C1999 C333 1.832 . S
C2021 C1041 1.950 . S
C2017 C411 1.830 . S
C2035 C445 1.834 1_554 S
C2039 C997 1.952 1_556 S
C2053 C450 1.841 . S
C2057 C1040 1.954 1_556 S
C2075 C996 1.950 . S
C2071 C372 1.829 . S
C2093 C995 1.952 . S
C2089 C406 1.836 1_556 S
C2111 C1089 1.945 . S
C2107 C484 1.824 . S
C2129 C1092 1.948 . S
C2125 C528 1.828 . S
C2143 C567 1.831 . S
C2147 C1088 1.954 . S
C2165 C1090 1.951 . S
C2161 C601 1.832 . S
C2183 C1086 1.951 . S
C2179 C640 1.835 . S
C2197 C679 1.826 . S
C2201 C1091 1.947 . S
C2215 C723 1.831 . S
C2219 C1087 1.950 . S
C2237 C1093 1.948 . S
C2233 C762 1.824 . S
C2255 C1147 1.952 . S
C2251 C606 1.833 . S
C2269 C489 1.829 . S
C2273 C1186 1.953 . S
C2291 C1146 1.949 . S
C2287 C523 1.831 . S
C2309 C1188 1.946 . S
C2305 C562 1.822 . S
C2327 C1145 1.951 . S
C2323 C684 1.832 . S
C2341 C718 1.835 . S
C2345 C1187 1.952 . S
C2363 C1144 1.948 . S
C2359 C757 1.826 . S
C2381 C1189 1.956 . S
C2377 C645 1.840 . S
C2399 C1193 1.953 . S
C2395 C796 1.840 . S
C2413 C835 1.836 . S
C2417 C1192 1.950 . S
C2435 C1140 1.955 . S
C2431 C801 1.842 . S
C2449 C879 1.829 . S
C2453 C1191 1.951 . S
C2471 C1143 1.952 . S
C2467 C913 1.838 . S
C2489 C1190 1.948 . S
C2485 C918 1.824 . S
C2507 C1141 1.950 . S
C2503 C840 1.828 . S
C2521 C874 1.823 . S
C2525 C1142 1.947 . S
