# Generated by pormake.
# Topology nom, (4,4)-cn, num edge types: 1
# Building blocks:
#     Node 0, Type 0, BuildingBlock: GIZVER_clean_linker_0, # of connection points: 4
#     Node 1, Type 0, BuildingBlock: GIZVER_clean_linker_0, # of connection points: 4
#     Node 2, Type 0, BuildingBlock: GIZVER_clean_linker_0, # of connection points: 4
#     Node 3, Type 0, BuildingBlock: GIZVER_clean_linker_0, # of connection points: 4
#     Node 4, Type 0, BuildingBlock: GIZVER_clean_linker_0, # of connection points: 4
#     Node 5, Type 0, BuildingBlock: GIZVER_clean_linker_0, # of connection points: 4
#     Node 6, Type 1, BuildingBlock: AZAVOO_clean_sbu_0, # of connection points: 4
#     Node 7, Type 1, BuildingBlock: AZAVOO_clean_sbu_0, # of connection points: 4
#     Node 8, Type 1, BuildingBlock: AZAVOO_clean_sbu_0, # of connection points: 4
#     Node 9, Type 1, BuildingBlock: AZAVOO_clean_sbu_0, # of connection points: 4
#     Node 10, Type 1, BuildingBlock: AZAVOO_clean_sbu_0, # of connection points: 4
#     Node 11, Type 1, BuildingBlock: AZAVOO_clean_sbu_0, # of connection points: 4
#     Edge 12, Type (0, 1), BuildingBlock: EZIPEK_clean_linker_0, # of connection points: 2
#     Edge 13, Type (0, 1), BuildingBlock: EZIPEK_clean_linker_0, # of connection points: 2
#     Edge 14, Type (0, 1), BuildingBlock: EZIPEK_clean_linker_0, # of connection points: 2
#     Edge 15, Type (0, 1), BuildingBlock: EZIPEK_clean_linker_0, # of connection points: 2
#     Edge 16, Type (0, 1), BuildingBlock: EZIPEK_clean_linker_0, # of connection points: 2
#     Edge 17, Type (0, 1), BuildingBlock: EZIPEK_clean_linker_0, # of connection points: 2
#     Edge 18, Type (0, 1), BuildingBlock: EZIPEK_clean_linker_0, # of connection points: 2
#     Edge 19, Type (0, 1), BuildingBlock: EZIPEK_clean_linker_0, # of connection points: 2
#     Edge 20, Type (0, 1), BuildingBlock: EZIPEK_clean_linker_0, # of connection points: 2
#     Edge 21, Type (0, 1), BuildingBlock: EZIPEK_clean_linker_0, # of connection points: 2
#     Edge 22, Type (0, 1), BuildingBlock: EZIPEK_clean_linker_0, # of connection points: 2
#     Edge 23, Type (0, 1), BuildingBlock: EZIPEK_clean_linker_0, # of connection points: 2
#     Edge 24, Type (0, 1), BuildingBlock: EZIPEK_clean_linker_0, # of connection points: 2
#     Edge 25, Type (0, 1), BuildingBlock: EZIPEK_clean_linker_0, # of connection points: 2
#     Edge 26, Type (0, 1), BuildingBlock: EZIPEK_clean_linker_0, # of connection points: 2
#     Edge 27, Type (0, 1), BuildingBlock: EZIPEK_clean_linker_0, # of connection points: 2
#     Edge 28, Type (0, 1), BuildingBlock: EZIPEK_clean_linker_0, # of connection points: 2
#     Edge 29, Type (0, 1), BuildingBlock: EZIPEK_clean_linker_0, # of connection points: 2
#     Edge 30, Type (0, 1), BuildingBlock: EZIPEK_clean_linker_0, # of connection points: 2
#     Edge 31, Type (0, 1), BuildingBlock: EZIPEK_clean_linker_0, # of connection points: 2
#     Edge 32, Type (0, 1), BuildingBlock: EZIPEK_clean_linker_0, # of connection points: 2
#     Edge 33, Type (0, 1), BuildingBlock: EZIPEK_clean_linker_0, # of connection points: 2
#     Edge 34, Type (0, 1), BuildingBlock: EZIPEK_clean_linker_0, # of connection points: 2
#     Edge 35, Type (0, 1), BuildingBlock: EZIPEK_clean_linker_0, # of connection points: 2
# Relax obj value: 0.032
# Max RMSD: 0.163
# Mean RMSD: 0.107
data_MOF--net-nom--node1-AZAVOO_clean_sbu_0--node2-GIZVER_clean_linker_0--edge1-EZIPEK_clean_linker_0
_symmetry_space_group_name_H-M    P1
_symmetry_Int_Tables_number       1
_symmetry_cell_setting            triclinic
loop_
_symmetry_equiv_pos_as_xyz
'x, y, z'
_cell_length_a     34.860608
_cell_length_b     34.987289
_cell_length_c     33.116695
_cell_angle_alpha  92.098642
_cell_angle_beta   91.752292
_cell_angle_gamma 120.15179
loop_
_atom_site_label
_atom_site_type_symbol
_atom_site_fract_x
_atom_site_fract_y
_atom_site_fract_z
_atom_type_partial_charge
H0 H 0.9705 0.57806 0.37064 0.0
H1 H 0.00265 0.54997 0.2527 0.0
H2 H 0.87263 0.46758 0.29507 0.0
H3 H 0.03572 0.63241 0.34277 0.0
H4 H 0.03507 0.62931 0.289 0.0
H5 H 0.07112 0.59509 0.38215 0.0
H6 H 0.19037 0.61339 0.33013 0.0
H7 H 0.09415 0.62711 0.25779 0.0
C8 C 0.96234 0.55592 0.34395 0.0
C9 C 0.91882 0.52021 0.33716 0.0
C10 C 0.99304 0.56684 0.31358 0.0
C11 C 0.98025 0.54027 0.27719 0.0
C12 C 0.93677 0.50423 0.27062 0.0
C13 C 0.90696 0.49356 0.30124 0.0
C14 C 0.03499 0.61155 0.31623 0.0
C15 C 0.07633 0.60807 0.31884 0.0
C16 C 0.09089 0.60043 0.35605 0.0
C17 C 0.13198 0.60216 0.36032 0.0
C18 C 0.15799 0.61059 0.32671 0.0
C19 C 0.14512 0.62106 0.29028 0.0
C20 C 0.10356 0.61813 0.28584 0.0
H21 H 0.40611 0.96862 0.52188 0.0
H22 H 0.44428 0.99229 0.39887 0.0
H23 H 0.43251 0.87797 0.45451 0.0
H24 H 0.39652 0.02244 0.48432 0.0
H25 H 0.41018 0.03036 0.43262 0.0
H26 H 0.4665 0.049 0.5373 0.0
H27 H 0.5629 0.18391 0.51737 0.0
H28 H 0.47014 0.1009 0.42045 0.0
C29 C 0.41766 0.96019 0.49481 0.0
C30 C 0.41864 0.92059 0.49194 0.0
C31 C 0.4282 0.98704 0.4616 0.0
C32 C 0.43882 0.97323 0.42535 0.0
C33 C 0.4404 0.93383 0.42257 0.0
C34 C 0.43234 0.9089 0.45669 0.0
C35 C 0.42235 0.02701 0.463 0.0
C36 C 0.46486 0.06911 0.47659 0.0
C37 C 0.48214 0.07537 0.51678 0.0
C38 C 0.5175 0.11674 0.53149 0.0
C39 C 0.53656 0.15156 0.50564 0.0
C40 C 0.51973 0.14592 0.46559 0.0
C41 C 0.48415 0.10461 0.45099 0.0
H42 H 0.3911 0.47968 0.56984 0.0
H43 H 0.45411 0.45716 0.67284 0.0
H44 H 0.43575 0.56907 0.67492 0.0
H45 H 0.40147 0.41752 0.56564 0.0
H46 H 0.3839 0.39566 0.61356 0.0
H47 H 0.47741 0.43924 0.5453 0.0
H48 H 0.54407 0.38147 0.6076 0.0
H49 H 0.42997 0.37776 0.65755 0.0
C50 C 0.41036 0.49145 0.59848 0.0
C51 C 0.41425 0.52898 0.6193 0.0
C52 C 0.4262 0.46594 0.61691 0.0
C53 C 0.44559 0.47841 0.65667 0.0
C54 C 0.4478 0.51477 0.678 0.0
C55 C 0.43602 0.54215 0.65779 0.0
C56 C 0.41299 0.42074 0.59796 0.0
C57 C 0.44988 0.41027 0.60129 0.0
C58 C 0.48051 0.42253 0.57107 0.0
C59 C 0.51405 0.41164 0.5731 0.0
C60 C 0.51822 0.3901 0.60621 0.0
C61 C 0.48827 0.37837 0.63687 0.0
C62 C 0.45369 0.38779 0.63415 0.0
H63 H 0.89703 0.39601 0.74737 0.0
H64 H 0.98776 0.48036 0.84543 0.0
H65 H 0.84858 0.43245 0.85035 0.0
H66 H 0.97479 0.42457 0.7413 0.0
H67 H 0.9848 0.40926 0.78919 0.0
H68 H 0.01615 0.50545 0.72541 0.0
H69 H 0.15141 0.5713 0.7738 0.0
H70 H 0.05069 0.45965 0.83187 0.0
C71 C 0.90374 0.41676 0.77481 0.0
C72 C 0.86799 0.41362 0.79569 0.0
C73 C 0.94754 0.4422 0.79181 0.0
C74 C 0.95515 0.46462 0.82997 0.0
C75 C 0.91946 0.46062 0.85124 0.0
C76 C 0.87645 0.43767 0.8328 0.0
C77 C 0.98352 0.43634 0.77376 0.0
C78 C 0.02868 0.47758 0.77773 0.0
C79 C 0.04063 0.50897 0.7485 0.0
C80 C 0.08501 0.54235 0.74662 0.0
C81 C 0.11685 0.54601 0.77583 0.0
C82 C 0.10479 0.51698 0.8072 0.0
C83 C 0.06024 0.48308 0.8084 0.0
H84 H 0.64874 0.08749 0.00532 0.0
H85 H 0.54502 0.01174 0.9127 0.0
H86 H 0.58459 0.14748 0.94302 0.0
H87 H 0.63132 0.01366 0.98673 0.0
H88 H 0.61472 0.99979 0.93395 0.0
H89 H 0.55203 0.99906 0.02543 0.0
H90 H 0.46085 0.85897 0.01019 0.0
H91 H 0.56389 0.92203 0.92702 0.0
C92 C 0.62331 0.08467 0.98374 0.0
C93 C 0.61814 0.12148 0.97832 0.0
C94 C 0.59686 0.04488 0.96015 0.0
C95 C 0.565 0.04208 0.93135 0.0
C96 C 0.56161 0.07944 0.92405 0.0
C97 C 0.58692 0.11835 0.94873 0.0
C98 C 0.60424 0.00615 0.96365 0.0
C99 C 0.56253 0.96533 0.97474 0.0
C100 C 0.54034 0.96768 0.00854 0.0
C101 C 0.5042 0.92943 0.02176 0.0
C102 C 0.48893 0.88873 6e-05 0.0
C103 C 0.50985 0.88604 0.96558 0.0
C104 C 0.54698 0.92433 0.95311 0.0
H105 H 0.61218 0.54023 0.0803 0.0
H106 H 0.55735 0.55854 0.18924 0.0
H107 H 0.57792 0.44818 0.17326 0.0
H108 H 0.60387 0.60345 0.08832 0.0
H109 H 0.61546 0.62236 0.14029 0.0
H110 H 0.52636 0.56925 0.05803 0.0
H111 H 0.4448 0.61415 0.113 0.0
H112 H 0.56578 0.63915 0.17501 0.0
C113 C 0.59641 0.52792 0.10837 0.0
C114 C 0.59472 0.49004 0.12329 0.0
C115 C 0.58109 0.55188 0.13132 0.0
C116 C 0.56498 0.53802 0.16967 0.0
C117 C 0.56499 0.50138 0.18516 0.0
C118 C 0.57658 0.47572 0.16063 0.0
C119 C 0.58974 0.5964 0.11865 0.0
C120 C 0.54825 0.59977 0.11833 0.0
C121 C 0.51884 0.58376 0.0839 0.0
C122 C 0.48138 0.58885 0.08174 0.0
C123 C 0.47281 0.60871 0.1151 0.0
C124 C 0.5045 0.62942 0.14742 0.0
C125 C 0.54097 0.62277 0.15023 0.0
Mg126 Mg 0.64718 0.40201 0.35709 0.0
O127 O 0.62101 0.41384 0.41537 0.0
O128 O 0.64156 0.48541 0.42451 0.0
Mg129 Mg 0.67954 0.52037 0.37027 0.0
C130 C 0.62172 0.44584 0.43567 0.0
C131 C 0.58793 0.30619 0.379 0.0
O132 O 0.55938 0.31743 0.36549 0.0
O133 O 0.71918 0.43645 0.38305 0.0
O134 O 0.73637 0.5075 0.38458 0.0
O135 O 0.58785 0.39264 0.31862 0.0
O136 O 0.64748 0.45661 0.33518 0.0
C137 C 0.74747 0.47795 0.38735 0.0
C138 C 0.60966 0.4351 0.31582 0.0
O139 O 0.62934 0.33367 0.37809 0.0
Mg140 Mg 0.26569 0.67206 0.59974 0.0
O141 O 0.22486 0.64092 0.5398 0.0
O142 O 0.18213 0.56812 0.54434 0.0
Mg143 Mg 0.18614 0.55471 0.61084 0.0
C144 C 0.1969 0.60248 0.524 0.0
C145 C 0.33666 0.76996 0.58936 0.0
O146 O 0.33494 0.77083 0.62892 0.0
O147 O 0.30734 0.63814 0.59063 0.0
O148 O 0.2562 0.56856 0.6025 0.0
O149 O 0.21393 0.68737 0.62048 0.0
O150 O 0.21399 0.62515 0.63013 0.0
C151 C 0.29584 0.59766 0.59524 0.0
C152 C 0.19504 0.64836 0.63449 0.0
O153 O 0.31346 0.73361 0.56854 0.0
Mg154 Mg 0.57864 0.2361 0.77523 0.0
O155 O 0.57041 0.19919 0.71439 0.0
O156 O 0.59652 0.15281 0.72023 0.0
Mg157 Mg 0.62282 0.16147 0.78611 0.0
C158 C 0.57814 0.1698 0.69938 0.0
C159 C 0.53085 0.28792 0.75468 0.0
O160 O 0.50961 0.26871 0.78668 0.0
O161 O 0.65341 0.28097 0.76874 0.0
O162 O 0.67739 0.23316 0.77788 0.0
O163 O 0.51273 0.18054 0.79262 0.0
O164 O 0.57758 0.18493 0.80499 0.0
C165 C 0.68475 0.27216 0.77215 0.0
C166 C 0.53508 0.16322 0.807 0.0
O167 O 0.56193 0.28209 0.74291 0.0
Mg168 Mg 0.3699 0.61495 0.85275 0.0
O169 O 0.39414 0.59623 0.90932 0.0
O170 O 0.35827 0.52249 0.91089 0.0
Mg171 Mg 0.32231 0.49403 0.84884 0.0
C172 C 0.38522 0.56104 0.92695 0.0
C173 C 0.43679 0.71108 0.88611 0.0
O174 O 0.46382 0.6976 0.87407 0.0
O175 O 0.29933 0.5874 0.87558 0.0
O176 O 0.27207 0.51501 0.86455 0.0
O177 O 0.42635 0.62 0.8175 0.0
O178 O 0.36367 0.55866 0.82412 0.0
C179 C 0.26679 0.54752 0.8749 0.0
C180 C 0.40216 0.5777 0.80961 0.0
O181 O 0.39499 0.68487 0.8814 0.0
Mg182 Mg 0.77503 0.39906 0.04178 0.0
O183 O 0.8194 0.42133 0.10087 0.0
O184 O 0.86335 0.39167 0.09743 0.0
Mg185 Mg 0.85358 0.35697 0.03508 0.0
C186 C 0.84965 0.41473 0.11609 0.0
C187 C 0.68664 0.40204 0.06142 0.0
O188 O 0.66532 0.36296 0.04187 0.0
O189 O 0.73383 0.32643 0.05873 0.0
O190 O 0.78136 0.30393 0.04178 0.0
O191 O 0.82301 0.45692 0.00684 0.0
O192 O 0.82595 0.39677 0.01409 0.0
C193 C 0.74263 0.29564 0.0506 0.0
C194 C 0.84111 0.43357 -0.00249 0.0
O195 O 0.7287 0.42163 0.067 0.0
Mg196 Mg 0.39261 0.79422 0.18719 0.0
O197 O 0.41821 0.83545 0.24744 0.0
O198 O 0.49142 0.88058 0.24713 0.0
Mg199 Mg 0.51042 0.87624 0.18245 0.0
C200 C 0.45509 0.86494 0.26491 0.0
C201 C 0.29639 0.7148 0.19458 0.0
O202 O 0.29788 0.71209 0.15506 0.0
O203 O 0.42837 0.75508 0.19841 0.0
O204 O 0.49895 0.80695 0.19043 0.0
O205 O 0.37583 0.84354 0.16385 0.0
O206 O 0.44053 0.84692 0.15879 0.0
C207 C 0.46934 0.76695 0.19552 0.0
C208 C 0.41606 0.86421 0.15215 0.0
O209 O 0.33017 0.74402 0.21584 0.0
C210 C 0.20181 0.69089 0.26102 0.0
C211 C 0.17928 0.64393 0.26061 0.0
C212 C 0.23219 0.6426 0.2143 0.0
C213 C 0.25373 0.68943 0.21392 0.0
N214 N 0.25152 0.75654 0.22714 0.0
N215 N 0.16699 0.57441 0.23148 0.0
C216 C 0.23613 0.71306 0.23424 0.0
C217 C 0.19252 0.61952 0.23536 0.0
N218 N 0.19215 0.7146 0.28847 0.0
N219 N 0.25079 0.62049 0.19629 0.0
H220 H 0.13793 0.55684 0.24679 0.0
H221 H 0.1724 0.55477 0.21073 0.0
H222 H 0.27963 0.63632 0.18043 0.0
H223 H 0.23944 0.58701 0.19927 0.0
H224 H 0.21139 0.74887 0.2934 0.0
H225 H 0.16723 0.70006 0.30885 0.0
H226 H 0.23677 0.77415 0.23793 0.0
H227 H 0.27607 0.77372 0.20694 0.0
C228 C 0.52353 0.21746 0.45185 0.0
C229 C 0.53566 0.18546 0.44126 0.0
C230 C 0.58028 0.2313 0.38755 0.0
C231 C 0.57161 0.26511 0.40098 0.0
N232 N 0.54321 0.29427 0.45173 0.0
N233 N 0.57969 0.16358 0.40267 0.0
C234 C 0.54541 0.25925 0.43471 0.0
C235 C 0.56518 0.19278 0.41004 0.0
N236 N 0.49037 0.20758 0.47774 0.0
N237 N 0.60151 0.23529 0.35259 0.0
H238 H 0.56861 0.13467 0.41803 0.0
H239 H 0.60494 0.16948 0.38344 0.0
H240 H 0.61308 0.26303 0.33546 0.0
H241 H 0.60461 0.20978 0.33889 0.0
H242 H 0.47696 0.22788 0.4832 0.0
H243 H 0.47323 0.17713 0.49079 0.0
H244 H 0.52832 0.29307 0.47882 0.0
H245 H 0.56038 0.32604 0.44125 0.0
C246 C 0.3907 0.57411 0.57733 0.0
C247 C 0.38319 0.54503 0.60878 0.0
C248 C 0.32715 0.55991 0.63457 0.0
C249 C 0.32981 0.58423 0.60043 0.0
N250 N 0.36051 0.60995 0.53595 0.0
N251 N 0.33384 0.49952 0.65869 0.0
C252 C 0.36076 0.59034 0.57076 0.0
C253 C 0.34802 0.53447 0.63457 0.0
N254 N 0.42651 0.58662 0.55438 0.0
N255 N 0.30621 0.56246 0.66794 0.0
H256 H 0.34715 0.47866 0.65857 0.0
H257 H 0.30539 0.48835 0.67501 0.0
H258 H 0.29314 0.58346 0.67059 0.0
H259 H 0.30684 0.54795 0.69473 0.0
H260 H 0.43627 0.6111 0.53366 0.0
H261 H 0.44805 0.57427 0.55804 0.0
H262 H 0.37937 0.61145 0.51163 0.0
H263 H 0.33891 0.62183 0.53023 0.0
C264 C 0.79489 0.37691 0.75355 0.0
C265 C 0.82211 0.37606 0.78583 0.0
C266 C 0.75829 0.31126 0.81079 0.0
C267 C 0.73165 0.30897 0.77644 0.0
N268 N 0.72653 0.33549 0.71138 0.0
N269 N 0.83234 0.3345 0.83749 0.0
C270 C 0.75044 0.34071 0.74667 0.0
C271 C 0.80461 0.34062 0.81193 0.0
N272 N 0.81113 0.41256 0.73018 0.0
N273 N 0.73925 0.28732 0.84355 0.0
H274 H 0.86683 0.35442 0.83823 0.0
H275 H 0.82136 0.3067 0.85444 0.0
H276 H 0.70499 0.26762 0.8456 0.0
H277 H 0.75719 0.29129 0.87068 0.0
H278 H 0.79152 0.41735 0.70893 0.0
H279 H 0.84376 0.43889 0.73402 0.0
H280 H 0.73992 0.35513 0.68698 0.0
H281 H 0.6943 0.30907 0.70515 0.0
C282 C 0.46143 0.82917 0.91033 0.0
C283 C 0.49306 0.84232 0.94349 0.0
C284 C 0.48451 0.76827 0.94127 0.0
C285 C 0.45536 0.75605 0.90618 0.0
N286 N 0.42238 0.77729 0.85283 0.0
N287 N 0.54034 0.82754 0.98675 0.0
C288 C 0.44541 0.78713 0.8895 0.0
C289 C 0.5064 0.8128 0.95773 0.0
N290 N 0.44596 0.8565 0.89932 0.0
N291 N 0.48962 0.73681 0.96006 0.0
H292 H 0.55653 0.8597 2e-05 0.0
H293 H 0.55501 0.80925 -0.00472 0.0
H294 H 0.47293 0.7035 0.94994 0.0
H295 H 0.50721 0.74279 0.98774 0.0
H296 H 0.41911 0.84675 0.87864 0.0
H297 H 0.45796 0.88809 0.91298 0.0
H298 H 0.41828 0.8003 0.83703 0.0
H299 H 0.41063 0.74718 0.83632 0.0
C300 C 0.60573 0.44596 0.06693 0.0
C301 C 0.61982 0.47022 0.10491 0.0
C302 C 0.67297 0.44477 0.11613 0.0
C303 C 0.66234 0.42421 0.07647 0.0
N304 N 0.62584 0.41497 0.01048 0.0
N305 N 0.67587 0.50293 0.16001 0.0
C306 C 0.63064 0.42739 0.05075 0.0
C307 C 0.65633 0.47284 0.12772 0.0
N308 N 0.56805 0.43965 0.04675 0.0
N309 N 0.69718 0.43595 0.14358 0.0
H310 H 0.66592 0.52552 0.16846 0.0
H311 H 0.705 0.50875 0.17544 0.0
H312 H 0.70784 0.41346 0.13727 0.0
H313 H 0.70214 0.44698 0.17398 0.0
H314 H 0.55362 0.41823 0.02108 0.0
H315 H 0.54922 0.45303 0.05753 0.0
H316 H 0.60635 0.42065 -0.01016 0.0
H317 H 0.6449 0.40341 -0.00321 0.0
C318 C 0.35073 0.85854 0.51932 0.0
C319 C 0.39761 0.88676 0.52211 0.0
C320 C 0.40492 0.8395 0.57099 0.0
C321 C 0.35801 0.81189 0.56865 0.0
N322 N 0.28586 0.80146 0.54959 0.0
N323 N 0.46873 0.90971 0.55551 0.0
C324 C 0.33078 0.82339 0.54556 0.0
C325 C 0.42454 0.87904 0.54969 0.0
N326 N 0.32537 0.86393 0.49027 0.0
N327 N 0.43067 0.82689 0.59204 0.0
H328 H 0.48375 0.93882 0.54011 0.0
H329 H 0.48962 0.90827 0.57776 0.0
H330 H 0.4173 0.79839 0.60827 0.0
H331 H 0.46512 0.84294 0.59138 0.0
H332 H 0.29198 0.84086 0.48336 0.0
H333 H 0.33822 0.88979 0.47084 0.0
H334 H 0.26489 0.81146 0.53681 0.0
H335 H 0.26998 0.77586 0.56902 0.0
C336 C 0.51986 0.37863 0.70571 0.0
C337 C 0.49257 0.35428 0.67084 0.0
C338 C 0.48245 0.28525 0.69655 0.0
C339 C 0.51435 0.31036 0.72856 0.0
N340 N 0.56448 0.38021 0.76426 0.0
N341 N 0.44827 0.28523 0.6316 0.0
C342 C 0.53302 0.35686 0.73363 0.0
C343 C 0.47349 0.30767 0.66607 0.0
N344 N 0.533 0.42247 0.71196 0.0
N345 N 0.46069 0.23998 0.69551 0.0
H346 H 0.43936 0.30029 0.60949 0.0
H347 H 0.43794 0.25227 0.62372 0.0
H348 H 0.46713 0.22252 0.71698 0.0
H349 H 0.43398 0.21953 0.67534 0.0
H350 H 0.54948 0.44133 0.73848 0.0
H351 H 0.52442 0.43943 0.69166 0.0
H352 H 0.58323 0.41461 0.76709 0.0
H353 H 0.57355 0.36497 0.78606 0.0
C354 C 0.14889 0.4866 0.84189 0.0
C355 C 0.1401 0.52173 0.83712 0.0
C356 C 0.20916 0.57229 0.87755 0.0
C357 C 0.21975 0.53805 0.87737 0.0
N358 N 0.18698 0.45962 0.88396 0.0
N359 N 0.15331 0.59299 0.8627 0.0
C360 C 0.18505 0.49405 0.86807 0.0
C361 C 0.16755 0.56313 0.85911 0.0
N362 N 0.12571 0.44752 0.81919 0.0
N363 N 0.23845 0.61292 0.89551 0.0
H364 H 0.1223 0.58614 0.85073 0.0
H365 H 0.17014 0.62269 0.88019 0.0
H366 H 0.26496 0.61791 0.91485 0.0
H367 H 0.23597 0.64107 0.89213 0.0
H368 H 0.1343 0.42296 0.81964 0.0
H369 H 0.10124 0.44131 0.7969 0.0
H370 H 0.16099 0.42692 0.87986 0.0
H371 H 0.2121 0.46494 0.90534 0.0
C372 C 0.67783 0.20041 0.97441 0.0
C373 C 0.64968 0.16566 -0.00129 0.0
C374 C 0.68114 0.21683 0.05937 0.0
C375 C 0.70607 0.25195 0.03422 0.0
N376 N 0.71885 0.27925 0.96711 0.0
N377 N 0.61927 0.14185 0.06364 0.0
C378 C 0.70128 0.24432 -0.00849 0.0
C379 C 0.64981 0.1741 0.04113 0.0
N380 N 0.68385 0.19129 0.93535 0.0
N381 N 0.68809 0.22412 0.1004 0.0
H382 H 0.59596 0.1104 0.05122 0.0
H383 H 0.61489 0.14724 0.09384 0.0
H384 H 0.70969 0.25544 0.1142 0.0
H385 H 0.6745 0.19894 0.12044 0.0
H386 H 0.70741 0.215 0.91767 0.0
H387 H 0.66894 0.15922 0.92202 0.0
H388 H 0.71238 0.27557 0.93585 0.0
H389 H 0.73588 0.31221 0.97837 0.0
C390 C 0.4774 0.66186 0.20125 0.0
C391 C 0.50547 0.66787 0.16906 0.0
C392 C 0.50706 0.73605 0.15384 0.0
C393 C 0.48196 0.73264 0.18796 0.0
N394 N 0.45019 0.69617 0.24882 0.0
N395 N 0.55876 0.7183 0.12419 0.0
C396 C 0.46924 0.69669 0.21329 0.0
C397 C 0.52481 0.70793 0.14916 0.0
N398 N 0.45778 0.62256 0.21942 0.0
N399 N 0.51044 0.763 0.12354 0.0
H400 H 0.57246 0.69821 0.11916 0.0
H401 H 0.57609 0.74907 0.11174 0.0
H402 H 0.49357 0.78054 0.12265 0.0
H403 H 0.52496 0.76308 0.09645 0.0
H404 H 0.43316 0.61412 0.24002 0.0
H405 H 0.46503 0.59764 0.21224 0.0
H406 H 0.44357 0.67269 0.27005 0.0
H407 H 0.44453 0.72152 0.25857 0.0
C408 C 0.85913 0.53789 0.34123 0.0
C409 C 0.88188 0.51856 0.3595 0.0
C410 C 0.81995 0.47934 0.40356 0.0
C411 C 0.79453 0.49268 0.37993 0.0
N412 N 0.78724 0.52328 0.31729 0.0
N413 N 0.88452 0.46979 0.40733 0.0
C414 C 0.81344 0.51933 0.34656 0.0
C415 C 0.86264 0.48917 0.39084 0.0
N416 N 0.88051 0.57242 0.3169 0.0
N417 N 0.80349 0.45767 0.43789 0.0
H418 H 0.91646 0.47804 0.39948 0.0
H419 H 0.8704 0.44449 0.42721 0.0
H420 H 0.77241 0.45024 0.4476 0.0
H421 H 0.82187 0.4502 0.45815 0.0
H422 H 0.86586 0.58983 0.30566 0.0
H423 H 0.91411 0.58656 0.31147 0.0
H424 H 0.79953 0.53906 0.29066 0.0
H425 H 0.75264 0.5058 0.31645 0.0
C426 C 0.12424 0.56338 0.42471 0.0
C427 C 0.14977 0.59973 0.40102 0.0
C428 C 0.20999 0.6287 0.45342 0.0
C429 C 0.181 0.59826 0.48073 0.0
N430 N 0.10498 0.54123 0.49235 0.0
N431 N 0.21365 0.6736 0.39875 0.0
C432 C 0.13658 0.56648 0.46646 0.0
C433 C 0.19182 0.63436 0.41694 0.0
N434 N 0.0885 0.52572 0.40749 0.0
N435 N 0.25496 0.65118 0.46134 0.0
H436 H 0.2001 0.68097 0.37381 0.0
H437 H 0.24283 0.70066 0.41158 0.0
H438 H 0.27016 0.64484 0.48574 0.0
H439 H 0.27708 0.6715 0.44062 0.0
H440 H 0.07128 0.49694 0.42299 0.0
H441 H 0.07931 0.52172 0.37667 0.0
H442 H 0.07157 0.52101 0.48296 0.0
H443 H 0.11027 0.54403 0.52355 0.0
C444 C 0.50326 0.12878 0.6034 0.0
C445 C 0.53163 0.12581 0.57521 0.0
C446 C 0.59164 0.15312 0.62818 0.0
C447 C 0.56207 0.1527 0.65697 0.0
N448 N 0.48656 0.1287 0.67368 0.0
N449 N 0.59955 0.12647 0.56205 0.0
C450 C 0.51689 0.13707 0.6451 0.0
C451 C 0.57483 0.13519 0.58806 0.0
N452 N 0.46423 0.12585 0.59033 0.0
N453 N 0.63608 0.17277 0.63839 0.0
H454 H 0.58807 0.11322 0.5325 0.0
H455 H 0.62948 0.12851 0.57088 0.0
H456 H 0.64997 0.18742 0.66708 0.0
H457 H 0.65972 0.17818 0.61743 0.0
H458 H 0.44493 0.13286 0.60926 0.0
H459 H 0.45309 0.12056 0.55996 0.0
H460 H 0.45247 0.11316 0.6667 0.0
H461 H 0.49475 0.13284 0.70471 0.0
C462 C 0.40388 0.49054 0.73772 0.0
C463 C 0.44633 0.51643 0.72276 0.0
C464 C 0.4641 0.56997 0.77974 0.0
C465 C 0.41772 0.55254 0.78414 0.0
N466 N 0.3422 0.49641 0.7595 0.0
N467 N 0.51979 0.57913 0.73262 0.0
C468 C 0.38695 0.51214 0.76187 0.0
C469 C 0.47776 0.5553 0.74536 0.0
N470 N 0.37841 0.44673 0.72593 0.0
N471 N 0.49473 0.59941 0.80836 0.0
H472 H 0.5302 0.56757 0.70817 0.0
H473 H 0.54301 0.61048 0.74523 0.0
H474 H 0.4857 0.60752 0.83571 0.0
H475 H 0.52865 0.611 0.8072 0.0
H476 H 0.34785 0.42617 0.73796 0.0
H477 H 0.39041 0.43011 0.70841 0.0
H478 H 0.31991 0.46794 0.74196 0.0
H479 H 0.32743 0.51423 0.76928 0.0
C480 C 0.91821 0.49876 0.91626 0.0
C481 C 0.92279 0.46525 0.89596 0.0
C482 C 0.87932 0.41281 0.94423 0.0
C483 C 0.87442 0.44603 0.96605 0.0
N484 N 0.90562 0.52495 0.98041 0.0
N485 N 0.92794 0.39972 0.90314 0.0
C486 C 0.89936 0.49067 0.95472 0.0
C487 C 0.91177 0.42627 0.91545 0.0
N488 N 0.93029 0.53727 0.89818 0.0
N489 N 0.84985 0.36851 0.94594 0.0
H490 H 0.9514 0.40875 0.88127 0.0
H491 H 0.9216 0.37153 0.91804 0.0
H492 H 0.8191 0.35549 0.95843 0.0
H493 H 0.85233 0.34451 0.92846 0.0
H494 H 0.92339 0.56115 0.90974 0.0
H495 H 0.94565 0.54393 0.87066 0.0
H496 H 0.92553 0.558 0.9739 0.0
H497 H 0.89576 0.52045 0.01009 0.0
C498 C 0.50451 0.94157 0.09747 0.0
C499 C 0.48188 0.93096 0.05864 0.0
C500 C 0.4104 0.89943 0.08995 0.0
C501 C 0.43313 0.90318 0.12728 0.0
N502 N 0.49814 0.94859 0.16985 0.0
N503 N 0.41642 0.9168 0.0191 0.0
C504 C 0.47913 0.93257 0.13196 0.0
C505 C 0.43565 0.91588 0.05533 0.0
N506 N 0.54883 0.95569 0.10172 0.0
N507 N 0.36512 0.87802 0.08736 0.0
H508 H 0.43492 0.92947 -0.00625 0.0
H509 H 0.3834 0.90868 0.01503 0.0
H510 H 0.34668 0.86981 0.11306 0.0
H511 H 0.34608 0.86893 0.06016 0.0
H512 H 0.56521 0.95932 0.12968 0.0
H513 H 0.56871 0.96049 0.07743 0.0
H514 H 0.53157 0.97235 0.17552 0.0
H515 H 0.47853 0.94052 0.19486 0.0
C516 C 0.53561 0.45904 0.24681 0.0
C517 C 0.56825 0.49742 0.22929 0.0
C518 C 0.62641 0.49662 0.26987 0.0
C519 C 0.59435 0.45839 0.2888 0.0
N520 N 0.51717 0.4131 0.30425 0.0
N521 N 0.64028 0.56332 0.23895 0.0
C522 C 0.54832 0.44269 0.28035 0.0
C523 C 0.61175 0.52048 0.24717 0.0
N524 N 0.4932 0.43742 0.23017 0.0
N525 N 0.66988 0.50738 0.26878 0.0
H526 H 0.63027 0.58164 0.22203 0.0
H527 H 0.67203 0.58172 0.25307 0.0
H528 H 0.68143 0.48651 0.27749 0.0
H529 H 0.693 0.53365 0.25291 0.0
H530 H 0.46886 0.40647 0.23869 0.0
H531 H 0.48345 0.45028 0.20657 0.0
H532 H 0.48354 0.403 0.30057 0.0
H533 H 0.52556 0.40268 0.33044 0.0
C534 C 0.41403 0.87262 0.36769 0.0
C535 C 0.446 0.91612 0.38293 0.0
C536 C 0.48324 0.92814 0.31939 0.0
C537 C 0.45493 0.8825 0.30669 0.0
N538 N 0.40351 0.809 0.32747 0.0
N539 N 0.51837 0.98053 0.37702 0.0
C540 C 0.42345 0.85394 0.33354 0.0
C541 C 0.48305 0.94239 0.36004 0.0
N542 N 0.37376 0.84969 0.38432 0.0
N543 N 0.50807 0.9588 0.29269 0.0
H544 H 0.52016 0.99129 0.40717 0.0
H545 H 0.54775 0.99864 0.36235 0.0
H546 H 0.50689 0.95169 0.26182 0.0
H547 H 0.52577 0.99269 0.30056 0.0
H548 H 0.34845 0.81921 0.37179 0.0
H549 H 0.36373 0.86332 0.40732 0.0
H550 H 0.3826 0.78735 0.34815 0.0
H551 H 0.4124 0.79376 0.30495 0.0
C552 C 0.58779 0.45349 0.54213 0.0
C553 C 0.54256 0.41949 0.53871 0.0
C554 C 0.54878 0.40462 0.46739 0.0
C555 C 0.59498 0.43596 0.47153 0.0
N556 N 0.66034 0.48395 0.51455 0.0
N557 N 0.48281 0.35556 0.50139 0.0
C558 C 0.61511 0.4587 0.50943 0.0
C559 C 0.52391 0.3928 0.50234 0.0
N560 N 0.60426 0.48151 0.57607 0.0
N561 N 0.52804 0.38787 0.42993 0.0
H562 H 0.46351 0.34553 0.52654 0.0
H563 H 0.46982 0.33237 0.47681 0.0
H564 H 0.5445 0.39679 0.40313 0.0
H565 H 0.49366 0.3685 0.42515 0.0
H566 H 0.63565 0.5098 0.57846 0.0
H567 H 0.58519 0.47849 0.60073 0.0
H568 H 0.67708 0.49771 0.54256 0.0
H569 H 0.68145 0.48774 0.49144 0.0
C570 C 0.09786 0.55577 0.67263 0.0
C571 C 0.09989 0.57243 0.71291 0.0
C572 C 0.15292 0.64745 0.69467 0.0
C573 C 0.15333 0.62971 0.65568 0.0
N574 N 0.11218 0.57408 0.6028 0.0
N575 N 0.11591 0.63499 0.75786 0.0
C576 C 0.12034 0.58625 0.64306 0.0
C577 C 0.12265 0.61882 0.72228 0.0
N578 N 0.07859 0.51135 0.66316 0.0
N579 N 0.18334 0.69041 0.70623 0.0
H580 H 0.09353 0.6143 0.77827 0.0
H581 H 0.12907 0.66864 0.76517 0.0
H582 H 0.20451 0.71266 0.68611 0.0
H583 H 0.18845 0.70352 0.73594 0.0
H584 H 0.08087 0.49851 0.63502 0.0
H585 H 0.06378 0.4873 0.68408 0.0
H586 H 0.08604 0.54349 0.59146 0.0
H587 H 0.12878 0.59698 0.58117 0.0
C588 C 0.5042 0.09494 0.8953 0.0
C589 C 0.53521 0.0807 0.88852 0.0
C590 C 0.53078 0.09252 0.81685 0.0
C591 C 0.51447 0.12083 0.82698 0.0
N592 N 0.47545 0.14169 0.87323 0.0
N593 N 0.5781 0.06543 0.84048 0.0
C594 C 0.49653 0.11859 0.8651 0.0
C595 C 0.54736 0.07762 0.84834 0.0
N596 N 0.48383 0.08721 0.93106 0.0
N597 N 0.53327 0.08301 0.7771 0.0
H598 H 0.59345 0.05635 0.86241 0.0
H599 H 0.59109 0.06773 0.81216 0.0
H600 H 0.52121 0.09476 0.75432 0.0
H601 H 0.54268 0.06038 0.76741 0.0
H602 H 0.45891 0.09439 0.93709 0.0
H603 H 0.48936 0.06975 0.95322 0.0
H604 H 0.46653 0.14604 0.90203 0.0
H605 H 0.46745 0.15703 0.85076 0.0
C606 C 0.44783 0.61348 0.02726 0.0
C607 C 0.45522 0.58013 0.04254 0.0
C608 C 0.42095 0.53542 0.97943 0.0
C609 C 0.4071 0.56561 0.96758 0.0
N610 N 0.39534 0.6257 -0.0105 0.0
N611 N 0.43735 0.50378 0.03647 0.0
C612 C 0.41665 0.60225 -0.00561 0.0
C613 C 0.4381 0.53921 0.01974 0.0
N614 N 0.47206 0.65641 0.04235 0.0
N615 N 0.42076 0.50511 0.95211 0.0
H616 H 0.44771 0.50467 0.06655 0.0
H617 H 0.42188 0.47236 0.02169 0.0
H618 H 0.41309 0.50382 0.92128 0.0
H619 H 0.43394 0.48511 0.95936 0.0
H620 H 0.46861 0.68177 0.03049 0.0
H621 H 0.4993 0.66751 0.06283 0.0
H622 H 0.39987 0.65097 0.01027 0.0
H623 H 0.36908 0.61617 0.9681 0.0
C624 C 0.91119 0.50593 0.19921 0.0
C625 C 0.91878 0.48246 0.22959 0.0
C626 C 0.87659 0.4135 0.18722 0.0
C627 C 0.8728 0.4378 0.15543 0.0
N628 N 0.89708 0.50901 0.12789 0.0
N629 N 0.91567 0.41564 0.24995 0.0
C630 C 0.89316 0.48458 0.16043 0.0
C631 C 0.90369 0.43672 0.22271 0.0
N632 N 0.91907 0.54788 0.20776 0.0
N633 N 0.85267 0.36825 0.18438 0.0
H634 H 0.93563 0.43188 0.27614 0.0
H635 H 0.90932 0.38338 0.24476 0.0
H636 H 0.83132 0.35006 0.15946 0.0
H637 H 0.85064 0.34887 0.20825 0.0
H638 H 0.90929 0.56428 0.18796 0.0
H639 H 0.93142 0.56481 0.23594 0.0
H640 H 0.91571 0.54349 0.12934 0.0
H641 H 0.88591 0.49508 0.09851 0.0
loop_
_geom_bond_atom_site_label_1
_geom_bond_atom_site_label_2
_geom_bond_distance
_geom_bond_site_symmetry_2
_ccdc_geom_bond_type
H0 C8 0.930 . S
H1 C11 0.930 . S
H2 C13 0.930 . S
H3 C14 0.970 1_655 S
H4 C14 0.970 . S
H5 C16 0.930 . S
H6 C18 0.930 . S
H7 C20 0.930 . S
C8 H0 0.930 . S
C8 C9 1.382 . S
C8 C10 1.426 . S
C9 C8 1.382 . S
C9 C13 1.389 . S
C10 C8 1.426 . S
C10 C11 1.375 . S
C10 C14 1.532 1_655 S
C11 H1 0.930 . S
C11 C10 1.375 . S
C11 C12 1.416 . S
C12 C11 1.416 . S
C12 C13 1.371 . S
C13 H2 0.930 . S
C13 C9 1.389 . S
C13 C12 1.371 . S
C14 H3 0.970 1_455 S
C14 H4 0.970 . S
C14 C10 1.532 1_455 S
C14 C15 1.499 . S
C15 C14 1.499 . S
C15 C16 1.370 . S
C15 C20 1.415 . S
C16 H5 0.930 . S
C16 C15 1.370 . S
C16 C17 1.407 . S
C17 C16 1.407 . S
C17 C18 1.365 . S
C18 H6 0.930 . S
C18 C17 1.365 . S
C18 C19 1.393 . S
C19 C18 1.393 . S
C19 C20 1.387 . S
C20 H7 0.930 . S
C20 C15 1.415 . S
C20 C19 1.387 . S
H21 C29 0.930 . S
H22 C32 0.930 . S
H23 C34 0.930 . S
H24 C35 0.970 . S
H25 C35 0.970 . S
H26 C37 0.930 . S
H27 C39 0.930 . S
H28 C41 0.930 . S
C29 H21 0.930 . S
C29 C30 1.382 . S
C29 C31 1.426 . S
C30 C29 1.382 . S
C30 C34 1.389 . S
C31 C29 1.426 . S
C31 C32 1.375 . S
C31 C35 1.532 1_565 S
C32 H22 0.930 . S
C32 C31 1.375 . S
C32 C33 1.416 . S
C33 C32 1.416 . S
C33 C34 1.371 . S
C34 H23 0.930 . S
C34 C30 1.389 . S
C34 C33 1.371 . S
C35 H24 0.970 . S
C35 H25 0.970 . S
C35 C31 1.532 1_545 S
C35 C36 1.499 . S
C36 C35 1.499 . S
C36 C37 1.370 . S
C36 C41 1.415 . S
C37 H26 0.930 . S
C37 C36 1.370 . S
C37 C38 1.407 . S
C38 C37 1.407 . S
C38 C39 1.365 . S
C39 H27 0.930 . S
C39 C38 1.365 . S
C39 C40 1.393 . S
C40 C39 1.393 . S
C40 C41 1.387 . S
C41 H28 0.930 . S
C41 C36 1.415 . S
C41 C40 1.387 . S
H42 C50 0.930 . S
H43 C53 0.930 . S
H44 C55 0.930 . S
H45 C56 0.970 . S
H46 C56 0.970 . S
H47 C58 0.930 . S
H48 C60 0.930 . S
H49 C62 0.930 . S
C50 H42 0.930 . S
C50 C51 1.382 . S
C50 C52 1.426 . S
C51 C50 1.382 . S
C51 C55 1.389 . S
C52 C50 1.426 . S
C52 C53 1.375 . S
C52 C56 1.532 . S
C53 H43 0.930 . S
C53 C52 1.375 . S
C53 C54 1.416 . S
C54 C53 1.416 . S
C54 C55 1.371 . S
C55 H44 0.930 . S
C55 C51 1.389 . S
C55 C54 1.371 . S
C56 H45 0.970 . S
C56 H46 0.970 . S
C56 C52 1.532 . S
C56 C57 1.499 . S
C57 C56 1.499 . S
C57 C58 1.370 . S
C57 C62 1.415 . S
C58 H47 0.930 . S
C58 C57 1.370 . S
C58 C59 1.407 . S
C59 C58 1.407 . S
C59 C60 1.365 . S
C60 H48 0.930 . S
C60 C59 1.365 . S
C60 C61 1.393 . S
C61 C60 1.393 . S
C61 C62 1.387 . S
C62 H49 0.930 . S
C62 C57 1.415 . S
C62 C61 1.387 . S
H63 C71 0.930 . S
H64 C74 0.930 . S
H65 C76 0.930 . S
H66 C77 0.970 . S
H67 C77 0.970 . S
H68 C79 0.930 . S
H69 C81 0.930 . S
H70 C83 0.930 . S
C71 H63 0.930 . S
C71 C72 1.382 . S
C71 C73 1.426 . S
C72 C71 1.382 . S
C72 C76 1.389 . S
C73 C71 1.426 . S
C73 C74 1.375 . S
C73 C77 1.532 1_655 S
C74 H64 0.930 . S
C74 C73 1.375 . S
C74 C75 1.416 . S
C75 C74 1.416 . S
C75 C76 1.371 . S
C76 H65 0.930 . S
C76 C72 1.389 . S
C76 C75 1.371 . S
C77 H66 0.970 . S
C77 H67 0.970 . S
C77 C73 1.532 1_455 S
C77 C78 1.499 . S
C78 C77 1.499 . S
C78 C79 1.370 . S
C78 C83 1.415 . S
C79 H68 0.930 . S
C79 C78 1.370 . S
C79 C80 1.407 . S
C80 C79 1.407 . S
C80 C81 1.365 . S
C81 H69 0.930 . S
C81 C80 1.365 . S
C81 C82 1.393 . S
C82 C81 1.393 . S
C82 C83 1.387 . S
C83 H70 0.930 . S
C83 C78 1.415 . S
C83 C82 1.387 . S
H84 C92 0.930 . S
H85 C95 0.930 . S
H86 C97 0.930 . S
H87 C98 0.970 1_554 S
H88 C98 0.970 . S
H89 C100 0.930 . S
H90 C102 0.930 . S
H91 C104 0.930 . S
C92 H84 0.930 . S
C92 C93 1.382 . S
C92 C94 1.426 1_554 S
C93 C92 1.382 . S
C93 C97 1.389 1_554 S
C94 C92 1.426 1_556 S
C94 C95 1.375 . S
C94 C98 1.532 . S
C95 H85 0.930 . S
C95 C94 1.375 . S
C95 C96 1.416 . S
C96 C95 1.416 . S
C96 C97 1.371 . S
C97 H86 0.930 . S
C97 C93 1.389 1_556 S
C97 C96 1.371 . S
C98 H87 0.970 1_556 S
C98 H88 0.970 . S
C98 C94 1.532 . S
C98 C99 1.499 1_546 S
C99 C98 1.499 1_564 S
C99 C100 1.370 . S
C99 C104 1.415 1_554 S
C100 H89 0.930 . S
C100 C99 1.370 . S
C100 C101 1.407 . S
C101 C100 1.407 . S
C101 C102 1.365 . S
C102 H90 0.930 . S
C102 C101 1.365 . S
C102 C103 1.393 1_554 S
C103 C102 1.393 1_556 S
C103 C104 1.387 . S
C104 H91 0.930 . S
C104 C99 1.415 1_556 S
C104 C103 1.387 . S
H105 C113 0.930 . S
H106 C116 0.930 . S
H107 C118 0.930 . S
H108 C119 0.970 . S
H109 C119 0.970 . S
H110 C121 0.930 . S
H111 C123 0.930 . S
H112 C125 0.930 . S
C113 H105 0.930 . S
C113 C114 1.382 . S
C113 C115 1.426 . S
C114 C113 1.382 . S
C114 C118 1.389 . S
C115 C113 1.426 . S
C115 C116 1.375 . S
C115 C119 1.532 . S
C116 H106 0.930 . S
C116 C115 1.375 . S
C116 C117 1.416 . S
C117 C116 1.416 . S
C117 C118 1.371 . S
C118 H107 0.930 . S
C118 C114 1.389 . S
C118 C117 1.371 . S
C119 H108 0.970 . S
C119 H109 0.970 . S
C119 C115 1.532 . S
C119 C120 1.499 . S
C120 C119 1.499 . S
C120 C121 1.370 . S
C120 C125 1.415 . S
C121 H110 0.930 . S
C121 C120 1.370 . S
C121 C122 1.407 . S
C122 C121 1.407 . S
C122 C123 1.365 . S
C123 H111 0.930 . S
C123 C122 1.365 . S
C123 C124 1.393 . S
C124 C123 1.393 . S
C124 C125 1.387 . S
C125 H112 0.930 . S
C125 C120 1.415 . S
C125 C124 1.387 . S
Mg126 O127 2.028 . S
Mg126 O133 1.986 . S
Mg126 O135 2.114 . S
Mg126 O136 2.251 . S
Mg126 O139 2.010 . S
O127 Mg126 2.028 . S
O127 C130 1.250 . S
O128 Mg129 2.028 . S
O128 C130 1.248 . S
Mg129 O128 2.028 . S
Mg129 O134 2.032 . S
Mg129 O136 2.079 . S
C130 O127 1.250 . S
C130 O128 1.248 . S
C131 O132 1.264 . S
C131 O139 1.249 . S
O132 C131 1.264 . S
O133 Mg126 1.986 . S
O133 C137 1.246 . S
O134 Mg129 2.032 . S
O134 C137 1.259 . S
O135 Mg126 2.114 . S
O135 C138 1.252 . S
O136 Mg126 2.251 . S
O136 Mg129 2.079 . S
O136 C138 1.273 . S
C137 O133 1.246 . S
C137 O134 1.259 . S
C138 O135 1.252 . S
C138 O136 1.273 . S
O139 Mg126 2.010 . S
O139 C131 1.249 . S
Mg140 O141 2.028 . S
Mg140 O147 1.986 . S
Mg140 O149 2.114 . S
Mg140 O150 2.251 . S
Mg140 O153 2.010 . S
O141 Mg140 2.028 . S
O141 C144 1.250 . S
O142 Mg143 2.028 . S
O142 C144 1.248 . S
Mg143 O142 2.028 . S
Mg143 O148 2.032 . S
Mg143 O150 2.079 . S
C144 O141 1.250 . S
C144 O142 1.248 . S
C145 O146 1.264 . S
C145 O153 1.249 . S
O146 C145 1.264 . S
O147 Mg140 1.986 . S
O147 C151 1.246 . S
O148 Mg143 2.032 . S
O148 C151 1.259 . S
O149 Mg140 2.114 . S
O149 C152 1.252 . S
O150 Mg140 2.251 . S
O150 Mg143 2.079 . S
O150 C152 1.273 . S
C151 O147 1.246 . S
C151 O148 1.259 . S
C152 O149 1.252 . S
C152 O150 1.273 . S
O153 Mg140 2.010 . S
O153 C145 1.249 . S
Mg154 O155 2.028 . S
Mg154 O161 1.986 . S
Mg154 O163 2.114 . S
Mg154 O164 2.251 . S
Mg154 O167 2.010 . S
O155 Mg154 2.028 . S
O155 C158 1.250 . S
O156 Mg157 2.028 . S
O156 C158 1.248 . S
Mg157 O156 2.028 . S
Mg157 O162 2.032 . S
Mg157 O164 2.079 . S
C158 O155 1.250 . S
C158 O156 1.248 . S
C159 O160 1.264 . S
C159 O167 1.249 . S
O160 C159 1.264 . S
O161 Mg154 1.986 . S
O161 C165 1.246 . S
O162 Mg157 2.032 . S
O162 C165 1.259 . S
O163 Mg154 2.114 . S
O163 C166 1.252 . S
O164 Mg154 2.251 . S
O164 Mg157 2.079 . S
O164 C166 1.273 . S
C165 O161 1.246 . S
C165 O162 1.259 . S
C166 O163 1.252 . S
C166 O164 1.273 . S
O167 Mg154 2.010 . S
O167 C159 1.249 . S
Mg168 O169 2.028 . S
Mg168 O175 1.986 . S
Mg168 O177 2.114 . S
Mg168 O178 2.251 . S
Mg168 O181 2.010 . S
O169 Mg168 2.028 . S
O169 C172 1.250 . S
O170 Mg171 2.028 . S
O170 C172 1.248 . S
Mg171 O170 2.028 . S
Mg171 O176 2.032 . S
Mg171 O178 2.079 . S
C172 O169 1.250 . S
C172 O170 1.248 . S
C173 O174 1.264 . S
C173 O181 1.249 . S
O174 C173 1.264 . S
O175 Mg168 1.986 . S
O175 C179 1.246 . S
O176 Mg171 2.032 . S
O176 C179 1.259 . S
O177 Mg168 2.114 . S
O177 C180 1.252 . S
O178 Mg168 2.251 . S
O178 Mg171 2.079 . S
O178 C180 1.273 . S
C179 O175 1.246 . S
C179 O176 1.259 . S
C180 O177 1.252 . S
C180 O178 1.273 . S
O181 Mg168 2.010 . S
O181 C173 1.249 . S
Mg182 O183 2.028 . S
Mg182 O189 1.986 . S
Mg182 O191 2.114 . S
Mg182 O192 2.251 . S
Mg182 O195 2.010 . S
O183 Mg182 2.028 . S
O183 C186 1.250 . S
O184 Mg185 2.028 . S
O184 C186 1.248 . S
Mg185 O184 2.028 . S
Mg185 O190 2.032 . S
Mg185 O192 2.079 . S
C186 O183 1.250 . S
C186 O184 1.248 . S
C187 O188 1.264 . S
C187 O195 1.249 . S
O188 C187 1.264 . S
O189 Mg182 1.986 . S
O189 C193 1.246 . S
O190 Mg185 2.032 . S
O190 C193 1.259 . S
O191 Mg182 2.114 . S
O191 C194 1.252 . S
O192 Mg182 2.251 . S
O192 Mg185 2.079 . S
O192 C194 1.273 . S
C193 O189 1.246 . S
C193 O190 1.259 . S
C194 O191 1.252 . S
C194 O192 1.273 . S
O195 Mg182 2.010 . S
O195 C187 1.249 . S
Mg196 O197 2.028 . S
Mg196 O203 1.986 . S
Mg196 O205 2.114 . S
Mg196 O206 2.251 . S
Mg196 O209 2.010 . S
O197 Mg196 2.028 . S
O197 C200 1.250 . S
O198 Mg199 2.028 . S
O198 C200 1.248 . S
Mg199 O198 2.028 . S
Mg199 O204 2.032 . S
Mg199 O206 2.079 . S
C200 O197 1.250 . S
C200 O198 1.248 . S
C201 O202 1.264 . S
C201 O209 1.249 . S
O202 C201 1.264 . S
O203 Mg196 1.986 . S
O203 C207 1.246 . S
O204 Mg199 2.032 . S
O204 C207 1.259 . S
O205 Mg196 2.114 . S
O205 C208 1.252 . S
O206 Mg196 2.251 . S
O206 Mg199 2.079 . S
O206 C208 1.273 . S
C207 O203 1.246 . S
C207 O204 1.259 . S
C208 O205 1.252 . S
C208 O206 1.273 . S
O209 Mg196 2.010 . S
O209 C201 1.249 . S
C210 C211 1.363 . S
C210 C216 1.379 . S
C210 N218 1.356 . S
C211 C210 1.363 . S
C211 C217 1.363 . S
C212 C213 1.363 . S
C212 C217 1.379 . S
C212 N219 1.356 . S
C213 C212 1.363 . S
C213 C216 1.363 . S
N214 C216 1.356 . S
N214 H226 0.984 . S
N214 H227 0.985 . S
N215 C217 1.356 . S
N215 H220 0.984 . S
N215 H221 0.985 . S
C216 C210 1.379 . S
C216 C213 1.363 . S
C216 N214 1.356 . S
C217 C211 1.363 . S
C217 C212 1.379 . S
C217 N215 1.356 . S
N218 C210 1.356 . S
N218 H224 0.984 . S
N218 H225 0.984 . S
N219 C212 1.356 . S
N219 H222 0.984 . S
N219 H223 0.985 . S
H220 N215 0.984 . S
H221 N215 0.985 . S
H222 N219 0.984 . S
H223 N219 0.985 . S
H224 N218 0.984 . S
H225 N218 0.984 . S
H226 N214 0.984 . S
H227 N214 0.985 . S
C228 C229 1.363 . S
C228 C234 1.379 . S
C228 N236 1.356 . S
C229 C228 1.363 . S
C229 C235 1.363 . S
C230 C231 1.363 . S
C230 C235 1.379 . S
C230 N237 1.356 . S
C231 C230 1.363 . S
C231 C234 1.363 . S
N232 C234 1.356 . S
N232 H244 0.984 . S
N232 H245 0.985 . S
N233 C235 1.356 . S
N233 H238 0.984 . S
N233 H239 0.985 . S
C234 C228 1.379 . S
C234 C231 1.363 . S
C234 N232 1.356 . S
C235 C229 1.363 . S
C235 C230 1.379 . S
C235 N233 1.356 . S
N236 C228 1.356 . S
N236 H242 0.984 . S
N236 H243 0.984 . S
N237 C230 1.356 . S
N237 H240 0.984 . S
N237 H241 0.985 . S
H238 N233 0.984 . S
H239 N233 0.985 . S
H240 N237 0.984 . S
H241 N237 0.985 . S
H242 N236 0.984 . S
H243 N236 0.984 . S
H244 N232 0.984 . S
H245 N232 0.985 . S
C246 C247 1.363 . S
C246 C252 1.379 . S
C246 N254 1.356 . S
C247 C246 1.363 . S
C247 C253 1.363 . S
C248 C249 1.363 . S
C248 C253 1.379 . S
C248 N255 1.356 . S
C249 C248 1.363 . S
C249 C252 1.363 . S
N250 C252 1.356 . S
N250 H262 0.984 . S
N250 H263 0.985 . S
N251 C253 1.356 . S
N251 H256 0.984 . S
N251 H257 0.985 . S
C252 C246 1.379 . S
C252 C249 1.363 . S
C252 N250 1.356 . S
C253 C247 1.363 . S
C253 C248 1.379 . S
C253 N251 1.356 . S
N254 C246 1.356 . S
N254 H260 0.984 . S
N254 H261 0.984 . S
N255 C248 1.356 . S
N255 H258 0.984 . S
N255 H259 0.985 . S
H256 N251 0.984 . S
H257 N251 0.985 . S
H258 N255 0.984 . S
H259 N255 0.985 . S
H260 N254 0.984 . S
H261 N254 0.984 . S
H262 N250 0.984 . S
H263 N250 0.985 . S
C264 C265 1.363 . S
C264 C270 1.379 . S
C264 N272 1.356 . S
C265 C264 1.363 . S
C265 C271 1.363 . S
C266 C267 1.363 . S
C266 C271 1.379 . S
C266 N273 1.356 . S
C267 C266 1.363 . S
C267 C270 1.363 . S
N268 C270 1.356 . S
N268 H280 0.984 . S
N268 H281 0.985 . S
N269 C271 1.356 . S
N269 H274 0.984 . S
N269 H275 0.985 . S
C270 C264 1.379 . S
C270 C267 1.363 . S
C270 N268 1.356 . S
C271 C265 1.363 . S
C271 C266 1.379 . S
C271 N269 1.356 . S
N272 C264 1.356 . S
N272 H278 0.984 . S
N272 H279 0.984 . S
N273 C266 1.356 . S
N273 H276 0.984 . S
N273 H277 0.985 . S
H274 N269 0.984 . S
H275 N269 0.985 . S
H276 N273 0.984 . S
H277 N273 0.985 . S
H278 N272 0.984 . S
H279 N272 0.984 . S
H280 N268 0.984 . S
H281 N268 0.985 . S
C282 C283 1.363 . S
C282 C288 1.379 . S
C282 N290 1.356 . S
C283 C282 1.363 . S
C283 C289 1.363 . S
C284 C285 1.363 . S
C284 C289 1.379 . S
C284 N291 1.356 . S
C285 C284 1.363 . S
C285 C288 1.363 . S
N286 C288 1.356 . S
N286 H298 0.984 . S
N286 H299 0.985 . S
N287 C289 1.356 1_554 S
N287 H292 0.984 . S
N287 H293 0.985 . S
C288 C282 1.379 . S
C288 C285 1.363 . S
C288 N286 1.356 . S
C289 C283 1.363 . S
C289 C284 1.379 . S
C289 N287 1.356 1_556 S
N290 C282 1.356 . S
N290 H296 0.984 . S
N290 H297 0.984 . S
N291 C284 1.356 . S
N291 H294 0.984 . S
N291 H295 0.985 1_556 S
H292 N287 0.984 . S
H293 N287 0.985 . S
H294 N291 0.984 . S
H295 N291 0.985 1_554 S
H296 N290 0.984 . S
H297 N290 0.984 . S
H298 N286 0.984 . S
H299 N286 0.985 . S
C300 C301 1.363 . S
C300 C306 1.379 . S
C300 N308 1.356 . S
C301 C300 1.363 . S
C301 C307 1.363 . S
C302 C303 1.363 . S
C302 C307 1.379 . S
C302 N309 1.356 . S
C303 C302 1.363 . S
C303 C306 1.363 . S
N304 C306 1.356 . S
N304 H316 0.984 . S
N304 H317 0.985 . S
N305 C307 1.356 . S
N305 H310 0.984 . S
N305 H311 0.985 . S
C306 C300 1.379 . S
C306 C303 1.363 . S
C306 N304 1.356 . S
C307 C301 1.363 . S
C307 C302 1.379 . S
C307 N305 1.356 . S
N308 C300 1.356 . S
N308 H314 0.984 . S
N308 H315 0.984 . S
N309 C302 1.356 . S
N309 H312 0.984 . S
N309 H313 0.985 . S
H310 N305 0.984 . S
H311 N305 0.985 . S
H312 N309 0.984 . S
H313 N309 0.985 . S
H314 N308 0.984 . S
H315 N308 0.984 . S
H316 N304 0.984 . S
H317 N304 0.985 . S
C318 C319 1.363 . S
C318 C324 1.379 . S
C318 N326 1.356 . S
C319 C318 1.363 . S
C319 C325 1.363 . S
C320 C321 1.363 . S
C320 C325 1.379 . S
C320 N327 1.356 . S
C321 C320 1.363 . S
C321 C324 1.363 . S
N322 C324 1.356 . S
N322 H334 0.984 . S
N322 H335 0.985 . S
N323 C325 1.356 . S
N323 H328 0.984 . S
N323 H329 0.985 . S
C324 C318 1.379 . S
C324 C321 1.363 . S
C324 N322 1.356 . S
C325 C319 1.363 . S
C325 C320 1.379 . S
C325 N323 1.356 . S
N326 C318 1.356 . S
N326 H332 0.984 . S
N326 H333 0.984 . S
N327 C320 1.356 . S
N327 H330 0.984 . S
N327 H331 0.985 . S
H328 N323 0.984 . S
H329 N323 0.985 . S
H330 N327 0.984 . S
H331 N327 0.985 . S
H332 N326 0.984 . S
H333 N326 0.984 . S
H334 N322 0.984 . S
H335 N322 0.985 . S
C336 C337 1.363 . S
C336 C342 1.379 . S
C336 N344 1.356 . S
C337 C336 1.363 . S
C337 C343 1.363 . S
C338 C339 1.363 . S
C338 C343 1.379 . S
C338 N345 1.356 . S
C339 C338 1.363 . S
C339 C342 1.363 . S
N340 C342 1.356 . S
N340 H352 0.984 . S
N340 H353 0.985 . S
N341 C343 1.356 . S
N341 H346 0.984 . S
N341 H347 0.985 . S
C342 C336 1.379 . S
C342 C339 1.363 . S
C342 N340 1.356 . S
C343 C337 1.363 . S
C343 C338 1.379 . S
C343 N341 1.356 . S
N344 C336 1.356 . S
N344 H350 0.984 . S
N344 H351 0.984 . S
N345 C338 1.356 . S
N345 H348 0.984 . S
N345 H349 0.985 . S
H346 N341 0.984 . S
H347 N341 0.985 . S
H348 N345 0.984 . S
H349 N345 0.985 . S
H350 N344 0.984 . S
H351 N344 0.984 . S
H352 N340 0.984 . S
H353 N340 0.985 . S
C354 C355 1.363 . S
C354 C360 1.379 . S
C354 N362 1.356 . S
C355 C354 1.363 . S
C355 C361 1.363 . S
C356 C357 1.363 . S
C356 C361 1.379 . S
C356 N363 1.356 . S
C357 C356 1.363 . S
C357 C360 1.363 . S
N358 C360 1.356 . S
N358 H370 0.984 . S
N358 H371 0.985 . S
N359 C361 1.356 . S
N359 H364 0.984 . S
N359 H365 0.985 . S
C360 C354 1.379 . S
C360 C357 1.363 . S
C360 N358 1.356 . S
C361 C355 1.363 . S
C361 C356 1.379 . S
C361 N359 1.356 . S
N362 C354 1.356 . S
N362 H368 0.984 . S
N362 H369 0.984 . S
N363 C356 1.356 . S
N363 H366 0.984 . S
N363 H367 0.985 . S
H364 N359 0.984 . S
H365 N359 0.985 . S
H366 N363 0.984 . S
H367 N363 0.985 . S
H368 N362 0.984 . S
H369 N362 0.984 . S
H370 N358 0.984 . S
H371 N358 0.985 . S
C372 C373 1.363 . S
C372 C378 1.379 . S
C372 N380 1.356 1_554 S
C373 C372 1.363 . S
C373 C379 1.363 . S
C374 C375 1.363 . S
C374 C379 1.379 . S
C374 N381 1.356 . S
C375 C374 1.363 . S
C375 C378 1.363 . S
N376 C378 1.356 . S
N376 H388 0.984 1_554 S
N376 H389 0.985 . S
N377 C379 1.356 . S
N377 H382 0.984 . S
N377 H383 0.985 . S
C378 C372 1.379 . S
C378 C375 1.363 . S
C378 N376 1.356 . S
C379 C373 1.363 . S
C379 C374 1.379 . S
C379 N377 1.356 . S
N380 C372 1.356 1_556 S
N380 H386 0.984 . S
N380 H387 0.984 . S
N381 C374 1.356 . S
N381 H384 0.984 . S
N381 H385 0.985 . S
H382 N377 0.984 . S
H383 N377 0.985 . S
H384 N381 0.984 . S
H385 N381 0.985 . S
H386 N380 0.984 . S
H387 N380 0.984 . S
H388 N376 0.984 1_556 S
H389 N376 0.985 . S
C390 C391 1.363 . S
C390 C396 1.379 . S
C390 N398 1.356 . S
C391 C390 1.363 . S
C391 C397 1.363 . S
C392 C393 1.363 . S
C392 C397 1.379 . S
C392 N399 1.356 . S
C393 C392 1.363 . S
C393 C396 1.363 . S
N394 C396 1.356 . S
N394 H406 0.984 . S
N394 H407 0.985 . S
N395 C397 1.356 . S
N395 H400 0.984 . S
N395 H401 0.985 . S
C396 C390 1.379 . S
C396 C393 1.363 . S
C396 N394 1.356 . S
C397 C391 1.363 . S
C397 C392 1.379 . S
C397 N395 1.356 . S
N398 C390 1.356 . S
N398 H404 0.984 . S
N398 H405 0.984 . S
N399 C392 1.356 . S
N399 H402 0.984 . S
N399 H403 0.985 . S
H400 N395 0.984 . S
H401 N395 0.985 . S
H402 N399 0.984 . S
H403 N399 0.985 . S
H404 N398 0.984 . S
H405 N398 0.984 . S
H406 N394 0.984 . S
H407 N394 0.985 . S
C408 C409 1.363 . S
C408 C414 1.379 . S
C408 N416 1.356 . S
C409 C408 1.363 . S
C409 C415 1.363 . S
C410 C411 1.363 . S
C410 C415 1.379 . S
C410 N417 1.356 . S
C411 C410 1.363 . S
C411 C414 1.363 . S
N412 C414 1.356 . S
N412 H424 0.984 . S
N412 H425 0.985 . S
N413 C415 1.356 . S
N413 H418 0.984 . S
N413 H419 0.985 . S
C414 C408 1.379 . S
C414 C411 1.363 . S
C414 N412 1.356 . S
C415 C409 1.363 . S
C415 C410 1.379 . S
C415 N413 1.356 . S
N416 C408 1.356 . S
N416 H422 0.984 . S
N416 H423 0.984 . S
N417 C410 1.356 . S
N417 H420 0.984 . S
N417 H421 0.985 . S
H418 N413 0.984 . S
H419 N413 0.985 . S
H420 N417 0.984 . S
H421 N417 0.985 . S
H422 N416 0.984 . S
H423 N416 0.984 . S
H424 N412 0.984 . S
H425 N412 0.985 . S
C426 C427 1.363 . S
C426 C432 1.379 . S
C426 N434 1.356 . S
C427 C426 1.363 . S
C427 C433 1.363 . S
C428 C429 1.363 . S
C428 C433 1.379 . S
C428 N435 1.356 . S
C429 C428 1.363 . S
C429 C432 1.363 . S
N430 C432 1.356 . S
N430 H442 0.984 . S
N430 H443 0.985 . S
N431 C433 1.356 . S
N431 H436 0.984 . S
N431 H437 0.985 . S
C432 C426 1.379 . S
C432 C429 1.363 . S
C432 N430 1.356 . S
C433 C427 1.363 . S
C433 C428 1.379 . S
C433 N431 1.356 . S
N434 C426 1.356 . S
N434 H440 0.984 . S
N434 H441 0.984 . S
N435 C428 1.356 . S
N435 H438 0.984 . S
N435 H439 0.985 . S
H436 N431 0.984 . S
H437 N431 0.985 . S
H438 N435 0.984 . S
H439 N435 0.985 . S
H440 N434 0.984 . S
H441 N434 0.984 . S
H442 N430 0.984 . S
H443 N430 0.985 . S
C444 C445 1.363 . S
C444 C450 1.379 . S
C444 N452 1.356 . S
C445 C444 1.363 . S
C445 C451 1.363 . S
C446 C447 1.363 . S
C446 C451 1.379 . S
C446 N453 1.356 . S
C447 C446 1.363 . S
C447 C450 1.363 . S
N448 C450 1.356 . S
N448 H460 0.984 . S
N448 H461 0.985 . S
N449 C451 1.356 . S
N449 H454 0.984 . S
N449 H455 0.985 . S
C450 C444 1.379 . S
C450 C447 1.363 . S
C450 N448 1.356 . S
C451 C445 1.363 . S
C451 C446 1.379 . S
C451 N449 1.356 . S
N452 C444 1.356 . S
N452 H458 0.984 . S
N452 H459 0.984 . S
N453 C446 1.356 . S
N453 H456 0.984 . S
N453 H457 0.985 . S
H454 N449 0.984 . S
H455 N449 0.985 . S
H456 N453 0.984 . S
H457 N453 0.985 . S
H458 N452 0.984 . S
H459 N452 0.984 . S
H460 N448 0.984 . S
H461 N448 0.985 . S
C462 C463 1.363 . S
C462 C468 1.379 . S
C462 N470 1.356 . S
C463 C462 1.363 . S
C463 C469 1.363 . S
C464 C465 1.363 . S
C464 C469 1.379 . S
C464 N471 1.356 . S
C465 C464 1.363 . S
C465 C468 1.363 . S
N466 C468 1.356 . S
N466 H478 0.984 . S
N466 H479 0.985 . S
N467 C469 1.356 . S
N467 H472 0.984 . S
N467 H473 0.985 . S
C468 C462 1.379 . S
C468 C465 1.363 . S
C468 N466 1.356 . S
C469 C463 1.363 . S
C469 C464 1.379 . S
C469 N467 1.356 . S
N470 C462 1.356 . S
N470 H476 0.984 . S
N470 H477 0.984 . S
N471 C464 1.356 . S
N471 H474 0.984 . S
N471 H475 0.985 . S
H472 N467 0.984 . S
H473 N467 0.985 . S
H474 N471 0.984 . S
H475 N471 0.985 . S
H476 N470 0.984 . S
H477 N470 0.984 . S
H478 N466 0.984 . S
H479 N466 0.985 . S
C480 C481 1.363 . S
C480 C486 1.379 . S
C480 N488 1.356 . S
C481 C480 1.363 . S
C481 C487 1.363 . S
C482 C483 1.363 . S
C482 C487 1.379 . S
C482 N489 1.356 . S
C483 C482 1.363 . S
C483 C486 1.363 . S
N484 C486 1.356 . S
N484 H496 0.984 . S
N484 H497 0.985 1_556 S
N485 C487 1.356 . S
N485 H490 0.984 . S
N485 H491 0.985 . S
C486 C480 1.379 . S
C486 C483 1.363 . S
C486 N484 1.356 . S
C487 C481 1.363 . S
C487 C482 1.379 . S
C487 N485 1.356 . S
N488 C480 1.356 . S
N488 H494 0.984 . S
N488 H495 0.984 . S
N489 C482 1.356 . S
N489 H492 0.984 . S
N489 H493 0.985 . S
H490 N485 0.984 . S
H491 N485 0.985 . S
H492 N489 0.984 . S
H493 N489 0.985 . S
H494 N488 0.984 . S
H495 N488 0.984 . S
H496 N484 0.984 . S
H497 N484 0.985 1_554 S
C498 C499 1.363 . S
C498 C504 1.379 . S
C498 N506 1.356 . S
C499 C498 1.363 . S
C499 C505 1.363 . S
C500 C501 1.363 . S
C500 C505 1.379 . S
C500 N507 1.356 . S
C501 C500 1.363 . S
C501 C504 1.363 . S
N502 C504 1.356 . S
N502 H514 0.984 . S
N502 H515 0.985 . S
N503 C505 1.356 . S
N503 H508 0.984 . S
N503 H509 0.985 . S
C504 C498 1.379 . S
C504 C501 1.363 . S
C504 N502 1.356 . S
C505 C499 1.363 . S
C505 C500 1.379 . S
C505 N503 1.356 . S
N506 C498 1.356 . S
N506 H512 0.984 . S
N506 H513 0.984 . S
N507 C500 1.356 . S
N507 H510 0.984 . S
N507 H511 0.985 . S
H508 N503 0.984 . S
H509 N503 0.985 . S
H510 N507 0.984 . S
H511 N507 0.985 . S
H512 N506 0.984 . S
H513 N506 0.984 . S
H514 N502 0.984 . S
H515 N502 0.985 . S
C516 C517 1.363 . S
C516 C522 1.379 . S
C516 N524 1.356 . S
C517 C516 1.363 . S
C517 C523 1.363 . S
C518 C519 1.363 . S
C518 C523 1.379 . S
C518 N525 1.356 . S
C519 C518 1.363 . S
C519 C522 1.363 . S
N520 C522 1.356 . S
N520 H532 0.984 . S
N520 H533 0.985 . S
N521 C523 1.356 . S
N521 H526 0.984 . S
N521 H527 0.985 . S
C522 C516 1.379 . S
C522 C519 1.363 . S
C522 N520 1.356 . S
C523 C517 1.363 . S
C523 C518 1.379 . S
C523 N521 1.356 . S
N524 C516 1.356 . S
N524 H530 0.984 . S
N524 H531 0.984 . S
N525 C518 1.356 . S
N525 H528 0.984 . S
N525 H529 0.985 . S
H526 N521 0.984 . S
H527 N521 0.985 . S
H528 N525 0.984 . S
H529 N525 0.985 . S
H530 N524 0.984 . S
H531 N524 0.984 . S
H532 N520 0.984 . S
H533 N520 0.985 . S
C534 C535 1.363 . S
C534 C540 1.379 . S
C534 N542 1.356 . S
C535 C534 1.363 . S
C535 C541 1.363 . S
C536 C537 1.363 . S
C536 C541 1.379 . S
C536 N543 1.356 . S
C537 C536 1.363 . S
C537 C540 1.363 . S
N538 C540 1.356 . S
N538 H550 0.984 . S
N538 H551 0.985 . S
N539 C541 1.356 . S
N539 H544 0.984 . S
N539 H545 0.985 . S
C540 C534 1.379 . S
C540 C537 1.363 . S
C540 N538 1.356 . S
C541 C535 1.363 . S
C541 C536 1.379 . S
C541 N539 1.356 . S
N542 C534 1.356 . S
N542 H548 0.984 . S
N542 H549 0.984 . S
N543 C536 1.356 . S
N543 H546 0.984 . S
N543 H547 0.985 . S
H544 N539 0.984 . S
H545 N539 0.985 . S
H546 N543 0.984 . S
H547 N543 0.985 . S
H548 N542 0.984 . S
H549 N542 0.984 . S
H550 N538 0.984 . S
H551 N538 0.985 . S
C552 C553 1.363 . S
C552 C558 1.379 . S
C552 N560 1.356 . S
C553 C552 1.363 . S
C553 C559 1.363 . S
C554 C555 1.363 . S
C554 C559 1.379 . S
C554 N561 1.356 . S
C555 C554 1.363 . S
C555 C558 1.363 . S
N556 C558 1.356 . S
N556 H568 0.984 . S
N556 H569 0.985 . S
N557 C559 1.356 . S
N557 H562 0.984 . S
N557 H563 0.985 . S
C558 C552 1.379 . S
C558 C555 1.363 . S
C558 N556 1.356 . S
C559 C553 1.363 . S
C559 C554 1.379 . S
C559 N557 1.356 . S
N560 C552 1.356 . S
N560 H566 0.984 . S
N560 H567 0.984 . S
N561 C554 1.356 . S
N561 H564 0.984 . S
N561 H565 0.985 . S
H562 N557 0.984 . S
H563 N557 0.985 . S
H564 N561 0.984 . S
H565 N561 0.985 . S
H566 N560 0.984 . S
H567 N560 0.984 . S
H568 N556 0.984 . S
H569 N556 0.985 . S
C570 C571 1.363 . S
C570 C576 1.379 . S
C570 N578 1.356 . S
C571 C570 1.363 . S
C571 C577 1.363 . S
C572 C573 1.363 . S
C572 C577 1.379 . S
C572 N579 1.356 . S
C573 C572 1.363 . S
C573 C576 1.363 . S
N574 C576 1.356 . S
N574 H586 0.984 . S
N574 H587 0.985 . S
N575 C577 1.356 . S
N575 H580 0.984 . S
N575 H581 0.985 . S
C576 C570 1.379 . S
C576 C573 1.363 . S
C576 N574 1.356 . S
C577 C571 1.363 . S
C577 C572 1.379 . S
C577 N575 1.356 . S
N578 C570 1.356 . S
N578 H584 0.984 . S
N578 H585 0.984 . S
N579 C572 1.356 . S
N579 H582 0.984 . S
N579 H583 0.985 . S
H580 N575 0.984 . S
H581 N575 0.985 . S
H582 N579 0.984 . S
H583 N579 0.985 . S
H584 N578 0.984 . S
H585 N578 0.984 . S
H586 N574 0.984 . S
H587 N574 0.985 . S
C588 C589 1.363 . S
C588 C594 1.379 . S
C588 N596 1.356 . S
C589 C588 1.363 . S
C589 C595 1.363 . S
C590 C591 1.363 . S
C590 C595 1.379 . S
C590 N597 1.356 . S
C591 C590 1.363 . S
C591 C594 1.363 . S
N592 C594 1.356 . S
N592 H604 0.984 . S
N592 H605 0.985 . S
N593 C595 1.356 . S
N593 H598 0.984 . S
N593 H599 0.985 . S
C594 C588 1.379 . S
C594 C591 1.363 . S
C594 N592 1.356 . S
C595 C589 1.363 . S
C595 C590 1.379 . S
C595 N593 1.356 . S
N596 C588 1.356 . S
N596 H602 0.984 . S
N596 H603 0.984 . S
N597 C590 1.356 . S
N597 H600 0.984 . S
N597 H601 0.985 . S
H598 N593 0.984 . S
H599 N593 0.985 . S
H600 N597 0.984 . S
H601 N597 0.985 . S
H602 N596 0.984 . S
H603 N596 0.984 . S
H604 N592 0.984 . S
H605 N592 0.985 . S
C606 C607 1.363 . S
C606 C612 1.379 . S
C606 N614 1.356 . S
C607 C606 1.363 . S
C607 C613 1.363 . S
C608 C609 1.363 . S
C608 C613 1.379 1_556 S
C608 N615 1.356 . S
C609 C608 1.363 . S
C609 C612 1.363 1_556 S
N610 C612 1.356 . S
N610 H622 0.984 . S
N610 H623 0.985 1_554 S
N611 C613 1.356 . S
N611 H616 0.984 . S
N611 H617 0.985 1_554 S
C612 C606 1.379 . S
C612 C609 1.363 1_554 S
C612 N610 1.356 . S
C613 C607 1.363 . S
C613 C608 1.379 1_554 S
C613 N611 1.356 . S
N614 C606 1.356 . S
N614 H620 0.984 . S
N614 H621 0.984 . S
N615 C608 1.356 . S
N615 H618 0.984 . S
N615 H619 0.985 . S
H616 N611 0.984 . S
H617 N611 0.985 1_556 S
H618 N615 0.984 . S
H619 N615 0.985 . S
H620 N614 0.984 . S
H621 N614 0.984 . S
H622 N610 0.984 . S
H623 N610 0.985 1_556 S
C624 C625 1.363 . S
C624 C630 1.379 . S
C624 N632 1.356 . S
C625 C624 1.363 . S
C625 C631 1.363 . S
C626 C627 1.363 . S
C626 C631 1.379 . S
C626 N633 1.356 . S
C627 C626 1.363 . S
C627 C630 1.363 . S
N628 C630 1.356 . S
N628 H640 0.984 . S
N628 H641 0.985 . S
N629 C631 1.356 . S
N629 H634 0.984 . S
N629 H635 0.985 . S
C630 C624 1.379 . S
C630 C627 1.363 . S
C630 N628 1.356 . S
C631 C625 1.363 . S
C631 C626 1.379 . S
C631 N629 1.356 . S
N632 C624 1.356 . S
N632 H638 0.984 . S
N632 H639 0.984 . S
N633 C626 1.356 . S
N633 H636 0.984 . S
N633 H637 0.985 . S
H634 N629 0.984 . S
H635 N629 0.985 . S
H636 N633 0.984 . S
H637 N633 0.985 . S
H638 N632 0.984 . S
H639 N632 0.984 . S
H640 N628 0.984 . S
H641 N628 0.985 . S
C213 C201 1.312 . S
C211 C19 1.447 . S
C229 C40 1.468 . S
C231 C131 1.335 . S
C247 C51 1.439 . S
C249 C151 1.555 . S
C265 C72 1.400 . S
C267 C165 1.501 . S
C285 C173 1.279 . S
C283 C103 1.420 . S
C301 C114 1.415 . S
C303 C187 1.293 . S
C319 C30 1.444 . S
C321 C145 1.327 . S
C337 C61 1.425 . S
C339 C159 1.287 . S
C355 C82 1.398 . S
C357 C179 1.484 . S
C375 C193 1.519 . S
C373 C93 1.405 . S
C393 C207 1.523 . S
C391 C124 1.439 . S
C411 C137 1.542 . S
C409 C9 1.437 . S
C427 C17 1.424 . S
C429 C144 1.483 . S
C445 C38 1.421 . S
C447 C158 1.478 . S
C465 C180 1.492 . S
C463 C54 1.407 . S
C481 C75 1.418 . S
C483 C194 1.506 1_556 S
C501 C208 1.473 . S
C499 C101 1.383 . S
C519 C138 1.467 . S
C517 C117 1.377 . S
C537 C200 1.465 . S
C535 C33 1.407 . S
C553 C59 1.418 . S
C555 C130 1.476 . S
C573 C152 1.500 . S
C571 C80 1.415 . S
C589 C96 1.405 . S
C591 C166 1.491 . S
C607 C122 1.453 . S
C609 C172 1.505 . S
C625 C12 1.445 . S
C627 C186 1.501 . S
